
#######################################################################
#
#                 Cambridge Crystallographic Data Centre
#                                CCDC 
#
#######################################################################
#
# If this CIF has been generated from an entry in the Cambridge 
# Structural Database, then it will include bibliographic, chemical, 
# crystal, experimental, refinement or atomic coordinate data resulting 
# from the CCDC's data processing and validation procedures.
#
#######################################################################

data_PEFJER01
_chemical_formula_moiety         'C22 H21 B1 O2'
_chemical_name_systematic        
4,4,5,5-Tetramethyl-2-(pyren-2-yl)-[1,3,2]dioxaborolane
_symmetry_cell_setting           triclinic
_symmetry_space_group_name_H-M   'P -1'
_symmetry_Int_Tables_number      2
_space_group_name_Hall           '-P 1'
loop_
_symmetry_equiv_pos_site_id
_symmetry_equiv_pos_as_xyz
1 x,y,z
2 -x,-y,-z
_cell_length_a                   6.9518(4)
_cell_length_b                   19.7285(12)
_cell_length_c                   20.8481(12)
_cell_angle_alpha                70.167(2)
_cell_angle_beta                 82.018(2)
_cell_angle_gamma                87.411(2)
_cell_volume                     2663.63
_exptl_crystal_colour            colorless
_exptl_crystal_description       plate
_cell_formula_units_Z            6
loop_
_atom_site_label
_atom_site_type_symbol
_atom_site_fract_x
_atom_site_fract_y
_atom_site_fract_z
O1 O 0.76325(19) 0.17354(7) 0.14071(7)
O2 O 1.04556(18) 0.10936(7) 0.14118(7)
C1 C 0.6157(3) 0.07454(10) 0.28385(10)
H1 H 0.5341 0.1122 0.2606
C2 C 0.8029(3) 0.06815(10) 0.25155(10)
C3 C 0.9205(3) 0.01264(10) 0.28712(10)
H2 H 1.0494 0.0087 0.2665
C4 C 0.9752(3) -0.09494(11) 0.38779(10)
H3 H 1.1037 -0.1000 0.3675
C5 C 0.9071(3) -0.14273(11) 0.45048(11)
H4 H 0.9888 -0.1807 0.4731
C6 C 0.6428(3) -0.18519(11) 0.54759(11)
H5 H 0.7222 -0.2236 0.5709
C7 C 0.4574(3) -0.17743(12) 0.57772(11)
H6 H 0.4107 -0.2107 0.6216
C8 C 0.3385(3) -0.12201(12) 0.54520(11)
H7 H 0.2111 -0.1178 0.5668
C9 C 0.2888(3) -0.01307(11) 0.44510(11)
H8 H 0.1619 -0.0071 0.4661
C10 C 0.3553(3) 0.03458(11) 0.38273(11)
H9 H 0.2748 0.0734 0.3610
C11 C 0.5453(3) 0.02718(10) 0.34909(10)
C12 C 0.6658(3) -0.02947(10) 0.38316(10)
C13 C 0.8567(3) -0.03699(10) 0.35196(10)
C14 C 0.5946(3) -0.07985(10) 0.44914(10)
C15 C 0.4043(3) -0.07200(11) 0.48030(11)
C16 C 0.7150(3) -0.13692(11) 0.48298(10)
C17 C 0.8585(3) 0.19824(11) 0.06893(10)
C18 C 1.0703(3) 0.17114(11) 0.07630(10)
C19 C 0.7527(3) 0.16234(12) 0.03025(11)
H10 H 0.6138 0.1738 0.0353
H11 H 0.7698 0.1099 0.0490
H12 H 0.8054 0.1798 -0.0187
C20 C 0.8350(3) 0.27904(11) 0.04057(11)
H13 H 0.6967 0.2909 0.0401
H14 H 0.9031 0.2976 -0.0064
H15 H 0.8898 0.3011 0.0697
C21 C 1.1658(3) 0.14465(11) 0.01973(10)
H16 H 1.2972 0.1277 0.0289
H17 H 1.1728 0.1842 -0.0244
H18 H 1.0895 0.1049 0.0178
C22 C 1.2014(3) 0.22422(12) 0.08766(11)
H19 H 1.3198 0.1998 0.1045
H20 H 1.1331 0.2441 0.1217
H21 H 1.2366 0.2636 0.0441
B1 B 0.8723(3) 0.11805(13) 0.17754(12)
O3 O 0.68936(19) 0.61322(7) 0.35037(7)
O4 O 0.39501(19) 0.60272(8) 0.41734(7)
C23 C 0.5845(3) 0.48790(11) 0.30697(10)
H22 H 0.7110 0.5081 0.2912
C24 C 0.4531(3) 0.51818(11) 0.34718(10)
C25 C 0.2668(3) 0.48803(11) 0.36939(10)
H23 H 0.1756 0.5085 0.3960
C26 C 0.0211(3) 0.39675(11) 0.37776(10)
H24 H -0.0702 0.4161 0.4051
C27 C -0.0300(3) 0.33975(11) 0.36212(10)
H25 H -0.1561 0.3195 0.3792
C28 C 0.0515(3) 0.25025(11) 0.30258(10)
H26 H -0.0740 0.2293 0.3187
C29 C 0.1829(3) 0.22237(11) 0.26144(10)
H27 H 0.1468 0.1824 0.2500
C30 C 0.3670(3) 0.25226(11) 0.23711(10)
H28 H 0.4546 0.2332 0.2084
C31 C 0.6141(3) 0.34175(11) 0.23084(10)
H29 H 0.7047 0.3229 0.2028
C32 C 0.6663(3) 0.39795(11) 0.24761(10)
H30 H 0.7935 0.4173 0.2314
C33 C 0.5350(3) 0.42917(11) 0.28920(10)
C34 C 0.3453(3) 0.39870(11) 0.31319(10)
C35 C 0.2108(3) 0.42891(11) 0.35378(10)
C36 C 0.2910(3) 0.33884(10) 0.29610(9)
C37 C 0.4242(3) 0.31006(11) 0.25426(10)
C38 C 0.1016(3) 0.30879(11) 0.32049(10)
C39 C 0.7051(3) 0.65534(12) 0.39548(11)
C40 C 0.4898(3) 0.66494(11) 0.42280(11)
C41 C 0.8213(3) 0.60920(12) 0.45129(11)
H31 H 0.9502 0.5997 0.4303
H32 H 0.7534 0.5634 0.4764
H33 H 0.8354 0.6348 0.4833
C42 C 0.8139(3) 0.72451(12) 0.35408(11)
H34 H 0.9474 0.7133 0.3387
H35 H 0.8160 0.7548 0.3828
H36 H 0.7486 0.7503 0.3140
C43 C 0.4525(3) 0.66247(12) 0.49666(11)
H37 H 0.3135 0.6688 0.5093
H38 H 0.5256 0.7012 0.5019
H39 H 0.4945 0.6158 0.5267
C44 C 0.3960(3) 0.73122(12) 0.37703(13)
H40 H 0.2552 0.7293 0.3911
H41 H 0.4228 0.7330 0.3290
H42 H 0.4492 0.7746 0.3812
B2 B 0.5133(4) 0.57940(14) 0.37087(12)
O5 O 0.3432(2) 0.82647(7) 0.12952(7)
O6 O 0.58096(19) 0.84001(7) 0.18974(7)
C45 C 0.5444(3) 0.69129(10) 0.11282(10)
H43 H 0.4267 0.7058 0.0936
C46 C 0.6134(3) 0.73130(10) 0.14889(10)
C47 C 0.7869(3) 0.70873(10) 0.17708(10)
H44 H 0.8358 0.7354 0.2017
C48 C 1.0652(3) 0.62509(11) 0.19969(10)
H45 H 1.1135 0.6507 0.2253
C49 C 1.1634(3) 0.56699(11) 0.19212(10)
H46 H 1.2799 0.5529 0.2122
C50 C 1.1916(3) 0.46521(11) 0.14637(10)
H47 H 1.3089 0.4501 0.1657
C51 C 1.1192(3) 0.42661(11) 0.11055(11)
H48 H 1.1858 0.3850 0.1060
C52 C 0.9496(3) 0.44820(11) 0.08146(10)
H49 H 0.9019 0.4215 0.0567
C53 C 0.6703(3) 0.53185(11) 0.05932(10)
H50 H 0.6199 0.5055 0.0347
C54 C 0.5726(3) 0.59011(11) 0.06663(10)
H51 H 0.4561 0.6041 0.0466
C55 C 0.6414(3) 0.63138(10) 0.10387(10)
C56 C 0.8179(3) 0.60975(10) 0.13258(10)
C57 C 0.8904(3) 0.64881(11) 0.17018(10)
C58 C 0.9209(3) 0.54817(10) 0.12488(10)
C59 C 0.8480(3) 0.50861(10) 0.08786(10)
C60 C 1.0952(3) 0.52621(10) 0.15455(10)
C61 C 0.2784(3) 0.88548(11) 0.15500(11)
C62 C 0.4706(3) 0.90725(11) 0.17389(12)
C63 C 0.1256(3) 0.85435(11) 0.21682(11)
H52 H 0.0176 0.8347 0.2028
H53 H 0.0769 0.8923 0.2354
H54 H 0.1835 0.8158 0.2523
C64 C 0.1884(3) 0.94329(12) 0.09900(11)
H55 H 0.2818 0.9585 0.0570
H56 H 0.1532 0.9848 0.1139
H57 H 0.0715 0.9241 0.0897
C65 C 0.5909(3) 0.96170(12) 0.11410(14)
H58 H 0.7209 0.9653 0.1259
H59 H 0.5279 1.0091 0.1035
H60 H 0.6021 0.9461 0.0738
C66 C 0.4479(3) 0.93087(13) 0.23652(13)
H61 H 0.5766 0.9383 0.2473
H62 H 0.3779 0.8937 0.2759
H63 H 0.3748 0.9761 0.2269
B3 B 0.5100(4) 0.79939(13) 0.15611(12)
loop_
_geom_bond_atom_site_label_1
_geom_bond_atom_site_label_2
_geom_bond_site_symmetry_1
_geom_bond_site_symmetry_2
O1 C17 1_555 1_555
O2 C18 1_555 1_555
C1 H1 1_555 1_555
C2 C1 1_555 1_555
C3 C2 1_555 1_555
H2 C3 1_555 1_555
C4 H3 1_555 1_555
C5 C4 1_555 1_555
H4 C5 1_555 1_555
C6 H5 1_555 1_555
C7 C6 1_555 1_555
H6 C7 1_555 1_555
C8 C7 1_555 1_555
H7 C8 1_555 1_555
C9 H8 1_555 1_555
C10 C9 1_555 1_555
H9 C10 1_555 1_555
C11 C1 1_555 1_555
C12 C11 1_555 1_555
C13 C3 1_555 1_555
C14 C12 1_555 1_555
C15 C8 1_555 1_555
C16 C5 1_555 1_555
C17 C18 1_555 1_555
C18 C21 1_555 1_555
C19 C17 1_555 1_555
H10 C19 1_555 1_555
H11 C19 1_555 1_555
H12 C19 1_555 1_555
C20 C17 1_555 1_555
H13 C20 1_555 1_555
H14 C20 1_555 1_555
H15 C20 1_555 1_555
C21 H16 1_555 1_555
H17 C21 1_555 1_555
H18 C21 1_555 1_555
C22 C18 1_555 1_555
H19 C22 1_555 1_555
H20 C22 1_555 1_555
H21 C22 1_555 1_555
B1 O1 1_555 1_555
O3 C39 1_555 1_555
O4 C40 1_555 1_555
C23 H22 1_555 1_555
C24 C23 1_555 1_555
C25 C24 1_555 1_555
H23 C25 1_555 1_555
C26 H24 1_555 1_555
C27 C26 1_555 1_555
H25 C27 1_555 1_555
C28 H26 1_555 1_555
C29 C28 1_555 1_555
H27 C29 1_555 1_555
C30 C29 1_555 1_555
H28 C30 1_555 1_555
C31 H29 1_555 1_555
C32 C31 1_555 1_555
H30 C32 1_555 1_555
C33 C23 1_555 1_555
C34 C33 1_555 1_555
C35 C25 1_555 1_555
C36 C34 1_555 1_555
C37 C30 1_555 1_555
C38 C27 1_555 1_555
C39 C40 1_555 1_555
C40 C43 1_555 1_555
C41 C39 1_555 1_555
H31 C41 1_555 1_555
H32 C41 1_555 1_555
H33 C41 1_555 1_555
C42 C39 1_555 1_555
H34 C42 1_555 1_555
H35 C42 1_555 1_555
H36 C42 1_555 1_555
C43 H37 1_555 1_555
H38 C43 1_555 1_555
H39 C43 1_555 1_555
C44 C40 1_555 1_555
H40 C44 1_555 1_555
H41 C44 1_555 1_555
H42 C44 1_555 1_555
B2 O3 1_555 1_555
O5 C61 1_555 1_555
O6 C62 1_555 1_555
C45 H43 1_555 1_555
C46 C45 1_555 1_555
C47 C46 1_555 1_555
H44 C47 1_555 1_555
C48 H45 1_555 1_555
C49 C48 1_555 1_555
H46 C49 1_555 1_555
C50 H47 1_555 1_555
C51 C50 1_555 1_555
H48 C51 1_555 1_555
C52 C51 1_555 1_555
H49 C52 1_555 1_555
C53 H50 1_555 1_555
C54 C53 1_555 1_555
H51 C54 1_555 1_555
C55 C45 1_555 1_555
C56 C55 1_555 1_555
C57 C47 1_555 1_555
C58 C56 1_555 1_555
C59 C52 1_555 1_555
C60 C49 1_555 1_555
C61 C62 1_555 1_555
C62 C65 1_555 1_555
C63 C61 1_555 1_555
H52 C63 1_555 1_555
H53 C63 1_555 1_555
H54 C63 1_555 1_555
C64 C61 1_555 1_555
H55 C64 1_555 1_555
H56 C64 1_555 1_555
H57 C64 1_555 1_555
C65 H58 1_555 1_555
H59 C65 1_555 1_555
H60 C65 1_555 1_555
C66 C62 1_555 1_555
H61 C66 1_555 1_555
H62 C66 1_555 1_555
H63 C66 1_555 1_555
B3 O5 1_555 1_555
O2 B1 1_555 1_555
C2 B1 1_555 1_555
C4 C13 1_555 1_555
C6 C16 1_555 1_555
C9 C15 1_555 1_555
C10 C11 1_555 1_555
C12 C13 1_555 1_555
C14 C15 1_555 1_555
C14 C16 1_555 1_555
O4 B2 1_555 1_555
C24 B2 1_555 1_555
C26 C35 1_555 1_555
C28 C38 1_555 1_555
C31 C37 1_555 1_555
C32 C33 1_555 1_555
C34 C35 1_555 1_555
C36 C37 1_555 1_555
C36 C38 1_555 1_555
O6 B3 1_555 1_555
C46 B3 1_555 1_555
C48 C57 1_555 1_555
C50 C60 1_555 1_555
C53 C59 1_555 1_555
C54 C55 1_555 1_555
C56 C57 1_555 1_555
C58 C59 1_555 1_555
C58 C60 1_555 1_555

#END
