
#######################################################################
#
#                 Cambridge Crystallographic Data Centre
#                                CCDC 
#
#######################################################################
#
# If this CIF has been generated from an entry in the Cambridge 
# Structural Database, then it will include bibliographic, chemical, 
# crystal, experimental, refinement or atomic coordinate data resulting 
# from the CCDC's data processing and validation procedures.
#
#######################################################################

data_PEFJER
_chemical_formula_moiety         'C22 H21 B1 O2'
_chemical_name_systematic        
4,4,5,5-Tetramethyl-2-(pyren-2-yl)-[1,3,2]dioxaborolane
_symmetry_cell_setting           monoclinic
_symmetry_space_group_name_H-M   'P 21/n'
_symmetry_Int_Tables_number      14
_space_group_name_Hall           '-P 2yn'
loop_
_symmetry_equiv_pos_site_id
_symmetry_equiv_pos_as_xyz
1 x,y,z
2 1/2-x,1/2+y,1/2-z
3 -x,-y,-z
4 1/2+x,1/2-y,1/2+z
_cell_length_a                   25.4025(14)
_cell_length_b                   7.3852(4)
_cell_length_c                   30.8651(15)
_cell_angle_alpha                90
_cell_angle_beta                 113.387(10)
_cell_angle_gamma                90
_cell_volume                     5314.66
_exptl_crystal_colour            colorless
_exptl_crystal_description       blade
_chemical_melting_point          '400.7 K'
_cell_formula_units_Z            12
loop_
_atom_site_label
_atom_site_type_symbol
_atom_site_fract_x
_atom_site_fract_y
_atom_site_fract_z
O1 O 0.22286(4) 0.60534(14) 0.32285(3)
O2 O 0.25077(4) 0.87048(14) 0.30024(4)
C1 C 0.34790(6) 0.5175(2) 0.38439(5)
H1 H 0.3192 0.4346 0.3841
C2 C 0.33112(6) 0.6798(2) 0.35954(5)
C3 C 0.37387(6) 0.8013(2) 0.36084(5)
H2 H 0.3629 0.9128 0.3443
C4 C 0.47635(6) 0.8881(2) 0.38697(6)
H3 H 0.4661 1.0001 0.3706
C5 C 0.53240(6) 0.8481(2) 0.41109(6)
H4 H 0.5606 0.9328 0.4113
C6 C 0.60777(6) 0.6383(2) 0.46169(5)
H5 H 0.6367 0.7211 0.4623
C7 C 0.62326(6) 0.4771(2) 0.48615(5)
H6 H 0.6627 0.4510 0.5037
C8 C 0.58215(6) 0.3532(2) 0.48547(5)
H7 H 0.5936 0.2425 0.5023
C9 C 0.47943(6) 0.2659(2) 0.45875(5)
H8 H 0.4898 0.1541 0.4751
C10 C 0.42330(6) 0.3053(2) 0.43462(5)
H9 H 0.3951 0.2206 0.4343
C11 C 0.40550(6) 0.4728(2) 0.40937(5)
C12 C 0.44836(6) 0.59748(19) 0.40995(5)
C13 C 0.43210(6) 0.7645(2) 0.38553(5)
C14 C 0.50749(6) 0.5555(2) 0.43532(5)
C15 C 0.52380(6) 0.3892(2) 0.46018(5)
C16 C 0.55018(6) 0.6813(2) 0.43621(5)
C17 C 0.16947(6) 0.6959(2) 0.29251(5)
C18 C 0.19107(6) 0.8438(2) 0.26707(5)
C19 C 0.13018(6) 0.5540(2) 0.26034(6)
H10 H 0.1208 0.4634 0.2794
H11 H 0.1495 0.4948 0.2423
H12 H 0.0949 0.6118 0.2386
C20 C 0.14291(6) 0.7751(2) 0.32456(6)
H13 H 0.1351 0.6776 0.3427
H14 H 0.1069 0.8369 0.3055
H15 H 0.1696 0.8621 0.3463
C21 C 0.19347(7) 0.7784(2) 0.22138(5)
H16 H 0.2161 0.8635 0.2113
H17 H 0.1545 0.7708 0.1969
H18 H 0.2114 0.6584 0.2262
C22 C 0.16124(7) 1.0261(2) 0.26011(6)
H19 H 0.1786 1.1100 0.2450
H20 H 0.1653 1.0749 0.2908
H21 H 0.1205 1.0110 0.2400
B1 B 0.26715(7) 0.7195(2) 0.32772(6)
O3 O 0.16642(4) 0.82460(14) 0.60969(4)
O4 O 0.18531(4) 0.57967(14) 0.65894(4)
C23 C 0.19834(6) 0.6102(2) 0.54056(5)
H22 H 0.1825 0.7279 0.5321
C24 C 0.20773(6) 0.5430(2) 0.58531(5)
C25 C 0.23199(6) 0.3709(2) 0.59750(5)
H23 H 0.2389 0.3241 0.6279
C26 C 0.27065(6) 0.0874(2) 0.57806(6)
H24 H 0.2783 0.0391 0.6085
C27 C 0.28276(7) -0.0131(2) 0.54649(7)
H25 H 0.2988 -0.1303 0.5553
C28 C 0.28471(7) -0.0466(3) 0.46676(8)
H26 H 0.3015 -0.1634 0.4748
C29 C 0.27331(8) 0.0226(3) 0.42234(8)
H27 H 0.2824 -0.0471 0.4003
C30 C 0.24885(7) 0.1902(3) 0.40953(7)
H28 H 0.2404 0.2344 0.3786
C31 C 0.21244(6) 0.4736(2) 0.42983(6)
H29 H 0.2050 0.5213 0.3994
C32 C 0.20045(6) 0.5751(2) 0.46132(5)
H30 H 0.1844 0.6923 0.4523
C33 C 0.21137(6) 0.51007(19) 0.50782(5)
C34 C 0.23550(5) 0.33459(19) 0.52071(5)
C35 C 0.24645(6) 0.2656(2) 0.56633(5)
C36 C 0.24781(6) 0.2280(2) 0.48735(6)
C37 C 0.23618(6) 0.2965(2) 0.44159(6)
C38 C 0.27197(6) 0.0527(2) 0.50014(7)
C39 C 0.13689(6) 0.8602(2) 0.64101(5)
C40 C 0.16639(7) 0.7233(2) 0.68208(5)
C41 C 0.07389(6) 0.8177(2) 0.61224(6)
H31 H 0.0597 0.8941 0.5839
H32 H 0.0516 0.8422 0.6313
H33 H 0.0697 0.6899 0.6029
C42 C 0.14445(7) 1.0579(2) 0.65524(6)
H34 H 0.1241 1.1333 0.6275
H35 H 0.1853 1.0887 0.6683
H36 H 0.1287 1.0795 0.6791
C43 C 0.12651(8) 0.6410(3) 0.70245(6)
H37 H 0.1485 0.5613 0.7289
H38 H 0.0966 0.5708 0.6780
H39 H 0.1087 0.7378 0.7137
C44 C 0.22005(7) 0.7988(2) 0.72109(6)
H40 H 0.2411 0.7002 0.7421
H41 H 0.2091 0.8895 0.7392
H42 H 0.2447 0.8553 0.7072
B2 B 0.18714(7) 0.6517(2) 0.61882(6)
O5 O -0.06745(7) 0.9156(2) 0.25224(5)
O6 O -0.02756(6) 0.71474(19) 0.21779(4)
C45 C -0.00386(6) 0.7235(2) 0.34773(5)
H43 H -0.0190 0.8403 0.3487
C46 C -0.00609(6) 0.6567(2) 0.30476(5)
C47 C 0.01682(6) 0.4852(2) 0.30404(5)
H44 H 0.0155 0.4387 0.2749
C48 C 0.06500(6) 0.2036(2) 0.34444(6)
H45 H 0.0646 0.1560 0.3157
C49 C 0.08760(6) 0.1032(2) 0.38423(6)
H46 H 0.1032 -0.0126 0.3829
C50 C 0.10995(6) 0.0635(2) 0.46961(5)
H47 H 0.1251 -0.0535 0.4689
C51 C 0.10925(6) 0.1284(2) 0.51142(5)
H48 H 0.1238 0.0558 0.5391
C52 C 0.08761(6) 0.2986(2) 0.51316(5)
H49 H 0.0874 0.3417 0.5421
C53 C 0.04401(6) 0.5873(2) 0.47367(5)
H50 H 0.0447 0.6348 0.5025
C54 C 0.02213(6) 0.6886(2) 0.43395(5)
H51 H 0.0078 0.8061 0.4355
C55 C 0.02014(6) 0.62359(19) 0.38958(5)
C56 C 0.04303(5) 0.44917(19) 0.38813(5)
C57 C 0.04159(6) 0.3799(2) 0.34468(5)
C58 C 0.06615(5) 0.34236(19) 0.42992(5)
C59 C 0.06613(6) 0.4092(2) 0.47310(5)
C60 C 0.08855(6) 0.1673(2) 0.42843(5)
C61 C -0.09518(9) 0.9474(3) 0.20110(6)
C62 C -0.05273(8) 0.8588(3) 0.18300(6)
C63 C -0.10620(10) 1.1447(3) 0.19093(6)
H52 H -0.0698 1.2111 0.2023
H53 H -0.1301 1.1897 0.2069
H54 H -0.1263 1.1624 0.1568
C64 C -0.15225(8) 0.8425(4) 0.18398(8)
H55 H -0.1441 0.7130 0.1899
H56 H -0.1755 0.8835 0.2010
H57 H -0.1734 0.8628 0.1501
C65 C -0.00384(8) 0.9873(3) 0.18697(7)
H58 H 0.0263 0.9209 0.1813
H59 H -0.0186 1.0844 0.1636
H60 H 0.0123 1.0399 0.2188
C66 C -0.07833(9) 0.7778(3) 0.13460(6)
H61 H -0.1096 0.6952 0.1322
H62 H -0.0486 0.7109 0.1286
H63 H -0.0933 0.8749 0.1113
B3 B -0.03393(7) 0.7652(2) 0.25808(6)
C67? C -0.0657(6) 0.9892(17) 0.2047(5)
C68? C -0.0835(7) 0.806(2) 0.1806(5)
C69? C -0.0148(12) 1.105(4) 0.2091(12)
C70? C -0.1387(12) 0.702(5) 0.1650(13)
H64? H -0.0886 1.2475 0.2103
H65? H -0.1154 1.1738 0.1584
H66? H -0.1406 1.1134 0.1950
H67? H -0.0148 1.2123 0.2268
H68? H 0.0201 1.0394 0.2251
H69? H -0.0177 1.1393 0.1783
H70? H -0.0906 0.6572 0.1237
H71? H -0.1021 0.8637 0.1119
H72? H -0.0391 0.7934 0.1386
H73? H -0.1351 0.5917 0.1499
H74? H -0.1465 0.6737 0.1922
H75? H -0.1696 0.7728 0.1433
O7? O -0.0447(6) 0.946(2) 0.2553(5)
O8? O -0.0534(6) 0.6740(18) 0.2161(5)
loop_
_geom_bond_atom_site_label_1
_geom_bond_atom_site_label_2
_geom_bond_site_symmetry_1
_geom_bond_site_symmetry_2
O1 C17 1_555 1_555
O2 C18 1_555 1_555
C1 H1 1_555 1_555
C2 C1 1_555 1_555
C3 C2 1_555 1_555
H2 C3 1_555 1_555
C4 H3 1_555 1_555
C5 C4 1_555 1_555
H4 C5 1_555 1_555
C6 H5 1_555 1_555
C7 C6 1_555 1_555
H6 C7 1_555 1_555
C8 C7 1_555 1_555
H7 C8 1_555 1_555
C9 H8 1_555 1_555
C10 C9 1_555 1_555
H9 C10 1_555 1_555
C11 C1 1_555 1_555
C12 C11 1_555 1_555
C13 C3 1_555 1_555
C14 C12 1_555 1_555
C15 C8 1_555 1_555
C16 C5 1_555 1_555
C17 C18 1_555 1_555
C18 C21 1_555 1_555
C19 C17 1_555 1_555
H10 C19 1_555 1_555
H11 C19 1_555 1_555
H12 C19 1_555 1_555
C20 C17 1_555 1_555
H13 C20 1_555 1_555
H14 C20 1_555 1_555
H15 C20 1_555 1_555
C21 H16 1_555 1_555
H17 C21 1_555 1_555
H18 C21 1_555 1_555
C22 C18 1_555 1_555
H19 C22 1_555 1_555
H20 C22 1_555 1_555
H21 C22 1_555 1_555
B1 O1 1_555 1_555
O3 C39 1_555 1_555
O4 C40 1_555 1_555
C23 H22 1_555 1_555
C24 C23 1_555 1_555
C25 C24 1_555 1_555
H23 C25 1_555 1_555
C26 H24 1_555 1_555
C27 C26 1_555 1_555
H25 C27 1_555 1_555
C28 H26 1_555 1_555
C29 C28 1_555 1_555
H27 C29 1_555 1_555
C30 C29 1_555 1_555
H28 C30 1_555 1_555
C31 H29 1_555 1_555
C32 C31 1_555 1_555
H30 C32 1_555 1_555
C33 C23 1_555 1_555
C34 C33 1_555 1_555
C35 C25 1_555 1_555
C36 C34 1_555 1_555
C37 C30 1_555 1_555
C38 C27 1_555 1_555
C39 C40 1_555 1_555
C40 C43 1_555 1_555
C41 C39 1_555 1_555
H31 C41 1_555 1_555
H32 C41 1_555 1_555
H33 C41 1_555 1_555
C42 C39 1_555 1_555
H34 C42 1_555 1_555
H35 C42 1_555 1_555
H36 C42 1_555 1_555
C43 H37 1_555 1_555
H38 C43 1_555 1_555
H39 C43 1_555 1_555
C44 C40 1_555 1_555
H40 C44 1_555 1_555
H41 C44 1_555 1_555
H42 C44 1_555 1_555
B2 O3 1_555 1_555
O5 C61 1_555 1_555
O6 C62 1_555 1_555
C45 H43 1_555 1_555
C46 C45 1_555 1_555
C47 C46 1_555 1_555
H44 C47 1_555 1_555
C48 H45 1_555 1_555
C49 C48 1_555 1_555
H46 C49 1_555 1_555
C50 H47 1_555 1_555
C51 C50 1_555 1_555
H48 C51 1_555 1_555
C52 C51 1_555 1_555
H49 C52 1_555 1_555
C53 H50 1_555 1_555
C54 C53 1_555 1_555
H51 C54 1_555 1_555
C55 C45 1_555 1_555
C56 C55 1_555 1_555
C57 C47 1_555 1_555
C58 C56 1_555 1_555
C59 C52 1_555 1_555
C60 C49 1_555 1_555
C61 C62 1_555 1_555
C62 C65 1_555 1_555
C63 C61 1_555 1_555
H52 C63 1_555 1_555
H53 C63 1_555 1_555
H54 C63 1_555 1_555
C64 C61 1_555 1_555
H55 C64 1_555 1_555
H56 C64 1_555 1_555
H57 C64 1_555 1_555
C65 H58 1_555 1_555
H59 C65 1_555 1_555
H60 C65 1_555 1_555
C66 C62 1_555 1_555
H61 C66 1_555 1_555
H62 C66 1_555 1_555
H63 C66 1_555 1_555
B3 O5 1_555 1_555
O2 B1 1_555 1_555
C2 B1 1_555 1_555
C4 C13 1_555 1_555
C6 C16 1_555 1_555
C9 C15 1_555 1_555
C10 C11 1_555 1_555
C12 C13 1_555 1_555
C14 C15 1_555 1_555
C14 C16 1_555 1_555
O4 B2 1_555 1_555
C24 B2 1_555 1_555
C26 C35 1_555 1_555
C28 C38 1_555 1_555
C31 C37 1_555 1_555
C32 C33 1_555 1_555
C34 C35 1_555 1_555
C36 C37 1_555 1_555
C36 C38 1_555 1_555
O6 B3 1_555 1_555
C46 B3 1_555 1_555
C48 C57 1_555 1_555
C50 C60 1_555 1_555
C53 C59 1_555 1_555
C54 C55 1_555 1_555
C56 C57 1_555 1_555
C58 C59 1_555 1_555
C58 C60 1_555 1_555

#END
