
#######################################################################
#
#                 Cambridge Crystallographic Data Centre
#                                CCDC 
#
#######################################################################
#
# If this CIF has been generated from an entry in the Cambridge 
# Structural Database, then it will include bibliographic, chemical, 
# crystal, experimental, refinement or atomic coordinate data resulting 
# from the CCDC's data processing and validation procedures.
#
#######################################################################

data_PEFLOB
_chemical_formula_moiety         'C22 H22 N2 O5'
_chemical_name_systematic        
3-Benzyl-4-benzyloxycarbonyl-8-carboxy-1,4-diazabicyclo(3.3.0)octan-2-one
_symmetry_cell_setting           monoclinic
_symmetry_space_group_name_H-M   'P 21'
_symmetry_Int_Tables_number      4
_space_group_name_Hall           'P 2yb'
loop_
_symmetry_equiv_pos_site_id
_symmetry_equiv_pos_as_xyz
1 x,y,z
2 -x,1/2+y,-z
_cell_length_a                   8.201(4)
_cell_length_b                   11.530(4)
_cell_length_c                   10.416(2)
_cell_angle_alpha                90
_cell_angle_beta                 86.98(3)
_cell_angle_gamma                90
_cell_volume                     983.543
_exptl_crystal_colour            colorless
_cell_formula_units_Z            2
loop_
_atom_site_label
_atom_site_type_symbol
_atom_site_fract_x
_atom_site_fract_y
_atom_site_fract_z
O1 O -0.0813(5) -0.2127(4) -0.3489(3)
O2 O -0.0966(5) 0.0084(4) -0.9652(4)
O3 O 0.1045(7) -0.1088(4) -0.9158(5)
O4 O -0.0958(6) -0.3882(4) -0.8586(4)
O5 O -0.0652(6) -0.4096(4) -0.3585(4)
N1 N -0.0926(5) -0.2247(4) -0.7352(4)
N2 N -0.0984(5) -0.3015(4) -0.5359(4)
C1 C -0.0334(9) -0.0774(6) -0.9027(6)
C2 C -0.1628(7) -0.1390(5) -0.8175(5)
C3 C -0.2584(7) -0.0564(5) -0.7235(6)
C4 C -0.2597(7) -0.1188(5) -0.5917(5)
C5 C -0.1059(7) -0.1893(4) -0.5996(5)
C6 C -0.0886(7) -0.3400(5) -0.7540(6)
C7 C -0.0929(7) -0.3996(5) -0.6249(5)
C8 C -0.0797(7) -0.3156(5) -0.4102(6)
C9 C -0.0953(9) -0.2178(8) -0.2063(5)
C10 C -0.2682(8) -0.2348(6) -0.1592(5)
C11 C -0.3754(9) -0.1437(6) -0.1521(7)
C12 C -0.536(1) -0.1596(8) -0.1080(7)
C13 C -0.593(1) -0.2664(7) -0.0715(7)
C14 C -0.489(1) -0.3585(7) -0.0782(6)
C15 C -0.3255(9) -0.3444(6) -0.1234(6)
C16 C -0.2440(8) -0.4790(5) -0.6068(7)
C17 C -0.3996(7) -0.4127(5) -0.6006(6)
C18 C -0.4713(8) -0.3732(6) -0.7096(7)
C19 C -0.6068(9) -0.3060(8) -0.7025(8)
C20 C -0.6774(9) -0.2736(7) -0.584(1)
C21 C -0.6066(9) -0.3126(7) -0.4727(9)
C22 C -0.4723(9) -0.3827(6) -0.4801(7)
H1 H -0.2365(7) -0.1786(5) -0.8773(5)
H2 H -0.3727(7) -0.0446(5) -0.7498(6)
H3 H -0.2020(7) 0.0203(5) -0.7197(6)
H4 H -0.3577(7) -0.1698(5) -0.5784(5)
H5 H -0.2575(7) -0.0613(5) -0.5199(5)
H6 H -0.0233(7) -0.1392(4) -0.5593(5)
H7 H 0.0027(7) -0.4507(5) -0.6098(5)
H8 H -0.0276(9) -0.2836(8) -0.1763(5)
H9 H -0.0539(9) -0.1432(8) -0.1714(5)
H10 H -0.3366(9) -0.0646(6) -0.1787(7)
H11 H -0.612(1) -0.0917(8) -0.1046(7)
H12 H -0.710(1) -0.2771(7) -0.0408(7)
H13 H -0.528(1) -0.4370(7) -0.0496(6)
H14 H -0.2510(9) -0.4130(6) -0.1300(6)
H15 H -0.2454(8) -0.5336(5) -0.6814(7)
H16 H -0.2366(8) -0.5244(5) -0.5255(7)
H17 H -0.4234(8) -0.3961(6) -0.7962(7)
H18 H -0.6562(9) -0.2784(8) -0.7828(8)
H19 H -0.7771(9) -0.2237(7) -0.577(1)
H20 H -0.6543(9) -0.2886(7) -0.3865(9)
H21 H -0.4248(9) -0.4113(6) -0.3995(7)
loop_
_geom_bond_atom_site_label_1
_geom_bond_atom_site_label_2
_geom_bond_site_symmetry_1
_geom_bond_site_symmetry_2
O1 C8 1_555 1_555
O2 C1 1_555 1_555
O3 C1 1_555 1_555
O4 C6 1_555 1_555
O5 C8 1_555 1_555
N1 C2 1_555 1_555
N2 C5 1_555 1_555
C1 C2 1_555 1_555
C2 C3 1_555 1_555
C3 C4 1_555 1_555
C4 C5 1_555 1_555
C5 N1 1_555 1_555
C6 N1 1_555 1_555
C7 N2 1_555 1_555
C8 N2 1_555 1_555
C9 O1 1_555 1_555
C10 C9 1_555 1_555
C11 C10 1_555 1_555
C12 C11 1_555 1_555
C13 C12 1_555 1_555
C14 C13 1_555 1_555
C15 C10 1_555 1_555
C16 C7 1_555 1_555
C17 C16 1_555 1_555
C18 C17 1_555 1_555
C19 C18 1_555 1_555
C20 C19 1_555 1_555
C21 C20 1_555 1_555
C22 C17 1_555 1_555
H1 C2 1_555 1_555
H2 C3 1_555 1_555
H3 C3 1_555 1_555
H4 C4 1_555 1_555
H5 C4 1_555 1_555
H6 C5 1_555 1_555
H7 C7 1_555 1_555
H8 C9 1_555 1_555
H9 C9 1_555 1_555
H10 C11 1_555 1_555
H11 C12 1_555 1_555
H12 C13 1_555 1_555
H13 C14 1_555 1_555
H14 C15 1_555 1_555
H15 C16 1_555 1_555
H16 C16 1_555 1_555
H17 C18 1_555 1_555
H18 C19 1_555 1_555
H19 C20 1_555 1_555
H20 C21 1_555 1_555
H21 C22 1_555 1_555
C6 C7 1_555 1_555
C14 C15 1_555 1_555
C21 C22 1_555 1_555

#END
