
#######################################################################
#
#                 Cambridge Crystallographic Data Centre
#                                CCDC 
#
#######################################################################
#
# If this CIF has been generated from an entry in the Cambridge 
# Structural Database, then it will include bibliographic, chemical, 
# crystal, experimental, refinement or atomic coordinate data resulting 
# from the CCDC's data processing and validation procedures.
#
#######################################################################

data_PEFLAO
_chemical_formula_moiety         'C14 H18 N2 O2 2+,2(B1 F4 1-)'
_chemical_name_systematic        
"4,4'-Dimethoxy-1,1'-dimethyl-2,2'-bipyridinium bis(tetrafluoroborate)"
_symmetry_cell_setting           orthorhombic
_symmetry_space_group_name_H-M   'P b c a'
_symmetry_Int_Tables_number      61
_space_group_name_Hall           '-P 2ac 2ab'
loop_
_symmetry_equiv_pos_site_id
_symmetry_equiv_pos_as_xyz
1 x,y,z
2 1/2-x,-y,1/2+z
3 -x,1/2+y,1/2-z
4 1/2+x,1/2-y,-z
5 -x,-y,-z
6 1/2+x,y,1/2-z
7 x,1/2-y,1/2+z
8 1/2-x,1/2+y,z
_cell_length_a                   12.0701(9)
_cell_length_b                   13.9385(11)
_cell_length_c                   21.0391(16)
_cell_angle_alpha                90
_cell_angle_beta                 90
_cell_angle_gamma                90
_cell_volume                     3539.6
_exptl_crystal_colour            colorless
_exptl_crystal_description       plate
_chemical_melting_point          '195-196 deg.C'
_cell_formula_units_Z            8
_exptl_crystal_recrystallization_method 'acetonitrile/ethyl acetate'
loop_
_atom_site_label
_atom_site_type_symbol
_atom_site_fract_x
_atom_site_fract_y
_atom_site_fract_z
C1 C 0.5799(2) 0.4443(2) 0.37425(13)
H1 H 0.6149 0.5049 0.3617
H2 H 0.6228 0.3905 0.3573
H3 H 0.5774 0.4401 0.4207
N1 N 0.46541(17) 0.44070(15) 0.34856(10)
C2 C 0.4262(2) 0.51514(19) 0.31424(12)
H4 H 0.4730 0.5687 0.3067
C3 C 0.3212(2) 0.51575(19) 0.29007(13)
H5 H 0.2959 0.5684 0.2654
C4 C 0.2519(2) 0.43822(18) 0.30212(12)
C5 C 0.2933(2) 0.36006(18) 0.33661(12)
H6 H 0.2482 0.3053 0.3440
C6 C 0.3994(2) 0.36333(18) 0.35953(12)
C7 C 0.4480(2) 0.28089(18) 0.39536(12)
C8 C 0.4914(2) 0.20397(17) 0.36420(12)
H7 H 0.4894 0.2015 0.3191
C9 C 0.5390(2) 0.12809(17) 0.39895(12)
C10 C 0.5463(2) 0.13711(18) 0.46443(13)
H8 H 0.5847 0.0905 0.4889
C11 C 0.4973(2) 0.21427(18) 0.49341(12)
H9 H 0.4992 0.2187 0.5385
N2 N 0.44659(17) 0.28387(14) 0.46004(10)
C12 C 0.3812(2) 0.35740(18) 0.49425(13)
H10 H 0.3901 0.3485 0.5402
H11 H 0.3028 0.3509 0.4830
H12 H 0.4074 0.4214 0.4823
O1 O 0.14862(15) 0.44296(13) 0.27987(8)
C13 C 0.0749(2) 0.3659(2) 0.29661(15)
H13 H 0.0020 0.3773 0.2776
H14 H 0.0676 0.3627 0.3430
H15 H 0.1049 0.3051 0.2807
O2 O 0.57331(15) 0.05327(12) 0.36518(9)
C14 C 0.6342(2) -0.02012(18) 0.39843(13)
H16 H 0.6547 -0.0711 0.3686
H17 H 0.5879 -0.0469 0.4323
H18 H 0.7014 0.0078 0.4170
B1 B 0.6657(2) 0.7171(2) 0.32335(14)
F1 F 0.61181(17) 0.68096(13) 0.27040(8)
F2 F 0.72352(15) 0.64495(13) 0.35253(10)
F3 F 0.58617(15) 0.75049(13) 0.36544(8)
F4 F 0.73426(16) 0.79106(13) 0.30569(8)
B2 B 0.2149(3) 0.1136(2) 0.45633(16)
F5 F 0.10618(13) 0.07984(11) 0.45773(8)
F6 F 0.22482(16) 0.18056(13) 0.40844(9)
F7 F 0.28661(14) 0.03660(12) 0.44510(8)
F8 F 0.24003(15) 0.15538(12) 0.51414(8)
loop_
_geom_bond_atom_site_label_1
_geom_bond_atom_site_label_2
_geom_bond_site_symmetry_1
_geom_bond_site_symmetry_2
C1 H1 1_555 1_555
H2 C1 1_555 1_555
H3 C1 1_555 1_555
N1 C1 1_555 1_555
C2 N1 1_555 1_555
H4 C2 1_555 1_555
C3 C2 1_555 1_555
H5 C3 1_555 1_555
C4 C3 1_555 1_555
C5 C4 1_555 1_555
H6 C5 1_555 1_555
C6 N1 1_555 1_555
C7 C6 1_555 1_555
C8 C7 1_555 1_555
H7 C8 1_555 1_555
C9 C8 1_555 1_555
C10 C9 1_555 1_555
H8 C10 1_555 1_555
C11 C10 1_555 1_555
H9 C11 1_555 1_555
N2 C7 1_555 1_555
C12 N2 1_555 1_555
H10 C12 1_555 1_555
H11 C12 1_555 1_555
H12 C12 1_555 1_555
O1 C4 1_555 1_555
C13 O1 1_555 1_555
H13 C13 1_555 1_555
H14 C13 1_555 1_555
H15 C13 1_555 1_555
O2 C9 1_555 1_555
C14 O2 1_555 1_555
H16 C14 1_555 1_555
H17 C14 1_555 1_555
H18 C14 1_555 1_555
B1 F1 1_555 1_555
F2 B1 1_555 1_555
F3 B1 1_555 1_555
F4 B1 1_555 1_555
B2 F5 1_555 1_555
F6 B2 1_555 1_555
F7 B2 1_555 1_555
F8 B2 1_555 1_555
C5 C6 1_555 1_555
C11 N2 1_555 1_555

#END
