
#######################################################################
#
#                 Cambridge Crystallographic Data Centre
#                                CCDC 
#
#######################################################################
#
# If this CIF has been generated from an entry in the Cambridge 
# Structural Database, then it will include bibliographic, chemical, 
# crystal, experimental, refinement or atomic coordinate data resulting 
# from the CCDC's data processing and validation procedures.
#
#######################################################################

data_PEFMES
_chemical_formula_moiety         'C17 H20 N3 O4'
_chemical_name_systematic        
2-(4-(4-Nitrophenyl)buta-1,3-dienyl)-4,4,5,5-tetramethyl-4,5-dihydro-1H-imidazolyl-1-oxyl-3-oxide
_symmetry_cell_setting           monoclinic
_symmetry_space_group_name_H-M   'P 21/n'
_symmetry_Int_Tables_number      14
_space_group_name_Hall           '-P 2yn'
loop_
_symmetry_equiv_pos_site_id
_symmetry_equiv_pos_as_xyz
1 x,y,z
2 1/2-x,1/2+y,1/2-z
3 -x,-y,-z
4 1/2+x,1/2-y,1/2+z
_cell_length_a                   22.920(6)
_cell_length_b                   6.133(4)
_cell_length_c                   12.005(4)
_cell_angle_alpha                90
_cell_angle_beta                 98.59
_cell_angle_gamma                90
_cell_volume                     1668.59
_cell_formula_units_Z            4
loop_
_atom_site_label
_atom_site_type_symbol
_atom_site_fract_x
_atom_site_fract_y
_atom_site_fract_z
O1 O 0.2354(3) 0.1288(13) 0.8700(6)
O2 O 0.0433(4) 0.2530(13) 0.7088(6)
O3 O 0.1874(4) -1.2018(14) 0.2301(7)
O4 O 0.0962(4) -1.2436(15) 0.1711(7)
N1 N 0.1834(3) 0.2045(13) 0.8555(7)
N2 N 0.0918(4) 0.2645(13) 0.7794(7)
N3 N 0.1360(5) -1.1493(16) 0.2262(8)
C1 C 0.1010(4) -0.5821(16) 0.4079(8)
C2 C 0.1588(5) -0.6438(16) 0.3999(8)
C3 C 0.1714(4) -0.8259(16) 0.3413(8)
C4 C 0.1249(5) -0.9523(16) 0.2902(8)
C5 C 0.0669(5) -0.9012(17) 0.2947(9)
C6 C 0.0563(5) -0.7141(17) 0.3524(9)
C7 C 0.0870(5) -0.3816(17) 0.4677(8)
C8 C 0.1243(5) -0.2765(17) 0.5385(8)
C9 C 0.1104(5) -0.0881(17) 0.6040(8)
C10 C 0.1514(5) -0.0019(16) 0.6846(8)
C11 C 0.1416(4) 0.1493(14) 0.7665(8)
C12 C 0.1629(5) 0.3701(16) 0.9317(8)
C13 C 0.1848(5) 0.3111(17) 1.0528(8)
C14 C 0.1919(6) 0.5862(17) 0.9033(11)
C15 C 0.095(4) 0.3674(17) 0.8921(8)
C16 C 0.0633(5) 0.2167(18) 0.9634(9)
C17 C 0.0649(6) 0.5893(17) 0.8816(10)
loop_
_geom_bond_atom_site_label_1
_geom_bond_atom_site_label_2
_geom_bond_site_symmetry_1
_geom_bond_site_symmetry_2
O1 N1 1_555 1_555
O2 N2 1_555 1_555
O3 N3 1_555 1_555
O4 N3 1_555 1_555
N1 C11 1_555 1_555
N2 C11 1_555 1_555
N3 C4 1_555 1_555
C1 C2 1_555 1_555
C2 C3 1_555 1_555
C3 C4 1_555 1_555
C4 C5 1_555 1_555
C5 C6 1_555 1_555
C6 C1 1_555 1_555
C7 C1 1_555 1_555
C8 C7 1_555 1_555
C9 C8 1_555 1_555
C10 C9 1_555 1_555
C11 C10 1_555 1_555
C12 N1 1_555 1_555
C13 C12 1_555 1_555
C14 C12 1_555 1_555
C15 N2 1_555 1_555
C16 C15 1_555 1_555
C17 C15 1_555 1_555
C12 C15 1_555 1_555

#END
