
#######################################################################
#
#                 Cambridge Crystallographic Data Centre
#                                CCDC 
#
#######################################################################
#
# If this CIF has been generated from an entry in the Cambridge 
# Structural Database, then it will include bibliographic, chemical, 
# crystal, experimental, refinement or atomic coordinate data resulting 
# from the CCDC's data processing and validation procedures.
#
#######################################################################

data_PEFREA
_chemical_formula_moiety         'C20 H24 N6 O1'
_chemical_name_systematic        
4-(benzyl(cyclopentyl)amino)-6-(morpholin-4-yl)-1,3,5-triazine-2-carbonitrile
_symmetry_cell_setting           triclinic
_symmetry_space_group_name_H-M   'P -1'
_symmetry_Int_Tables_number      2
_space_group_name_Hall           '-P 1'
loop_
_symmetry_equiv_pos_site_id
_symmetry_equiv_pos_as_xyz
1 x,y,z
2 -x,-y,-z
_cell_length_a                   8.4038(4)
_cell_length_b                   9.5155(5)
_cell_length_c                   12.4205(6)
_cell_angle_alpha                77.671(2)
_cell_angle_beta                 75.766(2)
_cell_angle_gamma                69.026(2)
_cell_volume                     890.256
_exptl_crystal_colour            colorless
_exptl_crystal_description       prism
_cell_formula_units_Z            2
_exptl_crystal_recrystallization_method methanol/pentane
loop_
_atom_site_label
_atom_site_type_symbol
_atom_site_fract_x
_atom_site_fract_y
_atom_site_fract_z
O1 O 0.8062(3) 0.9033(2) 0.58886(15)
N1 N 0.6148(3) 0.7463(2) 0.53462(17)
N2 N 0.3678(3) 0.6777(2) 0.58994(17)
N3 N 0.2335(3) 0.6516(2) 0.44972(17)
N4 N 0.5035(3) 0.7040(2) 0.39690(17)
N5 N 0.0288(3) 0.5608(3) 0.71548(18)
N6 N 0.3692(3) 0.6778(2) 0.26392(17)
C1 C 0.7684(3) 0.7667(3) 0.4567(2)
H1 H 0.7526 0.7775 0.3786
H2 H 0.8708 0.6765 0.4690
C2 C 0.7976(3) 0.9077(3) 0.4750(2)
H3 H 0.9072 0.9164 0.4263
H4 H 0.7019 0.9987 0.4531
C3 C 0.6493(4) 0.8908(3) 0.6609(2)
H5 H 0.5510 0.9807 0.6409
H6 H 0.6566 0.8899 0.7394
C4 C 0.6156(4) 0.7487(3) 0.6521(2)
H7 H 0.7071 0.6579 0.6794
H8 H 0.5024 0.7469 0.6990
C5 C 0.4929(3) 0.7092(3) 0.5051(2)
C6 C 0.2488(3) 0.6507(3) 0.5527(2)
C7 C 0.3702(3) 0.6780(3) 0.3725(2)
C8 C 0.1208(3) 0.6029(3) 0.6425(2)
C9 C 0.5241(3) 0.6735(3) 0.1764(2)
H9 H 0.6071 0.6982 0.2088
C10 C 0.4926(4) 0.7840(3) 0.0699(2)
H10 H 0.3840 0.7895 0.0490
H11 H 0.4847 0.8870 0.0797
C11 C 0.6483(4) 0.7202(3) -0.0188(2)
H12 H 0.7236 0.7851 -0.0397
H13 H 0.6102 0.7155 -0.0869
C12 C 0.7479(4) 0.5581(4) 0.0334(2)
H14 H 0.7827 0.4847 -0.0206
H15 H 0.8529 0.5574 0.0565
C13 C 0.6183(3) 0.5196(3) 0.1348(2)
H16 H 0.6778 0.4436 0.1923
H17 H 0.5376 0.4810 0.1130
C14 C 0.2189(3) 0.6652(3) 0.2329(2)
H18 H 0.1613 0.6077 0.2969
H19 H 0.2595 0.6057 0.1693
C15 C 0.0860(3) 0.8165(3) 0.1999(2)
C16 C 0.0891(3) 0.9540(3) 0.2177(2)
H20 H 0.1784 0.9559 0.2511
C17 C -0.0352(4) 1.0877(3) 0.1879(2)
H21 H -0.0306 1.1813 0.2000
C18 C -0.1672(4) 1.0867(3) 0.1401(2)
H22 H -0.2536 1.1792 0.1198
C19 C -0.1724(4) 0.9506(3) 0.1222(2)
H23 H -0.2628 0.9494 0.0895
C20 C -0.0478(3) 0.8165(3) 0.1515(2)
H24 H -0.0526 0.7232 0.1387
loop_
_geom_bond_atom_site_label_1
_geom_bond_atom_site_label_2
_geom_bond_site_symmetry_1
_geom_bond_site_symmetry_2
O1 C2 1_555 1_555
N1 C1 1_555 1_555
N2 C5 1_555 1_555
N3 C6 1_555 1_555
N4 C5 1_555 1_555
N5 C8 1_555 1_555
N6 C7 1_555 1_555
C1 H1 1_555 1_555
H2 C1 1_555 1_555
C2 C1 1_555 1_555
H3 C2 1_555 1_555
H4 C2 1_555 1_555
C3 O1 1_555 1_555
H5 C3 1_555 1_555
H6 C3 1_555 1_555
C4 N1 1_555 1_555
H7 C4 1_555 1_555
H8 C4 1_555 1_555
C5 N1 1_555 1_555
C6 N2 1_555 1_555
C7 N3 1_555 1_555
C8 C6 1_555 1_555
C9 N6 1_555 1_555
H9 C9 1_555 1_555
C10 C9 1_555 1_555
H10 C10 1_555 1_555
H11 C10 1_555 1_555
C11 C10 1_555 1_555
H12 C11 1_555 1_555
H13 C11 1_555 1_555
C12 C11 1_555 1_555
H14 C12 1_555 1_555
H15 C12 1_555 1_555
C13 C9 1_555 1_555
H16 C13 1_555 1_555
H17 C13 1_555 1_555
C14 N6 1_555 1_555
H18 C14 1_555 1_555
H19 C14 1_555 1_555
C15 C14 1_555 1_555
C16 C15 1_555 1_555
H20 C16 1_555 1_555
C17 C16 1_555 1_555
H21 C17 1_555 1_555
C18 C17 1_555 1_555
H22 C18 1_555 1_555
C19 C18 1_555 1_555
H23 C19 1_555 1_555
C20 C15 1_555 1_555
H24 C20 1_555 1_555
N4 C7 1_555 1_555
C3 C4 1_555 1_555
C12 C13 1_555 1_555
C19 C20 1_555 1_555

#END
