
#######################################################################
#
#                 Cambridge Crystallographic Data Centre
#                                CCDC 
#
#######################################################################
#
# If this CIF has been generated from an entry in the Cambridge 
# Structural Database, then it will include bibliographic, chemical, 
# crystal, experimental, refinement or atomic coordinate data resulting 
# from the CCDC's data processing and validation procedures.
#
#######################################################################

data_PEFVIG
_chemical_formula_moiety         'C26 H40 N2 O6 S2,C1 H4 O1'
_chemical_name_systematic        
"(2R,3S,4S,5R)-N,N'-bis(t-butylsulfonyl)-2,5-diamino-1,6-diphenylhexane-3,4-diol methanol solvate"
_symmetry_cell_setting           orthorhombic
_symmetry_space_group_name_H-M   'P 21 21 21'
_symmetry_Int_Tables_number      19
_space_group_name_Hall           'P 2ac 2ab'
loop_
_symmetry_equiv_pos_site_id
_symmetry_equiv_pos_as_xyz
1 x,y,z
2 1/2+x,1/2-y,-z
3 -x,1/2+y,1/2-z
4 1/2-x,-y,1/2+z
_cell_length_a                   10.2056(2)
_cell_length_b                   10.8445(2)
_cell_length_c                   27.1210(4)
_cell_angle_alpha                90
_cell_angle_beta                 90
_cell_angle_gamma                90
_cell_volume                     3001.61
_exptl_crystal_colour            colorless
_chemical_melting_point          '472 K'
_cell_formula_units_Z            4
_exptl_crystal_recrystallization_method acetone/methanol
loop_
_atom_site_label
_atom_site_type_symbol
_atom_site_fract_x
_atom_site_fract_y
_atom_site_fract_z
C1 C 0.4485(3) 0.3094(3) 0.41056(10)
C2 C 0.3797(3) 0.4056(3) 0.37874(9)
C3 C 0.4672(3) 0.4417(3) 0.33472(11)
C4 C 0.4225(3) 0.5550(3) 0.30758(10)
C5 C 0.3875(4) 0.5509(3) 0.25783(10)
C6 C 0.3495(4) 0.6565(4) 0.23305(12)
C7 C 0.3440(4) 0.7678(4) 0.25786(14)
C8 C 0.3791(4) 0.7734(3) 0.30698(13)
C9 C 0.4171(3) 0.6682(3) 0.33150(11)
O1 O 0.4635(2) 0.1994(2) 0.38082(8)
N1 N 0.2512(2) 0.3639(2) 0.36025(8)
S1 S 0.11329(7) 0.39315(7) 0.38768(2)
O2 O 0.0542(2) 0.2783(2) 0.40297(9)
O3 O 0.13735(19) 0.4861(2) 0.42437(7)
C10 C 0.0073(3) 0.4561(3) 0.34062(11)
C11 C -0.1272(3) 0.4727(4) 0.36515(14)
C12 C 0.0614(3) 0.5800(3) 0.32340(13)
C13 C -0.0013(4) 0.3656(4) 0.29787(13)
C14 C 0.3777(3) 0.2772(2) 0.45823(10)
C15 C 0.3728(2) 0.3828(2) 0.49620(9)
C16 C 0.2780(3) 0.3480(3) 0.53827(10)
C17 C 0.2547(3) 0.4527(3) 0.57382(10)
C18 C 0.3199(3) 0.4596(3) 0.61887(11)
C19 C 0.3002(4) 0.5601(3) 0.64998(12)
C20 C 0.2140(4) 0.6521(3) 0.63700(13)
C21 C 0.1471(3) 0.6458(3) 0.59258(13)
C22 C 0.1667(3) 0.5469(3) 0.56115(11)
O4 O 0.4455(2) 0.17363(19) 0.47831(7)
N2 N 0.5031(2) 0.4088(2) 0.51690(8)
S2 S 0.60590(7) 0.50788(6) 0.49516(2)
O5 O 0.7277(2) 0.44570(19) 0.48373(8)
O6 O 0.5418(2) 0.57342(18) 0.45559(7)
C23 C 0.6408(3) 0.6148(3) 0.54487(11)
C24 C 0.7589(3) 0.6917(3) 0.52834(13)
C25 C 0.5205(4) 0.6960(3) 0.55213(13)
C26 C 0.6752(3) 0.5413(3) 0.59091(12)
H1 H 0.497(4) 0.146(3) 0.4003(13)
H2 H 0.252(4) 0.294(3) 0.3456(12)
H3 H 0.387(3) 0.130(3) 0.4919(12)
H4 H 0.537(3) 0.353(3) 0.5324(11)
H6 H 0.5343 0.3453 0.4212
H7 H 0.3639 0.4786 0.4005
H8 H 0.5579 0.4569 0.3473
H9 H 0.4685 0.3712 0.3109
H10 H 0.3900 0.4704 0.2399
H11 H 0.3261 0.6524 0.1973
H12 H 0.3147 0.8440 0.2403
H13 H 0.3768 0.8541 0.3248
H14 H 0.4414 0.6733 0.3672
H15 H -0.1904 0.5075 0.3407
H16 H -0.1189 0.5303 0.3938
H17 H -0.1598 0.3909 0.3770
H18 H 0.0029 0.6150 0.2974
H19 H 0.0656 0.6382 0.3520
H20 H 0.1514 0.5681 0.3096
H21 H -0.0599 0.4001 0.2717
H22 H -0.0378 0.2855 0.3099
H23 H 0.0882 0.3518 0.2839
H24 H 0.2837 0.2595 0.4506
H25 H 0.3413 0.4586 0.4789
H26 H 0.3159 0.2768 0.5569
H27 H 0.1922 0.3232 0.5235
H28 H 0.3811 0.3921 0.6289
H29 H 0.3489 0.5654 0.6819
H30 H 0.1997 0.7236 0.6596
H31 H 0.0845 0.7128 0.5832
H32 H 0.1179 0.5426 0.5292
H33 H 0.7820 0.7523 0.5547
H34 H 0.8353 0.6360 0.5222
H35 H 0.7366 0.7369 0.4973
H36 H 0.5373 0.7560 0.5794
H37 H 0.4434 0.6433 0.5607
H38 H 0.5018 0.7421 0.5210
H39 H 0.6947 0.5993 0.6186
H40 H 0.7539 0.4890 0.5842
H41 H 0.5996 0.4874 0.6001
O7 O 0.2793(3) 0.1256(3) 0.30825(11)
C27 C 0.2891(5) 0.1529(6) 0.25898(16)
H5 H 0.374(4) 0.133(4) 0.3200(17)
H42 H 0.2004 0.1483 0.2435
H43 H 0.3252 0.2380 0.2549
H44 H 0.3489 0.0923 0.2427
loop_
_geom_bond_atom_site_label_1
_geom_bond_atom_site_label_2
_geom_bond_site_symmetry_1
_geom_bond_site_symmetry_2
C1 C2 1_555 1_555
C2 C3 1_555 1_555
C3 C4 1_555 1_555
C4 C5 1_555 1_555
C5 C6 1_555 1_555
C6 C7 1_555 1_555
C7 C8 1_555 1_555
C8 C9 1_555 1_555
C9 C4 1_555 1_555
O1 C1 1_555 1_555
N1 C2 1_555 1_555
S1 N1 1_555 1_555
O2 S1 1_555 1_555
O3 S1 1_555 1_555
C10 S1 1_555 1_555
C11 C10 1_555 1_555
C12 C10 1_555 1_555
C13 C10 1_555 1_555
C14 C1 1_555 1_555
C15 C14 1_555 1_555
C16 C15 1_555 1_555
C17 C16 1_555 1_555
C18 C17 1_555 1_555
C19 C18 1_555 1_555
C20 C19 1_555 1_555
C21 C20 1_555 1_555
C22 C17 1_555 1_555
O4 C14 1_555 1_555
N2 C15 1_555 1_555
S2 N2 1_555 1_555
O5 S2 1_555 1_555
O6 S2 1_555 1_555
C23 S2 1_555 1_555
C24 C23 1_555 1_555
C25 C23 1_555 1_555
C26 C23 1_555 1_555
O7 C27 1_555 1_555
C27 H42 1_555 1_555
H1 O1 1_555 1_555
H2 N1 1_555 1_555
H3 O4 1_555 1_555
H4 N2 1_555 1_555
H5 O7 1_555 1_555
H6 C1 1_555 1_555
H7 C2 1_555 1_555
H8 C3 1_555 1_555
H9 C3 1_555 1_555
H10 C5 1_555 1_555
H11 C6 1_555 1_555
H12 C7 1_555 1_555
H13 C8 1_555 1_555
H14 C9 1_555 1_555
H15 C11 1_555 1_555
H16 C11 1_555 1_555
H17 C11 1_555 1_555
H18 C12 1_555 1_555
H19 C12 1_555 1_555
H20 C12 1_555 1_555
H21 C13 1_555 1_555
H22 C13 1_555 1_555
H23 C13 1_555 1_555
H24 C14 1_555 1_555
H25 C15 1_555 1_555
H26 C16 1_555 1_555
H27 C16 1_555 1_555
H28 C18 1_555 1_555
H29 C19 1_555 1_555
H30 C20 1_555 1_555
H31 C21 1_555 1_555
H32 C22 1_555 1_555
H33 C24 1_555 1_555
H34 C24 1_555 1_555
H35 C24 1_555 1_555
H36 C25 1_555 1_555
H37 C25 1_555 1_555
H38 C25 1_555 1_555
H39 C26 1_555 1_555
H40 C26 1_555 1_555
H41 C26 1_555 1_555
H43 C27 1_555 1_555
H44 C27 1_555 1_555
C21 C22 1_555 1_555

#END
