
#######################################################################
#
#                 Cambridge Crystallographic Data Centre
#                                CCDC 
#
#######################################################################
#
# If this CIF has been generated from an entry in the Cambridge 
# Structural Database, then it will include bibliographic, chemical, 
# crystal, experimental, refinement or atomic coordinate data resulting 
# from the CCDC's data processing and validation procedures.
#
#######################################################################

data_PEFVUS
_chemical_formula_moiety         'C28 H18 B1 N3 O1'
_chemical_name_systematic        
Methoxy((14)tribenzosubporphinato(1.1.1))boron(iii)
_symmetry_cell_setting           orthorhombic
_symmetry_space_group_name_H-M   'P n m a'
_symmetry_Int_Tables_number      62
_space_group_name_Hall           '-P 2ac 2n'
loop_
_symmetry_equiv_pos_site_id
_symmetry_equiv_pos_as_xyz
1 x,y,z
2 1/2-x,-y,1/2+z
3 -x,1/2+y,-z
4 1/2+x,1/2-y,1/2-z
5 -x,-y,-z
6 1/2+x,y,1/2-z
7 x,1/2-y,z
8 1/2-x,1/2+y,1/2+z
_cell_length_a                   16.272(2)
_cell_length_b                   17.852(2)
_cell_length_c                   6.8503(9)
_cell_angle_alpha                90
_cell_angle_beta                 90
_cell_angle_gamma                90
_cell_volume                     1989.93
_exptl_crystal_colour            orange
_exptl_crystal_description       prism
_cell_formula_units_Z            4
_exptl_crystal_recrystallization_method 'ethyl acetate'
loop_
_atom_site_label
_atom_site_type_symbol
_atom_site_fract_x
_atom_site_fract_y
_atom_site_fract_z
B1 B 0.1612(3) 0.7500 0.3236(7)
C1 C 0.1949(2) 0.7500 0.7366(6)
H1 H 0.2194 0.7500 0.8626
C2 C 0.17681(17) 0.68205(18) 0.6434(4)
C3 C 0.16737(17) 0.60458(18) 0.7046(4)
C4 C 0.19016(18) 0.56753(19) 0.8759(5)
H2 H 0.2170 0.5935 0.9787
C5 C 0.1726(2) 0.4920(2) 0.8918(5)
H3 H 0.1886 0.4656 1.0061
C6 C 0.1316(2) 0.45376(19) 0.7424(5)
H4 H 0.1197 0.4020 0.7583
C7 C 0.10808(19) 0.48938(18) 0.5723(5)
H5 H 0.0794 0.4631 0.4727
C8 C 0.12782(18) 0.56538(18) 0.5510(4)
C9 C 0.11531(17) 0.61792(16) 0.3927(4)
C10 C 0.06975(17) 0.61824(17) 0.2175(4)
H6 H 0.0496 0.5724 0.1655
C11 C 0.05400(17) 0.68581(17) 0.1194(4)
C12 C -0.00088(17) 0.70990(17) -0.0344(4)
C13 C -0.04804(19) 0.67044(18) -0.1701(4)
H7 H -0.0485 0.6172 -0.1706
C14 C -0.0941(2) 0.71068(19) -0.3038(4)
H8 H -0.1263 0.6846 -0.3974
C15 C 0.3106(3) 0.7500 0.3119(6)
N1 N 0.15036(14) 0.68324(14) 0.4541(3)
N2 N 0.0881(2) 0.7500 0.1900(5)
O1 O 0.23546(18) 0.7500 0.2080(4)
C2F C 0.17681(17) 0.81795(18) 0.6434(4)
C3F C 0.16737(17) 0.89542(18) 0.7046(4)
C4F C 0.19016(18) 0.93247(19) 0.8759(5)
H2F H 0.2170 0.9065 0.9787
C5F C 0.1726(2) 1.0080(2) 0.8918(5)
H3F H 0.1886 1.0344 1.0061
C6F C 0.1316(2) 1.04624(19) 0.7424(5)
H4F H 0.1197 1.0980 0.7583
C7F C 0.10808(19) 1.01062(18) 0.5723(5)
H5F H 0.0794 1.0369 0.4727
C8F C 0.12782(18) 0.93462(18) 0.5510(4)
C9F C 0.11531(17) 0.88208(16) 0.3927(4)
C10F C 0.06975(17) 0.88176(17) 0.2175(4)
H6F H 0.0496 0.9276 0.1655
C11F C 0.05400(17) 0.81419(17) 0.1194(4)
C12F C -0.00088(17) 0.79010(17) -0.0344(4)
C13F C -0.04804(19) 0.82956(18) -0.1701(4)
H7F H -0.0485 0.8828 -0.1706
C14F C -0.0941(2) 0.78932(19) -0.3038(4)
H8F H -0.1263 0.8154 -0.3974
N1F N 0.15036(14) 0.81676(14) 0.4541(3)
H9? H 0.3176 0.7982 0.3784
H10? H 0.3562 0.7423 0.2205
H11? H 0.3102 0.7095 0.4085
loop_
_geom_bond_atom_site_label_1
_geom_bond_atom_site_label_2
_geom_bond_site_symmetry_1
_geom_bond_site_symmetry_2
B1 N1 1_555 1_555
C1 H1 1_555 1_555
C2 C1 1_555 1_555
C3 C2 1_555 1_555
C4 C3 1_555 1_555
H2 C4 1_555 1_555
C5 C4 1_555 1_555
H3 C5 1_555 1_555
C6 C5 1_555 1_555
H4 C6 1_555 1_555
C7 C6 1_555 1_555
H5 C7 1_555 1_555
C8 C3 1_555 1_555
C9 C8 1_555 1_555
C10 C9 1_555 1_555
H6 C10 1_555 1_555
C11 C10 1_555 1_555
C12 C11 1_555 1_555
C13 C12 1_555 1_555
H7 C13 1_555 1_555
C14 C13 1_555 1_555
H8 C14 1_555 1_555
C15 O1 1_555 1_555
N1 C2 1_555 1_555
N2 B1 1_555 1_555
O1 B1 1_555 1_555
C2F C1 1_555 1_555
C3F C2F 1_555 1_555
C4F C3F 1_555 1_555
H2F C4F 1_555 1_555
C5F C4F 1_555 1_555
H3F C5F 1_555 1_555
C6F C5F 1_555 1_555
H4F C6F 1_555 1_555
C7F C6F 1_555 1_555
H5F C7F 1_555 1_555
C8F C3F 1_555 1_555
C9F C8F 1_555 1_555
C10F C9F 1_555 1_555
H6F C10F 1_555 1_555
C11F N2 1_555 1_555
C12F C12 1_555 1_555
C13F C12F 1_555 1_555
H7F C13F 1_555 1_555
C14F C14 1_555 1_555
H8F C14F 1_555 1_555
N1F B1 1_555 1_555
C7 C8 1_555 1_555
C9 N1 1_555 1_555
C11 N2 1_555 1_555
C2F N1F 1_555 1_555
C7F C8F 1_555 1_555
C9F N1F 1_555 1_555
C10F C11F 1_555 1_555
C11F C12F 1_555 1_555
C13F C14F 1_555 1_555

#END
