
#######################################################################
#
#                 Cambridge Crystallographic Data Centre
#                                CCDC 
#
#######################################################################
#
# If this CIF has been generated from an entry in the Cambridge 
# Structural Database, then it will include bibliographic, chemical, 
# crystal, experimental, refinement or atomic coordinate data resulting 
# from the CCDC's data processing and validation procedures.
#
#######################################################################

data_PEFWAZ
_chemical_formula_moiety         'C30 H22 B1 N3 O1'
_chemical_name_systematic        
Isopropoxy((14)tribenzosubporphinato(1.1.1))boron(iii)
_symmetry_cell_setting           monoclinic
_symmetry_space_group_name_H-M   'P 21/c'
_symmetry_Int_Tables_number      14
_space_group_name_Hall           '-P 2ybc'
loop_
_symmetry_equiv_pos_site_id
_symmetry_equiv_pos_as_xyz
1 x,y,z
2 -x,1/2+y,1/2-z
3 -x,-y,-z
4 x,1/2-y,1/2+z
_cell_length_a                   9.8657(11)
_cell_length_b                   13.8409(15)
_cell_length_c                   17.1556(18)
_cell_angle_alpha                90
_cell_angle_beta                 104.831(7)
_cell_angle_gamma                90
_cell_volume                     2264.56
_exptl_crystal_colour            orange
_exptl_crystal_description       prism
_cell_formula_units_Z            4
_exptl_crystal_recrystallization_method benzene/2-propanol
loop_
_atom_site_label
_atom_site_type_symbol
_atom_site_fract_x
_atom_site_fract_y
_atom_site_fract_z
O1 O 0.40730(19) 0.02080(12) 0.26642(10)
N1 N 0.3286(2) 0.14836(14) 0.16149(13)
N2 N 0.5738(2) 0.13047(15) 0.22272(12)
C1 C 0.3380(3) -0.02114(19) 0.07488(16)
N3 N 0.4493(2) 0.00630(15) 0.13609(13)
C2 C 0.6994(3) 0.0891(2) 0.22048(15)
C3 C 0.5337(3) -0.11220(18) 0.07274(16)
C4 C 0.5724(3) -0.03908(19) 0.13492(16)
C5 C 0.2089(3) 0.28753(19) 0.13069(16)
C6 C 0.3366(3) 0.24518(18) 0.18004(16)
C7 C 0.7351(3) 0.2476(2) 0.26384(16)
C8 C 0.3895(3) -0.10079(19) 0.03502(16)
C9 C 0.6973(3) -0.00024(19) 0.18062(17)
H1 H 0.7826 -0.0343 0.1851
B1 B 0.4377(3) 0.0757(2) 0.20197(18)
C10 C 0.5860(3) 0.22706(18) 0.24259(15)
C11 C 0.4118(3) 0.0666(2) 0.34209(15)
H2 H 0.3982 0.1378 0.3333
C12 C 0.4642(3) 0.28375(19) 0.22467(15)
H3 H 0.4682 0.3488 0.2429
C13 C 0.1348(3) 0.2136(2) 0.07870(16)
C14 C 0.1546(3) 0.3814(2) 0.12503(17)
H4 H 0.2029 0.4313 0.1590
C15 C 0.2176(3) 0.12537(19) 0.09779(16)
C16 C 0.8063(3) 0.1617(2) 0.25036(16)
C17 C 0.4021(4) -0.2336(2) -0.05097(18)
H5 H 0.3579 -0.2766 -0.0930
C18 C 0.3237(3) -0.16119(19) -0.02808(17)
H6 H 0.2274 -0.1529 -0.0548
C19 C 0.6122(4) -0.18449(19) 0.04728(17)
H7 H 0.7097 -0.1916 0.0716
C20 C 0.0121(3) 0.2356(2) 0.02028(18)
H8 H -0.0348 0.1876 -0.0163
C21 C 0.2180(3) 0.03709(19) 0.05739(16)
H9 H 0.1365 0.0168 0.0181
C22 C 0.5438(4) -0.2449(2) -0.01403(18)
H10 H 0.5946 -0.2953 -0.0314
C23 C 0.2927(3) 0.0266(2) 0.37295(18)
H11 H 0.2034 0.0391 0.3334
H12 H 0.2922 0.0579 0.4241
H13 H 0.3051 -0.0432 0.3814
C24 C -0.0399(3) 0.3282(2) 0.0166(2)
H14 H -0.1244 0.3436 -0.0224
C25 C 0.0296(3) 0.3999(2) 0.06924(19)
H15 H -0.0102 0.4627 0.0665
C26 C 0.9507(3) 0.1625(2) 0.25949(18)
H16 H 0.9982 0.1062 0.2489
C27 C 0.9534(4) 0.3306(2) 0.29857(19)
H17 H 1.0062 0.3875 0.3162
C28 C 1.0230(3) 0.2468(3) 0.28417(18)
H18 H 1.1217 0.2481 0.2916
C29 C 0.8103(3) 0.3322(2) 0.28776(17)
H19 H 0.7639 0.3898 0.2965
C30 C 0.5532(3) 0.0486(2) 0.40043(17)
H20 H 0.5690 -0.0211 0.4074
H21 H 0.5551 0.0782 0.4526
H22 H 0.6271 0.0771 0.3790
loop_
_geom_bond_atom_site_label_1
_geom_bond_atom_site_label_2
_geom_bond_site_symmetry_1
_geom_bond_site_symmetry_2
O1 B1 1_555 1_555
N1 C6 1_555 1_555
N2 C2 1_555 1_555
C1 N3 1_555 1_555
N3 C4 1_555 1_555
C2 C9 1_555 1_555
C3 C4 1_555 1_555
C4 C9 1_555 1_555
C5 C6 1_555 1_555
C6 C12 1_555 1_555
C7 C10 1_555 1_555
C8 C1 1_555 1_555
C9 H1 1_555 1_555
B1 N1 1_555 1_555
C10 N2 1_555 1_555
C11 O1 1_555 1_555
H2 C11 1_555 1_555
C12 C10 1_555 1_555
H3 C12 1_555 1_555
C13 C5 1_555 1_555
C14 C5 1_555 1_555
H4 C14 1_555 1_555
C15 N1 1_555 1_555
C16 C2 1_555 1_555
C17 H5 1_555 1_555
C18 C8 1_555 1_555
H6 C18 1_555 1_555
C19 C3 1_555 1_555
H7 C19 1_555 1_555
C20 C13 1_555 1_555
H8 C20 1_555 1_555
C21 C1 1_555 1_555
H9 C21 1_555 1_555
C22 C17 1_555 1_555
H10 C22 1_555 1_555
C23 C11 1_555 1_555
H11 C23 1_555 1_555
H12 C23 1_555 1_555
H13 C23 1_555 1_555
C24 C20 1_555 1_555
H14 C24 1_555 1_555
C25 C14 1_555 1_555
H15 C25 1_555 1_555
C26 C16 1_555 1_555
H16 C26 1_555 1_555
C27 H17 1_555 1_555
C28 C26 1_555 1_555
H18 C28 1_555 1_555
C29 C7 1_555 1_555
H19 C29 1_555 1_555
C30 C11 1_555 1_555
H20 C30 1_555 1_555
H21 C30 1_555 1_555
H22 C30 1_555 1_555
N2 B1 1_555 1_555
N3 B1 1_555 1_555
C3 C8 1_555 1_555
C7 C16 1_555 1_555
C13 C15 1_555 1_555
C15 C21 1_555 1_555
C17 C18 1_555 1_555
C19 C22 1_555 1_555
C24 C25 1_555 1_555
C27 C28 1_555 1_555
C27 C29 1_555 1_555

#END
