
#######################################################################
#
#                 Cambridge Crystallographic Data Centre
#                                CCDC 
#
#######################################################################
#
# If this CIF has been generated from an entry in the Cambridge 
# Structural Database, then it will include bibliographic, chemical, 
# crystal, experimental, refinement or atomic coordinate data resulting 
# from the CCDC's data processing and validation procedures.
#
#######################################################################

data_PEFZOS
_chemical_formula_moiety         'C18 H18 N2 O4 S1'
_chemical_name_systematic        
'2-({[3-(1,3-benzothiazol-2-yl)-2-hydroxyphenyl]methylidene}amino)-2-(hydroxymethyl)propane-1,3-diol unknown solvate'
_symmetry_cell_setting           monoclinic
_symmetry_space_group_name_H-M   'C 2/c'
_symmetry_Int_Tables_number      15
_space_group_name_Hall           '-C 2yn'
loop_
_symmetry_equiv_pos_site_id
_symmetry_equiv_pos_as_xyz
1 x,y,z
2 -x,y,1/2-z
3 1/2+x,1/2+y,z
4 1/2-x,1/2+y,1/2-z
5 -x,-y,-z
6 x,-y,1/2+z
7 1/2-x,1/2-y,-z
8 1/2+x,1/2-y,1/2+z
_cell_length_a                   40.016(15)
_cell_length_b                   6.591(3)
_cell_length_c                   13.575(5)
_cell_angle_alpha                90
_cell_angle_beta                 107.133(7)
_cell_angle_gamma                90
_cell_volume                     3421.46
_exptl_crystal_colour            yellow
_exptl_crystal_description       block
_cell_formula_units_Z            8
loop_
_atom_site_label
_atom_site_type_symbol
_atom_site_fract_x
_atom_site_fract_y
_atom_site_fract_z
S1 S 0.11559(3) 1.32989(18) 0.05392(9)
O1 O 0.13720(8) 0.9890(5) 0.1694(3)
N1 N 0.04813(10) 1.3180(6) 0.0132(3)
N2 N 0.16415(10) 0.6676(6) 0.2777(3)
C1 C 0.06917(12) 0.6738(7) 0.2216(3)
H1 H 0.0670 0.5542 0.2556
C2 C 0.10282(11) 0.7417(7) 0.2217(3)
C3 C 0.07632(11) 1.2191(7) 0.0609(3)
C4 C 0.07580(11) 1.0314(7) 0.1179(3)
C5 C 0.04339(11) 0.9578(7) 0.1207(3)
H2 H 0.0233 1.0295 0.0866
C6 C 0.05580(11) 1.4906(7) -0.0336(3)
C7 C 0.10664(11) 0.9241(7) 0.1692(3)
C8 C 0.09140(12) 1.5256(7) -0.0187(3)
C9 C 0.13211(11) 0.6223(7) 0.2734(3)
H3 H 0.1282 0.5047 0.3063
C10 C 0.04024(11) 0.7804(7) 0.1729(4)
H4 H 0.0183 0.7357 0.1743
C11 C 0.03161(13) 1.6282(8) -0.0907(4)
H5 H 0.0078 1.6076 -0.1016
C12 C 0.07836(15) 1.8306(8) -0.1157(4)
H6 H 0.0854 1.9453 -0.1441
C13 C 0.10316(13) 1.6965(7) -0.0583(3)
H7 H 0.1269 1.7201 -0.0468
C14 C 0.04328(14) 1.7953(8) -0.1309(4)
H8 H 0.0271 1.8874 -0.1695
C15 C 0.19438(13) 0.3367(8) 0.3044(4)
H9 H 0.1893 0.3271 0.2301
H10 H 0.2170 0.2746 0.3351
C16 C 0.20048(17) 0.5786(10) 0.4499(4)
H11 H 0.2035 0.7208 0.4688
H12 H 0.1791 0.5323 0.4627
C17 C 0.19652(11) 0.5579(7) 0.3343(4)
C18 C 0.22606(15) 0.6575(9) 0.3037(6)
H13 H 0.2483 0.6020 0.3445
H14 H 0.2235 0.6307 0.2316
O2 O 0.22904(17) 0.4673(10) 0.5131(4)
H15 H 0.2282 0.3502 0.4921
O3 O 0.22537(16) 0.8619(10) 0.3198(6)
H16 H 0.2052 0.8976 0.3140
O4 O 0.16939(10) 0.2279(6) 0.3341(3)
H17 H 0.1615 0.1380 0.2919
H18 H 0.1495(18) 0.907(10) 0.213(5)
loop_
_geom_bond_atom_site_label_1
_geom_bond_atom_site_label_2
_geom_bond_site_symmetry_1
_geom_bond_site_symmetry_2
S1 C3 1_555 1_555
O1 C7 1_555 1_555
N1 C3 1_555 1_555
N2 C9 1_555 1_555
C1 H1 1_555 1_555
C2 C1 1_555 1_555
C3 C4 1_555 1_555
C4 C5 1_555 1_555
C5 H2 1_555 1_555
C6 N1 1_555 1_555
C7 C2 1_555 1_555
C8 S1 1_555 1_555
C9 C2 1_555 1_555
H3 C9 1_555 1_555
C10 C1 1_555 1_555
H4 C10 1_555 1_555
C11 C6 1_555 1_555
H5 C11 1_555 1_555
C12 H6 1_555 1_555
C13 C8 1_555 1_555
H7 C13 1_555 1_555
C14 C11 1_555 1_555
H8 C14 1_555 1_555
C15 H9 1_555 1_555
H10 C15 1_555 1_555
C16 H11 1_555 1_555
H12 C16 1_555 1_555
C17 N2 1_555 1_555
C18 C17 1_555 1_555
H13 C18 1_555 1_555
H14 C18 1_555 1_555
O2 C16 1_555 1_555
H15 O2 1_555 1_555
O3 C18 1_555 1_555
H16 O3 1_555 1_555
O4 C15 1_555 1_555
H17 O4 1_555 1_555
H18 O1 1_555 1_555
C4 C7 1_555 1_555
C5 C10 1_555 1_555
C6 C8 1_555 1_555
C12 C13 1_555 1_555
C12 C14 1_555 1_555
C15 C17 1_555 1_555
C16 C17 1_555 1_555

#END
