
#######################################################################
#
#                 Cambridge Crystallographic Data Centre
#                                CCDC 
#
#######################################################################
#
# If this CIF has been generated from an entry in the Cambridge 
# Structural Database, then it will include bibliographic, chemical, 
# crystal, experimental, refinement or atomic coordinate data resulting 
# from the CCDC's data processing and validation procedures.
#
#######################################################################

data_PEGHEP01
_chemical_formula_moiety         'C11 H12 O3'
_chemical_name_systematic        4-(4-hydroxy-3-methoxyphenyl)but-3-en-2-one
_symmetry_cell_setting           monoclinic
_symmetry_space_group_name_H-M   'P 21/c'
_symmetry_Int_Tables_number      14
_space_group_name_Hall           '-P 2ybc'
loop_
_symmetry_equiv_pos_site_id
_symmetry_equiv_pos_as_xyz
1 x,y,z
2 -x,1/2+y,1/2-z
3 -x,-y,-z
4 x,1/2-y,1/2+z
_cell_length_a                   9.587(4)
_cell_length_b                   7.791(3)
_cell_length_c                   13.490(6)
_cell_angle_alpha                90
_cell_angle_beta                 97.514(6)
_cell_angle_gamma                90
_cell_volume                     998.947
_exptl_crystal_colour            white
_exptl_crystal_description       block
_cell_formula_units_Z            4
loop_
_atom_site_label
_atom_site_type_symbol
_atom_site_fract_x
_atom_site_fract_y
_atom_site_fract_z
O1 O 0.44239(12) 0.88395(19) 0.34924(9)
O2 O 1.26197(11) 0.65075(17) 0.61591(8)
O3 O 1.20311(13) 0.80462(18) 0.78270(8)
H1 H 1.2680 0.7403 0.7737
C1 C 0.6119(2) 0.7926(3) 0.24951(15)
H2 H 0.5308 0.7785 0.2004
H3 H 0.6602 0.6849 0.2601
H4 H 0.6739 0.8760 0.2264
C2 C 0.56674(16) 0.8524(2) 0.34545(13)
C3 C 0.66802(16) 0.8689(2) 0.43420(12)
H5 H 0.6372 0.9176 0.4904
C4 C 0.80200(17) 0.8197(2) 0.44180(12)
H6 H 0.8329 0.7803 0.3833
C5 C 0.90599(15) 0.8203(2) 0.53079(12)
C6 C 0.88241(17) 0.8992(2) 0.61926(12)
H7 H 0.7981 0.9567 0.6225
C7 C 0.98246(18) 0.8933(2) 0.70246(12)
H8 H 0.9652 0.9472 0.7612
C8 C 1.10770(16) 0.8083(2) 0.69937(11)
C9 C 1.13451(15) 0.7307(2) 0.61060(11)
C10 C 1.03487(15) 0.7376(2) 0.52758(11)
H9 H 1.0534 0.6865 0.4684
C11 C 1.31467(19) 0.6141(3) 0.52471(13)
H10 H 1.3178 0.7178 0.4867
H11 H 1.2541 0.5325 0.4870
H12 H 1.4077 0.5670 0.5387
loop_
_geom_bond_atom_site_label_1
_geom_bond_atom_site_label_2
_geom_bond_site_symmetry_1
_geom_bond_site_symmetry_2
O1 C2 1_555 1_555
O2 C9 1_555 1_555
O3 H1 1_555 1_555
C1 H2 1_555 1_555
H3 C1 1_555 1_555
H4 C1 1_555 1_555
C2 C1 1_555 1_555
C3 C2 1_555 1_555
H5 C3 1_555 1_555
C4 C3 1_555 1_555
H6 C4 1_555 1_555
C5 C4 1_555 1_555
C6 C5 1_555 1_555
H7 C6 1_555 1_555
C7 C6 1_555 1_555
H8 C7 1_555 1_555
C8 O3 1_555 1_555
C9 C8 1_555 1_555
C10 C5 1_555 1_555
H9 C10 1_555 1_555
C11 O2 1_555 1_555
H10 C11 1_555 1_555
H11 C11 1_555 1_555
H12 C11 1_555 1_555
C7 C8 1_555 1_555
C9 C10 1_555 1_555

#END
