
#######################################################################
#
#                 Cambridge Crystallographic Data Centre
#                                CCDC 
#
#######################################################################
#
# If this CIF has been generated from an entry in the Cambridge 
# Structural Database, then it will include bibliographic, chemical, 
# crystal, experimental, refinement or atomic coordinate data resulting 
# from the CCDC's data processing and validation procedures.
#
#######################################################################

data_PEGJIX
_chemical_formula_moiety         'C15 H24 O3'
_chemical_name_systematic        1-phenylnonane-3,5,7-triol
_symmetry_cell_setting           orthorhombic
_symmetry_space_group_name_H-M   'P b c a'
_symmetry_Int_Tables_number      61
_space_group_name_Hall           '-P 2ac 2ab'
loop_
_symmetry_equiv_pos_site_id
_symmetry_equiv_pos_as_xyz
1 x,y,z
2 1/2-x,-y,1/2+z
3 -x,1/2+y,1/2-z
4 1/2+x,1/2-y,-z
5 -x,-y,-z
6 1/2+x,y,1/2-z
7 x,1/2-y,1/2+z
8 1/2-x,1/2+y,z
_cell_length_a                   9.892(3)
_cell_length_b                   9.894(3)
_cell_length_c                   30.734(10)
_cell_angle_alpha                90
_cell_angle_beta                 90
_cell_angle_gamma                90
_cell_volume                     3007.98
_cell_formula_units_Z            8
loop_
_atom_site_label
_atom_site_type_symbol
_atom_site_fract_x
_atom_site_fract_y
_atom_site_fract_z
C1 C 0.5176(2) 0.8150(3) 0.18098(7)
H1 H 0.4811 0.8756 0.1610
C2 C 0.6209(3) 0.8571(3) 0.20769(8)
H2 H 0.6538 0.9450 0.2055
C3 C 0.6748(3) 0.7709(3) 0.23714(8)
H3 H 0.7440 0.7996 0.2554
C4 C 0.6277(3) 0.6431(3) 0.23985(7)
H4 H 0.6652 0.5836 0.2600
C5 C 0.5238(2) 0.5996(2) 0.21285(7)
H5 H 0.4922 0.5113 0.2150
C6 C 0.46719(19) 0.6865(2) 0.18294(6)
C7 C 0.3554(2) 0.6429(2) 0.15322(6)
H6 H 0.2905 0.7160 0.1508
H7 H 0.3092 0.5663 0.1662
C8 C 0.40247(16) 0.60360(19) 0.10782(5)
H8 H 0.4579 0.6757 0.0961
H9 H 0.4581 0.5231 0.1098
C9 C 0.28580(15) 0.57671(16) 0.07702(5)
H10 H 0.2275 0.5088 0.0907
C10 C 0.33012(15) 0.52081(17) 0.03338(5)
H11 H 0.3838 0.5886 0.0185
H12 H 0.3874 0.4427 0.0382
C11 C 0.21337(14) 0.48000(16) 0.00437(5)
H13 H 0.1577 0.5601 -0.0012
C12 C 0.25638(15) 0.42104(18) -0.03901(5)
H14 H 0.3083 0.3395 -0.0336
H15 H 0.3156 0.4851 -0.0534
C13 C 0.14081(16) 0.38679(18) -0.06963(5)
H16 H 0.0870 0.4685 -0.0746
C14 C 0.1880(2) 0.3329(2) -0.11310(6)
H17 H 0.2438 0.2537 -0.1082
H18 H 0.2439 0.4008 -0.1271
C15 C 0.0734(2) 0.2953(3) -0.14358(7)
H19 H 0.0222 0.2224 -0.1312
H20 H 0.1099 0.2674 -0.1711
H21 H 0.0156 0.3721 -0.1478
O1 O 0.20706(10) 0.69712(11) 0.07156(4)
H22 H 0.2532 0.7553 0.0597
O2 O 0.13324(10) 0.38361(12) 0.02845(3)
H23 H 0.0880 0.3384 0.0115
O3 O 0.05789(11) 0.28829(12) -0.04796(4)
H24 H -0.0196 0.2927 -0.0574
loop_
_geom_bond_atom_site_label_1
_geom_bond_atom_site_label_2
_geom_bond_site_symmetry_1
_geom_bond_site_symmetry_2
C1 H1 1_555 1_555
C2 C1 1_555 1_555
H2 C2 1_555 1_555
C3 C2 1_555 1_555
H3 C3 1_555 1_555
C4 C3 1_555 1_555
H4 C4 1_555 1_555
C5 C4 1_555 1_555
H5 C5 1_555 1_555
C6 C1 1_555 1_555
C7 C6 1_555 1_555
H6 C7 1_555 1_555
H7 C7 1_555 1_555
C8 C7 1_555 1_555
H8 C8 1_555 1_555
H9 C8 1_555 1_555
C9 C8 1_555 1_555
H10 C9 1_555 1_555
C10 C9 1_555 1_555
H11 C10 1_555 1_555
H12 C10 1_555 1_555
C11 C10 1_555 1_555
H13 C11 1_555 1_555
C12 C11 1_555 1_555
H14 C12 1_555 1_555
H15 C12 1_555 1_555
C13 C12 1_555 1_555
H16 C13 1_555 1_555
C14 C13 1_555 1_555
H17 C14 1_555 1_555
H18 C14 1_555 1_555
C15 C14 1_555 1_555
H19 C15 1_555 1_555
H20 C15 1_555 1_555
H21 C15 1_555 1_555
O1 C9 1_555 1_555
H22 O1 1_555 1_555
O2 C11 1_555 1_555
H23 O2 1_555 1_555
O3 C13 1_555 1_555
H24 O3 1_555 1_555
C5 C6 1_555 1_555

#END
