
#######################################################################
#
#                 Cambridge Crystallographic Data Centre
#                                CCDC 
#
#######################################################################
#
# If this CIF has been generated from an entry in the Cambridge 
# Structural Database, then it will include bibliographic, chemical, 
# crystal, experimental, refinement or atomic coordinate data resulting 
# from the CCDC's data processing and validation procedures.
#
#######################################################################

data_PEGJUH01
_chemical_formula_moiety         'C22 H29 Cl3 O13,C7 H8'
_chemical_name_systematic        
"4,1',6'-Trichloro-2,3,6,3',4'-sucrose pentaacetate toluene solvate"
_symmetry_cell_setting           orthorhombic
_symmetry_space_group_name_H-M   'P 21 21 21'
_symmetry_Int_Tables_number      19
_space_group_name_Hall           'P 2ac 2ab'
loop_
_symmetry_equiv_pos_site_id
_symmetry_equiv_pos_as_xyz
1 x,y,z
2 1/2-x,-y,1/2+z
3 -x,1/2+y,1/2-z
4 1/2+x,1/2-y,-z
_cell_length_a                   8.258(4)
_cell_length_b                   12.917(6)
_cell_length_c                   31.144(14)
_cell_angle_alpha                90
_cell_angle_beta                 90
_cell_angle_gamma                90
_cell_volume                     3322.09
_cell_formula_units_Z            4
loop_
_atom_site_label
_atom_site_type_symbol
_atom_site_fract_x
_atom_site_fract_y
_atom_site_fract_z
Cl1 Cl 0.2841(3) 0.6779(2) 0.2524(1)
Cl2 Cl -0.1347(3) 0.7734(2) 0.0362(1)
Cl3 Cl 0.6036(3) 0.9977(2) 0.0407(1)
O1 O 0.0946(5) 0.7348(4) 0.1696(1)
O2 O 0.0574(8) 0.3697(4) 0.1586(2)
O3 O 0.0795(7) 0.5293(4) 0.1341(2)
O4 O 0.7069(7) 0.8522(5) 0.1668(2)
O5 O 0.5310(6) 0.8289(4) 0.2188(1)
O6 O 0.1402(9) 1.0451(5) 0.2190(2)
O7 O 0.3304(6) 0.9706(4) 0.1796(1)
O8 O 0.2095(5) 0.8453(3) 0.1193(1)
O9 O 0.2139(6) 0.8271(3) 0.0485(1)
O10 O 0.0065(6) 1.0096(4) 0.1108(1)
O11 O 0.2692(9) 1.2083(4) 0.0692(2)
O12 O 0.2070(6) 1.0823(4) 0.0244(1)
C1 C 0.2221(8) 0.6625(6) 0.1676(2)
C2 C 0.3554(9) 0.6916(6) 0.1985(2)
C3 C 0.4112(8) 0.7988(5) 0.1892(2)
C4 C 0.2706(8) 0.8717(5) 0.1908(2)
C5 C 0.1387(8) 0.8377(5) 0.1612(2)
C6 C 0.1129(9) 0.8504(6) 0.0819(2)
C7 C 0.0697(8) 0.9642(5) 0.0725(2)
C8 C 0.2282(2) 1.0074(5) 0.0581(2)
C9 C 0.3145(9) 0.9137(6) 0.0393(2)
C10 C 0.1550(9) 0.5583(5) 0.1726(2)
C11 C 0.0370(11) 0.4279(8) 0.1316(3)
C12 C -0.0399(10) 0.4100(7) 0.0880(2)
C13 C 0.6771(9) 0.8513(6) 0.2045(3)
C14 C 0.7939(3) 0.8714(6) 0.2374(2)
C15 C 0.2530(12) 1.0524(8) 0.1945(3)
C16 C 0.3277(11) 1.1515(6) 0.1790(3)
C17 C -0.0252(8) 0.7760(6) 0.0839(2)
C18 C -0.0834(10) 1.0967(7) 0.1060(2)
C19 C -0.1603(10) 1.1397(6) 0.1453(2)
C20 C 0.2287(10) 1.1820(7) 0.0344(3)
C21 C 0.1818(12) 1.2472(8) -0.0018(3)
C22 C 0.4816(9) 0.8967(6) 0.0534(3)
O13 O -0.0922(7) 1.1375(4) 0.0718(2)
C23 C 0.6234(16) 0.5872(8) 0.1177(6)
C24 C 0.6892(17) 0.5650(17) 0.1548(6)
C25 C 0.6630(3) 0.4792(17) 0.1751(6)
C26 C 0.5700(2) 0.4075(14) 0.1594(8)
C27 C 0.4915(14) 0.4257(10) 0.1192(6)
C28 C 0.5147(15) 0.5199(14) 0.0982(4)
C29 C 0.4357(17) 0.5355(12) 0.0593(3)
loop_
_geom_bond_atom_site_label_1
_geom_bond_atom_site_label_2
_geom_bond_site_symmetry_1
_geom_bond_site_symmetry_2
Cl1 C2 1_555 1_555
Cl2 C17 1_555 1_555
Cl3 C22 1_555 1_555
O1 C1 1_555 1_555
O2 C11 1_555 1_555
O3 C10 1_555 1_555
O4 C13 1_555 1_555
O5 C3 1_555 1_555
O6 C15 1_555 1_555
O7 C4 1_555 1_555
O8 C5 1_555 1_555
O9 C6 1_555 1_555
O10 C7 1_555 1_555
O11 C20 1_555 1_555
O12 C8 1_555 1_555
C1 C2 1_555 1_555
C2 C3 1_555 1_555
C3 C4 1_555 1_555
C4 C5 1_555 1_555
C5 O1 1_555 1_555
C6 O8 1_555 1_555
C7 C6 1_555 1_555
C8 C7 1_555 1_555
C9 O9 1_555 1_555
C10 C1 1_555 1_555
C11 O3 1_555 1_555
C12 C11 1_555 1_555
C13 O5 1_555 1_555
C14 C13 1_555 1_555
C15 O7 1_555 1_555
C16 C15 1_555 1_555
C17 C6 1_555 1_555
C18 O10 1_555 1_555
C19 C18 1_555 1_555
C20 O12 1_555 1_555
C21 C20 1_555 1_555
C22 C9 1_555 1_555
O13 C18 1_555 1_555
C23 C24 1_555 1_555
C24 C25 1_555 1_555
C25 C26 1_555 1_555
C26 C27 1_555 1_555
C27 C28 1_555 1_555
C28 C23 1_555 1_555
C29 C28 1_555 1_555
C8 C9 1_555 1_555

#END
