
#######################################################################
#
#                 Cambridge Crystallographic Data Centre
#                                CCDC 
#
#######################################################################
#
# If this CIF has been generated from an entry in the Cambridge 
# Structural Database, then it will include bibliographic, chemical, 
# crystal, experimental, refinement or atomic coordinate data resulting 
# from the CCDC's data processing and validation procedures.
#
#######################################################################

data_PEGMOD
_chemical_formula_moiety         'C28 H84 Ba1 N14 P4 Si4,C6 H14'
_chemical_name_systematic        
"bis(1,5-bis(Trimethylsilyl)-2,2,4,4-tetrakis(dimethylamino)-1,3,5-triaza-2,4-diphosphahexadiene-N,N',N'')-barium n-hexane solvate"
_symmetry_cell_setting           monoclinic
_symmetry_space_group_name_H-M   'P 21/n'
_symmetry_Int_Tables_number      14
_space_group_name_Hall           '-P 2yn'
loop_
_symmetry_equiv_pos_site_id
_symmetry_equiv_pos_as_xyz
1 x,y,z
2 1/2-x,1/2+y,1/2-z
3 -x,-y,-z
4 1/2+x,1/2-y,1/2+z
_cell_length_a                   13.593(3)
_cell_length_b                   20.762(3)
_cell_length_c                   22.719(4)
_cell_angle_alpha                90
_cell_angle_beta                 98.62(3)
_cell_angle_gamma                90
_cell_volume                     6339.28
_exptl_crystal_colour            colorless
_chemical_melting_point          '220 deg.C'
_cell_formula_units_Z            4
loop_
_atom_site_label
_atom_site_type_symbol
_atom_site_fract_x
_atom_site_fract_y
_atom_site_fract_z
Ba1 Ba 0.90778(6) 0.01020(4) 0.23285(4)
P1 P 1.1337(3) 0.0841(2) 0.2369(2)
N1 N 1.1955(7) 0.1046(6) 0.1820(4)
C1 C 1.2964(11) 0.0834(15) 0.1819(11)
C2 C 1.1435(16) 0.1187(20) 0.1233(7)
N2 N 1.2185(8) 0.1025(6) 0.2951(4)
C5 C 1.3183(10) 0.0762(16) 0.2996(10)
C6 C 1.1916(18) 0.1209(24) 0.3513(8)
P2 P 1.1342(3) -0.0645(2) 0.2405(2)
N3 N 1.1957(8) -0.0874(6) 0.1865(4)
C9 C 1.2968(12) -0.0669(15) 0.1859(11)
C10 C 1.1453(16) -0.1073(20) 0.1292(8)
N4 N 1.2170(8) -0.0797(6) 0.3003(5)
C13 C 1.3176(12) -0.0561(17) 0.3050(12)
C14 C 1.1922(20) -0.1074(18) 0.3534(8)
P3 P 0.6658(3) 0.0075(2) 0.1617(2)
N5 N 0.5918(8) -0.0561(6) 0.1471(6)
C17 C 0.4912(14) -0.0536(14) 0.1606(16)
C18 C 0.6058(22) -0.1015(12) 0.1018(14)
N6 N 0.5901(8) 0.0694(6) 0.1429(5)
C21 C 0.4894(14) 0.0683(15) 0.1562(18)
C22 C 0.6096(21) 0.1169(13) 0.1012(16)
P4 P 0.6990(3) 0.0115(2) 0.2996(2)
N7 N 0.6324(8) 0.0754(5) 0.3121(6)
C25 C 0.5256(9) 0.0752(11) 0.3005(14)
C26 C 0.6747(16) 0.1303(9) 0.3447(15)
N8 N 0.6323(8) -0.0499(5) 0.3177(6)
C29 C 0.5267(10) -0.0535(12) 0.3000(16)
C30 C 0.6752(16) -0.1039(10) 0.3512(15)
N9 N 1.0338(8) 0.1209(4) 0.2351(6)
Si1 Si 0.9896(4) 0.1967(2) 0.2300(3)
C33 C 0.9701(23) 0.2308(11) 0.3017(8)
C34 C 0.8655(13) 0.1990(11) 0.1811(12)
C35 C 1.0689(17) 0.2528(9) 0.1953(13)
N10 N 1.1110(9) 0.0101(6) 0.2340(6)
N11 N 1.0330(9) -0.1002(4) 0.2407(7)
Si2 Si 0.9887(4) -0.1760(2) 0.2383(3)
C39 C 0.9698(26) -0.2069(12) 0.3114(8)
C40 C 0.8638(14) -0.1799(11) 0.1903(14)
C41 C 1.0671(17) -0.2342(8) 0.2057(14)
N12 N 0.7581(8) 0.0065(5) 0.1294(4)
Si3 Si 0.7927(4) 0.0061(3) 0.0617(2)
C45 C 0.9008(18) -0.0467(16) 0.0575(11)
C46 C 0.8329(29) 0.0884(9) 0.0414(12)
C47 C 0.6940(15) -0.0179(17) 0.0015(7)
N13 N 0.7037(9) 0.0104(8) 0.2308(6)
N14 N 0.8061(7) 0.0120(5) 0.3332(4)
Si4 Si 0.8685(3) 0.0163(2) 0.4029(2)
C51 C 0.9136(21) -0.0646(8) 0.4301(11)
C52 C 0.9786(14) 0.0686(12) 0.4088(10)
C53 C 0.7906(16) 0.0458(15) 0.4573(8)
C57 C 0.2254(13) 0.2546(11) 0.0022(9)
C58 C 0.3204(13) 0.2603(11) 0.0258(9)
C59 C 0.3829(13) 0.2474(11) 0.0202(9)
C60 C 0.5025(13) 0.2622(11) 0.0059(9)
C61 C 0.6005(13) 0.2543(11) -0.0075(9)
C62 C 0.6985(13) 0.2463(11) -0.0208(9)
C3? C 1.2470(28) 0.1656(12) 0.1833(13)
C4? C 1.1592(24) 0.0835(17) 0.1217(6)
C7? C 1.2005(22) 0.0803(16) 0.3540(5)
C8? C 1.2566(22) 0.1686(9) 0.2999(11)
C11? C 1.2463(23) -0.1487(11) 0.1889(11)
C12? C 1.1587(25) -0.0683(17) 0.1254(6)
C15? C 1.1938(23) -0.0561(16) 0.3580(6)
C16? C 1.2567(23) -0.1452(10) 0.3083(11)
C19? C 0.5358(22) -0.0649(12) 0.0880(9)
C20? C 0.6275(23) -0.1187(7) 0.1721(14)
C23? C 0.5366(23) 0.0740(13) 0.0826(9)
C24? C 0.6244(22) 0.1340(6) 0.1639(15)
C27? C 0.6088(26) 0.0893(12) 0.3705(10)
C28? C 0.6500(25) 0.1352(7) 0.2802(12)
C31? C 0.6074(25) -0.0570(13) 0.3767(10)
C32? C 0.6487(28) -0.1131(7) 0.2914(15)
C36? C 0.9736(26) 0.2292(12) 0.1541(7)
C37? C 1.0748(18) 0.2532(9) 0.2768(13)
C38? C 0.8687(14) 0.2035(11) 0.2574(15)
C42? C 0.9663(28) -0.2098(12) 0.1628(8)
C43? C 1.0757(18) -0.2321(9) 0.2839(14)
C44? C 0.8702(16) -0.1814(11) 0.2690(16)
C48? C 0.6923(15) 0.0289(18) 0.0015(7)
C49? C 0.8327(30) -0.0765(9) 0.0421(12)
C50? C 0.8994(19) 0.0592(16) 0.0560(11)
C54? C 0.9204(20) 0.0989(8) 0.4185(11)
C55? C 0.7930(15) -0.0013(14) 0.4614(7)
C56? C 0.9770(13) -0.0385(11) 0.4142(9)
loop_
_geom_bond_atom_site_label_1
_geom_bond_atom_site_label_2
_geom_bond_site_symmetry_1
_geom_bond_site_symmetry_2
Ba1 N9 1_555 1_555
P1 N1 1_555 1_555
N1 C1 1_555 1_555
C2 N1 1_555 1_555
N2 P1 1_555 1_555
C5 N2 1_555 1_555
C6 N2 1_555 1_555
P2 N3 1_555 1_555
N3 C9 1_555 1_555
C10 N3 1_555 1_555
N4 P2 1_555 1_555
C13 N4 1_555 1_555
C14 N4 1_555 1_555
P3 N5 1_555 1_555
N5 C17 1_555 1_555
C18 N5 1_555 1_555
N6 P3 1_555 1_555
C21 N6 1_555 1_555
C22 N6 1_555 1_555
P4 N7 1_555 1_555
N7 C25 1_555 1_555
C26 N7 1_555 1_555
N8 P4 1_555 1_555
C29 N8 1_555 1_555
C30 N8 1_555 1_555
N9 P1 1_555 1_555
Si1 N9 1_555 1_555
C33 Si1 1_555 1_555
C34 Si1 1_555 1_555
C35 Si1 1_555 1_555
N10 Ba1 1_555 1_555
N11 Ba1 1_555 1_555
Si2 N11 1_555 1_555
C39 Si2 1_555 1_555
C40 Si2 1_555 1_555
C41 Si2 1_555 1_555
N12 Ba1 1_555 1_555
Si3 N12 1_555 1_555
C45 Si3 1_555 1_555
C46 Si3 1_555 1_555
C47 Si3 1_555 1_555
N13 Ba1 1_555 1_555
N14 Ba1 1_555 1_555
Si4 N14 1_555 1_555
C51 Si4 1_555 1_555
C52 Si4 1_555 1_555
C53 Si4 1_555 1_555
C57 C58 1_555 1_555
C58 C59 1_555 1_555
C59 C60 1_555 1_555
C60 C61 1_555 1_555
C61 C62 1_555 1_555
P1 N10 1_555 1_555
P2 N10 1_555 1_555
P2 N11 1_555 1_555
P3 N12 1_555 1_555
P3 N13 1_555 1_555
P4 N13 1_555 1_555
P4 N14 1_555 1_555

#END
