
#######################################################################
#
#                 Cambridge Crystallographic Data Centre
#                                CCDC 
#
#######################################################################
#
# If this CIF has been generated from an entry in the Cambridge 
# Structural Database, then it will include bibliographic, chemical, 
# crystal, experimental, refinement or atomic coordinate data resulting 
# from the CCDC's data processing and validation procedures.
#
#######################################################################

data_PEGPEW
_chemical_name_common            
'13-t-Butyltricyclo(9.3.1.1$4,8!)hexadeca-1(15),4,6,8(16),11,13-hexaene-15-carboxylic acid'
_chemical_formula_moiety         'C21 H24 O2'
_chemical_name_systematic        5-t-Butyl-8-carboxy-(2.2)metacyclophane
_symmetry_cell_setting           triclinic
_symmetry_space_group_name_H-M   'P -1'
_symmetry_Int_Tables_number      2
_space_group_name_Hall           '-P 1'
loop_
_symmetry_equiv_pos_site_id
_symmetry_equiv_pos_as_xyz
1 x,y,z
2 -x,-y,-z
_cell_length_a                   11.719(2)
_cell_length_b                   11.889(2)
_cell_length_c                   13.408(3)
_cell_angle_alpha                106.90(2)
_cell_angle_beta                 105.01(2)
_cell_angle_gamma                91.72(2)
_cell_volume                     1715.19
_exptl_crystal_colour            colorless
_cell_formula_units_Z            4
loop_
_atom_site_label
_atom_site_type_symbol
_atom_site_fract_x
_atom_site_fract_y
_atom_site_fract_z
C1 C 0.1627(3) 0.6975(3) -0.2134(3)
C2 C 0.1461(3) 0.8259(3) -0.1515(3)
C3 C 0.1577(3) 0.8372(3) -0.0346(2)
C4 C 0.0601(3) 0.7997(3) -0.0085(3)
C5 C 0.0680(3) 0.7749(3) 0.0875(3)
C6 C 0.1820(3) 0.7750(3) 0.1518(2)
C7 C 0.2832(3) 0.8108(3) 0.1300(2)
C8 C 0.2700(3) 0.8565(2) 0.0427(2)
C9 C 0.3999(3) 0.7743(3) 0.1849(3)
C10 C 0.4143(3) 0.6470(3) 0.1189(3)
C11 C 0.4038(3) 0.6335(3) 0.0013(3)
C12 C 0.5018(4) 0.6412(3) -0.0375(4)
C13 C 0.4883(4) 0.6541(3) -0.1386(4)
C14 C 0.3792(4) 0.6683(3) -0.1987(3)
C15 C 0.2795(3) 0.6604(3) -0.1632(3)
C16 C 0.2932(3) 0.6332(3) -0.0680(3)
C17 C -0.0416(3) 0.7423(4) 0.1184(3)
C18 C -0.1167(11) 0.6290(11) 0.0299(9)
C19 C -0.1318(10) 0.8309(10) 0.1025(10)
C20 C -0.0157(13) 0.7490(14) 0.2325(11)
C24 C 0.3718(3) 0.9202(3) 0.0290(3)
O1 O 0.3435(2) 1.0091(2) -0.0087(3)
O2 O 0.4749(2) 0.9007(2) 0.0559(2)
H1 H 0.1574 0.6913 -0.2875
H2 H 0.0989 0.6449 -0.2134
H3 H 0.0697 0.8461 -0.1842
H4 H 0.2062 0.8796 -0.1558
H5 H -0.0169 0.7911 -0.0590
H6 H 0.1907 0.7488 0.2143
H7 H 0.4012 0.7771 0.2575
H8 H 0.4647 0.8283 0.1889
H9 H 0.3539 0.5927 0.1220
H10 H 0.4903 0.6260 0.1514
H11 H 0.5794 0.6383 0.0076
H12 H 0.5559 0.6527 -0.1667
H13 H 0.3713 0.6843 -0.2661
H14 H 0.2236 0.6133 -0.0487
H15 H -0.1536 0.6511 -0.0334
H16 H -0.0633 0.5715 0.0126
H17 H -0.1768 0.5956 0.0533
H18 H -0.1064 0.8797 0.0646
H19 H -0.2080 0.7880 0.0602
H20 H -0.1378 0.8798 0.1714
H21 H -0.0095 0.8280 0.2804
H22 H -0.0775 0.7004 0.2406
H23 H 0.0585 0.7171 0.2502
H33 H 0.4157(49) 1.0452(47) -0.0286(41)
C25 C 0.2196(3) 0.1494(3) 0.2473(3)
C26 C 0.3466(3) 0.1308(3) 0.3088(3)
C27 C 0.3514(3) 0.1380(2) 0.4240(2)
C28 C 0.3194(3) 0.0350(3) 0.4439(3)
C29 C 0.2917(3) 0.0357(3) 0.5377(3)
C30 C 0.2832(3) 0.1447(3) 0.6077(3)
C31 C 0.3162(3) 0.2503(3) 0.5934(2)
C32 C 0.3650(3) 0.2460(2) 0.5071(2)
C33 C 0.2705(3) 0.3604(3) 0.6523(3)
C34 C 0.1432(3) 0.3700(3) 0.5867(3)
C35 C 0.1388(3) 0.3710(3) 0.4747(3)
C36 C 0.1496(4) 0.4740(3) 0.4481(4)
C37 C 0.1703(4) 0.4709(4) 0.3516(4)
C38 C 0.1886(4) 0.3662(4) 0.2818(3)
C39 C 0.1768(3) 0.2607(3) 0.3049(3)
C40 C 0.1429(3) 0.2653(3) 0.3966(3)
C41 C 0.2625(3) -0.0771(3) 0.5640(3)
C42 C 0.2957(4) -0.1859(3) 0.4889(4)
C43 C 0.3348(4) -0.0640(4) 0.6809(3)
C44 C 0.1318(4) -0.0936(4) 0.5564(4)
C45 C 0.4278(3) 0.3540(3) 0.5027(2)
O3 O 0.4839(3) 0.4259(2) 0.5983(2)
O4 O 0.4359(2) 0.3717(2) 0.4205(2)
H34 H 0.1653 0.0829 0.2385
H35 H 0.2194 0.1518 0.1763
H36 H 0.4032 0.1909 0.3089
H37 H 0.3670 0.0551 0.2727
H38 H 0.3165 -0.0396 0.3901
H39 H 0.2539 0.1473 0.6688
H40 H 0.3218 0.4291 0.6609
H41 H 0.2703 0.3576 0.7231
H42 H 0.1146 0.4406 0.6234
H43 H 0.0915 0.3034 0.5821
H44 H 0.1436 0.5481 0.4987
H45 H 0.1712 0.5420 0.3314
H46 H 0.2096 0.3650 0.2169
H47 H 0.1204 0.1923 0.4073
H48 H 0.2511 -0.1968 0.4152
H49 H 0.3791 -0.1753 0.4955
H50 H 0.2782 -0.2543 0.5090
H51 H 0.3154 0.0041 0.7301
H52 H 0.3170 -0.1334 0.6994
H53 H 0.4179 -0.0543 0.6859
H54 H 0.0852 -0.1021 0.4837
H55 H 0.1149 -0.1632 0.5750
H56 H 0.1123 -0.0258 0.6059
H57 H 0.4987(50) 0.4942(50) 0.5862(43)
C21? C -0.0547(13) 0.8488(12) 0.2070(11)
C22? C -0.1506(17) 0.7158(18) 0.0308(15)
C23? C -0.0237(9) 0.6430(10) 0.1740(9)
H24? H -0.0675 0.9121 0.1757
H25? H -0.1231 0.8315 0.2291
H26? H 0.0139 0.8720 0.2691
H27? H -0.1701 0.7737 -0.0063
H28? H -0.1374 0.6444 -0.0189
H29? H -0.2151 0.6995 0.0583
H30? H 0.0490 0.6118 0.1656
H31? H -0.0187 0.6732 0.2498
H32? H -0.0889 0.5814 0.1386
loop_
_geom_bond_atom_site_label_1
_geom_bond_atom_site_label_2
_geom_bond_site_symmetry_1
_geom_bond_site_symmetry_2
C1 C2 1_555 1_555
C2 C3 1_555 1_555
C3 C4 1_555 1_555
C4 C5 1_555 1_555
C5 C6 1_555 1_555
C6 C7 1_555 1_555
C7 C8 1_555 1_555
C8 C3 1_555 1_555
C9 C7 1_555 1_555
C10 C9 1_555 1_555
C11 C10 1_555 1_555
C12 C11 1_555 1_555
C13 C12 1_555 1_555
C14 C13 1_555 1_555
C15 C1 1_555 1_555
C16 C11 1_555 1_555
C17 C5 1_555 1_555
C18 C17 1_555 1_555
C19 C17 1_555 1_555
C20 C17 1_555 1_555
C24 C8 1_555 1_555
O1 C24 1_555 1_555
O2 C24 1_555 1_555
C25 C26 1_555 1_555
C26 C27 1_555 1_555
C27 C28 1_555 1_555
C28 C29 1_555 1_555
C29 C30 1_555 1_555
C30 C31 1_555 1_555
C31 C32 1_555 1_555
C32 C27 1_555 1_555
C33 C31 1_555 1_555
C34 C33 1_555 1_555
C35 C34 1_555 1_555
C36 C35 1_555 1_555
C37 C36 1_555 1_555
C38 C37 1_555 1_555
C39 C25 1_555 1_555
C40 C35 1_555 1_555
C41 C29 1_555 1_555
C42 C41 1_555 1_555
C43 C41 1_555 1_555
C44 C41 1_555 1_555
C45 C32 1_555 1_555
O3 C45 1_555 1_555
O4 C45 1_555 1_555
H1 C1 1_555 1_555
H2 C1 1_555 1_555
H3 C2 1_555 1_555
H4 C2 1_555 1_555
H5 C4 1_555 1_555
H6 C6 1_555 1_555
H7 C9 1_555 1_555
H8 C9 1_555 1_555
H9 C10 1_555 1_555
H10 C10 1_555 1_555
H11 C12 1_555 1_555
H12 C13 1_555 1_555
H13 C14 1_555 1_555
H14 C16 1_555 1_555
H15 C18 1_555 1_555
H16 C18 1_555 1_555
H17 C18 1_555 1_555
H18 C19 1_555 1_555
H19 C19 1_555 1_555
H20 C19 1_555 1_555
H21 C20 1_555 1_555
H22 C20 1_555 1_555
H23 C20 1_555 1_555
H33 O1 1_555 1_555
H34 C25 1_555 1_555
H35 C25 1_555 1_555
H36 C26 1_555 1_555
H37 C26 1_555 1_555
H38 C28 1_555 1_555
H39 C30 1_555 1_555
H40 C33 1_555 1_555
H41 C33 1_555 1_555
H42 C34 1_555 1_555
H43 C34 1_555 1_555
H44 C36 1_555 1_555
H45 C37 1_555 1_555
H46 C38 1_555 1_555
H47 C40 1_555 1_555
H48 C42 1_555 1_555
H49 C42 1_555 1_555
H50 C42 1_555 1_555
H51 C43 1_555 1_555
H52 C43 1_555 1_555
H53 C43 1_555 1_555
H54 C44 1_555 1_555
H55 C44 1_555 1_555
H56 C44 1_555 1_555
H57 O3 1_555 1_555
C14 C15 1_555 1_555
C15 C16 1_555 1_555
C38 C39 1_555 1_555
C39 C40 1_555 1_555

#END
