
#######################################################################
#
#                 Cambridge Crystallographic Data Centre
#                                CCDC 
#
#######################################################################
#
# If this CIF has been generated from an entry in the Cambridge 
# Structural Database, then it will include bibliographic, chemical, 
# crystal, experimental, refinement or atomic coordinate data resulting 
# from the CCDC's data processing and validation procedures.
#
#######################################################################

data_PEGPAS
_chemical_name_common            
1,4-bis(6-(13-t-Butyl-tricyclo(9.3.1.1$4,8!)hexadeca-1(15),4,6,8(16),11,13-hexaene-15-methylcarboxylate)-buta-1,3-diyne)
_chemical_formula_moiety         'C48 H50 O4'
_chemical_name_systematic        
1,4-bis(5-(13-t-Butyl-16-methoxycarbonyl-anti-(2.2)metacyclophane)-buta-1,3-diyne)
_symmetry_cell_setting           monoclinic
_symmetry_space_group_name_H-M   'P 21/c'
_symmetry_Int_Tables_number      14
_space_group_name_Hall           '-P 2ybc'
loop_
_symmetry_equiv_pos_site_id
_symmetry_equiv_pos_as_xyz
1 x,y,z
2 -x,1/2+y,1/2-z
3 -x,-y,-z
4 x,1/2-y,1/2+z
_cell_length_a                   8.966(1)
_cell_length_b                   24.374(7)
_cell_length_c                   8.947(1)
_cell_angle_alpha                90
_cell_angle_beta                 104.79(1)
_cell_angle_gamma                90
_cell_volume                     1890.47
_exptl_crystal_colour            colorless
_chemical_melting_point          '276 deg.C'
_cell_formula_units_Z            2
loop_
_atom_site_label
_atom_site_type_symbol
_atom_site_fract_x
_atom_site_fract_y
_atom_site_fract_z
C1 C 0.5554(10) 0.3240(4) 0.5117(9)
C2 C 0.4498(11) 0.2854(3) 0.5827(9)
C3 C 0.2951(10) 0.3112(3) 0.5651(9)
C4 C 0.1832(10) 0.3027(3) 0.4256(8)
C5 C 0.0559(9) 0.3358(3) 0.3818(8)
C6 C 0.0432(9) 0.3806(3) 0.4737(8)
C7 C 0.1477(9) 0.3895(3) 0.6148(8)
C8 C 0.2672(8) 0.3508(3) 0.6698(7)
C9 C 0.1618(9) 0.4472(3) 0.6818(8)
C10 C 0.2606(10) 0.4829(3) 0.6022(9)
C11 C 0.4176(10) 0.4596(3) 0.6203(8)
C12 C 0.5469(11) 0.4774(3) 0.7323(9)
C13 C 0.6869(10) 0.4494(4) 0.7587(8)
C14 C 0.6935(10) 0.4005(4) 0.6820(8)
C15 C 0.5673(9) 0.3812(3) 0.5737(8)
C16 C 0.4350(9) 0.4148(3) 0.5316(8)
C17 C -0.0677(11) 0.3253(5) 0.2298(10)
C18 C 0.0095(21) 0.3362(9) 0.0931(14)
C19 C -0.2035(17) 0.3711(7) 0.1951(15)
C20 C -0.1406(29) 0.2726(10) 0.2211(20)
C24 C 0.3678(10) 0.3538(3) 0.8312(9)
O1 O 0.4993(7) 0.3408(2) 0.8725(6)
O2 O 0.2844(7) 0.3689(2) 0.9296(5)
C25 C 0.3733(12) 0.3762(4) 1.0882(8)
C26 C 0.8218(10) 0.4706(4) 0.8663(10)
C27 C 0.9333(10) 0.4896(4) 0.9504(10)
H1 H 0.5152 0.3246 0.4015
H2 H 0.6578 0.3090 0.5338
H3 H 0.4973 0.2802 0.6908
H4 H 0.4390 0.2502 0.5332
H5 H 0.1955 0.2730 0.3593
H6 H -0.0420 0.4053 0.4387
H7 H 0.2110 0.4460 0.7905
H8 H 0.0605 0.4624 0.6682
H9 H 0.2679 0.5196 0.6424
H10 H 0.2102 0.4844 0.4939
H11 H 0.5413 0.5095 0.7927
H12 H 0.7864 0.3791 0.7062
H13 H 0.3572 0.4061 0.4391
H14 H 0.0930 0.3105 0.1046
H15 H -0.0642 0.3300 -0.0041
H16 H 0.0487 0.3729 0.0960
H17 H -0.1916 0.3946 0.2833
H18 H -0.1982 0.3926 0.1066
H19 H -0.3015 0.3529 0.1750
H20 H -0.0585 0.2462 0.2415
H21 H -0.1969 0.2698 0.2988
H22 H -0.2089 0.2656 0.1213
H32 H 0.3073 0.3874 1.1518
H33 H 0.4222 0.3421 1.1259
H34 H 0.4506 0.4037 1.0914
C27B C 1.0667(10) 0.5104(4) 1.0496(10)
C26B C 1.1782(10) 0.5294(4) 1.1337(10)
C13B C 1.3131(10) 0.5506(4) 1.2413(8)
C12B C 1.4531(11) 0.5226(3) 1.2677(9)
C14B C 1.3065(10) 0.5995(4) 1.3180(8)
C11B C 1.5824(10) 0.5404(3) 1.3797(8)
H11B H 1.4587 0.4905 1.2073
C15B C 1.4327(9) 0.6188(3) 1.4263(8)
H12B H 1.2136 0.6209 1.2938
C10B C 1.7394(10) 0.5171(3) 1.3978(9)
C16B C 1.5650(9) 0.5852(3) 1.4684(8)
C1B C 1.4446(10) 0.6760(4) 1.4883(9)
C9B C 1.8382(9) 0.5528(3) 1.3182(8)
H9B H 1.7321 0.4804 1.3576
H10B H 1.7898 0.5156 1.5061
H13B H 1.6428 0.5939 1.5609
C2B C 1.5502(11) 0.7146(3) 1.4173(9)
H1B H 1.4848 0.6754 1.5985
H2B H 1.3422 0.6910 1.4662
C7B C 1.8523(9) 0.6105(3) 1.3852(8)
H7B H 1.7890 0.5540 1.2095
H8B H 1.9395 0.5376 1.3318
C3B C 1.7049(10) 0.6888(3) 1.4349(9)
H3B H 1.5027 0.7198 1.3092
H4B H 1.5610 0.7498 1.4668
C6B C 1.9568(9) 0.6194(3) 1.5263(8)
C8B C 1.7328(8) 0.6492(3) 1.3302(7)
C4B C 1.8168(10) 0.6973(3) 1.5744(8)
C5B C 1.9441(9) 0.6642(3) 1.6182(8)
H6B H 2.0420 0.5947 1.5613
C24B C 1.6322(10) 0.6462(3) 1.1688(9)
H5B H 1.8045 0.7270 1.6407
C17B C 2.0677(11) 0.6747(5) 1.7702(10)
O1B O 1.5007(7) 0.6592(2) 1.1275(6)
O2B O 1.7156(7) 0.6311(2) 1.0704(5)
C18B C 1.9905(21) 0.6638(9) 1.9069(14)
C19B C 2.2035(17) 0.6289(7) 1.8049(15)
C20B C 2.1406(29) 0.7274(10) 1.7789(20)
C25B C 1.6267(12) 0.6238(4) 0.9118(8)
H14B H 1.9070 0.6895 1.8954
H15B H 2.0642 0.6700 2.0041
H16B H 1.9513 0.6271 1.9040
H17B H 2.1916 0.6054 1.7167
H18B H 2.1982 0.6074 1.8934
H19B H 2.3015 0.6471 1.8250
H20B H 2.0585 0.7538 1.7585
H21B H 2.1969 0.7302 1.7012
H22B H 2.2089 0.7344 1.8787
H32B H 1.6927 0.6126 0.8482
H33B H 1.5778 0.6579 0.8741
H34B H 1.5494 0.5963 0.9086
C21? C -0.0888(30) 0.3713(16) 0.1306(33)
C22? C -0.2089(29) 0.3126(16) 0.2794(34)
C23? C -0.0258(41) 0.2746(22) 0.1395(45)
H23? H -0.0021 0.3702 0.0860
H24? H -0.1826 -0.3690 0.0500
H25? H -0.0872 0.4051 0.1860
H26? H -0.1953 0.2766 0.3232
H27? H -0.2279 0.3382 0.3546
H28? H -0.2951 0.3129 0.1901
H29? H 0.0648 0.2599 0.2096
H30? H -0.1041 0.2468 0.1149
H31? H -0.0008 0.2864 0.0465
loop_
_geom_bond_atom_site_label_1
_geom_bond_atom_site_label_2
_geom_bond_site_symmetry_1
_geom_bond_site_symmetry_2
C1 C2 1_555 1_555
C2 C3 1_555 1_555
C3 C4 1_555 1_555
C4 C5 1_555 1_555
C5 C6 1_555 1_555
C6 C7 1_555 1_555
C7 C8 1_555 1_555
C8 C3 1_555 1_555
C9 C7 1_555 1_555
C10 C9 1_555 1_555
C11 C10 1_555 1_555
C12 C11 1_555 1_555
C13 C12 1_555 1_555
C14 C13 1_555 1_555
C15 C1 1_555 1_555
C16 C11 1_555 1_555
C17 C5 1_555 1_555
C18 C17 1_555 1_555
C19 C17 1_555 1_555
C20 C17 1_555 1_555
C24 C8 1_555 1_555
O1 C24 1_555 1_555
O2 C24 1_555 1_555
C25 O2 1_555 1_555
C26 C13 1_555 1_555
C27 C26 1_555 1_555
H1 C1 1_555 1_555
H2 C1 1_555 1_555
H3 C2 1_555 1_555
H4 C2 1_555 1_555
H5 C4 1_555 1_555
H6 C6 1_555 1_555
H7 C9 1_555 1_555
H8 C9 1_555 1_555
H9 C10 1_555 1_555
H10 C10 1_555 1_555
H11 C12 1_555 1_555
H12 C14 1_555 1_555
H13 C16 1_555 1_555
H14 C18 1_555 1_555
H15 C18 1_555 1_555
H16 C18 1_555 1_555
H17 C19 1_555 1_555
H18 C19 1_555 1_555
H19 C19 1_555 1_555
H20 C20 1_555 1_555
H21 C20 1_555 1_555
H22 C20 1_555 1_555
H32 C25 1_555 1_555
H33 C25 1_555 1_555
H34 C25 1_555 1_555
C27B C27 1_555 1_555
C26B C27B 1_555 1_555
C13B C26B 1_555 1_555
C12B C13B 1_555 1_555
C14B C13B 1_555 1_555
C11B C12B 1_555 1_555
H11B C12B 1_555 1_555
C15B C14B 1_555 1_555
H12B C14B 1_555 1_555
C10B C11B 1_555 1_555
C16B C11B 1_555 1_555
C1B C15B 1_555 1_555
C9B C10B 1_555 1_555
H9B C10B 1_555 1_555
H10B C10B 1_555 1_555
H13B C16B 1_555 1_555
C2B C1B 1_555 1_555
H1B C1B 1_555 1_555
H2B C1B 1_555 1_555
C7B C9B 1_555 1_555
H7B C9B 1_555 1_555
H8B C9B 1_555 1_555
C3B C2B 1_555 1_555
H3B C2B 1_555 1_555
H4B C2B 1_555 1_555
C6B C7B 1_555 1_555
C8B C7B 1_555 1_555
C4B C3B 1_555 1_555
C5B C6B 1_555 1_555
H6B C6B 1_555 1_555
C24B C8B 1_555 1_555
H5B C4B 1_555 1_555
C17B C5B 1_555 1_555
O1B C24B 1_555 1_555
O2B C24B 1_555 1_555
C18B C17B 1_555 1_555
C19B C17B 1_555 1_555
C20B C17B 1_555 1_555
C25B O2B 1_555 1_555
H14B C18B 1_555 1_555
H15B C18B 1_555 1_555
H16B C18B 1_555 1_555
H17B C19B 1_555 1_555
H18B C19B 1_555 1_555
H19B C19B 1_555 1_555
H20B C20B 1_555 1_555
H21B C20B 1_555 1_555
H22B C20B 1_555 1_555
H32B C25B 1_555 1_555
H33B C25B 1_555 1_555
H34B C25B 1_555 1_555
C14 C15 1_555 1_555
C15 C16 1_555 1_555
C15B C16B 1_555 1_555
C3B C8B 1_555 1_555
C4B C5B 1_555 1_555

#END
