
#######################################################################
#
#                 Cambridge Crystallographic Data Centre
#                                CCDC 
#
#######################################################################
#
# If this CIF has been generated from an entry in the Cambridge 
# Structural Database, then it will include bibliographic, chemical, 
# crystal, experimental, refinement or atomic coordinate data resulting 
# from the CCDC's data processing and validation procedures.
#
#######################################################################

data_PEGSAY
_chemical_formula_moiety         'C22 H16 N2 O2'
_chemical_name_systematic        
'4-methyl-2-(pyridin-2-yl)phenyl 3-(4-cyanophenyl)prop-2-enoate'
_symmetry_cell_setting           triclinic
_symmetry_space_group_name_H-M   'P -1'
_symmetry_Int_Tables_number      2
_space_group_name_Hall           '-P 1'
loop_
_symmetry_equiv_pos_site_id
_symmetry_equiv_pos_as_xyz
1 x,y,z
2 -x,-y,-z
_cell_length_a                   7.1832(10)
_cell_length_b                   10.3531(16)
_cell_length_c                   12.7041(18)
_cell_angle_alpha                99.499(6)
_cell_angle_beta                 102.356(6)
_cell_angle_gamma                98.881(5)
_cell_volume                     892.427
_exptl_crystal_colour            colorless
_exptl_crystal_description       Block
_cell_formula_units_Z            2
loop_
_atom_site_label
_atom_site_type_symbol
_atom_site_fract_x
_atom_site_fract_y
_atom_site_fract_z
O1 O 0.11599(12) 0.29982(8) 0.76006(7)
O2 O 0.12901(12) 0.15938(8) 0.60705(7)
C1 C -0.96154(18) -0.32219(12) 0.58075(10)
N1 N -1.10756(16) -0.38902(11) 0.57545(10)
C2 C -0.73402(17) -0.10764(12) 0.65064(10)
H1 H -0.8252 -0.0751 0.6870
C3 C -0.46992(17) -0.20337(12) 0.54187(10)
H2 H -0.3801 -0.2353 0.5041
C4 C 0.44783(18) 0.32743(12) 0.86098(10)
C5 C -0.55785(17) -0.02620(12) 0.65867(10)
H3 H -0.5283 0.0625 0.7007
C6 C -0.42260(16) -0.07333(11) 0.60533(9)
C7 C 0.31342(17) 0.35555(11) 0.77551(10)
C8 C -0.77736(17) -0.23792(12) 0.58876(10)
C9 C 0.64103(18) 0.39342(13) 0.88098(10)
H4 H 0.7350 0.3771 0.9397
C10 C -0.23326(17) 0.00885(12) 0.61162(10)
H5 H -0.1608 -0.0255 0.5629
N2 N 0.27291(16) 0.11580(11) 0.87859(9)
C11 C -0.64558(18) -0.28596(12) 0.53339(10)
H6 H -0.6762 -0.3742 0.4905
C12 C 0.36797(18) 0.44196(12) 0.71037(10)
H7 H 0.2737 0.4587 0.6520
C13 C 0.04204(17) 0.19256(11) 0.67461(9)
C14 C -0.15236(17) 0.12666(12) 0.67848(10)
H8 H -0.2190 0.1674 0.7278
C15 C 0.70044(19) 0.48212(13) 0.81791(11)
C16 C 0.56188(19) 0.50420(13) 0.73108(10)
H9 H 0.6002 0.5623 0.6856
C17 C 0.9088(2) 0.55610(15) 0.84562(13)
H10 H 0.9222 0.6427 0.8943
H11 H 0.9454 0.5702 0.7777
H12 H 0.9941 0.5034 0.8827
C18 C 0.4656(2) 0.26545(14) 1.04440(11)
H13 H 0.5502 0.3487 1.0786
C19 C 0.2267(2) 0.03001(14) 0.94126(13)
H14 H 0.1436 -0.0533 0.9056
C20 C 0.39271(18) 0.23278(12) 0.93060(10)
C21 C 0.4133(2) 0.17509(15) 1.10695(12)
H15 H 0.4602 0.1957 1.1848
C22 C 0.2920(2) 0.05468(15) 1.05466(13)
H16 H 0.2543 -0.0097 1.0954
loop_
_geom_bond_atom_site_label_1
_geom_bond_atom_site_label_2
_geom_bond_site_symmetry_1
_geom_bond_site_symmetry_2
O1 C7 1_555 1_555
O2 C13 1_555 1_555
C1 N1 1_555 1_555
C2 H1 1_555 1_555
C3 H2 1_555 1_555
C4 C7 1_555 1_555
C5 C2 1_555 1_555
H3 C5 1_555 1_555
C6 C3 1_555 1_555
C7 C12 1_555 1_555
C8 C1 1_555 1_555
C9 C4 1_555 1_555
H4 C9 1_555 1_555
C10 C6 1_555 1_555
H5 C10 1_555 1_555
N2 C19 1_555 1_555
C11 C3 1_555 1_555
H6 C11 1_555 1_555
C12 H7 1_555 1_555
C13 O1 1_555 1_555
C14 C10 1_555 1_555
H8 C14 1_555 1_555
C15 C9 1_555 1_555
C16 C12 1_555 1_555
H9 C16 1_555 1_555
C17 C15 1_555 1_555
H10 C17 1_555 1_555
H11 C17 1_555 1_555
H12 C17 1_555 1_555
C18 H13 1_555 1_555
C19 H14 1_555 1_555
C20 C4 1_555 1_555
C21 C18 1_555 1_555
H15 C21 1_555 1_555
C22 C19 1_555 1_555
H16 C22 1_555 1_555
C2 C8 1_555 1_555
C5 C6 1_555 1_555
C8 C11 1_555 1_555
N2 C20 1_555 1_555
C13 C14 1_555 1_555
C15 C16 1_555 1_555
C18 C20 1_555 1_555
C21 C22 1_555 1_555

#END
