
#######################################################################
#
#                 Cambridge Crystallographic Data Centre
#                                CCDC 
#
#######################################################################
#
# If this CIF has been generated from an entry in the Cambridge 
# Structural Database, then it will include bibliographic, chemical, 
# crystal, experimental, refinement or atomic coordinate data resulting 
# from the CCDC's data processing and validation procedures.
#
#######################################################################

data_PEGXEH
_chemical_formula_moiety         
'C10 H11 N4 O2 1+,C10 H10 N4 O2,H2 O4 P1 1-,H2 O1'
_chemical_name_systematic        
'4-{[(3-hydroxy-4-methoxyphenyl)methylidene]amino}-4H-1,2,4-triazol-1-ium 2-methoxy-5-{[(4H-1,2,4-triazol-4-yl)imino]methyl}phenol dihydrogen phosphate monohydrate'
_symmetry_cell_setting           orthorhombic
_symmetry_space_group_name_H-M   'P c a 21'
_symmetry_Int_Tables_number      29
_space_group_name_Hall           'P 2c -2ac'
loop_
_symmetry_equiv_pos_site_id
_symmetry_equiv_pos_as_xyz
1 x,y,z
2 -x,-y,1/2+z
3 1/2+x,-y,z
4 1/2-x,y,1/2+z
_cell_length_a                   21.2012(14)
_cell_length_b                   7.069(3)
_cell_length_c                   17.137
_cell_angle_alpha                90
_cell_angle_beta                 90
_cell_angle_gamma                90
_cell_volume                     2568.34
_exptl_crystal_colour            'light yellow'
_exptl_crystal_description       prism
_cell_formula_units_Z            4
loop_
_atom_site_label
_atom_site_type_symbol
_atom_site_fract_x
_atom_site_fract_y
_atom_site_fract_z
P1 P 0.42164(8) 0.7864(3) 0.11745(13)
O1 O 0.3521(3) 0.7856(9) 0.1073(4)
O2 O 0.4572(3) 0.7878(11) 0.0378(4)
H1 H 0.4376 0.7242 0.0060
O3 O 0.4459(3) 0.9506(8) 0.1663(4)
O4 O 0.4431(4) 0.6049(10) 0.1618(5)
H2 H 0.4212 0.5151 0.1483
O5 O 0.2732(3) 0.5756(10) 0.3598(4)
N1 N 0.3675(3) 0.5886(10) 0.7136(4)
N2 N 0.4040(3) 0.5969(10) 0.7811(4)
C1 C 0.3946(4) 0.5412(13) 0.6506(5)
H3 H 0.4369 0.5058 0.6524
C2 C 0.3623(4) 0.5399(11) 0.5752(5)
C3 C 0.2708(4) 0.6015(13) 0.4969(5)
C4 C 0.3062(4) 0.5575(13) 0.4282(5)
C5 C 0.2982(4) 0.5881(12) 0.5678(5)
H4 H 0.2744 0.6112 0.6124
N3 N 0.4254(4) 0.6602(12) 0.9022(5)
O6 O 0.2095(3) 0.6526(11) 0.4846(4)
H5 H 0.1916 0.6649 0.5267
C6 C 0.3809(4) 0.6485(13) 0.8504(5)
H6 H 0.3385 0.6729 0.8602
C7 C 0.3683(4) 0.5067(12) 0.4343(5)
H7 H 0.3916 0.4773 0.3899
C8 C 0.3959(4) 0.4997(13) 0.5070(5)
H8 H 0.4383 0.4672 0.5108
C9 C 0.3048(5) 0.5376(16) 0.2875(5)
H9 H 0.2790 0.5790 0.2448
H10 H 0.3124 0.4042 0.2829
H11 H 0.3443 0.6041 0.2863
N4 N 0.4819(4) 0.6175(16) 0.8643(5)
C10 C 0.4683(5) 0.582(2) 0.7923(7)
H12 H 0.4975 0.5501 0.7539
N5 N 0.3679(3) 0.0040(11) 0.5002(4)
N6 N 0.4083(3) -0.0233(11) 0.4367(4)
C11 C 0.3583(4) 0.0499(12) 0.6381(5)
C12 C 0.2914(4) 0.0852(12) 0.7766(5)
C13 C 0.3939(4) 0.0314(13) 0.5664(6)
H13 H 0.4376 0.0398 0.5686
O7 O 0.1958(3) 0.0221(11) 0.7128(4)
H14 H 0.1856 -0.0780 0.6922
O8 O 0.2541(3) 0.0968(10) 0.8419(3)
C14 C 0.2599(4) 0.0438(11) 0.7077(6)
C15 C 0.2925(4) 0.0312(13) 0.6385(5)
H15 H 0.2709 0.0104 0.5920
C16 C 0.3570(4) 0.1030(12) 0.7770(5)
H16 H 0.3784 0.1267 0.8234
C17 C 0.3898(4) 0.0849(13) 0.7078(6)
H17 H 0.4335 0.0963 0.7078
C18 C 0.2840(5) 0.1348(17) 0.9157(5)
H18 H 0.3091 0.2473 0.9116
H19 H 0.3105 0.0300 0.9297
H20 H 0.2523 0.1523 0.9551
C19 C 0.4701(4) -0.0884(16) 0.4305(6)
H21 H 0.4955 -0.1184 0.4730
N7 N 0.4373(3) -0.0498(11) 0.3181(5)
H22 H 0.4359 -0.0479 0.2679
N8 N 0.4879(4) -0.1021(13) 0.3581(4)
C20 C 0.3900(4) -0.0016(14) 0.3622(6)
H23 H 0.3507 0.0401 0.3453
H24 H 0.412(2) 0.289(14) 0.064(5)
O9 O 0.4449(4) 0.2812(12) 0.0909(6)
H25 H 0.416(3) 0.283(9) 0.127(4)
loop_
_geom_bond_atom_site_label_1
_geom_bond_atom_site_label_2
_geom_bond_site_symmetry_1
_geom_bond_site_symmetry_2
P1 O1 1_555 1_555
O2 P1 1_555 1_555
H1 O2 1_555 1_555
O3 P1 1_555 1_555
O4 P1 1_555 1_555
H2 O4 1_555 1_555
O5 C4 1_555 1_555
N1 N2 1_555 1_555
N2 C6 1_555 1_555
C1 N1 1_555 1_555
H3 C1 1_555 1_555
C2 C1 1_555 1_555
C3 C4 1_555 1_555
C4 C7 1_555 1_555
C5 C2 1_555 1_555
H4 C5 1_555 1_555
N3 C6 1_555 1_555
O6 C3 1_555 1_555
H5 O6 1_555 1_555
C6 H6 1_555 1_555
C7 H7 1_555 1_555
C8 C2 1_555 1_555
H8 C8 1_555 1_555
C9 O5 1_555 1_555
H9 C9 1_555 1_555
H10 C9 1_555 1_555
H11 C9 1_555 1_555
N4 N3 1_555 1_555
C10 N2 1_555 1_555
H12 C10 1_555 1_555
N5 N6 1_555 1_555
N6 C19 1_555 1_555
C11 C13 1_555 1_555
C12 O8 1_555 1_555
C13 N5 1_555 1_555
H13 C13 1_555 1_555
O7 H14 1_555 1_555
O8 C18 1_555 1_555
C14 C12 1_555 1_555
C15 C11 1_555 1_555
H15 C15 1_555 1_555
C16 C12 1_555 1_555
H16 C16 1_555 1_555
C17 C11 1_555 1_555
H17 C17 1_555 1_555
C18 H18 1_555 1_555
H19 C18 1_555 1_555
H20 C18 1_555 1_555
C19 H21 1_555 1_555
N7 H22 1_555 1_555
N8 C19 1_555 1_555
C20 N6 1_555 1_555
H23 C20 1_555 1_555
H24 O9 1_555 1_555
O9 H25 1_555 1_555
C3 C5 1_555 1_555
C7 C8 1_555 1_555
N4 C10 1_555 1_555
O7 C14 1_555 1_555
C14 C15 1_555 1_555
C16 C17 1_555 1_555
N7 N8 1_555 1_555
N7 C20 1_555 1_555

#END
