
#######################################################################
#
#                 Cambridge Crystallographic Data Centre
#                                CCDC 
#
#######################################################################
#
# If this CIF has been generated from an entry in the Cambridge 
# Structural Database, then it will include bibliographic, chemical, 
# crystal, experimental, refinement or atomic coordinate data resulting 
# from the CCDC's data processing and validation procedures.
#
#######################################################################

data_PEGXIJ
_chemical_formula_moiety         'C22 H19 Br1 N2 O2 S1'
_chemical_name_systematic        
(S)-N-((4-Bromophenyl)(indol-3-yl)methyl)-4-methylbenzenesulfonamide
_symmetry_cell_setting           monoclinic
_symmetry_space_group_name_H-M   'C 2'
_symmetry_Int_Tables_number      5
_space_group_name_Hall           'C 2y'
loop_
_symmetry_equiv_pos_site_id
_symmetry_equiv_pos_as_xyz
1 x,y,z
2 -x,y,-z
3 1/2+x,1/2+y,z
4 1/2-x,1/2+y,-z
_cell_length_a                   18.443(8)
_cell_length_b                   8.521(3)
_cell_length_c                   27.694(12)
_cell_angle_alpha                90.000
_cell_angle_beta                 105.917(7)
_cell_angle_gamma                90.000
_cell_volume                     4185.33
_chemical_melting_point          '188-190 deg.C'
_cell_formula_units_Z            8
loop_
_atom_site_label
_atom_site_type_symbol
_atom_site_fract_x
_atom_site_fract_y
_atom_site_fract_z
Br1 Br 0.5858(1) -0.0217(2) 0.7857(1)
S1 S 0.8924(2) 0.4484(3) 0.9450(1)
O1 O 0.8682(4) 0.5104(8) 0.9858(3)
O2 O 0.9608(3) 0.5065(8) 0.9352(3)
N1 N 0.9031(4) 0.2628(8) 0.9550(3)
H1 H 0.937(4) 0.209(10) 0.947(3)
N2 N 0.9333(4) -0.2006(9) 1.0303(3)
H2 H 0.9423 -0.2997 1.0311
C1 C 0.8182(6) 0.4791(11) 0.8909(5)
C2 C 0.7468(7) 0.4889(14) 0.8947(5)
H3 H 0.7375 0.4888 0.9260
C3 C 0.6864(7) 0.4991(16) 0.8504(6)
H4 H 0.6373 0.5036 0.8532
C4 C 0.6976(8) 0.5027(17) 0.8040(6)
C5 C 0.7717(8) 0.4973(19) 0.8025(5)
H5 H 0.7814 0.5004 0.7713
C6 C 0.8316(7) 0.4876(16) 0.8442(5)
H6 H 0.8806 0.4866 0.8413
C7 C 0.6317(7) 0.517(2) 0.7584(6)
H7 H 0.6156 0.4137 0.7458
H8 H 0.6461 0.5759 0.7331
H9 H 0.5910 0.5689 0.7672
C8 C 0.8472(5) 0.1640(9) 0.9705(3)
H10 H 0.8238 0.2289 0.9912
C9 C 0.7851(5) 0.1081(10) 0.9256(4)
C10 C 0.7976(6) 0.0633(13) 0.8800(4)
H11 H 0.8465 0.0645 0.8769
C11 C 0.7391(8) 0.0173(15) 0.8393(5)
H12 H 0.7489 -0.0170 0.8099
C12 C 0.6671(8) 0.0230(14) 0.8431(6)
C13 C 0.6526(7) 0.0615(14) 0.8859(5)
H13 H 0.6033 0.0574 0.8883
C14 C 0.7116(6) 0.1087(11) 0.9281(4)
H14 H 0.7006 0.1401 0.9575
C15 C 0.8874(5) 0.0336(10) 1.0022(4)
C16 C 0.8909(6) -0.1207(11) 0.9893(4)
H15 H 0.8683 -0.1640 0.9579
C17 C 0.9595(5) -0.0994(11) 1.0701(4)
C18 C 0.9309(5) 0.0516(10) 1.0538(4)
C19 C 0.9496(5) 0.1751(10) 1.0877(4)
H16 H 0.9326 0.2760 1.0778
C20 C 0.9929(6) 0.1483(13) 1.1352(4)
H17 H 1.0037 0.2317 1.1577
C21 C 1.0213(5) 0.0015(15) 1.1513(4)
H18 H 1.0514 -0.0118 1.1840
C22 C 1.0053(5) -0.1273(13) 1.1188(4)
H19 H 1.0241 -0.2267 1.1290
Br2 Br 0.4033(1) 0.2288(2) 0.7154(1)
S2 S 0.1079(2) 0.7242(3) 0.5544(1)
O3 O 0.1325(4) 0.7925(8) 0.5147(3)
O4 O 0.0408(4) 0.7825(7) 0.5652(3)
N3 N 0.0967(4) 0.5410(8) 0.5432(3)
H20 H 0.069(4) 0.508(11) 0.562(3)
N4 N 0.0644(5) 0.0779(10) 0.4653(3)
H21 H 0.0558 -0.0214 0.4638
C23 C 0.1844(6) 0.7452(13) 0.6092(4)
C24 C 0.1737(7) 0.715(2) 0.6539(5)
H22 H 0.1253 0.6996 0.6569
C25 C 0.2362(8) 0.706(2) 0.6967(5)
H23 H 0.2296 0.6733 0.7272
C26 C 0.3054(8) 0.7452(15) 0.6934(5)
C27 C 0.3147(6) 0.7848(16) 0.6488(6)
H24 H 0.3623 0.8139 0.6465
C28 C 0.2527(6) 0.7830(12) 0.6048(4)
H25 H 0.2596 0.8076 0.5736
C29 C 0.3790(7) 0.7364(17) 0.7379(5)
H26 H 0.4184 0.6884 0.7265
H27 H 0.3696 0.6749 0.7646
H28 H 0.3940 0.8404 0.7499
C30 C 0.1530(5) 0.4388(11) 0.5300(4)
H29 H 0.1786 0.5035 0.5104
C31 C 0.2134(6) 0.3793(11) 0.5745(4)
C32 C 0.2873(6) 0.3875(14) 0.5746(5)
H30 H 0.3001 0.4268 0.5467
C33 C 0.3436(7) 0.3376(15) 0.6162(5)
H31 H 0.3937 0.3413 0.6156
C34 C 0.3265(7) 0.2841(14) 0.6574(5)
C35 C 0.2529(8) 0.2729(17) 0.6579(5)
H32 H 0.2407 0.2336 0.6860
C36 C 0.1963(7) 0.3208(17) 0.6160(5)
H33 H 0.1461 0.3128 0.6163
C37 C 0.1120(5) 0.3106(11) 0.4950(4)
C38 C 0.1068(6) 0.1589(12) 0.5075(4)
H34 H 0.1280 0.1154 0.5390
C39 C 0.0387(5) 0.1828(13) 0.4265(4)
C40 C 0.0677(5) 0.3315(11) 0.4447(4)
C41 C 0.0505(5) 0.4619(12) 0.4119(4)
H35 H 0.0684 0.5614 0.4227
C42 C 0.0061(5) 0.4382(14) 0.3630(4)
H36 H -0.0047 0.5223 0.3407
C43 C -0.0227(6) 0.2876(15) 0.3468(5)
H37 H -0.0530 0.2746 0.3141
C44 C -0.0067(6) 0.1594(14) 0.3784(4)
H38 H -0.0259 0.0606 0.3677
loop_
_geom_bond_atom_site_label_1
_geom_bond_atom_site_label_2
_geom_bond_site_symmetry_1
_geom_bond_site_symmetry_2
Br1 C12 1_555 1_555
S1 O1 1_555 1_555
O2 S1 1_555 1_555
N1 S1 1_555 1_555
H1 N1 1_555 1_555
N2 H2 1_555 1_555
C1 S1 1_555 1_555
C2 C1 1_555 1_555
H3 C2 1_555 1_555
C3 C2 1_555 1_555
H4 C3 1_555 1_555
C4 C3 1_555 1_555
C5 C4 1_555 1_555
H5 C5 1_555 1_555
C6 C1 1_555 1_555
H6 C6 1_555 1_555
C7 C4 1_555 1_555
H7 C7 1_555 1_555
H8 C7 1_555 1_555
H9 C7 1_555 1_555
C8 N1 1_555 1_555
H10 C8 1_555 1_555
C9 C8 1_555 1_555
C10 C9 1_555 1_555
H11 C10 1_555 1_555
C11 C10 1_555 1_555
H12 C11 1_555 1_555
C12 C11 1_555 1_555
C13 C12 1_555 1_555
H13 C13 1_555 1_555
C14 C9 1_555 1_555
H14 C14 1_555 1_555
C15 C8 1_555 1_555
C16 N2 1_555 1_555
H15 C16 1_555 1_555
C17 N2 1_555 1_555
C18 C15 1_555 1_555
C19 C18 1_555 1_555
H16 C19 1_555 1_555
C20 C19 1_555 1_555
H17 C20 1_555 1_555
C21 C20 1_555 1_555
H18 C21 1_555 1_555
C22 C17 1_555 1_555
H19 C22 1_555 1_555
Br2 C34 1_555 1_555
S2 O3 1_555 1_555
O4 S2 1_555 1_555
N3 S2 1_555 1_555
H20 N3 1_555 1_555
N4 H21 1_555 1_555
C23 S2 1_555 1_555
C24 C23 1_555 1_555
H22 C24 1_555 1_555
C25 C24 1_555 1_555
H23 C25 1_555 1_555
C26 C25 1_555 1_555
C27 C26 1_555 1_555
H24 C27 1_555 1_555
C28 C23 1_555 1_555
H25 C28 1_555 1_555
C29 C26 1_555 1_555
H26 C29 1_555 1_555
H27 C29 1_555 1_555
H28 C29 1_555 1_555
C30 N3 1_555 1_555
H29 C30 1_555 1_555
C31 C30 1_555 1_555
C32 C31 1_555 1_555
H30 C32 1_555 1_555
C33 C32 1_555 1_555
H31 C33 1_555 1_555
C34 C33 1_555 1_555
C35 C34 1_555 1_555
H32 C35 1_555 1_555
C36 C31 1_555 1_555
H33 C36 1_555 1_555
C37 C30 1_555 1_555
C38 N4 1_555 1_555
H34 C38 1_555 1_555
C39 N4 1_555 1_555
C40 C37 1_555 1_555
C41 C40 1_555 1_555
H35 C41 1_555 1_555
C42 C41 1_555 1_555
H36 C42 1_555 1_555
C43 C42 1_555 1_555
H37 C43 1_555 1_555
C44 C39 1_555 1_555
H38 C44 1_555 1_555
C5 C6 1_555 1_555
C13 C14 1_555 1_555
C15 C16 1_555 1_555
C17 C18 1_555 1_555
C21 C22 1_555 1_555
C27 C28 1_555 1_555
C35 C36 1_555 1_555
C37 C38 1_555 1_555
C39 C40 1_555 1_555
C43 C44 1_555 1_555

#END
