
#######################################################################
#
#                 Cambridge Crystallographic Data Centre
#                                CCDC 
#
#######################################################################
#
# If this CIF has been generated from an entry in the Cambridge 
# Structural Database, then it will include bibliographic, chemical, 
# crystal, experimental, refinement or atomic coordinate data resulting 
# from the CCDC's data processing and validation procedures.
#
#######################################################################

data_PEHFEN
_chemical_compound_source        'Gynostemma pentaphyllum Makino'
_chemical_formula_moiety         'C30 H50 O3,C1 H4 O1'
_chemical_name_systematic        
'(20R,25S)-12\b,25-Epoxy-20,26-cyclodammarane-2\a,3\b-diol methanol solvate'
_symmetry_cell_setting           orthorhombic
_symmetry_space_group_name_H-M   'P 21 21 21'
_symmetry_Int_Tables_number      19
_space_group_name_Hall           'P 2ac 2ab'
loop_
_symmetry_equiv_pos_site_id
_symmetry_equiv_pos_as_xyz
1 x,y,z
2 1/2+x,1/2-y,-z
3 -x,1/2+y,1/2-z
4 1/2-x,-y,1/2+z
_cell_length_a                   7.308(3)
_cell_length_b                   29.425(5)
_cell_length_c                   12.966(3)
_cell_angle_alpha                90
_cell_angle_beta                 90
_cell_angle_gamma                90
_cell_volume                     2788.18
_exptl_crystal_colour            colorless
_cell_formula_units_Z            4
loop_
_atom_site_label
_atom_site_type_symbol
_atom_site_fract_x
_atom_site_fract_y
_atom_site_fract_z
O1 O 0.117(2) 0.8075(4) 0.4839(9)
O2 O -0.060(2) 0.7237(4) 0.4261(9)
O3 O 0.189(2) 0.9926(4) 0.1319(9)
C1 C 0.064(3) 0.8394(6) 0.316(1)
C2 C 0.097(3) 0.7941(6) 0.376(2)
C3 C -0.078(3) 0.7656(6) 0.363(1)
C4 C -0.144(3) 0.7531(6) 0.248(1)
C5 C -0.118(3) 0.7980(6) 0.184(1)
C6 C -0.168(3) 0.7901(6) 0.069(1)
C7 C -0.226(3) 0.8343(6) 0.018(1)
C8 C -0.093(3) 0.8737(6) 0.030(1)
C9 C -0.028(2) 0.8778(6) 0.147(1)
C10 C 0.041(3) 0.8310(6) 0.196(1)
C11 C 0.109(3) 0.9180(6) 0.164(1)
C12 C 0.028(3) 0.9636(6) 0.128(1)
C13 C -0.050(3) 0.9599(6) 0.019(1)
C14 C -0.186(3) 0.9206(6) 0.012(1)
C15 C -0.253(3) 0.9277(6) -0.103(1)
C16 C -0.226(3) 0.9791(6) -0.128(2)
C17 C -0.154(3) 1.0004(6) -0.026(1)
C18 C 0.075(3) 0.8658(6) -0.045(1)
C19 C 0.234(3) 0.8154(6) 0.152(1)
C20 C -0.053(3) 1.0465(6) -0.035(1)
C21 C -0.188(3) 1.0809(6) -0.076(2)
C22 C 0.118(3) 1.0479(6) -0.106(1)
C23 C 0.299(3) 1.0304(6) -0.063(2)
C24 C 0.343(3) 1.0510(6) 0.043(2)
C25 C 0.185(3) 1.0418(6) 0.118(1)
C26 C 0.000(3) 1.0601(6) 0.077(2)
C27 C 0.217(3) 1.0623(7) 0.225(2)
C28 C -0.307(3) 0.7304(7) 0.248(2)
C29 C 0.013(3) 0.7157(7) 0.206(2)
C30 C -0.363(3) 0.9293(6) 0.080(2)
C31 C 0.336(3) 0.6498(7) 0.336(2)
O4 O 0.293(2) 0.6876(5) 0.404(1)
loop_
_geom_bond_atom_site_label_1
_geom_bond_atom_site_label_2
_geom_bond_site_symmetry_1
_geom_bond_site_symmetry_2
O1 C2 1_555 1_555
O2 C3 1_555 1_555
O3 C12 1_555 1_555
C1 C2 1_555 1_555
C2 C3 1_555 1_555
C3 C4 1_555 1_555
C4 C5 1_555 1_555
C5 C6 1_555 1_555
C6 C7 1_555 1_555
C7 C8 1_555 1_555
C8 C9 1_555 1_555
C9 C10 1_555 1_555
C10 C1 1_555 1_555
C11 C9 1_555 1_555
C12 C11 1_555 1_555
C13 C12 1_555 1_555
C14 C8 1_555 1_555
C15 C14 1_555 1_555
C16 C15 1_555 1_555
C17 C13 1_555 1_555
C18 C8 1_555 1_555
C19 C10 1_555 1_555
C20 C17 1_555 1_555
C21 C20 1_555 1_555
C22 C20 1_555 1_555
C23 C22 1_555 1_555
C24 C23 1_555 1_555
C25 O3 1_555 1_555
C26 C20 1_555 1_555
C27 C25 1_555 1_555
C28 C4 1_555 1_555
C29 C4 1_555 1_555
C30 C14 1_555 1_555
C31 O4 1_555 1_555
C5 C10 1_555 1_555
C13 C14 1_555 1_555
C16 C17 1_555 1_555
C24 C25 1_555 1_555
C25 C26 1_555 1_555

#END
