
#######################################################################
#
#                 Cambridge Crystallographic Data Centre
#                                CCDC 
#
#######################################################################
#
# If this CIF has been generated from an entry in the Cambridge 
# Structural Database, then it will include bibliographic, chemical, 
# crystal, experimental, refinement or atomic coordinate data resulting 
# from the CCDC's data processing and validation procedures.
#
#######################################################################

data_PEHSOL
_chemical_formula_moiety         'C22 H28 O3'
_chemical_name_systematic        
cis-Adamantane-2-spiro-3'-8'-phenyl-1',2',4'-trioxaspiro(4.5)decane
_chemical_properties_biological  
'excellent activity against P. falciparum and P. berghei'
_symmetry_cell_setting           triclinic
_symmetry_space_group_name_H-M   'P -1'
_symmetry_Int_Tables_number      2
_space_group_name_Hall           '-P 1'
loop_
_symmetry_equiv_pos_site_id
_symmetry_equiv_pos_as_xyz
1 x,y,z
2 -x,-y,-z
_cell_length_a                   6.3660(10)
_cell_length_b                   10.1970(10)
_cell_length_c                   14.341(2)
_cell_angle_alpha                83.310(10)
_cell_angle_beta                 89.690(10)
_cell_angle_gamma                82.160(10)
_cell_volume                     915.9
_exptl_crystal_colour            colorless
_exptl_crystal_description       plate
_chemical_melting_point          '103-105 deg.C'
_cell_formula_units_Z            2
loop_
_atom_site_label
_atom_site_type_symbol
_atom_site_fract_x
_atom_site_fract_y
_atom_site_fract_z
O1 O 0.15064(18) 0.77040(13) 0.32272(8)
O2 O -0.18075(19) 0.74885(14) 0.37289(8)
O3 O -0.06804(19) 0.80784(14) 0.44337(8)
C1 C 0.0087(3) 0.94547(19) 0.15736(12)
H1 H -0.0326 1.0346 0.1257
H2 H 0.1547 0.9387 0.1784
C2 C 0.0548(3) 0.70246(19) 0.13909(13)
H3 H 0.2016 0.6927 0.1598
H4 H 0.0424 0.6373 0.0960
C3 C 0.2154(3) 0.61937(19) 0.46469(12)
H5 H 0.3539 0.5877 0.4411
H6 H 0.1157 0.5636 0.4453
C4 C -0.1345(3) 0.92086(18) 0.24191(12)
H7 H -0.1216 0.9862 0.2858
C5 C -0.0631(3) 0.78130(19) 0.28962(12)
C6 C 0.1485(3) 0.76148(19) 0.42246(12)
C7 C 0.3682(3) 0.69955(18) 0.60648(12)
H8 H 0.5109 0.6744 0.5827
C8 C -0.0102(3) 0.84282(19) 0.08918(12)
H9 H 0.0820 0.8586 0.0352
C9 C -0.0879(3) 0.67776(19) 0.22388(13)
H10 H -0.0450 0.5882 0.2564
C10 C 0.3834(3) 0.68373(18) 0.71253(13)
C11 C -0.3655(3) 0.9331(2) 0.20794(13)
H11 H -0.4572 0.9177 0.2612
H12 H -0.4098 1.0223 0.1770
C12 C -0.3842(3) 0.8308(2) 0.13955(13)
H13 H -0.5315 0.8389 0.1177
C13 C 0.2249(3) 0.60668(19) 0.57120(12)
H14 H 0.2776 0.5153 0.5952
H15 H 0.0829 0.6276 0.5951
C14 C 0.2823(3) 0.85716(19) 0.45769(13)
H16 H 0.2231 0.9477 0.4343
H17 H 0.4246 0.8406 0.4333
C15 C -0.2403(3) 0.8562(2) 0.05564(13)
H18 H -0.2827 0.9450 0.0237
H19 H -0.2536 0.7924 0.0116
C16 C 0.2057(3) 0.7035(2) 0.76784(13)
H20 H 0.0732 0.7282 0.7392
C17 C 0.2206(4) 0.6874(2) 0.86476(14)
H21 H 0.0986 0.7007 0.9003
C18 C 0.2932(3) 0.84334(19) 0.56459(13)
H22 H 0.1539 0.8721 0.5887
H23 H 0.3897 0.9010 0.5841
C19 C -0.3185(3) 0.6914(2) 0.19089(14)
H24 H -0.4094 0.6766 0.2445
H25 H -0.3340 0.6250 0.1491
C20 C 0.5760(3) 0.6465(2) 0.75864(15)
H26 H 0.6987 0.6313 0.7238
C21 C 0.5903(4) 0.6314(3) 0.85555(17)
H27 H 0.7221 0.6067 0.8848
C22 C 0.4135(4) 0.6522(2) 0.90878(15)
H28 H 0.4238 0.6425 0.9739
loop_
_geom_bond_atom_site_label_1
_geom_bond_atom_site_label_2
_geom_bond_site_symmetry_1
_geom_bond_site_symmetry_2
O1 C5 1_555 1_555
O2 O3 1_555 1_555
O3 C6 1_555 1_555
C1 H1 1_555 1_555
H2 C1 1_555 1_555
C2 H3 1_555 1_555
H4 C2 1_555 1_555
C3 H5 1_555 1_555
H6 C3 1_555 1_555
C4 C1 1_555 1_555
H7 C4 1_555 1_555
C5 O2 1_555 1_555
C6 O1 1_555 1_555
C7 H8 1_555 1_555
C8 C1 1_555 1_555
H9 C8 1_555 1_555
C9 C2 1_555 1_555
H10 C9 1_555 1_555
C10 C7 1_555 1_555
C11 C4 1_555 1_555
H11 C11 1_555 1_555
H12 C11 1_555 1_555
C12 C11 1_555 1_555
H13 C12 1_555 1_555
C13 C3 1_555 1_555
H14 C13 1_555 1_555
H15 C13 1_555 1_555
C14 C6 1_555 1_555
H16 C14 1_555 1_555
H17 C14 1_555 1_555
C15 C8 1_555 1_555
H18 C15 1_555 1_555
H19 C15 1_555 1_555
C16 C10 1_555 1_555
H20 C16 1_555 1_555
C17 C16 1_555 1_555
H21 C17 1_555 1_555
C18 C7 1_555 1_555
H22 C18 1_555 1_555
H23 C18 1_555 1_555
C19 C9 1_555 1_555
H24 C19 1_555 1_555
H25 C19 1_555 1_555
C20 C10 1_555 1_555
H26 C20 1_555 1_555
C21 C20 1_555 1_555
H27 C21 1_555 1_555
C22 C17 1_555 1_555
H28 C22 1_555 1_555
C2 C8 1_555 1_555
C3 C6 1_555 1_555
C4 C5 1_555 1_555
C5 C9 1_555 1_555
C7 C13 1_555 1_555
C12 C15 1_555 1_555
C12 C19 1_555 1_555
C14 C18 1_555 1_555
C21 C22 1_555 1_555

#END
