
#######################################################################
#
#                 Cambridge Crystallographic Data Centre
#                                CCDC 
#
#######################################################################
#
# If this CIF has been generated from an entry in the Cambridge 
# Structural Database, then it will include bibliographic, chemical, 
# crystal, experimental, refinement or atomic coordinate data resulting 
# from the CCDC's data processing and validation procedures.
#
#######################################################################

data_PEHTEC
_chemical_formula_moiety         'C9 H8 I1 N1 O2'
_chemical_name_systematic        5-Iodo-2,7-dimethyl-benzo(d)isoxazol-3-one
_symmetry_cell_setting           monoclinic
_symmetry_space_group_name_H-M   'P 21/c'
_symmetry_Int_Tables_number      14
_space_group_name_Hall           '-P 2ybc'
loop_
_symmetry_equiv_pos_site_id
_symmetry_equiv_pos_as_xyz
1 x,y,z
2 -x,1/2+y,1/2-z
3 -x,-y,-z
4 x,1/2-y,1/2+z
_cell_length_a                   4.1515(5)
_cell_length_b                   16.0162(12)
_cell_length_c                   14.1406(11)
_cell_angle_alpha                90
_cell_angle_beta                 97.411(5)
_cell_angle_gamma                90
_cell_volume                     932.372
_exptl_crystal_colour            colorless
_exptl_crystal_description       needle
_chemical_melting_point          '107-108 deg.C'
_cell_formula_units_Z            4
_exptl_crystal_recrystallization_method 'ethyl acetate/hexanes'
loop_
_atom_site_label
_atom_site_type_symbol
_atom_site_fract_x
_atom_site_fract_y
_atom_site_fract_z
I1 I 0.13598(5) 0.015574(14) 0.146758(15)
O1 O 0.7149(7) 0.23773(17) -0.14568(18)
O2 O 0.4482(6) 0.37270(15) 0.02141(17)
N1 N 0.5729(10) 0.3527(2) -0.0647(2)
C1 C 0.5976(8) 0.2684(2) -0.0791(2)
C2 C 0.7114(9) 0.4215(2) -0.1093(3)
C3 C 0.3708(8) 0.2959(2) 0.0569(2)
C4 C 0.2285(8) 0.2864(2) 0.1394(2)
C5 C 0.1668(7) 0.2035(2) 0.1626(2)
C6 C 0.2479(8) 0.1371(2) 0.1059(2)
C7 C 0.3909(8) 0.1490(2) 0.0237(2)
C8 C 0.4505(8) 0.2309(2) 0.0004(2)
C9 C 0.1435(9) 0.3592(2) 0.1988(3)
H1 H 0.0676 0.1921 0.2181
H2 H 0.4448 0.1036 -0.0144
H3 H 0.9021 0.4420 -0.0677
H4 H 0.5505 0.4664 -0.1205
H5 H 0.7765 0.4034 -0.1702
H6 H 0.3428 0.3883 0.2252
H7 H 0.0305 0.3389 0.2511
H8 H 0.0020 0.3978 0.1589
loop_
_geom_bond_atom_site_label_1
_geom_bond_atom_site_label_2
_geom_bond_site_symmetry_1
_geom_bond_site_symmetry_2
I1 C6 1_555 1_555
O1 C1 1_555 1_555
O2 N1 1_555 1_555
N1 C1 1_555 1_555
C1 C8 1_555 1_555
C2 N1 1_555 1_555
C3 O2 1_555 1_555
C4 C3 1_555 1_555
C5 C4 1_555 1_555
C6 C5 1_555 1_555
C7 C6 1_555 1_555
C8 C3 1_555 1_555
C9 C4 1_555 1_555
H1 C5 1_555 1_555
H2 C7 1_555 1_555
H3 C2 1_555 1_555
H4 C2 1_555 1_555
H5 C2 1_555 1_555
H6 C9 1_555 1_555
H7 C9 1_555 1_555
H8 C9 1_555 1_555
C7 C8 1_555 1_555

#END
