
#######################################################################
#
#                 Cambridge Crystallographic Data Centre
#                                CCDC 
#
#######################################################################
#
# If this CIF has been generated from an entry in the Cambridge 
# Structural Database, then it will include bibliographic, chemical, 
# crystal, experimental, refinement or atomic coordinate data resulting 
# from the CCDC's data processing and validation procedures.
#
#######################################################################

data_PEHWAB01
_chemical_formula_moiety         'C10 H4 Br2 O2 S2'
_chemical_name_systematic        1,2-bis(5-bromo-2-thienyl)ethane-1,2-dione
_symmetry_cell_setting           orthorhombic
_symmetry_space_group_name_H-M   'P 21 21 21'
_symmetry_Int_Tables_number      19
_space_group_name_Hall           'P 2ac 2ab'
loop_
_symmetry_equiv_pos_site_id
_symmetry_equiv_pos_as_xyz
1 x,y,z
2 1/2-x,-y,1/2+z
3 -x,1/2+y,1/2-z
4 1/2+x,1/2-y,-z
_cell_length_a                   5.7908(6)
_cell_length_b                   11.3325(13)
_cell_length_c                   17.3880(19)
_cell_angle_alpha                90
_cell_angle_beta                 90
_cell_angle_gamma                90
_cell_volume                     1141.07
_exptl_crystal_colour            yellow
_exptl_crystal_description       rod
_cell_formula_units_Z            4
_exptl_crystal_recrystallization_method dichloromethane/methanol
loop_
_atom_site_label
_atom_site_type_symbol
_atom_site_fract_x
_atom_site_fract_y
_atom_site_fract_z
Br1 Br 0.67021(9) 0.02452(4) 0.81236(3)
Br2 Br 1.28148(10) 0.72074(5) 0.34055(3)
S1 S 0.7627(2) 0.22072(10) 0.69184(6)
S2 S 1.1943(2) 0.51160(10) 0.45312(7)
O1 O 1.2303(6) 0.3011(3) 0.53411(19)
O2 O 0.7131(6) 0.4136(3) 0.60140(19)
C1 C 0.8586(9) 0.0961(4) 0.7379(2)
C2 C 1.0678(9) 0.0573(4) 0.7127(3)
H1 H 1.1435 -0.0090 0.7316
C3 C 1.1540(8) 0.1307(4) 0.6545(3)
H2 H 1.2959 0.1183 0.6308
C4 C 1.0114(8) 0.2219(4) 0.6357(2)
C5 C 1.0600(9) 0.3080(4) 0.5750(3)
C6 C 0.8891(8) 0.4110(4) 0.5633(3)
C7 C 0.9440(8) 0.5021(4) 0.5066(2)
C8 C 0.7984(9) 0.5940(4) 0.4911(3)
H3 H 0.6554 0.6030 0.5147
C9 C 0.8843(9) 0.6732(5) 0.4365(3)
H4 H 0.8066 0.7401 0.4195
C10 C 1.0973(9) 0.6392(4) 0.4115(3)
loop_
_geom_bond_atom_site_label_1
_geom_bond_atom_site_label_2
_geom_bond_site_symmetry_1
_geom_bond_site_symmetry_2
Br1 C1 1_555 1_555
Br2 C10 1_555 1_555
S1 C1 1_555 1_555
S2 C7 1_555 1_555
O1 C5 1_555 1_555
O2 C6 1_555 1_555
C1 C2 1_555 1_555
C2 H1 1_555 1_555
C3 C2 1_555 1_555
H2 C3 1_555 1_555
C4 S1 1_555 1_555
C5 C4 1_555 1_555
C6 C5 1_555 1_555
C7 C6 1_555 1_555
C8 C7 1_555 1_555
H3 C8 1_555 1_555
C9 C8 1_555 1_555
H4 C9 1_555 1_555
C10 S2 1_555 1_555
C3 C4 1_555 1_555
C9 C10 1_555 1_555

#END
