
#######################################################################
#
#                 Cambridge Crystallographic Data Centre
#                                CCDC 
#
#######################################################################
#
# If this CIF has been generated from an entry in the Cambridge 
# Structural Database, then it will include bibliographic, chemical, 
# crystal, experimental, refinement or atomic coordinate data resulting 
# from the CCDC's data processing and validation procedures.
#
#######################################################################

data_PEJTOO
_chemical_formula_moiety         
'C36 H32 N4 O12 S4,2(C4 H8 O1),3(C2 H6 O1 S1),C2 H6 O1'
_chemical_name_systematic        
'1^3,6^,7^3,6^-tetramethoxo-1,7(2,7)-dinaphtha-4,10(1,3)-dibenza-3,5,9,11-tetra-aza-2,6,8,12-tetrathiadodecaphane 2,2,6,6,8,8,12,12-octaoxide ethanol dimethylsulfoxide tetrahydrofuran solvate'
_symmetry_cell_setting           monoclinic
_symmetry_space_group_name_H-M   'C 2/c'
_symmetry_Int_Tables_number      15
_space_group_name_Hall           '-C 2yn'
loop_
_symmetry_equiv_pos_site_id
_symmetry_equiv_pos_as_xyz
1 x,y,z
2 1/2+x,1/2+y,z
3 -x,y,1/2-z
4 1/2-x,1/2+y,1/2-z
5 -x,-y,-z
6 1/2-x,1/2-y,-z
7 x,-y,1/2+z
8 1/2+x,1/2-y,1/2+z
_cell_length_a                   31.333(6)
_cell_length_b                   14.016(3)
_cell_length_c                   14.718(3)
_cell_angle_alpha                90
_cell_angle_beta                 99.59(3)
_cell_angle_gamma                90
_cell_volume                     6373.28
_exptl_crystal_colour            colorless
_cell_formula_units_Z            4
loop_
_atom_site_label
_atom_site_type_symbol
_atom_site_fract_x
_atom_site_fract_y
_atom_site_fract_z
S4 S -0.22949(15) 0.2791(6) -0.3427(5)
O8 O -0.26511(14) 0.3098(4) -0.2963(4)
C20 C -0.2117(7) 0.1704(10) -0.3005(14)
C21 C -0.1851(3) 0.3377(9) -0.2897(6)
O10 O 0.7214 1.0494 1.0595
C22 C 0.7565 1.1051 1.0290
C23 C 0.7294 0.9829 1.0093
C24 C 0.7700 0.9550 0.9734
C25 C 0.7907 1.0343 0.9979
O11 O 0.0004(5) 0.5140(11) 0.1829(16)
C26 C 0.0000 0.4703(12) 0.2500
C27 C 0.0000 0.3586(9) 0.2500
O11B O -0.0004(5) 0.5140(11) 0.3171(16)
S1 S 0.13513(4) 0.31053(10) 0.04948(9)
S2 S -0.11591(4) 0.24626(8) -0.04012(8)
O1 O 0.16002(14) 0.2572(3) -0.0067(3)
O2 O 0.11880(14) 0.4032(3) 0.0191(3)
O3 O -0.13668(14) 0.1754(3) -0.1011(2)
O4 O -0.10907(12) 0.3384(2) -0.0768(2)
O5 O 0.13613(10) 0.1264(2) 0.1406(2)
O6 O -0.09821(11) 0.0658(2) 0.0622(3)
N1 N 0.16548(12) 0.3217(3) 0.1488(3)
H1 H 0.1927 0.3096 0.1545
N2 N -0.14568(13) 0.2568(3) 0.0388(3)
H2 H -0.1684 0.2216 0.0337
C1 C -0.06513(15) 0.2032(3) 0.0121(3)
C2 C -0.02984(16) 0.2558(3) 0.0055(3)
H3 H -0.0332 0.3147 -0.0238
C3 C 0.01221(14) 0.2235(3) 0.0420(3)
C4 C 0.05034(15) 0.2756(3) 0.0328(3)
H4 H 0.0477 0.3341 0.0025
C5 C 0.08949(14) 0.2427(3) 0.0666(3)
C6 C 0.09447(14) 0.1522(3) 0.1118(3)
C7 C 0.05850(15) 0.1010(3) 0.1235(3)
H5 H 0.0617 0.0435 0.1555
C8 C 0.01681(14) 0.1345(3) 0.0877(3)
C9 C -0.02059(14) 0.0812(3) 0.0950(3)
H6 H -0.0177 0.0227 0.1251
C10 C -0.06047(16) 0.1130(3) 0.0591(3)
C11 C -0.09497(18) -0.0281(3) 0.1007(4)
H7 H -0.1235 -0.0540 0.0990
H8 H -0.0803 -0.0253 0.1634
H9 H -0.0789 -0.0681 0.0655
C12 C 0.1441(2) 0.0450(4) 0.1998(5)
H10 H 0.1747 0.0341 0.2149
H11 H 0.1304 -0.0101 0.1690
H12 H 0.1326 0.0564 0.2553
C13 C -0.13762(12) 0.3195(3) 0.1166(3)
C14 C -0.11786(16) 0.4083(3) 0.1132(4)
H13 H -0.1081 0.4282 0.0600
C15 C -0.11293(19) 0.4658(4) 0.1896(4)
H14 H -0.0993 0.5245 0.1873
C16 C -0.12749(16) 0.4397(3) 0.2704(4)
H15 H -0.1239 0.4799 0.3214
C17 C 0.14759(13) 0.3513(3) 0.2278(3)
C18 C -0.15246(12) 0.2924(3) 0.1954(3)
H16 H -0.1660 0.2335 0.1974
S1B S -0.13513(4) 0.31053(10) 0.45052(9)
S2B S 0.11591(4) 0.24626(8) 0.54012(8)
O1B O -0.16002(14) 0.2572(3) 0.5067(3)
O2B O -0.11880(14) 0.4032(3) 0.4809(3)
O3B O 0.13668(14) 0.1754(3) 0.6011(2)
O4B O 0.10907(12) 0.3384(2) 0.5768(2)
O5B O -0.13613(10) 0.1264(2) 0.3594(2)
O6B O 0.09821(11) 0.0658(2) 0.4378(3)
N1B N -0.16548(12) 0.3217(3) 0.3512(3)
H1B H -0.1927 0.3096 0.3455
N2B N 0.14568(13) 0.2568(3) 0.4612(3)
H2B H 0.1684 0.2216 0.4663
C1B C 0.06513(15) 0.2032(3) 0.4879(3)
C2B C 0.02984(16) 0.2558(3) 0.4945(3)
H3B H 0.0332 0.3147 0.5238
C3B C -0.01221(14) 0.2235(3) 0.4580(3)
C4B C -0.05034(15) 0.2756(3) 0.4672(3)
H4B H -0.0477 0.3341 0.4975
C5B C -0.08949(14) 0.2427(3) 0.4334(3)
C6B C -0.09447(14) 0.1522(3) 0.3882(3)
C7B C -0.05850(15) 0.1010(3) 0.3765(3)
H5B H -0.0617 0.0435 0.3445
C8B C -0.01681(14) 0.1345(3) 0.4123(3)
C9B C 0.02059(14) 0.0812(3) 0.4050(3)
H6B H 0.0177 0.0227 0.3749
C10B C 0.06047(16) 0.1130(3) 0.4409(3)
C11B C 0.09497(18) -0.0281(3) 0.3993(4)
H7B H 0.1235 -0.0540 0.4010
H8B H 0.0803 -0.0253 0.3366
H9B H 0.0789 -0.0681 0.4345
C12B C -0.1441(2) 0.0450(4) 0.3002(5)
H10B H -0.1747 0.0341 0.2851
H11B H -0.1304 -0.0101 0.3310
H12B H -0.1326 0.0564 0.2447
C13B C 0.13762(12) 0.3195(3) 0.3834(3)
C14B C 0.11786(16) 0.4083(3) 0.3868(4)
H13B H 0.1081 0.4282 0.4400
C15B C 0.11293(19) 0.4658(4) 0.3104(4)
H14B H 0.0993 0.5245 0.3127
C16B C 0.12749(16) 0.4397(3) 0.2296(4)
H15B H 0.1239 0.4799 0.1786
C17B C -0.14759(13) 0.3513(3) 0.2722(3)
C18B C 0.15246(12) 0.2924(3) 0.3046(3)
H16B H 0.1660 0.2335 0.3026
S3? S -0.0031(3) 0.1950(4) -0.2134(3)
O7? O 0.0000 0.0987(5) -0.2500
C19? C -0.0452(4) 0.2512(6) -0.2680(8)
S5? S -0.22679(12) 0.2819(4) -0.2429(3)
O9? O 0.7968 1.1052 1.0604
loop_
_geom_bond_atom_site_label_1
_geom_bond_atom_site_label_2
_geom_bond_site_symmetry_1
_geom_bond_site_symmetry_2
S1 O1 1_555 1_555
S2 O3 1_555 1_555
O2 S1 1_555 1_555
O4 S2 1_555 1_555
O5 C6 1_555 1_555
O6 C10 1_555 1_555
N1 S1 1_555 1_555
H1 N1 1_555 1_555
N2 S2 1_555 1_555
H2 N2 1_555 1_555
C1 S2 1_555 1_555
C2 C1 1_555 1_555
H3 C2 1_555 1_555
C3 C2 1_555 1_555
C4 C3 1_555 1_555
H4 C4 1_555 1_555
C5 S1 1_555 1_555
C6 C5 1_555 1_555
C7 C6 1_555 1_555
H5 C7 1_555 1_555
C8 C3 1_555 1_555
C9 C8 1_555 1_555
H6 C9 1_555 1_555
C10 C1 1_555 1_555
C11 O6 1_555 1_555
H7 C11 1_555 1_555
H8 C11 1_555 1_555
H9 C11 1_555 1_555
C12 O5 1_555 1_555
H10 C12 1_555 1_555
H11 C12 1_555 1_555
H12 C12 1_555 1_555
C13 N2 1_555 1_555
C14 C13 1_555 1_555
H13 C14 1_555 1_555
C15 C14 1_555 1_555
H14 C15 1_555 1_555
C16 C15 1_555 1_555
H15 C16 1_555 1_555
C17 N1 1_555 1_555
C18 C13 1_555 1_555
H16 C18 1_555 1_555
S4 O8 1_555 1_555
C20 S4 1_555 1_555
C21 S4 1_555 1_555
O10 C22 1_555 1_555
C22 C25 1_555 1_555
C23 O10 1_555 1_555
C24 C23 1_555 1_555
C25 C24 1_555 1_555
O11 C26 1_555 1_555
C26 C27 1_555 1_555
S1B O1B 1_555 1_555
S2B O3B 1_555 1_555
O2B S1B 1_555 1_555
O4B S2B 1_555 1_555
O5B C6B 1_555 1_555
O6B C10B 1_555 1_555
N1B S1B 1_555 1_555
H1B N1B 1_555 1_555
N2B S2B 1_555 1_555
H2B N2B 1_555 1_555
C1B S2B 1_555 1_555
C2B C1B 1_555 1_555
H3B C2B 1_555 1_555
C3B C2B 1_555 1_555
C4B C3B 1_555 1_555
H4B C4B 1_555 1_555
C5B S1B 1_555 1_555
C6B C5B 1_555 1_555
C7B C6B 1_555 1_555
H5B C7B 1_555 1_555
C8B C3B 1_555 1_555
C9B C8B 1_555 1_555
H6B C9B 1_555 1_555
C10B C1B 1_555 1_555
C11B O6B 1_555 1_555
H7B C11B 1_555 1_555
H8B C11B 1_555 1_555
H9B C11B 1_555 1_555
C12B O5B 1_555 1_555
H10B C12B 1_555 1_555
H11B C12B 1_555 1_555
H12B C12B 1_555 1_555
C13B N2B 1_555 1_555
C14B C13B 1_555 1_555
H13B C14B 1_555 1_555
C15B C14B 1_555 1_555
H14B C15B 1_555 1_555
C16B C17 1_555 1_555
H15B C16B 1_555 1_555
C17B C16 1_555 1_555
C18B C17 1_555 1_555
H16B C18B 1_555 1_555
O11B C26 1_555 1_555
C4 C5 1_555 1_555
C7 C8 1_555 1_555
C9 C10 1_555 1_555
C18 C17B 1_555 1_555
N1B C17B 1_555 1_555
C4B C5B 1_555 1_555
C7B C8B 1_555 1_555
C9B C10B 1_555 1_555
C13B C18B 1_555 1_555
C15B C16B 1_555 1_555

#END
