
#######################################################################
#
#                 Cambridge Crystallographic Data Centre
#                                CCDC 
#
#######################################################################
#
# If this CIF has been generated from an entry in the Cambridge 
# Structural Database, then it will include bibliographic, chemical, 
# crystal, experimental, refinement or atomic coordinate data resulting 
# from the CCDC's data processing and validation procedures.
#
#######################################################################

data_PEJTEE
_chemical_formula_moiety         'C21 H29 N1 O4 S1'
_chemical_name_systematic        
1-(((2-methoxyphenyl)amino)sulfonyl)-2-(n-heptoxy)-5-methylbenzene
_symmetry_cell_setting           triclinic
_symmetry_space_group_name_H-M   'P -1'
_symmetry_Int_Tables_number      2
_space_group_name_Hall           '-P 1'
loop_
_symmetry_equiv_pos_site_id
_symmetry_equiv_pos_as_xyz
1 x,y,z
2 -x,-y,-z
_cell_length_a                   8.5122(12)
_cell_length_b                   8.8900(12)
_cell_length_c                   14.309(2)
_cell_angle_alpha                84.448(2)
_cell_angle_beta                 88.069(2)
_cell_angle_gamma                75.994(2)
_cell_volume                     1045.63
_exptl_crystal_colour            colorless
_exptl_crystal_description       plate
_cell_formula_units_Z            2
_exptl_crystal_recrystallization_method dimethylformamide
loop_
_atom_site_label
_atom_site_type_symbol
_atom_site_fract_x
_atom_site_fract_y
_atom_site_fract_z
S1 S 0.79477(5) 0.94637(5) 0.79521(3)
O1 O 0.84908(16) 1.00286(15) 0.70618(10)
O2 O 0.82785(16) 1.01211(15) 0.87765(10)
C1 C 0.5847(2) 0.9637(2) 0.78755(13)
C2 C 0.5047(2) 1.0407(2) 0.70797(14)
H1 H 0.5631 1.0802 0.6595
C3 C 0.3388(2) 1.0603(2) 0.69870(15)
C4 C 0.2570(2) 1.0004(3) 0.77302(16)
H2 H 0.1457 1.0134 0.7688
C5 C 0.3343(2) 0.9221(2) 0.85316(15)
H3 H 0.2754 0.8830 0.9015
C6 C 0.5007(2) 0.9021(2) 0.86135(14)
C7 C 0.8692(2) 0.6467(2) 0.75339(13)
C8 C 0.8834(2) 0.4961(2) 0.79654(13)
C9 C 0.8795(2) 0.3752(2) 0.74321(15)
H4 H 0.8897 0.2749 0.7718
C10 C 0.8603(3) 0.4047(3) 0.64713(16)
H5 H 0.8563 0.3241 0.6111
C11 C 0.8471(3) 0.5523(3) 0.60462(15)
H6 H 0.8346 0.5709 0.5399
C12 C 0.8523(2) 0.6738(2) 0.65723(14)
H7 H 0.8443 0.7734 0.6279
N1 N 0.88089(18) 0.76116(17) 0.81461(11)
H8 H 0.9368 0.7306 0.8648
C13 C 0.2517(3) 1.1451(3) 0.61175(18)
H9 H 0.2195 1.2546 0.6190
H10 H 0.1575 1.1070 0.6027
H11 H 0.3227 1.1277 0.5582
O3 O 0.58939(15) 0.82502(16) 0.93637(9)
C14 C 0.5075(2) 0.7519(2) 1.01026(14)
H12 H 0.4550 0.6795 0.9850
H13 H 0.4253 0.8299 1.0391
C15 C 0.6296(2) 0.6674(2) 1.08176(14)
H14 H 0.6812 0.7411 1.1065
H15 H 0.7126 0.5918 1.0518
C16 C 0.5536(2) 0.5843(2) 1.16227(14)
H16 H 0.4736 0.6611 1.1934
H17 H 0.4974 0.5149 1.1368
C17 C 0.6738(2) 0.4910(3) 1.23443(15)
H18 H 0.7510 0.4112 1.2040
H19 H 0.7332 0.5594 1.2581
C18 C 0.5957(3) 0.4144(3) 1.31641(15)
H20 H 0.5190 0.4947 1.3469
H21 H 0.5352 0.3472 1.2924
C19 C 0.7128(3) 0.3195(3) 1.38905(16)
H22 H 0.7747 0.3858 1.4128
H23 H 0.7882 0.2373 1.3593
C20 C 0.6295(4) 0.2475(3) 1.47062(17)
H24 H 0.5620 0.3285 1.5038
H25 H 0.7096 0.1831 1.5124
H26 H 0.5643 0.1853 1.4474
O4 O 0.90190(17) 0.48139(15) 0.89218(9)
C21 C 0.9197(3) 0.3302(2) 0.94036(16)
H27 H 0.8309 0.2881 0.9254
H28 H 0.9208 0.3373 1.0068
H29 H 1.0196 0.2632 0.9213
loop_
_geom_bond_atom_site_label_1
_geom_bond_atom_site_label_2
_geom_bond_site_symmetry_1
_geom_bond_site_symmetry_2
S1 O1 1_555 1_555
O2 S1 1_555 1_555
C1 S1 1_555 1_555
C2 C1 1_555 1_555
H1 C2 1_555 1_555
C3 C2 1_555 1_555
C4 C3 1_555 1_555
H2 C4 1_555 1_555
C5 C4 1_555 1_555
H3 C5 1_555 1_555
C6 C1 1_555 1_555
C7 C8 1_555 1_555
C8 C9 1_555 1_555
C9 H4 1_555 1_555
C10 C9 1_555 1_555
H5 C10 1_555 1_555
C11 C10 1_555 1_555
H6 C11 1_555 1_555
C12 C7 1_555 1_555
H7 C12 1_555 1_555
N1 S1 1_555 1_555
H8 N1 1_555 1_555
C13 C3 1_555 1_555
H9 C13 1_555 1_555
H10 C13 1_555 1_555
H11 C13 1_555 1_555
O3 C6 1_555 1_555
C14 O3 1_555 1_555
H12 C14 1_555 1_555
H13 C14 1_555 1_555
C15 C14 1_555 1_555
H14 C15 1_555 1_555
H15 C15 1_555 1_555
C16 C15 1_555 1_555
H16 C16 1_555 1_555
H17 C16 1_555 1_555
C17 C16 1_555 1_555
H18 C17 1_555 1_555
H19 C17 1_555 1_555
C18 C17 1_555 1_555
H20 C18 1_555 1_555
H21 C18 1_555 1_555
C19 C18 1_555 1_555
H22 C19 1_555 1_555
H23 C19 1_555 1_555
C20 C19 1_555 1_555
H24 C20 1_555 1_555
H25 C20 1_555 1_555
H26 C20 1_555 1_555
O4 C8 1_555 1_555
C21 O4 1_555 1_555
H27 C21 1_555 1_555
H28 C21 1_555 1_555
H29 C21 1_555 1_555
C5 C6 1_555 1_555
C7 N1 1_555 1_555
C11 C12 1_555 1_555

#END
