
#######################################################################
#
#                 Cambridge Crystallographic Data Centre
#                                CCDC 
#
#######################################################################
#
# If this CIF has been generated from an entry in the Cambridge 
# Structural Database, then it will include bibliographic, chemical, 
# crystal, experimental, refinement or atomic coordinate data resulting 
# from the CCDC's data processing and validation procedures.
#
#######################################################################

data_PEJTAA
_chemical_formula_moiety         'C26 H32 N2 O8 S2'
_chemical_name_systematic        
1,3-bis(((2-methoxyphenyl)amino)sulfonyl)-4,6-di-isopropoxybenzene
_symmetry_cell_setting           orthorhombic
_symmetry_space_group_name_H-M   'P 21 21 21'
_symmetry_Int_Tables_number      19
_space_group_name_Hall           'P 2ac 2ab'
loop_
_symmetry_equiv_pos_site_id
_symmetry_equiv_pos_as_xyz
1 x,y,z
2 1/2-x,-y,1/2+z
3 1/2+x,1/2-y,-z
4 -x,1/2+y,1/2-z
_cell_length_a                   9.0348(7)
_cell_length_b                   12.8363(9)
_cell_length_c                   24.4291(18)
_cell_angle_alpha                90
_cell_angle_beta                 90
_cell_angle_gamma                90
_cell_volume                     2833.13
_exptl_crystal_colour            colorless
_chemical_melting_point          '174-176 deg.C'
_cell_formula_units_Z            4
_exptl_crystal_recrystallization_method dimethylformamide
loop_
_atom_site_label
_atom_site_type_symbol
_atom_site_fract_x
_atom_site_fract_y
_atom_site_fract_z
S1 S 0.44278(6) 0.00775(4) 0.053061(19)
S2 S 0.25830(5) 0.23012(4) 0.227659(18)
C1 C 0.1940(2) -0.10161(15) 0.02822(9)
C2 C 0.1519(3) -0.12126(18) 0.08154(10)
H1 H 0.2120 -0.0994 0.1108
C3 C 0.0206(3) -0.1733(2) 0.09160(13)
H2 H -0.0096 -0.1861 0.1278
C4 C -0.0657(3) -0.2064(2) 0.04858(14)
H3 H -0.1546 -0.2419 0.0557
C5 C -0.0240(3) -0.1883(2) -0.00477(13)
H4 H -0.0834 -0.2122 -0.0338
C6 C 0.1043(3) -0.13548(18) -0.01544(10)
C7 C 0.3527(2) 0.11930(14) 0.07810(7)
C8 C 0.2946(2) 0.19570(15) 0.04271(8)
C9 C 0.2289(2) 0.28483(15) 0.06475(8)
H5 H 0.1929 0.3371 0.0413
C10 C 0.2165(2) 0.29675(14) 0.12129(8)
C11 C 0.2725(2) 0.21907(14) 0.15600(7)
C12 C 0.3398(2) 0.13180(14) 0.13425(7)
H6 H 0.3774 0.0803 0.1578
C13 C -0.0350(2) 0.18431(15) 0.22938(8)
C14 C -0.1753(2) 0.22306(16) 0.24216(8)
C15 C -0.2997(2) 0.16076(17) 0.23535(10)
H7 H -0.3938 0.1861 0.2449
C16 C -0.2844(3) 0.06143(17) 0.21441(10)
H8 H -0.3682 0.0189 0.2101
C17 C -0.1468(3) 0.02430(17) 0.19984(9)
H9 H -0.1373 -0.0427 0.1847
C18 C -0.0224(2) 0.08574(16) 0.20749(8)
H10 H 0.0713 0.0600 0.1977
C19 C 0.0939(3) -0.1656(3) -0.11215(12)
H11 H 0.0982 -0.2402 -0.1060
H12 H 0.1481 -0.1484 -0.1452
H13 H -0.0085 -0.1443 -0.1162
C20 C 0.2358(4) 0.2467(2) -0.05048(9)
H14 H 0.1449 0.2766 -0.0342
C21 C 0.1942(7) 0.1785(4) -0.09834(13)
H15 H 0.1410 0.2195 -0.1253
H16 H 0.1317 0.1219 -0.0857
H17 H 0.2832 0.1501 -0.1148
C22 C 0.3419(5) 0.3332(3) -0.06367(17)
H18 H 0.3699 0.3688 -0.0302
H19 H 0.2949 0.3823 -0.0884
H20 H 0.4295 0.3045 -0.0809
C23 C 0.0920(3) 0.46484(15) 0.11441(9)
H21 H 0.0396 0.4380 0.0817
C24 C -0.0160(3) 0.51859(19) 0.15133(10)
H22 H -0.0873 0.4684 0.1650
H23 H -0.0673 0.5727 0.1311
H24 H 0.0366 0.5496 0.1819
C25 C 0.2147(4) 0.5350(2) 0.09691(13)
H25 H 0.2659 0.5613 0.1290
H26 H 0.1744 0.5929 0.0762
H27 H 0.2836 0.4964 0.0742
C26 C -0.3187(3) 0.3706(2) 0.26836(13)
H28 H -0.3060 0.4442 0.2761
H29 H -0.3704 0.3377 0.2986
H30 H -0.3759 0.3624 0.2351
N1 N 0.3278(2) -0.05205(13) 0.01312(7)
H31 H 0.3508 -0.0539 -0.0214
N2 N 0.08542(17) 0.25144(13) 0.24155(6)
H32 H 0.0645 0.3097 0.2580
O1 O 0.47348(17) -0.05687(11) 0.09913(6)
O2 O 0.56130(17) 0.03905(11) 0.01787(6)
O3 O 0.29843(17) 0.13096(11) 0.24934(5)
O4 O 0.33412(16) 0.32085(11) 0.24591(6)
O5 O 0.1586(2) -0.11244(13) -0.06648(6)
O6 O 0.3050(2) 0.17595(12) -0.01104(6)
O7 O 0.15007(17) 0.37790(10) 0.14608(5)
O8 O -0.17716(16) 0.32307(11) 0.26156(7)
loop_
_geom_bond_atom_site_label_1
_geom_bond_atom_site_label_2
_geom_bond_site_symmetry_1
_geom_bond_site_symmetry_2
S1 C7 1_555 1_555
S2 C11 1_555 1_555
C1 C2 1_555 1_555
C2 H1 1_555 1_555
C3 C2 1_555 1_555
H2 C3 1_555 1_555
C4 C3 1_555 1_555
H3 C4 1_555 1_555
C5 C4 1_555 1_555
H4 C5 1_555 1_555
C6 C1 1_555 1_555
C7 C8 1_555 1_555
C8 C9 1_555 1_555
C9 H5 1_555 1_555
C10 C9 1_555 1_555
C11 C10 1_555 1_555
C12 C7 1_555 1_555
H6 C12 1_555 1_555
C13 C14 1_555 1_555
C14 C15 1_555 1_555
C15 H7 1_555 1_555
C16 C15 1_555 1_555
H8 C16 1_555 1_555
C17 C16 1_555 1_555
H9 C17 1_555 1_555
C18 C13 1_555 1_555
H10 C18 1_555 1_555
C19 H11 1_555 1_555
H12 C19 1_555 1_555
H13 C19 1_555 1_555
C20 H14 1_555 1_555
C21 C20 1_555 1_555
H15 C21 1_555 1_555
H16 C21 1_555 1_555
H17 C21 1_555 1_555
C22 C20 1_555 1_555
H18 C22 1_555 1_555
H19 C22 1_555 1_555
H20 C22 1_555 1_555
C23 H21 1_555 1_555
C24 C23 1_555 1_555
H22 C24 1_555 1_555
H23 C24 1_555 1_555
H24 C24 1_555 1_555
C25 C23 1_555 1_555
H25 C25 1_555 1_555
H26 C25 1_555 1_555
H27 C25 1_555 1_555
C26 H28 1_555 1_555
H29 C26 1_555 1_555
H30 C26 1_555 1_555
N1 S1 1_555 1_555
H31 N1 1_555 1_555
N2 S2 1_555 1_555
H32 N2 1_555 1_555
O1 S1 1_555 1_555
O2 S1 1_555 1_555
O3 S2 1_555 1_555
O4 S2 1_555 1_555
O5 C6 1_555 1_555
O6 C8 1_555 1_555
O7 C10 1_555 1_555
O8 C14 1_555 1_555
C1 N1 1_555 1_555
C5 C6 1_555 1_555
C11 C12 1_555 1_555
C13 N2 1_555 1_555
C17 C18 1_555 1_555
C19 O5 1_555 1_555
C20 O6 1_555 1_555
C23 O7 1_555 1_555
C26 O8 1_555 1_555

#END
