
#######################################################################
#
#                 Cambridge Crystallographic Data Centre
#                                CCDC 
#
#######################################################################
#
# If this CIF has been generated from an entry in the Cambridge 
# Structural Database, then it will include bibliographic, chemical, 
# crystal, experimental, refinement or atomic coordinate data resulting 
# from the CCDC's data processing and validation procedures.
#
#######################################################################

data_PEJWIL
_chemical_formula_moiety         'C23 H28 O2'
_chemical_name_systematic        
"2,3,4,5-tetraethyl-2'H-spiro[cyclopenta-2,4-diene-1,1'-naphthalene]-2'-carboxylic acid"
_symmetry_cell_setting           triclinic
_symmetry_space_group_name_H-M   'P -1'
_symmetry_Int_Tables_number      2
_space_group_name_Hall           '-P 1'
loop_
_symmetry_equiv_pos_site_id
_symmetry_equiv_pos_as_xyz
1 x,y,z
2 -x,-y,-z
_cell_length_a                   8.3908(17)
_cell_length_b                   8.6147(17)
_cell_length_c                   15.260(3)
_cell_angle_alpha                105.60(3)
_cell_angle_beta                 96.56(3)
_cell_angle_gamma                107.03(3)
_cell_volume                     993.279
_exptl_crystal_colour            colorless
_exptl_crystal_description       Block
_cell_formula_units_Z            2
loop_
_atom_site_label
_atom_site_type_symbol
_atom_site_fract_x
_atom_site_fract_y
_atom_site_fract_z
O1 O 0.63370(17) 0.15364(18) 0.09270(9)
O2 O 0.58100(18) -0.12719(18) 0.05701(9)
H1 H 0.4947 -0.1405 -0.0068
C1 C 0.6522(2) 0.0290(3) 0.11188(13)
C2 C 0.7632(2) 0.0521(2) 0.20333(12)
H2 H 0.8205 -0.0332 0.1902
C3 C 0.9014(2) 0.2246(3) 0.24052(14)
H3 H 0.9388 0.2825 0.1993
C4 C 0.9713(2) 0.2962(3) 0.33020(15)
H4 H 1.0624 0.3988 0.3498
C5 C 0.9088(2) 0.2179(2) 0.39950(13)
C6 C 0.9960(3) 0.2847(3) 0.49233(16)
H5 H 1.0980 0.3764 0.5096
C7 C 0.9341(3) 0.2176(3) 0.55833(17)
H6 H 0.9945 0.2633 0.6197
C8 C 0.7824(3) 0.0825(3) 0.53403(15)
H7 H 0.7400 0.0376 0.5790
C9 C 0.6932(3) 0.0137(3) 0.44239(13)
H8 H 0.5920 -0.0785 0.4261
C10 C 0.7536(2) 0.0813(2) 0.37455(12)
C11 C 0.6473(2) 0.0072(2) 0.27445(11)
C12 C 0.5610(2) -0.1855(2) 0.24685(12)
C13 C 0.3907(2) -0.2261(2) 0.22440(12)
C14 C 0.3490(2) -0.0678(3) 0.23422(12)
C15 C 0.4941(2) 0.0699(2) 0.26693(11)
C16 C 0.5111(3) 0.2546(3) 0.29157(14)
H9 H 0.4236 0.2664 0.2491
H10 H 0.6208 0.3178 0.2824
C17 C 0.4964(3) 0.3362(3) 0.39170(16)
H11 H 0.5088 0.4544 0.4018
H12 H 0.5843 0.3282 0.4346
H13 H 0.3869 0.2770 0.4012
C18 C 0.1715(2) -0.0647(3) 0.20651(13)
H14 H 0.1570 0.0324 0.2505
H15 H 0.0886 -0.1681 0.2090
C19 C 0.1385(3) -0.0518(4) 0.10819(15)
H16 H 0.0250 -0.0500 0.0929
H17 H 0.1506 -0.1488 0.0643
H18 H 0.2191 0.0515 0.1058
C20 C 0.2598(3) -0.4039(3) 0.19731(15)
H19 H 0.1657 -0.3975 0.2280
H20 H 0.3112 -0.4769 0.2198
C21 C 0.1902(3) -0.4857(4) 0.09337(18)
H21 H 0.1084 -0.5976 0.0812
H22 H 0.2820 -0.4954 0.0625
H23 H 0.1363 -0.4160 0.0707
C22 C 0.6647(3) -0.3028(3) 0.24881(15)
H24 H 0.6153 -0.3790 0.2827
H25 H 0.7792 -0.2330 0.2838
C23 C 0.6780(3) -0.4117(3) 0.15502(17)
H26 H 0.7461 -0.4802 0.1645
H27 H 0.7302 -0.3384 0.1212
H28 H 0.5661 -0.4850 0.1202
loop_
_geom_bond_atom_site_label_1
_geom_bond_atom_site_label_2
_geom_bond_site_symmetry_1
_geom_bond_site_symmetry_2
O1 C1 1_555 1_555
O2 H1 1_555 1_555
C1 O2 1_555 1_555
C2 C1 1_555 1_555
H2 C2 1_555 1_555
C3 C2 1_555 1_555
H3 C3 1_555 1_555
C4 C3 1_555 1_555
H4 C4 1_555 1_555
C5 C4 1_555 1_555
C6 C5 1_555 1_555
H5 C6 1_555 1_555
C7 C6 1_555 1_555
H6 C7 1_555 1_555
C8 C7 1_555 1_555
H7 C8 1_555 1_555
C9 C8 1_555 1_555
H8 C9 1_555 1_555
C10 C5 1_555 1_555
C11 C2 1_555 1_555
C12 C11 1_555 1_555
C13 C12 1_555 1_555
C14 C13 1_555 1_555
C15 C11 1_555 1_555
C16 C15 1_555 1_555
H9 C16 1_555 1_555
H10 C16 1_555 1_555
C17 C16 1_555 1_555
H11 C17 1_555 1_555
H12 C17 1_555 1_555
H13 C17 1_555 1_555
C18 C14 1_555 1_555
H14 C18 1_555 1_555
H15 C18 1_555 1_555
C19 C18 1_555 1_555
H16 C19 1_555 1_555
H17 C19 1_555 1_555
H18 C19 1_555 1_555
C20 C13 1_555 1_555
H19 C20 1_555 1_555
H20 C20 1_555 1_555
C21 C20 1_555 1_555
H21 C21 1_555 1_555
H22 C21 1_555 1_555
H23 C21 1_555 1_555
C22 C12 1_555 1_555
H24 C22 1_555 1_555
H25 C22 1_555 1_555
C23 C22 1_555 1_555
H26 C23 1_555 1_555
H27 C23 1_555 1_555
H28 C23 1_555 1_555
C9 C10 1_555 1_555
C10 C11 1_555 1_555
C14 C15 1_555 1_555

#END
