
#######################################################################
#
#                 Cambridge Crystallographic Data Centre
#                                CCDC 
#
#######################################################################
#
# If this CIF has been generated from an entry in the Cambridge 
# Structural Database, then it will include bibliographic, chemical, 
# crystal, experimental, refinement or atomic coordinate data resulting 
# from the CCDC's data processing and validation procedures.
#
#######################################################################

data_PEJYIN
_chemical_name_common            '2-picolylammonium trifluoroacetate'
_chemical_formula_moiety         'C6 H9 N2 1+,C2 F3 O2 1-'
_chemical_name_systematic        '(2-pyridylmethyl)ammonium trifluoroacetate'
_symmetry_cell_setting           triclinic
_symmetry_space_group_name_H-M   'P -1'
_symmetry_Int_Tables_number      2
_space_group_name_Hall           '-P 1'
loop_
_symmetry_equiv_pos_site_id
_symmetry_equiv_pos_as_xyz
1 x,y,z
2 -x,-y,-z
_cell_length_a                   6.2460(8)
_cell_length_b                   8.3250(10)
_cell_length_c                   9.3180(10)
_cell_angle_alpha                88.713(4)
_cell_angle_beta                 86.931(4)
_cell_angle_gamma                78.377(4)
_cell_volume                     473.867
_exptl_crystal_colour            colorless
_exptl_crystal_description       plate
_cell_formula_units_Z            2
loop_
_atom_site_label
_atom_site_type_symbol
_atom_site_fract_x
_atom_site_fract_y
_atom_site_fract_z
N1 N 0.5850(4) 0.8918(3) 0.2132(2)
C1 C 0.4529(4) 0.7883(3) 0.2505(3)
C2 C 0.3038(5) 0.7507(3) 0.1407(3)
N2 N 0.3137(4) 0.8487(3) 0.0073(3)
C3 C 0.4496(5) 0.7144(3) 0.3864(3)
C4 C 0.5892(5) 0.7478(4) 0.4861(3)
C5 C 0.7288(5) 0.8530(4) 0.4483(3)
C6 C 0.7192(5) 0.9228(4) 0.3123(3)
H1 H 0.152(5) 0.769(4) 0.179(3)
H2 H 0.345(5) 0.638(4) 0.114(3)
H3 H 0.194(5) 0.842(4) -0.047(3)
H4 H 0.306(6) 0.944(5) 0.033(4)
H5 H 0.443(5) 0.822(4) -0.044(3)
H6 H 0.348(5) 0.642(4) 0.408(4)
H7 H 0.588(6) 0.698(4) 0.582(4)
H8 H 0.832(5) 0.893(4) 0.517(4)
H9 H 0.818(5) 0.990(4) 0.285(3)
F1 F -0.0146(13) 0.4869(12) -0.3089(14)
F2 F 0.172(2) 0.6679(14) -0.3179(12)
F3 F 0.177(2) 0.517(2) -0.1325(9)
C7 C 0.0474(4) 0.5929(3) -0.2299(3)
C8 C -0.1425(4) 0.7191(3) -0.1576(3)
O1 O -0.0862(3) 0.8440(2) -0.1128(2)
O2 O -0.3234(3) 0.6812(2) -0.1531(2)
F4? F -0.012(3) 0.525(4) -0.341(3)
F5? F 0.223(4) 0.646(3) -0.263(5)
F6? F 0.104(4) 0.462(2) -0.144(3)
loop_
_geom_bond_atom_site_label_1
_geom_bond_atom_site_label_2
_geom_bond_site_symmetry_1
_geom_bond_site_symmetry_2
N1 C1 1_555 1_555
C1 C2 1_555 1_555
C2 N2 1_555 1_555
N2 H3 1_555 1_555
C3 C1 1_555 1_555
C4 C3 1_555 1_555
C5 C4 1_555 1_555
C6 N1 1_555 1_555
F1 C7 1_555 1_555
F2 C7 1_555 1_555
F3 C7 1_555 1_555
C7 C8 1_555 1_555
C8 O1 1_555 1_555
O2 C8 1_555 1_555
H1 C2 1_555 1_555
H2 C2 1_555 1_555
H4 N2 1_555 1_555
H5 N2 1_555 1_555
H6 C3 1_555 1_555
H7 C4 1_555 1_555
H8 C5 1_555 1_555
H9 C6 1_555 1_555
C5 C6 1_555 1_555

#END
