
#######################################################################
#
#                 Cambridge Crystallographic Data Centre
#                                CCDC 
#
#######################################################################
#
# If this CIF has been generated from an entry in the Cambridge 
# Structural Database, then it will include bibliographic, chemical, 
# crystal, experimental, refinement or atomic coordinate data resulting 
# from the CCDC's data processing and validation procedures.
#
#######################################################################

data_PEJYOT
_chemical_formula_moiety         'C12 H16 N3 3+,3(Cl1 1-),H2 O1'
_chemical_name_systematic        
'bis(pyridinium-2-ylmethyl)ammonium trichloride monohydrate'
_symmetry_cell_setting           triclinic
_symmetry_space_group_name_H-M   'P -1'
_symmetry_Int_Tables_number      2
_space_group_name_Hall           '-P 1'
loop_
_symmetry_equiv_pos_site_id
_symmetry_equiv_pos_as_xyz
1 x,y,z
2 -x,-y,-z
_cell_length_a                   7.4650(10)
_cell_length_b                   8.9460(10)
_cell_length_c                   12.707(2)
_cell_angle_alpha                101.085(2)
_cell_angle_beta                 107.034(2)
_cell_angle_gamma                103.981(2)
_cell_volume                     755.03
_exptl_crystal_colour            colorless
_exptl_crystal_description       prism
_cell_formula_units_Z            2
loop_
_atom_site_label
_atom_site_type_symbol
_atom_site_fract_x
_atom_site_fract_y
_atom_site_fract_z
N1 N 0.15552(16) 0.38124(13) 0.34183(10)
C1 C 0.2625(2) 0.30563(16) 0.27704(11)
N2 N 0.25259(17) 0.24013(13) 0.08307(9)
C2 C 0.25063(18) 0.35337(15) 0.16892(11)
C3 C 0.2460(2) 0.50108(16) 0.15236(12)
C4 C 0.2462(2) 0.52815(16) 0.04806(12)
C5 C 0.2504(2) 0.40879(17) -0.03798(12)
C6 C 0.2517(2) 0.26268(17) -0.01818(12)
C7 C 0.1389(2) 0.31191(15) 0.43857(11)
N3 N -0.18635(16) 0.10868(13) 0.37286(10)
C8 C 0.00975(18) 0.13947(14) 0.39542(10)
C9 C 0.0808(2) 0.01107(15) 0.37864(11)
C10 C -0.0503(2) -0.14486(15) 0.33744(11)
C11 C -0.2505(2) -0.17055(16) 0.31512(12)
C12 C -0.3161(2) -0.03963(16) 0.33475(12)
H1 H 0.037(3) 0.375(2) 0.2955(15)
H2 H 0.218(3) 0.485(2) 0.3738(16)
H3 H 0.207(2) 0.191(2) 0.2589(15)
H4 H 0.394(3) 0.339(2) 0.3247(15)
H5 H 0.254(3) 0.145(2) 0.0952(16)
H6 H 0.251(2) 0.586(2) 0.2142(14)
H7 H 0.241(3) 0.626(2) 0.0336(15)
H8 H 0.250(3) 0.426(2) -0.1105(15)
H9 H 0.248(3) 0.174(2) -0.0688(16)
H10 H 0.087(2) 0.375(2) 0.4823(15)
H11 H 0.270(3) 0.317(2) 0.4861(15)
H12 H -0.232(3) 0.181(2) 0.3822(16)
H13 H 0.217(3) 0.027(2) 0.3966(14)
H14 H 0.001(2) -0.2342(19) 0.3269(14)
H15 H -0.341(3) -0.277(2) 0.2912(15)
H16 H -0.445(2) -0.043(2) 0.3242(14)
O1 O 0.18427(19) -0.12393(15) -0.13009(11)
H17 H 0.200(3) -0.115(2) -0.066(2)
H18 H 0.252(4) -0.181(3) -0.147(2)
Cl1 Cl -0.25742(5) 0.41871(4) 0.27863(3)
Cl2 Cl 0.24165(6) -0.08017(4) 0.13280(3)
Cl3 Cl 0.37978(5) 0.73424(4) 0.46117(3)
loop_
_geom_bond_atom_site_label_1
_geom_bond_atom_site_label_2
_geom_bond_site_symmetry_1
_geom_bond_site_symmetry_2
N1 C1 1_555 1_555
C1 C2 1_555 1_555
N2 C2 1_555 1_555
C2 C3 1_555 1_555
C3 C4 1_555 1_555
C4 C5 1_555 1_555
C5 C6 1_555 1_555
C6 N2 1_555 1_555
C7 N1 1_555 1_555
N3 C8 1_555 1_555
C8 C7 1_555 1_555
C9 C8 1_555 1_555
C10 C9 1_555 1_555
C11 C10 1_555 1_555
C12 N3 1_555 1_555
O1 H17 1_555 1_555
H1 N1 1_555 1_555
H2 N1 1_555 1_555
H3 C1 1_555 1_555
H4 C1 1_555 1_555
H5 N2 1_555 1_555
H6 C3 1_555 1_555
H7 C4 1_555 1_555
H8 C5 1_555 1_555
H9 C6 1_555 1_555
H10 C7 1_555 1_555
H11 C7 1_555 1_555
H12 N3 1_555 1_555
H13 C9 1_555 1_555
H14 C10 1_555 1_555
H15 C11 1_555 1_555
H16 C12 1_555 1_555
H18 O1 1_555 1_555
C11 C12 1_555 1_555

#END
