
#######################################################################
#
#                 Cambridge Crystallographic Data Centre
#                                CCDC 
#
#######################################################################
#
# If this CIF has been generated from an entry in the Cambridge 
# Structural Database, then it will include bibliographic, chemical, 
# crystal, experimental, refinement or atomic coordinate data resulting 
# from the CCDC's data processing and validation procedures.
#
#######################################################################

data_PEJZOU
_chemical_formula_moiety         'C12 H15 N3 2+,2(I1 1-),2(H2 O1)'
_chemical_name_systematic        
'bis(pyridinium-2-ylmethyl)amine di-iodide dihydrate'
_symmetry_cell_setting           monoclinic
_symmetry_space_group_name_H-M   'P 21/c'
_symmetry_Int_Tables_number      14
_space_group_name_Hall           '-P 2ybc'
loop_
_symmetry_equiv_pos_site_id
_symmetry_equiv_pos_as_xyz
1 x,y,z
2 -x,1/2+y,1/2-z
3 -x,-y,-z
4 x,1/2-y,1/2+z
_cell_length_a                   13.3330(10)
_cell_length_b                   14.0130(10)
_cell_length_c                   9.3236(7)
_cell_angle_alpha                90
_cell_angle_beta                 95.593(2)
_cell_angle_gamma                90
_cell_volume                     1733.68
_exptl_crystal_colour            colorless
_exptl_crystal_description       prism
_cell_formula_units_Z            4
loop_
_atom_site_label
_atom_site_type_symbol
_atom_site_fract_x
_atom_site_fract_y
_atom_site_fract_z
N1 N 0.7538(3) -0.0882(3) 0.6890(4)
C1 C 0.7496(2) -0.1041(2) 0.5385(3)
N3 N 0.84586(15) 0.04304(15) 0.5465(2)
C2 C 0.81841(17) -0.03629(17) 0.4721(3)
C3 C 0.85404(19) -0.0499(2) 0.3392(3)
C4 C 0.9145(2) 0.0193(2) 0.2849(3)
C5 C 0.9401(2) 0.1012(2) 0.3645(3)
C6 C 0.9055(2) 0.1110(2) 0.4985(3)
C7 C 0.6664(2) -0.1331(2) 0.7542(3)
N4 N 0.69435(16) -0.00786(18) 0.9367(2)
C8 C 0.64967(18) -0.0914(2) 0.8980(3)
C9 C 0.5877(2) -0.1334(3) 0.9909(4)
C10 C 0.5733(3) -0.0898(3) 1.1208(4)
C11 C 0.6203(2) -0.0025(3) 1.1564(3)
C12 C 0.6826(2) 0.0370(2) 1.0621(3)
H1 H 0.809(5) -0.114(4) 0.729(7)
H2 H 0.68262 -0.09477 0.49641
H3 H 0.77002 -0.16781 0.52135
H4 H 0.824(3) 0.046(4) 0.632(5)
H5 H 0.83728 -0.10617 0.28531
H6 H 0.93851 0.01074 0.19328
H7 H 0.98044 0.14936 0.32724
H8 H 0.92357 0.16533 0.55615
H10 H 0.67915 -0.19955 0.76581
H11 H 0.60718 -0.12398 0.69028
H12 H 0.733(3) 0.018(3) 0.892(4)
H13 H 0.55514 -0.19223 0.96553
H14 H 0.53149 -0.11894 1.18489
H15 H 0.60987 0.02882 1.24373
H16 H 0.71660 0.09528 1.08556
O1 O 0.83450(15) 0.11545(16) 0.8286(2)
H17 H 0.895(3) 0.118(3) 0.868(4)
H18 H 0.816(3) 0.170(3) 0.818(4)
O2 O 0.7259(2) 0.27900(19) 0.7779(4)
H19 H 0.708(4) 0.301(4) 0.865(6)
H20 H 0.687(4) 0.260(4) 0.722(6)
I1 I 0.927111(12) -0.168542(12) 0.982413(17)
I2 I 0.57932(11) 0.13072(17) 0.5475(3)
N2? N 0.7130(13) -0.0731(6) 0.6766(10)
I3? I 0.5724(2) 0.1434(3) 0.5276(5)
H9? H 0.65126 -0.03318 0.63210
loop_
_geom_bond_atom_site_label_1
_geom_bond_atom_site_label_2
_geom_bond_site_symmetry_1
_geom_bond_site_symmetry_2
N1 C1 1_555 1_555
C1 C2 1_555 1_555
N3 C2 1_555 1_555
C2 C3 1_555 1_555
C3 C4 1_555 1_555
C4 C5 1_555 1_555
C5 C6 1_555 1_555
C6 N3 1_555 1_555
C7 N1 1_555 1_555
N4 C8 1_555 1_555
C8 C7 1_555 1_555
C9 C8 1_555 1_555
C10 C9 1_555 1_555
C11 C10 1_555 1_555
C12 N4 1_555 1_555
O1 H17 1_555 1_555
O2 H19 1_555 1_555
H1 N1 1_555 1_555
H2 C1 1_555 1_555
H3 C1 1_555 1_555
H4 N3 1_555 1_555
H5 C3 1_555 1_555
H6 C4 1_555 1_555
H7 C5 1_555 1_555
H8 C6 1_555 1_555
H10 C7 1_555 1_555
H11 C7 1_555 1_555
H12 N4 1_555 1_555
H13 C9 1_555 1_555
H14 C10 1_555 1_555
H15 C11 1_555 1_555
H16 C12 1_555 1_555
H18 O1 1_555 1_555
H20 O2 1_555 1_555
C11 C12 1_555 1_555

#END
