
#######################################################################
#
#                 Cambridge Crystallographic Data Centre
#                                CCDC 
#
#######################################################################
#
# If this CIF has been generated from an entry in the Cambridge 
# Structural Database, then it will include bibliographic, chemical, 
# crystal, experimental, refinement or atomic coordinate data resulting 
# from the CCDC's data processing and validation procedures.
#
#######################################################################

data_PEJZEM
_chemical_formula_moiety         'C9 H13 B1 O3'
_chemical_name_systematic        '(4-propoxyphenyl)boronic acid'
_symmetry_cell_setting           monoclinic
_symmetry_space_group_name_H-M   'P 21/c'
_symmetry_Int_Tables_number      14
_space_group_name_Hall           '-P 2ybc'
loop_
_symmetry_equiv_pos_site_id
_symmetry_equiv_pos_as_xyz
1 x,y,z
2 -x,1/2+y,1/2-z
3 -x,-y,-z
4 x,1/2-y,1/2+z
_cell_length_a                   16.193(4)
_cell_length_b                   24.868(6)
_cell_length_c                   9.919(2)
_cell_angle_alpha                90
_cell_angle_beta                 94.666(4)
_cell_angle_gamma                90
_cell_volume                     3981.02
_exptl_crystal_colour            colorless
_exptl_crystal_description       block
_cell_formula_units_Z            16
loop_
_atom_site_label
_atom_site_type_symbol
_atom_site_fract_x
_atom_site_fract_y
_atom_site_fract_z
B1 B 1.04787(19) 0.24741(13) 0.7184(3)
C1 C 0.96422(16) 0.21702(11) 0.7042(2)
C2 C 0.90752(18) 0.22144(13) 0.8014(3)
H1 H 0.9220 0.2418 0.8784
C3 C 0.83079(18) 0.19709(13) 0.7889(3)
H2 H 0.7938 0.2020 0.8548
C4 C 0.80944(17) 0.16534(13) 0.6775(3)
C5 C 0.86371(19) 0.15983(14) 0.5799(3)
H3 H 0.8493 0.1388 0.5041
C6 C 0.93939(18) 0.18512(12) 0.5926(3)
H4 H 0.9752 0.1808 0.5246
C7 C 0.67685(19) 0.14265(15) 0.7524(3)
H5 H 0.6611 0.1799 0.7630
H6 H 0.7002 0.1294 0.8393
C8 C 0.6019(2) 0.1096(2) 0.7040(4)
H7 H 0.5766 0.1250 0.6208
H8 H 0.6194 0.0733 0.6845
C9 C 0.5403(3) 0.1075(2) 0.8044(5)
H9 H 0.5593 0.0837 0.8766
H10 H 0.4886 0.0946 0.7623
H11 H 0.5326 0.1429 0.8402
O1 O 0.73580(13) 0.13856(11) 0.6560(2)
O2 O 1.09502(11) 0.25766(9) 0.61264(17)
H12 H 1.0699 0.2480 0.5417
O3 O 1.07769(12) 0.26710(9) 0.84102(17)
H13 H 1.1229 0.2812 0.8341
B2 B 0.4582(2) 0.25333(14) 0.7312(3)
C10 C 0.54196(16) 0.28279(11) 0.7288(2)
C11 C 0.59197(19) 0.27764(14) 0.6224(3)
H14 H 0.5720 0.2583 0.5465
C12 C 0.67008(19) 0.29993(14) 0.6243(3)
H15 H 0.7021 0.2949 0.5517
C13 C 0.70016(18) 0.32961(13) 0.7341(3)
C14 C 0.65158(19) 0.33711(13) 0.8398(3)
H16 H 0.6713 0.3577 0.9138
C15 C 0.57418(18) 0.31443(12) 0.8371(3)
H17 H 0.5422 0.3203 0.9095
C16 C 0.8301(2) 0.34613(17) 0.6412(4)
H18 H 0.8077 0.3658 0.5620
H19 H 0.8332 0.3084 0.6173
C17 C 0.9160(3) 0.3670(2) 0.6864(5)
H20 H 0.9371 0.3474 0.7664
H21 H 0.9526 0.3599 0.6158
C18 C 0.9181(3) 0.4226(2) 0.7157(6)
H22 H 0.8907 0.4421 0.6414
H23 H 0.9746 0.4344 0.7296
H24 H 0.8904 0.4293 0.7961
O4 O 0.77738(14) 0.35268(10) 0.7480(2)
O5 O 0.41623(12) 0.23114(9) 0.61948(18)
H25 H 0.4376 0.2408 0.5514
O6 O 0.42295(12) 0.24616(9) 0.85081(17)
H26 H 0.3796 0.2293 0.8370
B3 B 0.26574(19) 0.33883(13) 0.7327(3)
C19 C 0.34236(16) 0.37648(11) 0.7464(2)
C20 C 0.39210(17) 0.38531(12) 0.6408(3)
H27 H 0.3788 0.3681 0.5586
C21 C 0.46069(18) 0.41867(13) 0.6530(3)
H28 H 0.4926 0.4236 0.5802
C22 C 0.48148(18) 0.44464(12) 0.7741(3)
C23 C 0.43262(19) 0.43737(13) 0.8808(3)
H29 H 0.4456 0.4551 0.9623
C24 C 0.36496(18) 0.40397(12) 0.8665(3)
H30 H 0.3330 0.3995 0.9395
C25 C 0.6070(2) 0.48163(15) 0.7004(4)
H31 H 0.5826 0.4997 0.6201
H32 H 0.6251 0.4461 0.6749
C26 C 0.6794(2) 0.51369(16) 0.7634(4)
H33 H 0.6598 0.5489 0.7886
H34 H 0.7191 0.5189 0.6965
C27 C 0.7231(3) 0.48724(19) 0.8875(5)
H35 H 0.6852 0.4840 0.9566
H36 H 0.7696 0.5088 0.9203
H37 H 0.7421 0.4522 0.8639
O7 O 0.54820(13) 0.47755(9) 0.7991(2)
O8 O 0.22232(12) 0.32371(9) 0.83800(17)
H38 H 0.2455 0.3351 0.9089
O9 O 0.23690(12) 0.31962(9) 0.60719(17)
H39 H 0.2003 0.2974 0.6158
B4 B 0.24151(19) 0.33972(13) 0.2264(3)
C28 C 0.16202(16) 0.37484(11) 0.2259(3)
C29 C 0.12824(19) 0.40000(13) 0.1072(3)
H40 H 0.1541 0.3953 0.0278
C30 C 0.0587(2) 0.43122(14) 0.1045(3)
H41 H 0.0388 0.4479 0.0244
C31 C 0.01816(19) 0.43805(13) 0.2189(3)
C32 C 0.0493(2) 0.41472(14) 0.3379(3)
H42 H 0.0228 0.4196 0.4166
C33 C 0.12056(19) 0.38379(13) 0.3398(3)
H43 H 0.1412 0.3685 0.4211
C34 C -0.1020(2) 0.47038(16) 0.3146(4)
H44 H -0.0721 0.4880 0.3910
H45 H -0.1154 0.4341 0.3414
C35 C -0.1799(2) 0.5008(2) 0.2733(5)
H46 H -0.2089 0.4836 0.1954
H47 H -0.1663 0.5372 0.2481
C36 C -0.2352(3) 0.5021(2) 0.3895(5)
H48 H -0.2396 0.4665 0.4259
H49 H -0.2893 0.5147 0.3574
H50 H -0.2118 0.5258 0.4588
O10 O -0.05260(15) 0.46875(10) 0.2046(3)
O11 O 0.28075(12) 0.31694(9) 0.33929(17)
H51 H 0.2580 0.3265 0.4062
O12 O 0.27542(12) 0.32990(9) 0.10758(17)
H52 H 0.3178 0.3120 0.1223
loop_
_geom_bond_atom_site_label_1
_geom_bond_atom_site_label_2
_geom_bond_site_symmetry_1
_geom_bond_site_symmetry_2
B1 C1 1_555 1_555
C1 C2 1_555 1_555
C2 H1 1_555 1_555
C3 C2 1_555 1_555
H2 C3 1_555 1_555
C4 C3 1_555 1_555
C5 C4 1_555 1_555
H3 C5 1_555 1_555
C6 C1 1_555 1_555
H4 C6 1_555 1_555
C7 H5 1_555 1_555
H6 C7 1_555 1_555
C8 C7 1_555 1_555
H7 C8 1_555 1_555
H8 C8 1_555 1_555
C9 C8 1_555 1_555
H9 C9 1_555 1_555
H10 C9 1_555 1_555
H11 C9 1_555 1_555
O1 C4 1_555 1_555
O2 B1 1_555 1_555
H12 O2 1_555 1_555
O3 B1 1_555 1_555
H13 O3 1_555 1_555
B2 C10 1_555 1_555
C10 C11 1_555 1_555
C11 H14 1_555 1_555
C12 C11 1_555 1_555
H15 C12 1_555 1_555
C13 C12 1_555 1_555
C14 C13 1_555 1_555
H16 C14 1_555 1_555
C15 C10 1_555 1_555
H17 C15 1_555 1_555
C16 H18 1_555 1_555
H19 C16 1_555 1_555
C17 C16 1_555 1_555
H20 C17 1_555 1_555
H21 C17 1_555 1_555
C18 C17 1_555 1_555
H22 C18 1_555 1_555
H23 C18 1_555 1_555
H24 C18 1_555 1_555
O4 C13 1_555 1_555
O5 B2 1_555 1_555
H25 O5 1_555 1_555
O6 B2 1_555 1_555
H26 O6 1_555 1_555
B3 C19 1_555 1_555
C19 C20 1_555 1_555
C20 H27 1_555 1_555
C21 C20 1_555 1_555
H28 C21 1_555 1_555
C22 C21 1_555 1_555
C23 C22 1_555 1_555
H29 C23 1_555 1_555
C24 C19 1_555 1_555
H30 C24 1_555 1_555
C25 H31 1_555 1_555
H32 C25 1_555 1_555
C26 C25 1_555 1_555
H33 C26 1_555 1_555
H34 C26 1_555 1_555
C27 C26 1_555 1_555
H35 C27 1_555 1_555
H36 C27 1_555 1_555
H37 C27 1_555 1_555
O7 C22 1_555 1_555
O8 B3 1_555 1_555
H38 O8 1_555 1_555
O9 B3 1_555 1_555
H39 O9 1_555 1_555
B4 C28 1_555 1_555
C28 C29 1_555 1_555
C29 H40 1_555 1_555
C30 C29 1_555 1_555
H41 C30 1_555 1_555
C31 C30 1_555 1_555
C32 C31 1_555 1_555
H42 C32 1_555 1_555
C33 C28 1_555 1_555
H43 C33 1_555 1_555
C34 H44 1_555 1_555
H45 C34 1_555 1_555
C35 C34 1_555 1_555
H46 C35 1_555 1_555
H47 C35 1_555 1_555
C36 C35 1_555 1_555
H48 C36 1_555 1_555
H49 C36 1_555 1_555
H50 C36 1_555 1_555
O10 C31 1_555 1_555
O11 B4 1_555 1_555
H51 O11 1_555 1_555
O12 B4 1_555 1_555
H52 O12 1_555 1_555
C5 C6 1_555 1_555
C7 O1 1_555 1_555
C14 C15 1_555 1_555
C16 O4 1_555 1_555
C23 C24 1_555 1_555
C25 O7 1_555 1_555
C32 C33 1_555 1_555
C34 O10 1_555 1_555

#END
