
#######################################################################
#
#                 Cambridge Crystallographic Data Centre
#                                CCDC 
#
#######################################################################
#
# If this CIF has been generated from an entry in the Cambridge 
# Structural Database, then it will include bibliographic, chemical, 
# crystal, experimental, refinement or atomic coordinate data resulting 
# from the CCDC's data processing and validation procedures.
#
#######################################################################

data_PEJZEK
_chemical_formula_moiety         'C12 H16 N3 3+,3(C1 F3 O3 S1 1-),H2 O1'
_chemical_name_systematic        
'bis(pyridinium-2-ylmethyl)ammonium tris(trifluoromethanesulfonate) monohydrate'
_symmetry_cell_setting           monoclinic
_symmetry_space_group_name_H-M   'P 21/c'
_symmetry_Int_Tables_number      14
_space_group_name_Hall           '-P 2ybc'
loop_
_symmetry_equiv_pos_site_id
_symmetry_equiv_pos_as_xyz
1 x,y,z
2 -x,1/2+y,1/2-z
3 -x,-y,-z
4 x,1/2-y,1/2+z
_cell_length_a                   11.4026(7)
_cell_length_b                   15.2493(9)
_cell_length_c                   14.5991(8)
_cell_angle_alpha                90
_cell_angle_beta                 93.7050(10)
_cell_angle_gamma                90
_cell_volume                     2533.21
_exptl_crystal_colour            colorless
_exptl_crystal_description       prism
_cell_formula_units_Z            4
loop_
_atom_site_label
_atom_site_type_symbol
_atom_site_fract_x
_atom_site_fract_y
_atom_site_fract_z
N1 N 0.90657(11) 0.32575(8) 0.18334(9)
C1 C 0.80800(14) 0.26123(10) 0.16981(12)
N2 N 0.67080(13) 0.35066(9) 0.07177(9)
C2 C 0.68839(14) 0.29881(10) 0.14622(10)
C3 C 0.59264(15) 0.27313(10) 0.19204(12)
C4 C 0.48127(15) 0.29860(11) 0.16012(13)
C5 C 0.46647(17) 0.35093(12) 0.08282(13)
C6 C 0.56339(17) 0.37707(12) 0.04025(13)
C7 C 1.01862(14) 0.27875(10) 0.21351(10)
N3 N 1.05269(11) 0.13292(8) 0.15202(9)
C8 C 1.06034(12) 0.22043(9) 0.13923(10)
C9 C 1.10730(15) 0.25025(11) 0.06027(11)
C10 C 1.14363(15) 0.18973(11) -0.00363(11)
C11 C 1.13365(14) 0.10099(11) 0.01224(11)
C12 C 1.08788(14) 0.07337(10) 0.09217(11)
H1 H 0.8863(18) 0.3614(14) 0.2309(15)
H2 H 0.9175(16) 0.3572(12) 0.1302(13)
H3 H 0.7295(18) 0.3670(13) 0.0437(14)
H4 H 0.8040(16) 0.2331(12) 0.2260(13)
H5 H 0.8272(16) 0.2218(12) 0.1205(13)
H6 H 0.6068(15) 0.2390(11) 0.2452(12)
H7 H 0.4147(16) 0.2807(12) 0.1935(12)
H8 H 0.3965(19) 0.3660(13) 0.0588(14)
H9 H 0.5601(18) 0.4088(13) -0.0122(15)
H10 H 1.0219(17) 0.1164(13) 0.1998(14)
H11 H 1.0034(14) 0.2463(10) 0.2683(11)
H12 H 1.0758(15) 0.3195(11) 0.2316(11)
H13 H 1.1131(15) 0.3087(12) 0.0503(12)
H14 H 1.1759(17) 0.2126(13) -0.0599(13)
H15 H 1.1585(15) 0.0619(11) -0.0302(13)
H16 H 1.0809(14) 0.0132(11) 0.1125(11)
O1 O 0.87684(11) 0.39669(9) 0.00014(8)
H17 H 0.876(2) 0.4453(17) -0.0105(17)
H18 H 0.883(2) 0.3706(15) -0.0467(17)
S1 S 0.77053(4) 0.15639(3) -0.07903(3)
O2 O 0.80123(11) 0.11341(7) -0.16216(8)
O3 O 0.83954(11) 0.12915(9) 0.00186(8)
O4 O 0.75093(12) 0.24929(8) -0.08866(9)
C13 C 0.62502(15) 0.11280(11) -0.05989(11)
F1 F 0.62819(11) 0.02636(7) -0.04927(9)
F2 F 0.58473(10) 0.14696(8) 0.01585(7)
F3 F 0.54828(10) 0.13082(9) -0.12895(8)
S2 S 0.77594(3) 0.57875(2) 0.14263(3)
O5 O 0.84523(10) 0.50981(7) 0.18683(8)
O6 O 0.82412(11) 0.66542(7) 0.15458(9)
O7 O 0.72851(12) 0.55761(8) 0.05142(8)
C14 C 0.64584(15) 0.58355(11) 0.20900(12)
F4 F 0.67302(10) 0.60723(8) 0.29538(7)
F5 F 0.56879(10) 0.64231(7) 0.17293(8)
F6 F 0.59144(10) 0.50641(7) 0.21044(9)
S3 S 0.86900(3) 0.00705(2) 0.28612(3)
O8 O 0.90057(9) 0.09877(7) 0.29813(7)
O9 O 0.91143(10) -0.03321(7) 0.20548(8)
O10 O 0.88289(11) -0.04452(7) 0.36889(8)
C15 C 0.71085(16) 0.01165(12) 0.26235(14)
F7 F 0.68238(10) 0.06250(8) 0.19023(9)
F8 F 0.66717(11) -0.06760(8) 0.24454(10)
F9 F 0.65873(10) 0.04435(9) 0.33414(9)
loop_
_geom_bond_atom_site_label_1
_geom_bond_atom_site_label_2
_geom_bond_site_symmetry_1
_geom_bond_site_symmetry_2
N1 C1 1_555 1_555
C1 C2 1_555 1_555
N2 C2 1_555 1_555
C2 C3 1_555 1_555
C3 C4 1_555 1_555
C4 C5 1_555 1_555
C5 C6 1_555 1_555
C6 N2 1_555 1_555
C7 N1 1_555 1_555
N3 C8 1_555 1_555
C8 C7 1_555 1_555
C9 C8 1_555 1_555
C10 C9 1_555 1_555
C11 C10 1_555 1_555
C12 N3 1_555 1_555
O1 H17 1_555 1_555
S1 O2 1_555 1_555
O3 S1 1_555 1_555
O4 S1 1_555 1_555
C13 S1 1_555 1_555
F1 C13 1_555 1_555
F2 C13 1_555 1_555
F3 C13 1_555 1_555
S2 O5 1_555 1_555
O6 S2 1_555 1_555
O7 S2 1_555 1_555
C14 S2 1_555 1_555
F4 C14 1_555 1_555
F5 C14 1_555 1_555
F6 C14 1_555 1_555
S3 O8 1_555 1_555
O9 S3 1_555 1_555
O10 S3 1_555 1_555
C15 S3 1_555 1_555
F7 C15 1_555 1_555
F8 C15 1_555 1_555
F9 C15 1_555 1_555
H1 N1 1_555 1_555
H2 N1 1_555 1_555
H3 N2 1_555 1_555
H4 C1 1_555 1_555
H5 C1 1_555 1_555
H6 C3 1_555 1_555
H7 C4 1_555 1_555
H8 C5 1_555 1_555
H9 C6 1_555 1_555
H10 N3 1_555 1_555
H11 C7 1_555 1_555
H12 C7 1_555 1_555
H13 C9 1_555 1_555
H14 C10 1_555 1_555
H15 C11 1_555 1_555
H16 C12 1_555 1_555
H18 O1 1_555 1_555
C11 C12 1_555 1_555

#END
