
#######################################################################
#
#                 Cambridge Crystallographic Data Centre
#                                CCDC 
#
#######################################################################
#
# If this CIF has been generated from an entry in the Cambridge 
# Structural Database, then it will include bibliographic, chemical, 
# crystal, experimental, refinement or atomic coordinate data resulting 
# from the CCDC's data processing and validation procedures.
#
#######################################################################

data_PEJZIQ
_chemical_formula_moiety         'C10 H15 B1 O3'
_chemical_name_systematic        '(4-butoxyphenyl)boronic acid'
_symmetry_cell_setting           triclinic
_symmetry_space_group_name_H-M   'P -1'
_symmetry_Int_Tables_number      2
_space_group_name_Hall           '-P 1'
loop_
_symmetry_equiv_pos_site_id
_symmetry_equiv_pos_as_xyz
1 x,y,z
2 -x,-y,-z
_cell_length_a                   5.0709(3)
_cell_length_b                   7.6864(7)
_cell_length_c                   13.7993(11)
_cell_angle_alpha                87.907(7)
_cell_angle_beta                 85.499(6)
_cell_angle_gamma                74.195(7)
_cell_volume                     515.86
_cell_formula_units_Z            2
loop_
_atom_site_label
_atom_site_type_symbol
_atom_site_fract_x
_atom_site_fract_y
_atom_site_fract_z
O1 O 0.25352(19) 0.59451(14) 0.42172(7)
H1 H 0.1164 0.6079 0.3914
O2 O 0.72744(19) 0.55439(15) 0.39398(7)
H2 H 0.7165 0.5135 0.4494
O3 O 0.36748(19) 0.82150(14) -0.04147(7)
C1 C 0.4459(3) 0.6565(2) 0.24911(10)
C2 C 0.1810(3) 0.8208(2) 0.11867(10)
H3 H 0.0174 0.8961 0.0983
C3 C 0.6679(3) 0.59955(19) 0.18023(10)
H4 H 0.8327 0.5259 0.2006
C4 C 0.4073(3) 0.76126(19) 0.05187(10)
C5 C 0.4951(3) 0.8532(2) -0.20861(10)
H5 H 0.4310 0.9834 -0.2019
H6 H 0.3409 0.8103 -0.2246
C6 C 0.2019(3) 0.76727(19) 0.21501(10)
H7 H 0.0493 0.8059 0.2587
C7 C 0.6514(3) 0.6489(2) 0.08276(10)
H8 H 0.8019 0.6073 0.0386
C8 C 0.5953(3) 0.7687(2) -0.11305(10)
H9 H 0.6560 0.6381 -0.1179
H10 H 0.7481 0.8114 -0.0954
C9 C 0.7193(3) 0.8082(2) -0.29112(10)
H11 H 0.7915 0.6779 -0.2949
H12 H 0.8684 0.8577 -0.2769
C10 C 0.6156(4) 0.8828(2) -0.38900(11)
H13 H 0.7633 0.8504 -0.4386
H14 H 0.5488 1.0122 -0.3862
H15 H 0.4696 0.8330 -0.4039
B1 B 0.4742(3) 0.6002(2) 0.35814(12)
loop_
_geom_bond_atom_site_label_1
_geom_bond_atom_site_label_2
_geom_bond_site_symmetry_1
_geom_bond_site_symmetry_2
O1 H1 1_555 1_555
O2 H2 1_555 1_555
O3 C4 1_555 1_555
C1 C3 1_555 1_555
C2 H3 1_555 1_555
C3 H4 1_555 1_555
C4 C2 1_555 1_555
C5 H5 1_555 1_555
H6 C5 1_555 1_555
C6 C1 1_555 1_555
H7 C6 1_555 1_555
C7 C3 1_555 1_555
H8 C7 1_555 1_555
C8 O3 1_555 1_555
H9 C8 1_555 1_555
H10 C8 1_555 1_555
C9 C5 1_555 1_555
H11 C9 1_555 1_555
H12 C9 1_555 1_555
C10 C9 1_555 1_555
H13 C10 1_555 1_555
H14 C10 1_555 1_555
H15 C10 1_555 1_555
B1 O1 1_555 1_555
O2 B1 1_555 1_555
C1 B1 1_555 1_555
C2 C6 1_555 1_555
C4 C7 1_555 1_555
C5 C8 1_555 1_555

#END
