
#######################################################################
#
#                 Cambridge Crystallographic Data Centre
#                                CCDC 
#
#######################################################################
#
# If this CIF has been generated from an entry in the Cambridge 
# Structural Database, then it will include bibliographic, chemical, 
# crystal, experimental, refinement or atomic coordinate data resulting 
# from the CCDC's data processing and validation procedures.
#
#######################################################################

data_PEKBOZ
_chemical_formula_moiety         'C13 H13 Br1 N2 O1'
_chemical_name_systematic        6-bromo-2-(morpholin-4-yl)quinoline
_symmetry_cell_setting           monoclinic
_symmetry_space_group_name_H-M   'P 21/c'
_symmetry_Int_Tables_number      14
_space_group_name_Hall           '-P 2ybc'
loop_
_symmetry_equiv_pos_site_id
_symmetry_equiv_pos_as_xyz
1 x,y,z
2 -x,1/2+y,1/2-z
3 -x,-y,-z
4 x,1/2-y,1/2+z
_cell_length_a                   9.6730(7)
_cell_length_b                   11.9750(8)
_cell_length_c                   10.6305(8)
_cell_angle_alpha                90
_cell_angle_beta                 96.144(2)
_cell_angle_gamma                90
_cell_volume                     1224.3
_exptl_crystal_colour            yellow
_exptl_crystal_description       block
_cell_formula_units_Z            4
loop_
_atom_site_label
_atom_site_type_symbol
_atom_site_fract_x
_atom_site_fract_y
_atom_site_fract_z
Br1 Br 0.69128(5) 0.53691(4) 0.02996(4)
O1 O 1.5453(3) 0.7070(3) 0.7556(3)
N1 N 1.1746(3) 0.5771(2) 0.4385(3)
N2 N 1.2891(3) 0.6648(3) 0.6122(3)
C1 C 1.1698(3) 0.6503(3) 0.5313(3)
C2 C 1.0479(4) 0.7139(3) 0.5461(4)
H1 H 1.0454 0.7613 0.6151
C3 C 0.9367(4) 0.7045(3) 0.4594(4)
H2 H 0.8573 0.7463 0.4680
C4 C 0.9395(3) 0.6321(3) 0.3560(3)
C5 C 0.8280(4) 0.6219(3) 0.2590(4)
H3 H 0.7484 0.6651 0.2607
C6 C 0.8386(4) 0.5480(3) 0.1632(4)
C7 C 0.9567(4) 0.4813(3) 0.1589(4)
H4 H 0.9613 0.4305 0.0932
C8 C 1.0648(4) 0.4912(3) 0.2513(4)
H5 H 1.1429 0.4463 0.2482
C9 C 1.0612(3) 0.5675(3) 0.3514(3)
C10 C 1.4056(4) 0.5888(3) 0.6107(4)
H6 H 1.4036 0.5553 0.5274
H7 H 1.3968 0.5293 0.6713
C11 C 1.5383(5) 0.6457(5) 0.6417(5)
H8 H 1.6123 0.5907 0.6484
H9 H 1.5538 0.6961 0.5732
C12 C 1.4363(5) 0.7842(4) 0.7496(5)
H10 H 1.4502 0.8389 0.6848
H11 H 1.4407 0.8234 0.8298
C13 C 1.2982(4) 0.7369(3) 0.7224(4)
H12 H 1.2309 0.7968 0.7079
H13 H 1.2753 0.6943 0.7950
loop_
_geom_bond_atom_site_label_1
_geom_bond_atom_site_label_2
_geom_bond_site_symmetry_1
_geom_bond_site_symmetry_2
Br1 C6 1_555 1_555
O1 C11 1_555 1_555
N1 C1 1_555 1_555
N2 C1 1_555 1_555
C1 C2 1_555 1_555
C2 H1 1_555 1_555
C3 C2 1_555 1_555
H2 C3 1_555 1_555
C4 C3 1_555 1_555
C5 C4 1_555 1_555
H3 C5 1_555 1_555
C6 C5 1_555 1_555
C7 C6 1_555 1_555
H4 C7 1_555 1_555
C8 C7 1_555 1_555
H5 C8 1_555 1_555
C9 N1 1_555 1_555
C10 N2 1_555 1_555
H6 C10 1_555 1_555
H7 C10 1_555 1_555
C11 C10 1_555 1_555
H8 C11 1_555 1_555
H9 C11 1_555 1_555
C12 O1 1_555 1_555
H10 C12 1_555 1_555
H11 C12 1_555 1_555
C13 N2 1_555 1_555
H12 C13 1_555 1_555
H13 C13 1_555 1_555
C4 C9 1_555 1_555
C8 C9 1_555 1_555
C12 C13 1_555 1_555

#END
