
#######################################################################
#
#                 Cambridge Crystallographic Data Centre
#                                CCDC 
#
#######################################################################
#
# If this CIF has been generated from an entry in the Cambridge 
# Structural Database, then it will include bibliographic, chemical, 
# crystal, experimental, refinement or atomic coordinate data resulting 
# from the CCDC's data processing and validation procedures.
#
#######################################################################

data_PEKBOX
_chemical_name_common            'bis(2-picolyl)ammonium bromide'
_chemical_formula_moiety         'C12 H14 N3 1+,Br1 1-'
_chemical_name_systematic        'bis(2-pyridylmethyl)ammonium bromide'
_symmetry_cell_setting           monoclinic
_symmetry_space_group_name_H-M   'P 21/c'
_symmetry_Int_Tables_number      14
_space_group_name_Hall           '-P 2ybc'
loop_
_symmetry_equiv_pos_site_id
_symmetry_equiv_pos_as_xyz
1 x,y,z
2 -x,1/2+y,1/2-z
3 -x,-y,-z
4 x,1/2-y,1/2+z
_cell_length_a                   14.1100(10)
_cell_length_b                   12.019(2)
_cell_length_c                   7.164(2)
_cell_angle_alpha                90
_cell_angle_beta                 93.150(3)
_cell_angle_gamma                90
_cell_volume                     1213.09
_exptl_crystal_colour            colorless
_exptl_crystal_description       plate
_cell_formula_units_Z            4
loop_
_atom_site_label
_atom_site_type_symbol
_atom_site_fract_x
_atom_site_fract_y
_atom_site_fract_z
N1 N 0.26518(17) 0.02849(18) 0.3443(3)
C1 C 0.1648(2) 0.0248(2) 0.4002(4)
N2 N 0.19162(17) -0.1732(2) 0.4206(3)
C2 C 0.12694(19) -0.0928(2) 0.3852(3)
C3 C 0.0311(2) -0.1137(2) 0.3476(4)
C4 C -0.0007(2) -0.2229(3) 0.3513(4)
C5 C 0.0648(2) -0.3071(2) 0.3905(4)
C6 C 0.1595(2) -0.2788(2) 0.4209(4)
C7 C 0.3178(2) 0.1269(2) 0.4210(4)
N3 N 0.44867(17) 0.03463(19) 0.2783(3)
C8 C 0.4197(2) 0.1248(2) 0.3700(4)
C9 C 0.4794(2) 0.2132(2) 0.4210(4)
C10 C 0.5732(2) 0.2073(3) 0.3777(4)
C11 C 0.6051(2) 0.1144(3) 0.2852(4)
C12 C 0.5406(2) 0.0312(2) 0.2370(4)
H1 H 0.268(3) 0.030(3) 0.219(5)
H2 H 0.302(3) -0.038(4) 0.383(6)
H3 H 0.128(2) 0.072(3) 0.319(5)
H4 H 0.162(2) 0.057(3) 0.524(5)
H5 H -0.013(2) -0.062(3) 0.313(5)
H6 H -0.067(3) -0.239(3) 0.331(5)
H7 H 0.043(3) -0.382(3) 0.398(6)
H8 H 0.205(2) -0.327(3) 0.442(5)
H9 H 0.314(2) 0.126(3) 0.554(5)
H10 H 0.288(2) 0.191(3) 0.367(5)
H11 H 0.454(3) 0.272(3) 0.491(5)
H12 H 0.613(3) 0.260(4) 0.405(6)
H13 H 0.664(3) 0.103(3) 0.251(5)
H14 H 0.562(2) -0.032(3) 0.170(5)
Br1 Br 0.21458(2) 0.08800(2) -0.08413(4)
loop_
_geom_bond_atom_site_label_1
_geom_bond_atom_site_label_2
_geom_bond_site_symmetry_1
_geom_bond_site_symmetry_2
N1 C1 1_555 1_555
C1 C2 1_555 1_555
N2 C2 1_555 1_555
C2 C3 1_555 1_555
C3 C4 1_555 1_555
C4 C5 1_555 1_555
C5 C6 1_555 1_555
C6 N2 1_555 1_555
C7 N1 1_555 1_555
N3 C8 1_555 1_555
C8 C7 1_555 1_555
C9 C8 1_555 1_555
C10 C9 1_555 1_555
C11 C10 1_555 1_555
C12 N3 1_555 1_555
H1 N1 1_555 1_555
H2 N1 1_555 1_555
H3 C1 1_555 1_555
H4 C1 1_555 1_555
H5 C3 1_555 1_555
H6 C4 1_555 1_555
H7 C5 1_555 1_555
H8 C6 1_555 1_555
H9 C7 1_555 1_555
H10 C7 1_555 1_555
H11 C9 1_555 1_555
H12 C10 1_555 1_555
H13 C11 1_555 1_555
H14 C12 1_555 1_555
C11 C12 1_555 1_555

#END
