
#######################################################################
#
#                 Cambridge Crystallographic Data Centre
#                                CCDC 
#
#######################################################################
#
# If this CIF has been generated from an entry in the Cambridge 
# Structural Database, then it will include bibliographic, chemical, 
# crystal, experimental, refinement or atomic coordinate data resulting 
# from the CCDC's data processing and validation procedures.
#
#######################################################################

data_PEKBEM
_chemical_formula_moiety         'C18 H15 N1 O6'
_chemical_name_systematic        
7-Acetyl-8,10-dihydroxy-3,9,10b-trimethylbenzofuro(2,3-g)-1,2-benzisoxazol-4(10bH)-one
_symmetry_cell_setting           triclinic
_symmetry_space_group_name_H-M   'P 1'
_symmetry_Int_Tables_number      1
_space_group_name_Hall           'P 1'
loop_
_symmetry_equiv_pos_site_id
_symmetry_equiv_pos_as_xyz
1 x,y,z
_cell_length_a                   9.987(3)
_cell_length_b                   11.393(3)
_cell_length_c                   7.869(1)
_cell_angle_alpha                102.38(2)
_cell_angle_beta                 108.72(2)
_cell_angle_gamma                89.76(2)
_cell_volume                     826.243
_chemical_melting_point          '255-256 deg.C'
_cell_formula_units_Z            2
loop_
_atom_site_label
_atom_site_type_symbol
_atom_site_fract_x
_atom_site_fract_y
_atom_site_fract_z
C1 C 0.3769(4) 0.2335(4) -0.2274(5)
C2 C 0.3900(4) 0.3469(4) -0.1296(6)
C3 C 0.4843(5) 0.4411(5) -0.1388(7)
C4 C 0.5790(5) 0.3973(4) -0.2471(7)
C5 C 0.5642(4) 0.2839(4) -0.3344(6)
O1 O 0.6683(3) 0.2280(3) -0.3986(4)
C6 C 0.6493(4) 0.1045(4) -0.4073(5)
C7 C 0.7439(4) 0.0200(4) -0.4434(5)
C8 C 0.6994(4) -0.1002(4) -0.4482(5)
C9 C 0.5735(4) -0.1320(4) -0.4214(5)
C10 C 0.4842(4) -0.0412(4) -0.3918(5)
C11 C 0.5246(4) 0.0773(4) -0.3794(5)
C12 C 0.4454(4) 0.1890(4) -0.3707(5)
O2 O 0.2857(3) 0.1663(3) -0.1918(4)
C13 C 0.2968(4) 0.3487(5) -0.0247(6)
C14 C 0.2671(6) 0.4507(6) 0.1102(8)
N1 N 0.2346(4) 0.2418(4) -0.0586(5)
O3 O 0.4918(4) 0.5449(4) -0.0510(7)
C15 C 0.8741(4) 0.0458(4) -0.4786(5)
O4 O 0.9469(3) -0.0392(3) -0.5165(4)
C16 C 0.9233(4) 0.1712(5) -0.4702(6)
O5 O 0.7822(3) -0.1908(3) -0.4810(4)
C17 C 0.5350(5) -0.2626(4) -0.4362(7)
O6 O 0.3563(3) -0.0598(3) -0.3761(4)
C18 C 0.3308(5) 0.1838(5) -0.5642(7)
H1 H 0.6531 0.4535 -0.2534
H2 H 0.3264 0.5290 0.1193
H3 H 0.1587 0.4652 0.0660
H4 H 0.2954 0.4295 0.2401
H5 H 1.0187 0.1698 -0.4998
H6 H 0.8462 0.2075 -0.5672
H7 H 0.9397 0.2245 -0.3377
H8 H 0.8676 -0.1692 -0.4992
H9 H 0.6171 -0.3150 -0.4584
H10 H 0.5201 -0.2723 -0.3136
H11 H 0.4410 -0.2914 -0.5469
H12 H 0.3286 -0.1411 -0.3846
H13 H 0.2494 0.1182 -0.5879
H14 H 0.2884 0.2682 -0.5665
H15 H 0.3781 0.1616 -0.6673
C19 C -0.0144(4) -0.3206(4) -0.1362(5)
C20 C 0.0661(4) -0.3356(4) -0.2464(5)
C21 C 0.1525(4) -0.2387(4) -0.2600(5)
C22 C 0.1361(4) -0.1183(4) -0.1613(5)
C23 C 0.0518(4) -0.1081(4) -0.0582(5)
O7 O 0.0000 0.0000 0.0000
C24 C -0.1262(4) -0.0277(4) 0.0281(5)
C25 C -0.2226(4) 0.0576(4) 0.0594(5)
C26 C -0.3452(4) 0.0044(4) 0.0787(5)
C27 C -0.3678(4) -0.1165(5) 0.0712(5)
C28 C -0.2646(4) -0.1943(4) 0.0416(5)
C29 C -0.1447(4) -0.1485(4) 0.0162(5)
C30 C -0.0121(4) -0.2067(4) -0.0011(5)
O8 O -0.0785(3) -0.4235(3) -0.1441(5)
C31 C 0.0426(5) -0.4620(4) -0.3341(7)
C32 C 0.1004(6) -0.5283(6) -0.4762(8)
N2 N -0.0433(5) -0.5158(4) -0.2768(7)
O9 O 0.2276(3) -0.2570(3) -0.3617(4)
C33 C -0.2048(5) 0.1846(4) 0.0697(6)
O10 O -0.3006(4) 0.2513(4) 0.0962(6)
C34 C -0.0802(6) 0.2406(5) 0.0473(7)
O11 O -0.4457(3) 0.0789(4) 0.1127(5)
C35 C -0.5001(5) -0.1636(6) 0.0943(6)
O12 O -0.2726(3) -0.3132(3) 0.0343(5)
C36 C 0.0856(5) -0.2205(5) 0.1924(6)
H16 H 0.1866 -0.0456 -0.1708
H17 H 0.1672 -0.4691 -0.5032
H18 H 0.1583 -0.5986 -0.4283
H19 H 0.0166 -0.5642 -0.5976
H20 H -0.0904 0.3336 0.0602
H21 H 0.0121 0.2259 0.1492
H22 H -0.0738 0.2021 -0.0834
H23 H -0.4302 0.1620 0.1179
H24 H -0.5641 -0.0922 0.1150
H25 H -0.5562 -0.2282 -0.0246
H26 H -0.4723 -0.2032 0.2086
H27 H -0.3542 -0.3444 0.0516
H28 H 0.0411 -0.2891 0.2321
H29 H 0.1863 -0.2427 0.1859
H30 H 0.0950 -0.1390 0.2892
loop_
_geom_bond_atom_site_label_1
_geom_bond_atom_site_label_2
_geom_bond_site_symmetry_1
_geom_bond_site_symmetry_2
C1 C2 1_555 1_555
C2 C3 1_555 1_555
C3 C4 1_555 1_555
C4 C5 1_555 1_555
C5 O1 1_555 1_555
O1 C6 1_555 1_555
C6 C7 1_555 1_555
C7 C8 1_555 1_555
C8 C9 1_555 1_555
C9 C10 1_555 1_555
C10 C11 1_555 1_555
C11 C6 1_555 1_555
C12 C1 1_555 1_555
O2 C1 1_555 1_555
C13 C2 1_555 1_555
C14 C13 1_555 1_555
N1 O2 1_555 1_555
O3 C3 1_555 1_555
C15 C7 1_555 1_555
O4 C15 1_555 1_555
C16 C15 1_555 1_555
O5 C8 1_555 1_555
C17 C9 1_555 1_555
O6 C10 1_555 1_555
C18 C12 1_555 1_555
C19 C20 1_555 1_555
C20 C21 1_555 1_555
C21 C22 1_555 1_555
C22 C23 1_555 1_555
C23 O7 1_555 1_555
O7 C24 1_555 1_555
C24 C25 1_555 1_555
C25 C26 1_555 1_555
C26 C27 1_555 1_555
C27 C28 1_555 1_555
C28 C29 1_555 1_555
C29 C24 1_555 1_555
C30 C19 1_555 1_555
O8 C19 1_555 1_555
C31 C20 1_555 1_555
C32 C31 1_555 1_555
N2 O8 1_555 1_555
O9 C21 1_555 1_555
C33 C25 1_555 1_555
O10 C33 1_555 1_555
C34 C33 1_555 1_555
O11 C26 1_555 1_555
C35 C27 1_555 1_555
O12 C28 1_555 1_555
C36 C30 1_555 1_555
H1 C4 1_555 1_555
H2 C14 1_555 1_555
H3 C14 1_555 1_555
H4 C14 1_555 1_555
H5 C16 1_555 1_555
H6 C16 1_555 1_555
H7 C16 1_555 1_555
H8 O5 1_555 1_555
H9 C17 1_555 1_555
H10 C17 1_555 1_555
H11 C17 1_555 1_555
H12 O6 1_555 1_555
H13 C18 1_555 1_555
H14 C18 1_555 1_555
H15 C18 1_555 1_555
H16 C22 1_555 1_555
H17 C32 1_555 1_555
H18 C32 1_555 1_555
H19 C32 1_555 1_555
H20 C34 1_555 1_555
H21 C34 1_555 1_555
H22 C34 1_555 1_555
H23 O11 1_555 1_555
H24 C35 1_555 1_555
H25 C35 1_555 1_555
H26 C35 1_555 1_555
H27 O12 1_555 1_555
H28 C36 1_555 1_555
H29 C36 1_555 1_555
H30 C36 1_555 1_555
C5 C12 1_555 1_555
C11 C12 1_555 1_555
C13 N1 1_555 1_555
C23 C30 1_555 1_555
C29 C30 1_555 1_555
C31 N2 1_555 1_555

#END
