
#######################################################################
#
#                 Cambridge Crystallographic Data Centre
#                                CCDC 
#
#######################################################################
#
# If this CIF has been generated from an entry in the Cambridge 
# Structural Database, then it will include bibliographic, chemical, 
# crystal, experimental, refinement or atomic coordinate data resulting 
# from the CCDC's data processing and validation procedures.
#
#######################################################################

data_PEKCIS
_chemical_name_common            '2-picolylammonium chloride'
_chemical_formula_moiety         'C6 H10 N2 2+,2(Cl1 1-)'
_chemical_name_systematic        '(2-pyridylmethyl)ammonium chloride'
_symmetry_cell_setting           monoclinic
_symmetry_space_group_name_H-M   'P 21/n'
_symmetry_Int_Tables_number      14
_space_group_name_Hall           '-P 2yn'
loop_
_symmetry_equiv_pos_site_id
_symmetry_equiv_pos_as_xyz
1 x,y,z
2 1/2-x,1/2+y,1/2-z
3 -x,-y,-z
4 1/2+x,1/2-y,1/2+z
_cell_length_a                   10.153(2)
_cell_length_b                   6.3980(10)
_cell_length_c                   13.670(3)
_cell_angle_alpha                90
_cell_angle_beta                 103.516(3)
_cell_angle_gamma                90
_cell_volume                     863.395
_exptl_crystal_colour            colorless
_exptl_crystal_description       plate
_cell_formula_units_Z            4
loop_
_atom_site_label
_atom_site_type_symbol
_atom_site_fract_x
_atom_site_fract_y
_atom_site_fract_z
N1 N 0.28702(15) 0.7980(2) 0.12738(10)
C1 C 0.23971(16) 0.7927(2) 0.02675(12)
C2 C 0.34203(18) 0.8165(3) -0.03595(13)
N2 N 0.34582(15) 0.6294(2) -0.09992(11)
C3 C 0.10205(17) 0.7669(3) -0.01152(13)
C4 C 0.01683(18) 0.7454(3) 0.05379(15)
C5 C 0.0695(2) 0.7512(3) 0.15709(15)
C6 C 0.20685(19) 0.7791(3) 0.19224(13)
H1 H 0.374(2) 0.809(3) 0.1547(17)
H2 H 0.322(2) 0.939(4) -0.0800(15)
H3 H 0.429(2) 0.830(3) 0.0075(15)
H4 H 0.423(3) 0.636(4) -0.1206(18)
H5 H 0.278(2) 0.633(4) -0.1560(18)
H6 H 0.341(2) 0.507(3) -0.0634(16)
H7 H 0.0735(19) 0.768(3) -0.0809(15)
H8 H -0.078(2) 0.729(3) 0.0235(18)
H9 H 0.017(2) 0.737(3) 0.2048(17)
H10 H 0.250(2) 0.785(4) 0.2642(18)
Cl1 Cl 0.33993(4) 0.29960(6) 0.06915(3)
Cl2 Cl 0.59222(4) 0.79698(8) 0.22092(3)
loop_
_geom_bond_atom_site_label_1
_geom_bond_atom_site_label_2
_geom_bond_site_symmetry_1
_geom_bond_site_symmetry_2
N1 C1 1_555 1_555
C1 C2 1_555 1_555
C2 N2 1_555 1_555
N2 H4 1_555 1_555
C3 C1 1_555 1_555
C4 C3 1_555 1_555
C5 C4 1_555 1_555
C6 N1 1_555 1_555
H1 N1 1_555 1_555
H2 C2 1_555 1_555
H3 C2 1_555 1_555
H5 N2 1_555 1_555
H6 N2 1_555 1_555
H7 C3 1_555 1_555
H8 C4 1_555 1_555
H9 C5 1_555 1_555
H10 C6 1_555 1_555
C5 C6 1_555 1_555

#END
