
#######################################################################
#
#                 Cambridge Crystallographic Data Centre
#                                CCDC 
#
#######################################################################
#
# If this CIF has been generated from an entry in the Cambridge 
# Structural Database, then it will include bibliographic, chemical, 
# crystal, experimental, refinement or atomic coordinate data resulting 
# from the CCDC's data processing and validation procedures.
#
#######################################################################

data_PEKDOZ
_chemical_name_common            
2,3-(4',5'-bis(2-naphthyloxymethyl)benzo)-1,4,7,10,13-pentaoxacyclopentadecene
_chemical_formula_moiety         'C36 H36 O7'
_chemical_name_systematic        4,5-bis(2-naphthyloxymethyl)benzo-15-crown-5
_symmetry_cell_setting           monoclinic
_symmetry_space_group_name_H-M   'P 21/c'
_symmetry_Int_Tables_number      14
_space_group_name_Hall           '-P 2ybc'
loop_
_symmetry_equiv_pos_site_id
_symmetry_equiv_pos_as_xyz
1 x,y,z
2 -x,1/2+y,1/2-z
3 -x,-y,-z
4 x,1/2-y,1/2+z
_cell_length_a                   12.622(9)
_cell_length_b                   12.247(9)
_cell_length_c                   20.160(16)
_cell_angle_alpha                90
_cell_angle_beta                 101.270(15)
_cell_angle_gamma                90
_cell_volume                     3056.27
_cell_formula_units_Z            4
loop_
_atom_site_label
_atom_site_type_symbol
_atom_site_fract_x
_atom_site_fract_y
_atom_site_fract_z
O1 O 0.24223(15) 0.39289(16) 0.20497(11)
O2 O 0.14717(18) 0.3408(2) 0.31354(13)
O3 O 0.0718(2) 0.5409(3) 0.37828(15)
O4 O 0.2567(2) 0.7136(2) 0.31268(13)
O5 O 0.29326(15) 0.59449(17) 0.20019(11)
O6 O 0.45223(16) 0.24543(18) 0.02284(11)
O7 O 0.69040(16) 0.49251(17) 0.12550(10)
C1 C 0.3548(2) 0.5252(3) 0.17096(15)
C2 C 0.3275(2) 0.4143(3) 0.17383(15)
C3 C 0.2222(3) 0.2824(3) 0.22132(18)
H1 H 0.2845 0.2527 0.2518
H2 H 0.2085 0.2382 0.1806
C4 C 0.1261(3) 0.2809(3) 0.2541(2)
H3 H 0.0644 0.3118 0.2236
H4 H 0.1088 0.2062 0.2639
C5 C 0.0536(3) 0.3532(3) 0.3430(2)
H5 H 0.0339 0.2832 0.3595
H6 H -0.0065 0.3790 0.3091
C6 C 0.0757(3) 0.4315(4) 0.3992(2)
H7 H 0.0232 0.4207 0.4280
H8 H 0.1467 0.4165 0.4261
C7 C 0.1657(4) 0.5790(4) 0.3596(3)
H9 H 0.2177 0.5919 0.4011
H10 H 0.1939 0.5194 0.3365
C8 C 0.1663(4) 0.6617(6) 0.3237(3)
H11 H 0.1243 0.7164 0.3419
H12 H 0.1251 0.6427 0.2794
C9 C 0.2508(3) 0.7579(3) 0.2487(2)
H13 H 0.2670 0.8353 0.2530
H14 H 0.1776 0.7501 0.2232
C10 C 0.3268(3) 0.7048(3) 0.21083(18)
H15 H 0.3245 0.7412 0.1679
H16 H 0.4000 0.7082 0.2367
C11 C 0.4389(2) 0.5536(3) 0.14026(15)
H17 H 0.4567 0.6270 0.1378
C12 C 0.4984(2) 0.4759(3) 0.11268(15)
C13 C 0.4710(2) 0.3663(3) 0.11553(15)
C14 C 0.3864(2) 0.3368(3) 0.14691(15)
H18 H 0.3691 0.2634 0.1498
C15 C 0.5263(3) 0.2776(3) 0.08272(15)
H19 H 0.5927 0.3050 0.0714
H20 H 0.5437 0.2160 0.1131
C16 C 0.4901(3) 0.1809(3) -0.02276(16)
C17 C 0.4124(3) 0.1564(3) -0.08146(18)
H21 H 0.3414 0.1799 -0.0851
C18 C 0.4416(3) 0.0986(3) -0.13242(18)
H22 H 0.3895 0.0820 -0.1705
C19 C 0.5482(3) 0.0632(2) -0.12928(17)
C20 C 0.5824(3) 0.0102(3) -0.18371(19)
H23 H 0.5320 -0.0037 -0.2230
C21 C 0.6863(4) -0.0210(3) -0.1804(2)
H24 H 0.7071 -0.0541 -0.2173
C22 C 0.7622(3) -0.0027(3) -0.1207(2)
H25 H 0.8333 -0.0258 -0.1174
C23 C 0.7320(3) 0.0486(3) -0.06779(19)
H26 H 0.7834 0.0604 -0.0286
C24 C 0.6250(3) 0.0849(2) -0.07020(16)
C25 C 0.5933(3) 0.1445(3) -0.01708(16)
H27 H 0.6437 0.1588 0.0222
C26 C 0.5898(2) 0.5157(3) 0.08058(16)
H28 H 0.5874 0.4792 0.0376
H29 H 0.5829 0.5937 0.0723
C27 C 0.7824(2) 0.5270(3) 0.10487(16)
C28 C 0.7858(2) 0.5917(2) 0.05039(15)
H30 H 0.7215 0.6148 0.0231
C29 C 0.8851(2) 0.6243(2) 0.03470(15)
C30 C 0.8912(3) 0.6945(3) -0.01955(18)
H31 H 0.8278 0.7202 -0.0465
C31 C 0.9884(3) 0.7257(3) -0.0333(2)
H32 H 0.9908 0.7727 -0.0693
C32 C 1.0844(3) 0.6874(3) 0.0063(2)
H33 H 1.1504 0.7085 -0.0037
C33 C 1.0822(3) 0.6201(3) 0.0588(2)
H34 H 1.1469 0.5949 0.0845
C34 C 0.9830(3) 0.5868(3) 0.07572(17)
C35 C 0.9761(3) 0.5203(3) 0.13183(18)
H35 H 1.0393 0.4955 0.1594
C36 C 0.8798(3) 0.4915(3) 0.14668(17)
H36 H 0.8777 0.4483 0.1843
loop_
_geom_bond_atom_site_label_1
_geom_bond_atom_site_label_2
_geom_bond_site_symmetry_1
_geom_bond_site_symmetry_2
O1 C2 1_555 1_555
O2 C4 1_555 1_555
O3 C6 1_555 1_555
O4 C8 1_555 1_555
O5 C1 1_555 1_555
O6 C15 1_555 1_555
O7 C26 1_555 1_555
C1 C2 1_555 1_555
C2 C14 1_555 1_555
C3 O1 1_555 1_555
H1 C3 1_555 1_555
H2 C3 1_555 1_555
C4 C3 1_555 1_555
H3 C4 1_555 1_555
H4 C4 1_555 1_555
C5 O2 1_555 1_555
H5 C5 1_555 1_555
H6 C5 1_555 1_555
C6 C5 1_555 1_555
H7 C6 1_555 1_555
H8 C6 1_555 1_555
C7 O3 1_555 1_555
H9 C7 1_555 1_555
H10 C7 1_555 1_555
C8 C7 1_555 1_555
H11 C8 1_555 1_555
H12 C8 1_555 1_555
C9 O4 1_555 1_555
H13 C9 1_555 1_555
H14 C9 1_555 1_555
C10 O5 1_555 1_555
H15 C10 1_555 1_555
H16 C10 1_555 1_555
C11 C1 1_555 1_555
H17 C11 1_555 1_555
C12 C11 1_555 1_555
C13 C12 1_555 1_555
C14 C13 1_555 1_555
H18 C14 1_555 1_555
C15 C13 1_555 1_555
H19 C15 1_555 1_555
H20 C15 1_555 1_555
C16 O6 1_555 1_555
C17 C16 1_555 1_555
H21 C17 1_555 1_555
C18 C17 1_555 1_555
H22 C18 1_555 1_555
C19 C18 1_555 1_555
C20 C19 1_555 1_555
H23 C20 1_555 1_555
C21 C20 1_555 1_555
H24 C21 1_555 1_555
C22 C21 1_555 1_555
H25 C22 1_555 1_555
C23 C22 1_555 1_555
H26 C23 1_555 1_555
C24 C19 1_555 1_555
C25 C16 1_555 1_555
H27 C25 1_555 1_555
C26 C12 1_555 1_555
H28 C26 1_555 1_555
H29 C26 1_555 1_555
C27 O7 1_555 1_555
C28 C27 1_555 1_555
H30 C28 1_555 1_555
C29 C28 1_555 1_555
C30 C29 1_555 1_555
H31 C30 1_555 1_555
C31 C30 1_555 1_555
H32 C31 1_555 1_555
C32 C31 1_555 1_555
H33 C32 1_555 1_555
C33 C32 1_555 1_555
H34 C33 1_555 1_555
C34 C29 1_555 1_555
C35 C34 1_555 1_555
H35 C35 1_555 1_555
C36 C27 1_555 1_555
H36 C36 1_555 1_555
C9 C10 1_555 1_555
C23 C24 1_555 1_555
C24 C25 1_555 1_555
C33 C34 1_555 1_555
C35 C36 1_555 1_555

#END
