
#######################################################################
#
#                 Cambridge Crystallographic Data Centre
#                                CCDC 
#
#######################################################################
#
# If this CIF has been generated from an entry in the Cambridge 
# Structural Database, then it will include bibliographic, chemical, 
# crystal, experimental, refinement or atomic coordinate data resulting 
# from the CCDC's data processing and validation procedures.
#
#######################################################################

data_PEKZIQ
_chemical_formula_moiety         
'C34 H34 N10 O8,C4 H8 O1,H1 O4 P1 2-,H2 O1,2(C16 H36 N1 1+)'
_chemical_name_systematic        
"bis(tetra-n-butylammonium) hydrogen phosphate 3,3'-cyclohexane-1,2-diylbis(1-(2-(((4-nitrophenyl)carbamoyl)amino)phenyl)urea) monohydrate tetrahydrofuran solvate"
_symmetry_cell_setting           monoclinic
_symmetry_space_group_name_H-M   'P 21'
_symmetry_Int_Tables_number      4
_space_group_name_Hall           'P 2yb'
loop_
_symmetry_equiv_pos_site_id
_symmetry_equiv_pos_as_xyz
1 x,y,z
2 -x,1/2+y,-z
_cell_length_a                   16.201(8)
_cell_length_b                   14.693(7)
_cell_length_c                   31.511(15)
_cell_angle_alpha                90
_cell_angle_beta                 100.528(7)
_cell_angle_gamma                90
_cell_volume                     7374.65
_exptl_crystal_colour            yellow
_exptl_crystal_description       flake
_cell_formula_units_Z            4
loop_
_atom_site_label
_atom_site_type_symbol
_atom_site_fract_x
_atom_site_fract_y
_atom_site_fract_z
P1 P 0.63763(8) 0.07295(11) 0.75194(4)
O17 O 0.6724(2) -0.0126(3) 0.77460(10)
O18 O 0.6595(2) 0.1584(3) 0.77803(10)
O19 O 0.5453(2) 0.0630(3) 0.73513(10)
O20 O 0.6777(2) 0.0819(3) 0.70982(10)
H1 H 0.7289 0.0912 0.7077
P2 P 0.85427(10) 0.22021(13) 0.74287(5)
O21 O 0.8386(2) 0.1241(3) 0.72811(11)
O22 O 0.9445(2) 0.2342(3) 0.76206(11)
O23 O 0.8050(3) 0.2369(3) 0.78289(12)
H2 H 0.7391 0.2566 0.7719
O24 O 0.8247(2) 0.2871(3) 0.70914(11)
O1 O 0.9829(3) 0.1577(4) 1.02688(13)
O2 O 0.9029(3) 0.2701(4) 1.00102(14)
O3 O 1.0855(2) 0.0016(3) 0.84094(11)
O4 O 0.9739(2) 0.0463(3) 0.61718(12)
O5 O 1.0034(2) 0.3449(3) 0.61531(13)
O6 O 0.9646(3) 0.5395(3) 0.80926(13)
O7 O 0.6981(4) 0.4458(4) 0.96742(15)
O8 O 0.8052(3) 0.5279(4) 0.99245(15)
N1 N 0.9510(4) 0.2070(5) 0.99644(17)
N2 N 1.0092(3) 0.1339(3) 0.83179(13)
H7 H 0.9902 0.1758 0.8125
N3 N 1.0381(3) 0.0572(3) 0.77360(12)
H8 H 1.0079 0.1014 0.7596
N4 N 0.9634(3) 0.0364(4) 0.68850(14)
H9 H 0.9343 0.0565 0.7076
N5 N 0.8549(3) 0.0917(4) 0.63890(13)
H10 H 0.8239 0.0824 0.6587
N6 N 0.8875(3) 0.2805(4) 0.63120(13)
H11 H 0.8525 0.2779 0.6495
N7 N 0.9592(3) 0.3811(3) 0.67842(13)
H12 H 0.9209 0.3681 0.6940
N8 N 0.9796(3) 0.4200(4) 0.76507(14)
H13 H 0.9677 0.3622 0.7599
N9 N 0.8910(3) 0.4115(4) 0.81405(14)
H14 H 0.8735 0.3606 0.8006
N10 N 0.7654(4) 0.4813(4) 0.96443(17)
C1 C 0.9691(4) 0.1893(5) 0.95438(17)
C2 C 1.0284(4) 0.1265(5) 0.95006(17)
H23 H 1.0592 0.0971 0.9748
C3 C 1.0436(4) 0.1055(4) 0.90966(17)
H24 H 1.0849 0.0614 0.9065
C4 C 0.9985(3) 0.1488(4) 0.87330(16)
C5 C 0.9391(4) 0.2138(5) 0.87813(17)
H25 H 0.9082 0.2439 0.8536
C6 C 0.9250(4) 0.2349(5) 0.91975(19)
H26 H 0.8853 0.2802 0.9237
C7 C 1.0477(3) 0.0580(4) 0.81742(17)
C8 C 1.0716(3) -0.0072(4) 0.74863(18)
C9 C 1.1392(3) -0.0612(4) 0.7657(2)
H27 H 1.1631 -0.0573 0.7955
C10 C 1.1714(4) -0.1199(5) 0.7397(2)
H28 H 1.2170 -0.1583 0.7516
C11 C 1.1387(4) -0.1244(5) 0.6963(2)
H29 H 1.1632 -0.1640 0.6782
C12 C 1.0719(4) -0.0729(4) 0.67920(19)
H30 H 1.0495 -0.0773 0.6492
C13 C 1.0358(3) -0.0144(4) 0.70430(18)
C14 C 0.9333(4) 0.0579(4) 0.64549(16)
C15 C 0.8194(3) 0.1430(5) 0.60065(16)
H31 H 0.7649 0.1683 0.6061
C16 C 0.7980(4) 0.0843(5) 0.56014(17)
H32 H 0.8501 0.0571 0.5535
H33 H 0.7603 0.0342 0.5654
C17 C 0.7560(5) 0.1400(6) 0.52235(19)
H34 H 0.7017 0.1631 0.5281
H35 H 0.7445 0.1010 0.4963
C18 C 0.8100(5) 0.2190(6) 0.51419(19)
H36 H 0.7802 0.2554 0.4897
H37 H 0.8627 0.1960 0.5064
C19 C 0.8304(5) 0.2783(6) 0.55363(19)
H38 H 0.7781 0.3061 0.5597
H39 H 0.8683 0.3280 0.5481
C20 C 0.8724(4) 0.2240(5) 0.59282(16)
H40 H 0.9276 0.2012 0.5873
C21 C 0.9527(3) 0.3356(4) 0.63933(17)
C22 C 1.0180(3) 0.4433(4) 0.69527(18)
C23 C 1.0672(4) 0.4896(5) 0.6704(2)
H41 H 1.0607 0.4770 0.6404
C24 C 1.1248(4) 0.5529(5) 0.6887(2)
H42 H 1.1581 0.5833 0.6712
C25 C 1.1355(4) 0.5735(5) 0.7319(2)
H43 H 1.1748 0.6186 0.7441
C26 C 1.0885(4) 0.5277(5) 0.7574(2)
H44 H 1.0966 0.5400 0.7874
C27 C 1.0307(3) 0.4653(4) 0.73967(17)
C28 C 0.9480(4) 0.4622(5) 0.79716(18)
C29 C 0.8584(4) 0.4334(4) 0.85067(18)
C30 C 0.9038(4) 0.4855(5) 0.88433(18)
H45 H 0.9565 0.5109 0.8816
C31 C 0.8722(4) 0.4993(5) 0.92074(18)
H46 H 0.9041 0.5323 0.9441
C32 C 0.7956(4) 0.4665(4) 0.92422(18)
C33 C 0.7507(4) 0.4162(5) 0.89209(18)
H47 H 0.6970 0.3934 0.8948
C34 C 0.7831(4) 0.3979(5) 0.85527(19)
H48 H 0.7526 0.3606 0.8332
O9 O 0.5937(3) -0.0042(5) 0.49935(14)
O10 O 0.5328(4) 0.1171(5) 0.47204(14)
O11 O 0.4137(3) 0.2899(3) 0.65118(12)
O12 O 0.5032(2) 0.2652(3) 0.87660(10)
O13 O 0.5346(2) -0.0318(3) 0.88925(10)
O14 O 0.5304(3) -0.2584(3) 0.70013(12)
O15 O 0.6835(3) -0.2425(4) 0.51331(14)
O16 O 0.7908(3) -0.1592(4) 0.53605(15)
N11 N 0.5546(4) 0.0653(7) 0.50239(18)
N12 N 0.4837(3) 0.1563(3) 0.66299(13)
H15 H 0.5005 0.1153 0.6831
N13 N 0.4567(3) 0.2355(3) 0.71978(13)
H16 H 0.4862 0.1920 0.7347
N14 N 0.5231(3) 0.2619(3) 0.80643(13)
H17 H 0.5549 0.2393 0.7892
N15 N 0.6153(3) 0.1928(3) 0.85967(12)
H18 H 0.6493 0.1881 0.8409
N16 N 0.6528(2) 0.0031(3) 0.86343(12)
H19 H 0.6821 -0.0098 0.8433
N17 N 0.5533(3) -0.0819(3) 0.82276(13)
H20 H 0.5845 -0.0725 0.8031
N18 N 0.5149(3) -0.1309(3) 0.73884(12)
H21 H 0.5221 -0.0715 0.7394
N19 N 0.6097(3) -0.1312(4) 0.69444(15)
H22 H 0.6318 -0.0834 0.7091
N20 N 0.7267(4) -0.1949(5) 0.54063(16)
C35 C 0.5352(4) 0.0894(5) 0.54394(17)
C36 C 0.5656(4) 0.0379(6) 0.57912(18)
H49 H 0.5992 -0.0141 0.5768
C37 C 0.5467(3) 0.0626(5) 0.61768(17)
H50 H 0.5689 0.0278 0.6426
C38 C 0.4970(3) 0.1358(4) 0.62198(15)
C39 C 0.4628(4) 0.1853(5) 0.58456(16)
H51 H 0.4266 0.2355 0.5863
C40 C 0.4822(4) 0.1604(6) 0.54555(16)
H52 H 0.4589 0.1924 0.5200
C41 C 0.4480(3) 0.2321(4) 0.67565(17)
C42 C 0.4218(3) 0.3039(4) 0.74346(17)
C43 C 0.3552(4) 0.3571(5) 0.7239(2)
H53 H 0.3338 0.3501 0.6939
C44 C 0.3191(4) 0.4207(5) 0.7475(2)
H54 H 0.2736 0.4573 0.7340
C45 C 0.3506(4) 0.4298(4) 0.7912(2)
H55 H 0.3250 0.4711 0.8080
C46 C 0.4184(4) 0.3797(4) 0.8102(2)
H56 H 0.4411 0.3896 0.8398
C47 C 0.4553(3) 0.3146(4) 0.78735(17)
C48 C 0.5458(3) 0.2411(4) 0.84989(17)
C49 C 0.6363(3) 0.1474(4) 0.90127(14)
H57 H 0.5829 0.1276 0.9102
C50 C 0.6831(4) 0.2125(4) 0.93622(16)
H58 H 0.7353 0.2344 0.9275
H59 H 0.6474 0.2659 0.9391
C51 C 0.7050(4) 0.1628(5) 0.98002(17)
H60 H 0.7372 0.2041 1.0018
H61 H 0.6526 0.1456 0.9900
C52 C 0.7555(4) 0.0796(5) 0.97603(16)
H62 H 0.7666 0.0473 1.0041
H63 H 0.8102 0.0974 0.9688
C53 C 0.7104(4) 0.0159(4) 0.94141(16)
H64 H 0.6584 -0.0069 0.9500
H65 H 0.7468 -0.0370 0.9385
C54 C 0.6884(3) 0.0653(4) 0.89797(14)
H66 H 0.7426 0.0876 0.8909
C55 C 0.5766(3) -0.0351(4) 0.86118(15)
C56 C 0.4870(3) -0.1416(4) 0.81154(17)
C57 C 0.4404(4) -0.1770(4) 0.83996(17)
H67 H 0.4502 -0.1565 0.8690
C58 C 0.3799(4) -0.2414(4) 0.82684(19)
H68 H 0.3494 -0.2662 0.8472
C59 C 0.3627(4) -0.2706(5) 0.78501(19)
H69 H 0.3214 -0.3160 0.7762
C60 C 0.4067(4) -0.2325(4) 0.75597(19)
H70 H 0.3936 -0.2508 0.7266
C61 C 0.4681(3) -0.1698(4) 0.76771(16)
C62 C 0.5488(4) -0.1797(5) 0.71068(17)
C63 C 0.6379(4) -0.1526(5) 0.65705(18)
C64 C 0.7147(4) -0.1159(5) 0.65116(19)
H71 H 0.7471 -0.0811 0.6736
C65 C 0.7440(4) -0.1294(5) 0.6135(2)
H72 H 0.7953 -0.1026 0.6092
C66 C 0.6964(4) -0.1837(5) 0.58136(17)
C67 C 0.6218(4) -0.2210(4) 0.58617(17)
H73 H 0.5902 -0.2569 0.5639
C68 C 0.5932(4) -0.2057(5) 0.62412(17)
H74 H 0.5415 -0.2321 0.6279
O25 O 0.6748(3) 0.2494(4) 0.65823(16)
H3 H 0.6626 0.1855 0.6731
H4 H 0.7094 0.2519 0.6917
O26 O 0.8425(3) -0.0014(4) 0.7995(2)
H5 H 0.7991 -0.0041 0.7999
H6 H 0.8508 0.0288 0.7843
O27 O 0.418(2) 0.463(2) 0.9445(9)
C73 C 0.3868(10) 0.516(3) 0.9253(9)
H83 H 0.3655 0.5602 0.9445
H84 H 0.3375 0.4899 0.9060
C74 C 0.4302(18) 0.5605(18) 0.9019(4)
H85 H 0.4280 0.6270 0.9065
H86 H 0.4128 0.5466 0.8708
C75 C 0.5086(11) 0.5244(12) 0.9188(4)
H87 H 0.5227 0.4716 0.9020
H88 H 0.5537 0.5706 0.9212
C76 C 0.4919(9) 0.499(3) 0.9585(8)
H89 H 0.5327 0.4542 0.9733
H90 H 0.4891 0.5522 0.9776
O28 O 0.0269(10) 0.8578(11) 0.5514(5)
C69 C -0.0243(8) 0.7852(11) 0.5747(5)
H75 H -0.0477 0.8135 0.5984
H76 H -0.0704 0.7569 0.5539
C70 C 0.1034(6) 0.8476(9) 0.5726(3)
H77 H 0.1140 0.8925 0.5964
H78 H 0.1434 0.8600 0.5530
C71 C 0.1171(8) 0.7625(15) 0.5891(3)
H79 H 0.1514 0.7660 0.6185
H80 H 0.1485 0.7264 0.5708
C72 C 0.0406(9) 0.7196(9) 0.5909(6)
H81 H 0.0377 0.7023 0.6210
H82 H 0.0341 0.6640 0.5728
N21 N 0.9461(3) 0.7846(4) 0.84943(13)
C77 C 1.1798(6) 0.6207(9) 0.8656(4)
H91 H 1.1834 0.6517 0.8385
H92 H 1.1329 0.5775 0.8608
H93 H 1.2323 0.5879 0.8760
C78 C 1.1665(5) 0.6856(7) 0.8967(3)
H94 H 1.2209 0.7153 0.9082
H95 H 1.1485 0.6531 0.9210
C79 C 1.1017(4) 0.7602(5) 0.8810(2)
H96 H 1.1022 0.8060 0.9041
H97 H 1.1169 0.7913 0.8556
C80 C 1.0143(4) 0.7200(4) 0.86874(18)
H98 H 1.0165 0.6700 0.8479
H99 H 0.9988 0.6928 0.8949
C81 C 0.8638(4) 0.7327(5) 0.84115(19)
H100 H 0.8707 0.6790 0.8231
H101 H 0.8530 0.7097 0.8692
C82 C 0.7878(4) 0.7842(6) 0.8196(2)
H102 H 0.7830 0.8408 0.8361
H103 H 0.7954 0.8019 0.7903
C83 C 0.7102(4) 0.7328(5) 0.81637(19)
H104 H 0.7180 0.6716 0.8045
H105 H 0.6652 0.7640 0.7961
C84 C 0.6839(6) 0.7229(8) 0.8593(3)
H106 H 0.6821 0.7830 0.8725
H107 H 0.7242 0.6842 0.8781
H108 H 0.6280 0.6951 0.8553
C85 C 0.9086(4) 0.9022(6) 0.99516(19)
H109 H 0.9380 0.8485 1.0089
H110 H 0.8479 0.8918 0.9904
H111 H 0.9227 0.9553 1.0139
C86 C 0.9354(4) 0.9194(5) 0.95227(18)
H112 H 0.9079 0.9756 0.9395
H113 H 0.9968 0.9298 0.9575
C87 C 0.9148(4) 0.8433(5) 0.92040(18)
H114 H 0.8535 0.8321 0.9151
H115 H 0.9433 0.7870 0.9327
C88 C 0.9418(4) 0.8649(4) 0.87809(17)
H116 H 0.9020 0.9097 0.8623
H117 H 0.9978 0.8940 0.8843
C89 C 0.9633(4) 0.8227(5) 0.80676(16)
H118 H 1.0164 0.8577 0.8122
H119 H 0.9175 0.8648 0.7944
C90 C 0.9699(5) 0.7450(7) 0.77352(19)
H120 H 0.9385 0.6903 0.7797
H121 H 1.0292 0.7282 0.7738
C91 C 0.9255(9) 0.7929(7) 0.7251(3)
H122 H 0.8636 0.7963 0.7217
H123 H 0.9482 0.8545 0.7216
C92 C 0.9491(9) 0.7339(10) 0.6980(6)
H124 H 0.9189 0.6765 0.6992
H125 H 1.0097 0.7231 0.7060
H126 H 0.9363 0.7585 0.6686
N22 N 0.1938(3) 0.1551(4) 0.59297(14)
C93 C 0.1641(4) 0.2527(6) 0.7447(2)
H127 H 0.1578 0.3185 0.7402
H128 H 0.2237 0.2378 0.7537
H129 H 0.1333 0.2337 0.7673
C94 C 0.1298(4) 0.2039(5) 0.70363(19)
H130 H 0.0723 0.2263 0.6925
H131 H 0.1258 0.1381 0.7098
C95 C 0.1830(3) 0.2162(5) 0.66877(18)
H132 H 0.1869 0.2816 0.6619
H133 H 0.2404 0.1929 0.6792
C96 C 0.1422(4) 0.1641(5) 0.62856(18)
H134 H 0.1284 0.1021 0.6375
H135 H 0.0886 0.1945 0.6163
C97 C 0.1368(4) 0.1133(5) 0.5565(2)
H136 H 0.0877 0.1538 0.5481
H137 H 0.1160 0.0550 0.5663
C98 C 0.1748(4) 0.0949(6) 0.5170(2)
H138 H 0.2238 0.0540 0.5246
H139 H 0.1942 0.1527 0.5060
C99 C 0.1081(5) 0.0500(6) 0.4817(2)
H140 H 0.0946 -0.0114 0.4913
H141 H 0.0560 0.0868 0.4773
C100 C 0.1400(6) 0.0425(8) 0.4392(3)
H142 H 0.1985 0.0220 0.4449
H143 H 0.1364 0.1022 0.4251
H144 H 0.1055 -0.0014 0.4204
C101 C 0.3387(8) -0.1361(12) 0.6318(5)
H145 H 0.3081 -0.1666 0.6060
H146 H 0.3090 -0.1453 0.6559
H147 H 0.3954 -0.1616 0.6392
C102 C 0.3436(6) -0.0481(6) 0.6240(4)
H148 H 0.3645 -0.0399 0.5967
H149 H 0.3851 -0.0204 0.6474
C103 C 0.2564(4) 0.0047(6) 0.6206(3)
H150 H 0.2124 -0.0251 0.5992
H151 H 0.2380 0.0047 0.6489
C104 C 0.2706(4) 0.0988(5) 0.6072(2)
H152 H 0.3024 0.0962 0.5831
H153 H 0.3066 0.1303 0.6316
C105 C 0.2244(3) 0.2463(4) 0.58133(18)
H154 H 0.2598 0.2728 0.6073
H155 H 0.2605 0.2375 0.5595
C106 C 0.1573(3) 0.3130(4) 0.56407(19)
H156 H 0.1117 0.3095 0.5811
H157 H 0.1334 0.2977 0.5337
C107 C 0.1928(4) 0.4090(5) 0.56641(16)
H158 H 0.2406 0.4112 0.5508
H159 H 0.2142 0.4250 0.5970
C108 C 0.1268(4) 0.4788(5) 0.5468(2)
H160 H 0.0737 0.4657 0.5562
H161 H 0.1185 0.4754 0.5152
H162 H 0.1460 0.5400 0.5562
N23 N 0.3119(3) 0.1278(3) 0.89498(14)
C109 C 0.3658(5) 0.2666(8) 1.0429(3)
H163 H 0.3455 0.2124 1.0560
H164 H 0.3195 0.3098 1.0351
H165 H 0.4108 0.2951 1.0637
C110 C 0.3986(5) 0.2399(7) 1.0036(2)
H166 H 0.4453 0.1962 1.0118
H167 H 0.4215 0.2945 0.9914
C111 C 0.3332(4) 0.1978(5) 0.96971(19)
H168 H 0.3107 0.1422 0.9812
H169 H 0.2862 0.2410 0.9611
C112 C 0.3710(4) 0.1747(5) 0.93226(17)
H170 H 0.4197 0.1343 0.9420
H171 H 0.3926 0.2313 0.9211
C113 C 0.3621(3) 0.1168(5) 0.85927(17)
H172 H 0.4152 0.0853 0.8714
H173 H 0.3770 0.1783 0.8502
C114 C 0.3202(3) 0.0654(5) 0.81944(17)
H174 H 0.2620 0.0875 0.8100
H175 H 0.3182 -0.0004 0.8259
C115 C 0.3710(4) 0.0813(5) 0.78403(18)
H176 H 0.3728 0.1475 0.7782
H177 H 0.4294 0.0606 0.7943
C116 C 0.3361(4) 0.0328(5) 0.74258(19)
H178 H 0.2791 0.0546 0.7316
H179 H 0.3348 -0.0328 0.7479
H180 H 0.3718 0.0451 0.7213
C117 C 0.1403(5) 0.3649(6) 0.8989(2)
H181 H 0.1861 0.3982 0.9170
H182 H 0.1259 0.3113 0.9146
H183 H 0.0910 0.4046 0.8919
C118 C 0.1681(4) 0.3345(5) 0.8572(2)
H184 H 0.1225 0.2978 0.8401
H185 H 0.1757 0.3892 0.8400
C119 C 0.2486(4) 0.2792(5) 0.86361(19)
H186 H 0.2685 0.2740 0.8358
H187 H 0.2925 0.3108 0.8844
C120 C 0.2348(3) 0.1855(4) 0.88035(18)
H188 H 0.1970 0.1519 0.8574
H189 H 0.2050 0.1920 0.9050
C121 C 0.2819(3) 0.0382(4) 0.90904(17)
H190 H 0.2472 0.0085 0.8837
H191 H 0.2452 0.0498 0.9303
C122 C 0.3496(3) -0.0269(4) 0.92865(18)
H192 H 0.3961 -0.0247 0.9122
H193 H 0.3721 -0.0083 0.9587
C123 C 0.3168(4) -0.1220(5) 0.92841(19)
H194 H 0.2986 -0.1421 0.8982
H195 H 0.2671 -0.1228 0.9426
C124 C 0.3816(4) -0.1885(5) 0.95135(19)
H196 H 0.3963 -0.1721 0.9819
H197 H 0.4320 -0.1860 0.9383
H198 H 0.3584 -0.2502 0.9486
N24 N 0.5695(3) 0.4946(4) 0.6484(2)
C125 C 0.5752(9) 0.5324(14) 0.8027(3)
H199 H 0.5189 0.5170 0.8077
H200 H 0.5789 0.5981 0.7981
H201 H 0.6170 0.5145 0.8278
C126 C 0.5905(7) 0.4870(9) 0.7669(3)
H202 H 0.5822 0.4212 0.7713
H203 H 0.6502 0.4960 0.7650
C127 C 0.5381(7) 0.5134(7) 0.7243(3)
H204 H 0.4780 0.5113 0.7265
H205 H 0.5518 0.5766 0.7171
C128 C 0.5536(6) 0.4512(7) 0.6893(3)
H206 H 0.5044 0.4105 0.6819
H207 H 0.6025 0.4125 0.7009
C129 C 0.5743(5) 0.4199(6) 0.6173(3)
H208 H 0.5188 0.3896 0.6107
H209 H 0.6153 0.3743 0.6314
C130 C 0.5988(5) 0.4474(7) 0.5755(3)
H210 H 0.6588 0.4648 0.5806
H211 H 0.5652 0.5007 0.5634
C131 C 0.5837(6) 0.3683(7) 0.5436(4)
H212 H 0.6136 0.3139 0.5571
H213 H 0.5229 0.3541 0.5375
C132 C 0.6125(7) 0.3875(9) 0.5014(4)
H214 H 0.6732 0.3982 0.5070
H215 H 0.5835 0.4416 0.4879
H216 H 0.5994 0.3352 0.4820
C133 C 0.3295(5) 0.6283(9) 0.6517(3)
H217 H 0.3817 0.6453 0.6710
H218 H 0.3011 0.5804 0.6652
H219 H 0.2929 0.6817 0.6461
C134 C 0.3489(5) 0.5948(5) 0.6109(2)
H220 H 0.3696 0.6459 0.5952
H221 H 0.2969 0.5713 0.5927
C135 C 0.4136(4) 0.5209(6) 0.6178(2)
H222 H 0.4014 0.4783 0.6402
H223 H 0.4117 0.4863 0.5906
C136 C 0.4986(4) 0.5612(5) 0.63157(19)
H224 H 0.4955 0.6065 0.6545
H225 H 0.5136 0.5944 0.6067
C137 C 0.6482(4) 0.5476(6) 0.6557(3)
H226 H 0.6451 0.5945 0.6779
H227 H 0.6535 0.5794 0.6286
C138 C 0.7248(5) 0.4909(7) 0.6698(4)
H228 H 0.7274 0.4405 0.6493
H229 H 0.7250 0.4650 0.6989
C139 C 0.8123(12) 0.5684(14) 0.6708(6)
H230 H 0.8661 0.5393 0.6680
H231 H 0.8001 0.6229 0.6523
C140 C 0.7991(8) 0.5782(11) 0.7120(6)
H232 H 0.7515 0.5403 0.7162
H233 H 0.7867 0.6421 0.7171
H234 H 0.8494 0.5594 0.7322
loop_
_geom_bond_atom_site_label_1
_geom_bond_atom_site_label_2
_geom_bond_site_symmetry_1
_geom_bond_site_symmetry_2
P1 O17 1_555 1_555
P2 O21 1_555 1_555
O1 N1 1_555 1_555
O2 N1 1_555 1_555
O3 C7 1_555 1_555
O4 C14 1_555 1_555
O5 C21 1_555 1_555
O6 C28 1_555 1_555
O7 N10 1_555 1_555
O8 N10 1_555 1_555
O9 N11 1_555 1_555
O10 N11 1_555 1_555
O11 C41 1_555 1_555
O12 C48 1_555 1_555
O13 C55 1_555 1_555
O14 C62 1_555 1_555
O15 N20 1_555 1_555
O16 N20 1_555 1_555
O18 P1 1_555 1_555
O19 P1 1_555 1_555
O20 P1 1_555 1_555
H1 O20 1_555 1_555
O22 P2 1_555 1_555
O23 P2 1_555 1_555
H2 O23 1_555 1_555
O24 P2 1_555 1_555
O25 H3 1_555 1_555
H4 O25 1_555 1_555
O26 H5 1_555 1_555
H6 O26 1_555 1_555
O27 C73 1_555 1_555
O28 C69 1_555 1_555
N1 C1 1_555 1_555
N2 H7 1_555 1_555
N3 H8 1_555 1_555
N4 H9 1_555 1_555
N5 H10 1_555 1_555
N6 H11 1_555 1_555
N7 H12 1_555 1_555
N8 H13 1_555 1_555
N9 H14 1_555 1_555
N10 C32 1_555 1_555
N11 C35 1_555 1_555
N12 H15 1_555 1_555
N13 H16 1_555 1_555
N14 H17 1_555 1_555
N15 H18 1_555 1_555
N16 H19 1_555 1_555
N17 H20 1_555 1_555
N18 H21 1_555 1_555
N19 H22 1_555 1_555
N20 C66 1_555 1_555
N21 C80 1_555 1_555
N22 C96 1_555 1_555
N23 C112 1_555 1_555
N24 C128 1_555 1_555
C1 C2 1_555 1_555
C2 H23 1_555 1_555
C3 C2 1_555 1_555
H24 C3 1_555 1_555
C4 N2 1_555 1_555
C5 C4 1_555 1_555
H25 C5 1_555 1_555
C6 C1 1_555 1_555
H26 C6 1_555 1_555
C7 N2 1_555 1_555
C8 N3 1_555 1_555
C9 C8 1_555 1_555
H27 C9 1_555 1_555
C10 C9 1_555 1_555
H28 C10 1_555 1_555
C11 C10 1_555 1_555
H29 C11 1_555 1_555
C12 C11 1_555 1_555
H30 C12 1_555 1_555
C13 N4 1_555 1_555
C14 N4 1_555 1_555
C15 N5 1_555 1_555
H31 C15 1_555 1_555
C16 C15 1_555 1_555
H32 C16 1_555 1_555
H33 C16 1_555 1_555
C17 C16 1_555 1_555
H34 C17 1_555 1_555
H35 C17 1_555 1_555
C18 C17 1_555 1_555
H36 C18 1_555 1_555
H37 C18 1_555 1_555
C19 C18 1_555 1_555
H38 C19 1_555 1_555
H39 C19 1_555 1_555
C20 N6 1_555 1_555
H40 C20 1_555 1_555
C21 N6 1_555 1_555
C22 N7 1_555 1_555
C23 C22 1_555 1_555
H41 C23 1_555 1_555
C24 C23 1_555 1_555
H42 C24 1_555 1_555
C25 C24 1_555 1_555
H43 C25 1_555 1_555
C26 C25 1_555 1_555
H44 C26 1_555 1_555
C27 N8 1_555 1_555
C28 N8 1_555 1_555
C29 N9 1_555 1_555
C30 C29 1_555 1_555
H45 C30 1_555 1_555
C31 C30 1_555 1_555
H46 C31 1_555 1_555
C32 C31 1_555 1_555
C33 C32 1_555 1_555
H47 C33 1_555 1_555
C34 C29 1_555 1_555
H48 C34 1_555 1_555
C35 C36 1_555 1_555
C36 H49 1_555 1_555
C37 C36 1_555 1_555
H50 C37 1_555 1_555
C38 N12 1_555 1_555
C39 C38 1_555 1_555
H51 C39 1_555 1_555
C40 C35 1_555 1_555
H52 C40 1_555 1_555
C41 N12 1_555 1_555
C42 N13 1_555 1_555
C43 C42 1_555 1_555
H53 C43 1_555 1_555
C44 C43 1_555 1_555
H54 C44 1_555 1_555
C45 C44 1_555 1_555
H55 C45 1_555 1_555
C46 C45 1_555 1_555
H56 C46 1_555 1_555
C47 N14 1_555 1_555
C48 N14 1_555 1_555
C49 N15 1_555 1_555
H57 C49 1_555 1_555
C50 C49 1_555 1_555
H58 C50 1_555 1_555
H59 C50 1_555 1_555
C51 C50 1_555 1_555
H60 C51 1_555 1_555
H61 C51 1_555 1_555
C52 C51 1_555 1_555
H62 C52 1_555 1_555
H63 C52 1_555 1_555
C53 C52 1_555 1_555
H64 C53 1_555 1_555
H65 C53 1_555 1_555
C54 N16 1_555 1_555
H66 C54 1_555 1_555
C55 N16 1_555 1_555
C56 N17 1_555 1_555
C57 C56 1_555 1_555
H67 C57 1_555 1_555
C58 C57 1_555 1_555
H68 C58 1_555 1_555
C59 C58 1_555 1_555
H69 C59 1_555 1_555
C60 C59 1_555 1_555
H70 C60 1_555 1_555
C61 N18 1_555 1_555
C62 N18 1_555 1_555
C63 N19 1_555 1_555
C64 C63 1_555 1_555
H71 C64 1_555 1_555
C65 C64 1_555 1_555
H72 C65 1_555 1_555
C66 C65 1_555 1_555
C67 C66 1_555 1_555
H73 C67 1_555 1_555
C68 C63 1_555 1_555
H74 C68 1_555 1_555
C69 H75 1_555 1_555
H76 C69 1_555 1_555
C70 O28 1_555 1_555
H77 C70 1_555 1_555
H78 C70 1_555 1_555
C71 C70 1_555 1_555
H79 C71 1_555 1_555
H80 C71 1_555 1_555
C72 C69 1_555 1_555
H81 C72 1_555 1_555
H82 C72 1_555 1_555
C73 H83 1_555 1_555
H84 C73 1_555 1_555
C74 C73 1_555 1_555
H85 C74 1_555 1_555
H86 C74 1_555 1_555
C75 C74 1_555 1_555
H87 C75 1_555 1_555
H88 C75 1_555 1_555
C76 O27 1_555 1_555
H89 C76 1_555 1_555
H90 C76 1_555 1_555
C77 H91 1_555 1_555
H92 C77 1_555 1_555
H93 C77 1_555 1_555
C78 C77 1_555 1_555
H94 C78 1_555 1_555
H95 C78 1_555 1_555
C79 C78 1_555 1_555
H96 C79 1_555 1_555
H97 C79 1_555 1_555
C80 C79 1_555 1_555
H98 C80 1_555 1_555
H99 C80 1_555 1_555
C81 N21 1_555 1_555
H100 C81 1_555 1_555
H101 C81 1_555 1_555
C82 C81 1_555 1_555
H102 C82 1_555 1_555
H103 C82 1_555 1_555
C83 C82 1_555 1_555
H104 C83 1_555 1_555
H105 C83 1_555 1_555
C84 C83 1_555 1_555
H106 C84 1_555 1_555
H107 C84 1_555 1_555
H108 C84 1_555 1_555
C85 H109 1_555 1_555
H110 C85 1_555 1_555
H111 C85 1_555 1_555
C86 C85 1_555 1_555
H112 C86 1_555 1_555
H113 C86 1_555 1_555
C87 C86 1_555 1_555
H114 C87 1_555 1_555
H115 C87 1_555 1_555
C88 N21 1_555 1_555
H116 C88 1_555 1_555
H117 C88 1_555 1_555
C89 N21 1_555 1_555
H118 C89 1_555 1_555
H119 C89 1_555 1_555
C90 C89 1_555 1_555
H120 C90 1_555 1_555
H121 C90 1_555 1_555
C91 C90 1_555 1_555
H122 C91 1_555 1_555
H123 C91 1_555 1_555
C92 C91 1_555 1_555
H124 C92 1_555 1_555
H125 C92 1_555 1_555
H126 C92 1_555 1_555
C93 H127 1_555 1_555
H128 C93 1_555 1_555
H129 C93 1_555 1_555
C94 C93 1_555 1_555
H130 C94 1_555 1_555
H131 C94 1_555 1_555
C95 C94 1_555 1_555
H132 C95 1_555 1_555
H133 C95 1_555 1_555
C96 C95 1_555 1_555
H134 C96 1_555 1_555
H135 C96 1_555 1_555
C97 N22 1_555 1_555
H136 C97 1_555 1_555
H137 C97 1_555 1_555
C98 C97 1_555 1_555
H138 C98 1_555 1_555
H139 C98 1_555 1_555
C99 C98 1_555 1_555
H140 C99 1_555 1_555
H141 C99 1_555 1_555
C100 C99 1_555 1_555
H142 C100 1_555 1_555
H143 C100 1_555 1_555
H144 C100 1_555 1_555
C101 H145 1_555 1_555
H146 C101 1_555 1_555
H147 C101 1_555 1_555
C102 C101 1_555 1_555
H148 C102 1_555 1_555
H149 C102 1_555 1_555
C103 C102 1_555 1_555
H150 C103 1_555 1_555
H151 C103 1_555 1_555
C104 N22 1_555 1_555
H152 C104 1_555 1_555
H153 C104 1_555 1_555
C105 N22 1_555 1_555
H154 C105 1_555 1_555
H155 C105 1_555 1_555
C106 C105 1_555 1_555
H156 C106 1_555 1_555
H157 C106 1_555 1_555
C107 C106 1_555 1_555
H158 C107 1_555 1_555
H159 C107 1_555 1_555
C108 C107 1_555 1_555
H160 C108 1_555 1_555
H161 C108 1_555 1_555
H162 C108 1_555 1_555
C109 H163 1_555 1_555
H164 C109 1_555 1_555
H165 C109 1_555 1_555
C110 C109 1_555 1_555
H166 C110 1_555 1_555
H167 C110 1_555 1_555
C111 C110 1_555 1_555
H168 C111 1_555 1_555
H169 C111 1_555 1_555
C112 C111 1_555 1_555
H170 C112 1_555 1_555
H171 C112 1_555 1_555
C113 N23 1_555 1_555
H172 C113 1_555 1_555
H173 C113 1_555 1_555
C114 C113 1_555 1_555
H174 C114 1_555 1_555
H175 C114 1_555 1_555
C115 C114 1_555 1_555
H176 C115 1_555 1_555
H177 C115 1_555 1_555
C116 C115 1_555 1_555
H178 C116 1_555 1_555
H179 C116 1_555 1_555
H180 C116 1_555 1_555
C117 H181 1_555 1_555
H182 C117 1_555 1_555
H183 C117 1_555 1_555
C118 C117 1_555 1_555
H184 C118 1_555 1_555
H185 C118 1_555 1_555
C119 C118 1_555 1_555
H186 C119 1_555 1_555
H187 C119 1_555 1_555
C120 N23 1_555 1_555
H188 C120 1_555 1_555
H189 C120 1_555 1_555
C121 N23 1_555 1_555
H190 C121 1_555 1_555
H191 C121 1_555 1_555
C122 C121 1_555 1_555
H192 C122 1_555 1_555
H193 C122 1_555 1_555
C123 C122 1_555 1_555
H194 C123 1_555 1_555
H195 C123 1_555 1_555
C124 C123 1_555 1_555
H196 C124 1_555 1_555
H197 C124 1_555 1_555
H198 C124 1_555 1_555
C125 H199 1_555 1_555
H200 C125 1_555 1_555
H201 C125 1_555 1_555
C126 C125 1_555 1_555
H202 C126 1_555 1_555
H203 C126 1_555 1_555
C127 C126 1_555 1_555
H204 C127 1_555 1_555
H205 C127 1_555 1_555
C128 C127 1_555 1_555
H206 C128 1_555 1_555
H207 C128 1_555 1_555
C129 N24 1_555 1_555
H208 C129 1_555 1_555
H209 C129 1_555 1_555
C130 C129 1_555 1_555
H210 C130 1_555 1_555
H211 C130 1_555 1_555
C131 C130 1_555 1_555
H212 C131 1_555 1_555
H213 C131 1_555 1_555
C132 C131 1_555 1_555
H214 C132 1_555 1_555
H215 C132 1_555 1_555
H216 C132 1_555 1_555
C133 H217 1_555 1_555
H218 C133 1_555 1_555
H219 C133 1_555 1_555
C134 C133 1_555 1_555
H220 C134 1_555 1_555
H221 C134 1_555 1_555
C135 C134 1_555 1_555
H222 C135 1_555 1_555
H223 C135 1_555 1_555
C136 N24 1_555 1_555
H224 C136 1_555 1_555
H225 C136 1_555 1_555
C137 N24 1_555 1_555
H226 C137 1_555 1_555
H227 C137 1_555 1_555
C138 C137 1_555 1_555
H228 C138 1_555 1_555
H229 C138 1_555 1_555
C139 C138 1_555 1_555
H230 C139 1_555 1_555
H231 C139 1_555 1_555
C140 C139 1_555 1_555
H232 C140 1_555 1_555
H233 C140 1_555 1_555
H234 C140 1_555 1_555
N3 C7 1_555 1_555
N5 C14 1_555 1_555
N7 C21 1_555 1_555
N9 C28 1_555 1_555
N13 C41 1_555 1_555
N15 C48 1_555 1_555
N17 C55 1_555 1_555
N19 C62 1_555 1_555
C3 C4 1_555 1_555
C5 C6 1_555 1_555
C8 C13 1_555 1_555
C12 C13 1_555 1_555
C15 C20 1_555 1_555
C19 C20 1_555 1_555
C22 C27 1_555 1_555
C26 C27 1_555 1_555
C33 C34 1_555 1_555
C37 C38 1_555 1_555
C39 C40 1_555 1_555
C42 C47 1_555 1_555
C46 C47 1_555 1_555
C49 C54 1_555 1_555
C53 C54 1_555 1_555
C56 C61 1_555 1_555
C60 C61 1_555 1_555
C67 C68 1_555 1_555
C71 C72 1_555 1_555
C75 C76 1_555 1_555
C87 C88 1_555 1_555
C103 C104 1_555 1_555
C119 C120 1_555 1_555
C135 C136 1_555 1_555

#END
