
#######################################################################
#
#                 Cambridge Crystallographic Data Centre
#                                CCDC 
#
#######################################################################
#
# If this CIF has been generated from an entry in the Cambridge 
# Structural Database, then it will include bibliographic, chemical, 
# crystal, experimental, refinement or atomic coordinate data resulting 
# from the CCDC's data processing and validation procedures.
#
#######################################################################

data_PELBEP
_chemical_formula_moiety         'C10 H26 N2 O1 2+,H2 O1,2(Cl1 1-)'
_chemical_name_systematic        
"2,2'-Oxybis(N,N,N-trimethylethanaminium) dichloride monohydrate"
_symmetry_cell_setting           monoclinic
_symmetry_space_group_name_H-M   'C c'
_symmetry_Int_Tables_number      9
_space_group_name_Hall           'C -2yc'
loop_
_symmetry_equiv_pos_site_id
_symmetry_equiv_pos_as_xyz
1 x,y,z
2 x,-y,1/2+z
3 1/2+x,1/2+y,z
4 1/2+x,1/2-y,1/2+z
_cell_length_a                   21.0466(7)
_cell_length_b                   5.8427(2)
_cell_length_c                   12.7574(4)
_cell_angle_alpha                90
_cell_angle_beta                 104.3700(10)
_cell_angle_gamma                90
_cell_volume                     1519.68
_exptl_crystal_colour            colorless
_exptl_crystal_description       'thin plate'
_cell_formula_units_Z            4
loop_
_atom_site_label
_atom_site_type_symbol
_atom_site_fract_x
_atom_site_fract_y
_atom_site_fract_z
Cl1 Cl 0.375350(18) 0.56701(6) 0.38452(3)
Cl2 Cl 0.62085(2) 0.27023(7) 0.61467(3)
O1 O 0.31635(7) 0.0795(2) 0.60493(11)
N1 N 0.20669(7) 0.3386(3) 0.43581(11)
N2 N 0.45886(7) -0.0695(2) 0.65011(12)
C1 C 0.24689(9) 0.4046(3) 0.54735(14)
H1 H 0.2825(11) 0.473(4) 0.5343(17)
H2 H 0.2229(11) 0.519(4) 0.5745(18)
C2 C 0.26505(10) 0.2131(4) 0.62884(15)
H3 H 0.2791(13) 0.284(4) 0.696(2)
H4 H 0.2260(13) 0.109(5) 0.632(2)
C3 C 0.34509(9) -0.0742(3) 0.68970(15)
H5 H 0.3566(11) -0.011(4) 0.750(2)
H6 H 0.3172(14) -0.178(5) 0.704(2)
C4 C 0.39979(9) -0.2069(3) 0.66114(14)
H7 H 0.4170(10) -0.313(4) 0.7156(18)
H8 H 0.3831(12) -0.279(4) 0.596(2)
C5 C 0.14177(9) 0.2405(3) 0.44021(16)
H9 H 0.1225(12) 0.352(4) 0.4773(19)
H10 H 0.1493(12) 0.112(4) 0.487(2)
H11 H 0.1203(12) 0.205(4) 0.372(2)
C6 C 0.19461(10) 0.5524(3) 0.36844(17)
H12 H 0.1705(12) 0.514(5) 0.299(2)
H13 H 0.2344(13) 0.622(4) 0.368(2)
H14 H 0.1726(12) 0.659(5) 0.401(2)
C7 C 0.24260(9) 0.1712(3) 0.38194(15)
H15 H 0.2515(11) 0.041(4) 0.4238(18)
H16 H 0.2188(13) 0.156(4) 0.310(2)
H17 H 0.2825(14) 0.229(4) 0.381(2)
C8 C 0.48465(9) 0.0806(3) 0.74658(16)
H18 H 0.4933(11) -0.009(4) 0.803(2)
H19 H 0.5224(13) 0.147(5) 0.736(2)
H20 H 0.4497(13) 0.184(4) 0.749(2)
C9 C 0.44371(9) 0.0752(3) 0.54940(16)
H21 H 0.4239(14) -0.022(5) 0.490(2)
H22 H 0.4155(14) 0.190(5) 0.554(2)
H23 H 0.4863(12) 0.145(4) 0.5478(19)
C10 C 0.51124(10) -0.2376(3) 0.64096(16)
H24 H 0.4959(13) -0.332(5) 0.585(2)
H25 H 0.5234(11) -0.330(4) 0.702(2)
H26 H 0.5479(13) -0.161(5) 0.6303(19)
O2 O 0.52158(8) 0.4259(3) 0.39091(13)
H27 H 0.4807(14) 0.480(5) 0.398(2)
H28 H 0.5419(16) 0.396(5) 0.448(3)
loop_
_geom_bond_atom_site_label_1
_geom_bond_atom_site_label_2
_geom_bond_site_symmetry_1
_geom_bond_site_symmetry_2
O1 C2 1_555 1_555
N1 C1 1_555 1_555
N2 C4 1_555 1_555
C1 H1 1_555 1_555
H2 C1 1_555 1_555
C2 C1 1_555 1_555
H3 C2 1_555 1_555
H4 C2 1_555 1_555
C3 O1 1_555 1_555
H5 C3 1_555 1_555
H6 C3 1_555 1_555
C4 C3 1_555 1_555
H7 C4 1_555 1_555
H8 C4 1_555 1_555
C5 N1 1_555 1_555
H9 C5 1_555 1_555
H10 C5 1_555 1_555
H11 C5 1_555 1_555
C6 N1 1_555 1_555
H12 C6 1_555 1_555
H13 C6 1_555 1_555
H14 C6 1_555 1_555
C7 N1 1_555 1_555
H15 C7 1_555 1_555
H16 C7 1_555 1_555
H17 C7 1_555 1_555
C8 N2 1_555 1_555
H18 C8 1_555 1_555
H19 C8 1_555 1_555
H20 C8 1_555 1_555
C9 N2 1_555 1_555
H21 C9 1_555 1_555
H22 C9 1_555 1_555
H23 C9 1_555 1_555
C10 N2 1_555 1_555
H24 C10 1_555 1_555
H25 C10 1_555 1_555
H26 C10 1_555 1_555
O2 H27 1_555 1_555
H28 O2 1_555 1_555

#END
