
#######################################################################
#
#                 Cambridge Crystallographic Data Centre
#                                CCDC 
#
#######################################################################
#
# If this CIF has been generated from an entry in the Cambridge 
# Structural Database, then it will include bibliographic, chemical, 
# crystal, experimental, refinement or atomic coordinate data resulting 
# from the CCDC's data processing and validation procedures.
#
#######################################################################

data_PELBIT
_chemical_formula_moiety         'C25 H31 N1 O9'
_chemical_name_systematic        
"1'-t-Butyl 2,2-diethyl 3-formyl-6-hydroxy-2'-oxo-2H-spiro[cyclohexane-1,3'-indole]-1',2,2(2'H)-tricarboxylate"
_symmetry_cell_setting           hexagonal
_symmetry_space_group_name_H-M   'P 65'
_symmetry_Int_Tables_number      170
_space_group_name_Hall           'P 65'
loop_
_symmetry_equiv_pos_site_id
_symmetry_equiv_pos_as_xyz
1 x,y,z
2 x-y,x,5/6+z
3 -y,x-y,2/3+z
4 -x,-y,1/2+z
5 -x+y,-x,1/3+z
6 y,-x+y,1/6+z
_cell_length_a                   18.8854(16)
_cell_length_b                   18.8854(16)
_cell_length_c                   12.9167(11)
_cell_angle_alpha                90
_cell_angle_beta                 90
_cell_angle_gamma                120
_cell_volume                     3989.65
_exptl_crystal_colour            colorless
_exptl_crystal_description       block
_cell_formula_units_Z            6
loop_
_atom_site_label
_atom_site_type_symbol
_atom_site_fract_x
_atom_site_fract_y
_atom_site_fract_z
O1 O 0.2412(3) 0.4597(3) -0.1522(3)
O2 O 0.1140(2) 0.3514(2) -0.1458(3)
O3 O 0.05160(18) 0.3168(2) 0.0448(2)
O4 O 0.1732(2) 0.2423(2) 0.1184(3)
H1 H 0.2178 0.2471 0.1325
O5 O 0.0208(3) 0.3762(3) 0.4442(3)
O6 O 0.1786(2) 0.3714(2) 0.4092(3)
O7 O 0.1977(2) 0.4946(2) 0.3624(3)
O8 O 0.0359(2) 0.4531(2) 0.2321(3)
O9 O 0.1543(2) 0.4991(2) 0.1462(3)
N1 N 0.1888(2) 0.3929(2) 0.0001(3)
C1 C 0.2478(3) 0.4133(3) 0.1619(3)
C2 C 0.3116(3) 0.4396(3) 0.2302(4)
H2 H 0.3013 0.4263 0.3000
C3 C 0.3916(3) 0.4863(3) 0.1954(5)
H3 H 0.4349 0.5049 0.2418
C4 C 0.4063(3) 0.5048(3) 0.0916(5)
H4 H 0.4600 0.5366 0.0688
C5 C 0.3432(3) 0.4769(3) 0.0208(4)
H5 H 0.3537 0.4884 -0.0494
C6 C 0.2633(3) 0.4312(3) 0.0572(4)
C7 C 0.1844(3) 0.4050(3) -0.1072(4)
C8 C 0.0983(4) 0.3549(5) -0.2583(5)
C9 C 0.1003(5) 0.4338(5) -0.2835(5)
H6 H 0.0737 0.4465 -0.2293
H7 H 0.0724 0.4280 -0.3478
H8 H 0.1561 0.4770 -0.2895
C10 C 0.0121(4) 0.2803(5) -0.2710(5)
H9 H 0.0115 0.2325 -0.2444
H10 H -0.0023 0.2725 -0.3431
H11 H -0.0265 0.2894 -0.2335
C11 C 0.1561(5) 0.3389(5) -0.3206(5)
H12 H 0.2104 0.3848 -0.3149
H13 H 0.1395 0.3308 -0.3919
H14 H 0.1552 0.2908 -0.2947
C12 C 0.1231(3) 0.3500(3) 0.0680(3)
C13 C 0.1568(3) 0.3556(3) 0.1761(3)
C14 C 0.1452(3) 0.2686(3) 0.2032(4)
H15 H 0.1787 0.2741 0.2639
C15 C 0.0577(3) 0.2045(3) 0.2259(5)
H16 H 0.0252 0.1946 0.1637
H17 H 0.0557 0.1538 0.2447
C16 C 0.0213(3) 0.2298(3) 0.3121(4)
H18 H 0.0512 0.2361 0.3756
H19 H -0.0351 0.1875 0.3230
C17 C 0.0246(3) 0.3103(3) 0.2859(4)
H20 H -0.0106 0.2999 0.2254
C18 C 0.1109(3) 0.3818(3) 0.2566(3)
C19 C -0.0126(3) 0.3321(3) 0.3728(5)
H21 H -0.0693 0.3083 0.3712
C20 C 0.1647(3) 0.4147(3) 0.3537(3)
C21 C 0.2550(4) 0.5339(4) 0.4479(5)
H22 H 0.2253 0.5306 0.5107
H23 H 0.2860 0.5064 0.4600
C22 C 0.3102(5) 0.6194(4) 0.4209(8)
H24 H 0.3369 0.6222 0.3565
H25 H 0.3505 0.6450 0.4743
H26 H 0.2796 0.6471 0.4140
C23 C 0.0959(3) 0.4494(3) 0.2110(3)
C24 C 0.1446(6) 0.5633(4) 0.0968(6)
H27 H 0.1891 0.6164 0.1174
H28 H 0.0937 0.5593 0.1192
C25 C 0.1443(5) 0.5555(4) -0.0163(5)
H29 H 0.1977 0.5681 -0.0394
H30 H 0.1300 0.5928 -0.0475
H31 H 0.1051 0.5006 -0.0359
loop_
_geom_bond_atom_site_label_1
_geom_bond_atom_site_label_2
_geom_bond_site_symmetry_1
_geom_bond_site_symmetry_2
O1 C7 1_555 1_555
O2 C7 1_555 1_555
O3 C12 1_555 1_555
O4 H1 1_555 1_555
O5 C19 1_555 1_555
O6 C20 1_555 1_555
O7 C20 1_555 1_555
O8 C23 1_555 1_555
O9 C23 1_555 1_555
N1 C6 1_555 1_555
C1 C2 1_555 1_555
C2 H2 1_555 1_555
C3 C2 1_555 1_555
H3 C3 1_555 1_555
C4 C3 1_555 1_555
H4 C4 1_555 1_555
C5 C4 1_555 1_555
H5 C5 1_555 1_555
C6 C1 1_555 1_555
C7 N1 1_555 1_555
C8 O2 1_555 1_555
C9 C8 1_555 1_555
H6 C9 1_555 1_555
H7 C9 1_555 1_555
H8 C9 1_555 1_555
C10 C8 1_555 1_555
H9 C10 1_555 1_555
H10 C10 1_555 1_555
H11 C10 1_555 1_555
C11 C8 1_555 1_555
H12 C11 1_555 1_555
H13 C11 1_555 1_555
H14 C11 1_555 1_555
C12 N1 1_555 1_555
C13 C1 1_555 1_555
C14 O4 1_555 1_555
H15 C14 1_555 1_555
C15 C14 1_555 1_555
H16 C15 1_555 1_555
H17 C15 1_555 1_555
C16 C15 1_555 1_555
H18 C16 1_555 1_555
H19 C16 1_555 1_555
C17 C16 1_555 1_555
H20 C17 1_555 1_555
C18 C13 1_555 1_555
C19 C17 1_555 1_555
H21 C19 1_555 1_555
C20 C18 1_555 1_555
C21 O7 1_555 1_555
H22 C21 1_555 1_555
H23 C21 1_555 1_555
C22 C21 1_555 1_555
H24 C22 1_555 1_555
H25 C22 1_555 1_555
H26 C22 1_555 1_555
C23 C18 1_555 1_555
C24 O9 1_555 1_555
H27 C24 1_555 1_555
H28 C24 1_555 1_555
C25 C24 1_555 1_555
H29 C25 1_555 1_555
H30 C25 1_555 1_555
H31 C25 1_555 1_555
C5 C6 1_555 1_555
C12 C13 1_555 1_555
C13 C14 1_555 1_555
C17 C18 1_555 1_555

#END
