
#######################################################################
#
#                 Cambridge Crystallographic Data Centre
#                                CCDC 
#
#######################################################################
#
# If this CIF has been generated from an entry in the Cambridge 
# Structural Database, then it will include bibliographic, chemical, 
# crystal, experimental, refinement or atomic coordinate data resulting 
# from the CCDC's data processing and validation procedures.
#
#######################################################################

data_PELCAL01
_chemical_formula_moiety         'C14 H11 N1 S1'
_chemical_name_systematic        3-(phenylsulfanyl)-1H-indole
_symmetry_cell_setting           monoclinic
_symmetry_space_group_name_H-M   'P 21'
_symmetry_Int_Tables_number      4
_space_group_name_Hall           'P 2yb'
loop_
_symmetry_equiv_pos_site_id
_symmetry_equiv_pos_as_xyz
1 x,y,z
2 -x,1/2+y,-z
_cell_length_a                   9.8526(17)
_cell_length_b                   5.8998(11)
_cell_length_c                   10.0227(17)
_cell_angle_alpha                90
_cell_angle_beta                 103.097(3)
_cell_angle_gamma                90
_cell_volume                     567.448
_exptl_crystal_colour            colorless
_exptl_crystal_description       Block
_cell_formula_units_Z            2
loop_
_atom_site_label
_atom_site_type_symbol
_atom_site_fract_x
_atom_site_fract_y
_atom_site_fract_z
S1 S 0.60850(5) 0.60098(7) 0.42122(4)
N1 N 0.85636(18) 1.1251(3) 0.44328(18)
H1 H 0.8852 1.2563 0.4748
C1 C 0.4788(2) 0.7827(4) 0.1672(2)
H2 H 0.5370 0.9079 0.1886
C2 C 0.3814(2) 0.7737(5) 0.0442(2)
H3 H 0.3736 0.8941 -0.0170
C3 C 0.2952(2) 0.5873(5) 0.0112(2)
H4 H 0.2306 0.5817 -0.0723
C4 C 0.3054(3) 0.4112(5) 0.1016(3)
H5 H 0.2463 0.2872 0.0800
C5 C 0.4032(2) 0.4156(4) 0.2255(2)
H6 H 0.4109 0.2939 0.2857
C6 C 0.48932(17) 0.6029(4) 0.25859(17)
C7 C 0.72883(19) 0.8101(3) 0.40510(18)
C8 C 0.7443(2) 1.0145(4) 0.4697(2)
H7 H 0.6867 1.0703 0.5238
C9 C 0.91658(19) 0.9950(3) 0.35852(18)
C10 C 0.83754(18) 0.7927(3) 0.33167(17)
C11 C 0.8762(2) 0.6299(4) 0.24670(19)
H8 H 0.8260 0.4958 0.2273
C12 C 0.9903(2) 0.6710(4) 0.1917(2)
H9 H 1.0162 0.5643 0.1339
C13 C 1.0674(2) 0.8716(5) 0.2220(3)
H10 H 1.1450 0.8932 0.1852
C14 C 1.0324(2) 1.0357(4) 0.3035(2)
H11 H 1.0835 1.1692 0.3218
loop_
_geom_bond_atom_site_label_1
_geom_bond_atom_site_label_2
_geom_bond_site_symmetry_1
_geom_bond_site_symmetry_2
S1 C6 1_555 1_555
N1 H1 1_555 1_555
C1 H2 1_555 1_555
C2 C1 1_555 1_555
H3 C2 1_555 1_555
C3 C2 1_555 1_555
H4 C3 1_555 1_555
C4 C3 1_555 1_555
H5 C4 1_555 1_555
C5 C4 1_555 1_555
H6 C5 1_555 1_555
C6 C1 1_555 1_555
C7 S1 1_555 1_555
C8 N1 1_555 1_555
H7 C8 1_555 1_555
C9 N1 1_555 1_555
C10 C7 1_555 1_555
C11 C10 1_555 1_555
H8 C11 1_555 1_555
C12 C11 1_555 1_555
H9 C12 1_555 1_555
C13 C12 1_555 1_555
H10 C13 1_555 1_555
C14 C9 1_555 1_555
H11 C14 1_555 1_555
C5 C6 1_555 1_555
C7 C8 1_555 1_555
C9 C10 1_555 1_555
C13 C14 1_555 1_555

#END
