
#######################################################################
#
#                 Cambridge Crystallographic Data Centre
#                                CCDC 
#
#######################################################################
#
# If this CIF has been generated from an entry in the Cambridge 
# Structural Database, then it will include bibliographic, chemical, 
# crystal, experimental, refinement or atomic coordinate data resulting 
# from the CCDC's data processing and validation procedures.
#
#######################################################################

data_PELKUO
_chemical_formula_moiety         'C17 H19 N4 O4 1+,0.5(H2 O1),I1 1-'
_chemical_name_systematic        
'1-(3-(Methoxycarbonyl)benzyl)-3,7,9-trimethyl-2,6-dioxo-2,3,6,9-tetrahydro-1H-purin-7-ium iodide hemihydrate'
_symmetry_cell_setting           triclinic
_symmetry_space_group_name_H-M   'P -1'
_symmetry_Int_Tables_number      2
_space_group_name_Hall           '-P 1'
loop_
_symmetry_equiv_pos_site_id
_symmetry_equiv_pos_as_xyz
1 x,y,z
2 -x,-y,-z
_cell_length_a                   8.9713(15)
_cell_length_b                   11.6793(19)
_cell_length_c                   19.215(3)
_cell_angle_alpha                106.366(3)
_cell_angle_beta                 92.729(3)
_cell_angle_gamma                93.658(3)
_cell_volume                     1923.28
_exptl_crystal_colour            colorless
_exptl_crystal_description       plate
_cell_formula_units_Z            4
loop_
_atom_site_label
_atom_site_type_symbol
_atom_site_fract_x
_atom_site_fract_y
_atom_site_fract_z
I1 I 0.32581(8) 0.72935(6) 0.41685(4)
I2 I 0.09056(8) 0.14621(7) 0.38412(4)
O1 O 0.8913(8) 0.1969(6) 0.0973(4)
O2 O 0.6260(8) 0.1032(6) 0.2743(4)
O3 O 0.8212(8) -0.4913(6) 0.0430(4)
O4 O 0.6583(9) -0.4062(6) -0.0151(4)
N1 N 1.0367(9) 0.4107(7) 0.2172(4)
N2 N 0.9821(9) 0.4377(7) 0.3301(4)
N3 N 0.7773(9) 0.2757(7) 0.3089(4)
N4 N 0.7619(9) 0.1488(7) 0.1875(4)
C1 C 1.0676(11) 0.4758(9) 0.2849(5)
H1 H 1.1414 0.5415 0.2997
C2 C 1.1083(12) 0.4251(9) 0.1525(5)
H2 H 1.0339 0.4453 0.1198
H3 H 1.1497 0.3501 0.1272
H4 H 1.1891 0.4894 0.1674
C3 C 0.9965(14) 0.4906(10) 0.4104(5)
H5 H 1.0807 0.5521 0.4237
H6 H 1.0144 0.4277 0.4337
H7 H 0.9040 0.5267 0.4266
C4 C 0.9225(11) 0.3238(8) 0.2175(5)
C5 C 0.8872(11) 0.3434(8) 0.2879(5)
C6 C 0.8628(11) 0.2219(9) 0.1600(5)
C7 C 0.7252(12) 0.3043(10) 0.3827(5)
H8 H 0.8002 0.2848 0.4154
H9 H 0.6304 0.2573 0.3821
H10 H 0.7101 0.3898 0.3997
C8 C 0.7159(11) 0.1732(9) 0.2579(6)
C9 C 0.6969(11) 0.0349(8) 0.1351(5)
H11 H 0.7025 0.0418 0.0851
H12 H 0.5898 0.0229 0.1437
C10 C 0.7744(10) -0.0731(9) 0.1407(5)
C11 C 0.8794(11) -0.0678(9) 0.1964(5)
H13 H 0.9065 0.0061 0.2324
C12 C 0.9458(10) -0.1708(9) 0.2002(5)
H14 H 1.0173 -0.1667 0.2391
C13 C 0.9085(11) -0.2797(9) 0.1474(5)
H15 H 0.9550 -0.3497 0.1495
C14 C 0.8009(11) -0.2837(9) 0.0914(5)
C15 C 0.7344(10) -0.1810(9) 0.0891(5)
H16 H 0.6600 -0.1849 0.0515
C16 C 0.7533(11) -0.3983(8) 0.0341(5)
C17 C 0.7739(14) -0.6072(9) -0.0081(5)
H17 H 0.6652 -0.6226 -0.0082
H18 H 0.8238 -0.6699 0.0066
H19 H 0.8008 -0.6074 -0.0569
O5 O 0.3646(8) 0.6613(6) 0.1794(4)
O6 O 0.8171(8) 0.6138(7) 0.2816(4)
O7 O 0.2359(10) 0.0366(7) 0.1285(4)
O8 O 0.3697(8) 0.0923(6) 0.0467(4)
N5 N 0.5946(11) 0.9602(8) 0.3794(4)
N6 N 0.7907(10) 0.8652(9) 0.3882(5)
N7 N 0.4698(10) 0.8214(8) 0.2689(5)
N8 N 0.5935(9) 0.6394(7) 0.2299(4)
C18 C 0.7218(13) 0.9631(10) 0.4172(7)
H20 H 0.7587 1.0258 0.4589
C19 C 0.9386(12) 0.8331(12) 0.4090(7)
H21 H 1.0167 0.8794 0.3921
H22 H 0.9467 0.7474 0.3867
H23 H 0.9511 0.8511 0.4620
C20 C 0.4835(12) 1.0486(10) 0.4049(6)
H24 H 0.3932 1.0082 0.4168
H25 H 0.4575 1.0855 0.3665
H26 H 0.5261 1.1106 0.4483
C21 C 0.7002(13) 0.7991(10) 0.3268(5)
C22 C 0.5812(13) 0.8593(10) 0.3213(6)
C23 C 0.7172(12) 0.6760(11) 0.2806(6)
C24 C 0.3442(12) 0.8938(10) 0.2584(6)
H27 H 0.2783 0.9018 0.2984
H28 H 0.2872 0.8540 0.2122
H29 H 0.3846 0.9735 0.2578
C25 C 0.4714(12) 0.7045(8) 0.2237(5)
C26 C 0.5920(12) 0.5187(8) 0.1785(5)
H30 H 0.6967 0.4978 0.1718
H31 H 0.5473 0.5205 0.1307
C27 C 0.5064(11) 0.4213(9) 0.2020(5)
C28 C 0.4659(11) 0.4377(9) 0.2733(5)
H32 H 0.4947 0.5109 0.3096
C29 C 0.3837(11) 0.3464(9) 0.2907(6)
H33 H 0.3608 0.3563 0.3398
C30 C 0.3348(11) 0.2423(9) 0.2390(5)
H34 H 0.2729 0.1828 0.2513
C31 C 0.3767(11) 0.2243(8) 0.1679(5)
C32 C 0.4620(10) 0.3138(9) 0.1500(5)
H35 H 0.4904 0.3013 0.1016
C33 C 0.3292(12) 0.1149(9) 0.1081(5)
C34 C 0.1818(18) -0.0693(11) 0.0701(7)
H36 H 0.1339 -0.0449 0.0302
H37 H 0.1089 -0.1180 0.0882
H38 H 0.2662 -0.1162 0.0524
O9 O 0.6935(10) 0.6354(9) 0.4652(5)
loop_
_geom_bond_atom_site_label_1
_geom_bond_atom_site_label_2
_geom_bond_site_symmetry_1
_geom_bond_site_symmetry_2
O1 C6 1_555 1_555
O2 C8 1_555 1_555
O3 C16 1_555 1_555
O4 C16 1_555 1_555
N1 C1 1_555 1_555
N2 C1 1_555 1_555
N3 C5 1_555 1_555
N4 C6 1_555 1_555
C1 H1 1_555 1_555
C2 N1 1_555 1_555
H2 C2 1_555 1_555
H3 C2 1_555 1_555
H4 C2 1_555 1_555
C3 N2 1_555 1_555
H5 C3 1_555 1_555
H6 C3 1_555 1_555
H7 C3 1_555 1_555
C4 N1 1_555 1_555
C5 N2 1_555 1_555
C6 C4 1_555 1_555
C7 N3 1_555 1_555
H8 C7 1_555 1_555
H9 C7 1_555 1_555
H10 C7 1_555 1_555
C8 N3 1_555 1_555
C9 N4 1_555 1_555
H11 C9 1_555 1_555
H12 C9 1_555 1_555
C10 C9 1_555 1_555
C11 C10 1_555 1_555
H13 C11 1_555 1_555
C12 C11 1_555 1_555
H14 C12 1_555 1_555
C13 C12 1_555 1_555
H15 C13 1_555 1_555
C14 C13 1_555 1_555
C15 C10 1_555 1_555
H16 C15 1_555 1_555
C16 C14 1_555 1_555
C17 O3 1_555 1_555
H17 C17 1_555 1_555
H18 C17 1_555 1_555
H19 C17 1_555 1_555
O5 C25 1_555 1_555
O6 C23 1_555 1_555
O7 C33 1_555 1_555
O8 C33 1_555 1_555
N5 C18 1_555 1_555
N6 C18 1_555 1_555
N7 C22 1_555 1_555
N8 C23 1_555 1_555
C18 H20 1_555 1_555
C19 N6 1_555 1_555
H21 C19 1_555 1_555
H22 C19 1_555 1_555
H23 C19 1_555 1_555
C20 N5 1_555 1_555
H24 C20 1_555 1_555
H25 C20 1_555 1_555
H26 C20 1_555 1_555
C21 N6 1_555 1_555
C22 N5 1_555 1_555
C23 C21 1_555 1_555
C24 N7 1_555 1_555
H27 C24 1_555 1_555
H28 C24 1_555 1_555
H29 C24 1_555 1_555
C25 N7 1_555 1_555
C26 N8 1_555 1_555
H30 C26 1_555 1_555
H31 C26 1_555 1_555
C27 C26 1_555 1_555
C28 C27 1_555 1_555
H32 C28 1_555 1_555
C29 C28 1_555 1_555
H33 C29 1_555 1_555
C30 C29 1_555 1_555
H34 C30 1_555 1_555
C31 C30 1_555 1_555
C32 C27 1_555 1_555
H35 C32 1_555 1_555
C33 C31 1_555 1_555
C34 O7 1_555 1_555
H36 C34 1_555 1_555
H37 C34 1_555 1_555
H38 C34 1_555 1_555
N4 C8 1_555 1_555
C4 C5 1_555 1_555
C14 C15 1_555 1_555
N8 C25 1_555 1_555
C21 C22 1_555 1_555
C31 C32 1_555 1_555

#END
