
#######################################################################
#
#                 Cambridge Crystallographic Data Centre
#                                CCDC 
#
#######################################################################
#
# If this CIF has been generated from an entry in the Cambridge 
# Structural Database, then it will include bibliographic, chemical, 
# crystal, experimental, refinement or atomic coordinate data resulting 
# from the CCDC's data processing and validation procedures.
#
#######################################################################

data_PELKUN
_chemical_formula_moiety         'C12 H9 Cl1 N2 O1'
_chemical_name_systematic        N-Phenyl-2-chloronicotinamide
_symmetry_cell_setting           orthorhombic
_symmetry_space_group_name_H-M   'P c c n'
_symmetry_Int_Tables_number      56
_space_group_name_Hall           '-P 2ab 2ac'
loop_
_symmetry_equiv_pos_site_id
_symmetry_equiv_pos_as_xyz
1 x,y,z
2 1/2-x,1/2-y,z
3 1/2+x,-y,1/2-z
4 -x,1/2+y,1/2-z
5 -x,-y,-z
6 1/2+x,1/2+y,-z
7 1/2-x,y,1/2+z
8 x,1/2-y,1/2+z
_cell_length_a                   13.2296(6)
_cell_length_b                   21.0744(10)
_cell_length_c                   7.6898(16)
_cell_angle_alpha                90
_cell_angle_beta                 90
_cell_angle_gamma                90
_cell_volume                     2143.96
_exptl_crystal_colour            colorless
_exptl_crystal_description       needle
_chemical_melting_point          '395-397 K'
_cell_formula_units_Z            8
_exptl_crystal_recrystallization_method ethanol
loop_
_atom_site_label
_atom_site_type_symbol
_atom_site_fract_x
_atom_site_fract_y
_atom_site_fract_z
N1 N 0.25408(16) 0.57579(10) 0.9067(3)
C1 C 0.32767(18) 0.60070(12) 0.8111(4)
Cl1 Cl 0.31180(5) 0.68016(3) 0.75558(10)
C2 C 0.41523(18) 0.56871(12) 0.7615(3)
C3 C 0.42677(19) 0.50752(12) 0.8256(3)
C4 C 0.3523(2) 0.48067(13) 0.9271(3)
C5 C 0.2668(2) 0.51593(13) 0.9605(4)
C6 C 0.49778(19) 0.59498(12) 0.6469(4)
O1 O 0.58540(13) 0.59291(10) 0.6968(3)
N2 N 0.46640(16) 0.61551(10) 0.4897(3)
C7 C 0.52498(19) 0.64341(12) 0.3554(3)
C8 C 0.4731(2) 0.66828(13) 0.2137(4)
C9 C 0.5248(2) 0.69702(13) 0.0789(4)
C10 C 0.6292(2) 0.70101(13) 0.0842(4)
C11 C 0.6809(2) 0.67565(13) 0.2231(4)
C12 C 0.63023(19) 0.64704(12) 0.3598(4)
H1 H 0.4862 0.4841 0.7995
H2 H 0.3597 0.4390 0.9727
H3 H 0.2139 0.4967 1.0252
H4 H 0.4012 0.6125 0.4688
H5 H 0.4015 0.6655 0.2096
H6 H 0.4887 0.7140 -0.0173
H7 H 0.6650 0.7212 -0.0076
H8 H 0.7526 0.6778 0.2253
H9 H 0.6667 0.6301 0.4555
loop_
_geom_bond_atom_site_label_1
_geom_bond_atom_site_label_2
_geom_bond_site_symmetry_1
_geom_bond_site_symmetry_2
N1 C1 1_555 1_555
C1 Cl1 1_555 1_555
C2 C1 1_555 1_555
C3 C2 1_555 1_555
C4 C3 1_555 1_555
C5 N1 1_555 1_555
C6 C2 1_555 1_555
O1 C6 1_555 1_555
N2 C6 1_555 1_555
C7 N2 1_555 1_555
C8 C7 1_555 1_555
C9 C8 1_555 1_555
C10 C9 1_555 1_555
C11 C10 1_555 1_555
C12 C7 1_555 1_555
H1 C3 1_555 1_555
H2 C4 1_555 1_555
H3 C5 1_555 1_555
H4 N2 1_555 1_555
H5 C8 1_555 1_555
H6 C9 1_555 1_555
H7 C10 1_555 1_555
H8 C11 1_555 1_555
H9 C12 1_555 1_555
C4 C5 1_555 1_555
C11 C12 1_555 1_555

#END
