
#######################################################################
#
#                 Cambridge Crystallographic Data Centre
#                                CCDC 
#
#######################################################################
#
# If this CIF has been generated from an entry in the Cambridge 
# Structural Database, then it will include bibliographic, chemical, 
# crystal, experimental, refinement or atomic coordinate data resulting 
# from the CCDC's data processing and validation procedures.
#
#######################################################################

data_PELLAU
_chemical_formula_moiety         'C13 H11 Cl1 N2 O1'
_chemical_name_systematic        N-(4-Methylphenyl)-2-chloronicotinamide
_symmetry_cell_setting           triclinic
_symmetry_space_group_name_H-M   'P -1'
_symmetry_Int_Tables_number      2
_space_group_name_Hall           '-P 1'
loop_
_symmetry_equiv_pos_site_id
_symmetry_equiv_pos_as_xyz
1 x,y,z
2 -x,-y,-z
_cell_length_a                   9.6824(6)
_cell_length_b                   11.3082(7)
_cell_length_c                   11.5139(7)
_cell_angle_alpha                77.453(2)
_cell_angle_beta                 73.445(2)
_cell_angle_gamma                87.978(2)
_cell_volume                     1179.07
_exptl_crystal_colour            colorless
_exptl_crystal_description       needle
_chemical_melting_point          '432-433 K'
_cell_formula_units_Z            4
_exptl_crystal_recrystallization_method ethanol
loop_
_atom_site_label
_atom_site_type_symbol
_atom_site_fract_x
_atom_site_fract_y
_atom_site_fract_z
N1 N 0.86915(14) 0.73134(12) -0.08967(11)
C1 C 0.84419(15) 0.70831(13) 0.03187(12)
Cl1 Cl 0.83100(5) 0.55573(3) 0.10547(3)
C2 C 0.83069(14) 0.79583(13) 0.10341(12)
C3 C 0.83825(17) 0.91586(14) 0.04073(13)
C4 C 0.86423(18) 0.94293(14) -0.08708(13)
C5 C 0.88058(17) 0.84842(14) -0.14807(13)
C6 C 0.82579(15) 0.76179(13) 0.23844(12)
O1 O 0.93912(11) 0.74347(11) 0.26770(9)
N2 N 0.69517(13) 0.75458(11) 0.31986(10)
C7 C 0.66503(14) 0.71569(13) 0.45110(12)
C8 C 0.54054(15) 0.64547(14) 0.51422(13)
C9 C 0.50576(16) 0.60308(14) 0.64181(13)
C10 C 0.59492(16) 0.62974(14) 0.70977(12)
C11 C 0.71711(16) 0.70342(14) 0.64523(13)
C12 C 0.75349(15) 0.74657(14) 0.51730(13)
C13 C 0.56166(18) 0.57879(16) 0.84700(13)
H1 H 0.8257 0.9791 0.0850
H2 H 0.8707 1.0247 -0.1318
H3 H 0.9010 0.8674 -0.2359
H4 H 0.6227 0.7543 0.2879
H5 H 0.4787 0.6263 0.4696
H6 H 0.4201 0.5553 0.6836
H7 H 0.7774 0.7248 0.6901
H8 H 0.8375 0.7964 0.4756
H9 H 0.5336 0.4928 0.8650
H10 H 0.4824 0.6230 0.8913
H11 H 0.6473 0.5873 0.8741
N3 N 0.09859(14) 0.76364(12) 0.58897(11)
C14 C 0.17080(16) 0.79085(13) 0.47011(13)
Cl2 Cl 0.20022(5) 0.94486(3) 0.40386(4)
C15 C 0.22193(15) 0.70691(13) 0.39653(12)
C16 C 0.19083(15) 0.58576(13) 0.45303(13)
C17 C 0.11540(16) 0.55384(14) 0.57837(13)
C18 C 0.07258(16) 0.64550(14) 0.64210(13)
C19 C 0.31481(15) 0.74411(14) 0.26399(12)
O2 O 0.44343(12) 0.76878(14) 0.24022(10)
N4 N 0.24535(12) 0.74497(11) 0.17848(10)
C20 C 0.30028(14) 0.78264(13) 0.04773(12)
C21 C 0.21841(15) 0.75010(13) -0.02321(12)
C22 C 0.25670(16) 0.79412(14) -0.15074(13)
C23 C 0.37751(16) 0.87086(14) -0.21107(12)
C24 C 0.41532(19) 0.92274(16) -0.34831(13)
C25 C 0.46144(16) 0.89806(14) -0.13930(13)
C26 C 0.42436(15) 0.85517(14) -0.01134(12)
H12 H 0.2208 0.5249 0.4065
H13 H 0.0939 0.4713 0.6190
H14 H 0.0222 0.6238 0.7279
H15 H 0.1522 0.7281 0.2078
H16 H 0.1362 0.6976 0.0160
H17 H 0.1997 0.7717 -0.1978
H18 H 0.3280 0.9264 -0.3758
H19 H 0.4851 0.8711 -0.3923
H20 H 0.4575 1.0045 -0.3663
H21 H 0.5464 0.9473 -0.1790
H22 H 0.4832 0.8752 0.0354
loop_
_geom_bond_atom_site_label_1
_geom_bond_atom_site_label_2
_geom_bond_site_symmetry_1
_geom_bond_site_symmetry_2
N1 C1 1_555 1_555
C1 Cl1 1_555 1_555
C2 C1 1_555 1_555
C3 C2 1_555 1_555
C4 C3 1_555 1_555
C5 N1 1_555 1_555
C6 C2 1_555 1_555
O1 C6 1_555 1_555
N2 C6 1_555 1_555
C7 N2 1_555 1_555
C8 C7 1_555 1_555
C9 C8 1_555 1_555
C10 C9 1_555 1_555
C11 C10 1_555 1_555
C12 C7 1_555 1_555
C13 C10 1_555 1_555
N3 C14 1_555 1_555
C14 Cl2 1_555 1_555
C15 C14 1_555 1_555
C16 C15 1_555 1_555
C17 C16 1_555 1_555
C18 N3 1_555 1_555
C19 C15 1_555 1_555
O2 C19 1_555 1_555
N4 C19 1_555 1_555
C20 N4 1_555 1_555
C21 C20 1_555 1_555
C22 C21 1_555 1_555
C23 C22 1_555 1_555
C24 C23 1_555 1_555
C25 C23 1_555 1_555
C26 C20 1_555 1_555
H1 C3 1_555 1_555
H2 C4 1_555 1_555
H3 C5 1_555 1_555
H4 N2 1_555 1_555
H5 C8 1_555 1_555
H6 C9 1_555 1_555
H7 C11 1_555 1_555
H8 C12 1_555 1_555
H9 C13 1_555 1_555
H10 C13 1_555 1_555
H11 C13 1_555 1_555
H12 C16 1_555 1_555
H13 C17 1_555 1_555
H14 C18 1_555 1_555
H15 N4 1_555 1_555
H16 C21 1_555 1_555
H17 C22 1_555 1_555
H18 C24 1_555 1_555
H19 C24 1_555 1_555
H20 C24 1_555 1_555
H21 C25 1_555 1_555
H22 C26 1_555 1_555
C4 C5 1_555 1_555
C11 C12 1_555 1_555
C17 C18 1_555 1_555
C25 C26 1_555 1_555

#END
