
#######################################################################
#
#                 Cambridge Crystallographic Data Centre
#                                CCDC 
#
#######################################################################
#
# If this CIF has been generated from an entry in the Cambridge 
# Structural Database, then it will include bibliographic, chemical, 
# crystal, experimental, refinement or atomic coordinate data resulting 
# from the CCDC's data processing and validation procedures.
#
#######################################################################

data_PELLID
_chemical_formula_moiety         'C13 H13 Cl2 N2 O2 1+,I1 1-'
_chemical_name_systematic        
'4,5-Dichloro-1-(3-(methoxycarbonyl)benzyl)-3-methyl-1H-imidazol-3-ium iodide'
_symmetry_cell_setting           triclinic
_symmetry_space_group_name_H-M   'P -1'
_symmetry_Int_Tables_number      2
_space_group_name_Hall           '-P 1'
loop_
_symmetry_equiv_pos_site_id
_symmetry_equiv_pos_as_xyz
1 x,y,z
2 -x,-y,-z
_cell_length_a                   5.980(3)
_cell_length_b                   7.203(3)
_cell_length_c                   19.686(9)
_cell_angle_alpha                86.077(7)
_cell_angle_beta                 83.139(7)
_cell_angle_gamma                66.480(7)
_cell_volume                     771.738
_exptl_crystal_colour            colorless
_exptl_crystal_description       plate
_cell_formula_units_Z            2
loop_
_atom_site_label
_atom_site_type_symbol
_atom_site_fract_x
_atom_site_fract_y
_atom_site_fract_z
I1 I 0.97328(15) 0.69213(12) 0.10920(5)
Cl1 Cl 0.2691(6) 0.0190(5) 0.13656(17)
Cl2 Cl 0.4135(6) 0.1147(5) 0.29342(16)
O1 O 0.3105(17) 0.8181(15) 0.5221(5)
O2 O 0.7046(19) 0.6851(15) 0.4780(5)
N1 N 0.5405(19) 0.2423(15) 0.1039(5)
N2 N 0.619(2) 0.3103(16) 0.2007(6)
C1 C 0.649(2) 0.3399(17) 0.1328(6)
H1 H 0.7328 0.4172 0.1097
C2 C 0.432(2) 0.1543(19) 0.1532(6)
C3 C 0.482(2) 0.1927(18) 0.2140(7)
C4 C 0.541(2) 0.227(2) 0.0291(7)
H2 H 0.6253 0.3074 0.0045
H3 H 0.3713 0.2790 0.0174
H4 H 0.6254 0.0852 0.0160
C5 C 0.720(2) 0.393(2) 0.2514(7)
H5 H 0.8202 0.4619 0.2267
H6 H 0.8280 0.2795 0.2790
C6 C 0.517(2) 0.5407(19) 0.2985(6)
C7 C 0.278(2) 0.646(2) 0.2826(7)
H7 H 0.2352 0.6270 0.2393
C8 C 0.102(2) 0.776(2) 0.3275(8)
H8 H -0.0614 0.8445 0.3157
C9 C 0.162(2) 0.809(2) 0.3910(7)
H9 H 0.0401 0.8970 0.4228
C10 C 0.405(2) 0.7078(19) 0.4069(7)
C11 C 0.581(2) 0.574(2) 0.3621(7)
H10 H 0.7434 0.5041 0.3739
C12 C 0.463(3) 0.743(2) 0.4762(7)
C13 C 0.776(3) 0.717(2) 0.5426(8)
H11 H 0.6631 0.8488 0.5603
H12 H 0.9431 0.7123 0.5357
H13 H 0.7705 0.6097 0.5755
loop_
_geom_bond_atom_site_label_1
_geom_bond_atom_site_label_2
_geom_bond_site_symmetry_1
_geom_bond_site_symmetry_2
Cl1 C2 1_555 1_555
Cl2 C3 1_555 1_555
O1 C12 1_555 1_555
O2 C12 1_555 1_555
N1 C1 1_555 1_555
N2 C1 1_555 1_555
C1 H1 1_555 1_555
C2 N1 1_555 1_555
C3 N2 1_555 1_555
C4 N1 1_555 1_555
H2 C4 1_555 1_555
H3 C4 1_555 1_555
H4 C4 1_555 1_555
C5 N2 1_555 1_555
H5 C5 1_555 1_555
H6 C5 1_555 1_555
C6 C5 1_555 1_555
C7 C6 1_555 1_555
H7 C7 1_555 1_555
C8 C7 1_555 1_555
H8 C8 1_555 1_555
C9 C8 1_555 1_555
H9 C9 1_555 1_555
C10 C9 1_555 1_555
C11 C6 1_555 1_555
H10 C11 1_555 1_555
C12 C10 1_555 1_555
C13 O2 1_555 1_555
H11 C13 1_555 1_555
H12 C13 1_555 1_555
H13 C13 1_555 1_555
C2 C3 1_555 1_555
C10 C11 1_555 1_555

#END
