
#######################################################################
#
#                 Cambridge Crystallographic Data Centre
#                                CCDC 
#
#######################################################################
#
# If this CIF has been generated from an entry in the Cambridge 
# Structural Database, then it will include bibliographic, chemical, 
# crystal, experimental, refinement or atomic coordinate data resulting 
# from the CCDC's data processing and validation procedures.
#
#######################################################################

data_PELMID
_chemical_formula_moiety         'C14 H10 N4 O4'
_chemical_name_systematic        
(E,E)-1-(2-Nitrophenyl)-4-(3-nitrophenyl)-2,3-diaza-1,3-butadiene
_symmetry_cell_setting           monoclinic
_symmetry_space_group_name_H-M   'P 21'
_symmetry_Int_Tables_number      4
_space_group_name_Hall           'P 2yb'
loop_
_symmetry_equiv_pos_site_id
_symmetry_equiv_pos_as_xyz
1 x,y,z
2 -x,1/2+y,-z
_cell_length_a                   7.8036(2)
_cell_length_b                   7.0914(3)
_cell_length_c                   12.3424(4)
_cell_angle_alpha                90
_cell_angle_beta                 101.742(2)
_cell_angle_gamma                90
_cell_volume                     668.717
_exptl_crystal_colour            orange
_exptl_crystal_description       blade
_chemical_melting_point          '471-473 K'
_cell_formula_units_Z            2
_exptl_crystal_recrystallization_method methanol
loop_
_atom_site_label
_atom_site_type_symbol
_atom_site_fract_x
_atom_site_fract_y
_atom_site_fract_z
O1 O 0.7741(2) 0.6427(3) 0.03301(14)
O2 O 0.9832(2) 0.8362(4) 0.02160(15)
O3 O 0.4814(3) -0.5798(3) 0.45405(13)
O4 O 0.3223(2) -0.7467(3) 0.32540(16)
N1 N 0.7767(2) 0.2780(3) 0.26739(15)
N2 N 0.9066(2) 0.7306(3) 0.07464(16)
N3 N 0.6911(2) 0.1230(3) 0.20885(15)
N4 N 0.4115(2) -0.6066(3) 0.35745(17)
C1 C 0.9397(2) 0.5555(3) 0.25359(19)
C2 C 0.9748(3) 0.7147(4) 0.19415(19)
C3 C 1.0706(3) 0.8679(4) 0.2440(2)
C4 C 1.1331(3) 0.8666(4) 0.3577(2)
C5 C 1.1008(3) 0.7117(4) 0.4192(2)
C6 C 1.0079(3) 0.5606(4) 0.36847(19)
C7 C 0.8447(3) 0.3876(3) 0.20532(18)
C8 C 0.5404(2) -0.1642(3) 0.23476(17)
C9 C 0.5212(3) -0.3015(3) 0.31221(17)
C10 C 0.4325(3) -0.4645(3) 0.27564(18)
C11 C 0.3595(3) -0.4982(4) 0.16492(18)
C12 C 0.3778(3) -0.3598(4) 0.08904(17)
C13 C 0.4661(3) -0.1947(4) 0.12280(17)
C14 C 0.6356(3) 0.0081(3) 0.27403(18)
H1 H 1.0930 0.9724 0.2008
H2 H 1.1975 0.9710 0.3931
H3 H 1.1433 0.7102 0.4970
H4 H 0.9889 0.4556 0.4123
H5 H 0.8337 0.3604 0.1288
H6 H 0.5684 -0.2829 0.3887
H7 H 0.2991 -0.6124 0.1421
H8 H 0.3289 -0.3788 0.0128
H9 H 0.4766 -0.1007 0.0697
H10 H 0.6572 0.0360 0.3509
loop_
_geom_bond_atom_site_label_1
_geom_bond_atom_site_label_2
_geom_bond_site_symmetry_1
_geom_bond_site_symmetry_2
O1 N2 1_555 1_555
O2 N2 1_555 1_555
O3 N4 1_555 1_555
O4 N4 1_555 1_555
N1 N3 1_555 1_555
N2 C2 1_555 1_555
N3 C14 1_555 1_555
N4 C10 1_555 1_555
C1 C2 1_555 1_555
C2 C3 1_555 1_555
C3 C4 1_555 1_555
C4 C5 1_555 1_555
C5 C6 1_555 1_555
C6 C1 1_555 1_555
C7 N1 1_555 1_555
C8 C9 1_555 1_555
C9 C10 1_555 1_555
C10 C11 1_555 1_555
C11 C12 1_555 1_555
C12 C13 1_555 1_555
C13 C8 1_555 1_555
C14 C8 1_555 1_555
H1 C3 1_555 1_555
H2 C4 1_555 1_555
H3 C5 1_555 1_555
H4 C6 1_555 1_555
H5 C7 1_555 1_555
H6 C9 1_555 1_555
H7 C11 1_555 1_555
H8 C12 1_555 1_555
H9 C13 1_555 1_555
H10 C14 1_555 1_555
C1 C7 1_555 1_555

#END
