
#######################################################################
#
#                 Cambridge Crystallographic Data Centre
#                                CCDC 
#
#######################################################################
#
# If this CIF has been generated from an entry in the Cambridge 
# Structural Database, then it will include bibliographic, chemical, 
# crystal, experimental, refinement or atomic coordinate data resulting 
# from the CCDC's data processing and validation procedures.
#
#######################################################################

data_PELMAV
_chemical_formula_moiety         'C13 H11 Cl1 N2 O2'
_chemical_name_systematic        N-(4-Methoxyphenyl)-2-chloronicotinamide
_symmetry_cell_setting           orthorhombic
_symmetry_space_group_name_H-M   'P 21 21 21'
_symmetry_Int_Tables_number      19
_space_group_name_Hall           'P 2ac 2ab'
loop_
_symmetry_equiv_pos_site_id
_symmetry_equiv_pos_as_xyz
1 x,y,z
2 1/2-x,-y,1/2+z
3 -x,1/2+y,1/2-z
4 1/2+x,1/2-y,-z
_cell_length_a                   4.8536(2)
_cell_length_b                   11.8437(4)
_cell_length_c                   21.0612(7)
_cell_angle_alpha                90
_cell_angle_beta                 90
_cell_angle_gamma                90
_cell_volume                     1210.69
_exptl_crystal_colour            colorless
_exptl_crystal_description       block
_chemical_melting_point          '383-384 K'
_cell_formula_units_Z            4
_exptl_crystal_recrystallization_method ethanol
loop_
_atom_site_label
_atom_site_type_symbol
_atom_site_fract_x
_atom_site_fract_y
_atom_site_fract_z
N1 N 0.2528(4) 0.42072(18) 0.20676(9)
C1 C 0.3347(4) 0.3434(2) 0.24770(10)
Cl1 Cl 0.56547(12) 0.24507(5) 0.21709(3)
C2 C 0.2436(4) 0.33534(18) 0.31091(9)
C3 C 0.0515(4) 0.41567(19) 0.33018(10)
C4 C -0.0354(5) 0.4982(2) 0.28822(11)
C5 C 0.0687(5) 0.4970(2) 0.22747(11)
C6 C 0.3486(4) 0.24784(19) 0.35626(9)
O1 O 0.5965(3) 0.22805(14) 0.36182(7)
N2 N 0.1514(4) 0.19607(16) 0.39034(8)
C7 C 0.1969(4) 0.11043(18) 0.43713(9)
C8 C 0.0365(5) 0.1129(2) 0.49195(10)
C9 C 0.0673(5) 0.0297(2) 0.53731(10)
C10 C 0.2577(5) -0.0565(2) 0.52849(9)
O2 O 0.2684(3) -0.13507(14) 0.57646(7)
C11 C 0.4823(5) -0.2180(2) 0.57344(11)
C12 C 0.4176(5) -0.0590(2) 0.47362(10)
C13 C 0.3853(4) 0.02478(19) 0.42806(10)
H1 H -0.0200 0.4138 0.3722
H2 H -0.1638 0.5543 0.3011
H3 H 0.0070 0.5532 0.1986
H4 H -0.0202 0.2166 0.3833
H5 H -0.0939 0.1717 0.4981
H6 H -0.0421 0.0314 0.5747
H7 H 0.4653 -0.2610 0.5339
H8 H 0.4660 -0.2694 0.6097
H9 H 0.6622 -0.1805 0.5747
H10 H 0.5482 -0.1177 0.4674
H11 H 0.4934 0.0230 0.3905
loop_
_geom_bond_atom_site_label_1
_geom_bond_atom_site_label_2
_geom_bond_site_symmetry_1
_geom_bond_site_symmetry_2
N1 C1 1_555 1_555
C1 Cl1 1_555 1_555
C2 C1 1_555 1_555
C3 C2 1_555 1_555
C4 C3 1_555 1_555
C5 N1 1_555 1_555
C6 C2 1_555 1_555
O1 C6 1_555 1_555
N2 C6 1_555 1_555
C7 N2 1_555 1_555
C8 C7 1_555 1_555
C9 C8 1_555 1_555
C10 C9 1_555 1_555
O2 C10 1_555 1_555
C11 O2 1_555 1_555
C12 C10 1_555 1_555
C13 C7 1_555 1_555
H1 C3 1_555 1_555
H2 C4 1_555 1_555
H3 C5 1_555 1_555
H4 N2 1_555 1_555
H5 C8 1_555 1_555
H6 C9 1_555 1_555
H7 C11 1_555 1_555
H8 C11 1_555 1_555
H9 C11 1_555 1_555
H10 C12 1_555 1_555
H11 C13 1_555 1_555
C4 C5 1_555 1_555
C12 C13 1_555 1_555

#END
