
#######################################################################
#
#                 Cambridge Crystallographic Data Centre
#                                CCDC 
#
#######################################################################
#
# If this CIF has been generated from an entry in the Cambridge 
# Structural Database, then it will include bibliographic, chemical, 
# crystal, experimental, refinement or atomic coordinate data resulting 
# from the CCDC's data processing and validation procedures.
#
#######################################################################

data_PELNOK
_chemical_formula_moiety         'C16 H16 N2 O2'
_chemical_name_systematic        N,N'-bis(4-Methylphenyl)oxamide
_symmetry_cell_setting           triclinic
_symmetry_space_group_name_H-M   'P -1'
_symmetry_Int_Tables_number      2
_space_group_name_Hall           '-P 1'
loop_
_symmetry_equiv_pos_site_id
_symmetry_equiv_pos_as_xyz
1 x,y,z
2 -x,-y,-z
_cell_length_a                   5.3504(13)
_cell_length_b                   6.7371(17)
_cell_length_c                   10.228(3)
_cell_angle_alpha                99.582(4)
_cell_angle_beta                 96.152(4)
_cell_angle_gamma                106.527(4)
_cell_volume                     343.83
_exptl_crystal_colour            colorless
_exptl_crystal_description       plate
_cell_formula_units_Z            1
_exptl_crystal_recrystallization_method DMF
loop_
_atom_site_label
_atom_site_type_symbol
_atom_site_fract_x
_atom_site_fract_y
_atom_site_fract_z
O1 O -0.2945(2) 0.3661(2) 0.04882(14)
N1 N 0.1213(3) 0.3400(2) 0.09497(16)
H1 H 0.2807 0.3942 0.0824
C1 C 0.2966(4) 0.1737(4) 0.2557(2)
H2 H 0.4593 0.2759 0.2632
C2 C 0.2722(5) 0.0162(4) 0.3290(2)
H3 H 0.4200 0.0138 0.3847
C3 C 0.0348(4) -0.1369(3) 0.32151(19)
C4 C -0.1774(4) -0.1273(3) 0.2366(2)
H4 H -0.3404 -0.2292 0.2293
C5 C -0.1573(4) 0.0278(3) 0.1621(2)
H5 H -0.3045 0.0293 0.1055
C6 C 0.0817(4) 0.1802(3) 0.17189(17)
C7 C -0.0598(4) 0.4160(3) 0.03983(17)
C8 C 0.0099(6) -0.3095(4) 0.4012(2)
H6 H 0.1778 -0.2896 0.4541
H7 H -0.0456 -0.4449 0.3407
H8 H -0.1184 -0.3037 0.4594
O1A O 0.2945(2) 0.6339(2) -0.04882(14)
N1A N -0.1213(3) 0.6600(2) -0.09497(16)
H1A H -0.2807 0.6058 -0.0824
C1A C -0.2966(4) 0.8263(4) -0.2557(2)
H2A H -0.4593 0.7241 -0.2632
C2A C -0.2722(5) 0.9838(4) -0.3290(2)
H3A H -0.4200 0.9862 -0.3847
C3A C -0.0348(4) 1.1369(3) -0.32151(19)
C4A C 0.1774(4) 1.1273(3) -0.2366(2)
H4A H 0.3404 1.2292 -0.2293
C5A C 0.1573(4) 0.9722(3) -0.1621(2)
H5A H 0.3045 0.9707 -0.1055
C6A C -0.0817(4) 0.8198(3) -0.17189(17)
C7A C 0.0598(4) 0.5840(3) -0.03983(17)
C8A C -0.0099(6) 1.3095(4) -0.4012(2)
H6A H -0.1778 1.2896 -0.4541
H7A H 0.0456 1.4449 -0.3407
H8A H 0.1184 1.3037 -0.4594
loop_
_geom_bond_atom_site_label_1
_geom_bond_atom_site_label_2
_geom_bond_site_symmetry_1
_geom_bond_site_symmetry_2
O1 C7 1_555 1_555
N1 H1 1_555 1_555
C1 H2 1_555 1_555
C2 C1 1_555 1_555
H3 C2 1_555 1_555
C3 C2 1_555 1_555
C4 C3 1_555 1_555
H4 C4 1_555 1_555
C5 C4 1_555 1_555
H5 C5 1_555 1_555
C6 N1 1_555 1_555
C7 N1 1_555 1_555
C8 C3 1_555 1_555
H6 C8 1_555 1_555
H7 C8 1_555 1_555
H8 C8 1_555 1_555
O1A C7A 1_555 1_555
N1A H1A 1_555 1_555
C1A H2A 1_555 1_555
C2A C1A 1_555 1_555
H3A C2A 1_555 1_555
C3A C2A 1_555 1_555
C4A C3A 1_555 1_555
H4A C4A 1_555 1_555
C5A C4A 1_555 1_555
H5A C5A 1_555 1_555
C6A N1A 1_555 1_555
C7A C7 1_555 1_555
C8A C3A 1_555 1_555
H6A C8A 1_555 1_555
H7A C8A 1_555 1_555
H8A C8A 1_555 1_555
C1 C6 1_555 1_555
C5 C6 1_555 1_555
N1A C7A 1_555 1_555
C1A C6A 1_555 1_555
C5A C6A 1_555 1_555

#END
