
#######################################################################
#
#                 Cambridge Crystallographic Data Centre
#                                CCDC 
#
#######################################################################
#
# If this CIF has been generated from an entry in the Cambridge 
# Structural Database, then it will include bibliographic, chemical, 
# crystal, experimental, refinement or atomic coordinate data resulting 
# from the CCDC's data processing and validation procedures.
#
#######################################################################

data_PELPUR
_chemical_formula_moiety         'C22 H26 N2 O5'
_chemical_name_systematic        
4-(2-Acetoxy-4-nitrophenylimino)-2,6-di-t-butyl-2,5-cyclohexadien-1-one
_symmetry_cell_setting           monoclinic
_symmetry_space_group_name_H-M   'P 21'
_symmetry_Int_Tables_number      4
_space_group_name_Hall           'P 2yb'
loop_
_symmetry_equiv_pos_site_id
_symmetry_equiv_pos_as_xyz
1 x,y,z
2 -x,1/2+y,-z
_cell_length_a                   10.816(3)
_cell_length_b                   9.810(2)
_cell_length_c                   11.542(2)
_cell_angle_alpha                90
_cell_angle_beta                 117.31(2)
_cell_angle_gamma                90
_cell_volume                     1088.16
_cell_formula_units_Z            2
loop_
_atom_site_label
_atom_site_type_symbol
_atom_site_fract_x
_atom_site_fract_y
_atom_site_fract_z
O1 O 0.8371(4) 0.6027 0.1645(3)
O2 O 0.5371(3) 0.2412(4) -0.4693(3)
O3 O 0.6545(5) 0.1453(8) -0.2765(5)
O4 O 0.0979(5) -0.0161(5) -0.6140(5)
O5 O -0.0125(3) 0.0777(4) -0.5199(4)
N1 N 0.5128(3) 0.4603(3) -0.3320(2)
N2 N 0.0883(3) 0.0696(4) -0.5422(4)
C1 C 0.7657(4) 0.5664(4) 0.0505(3)
C2 C 0.7637(3) 0.6484(4) -0.0591(3)
C3 C 0.6795(4) 0.6063(4) -0.1815(3)
C4 C 0.5922(3) 0.4852(3) -0.2086(3)
C5 C 0.6006(3) 0.4034(3) -0.1016(3)
C6 C 0.6820(3) 0.4389(4) 0.0237(3)
C7 C 0.6886(4) 0.3547(5) 0.1388(3)
C8 C 0.6031(6) 0.2243(5) 0.0910(5)
C9 C 0.8405(5) 0.3163(8) 0.2325(5)
C10 C 0.6239(6) 0.4403(7) 0.2112(4)
C11 C 0.8535(4) 0.7776(4) -0.0300(4)
C12 C 0.8350(7) 0.8442(6) -0.1563(6)
C13 C 1.0071(5) 0.7400(6) 0.0491(7)
C14 C 0.8128(7) 0.8795(6) 0.0489(7)
C15 C 0.4122(3) 0.3569(4) -0.3720(3)
C16 C 0.2909(4) 0.3696(4) -0.3590(4)
C17 C 0.1841(4) 0.2761(4) -0.4155(4)
C18 C 0.2009(3) 0.1688(4) -0.4825(3)
C19 C 0.3193(4) 0.1518(4) -0.4984(3)
C20 C 0.4239(4) 0.2466(4) -0.4434(3)
C21 C 0.6423(6) 0.1795(6) -0.3790(5)
C22 C 0.7618(5) 0.1668(7) -0.4193(6)
loop_
_geom_bond_atom_site_label_1
_geom_bond_atom_site_label_2
_geom_bond_site_symmetry_1
_geom_bond_site_symmetry_2
O1 C1 1_555 1_555
O2 C20 1_555 1_555
O3 C21 1_555 1_555
O4 N2 1_555 1_555
O5 N2 1_555 1_555
N1 C4 1_555 1_555
N2 C18 1_555 1_555
C1 C2 1_555 1_555
C2 C3 1_555 1_555
C3 C4 1_555 1_555
C4 C5 1_555 1_555
C5 C6 1_555 1_555
C6 C1 1_555 1_555
C7 C6 1_555 1_555
C8 C7 1_555 1_555
C9 C7 1_555 1_555
C10 C7 1_555 1_555
C11 C2 1_555 1_555
C12 C11 1_555 1_555
C13 C11 1_555 1_555
C14 C11 1_555 1_555
C15 N1 1_555 1_555
C16 C15 1_555 1_555
C17 C16 1_555 1_555
C18 C17 1_555 1_555
C19 C18 1_555 1_555
C20 C15 1_555 1_555
C21 O2 1_555 1_555
C22 C21 1_555 1_555
C19 C20 1_555 1_555

#END
