
#######################################################################
#
#                 Cambridge Crystallographic Data Centre
#                                CCDC 
#
#######################################################################
#
# If this CIF has been generated from an entry in the Cambridge 
# Structural Database, then it will include bibliographic, chemical, 
# crystal, experimental, refinement or atomic coordinate data resulting 
# from the CCDC's data processing and validation procedures.
#
#######################################################################

data_PELPOL
_chemical_formula_moiety         'C23 H28 N2 O4'
_chemical_name_systematic        
4-(2-Allyloxy-5-nitrophenylimino)-2,6-di-t-butyl-2,5-cyclohexadien-1-one
_symmetry_cell_setting           monoclinic
_symmetry_space_group_name_H-M   'P 21/n'
_symmetry_Int_Tables_number      14
_space_group_name_Hall           '-P 2yn'
loop_
_symmetry_equiv_pos_site_id
_symmetry_equiv_pos_as_xyz
1 x,y,z
2 1/2-x,1/2+y,1/2-z
3 -x,-y,-z
4 1/2+x,1/2-y,1/2+z
_cell_length_a                   12.136(2)
_cell_length_b                   11.8833(1)
_cell_length_c                   15.619(1)
_cell_angle_alpha                90
_cell_angle_beta                 91.69(1)
_cell_angle_gamma                90
_cell_volume                     2251.53
_cell_formula_units_Z            4
loop_
_atom_site_label
_atom_site_type_symbol
_atom_site_fract_x
_atom_site_fract_y
_atom_site_fract_z
O1 O 0.2863(3) 0.2011(4) -0.3235(2)
O2 O 0.1552(2) 0.1136(2) 0.0193(1)
O3 O 0.1553(3) -0.4042(3) 0.0765(2)
O4 O 0.2239(4) -0.3511(3) 0.1985(1)
N1 N 0.0905(2) -0.0532(2) -0.0909(2)
N2 N 0.1859(3) -0.3328(3) 0.1261(2)
C1 C 0.1451(3) 0.0047(3) -0.1458(2)
C2 C 0.2595(3) 0.0386(3) -0.1363(2)
C3 C 0.3098(3) 0.1024(3) -0.1938(2)
C4 C 0.2434(4) 0.1408(3) -0.2707(2)
C5 C 0.1271(3) 0.1032(3) -0.2836(2)
C6 C 0.0846(3) 0.0378(3) -0.2237(2)
C7 C 0.4303(3) 0.1376(3) -0.1844(2)
C8 C 0.4390(4) 0.2650(4) -0.1814(4)
C9 C 0.4946(4) 0.0853(7) -0.2571(3)
C10 C 0.4832(3) 0.0927(4) -0.1021(3)
C11 C 0.0629(3) 0.1435(3) -0.3627(3)
C12 C 0.0535(6) 0.2699(4) -0.3633(4)
C13 C -0.0535(4) 0.0938(4) -0.3663(2)
C14 C 0.1171(4) 0.1048(5) -0.4440(2)
C15 C 0.1374(3) -0.0782(3) -0.0088(2)
C16 C 0.1659(3) 0.0072(3) 0.0492(3)
C17 C 0.2017(3) -0.0211(4) 0.1330(2)
C18 C 0.2085(3) -0.1327(4) 0.1562(2)
C19 C 0.1793(3) -0.2139(3) 0.0996(2)
C20 C 0.1416(3) -0.1890(3) 0.0170(3)
C21 C 0.1678(4) 0.2043(4) 0.0779(3)
C22 C 0.1531(4) 0.3107(4) 0.0334(3)
C23 C 0.1333(5) 0.3248(4) -0.0464(4)
loop_
_geom_bond_atom_site_label_1
_geom_bond_atom_site_label_2
_geom_bond_site_symmetry_1
_geom_bond_site_symmetry_2
O1 C4 1_555 1_555
O2 C16 1_555 1_555
O3 N2 1_555 1_555
O4 N2 1_555 1_555
N1 C1 1_555 1_555
N2 C19 1_555 1_555
C1 C2 1_555 1_555
C2 C3 1_555 1_555
C3 C4 1_555 1_555
C4 C5 1_555 1_555
C5 C6 1_555 1_555
C6 C1 1_555 1_555
C7 C3 1_555 1_555
C8 C7 1_555 1_555
C9 C7 1_555 1_555
C10 C7 1_555 1_555
C11 C5 1_555 1_555
C12 C11 1_555 1_555
C13 C11 1_555 1_555
C14 C11 1_555 1_555
C15 N1 1_555 1_555
C16 C15 1_555 1_555
C17 C16 1_555 1_555
C18 C17 1_555 1_555
C19 C18 1_555 1_555
C20 C15 1_555 1_555
C21 O2 1_555 1_555
C22 C21 1_555 1_555
C23 C22 1_555 1_555
C19 C20 1_555 1_555

#END
