
#######################################################################
#
#                 Cambridge Crystallographic Data Centre
#                                CCDC 
#
#######################################################################
#
# If this CIF has been generated from an entry in the Cambridge 
# Structural Database, then it will include bibliographic, chemical, 
# crystal, experimental, refinement or atomic coordinate data resulting 
# from the CCDC's data processing and validation procedures.
#
#######################################################################

data_PELSIL
_chemical_formula_moiety         'C144 H144 N16,C1 H1 Cl3'
_chemical_name_systematic        
'1^2^,1^4^,1^6^,13^2^,13^4^,13^6^,25^2^,25^4^,25^6^,37^2^,37^4^,37^6^-dodecamethyl-4,7,10,16,19,22,28,31,34,40,43,46,51,56,61,66-hexadecaaza-1,13,25,37(1,3,5),2,12,14,24,26,36,38,48,49,58,59,64(1,4)-hexadecabenzenapentacyclo[29.17.5.5^7,25^.5^13,43^.5^19,37^]octahexaconta-3,10,15,22,27,34,39,46,50,56,60,65-dodecaene chloroform unknown solvate'
_symmetry_cell_setting           orthorhombic
_symmetry_space_group_name_H-M   'I 2 2 2'
_symmetry_Int_Tables_number      23
_space_group_name_Hall           'I 2 2'
loop_
_symmetry_equiv_pos_site_id
_symmetry_equiv_pos_as_xyz
1 x,y,z
2 -x,-y,z
3 x,-y,-z
4 -x,y,-z
5 1/2+x,1/2+y,1/2+z
6 1/2-x,1/2-y,1/2+z
7 1/2+x,1/2-y,1/2-z
8 1/2-x,1/2+y,1/2-z
_cell_length_a                   13.1251(7)
_cell_length_b                   18.8691(8)
_cell_length_c                   31.1769(13)
_cell_angle_alpha                90
_cell_angle_beta                 90
_cell_angle_gamma                90
_cell_volume                     7721.23
_exptl_crystal_colour            colorless
_exptl_crystal_description       block
_cell_formula_units_Z            2
loop_
_atom_site_label
_atom_site_type_symbol
_atom_site_fract_x
_atom_site_fract_y
_atom_site_fract_z
N1 N -0.2690(5) 0.7790(3) 0.72844(17)
C1 C -0.0827(5) 0.7597(3) 0.6787(2)
H1 H -0.087585 0.803356 0.693780
N2 N 0.3935(5) 0.1177(3) 0.6067(2)
C2 C 0.3032(5) 0.5121(3) 0.6088(2)
N3 N 0.4794(4) 0.1688(3) 0.69352(18)
C3 C -0.1561(5) 0.6506(4) 0.6560(2)
H2 H -0.210710 0.617535 0.656545
C4 C 0.4183(5) 0.3886(4) 0.6238(2)
C5 C -0.2569(5) 0.7252(4) 0.7037(2)
H3 H -0.310729 0.691737 0.701247
C6 C 0.3567(5) 0.5023(4) 0.6473(2)
H4 H 0.355915 0.538440 0.668521
C7 C 0.0156(5) 0.6809(4) 0.6334(2)
C8 C 0.4113(5) 0.4395(4) 0.6549(2)
H5 H 0.443634 0.432356 0.681810
N4 N 0.5438(4) 0.3169(3) 0.66053(19)
C9 C 0.1356(6) 0.5571(4) 0.6610(2)
H6 H 0.165224 0.576264 0.687467
H7 H 0.159707 0.508533 0.656661
H8 H 0.061118 0.557189 0.663369
C10 C 0.0052(6) 0.7437(4) 0.6567(2)
H9 H 0.060415 0.776235 0.657367
C11 C 0.2830(5) 0.6189(4) 0.5633(2)
C12 C 0.3632(5) 0.3978(4) 0.5865(2)
H10 H 0.365274 0.361688 0.565255
C13 C 0.2169(5) 0.2464(4) 0.5613(2)
H11 H 0.173174 0.250173 0.585453
C14 C -0.0688(5) 0.6358(4) 0.6321(2)
H12 H -0.066747 0.594549 0.614632
C15 C 0.2293(5) 0.6806(4) 0.5504(2)
C16 C 0.3008(5) 0.2016(4) 0.5627(2)
C17 C -0.1638(5) 0.7133(4) 0.6791(2)
C18 C 0.4834(5) 0.3250(4) 0.6299(2)
H13 H 0.478953 0.288177 0.609166
C19 C 0.1109(5) 0.6620(4) 0.6105(2)
C20 C 0.3184(6) 0.1586(4) 0.6017(2)
H14 H 0.270148 0.162013 0.624275
C21 C 0.4977(6) 0.1027(4) 0.6699(2)
H15 H 0.517636 0.064849 0.690176
H16 H 0.554349 0.109686 0.649342
C22 C -0.3675(6) 0.7851(4) 0.7512(2)
H17 H -0.354543 0.791921 0.782259
H18 H -0.406338 0.740556 0.747682
C23 C 0.3769(5) 0.5986(4) 0.5388(2)
H19 H 0.358837 0.564449 0.516345
H20 H 0.426424 0.577019 0.558385
H21 H 0.406813 0.640893 0.525640
C24 C 0.5764(6) 0.2077(5) 0.7006(3)
H22 H 0.631794 0.173535 0.706641
H23 H 0.569292 0.239292 0.725813
C25 C 0.4031(6) 0.0804(4) 0.6458(2)
H24 H 0.406331 0.028864 0.639885
H25 H 0.342403 0.089386 0.663838
C26 C 0.3066(5) 0.4562(4) 0.57901(19)
H26 H 0.268268 0.459533 0.553233
C27 C 0.4305(6) 0.1535(4) 0.7346(2)
H27 H 0.483554 0.141697 0.755978
H28 H 0.385943 0.111521 0.731272
C28 C 0.2486(6) 0.5781(4) 0.5987(2)
C29 C 0.2569(5) 0.7203(4) 0.5114(2)
C30 C 0.1969(5) 0.2851(4) 0.5253(2)
H29 H 0.140423 0.316547 0.525245
C31 C 0.1439(5) 0.7028(5) 0.5749(2)
C32 C 0.6033(6) 0.2513(4) 0.6614(3)
H30 H 0.676889 0.262860 0.661934
H31 H 0.589351 0.223399 0.635198
C33 C 0.0816(6) 0.7664(4) 0.5611(3)
H32 H 0.117159 0.809977 0.569326
H33 H 0.014847 0.764887 0.575234
H34 H 0.072271 0.765412 0.529953
C34 C 0.1676(5) 0.6027(4) 0.6234(2)
C35 C 0.3411(6) 0.2338(4) 0.4902(2)
H35 H 0.385071 0.229406 0.466114
C36 C 0.3591(6) 0.1962(4) 0.5257(2)
H36 H 0.414823 0.164077 0.525684
N1A N 0.2690(5) 0.2210(3) 0.72844(17)
C1A C 0.0827(5) 0.2403(3) 0.6787(2)
H1A H 0.087585 0.196644 0.693780
N2A N -0.3935(5) 0.8823(3) 0.6067(2)
C2A C -0.3032(5) 0.4879(3) 0.6088(2)
N3A N -0.4794(4) 0.8312(3) 0.69352(18)
C3A C 0.1561(5) 0.3494(4) 0.6560(2)
H2A H 0.210710 0.382465 0.656545
C4A C -0.4183(5) 0.6114(4) 0.6238(2)
C5A C 0.2569(5) 0.2748(4) 0.7037(2)
H3A H 0.310729 0.308263 0.701247
C6A C -0.3567(5) 0.4977(4) 0.6473(2)
H4A H -0.355915 0.461560 0.668521
C7A C -0.0156(5) 0.3191(4) 0.6334(2)
C8A C -0.4113(5) 0.5605(4) 0.6549(2)
H5A H -0.443634 0.567644 0.681810
N4A N -0.5438(4) 0.6831(3) 0.66053(19)
C9A C -0.1356(6) 0.4429(4) 0.6610(2)
H6A H -0.165224 0.423736 0.687467
H7A H -0.159707 0.491467 0.656661
H8A H -0.061118 0.442811 0.663369
C10A C -0.0052(6) 0.2563(4) 0.6567(2)
H9A H -0.060415 0.223765 0.657367
C11A C -0.2830(5) 0.3811(4) 0.5633(2)
C12A C -0.3632(5) 0.6022(4) 0.5865(2)
H10A H -0.365274 0.638312 0.565255
C13A C -0.2169(5) 0.7536(4) 0.5613(2)
H11A H -0.173174 0.749827 0.585453
C14A C 0.0688(5) 0.3642(4) 0.6321(2)
H12A H 0.066747 0.405451 0.614632
C15A C -0.2293(5) 0.3194(4) 0.5504(2)
C16A C -0.3008(5) 0.7984(4) 0.5627(2)
C17A C 0.1638(5) 0.2867(4) 0.6791(2)
C18A C -0.4834(5) 0.6750(4) 0.6299(2)
H13A H -0.478953 0.711823 0.609166
C19A C -0.1109(5) 0.3380(4) 0.6105(2)
C20A C -0.3184(6) 0.8414(4) 0.6017(2)
H14A H -0.270148 0.837987 0.624275
C21A C -0.4977(6) 0.8973(4) 0.6699(2)
H15A H -0.517636 0.935151 0.690176
H16A H -0.554349 0.890314 0.649342
C22A C 0.3675(6) 0.2149(4) 0.7512(2)
H17A H 0.354543 0.208079 0.782259
H18A H 0.406338 0.259444 0.747682
C23A C -0.3769(5) 0.4014(4) 0.5388(2)
H19A H -0.358837 0.435551 0.516345
H20A H -0.426424 0.422981 0.558385
H21A H -0.406813 0.359107 0.525640
C24A C -0.5764(6) 0.7923(5) 0.7006(3)
H22A H -0.631794 0.826465 0.706641
H23A H -0.569292 0.760708 0.725813
C25A C -0.4031(6) 0.9196(4) 0.6458(2)
H24A H -0.406331 0.971136 0.639885
H25A H -0.342403 0.910614 0.663838
C26A C -0.3066(5) 0.5438(4) 0.57901(19)
H26A H -0.268268 0.540467 0.553233
C27A C -0.4305(6) 0.8465(4) 0.7346(2)
H27A H -0.483554 0.858303 0.755978
H28A H -0.385943 0.888479 0.731272
C28A C -0.2486(6) 0.4219(4) 0.5987(2)
C29A C -0.2569(5) 0.2797(4) 0.5114(2)
C30A C -0.1969(5) 0.7149(4) 0.5253(2)
H29A H -0.140423 0.683453 0.525245
C31A C -0.1439(5) 0.2972(5) 0.5749(2)
C32A C -0.6033(6) 0.7487(4) 0.6614(3)
H30A H -0.676889 0.737140 0.661934
H31A H -0.589351 0.776601 0.635198
C33A C -0.0816(6) 0.2336(4) 0.5611(3)
H32A H -0.117159 0.190023 0.569326
H33A H -0.014847 0.235113 0.575234
H34A H -0.072271 0.234588 0.529953
C34A C -0.1676(5) 0.3973(4) 0.6234(2)
C35A C -0.3411(6) 0.7662(4) 0.4902(2)
H35A H -0.385071 0.770594 0.466114
C36A C -0.3591(6) 0.8038(4) 0.5257(2)
H36A H -0.414823 0.835923 0.525684
N1B N -0.2690(5) 0.2210(3) 0.27156(17)
C1B C -0.0827(5) 0.2403(3) 0.3213(2)
H1B H -0.087585 0.196644 0.306220
N2B N 0.3935(5) 0.8823(3) 0.3933(2)
C2B C 0.3032(5) 0.4879(3) 0.3912(2)
N3B N 0.4794(4) 0.8312(3) 0.30648(18)
C3B C -0.1561(5) 0.3494(4) 0.3440(2)
H2B H -0.210710 0.382465 0.343455
C4B C 0.4183(5) 0.6114(4) 0.3762(2)
C5B C -0.2569(5) 0.2748(4) 0.2963(2)
H3B H -0.310729 0.308263 0.298753
C6B C 0.3567(5) 0.4977(4) 0.3527(2)
H4B H 0.355915 0.461560 0.331479
C7B C 0.0156(5) 0.3191(4) 0.3666(2)
C8B C 0.4113(5) 0.5605(4) 0.3451(2)
H5B H 0.443634 0.567644 0.318190
N4B N 0.5438(4) 0.6831(3) 0.33947(19)
C9B C 0.1356(6) 0.4429(4) 0.3390(2)
H6B H 0.165224 0.423736 0.312533
H7B H 0.159707 0.491467 0.343339
H8B H 0.061118 0.442811 0.336631
C10B C 0.0052(6) 0.2563(4) 0.3433(2)
H9B H 0.060415 0.223765 0.342633
C11B C 0.2830(5) 0.3811(4) 0.4367(2)
C12B C 0.3632(5) 0.6022(4) 0.4135(2)
H10B H 0.365274 0.638312 0.434745
C13B C 0.2169(5) 0.7536(4) 0.4387(2)
H11B H 0.173174 0.749827 0.414547
C14B C -0.0688(5) 0.3642(4) 0.3679(2)
H12B H -0.066747 0.405451 0.385368
C15B C 0.2293(5) 0.3194(4) 0.4496(2)
C16B C 0.3008(5) 0.7984(4) 0.4373(2)
C17B C -0.1638(5) 0.2867(4) 0.3209(2)
C18B C 0.4834(5) 0.6750(4) 0.3701(2)
H13B H 0.478953 0.711823 0.390834
C19B C 0.1109(5) 0.3380(4) 0.3895(2)
C20B C 0.3184(6) 0.8414(4) 0.3983(2)
H14B H 0.270148 0.837987 0.375725
C21B C 0.4977(6) 0.8973(4) 0.3301(2)
H15B H 0.517636 0.935151 0.309824
H16B H 0.554349 0.890314 0.350658
C22B C -0.3675(6) 0.2149(4) 0.2488(2)
H17B H -0.354543 0.208079 0.217741
H18B H -0.406338 0.259444 0.252318
C23B C 0.3769(5) 0.4014(4) 0.4612(2)
H19B H 0.358837 0.435551 0.483655
H20B H 0.426424 0.422981 0.441615
H21B H 0.406813 0.359107 0.474360
C24B C 0.5764(6) 0.7923(5) 0.2994(3)
H22B H 0.631794 0.826465 0.293359
H23B H 0.569292 0.760708 0.274187
C25B C 0.4031(6) 0.9196(4) 0.3542(2)
H24B H 0.406331 0.971136 0.360115
H25B H 0.342403 0.910614 0.336162
C26B C 0.3066(5) 0.5438(4) 0.42099(19)
H26B H 0.268268 0.540467 0.446767
C27B C 0.4305(6) 0.8465(4) 0.2654(2)
H27B H 0.483554 0.858303 0.244022
H28B H 0.385943 0.888479 0.268728
C28B C 0.2486(6) 0.4219(4) 0.4013(2)
C29B C 0.2569(5) 0.2797(4) 0.4886(2)
C30B C 0.1969(5) 0.7149(4) 0.4747(2)
H29B H 0.140423 0.683453 0.474755
C31B C 0.1439(5) 0.2972(5) 0.4251(2)
C32B C 0.6033(6) 0.7487(4) 0.3386(3)
H30B H 0.676889 0.737140 0.338066
H31B H 0.589351 0.776601 0.364802
C33B C 0.0816(6) 0.2336(4) 0.4389(3)
H32B H 0.117159 0.190023 0.430674
H33B H 0.014847 0.235113 0.424766
H34B H 0.072271 0.234588 0.470047
C34B C 0.1676(5) 0.3973(4) 0.3766(2)
C35B C 0.3411(6) 0.7662(4) 0.5098(2)
H35B H 0.385071 0.770594 0.533886
C36B C 0.3591(6) 0.8038(4) 0.4743(2)
H36B H 0.414823 0.835923 0.474316
N1C N 0.2690(5) 0.7790(3) 0.27156(17)
C1C C 0.0827(5) 0.7597(3) 0.3213(2)
H1C H 0.087585 0.803356 0.306220
N2C N -0.3935(5) 0.1177(3) 0.3933(2)
C2C C -0.3032(5) 0.5121(3) 0.3912(2)
N3C N -0.4794(4) 0.1688(3) 0.30648(18)
C3C C 0.1561(5) 0.6506(4) 0.3440(2)
H2C H 0.210710 0.617535 0.343455
C4C C -0.4183(5) 0.3886(4) 0.3762(2)
C5C C 0.2569(5) 0.7252(4) 0.2963(2)
H3C H 0.310729 0.691737 0.298753
C6C C -0.3567(5) 0.5023(4) 0.3527(2)
H4C H -0.355915 0.538440 0.331479
C7C C -0.0156(5) 0.6809(4) 0.3666(2)
C8C C -0.4113(5) 0.4395(4) 0.3451(2)
H5C H -0.443634 0.432356 0.318190
N4C N -0.5438(4) 0.3169(3) 0.33947(19)
C9C C -0.1356(6) 0.5571(4) 0.3390(2)
H6C H -0.165224 0.576264 0.312533
H7C H -0.159707 0.508533 0.343339
H8C H -0.061118 0.557189 0.336631
C10C C -0.0052(6) 0.7437(4) 0.3433(2)
H9C H -0.060415 0.776235 0.342633
C11C C -0.2830(5) 0.6189(4) 0.4367(2)
C12C C -0.3632(5) 0.3978(4) 0.4135(2)
H10C H -0.365274 0.361688 0.434745
C13C C -0.2169(5) 0.2464(4) 0.4387(2)
H11C H -0.173174 0.250173 0.414547
C14C C 0.0688(5) 0.6358(4) 0.3679(2)
H12C H 0.066747 0.594549 0.385368
C15C C -0.2293(5) 0.6806(4) 0.4496(2)
C16C C -0.3008(5) 0.2016(4) 0.4373(2)
C17C C 0.1638(5) 0.7133(4) 0.3209(2)
C18C C -0.4834(5) 0.3250(4) 0.3701(2)
H13C H -0.478953 0.288177 0.390834
C19C C -0.1109(5) 0.6620(4) 0.3895(2)
C20C C -0.3184(6) 0.1586(4) 0.3983(2)
H14C H -0.270148 0.162013 0.375725
C21C C -0.4977(6) 0.1027(4) 0.3301(2)
H15C H -0.517636 0.064849 0.309824
H16C H -0.554349 0.109686 0.350658
C22C C 0.3675(6) 0.7851(4) 0.2488(2)
H17C H 0.354543 0.791921 0.217741
H18C H 0.406338 0.740556 0.252318
C23C C -0.3769(5) 0.5986(4) 0.4612(2)
H19C H -0.358837 0.564449 0.483655
H20C H -0.426424 0.577019 0.441615
H21C H -0.406813 0.640893 0.474360
C24C C -0.5764(6) 0.2077(5) 0.2994(3)
H22C H -0.631794 0.173535 0.293359
H23C H -0.569292 0.239292 0.274187
C25C C -0.4031(6) 0.0804(4) 0.3542(2)
H24C H -0.406331 0.028864 0.360115
H25C H -0.342403 0.089386 0.336162
C26C C -0.3066(5) 0.4562(4) 0.42099(19)
H26C H -0.268268 0.459533 0.446767
C27C C -0.4305(6) 0.1535(4) 0.2654(2)
H27C H -0.483554 0.141697 0.244022
H28C H -0.385943 0.111521 0.268728
C28C C -0.2486(6) 0.5781(4) 0.4013(2)
C29C C -0.2569(5) 0.7203(4) 0.4886(2)
C30C C -0.1969(5) 0.2851(4) 0.4747(2)
H29C H -0.140423 0.316547 0.474755
C31C C -0.1439(5) 0.7028(5) 0.4251(2)
C32C C -0.6033(6) 0.2513(4) 0.3386(3)
H30C H -0.676889 0.262860 0.338066
H31C H -0.589351 0.223399 0.364802
C33C C -0.0816(6) 0.7664(4) 0.4389(3)
H32C H -0.117159 0.809977 0.430674
H33C H -0.014847 0.764887 0.424766
H34C H -0.072271 0.765412 0.470047
C34C C -0.1676(5) 0.6027(4) 0.3766(2)
C35C C -0.3411(6) 0.2338(4) 0.5098(2)
H35C H -0.385071 0.229406 0.533886
C36C C -0.3591(6) 0.1962(4) 0.4743(2)
H36C H -0.414823 0.164077 0.474316
C37? C 0.039(3) 0.527(3) 0.5142(11)
Cl1? Cl 0.0395(8) 0.5765(5) 0.5207(3)
Cl2? Cl 0.1068(7) 0.5352(4) 0.5166(3)
Cl3? Cl 0.0466(6) 0.5264(5) 0.5482(2)
loop_
_geom_bond_atom_site_label_1
_geom_bond_atom_site_label_2
_geom_bond_site_symmetry_1
_geom_bond_site_symmetry_2
N1 C5 1_555 1_555
C1 H1 1_555 1_555
N2 C20 1_555 1_555
C2 C6 1_555 1_555
N3 C21 1_555 1_555
C3 H2 1_555 1_555
C4 C8 1_555 1_555
C5 H3 1_555 1_555
C6 H4 1_555 1_555
C7 C10 1_555 1_555
C8 C6 1_555 1_555
H5 C8 1_555 1_555
N4 C18 1_555 1_555
C9 H6 1_555 1_555
H7 C9 1_555 1_555
H8 C9 1_555 1_555
C10 C1 1_555 1_555
H9 C10 1_555 1_555
C11 C15 1_555 1_555
C12 C4 1_555 1_555
H10 C12 1_555 1_555
C13 H11 1_555 1_555
C14 C3 1_555 1_555
H12 C14 1_555 1_555
C15 C29 1_555 1_555
C16 C13 1_555 1_555
C17 C1 1_555 1_555
C18 C4 1_555 1_555
H13 C18 1_555 1_555
C19 C7 1_555 1_555
C20 C16 1_555 1_555
H14 C20 1_555 1_555
C21 H15 1_555 1_555
H16 C21 1_555 1_555
C22 N1 1_555 1_555
H17 C22 1_555 1_555
H18 C22 1_555 1_555
C23 C11 1_555 1_555
H19 C23 1_555 1_555
H20 C23 1_555 1_555
H21 C23 1_555 1_555
C24 N3 1_555 1_555
H22 C24 1_555 1_555
H23 C24 1_555 1_555
C25 N2 1_555 1_555
H24 C25 1_555 1_555
H25 C25 1_555 1_555
C26 C2 1_555 1_555
H26 C26 1_555 1_555
C27 N3 1_555 1_555
H27 C27 1_555 1_555
H28 C27 1_555 1_555
C28 C2 1_555 1_555
C29 C30B 1_555 1_555
C30 C13 1_555 1_555
H29 C30 1_555 1_555
C31 C15 1_555 1_555
C32 N4 1_555 1_555
H30 C32 1_555 1_555
H31 C32 1_555 1_555
C33 C31 1_555 1_555
H32 C33 1_555 1_555
H33 C33 1_555 1_555
H34 C33 1_555 1_555
C34 C9 1_555 1_555
C35 H35 1_555 1_555
C36 C16 1_555 1_555
H36 C36 1_555 1_555
N1A C5A 1_555 1_555
C1A H1A 1_555 1_555
N2A C20A 1_555 1_555
C2A C6A 1_555 1_555
N3A C21A 1_555 1_555
C3A H2A 1_555 1_555
C4A C8A 1_555 1_555
C5A H3A 1_555 1_555
C6A H4A 1_555 1_555
C7A C10A 1_555 1_555
C8A C6A 1_555 1_555
H5A C8A 1_555 1_555
N4A C18A 1_555 1_555
C9A H6A 1_555 1_555
H7A C9A 1_555 1_555
H8A C9A 1_555 1_555
C10A C1A 1_555 1_555
H9A C10A 1_555 1_555
C11A C15A 1_555 1_555
C12A C4A 1_555 1_555
H10A C12A 1_555 1_555
C13A H11A 1_555 1_555
C14A C3A 1_555 1_555
H12A C14A 1_555 1_555
C15A C29A 1_555 1_555
C16A C13A 1_555 1_555
C17A C1A 1_555 1_555
C18A C4A 1_555 1_555
H13A C18A 1_555 1_555
C19A C7A 1_555 1_555
C20A C16A 1_555 1_555
H14A C20A 1_555 1_555
C21A H15A 1_555 1_555
H16A C21A 1_555 1_555
C22A C27 1_555 1_555
H17A C22A 1_555 1_555
H18A C22A 1_555 1_555
C23A C11A 1_555 1_555
H19A C23A 1_555 1_555
H20A C23A 1_555 1_555
H21A C23A 1_555 1_555
C24A N3A 1_555 1_555
H22A C24A 1_555 1_555
H23A C24A 1_555 1_555
C25A N2A 1_555 1_555
H24A C25A 1_555 1_555
H25A C25A 1_555 1_555
C26A C2A 1_555 1_555
H26A C26A 1_555 1_555
C27A C22 1_555 1_555
H27A C27A 1_555 1_555
H28A C27A 1_555 1_555
C28A C2A 1_555 1_555
C29A C30C 1_555 1_555
C30A C13A 1_555 1_555
H29A C30A 1_555 1_555
C31A C15A 1_555 1_555
C32A N4A 1_555 1_555
H30A C32A 1_555 1_555
H31A C32A 1_555 1_555
C33A C31A 1_555 1_555
H32A C33A 1_555 1_555
H33A C33A 1_555 1_555
H34A C33A 1_555 1_555
C34A C9A 1_555 1_555
C35A H35A 1_555 1_555
C36A C16A 1_555 1_555
H36A C36A 1_555 1_555
N1B C5B 1_555 1_555
C1B H1B 1_555 1_555
N2B C20B 1_555 1_555
C2B C6B 1_555 1_555
N3B C21B 1_555 1_555
C3B H2B 1_555 1_555
C4B C8B 1_555 1_555
C5B H3B 1_555 1_555
C6B H4B 1_555 1_555
C7B C10B 1_555 1_555
C8B C6B 1_555 1_555
H5B C8B 1_555 1_555
N4B C18B 1_555 1_555
C9B H6B 1_555 1_555
H7B C9B 1_555 1_555
H8B C9B 1_555 1_555
C10B C1B 1_555 1_555
H9B C10B 1_555 1_555
C11B C15B 1_555 1_555
C12B C4B 1_555 1_555
H10B C12B 1_555 1_555
C13B H11B 1_555 1_555
C14B C3B 1_555 1_555
H12B C14B 1_555 1_555
C15B C29B 1_555 1_555
C16B C13B 1_555 1_555
C17B C1B 1_555 1_555
C18B C4B 1_555 1_555
H13B C18B 1_555 1_555
C19B C7B 1_555 1_555
C20B C16B 1_555 1_555
H14B C20B 1_555 1_555
C21B H15B 1_555 1_555
H16B C21B 1_555 1_555
C22B N1B 1_555 1_555
H17B C22B 1_555 1_555
H18B C22B 1_555 1_555
C23B C11B 1_555 1_555
H19B C23B 1_555 1_555
H20B C23B 1_555 1_555
H21B C23B 1_555 1_555
C24B N3B 1_555 1_555
H22B C24B 1_555 1_555
H23B C24B 1_555 1_555
C25B N2B 1_555 1_555
H24B C25B 1_555 1_555
H25B C25B 1_555 1_555
C26B C2B 1_555 1_555
H26B C26B 1_555 1_555
C27B N3B 1_555 1_555
H27B C27B 1_555 1_555
H28B C27B 1_555 1_555
C28B C2B 1_555 1_555
C29B C30 1_555 1_555
C30B C13B 1_555 1_555
H29B C30B 1_555 1_555
C31B C15B 1_555 1_555
C32B N4B 1_555 1_555
H30B C32B 1_555 1_555
H31B C32B 1_555 1_555
C33B C31B 1_555 1_555
H32B C33B 1_555 1_555
H33B C33B 1_555 1_555
H34B C33B 1_555 1_555
C34B C9B 1_555 1_555
C35B C29 1_555 1_555
H35B C35B 1_555 1_555
C36B C16B 1_555 1_555
H36B C36B 1_555 1_555
N1C C5C 1_555 1_555
C1C H1C 1_555 1_555
N2C C20C 1_555 1_555
C2C C6C 1_555 1_555
N3C C21C 1_555 1_555
C3C H2C 1_555 1_555
C4C C8C 1_555 1_555
C5C H3C 1_555 1_555
C6C H4C 1_555 1_555
C7C C10C 1_555 1_555
C8C C6C 1_555 1_555
H5C C8C 1_555 1_555
N4C C18C 1_555 1_555
C9C H6C 1_555 1_555
H7C C9C 1_555 1_555
H8C C9C 1_555 1_555
C10C C1C 1_555 1_555
H9C C10C 1_555 1_555
C11C C15C 1_555 1_555
C12C C4C 1_555 1_555
H10C C12C 1_555 1_555
C13C H11C 1_555 1_555
C14C C3C 1_555 1_555
H12C C14C 1_555 1_555
C15C C29C 1_555 1_555
C16C C13C 1_555 1_555
C17C C1C 1_555 1_555
C18C C4C 1_555 1_555
H13C C18C 1_555 1_555
C19C C7C 1_555 1_555
C20C C16C 1_555 1_555
H14C C20C 1_555 1_555
C21C H15C 1_555 1_555
H16C C21C 1_555 1_555
C22C C27B 1_555 1_555
H17C C22C 1_555 1_555
H18C C22C 1_555 1_555
C23C C11C 1_555 1_555
H19C C23C 1_555 1_555
H20C C23C 1_555 1_555
H21C C23C 1_555 1_555
C24C N3C 1_555 1_555
H22C C24C 1_555 1_555
H23C C24C 1_555 1_555
C25C N2C 1_555 1_555
H24C C25C 1_555 1_555
H25C C25C 1_555 1_555
C26C C2C 1_555 1_555
H26C C26C 1_555 1_555
C27C C22B 1_555 1_555
H27C C27C 1_555 1_555
H28C C27C 1_555 1_555
C28C C2C 1_555 1_555
C29C C30A 1_555 1_555
C30C C13C 1_555 1_555
H29C C30C 1_555 1_555
C31C C15C 1_555 1_555
C32C N4C 1_555 1_555
H30C C32C 1_555 1_555
H31C C32C 1_555 1_555
C33C C31C 1_555 1_555
H32C C33C 1_555 1_555
H33C C33C 1_555 1_555
H34C C33C 1_555 1_555
C34C C9C 1_555 1_555
C35C C29A 1_555 1_555
H35C C35C 1_555 1_555
C36C C16C 1_555 1_555
H36C C36C 1_555 1_555
C3 C17 1_555 1_555
C5 C17 1_555 1_555
C7 C14 1_555 1_555
C11 C28 1_555 1_555
C12 C26 1_555 1_555
C19 C31 1_555 1_555
C19 C34 1_555 1_555
C21 C25 1_555 1_555
C24 C32 1_555 1_555
C28 C34 1_555 1_555
C35 C36 1_555 1_555
C35 C29B 1_555 1_555
N1A C22A 1_555 1_555
N3A C27A 1_555 1_555
C3A C17A 1_555 1_555
C5A C17A 1_555 1_555
C7A C14A 1_555 1_555
C11A C28A 1_555 1_555
C12A C26A 1_555 1_555
C19A C31A 1_555 1_555
C19A C34A 1_555 1_555
C21A C25A 1_555 1_555
C24A C32A 1_555 1_555
C28A C34A 1_555 1_555
C35A C36A 1_555 1_555
C35A C29C 1_555 1_555
C3B C17B 1_555 1_555
C5B C17B 1_555 1_555
C7B C14B 1_555 1_555
C11B C28B 1_555 1_555
C12B C26B 1_555 1_555
C19B C31B 1_555 1_555
C19B C34B 1_555 1_555
C21B C25B 1_555 1_555
C24B C32B 1_555 1_555
C28B C34B 1_555 1_555
C35B C36B 1_555 1_555
N1C C22C 1_555 1_555
N3C C27C 1_555 1_555
C3C C17C 1_555 1_555
C5C C17C 1_555 1_555
C7C C14C 1_555 1_555
C11C C28C 1_555 1_555
C12C C26C 1_555 1_555
C19C C31C 1_555 1_555
C19C C34C 1_555 1_555
C21C C25C 1_555 1_555
C24C C32C 1_555 1_555
C28C C34C 1_555 1_555
C35C C36C 1_555 1_555

#END
