
#######################################################################
#
#                 Cambridge Crystallographic Data Centre
#                                CCDC 
#
#######################################################################
#
# If this CIF has been generated from an entry in the Cambridge 
# Structural Database, then it will include bibliographic, chemical, 
# crystal, experimental, refinement or atomic coordinate data resulting 
# from the CCDC's data processing and validation procedures.
#
#######################################################################

data_PELTIM
_chemical_formula_moiety         'C6 H4 N4 O6'
_chemical_name_systematic        2-(trinitromethyl)pyridine
_symmetry_cell_setting           monoclinic
_symmetry_space_group_name_H-M   'P 21/c'
_symmetry_Int_Tables_number      14
_space_group_name_Hall           '-P 2ybc'
loop_
_symmetry_equiv_pos_site_id
_symmetry_equiv_pos_as_xyz
1 x,y,z
2 -x,1/2+y,1/2-z
3 -x,-y,-z
4 x,1/2-y,1/2+z
_cell_length_a                   8.0672(16)
_cell_length_b                   10.496(2)
_cell_length_c                   11.234(2)
_cell_angle_alpha                90
_cell_angle_beta                 109.66(3)
_cell_angle_gamma                90
_cell_volume                     895.769
_exptl_crystal_colour            colorless
_exptl_crystal_description       block
_chemical_melting_point          '70 deg.C'
_cell_formula_units_Z            4
_exptl_crystal_recrystallization_method dichloromethane/n-hexane
loop_
_atom_site_label
_atom_site_type_symbol
_atom_site_fract_x
_atom_site_fract_y
_atom_site_fract_z
O1 O 0.8875(2) 0.46942(15) 0.12052(14)
O2 O 0.6451(2) 0.37379(17) 0.11348(17)
O3 O 0.5802(2) 0.16053(15) -0.09284(19)
O4 O 0.4403(2) 0.33872(17) -0.1478(2)
O5 O 0.72745(19) 0.56691(14) -0.11360(16)
O6 O 0.6891(2) 0.42509(17) -0.26081(15)
N1 N 0.9669(2) 0.21000(15) 0.06936(14)
N2 N 0.7596(2) 0.40287(17) 0.07058(16)
N3 N 0.5723(2) 0.27467(17) -0.10508(18)
N4 N 0.7197(2) 0.45860(16) -0.15151(17)
C1 C 1.1073(2) 0.13430(19) 0.0912(2)
H1 H 1.1517 0.0924 0.1706
C2 C 1.1911(3) 0.11402(19) 0.0034(2)
H2 H 1.2927 0.0614 0.0234
C3 C 1.1248(3) 0.17141(19) -0.1130(2)
H3 H 1.1784 0.1575 -0.1754
C4 C 0.9783(2) 0.25002(19) -0.13840(18)
H4 H 0.9292 0.2910 -0.2180
C5 C 0.9068(2) 0.26642(17) -0.04421(16)
C6 C 0.7469(2) 0.34859(17) -0.05838(18)
loop_
_geom_bond_atom_site_label_1
_geom_bond_atom_site_label_2
_geom_bond_site_symmetry_1
_geom_bond_site_symmetry_2
O1 N2 1_555 1_555
O2 N2 1_555 1_555
O3 N3 1_555 1_555
O4 N3 1_555 1_555
O5 N4 1_555 1_555
O6 N4 1_555 1_555
N1 C1 1_555 1_555
N2 C6 1_555 1_555
N3 C6 1_555 1_555
N4 C6 1_555 1_555
C1 H1 1_555 1_555
C2 C1 1_555 1_555
H2 C2 1_555 1_555
C3 C2 1_555 1_555
H3 C3 1_555 1_555
C4 C3 1_555 1_555
H4 C4 1_555 1_555
C5 N1 1_555 1_555
C6 C5 1_555 1_555
C4 C5 1_555 1_555

#END
