
#######################################################################
#
#                 Cambridge Crystallographic Data Centre
#                                CCDC 
#
#######################################################################
#
# If this CIF has been generated from an entry in the Cambridge 
# Structural Database, then it will include bibliographic, chemical, 
# crystal, experimental, refinement or atomic coordinate data resulting 
# from the CCDC's data processing and validation procedures.
#
#######################################################################

data_PELVOU
_chemical_formula_moiety         'C276 H368 Mg24 N8 O116'
_chemical_name_systematic        
'hexakis(\m-proline)-hexakis(\m-2,8,14,20-tetrapropyl-5,11,17,23-tetrahydroxy-4,6,10,12,16,18,22,24-octaoxidopyrogallol[4]arene)-triacontaaqua-bis(N,N-dimethylformamide)-tetracosa-magnesium unknown solvate'
_symmetry_cell_setting           monoclinic
_symmetry_space_group_name_H-M   'C 2'
_symmetry_Int_Tables_number      5
_space_group_name_Hall           'C 2y'
loop_
_symmetry_equiv_pos_site_id
_symmetry_equiv_pos_as_xyz
1 x,y,z
2 -x,y,-z
3 1/2+x,1/2+y,z
4 1/2-x,1/2+y,-z
_cell_length_a                   28.6297(8)
_cell_length_b                   35.3408(10)
_cell_length_c                   21.5450(6)
_cell_angle_alpha                90
_cell_angle_beta                 119.007(2)
_cell_angle_gamma                90
_cell_volume                     19064.7
_exptl_crystal_colour            blue
_exptl_crystal_description       plate
_cell_formula_units_Z            2
loop_
_atom_site_label
_atom_site_type_symbol
_atom_site_fract_x
_atom_site_fract_y
_atom_site_fract_z
Mg1 Mg 0.41451(12) 0.29421(8) 0.49974(16)
Mg2 Mg 0.58579(13) 0.70157(8) 0.50132(17)
Mg3 Mg 0.26835(11) 0.49920(10) 0.11739(14)
Mg4 Mg 0.56701(13) 0.55057(8) 0.24095(18)
Mg5 Mg 0.64020(15) 0.64781(10) 0.4017(2)
Mg6 Mg 0.28132(15) 0.64966(10) 0.39789(18)
Mg7 Mg 0.43726(12) 0.49832(10) 0.13379(18)
Mg8 Mg 0.56624(15) 0.44503(9) 0.2348(3)
Mg9 Mg 0.70472(15) 0.35876(10) 0.59993(18)
Mg10 Mg 0.2242(2) 0.44506(9) 0.2284(3)
Mg11 Mg 0.78806(18) 0.55280(9) 0.7841(2)
Mg12 Mg 0.63269(18) 0.35294(14) 0.4016(2)
O1 O 0.3492(3) 0.3175(2) 0.4182(3)
O2 O 0.6820(3) 0.38058(16) 0.3740(3)
O3 O 0.2637(2) 0.65812(16) 0.2953(3)
O4 O 0.8132(3) 0.43191(16) 0.7140(3)
O5 O 0.2506(3) 0.45417(16) 0.1609(4)
O6 O 0.2951(3) 0.45718(17) 0.0769(4)
O7 O 0.7775(2) 0.38117(16) 0.6211(3)
O8 O 0.5894(3) 0.67847(18) 0.4184(4)
O9 O 0.4285(2) 0.27545(16) 0.4205(3)
O10 O 0.2283(3) 0.38965(16) 0.2026(4)
O11 O 0.5136(2) 0.27200(17) 0.4208(3)
O12 O 0.6480(3) 0.56489(16) 0.2848(4)
O13 O 0.5839(3) 0.33876(18) 0.2946(3)
O14 O 0.5141(3) 0.72189(17) 0.4222(3)
O15 O 0.6929(2) 0.36204(16) 0.5010(3)
O16 O 0.7828(3) 0.61507(16) 0.6259(3)
O17 O 0.5854(2) 0.65637(15) 0.2988(3)
O18 O 0.4256(3) 0.72284(17) 0.4194(3)
C1 C 0.4992(4) 0.3165(2) 0.1570(4)
H1 H 0.5361 0.3230 0.1665
O19 O 0.3751(3) 0.2435(2) 0.4956(4)
O20 O 0.3826(3) 0.45608(16) 0.0838(4)
O21 O 0.6217(3) 0.75211(18) 0.4953(4)
O22 O 0.5449(3) 0.39051(17) 0.2066(4)
O23 O 0.6457(2) 0.43200(16) 0.2861(4)
O24 O 0.3837(3) 0.54047(17) 0.0822(4)
O25 O 0.5457(3) 0.60610(17) 0.2095(3)
O26 O 0.7016(3) 0.64116(19) 0.5003(4)
O27 O 0.5932(3) 0.3125(2) 0.4184(3)
C2 C 0.7287(4) 0.3926(2) 0.4324(5)
C3 C 0.3848(3) 0.2827(2) 0.3538(5)
O28 O 0.2638(2) 0.34031(16) 0.2957(3)
C4 C 0.2447(4) 0.3145(2) 0.1577(4)
H2 H 0.2149 0.3197 0.1681
O29 O 0.8139(3) 0.56521(15) 0.7145(4)
C5 C 0.3796(3) 0.2689(2) 0.2910(5)
C6 C 0.2560(4) 0.6453(2) 0.1314(5)
O30 O 0.4882(3) 0.54303(17) 0.1809(4)
O31 O 0.2919(3) 0.54104(15) 0.0709(3)
C7 C 0.4636(4) 0.3539(2) 0.1312(5)
C8 C 0.7681(3) 0.4113(2) 0.4317(5)
C9 C 0.2994(4) 0.6821(2) 0.2933(5)
C10 C 0.4121(4) 0.3542(2) 0.0900(5)
H3 H 0.3945 0.3307 0.0726
C11 C 0.2814(3) 0.6430(2) 0.0870(5)
H4 H 0.2899 0.6659 0.0717
O32 O 0.7933(3) 0.4989(2) 0.7571(4)
C12 C 0.7782(4) 0.3921(2) 0.5630(5)
O33 O 0.6869(3) 0.61674(17) 0.3741(3)
C13 C 0.2833(4) 0.4221(2) 0.0912(5)
O34 O 0.5953(2) 0.4970(2) 0.2607(4)
O35 O 0.2236(3) 0.60943(17) 0.1985(4)
O36 O 0.3449(3) 0.68148(18) 0.4155(3)
C14 C 0.3209(4) 0.3885(2) 0.0228(5)
H5 H 0.3122 0.4135 -0.0021
O37 O 0.8668(4) 0.5536(2) 0.8702(5)
C15 C 0.4677(3) 0.7272(2) 0.2940(4)
C16 C 0.3802(4) 0.3881(2) 0.0694(5)
C17 C 0.3444(3) 0.3058(2) 0.3570(5)
C18 C 0.3332(3) 0.71823(18) 0.2288(4)
H6 H 0.3292 0.7281 0.1855
C19 C 0.3350(4) 0.2790(2) 0.2288(5)
H7 H 0.3315 0.2697 0.1854
C20 C 0.6775(4) 0.5319(3) 0.3027(6)
C21 C 0.7611(4) 0.4233(2) 0.3562(5)
H8 H 0.7363 0.4046 0.3205
O38 O 0.5533(4) 0.4371(2) 0.3235(6)
C22 C 0.4634(4) 0.71631(19) 0.2300(5)
H9 H 0.4339 0.7245 0.1868
C23 C 0.5463(4) 0.3154(2) 0.2929(5)
C24 C 0.4242(4) 0.7529(2) 0.2937(5)
H10 H 0.4415 0.7658 0.3409
C25 C 0.8278(4) 0.5314(2) 0.6926(6)
O39 O 0.1924(3) 0.4946(3) 0.0197(4)
C26 C 0.2942(3) 0.6944(2) 0.2265(5)
C27 C 0.5026(4) 0.3028(2) 0.2252(5)
C28 C 0.7339(4) 0.3814(3) 0.4988(5)
C29 C 0.2596(4) 0.4214(2) 0.1373(5)
C30 C 0.8162(4) 0.5716(2) 0.4938(6)
H11 H 0.8428 0.5563 0.4919
C31 C 0.8674(3) 0.5700(3) 0.6280(6)
H12 H 0.8719 0.5894 0.6642
C32 C 0.2930(4) 0.3879(2) 0.0658(5)
O40 O 0.2395(3) 0.54356(17) 0.1464(4)
C33 C 0.8548(3) 0.4635(2) 0.6538(5)
C34 C 0.7329(4) 0.4632(2) 0.3359(5)
C35 C 0.5029(4) 0.6930(2) 0.2289(5)
C36 C 0.5073(3) 0.7140(2) 0.3567(5)
C37 C 0.9189(3) 0.4255(3) 0.6271(5)
H13 H 0.9232 0.4004 0.6099
H14 H 0.9169 0.4446 0.5924
C38 C 0.8168(3) 0.4120(2) 0.5587(5)
C39 C 0.3788(3) 0.7286(2) 0.2928(4)
N1 N 0.6239(4) 0.8029(2) 0.4325(5)
O41 O 0.3370(3) 0.5136(2) 0.2142(4)
C40 C 0.2448(4) 0.6119(2) 0.1514(5)
O42 O 0.7055(4) 0.5477(3) 0.6985(6)
O43 O 0.4865(3) 0.4548(2) 0.1767(6)
C41 C 0.4479(4) 0.8117(2) 0.2443(6)
H15 H 0.4660 0.8234 0.2921
H16 H 0.4749 0.7970 0.2383
O44 O 0.5739(3) 0.3886(3) 0.4020(5)
O45 O 0.6820(3) 0.6989(2) 0.3921(4)
C42 C 0.5496(4) 0.3015(3) 0.3552(5)
C43 C 0.8125(4) 0.4226(3) 0.3527(6)
H17 H 0.8065 0.4354 0.3085
H18 H 0.8399 0.4372 0.3932
C44 C 0.8237(3) 0.5826(2) 0.5616(5)
O46 O 0.6145(4) 0.5957(2) 0.4239(6)
C45 C 0.2931(4) 0.3029(2) 0.2259(5)
C46 C 0.4910(4) 0.3880(3) 0.1599(5)
C47 C 0.4229(3) 0.2439(2) 0.2941(5)
H19 H 0.4398 0.2309 0.3412
C48 C 0.6773(3) 0.4636(2) 0.3046(5)
O47 O 0.2342(4) 0.6978(2) 0.3872(5)
C49 C 0.5477(4) 0.6907(2) 0.3566(5)
C50 C 0.4930(4) 0.6092(2) 0.1645(5)
O48 O 0.4528(3) 0.3487(2) 0.5023(5)
C51 C 0.7328(3) 0.5324(2) 0.3393(5)
C52 C 0.5450(3) 0.6810(2) 0.2913(5)
C53 C 0.2936(3) 0.6096(2) 0.0663(5)
C54 C 0.5104(4) 0.2811(3) 0.3553(5)
C55 C 0.2267(4) 0.2851(2) 0.1016(5)
H20 H 0.2242 0.2606 0.1223
H21 H 0.2542 0.2823 0.0867
C56 C 0.2474(4) 0.3881(2) 0.1584(5)
C57 C 0.4091(4) 0.4207(3) 0.0974(6)
C58 C 0.4650(4) 0.2805(2) 0.2297(5)
H22 H 0.4356 0.2727 0.1860
C59 C 0.8666(3) 0.4975(3) 0.6330(4)
H23 H 0.8838 0.4971 0.6049
C60 C 0.4623(5) 0.4228(3) 0.1431(7)
C61 C 0.4087(4) 0.5748(2) 0.0990(5)
O49 O 0.5714(4) 0.5529(3) 0.3390(5)
C62 C 0.4038(4) 0.7842(2) 0.2397(5)
H24 H 0.3769 0.7990 0.2459
H25 H 0.3855 0.7729 0.1917
C63 C 0.8540(4) 0.5330(2) 0.6519(5)
C64 C 0.4761(5) 0.2852(2) 0.0975(6)
H26 H 0.4393 0.2787 0.0870
H27 H 0.4743 0.2954 0.0536
C65 C 0.6494(3) 0.4991(3) 0.2887(4)
C66 C 0.4654(3) 0.2681(2) 0.2913(5)
C67 C 0.3001(3) 0.3166(2) 0.2894(5)
N2 N 0.4652(4) 0.5638(3) 0.3089(7)
H28 H 0.4869 0.5535 0.3522
H29 H 0.4728 0.5531 0.2765
C68 C 0.2997(4) 0.3580(3) -0.0365(5)
H30 H 0.3213 0.3586 -0.0611
H31 H 0.3039 0.3327 -0.0149
C69 C 0.7373(4) 0.6175(2) 0.4979(5)
C70 C 0.7819(4) 0.6050(2) 0.5614(5)
C71 C 0.8119(4) 0.4218(2) 0.4943(5)
H32 H 0.8395 0.4361 0.4929
O50 O 0.3322(5) 0.6018(3) 0.4050(8)
C72 C 0.2410(6) 0.3644(4) -0.0907(7)
H33 H 0.2190 0.3643 -0.0667
H34 H 0.2365 0.3891 -0.1145
C73 C 0.8166(4) 0.4988(3) 0.7149(4)
O51 O 0.5685(4) 0.4537(3) 0.1389(6)
C74 C 0.7593(3) 0.4965(3) 0.3553(4)
H35 H 0.7972 0.4960 0.3806
O52 O 0.4165(4) 0.5041(4) 0.2211(5)
C75 C 0.4811(4) 0.7098(3) 0.1012(5)
H36 H 0.4445 0.7180 0.0888
H37 H 0.4797 0.6986 0.0582
C76 C 0.8293(4) 0.4627(2) 0.6938(5)
C77 C 0.4681(4) 0.6437(3) 0.1356(5)
O53 O 0.4544(4) 0.5036(3) 0.0436(6)
C78 C 0.2461(3) 0.6832(2) 0.1559(5)
H38 H 0.2155 0.6794 0.1656
C79 C 0.2284(4) 0.7149(2) 0.0978(5)
H39 H 0.2242 0.7391 0.1180
H40 H 0.2569 0.7185 0.0849
C80 C 0.2589(4) 0.3523(2) 0.1326(4)
O54 O 0.6643(4) 0.4044(3) 0.6023(6)
C81 C 0.3428(4) 0.6926(3) 0.3539(5)
C82 C 0.8669(3) 0.4258(2) 0.6291(5)
H41 H 0.8715 0.4069 0.6661
C83 C 0.3831(4) 0.6105(3) 0.0690(5)
C84 C 0.5090(4) 0.2506(3) 0.1187(5)
H42 H 0.5133 0.2419 0.1649
H43 H 0.5449 0.2569 0.1257
C85 C 0.4026(4) 0.2120(2) 0.2349(6)
H44 H 0.3732 0.1977 0.2357
H45 H 0.3885 0.2239 0.1876
C86 C 0.8154(4) 0.5678(3) 0.3541(6)
H46 H 0.8351 0.5916 0.3744
H47 H 0.8383 0.5466 0.3828
C87 C 0.2807(3) 0.3534(2) 0.0908(4)
H48 H 0.2887 0.3300 0.0762
C88 C 0.1777(4) 0.7062(3) 0.0327(5)
H49 H 0.1486 0.7036 0.0447
H50 H 0.1812 0.6820 0.0124
C89 C 0.2542(4) 0.5767(3) 0.1263(6)
C90 C 0.3965(6) 0.3845(4) 0.2759(9)
H51 H 0.3823 0.3819 0.3094
H52 H 0.3749 0.3685 0.2338
C91 C 0.4121(4) 0.6429(2) 0.0885(4)
H53 H 0.3941 0.6662 0.0698
C92 C 0.7626(4) 0.5680(2) 0.3603(5)
H54 H 0.7388 0.5872 0.3250
C93 C 0.3016(4) 0.6387(3) -0.0368(5)
H55 H 0.3086 0.6639 -0.0137
H56 H 0.3228 0.6371 -0.0620
O55 O 0.5496(7) 0.6480(3) 0.5063(7)
C94 C 0.7720(4) 0.5820(2) 0.4302(6)
C95 C 0.4626(4) 0.5757(2) 0.1477(5)
C96 C 0.3827(4) 0.7159(2) 0.3561(5)
C97 C 0.3215(4) 0.6084(2) 0.0206(4)
H57 H 0.3132 0.5833 -0.0038
C98 C 0.9689(4) 0.5612(4) 0.6997(8)
H58 H 0.9709 0.5815 0.7327
H59 H 0.9637 0.5369 0.7185
C99 C 0.9197(4) 0.5685(3) 0.6271(6)
H60 H 0.9248 0.5928 0.6083
H61 H 0.9176 0.5482 0.5941
C100 C 0.5428(6) 0.4120(4) 0.3584(7)
C101 C 0.2793(4) 0.5760(2) 0.0892(5)
C102 C 0.4047(4) 0.5576(3) 0.2873(7)
H62 H 0.4008 0.5524 0.3302
C103 C 0.4995(4) 0.6795(2) 0.1591(5)
H63 H 0.5368 0.6727 0.1707
C104 C 0.2242(16) 0.3338(11) -0.1429(19)
H64 H 0.1866 0.3373 -0.1783
H65 H 0.2461 0.3342 -0.1665
H66 H 0.2287 0.3094 -0.1189
C105 C 0.9676(4) 0.4333(3) 0.6970(6)
H67 H 0.9707 0.4139 0.7319
H68 H 0.9638 0.4583 0.7149
C106 C 0.3944(7) 0.4242(5) 0.2546(11)
H69 H 0.3698 0.4389 0.2655
H70 H 0.3821 0.4261 0.2032
C107 C 0.6616(7) 0.4667(4) 0.4632(10)
H71 H 0.6546 0.4444 0.4850
H72 H 0.6722 0.4580 0.4280
C108 C 0.6137(4) 0.7679(3) 0.4410(6)
C109 C 0.5192(6) 0.7458(3) 0.1246(8)
H73 H 0.5012 0.7655 0.0879
H74 H 0.5215 0.7556 0.1690
C110 C 0.4507(6) 0.3733(3) 0.3088(11)
H75 H 0.4597 0.3635 0.2728
H76 H 0.4575 0.3531 0.3439
C111 C 0.1638(5) 0.7383(4) -0.0228(6)
H77 H 0.1302 0.7322 -0.0656
H78 H 0.1599 0.7623 -0.0028
H79 H 0.1924 0.7406 -0.0350
O56 O 0.3034(7) 0.4456(4) 0.3192(9)
C112 C 0.1578(7) 0.2648(3) -0.0217(7)
H80 H 0.1232 0.2717 -0.0619
H81 H 0.1849 0.2643 -0.0370
H82 H 0.1552 0.2397 -0.0041
O57 O 0.5665(6) 0.5431(4) 0.1374(6)
C113 C 0.4264(6) 0.8417(4) 0.1904(8)
H83 H 0.4556 0.8581 0.1955
H84 H 0.4092 0.8302 0.1430
H85 H 0.4002 0.8566 0.1968
C114 C 0.3840(6) 0.5227(5) 0.2348(7)
C115 C 0.1730(5) 0.2930(3) 0.0358(6)
H86 H 0.1449 0.2937 0.0499
H87 H 0.1745 0.3183 0.0171
C116 C 0.7323(4) 0.6062(2) 0.4332(5)
C117 C 0.7029(7) 0.4898(4) 0.5164(14)
H88 H 0.7032 0.4861 0.5622
H89 H 0.7380 0.4815 0.5227
N3 N 0.6112(4) 0.4925(3) 0.4270(7)
H90 H 0.5986 0.4935 0.3793
H91 H 0.5850 0.4836 0.4354
C118 C 0.4867(7) 0.2186(3) 0.0667(7)
H92 H 0.5108 0.1968 0.0847
H93 H 0.4515 0.2115 0.0602
H94 H 0.4832 0.2265 0.0210
C119 C 0.6413(11) 0.8284(4) 0.4920(11)
H95 H 0.6475 0.8536 0.4783
H96 H 0.6138 0.8300 0.5065
H97 H 0.6746 0.8189 0.5317
C120 C 1.0191(4) 0.4330(4) 0.6892(7)
H98 H 1.0503 0.4382 0.7354
H99 H 1.0231 0.4081 0.6722
H100 H 1.0162 0.4525 0.6552
C121 C 0.4462(5) 0.1858(3) 0.2466(7)
H101 H 0.4618 0.1751 0.2951
H102 H 0.4746 0.1999 0.2430
C122 C 0.6025(6) 0.5626(4) 0.4029(9)
N4 N 0.4494(5) 0.4381(3) 0.2963(7)
H103 H 0.4497 0.4589 0.3215
H104 H 0.4619 0.4451 0.2664
C123 C 0.8334(6) 0.3836(4) 0.3543(8)
H105 H 0.8044 0.3677 0.3183
H106 H 0.8450 0.3721 0.4015
O58 O 0.1326(9) 0.4472(5) 0.1363(9)
C124 C 0.8058(6) 0.5638(4) 0.2784(8)
H107 H 0.7856 0.5401 0.2581
H108 H 0.7829 0.5851 0.2499
C125 C 0.4850(5) 0.4085(4) 0.3460(8)
H109 H 0.4859 0.4118 0.3926
C126 C 1.0211(5) 0.5597(5) 0.6998(10)
H110 H 1.0500 0.5550 0.7481
H111 H 1.0202 0.5392 0.6685
H112 H 1.0274 0.5839 0.6827
C127 C 0.4218(6) 0.6252(4) 0.3005(11)
H113 H 0.4147 0.6492 0.2736
H114 H 0.4224 0.6299 0.3461
C128 C 0.4258(7) 0.1524(3) 0.1907(8)
H115 H 0.4557 0.1356 0.2000
H116 H 0.3981 0.1381 0.1948
H117 H 0.4110 0.1628 0.1427
C129 C 0.8812(8) 0.3839(6) 0.3390(13)
H118 H 0.8938 0.3580 0.3405
H119 H 0.8697 0.3948 0.2920
H120 H 0.9102 0.3992 0.3750
C130 C 0.2454(6) 0.6364(4) -0.0889(6)
H121 H 0.2241 0.6442 -0.0661
H122 H 0.2365 0.6097 -0.1037
C131 C 0.4726(11) 0.6063(5) 0.3109(12)
H123 H 0.5029 0.6139 0.3572
H124 H 0.4805 0.6142 0.2729
C132 C 0.6130(6) 0.8193(3) 0.3638(8)
H125 H 0.6239 0.8459 0.3704
H126 H 0.6331 0.8054 0.3451
H127 H 0.5747 0.8175 0.3301
C133 C 0.6303(7) 0.5313(4) 0.4607(8)
H128 H 0.6198 0.5348 0.4983
C134 C 0.3809(7) 0.5935(5) 0.2562(9)
H129 H 0.3471 0.5971 0.2574
H130 H 0.3731 0.5946 0.2061
C135 C 0.8533(7) 0.5632(6) 0.2704(13)
H131 H 0.8429 0.5606 0.2201
H132 H 0.8731 0.5869 0.2888
H133 H 0.8759 0.5418 0.2970
C136 C 0.5708(9) 0.7425(8) 0.1358(14)
H134 H 0.5887 0.7671 0.1498
H135 H 0.5903 0.7240 0.1736
H136 H 0.5699 0.7340 0.0920
C137 C 0.6958(7) 0.5267(5) 0.4992(12)
H137 H 0.7094 0.5331 0.4660
H138 H 0.7138 0.5429 0.5419
C138 C 0.2289(5) 0.6605(4) -0.1547(6)
H139 H 0.1906 0.6574 -0.1871
H140 H 0.2366 0.6872 -0.1409
H141 H 0.2490 0.6526 -0.1786
Mg1A Mg 0.58549(12) 0.29421(8) 0.50026(16)
Mg2A Mg 0.41421(13) 0.70157(8) 0.49868(17)
Mg3A Mg 0.73165(11) 0.49920(10) 0.88261(14)
Mg4A Mg 0.43299(13) 0.55057(8) 0.75905(18)
Mg5A Mg 0.35980(15) 0.64781(10) 0.5983(2)
Mg6A Mg 0.71868(15) 0.64966(10) 0.60211(18)
Mg7A Mg 0.56274(12) 0.49832(10) 0.86621(18)
Mg8A Mg 0.43376(15) 0.44503(9) 0.7652(3)
Mg9A Mg 0.29528(15) 0.35876(10) 0.40007(18)
Mg10A Mg 0.7758(2) 0.44506(9) 0.7716(3)
Mg11A Mg 0.21194(18) 0.55280(9) 0.2159(2)
Mg12A Mg 0.36731(18) 0.35294(14) 0.5984(2)
O1A O 0.6508(3) 0.3175(2) 0.5818(3)
O2A O 0.3180(3) 0.38058(16) 0.6260(3)
O3A O 0.7363(2) 0.65812(16) 0.7047(3)
O4A O 0.1868(3) 0.43191(16) 0.2860(3)
O5A O 0.7494(3) 0.45417(16) 0.8391(4)
O6A O 0.7049(3) 0.45718(17) 0.9231(4)
O7A O 0.2225(2) 0.38117(16) 0.3789(3)
O8A O 0.4106(3) 0.67847(18) 0.5816(4)
O9A O 0.5715(2) 0.27545(16) 0.5795(3)
O10A O 0.7717(3) 0.38965(16) 0.7974(4)
O11A O 0.4864(2) 0.27200(17) 0.5792(3)
O12A O 0.3520(3) 0.56489(16) 0.7152(4)
O13A O 0.4161(3) 0.33876(18) 0.7054(3)
O14A O 0.4859(3) 0.72189(17) 0.5778(3)
O15A O 0.3071(2) 0.36204(16) 0.4990(3)
O16A O 0.2172(3) 0.61507(16) 0.3741(3)
O17A O 0.4146(2) 0.65637(15) 0.7012(3)
O18A O 0.5744(3) 0.72284(17) 0.5806(3)
C1A C 0.5008(4) 0.3165(2) 0.8430(4)
H1A H 0.4639 0.3230 0.8335
O19A O 0.6249(3) 0.2435(2) 0.5044(4)
O20A O 0.6174(3) 0.45608(16) 0.9162(4)
O21A O 0.3783(3) 0.75211(18) 0.5047(4)
O22A O 0.4551(3) 0.39051(17) 0.7934(4)
O23A O 0.3543(2) 0.43200(16) 0.7139(4)
O24A O 0.6163(3) 0.54047(17) 0.9178(4)
O25A O 0.4543(3) 0.60610(17) 0.7905(3)
O26A O 0.2984(3) 0.64116(19) 0.4997(4)
O27A O 0.4068(3) 0.3125(2) 0.5816(3)
C2A C 0.2713(4) 0.3926(2) 0.5676(5)
C3A C 0.6152(3) 0.2827(2) 0.6462(5)
O28A O 0.7362(2) 0.34031(16) 0.7043(3)
C4A C 0.7553(4) 0.3145(2) 0.8423(4)
H2A H 0.7851 0.3197 0.8319
O29A O 0.1861(3) 0.56521(15) 0.2855(4)
C5A C 0.6204(3) 0.2689(2) 0.7090(5)
C6A C 0.7440(4) 0.6453(2) 0.8686(5)
O30A O 0.5118(3) 0.54303(17) 0.8191(4)
O31A O 0.7081(3) 0.54104(15) 0.9291(3)
C7A C 0.5364(4) 0.3539(2) 0.8688(5)
C8A C 0.2319(3) 0.4113(2) 0.5683(5)
C9A C 0.7006(4) 0.6821(2) 0.7067(5)
C10A C 0.5879(4) 0.3542(2) 0.9100(5)
H3A H 0.6055 0.3307 0.9274
C11A C 0.7186(3) 0.6430(2) 0.9130(5)
H4A H 0.7101 0.6659 0.9283
O32A O 0.2067(3) 0.4989(2) 0.2429(4)
C12A C 0.2218(4) 0.3921(2) 0.4370(5)
O33A O 0.3131(3) 0.61674(17) 0.6259(3)
C13A C 0.7167(4) 0.4221(2) 0.9088(5)
O34A O 0.4047(2) 0.4970(2) 0.7393(4)
O35A O 0.7764(3) 0.60943(17) 0.8015(4)
O36A O 0.6551(3) 0.68148(18) 0.5845(3)
C14A C 0.6791(4) 0.3885(2) 0.9772(5)
H5A H 0.6878 0.4135 1.0021
O37A O 0.1332(4) 0.5536(2) 0.1298(5)
C15A C 0.5323(3) 0.7272(2) 0.7060(4)
C16A C 0.6198(4) 0.3881(2) 0.9306(5)
C17A C 0.6556(3) 0.3058(2) 0.6430(5)
C18A C 0.6668(3) 0.71823(18) 0.7712(4)
H6A H 0.6708 0.7281 0.8145
C19A C 0.6650(4) 0.2790(2) 0.7712(5)
H7A H 0.6685 0.2697 0.8146
C20A C 0.3225(4) 0.5319(3) 0.6973(6)
C21A C 0.2389(4) 0.4233(2) 0.6438(5)
H8A H 0.2637 0.4046 0.6795
O38A O 0.4467(4) 0.4371(2) 0.6765(6)
C22A C 0.5366(4) 0.71631(19) 0.7700(5)
H9A H 0.5661 0.7245 0.8132
C23A C 0.4537(4) 0.3154(2) 0.7071(5)
C24A C 0.5758(4) 0.7529(2) 0.7063(5)
H10A H 0.5585 0.7658 0.6591
C25A C 0.1722(4) 0.5314(2) 0.3074(6)
O39A O 0.8076(3) 0.4946(3) 0.9803(4)
C26A C 0.7058(3) 0.6944(2) 0.7735(5)
C27A C 0.4974(4) 0.3028(2) 0.7748(5)
C28A C 0.2661(4) 0.3814(3) 0.5012(5)
C29A C 0.7404(4) 0.4214(2) 0.8627(5)
C30A C 0.1838(4) 0.5716(2) 0.5062(6)
H11A H 0.1572 0.5563 0.5081
C31A C 0.1326(3) 0.5700(3) 0.3720(6)
H12A H 0.1281 0.5894 0.3358
C32A C 0.7070(4) 0.3879(2) 0.9342(5)
O40A O 0.7605(3) 0.54356(17) 0.8536(4)
C33A C 0.1452(3) 0.4635(2) 0.3462(5)
C34A C 0.2671(4) 0.4632(2) 0.6641(5)
C35A C 0.4971(4) 0.6930(2) 0.7711(5)
C36A C 0.4927(3) 0.7140(2) 0.6433(5)
C37A C 0.0811(3) 0.4255(3) 0.3729(5)
H13A H 0.0768 0.4004 0.3901
H14A H 0.0831 0.4446 0.4076
C38A C 0.1832(3) 0.4120(2) 0.4413(5)
C39A C 0.6212(3) 0.7286(2) 0.7072(4)
N1A N 0.3761(4) 0.8029(2) 0.5675(5)
O41A O 0.6630(3) 0.5136(2) 0.7858(4)
C40A C 0.7552(4) 0.6119(2) 0.8486(5)
O42A O 0.2945(4) 0.5477(3) 0.3015(6)
O43A O 0.5135(3) 0.4548(2) 0.8233(6)
C41A C 0.5521(4) 0.8117(2) 0.7557(6)
H15A H 0.5340 0.8234 0.7079
H16A H 0.5251 0.7970 0.7617
O44A O 0.4261(3) 0.3886(3) 0.5980(5)
O45A O 0.3180(3) 0.6989(2) 0.6079(4)
C42A C 0.4504(4) 0.3015(3) 0.6448(5)
C43A C 0.1875(4) 0.4226(3) 0.6473(6)
H17A H 0.1935 0.4354 0.6915
H18A H 0.1601 0.4372 0.6068
C44A C 0.1763(3) 0.5826(2) 0.4384(5)
O46A O 0.3855(4) 0.5957(2) 0.5761(6)
C45A C 0.7069(4) 0.3029(2) 0.7741(5)
C46A C 0.5090(4) 0.3880(3) 0.8401(5)
C47A C 0.5771(3) 0.2439(2) 0.7059(5)
H19A H 0.5602 0.2309 0.6588
C48A C 0.3227(3) 0.4636(2) 0.6954(5)
O47A O 0.7658(4) 0.6978(2) 0.6128(5)
C49A C 0.4523(4) 0.6907(2) 0.6434(5)
C50A C 0.5070(4) 0.6092(2) 0.8355(5)
O48A O 0.5472(3) 0.3487(2) 0.4977(5)
C51A C 0.2672(3) 0.5324(2) 0.6607(5)
C52A C 0.4550(3) 0.6810(2) 0.7087(5)
C53A C 0.7064(3) 0.6096(2) 0.9337(5)
C54A C 0.4896(4) 0.2811(3) 0.6447(5)
C55A C 0.7733(4) 0.2851(2) 0.8984(5)
H20A H 0.7758 0.2606 0.8777
H21A H 0.7458 0.2823 0.9133
C56A C 0.7526(4) 0.3881(2) 0.8416(5)
C57A C 0.5909(4) 0.4207(3) 0.9026(6)
C58A C 0.5350(4) 0.2805(2) 0.7703(5)
H22A H 0.5644 0.2727 0.8140
C59A C 0.1334(3) 0.4975(3) 0.3670(4)
H23A H 0.1162 0.4971 0.3951
C60A C 0.5377(5) 0.4228(3) 0.8569(7)
C61A C 0.5913(4) 0.5748(2) 0.9010(5)
O49A O 0.4286(4) 0.5529(3) 0.6610(5)
C62A C 0.5962(4) 0.7842(2) 0.7603(5)
H24A H 0.6231 0.7990 0.7541
H25A H 0.6145 0.7729 0.8083
C63A C 0.1460(4) 0.5330(2) 0.3481(5)
C64A C 0.5239(5) 0.2852(2) 0.9025(6)
H26A H 0.5607 0.2787 0.9130
H27A H 0.5257 0.2954 0.9464
C65A C 0.3506(3) 0.4991(3) 0.7113(4)
C66A C 0.5346(3) 0.2681(2) 0.7087(5)
C67A C 0.6999(3) 0.3166(2) 0.7106(5)
N2A N 0.5348(4) 0.5638(3) 0.6911(7)
H28A H 0.5131 0.5535 0.6478
H29A H 0.5272 0.5531 0.7235
C68A C 0.7003(4) 0.3580(3) 1.0365(5)
H30A H 0.6787 0.3586 1.0611
H31A H 0.6961 0.3327 1.0149
C69A C 0.2627(4) 0.6175(2) 0.5021(5)
C70A C 0.2181(4) 0.6050(2) 0.4386(5)
C71A C 0.1881(4) 0.4218(2) 0.5057(5)
H32A H 0.1605 0.4361 0.5071
O50A O 0.6678(5) 0.6018(3) 0.5950(8)
C72A C 0.7590(6) 0.3644(4) 1.0907(7)
H33A H 0.7810 0.3643 1.0667
H34A H 0.7635 0.3891 1.1145
C73A C 0.1834(4) 0.4988(3) 0.2851(4)
O51A O 0.4315(4) 0.4537(3) 0.8611(6)
C74A C 0.2407(3) 0.4965(3) 0.6447(4)
H35A H 0.2028 0.4960 0.6194
O52A O 0.5835(4) 0.5041(4) 0.7789(5)
C75A C 0.5189(4) 0.7098(3) 0.8988(5)
H36A H 0.5555 0.7180 0.9112
H37A H 0.5203 0.6986 0.9418
C76A C 0.1707(4) 0.4627(2) 0.3062(5)
C77A C 0.5319(4) 0.6437(3) 0.8644(5)
O53A O 0.5456(4) 0.5036(3) 0.9564(6)
C78A C 0.7539(3) 0.6832(2) 0.8441(5)
H38A H 0.7845 0.6794 0.8344
C79A C 0.7716(4) 0.7149(2) 0.9022(5)
H39A H 0.7758 0.7391 0.8820
H40A H 0.7431 0.7185 0.9151
C80A C 0.7411(4) 0.3523(2) 0.8674(4)
O54A O 0.3357(4) 0.4044(3) 0.3977(6)
C81A C 0.6572(4) 0.6926(3) 0.6461(5)
C82A C 0.1331(3) 0.4258(2) 0.3709(5)
H41A H 0.1285 0.4069 0.3339
C83A C 0.6169(4) 0.6105(3) 0.9310(5)
C84A C 0.4910(4) 0.2506(3) 0.8813(5)
H42A H 0.4867 0.2419 0.8351
H43A H 0.4551 0.2569 0.8743
C85A C 0.5974(4) 0.2120(2) 0.7651(6)
H44A H 0.6268 0.1977 0.7643
H45A H 0.6115 0.2239 0.8124
C86A C 0.1846(4) 0.5678(3) 0.6459(6)
H46A H 0.1649 0.5916 0.6256
H47A H 0.1617 0.5466 0.6172
C87A C 0.7193(3) 0.3534(2) 0.9092(4)
H48A H 0.7113 0.3300 0.9238
C88A C 0.8223(4) 0.7062(3) 0.9673(5)
H49A H 0.8514 0.7036 0.9553
H50A H 0.8188 0.6820 0.9876
C89A C 0.7458(4) 0.5767(3) 0.8737(6)
C90A C 0.6035(6) 0.3845(4) 0.7241(9)
H51A H 0.6177 0.3819 0.6906
H52A H 0.6251 0.3685 0.7662
C91A C 0.5879(4) 0.6429(2) 0.9115(4)
H53A H 0.6059 0.6662 0.9302
C92A C 0.2374(4) 0.5680(2) 0.6397(5)
H54A H 0.2612 0.5872 0.6750
C93A C 0.6984(4) 0.6387(3) 1.0368(5)
H55A H 0.6914 0.6639 1.0137
H56A H 0.6772 0.6371 1.0620
O55A O 0.4504(7) 0.6480(3) 0.4937(7)
C94A C 0.2280(4) 0.5820(2) 0.5698(6)
C95A C 0.5374(4) 0.5757(2) 0.8523(5)
C96A C 0.6173(4) 0.7159(2) 0.6439(5)
C97A C 0.6785(4) 0.6084(2) 0.9794(4)
H57A H 0.6868 0.5833 1.0038
C98A C 0.0311(4) 0.5612(4) 0.3003(8)
H58A H 0.0291 0.5815 0.2673
H59A H 0.0363 0.5369 0.2815
C99A C 0.0803(4) 0.5685(3) 0.3729(6)
H60A H 0.0752 0.5928 0.3917
H61A H 0.0824 0.5482 0.4059
C100A C 0.4572(6) 0.4120(4) 0.6416(7)
C101A C 0.7207(4) 0.5760(2) 0.9108(5)
C102A C 0.5953(4) 0.5576(3) 0.7127(7)
H62A H 0.5992 0.5524 0.6698
C103A C 0.5005(4) 0.6795(2) 0.8409(5)
H63A H 0.4632 0.6727 0.8293
C104A C 0.7758(16) 0.3338(11) 1.1429(19)
H64A H 0.8134 0.3373 1.1783
H65A H 0.7539 0.3342 1.1665
H66A H 0.7713 0.3094 1.1189
C105A C 0.0324(4) 0.4333(3) 0.3030(6)
H67A H 0.0293 0.4139 0.2681
H68A H 0.0362 0.4583 0.2851
C106A C 0.6056(7) 0.4242(5) 0.7454(11)
H69A H 0.6302 0.4389 0.7345
H70A H 0.6179 0.4261 0.7968
C107A C 0.3384(7) 0.4667(4) 0.5368(10)
H71A H 0.3454 0.4444 0.5150
H72A H 0.3278 0.4580 0.5720
C108A C 0.3863(4) 0.7679(3) 0.5590(6)
C109A C 0.4808(6) 0.7458(3) 0.8754(8)
H73A H 0.4988 0.7655 0.9121
H74A H 0.4785 0.7556 0.8310
C110A C 0.5493(6) 0.3733(3) 0.6912(11)
H75A H 0.5403 0.3635 0.7272
H76A H 0.5425 0.3531 0.6561
C111A C 0.8362(5) 0.7383(4) 1.0228(6)
H77A H 0.8698 0.7322 1.0656
H78A H 0.8401 0.7623 1.0028
H79A H 0.8076 0.7406 1.0350
O56A O 0.6966(7) 0.4456(4) 0.6808(9)
C112A C 0.8422(7) 0.2648(3) 1.0217(7)
H80A H 0.8768 0.2717 1.0619
H81A H 0.8151 0.2643 1.0370
H82A H 0.8448 0.2397 1.0041
O57A O 0.4335(6) 0.5431(4) 0.8626(6)
C113A C 0.5736(6) 0.8417(4) 0.8096(8)
H83A H 0.5444 0.8581 0.8045
H84A H 0.5908 0.8302 0.8570
H85A H 0.5998 0.8566 0.8032
C114A C 0.6160(6) 0.5227(5) 0.7652(7)
C115A C 0.8270(5) 0.2930(3) 0.9642(6)
H86A H 0.8551 0.2937 0.9501
H87A H 0.8255 0.3183 0.9829
C116A C 0.2677(4) 0.6062(2) 0.5668(5)
C117A C 0.2971(7) 0.4898(4) 0.4836(14)
H88A H 0.2968 0.4861 0.4378
H89A H 0.2620 0.4815 0.4773
N3A N 0.3888(4) 0.4925(3) 0.5730(7)
H90A H 0.4014 0.4935 0.6207
H91A H 0.4150 0.4836 0.5646
C118A C 0.5133(7) 0.2186(3) 0.9333(7)
H92A H 0.4892 0.1968 0.9153
H93A H 0.5485 0.2115 0.9398
H94A H 0.5168 0.2265 0.9790
C119A C 0.3587(11) 0.8284(4) 0.5080(11)
H95A H 0.3525 0.8536 0.5217
H96A H 0.3862 0.8300 0.4935
H97A H 0.3254 0.8189 0.4683
C120A C -0.0191(4) 0.4330(4) 0.3108(7)
H98A H -0.0503 0.4382 0.2646
H99A H -0.0231 0.4081 0.3278
H100A H -0.0162 0.4525 0.3448
C121A C 0.5538(5) 0.1858(3) 0.7534(7)
H101A H 0.5382 0.1751 0.7049
H102A H 0.5254 0.1999 0.7570
C122A C 0.3975(6) 0.5626(4) 0.5971(9)
N4A N 0.5506(5) 0.4381(3) 0.7037(7)
H103A H 0.5503 0.4589 0.6785
H104A H 0.5381 0.4451 0.7336
C123A C 0.1666(6) 0.3836(4) 0.6457(8)
H105A H 0.1956 0.3677 0.6817
H106A H 0.1550 0.3721 0.5985
O58A O 0.8674(9) 0.4472(5) 0.8637(9)
C124A C 0.1942(6) 0.5638(4) 0.7216(8)
H107A H 0.2144 0.5401 0.7419
H108A H 0.2171 0.5851 0.7501
C125A C 0.5150(5) 0.4085(4) 0.6540(8)
H109A H 0.5141 0.4118 0.6074
C126A C -0.0211(5) 0.5597(5) 0.3002(10)
H110A H -0.0500 0.5550 0.2519
H111A H -0.0202 0.5392 0.3315
H112A H -0.0274 0.5839 0.3173
C127A C 0.5782(6) 0.6252(4) 0.6995(11)
H113A H 0.5853 0.6492 0.7264
H114A H 0.5776 0.6299 0.6539
C128A C 0.5742(7) 0.1524(3) 0.8093(8)
H115A H 0.5443 0.1356 0.8000
H116A H 0.6019 0.1381 0.8052
H117A H 0.5890 0.1628 0.8573
C129A C 0.1188(8) 0.3839(6) 0.6610(13)
H118A H 0.1062 0.3580 0.6595
H119A H 0.1303 0.3948 0.7080
H120A H 0.0898 0.3992 0.6250
C130A C 0.7546(6) 0.6364(4) 1.0889(6)
H121A H 0.7759 0.6442 1.0661
H122A H 0.7635 0.6097 1.1037
C131A C 0.5274(11) 0.6063(5) 0.6891(12)
H123A H 0.4971 0.6139 0.6428
H124A H 0.5195 0.6142 0.7271
C132A C 0.3870(6) 0.8193(3) 0.6362(8)
H125A H 0.3761 0.8459 0.6296
H126A H 0.3669 0.8054 0.6549
H127A H 0.4253 0.8175 0.6699
C133A C 0.3697(7) 0.5313(4) 0.5393(8)
H128A H 0.3802 0.5348 0.5017
C134A C 0.6191(7) 0.5935(5) 0.7438(9)
H129A H 0.6529 0.5971 0.7426
H130A H 0.6269 0.5946 0.7939
C135A C 0.1467(7) 0.5632(6) 0.7296(13)
H131A H 0.1571 0.5606 0.7799
H132A H 0.1269 0.5869 0.7112
H133A H 0.1241 0.5418 0.7030
C136A C 0.4292(9) 0.7425(8) 0.8642(14)
H134A H 0.4113 0.7671 0.8502
H135A H 0.4097 0.7240 0.8264
H136A H 0.4301 0.7340 0.9080
C137A C 0.3042(7) 0.5267(5) 0.5008(12)
H137A H 0.2906 0.5331 0.5340
H138A H 0.2862 0.5429 0.4581
C138A C 0.7711(5) 0.6605(4) 1.1547(6)
H139A H 0.8094 0.6574 1.1871
H140A H 0.7634 0.6872 1.1409
H141A H 0.7510 0.6526 1.1786
loop_
_geom_bond_atom_site_label_1
_geom_bond_atom_site_label_2
_geom_bond_site_symmetry_1
_geom_bond_site_symmetry_2
Mg1 O1 1_555 1_555
Mg2 O8 1_555 1_555
Mg3 O5 1_555 1_555
Mg4 O12 1_555 1_555
Mg5 O8 1_555 1_555
Mg6 O3 1_555 1_555
Mg7 O20 1_555 1_555
Mg8 O22 1_555 1_555
Mg9 O7 1_555 1_555
Mg10 O5 1_555 1_555
Mg11 O29 1_555 1_555
Mg12 O2 1_555 1_555
O1 C17 1_555 1_555
O2 C2 1_555 1_555
O3 C9 1_555 1_555
O4 C76 1_555 1_555
O5 C29 1_555 1_555
O6 Mg3 1_555 1_555
O7 C12 1_555 1_555
O8 C49 1_555 1_555
O9 Mg1 1_555 1_555
O10 Mg10 1_555 1_555
O11 C54 1_555 1_555
O12 C20 1_555 1_555
O13 Mg12 1_555 1_555
O14 Mg2 1_555 1_555
O15 Mg9 1_555 1_555
O16 C70 1_555 1_555
O17 Mg5 1_555 1_555
O18 C96 1_555 1_555
C1 H1 1_555 1_555
O19 Mg1 1_555 1_555
O20 C57 1_555 1_555
O21 Mg2 1_555 1_555
O22 C46 1_555 1_555
O23 Mg8 1_555 1_555
O24 Mg7 1_555 1_555
O25 Mg4 1_555 1_555
O26 Mg5 1_555 1_555
O27 Mg12 1_555 1_555
C2 C8 1_555 1_555
C3 O9 1_555 1_555
O28 C67 1_555 1_555
C4 H2 1_555 1_555
O29 C25 1_555 1_555
C5 C3 1_555 1_555
C6 C11 1_555 1_555
O30 Mg4 1_555 1_555
O31 Mg3 1_555 1_555
C7 C1 1_555 1_555
C8 C21 1_555 1_555
C9 C26 1_555 1_555
C10 C7 1_555 1_555
H3 C10 1_555 1_555
C11 H4 1_555 1_555
O32 Mg11 1_555 1_555
C12 C28 1_555 1_555
O33 Mg5 1_555 1_555
C13 O6 1_555 1_555
O34 Mg4 1_555 1_555
O35 C40 1_555 1_555
O36 Mg6 1_555 1_555
C14 H5 1_555 1_555
O37 Mg11 1_555 1_555
C15 C22 1_555 1_555
C16 C10 1_555 1_555
C17 C3 1_555 1_555
C18 H6 1_555 1_555
C19 C5 1_555 1_555
H7 C19 1_555 1_555
C20 C51 1_555 1_555
C21 H8 1_555 1_555
O38 Mg8 1_555 1_555
C22 H9 1_555 1_555
C23 O13 1_555 1_555
C24 C15 1_555 1_555
H10 C24 1_555 1_555
C25 C63 1_555 1_555
O39 Mg3 1_555 1_555
C26 C18 1_555 1_555
C27 C1 1_555 1_555
C28 O15 1_555 1_555
C29 C13 1_555 1_555
C30 H11 1_555 1_555
C31 H12 1_555 1_555
C32 C13 1_555 1_555
O40 Mg3 1_555 1_555
C33 C59 1_555 1_555
C34 C21 1_555 1_555
C35 C22 1_555 1_555
C36 O14 1_555 1_555
C37 H13 1_555 1_555
H14 C37 1_555 1_555
C38 C12 1_555 1_555
C39 C18 1_555 1_555
N1 C108 1_555 1_555
O41 Mg3 1_555 1_555
C40 C6 1_555 1_555
O42 Mg11 1_555 1_555
O43 Mg7 1_555 1_555
C41 H15 1_555 1_555
H16 C41 1_555 1_555
O44 Mg12 1_555 1_555
O45 Mg5 1_555 1_555
C42 O27 1_555 1_555
C43 C21 1_555 1_555
H17 C43 1_555 1_555
H18 C43 1_555 1_555
C44 C30 1_555 1_555
O46 Mg5 1_555 1_555
C45 C4 1_555 1_555
C46 C7 1_555 1_555
C47 C5 1_555 1_555
H19 C47 1_555 1_555
C48 O23 1_555 1_555
O47 Mg6 1_555 1_555
C49 C36 1_555 1_555
C50 O25 1_555 1_555
O48 Mg1 1_555 1_555
C51 C74 1_555 1_555
C52 O17 1_555 1_555
C53 C11 1_555 1_555
C54 C42 1_555 1_555
C55 C4 1_555 1_555
H20 C55 1_555 1_555
H21 C55 1_555 1_555
C56 O10 1_555 1_555
C57 C16 1_555 1_555
C58 C27 1_555 1_555
H22 C58 1_555 1_555
C59 H23 1_555 1_555
C60 O43 1_555 1_555
C61 O24 1_555 1_555
O49 Mg4 1_555 1_555
C62 C24 1_555 1_555
H24 C62 1_555 1_555
H25 C62 1_555 1_555
C63 C31 1_555 1_555
C64 C1 1_555 1_555
H26 C64 1_555 1_555
H27 C64 1_555 1_555
C65 O34 1_555 1_555
C66 C47 1_555 1_555
C67 C17 1_555 1_555
N2 H28 1_555 1_555
H29 N2 1_555 1_555
C68 C14 1_555 1_555
H30 C68 1_555 1_555
H31 C68 1_555 1_555
C69 O26 1_555 1_555
C70 C44 1_555 1_555
C71 C8 1_555 1_555
H32 C71 1_555 1_555
O50 Mg6 1_555 1_555
C72 C68 1_555 1_555
H33 C72 1_555 1_555
H34 C72 1_555 1_555
C73 O32 1_555 1_555
O51 Mg8 1_555 1_555
C74 C34 1_555 1_555
H35 C74 1_555 1_555
O52 Mg7 1_555 1_555
C75 H36 1_555 1_555
H37 C75 1_555 1_555
C76 C33 1_555 1_555
C77 C50 1_555 1_555
O53 Mg7 1_555 1_555
C78 C6 1_555 1_555
H38 C78 1_555 1_555
C79 C78 1_555 1_555
H39 C79 1_555 1_555
H40 C79 1_555 1_555
C80 C4 1_555 1_555
O54 Mg9 1_555 1_555
C81 C9 1_555 1_555
C82 C33 1_555 1_555
H41 C82 1_555 1_555
C83 C61 1_555 1_555
C84 C64 1_555 1_555
H42 C84 1_555 1_555
H43 C84 1_555 1_555
C85 C47 1_555 1_555
H44 C85 1_555 1_555
H45 C85 1_555 1_555
C86 H46 1_555 1_555
H47 C86 1_555 1_555
C87 C32 1_555 1_555
H48 C87 1_555 1_555
C88 C79 1_555 1_555
H49 C88 1_555 1_555
H50 C88 1_555 1_555
C89 O40 1_555 1_555
C90 H51 1_555 1_555
H52 C90 1_555 1_555
C91 C77 1_555 1_555
H53 C91 1_555 1_555
C92 C51 1_555 1_555
H54 C92 1_555 1_555
C93 H55 1_555 1_555
H56 C93 1_555 1_555
O55 Mg2 1_555 1_555
C94 C30 1_555 1_555
C95 O30 1_555 1_555
C96 C39 1_555 1_555
C97 C53 1_555 1_555
H57 C97 1_555 1_555
C98 H58 1_555 1_555
H59 C98 1_555 1_555
C99 C31 1_555 1_555
H60 C99 1_555 1_555
H61 C99 1_555 1_555
C100 O38 1_555 1_555
C101 O31 1_555 1_555
C102 N2 1_555 1_555
H62 C102 1_555 1_555
C103 C35 1_555 1_555
H63 C103 1_555 1_555
C104 C72 1_555 1_555
H64 C104 1_555 1_555
H65 C104 1_555 1_555
H66 C104 1_555 1_555
C105 C37 1_555 1_555
H67 C105 1_555 1_555
H68 C105 1_555 1_555
C106 C90 1_555 1_555
H69 C106 1_555 1_555
H70 C106 1_555 1_555
C107 H71 1_555 1_555
H72 C107 1_555 1_555
C108 O21 1_555 1_555
C109 C75 1_555 1_555
H73 C109 1_555 1_555
H74 C109 1_555 1_555
C110 C90 1_555 1_555
H75 C110 1_555 1_555
H76 C110 1_555 1_555
C111 C88 1_555 1_555
H77 C111 1_555 1_555
H78 C111 1_555 1_555
H79 C111 1_555 1_555
O56 Mg10 1_555 1_555
C112 H80 1_555 1_555
H81 C112 1_555 1_555
H82 C112 1_555 1_555
O57 Mg4 1_555 1_555
C113 C41 1_555 1_555
H83 C113 1_555 1_555
H84 C113 1_555 1_555
H85 C113 1_555 1_555
C114 O41 1_555 1_555
C115 C55 1_555 1_555
H86 C115 1_555 1_555
H87 C115 1_555 1_555
C116 O33 1_555 1_555
C117 C107 1_555 1_555
H88 C117 1_555 1_555
H89 C117 1_555 1_555
N3 C107 1_555 1_555
H90 N3 1_555 1_555
H91 N3 1_555 1_555
C118 C84 1_555 1_555
H92 C118 1_555 1_555
H93 C118 1_555 1_555
H94 C118 1_555 1_555
C119 N1 1_555 1_555
H95 C119 1_555 1_555
H96 C119 1_555 1_555
H97 C119 1_555 1_555
C120 C105 1_555 1_555
H98 C120 1_555 1_555
H99 C120 1_555 1_555
H100 C120 1_555 1_555
C121 C85 1_555 1_555
H101 C121 1_555 1_555
H102 C121 1_555 1_555
C122 O46 1_555 1_555
N4 C106 1_555 1_555
H103 N4 1_555 1_555
H104 N4 1_555 1_555
C123 C43 1_555 1_555
H105 C123 1_555 1_555
H106 C123 1_555 1_555
O58 Mg10 1_555 1_555
C124 C86 1_555 1_555
H107 C124 1_555 1_555
H108 C124 1_555 1_555
C125 C100 1_555 1_555
H109 C125 1_555 1_555
C126 C98 1_555 1_555
H110 C126 1_555 1_555
H111 C126 1_555 1_555
H112 C126 1_555 1_555
C127 H113 1_555 1_555
H114 C127 1_555 1_555
C128 C121 1_555 1_555
H115 C128 1_555 1_555
H116 C128 1_555 1_555
H117 C128 1_555 1_555
C129 C123 1_555 1_555
H118 C129 1_555 1_555
H119 C129 1_555 1_555
H120 C129 1_555 1_555
C130 C93 1_555 1_555
H121 C130 1_555 1_555
H122 C130 1_555 1_555
C131 N2 1_555 1_555
H123 C131 1_555 1_555
H124 C131 1_555 1_555
C132 N1 1_555 1_555
H125 C132 1_555 1_555
H126 C132 1_555 1_555
H127 C132 1_555 1_555
C133 N3 1_555 1_555
H128 C133 1_555 1_555
C134 C102 1_555 1_555
H129 C134 1_555 1_555
H130 C134 1_555 1_555
C135 C124 1_555 1_555
H131 C135 1_555 1_555
H132 C135 1_555 1_555
H133 C135 1_555 1_555
C136 C109 1_555 1_555
H134 C136 1_555 1_555
H135 C136 1_555 1_555
H136 C136 1_555 1_555
C137 C117 1_555 1_555
H137 C137 1_555 1_555
H138 C137 1_555 1_555
C138 C130 1_555 1_555
H139 C138 1_555 1_555
H140 C138 1_555 1_555
H141 C138 1_555 1_555
Mg1A O11 1_555 1_555
Mg2A O18 1_555 1_555
Mg3A O5A 1_555 1_555
Mg4A O12A 1_555 1_555
Mg5A O8A 1_555 1_555
Mg6A O16 1_555 1_555
Mg7A O20A 1_555 1_555
Mg8A O22A 1_555 1_555
Mg9A O1 1_555 1_555
Mg10A O4 1_555 1_555
Mg11A O35 1_555 1_555
Mg12A O2A 1_555 1_555
O1A Mg9 1_555 1_555
O2A C2A 1_555 1_555
O3A Mg6A 1_555 1_555
O4A Mg10 1_555 1_555
O5A Mg10A 1_555 1_555
O6A Mg3A 1_555 1_555
O7A Mg9A 1_555 1_555
O8A Mg2A 1_555 1_555
O9A Mg1A 1_555 1_555
O10A Mg10A 1_555 1_555
O11A Mg1 1_555 1_555
O12A C20A 1_555 1_555
O13A Mg12A 1_555 1_555
O14A Mg2A 1_555 1_555
O15A Mg9A 1_555 1_555
O16A Mg6 1_555 1_555
O17A Mg5A 1_555 1_555
O18A Mg2 1_555 1_555
C1A H1A 1_555 1_555
O19A Mg1A 1_555 1_555
O20A C57A 1_555 1_555
O21A Mg2A 1_555 1_555
O22A C46A 1_555 1_555
O23A Mg8A 1_555 1_555
O24A Mg7A 1_555 1_555
O25A Mg4A 1_555 1_555
O26A Mg6 1_555 1_555
O27A Mg1 1_555 1_555
C2A C8A 1_555 1_555
C3A O9A 1_555 1_555
O28A Mg9 1_555 1_555
C4A H2A 1_555 1_555
O29A Mg11A 1_555 1_555
C5A C3A 1_555 1_555
C6A C11A 1_555 1_555
O30A Mg4A 1_555 1_555
O31A Mg3A 1_555 1_555
C7A C1A 1_555 1_555
C8A C21A 1_555 1_555
C9A O3A 1_555 1_555
C10A C7A 1_555 1_555
H3A C10A 1_555 1_555
C11A H4A 1_555 1_555
O32A Mg10 1_555 1_555
C12A O7A 1_555 1_555
O33A Mg5A 1_555 1_555
C13A O6A 1_555 1_555
O34A Mg4A 1_555 1_555
O35A Mg11 1_555 1_555
O36A Mg2 1_555 1_555
C14A H5A 1_555 1_555
O37A Mg11A 1_555 1_555
C15A C22A 1_555 1_555
C16A C10A 1_555 1_555
C17A O1A 1_555 1_555
C18A H6A 1_555 1_555
C19A C5A 1_555 1_555
H7A C19A 1_555 1_555
C20A C51A 1_555 1_555
C21A H8A 1_555 1_555
O38A Mg8A 1_555 1_555
C22A H9A 1_555 1_555
C23A O13A 1_555 1_555
C24A C15A 1_555 1_555
H10A C24A 1_555 1_555
C25A O29A 1_555 1_555
O39A Mg3A 1_555 1_555
C26A C9A 1_555 1_555
C27A C1A 1_555 1_555
C28A O15A 1_555 1_555
C29A O5A 1_555 1_555
C30A H11A 1_555 1_555
C31A H12A 1_555 1_555
C32A C13A 1_555 1_555
O40A Mg11 1_555 1_555
C33A C59A 1_555 1_555
C34A C21A 1_555 1_555
C35A C22A 1_555 1_555
C36A O14A 1_555 1_555
C37A H13A 1_555 1_555
H14A C37A 1_555 1_555
C38A C12A 1_555 1_555
C39A C18A 1_555 1_555
N1A C108A 1_555 1_555
O41A Mg3A 1_555 1_555
C40A C6A 1_555 1_555
O42A Mg11A 1_555 1_555
O43A Mg7A 1_555 1_555
C41A H15A 1_555 1_555
H16A C41A 1_555 1_555
O44A Mg12A 1_555 1_555
O45A Mg5A 1_555 1_555
C42A O27A 1_555 1_555
C43A C21A 1_555 1_555
H17A C43A 1_555 1_555
H18A C43A 1_555 1_555
C44A C30A 1_555 1_555
O46A Mg5A 1_555 1_555
C45A C4A 1_555 1_555
C46A C7A 1_555 1_555
C47A C5A 1_555 1_555
H19A C47A 1_555 1_555
C48A O23A 1_555 1_555
O47A Mg6A 1_555 1_555
C49A O8A 1_555 1_555
C50A O25A 1_555 1_555
O48A Mg1A 1_555 1_555
C51A C74A 1_555 1_555
C52A O17A 1_555 1_555
C53A C11A 1_555 1_555
C54A O11A 1_555 1_555
C55A C4A 1_555 1_555
H20A C55A 1_555 1_555
H21A C55A 1_555 1_555
C56A O10A 1_555 1_555
C57A C16A 1_555 1_555
C58A C27A 1_555 1_555
H22A C58A 1_555 1_555
C59A H23A 1_555 1_555
C60A O43A 1_555 1_555
C61A O24A 1_555 1_555
O49A Mg4A 1_555 1_555
C62A C24A 1_555 1_555
H24A C62A 1_555 1_555
H25A C62A 1_555 1_555
C63A C25A 1_555 1_555
C64A C1A 1_555 1_555
H26A C64A 1_555 1_555
H27A C64A 1_555 1_555
C65A O34A 1_555 1_555
C66A C47A 1_555 1_555
C67A O28A 1_555 1_555
N2A H28A 1_555 1_555
H29A N2A 1_555 1_555
C68A C14A 1_555 1_555
H30A C68A 1_555 1_555
H31A C68A 1_555 1_555
C69A O26A 1_555 1_555
C70A O16A 1_555 1_555
C71A C8A 1_555 1_555
H32A C71A 1_555 1_555
O50A Mg6A 1_555 1_555
C72A C68A 1_555 1_555
H33A C72A 1_555 1_555
H34A C72A 1_555 1_555
C73A O32A 1_555 1_555
O51A Mg8A 1_555 1_555
C74A C34A 1_555 1_555
H35A C74A 1_555 1_555
O52A Mg7A 1_555 1_555
C75A H36A 1_555 1_555
H37A C75A 1_555 1_555
C76A O4A 1_555 1_555
C77A C50A 1_555 1_555
O53A Mg7A 1_555 1_555
C78A C6A 1_555 1_555
H38A C78A 1_555 1_555
C79A C78A 1_555 1_555
H39A C79A 1_555 1_555
H40A C79A 1_555 1_555
C80A C4A 1_555 1_555
O54A Mg9A 1_555 1_555
C81A C9A 1_555 1_555
C82A C33A 1_555 1_555
H41A C82A 1_555 1_555
C83A C61A 1_555 1_555
C84A C64A 1_555 1_555
H42A C84A 1_555 1_555
H43A C84A 1_555 1_555
C85A C47A 1_555 1_555
H44A C85A 1_555 1_555
H45A C85A 1_555 1_555
C86A H46A 1_555 1_555
H47A C86A 1_555 1_555
C87A C32A 1_555 1_555
H48A C87A 1_555 1_555
C88A C79A 1_555 1_555
H49A C88A 1_555 1_555
H50A C88A 1_555 1_555
C89A O40A 1_555 1_555
C90A H51A 1_555 1_555
H52A C90A 1_555 1_555
C91A C77A 1_555 1_555
H53A C91A 1_555 1_555
C92A C51A 1_555 1_555
H54A C92A 1_555 1_555
C93A H55A 1_555 1_555
H56A C93A 1_555 1_555
O55A Mg2A 1_555 1_555
C94A C30A 1_555 1_555
C95A O30A 1_555 1_555
C96A O18A 1_555 1_555
C97A C53A 1_555 1_555
H57A C97A 1_555 1_555
C98A H58A 1_555 1_555
H59A C98A 1_555 1_555
C99A C31A 1_555 1_555
H60A C99A 1_555 1_555
H61A C99A 1_555 1_555
C100A O38A 1_555 1_555
C101A O31A 1_555 1_555
C102A N2A 1_555 1_555
H62A C102A 1_555 1_555
C103A C35A 1_555 1_555
H63A C103A 1_555 1_555
C104A C72A 1_555 1_555
H64A C104A 1_555 1_555
H65A C104A 1_555 1_555
H66A C104A 1_555 1_555
C105A C37A 1_555 1_555
H67A C105A 1_555 1_555
H68A C105A 1_555 1_555
C106A C90A 1_555 1_555
H69A C106A 1_555 1_555
H70A C106A 1_555 1_555
C107A H71A 1_555 1_555
H72A C107A 1_555 1_555
C108A O21A 1_555 1_555
C109A C75A 1_555 1_555
H73A C109A 1_555 1_555
H74A C109A 1_555 1_555
C110A C90A 1_555 1_555
H75A C110A 1_555 1_555
H76A C110A 1_555 1_555
C111A C88A 1_555 1_555
H77A C111A 1_555 1_555
H78A C111A 1_555 1_555
H79A C111A 1_555 1_555
O56A Mg10A 1_555 1_555
C112A H80A 1_555 1_555
H81A C112A 1_555 1_555
H82A C112A 1_555 1_555
O57A Mg4A 1_555 1_555
C113A C41A 1_555 1_555
H83A C113A 1_555 1_555
H84A C113A 1_555 1_555
H85A C113A 1_555 1_555
C114A O41A 1_555 1_555
C115A C55A 1_555 1_555
H86A C115A 1_555 1_555
H87A C115A 1_555 1_555
C116A O33A 1_555 1_555
C117A C107A 1_555 1_555
H88A C117A 1_555 1_555
H89A C117A 1_555 1_555
N3A C107A 1_555 1_555
H90A N3A 1_555 1_555
H91A N3A 1_555 1_555
C118A C84A 1_555 1_555
H92A C118A 1_555 1_555
H93A C118A 1_555 1_555
H94A C118A 1_555 1_555
C119A N1A 1_555 1_555
H95A C119A 1_555 1_555
H96A C119A 1_555 1_555
H97A C119A 1_555 1_555
C120A C105A 1_555 1_555
H98A C120A 1_555 1_555
H99A C120A 1_555 1_555
H100A C120A 1_555 1_555
C121A C85A 1_555 1_555
H101A C121A 1_555 1_555
H102A C121A 1_555 1_555
C122A O46A 1_555 1_555
N4A C106A 1_555 1_555
H103A N4A 1_555 1_555
H104A N4A 1_555 1_555
C123A C43A 1_555 1_555
H105A C123A 1_555 1_555
H106A C123A 1_555 1_555
O58A Mg10A 1_555 1_555
C124A C86A 1_555 1_555
H107A C124A 1_555 1_555
H108A C124A 1_555 1_555
C125A C100A 1_555 1_555
H109A C125A 1_555 1_555
C126A C98A 1_555 1_555
H110A C126A 1_555 1_555
H111A C126A 1_555 1_555
H112A C126A 1_555 1_555
C127A H113A 1_555 1_555
H114A C127A 1_555 1_555
C128A C121A 1_555 1_555
H115A C128A 1_555 1_555
H116A C128A 1_555 1_555
H117A C128A 1_555 1_555
C129A C123A 1_555 1_555
H118A C129A 1_555 1_555
H119A C129A 1_555 1_555
H120A C129A 1_555 1_555
C130A C93A 1_555 1_555
H121A C130A 1_555 1_555
H122A C130A 1_555 1_555
C131A N2A 1_555 1_555
H123A C131A 1_555 1_555
H124A C131A 1_555 1_555
C132A N1A 1_555 1_555
H125A C132A 1_555 1_555
H126A C132A 1_555 1_555
H127A C132A 1_555 1_555
C133A N3A 1_555 1_555
H128A C133A 1_555 1_555
C134A C102A 1_555 1_555
H129A C134A 1_555 1_555
H130A C134A 1_555 1_555
C135A C124A 1_555 1_555
H131A C135A 1_555 1_555
H132A C135A 1_555 1_555
H133A C135A 1_555 1_555
C136A C109A 1_555 1_555
H134A C136A 1_555 1_555
H135A C136A 1_555 1_555
H136A C136A 1_555 1_555
C137A C117A 1_555 1_555
H137A C137A 1_555 1_555
H138A C137A 1_555 1_555
C138A C130A 1_555 1_555
H139A C138A 1_555 1_555
H140A C138A 1_555 1_555
H141A C138A 1_555 1_555
Mg7 O30 1_555 1_555
Mg8 O34 1_555 1_555
Mg8 O43 1_555 1_555
Mg12 O15 1_555 1_555
O26 Mg6A 1_555 1_555
O27 Mg1A 1_555 1_555
C2 C28 1_555 1_555
O28 Mg9A 1_555 1_555
O32 Mg10A 1_555 1_555
O36 C81 1_555 1_555
O36 Mg2A 1_555 1_555
C14 C16 1_555 1_555
C14 C32 1_555 1_555
C15 C36 1_555 1_555
C19 C45 1_555 1_555
C20 C65 1_555 1_555
C23 C27 1_555 1_555
C23 C42 1_555 1_555
C24 C39 1_555 1_555
C25 C73 1_555 1_555
C26 C78 1_555 1_555
C29 C56 1_555 1_555
C31 C44 1_555 1_555
O40 Mg11A 1_555 1_555
C34 C48 1_555 1_555
C35 C52 1_555 1_555
C37 C82 1_555 1_555
C38 C71 1_555 1_555
C38 C82 1_555 1_555
C40 C89 1_555 1_555
C41 C62 1_555 1_555
O44 C100 1_555 1_555
C45 C67 1_555 1_555
C46 C60 1_555 1_555
C48 C65 1_555 1_555
C49 C52 1_555 1_555
C50 C95 1_555 1_555
C53 C101 1_555 1_555
C54 C66 1_555 1_555
C56 C80 1_555 1_555
C57 C60 1_555 1_555
C58 C66 1_555 1_555
C59 C63 1_555 1_555
C61 C95 1_555 1_555
O49 C122 1_555 1_555
C69 C70 1_555 1_555
C69 C116 1_555 1_555
C73 C76 1_555 1_555
O52 C114 1_555 1_555
C75 C103 1_555 1_555
C77 C103 1_555 1_555
C80 C87 1_555 1_555
C81 C96 1_555 1_555
C83 C91 1_555 1_555
C83 C97 1_555 1_555
C86 C92 1_555 1_555
C89 C101 1_555 1_555
C92 C94 1_555 1_555
C93 C97 1_555 1_555
C94 C116 1_555 1_555
C98 C99 1_555 1_555
C102 C114 1_555 1_555
C110 C125 1_555 1_555
C112 C115 1_555 1_555
C122 C133 1_555 1_555
N4 C125 1_555 1_555
C127 C131 1_555 1_555
C127 C134 1_555 1_555
C133 C137 1_555 1_555
Mg1A O1A 1_555 1_555
Mg3A O40A 1_555 1_555
Mg5A O26A 1_555 1_555
Mg6A O36A 1_555 1_555
Mg7A O30A 1_555 1_555
Mg8A O34A 1_555 1_555
Mg8A O43A 1_555 1_555
Mg11A O32A 1_555 1_555
Mg12A O15A 1_555 1_555
Mg12A O27A 1_555 1_555
C2A C28A 1_555 1_555
C3A C17A 1_555 1_555
C12A C28A 1_555 1_555
C13A C29A 1_555 1_555
O35A C40A 1_555 1_555
O36A C81A 1_555 1_555
C14A C16A 1_555 1_555
C14A C32A 1_555 1_555
C15A C36A 1_555 1_555
C17A C67A 1_555 1_555
C18A C26A 1_555 1_555
C19A C45A 1_555 1_555
C20A C65A 1_555 1_555
C23A C27A 1_555 1_555
C23A C42A 1_555 1_555
C24A C39A 1_555 1_555
C25A C73A 1_555 1_555
C26A C78A 1_555 1_555
C29A C56A 1_555 1_555
C31A C44A 1_555 1_555
C31A C63A 1_555 1_555
C33A C76A 1_555 1_555
C34A C48A 1_555 1_555
C35A C52A 1_555 1_555
C36A C49A 1_555 1_555
C37A C82A 1_555 1_555
C38A C71A 1_555 1_555
C38A C82A 1_555 1_555
C39A C96A 1_555 1_555
C40A C89A 1_555 1_555
C41A C62A 1_555 1_555
O44A C100A 1_555 1_555
C42A C54A 1_555 1_555
C44A C70A 1_555 1_555
C45A C67A 1_555 1_555
C46A C60A 1_555 1_555
C48A C65A 1_555 1_555
C49A C52A 1_555 1_555
C50A C95A 1_555 1_555
C53A C101A 1_555 1_555
C54A C66A 1_555 1_555
C56A C80A 1_555 1_555
C57A C60A 1_555 1_555
C58A C66A 1_555 1_555
C59A C63A 1_555 1_555
C61A C95A 1_555 1_555
O49A C122A 1_555 1_555
C69A C70A 1_555 1_555
C69A C116A 1_555 1_555
C73A C76A 1_555 1_555
O52A C114A 1_555 1_555
C75A C103A 1_555 1_555
C77A C103A 1_555 1_555
C80A C87A 1_555 1_555
C81A C96A 1_555 1_555
C83A C91A 1_555 1_555
C83A C97A 1_555 1_555
C86A C92A 1_555 1_555
C89A C101A 1_555 1_555
C92A C94A 1_555 1_555
C93A C97A 1_555 1_555
C94A C116A 1_555 1_555
C98A C99A 1_555 1_555
C102A C114A 1_555 1_555
C110A C125A 1_555 1_555
C112A C115A 1_555 1_555
C122A C133A 1_555 1_555
N4A C125A 1_555 1_555
C127A C131A 1_555 1_555
C127A C134A 1_555 1_555
C133A C137A 1_555 1_555

#END
