
#######################################################################
#
#                 Cambridge Crystallographic Data Centre
#                                CCDC 
#
#######################################################################
#
# If this CIF has been generated from an entry in the Cambridge 
# Structural Database, then it will include bibliographic, chemical, 
# crystal, experimental, refinement or atomic coordinate data resulting 
# from the CCDC's data processing and validation procedures.
#
#######################################################################

data_PELVAD
_chemical_formula_moiety         'C32 H32 B1 P1'
_chemical_name_systematic        (Diphenylphosphinoethynyl)dimesitylborane
_symmetry_cell_setting           triclinic
_symmetry_space_group_name_H-M   'P -1'
_symmetry_Int_Tables_number      2
_space_group_name_Hall           '-P 1'
loop_
_symmetry_equiv_pos_site_id
_symmetry_equiv_pos_as_xyz
1 x,y,z
2 -x,-y,-z
_cell_length_a                   8.453(2)
_cell_length_b                   8.490(2)
_cell_length_c                   20.368(4)
_cell_angle_alpha                92.50(2)
_cell_angle_beta                 91.53(2)
_cell_angle_gamma                111.86(2)
_cell_volume                     1353.88
_exptl_crystal_colour            colorless
_chemical_melting_point          '128-132 deg.C'
_cell_formula_units_Z            2
loop_
_atom_site_label
_atom_site_type_symbol
_atom_site_fract_x
_atom_site_fract_y
_atom_site_fract_z
P1 P 0.38419(9) 0.87240(9) 0.12263(3)
C1 C 0.2171(3) 0.9275(3) 0.2426(1)
C2 C 0.2716(3) 0.8941(3) 0.1913(1)
C3 C 0.1930(3) 0.9023(3) 0.3721(1)
C4 C 0.0668(3) 0.8433(3) 0.4191(1)
C5 C 0.0979(3) 0.7653(3) 0.4744(1)
C6 C 0.2519(3) 0.7470(3) 0.4862(1)
C7 C 0.3765(3) 0.8100(3) 0.4412(1)
C8 C 0.3507(3) 0.8833(3) 0.3847(1)
C9 C -0.1069(3) 0.8575(4) 0.4120(1)
C10 C 0.2826(5) 0.6615(5) 0.5462(2)
C11 C 0.4989(3) 0.9468(4) 0.3396(2)
C12 C 0.0643(3) 1.1082(3) 0.3021(1)
C13 C -0.0787(3) 1.0768(3) 0.2587(1)
C14 C -0.1473(3) 1.2011(3) 0.2525(1)
C15 C -0.0799(3) 1.3576(3) 0.2867(1)
C16 C 0.0604(3) 1.3882(3) 0.3291(1)
C17 C 0.1325(3) 1.2671(3) 0.3378(1)
C18 C -0.1636(4) 0.9097(3) 0.2197(2)
C19 C -0.1560(4) 1.4907(4) 0.2780(2)
C20 C 0.2888(4) 1.3134(4) 0.3836(2)
C21 C 0.4069(3) 0.6688(3) 0.1332(1)
C22 C 0.3287(4) 0.5559(4) 0.1800(1)
C23 C 0.3580(4) 0.4079(4) 0.1853(2)
C24 C 0.4648(4) 0.3690(4) 0.1443(2)
C25 C 0.5461(5) 0.4807(5) 0.0979(2)
C26 C 0.5175(4) 0.6295(4) 0.0924(1)
C27 C 0.2242(4) 0.8223(4) 0.0546(1)
C28 C 0.2835(6) 0.8400(6) -0.0091(2)
C29 C 0.1752(7) 0.8032(7) -0.0633(2)
C30 C 0.0083(7) 0.7557(8) -0.0560(2)
C31 C -0.0525(12) 0.7290(25) 0.0019(6)
C32 C 0.0581(8) 0.7494(14) 0.0588(3)
B1 B 0.1559(3) 0.9774(3) 0.3071(1)
H1 H 0.0094 0.7216 0.5049
H2 H 0.4850 0.8009 0.4496
H3 H -0.1552 0.8180 0.3684
H4 H -0.0933 0.9742 0.4201
H5 H -0.1813 0.7918 0.4439
H6 H 0.3061 0.5622 0.5338
H7 H 0.1826 0.6336 0.5716
H8 H 0.3752 0.7429 0.5726
H9 H 0.6047 0.9752 0.3645
H10 H 0.4971 1.0458 0.3190
H11 H 0.4892 0.8608 0.3058
H12 H -0.2449 1.1776 0.2230
H13 H 0.1098 1.4967 0.3530
H14 H -0.2753 0.8973 0.2032
H15 H -0.1709 0.8191 0.2475
H16 H -0.0935 0.9049 0.1839
H17 H -0.0988 1.5951 0.3038
H18 H -0.2733 1.4338 0.2879
H19 H -0.1564 1.5040 0.2314
H20 H 0.3246 1.4293 0.4006
H21 H 0.3791 1.2970 0.3603
H22 H 0.2620 1.2385 0.4191
H23 H 0.2536 0.5820 0.2093
H24 H 0.3033 0.3321 0.2186
H25 H 0.4825 0.2642 0.1474
H26 H 0.6233 0.4541 0.0698
H27 H 0.5739 0.7065 0.0596
H28 H 0.4043 0.8792 -0.0146
H29 H 0.2186 0.8076 -0.1066
H30 H -0.0659 0.7601 -0.0918
H31 H -0.1728 0.6700 0.0061
H32 H 0.0126 0.7176 0.1010
C33? C 0.1459(25) 0.6696(22) 0.0234(8)
C34? C 0.0108(29) 0.6461(19) -0.0186(13)
C35? C 0.0097(34) 0.8912(22) -0.0018(11)
C36? C 0.1276(26) 0.9206(20) 0.0497(8)
H33? H 0.1811 0.5779 0.0335
H34? H -0.0739 0.5343 -0.0283
H35? H -0.0767 0.9392 -0.0010
H36? H 0.1434 1.0101 0.0827
loop_
_geom_bond_atom_site_label_1
_geom_bond_atom_site_label_2
_geom_bond_site_symmetry_1
_geom_bond_site_symmetry_2
P1 C2 1_555 1_555
C1 C2 1_555 1_555
C3 C4 1_555 1_555
C4 C5 1_555 1_555
C5 C6 1_555 1_555
C6 C7 1_555 1_555
C7 C8 1_555 1_555
C8 C3 1_555 1_555
C9 C4 1_555 1_555
C10 C6 1_555 1_555
C11 C8 1_555 1_555
C12 C13 1_555 1_555
C13 C14 1_555 1_555
C14 C15 1_555 1_555
C15 C16 1_555 1_555
C16 C17 1_555 1_555
C17 C12 1_555 1_555
C18 C13 1_555 1_555
C19 C15 1_555 1_555
C20 C17 1_555 1_555
C21 P1 1_555 1_555
C22 C21 1_555 1_555
C23 C22 1_555 1_555
C24 C23 1_555 1_555
C25 C24 1_555 1_555
C26 C21 1_555 1_555
C27 P1 1_555 1_555
C28 C27 1_555 1_555
C29 C28 1_555 1_555
C30 C29 1_555 1_555
C31 C30 1_555 1_555
C32 C27 1_555 1_555
B1 C1 1_555 1_555
H1 C5 1_555 1_555
H2 C7 1_555 1_555
H3 C9 1_555 1_555
H4 C9 1_555 1_555
H5 C9 1_555 1_555
H6 C10 1_555 1_555
H7 C10 1_555 1_555
H8 C10 1_555 1_555
H9 C11 1_555 1_555
H10 C11 1_555 1_555
H11 C11 1_555 1_555
H12 C14 1_555 1_555
H13 C16 1_555 1_555
H14 C18 1_555 1_555
H15 C18 1_555 1_555
H16 C18 1_555 1_555
H17 C19 1_555 1_555
H18 C19 1_555 1_555
H19 C19 1_555 1_555
H20 C20 1_555 1_555
H21 C20 1_555 1_555
H22 C20 1_555 1_555
H23 C22 1_555 1_555
H24 C23 1_555 1_555
H25 C24 1_555 1_555
H26 C25 1_555 1_555
H27 C26 1_555 1_555
H28 C28 1_555 1_555
H29 C29 1_555 1_555
H30 C30 1_555 1_555
H31 C31 1_555 1_555
H32 C32 1_555 1_555
C3 B1 1_555 1_555
C12 B1 1_555 1_555
C25 C26 1_555 1_555
C31 C32 1_555 1_555

#END
