
#######################################################################
#
#                 Cambridge Crystallographic Data Centre
#                                CCDC 
#
#######################################################################
#
# If this CIF has been generated from an entry in the Cambridge 
# Structural Database, then it will include bibliographic, chemical, 
# crystal, experimental, refinement or atomic coordinate data resulting 
# from the CCDC's data processing and validation procedures.
#
#######################################################################

data_PELVUA
_chemical_formula_moiety         'C276 H368 Mg24 N8 O140'
_chemical_name_systematic        
'hexakis(\m-proline)-hexakis(\m-5,11,17,23-tetrahydroxy-2,8,14,20-tetrakis(3-hydroxypropyl)-4,6,10,12,16,18,22,24-octaoxidopyrogallol[4]arene)-triacontaaqua-bis(N,N-dimethylformamide)-tetracosa-magnesium unknown solvate'
_symmetry_cell_setting           monoclinic
_symmetry_space_group_name_H-M   'C 2'
_symmetry_Int_Tables_number      5
_space_group_name_Hall           'C 2y'
loop_
_symmetry_equiv_pos_site_id
_symmetry_equiv_pos_as_xyz
1 x,y,z
2 -x,y,-z
3 1/2+x,1/2+y,z
4 1/2-x,1/2+y,-z
_cell_length_a                   28.8873(12)
_cell_length_b                   35.5602(13)
_cell_length_c                   21.8751(9)
_cell_angle_alpha                90
_cell_angle_beta                 118.990(2)
_cell_angle_gamma                90
_cell_volume                     19655.4
_exptl_crystal_colour            green
_exptl_crystal_description       plate
_cell_formula_units_Z            2
loop_
_atom_site_label
_atom_site_type_symbol
_atom_site_fract_x
_atom_site_fract_y
_atom_site_fract_z
Mg1 Mg 0.41464(11) 0.30859(8) 0.49968(15)
Mg2 Mg 0.56925(13) 0.56521(8) 0.24465(17)
Mg3 Mg 0.2352(2) 0.45977(9) 0.2374(3)
Mg4 Mg 0.27816(16) 0.51315(10) 0.12673(17)
Mg5 Mg 0.63822(19) 0.66073(15) 0.4056(2)
Mg6 Mg 0.44418(12) 0.51194(10) 0.1365(2)
Mg7 Mg 0.57061(14) 0.45990(8) 0.2371(3)
Mg8 Mg 0.63543(17) 0.36619(15) 0.40377(19)
Mg9 Mg 0.29021(18) 0.65962(15) 0.40064(19)
Mg10 Mg 0.41395(11) 0.71753(8) 0.49812(16)
O1 O 0.5152(2) 0.28732(17) 0.4231(3)
O2 O 0.2675(2) 0.67071(16) 0.3000(3)
O3 O 0.7770(2) 0.39578(15) 0.6258(3)
O4 O 0.3046(3) 0.47099(18) 0.0852(4)
O5 O 0.5933(2) 0.3267(2) 0.4207(4)
O6 O 0.3506(2) 0.3316(2) 0.4178(3)
O7 O 0.8072(3) 0.44671(14) 0.7125(4)
O8 O 0.4288(2) 0.28920(15) 0.4208(3)
O9 O 0.2352(3) 0.40486(16) 0.2081(4)
O10 O 0.5855(2) 0.67015(15) 0.3033(3)
O11 O 0.5861(2) 0.35346(18) 0.3001(3)
O12 O 0.4270(2) 0.73763(17) 0.4214(3)
O13 O 0.3774(3) 0.76694(18) 0.5027(4)
O14 O 0.6498(2) 0.44683(14) 0.2902(4)
O15 O 0.6841(2) 0.39445(16) 0.3786(3)
O16 O 0.7762(2) 0.62981(18) 0.6229(3)
O17 O 0.5503(2) 0.61950(16) 0.2149(3)
O18 O 0.6948(3) 0.37408(19) 0.5021(3)
O19 O 0.3875(3) 0.55324(17) 0.0884(3)
C1 C 0.2492(4) 0.33122(19) 0.1626(4)
H1 H 0.2197 0.3366 0.1728
O20 O 0.6876(3) 0.63061(18) 0.3773(4)
C2 C 0.3872(3) 0.2983(2) 0.3565(5)
C3 C 0.7361(3) 0.5467(2) 0.3460(5)
C4 C 0.4154(3) 0.3683(2) 0.0969(4)
H2 H 0.3973 0.3449 0.0837
C5 C 0.8494(3) 0.4780(2) 0.6550(4)
O21 O 0.3908(2) 0.46971(16) 0.0863(4)
C6 C 0.3809(3) 0.28449(19) 0.2937(5)
O22 O 0.6495(3) 0.57904(17) 0.2896(4)
C7 C 0.4230(3) 0.2591(2) 0.2955(4)
H3 H 0.4386 0.2456 0.3412
C8 C 0.2635(3) 0.36795(18) 0.1387(3)
C9 C 0.7296(3) 0.40604(19) 0.4376(5)
C10 C 0.7709(3) 0.4280(2) 0.4366(5)
C11 C 0.5097(3) 0.2948(2) 0.3584(5)
C12 C 0.3871(4) 0.4023(2) 0.0735(4)
C13 C 0.3033(3) 0.6951(2) 0.2943(4)
O23 O 0.2678(2) 0.35452(16) 0.2973(3)
C14 C 0.7331(3) 0.3956(3) 0.5022(5)
C15 C 0.3008(4) 0.6232(2) 0.0729(5)
O24 O 0.5138(2) 0.73586(16) 0.4219(3)
C16 C 0.4677(3) 0.2835(2) 0.2968(4)
O25 O 0.5483(3) 0.40439(16) 0.2116(4)
O26 O 0.6961(3) 0.6542(2) 0.5014(4)
O27 O 0.5983(2) 0.5130(2) 0.2620(4)
C17 C 0.3459(3) 0.3205(2) 0.3583(5)
C18 C 0.7768(3) 0.4064(2) 0.5643(5)
O28 O 0.2510(5) 0.55725(17) 0.1583(5)
O29 O 0.5894(2) 0.69248(18) 0.4198(3)
O30 O 0.2330(3) 0.62230(18) 0.2070(4)
C19 C 0.4697(4) 0.3692(2) 0.1394(5)
O31 O 0.8053(3) 0.57942(17) 0.7108(4)
O32 O 0.3777(3) 0.2568(2) 0.4990(4)
C20 C 0.3362(4) 0.2956(2) 0.2301(4)
H4 H 0.3327 0.2869 0.1870
C21 C 0.5469(3) 0.6942(2) 0.2953(4)
O33 O 0.3478(3) 0.6960(2) 0.4190(3)
C22 C 0.8219(4) 0.4780(2) 0.6917(5)
O34 O 0.4914(4) 0.4678(2) 0.1797(6)
C23 C 0.4815(4) 0.7241(2) 0.1076(5)
H5 H 0.4467 0.7326 0.1007
H6 H 0.4762 0.7137 0.0627
C24 C 0.8125(4) 0.4380(2) 0.4992(6)
H7 H 0.8400 0.4526 0.4992
O35 O 0.3015(3) 0.55428(14) 0.0818(4)
C25 C 0.4651(4) 0.29566(19) 0.2313(5)
H8 H 0.4361 0.2883 0.1879
C26 C 0.2931(4) 0.4370(2) 0.1011(5)
C27 C 0.3269(3) 0.6222(2) 0.0306(4)
H9 H 0.3180 0.5975 0.0058
C28 C 0.5012(3) 0.3312(2) 0.1643(4)
H10 H 0.5382 0.3374 0.1752
O36 O 0.7823(4) 0.5121(2) 0.7487(5)
C29 C 0.2976(3) 0.7081(2) 0.2301(4)
C30 C 0.8169(3) 0.4280(2) 0.5637(5)
O37 O 0.2608(5) 0.4704(2) 0.1689(6)
C31 C 0.2564(4) 0.40273(19) 0.1660(5)
C32 C 0.5047(3) 0.7067(2) 0.2313(4)
C33 C 0.5486(3) 0.7048(2) 0.3590(4)
C34 C 0.2841(4) 0.3681(3) 0.0964(5)
H11 H 0.2888 0.3448 0.0790
C35 C 0.2970(3) 0.31920(19) 0.2298(5)
C36 C 0.8177(5) 0.4402(3) 0.3669(7)
H12 H 0.8420 0.4586 0.4014
H13 H 0.8343 0.4150 0.3807
C37 C 0.9159(3) 0.4413(2) 0.6334(6)
H14 H 0.9211 0.4169 0.6158
H15 H 0.9146 0.4611 0.6006
C38 C 0.3079(4) 0.6528(3) -0.0257(5)
H16 H 0.3164 0.6776 -0.0020
H17 H 0.3287 0.6506 -0.0505
C39 C 0.5469(4) 0.3301(2) 0.2971(5)
C40 C 0.4125(3) 0.4355(3) 0.1015(5)
C41 C 0.7650(3) 0.4400(2) 0.3687(5)
H18 H 0.7420 0.4208 0.3338
C42 C 0.2304(4) 0.7251(2) 0.1039(6)
H19 H 0.2255 0.7484 0.1248
H20 H 0.2580 0.7302 0.0906
C43 C 0.4953(3) 0.4013(3) 0.1677(4)
C44 C 0.4672(3) 0.72977(19) 0.2345(4)
H21 H 0.4389 0.7385 0.1916
C45 C 0.6791(3) 0.4788(2) 0.3089(5)
C46 C 0.8617(2) 0.5122(3) 0.6355(4)
H22 H 0.8793 0.5117 0.6083
C47 C 0.2617(6) 0.5916(3) 0.1367(6)
C48 C 0.8078(3) 0.5128(3) 0.7107(4)
C49 C 0.4688(4) 0.4367(2) 0.1472(7)
C50 C 0.5037(4) 0.6926(2) 0.1648(5)
H23 H 0.5407 0.6865 0.1756
C51 C 0.3381(3) 0.73114(19) 0.2323(4)
H24 H 0.3356 0.7390 0.1893
C52 C 0.8176(4) 0.5978(2) 0.5639(5)
C53 C 0.6532(3) 0.5143(3) 0.2932(4)
C54 C 0.8641(3) 0.5839(2) 0.6324(5)
H25 H 0.8686 0.6025 0.6691
C55 C 0.7614(3) 0.5121(3) 0.3634(4)
H26 H 0.7990 0.5116 0.3892
C56 C 0.5055(4) 0.3183(2) 0.2327(4)
O38 O 0.5728(6) 0.5661(4) 0.3401(6)
C57 C 0.4713(3) 0.6580(2) 0.1409(4)
C58 C 0.2883(3) 0.65600(19) 0.0949(4)
H27 H 0.2969 0.6790 0.0807
C59 C 0.6801(3) 0.5468(2) 0.3102(5)
C60 C 0.8619(3) 0.4405(2) 0.6324(5)
H28 H 0.8652 0.4215 0.6679
C61 C 0.7638(3) 0.5840(2) 0.3657(5)
H29 H 0.7401 0.6024 0.3293
C62 C 0.4025(4) 0.2285(2) 0.2379(6)
H30 H 0.3740 0.2142 0.2402
H31 H 0.3868 0.2411 0.1917
C63 C 0.3275(3) 0.4032(3) 0.0276(4)
H32 H 0.3187 0.4279 0.0028
C64 C 0.4683(3) 0.74069(18) 0.2946(4)
C65 C 0.8219(3) 0.5461(2) 0.6912(5)
C66 C 0.2530(3) 0.6245(3) 0.1588(5)
C67 C 0.8129(3) 0.5875(2) 0.5005(5)
H33 H 0.8402 0.5728 0.5002
C68 C 0.3876(4) 0.7833(3) 0.5595(6)
C69 C 0.4054(4) 0.7963(2) 0.2389(5)
H34 H 0.3905 0.7845 0.1922
H35 H 0.3765 0.8102 0.2411
C70 C 0.3815(3) 0.7429(2) 0.2942(4)
O39 O 0.5779(4) 0.4081(4) 0.4028(5)
C71 C 0.7778(3) 0.6197(2) 0.5642(5)
C72 C 0.5506(3) 0.3169(3) 0.3584(4)
O40 O 0.4944(3) 0.55559(17) 0.1810(6)
C73 C 0.4468(5) 0.8230(3) 0.2476(7)
H36 H 0.4767 0.8090 0.2485
H37 H 0.4600 0.8360 0.2930
C74 C 0.4153(4) 0.5889(2) 0.1043(5)
O41 O 0.2013(5) 0.5106(5) 0.0314(6)
C75 C 0.3024(3) 0.3311(2) 0.2931(5)
C76 C 0.5212(6) 0.7594(3) 0.1296(7)
H38 H 0.5191 0.7735 0.1672
H39 H 0.5579 0.7499 0.1488
C77 C 0.2875(4) 0.5898(2) 0.0960(5)
C78 C 0.9635(4) 0.4487(4) 0.7043(10)
H40 H 0.9574 0.4721 0.7237
H41 H 0.9667 0.4279 0.7362
O42 O 0.4485(5) 0.6628(4) 0.4911(8)
C79 C 0.8165(3) 0.5840(3) 0.3634(6)
H42 H 0.8331 0.6091 0.3778
H43 H 0.8408 0.5654 0.3979
C80 C 0.3002(3) 0.4030(3) 0.0750(4)
O43 O 0.4530(5) 0.3619(2) 0.5024(6)
C81 C 0.3457(4) 0.7078(2) 0.3558(4)
C82 C 0.5088(3) 0.72733(19) 0.3576(4)
C83 C 0.4259(3) 0.7655(2) 0.2949(5)
H44 H 0.4432 0.7789 0.3408
C84 C 0.7692(4) 0.5978(2) 0.4356(5)
C85 C 0.3865(4) 0.6231(2) 0.0769(4)
C86 C 0.2640(3) 0.6579(3) 0.1367(5)
C87 C 0.2307(4) 0.2994(2) 0.1065(5)
H45 H 0.2576 0.2956 0.0914
H46 H 0.2269 0.2756 0.1270
O44 O 0.6145(5) 0.6116(3) 0.4232(7)
N1 N 0.3757(5) 0.8179(3) 0.5675(6)
C88 C 0.4976(4) 0.6224(2) 0.1678(6)
C89 C 0.3833(3) 0.7304(2) 0.3570(4)
C90 C 0.9159(3) 0.5824(3) 0.6324(6)
H47 H 0.9217 0.6068 0.6152
H48 H 0.9142 0.5626 0.5997
C91 C 0.7315(4) 0.6197(3) 0.4367(5)
O45 O 0.5544(5) 0.4537(3) 0.3225(9)
C92 C 0.7346(4) 0.6315(2) 0.4992(5)
C93 C 0.1781(6) 0.3099(5) 0.0438(7)
H49 H 0.1833 0.3313 0.0187
H50 H 0.1530 0.3180 0.0600
O46 O 0.3444(6) 0.6189(3) 0.4086(7)
C94 C 1.0147(3) 0.4522(4) 0.7025(7)
H51 H 1.0119 0.4721 0.6692
H52 H 1.0439 0.4588 0.7494
C95 C 0.2447(7) 0.3804(6) -0.0797(8)
H53 H 0.2384 0.4066 -0.0974
H54 H 0.2237 0.3754 -0.0557
C96 C 0.7344(4) 0.4785(3) 0.3449(5)
C97 C 0.2698(4) 0.4371(2) 0.1437(5)
C98 C 0.5437(5) 0.4243(4) 0.3602(7)
O47 O 0.4630(6) 0.5085(4) 0.0503(9)
C99 C 0.8498(3) 0.5470(2) 0.6533(5)
O48 O 0.4211(5) 0.5170(6) 0.2256(5)
C100 C 0.2511(3) 0.6946(2) 0.1601(4)
H55 H 0.2214 0.6889 0.1699
O49 O 0.5826(10) 0.4646(4) 0.1452(10)
C101 C 0.8107(4) 0.4500(3) 0.2952(7)
H56 H 0.7887 0.4305 0.2612
H57 H 0.7918 0.4743 0.2797
C102 C 0.4819(5) 0.3009(3) 0.1057(5)
H58 H 0.4445 0.2948 0.0906
H59 H 0.4836 0.3115 0.0650
C103 C 0.3963(6) 0.4044(7) 0.2752(10)
H60 H 0.3727 0.3911 0.2312
H61 H 0.3810 0.4021 0.3069
C104 C 0.4172(4) 0.6551(2) 0.0939(4)
H62 H 0.3997 0.6777 0.0712
C105 C 0.4865(6) 0.4188(7) 0.3454(11)
H63 H 0.4873 0.4214 0.3914
C106 C 0.1795(5) 0.7169(3) 0.0384(6)
H64 H 0.1848 0.6937 0.0174
H65 H 0.1523 0.7111 0.0521
N2 N 0.4515(14) 0.5850(10) 0.2872(19)
H66 H 0.4828 0.5857 0.3279
H67 H 0.4552 0.5708 0.2552
C107 C 0.4665(4) 0.5901(2) 0.1523(5)
C108 C 0.3061(5) 0.3725(3) -0.0298(5)
H68 H 0.3111 0.3472 -0.0083
H69 H 0.3253 0.3733 -0.0569
C109 C 0.6996(5) 0.4944(6) 0.5106(10)
H70 H 0.7274 0.4826 0.5028
H71 H 0.7089 0.4910 0.5602
C110 C 0.4050(7) 0.5714(4) 0.2983(9)
H72 H 0.4293 0.5545 0.3374
C111 C 0.9623(4) 0.5746(5) 0.7039(7)
H73 H 0.9535 0.5537 0.7262
H74 H 0.9699 0.5972 0.7339
C112 C 0.4211(10) 0.6384(5) 0.3116(14)
H75 H 0.3904 0.6557 0.2916
H76 H 0.4525 0.6522 0.3468
C113 C 0.4449(7) 0.2007(4) 0.2430(8)
H77 H 0.4684 0.1939 0.2925
H78 H 0.4667 0.2126 0.2247
N3 N 0.6142(5) 0.5104(5) 0.4276(8)
H79 H 0.6082 0.5103 0.3827
H80 H 0.5829 0.5064 0.4271
C114 C 0.5126(6) 0.2669(3) 0.1273(6)
H81 H 0.4965 0.2483 0.0890
H82 H 0.5110 0.2564 0.1682
C115 C 0.4268(7) 0.8526(4) 0.1885(10)
H83 H 0.4239 0.8754 0.2123
H84 H 0.4585 0.8568 0.1832
C116 C 0.1542(10) 0.2756(5) -0.0073(10)
H85 H 0.1541 0.2530 0.0191
H86 H 0.1172 0.2812 -0.0429
C117 C 0.4475(9) 0.3878(4) 0.3068(11)
H87 H 0.4547 0.3767 0.2708
H88 H 0.4501 0.3678 0.3397
O50 O 0.6823(3) 0.7140(2) 0.3965(5)
C118 C 0.3993(8) 0.4414(4) 0.2614(11)
H89 H 0.3777 0.4570 0.2755
H90 H 0.3866 0.4452 0.2109
O51 O 0.3453(8) 0.5264(4) 0.2194(6)
C119 C 0.3440(13) 0.8410(5) 0.5015(10)
H91 H 0.3376 0.8661 0.5142
H92 H 0.3639 0.8431 0.4760
H93 H 0.3101 0.8285 0.4720
N4 N 0.4573(5) 0.4517(2) 0.3037(5)
H94 H 0.4701 0.4586 0.2746
H95 H 0.4613 0.4714 0.3324
O52 O 0.5668(6) 0.5603(4) 0.1433(6)
C120 C 0.6533(13) 0.4800(3) 0.4690(12)
H96 H 0.6403 0.4661 0.4970
H97 H 0.6563 0.4620 0.4367
C121 C 0.8632(17) 0.5753(14) 0.292(2)
H98 H 0.8819 0.5995 0.3086
H99 H 0.8870 0.5549 0.3210
O53 O 0.4531(7) 0.1447(4) 0.1843(8)
C122 C 0.2507(5) 0.6528(4) -0.0790(7)
H100 H 0.2300 0.6469 -0.0550
H101 H 0.2446 0.6322 -0.1125
C123 C 0.3874(7) 0.8340(3) 0.6357(9)
H102 H 0.3751 0.8601 0.6293
H103 H 0.3693 0.8193 0.6556
H104 H 0.4257 0.8333 0.6674
O54 O 0.1514(10) 0.4669(5) 0.1435(8)
O55 O 0.3085(9) 0.4608(6) 0.3258(12)
C124 C 0.6048(6) 0.5749(5) 0.4039(9)
O56 O 1.0244(12) 0.4166(9) 0.6810(16)
Mg11 Mg 0.2259(3) 0.56578(9) 0.2265(3)
O57 O 0.3040(6) 0.5661(4) 0.3132(10)
O58 O 0.1845(13) 0.2687(9) -0.0399(16)
C125 C 0.231(2) 0.3492(11) -0.144(2)
H105 H 0.1968 0.3538 -0.1861
H106 H 0.2598 0.3472 -0.1564
O59 O 0.2371(4) 0.7128(3) 0.3891(6)
O60 O 0.8820(12) 0.4110(8) 0.3132(15)
O61 O 0.1466(11) 0.5711(5) 0.1311(9)
C126 C 0.8628(8) 0.4529(7) 0.2956(12)
H107 H 0.8873 0.4705 0.3320
H108 H 0.8581 0.4606 0.2495
O62 O 0.4545(13) 0.7905(8) 0.0261(15)
C127 C 0.5107(17) 0.7850(13) 0.073(2)
H109 H 0.5275 0.7752 0.0463
H110 H 0.5270 0.8096 0.0932
C128 C 0.6934(17) 0.5352(11) 0.491(2)
H111 H 0.7143 0.5508 0.5332
H112 H 0.7062 0.5401 0.4573
C129 C 0.1593(7) 0.7436(5) -0.0124(9)
H113 H 0.1203 0.7415 -0.0350
H114 H 0.1693 0.7364 -0.0481
C130 C 0.430(2) 0.6241(12) 0.260(2)
H115 H 0.4567 0.6394 0.2543
H116 H 0.3972 0.6229 0.2144
C131 C 0.6358(17) 0.5446(11) 0.459(2)
H117 H 0.6276 0.5480 0.4985
O63 O 0.2298(12) 0.3153(9) -0.1003(16)
O64 O 0.2354(12) 0.7196(8) -0.0551(15)
C132 C 0.4173(16) 0.1637(11) 0.199(2)
H118 H 0.4062 0.1472 0.2259
H119 H 0.3854 0.1707 0.1547
C133 C 0.8110(18) 0.5753(14) 0.298(2)
H120 H 0.7861 0.5936 0.2637
H121 H 0.7946 0.5501 0.2842
C134 C 0.2286(19) 0.6896(11) -0.121(2)
H122 H 0.1911 0.6868 -0.1574
H123 H 0.2498 0.6981 -0.1429
C135 C 0.5671(9) 0.2722(5) 0.1454(14)
H124 H 0.5870 0.2487 0.1659
H125 H 0.5828 0.2923 0.1809
O65 O 0.5719(12) 0.2826(9) 0.0821(15)
O66 O 1.0567(10) 0.5773(8) 0.7720(13)
C136 C 1.0141(15) 0.5638(13) 0.697(2)
H126 H 1.0164 0.5364 0.6900
H127 H 1.0160 0.5780 0.6592
O67 O 0.1716(12) 0.7820(8) 0.0018(15)
O68 O 0.6651(5) 0.4189(4) 0.5980(9)
O69 O 0.3933(12) 0.8568(9) 0.1328(15)
O70 O 0.8491(12) 0.5699(9) 0.2243(17)
Mg12 Mg 0.70631(19) 0.36839(18) 0.5988(2)
C137 C 0.390(2) 0.5393(13) 0.246(2)
C138 C 0.4087(19) 0.6004(11) 0.348(2)
H128 H 0.4380 0.5954 0.3957
H129 H 0.3751 0.6031 0.3495
Mg1A Mg 0.58536(11) 0.30859(8) 0.50032(15)
Mg2A Mg 0.43075(13) 0.56521(8) 0.75535(17)
Mg3A Mg 0.7648(2) 0.45977(9) 0.7626(3)
Mg4A Mg 0.72184(16) 0.51315(10) 0.87327(17)
Mg5A Mg 0.36178(19) 0.66073(15) 0.5944(2)
Mg6A Mg 0.55582(12) 0.51194(10) 0.8635(2)
Mg7A Mg 0.42939(14) 0.45990(8) 0.7629(3)
Mg8A Mg 0.36457(17) 0.36619(15) 0.59623(19)
Mg9A Mg 0.70979(18) 0.65962(15) 0.59936(19)
Mg10A Mg 0.58605(11) 0.71753(8) 0.50188(16)
O1A O 0.4848(2) 0.28732(17) 0.5769(3)
O2A O 0.7325(2) 0.67071(16) 0.7000(3)
O3A O 0.2230(2) 0.39578(15) 0.3742(3)
O4A O 0.6954(3) 0.47099(18) 0.9148(4)
O5A O 0.4067(2) 0.3267(2) 0.5793(4)
O6A O 0.6494(2) 0.3316(2) 0.5822(3)
O7A O 0.1928(3) 0.44671(14) 0.2875(4)
O8A O 0.5712(2) 0.28920(15) 0.5792(3)
O9A O 0.7648(3) 0.40486(16) 0.7919(4)
O10A O 0.4145(2) 0.67015(15) 0.6967(3)
O11A O 0.4139(2) 0.35346(18) 0.6999(3)
O12A O 0.5730(2) 0.73763(17) 0.5786(3)
O13A O 0.6226(3) 0.76694(18) 0.4973(4)
O14A O 0.3502(2) 0.44683(14) 0.7098(4)
O15A O 0.3159(2) 0.39445(16) 0.6214(3)
O16A O 0.2238(2) 0.62981(18) 0.3771(3)
O17A O 0.4497(2) 0.61950(16) 0.7851(3)
O18A O 0.3052(3) 0.37408(19) 0.4979(3)
O19A O 0.6125(3) 0.55324(17) 0.9116(3)
C1A C 0.7508(4) 0.33122(19) 0.8374(4)
H1A H 0.7803 0.3366 0.8272
O20A O 0.3124(3) 0.63061(18) 0.6227(4)
C2A C 0.6128(3) 0.2983(2) 0.6435(5)
C3A C 0.2639(3) 0.5467(2) 0.6540(5)
C4A C 0.5846(3) 0.3683(2) 0.9031(4)
H2A H 0.6027 0.3449 0.9163
C5A C 0.1506(3) 0.4780(2) 0.3450(4)
O21A O 0.6092(2) 0.46971(16) 0.9137(4)
C6A C 0.6191(3) 0.28449(19) 0.7063(5)
O22A O 0.3505(3) 0.57904(17) 0.7104(4)
C7A C 0.5770(3) 0.2591(2) 0.7045(4)
H3A H 0.5614 0.2456 0.6588
C8A C 0.7365(3) 0.36795(18) 0.8613(3)
C9A C 0.2704(3) 0.40604(19) 0.5624(5)
C10A C 0.2291(3) 0.4280(2) 0.5634(5)
C11A C 0.4903(3) 0.2948(2) 0.6416(5)
C12A C 0.6129(4) 0.4023(2) 0.9265(4)
C13A C 0.6967(3) 0.6951(2) 0.7057(4)
O23A O 0.7322(2) 0.35452(16) 0.7027(3)
C14A C 0.2669(3) 0.3956(3) 0.4978(5)
C15A C 0.6992(4) 0.6232(2) 0.9271(5)
O24A O 0.4862(2) 0.73586(16) 0.5781(3)
C16A C 0.5323(3) 0.2835(2) 0.7032(4)
O25A O 0.4517(3) 0.40439(16) 0.7884(4)
O26A O 0.3039(3) 0.6542(2) 0.4986(4)
O27A O 0.4017(2) 0.5130(2) 0.7380(4)
C17A C 0.6541(3) 0.3205(2) 0.6417(5)
C18A C 0.2232(3) 0.4064(2) 0.4357(5)
O28A O 0.7490(5) 0.55725(17) 0.8417(5)
O29A O 0.4106(2) 0.69248(18) 0.5802(3)
O30A O 0.7670(3) 0.62230(18) 0.7930(4)
C19A C 0.5303(4) 0.3692(2) 0.8606(5)
O31A O 0.1947(3) 0.57942(17) 0.2892(4)
O32A O 0.6223(3) 0.2568(2) 0.5010(4)
C20A C 0.6638(4) 0.2956(2) 0.7699(4)
H4A H 0.6673 0.2869 0.8130
C21A C 0.4531(3) 0.6942(2) 0.7047(4)
O33A O 0.6522(3) 0.6960(2) 0.5810(3)
C22A C 0.1781(4) 0.4780(2) 0.3083(5)
O34A O 0.5086(4) 0.4678(2) 0.8203(6)
C23A C 0.5185(4) 0.7241(2) 0.8924(5)
H5A H 0.5533 0.7326 0.8993
H6A H 0.5238 0.7137 0.9373
C24A C 0.1875(4) 0.4380(2) 0.5008(6)
H7A H 0.1600 0.4526 0.5008
O35A O 0.6985(3) 0.55428(14) 0.9182(4)
C25A C 0.5349(4) 0.29566(19) 0.7687(5)
H8A H 0.5639 0.2883 0.8121
C26A C 0.7069(4) 0.4370(2) 0.8989(5)
C27A C 0.6731(3) 0.6222(2) 0.9694(4)
H9A H 0.6820 0.5975 0.9942
C28A C 0.4988(3) 0.3312(2) 0.8357(4)
H10A H 0.4618 0.3374 0.8248
O36A O 0.2177(4) 0.5121(2) 0.2513(5)
C29A C 0.7024(3) 0.7081(2) 0.7699(4)
C30A C 0.1831(3) 0.4280(2) 0.4363(5)
O37A O 0.7392(5) 0.4704(2) 0.8311(6)
C31A C 0.7436(4) 0.40273(19) 0.8340(5)
C32A C 0.4953(3) 0.7067(2) 0.7687(4)
C33A C 0.4514(3) 0.7048(2) 0.6410(4)
C34A C 0.7159(4) 0.3681(3) 0.9036(5)
H11A H 0.7112 0.3448 0.9210
C35A C 0.7030(3) 0.31920(19) 0.7702(5)
C36A C 0.1823(5) 0.4402(3) 0.6331(7)
H12A H 0.1580 0.4586 0.5986
H13A H 0.1657 0.4150 0.6193
C37A C 0.0841(3) 0.4413(2) 0.3666(6)
H14A H 0.0789 0.4169 0.3842
H15A H 0.0854 0.4611 0.3994
C38A C 0.6921(4) 0.6528(3) 1.0257(5)
H16A H 0.6836 0.6776 1.0020
H17A H 0.6713 0.6506 1.0505
C39A C 0.4531(4) 0.3301(2) 0.7029(5)
C40A C 0.5875(3) 0.4355(3) 0.8985(5)
C41A C 0.2350(3) 0.4400(2) 0.6313(5)
H18A H 0.2580 0.4208 0.6662
C42A C 0.7696(4) 0.7251(2) 0.8961(6)
H19A H 0.7745 0.7484 0.8752
H20A H 0.7420 0.7302 0.9094
C43A C 0.5047(3) 0.4013(3) 0.8323(4)
C44A C 0.5328(3) 0.72977(19) 0.7655(4)
H21A H 0.5611 0.7385 0.8084
C45A C 0.3209(3) 0.4788(2) 0.6911(5)
C46A C 0.1383(2) 0.5122(3) 0.3645(4)
H22A H 0.1207 0.5117 0.3917
C47A C 0.7383(6) 0.5916(3) 0.8633(6)
C48A C 0.1922(3) 0.5128(3) 0.2893(4)
C49A C 0.5312(4) 0.4367(2) 0.8528(7)
C50A C 0.4963(4) 0.6926(2) 0.8352(5)
H23A H 0.4593 0.6865 0.8244
C51A C 0.6619(3) 0.73114(19) 0.7677(4)
H24A H 0.6644 0.7390 0.8107
C52A C 0.1824(4) 0.5978(2) 0.4361(5)
C53A C 0.3468(3) 0.5143(3) 0.7068(4)
C54A C 0.1359(3) 0.5839(2) 0.3676(5)
H25A H 0.1314 0.6025 0.3309
C55A C 0.2386(3) 0.5121(3) 0.6366(4)
H26A H 0.2010 0.5116 0.6108
C56A C 0.4945(4) 0.3183(2) 0.7673(4)
O38A O 0.4272(6) 0.5661(4) 0.6599(6)
C57A C 0.5287(3) 0.6580(2) 0.8591(4)
C58A C 0.7117(3) 0.65600(19) 0.9051(4)
H27A H 0.7031 0.6790 0.9193
C59A C 0.3199(3) 0.5468(2) 0.6898(5)
C60A C 0.1381(3) 0.4405(2) 0.3676(5)
H28A H 0.1348 0.4215 0.3321
C61A C 0.2362(3) 0.5840(2) 0.6343(5)
H29A H 0.2599 0.6024 0.6707
C62A C 0.5975(4) 0.2285(2) 0.7621(6)
H30A H 0.6260 0.2142 0.7598
H31A H 0.6132 0.2411 0.8083
C63A C 0.6725(3) 0.4032(3) 0.9724(4)
H32A H 0.6813 0.4279 0.9972
C64A C 0.5317(3) 0.74069(18) 0.7054(4)
C65A C 0.1781(3) 0.5461(2) 0.3088(5)
C66A C 0.7470(3) 0.6245(3) 0.8412(5)
C67A C 0.1871(3) 0.5875(2) 0.4995(5)
H33A H 0.1598 0.5728 0.4998
C68A C 0.6124(4) 0.7833(3) 0.4405(6)
C69A C 0.5946(4) 0.7963(2) 0.7611(5)
H34A H 0.6095 0.7845 0.8078
H35A H 0.6235 0.8102 0.7589
C70A C 0.6185(3) 0.7429(2) 0.7058(4)
O39A O 0.4221(4) 0.4081(4) 0.5972(5)
C71A C 0.2222(3) 0.6197(2) 0.4358(5)
C72A C 0.4494(3) 0.3169(3) 0.6416(4)
O40A O 0.5056(3) 0.55559(17) 0.8190(6)
C73A C 0.5532(5) 0.8230(3) 0.7524(7)
H36A H 0.5233 0.8090 0.7515
H37A H 0.5400 0.8360 0.7070
C74A C 0.5847(4) 0.5889(2) 0.8957(5)
O41A O 0.7987(5) 0.5106(5) 0.9686(6)
C75A C 0.6976(3) 0.3311(2) 0.7069(5)
C76A C 0.4788(6) 0.7594(3) 0.8704(7)
H38A H 0.4809 0.7735 0.8328
H39A H 0.4421 0.7499 0.8512
C77A C 0.7125(4) 0.5898(2) 0.9040(5)
C78A C 0.0365(4) 0.4487(4) 0.2957(10)
H40A H 0.0426 0.4721 0.2763
H41A H 0.0333 0.4279 0.2638
O42A O 0.5515(5) 0.6628(4) 0.5089(8)
C79A C 0.1835(3) 0.5840(3) 0.6366(6)
H42A H 0.1669 0.6091 0.6222
H43A H 0.1592 0.5654 0.6021
C80A C 0.6998(3) 0.4030(3) 0.9250(4)
O43A O 0.5470(5) 0.3619(2) 0.4976(6)
C81A C 0.6543(4) 0.7078(2) 0.6442(4)
C82A C 0.4912(3) 0.72733(19) 0.6424(4)
C83A C 0.5741(3) 0.7655(2) 0.7051(5)
H44A H 0.5568 0.7789 0.6592
C84A C 0.2308(4) 0.5978(2) 0.5644(5)
C85A C 0.6135(4) 0.6231(2) 0.9231(4)
C86A C 0.7360(3) 0.6579(3) 0.8633(5)
C87A C 0.7693(4) 0.2994(2) 0.8935(5)
H45A H 0.7424 0.2956 0.9086
H46A H 0.7731 0.2756 0.8730
O44A O 0.3855(5) 0.6116(3) 0.5768(7)
N1A N 0.6243(5) 0.8179(3) 0.4325(6)
C88A C 0.5024(4) 0.6224(2) 0.8322(6)
C89A C 0.6167(3) 0.7304(2) 0.6430(4)
C90A C 0.0841(3) 0.5824(3) 0.3676(6)
H47A H 0.0783 0.6068 0.3848
H48A H 0.0858 0.5626 0.4003
C91A C 0.2685(4) 0.6197(3) 0.5633(5)
O45A O 0.4456(5) 0.4537(3) 0.6775(9)
C92A C 0.2654(4) 0.6315(2) 0.5008(5)
C93A C 0.8219(6) 0.3099(5) 0.9562(7)
H49A H 0.8167 0.3313 0.9813
H50A H 0.8470 0.3180 0.9400
O46A O 0.6556(6) 0.6189(3) 0.5914(7)
C94A C -0.0147(3) 0.4522(4) 0.2975(7)
H51A H -0.0119 0.4721 0.3308
H52A H -0.0439 0.4588 0.2506
C95A C 0.7553(7) 0.3804(6) 1.0797(8)
H53A H 0.7616 0.4066 1.0974
H54A H 0.7763 0.3754 1.0557
C96A C 0.2656(4) 0.4785(3) 0.6551(5)
C97A C 0.7302(4) 0.4371(2) 0.8563(5)
C98A C 0.4563(5) 0.4243(4) 0.6398(7)
O47A O 0.5370(6) 0.5085(4) 0.9497(9)
C99A C 0.1502(3) 0.5470(2) 0.3467(5)
O48A O 0.5789(5) 0.5170(6) 0.7744(5)
C100A C 0.7489(3) 0.6946(2) 0.8399(4)
H55A H 0.7786 0.6889 0.8301
O49A O 0.4174(10) 0.4646(4) 0.8548(10)
C101A C 0.1893(4) 0.4500(3) 0.7048(7)
H56A H 0.2113 0.4305 0.7388
H57A H 0.2082 0.4743 0.7203
C102A C 0.5181(5) 0.3009(3) 0.8943(5)
H58A H 0.5555 0.2948 0.9094
H59A H 0.5164 0.3115 0.9350
C103A C 0.6037(6) 0.4044(7) 0.7248(10)
H60A H 0.6273 0.3911 0.7688
H61A H 0.6190 0.4021 0.6931
C104A C 0.5828(4) 0.6551(2) 0.9061(4)
H62A H 0.6003 0.6777 0.9288
C105A C 0.5135(6) 0.4188(7) 0.6546(11)
H63A H 0.5127 0.4214 0.6086
C106A C 0.8205(5) 0.7169(3) 0.9616(6)
H64A H 0.8152 0.6937 0.9826
H65A H 0.8477 0.7111 0.9479
N2A N 0.5485(14) 0.5850(10) 0.7128(19)
H66A H 0.5172 0.5857 0.6721
H67A H 0.5448 0.5708 0.7448
C107A C 0.5335(4) 0.5901(2) 0.8477(5)
C108A C 0.6939(5) 0.3725(3) 1.0298(5)
H68A H 0.6889 0.3472 1.0083
H69A H 0.6747 0.3733 1.0569
C109A C 0.3004(5) 0.4944(6) 0.4894(10)
H70A H 0.2726 0.4826 0.4972
H71A H 0.2911 0.4910 0.4398
C110A C 0.5950(7) 0.5714(4) 0.7017(9)
H72A H 0.5707 0.5545 0.6626
C111A C 0.0377(4) 0.5746(5) 0.2961(7)
H73A H 0.0465 0.5537 0.2738
H74A H 0.0301 0.5972 0.2661
C112A C 0.5789(10) 0.6384(5) 0.6884(14)
H75A H 0.6096 0.6557 0.7084
H76A H 0.5475 0.6522 0.6532
C113A C 0.5551(7) 0.2007(4) 0.7570(8)
H77A H 0.5316 0.1939 0.7075
H78A H 0.5333 0.2126 0.7753
N3A N 0.3858(5) 0.5104(5) 0.5724(8)
H79A H 0.3918 0.5103 0.6173
H80A H 0.4171 0.5064 0.5729
C114A C 0.4874(6) 0.2669(3) 0.8727(6)
H81A H 0.5035 0.2483 0.9110
H82A H 0.4890 0.2564 0.8318
C115A C 0.5732(7) 0.8526(4) 0.8115(10)
H83A H 0.5761 0.8754 0.7877
H84A H 0.5415 0.8568 0.8168
C116A C 0.8458(10) 0.2756(5) 1.0073(10)
H85A H 0.8459 0.2530 0.9809
H86A H 0.8828 0.2812 1.0429
C117A C 0.5525(9) 0.3878(4) 0.6932(11)
H87A H 0.5453 0.3767 0.7292
H88A H 0.5499 0.3678 0.6603
O50A O 0.3177(3) 0.7140(2) 0.6035(5)
C118A C 0.6007(8) 0.4414(4) 0.7386(11)
H89A H 0.6223 0.4570 0.7245
H90A H 0.6134 0.4452 0.7891
O51A O 0.6547(8) 0.5264(4) 0.7806(6)
C119A C 0.6560(13) 0.8410(5) 0.4985(10)
H91A H 0.6624 0.8661 0.4858
H92A H 0.6361 0.8431 0.5240
H93A H 0.6899 0.8285 0.5280
N4A N 0.5427(5) 0.4517(2) 0.6963(5)
H94A H 0.5299 0.4586 0.7254
H95A H 0.5387 0.4714 0.6676
O52A O 0.4332(6) 0.5603(4) 0.8567(6)
C120A C 0.3467(13) 0.4800(3) 0.5310(12)
H96A H 0.3597 0.4661 0.5030
H97A H 0.3437 0.4620 0.5633
C121A C 0.1368(17) 0.5753(14) 0.708(2)
H98A H 0.1181 0.5995 0.6914
H99A H 0.1130 0.5549 0.6790
O53A O 0.5469(7) 0.1447(4) 0.8157(8)
C122A C 0.7493(5) 0.6528(4) 1.0790(7)
H100A H 0.7700 0.6469 1.0550
H101A H 0.7554 0.6322 1.1125
C123A C 0.6126(7) 0.8340(3) 0.3643(9)
H102A H 0.6249 0.8601 0.3707
H103A H 0.6307 0.8193 0.3444
H104A H 0.5743 0.8333 0.3326
O54A O 0.8486(10) 0.4669(5) 0.8565(8)
O55A O 0.6915(9) 0.4608(6) 0.6742(12)
C124A C 0.3952(6) 0.5749(5) 0.5961(9)
O56A O -0.0244(12) 0.4166(9) 0.3190(16)
Mg11A Mg 0.7741(3) 0.56578(9) 0.7735(3)
O57A O 0.6960(6) 0.5661(4) 0.6868(10)
O58A O 0.8155(13) 0.2687(9) 1.0399(16)
C125A C 0.769(2) 0.3492(11) 1.144(2)
H105A H 0.8032 0.3538 1.1861
H106A H 0.7402 0.3472 1.1564
O59A O 0.7629(4) 0.7128(3) 0.6109(6)
O60A O 0.1180(12) 0.4110(8) 0.6868(15)
O61A O 0.8534(11) 0.5711(5) 0.8689(9)
C126A C 0.1372(8) 0.4529(7) 0.7044(12)
H107A H 0.1127 0.4705 0.6680
H108A H 0.1419 0.4606 0.7505
O62A O 0.5455(13) 0.7905(8) 0.9739(15)
C127A C 0.4893(17) 0.7850(13) 0.927(2)
H109A H 0.4725 0.7752 0.9537
H110A H 0.4730 0.8096 0.9068
C128A C 0.3066(17) 0.5352(11) 0.509(2)
H111A H 0.2857 0.5508 0.4668
H112A H 0.2938 0.5401 0.5427
C129A C 0.8407(7) 0.7436(5) 1.0124(9)
H113A H 0.8797 0.7415 1.0350
H114A H 0.8307 0.7364 1.0481
C130A C 0.570(2) 0.6241(12) 0.740(2)
H115A H 0.5433 0.6394 0.7457
H116A H 0.6028 0.6229 0.7856
C131A C 0.3642(17) 0.5446(11) 0.541(2)
H117A H 0.3724 0.5480 0.5015
O63A O 0.7702(12) 0.3153(9) 1.1003(16)
O64A O 0.7646(12) 0.7196(8) 1.0551(15)
C132A C 0.5827(16) 0.1637(11) 0.801(2)
H118A H 0.5938 0.1472 0.7741
H119A H 0.6146 0.1707 0.8453
C133A C 0.1890(18) 0.5753(14) 0.702(2)
H120A H 0.2139 0.5936 0.7363
H121A H 0.2054 0.5501 0.7158
C134A C 0.7714(19) 0.6896(11) 1.121(2)
H122A H 0.8089 0.6868 1.1574
H123A H 0.7502 0.6981 1.1429
C135A C 0.4329(9) 0.2722(5) 0.8546(14)
H124A H 0.4130 0.2487 0.8341
H125A H 0.4172 0.2923 0.8191
O65A O 0.4281(12) 0.2826(9) 0.9179(15)
O66A O -0.0567(10) 0.5773(8) 0.2280(13)
C136A C -0.0141(15) 0.5638(13) 0.303(2)
H126A H -0.0164 0.5364 0.3100
H127A H -0.0160 0.5780 0.3408
O67A O 0.8284(12) 0.7820(8) 0.9982(15)
O68A O 0.3349(5) 0.4189(4) 0.4020(9)
O69A O 0.6067(12) 0.8568(9) 0.8672(15)
O70A O 0.1509(12) 0.5699(9) 0.7757(17)
Mg12A Mg 0.29369(19) 0.36839(18) 0.4012(2)
C137A C 0.610(2) 0.5393(13) 0.754(2)
C138A C 0.5913(19) 0.6004(11) 0.652(2)
H128A H 0.5620 0.5954 0.6043
H129A H 0.6249 0.6031 0.6505
loop_
_geom_bond_atom_site_label_1
_geom_bond_atom_site_label_2
_geom_bond_site_symmetry_1
_geom_bond_site_symmetry_2
Mg1 O6 1_555 1_555
Mg2 O17 1_555 1_555
Mg3 O9 1_555 1_555
Mg4 O4 1_555 1_555
Mg5 O10 1_555 1_555
Mg6 O19 1_555 1_555
Mg7 O14 1_555 1_555
Mg8 O5 1_555 1_555
Mg9 O2 1_555 1_555
Mg10 O12 1_555 1_555
O1 C11 1_555 1_555
O2 C13 1_555 1_555
O3 C18 1_555 1_555
O4 C26 1_555 1_555
O5 C72 1_555 1_555
O6 C17 1_555 1_555
O7 C22 1_555 1_555
O8 Mg1 1_555 1_555
O9 C31 1_555 1_555
O10 C21 1_555 1_555
O11 Mg8 1_555 1_555
O12 C89 1_555 1_555
O13 Mg10 1_555 1_555
O14 C45 1_555 1_555
O15 Mg8 1_555 1_555
O16 C71 1_555 1_555
O17 C88 1_555 1_555
O18 Mg8 1_555 1_555
O19 C74 1_555 1_555
C1 H1 1_555 1_555
O20 Mg5 1_555 1_555
C2 O8 1_555 1_555
C3 C55 1_555 1_555
C4 H2 1_555 1_555
C5 C22 1_555 1_555
O21 Mg6 1_555 1_555
C6 C2 1_555 1_555
O22 Mg2 1_555 1_555
C7 C6 1_555 1_555
H3 C7 1_555 1_555
C8 C1 1_555 1_555
C9 O15 1_555 1_555
C10 C9 1_555 1_555
C11 C16 1_555 1_555
C12 C4 1_555 1_555
C13 C29 1_555 1_555
O23 C75 1_555 1_555
C14 O18 1_555 1_555
C15 C27 1_555 1_555
O24 C82 1_555 1_555
C16 C7 1_555 1_555
O25 Mg7 1_555 1_555
O26 Mg5 1_555 1_555
O27 Mg2 1_555 1_555
C17 C2 1_555 1_555
C18 C14 1_555 1_555
O28 Mg4 1_555 1_555
O29 Mg5 1_555 1_555
O30 C66 1_555 1_555
C19 C4 1_555 1_555
O31 C65 1_555 1_555
O32 Mg1 1_555 1_555
C20 C6 1_555 1_555
H4 C20 1_555 1_555
C21 C32 1_555 1_555
O33 Mg9 1_555 1_555
C22 C48 1_555 1_555
O34 Mg6 1_555 1_555
C23 H5 1_555 1_555
H6 C23 1_555 1_555
C24 C10 1_555 1_555
H7 C24 1_555 1_555
O35 Mg4 1_555 1_555
C25 C16 1_555 1_555
H8 C25 1_555 1_555
C26 C80 1_555 1_555
C27 H9 1_555 1_555
C28 C19 1_555 1_555
H10 C28 1_555 1_555
O36 C48 1_555 1_555
C29 C51 1_555 1_555
C30 C18 1_555 1_555
O37 Mg3 1_555 1_555
C31 C8 1_555 1_555
C32 C44 1_555 1_555
C33 O29 1_555 1_555
C34 C8 1_555 1_555
H11 C34 1_555 1_555
C35 C1 1_555 1_555
C36 H12 1_555 1_555
H13 C36 1_555 1_555
C37 H14 1_555 1_555
H15 C37 1_555 1_555
C38 C27 1_555 1_555
H16 C38 1_555 1_555
H17 C38 1_555 1_555
C39 O11 1_555 1_555
C40 O21 1_555 1_555
C41 C10 1_555 1_555
H18 C41 1_555 1_555
C42 H19 1_555 1_555
H20 C42 1_555 1_555
C43 O25 1_555 1_555
C44 H21 1_555 1_555
C45 C53 1_555 1_555
C46 C5 1_555 1_555
H22 C46 1_555 1_555
C47 O28 1_555 1_555
C48 C65 1_555 1_555
C49 O34 1_555 1_555
C50 C23 1_555 1_555
H23 C50 1_555 1_555
C51 H24 1_555 1_555
C52 C54 1_555 1_555
C53 O27 1_555 1_555
C54 H25 1_555 1_555
C55 H26 1_555 1_555
C56 C25 1_555 1_555
O38 Mg2 1_555 1_555
C57 C50 1_555 1_555
C58 C15 1_555 1_555
H27 C58 1_555 1_555
C59 C3 1_555 1_555
C60 C5 1_555 1_555
H28 C60 1_555 1_555
C61 C3 1_555 1_555
H29 C61 1_555 1_555
C62 C7 1_555 1_555
H30 C62 1_555 1_555
H31 C62 1_555 1_555
C63 C12 1_555 1_555
H32 C63 1_555 1_555
C64 C44 1_555 1_555
C65 C99 1_555 1_555
C66 C47 1_555 1_555
C67 C52 1_555 1_555
H33 C67 1_555 1_555
C68 O13 1_555 1_555
C69 H34 1_555 1_555
H35 C69 1_555 1_555
C70 C51 1_555 1_555
O39 Mg8 1_555 1_555
C71 C52 1_555 1_555
C72 C11 1_555 1_555
O40 Mg2 1_555 1_555
C73 C69 1_555 1_555
H36 C73 1_555 1_555
H37 C73 1_555 1_555
C74 C85 1_555 1_555
O41 Mg4 1_555 1_555
C75 C17 1_555 1_555
C76 C23 1_555 1_555
H38 C76 1_555 1_555
H39 C76 1_555 1_555
C77 C15 1_555 1_555
C78 C37 1_555 1_555
H40 C78 1_555 1_555
H41 C78 1_555 1_555
O42 Mg10 1_555 1_555
C79 C61 1_555 1_555
H42 C79 1_555 1_555
H43 C79 1_555 1_555
C80 C34 1_555 1_555
O43 Mg1 1_555 1_555
C81 C13 1_555 1_555
C82 C33 1_555 1_555
C83 C64 1_555 1_555
H44 C83 1_555 1_555
C84 C61 1_555 1_555
C85 C27 1_555 1_555
C86 C58 1_555 1_555
C87 C1 1_555 1_555
H45 C87 1_555 1_555
H46 C87 1_555 1_555
O44 Mg5 1_555 1_555
N1 C68 1_555 1_555
C88 C57 1_555 1_555
C89 C70 1_555 1_555
C90 C54 1_555 1_555
H47 C90 1_555 1_555
H48 C90 1_555 1_555
C91 O20 1_555 1_555
O45 Mg7 1_555 1_555
C92 O26 1_555 1_555
C93 C87 1_555 1_555
H49 C93 1_555 1_555
H50 C93 1_555 1_555
O46 Mg9 1_555 1_555
C94 C78 1_555 1_555
H51 C94 1_555 1_555
H52 C94 1_555 1_555
C95 H53 1_555 1_555
H54 C95 1_555 1_555
C96 C41 1_555 1_555
C97 C26 1_555 1_555
C98 O39 1_555 1_555
O47 Mg6 1_555 1_555
C99 C46 1_555 1_555
O48 Mg6 1_555 1_555
C100 C29 1_555 1_555
H55 C100 1_555 1_555
O49 Mg7 1_555 1_555
C101 C36 1_555 1_555
H56 C101 1_555 1_555
H57 C101 1_555 1_555
C102 C28 1_555 1_555
H58 C102 1_555 1_555
H59 C102 1_555 1_555
C103 H60 1_555 1_555
H61 C103 1_555 1_555
C104 C57 1_555 1_555
H62 C104 1_555 1_555
C105 C98 1_555 1_555
H63 C105 1_555 1_555
C106 C42 1_555 1_555
H64 C106 1_555 1_555
H65 C106 1_555 1_555
N2 H66 1_555 1_555
H67 N2 1_555 1_555
C107 O40 1_555 1_555
C108 C63 1_555 1_555
H68 C108 1_555 1_555
H69 C108 1_555 1_555
C109 H70 1_555 1_555
H71 C109 1_555 1_555
C110 N2 1_555 1_555
H72 C110 1_555 1_555
C111 C90 1_555 1_555
H73 C111 1_555 1_555
H74 C111 1_555 1_555
C112 H75 1_555 1_555
H76 C112 1_555 1_555
C113 C62 1_555 1_555
H77 C113 1_555 1_555
H78 C113 1_555 1_555
N3 H79 1_555 1_555
H80 N3 1_555 1_555
C114 C102 1_555 1_555
H81 C114 1_555 1_555
H82 C114 1_555 1_555
C115 C73 1_555 1_555
H83 C115 1_555 1_555
H84 C115 1_555 1_555
C116 C93 1_555 1_555
H85 C116 1_555 1_555
H86 C116 1_555 1_555
C117 C103 1_555 1_555
H87 C117 1_555 1_555
H88 C117 1_555 1_555
O50 Mg5 1_555 1_555
C118 C103 1_555 1_555
H89 C118 1_555 1_555
H90 C118 1_555 1_555
O51 Mg4 1_555 1_555
C119 N1 1_555 1_555
H91 C119 1_555 1_555
H92 C119 1_555 1_555
H93 C119 1_555 1_555
N4 C105 1_555 1_555
H94 N4 1_555 1_555
H95 N4 1_555 1_555
O52 Mg2 1_555 1_555
C120 C109 1_555 1_555
H96 C120 1_555 1_555
H97 C120 1_555 1_555
C121 H98 1_555 1_555
H99 C121 1_555 1_555
O53 C132 1_555 1_555
C122 C38 1_555 1_555
H100 C122 1_555 1_555
H101 C122 1_555 1_555
C123 N1 1_555 1_555
H102 C123 1_555 1_555
H103 C123 1_555 1_555
H104 C123 1_555 1_555
O54 Mg3 1_555 1_555
O55 Mg3 1_555 1_555
C124 O38 1_555 1_555
O56 C94 1_555 1_555
Mg11 O28 1_555 1_555
O57 Mg11 1_555 1_555
O58 C116 1_555 1_555
C125 C95 1_555 1_555
H105 C125 1_555 1_555
H106 C125 1_555 1_555
O59 Mg9 1_555 1_555
O60 C126 1_555 1_555
O61 Mg11 1_555 1_555
C126 C101 1_555 1_555
H107 C126 1_555 1_555
H108 C126 1_555 1_555
O62 C127 1_555 1_555
C127 C76 1_555 1_555
H109 C127 1_555 1_555
H110 C127 1_555 1_555
C128 C109 1_555 1_555
H111 C128 1_555 1_555
H112 C128 1_555 1_555
C129 C106 1_555 1_555
H113 C129 1_555 1_555
H114 C129 1_555 1_555
C130 N2 1_555 1_555
H115 C130 1_555 1_555
H116 C130 1_555 1_555
C131 N3 1_555 1_555
H117 C131 1_555 1_555
O63 C125 1_555 1_555
O64 C134 1_555 1_555
C132 C113 1_555 1_555
H118 C132 1_555 1_555
H119 C132 1_555 1_555
C133 C79 1_555 1_555
H120 C133 1_555 1_555
H121 C133 1_555 1_555
C134 C122 1_555 1_555
H122 C134 1_555 1_555
H123 C134 1_555 1_555
C135 C114 1_555 1_555
H124 C135 1_555 1_555
H125 C135 1_555 1_555
O65 C135 1_555 1_555
O66 C136 1_555 1_555
C136 C111 1_555 1_555
H126 C136 1_555 1_555
H127 C136 1_555 1_555
O67 C129 1_555 1_555
O68 Mg12 1_555 1_555
O69 C115 1_555 1_555
O70 C121 1_555 1_555
Mg12 O3 1_555 1_555
C137 O48 1_555 1_555
C138 C110 1_555 1_555
H128 C138 1_555 1_555
H129 C138 1_555 1_555
Mg1A O1 1_555 1_555
Mg2A O17A 1_555 1_555
Mg3A O7 1_555 1_555
Mg4A O4A 1_555 1_555
Mg5A O10A 1_555 1_555
Mg6A O19A 1_555 1_555
Mg7A O14A 1_555 1_555
Mg8A O5A 1_555 1_555
Mg9A O16 1_555 1_555
Mg10A O24 1_555 1_555
O1A Mg1 1_555 1_555
O2A Mg9A 1_555 1_555
O3A C18A 1_555 1_555
O4A C26A 1_555 1_555
O5A Mg1 1_555 1_555
O6A Mg12 1_555 1_555
O7A Mg3 1_555 1_555
O8A Mg1A 1_555 1_555
O9A Mg3A 1_555 1_555
O10A C21A 1_555 1_555
O11A Mg8A 1_555 1_555
O12A Mg10A 1_555 1_555
O13A Mg10A 1_555 1_555
O14A C45A 1_555 1_555
O15A Mg8A 1_555 1_555
O16A Mg9 1_555 1_555
O17A C88A 1_555 1_555
O18A Mg8A 1_555 1_555
O19A C74A 1_555 1_555
C1A H1A 1_555 1_555
O20A Mg5A 1_555 1_555
C2A O8A 1_555 1_555
C3A C55A 1_555 1_555
C4A H2A 1_555 1_555
C5A C22A 1_555 1_555
O21A Mg6A 1_555 1_555
C6A C2A 1_555 1_555
O22A Mg2A 1_555 1_555
C7A C6A 1_555 1_555
H3A C7A 1_555 1_555
C8A C1A 1_555 1_555
C9A O15A 1_555 1_555
C10A C9A 1_555 1_555
C11A O1A 1_555 1_555
C12A C4A 1_555 1_555
C13A O2A 1_555 1_555
O23A Mg12 1_555 1_555
C14A O18A 1_555 1_555
C15A C27A 1_555 1_555
O24A Mg10 1_555 1_555
C16A C7A 1_555 1_555
O25A Mg7A 1_555 1_555
O26A Mg9 1_555 1_555
O27A Mg2A 1_555 1_555
C17A O6A 1_555 1_555
C18A C14A 1_555 1_555
O28A Mg4A 1_555 1_555
O29A Mg10 1_555 1_555
O30A C66A 1_555 1_555
C19A C4A 1_555 1_555
O31A Mg11 1_555 1_555
O32A Mg1A 1_555 1_555
C20A C6A 1_555 1_555
H4A C20A 1_555 1_555
C21A C32A 1_555 1_555
O33A Mg9A 1_555 1_555
C22A O7A 1_555 1_555
O34A Mg6A 1_555 1_555
C23A H5A 1_555 1_555
H6A C23A 1_555 1_555
C24A C10A 1_555 1_555
H7A C24A 1_555 1_555
O35A Mg4A 1_555 1_555
C25A C16A 1_555 1_555
H8A C25A 1_555 1_555
C26A C80A 1_555 1_555
C27A H9A 1_555 1_555
C28A C19A 1_555 1_555
H10A C28A 1_555 1_555
O36A Mg3 1_555 1_555
C29A C13A 1_555 1_555
C30A C18A 1_555 1_555
O37A Mg3A 1_555 1_555
C31A O9A 1_555 1_555
C32A C44A 1_555 1_555
C33A O29A 1_555 1_555
C34A C8A 1_555 1_555
H11A C34A 1_555 1_555
C35A C1A 1_555 1_555
C36A H12A 1_555 1_555
H13A C36A 1_555 1_555
C37A H14A 1_555 1_555
H15A C37A 1_555 1_555
C38A C27A 1_555 1_555
H16A C38A 1_555 1_555
H17A C38A 1_555 1_555
C39A O11A 1_555 1_555
C40A O21A 1_555 1_555
C41A C10A 1_555 1_555
H18A C41A 1_555 1_555
C42A H19A 1_555 1_555
H20A C42A 1_555 1_555
C43A O25A 1_555 1_555
C44A H21A 1_555 1_555
C45A C53A 1_555 1_555
C46A C5A 1_555 1_555
H22A C46A 1_555 1_555
C47A O28A 1_555 1_555
C48A C22A 1_555 1_555
C49A O34A 1_555 1_555
C50A C23A 1_555 1_555
H23A C50A 1_555 1_555
C51A C29A 1_555 1_555
H24A C51A 1_555 1_555
C52A C54A 1_555 1_555
C53A O27A 1_555 1_555
C54A H25A 1_555 1_555
C55A H26A 1_555 1_555
C56A C25A 1_555 1_555
O38A Mg2A 1_555 1_555
C57A C50A 1_555 1_555
C58A C15A 1_555 1_555
H27A C58A 1_555 1_555
C59A C3A 1_555 1_555
C60A C5A 1_555 1_555
H28A C60A 1_555 1_555
C61A C3A 1_555 1_555
H29A C61A 1_555 1_555
C62A C7A 1_555 1_555
H30A C62A 1_555 1_555
H31A C62A 1_555 1_555
C63A C12A 1_555 1_555
H32A C63A 1_555 1_555
C64A C44A 1_555 1_555
C65A O31A 1_555 1_555
C66A C47A 1_555 1_555
C67A C52A 1_555 1_555
H33A C67A 1_555 1_555
C68A O13A 1_555 1_555
C69A H34A 1_555 1_555
H35A C69A 1_555 1_555
C70A C51A 1_555 1_555
O39A Mg8A 1_555 1_555
C71A O16A 1_555 1_555
C72A O5A 1_555 1_555
O40A Mg2A 1_555 1_555
C73A C69A 1_555 1_555
H36A C73A 1_555 1_555
H37A C73A 1_555 1_555
C74A C85A 1_555 1_555
O41A Mg4A 1_555 1_555
C75A O23A 1_555 1_555
C76A C23A 1_555 1_555
H38A C76A 1_555 1_555
H39A C76A 1_555 1_555
C77A C15A 1_555 1_555
C78A C37A 1_555 1_555
H40A C78A 1_555 1_555
H41A C78A 1_555 1_555
O42A Mg10A 1_555 1_555
C79A C61A 1_555 1_555
H42A C79A 1_555 1_555
H43A C79A 1_555 1_555
C80A C34A 1_555 1_555
O43A Mg1A 1_555 1_555
C81A C13A 1_555 1_555
C82A O24A 1_555 1_555
C83A C64A 1_555 1_555
H44A C83A 1_555 1_555
C84A C61A 1_555 1_555
C85A C27A 1_555 1_555
C86A C58A 1_555 1_555
C87A C1A 1_555 1_555
H45A C87A 1_555 1_555
H46A C87A 1_555 1_555
O44A Mg5A 1_555 1_555
N1A C68A 1_555 1_555
C88A C57A 1_555 1_555
C89A O12A 1_555 1_555
C90A C54A 1_555 1_555
H47A C90A 1_555 1_555
H48A C90A 1_555 1_555
C91A O20A 1_555 1_555
O45A Mg7A 1_555 1_555
C92A O26A 1_555 1_555
C93A C87A 1_555 1_555
H49A C93A 1_555 1_555
H50A C93A 1_555 1_555
O46A Mg9A 1_555 1_555
C94A C78A 1_555 1_555
H51A C94A 1_555 1_555
H52A C94A 1_555 1_555
C95A H53A 1_555 1_555
H54A C95A 1_555 1_555
C96A C41A 1_555 1_555
C97A C26A 1_555 1_555
C98A O39A 1_555 1_555
O47A Mg6A 1_555 1_555
C99A C46A 1_555 1_555
O48A Mg6A 1_555 1_555
C100A C29A 1_555 1_555
H55A C100A 1_555 1_555
O49A Mg7A 1_555 1_555
C101A C36A 1_555 1_555
H56A C101A 1_555 1_555
H57A C101A 1_555 1_555
C102A C28A 1_555 1_555
H58A C102A 1_555 1_555
H59A C102A 1_555 1_555
C103A H60A 1_555 1_555
H61A C103A 1_555 1_555
C104A C57A 1_555 1_555
H62A C104A 1_555 1_555
C105A C98A 1_555 1_555
H63A C105A 1_555 1_555
C106A C42A 1_555 1_555
H64A C106A 1_555 1_555
H65A C106A 1_555 1_555
N2A H66A 1_555 1_555
H67A N2A 1_555 1_555
C107A O40A 1_555 1_555
C108A C63A 1_555 1_555
H68A C108A 1_555 1_555
H69A C108A 1_555 1_555
C109A H70A 1_555 1_555
H71A C109A 1_555 1_555
C110A N2A 1_555 1_555
H72A C110A 1_555 1_555
C111A C90A 1_555 1_555
H73A C111A 1_555 1_555
H74A C111A 1_555 1_555
C112A H75A 1_555 1_555
H76A C112A 1_555 1_555
C113A C62A 1_555 1_555
H77A C113A 1_555 1_555
H78A C113A 1_555 1_555
N3A H79A 1_555 1_555
H80A N3A 1_555 1_555
C114A C102A 1_555 1_555
H81A C114A 1_555 1_555
H82A C114A 1_555 1_555
C115A C73A 1_555 1_555
H83A C115A 1_555 1_555
H84A C115A 1_555 1_555
C116A C93A 1_555 1_555
H85A C116A 1_555 1_555
H86A C116A 1_555 1_555
C117A C103A 1_555 1_555
H87A C117A 1_555 1_555
H88A C117A 1_555 1_555
O50A Mg5A 1_555 1_555
C118A C103A 1_555 1_555
H89A C118A 1_555 1_555
H90A C118A 1_555 1_555
O51A Mg4A 1_555 1_555
C119A N1A 1_555 1_555
H91A C119A 1_555 1_555
H92A C119A 1_555 1_555
H93A C119A 1_555 1_555
N4A C105A 1_555 1_555
H94A N4A 1_555 1_555
H95A N4A 1_555 1_555
O52A Mg2A 1_555 1_555
C120A C109A 1_555 1_555
H96A C120A 1_555 1_555
H97A C120A 1_555 1_555
C121A H98A 1_555 1_555
H99A C121A 1_555 1_555
O53A C132A 1_555 1_555
C122A C38A 1_555 1_555
H100A C122A 1_555 1_555
H101A C122A 1_555 1_555
C123A N1A 1_555 1_555
H102A C123A 1_555 1_555
H103A C123A 1_555 1_555
H104A C123A 1_555 1_555
O54A Mg3A 1_555 1_555
O55A Mg3A 1_555 1_555
C124A O38A 1_555 1_555
O56A C94A 1_555 1_555
Mg11A O31 1_555 1_555
O57A Mg11A 1_555 1_555
O58A C116A 1_555 1_555
C125A C95A 1_555 1_555
H105A C125A 1_555 1_555
H106A C125A 1_555 1_555
O59A Mg9A 1_555 1_555
O60A C126A 1_555 1_555
O61A Mg11A 1_555 1_555
C126A C101A 1_555 1_555
H107A C126A 1_555 1_555
H108A C126A 1_555 1_555
O62A C127A 1_555 1_555
C127A C76A 1_555 1_555
H109A C127A 1_555 1_555
H110A C127A 1_555 1_555
C128A C109A 1_555 1_555
H111A C128A 1_555 1_555
H112A C128A 1_555 1_555
C129A C106A 1_555 1_555
H113A C129A 1_555 1_555
H114A C129A 1_555 1_555
C130A N2A 1_555 1_555
H115A C130A 1_555 1_555
H116A C130A 1_555 1_555
C131A N3A 1_555 1_555
H117A C131A 1_555 1_555
O63A C125A 1_555 1_555
O64A C134A 1_555 1_555
C132A C113A 1_555 1_555
H118A C132A 1_555 1_555
H119A C132A 1_555 1_555
C133A C79A 1_555 1_555
H120A C133A 1_555 1_555
H121A C133A 1_555 1_555
C134A C122A 1_555 1_555
H122A C134A 1_555 1_555
H123A C134A 1_555 1_555
C135A C114A 1_555 1_555
H124A C135A 1_555 1_555
H125A C135A 1_555 1_555
O65A C135A 1_555 1_555
O66A C136A 1_555 1_555
C136A C111A 1_555 1_555
H126A C136A 1_555 1_555
H127A C136A 1_555 1_555
O67A C129A 1_555 1_555
O68A Mg12A 1_555 1_555
O69A C115A 1_555 1_555
O70A C121A 1_555 1_555
Mg12A O6 1_555 1_555
C137A O48A 1_555 1_555
C138A C110A 1_555 1_555
H128A C138A 1_555 1_555
H129A C138A 1_555 1_555
Mg4 O37 1_555 1_555
Mg6 O40 1_555 1_555
Mg7 O27 1_555 1_555
Mg7 O34 1_555 1_555
Mg10 O33 1_555 1_555
O5 Mg1A 1_555 1_555
O18 Mg12 1_555 1_555
O22 C59 1_555 1_555
C9 C14 1_555 1_555
C12 C40 1_555 1_555
O23 Mg12A 1_555 1_555
O26 Mg9A 1_555 1_555
O29 Mg10A 1_555 1_555
O30 Mg11 1_555 1_555
C19 C43 1_555 1_555
C20 C35 1_555 1_555
C21 C33 1_555 1_555
O33 C81 1_555 1_555
C24 C30 1_555 1_555
O35 C77 1_555 1_555
C28 C56 1_555 1_555
O36 Mg3A 1_555 1_555
O36 Mg11A 1_555 1_555
C30 C60 1_555 1_555
O37 C97 1_555 1_555
C31 C97 1_555 1_555
C32 C50 1_555 1_555
C35 C75 1_555 1_555
C36 C41 1_555 1_555
C37 C60 1_555 1_555
C39 C56 1_555 1_555
C39 C72 1_555 1_555
C40 C49 1_555 1_555
C42 C100 1_555 1_555
C43 C49 1_555 1_555
C45 C96 1_555 1_555
C47 C77 1_555 1_555
C53 C59 1_555 1_555
C54 C99 1_555 1_555
C55 C96 1_555 1_555
C63 C80 1_555 1_555
C64 C82 1_555 1_555
C66 C86 1_555 1_555
C67 C84 1_555 1_555
C69 C83 1_555 1_555
C70 C83 1_555 1_555
C71 C92 1_555 1_555
C74 C107 1_555 1_555
C81 C89 1_555 1_555
C84 C91 1_555 1_555
C85 C104 1_555 1_555
C86 C100 1_555 1_555
O44 C124 1_555 1_555
C88 C107 1_555 1_555
C91 C92 1_555 1_555
O45 C98 1_555 1_555
C95 C108 1_555 1_555
C105 C117 1_555 1_555
C110 C137 1_555 1_555
C112 C130 1_555 1_555
C112 C138 1_555 1_555
N3 C120 1_555 1_555
C118 N4 1_555 1_555
O51 C137 1_555 1_555
C121 C133 1_555 1_555
C124 C131 1_555 1_555
Mg11 O36A 1_555 1_555
C128 C131 1_555 1_555
Mg1A O6A 1_555 1_555
Mg4A O37A 1_555 1_555
Mg5A O26A 1_555 1_555
Mg5A O29A 1_555 1_555
Mg6A O40A 1_555 1_555
Mg7A O27A 1_555 1_555
Mg7A O34A 1_555 1_555
Mg10A O33A 1_555 1_555
O3A Mg12A 1_555 1_555
O18A Mg12A 1_555 1_555
C2A C17A 1_555 1_555
O22A C59A 1_555 1_555
C8A C31A 1_555 1_555
C9A C14A 1_555 1_555
C11A C16A 1_555 1_555
C11A C72A 1_555 1_555
C12A C40A 1_555 1_555
C17A C75A 1_555 1_555
O28A Mg11A 1_555 1_555
O30A Mg11A 1_555 1_555
C19A C43A 1_555 1_555
C20A C35A 1_555 1_555
C21A C33A 1_555 1_555
O33A C81A 1_555 1_555
C24A C30A 1_555 1_555
O35A C77A 1_555 1_555
C28A C56A 1_555 1_555
O36A C48A 1_555 1_555
C30A C60A 1_555 1_555
O37A C97A 1_555 1_555
C31A C97A 1_555 1_555
C32A C50A 1_555 1_555
C33A C82A 1_555 1_555
C35A C75A 1_555 1_555
C36A C41A 1_555 1_555
C37A C60A 1_555 1_555
C39A C56A 1_555 1_555
C39A C72A 1_555 1_555
C40A C49A 1_555 1_555
C42A C100A 1_555 1_555
C43A C49A 1_555 1_555
C45A C96A 1_555 1_555
C47A C77A 1_555 1_555
C48A C65A 1_555 1_555
C52A C71A 1_555 1_555
C53A C59A 1_555 1_555
C54A C99A 1_555 1_555
C55A C96A 1_555 1_555
C63A C80A 1_555 1_555
C64A C82A 1_555 1_555
C65A C99A 1_555 1_555
C66A C86A 1_555 1_555
C67A C84A 1_555 1_555
C69A C83A 1_555 1_555
C70A C83A 1_555 1_555
C70A C89A 1_555 1_555
C71A C92A 1_555 1_555
C74A C107A 1_555 1_555
C81A C89A 1_555 1_555
C84A C91A 1_555 1_555
C85A C104A 1_555 1_555
C86A C100A 1_555 1_555
O44A C124A 1_555 1_555
C88A C107A 1_555 1_555
C91A C92A 1_555 1_555
O45A C98A 1_555 1_555
C95A C108A 1_555 1_555
C105A C117A 1_555 1_555
C110A C137A 1_555 1_555
C112A C130A 1_555 1_555
C112A C138A 1_555 1_555
N3A C120A 1_555 1_555
C118A N4A 1_555 1_555
O51A C137A 1_555 1_555
C121A C133A 1_555 1_555
C124A C131A 1_555 1_555
C128A C131A 1_555 1_555

#END
