
#######################################################################
#
#                 Cambridge Crystallographic Data Centre
#                                CCDC 
#
#######################################################################
#
# If this CIF has been generated from an entry in the Cambridge 
# Structural Database, then it will include bibliographic, chemical, 
# crystal, experimental, refinement or atomic coordinate data resulting 
# from the CCDC's data processing and validation procedures.
#
#######################################################################

data_PELWOS
_chemical_formula_moiety         'C18 H16 Cl1 N3 O3'
_chemical_name_systematic        
Cyclopropylmethyl-8-chloro-9-oxo-11,12,13,13a-tetrahydro-10H-imidazo(1,5-a)pyrrolo(2,1-c)(1,4)benzodiazapine-1-carboxylate
_symmetry_cell_setting           orthorhombic
_symmetry_space_group_name_H-M   'P 21 21 21'
_symmetry_Int_Tables_number      19
_space_group_name_Hall           'P 2ac 2ab'
loop_
_symmetry_equiv_pos_site_id
_symmetry_equiv_pos_as_xyz
1 x,y,z
2 1/2+x,1/2-y,-z
3 -x,1/2+y,1/2-z
4 1/2-x,-y,1/2+z
_cell_length_a                   7.545(3)
_cell_length_b                   8.392(3)
_cell_length_c                   25.878(9)
_cell_angle_alpha                90
_cell_angle_beta                 90
_cell_angle_gamma                90
_cell_volume                     1638.53
_exptl_crystal_colour            colorless
_cell_formula_units_Z            4
loop_
_atom_site_label
_atom_site_type_symbol
_atom_site_fract_x
_atom_site_fract_y
_atom_site_fract_z
C1 C 0.1085(3) 0.4470(3) 0.8805(1)
N1 N -0.0014(3) 0.5717(3) 0.8662(1)
C2 C 0.0288(4) 0.5910(3) 0.8171(1)
N2 N 0.1551(3) 0.4877(3) 0.7984(1)
C3 C 0.1981(3) 0.4670(3) 0.7447(1)
C4 C 0.0605(4) 0.4884(3) 0.7095(1)
C5 C 0.0919(4) 0.4635(3) 0.6574(1)
C6 C 0.2565(4) 0.4110(3) 0.6406(1)
C7 C 0.3910(4) 0.3929(3) 0.6761(1)
C8 C 0.3682(4) 0.4261(3) 0.7287(1)
C9 C 0.5265(4) 0.4284(3) 0.7640(1)
N3 N 0.5112(3) 0.3453(3) 0.8078(1)
C10 C 0.6334(4) 0.3424(4) 0.8520(1)
C11 C 0.4817(4) 0.2676(4) 0.8841(1)
C12 C 0.3582(3) 0.2787(3) 0.8359(1)
C13 C 0.2089(3) 0.3946(3) 0.8401(1)
C14 C 0.0993(4) 0.3850(3) 0.9340(1)
O1 O 0.0583(4) 0.4614(3) 0.9712(1)
O2 O 0.1393(3) 0.2288(2) 0.9350(1)
C15 C 0.1534(5) 0.1543(4) 0.9858(1)
C16 C 0.0446(5) 0.0090(4) 0.9876(1)
C17 C 0.1036(6) -0.1189(4) 1.0248(1)
C18 C 0.1207(8) -0.1415(4) 0.9693(1)
O3 O 0.6606(3) 0.5044(3) 0.7533(1)
Cl1 Cl 0.5931(1) 0.3189(1) 0.6539(1)
H1 H -0.0329 0.6688 0.7967
H2 H -0.0567 0.5121 0.7218
H3 H -0.0003 0.4895 0.6333
H4 H 0.2733 0.3844 0.6049
H5 H 0.7358 0.2758 0.8478
H6 H 0.6698 0.4465 0.8632
H7 H 0.5047 0.1606 0.8954
H8 H 0.4451 0.3310 0.9131
H9 H 0.2899 0.1900 0.8236
H10 H 0.2754 0.1304 0.9932
H11 H 0.1090 0.2273 1.0113
H12 H -0.0610 0.0677 0.9795
H13 H 0.0148 -0.1757 1.0440
H14 H 0.2064 -0.1036 1.0461
H15 H 0.0454 -0.2170 0.9521
H16 H 0.2369 -0.1448 0.9542
loop_
_geom_bond_atom_site_label_1
_geom_bond_atom_site_label_2
_geom_bond_site_symmetry_1
_geom_bond_site_symmetry_2
C1 N1 1_555 1_555
N1 C2 1_555 1_555
C2 N2 1_555 1_555
N2 C3 1_555 1_555
C3 C4 1_555 1_555
C4 C5 1_555 1_555
C5 C6 1_555 1_555
C6 C7 1_555 1_555
C7 C8 1_555 1_555
C8 C3 1_555 1_555
C9 C8 1_555 1_555
N3 C9 1_555 1_555
C10 N3 1_555 1_555
C11 C10 1_555 1_555
C12 N3 1_555 1_555
C13 C1 1_555 1_555
C14 C1 1_555 1_555
O1 C14 1_555 1_555
O2 C14 1_555 1_555
C15 O2 1_555 1_555
C16 C15 1_555 1_555
C17 C16 1_555 1_555
C18 C16 1_555 1_555
O3 C9 1_555 1_555
Cl1 C7 1_555 1_555
H1 C2 1_555 1_555
H2 C4 1_555 1_555
H3 C5 1_555 1_555
H4 C6 1_555 1_555
H5 C10 1_555 1_555
H6 C10 1_555 1_555
H7 C11 1_555 1_555
H8 C11 1_555 1_555
H9 C12 1_555 1_555
H10 C15 1_555 1_555
H11 C15 1_555 1_555
H12 C16 1_555 1_555
H13 C17 1_555 1_555
H14 C17 1_555 1_555
H15 C18 1_555 1_555
H16 C18 1_555 1_555
N2 C13 1_555 1_555
C11 C12 1_555 1_555
C12 C13 1_555 1_555
C17 C18 1_555 1_555

#END
