
#######################################################################
#
#                 Cambridge Crystallographic Data Centre
#                                CCDC 
#
#######################################################################
#
# If this CIF has been generated from an entry in the Cambridge 
# Structural Database, then it will include bibliographic, chemical, 
# crystal, experimental, refinement or atomic coordinate data resulting 
# from the CCDC's data processing and validation procedures.
#
#######################################################################

data_PELYEK
_chemical_formula_moiety         'C56 H55 N3 O8 S3,C1 H1 Cl3'
_chemical_name_systematic        
'26-Phenyl-26-dinaphtho-10,13,16-tritosyl-(1,7,10,13,16)-dioxatriaza-cyclooctadecane chloroform solvate'
_symmetry_cell_setting           monoclinic
_symmetry_space_group_name_H-M   'P 21/c'
_symmetry_Int_Tables_number      14
_space_group_name_Hall           '-P 2ybc'
loop_
_symmetry_equiv_pos_site_id
_symmetry_equiv_pos_as_xyz
1 x,y,z
2 -x,1/2+y,1/2-z
3 -x,-y,-z
4 x,1/2-y,1/2+z
_cell_length_a                   28.524(17)
_cell_length_b                   17.342(9)
_cell_length_c                   11.243(11)
_cell_angle_alpha                90
_cell_angle_beta                 99.88(4)
_cell_angle_gamma                90
_cell_volume                     5479.02
_exptl_crystal_colour            colorless
_cell_formula_units_Z            4
loop_
_atom_site_label
_atom_site_type_symbol
_atom_site_fract_x
_atom_site_fract_y
_atom_site_fract_z
O1 O 0.31480(10) 0.46282(17) -0.1270(3)
C1 C 0.33353(18) 0.3893(3) -0.0794(5)
C2 C 0.29399(18) 0.3429(3) -0.0449(4)
N1 N 0.25885(13) 0.3155(2) -0.1484(4)
C3 C 0.20882(17) 0.3333(3) -0.1456(5)
C4 C 0.19563(17) 0.4116(3) -0.2025(4)
N2 N 0.14923(13) 0.4389(2) -0.1829(3)
C5 C 0.14533(18) 0.4646(3) -0.0606(4)
C6 C 0.15046(17) 0.5513(3) -0.0517(4)
N3 N 0.15621(13) 0.5786(2) 0.0745(3)
C7 C 0.19654(16) 0.6303(3) 0.1135(5)
C8 C 0.24130(17) 0.5904(4) 0.1708(5)
O2 O 0.26417(10) 0.55453(18) 0.0797(3)
C9 C 0.31054(13) 0.5323(2) 0.1238(4)
C10 C 0.34751(14) 0.5591(2) 0.0711(4)
C11 C 0.34271(15) 0.6152(2) -0.0355(4)
C12 C 0.35478(14) 0.5810(2) -0.1513(4)
C13 C 0.34356(14) 0.5062(3) -0.1884(4)
C14 C 0.35832(17) 0.4749(3) -0.2918(5)
C15 C 0.38226(19) 0.5187(4) -0.3613(5)
C16 C 0.39268(16) 0.5969(3) -0.3326(4)
C17 C 0.4177(2) 0.6437(5) -0.4043(5)
C18 C 0.4290(2) 0.7179(5) -0.3736(6)
C19 C 0.41442(19) 0.7497(4) -0.2731(5)
C20 C 0.38995(17) 0.7070(3) -0.2010(5)
C21 C 0.37863(15) 0.6278(3) -0.2275(4)
C22 C 0.31791(19) 0.4801(3) 0.2213(4)
C23 C 0.3618(2) 0.4552(3) 0.2687(5)
C24 C 0.40167(19) 0.4815(3) 0.2212(5)
C25 C 0.4478(2) 0.4575(4) 0.2714(7)
C26 C 0.4865(2) 0.4827(4) 0.2285(7)
C27 C 0.48019(19) 0.5328(4) 0.1282(6)
C28 C 0.43588(16) 0.5578(3) 0.0769(5)
C29 C 0.39503(15) 0.5330(2) 0.1212(4)
C30 C 0.29868(15) 0.6654(2) -0.0595(4)
C31 C 0.26209(16) 0.6528(3) -0.1563(4)
C32 C 0.22366(18) 0.7023(3) -0.1802(4)
C33 C 0.22112(19) 0.7656(3) -0.1078(5)
C34 C 0.2576(2) 0.7796(3) -0.0117(5)
C35 C 0.29565(17) 0.7298(3) 0.0127(4)
S1 S 0.26858(5) 0.23631(7) -0.21756(12)
O3 O 0.24143(18) 0.2403(2) -0.3363(3)
O4 O 0.31890(14) 0.2278(2) -0.2004(4)
C36 C 0.24517(17) 0.1590(2) -0.1441(4)
C37 C 0.20090(19) 0.1285(3) -0.1933(5)
C38 C 0.18323(19) 0.0659(3) -0.1393(5)
C39 C 0.20835(17) 0.0328(3) -0.0360(4)
C40 C 0.25229(18) 0.0643(3) 0.0117(5)
C41 C 0.27058(18) 0.1268(3) -0.0408(5)
C42 C 0.1894(2) -0.0367(3) 0.0208(5)
S2 S 0.10104(4) 0.42129(7) -0.27908(11)
O5 O 0.06599(13) 0.4732(2) -0.2501(4)
O6 O 0.11355(15) 0.4215(2) -0.3971(3)
C43 C 0.08236(16) 0.3265(3) -0.2537(4)
C44 C 0.05652(17) 0.3120(3) -0.1626(4)
C45 C 0.04299(18) 0.2373(3) -0.1426(4)
C46 C 0.05399(17) 0.1768(3) -0.2127(4)
C47 C 0.07879(18) 0.1925(3) -0.3056(5)
C48 C 0.09324(18) 0.2669(3) -0.3261(4)
C49 C 0.0383(2) 0.0956(3) -0.1916(6)
S3 S 0.10818(4) 0.59536(7) 0.13137(11)
O7 O 0.07436(12) 0.5387(2) 0.0825(4)
O8 O 0.12324(13) 0.6020(2) 0.2587(3)
C50 C 0.08692(14) 0.6869(3) 0.0785(4)
C51 C 0.05959(17) 0.6950(3) -0.0358(4)
C52 C 0.04620(17) 0.7679(3) -0.0783(4)
C53 C 0.05852(16) 0.8332(3) -0.0085(4)
C54 C 0.08443(17) 0.8232(3) 0.1065(4)
C55 C 0.09885(16) 0.7514(3) 0.1499(4)
C56 C 0.0430(2) 0.9118(3) -0.0547(5)
H1 H 0.3471 0.3623 -0.1399
H2 H 0.3576 0.3977 -0.0097
H3 H 0.2776 0.3742 0.0054
H4 H 0.3075 0.2988 -0.0001
H5 H 0.1891 0.2944 -0.1897
H6 H 0.2038 0.3338 -0.0633
H7 H 0.1953 0.4078 -0.2879
H8 H 0.2193 0.4484 -0.1682
H9 H 0.1148 0.4498 -0.0428
H10 H 0.1700 0.4408 -0.0036
H11 H 0.1225 0.5746 -0.0973
H12 H 0.1779 0.5665 -0.0851
H13 H 0.2030 0.6579 0.0441
H14 H 0.1877 0.6661 0.1709
H15 H 0.2337 0.5516 0.2254
H16 H 0.2626 0.6275 0.2145
H17 H 0.3675 0.6510 -0.0049
H18 H 0.3513 0.4220 -0.3132
H19 H 0.3923 0.4964 -0.4310
H20 H 0.4269 0.6224 -0.4758
H21 H 0.4470 0.7481 -0.4212
H22 H 0.4216 0.8027 -0.2533
H23 H 0.3803 0.7306 -0.1318
H24 H 0.2911 0.4621 0.2546
H25 H 0.3660 0.4195 0.3349
H26 H 0.4519 0.4220 0.3379
H27 H 0.5178 0.4668 0.2658
H28 H 0.5074 0.5496 0.0955
H29 H 0.4325 0.5928 0.0098
H30 H 0.2635 0.6089 -0.2075
H31 H 0.1987 0.6925 -0.2473
H32 H 0.1943 0.7998 -0.1237
H33 H 0.2563 0.8242 0.0381
H34 H 0.3204 0.7397 0.0803
H35 H 0.1827 0.1510 -0.2646
H36 H 0.1528 0.0449 -0.1742
H37 H 0.2704 0.0420 0.0833
H38 H 0.3009 0.1478 -0.0055
H39 H 0.1588 -0.0502 -0.0240
H40 H 0.1865 -0.0250 0.1027
H41 H 0.2109 -0.0792 0.0199
H42 H 0.0481 0.3534 -0.1137
H43 H 0.0255 0.2272 -0.0784
H44 H 0.0861 0.1513 -0.3564
H45 H 0.1107 0.2770 -0.3902
H46 H 0.0491 0.0615 -0.2484
H47 H 0.0042 0.0938 -0.2019
H48 H 0.0517 0.0800 -0.1110
H49 H 0.0501 0.6504 -0.0846
H50 H 0.0280 0.7735 -0.1580
H51 H 0.0925 0.8675 0.1570
H52 H 0.1171 0.7459 0.2295
H53 H 0.0258 0.9076 -0.1357
H54 H 0.0704 0.9440 -0.0542
H55 H 0.0228 0.9342 -0.0039
C57 C 0.4518(5) 0.2432(6) 0.1037(16)
Cl1 Cl 0.40072(7) 0.25159(14) 0.1657(2)
Cl2 Cl 0.47378(9) 0.15115(14) 0.1076(3)
Cl3 Cl 0.45799(14) 0.2977(3) -0.0040(4)
loop_
_geom_bond_atom_site_label_1
_geom_bond_atom_site_label_2
_geom_bond_site_symmetry_1
_geom_bond_site_symmetry_2
O1 C1 1_555 1_555
C1 C2 1_555 1_555
C2 N1 1_555 1_555
N1 C3 1_555 1_555
C3 C4 1_555 1_555
C4 N2 1_555 1_555
N2 C5 1_555 1_555
C5 C6 1_555 1_555
C6 N3 1_555 1_555
N3 C7 1_555 1_555
C7 C8 1_555 1_555
C8 O2 1_555 1_555
O2 C9 1_555 1_555
C9 C10 1_555 1_555
C10 C11 1_555 1_555
C11 C12 1_555 1_555
C12 C13 1_555 1_555
C13 O1 1_555 1_555
C14 C13 1_555 1_555
C15 C14 1_555 1_555
C16 C15 1_555 1_555
C17 C16 1_555 1_555
C18 C17 1_555 1_555
C19 C18 1_555 1_555
C20 C19 1_555 1_555
C21 C12 1_555 1_555
C22 C9 1_555 1_555
C23 C22 1_555 1_555
C24 C23 1_555 1_555
C25 C24 1_555 1_555
C26 C25 1_555 1_555
C27 C26 1_555 1_555
C28 C27 1_555 1_555
C29 C10 1_555 1_555
C30 C11 1_555 1_555
C31 C30 1_555 1_555
C32 C31 1_555 1_555
C33 C32 1_555 1_555
C34 C33 1_555 1_555
C35 C30 1_555 1_555
S1 N1 1_555 1_555
O3 S1 1_555 1_555
O4 S1 1_555 1_555
C36 S1 1_555 1_555
C37 C36 1_555 1_555
C38 C37 1_555 1_555
C39 C38 1_555 1_555
C40 C39 1_555 1_555
C41 C36 1_555 1_555
C42 C39 1_555 1_555
S2 N2 1_555 1_555
O5 S2 1_555 1_555
O6 S2 1_555 1_555
C43 S2 1_555 1_555
C44 C43 1_555 1_555
C45 C44 1_555 1_555
C46 C45 1_555 1_555
C47 C46 1_555 1_555
C48 C43 1_555 1_555
C49 C46 1_555 1_555
S3 N3 1_555 1_555
O7 S3 1_555 1_555
O8 S3 1_555 1_555
C50 S3 1_555 1_555
C51 C50 1_555 1_555
C52 C51 1_555 1_555
C53 C52 1_555 1_555
C54 C53 1_555 1_555
C55 C50 1_555 1_555
C56 C53 1_555 1_555
C57 Cl1 1_555 1_555
Cl2 C57 1_555 1_555
Cl3 C57 1_555 1_555
H1 C1 1_555 1_555
H2 C1 1_555 1_555
H3 C2 1_555 1_555
H4 C2 1_555 1_555
H5 C3 1_555 1_555
H6 C3 1_555 1_555
H7 C4 1_555 1_555
H8 C4 1_555 1_555
H9 C5 1_555 1_555
H10 C5 1_555 1_555
H11 C6 1_555 1_555
H12 C6 1_555 1_555
H13 C7 1_555 1_555
H14 C7 1_555 1_555
H15 C8 1_555 1_555
H16 C8 1_555 1_555
H17 C11 1_555 1_555
H18 C14 1_555 1_555
H19 C15 1_555 1_555
H20 C17 1_555 1_555
H21 C18 1_555 1_555
H22 C19 1_555 1_555
H23 C20 1_555 1_555
H24 C22 1_555 1_555
H25 C23 1_555 1_555
H26 C25 1_555 1_555
H27 C26 1_555 1_555
H28 C27 1_555 1_555
H29 C28 1_555 1_555
H30 C31 1_555 1_555
H31 C32 1_555 1_555
H32 C33 1_555 1_555
H33 C34 1_555 1_555
H34 C35 1_555 1_555
H35 C37 1_555 1_555
H36 C38 1_555 1_555
H37 C40 1_555 1_555
H38 C41 1_555 1_555
H39 C42 1_555 1_555
H40 C42 1_555 1_555
H41 C42 1_555 1_555
H42 C44 1_555 1_555
H43 C45 1_555 1_555
H44 C47 1_555 1_555
H45 C48 1_555 1_555
H46 C49 1_555 1_555
H47 C49 1_555 1_555
H48 C49 1_555 1_555
H49 C51 1_555 1_555
H50 C52 1_555 1_555
H51 C54 1_555 1_555
H52 C55 1_555 1_555
H53 C56 1_555 1_555
H54 C56 1_555 1_555
H55 C56 1_555 1_555
C16 C21 1_555 1_555
C20 C21 1_555 1_555
C24 C29 1_555 1_555
C28 C29 1_555 1_555
C34 C35 1_555 1_555
C40 C41 1_555 1_555
C47 C48 1_555 1_555
C54 C55 1_555 1_555

#END
