
#######################################################################
#
#                 Cambridge Crystallographic Data Centre
#                                CCDC 
#
#######################################################################
#
# If this CIF has been generated from an entry in the Cambridge 
# Structural Database, then it will include bibliographic, chemical, 
# crystal, experimental, refinement or atomic coordinate data resulting 
# from the CCDC's data processing and validation procedures.
#
#######################################################################

data_PEMCIU
_chemical_formula_moiety         'C26 H22 N2 O4'
_chemical_name_systematic        
N,N'-bis(2-methoxyphenyl)naphthalene-1,4-dicarboxamide
_chemical_properties_biological  
'The naphthalene-1,4-dicarboxamide family are used as chemotherapeutic agents'
_symmetry_cell_setting           monoclinic
_symmetry_space_group_name_H-M   'C c'
_symmetry_Int_Tables_number      9
_space_group_name_Hall           'C -2yc'
loop_
_symmetry_equiv_pos_site_id
_symmetry_equiv_pos_as_xyz
1 x,y,z
2 x,-y,1/2+z
3 1/2+x,1/2+y,z
4 1/2+x,1/2-y,1/2+z
_cell_length_a                   34.7194(9)
_cell_length_b                   6.04620(10)
_cell_length_c                   10.0042(3)
_cell_angle_alpha                90
_cell_angle_beta                 93.9750(10)
_cell_angle_gamma                90
_cell_volume                     2095.03
_exptl_crystal_colour            colorless
_exptl_crystal_description       column
_cell_formula_units_Z            4
_exptl_crystal_recrystallization_method 'dimethyl sulfoxide'
loop_
_atom_site_label
_atom_site_type_symbol
_atom_site_fract_x
_atom_site_fract_y
_atom_site_fract_z
O1 O 0.26715(4) 0.5097(3) 0.23758(13)
O2 O 0.22530(4) 0.1268(2) 0.57759(14)
O3 O 0.44834(4) 0.5514(3) 0.66101(14)
O4 O 0.49031(5) 0.1080(3) 0.33995(15)
N1 N 0.25272(5) 0.4794(3) 0.45421(15)
H1 H 0.2615 0.4942 0.5384
N2 N 0.46429(5) 0.4694(3) 0.45087(16)
H2 H 0.4560 0.4692 0.3658
C1 C 0.31914(5) 0.5484(3) 0.40293(18)
C2 C 0.34382(5) 0.3959(3) 0.35411(17)
H3 H 0.3342 0.2883 0.2911
C3 C 0.38327(5) 0.3976(3) 0.39666(17)
H4 H 0.4000 0.2891 0.3636
C4 C 0.39798(5) 0.5550(3) 0.48565(18)
C5 C 0.38814(5) 0.9061(3) 0.61120(17)
H5 H 0.4149 0.9134 0.6377
C6 C 0.36402(6) 1.0679(3) 0.65184(18)
H6 H 0.3741 1.1852 0.7069
C7 C 0.32411(6) 1.0615(3) 0.61225(19)
H7 H 0.3075 1.1735 0.6416
C8 C 0.30945(5) 0.8947(3) 0.53204(18)
H8 H 0.2827 0.8941 0.5045
C9 C 0.33338(5) 0.7222(3) 0.48894(17)
C10 C 0.37386(5) 0.7271(3) 0.53005(17)
C11 C 0.27725(5) 0.5161(3) 0.35739(18)
C12 C 0.21345(5) 0.4178(3) 0.42651(18)
C13 C 0.19931(5) 0.2342(3) 0.49328(19)
C14 C 0.16084(6) 0.1713(4) 0.4682(2)
H9 H 0.1509 0.0485 0.5141
C15 C 0.13710(6) 0.2880(4) 0.3764(2)
H10 H 0.1110 0.2438 0.3592
C16 C 0.15099(6) 0.4683(4) 0.3094(2)
H11 H 0.1346 0.5469 0.2460
C17 C 0.18924(6) 0.5337(4) 0.3355(2)
H12 H 0.1988 0.6585 0.2905
C18 C 0.21267(7) -0.0657(4) 0.6459(2)
H13 H 0.1922 -0.0244 0.7038
H14 H 0.2345 -0.1289 0.7006
H15 H 0.2027 -0.1753 0.5801
C19 C 0.43904(6) 0.5291(3) 0.54159(19)
C20 C 0.50327(5) 0.4069(3) 0.48311(18)
C21 C 0.51692(6) 0.2188(3) 0.42038(19)
C22 C 0.55549(6) 0.1559(4) 0.4444(2)
H16 H 0.5652 0.0307 0.4002
C23 C 0.57946(6) 0.2768(4) 0.5329(3)
H17 H 0.6056 0.2333 0.5498
C24 C 0.56585(6) 0.4602(4) 0.5971(2)
H18 H 0.5826 0.5413 0.6583
C25 C 0.52750(6) 0.5263(4) 0.5718(2)
H19 H 0.5181 0.6528 0.6154
C26 C 0.50263(8) -0.0825(4) 0.2699(2)
H20 H 0.5224 -0.0393 0.2095
H21 H 0.4805 -0.1473 0.2177
H22 H 0.5135 -0.1916 0.3345
loop_
_geom_bond_atom_site_label_1
_geom_bond_atom_site_label_2
_geom_bond_site_symmetry_1
_geom_bond_site_symmetry_2
O1 C11 1_555 1_555
O2 C13 1_555 1_555
O3 C19 1_555 1_555
O4 C21 1_555 1_555
N1 H1 1_555 1_555
N2 H2 1_555 1_555
C1 C2 1_555 1_555
C2 H3 1_555 1_555
C3 C2 1_555 1_555
H4 C3 1_555 1_555
C4 C3 1_555 1_555
C5 H5 1_555 1_555
C6 C5 1_555 1_555
H6 C6 1_555 1_555
C7 C6 1_555 1_555
H7 C7 1_555 1_555
C8 C7 1_555 1_555
H8 C8 1_555 1_555
C9 C1 1_555 1_555
C10 C4 1_555 1_555
C11 N1 1_555 1_555
C12 N1 1_555 1_555
C13 C12 1_555 1_555
C14 C13 1_555 1_555
H9 C14 1_555 1_555
C15 C14 1_555 1_555
H10 C15 1_555 1_555
C16 C15 1_555 1_555
H11 C16 1_555 1_555
C17 C12 1_555 1_555
H12 C17 1_555 1_555
C18 O2 1_555 1_555
H13 C18 1_555 1_555
H14 C18 1_555 1_555
H15 C18 1_555 1_555
C19 N2 1_555 1_555
C20 N2 1_555 1_555
C21 C20 1_555 1_555
C22 C21 1_555 1_555
H16 C22 1_555 1_555
C23 C22 1_555 1_555
H17 C23 1_555 1_555
C24 C23 1_555 1_555
H18 C24 1_555 1_555
C25 C20 1_555 1_555
H19 C25 1_555 1_555
C26 O4 1_555 1_555
H20 C26 1_555 1_555
H21 C26 1_555 1_555
H22 C26 1_555 1_555
C1 C11 1_555 1_555
C4 C19 1_555 1_555
C5 C10 1_555 1_555
C8 C9 1_555 1_555
C9 C10 1_555 1_555
C16 C17 1_555 1_555
C24 C25 1_555 1_555

#END
