
#######################################################################
#
#                 Cambridge Crystallographic Data Centre
#                                CCDC 
#
#######################################################################
#
# If this CIF has been generated from an entry in the Cambridge 
# Structural Database, then it will include bibliographic, chemical, 
# crystal, experimental, refinement or atomic coordinate data resulting 
# from the CCDC's data processing and validation procedures.
#
#######################################################################

data_PEMCOZ
_chemical_formula_moiety         'C48 H68 Cl2 Si2'
_chemical_name_systematic        
1,2-Dichloro-1,1-dimesityl-2,2-bis(2,4,6-tri-isopropylphenyl)-di-silane
_symmetry_cell_setting           triclinic
_symmetry_space_group_name_H-M   'P -1'
_symmetry_Int_Tables_number      2
_space_group_name_Hall           '-P 1'
loop_
_symmetry_equiv_pos_site_id
_symmetry_equiv_pos_as_xyz
1 x,y,z
2 -x,-y,-z
_cell_length_a                   11.516(1)
_cell_length_b                   13.656(1)
_cell_length_c                   14.878(1)
_cell_angle_alpha                80.48(1)
_cell_angle_beta                 86.77(1)
_cell_angle_gamma                87.17(1)
_cell_volume                     2301.96
_exptl_crystal_colour            colorless
_chemical_melting_point          '219 deg.C'
_cell_formula_units_Z            2
loop_
_atom_site_label
_atom_site_type_symbol
_atom_site_fract_x
_atom_site_fract_y
_atom_site_fract_z
Si1 Si 0.2960(1) 0.4610(1) 0.7529(1)
Si2 Si 0.2044(1) 0.3145(1) 0.7284(1)
Cl1 Cl 0.0318(1) 0.3528(1) 0.7699(1)
Cl2 Cl 0.4698(1) 0.4266(1) 0.7141(1)
C1 C 0.1869(4) 0.6185(3) 0.6197(3)
C2 C 0.1851(4) 0.7132(3) 0.5688(3)
C3 C 0.2608(4) 0.7841(3) 0.5810(3)
C4 C 0.3412(4) 0.7574(3) 0.6471(3)
C5 C 0.3489(4) 0.6640(3) 0.6981(3)
C6 C 0.2727(3) 0.5900(3) 0.6847(3)
C7 C 0.0901(4) 0.5527(3) 0.6067(3)
C8 C 0.2553(5) 0.8879(3) 0.5251(3)
C9 C 0.4432(4) 0.6468(3) 0.7677(3)
C10 C 0.1862(4) 0.5290(3) 0.9106(3)
C11 C 0.1758(4) 0.5430(3) 1.0018(3)
C12 C 0.2559(4) 0.5002(4) 1.0648(3)
C13 C 0.3426(4) 0.4409(4) 1.0346(3)
C14 C 0.3564(4) 0.4218(3) 0.9456(3)
C15 C 0.2782(4) 0.4682(3) 0.8806(3)
C16 C 0.0926(4) 0.5814(3) 0.8503(3)
C17 C 0.2432(5) 0.5169(5) 1.1624(3)
C18 C 0.4532(4) 0.3493(4) 0.9269(3)
C19 C 0.2360(3) 0.3157(3) 0.5288(3)
C20 C 0.2203(4) 0.2730(3) 0.4513(3)
C21 C 0.1552(4) 0.1901(3) 0.4534(3)
C22 C 0.1011(4) 0.1518(3) 0.5367(3)
C23 C 0.1149(3) 0.1898(3) 0.6158(3)
C24 C 0.1839(3) 0.2735(3) 0.6138(2)
C25 C 0.3147(4) 0.4042(3) 0.5128(3)
C26 C 0.4407(4) 0.3731(3) 0.4875(3)
C27 C 0.2713(4) 0.4866(3) 0.4379(3)
C28 C 0.1448(4) 0.1443(3) 0.3682(3)
C29 C 0.0773(5) 0.2117(4) 0.2977(3)
C30 C 0.2623(5) 0.1138(4) 0.3286(4)
C31 C 0.0498(4) 0.1362(3) 0.7020(3)
C32 C 0.0871(5) 0.0280(4) 0.7246(3)
C33 C -0.0821(4) 0.1482(5) 0.6933(3)
C34 C 0.2185(4) 0.1641(3) 0.8968(3)
C35 C 0.2508(4) 0.0690(3) 0.9384(3)
C36 C 0.3326(4) 0.0080(3) 0.9017(3)
C37 C 0.3871(4) 0.0487(3) 0.8191(3)
C38 C 0.3572(4) 0.1423(3) 0.7731(3)
C39 C 0.2665(4) 0.2010(3) 0.8085(2)
C40 C 0.1343(5) 0.2226(4) 0.9518(3)
C41 C 0.0133(5) 0.1823(4) 0.9611(4)
C42 C 0.1790(6) 0.2237(4) 1.0471(3)
C43 C 0.3606(6) -0.0981(4) 0.9451(4)
C44 C 0.3412(8) -0.1192(5) 1.0454(5)
C45 C 0.2920(7) -0.1669(4) 0.9040(5)
C46 C 0.4300(4) 0.1771(3) 0.6852(3)
C47 C 0.5588(4) 0.1839(4) 0.7054(3)
C48 C 0.4198(4) 0.1098(3) 0.6128(3)
H1 H 0.1289 0.7301 0.5229
H2 H 0.3938 0.8063 0.6575
H3 H 0.0419 0.5865 0.5597
H4 H 0.1227 0.4921 0.5892
H5 H 0.0441 0.5376 0.6627
H6 H 0.1944 0.8929 0.4828
H7 H 0.2399 0.9558 0.5652
H8 H 0.3285 0.9006 0.4921
H9 H 0.4845 0.7066 0.7653
H10 H 0.4078 0.6284 0.8278
H11 H 0.4965 0.5944 0.7540
H12 H 0.1120 0.5837 1.0212
H13 H 0.3985 0.4110 1.0775
H14 H 0.0391 0.6177 0.8857
H15 H 0.1280 0.6265 0.8013
H16 H 0.0514 0.5332 0.8258
H17 H 0.3057 0.4813 1.1954
H18 H 0.2467 0.5865 1.1645
H19 H 0.1702 0.4932 1.1895
H20 H 0.4952 0.3271 0.9809
H21 H 0.4201 0.2934 0.9077
H22 H 0.5053 0.3805 0.8793
H23 H 0.2565 0.3024 0.3942
H24 H 0.0532 0.0957 0.5392
H25 H 0.3148 0.4307 0.5687
H26 H 0.4683 0.3217 0.5543
H27 H 0.4426 0.3484 0.4306
H28 H 0.4895 0.4290 0.4815
H29 H 0.1928 0.5064 0.4542
H30 H 0.3199 0.5427 0.4318
H31 H 0.2729 0.4620 0.3809
H32 H 0.1014 0.0854 0.3860
H33 H 0.0028 0.2299 0.3238
H34 H 0.1204 0.2704 0.2775
H35 H 0.0665 0.1788 0.2468
H36 H 0.3029 0.0701 0.3748
H37 H 0.2525 0.0803 0.2779
H38 H 0.3064 0.1720 0.3086
H39 H 0.0692 0.1675 0.7521
H40 H 0.0455 -0.0030 0.7788
H41 H 0.0716 -0.0047 0.6745
H42 H 0.1691 0.0229 0.7342
H43 H -0.1209 0.1147 0.7478
H44 H -0.1044 0.2176 0.6849
H45 H -0.1037 0.1203 0.6419
H46 H 0.2129 0.0440 0.9962
H47 H 0.4485 0.0103 0.7935
H48 H 0.1289 0.2899 0.9205
H49 H -0.0147 0.1831 0.9014
H50 H 0.0176 0.1151 0.9929
H51 H -0.0390 0.2216 0.9946
H52 H 0.2549 0.2509 1.0402
H53 H 0.1275 0.2633 1.0809
H54 H 0.1841 0.1568 1.0792
H55 H 0.4414 -0.1128 0.9315
H56 H 0.3616 -0.1872 1.0693
H57 H 0.3871 -0.0761 1.0726
H58 H 0.2601 -0.1058 1.0593
H59 H 0.3058 -0.1564 0.8390
H60 H 0.3129 -0.2346 0.9286
H61 H 0.2111 -0.1536 0.9186
H62 H 0.4015 0.2427 0.6601
H63 H 0.5655 0.2268 0.7497
H64 H 0.5887 0.1184 0.7291
H65 H 0.6025 0.2094 0.6504
H66 H 0.3396 0.1065 0.5995
H67 H 0.4638 0.1355 0.5580
H68 H 0.4500 0.0445 0.6367
loop_
_geom_bond_atom_site_label_1
_geom_bond_atom_site_label_2
_geom_bond_site_symmetry_1
_geom_bond_site_symmetry_2
Si1 Si2 1_555 1_555
Si2 Cl1 1_555 1_555
Cl2 Si1 1_555 1_555
C1 C2 1_555 1_555
C2 C3 1_555 1_555
C3 C4 1_555 1_555
C4 C5 1_555 1_555
C5 C6 1_555 1_555
C6 Si1 1_555 1_555
C7 C1 1_555 1_555
C8 C3 1_555 1_555
C9 C5 1_555 1_555
C10 C11 1_555 1_555
C11 C12 1_555 1_555
C12 C13 1_555 1_555
C13 C14 1_555 1_555
C14 C15 1_555 1_555
C15 Si1 1_555 1_555
C16 C10 1_555 1_555
C17 C12 1_555 1_555
C18 C14 1_555 1_555
C19 C20 1_555 1_555
C20 C21 1_555 1_555
C21 C22 1_555 1_555
C22 C23 1_555 1_555
C23 C24 1_555 1_555
C24 Si2 1_555 1_555
C25 C19 1_555 1_555
C26 C25 1_555 1_555
C27 C25 1_555 1_555
C28 C21 1_555 1_555
C29 C28 1_555 1_555
C30 C28 1_555 1_555
C31 C23 1_555 1_555
C32 C31 1_555 1_555
C33 C31 1_555 1_555
C34 C35 1_555 1_555
C35 C36 1_555 1_555
C36 C37 1_555 1_555
C37 C38 1_555 1_555
C38 C39 1_555 1_555
C39 Si2 1_555 1_555
C40 C34 1_555 1_555
C41 C40 1_555 1_555
C42 C40 1_555 1_555
C43 C36 1_555 1_555
C44 C43 1_555 1_555
C45 C43 1_555 1_555
C46 C38 1_555 1_555
C47 C46 1_555 1_555
C48 C46 1_555 1_555
H1 C2 1_555 1_555
H2 C4 1_555 1_555
H3 C7 1_555 1_555
H4 C7 1_555 1_555
H5 C7 1_555 1_555
H6 C8 1_555 1_555
H7 C8 1_555 1_555
H8 C8 1_555 1_555
H9 C9 1_555 1_555
H10 C9 1_555 1_555
H11 C9 1_555 1_555
H12 C11 1_555 1_555
H13 C13 1_555 1_555
H14 C16 1_555 1_555
H15 C16 1_555 1_555
H16 C16 1_555 1_555
H17 C17 1_555 1_555
H18 C17 1_555 1_555
H19 C17 1_555 1_555
H20 C18 1_555 1_555
H21 C18 1_555 1_555
H22 C18 1_555 1_555
H23 C20 1_555 1_555
H24 C22 1_555 1_555
H25 C25 1_555 1_555
H26 C26 1_555 1_555
H27 C26 1_555 1_555
H28 C26 1_555 1_555
H29 C27 1_555 1_555
H30 C27 1_555 1_555
H31 C27 1_555 1_555
H32 C28 1_555 1_555
H33 C29 1_555 1_555
H34 C29 1_555 1_555
H35 C29 1_555 1_555
H36 C30 1_555 1_555
H37 C30 1_555 1_555
H38 C30 1_555 1_555
H39 C31 1_555 1_555
H40 C32 1_555 1_555
H41 C32 1_555 1_555
H42 C32 1_555 1_555
H43 C33 1_555 1_555
H44 C33 1_555 1_555
H45 C33 1_555 1_555
H46 C35 1_555 1_555
H47 C37 1_555 1_555
H48 C40 1_555 1_555
H49 C41 1_555 1_555
H50 C41 1_555 1_555
H51 C41 1_555 1_555
H52 C42 1_555 1_555
H53 C42 1_555 1_555
H54 C42 1_555 1_555
H55 C43 1_555 1_555
H56 C44 1_555 1_555
H57 C44 1_555 1_555
H58 C44 1_555 1_555
H59 C45 1_555 1_555
H60 C45 1_555 1_555
H61 C45 1_555 1_555
H62 C46 1_555 1_555
H63 C47 1_555 1_555
H64 C47 1_555 1_555
H65 C47 1_555 1_555
H66 C48 1_555 1_555
H67 C48 1_555 1_555
H68 C48 1_555 1_555
C1 C6 1_555 1_555
C10 C15 1_555 1_555
C19 C24 1_555 1_555
C34 C39 1_555 1_555

#END
