
#######################################################################
#
#                 Cambridge Crystallographic Data Centre
#                                CCDC 
#
#######################################################################
#
# If this CIF has been generated from an entry in the Cambridge 
# Structural Database, then it will include bibliographic, chemical, 
# crystal, experimental, refinement or atomic coordinate data resulting 
# from the CCDC's data processing and validation procedures.
#
#######################################################################

data_PEMFEV
_chemical_formula_moiety         'C24 H32 N4'
_chemical_name_systematic        
N^3^-benzyl-5-ethyl-N^3^-phenyl-N^1^,N^1^-bis(propan-2-yl)-1H-pyrazole-1,3-diamine
_symmetry_cell_setting           triclinic
_symmetry_space_group_name_H-M   'P -1'
_symmetry_Int_Tables_number      2
_space_group_name_Hall           '-P 1'
loop_
_symmetry_equiv_pos_site_id
_symmetry_equiv_pos_as_xyz
1 x,y,z
2 -x,-y,-z
_cell_length_a                   9.3128(8)
_cell_length_b                   9.7425(7)
_cell_length_c                   13.0258(10)
_cell_angle_alpha                87.702(6)
_cell_angle_beta                 70.333(7)
_cell_angle_gamma                74.499(7)
_cell_volume                     1070.79
_exptl_crystal_colour            'pale yellow'
_exptl_crystal_description       plate
_cell_formula_units_Z            2
loop_
_atom_site_label
_atom_site_type_symbol
_atom_site_fract_x
_atom_site_fract_y
_atom_site_fract_z
N1 N 0.52985(16) 0.37562(14) 0.25522(10)
N2 N 0.44682(16) 0.28821(14) 0.31808(11)
N3 N 0.52057(16) 0.17238(14) 0.36709(11)
N4 N 0.47124(15) 0.57138(14) 0.14988(11)
C1 C 0.42336(18) 0.46924(16) 0.22282(12)
C2 C 0.27216(19) 0.44412(17) 0.26581(13)
H1 H 0.173(3) 0.500(2) 0.2585(19)
C3 C 0.29195(19) 0.32728(17) 0.32812(13)
C4 C 0.5897(2) 0.22608(18) 0.43954(13)
H2 H 0.665(2) 0.281(2) 0.4002(16)
C5 C 0.6809(2) 0.1012(2) 0.48734(15)
H3 H 0.785(3) 0.041(2) 0.4313(18)
H4 H 0.616(3) 0.039(3) 0.5183(19)
H5 H 0.711(3) 0.141(3) 0.543(2)
C6 C 0.4567(2) 0.3228(2) 0.53093(15)
H6 H 0.379(3) 0.267(3) 0.577(2)
H7 H 0.504(3) 0.365(3) 0.574(2)
H8 H 0.387(3) 0.403(3) 0.5066(19)
C7 C 0.63151(19) 0.05787(16) 0.28384(13)
H9 H 0.666(2) -0.018(2) 0.3260(17)
C8 C 0.7773(2) 0.09573(19) 0.20478(15)
H10 H 0.852(3) 0.010(3) 0.1658(19)
H11 H 0.832(3) 0.141(3) 0.240(2)
H12 H 0.749(3) 0.163(3) 0.150(2)
C9 C 0.5431(2) 0.00583(19) 0.22168(14)
H13 H 0.452(3) -0.022(2) 0.2715(17)
H14 H 0.616(2) -0.074(2) 0.1720(18)
H15 H 0.500(3) 0.085(3) 0.178(2)
C10 C 0.1756(2) 0.25144(19) 0.39685(15)
H16 H 0.211(3) 0.153(3) 0.365(2)
H17 H 0.180(3) 0.246(2) 0.469(2)
C11 C 0.0071(2) 0.3214(2) 0.40018(18)
H18 H -0.029(3) 0.423(3) 0.430(2)
H19 H -0.068(3) 0.269(3) 0.448(2)
H20 H -0.003(3) 0.329(3) 0.328(2)
C12 C 0.62929(18) 0.52979(16) 0.06648(12)
H21 H 0.667(2) 0.429(2) 0.0653(16)
H22 H 0.619(2) 0.553(2) -0.0103(18)
C13 C 0.74719(18) 0.59940(16) 0.08289(13)
C14 C 0.7723(2) 0.59534(18) 0.18314(13)
H23 H 0.712(2) 0.549(2) 0.2432(18)
C15 C 0.8856(2) 0.65378(19) 0.19606(14)
H24 H 0.903(3) 0.652(3) 0.264(2)
C16 C 0.9771(2) 0.71611(18) 0.10968(15)
H25 H 1.056(3) 0.759(2) 0.1168(18)
C17 C 0.9522(2) 0.72068(18) 0.01008(15)
H26 H 1.017(3) 0.762(2) -0.0492(19)
C18 C 0.83745(19) 0.66348(18) -0.00294(13)
H27 H 0.819(3) 0.664(2) -0.0733(19)
C19 C 0.37555(18) 0.71101(17) 0.15939(13)
C20 C 0.4016(2) 0.80041(18) 0.07156(13)
H28 H 0.491(3) 0.761(2) 0.0050(19)
C21 C 0.3067(2) 0.93949(18) 0.08190(14)
H29 H 0.326(3) 1.002(3) 0.022(2)
C22 C 0.1846(2) 0.99337(18) 0.17816(15)
H30 H 0.117(3) 1.090(2) 0.1882(18)
C23 C 0.1583(2) 0.90558(18) 0.26564(14)
H31 H 0.070(3) 0.943(3) 0.335(2)
C24 C 0.25218(19) 0.76658(17) 0.25692(13)
H32 H 0.232(2) 0.708(2) 0.3187(18)
loop_
_geom_bond_atom_site_label_1
_geom_bond_atom_site_label_2
_geom_bond_site_symmetry_1
_geom_bond_site_symmetry_2
N1 N2 1_555 1_555
N2 N3 1_555 1_555
N3 C4 1_555 1_555
N4 C1 1_555 1_555
C1 N1 1_555 1_555
C2 C1 1_555 1_555
H1 C2 1_555 1_555
C3 N2 1_555 1_555
C4 H2 1_555 1_555
C5 C4 1_555 1_555
H3 C5 1_555 1_555
H4 C5 1_555 1_555
H5 C5 1_555 1_555
C6 C4 1_555 1_555
H6 C6 1_555 1_555
H7 C6 1_555 1_555
H8 C6 1_555 1_555
C7 N3 1_555 1_555
H9 C7 1_555 1_555
C8 C7 1_555 1_555
H10 C8 1_555 1_555
H11 C8 1_555 1_555
H12 C8 1_555 1_555
C9 C7 1_555 1_555
H13 C9 1_555 1_555
H14 C9 1_555 1_555
H15 C9 1_555 1_555
C10 C3 1_555 1_555
H16 C10 1_555 1_555
H17 C10 1_555 1_555
C11 C10 1_555 1_555
H18 C11 1_555 1_555
H19 C11 1_555 1_555
H20 C11 1_555 1_555
C12 N4 1_555 1_555
H21 C12 1_555 1_555
H22 C12 1_555 1_555
C13 C12 1_555 1_555
C14 C13 1_555 1_555
H23 C14 1_555 1_555
C15 C14 1_555 1_555
H24 C15 1_555 1_555
C16 C15 1_555 1_555
H25 C16 1_555 1_555
C17 C16 1_555 1_555
H26 C17 1_555 1_555
C18 C13 1_555 1_555
H27 C18 1_555 1_555
C19 N4 1_555 1_555
C20 C19 1_555 1_555
H28 C20 1_555 1_555
C21 C20 1_555 1_555
H29 C21 1_555 1_555
C22 C21 1_555 1_555
H30 C22 1_555 1_555
C23 C22 1_555 1_555
H31 C23 1_555 1_555
C24 C19 1_555 1_555
H32 C24 1_555 1_555
C2 C3 1_555 1_555
C17 C18 1_555 1_555
C23 C24 1_555 1_555

#END
