
#######################################################################
#
#                 Cambridge Crystallographic Data Centre
#                                CCDC 
#
#######################################################################
#
# If this CIF has been generated from an entry in the Cambridge 
# Structural Database, then it will include bibliographic, chemical, 
# crystal, experimental, refinement or atomic coordinate data resulting 
# from the CCDC's data processing and validation procedures.
#
#######################################################################

data_PEMGEU
_chemical_formula_moiety         'C21 H14 Cl2 N4 O3,H2 O1'
_chemical_name_systematic        
'2-(1H-1,2,3-Benzotriazol-1-ylmethyl)-1-(2,4-dichlorobenzoyl)ethyl nicotinate monohydrate'
_symmetry_cell_setting           monoclinic
_symmetry_space_group_name_H-M   'P 21/c'
_symmetry_Int_Tables_number      14
_space_group_name_Hall           '-P 2ybc'
loop_
_symmetry_equiv_pos_site_id
_symmetry_equiv_pos_as_xyz
1 x,y,z
2 -x,1/2+y,1/2-z
3 -x,-y,-z
4 x,1/2-y,1/2+z
_cell_length_a                   11.211(3)
_cell_length_b                   13.035(3)
_cell_length_c                   14.231(3)
_cell_angle_alpha                90
_cell_angle_beta                 92.910(3)
_cell_angle_gamma                90
_cell_volume                     2076.97
_exptl_crystal_colour            yellow
_exptl_crystal_description       block
_cell_formula_units_Z            4
_exptl_crystal_recrystallization_method 'ethyl acetate'
loop_
_atom_site_label
_atom_site_type_symbol
_atom_site_fract_x
_atom_site_fract_y
_atom_site_fract_z
Cl1 Cl 0.82183(5) 0.75717(4) 0.17513(4)
Cl2 Cl 1.05495(7) 0.63418(5) 0.48988(5)
O1 O 0.87270(13) 1.18055(12) 0.32936(11)
O2 O 0.69208(11) 1.13075(9) 0.27236(9)
O3 O 0.82570(15) 0.98937(12) 0.19369(10)
N1 N 0.53569(14) 0.95093(11) 0.24340(11)
N2 N 0.54917(17) 0.85259(12) 0.21547(14)
N3 N 0.48738(17) 0.83960(13) 0.13625(14)
N4 N 0.65894(16) 1.37829(13) 0.09611(12)
C1 C 0.67806(17) 1.29523(15) 0.14968(13)
H3 H 0.6311 1.2375 0.1372
C2 C 0.7277(2) 1.46032(16) 0.11610(15)
H4 H 0.7143 1.5196 0.0807
C3 C 0.8163(2) 1.46171(16) 0.18562(16)
H5 H 0.8630 1.5200 0.1959
C4 C 0.83535(19) 1.37551(15) 0.24023(15)
H6 H 0.8951 1.3745 0.2880
C5 C 0.76398(16) 1.29053(14) 0.22279(13)
C6 C 0.78405(17) 1.19699(14) 0.28039(13)
C7 C 0.71153(17) 1.03654(13) 0.32325(13)
H7 H 0.7448 1.0528 0.3865
C8 C 0.59182(18) 0.98464(15) 0.33208(13)
H8 H 0.6026 0.9257 0.3732
H9 H 0.5385 1.0320 0.3616
C9 C 0.43159(17) 0.92995(16) 0.11180(14)
C10 C 0.3549(2) 0.9563(2) 0.03470(16)
H10 H 0.3333 0.9086 -0.0116
C11 C 0.3134(2) 1.0542(2) 0.03014(17)
H11 H 0.2621 1.0736 -0.0202
C12 C 0.34598(19) 1.12661(17) 0.09950(17)
H12 H 0.3163 1.1930 0.0934
C13 C 0.41995(17) 1.10308(15) 0.17598(14)
H13 H 0.4407 1.1513 0.2221
C14 C 0.46230(15) 1.00253(14) 0.18055(13)
C15 C 0.80150(17) 0.97076(14) 0.27346(12)
C16 C 0.85664(16) 0.88333(13) 0.32773(12)
C17 C 0.87577(17) 0.78675(14) 0.28813(12)
C18 C 0.93554(18) 0.71077(15) 0.33840(14)
H14 H 0.9468 0.6467 0.3115
C19 C 0.97852(18) 0.73046(15) 0.42891(14)
C20 C 0.96192(18) 0.82406(16) 0.47081(14)
H15 H 0.9915 0.8365 0.5320
C21 C 0.90042(17) 0.89910(14) 0.42005(13)
H16 H 0.8878 0.9622 0.4483
O4 O 0.44877(17) 1.15223(13) 0.46861(12)
H1 H 0.5146(14) 1.145(2) 0.4995(16)
H2 H 0.462(3) 1.2052(14) 0.4360(17)
loop_
_geom_bond_atom_site_label_1
_geom_bond_atom_site_label_2
_geom_bond_site_symmetry_1
_geom_bond_site_symmetry_2
Cl1 C17 1_555 1_555
Cl2 C19 1_555 1_555
O1 C6 1_555 1_555
O2 C6 1_555 1_555
O3 C15 1_555 1_555
O4 H1 1_555 1_555
H2 O4 1_555 1_555
N1 N2 1_555 1_555
N2 N3 1_555 1_555
N3 C9 1_555 1_555
N4 C1 1_555 1_555
C1 H3 1_555 1_555
C2 N4 1_555 1_555
H4 C2 1_555 1_555
C3 C2 1_555 1_555
H5 C3 1_555 1_555
C4 C3 1_555 1_555
H6 C4 1_555 1_555
C5 C1 1_555 1_555
C6 C5 1_555 1_555
C7 O2 1_555 1_555
H7 C7 1_555 1_555
C8 N1 1_555 1_555
H8 C8 1_555 1_555
H9 C8 1_555 1_555
C9 C10 1_555 1_555
C10 H10 1_555 1_555
C11 C10 1_555 1_555
H11 C11 1_555 1_555
C12 C11 1_555 1_555
H12 C12 1_555 1_555
C13 C12 1_555 1_555
H13 C13 1_555 1_555
C14 N1 1_555 1_555
C15 C7 1_555 1_555
C16 C15 1_555 1_555
C17 C16 1_555 1_555
C18 C17 1_555 1_555
H14 C18 1_555 1_555
C19 C18 1_555 1_555
C20 C19 1_555 1_555
H15 C20 1_555 1_555
C21 C16 1_555 1_555
H16 C21 1_555 1_555
C4 C5 1_555 1_555
C7 C8 1_555 1_555
C9 C14 1_555 1_555
C13 C14 1_555 1_555
C20 C21 1_555 1_555

#END
