
#######################################################################
#
#                 Cambridge Crystallographic Data Centre
#                                CCDC 
#
#######################################################################
#
# If this CIF has been generated from an entry in the Cambridge 
# Structural Database, then it will include bibliographic, chemical, 
# crystal, experimental, refinement or atomic coordinate data resulting 
# from the CCDC's data processing and validation procedures.
#
#######################################################################

data_PEMHUL
_chemical_formula_moiety         'C16 H13 N1 O2'
_chemical_name_systematic        N-(4-methylbenzyl)phthalimide
_symmetry_cell_setting           triclinic
_symmetry_space_group_name_H-M   'P -1'
_symmetry_Int_Tables_number      2
_space_group_name_Hall           '-P 1'
loop_
_symmetry_equiv_pos_site_id
_symmetry_equiv_pos_as_xyz
1 x,y,z
2 -x,-y,-z
_cell_length_a                   7.107(2)
_cell_length_b                   8.521(3)
_cell_length_c                   11.535(4)
_cell_angle_alpha                102.383(5)
_cell_angle_beta                 100.235(6)
_cell_angle_gamma                99.499(6)
_cell_volume                     656.272
_exptl_crystal_colour            colorless
_exptl_crystal_description       rod
_chemical_melting_point          '393.5-394 K'
_cell_formula_units_Z            2
_exptl_crystal_recrystallization_method ethanol
loop_
_atom_site_label
_atom_site_type_symbol
_atom_site_fract_x
_atom_site_fract_y
_atom_site_fract_z
O1 O 0.4513(3) 1.1266(2) 0.30478(17)
O2 O 0.2237(2) 0.65957(19) -0.00300(15)
N1 N 0.3442(2) 0.8694(2) 0.17158(16)
C1 C 0.3793(3) 1.0409(3) 0.2030(2)
C2 C 0.3130(3) 1.0891(2) 0.0886(2)
C3 C 0.3135(3) 1.2426(3) 0.0674(3)
H1 H 0.3606 1.3376 0.1302
C4 C 0.2416(3) 1.2506(3) -0.0507(3)
H2 H 0.2406 1.3526 -0.0673
C5 C 0.1715(3) 1.1096(3) -0.1438(2)
H3 H 0.1236 1.1182 -0.2221
C6 C 0.1713(3) 0.9554(3) -0.1228(2)
H4 H 0.1246 0.8604 -0.1856
C7 C 0.2434(3) 0.9480(2) -0.00452(19)
C8 C 0.2644(3) 0.8044(3) 0.0475(2)
C9 C 0.3883(3) 0.7702(3) 0.2586(2)
H5 H 0.5006 0.8318 0.3224
H6 H 0.4227 0.6709 0.2170
C10 C 0.2177(3) 0.7236(3) 0.3156(2)
C11 C 0.0696(3) 0.5879(3) 0.2573(2)
H7 H 0.0770 0.5222 0.1833
C12 C -0.0897(3) 0.5486(3) 0.3076(2)
H8 H -0.1880 0.4572 0.2661
C13 C -0.1062(4) 0.6411(3) 0.4172(2)
C14 C 0.0425(5) 0.7763(3) 0.4747(2)
H9 H 0.0353 0.8414 0.5489
C15 C 0.2027(4) 0.8184(3) 0.4253(2)
H10 H 0.2999 0.9107 0.4664
C16 C -0.2792(4) 0.5954(4) 0.4723(3)
H11 H -0.3935 0.5457 0.4085
H12 H -0.3012 0.6925 0.5233
H13 H -0.2524 0.5190 0.5201
loop_
_geom_bond_atom_site_label_1
_geom_bond_atom_site_label_2
_geom_bond_site_symmetry_1
_geom_bond_site_symmetry_2
O1 C1 1_555 1_555
O2 C8 1_555 1_555
N1 C1 1_555 1_555
C1 C2 1_555 1_555
C2 C3 1_555 1_555
C3 H1 1_555 1_555
C4 C3 1_555 1_555
H2 C4 1_555 1_555
C5 C4 1_555 1_555
H3 C5 1_555 1_555
C6 C5 1_555 1_555
H4 C6 1_555 1_555
C7 C2 1_555 1_555
C8 N1 1_555 1_555
C9 N1 1_555 1_555
H5 C9 1_555 1_555
H6 C9 1_555 1_555
C10 C9 1_555 1_555
C11 C10 1_555 1_555
H7 C11 1_555 1_555
C12 C11 1_555 1_555
H8 C12 1_555 1_555
C13 C12 1_555 1_555
C14 C13 1_555 1_555
H9 C14 1_555 1_555
C15 C10 1_555 1_555
H10 C15 1_555 1_555
C16 C13 1_555 1_555
H11 C16 1_555 1_555
H12 C16 1_555 1_555
H13 C16 1_555 1_555
C6 C7 1_555 1_555
C7 C8 1_555 1_555
C14 C15 1_555 1_555

#END
