
#######################################################################
#
#                 Cambridge Crystallographic Data Centre
#                                CCDC 
#
#######################################################################
#
# If this CIF has been generated from an entry in the Cambridge 
# Structural Database, then it will include bibliographic, chemical, 
# crystal, experimental, refinement or atomic coordinate data resulting 
# from the CCDC's data processing and validation procedures.
#
#######################################################################

data_PEMLEZ
_chemical_formula_moiety         'C25 H32 N2 O3'
_chemical_name_systematic        
'(1R,2S)-Benzyl N-(3-(diisopropylaminocarbonyl)-2-phenylprop-3-enyl)carbamate'
_symmetry_cell_setting           triclinic
_symmetry_space_group_name_H-M   'P -1'
_symmetry_Int_Tables_number      2
_space_group_name_Hall           '-P 1'
loop_
_symmetry_equiv_pos_site_id
_symmetry_equiv_pos_as_xyz
1 x,y,z
2 -x,-y,-z
_cell_length_a                   10.3807(12)
_cell_length_b                   11.2172(14)
_cell_length_c                   11.7700(14)
_cell_angle_alpha                112.085(7)
_cell_angle_beta                 108.206(7)
_cell_angle_gamma                93.159(7)
_cell_volume                     1182.98
_exptl_crystal_colour            colorless
_exptl_crystal_description       block
_cell_formula_units_Z            2
loop_
_atom_site_label
_atom_site_type_symbol
_atom_site_fract_x
_atom_site_fract_y
_atom_site_fract_z
O1 O 0.37086(11) 0.10901(13) 0.28031(11)
O2 O 0.15650(13) -0.00555(18) 0.14321(13)
O3 O 0.40339(11) -0.17134(12) -0.11876(13)
N1 N 0.32119(15) 0.03139(14) 0.06589(13)
H1 H 0.402(2) 0.0651(19) 0.0871(19)
N2 N 0.19721(14) -0.28915(13) -0.16464(14)
C1 C 0.4781(2) 0.1753(2) 0.6168(2)
H2 H 0.4370 0.0940 0.6058
C2 C 0.5776(3) 0.2573(3) 0.7360(2)
H3 H 0.6038 0.2309 0.8047
C3 C 0.6372(3) 0.3764(3) 0.7530(2)
H4 H 0.7035 0.4324 0.8336
C4 C 0.6000(2) 0.4136(2) 0.6521(3)
H5 H 0.6413 0.4951 0.6636
C5 C 0.5016(2) 0.3316(2) 0.5330(2)
H6 H 0.4776 0.3580 0.4643
C6 C 0.43863(17) 0.21225(19) 0.51382(17)
C7 C 0.3253(2) 0.1249(2) 0.38748(18)
H7 H 0.3022 0.0401 0.3878
H8 H 0.2433 0.1634 0.3776
C8 C 0.27257(17) 0.04040(18) 0.15967(17)
C9 C 0.23741(16) -0.04363(16) -0.07198(15)
H9 H 0.1400 -0.0599 -0.0817
C10 C 0.28382(15) -0.17476(16) -0.12062(15)
C11 C 0.0584(2) -0.3009(2) -0.1557(3)
H10 H 0.0429 -0.2118 -0.1149
C12 C 0.2412(2) -0.41378(18) -0.2243(2)
H11 H 0.1630 -0.4842 -0.2518
C13 C 0.0486(3) -0.3696(3) -0.0692(3)
H12 H 0.0670 -0.4563 -0.1047
H13 H -0.0426 -0.3753 -0.0658
H14 H 0.1152 -0.3208 0.0179
C14 C -0.0530(3) -0.3679(3) -0.2929(4)
H15 H -0.0373 -0.3277 -0.3477
H16 H -0.1424 -0.3588 -0.2869
H17 H -0.0495 -0.4593 -0.3304
C15 C 0.2669(4) -0.4265(3) -0.3477(3)
H18 H 0.1896 -0.4078 -0.4043
H19 H 0.2782 -0.5142 -0.3925
H20 H 0.3492 -0.3655 -0.3245
C16 C 0.3626(3) -0.4370(3) -0.1276(3)
H21 H 0.4444 -0.3754 -0.1044
H22 H 0.3769 -0.5247 -0.1675
H23 H 0.3431 -0.4257 -0.0500
C17 C 0.25434(18) 0.03131(17) -0.15411(17)
H24 H 0.3532 0.0539 -0.1368
C18 C 0.2006(3) 0.1577(2) -0.1117(2)
H25 H 0.1140 0.1504 -0.1046
C19 C 0.2574(4) 0.2681(3) -0.0858(4)
H26 H 0.3442 0.2815 -0.0912
H27 H 0.2139 0.3387 -0.0606
C20 C 0.03861(19) -0.0778(2) -0.35839(19)
H28 H -0.0139 -0.0437 -0.3069
C21 C -0.0267(2) -0.1527(2) -0.4914(2)
H29 H -0.1226 -0.1683 -0.5288
C22 C 0.0484(2) -0.2041(2) -0.5687(2)
H30 H 0.0042 -0.2545 -0.6584
C23 C 0.1900(2) -0.1803(2) -0.5125(2)
H31 H 0.2419 -0.2145 -0.5646
C24 C 0.2553(2) -0.1065(2) -0.38003(19)
H32 H 0.3512 -0.0922 -0.3432
C25 C 0.18124(17) -0.05287(17) -0.30049(16)
loop_
_geom_bond_atom_site_label_1
_geom_bond_atom_site_label_2
_geom_bond_site_symmetry_1
_geom_bond_site_symmetry_2
O1 C7 1_555 1_555
O2 C8 1_555 1_555
O3 C10 1_555 1_555
N1 H1 1_555 1_555
N2 C10 1_555 1_555
C1 H2 1_555 1_555
C2 C1 1_555 1_555
H3 C2 1_555 1_555
C3 C2 1_555 1_555
H4 C3 1_555 1_555
C4 C3 1_555 1_555
H5 C4 1_555 1_555
C5 C4 1_555 1_555
H6 C5 1_555 1_555
C6 C1 1_555 1_555
C7 C6 1_555 1_555
H7 C7 1_555 1_555
H8 C7 1_555 1_555
C8 O1 1_555 1_555
C9 N1 1_555 1_555
H9 C9 1_555 1_555
C10 C9 1_555 1_555
C11 N2 1_555 1_555
H10 C11 1_555 1_555
C12 N2 1_555 1_555
H11 C12 1_555 1_555
C13 C11 1_555 1_555
H12 C13 1_555 1_555
H13 C13 1_555 1_555
H14 C13 1_555 1_555
C14 C11 1_555 1_555
H15 C14 1_555 1_555
H16 C14 1_555 1_555
H17 C14 1_555 1_555
C15 C12 1_555 1_555
H18 C15 1_555 1_555
H19 C15 1_555 1_555
H20 C15 1_555 1_555
C16 C12 1_555 1_555
H21 C16 1_555 1_555
H22 C16 1_555 1_555
H23 C16 1_555 1_555
C17 C9 1_555 1_555
H24 C17 1_555 1_555
C18 C17 1_555 1_555
H25 C18 1_555 1_555
C19 C18 1_555 1_555
H26 C19 1_555 1_555
H27 C19 1_555 1_555
C20 H28 1_555 1_555
C21 C20 1_555 1_555
H29 C21 1_555 1_555
C22 C21 1_555 1_555
H30 C22 1_555 1_555
C23 C22 1_555 1_555
H31 C23 1_555 1_555
C24 C23 1_555 1_555
H32 C24 1_555 1_555
C25 C17 1_555 1_555
N1 C8 1_555 1_555
C5 C6 1_555 1_555
C20 C25 1_555 1_555
C24 C25 1_555 1_555

#END
