
#######################################################################
#
#                 Cambridge Crystallographic Data Centre
#                                CCDC 
#
#######################################################################
#
# If this CIF has been generated from an entry in the Cambridge 
# Structural Database, then it will include bibliographic, chemical, 
# crystal, experimental, refinement or atomic coordinate data resulting 
# from the CCDC's data processing and validation procedures.
#
#######################################################################

data_PEMLUP
_chemical_formula_moiety         'C25 H21 N3 O4'
_chemical_name_systematic        
5,5'-Dimethoxy-3,3'-(3-nitrophenylmethanediyl)bis(1H-indole)
_symmetry_cell_setting           monoclinic
_symmetry_space_group_name_H-M   'P 21/c'
_symmetry_Int_Tables_number      14
_space_group_name_Hall           '-P 2ybc'
loop_
_symmetry_equiv_pos_site_id
_symmetry_equiv_pos_as_xyz
1 x,y,z
2 -x,1/2+y,1/2-z
3 -x,-y,-z
4 x,1/2-y,1/2+z
_cell_length_a                   10.631(2)
_cell_length_b                   9.3570(19)
_cell_length_c                   21.072(4)
_cell_angle_alpha                90
_cell_angle_beta                 92.09(3)
_cell_angle_gamma                90
_cell_volume                     2094.73
_exptl_crystal_colour            yellow
_exptl_crystal_description       block
_chemical_melting_point          '452-453 K'
_cell_formula_units_Z            4
_exptl_crystal_recrystallization_method methanol
loop_
_atom_site_label
_atom_site_type_symbol
_atom_site_fract_x
_atom_site_fract_y
_atom_site_fract_z
O1 O 0.2042(3) 0.9800(3) 0.19260(11)
N1 N -0.0634(3) 1.0416(3) 0.40810(12)
H1 H -0.1350 1.0115 0.4203
C1 C 0.2042(4) 0.8490(4) 0.15863(18)
H2 H 0.2587 0.8570 0.1234
H3 H 0.1203 0.8277 0.1432
H4 H 0.2338 0.7737 0.1863
O2 O 0.4339(2) 0.7603(3) 0.55390(11)
N2 N 0.2876(3) 1.3103(3) 0.60197(13)
H5 H 0.2873 1.3616 0.6358
C2 C 0.1302(3) 0.9881(3) 0.24524(14)
C3 C 0.0150(3) 0.9181(4) 0.24752(16)
H6 H -0.0135 0.8629 0.2132
N3 N 0.4036(4) 1.6441(4) 0.30140(15)
O3 O 0.4973(3) 1.5730(4) 0.29508(15)
C4 C -0.0566(3) 0.9299(4) 0.29995(16)
H7 H -0.1336 0.8831 0.3018
O4 O 0.3883(3) 1.7611(3) 0.27637(17)
C5 C -0.0118(3) 1.0132(3) 0.35031(15)
C6 C 0.0193(3) 1.1261(3) 0.44266(15)
H8 H 0.0065 1.1584 0.4837
C7 C 0.1220(3) 1.1560(3) 0.40896(14)
C8 C 0.1038(3) 1.0842(3) 0.34880(13)
C9 C 0.1761(3) 1.0711(3) 0.29492(14)
H9 H 0.2533 1.1174 0.2927
C10 C 0.4043(4) 0.7004(4) 0.49276(18)
H10 H 0.4356 0.6043 0.4912
H11 H 0.4428 0.7568 0.4607
H12 H 0.3147 0.6999 0.4853
C11 C 0.3952(3) 0.8993(4) 0.56382(15)
C12 C 0.4150(3) 0.9467(4) 0.62692(16)
H13 H 0.4512 0.8848 0.6569
C13 C 0.3822(3) 1.0812(4) 0.64500(15)
H14 H 0.3948 1.1117 0.6868
C14 C 0.3292(3) 1.1711(3) 0.59877(14)
C15 C 0.2470(3) 1.3538(4) 0.54299(15)
H15 H 0.2156 1.4443 0.5334
C16 C 0.2587(3) 1.2462(3) 0.49985(14)
C17 C 0.3103(3) 1.1270(3) 0.53519(13)
C18 C 0.3434(3) 0.9874(3) 0.51750(15)
H16 H 0.3308 0.9557 0.4759
C19 C 0.2342(3) 1.2467(3) 0.42912(14)
H17 H 0.3080 1.2034 0.4102
C20 C 0.2218(3) 1.3978(3) 0.40196(14)
C21 C 0.1181(3) 1.4820(4) 0.41223(17)
H18 H 0.0545 1.4461 0.4368
C22 C 0.1056(4) 1.6185(4) 0.38711(19)
H19 H 0.0344 1.6727 0.3947
C23 C 0.1997(4) 1.6733(4) 0.35084(17)
H20 H 0.1933 1.7646 0.3336
C24 C 0.3029(3) 1.5895(4) 0.34095(16)
C25 C 0.3166(3) 1.4527(3) 0.36583(15)
H21 H 0.3881 1.3990 0.3583
loop_
_geom_bond_atom_site_label_1
_geom_bond_atom_site_label_2
_geom_bond_site_symmetry_1
_geom_bond_site_symmetry_2
O1 C1 1_555 1_555
N1 H1 1_555 1_555
C1 H2 1_555 1_555
H3 C1 1_555 1_555
H4 C1 1_555 1_555
O2 C10 1_555 1_555
N2 H5 1_555 1_555
C2 O1 1_555 1_555
C3 C2 1_555 1_555
H6 C3 1_555 1_555
N3 O3 1_555 1_555
C4 C3 1_555 1_555
H7 C4 1_555 1_555
O4 N3 1_555 1_555
C5 N1 1_555 1_555
C6 N1 1_555 1_555
H8 C6 1_555 1_555
C7 C6 1_555 1_555
C8 C5 1_555 1_555
C9 C2 1_555 1_555
H9 C9 1_555 1_555
C10 H10 1_555 1_555
H11 C10 1_555 1_555
H12 C10 1_555 1_555
C11 O2 1_555 1_555
C12 C11 1_555 1_555
H13 C12 1_555 1_555
C13 C12 1_555 1_555
H14 C13 1_555 1_555
C14 N2 1_555 1_555
C15 N2 1_555 1_555
H15 C15 1_555 1_555
C16 C15 1_555 1_555
C17 C14 1_555 1_555
C18 C11 1_555 1_555
H16 C18 1_555 1_555
C19 C7 1_555 1_555
H17 C19 1_555 1_555
C20 C19 1_555 1_555
C21 C20 1_555 1_555
H18 C21 1_555 1_555
C22 C21 1_555 1_555
H19 C22 1_555 1_555
C23 C22 1_555 1_555
H20 C23 1_555 1_555
C24 N3 1_555 1_555
C25 C20 1_555 1_555
H21 C25 1_555 1_555
C4 C5 1_555 1_555
C7 C8 1_555 1_555
C8 C9 1_555 1_555
C13 C14 1_555 1_555
C16 C17 1_555 1_555
C16 C19 1_555 1_555
C17 C18 1_555 1_555
C23 C24 1_555 1_555
C24 C25 1_555 1_555

#END
