
#######################################################################
#
#                 Cambridge Crystallographic Data Centre
#                                CCDC 
#
#######################################################################
#
# If this CIF has been generated from an entry in the Cambridge 
# Structural Database, then it will include bibliographic, chemical, 
# crystal, experimental, refinement or atomic coordinate data resulting 
# from the CCDC's data processing and validation procedures.
#
#######################################################################

data_PEMMOK
_chemical_formula_moiety         'C22 H18 F1 N1 O3'
_chemical_name_systematic        
'Ethyl 2-amino-4-(4-fluorophenyl)-4H-benzo(h)chromene-3-carboxylate'
_symmetry_cell_setting           monoclinic
_symmetry_space_group_name_H-M   'P 21/c'
_symmetry_Int_Tables_number      14
_space_group_name_Hall           '-P 2ybc'
loop_
_symmetry_equiv_pos_site_id
_symmetry_equiv_pos_as_xyz
1 x,y,z
2 -x,1/2+y,1/2-z
3 -x,-y,-z
4 x,1/2-y,1/2+z
_cell_length_a                   12.634(3)
_cell_length_b                   16.037(3)
_cell_length_c                   8.9890(18)
_cell_angle_alpha                90
_cell_angle_beta                 98.77(3)
_cell_angle_gamma                90
_cell_volume                     1799.98
_exptl_crystal_colour            'light brown'
_exptl_crystal_description       block
_chemical_melting_point          '436-438 K'
_cell_formula_units_Z            4
_exptl_crystal_recrystallization_method ethanol
_exptl_crystal_preparation       'irradiated product'
loop_
_atom_site_label
_atom_site_type_symbol
_atom_site_fract_x
_atom_site_fract_y
_atom_site_fract_z
F1 F 0.20313(16) 1.28307(12) 0.3511(2)
O1 O 0.13381(14) 0.92121(12) 0.54825(18)
O2 O 0.01637(14) 0.83381(12) 0.41532(19)
O3 O 0.19701(13) 0.85127(12) 0.06117(18)
N1 N 0.04402(18) 0.80907(16) 0.1266(3)
H1 H 0.0313 0.7896 0.0365
H2 H -0.0025 0.8029 0.1864
C1 C 0.1104(3) 0.9912(2) 0.7735(3)
H3 H 0.0675 0.9951 0.8527
H4 H 0.1098 1.0438 0.7223
H5 H 0.1826 0.9771 0.8156
C2 C 0.0657(2) 0.9251(2) 0.6644(3)
H6 H 0.0652 0.8717 0.7150
H7 H -0.0072 0.9388 0.6204
C3 C 0.0978(2) 0.87601(17) 0.4246(3)
C4 C 0.16660(19) 0.88480(16) 0.3109(3)
C5 C 0.13549(19) 0.84867(16) 0.1735(3)
C6 C 0.30286(19) 0.87672(16) 0.0981(3)
C7 C 0.3675(2) 0.86008(16) -0.0161(3)
C8 C 0.3265(3) 0.82576(17) -0.1574(3)
H8 H 0.2545 0.8114 -0.1796
C9 C 0.3935(3) 0.81357(19) -0.2623(4)
H9 H 0.3661 0.7926 -0.3568
C10 C 0.5017(3) 0.8322(2) -0.2285(5)
H10 H 0.5464 0.8226 -0.2999
C11 C 0.5430(3) 0.8643(2) -0.0922(5)
H11 H 0.6159 0.8758 -0.0711
C12 C 0.4774(2) 0.88044(19) 0.0179(4)
C13 C 0.5174(2) 0.9161(2) 0.1593(4)
H12 H 0.5900 0.9284 0.1827
C14 C 0.4512(2) 0.9326(2) 0.2609(3)
H13 H 0.4791 0.9570 0.3524
C15 C 0.34175(19) 0.91355(17) 0.2312(3)
C16 C 0.26836(18) 0.93544(16) 0.3437(3)
H14 H 0.3047 0.9193 0.4437
C17 C 0.24897(18) 1.02926(16) 0.3457(3)
C18 C 0.2834(2) 1.07582(19) 0.4740(3)
H15 H 0.3175 1.0489 0.5598
C19 C 0.2684(2) 1.1613(2) 0.4776(3)
H16 H 0.2918 1.1920 0.5641
C20 C 0.2183(2) 1.19882(19) 0.3499(3)
C21 C 0.1817(2) 1.15617(19) 0.2206(3)
H17 H 0.1468 1.1837 0.1360
C22 C 0.1980(2) 1.07103(18) 0.2195(3)
H18 H 0.1743 1.0410 0.1322
loop_
_geom_bond_atom_site_label_1
_geom_bond_atom_site_label_2
_geom_bond_site_symmetry_1
_geom_bond_site_symmetry_2
F1 C20 1_555 1_555
O1 C2 1_555 1_555
O2 C3 1_555 1_555
O3 C5 1_555 1_555
N1 H1 1_555 1_555
H2 N1 1_555 1_555
C1 H3 1_555 1_555
H4 C1 1_555 1_555
H5 C1 1_555 1_555
C2 C1 1_555 1_555
H6 C2 1_555 1_555
H7 C2 1_555 1_555
C3 O1 1_555 1_555
C4 C3 1_555 1_555
C5 N1 1_555 1_555
C6 O3 1_555 1_555
C7 C6 1_555 1_555
C8 C7 1_555 1_555
H8 C8 1_555 1_555
C9 C8 1_555 1_555
H9 C9 1_555 1_555
C10 C9 1_555 1_555
H10 C10 1_555 1_555
C11 C10 1_555 1_555
H11 C11 1_555 1_555
C12 C7 1_555 1_555
C13 C12 1_555 1_555
H12 C13 1_555 1_555
C14 C13 1_555 1_555
H13 C14 1_555 1_555
C15 C6 1_555 1_555
C16 C4 1_555 1_555
H14 C16 1_555 1_555
C17 C16 1_555 1_555
C18 C17 1_555 1_555
H15 C18 1_555 1_555
C19 C18 1_555 1_555
H16 C19 1_555 1_555
C20 C19 1_555 1_555
C21 C20 1_555 1_555
H17 C21 1_555 1_555
C22 C17 1_555 1_555
H18 C22 1_555 1_555
C4 C5 1_555 1_555
C11 C12 1_555 1_555
C14 C15 1_555 1_555
C15 C16 1_555 1_555
C21 C22 1_555 1_555

#END
