
#######################################################################
#
#                 Cambridge Crystallographic Data Centre
#                                CCDC 
#
#######################################################################
#
# If this CIF has been generated from an entry in the Cambridge 
# Structural Database, then it will include bibliographic, chemical, 
# crystal, experimental, refinement or atomic coordinate data resulting 
# from the CCDC's data processing and validation procedures.
#
#######################################################################

data_PEMTAF
_chemical_compound_source        'the fungus Penicillium chrysogenum MT-12'
_chemical_name_common            'Chrysogenolide A'
_chemical_formula_moiety         'C25 H26 O9'
_chemical_name_systematic        
3,6a,12,12,14a-pentamethyl-4a,6a,7,7a,12,14,14a,14c-octahydro-1H,3H,6H,10H-spiro[3a,14-epoxy-2,4,5,11-tetraoxabenzo[5,6]cyclohepta[1,2-g]dicyclopenta[cd,i]indene-8,2'-oxirane]-1,6,10-trione
_symmetry_cell_setting           orthorhombic
_symmetry_space_group_name_H-M   'P 21 21 21'
_symmetry_Int_Tables_number      19
_space_group_name_Hall           'P 2ac 2ab'
loop_
_symmetry_equiv_pos_site_id
_symmetry_equiv_pos_as_xyz
1 x,y,z
2 1/2-x,-y,1/2+z
3 1/2+x,1/2-y,-z
4 -x,1/2+y,1/2-z
_cell_length_a                   9.8627(5)
_cell_length_b                   11.3985(6)
_cell_length_c                   19.6966(8)
_cell_angle_alpha                90
_cell_angle_beta                 90
_cell_angle_gamma                90
_cell_volume                     2214.29
_exptl_crystal_colour            colorless
_exptl_crystal_description       plate
_chemical_melting_point          '488-490 K'
_cell_formula_units_Z            4
_chemical_properties_physical    ', Heat-sensitive,Oxygen-sensitive'
_exptl_crystal_recrystallization_method methanol
loop_
_atom_site_label
_atom_site_type_symbol
_atom_site_fract_x
_atom_site_fract_y
_atom_site_fract_z
O1 O -0.38414(18) -0.73843(15) -0.13309(8)
O2 O -0.23199(18) -1.09550(15) -0.10678(9)
O3 O -0.50529(17) -0.83359(15) -0.21601(8)
O4 O -0.43907(17) -1.02361(16) -0.08972(8)
O5 O -0.62267(19) -1.04756(15) -0.47789(8)
O6 O -0.0846(2) -0.64537(17) -0.28733(10)
O7 O -0.14230(18) -1.03515(16) -0.39127(9)
O8 O -0.5228(2) -1.20250(17) -0.52248(8)
O9 O -0.2118(2) -0.64825(16) -0.19392(9)
C1 C -0.1012(2) -0.9040(2) -0.27661(12)
H1 H -0.0437 -0.8778 -0.3136
H2 H -0.0722 -0.9821 -0.2636
C2 C -0.1551(3) -0.9227(3) -0.42357(13)
H3 H -0.1838 -0.9210 -0.4707
H4 H -0.0915 -0.8617 -0.4107
C3 C -0.5134(3) -1.1167(2) -0.48650(11)
C4 C -0.3865(3) -1.0028(2) -0.40206(11)
C5 C -0.3167(2) -1.0248(2) -0.12097(11)
C6 C -0.2475(2) -0.90839(19) -0.30065(11)
H5 H -0.2805 -0.8275 -0.3037
C7 C -0.4296(2) -0.8485(2) -0.15632(11)
C8 C -0.5155(2) -0.9460(2) -0.38397(12)
C9 C -0.7541(3) -0.8993(2) -0.42706(14)
H6 H -0.8093 -0.9019 -0.4672
H7 H -0.7561 -0.8216 -0.4084
H8 H -0.7886 -0.9540 -0.3942
C10 C -0.4879(2) -0.93947(19) -0.25474(11)
H9 H -0.5405 -1.0009 -0.2319
C11 C -0.3077(2) -0.9261(2) -0.17322(11)
C12 C -0.5544(2) -0.9172(2) -0.32140(12)
H10 H -0.6360 -0.8766 -0.3189
C13 C -0.3366(2) -0.9733(2) -0.24798(11)
C14 C -0.1832(2) -0.8478(2) -0.15815(11)
H11 H -0.1329 -0.8796 -0.1194
C15 C -0.6569(3) -0.9280(3) -0.10796(14)
H12 H -0.6938 -0.9680 -0.0693
H13 H -0.6721 -0.9741 -0.1480
H14 H -0.7004 -0.8532 -0.1129
C16 C 0.0618(3) -0.8220(2) -0.19160(13)
H15 H 0.1209 -0.8002 -0.2282
H16 H 0.0850 -0.8992 -0.1760
H17 H 0.0717 -0.7670 -0.1550
C17 C -0.0850(2) -0.8213(2) -0.21646(12)
C18 C -0.6100(3) -0.9315(2) -0.44500(12)
C19 C -0.5077(3) -0.9104(2) -0.09810(12)
H18 H -0.4945 -0.8648 -0.0565
C20 C -0.3182(2) -1.1065(2) -0.25353(11)
H19 H -0.2265 -1.1268 -0.2421
H20 H -0.3372 -1.1311 -0.2992
H21 H -0.3793 -1.1450 -0.2228
C21 C -0.2547(2) -0.9621(2) -0.37209(11)
C22 C -0.2438(3) -0.7276(2) -0.13927(12)
H22 H -0.2045 -0.6993 -0.0966
C23 C -0.1233(3) -0.6974(2) -0.23839(12)
C24 C -0.3878(3) -1.0840(2) -0.45132(12)
H23 H -0.3070 -1.1204 -0.4635
C25 C -0.5516(3) -0.8456(3) -0.49664(13)
H24 H -0.4623 -0.8705 -0.5096
H25 H -0.5467 -0.7687 -0.4768
H26 H -0.6089 -0.8433 -0.5360
loop_
_geom_bond_atom_site_label_1
_geom_bond_atom_site_label_2
_geom_bond_site_symmetry_1
_geom_bond_site_symmetry_2
O1 C7 1_555 1_555
O2 C5 1_555 1_555
O3 C7 1_555 1_555
O4 C5 1_555 1_555
O5 C3 1_555 1_555
O6 C23 1_555 1_555
O7 C2 1_555 1_555
O8 C3 1_555 1_555
O9 C22 1_555 1_555
C1 H1 1_555 1_555
H2 C1 1_555 1_555
C2 H3 1_555 1_555
H4 C2 1_555 1_555
C3 C24 1_555 1_555
C4 C8 1_555 1_555
C5 C11 1_555 1_555
C6 C1 1_555 1_555
H5 C6 1_555 1_555
C7 C11 1_555 1_555
C8 C12 1_555 1_555
C9 H6 1_555 1_555
H7 C9 1_555 1_555
H8 C9 1_555 1_555
C10 O3 1_555 1_555
H9 C10 1_555 1_555
C11 C13 1_555 1_555
C12 C10 1_555 1_555
H10 C12 1_555 1_555
C13 C6 1_555 1_555
C14 C11 1_555 1_555
H11 C14 1_555 1_555
C15 H12 1_555 1_555
H13 C15 1_555 1_555
H14 C15 1_555 1_555
C16 H15 1_555 1_555
H16 C16 1_555 1_555
H17 C16 1_555 1_555
C17 C1 1_555 1_555
C18 O5 1_555 1_555
C19 O4 1_555 1_555
H18 C19 1_555 1_555
C20 C13 1_555 1_555
H19 C20 1_555 1_555
H20 C20 1_555 1_555
H21 C20 1_555 1_555
C21 O7 1_555 1_555
C22 O1 1_555 1_555
H22 C22 1_555 1_555
C23 O9 1_555 1_555
C24 C4 1_555 1_555
H23 C24 1_555 1_555
C25 C18 1_555 1_555
H24 C25 1_555 1_555
H25 C25 1_555 1_555
H26 C25 1_555 1_555
C2 C21 1_555 1_555
C4 C21 1_555 1_555
C6 C21 1_555 1_555
C7 C19 1_555 1_555
C8 C18 1_555 1_555
C9 C18 1_555 1_555
C10 C13 1_555 1_555
C14 C17 1_555 1_555
C14 C22 1_555 1_555
C15 C19 1_555 1_555
C16 C17 1_555 1_555
C17 C23 1_555 1_555

#END
