
#######################################################################
#
#                 Cambridge Crystallographic Data Centre
#                                CCDC 
#
#######################################################################
#
# If this CIF has been generated from an entry in the Cambridge 
# Structural Database, then it will include bibliographic, chemical, 
# crystal, experimental, refinement or atomic coordinate data resulting 
# from the CCDC's data processing and validation procedures.
#
#######################################################################

data_PEMWAF
_chemical_formula_moiety         'C18 H32 N4 O4 S2'
_chemical_name_systematic        
25,26-Dithio-4,7,16,19-tetra-oxa-tricyclo(20.2.1.1^10,13^)hexa-eicosane
_symmetry_cell_setting           orthorhombic
_symmetry_space_group_name_H-M   'P b c a'
_symmetry_Int_Tables_number      61
_space_group_name_Hall           '-P 2ac 2ab'
loop_
_symmetry_equiv_pos_site_id
_symmetry_equiv_pos_as_xyz
1 x,y,z
2 1/2-x,-y,1/2+z
3 1/2+x,1/2-y,-z
4 -x,1/2+y,1/2-z
5 -x,-y,-z
6 1/2+x,y,1/2-z
7 1/2-x,1/2+y,z
8 x,1/2-y,1/2+z
_cell_length_a                   22.531(4)
_cell_length_b                   21.502(3)
_cell_length_c                   8.961(2)
_cell_angle_alpha                90
_cell_angle_beta                 90
_cell_angle_gamma                90
_cell_volume                     4341.26
_exptl_crystal_colour            colorless
_chemical_melting_point          '234 deg.C'
_cell_formula_units_Z            8
loop_
_atom_site_label
_atom_site_type_symbol
_atom_site_fract_x
_atom_site_fract_y
_atom_site_fract_z
S1 S 0.2948(1) 0.6839(1) 0.0959(1)
S2 S -0.0684(1) 0.9543(1) 0.2721(1)
O1 O 0.2355(1) 0.9156(1) 0.0592(3)
O2 O 0.1576(1) 0.9753(1) 0.2737(3)
O3 O -0.0231(1) 0.7329(1) 0.0659(3)
O4 O 0.0722(1) 0.6502(1) 0.1508(3)
N1 N 0.1874(1) 0.7042(1) 0.2202(3)
N2 N 0.2410(1) 0.7882(1) 0.1922(3)
N3 N 0.0414(1) 0.9474(1) 0.1473(3)
N4 N -0.0164(1) 0.8687(1) 0.0941(3)
C1 C 0.2918(2) 0.8282(2) 0.1674(5)
C2 C 0.2837(2) 0.8725(2) 0.0398(5)
C3 C 0.2511(2) 0.9677(2) 0.1449(7)
C4 C 0.1959(2) 1.0070(2) 0.1697(7)
C5 C 0.1060(2) 1.0100(2) 0.3108(5)
C6 C 0.0591(2) 1.0102(2) 0.1887(5)
C7 C 0.0740(2) 0.9139(2) 0.0323(4)
C8 C 0.0396(2) 0.8531(2) 0.0195(5)
C9 C -0.0135(1) 0.9226(2) 0.1682(4)
C10 C -0.0700(2) 0.8317(2) 0.0721(5)
C11 C -0.0675(2) 0.7678(2) 0.1409(4)
C12 C -0.0293(2) 0.6676(2) 0.0914(5)
C13 C 0.0268(2) 0.6357(2) 0.0450(5)
C14 C 0.1260(2) 0.6175(2) 0.1228(5)
C15 C 0.1729(2) 0.6386(2) 0.2321(5)
C16 C 0.1539(2) 0.7513(2) 0.2991(5)
C17 C 0.1878(2) 0.8103(2) 0.2681(6)
C18 C 0.2401(1) 0.7266(2) 0.1714(4)
H1 H 0.3240(15) 0.8040(16) 0.1483(43)
H2 H 0.2957(13) 0.8511(14) 0.2512(35)
H3 H 0.3188(14) 0.8945(15) 0.0260(37)
H4 H 0.2747(15) 0.8474(17) -0.0584(42)
H5 H 0.2773(17) 0.9985(19) 0.0834(49)
H6 H 0.2657(15) 0.9570(16) 0.2407(40)
H7 H 0.2070(16) 1.0478(18) 0.2029(44)
H8 H 0.1734(19) 1.0150(21) 0.0565(56)
H9 H 0.1156(13) 1.0516(15) 0.3352(34)
H10 H 0.0907(13) 0.9940(14) 0.4070(38)
H11 H 0.0736(13) 1.0352(13) 0.0865(35)
H12 H 0.0268(13) 1.0306(14) 0.2201(36)
H13 H 0.0720(14) 0.9349(15) -0.0619(37)
H14 H 0.1171(14) 0.9033(15) 0.0647(36)
H15 H 0.0603(13) 0.8223(14) 0.0840(34)
H16 H 0.0333(14) 0.8384(15) -0.0770(38)
H17 H -0.1027(13) 0.8558(14) 0.1110(36)
H18 H -0.0789(15) 0.8257(16) -0.0459(42)
H19 H -0.1052(13) 0.7460(15) 0.1321(37)
H20 H -0.0559(13) 0.7678(15) 0.2474(38)
H21 H -0.0364(12) 0.6575(13) 0.1980(35)
H22 H -0.0605(15) 0.6522(17) 0.0283(40)
H23 H 0.0213(13) 0.5887(15) 0.0483(34)
H24 H 0.0388(14) 0.6497(15) -0.0524(37)
H25 H 0.1360(12) 0.6241(13) 0.0164(32)
H26 H 0.1192(14) 0.5707(16) 0.1250(41)
H27 H 0.1610(14) 0.6286(15) 0.3417(41)
H28 H 0.2060(15) 0.6151(16) 0.2113(41)
H29 H 0.1516(15) 0.7415(16) 0.4016(44)
H30 H 0.1163(15) 0.7507(18) 0.2586(46)
H31 H 0.1988(17) 0.8298(19) 0.3543(48)
H32 H 0.1644(17) 0.8415(18) 0.1961(45)
loop_
_geom_bond_atom_site_label_1
_geom_bond_atom_site_label_2
_geom_bond_site_symmetry_1
_geom_bond_site_symmetry_2
S1 C18 1_555 1_555
S2 C9 1_555 1_555
O1 C2 1_555 1_555
O2 C4 1_555 1_555
O3 C11 1_555 1_555
O4 C13 1_555 1_555
N1 C15 1_555 1_555
N2 C1 1_555 1_555
N3 C6 1_555 1_555
N4 C8 1_555 1_555
C1 C2 1_555 1_555
C2 H3 1_555 1_555
C3 O1 1_555 1_555
C4 C3 1_555 1_555
C5 O2 1_555 1_555
C6 C5 1_555 1_555
C7 N3 1_555 1_555
C8 C7 1_555 1_555
C9 N3 1_555 1_555
C10 N4 1_555 1_555
C11 C10 1_555 1_555
C12 O3 1_555 1_555
C13 C12 1_555 1_555
C14 O4 1_555 1_555
C15 C14 1_555 1_555
C16 N1 1_555 1_555
C17 N2 1_555 1_555
C18 N1 1_555 1_555
H1 C1 1_555 1_555
H2 C1 1_555 1_555
H4 C2 1_555 1_555
H5 C3 1_555 1_555
H6 C3 1_555 1_555
H7 C4 1_555 1_555
H8 C4 1_555 1_555
H9 C5 1_555 1_555
H10 C5 1_555 1_555
H11 C6 1_555 1_555
H12 C6 1_555 1_555
H13 C7 1_555 1_555
H14 C7 1_555 1_555
H15 C8 1_555 1_555
H16 C8 1_555 1_555
H17 C10 1_555 1_555
H18 C10 1_555 1_555
H19 C11 1_555 1_555
H20 C11 1_555 1_555
H21 C12 1_555 1_555
H22 C12 1_555 1_555
H23 C13 1_555 1_555
H24 C13 1_555 1_555
H25 C14 1_555 1_555
H26 C14 1_555 1_555
H27 C15 1_555 1_555
H28 C15 1_555 1_555
H29 C16 1_555 1_555
H30 C16 1_555 1_555
H31 C17 1_555 1_555
H32 C17 1_555 1_555
N2 C18 1_555 1_555
N4 C9 1_555 1_555
C16 C17 1_555 1_555

#END
