
#######################################################################
#
#                 Cambridge Crystallographic Data Centre
#                                CCDC 
#
#######################################################################
#
# If this CIF has been generated from an entry in the Cambridge 
# Structural Database, then it will include bibliographic, chemical, 
# crystal, experimental, refinement or atomic coordinate data resulting 
# from the CCDC's data processing and validation procedures.
#
#######################################################################

data_PEMYOV
_chemical_formula_moiety         'C13 H13 N1 O3 S1'
_chemical_name_systematic        N-(3-Hydroxyphenyl)-p-toluenesulfonamide
_chemical_properties_biological  
'contains a potentially active sulfonamide moiety'
_symmetry_cell_setting           monoclinic
_symmetry_space_group_name_H-M   'C 2/c'
_symmetry_Int_Tables_number      15
_space_group_name_Hall           '-C 2yn'
loop_
_symmetry_equiv_pos_site_id
_symmetry_equiv_pos_as_xyz
1 x,y,z
2 1/2+x,1/2+y,z
3 -x,y,1/2-z
4 1/2-x,1/2+y,1/2-z
5 -x,-y,-z
6 1/2-x,1/2-y,-z
7 x,-y,1/2+z
8 1/2+x,1/2-y,1/2+z
_cell_length_a                   23.9096(7)
_cell_length_b                   9.5192(3)
_cell_length_c                   11.9629(3)
_cell_angle_alpha                90
_cell_angle_beta                 112.136(1)
_cell_angle_gamma                90
_cell_volume                     2522.07
_exptl_crystal_colour            colorless
_exptl_crystal_description       block
_cell_formula_units_Z            8
_exptl_crystal_recrystallization_method dichloromethane/methanol
loop_
_atom_site_label
_atom_site_type_symbol
_atom_site_fract_x
_atom_site_fract_y
_atom_site_fract_z
S1 S 0.15228(2) 0.63121(4) 0.32385(4)
O1 O 0.21747(7) 1.24115(12) 0.28260(14)
O2 O 0.12629(7) 0.62815(13) 0.41330(12)
O3 O 0.18286(6) 0.50919(11) 0.30503(13)
N1 N 0.20265(6) 0.75472(12) 0.35773(13)
C1 C 0.19960(7) 1.14149(14) 0.34495(14)
C2 C 0.17327(8) 1.1765(2) 0.42618(15)
C3 C 0.15601(8) 1.0698(2) 0.4845(2)
C4 C 0.16530(8) 0.9296(2) 0.46482(15)
C5 C 0.19100(6) 0.89695(14) 0.38142(13)
C6 C 0.20815(7) 1.00214(14) 0.32118(14)
C7 C 0.09489(7) 0.6743(2) 0.18487(15)
C8 C 0.05407(9) 0.7805(2) 0.1806(2)
C9 C 0.00843(9) 0.8125(3) 0.0729(2)
C10 C 0.00186(9) 0.7399(2) -0.0320(2)
C11 C 0.04355(10) 0.6371(2) -0.0265(2)
C12 C 0.09020(9) 0.6042(2) 0.0801(2)
C13 C -0.05052(14) 0.7729(5) -0.1479(3)
H1 H 0.2074(10) 1.3163(26) 0.2957(20)
H2 H 0.2246(9) 0.7439(20) 0.3171(18)
H3 H 0.1690(8) 1.2740(20) 0.4448(17)
H4 H 0.1386(9) 1.0933(22) 0.5425(19)
H5 H 0.1536(9) 0.8552(21) 0.5082(18)
H6 H 0.2255(8) 0.9791(17) 0.2640(15)
H7 H 0.0620(11) 0.8345(26) 0.2547(22)
H8 H -0.0166(12) 0.8874(27) 0.0740(23)
H9 H 0.0374(11) 0.5841(25) -0.1026(21)
H10 H 0.1150(10) 0.5295(24) 0.0799(19)
H11 H -0.0414(21) 0.8557(50) -0.1679(39)
H12 H -0.0563(22) 0.7086(54) -0.2080(47)
H13 H -0.0857(20) 0.7833(49) -0.1264(38)
loop_
_geom_bond_atom_site_label_1
_geom_bond_atom_site_label_2
_geom_bond_site_symmetry_1
_geom_bond_site_symmetry_2
S1 O2 1_555 1_555
O1 C1 1_555 1_555
O3 S1 1_555 1_555
N1 S1 1_555 1_555
C1 C2 1_555 1_555
C2 C3 1_555 1_555
C3 C4 1_555 1_555
C4 C5 1_555 1_555
C5 N1 1_555 1_555
C6 C1 1_555 1_555
C7 S1 1_555 1_555
C8 C7 1_555 1_555
C9 C8 1_555 1_555
C10 C9 1_555 1_555
C11 C10 1_555 1_555
C12 C7 1_555 1_555
C13 C10 1_555 1_555
H1 O1 1_555 1_555
H2 N1 1_555 1_555
H3 C2 1_555 1_555
H4 C3 1_555 1_555
H5 C4 1_555 1_555
H6 C6 1_555 1_555
H7 C8 1_555 1_555
H8 C9 1_555 1_555
H9 C11 1_555 1_555
H10 C12 1_555 1_555
H11 C13 1_555 1_555
H12 C13 1_555 1_555
H13 C13 1_555 1_555
C5 C6 1_555 1_555
C11 C12 1_555 1_555

#END
