
#######################################################################
#
#                 Cambridge Crystallographic Data Centre
#                                CCDC 
#
#######################################################################
#
# If this CIF has been generated from an entry in the Cambridge 
# Structural Database, then it will include bibliographic, chemical, 
# crystal, experimental, refinement or atomic coordinate data resulting 
# from the CCDC's data processing and validation procedures.
#
#######################################################################

data_PEMZEO
_chemical_formula_moiety         'C37 H23 N1 O1'
_chemical_name_systematic        
2,3,7,8-Tetraphenylbenzo[de]chromene-9-carbonitrile
_symmetry_cell_setting           monoclinic
_symmetry_space_group_name_H-M   'C c'
_symmetry_Int_Tables_number      9
_space_group_name_Hall           'C -2yc'
loop_
_symmetry_equiv_pos_site_id
_symmetry_equiv_pos_as_xyz
1 x,y,z
2 x,-y,1/2+z
3 1/2+x,1/2+y,z
4 1/2+x,1/2-y,1/2+z
_cell_length_a                   18.820(4)
_cell_length_b                   15.328(3)
_cell_length_c                   9.3790(19)
_cell_angle_alpha                90
_cell_angle_beta                 105.31(3)
_cell_angle_gamma                90
_cell_volume                     2609.57
_cell_formula_units_Z            4
loop_
_atom_site_label
_atom_site_type_symbol
_atom_site_fract_x
_atom_site_fract_y
_atom_site_fract_z
O1 O 0.47727(13) 0.38209(14) 0.7434(3)
N1 N 0.63902(18) 0.3753(2) 1.0130(4)
C1 C 0.6034(2) 0.4288(2) 0.9421(5)
C2 C 0.5583(2) 0.4940(2) 0.8519(4)
C3 C 0.57857(18) 0.5840(2) 0.8678(4)
C4 C 0.65199(19) 0.6049(2) 0.9709(5)
C5 C 0.7142(2) 0.6029(3) 0.9215(5)
H1 H 0.7106 0.5910 0.8226
C6 C 0.7830(2) 0.6187(3) 1.0190(6)
H2 H 0.8251 0.6174 0.9851
C7 C 0.7882(2) 0.6358(3) 1.1633(6)
H3 H 0.8342 0.6454 1.2285
C8 C 0.7260(3) 0.6391(3) 1.2137(6)
H4 H 0.7297 0.6514 1.3125
C9 C 0.6578(2) 0.6240(3) 1.1165(5)
H5 H 0.6156 0.6268 1.1501
C10 C 0.53207(18) 0.6459(2) 0.7881(4)
C11 C 0.54759(19) 0.7410(2) 0.8128(4)
C12 C 0.5996(2) 0.7850(2) 0.7627(5)
H6 H 0.6283 0.7546 0.7125
C13 C 0.6102(3) 0.8739(3) 0.7852(6)
H7 H 0.6451 0.9029 0.7485
C14 C 0.5694(3) 0.9189(3) 0.8616(6)
H8 H 0.5770 0.9784 0.8784
C15 C 0.5170(2) 0.8763(3) 0.9134(5)
H9 H 0.4888 0.9069 0.9644
C16 C 0.5066(2) 0.7882(2) 0.8895(5)
H10 H 0.4714 0.7596 0.9255
C17 C 0.4659(2) 0.6199(2) 0.6835(4)
C18 C 0.4166(2) 0.6790(2) 0.5907(4)
H11 H 0.4271 0.7384 0.5977
C19 C 0.3546(2) 0.6506(2) 0.4920(5)
H12 H 0.3236 0.6910 0.4326
C20 C 0.3363(2) 0.5626(2) 0.4773(5)
H13 H 0.2932 0.5452 0.4088
C21 C 0.38127(19) 0.5010(2) 0.5634(4)
C22 C 0.36351(19) 0.4079(2) 0.5620(4)
C23 C 0.41053(18) 0.3520(2) 0.6510(4)
C24 C 0.49342(18) 0.4695(2) 0.7537(4)
C25 C 0.44709(18) 0.5302(2) 0.6651(4)
C26 C 0.29103(19) 0.3817(2) 0.4628(4)
C27 C 0.2312(2) 0.3685(3) 0.5194(5)
H14 H 0.2368 0.3729 0.6207
C28 C 0.1627(2) 0.3488(3) 0.4262(6)
H15 H 0.1230 0.3373 0.4650
C29 C 0.1539(2) 0.3463(3) 0.2777(6)
H16 H 0.1077 0.3350 0.2148
C30 C 0.2122(3) 0.3602(3) 0.2200(6)
H17 H 0.2058 0.3579 0.1183
C31 C 0.2806(2) 0.3775(3) 0.3127(5)
H18 H 0.3204 0.3864 0.2730
C32 C 0.40546(19) 0.2571(2) 0.6751(5)
C33 C 0.3529(2) 0.2042(3) 0.5864(5)
H19 H 0.3190 0.2283 0.5054
C34 C 0.3494(2) 0.1164(3) 0.6148(6)
H20 H 0.3128 0.0825 0.5534
C35 C 0.3981(2) 0.0786(3) 0.7305(6)
H21 H 0.3957 0.0191 0.7483
C36 C 0.4509(2) 0.1295(3) 0.8210(5)
H22 H 0.4844 0.1046 0.9017
C37 C 0.45496(18) 0.2178(2) 0.7934(5)
H23 H 0.4915 0.2513 0.8554
loop_
_geom_bond_atom_site_label_1
_geom_bond_atom_site_label_2
_geom_bond_site_symmetry_1
_geom_bond_site_symmetry_2
O1 C23 1_555 1_555
N1 C1 1_555 1_555
C1 C2 1_555 1_555
C2 C3 1_555 1_555
C3 C4 1_555 1_555
C4 C5 1_555 1_555
C5 H1 1_555 1_555
C6 C5 1_555 1_555
H2 C6 1_555 1_555
C7 C6 1_555 1_555
H3 C7 1_555 1_555
C8 C7 1_555 1_555
H4 C8 1_555 1_555
C9 C4 1_555 1_555
H5 C9 1_555 1_555
C10 C3 1_555 1_555
C11 C10 1_555 1_555
C12 C11 1_555 1_555
H6 C12 1_555 1_555
C13 C12 1_555 1_555
H7 C13 1_555 1_555
C14 C13 1_555 1_555
H8 C14 1_555 1_555
C15 C14 1_555 1_555
H9 C15 1_555 1_555
C16 C11 1_555 1_555
H10 C16 1_555 1_555
C17 C10 1_555 1_555
C18 C17 1_555 1_555
H11 C18 1_555 1_555
C19 C18 1_555 1_555
H12 C19 1_555 1_555
C20 C19 1_555 1_555
H13 C20 1_555 1_555
C21 C20 1_555 1_555
C22 C21 1_555 1_555
C23 C22 1_555 1_555
C24 O1 1_555 1_555
C25 C17 1_555 1_555
C26 C22 1_555 1_555
C27 C26 1_555 1_555
H14 C27 1_555 1_555
C28 C27 1_555 1_555
H15 C28 1_555 1_555
C29 C28 1_555 1_555
H16 C29 1_555 1_555
C30 C29 1_555 1_555
H17 C30 1_555 1_555
C31 C26 1_555 1_555
H18 C31 1_555 1_555
C32 C23 1_555 1_555
C33 C32 1_555 1_555
H19 C33 1_555 1_555
C34 C33 1_555 1_555
H20 C34 1_555 1_555
C35 C34 1_555 1_555
H21 C35 1_555 1_555
C36 C35 1_555 1_555
H22 C36 1_555 1_555
C37 C32 1_555 1_555
H23 C37 1_555 1_555
C2 C24 1_555 1_555
C8 C9 1_555 1_555
C15 C16 1_555 1_555
C21 C25 1_555 1_555
C24 C25 1_555 1_555
C30 C31 1_555 1_555
C36 C37 1_555 1_555

#END
