
#######################################################################
#
#                 Cambridge Crystallographic Data Centre
#                                CCDC 
#
#######################################################################
#
# If this CIF has been generated from an entry in the Cambridge 
# Structural Database, then it will include bibliographic, chemical, 
# crystal, experimental, refinement or atomic coordinate data resulting 
# from the CCDC's data processing and validation procedures.
#
#######################################################################

data_PEMZIS
_chemical_formula_moiety         'C38 H25 N1 O1'
_chemical_name_systematic        
4-Methyl-2,3,7,8-tetraphenylbenzo[de]chromene-9-carbonitrile
_symmetry_cell_setting           triclinic
_symmetry_space_group_name_H-M   'P -1'
_symmetry_Int_Tables_number      2
_space_group_name_Hall           '-P 1'
loop_
_symmetry_equiv_pos_site_id
_symmetry_equiv_pos_as_xyz
1 x,y,z
2 -x,-y,-z
_cell_length_a                   11.351(4)
_cell_length_b                   13.592(3)
_cell_length_c                   19.515(6)
_cell_angle_alpha                69.758(10)
_cell_angle_beta                 89.373(17)
_cell_angle_gamma                75.645(15)
_cell_volume                     2727.39
_exptl_crystal_colour            colorless
_exptl_crystal_description       prism
_cell_formula_units_Z            4
loop_
_atom_site_label
_atom_site_type_symbol
_atom_site_fract_x
_atom_site_fract_y
_atom_site_fract_z
O1 O 0.86536(10) 0.58671(9) 0.46072(6)
N1 N 0.82881(14) 0.49107(12) 0.32781(8)
C1 C 0.87660(14) 0.66649(12) 0.48798(9)
C2 C 0.86006(14) 0.65549(13) 0.55856(9)
C3 C 0.81827(14) 0.56214(12) 0.60718(9)
C4 C 0.81107(14) 0.53440(13) 0.68300(9)
C5 C 0.74838(14) 0.45493(13) 0.71829(9)
H1 H 0.7385 0.4392 0.7691
C6 C 0.70094(14) 0.39924(13) 0.68367(9)
H2 H 0.6562 0.3494 0.7098
C7 C 0.71874(14) 0.41605(13) 0.60872(9)
C8 C 0.68020(14) 0.35440(12) 0.57059(9)
C9 C 0.70290(14) 0.37373(13) 0.49746(9)
C10 C 0.76699(14) 0.45259(13) 0.46201(8)
C11 C 0.80219(14) 0.51307(12) 0.49845(9)
C12 C 0.77794(14) 0.49867(12) 0.57177(8)
C13 C 0.90144(14) 0.75852(13) 0.42660(8)
C14 C 0.84175(15) 0.86628(13) 0.41677(9)
H3 H 0.7901 0.8818 0.4524
C15 C 0.85732(16) 0.95068(13) 0.35548(9)
H4 H 0.8152 1.0234 0.3490
C16 C 0.93401(15) 0.92958(14) 0.30364(9)
H5 H 0.9451 0.9875 0.2619
C17 C 0.99431(15) 0.82324(14) 0.31317(9)
H6 H 1.0479 0.8084 0.2782
C18 C 0.97698(14) 0.73801(13) 0.37368(9)
H7 H 1.0170 0.6653 0.3789
C19 C 0.86903(15) 0.74745(13) 0.58226(9)
C20 C 0.76555(16) 0.80650(13) 0.60323(9)
H8 H 0.6916 0.7850 0.6056
C21 C 0.76951(18) 0.89652(14) 0.62068(10)
H9 H 0.6985 0.9361 0.6350
C22 C 0.87685(18) 0.92856(14) 0.61715(10)
H10 H 0.8793 0.9904 0.6288
C23 C 0.98046(18) 0.87046(14) 0.59663(10)
H11 H 1.0540 0.8925 0.5942
C24 C 0.97705(16) 0.77974(14) 0.57957(9)
H12 H 1.0486 0.7397 0.5660
C25 C 0.86912(16) 0.57939(14) 0.73079(9)
H13 H 0.9454 0.5942 0.7113
H14 H 0.8864 0.5263 0.7809
H15 H 0.8132 0.6469 0.7311
C26 C 0.61130(15) 0.27303(13) 0.60936(9)
C27 C 0.48762(15) 0.29443(14) 0.59005(10)
H16 H 0.4470 0.3609 0.5529
C28 C 0.42306(17) 0.21870(16) 0.62512(11)
H17 H 0.3386 0.2340 0.6114
C29 C 0.48037(17) 0.12118(15) 0.67989(10)
H18 H 0.4355 0.0701 0.7034
C30 C 0.60376(16) 0.09909(14) 0.69993(9)
H19 H 0.6439 0.0326 0.7373
C31 C 0.66840(16) 0.17488(13) 0.66501(9)
H20 H 0.7527 0.1597 0.6792
C32 C 0.66044(15) 0.31429(13) 0.45509(9)
C33 C 0.69740(16) 0.20126(14) 0.47794(9)
H21 H 0.7532 0.1611 0.5200
C34 C 0.65296(17) 0.14689(14) 0.43947(10)
H22 H 0.6778 0.0698 0.4559
C35 C 0.57264(16) 0.20438(15) 0.37738(10)
H23 H 0.5423 0.1670 0.3514
C36 C 0.53695(16) 0.31709(15) 0.35357(9)
H24 H 0.4828 0.3571 0.3108
C37 C 0.58035(15) 0.37143(14) 0.39229(9)
H25 H 0.5551 0.4485 0.3758
C38 C 0.80046(15) 0.47359(13) 0.38697(9)
O2 O 0.38363(10) 0.52144(8) 1.06568(6)
N2 N 0.38490(13) 0.28282(12) 1.20025(8)
C39 C 0.38850(14) 0.63019(12) 1.03769(9)
C40 C 0.34661(14) 0.69406(12) 0.96769(8)
C41 C 0.28999(14) 0.65177(12) 0.91985(8)
C42 C 0.25849(15) 0.70343(12) 0.84437(9)
C43 C 0.18941(15) 0.65843(13) 0.80972(9)
H26 H 0.1655 0.6950 0.7589
C44 C 0.15449(14) 0.56482(13) 0.84501(9)
H27 H 0.1037 0.5408 0.8193
C45 C 0.19426(14) 0.50401(12) 0.91976(8)
C46 C 0.16892(14) 0.40079(13) 0.95876(9)
C47 C 0.21302(14) 0.34425(12) 1.03155(9)
C48 C 0.28600(14) 0.38770(12) 1.06700(8)
C49 C 0.30973(14) 0.48691(12) 1.02930(8)
C50 C 0.26351(14) 0.54840(12) 0.95585(8)
C51 C 0.44199(14) 0.65462(12) 1.09688(8)
C52 C 0.52928(14) 0.57152(13) 1.14910(9)
H28 H 0.5532 0.5013 1.1457
C53 C 0.58089(15) 0.59100(14) 1.20555(9)
H29 H 0.6413 0.5346 1.2399
C54 C 0.54489(15) 0.69238(14) 1.21221(9)
H30 H 0.5810 0.7057 1.2507
C55 C 0.45556(16) 0.77437(14) 1.16203(9)
H31 H 0.4294 0.8434 1.1670
C56 C 0.40440(15) 0.75615(13) 1.10487(9)
H32 H 0.3435 0.8128 1.0709
C57 C 0.34359(15) 0.81221(12) 0.94213(8)
C58 C 0.23060(15) 0.88962(13) 0.92752(9)
H33 H 0.1574 0.8668 0.9326
C59 C 0.22495(17) 0.99963(13) 0.90566(9)
H34 H 0.1479 1.0514 0.8963
C60 C 0.33139(18) 1.03425(14) 0.89742(10)
H35 H 0.3275 1.1094 0.8822
C61 C 0.44363(17) 0.95752(14) 0.91178(10)
H36 H 0.5168 0.9806 0.9063
C62 C 0.44964(16) 0.84763(13) 0.93398(9)
H37 H 0.5269 0.7961 0.9437
C63 C 0.29687(15) 0.80231(13) 0.79586(9)
H38 H 0.2425 0.8679 0.8001
H39 H 0.2921 0.8063 0.7448
H40 H 0.3809 0.7967 0.8113
C64 C 0.09300(14) 0.35683(12) 0.92080(8)
C65 C -0.01815(15) 0.33907(13) 0.94643(9)
H41 H -0.0474 0.3585 0.9870
C66 C -0.08598(15) 0.29370(13) 0.91362(9)
H42 H -0.1609 0.2813 0.9320
C67 C -0.04484(15) 0.26605(13) 0.85360(9)
H43 H -0.0910 0.2339 0.8314
C68 C 0.06367(15) 0.28555(13) 0.82625(9)
H44 H 0.0910 0.2684 0.7845
C69 C 0.13221(15) 0.33003(13) 0.85983(9)
H45 H 0.2069 0.3425 0.8412
C70 C 0.18808(14) 0.23759(13) 1.07410(8)
C71 C 0.22043(15) 0.14974(13) 1.05010(9)
H46 H 0.2626 0.1566 1.0071
C72 C 0.19194(16) 0.05229(13) 1.08810(9)
H47 H 0.2138 -0.0065 1.0708
C73 C 0.13139(17) 0.04135(14) 1.15147(10)
H48 H 0.1116 -0.0249 1.1777
C74 C 0.10001(17) 0.12782(15) 1.17631(10)
H49 H 0.0590 0.1203 1.2198
C75 C 0.12797(15) 0.22514(13) 1.13830(9)
H50 H 0.1062 0.2836 1.1560
C76 C 0.34067(15) 0.32871(13) 1.14132(9)
loop_
_geom_bond_atom_site_label_1
_geom_bond_atom_site_label_2
_geom_bond_site_symmetry_1
_geom_bond_site_symmetry_2
O1 C1 1_555 1_555
O2 C39 1_555 1_555
N1 C38 1_555 1_555
N2 C76 1_555 1_555
C1 C2 1_555 1_555
C2 C3 1_555 1_555
C3 C4 1_555 1_555
C4 C5 1_555 1_555
C5 H1 1_555 1_555
C6 C5 1_555 1_555
H2 C6 1_555 1_555
C7 C6 1_555 1_555
C8 C7 1_555 1_555
C9 C8 1_555 1_555
C10 C9 1_555 1_555
C11 O1 1_555 1_555
C12 C3 1_555 1_555
C13 C1 1_555 1_555
C14 C13 1_555 1_555
H3 C14 1_555 1_555
C15 C14 1_555 1_555
H4 C15 1_555 1_555
C16 C15 1_555 1_555
H5 C16 1_555 1_555
C17 C16 1_555 1_555
H6 C17 1_555 1_555
C18 C13 1_555 1_555
H7 C18 1_555 1_555
C19 C2 1_555 1_555
C20 C19 1_555 1_555
H8 C20 1_555 1_555
C21 C20 1_555 1_555
H9 C21 1_555 1_555
C22 C21 1_555 1_555
H10 C22 1_555 1_555
C23 C22 1_555 1_555
H11 C23 1_555 1_555
C24 C19 1_555 1_555
H12 C24 1_555 1_555
C25 C4 1_555 1_555
H13 C25 1_555 1_555
H14 C25 1_555 1_555
H15 C25 1_555 1_555
C26 C8 1_555 1_555
C27 C26 1_555 1_555
H16 C27 1_555 1_555
C28 C27 1_555 1_555
H17 C28 1_555 1_555
C29 C28 1_555 1_555
H18 C29 1_555 1_555
C30 C29 1_555 1_555
H19 C30 1_555 1_555
C31 C26 1_555 1_555
H20 C31 1_555 1_555
C32 C9 1_555 1_555
C33 C32 1_555 1_555
H21 C33 1_555 1_555
C34 C33 1_555 1_555
H22 C34 1_555 1_555
C35 C34 1_555 1_555
H23 C35 1_555 1_555
C36 C35 1_555 1_555
H24 C36 1_555 1_555
C37 C32 1_555 1_555
H25 C37 1_555 1_555
C38 C10 1_555 1_555
C39 C40 1_555 1_555
C40 C41 1_555 1_555
C41 C42 1_555 1_555
C42 C43 1_555 1_555
C43 H26 1_555 1_555
C44 C43 1_555 1_555
H27 C44 1_555 1_555
C45 C44 1_555 1_555
C46 C45 1_555 1_555
C47 C46 1_555 1_555
C48 C47 1_555 1_555
C49 O2 1_555 1_555
C50 C41 1_555 1_555
C51 C39 1_555 1_555
C52 C51 1_555 1_555
H28 C52 1_555 1_555
C53 C52 1_555 1_555
H29 C53 1_555 1_555
C54 C53 1_555 1_555
H30 C54 1_555 1_555
C55 C54 1_555 1_555
H31 C55 1_555 1_555
C56 C51 1_555 1_555
H32 C56 1_555 1_555
C57 C40 1_555 1_555
C58 C57 1_555 1_555
H33 C58 1_555 1_555
C59 C58 1_555 1_555
H34 C59 1_555 1_555
C60 C59 1_555 1_555
H35 C60 1_555 1_555
C61 C60 1_555 1_555
H36 C61 1_555 1_555
C62 C57 1_555 1_555
H37 C62 1_555 1_555
C63 C42 1_555 1_555
H38 C63 1_555 1_555
H39 C63 1_555 1_555
H40 C63 1_555 1_555
C64 C46 1_555 1_555
C65 C64 1_555 1_555
H41 C65 1_555 1_555
C66 C65 1_555 1_555
H42 C66 1_555 1_555
C67 C66 1_555 1_555
H43 C67 1_555 1_555
C68 C67 1_555 1_555
H44 C68 1_555 1_555
C69 C64 1_555 1_555
H45 C69 1_555 1_555
C70 C47 1_555 1_555
C71 C70 1_555 1_555
H46 C71 1_555 1_555
C72 C71 1_555 1_555
H47 C72 1_555 1_555
C73 C72 1_555 1_555
H48 C73 1_555 1_555
C74 C73 1_555 1_555
H49 C74 1_555 1_555
C75 C70 1_555 1_555
H50 C75 1_555 1_555
C76 C48 1_555 1_555
C7 C12 1_555 1_555
C10 C11 1_555 1_555
C11 C12 1_555 1_555
C17 C18 1_555 1_555
C23 C24 1_555 1_555
C30 C31 1_555 1_555
C36 C37 1_555 1_555
C45 C50 1_555 1_555
C48 C49 1_555 1_555
C49 C50 1_555 1_555
C55 C56 1_555 1_555
C61 C62 1_555 1_555
C68 C69 1_555 1_555
C74 C75 1_555 1_555

#END
