
#######################################################################
#
#                 Cambridge Crystallographic Data Centre
#                                CCDC 
#
#######################################################################
#
# If this CIF has been generated from an entry in the Cambridge 
# Structural Database, then it will include bibliographic, chemical, 
# crystal, experimental, refinement or atomic coordinate data resulting 
# from the CCDC's data processing and validation procedures.
#
#######################################################################

data_PEMZOY
_chemical_formula_moiety         'C38 H25 N1 O2'
_chemical_name_systematic        
6-Methoxy-2,3,7,8-tetraphenylbenzo[de]chromene-9-carbonitrile
_symmetry_cell_setting           triclinic
_symmetry_space_group_name_H-M   'P -1'
_symmetry_Int_Tables_number      2
_space_group_name_Hall           '-P 1'
loop_
_symmetry_equiv_pos_site_id
_symmetry_equiv_pos_as_xyz
1 x,y,z
2 -x,-y,-z
_cell_length_a                   11.087(2)
_cell_length_b                   11.313(2)
_cell_length_c                   11.699(2)
_cell_angle_alpha                94.81(3)
_cell_angle_beta                 96.14(3)
_cell_angle_gamma                104.89(3)
_cell_volume                     1400.47
_cell_formula_units_Z            2
loop_
_atom_site_label
_atom_site_type_symbol
_atom_site_fract_x
_atom_site_fract_y
_atom_site_fract_z
O1 O 0.0001(3) 0.0180(3) 0.8077(3)
N1 N 0.7129(3) 0.1806(4) 0.9551(3)
C1 C -0.1330(4) -0.0018(5) 0.7994(4)
H1 H -0.1598 -0.0184 0.8732
H2 H -0.1738 -0.0708 0.7426
H3 H -0.1550 0.0704 0.7768
C2 C 0.0780(4) 0.1041(5) 0.8889(4)
C3 C 0.2102(3) 0.1128(4) 0.8925(3)
C4 C 0.2618(3) 0.0346(4) 0.8181(3)
C5 C 0.3931(3) 0.0552(4) 0.8295(3)
C6 C 0.4717(3) 0.1470(4) 0.9115(3)
C7 C 0.4226(4) 0.2231(5) 0.9783(3)
O2 O 0.5047(2) 0.3186(3) 1.0487(2)
C8 C 0.4647(4) 0.3988(4) 1.1252(3)
C9 C 0.3405(4) 0.3822(4) 1.1288(4)
C10 C 0.2476(4) 0.2888(4) 1.0491(3)
C11 C 0.1183(4) 0.2709(5) 1.0406(4)
H4 H 0.0860 0.3205 1.0895
C12 C 0.0365(4) 0.1809(5) 0.9611(4)
H5 H -0.0495 0.1726 0.9570
C13 C 0.2903(3) 0.2077(4) 0.9728(3)
C14 C 0.2941(4) 0.4578(5) 1.2146(4)
C15 C 0.2414(5) 0.5494(5) 1.1831(5)
H6 H 0.2300 0.5624 1.1057
C16 C 0.2053(5) 0.6223(6) 1.2662(7)
H7 H 0.1704 0.6847 1.2442
C17 C 0.2200(6) 0.6043(7) 1.3810(7)
H8 H 0.1974 0.6555 1.4365
C18 C 0.2681(6) 0.5104(6) 1.4130(5)
H9 H 0.2763 0.4953 1.4899
C19 C 0.3043(4) 0.4386(5) 1.3293(5)
H10 H 0.3370 0.3746 1.3512
C20 C 0.5767(4) 0.4912(5) 1.1878(4)
C21 C 0.5691(5) 0.5975(5) 1.2473(4)
H11 H 0.4908 0.6120 1.2516
C22 C 0.6753(5) 0.6828(5) 1.3007(4)
H12 H 0.6682 0.7548 1.3407
C23 C 0.7923(5) 0.6642(6) 1.2964(4)
H13 H 0.8638 0.7223 1.3343
C24 C 0.8028(5) 0.5593(6) 1.2358(5)
H14 H 0.8813 0.5458 1.2303
C25 C 0.6940(4) 0.4739(5) 1.1830(4)
H15 H 0.7008 0.4019 1.1427
C26 C 0.6064(4) 0.1649(5) 0.9337(4)
C27 C 0.4538(4) -0.0155(5) 0.7495(3)
C28 C 0.4301(4) -0.1419(6) 0.7379(4)
H16 H 0.3733 -0.1872 0.7814
C29 C 0.4887(5) -0.2037(6) 0.6629(4)
H17 H 0.4714 -0.2891 0.6564
C30 C 0.5724(5) -0.1368(7) 0.5988(4)
H18 H 0.6117 -0.1773 0.5480
C31 C 0.5992(5) -0.0089(7) 0.6089(4)
H19 H 0.6562 0.0357 0.5651
C32 C 0.5406(4) 0.0518(5) 0.6844(3)
H20 H 0.5590 0.1372 0.6919
C33 C 0.1796(4) -0.0655(5) 0.7305(4)
C34 C 0.1247(4) -0.1806(5) 0.7614(4)
H21 H 0.1401 -0.1959 0.8377
C35 C 0.0477(4) -0.2732(5) 0.6816(4)
H22 H 0.0120 -0.3497 0.7046
C36 C 0.0237(5) -0.2530(6) 0.5686(5)
H23 H -0.0287 -0.3152 0.5148
C37 C 0.0786(5) -0.1384(6) 0.5355(4)
H24 H 0.0631 -0.1239 0.4589
C38 C 0.1568(4) -0.0451(5) 0.6161(4)
H25 H 0.1937 0.0310 0.5929
loop_
_geom_bond_atom_site_label_1
_geom_bond_atom_site_label_2
_geom_bond_site_symmetry_1
_geom_bond_site_symmetry_2
O1 C1 1_555 1_555
N1 C26 1_555 1_555
C1 H1 1_555 1_555
H2 C1 1_555 1_555
H3 C1 1_555 1_555
C2 O1 1_555 1_555
C3 C2 1_555 1_555
C4 C3 1_555 1_555
C5 C4 1_555 1_555
C6 C5 1_555 1_555
C7 C6 1_555 1_555
O2 C7 1_555 1_555
C8 O2 1_555 1_555
C9 C8 1_555 1_555
C10 C9 1_555 1_555
C11 C10 1_555 1_555
H4 C11 1_555 1_555
C12 C2 1_555 1_555
H5 C12 1_555 1_555
C13 C3 1_555 1_555
C14 C9 1_555 1_555
C15 C14 1_555 1_555
H6 C15 1_555 1_555
C16 C15 1_555 1_555
H7 C16 1_555 1_555
C17 C16 1_555 1_555
H8 C17 1_555 1_555
C18 C17 1_555 1_555
H9 C18 1_555 1_555
C19 C14 1_555 1_555
H10 C19 1_555 1_555
C20 C8 1_555 1_555
C21 C20 1_555 1_555
H11 C21 1_555 1_555
C22 C21 1_555 1_555
H12 C22 1_555 1_555
C23 C22 1_555 1_555
H13 C23 1_555 1_555
C24 C23 1_555 1_555
H14 C24 1_555 1_555
C25 C20 1_555 1_555
H15 C25 1_555 1_555
C26 C6 1_555 1_555
C27 C5 1_555 1_555
C28 C27 1_555 1_555
H16 C28 1_555 1_555
C29 C28 1_555 1_555
H17 C29 1_555 1_555
C30 C29 1_555 1_555
H18 C30 1_555 1_555
C31 C30 1_555 1_555
H19 C31 1_555 1_555
C32 C27 1_555 1_555
H20 C32 1_555 1_555
C33 C4 1_555 1_555
C34 C33 1_555 1_555
H21 C34 1_555 1_555
C35 C34 1_555 1_555
H22 C35 1_555 1_555
C36 C35 1_555 1_555
H23 C36 1_555 1_555
C37 C36 1_555 1_555
H24 C37 1_555 1_555
C38 C33 1_555 1_555
H25 C38 1_555 1_555
C7 C13 1_555 1_555
C10 C13 1_555 1_555
C11 C12 1_555 1_555
C18 C19 1_555 1_555
C24 C25 1_555 1_555
C31 C32 1_555 1_555
C37 C38 1_555 1_555

#END
