
#######################################################################
#
#                 Cambridge Crystallographic Data Centre
#                                CCDC 
#
#######################################################################
#
# If this CIF has been generated from an entry in the Cambridge 
# Structural Database, then it will include bibliographic, chemical, 
# crystal, experimental, refinement or atomic coordinate data resulting 
# from the CCDC's data processing and validation procedures.
#
#######################################################################

data_PENBER
_chemical_formula_moiety         'C29 H23 N1 O1,0.5(C1 H1 Cl3)'
_chemical_name_systematic        
'3,7-Diethyl-2,8-diphenylbenzo[de]chromene-9-carbonitrile chloroform solvate'
_symmetry_cell_setting           triclinic
_symmetry_space_group_name_H-M   'P -1'
_symmetry_Int_Tables_number      2
_space_group_name_Hall           '-P 1'
loop_
_symmetry_equiv_pos_site_id
_symmetry_equiv_pos_as_xyz
1 x,y,z
2 -x,-y,-z
_cell_length_a                   9.1944(19)
_cell_length_b                   10.540(2)
_cell_length_c                   13.496(3)
_cell_angle_alpha                110.638(10)
_cell_angle_beta                 97.188(19)
_cell_angle_gamma                101.563(13)
_cell_volume                     1171.45
_exptl_crystal_colour            colorless
_exptl_crystal_description       prism
_cell_formula_units_Z            2
loop_
_atom_site_label
_atom_site_type_symbol
_atom_site_fract_x
_atom_site_fract_y
_atom_site_fract_z
O1 O 0.04312(14) 0.73272(12) 0.78658(9)
N1 N 0.12983(19) 0.47130(16) 0.85705(12)
C1 C -0.0058(2) 0.80021(18) 0.72204(14)
C2 C 0.0172(2) 0.94039(18) 0.75800(14)
C3 C 0.0969(2) 1.02735(17) 0.86977(14)
C4 C 0.1215(2) 1.17157(17) 0.91558(14)
H1 H 0.0839 1.2192 0.8742
C5 C 0.2016(2) 1.24765(18) 1.02287(14)
H2 H 0.2163 1.3466 1.0536
C6 C 0.2592(2) 1.18285(17) 1.08451(14)
H3 H 0.3150 1.2379 1.1565
C7 C 0.23712(19) 1.03531(18) 1.04296(13)
C8 C 0.2951(2) 0.96204(17) 1.10413(14)
C9 C 0.26946(19) 0.81820(18) 1.05644(13)
C10 C 0.18249(19) 0.74182(17) 0.94874(13)
C11 C 0.12619(19) 0.81168(17) 0.88989(13)
C12 C 0.15338(19) 0.95903(17) 0.93462(13)
C13 C -0.0829(2) 0.69483(17) 0.61136(14)
C14 C -0.0160(2) 0.69057(19) 0.52336(14)
H4 H 0.0786 0.7553 0.5345
C15 C -0.0855(3) 0.5937(2) 0.42061(15)
H5 H -0.0390 0.5919 0.3613
C16 C -0.2228(2) 0.4993(2) 0.40375(16)
H6 H -0.2708 0.4324 0.3328
C17 C -0.2907(2) 0.5017(2) 0.48989(17)
H7 H -0.3855 0.4368 0.4780
C18 C -0.2203(2) 0.59917(19) 0.59405(15)
H8 H -0.2665 0.6000 0.6533
C19 C -0.0364(2) 1.00923(18) 0.68465(14)
H9 H -0.0903 1.0777 0.7232
H10 H -0.1099 0.9366 0.6198
C20 C 0.0926(2) 1.0847(2) 0.64834(15)
H11 H 0.1658 1.1568 0.7121
H12 H 0.0514 1.1291 0.6025
H13 H 0.1434 1.0167 0.6071
C21 C 0.3878(2) 1.04378(18) 1.21818(14)
H14 H 0.3832 0.9805 1.2579
H15 H 0.3421 1.1201 1.2557
C22 C 0.5550(2) 1.1081(2) 1.22218(16)
H16 H 0.6034 1.0327 1.1909
H17 H 0.6078 1.1647 1.2976
H18 H 0.5603 1.1679 1.1805
C23 C 0.3304(2) 0.73609(17) 1.11450(14)
C24 C 0.4719(2) 0.7132(2) 1.10901(18)
H19 H 0.5316 0.7495 1.0677
C25 C 0.5283(2) 0.6370(2) 1.1636(2)
H20 H 0.6256 0.6208 1.1587
C26 C 0.4437(3) 0.5858(2) 1.22416(18)
H21 H 0.4832 0.5361 1.2629
C27 C 0.3009(3) 0.6065(2) 1.22891(17)
H22 H 0.2412 0.5695 1.2700
C28 C 0.2445(2) 0.68078(19) 1.17419(14)
H23 H 0.1458 0.6941 1.1775
C29 C 0.1534(2) 0.59146(19) 0.89807(14)
Cl1? Cl 0.3336(4) 0.8896(4) 0.4650(3)
Cl2? Cl 0.59998(12) 0.79541(10) 0.48693(8)
Cl3? Cl 0.6203(4) 1.0853(4) 0.5155(3)
C30? C 0.5173(4) 0.9089(4) 0.4450(3)
H24? H 0.5145 0.8840 0.3690
loop_
_geom_bond_atom_site_label_1
_geom_bond_atom_site_label_2
_geom_bond_site_symmetry_1
_geom_bond_site_symmetry_2
O1 C1 1_555 1_555
N1 C29 1_555 1_555
C1 C2 1_555 1_555
C2 C3 1_555 1_555
C3 C4 1_555 1_555
C4 H1 1_555 1_555
C5 C4 1_555 1_555
H2 C5 1_555 1_555
C6 C5 1_555 1_555
H3 C6 1_555 1_555
C7 C6 1_555 1_555
C8 C7 1_555 1_555
C9 C8 1_555 1_555
C10 C9 1_555 1_555
C11 O1 1_555 1_555
C12 C3 1_555 1_555
C13 C1 1_555 1_555
C14 C13 1_555 1_555
H4 C14 1_555 1_555
C15 C14 1_555 1_555
H5 C15 1_555 1_555
C16 C15 1_555 1_555
H6 C16 1_555 1_555
C17 C16 1_555 1_555
H7 C17 1_555 1_555
C18 C13 1_555 1_555
H8 C18 1_555 1_555
C19 C2 1_555 1_555
H9 C19 1_555 1_555
H10 C19 1_555 1_555
C20 C19 1_555 1_555
H11 C20 1_555 1_555
H12 C20 1_555 1_555
H13 C20 1_555 1_555
C21 C8 1_555 1_555
H14 C21 1_555 1_555
H15 C21 1_555 1_555
C22 C21 1_555 1_555
H16 C22 1_555 1_555
H17 C22 1_555 1_555
H18 C22 1_555 1_555
C23 C9 1_555 1_555
C24 C23 1_555 1_555
H19 C24 1_555 1_555
C25 C24 1_555 1_555
H20 C25 1_555 1_555
C26 C25 1_555 1_555
H21 C26 1_555 1_555
C27 C26 1_555 1_555
H22 C27 1_555 1_555
C28 C23 1_555 1_555
H23 C28 1_555 1_555
C29 C10 1_555 1_555
C7 C12 1_555 1_555
C10 C11 1_555 1_555
C11 C12 1_555 1_555
C17 C18 1_555 1_555
C27 C28 1_555 1_555

#END
