
#######################################################################
#
#                 Cambridge Crystallographic Data Centre
#                                CCDC 
#
#######################################################################
#
# If this CIF has been generated from an entry in the Cambridge 
# Structural Database, then it will include bibliographic, chemical, 
# crystal, experimental, refinement or atomic coordinate data resulting 
# from the CCDC's data processing and validation procedures.
#
#######################################################################

data_PENCIW
_chemical_formula_moiety         'C40 H68 B2 O4 S2 Si2'
_chemical_name_systematic        
(4,8-bis(4,4,5,5-tetramethyl-1,3,2-dioxaborolan-2-yl)thieno[2,3-f][1]benzothiene-2,6-diyl)bis(triisopropylsilane)
_symmetry_cell_setting           monoclinic
_symmetry_space_group_name_H-M   'P 21'
_symmetry_Int_Tables_number      4
_space_group_name_Hall           'P 2yb'
loop_
_symmetry_equiv_pos_site_id
_symmetry_equiv_pos_as_xyz
1 x,y,z
2 -x,1/2+y,-z
_cell_length_a                   12.3238(9)
_cell_length_b                   13.3375(7)
_cell_length_c                   14.9419(11)
_cell_angle_alpha                90
_cell_angle_beta                 113.6966(10)
_cell_angle_gamma                90
_cell_volume                     2248.91
_exptl_crystal_colour            colorless
_exptl_crystal_description       block
_cell_formula_units_Z            2
loop_
_atom_site_label
_atom_site_type_symbol
_atom_site_fract_x
_atom_site_fract_y
_atom_site_fract_z
S1 S -0.17658(4) 0.34993(4) 0.80902(3)
C1 C -0.06550(17) 0.26179(19) 0.86818(13)
C2 C 0.03870(17) 0.29090(18) 0.86431(13)
H1 H 0.1081 0.2539 0.8933
C3 C 0.03384(15) 0.38224(16) 0.81257(12)
C4 C 0.12550(15) 0.42763(16) 0.79267(12)
C5 C 0.09505(15) 0.51541(16) 0.73691(11)
S2 S 0.18804(4) 0.58964(4) 0.70165(4)
C6 C 0.07576(17) 0.67517(18) 0.63982(13)
C7 C -0.02800(18) 0.64812(18) 0.64669(12)
H2 H -0.0975 0.6852 0.6186
C8 C -0.02007(16) 0.55719(16) 0.70124(12)
C9 C -0.11292(16) 0.51231(18) 0.71961(12)
C10 C -0.08195(16) 0.42438(18) 0.77623(12)
Si1 Si -0.08423(5) 0.14680(5) 0.93305(4)
C11 C -0.2390(2) 0.0977(3) 0.86905(17)
H3 H -0.2910 0.1495 0.8768
C12 C -0.2600(3) 0.0024(3) 0.9200(2)
H4 H -0.3410 -0.0187 0.8873
H5 H -0.2435 0.0173 0.9871
H6 H -0.2085 -0.0504 0.9170
C13 C -0.2814(4) 0.0805(4) 0.7614(2)
H7 H -0.2467 0.0200 0.7499
H8 H -0.2586 0.1361 0.7320
H9 H -0.3662 0.0743 0.7332
C14 C -0.0624(2) 0.1835(2) 1.06233(15)
H10 H -0.0488 0.1215 1.1005
C15 C 0.0445(3) 0.2506(3) 1.1132(2)
H11 H 0.0415 0.3066 1.0719
H12 H 0.1158 0.2131 1.1264
H13 H 0.0440 0.2746 1.1736
C16 C -0.1726(3) 0.2337(4) 1.0660(2)
H14 H -0.1544 0.2583 1.1308
H15 H -0.2358 0.1857 1.0488
H16 H -0.1966 0.2886 1.0206
C17 C 0.0298(2) 0.0511(2) 0.9387(2)
H17 H 0.0028 -0.0117 0.9570
C18 C 0.1564(3) 0.0664(3) 1.0155(3)
H18 H 0.2000 0.0049 1.0241
H19 H 0.1538 0.0858 1.0765
H20 H 0.1947 0.1180 0.9940
C19 C 0.0369(3) 0.0295(4) 0.8412(2)
H21 H 0.0692 0.0868 0.8216
H22 H -0.0410 0.0158 0.7928
H23 H 0.0870 -0.0275 0.8479
Si2 Si 0.09819(5) 0.79174(5) 0.57878(4)
C20 C 0.1973(3) 0.7546(3) 0.51548(17)
H24 H 0.2690 0.7264 0.5663
C21 C 0.1460(4) 0.6733(4) 0.4408(3)
H25 H 0.0642 0.6876 0.4017
H26 H 0.1522 0.6101 0.4733
H27 H 0.1889 0.6701 0.3995
C22 C 0.2375(3) 0.8434(4) 0.4738(2)
H28 H 0.2650 0.8205 0.4256
H29 H 0.3007 0.8772 0.5253
H30 H 0.1723 0.8887 0.4440
C23 C 0.1795(3) 0.8860(3) 0.6774(2)
H31 H 0.1343 0.8886 0.7183
C24 C 0.3017(4) 0.8567(4) 0.7457(2)
H32 H 0.3542 0.8620 0.7128
H33 H 0.3012 0.7888 0.7668
H34 H 0.3284 0.9004 0.8014
C25 C 0.1764(4) 0.9939(3) 0.6404(3)
H35 H 0.2101 1.0384 0.6951
H36 H 0.0959 1.0130 0.6021
H37 H 0.2214 0.9976 0.6009
C26 C -0.0466(3) 0.8466(3) 0.4989(2)
H38 H -0.0275 0.9030 0.4657
C27 C -0.1272(4) 0.7769(4) 0.4161(2)
H39 H -0.1144 0.7086 0.4380
H40 H -0.1086 0.7845 0.3600
H41 H -0.2086 0.7945 0.3990
C28 C -0.1148(3) 0.8936(3) 0.5562(4)
H42 H -0.1759 0.9370 0.5137
H43 H -0.0609 0.9315 0.6105
H44 H -0.1498 0.8412 0.5799
B1 B 0.2529(2) 0.3826(2) 0.83370(15)
O1 O 0.28648(14) 0.30550(15) 0.89939(12)
C29 C 0.40501(19) 0.2719(2) 0.91265(16)
C30 C 0.45031(19) 0.3625(2) 0.87172(18)
O2 O 0.34155(13) 0.41441(15) 0.80973(11)
C31 C 0.3873(4) 0.1785(3) 0.8509(3)
H45 H 0.3315 0.1350 0.8616
H46 H 0.4616 0.1443 0.8689
H47 H 0.3575 0.1968 0.7831
C32 C 0.4721(3) 0.2472(3) 1.0184(2)
H48 H 0.4817 0.3068 1.0569
H49 H 0.5486 0.2209 1.0282
H50 H 0.4290 0.1980 1.0379
C33 C 0.5226(2) 0.3375(4) 0.8179(2)
H51 H 0.4788 0.2938 0.7644
H52 H 0.5937 0.3045 0.8607
H53 H 0.5428 0.3978 0.7930
C34 C 0.5167(3) 0.4377(4) 0.9537(3)
H54 H 0.5234 0.5009 0.9254
H55 H 0.5945 0.4124 0.9924
H56 H 0.4738 0.4469 0.9943
B2 B -0.2412(2) 0.5585(2) 0.67805(16)
O3 O -0.27213(16) 0.63883(18) 0.61984(16)
C35 C -0.3942(2) 0.6614(3) 0.5949(2)
C36 C -0.4350(2) 0.5819(3) 0.6449(2)
O4 O -0.33062(14) 0.52343(17) 0.69857(13)
C37 C -0.3959(5) 0.7626(6) 0.6282(7)
H57 H -0.3336 0.8006 0.6213
H58 H -0.3844 0.7616 0.6957
H59 H -0.4710 0.7929 0.5899
C38 C -0.4542(5) 0.6608(10) 0.4841(3)
H60 H -0.5301 0.6929 0.4634
H61 H -0.4646 0.5928 0.4610
H62 H -0.4058 0.6962 0.4578
C39 C -0.4750(5) 0.6239(6) 0.7197(4)
H63 H -0.4942 0.5699 0.7532
H64 H -0.5439 0.6650 0.6878
H65 H -0.4127 0.6637 0.7658
C40 C -0.5277(5) 0.5128(6) 0.5832(6)
H66 H -0.5052 0.4848 0.5340
H67 H -0.6010 0.5485 0.5525
H68 H -0.5374 0.4598 0.6229
loop_
_geom_bond_atom_site_label_1
_geom_bond_atom_site_label_2
_geom_bond_site_symmetry_1
_geom_bond_site_symmetry_2
S1 C1 1_555 1_555
C1 C2 1_555 1_555
C2 H1 1_555 1_555
C3 C2 1_555 1_555
C4 C3 1_555 1_555
C5 C4 1_555 1_555
S2 C5 1_555 1_555
C6 S2 1_555 1_555
C7 C6 1_555 1_555
H2 C7 1_555 1_555
C8 C5 1_555 1_555
C9 C8 1_555 1_555
C10 S1 1_555 1_555
Si1 C1 1_555 1_555
C11 Si1 1_555 1_555
H3 C11 1_555 1_555
C12 C11 1_555 1_555
H4 C12 1_555 1_555
H5 C12 1_555 1_555
H6 C12 1_555 1_555
C13 C11 1_555 1_555
H7 C13 1_555 1_555
H8 C13 1_555 1_555
H9 C13 1_555 1_555
C14 Si1 1_555 1_555
H10 C14 1_555 1_555
C15 C14 1_555 1_555
H11 C15 1_555 1_555
H12 C15 1_555 1_555
H13 C15 1_555 1_555
C16 C14 1_555 1_555
H14 C16 1_555 1_555
H15 C16 1_555 1_555
H16 C16 1_555 1_555
C17 Si1 1_555 1_555
H17 C17 1_555 1_555
C18 C17 1_555 1_555
H18 C18 1_555 1_555
H19 C18 1_555 1_555
H20 C18 1_555 1_555
C19 C17 1_555 1_555
H21 C19 1_555 1_555
H22 C19 1_555 1_555
H23 C19 1_555 1_555
Si2 C6 1_555 1_555
C20 Si2 1_555 1_555
H24 C20 1_555 1_555
C21 C20 1_555 1_555
H25 C21 1_555 1_555
H26 C21 1_555 1_555
H27 C21 1_555 1_555
C22 C20 1_555 1_555
H28 C22 1_555 1_555
H29 C22 1_555 1_555
H30 C22 1_555 1_555
C23 Si2 1_555 1_555
H31 C23 1_555 1_555
C24 C23 1_555 1_555
H32 C24 1_555 1_555
H33 C24 1_555 1_555
H34 C24 1_555 1_555
C25 C23 1_555 1_555
H35 C25 1_555 1_555
H36 C25 1_555 1_555
H37 C25 1_555 1_555
C26 Si2 1_555 1_555
H38 C26 1_555 1_555
C27 C26 1_555 1_555
H39 C27 1_555 1_555
H40 C27 1_555 1_555
H41 C27 1_555 1_555
C28 C26 1_555 1_555
H42 C28 1_555 1_555
H43 C28 1_555 1_555
H44 C28 1_555 1_555
B1 C4 1_555 1_555
O1 B1 1_555 1_555
C29 O1 1_555 1_555
C30 C29 1_555 1_555
O2 B1 1_555 1_555
C31 C29 1_555 1_555
H45 C31 1_555 1_555
H46 C31 1_555 1_555
H47 C31 1_555 1_555
C32 C29 1_555 1_555
H48 C32 1_555 1_555
H49 C32 1_555 1_555
H50 C32 1_555 1_555
C33 C30 1_555 1_555
H51 C33 1_555 1_555
H52 C33 1_555 1_555
H53 C33 1_555 1_555
C34 C30 1_555 1_555
H54 C34 1_555 1_555
H55 C34 1_555 1_555
H56 C34 1_555 1_555
B2 C9 1_555 1_555
O3 B2 1_555 1_555
C35 O3 1_555 1_555
C36 C35 1_555 1_555
O4 B2 1_555 1_555
C37 C35 1_555 1_555
H57 C37 1_555 1_555
H58 C37 1_555 1_555
H59 C37 1_555 1_555
C38 C35 1_555 1_555
H60 C38 1_555 1_555
H61 C38 1_555 1_555
H62 C38 1_555 1_555
C39 C36 1_555 1_555
H63 C39 1_555 1_555
H64 C39 1_555 1_555
H65 C39 1_555 1_555
C40 C36 1_555 1_555
H66 C40 1_555 1_555
H67 C40 1_555 1_555
H68 C40 1_555 1_555
C3 C10 1_555 1_555
C7 C8 1_555 1_555
C9 C10 1_555 1_555
C30 O2 1_555 1_555
C36 O4 1_555 1_555

#END
