
#######################################################################
#
#                 Cambridge Crystallographic Data Centre
#                                CCDC 
#
#######################################################################
#
# If this CIF has been generated from an entry in the Cambridge 
# Structural Database, then it will include bibliographic, chemical, 
# crystal, experimental, refinement or atomic coordinate data resulting 
# from the CCDC's data processing and validation procedures.
#
#######################################################################

data_PENCOC
_chemical_formula_moiety         'C40 H68 B2 O4 Se2 Si2'
_chemical_name_systematic        
(4,8-bis(4,4,5,5-tetramethyl-1,3,2-dioxaborolan-2-yl)selenopheno[2,3-f][1]benzoselenophene-2,6-diyl)bis(triisopropylsilane)
_symmetry_cell_setting           monoclinic
_symmetry_space_group_name_H-M   'P 21/n'
_symmetry_Int_Tables_number      14
_space_group_name_Hall           '-P 2yn'
loop_
_symmetry_equiv_pos_site_id
_symmetry_equiv_pos_as_xyz
1 x,y,z
2 1/2-x,1/2+y,1/2-z
3 -x,-y,-z
4 1/2+x,1/2-y,1/2+z
_cell_length_a                   12.433(8)
_cell_length_b                   13.331(8)
_cell_length_c                   14.725(10)
_cell_angle_alpha                90
_cell_angle_beta                 113.371(2)
_cell_angle_gamma                90
_cell_volume                     2240.35
_exptl_crystal_colour            colorless
_exptl_crystal_description       block
_cell_formula_units_Z            2
loop_
_atom_site_label
_atom_site_type_symbol
_atom_site_fract_x
_atom_site_fract_y
_atom_site_fract_z
Se1 Se 0.25628(3) 0.12094(2) 0.45163(3)
Si1 Si 0.23473(8) 0.32354(7) 0.31291(7)
O1 O 0.2299(2) -0.0566(2) 0.5637(2)
O2 O 0.3669(3) -0.1688(2) 0.6480(3)
C1 C 0.4238(2) -0.0439(2) 0.5421(2)
C2 C 0.3937(2) 0.0439(2) 0.4844(2)
C3 C 0.3158(3) 0.2098(2) 0.3825(2)
C4 C 0.4197(3) 0.1781(2) 0.3876(2)
C5 C 0.4679(3) 0.0868(2) 0.4431(2)
C6 C 0.1811(4) -0.1105(3) 0.6241(4)
C7 C 0.2977(8) -0.2283(8) 0.7694(6)
C8 C 0.2214(7) -0.2942(5) 0.6063(8)
C9 C 0.2636(4) -0.1980(3) 0.6653(4)
C10 C 0.1851(10) -0.0388(6) 0.7031(7)
C11 C 0.0572(6) -0.1352(7) 0.5635(8)
C12 C 0.3394(5) 0.4100(4) 0.2873(4)
C13 C 0.3799(7) 0.3846(5) 0.2078(7)
C14 C 0.4470(6) 0.4366(5) 0.3777(6)
C15 C 0.1565(6) 0.3833(4) 0.3812(5)
C16 C 0.2182(9) 0.4082(7) 0.4854(5)
C17 C 0.0792(9) 0.4739(7) 0.3244(7)
C18 C 0.1222(5) 0.2822(4) 0.1874(3)
C19 C 0.0148(5) 0.2354(6) 0.1907(6)
C20 C 0.1696(9) 0.2082(6) 0.1340(5)
B1 B 0.3398(3) -0.0914(3) 0.5846(3)
H1 H 0.4612 0.2140 0.3549
H2 H 0.2330 -0.2470 0.7823
H3 H 0.3534 -0.2822 0.7856
H4 H 0.3370 -0.1722 0.8122
H5 H 0.1523 -0.3175 0.6118
H6 H 0.2022 -0.2799 0.5366
H7 H 0.2798 -0.3437 0.6269
H8 H 0.2689 -0.0201 0.7423
H9 H 0.1453 0.0210 0.6779
H10 H 0.1588 -0.0687 0.7487
H11 H 0.0120 -0.0760 0.5363
H12 H 0.0517 -0.1763 0.5061
H13 H 0.0222 -0.1719 0.5989
H14 H 0.4296 0.3281 0.2259
H15 H 0.3119 0.3680 0.1481
H16 H 0.4183 0.4397 0.1934
H17 H 0.5003 0.3804 0.3974
H18 H 0.4889 0.4917 0.3644
H19 H 0.4282 0.4545 0.4321
H20 H 0.2603 0.3502 0.5191
H21 H 0.2674 0.4616 0.4914
H22 H 0.1614 0.4244 0.5126
H23 H 0.1312 0.5304 0.3311
H24 H 0.0406 0.4586 0.2568
H25 H 0.0250 0.4925 0.3516
H26 H -0.0190 0.2800 0.2244
H27 H -0.0421 0.2208 0.1277
H28 H 0.0355 0.1744 0.2293
H29 H 0.1891 0.1457 0.1709
H30 H 0.1115 0.1925 0.0695
H31 H 0.2371 0.2330 0.1281
H32 H 0.0979 0.3340 0.3809
H33 H 0.0965 0.3397 0.1452
H34 H 0.2981 0.4726 0.2676
Se1B Se 0.74372(3) -0.12094(2) 0.54837(3)
Si1B Si 0.76527(8) -0.32354(7) 0.68709(7)
O1B O 0.7701(2) 0.0566(2) 0.4363(2)
O2B O 0.6331(3) 0.1688(2) 0.3520(3)
C1B C 0.5762(2) 0.0439(2) 0.4579(2)
C2B C 0.6063(2) -0.0439(2) 0.5156(2)
C3B C 0.6842(3) -0.2098(2) 0.6175(2)
C4B C 0.5803(3) -0.1781(2) 0.6124(2)
C5B C 0.5321(3) -0.0868(2) 0.5569(2)
C6B C 0.8189(4) 0.1105(3) 0.3759(4)
C7B C 0.7023(8) 0.2283(8) 0.2306(6)
C8B C 0.7786(7) 0.2942(5) 0.3937(8)
C9B C 0.7364(4) 0.1980(3) 0.3347(4)
C10B C 0.8149(10) 0.0388(6) 0.2969(7)
C11B C 0.9428(6) 0.1352(7) 0.4365(8)
C12B C 0.6606(5) -0.4100(4) 0.7127(4)
C13B C 0.6201(7) -0.3846(5) 0.7922(7)
C14B C 0.5530(6) -0.4366(5) 0.6223(6)
C15B C 0.8435(6) -0.3833(4) 0.6188(5)
C16B C 0.7818(9) -0.4082(7) 0.5146(5)
C17B C 0.9208(9) -0.4739(7) 0.6756(7)
C18B C 0.8778(5) -0.2822(4) 0.8126(3)
C19B C 0.9852(5) -0.2354(6) 0.8093(6)
C20B C 0.8304(9) -0.2082(6) 0.8660(5)
B1B B 0.6602(3) 0.0914(3) 0.4154(3)
H1B H 0.5388 -0.2140 0.6451
H2B H 0.7670 0.2470 0.2177
H3B H 0.6466 0.2822 0.2144
H4B H 0.6630 0.1722 0.1878
H5B H 0.8477 0.3175 0.3882
H6B H 0.7978 0.2799 0.4634
H7B H 0.7202 0.3437 0.3731
H8B H 0.7311 0.0201 0.2577
H9B H 0.8547 -0.0210 0.3221
H10B H 0.8412 0.0687 0.2513
H11B H 0.9880 0.0760 0.4637
H12B H 0.9483 0.1763 0.4939
H13B H 0.9778 0.1719 0.4011
H14B H 0.5704 -0.3281 0.7741
H15B H 0.6881 -0.3680 0.8519
H16B H 0.5817 -0.4397 0.8066
H17B H 0.4997 -0.3804 0.6026
H18B H 0.5111 -0.4917 0.6356
H19B H 0.5718 -0.4545 0.5679
H20B H 0.7397 -0.3502 0.4809
H21B H 0.7326 -0.4616 0.5086
H22B H 0.8386 -0.4244 0.4874
H23B H 0.8688 -0.5304 0.6689
H24B H 0.9594 -0.4586 0.7432
H25B H 0.9750 -0.4925 0.6484
H26B H 1.0190 -0.2800 0.7756
H27B H 1.0421 -0.2208 0.8723
H28B H 0.9645 -0.1744 0.7707
H29B H 0.8109 -0.1457 0.8291
H30B H 0.8885 -0.1925 0.9305
H31B H 0.7629 -0.2330 0.8719
H32B H 0.9021 -0.3340 0.6191
H33B H 0.9035 -0.3397 0.8548
H34B H 0.7019 -0.4726 0.7324
loop_
_geom_bond_atom_site_label_1
_geom_bond_atom_site_label_2
_geom_bond_site_symmetry_1
_geom_bond_site_symmetry_2
Se1 C2 1_555 1_555
Si1 C3 1_555 1_555
O1 C6 1_555 1_555
O2 C9 1_555 1_555
C1 C2 1_555 1_555
C2 C5 1_555 1_555
C3 Se1 1_555 1_555
C4 C3 1_555 1_555
C5 C4 1_555 1_555
C6 C9 1_555 1_555
C7 C9 1_555 1_555
C8 C9 1_555 1_555
C10 C6 1_555 1_555
C11 C6 1_555 1_555
C12 Si1 1_555 1_555
C13 C12 1_555 1_555
C14 C12 1_555 1_555
C15 Si1 1_555 1_555
C16 C15 1_555 1_555
C17 C15 1_555 1_555
C18 Si1 1_555 1_555
C19 C18 1_555 1_555
C20 C18 1_555 1_555
B1 O1 1_555 1_555
H1 C4 1_555 1_555
H2 C7 1_555 1_555
H3 C7 1_555 1_555
H4 C7 1_555 1_555
H5 C8 1_555 1_555
H6 C8 1_555 1_555
H7 C8 1_555 1_555
H8 C10 1_555 1_555
H9 C10 1_555 1_555
H10 C10 1_555 1_555
H11 C11 1_555 1_555
H12 C11 1_555 1_555
H13 C11 1_555 1_555
H14 C13 1_555 1_555
H15 C13 1_555 1_555
H16 C13 1_555 1_555
H17 C14 1_555 1_555
H18 C14 1_555 1_555
H19 C14 1_555 1_555
H20 C16 1_555 1_555
H21 C16 1_555 1_555
H22 C16 1_555 1_555
H23 C17 1_555 1_555
H24 C17 1_555 1_555
H25 C17 1_555 1_555
H26 C19 1_555 1_555
H27 C19 1_555 1_555
H28 C19 1_555 1_555
H29 C20 1_555 1_555
H30 C20 1_555 1_555
H31 C20 1_555 1_555
H32 C15 1_555 1_555
H33 C18 1_555 1_555
H34 C12 1_555 1_555
Se1B C2B 1_555 1_555
Si1B C3B 1_555 1_555
O1B C6B 1_555 1_555
O2B C9B 1_555 1_555
C1B C5 1_555 1_555
C2B C1B 1_555 1_555
C3B Se1B 1_555 1_555
C4B C3B 1_555 1_555
C5B C1 1_555 1_555
C6B C9B 1_555 1_555
C7B C9B 1_555 1_555
C8B C9B 1_555 1_555
C10B C6B 1_555 1_555
C11B C6B 1_555 1_555
C12B Si1B 1_555 1_555
C13B C12B 1_555 1_555
C14B C12B 1_555 1_555
C15B Si1B 1_555 1_555
C16B C15B 1_555 1_555
C17B C15B 1_555 1_555
C18B Si1B 1_555 1_555
C19B C18B 1_555 1_555
C20B C18B 1_555 1_555
B1B O1B 1_555 1_555
H1B C4B 1_555 1_555
H2B C7B 1_555 1_555
H3B C7B 1_555 1_555
H4B C7B 1_555 1_555
H5B C8B 1_555 1_555
H6B C8B 1_555 1_555
H7B C8B 1_555 1_555
H8B C10B 1_555 1_555
H9B C10B 1_555 1_555
H10B C10B 1_555 1_555
H11B C11B 1_555 1_555
H12B C11B 1_555 1_555
H13B C11B 1_555 1_555
H14B C13B 1_555 1_555
H15B C13B 1_555 1_555
H16B C13B 1_555 1_555
H17B C14B 1_555 1_555
H18B C14B 1_555 1_555
H19B C14B 1_555 1_555
H20B C16B 1_555 1_555
H21B C16B 1_555 1_555
H22B C16B 1_555 1_555
H23B C17B 1_555 1_555
H24B C17B 1_555 1_555
H25B C17B 1_555 1_555
H26B C19B 1_555 1_555
H27B C19B 1_555 1_555
H28B C19B 1_555 1_555
H29B C20B 1_555 1_555
H30B C20B 1_555 1_555
H31B C20B 1_555 1_555
H32B C15B 1_555 1_555
H33B C18B 1_555 1_555
H34B C12B 1_555 1_555
O2 B1 1_555 1_555
C1 B1 1_555 1_555
O2B B1B 1_555 1_555
C1B B1B 1_555 1_555
C2B C5B 1_555 1_555
C4B C5B 1_555 1_555

#END
