
#######################################################################
#
#                 Cambridge Crystallographic Data Centre
#                                CCDC 
#
#######################################################################
#
# If this CIF has been generated from an entry in the Cambridge 
# Structural Database, then it will include bibliographic, chemical, 
# crystal, experimental, refinement or atomic coordinate data resulting 
# from the CCDC's data processing and validation procedures.
#
#######################################################################

data_PENGOG
_chemical_formula_moiety         'C14 H23 N1 O5'
_chemical_name_systematic        
'Ethyl 8-(1,3-dioxolan-2-yl)-7,7-dimethyl-3-oxa-4-azabicyclo[4.2.0]octane-4-carboxylate'
_symmetry_cell_setting           triclinic
_symmetry_space_group_name_H-M   'P -1'
_symmetry_Int_Tables_number      2
_space_group_name_Hall           '-P 1'
loop_
_symmetry_equiv_pos_site_id
_symmetry_equiv_pos_as_xyz
1 x,y,z
2 -x,-y,-z
_cell_length_a                   6.2528(6)
_cell_length_b                   9.4257(9)
_cell_length_c                   13.6643(14)
_cell_angle_alpha                104.187(1)
_cell_angle_beta                 101.932(1)
_cell_angle_gamma                102.161(1)
_cell_volume                     734.338
_exptl_crystal_colour            colorless
_exptl_crystal_description       block
_cell_formula_units_Z            2
loop_
_atom_site_label
_atom_site_type_symbol
_atom_site_fract_x
_atom_site_fract_y
_atom_site_fract_z
O1 O 0.64004(19) 0.09512(12) 0.76835(9)
O2 O 1.0990(2) 0.28787(12) 0.99101(8)
O3 O 1.01464(17) 0.06227(11) 0.86560(8)
O4 O 0.2447(2) 0.15981(13) 0.49664(8)
O5 O 0.08553(17) 0.34276(12) 0.55929(8)
N1 N 0.7645(2) 0.20200(15) 0.86543(10)
C1 C 0.7035(3) 0.15065(18) 0.68585(12)
H1 H 0.6139 0.0771 0.6169
H2 H 0.8663 0.1584 0.6918
C2 C 0.6632(2) 0.30396(16) 0.69138(11)
H3 H 0.7447 0.3510 0.6465
C3 C 0.7208(2) 0.42061(15) 0.80189(10)
H4 H 0.8703 0.4988 0.8211
C4 C 0.6941(3) 0.34138(17) 0.88486(11)
H5 H 0.7863 0.4114 0.9546
H6 H 0.5329 0.3172 0.8861
C5 C 0.9729(3) 0.19270(16) 0.91257(11)
C6 C 1.2195(2) 0.03711(17) 0.92253(12)
H7 H 1.2096 0.0350 0.9936
H8 H 1.3541 0.1201 0.9298
C7 C 1.2400(3) -0.1120(2) 0.86169(14)
H9 H 1.3721 -0.1351 0.9004
H10 H 1.2592 -0.1065 0.7932
H11 H 1.1021 -0.1924 0.8516
C8 C 0.4199(2) 0.32210(15) 0.67123(10)
H12 H 0.3245 0.2474 0.6966
C9 C 0.5128(2) 0.47771(15) 0.75891(10)
C10 C 0.5927(3) 0.61198(17) 0.71930(13)
H13 H 0.4610 0.6305 0.6767
H14 H 0.6962 0.5888 0.6766
H15 H 0.6724 0.7029 0.7792
C11 C 0.3610(3) 0.51754(18) 0.82891(12)
H16 H 0.2342 0.5451 0.7899
H17 H 0.4494 0.6037 0.8908
H18 H 0.3016 0.4295 0.8512
C12 C 0.2965(2) 0.31087(16) 0.56232(11)
H19 H 0.3919 0.3822 0.5346
C13 C 0.0485(3) 0.13884(18) 0.41424(12)
H20 H -0.0624 0.0395 0.4005
H21 H 0.0905 0.1432 0.3488
C14 C -0.0501(3) 0.2693(2) 0.45363(12)
H22 H -0.0385 0.3403 0.4110
H23 H -0.2118 0.2306 0.4511
loop_
_geom_bond_atom_site_label_1
_geom_bond_atom_site_label_2
_geom_bond_site_symmetry_1
_geom_bond_site_symmetry_2
O1 N1 1_555 1_555
O2 C5 1_555 1_555
O3 C5 1_555 1_555
O4 C12 1_555 1_555
O5 C12 1_555 1_555
N1 C4 1_555 1_555
C1 O1 1_555 1_555
H1 C1 1_555 1_555
H2 C1 1_555 1_555
C2 C1 1_555 1_555
H3 C2 1_555 1_555
C3 C2 1_555 1_555
H4 C3 1_555 1_555
C4 C3 1_555 1_555
H5 C4 1_555 1_555
H6 C4 1_555 1_555
C5 N1 1_555 1_555
C6 O3 1_555 1_555
H7 C6 1_555 1_555
H8 C6 1_555 1_555
C7 C6 1_555 1_555
H9 C7 1_555 1_555
H10 C7 1_555 1_555
H11 C7 1_555 1_555
C8 C2 1_555 1_555
H12 C8 1_555 1_555
C9 C3 1_555 1_555
C10 C9 1_555 1_555
H13 C10 1_555 1_555
H14 C10 1_555 1_555
H15 C10 1_555 1_555
C11 C9 1_555 1_555
H16 C11 1_555 1_555
H17 C11 1_555 1_555
H18 C11 1_555 1_555
C12 C8 1_555 1_555
H19 C12 1_555 1_555
C13 O4 1_555 1_555
H20 C13 1_555 1_555
H21 C13 1_555 1_555
C14 O5 1_555 1_555
H22 C14 1_555 1_555
H23 C14 1_555 1_555
C8 C9 1_555 1_555
C13 C14 1_555 1_555

#END
