
#######################################################################
#
#                 Cambridge Crystallographic Data Centre
#                                CCDC 
#
#######################################################################
#
# If this CIF has been generated from an entry in the Cambridge 
# Structural Database, then it will include bibliographic, chemical, 
# crystal, experimental, refinement or atomic coordinate data resulting 
# from the CCDC's data processing and validation procedures.
#
#######################################################################

data_PENJOK
_chemical_formula_moiety         'C7 H4 N2 O6,C7 H3 N2 O6 1-,C4 H7 N2 1+'
_chemical_name_systematic        
'2-methyl-1H-imidazol-3-ium 3,5-dinitrobenzoate 3,5-dinitrobenzoic acid'
_symmetry_cell_setting           monoclinic
_symmetry_space_group_name_H-M   'P 21/c'
_symmetry_Int_Tables_number      14
_space_group_name_Hall           '-P 2ybc'
loop_
_symmetry_equiv_pos_site_id
_symmetry_equiv_pos_as_xyz
1 x,y,z
2 -x,1/2+y,1/2-z
3 -x,-y,-z
4 x,1/2-y,1/2+z
_cell_length_a                   10.000(2)
_cell_length_b                   22.000(4)
_cell_length_c                   9.800(2)
_cell_angle_alpha                90
_cell_angle_beta                 93.00(3)
_cell_angle_gamma                90
_cell_volume                     2153.05
_exptl_crystal_colour            yellow
_exptl_crystal_description       block
_cell_formula_units_Z            4
loop_
_atom_site_label
_atom_site_type_symbol
_atom_site_fract_x
_atom_site_fract_y
_atom_site_fract_z
O1 O 0.34764(13) 0.44836(6) 0.60084(16)
C1 C 0.80539(18) 0.44852(9) 0.81948(19)
H1 H 0.8861 0.4579 0.8661
C2 C 0.59818(17) 0.48024(8) 0.70389(18)
H2 H 0.5411 0.5115 0.6744
O2 O 0.86549(15) 0.56810(7) 0.84666(17)
C3 C 0.43167(18) 0.40475(8) 0.60672(19)
O3 O 0.41335(16) 0.35427(7) 0.56073(18)
C4 C 0.56328(17) 0.42022(8) 0.68050(17)
N1 N 0.75430(17) 0.55710(8) 0.79614(18)
C5 C 0.64821(18) 0.37402(9) 0.72542(19)
O4 O 0.84273(16) 0.29067(8) 0.7926(2)
C6 C 0.71897(17) 0.49287(8) 0.77155(18)
C7 C 0.76641(18) 0.38943(9) 0.79494(19)
N2 N 0.85453(18) 0.34027(10) 0.8474(2)
O5 O 0.67081(17) 0.59542(7) 0.7649(2)
O6 O 0.9342(2) 0.35195(10) 0.9412(2)
H3 H 0.6228(19) 0.3339(10) 0.7101(19)
O7 O 1.13012(13) 0.43631(7) 0.47913(15)
H4 H 1.1992 0.4335 0.5276
C8 C 0.83125(17) 0.34788(8) 0.44865(18)
H5 H 0.8502 0.3187 0.5155
C9 C 0.88695(17) 0.43985(8) 0.33415(18)
H6 H 0.9448 0.4723 0.3221
C10 C 0.68341(18) 0.38657(10) 0.26545(19)
H7 H 0.6056 0.3832 0.2097
N3 N 0.63072(16) 0.29032(9) 0.37687(19)
C11 C 1.04415(18) 0.39996(8) 0.52077(19)
C12 C 0.91661(16) 0.39636(8) 0.43244(17)
C13 C 0.77004(18) 0.43438(9) 0.25405(18)
O8 O 0.64941(16) 0.25845(8) 0.47708(18)
O9 O 1.05403(16) 0.36869(9) 0.62347(18)
O10 O 0.54603(16) 0.28086(9) 0.28495(18)
C14 C 0.71750(17) 0.34373(9) 0.36374(19)
O11 O 0.63100(18) 0.47936(10) 0.08824(18)
N4 N 0.7385(2) 0.48181(10) 0.15101(18)
O12 O 0.8208(2) 0.52075(10) 0.1345(2)
N5 N 0.22004(18) 0.31964(9) 0.82086(18)
H8 H 0.1758 0.3413 0.7610
N6 N 0.2936(2) 0.24441(12) 0.9359(2)
H9 H 0.3060 0.2079 0.9650
C15 C 0.2104(2) 0.26051(11) 0.8323(3)
C16 C 0.3106(3) 0.34203(13) 0.9178(2)
H10 H 0.3349 0.3825 0.9308
C17 C 0.1221(3) 0.22049(12) 0.7477(4)
H11 H 0.0474 0.2083 0.7989
H12 H 0.1711 0.1852 0.7218
H13 H 0.0901 0.2419 0.6671
C18 C 0.3563(3) 0.29494(17) 0.9892(3)
H14 H 0.4196 0.2959 1.0621
loop_
_geom_bond_atom_site_label_1
_geom_bond_atom_site_label_2
_geom_bond_site_symmetry_1
_geom_bond_site_symmetry_2
O1 C3 1_555 1_555
C1 H1 1_555 1_555
C2 H2 1_555 1_555
O2 N1 1_555 1_555
C3 O3 1_555 1_555
C4 C2 1_555 1_555
N1 C6 1_555 1_555
C5 C4 1_555 1_555
O4 N2 1_555 1_555
C6 C1 1_555 1_555
C7 C1 1_555 1_555
N2 C7 1_555 1_555
O5 N1 1_555 1_555
O6 N2 1_555 1_555
H3 C5 1_555 1_555
O7 H4 1_555 1_555
C8 H5 1_555 1_555
C9 H6 1_555 1_555
C10 H7 1_555 1_555
N3 O8 1_555 1_555
C11 O7 1_555 1_555
C12 C8 1_555 1_555
C13 C9 1_555 1_555
O9 C11 1_555 1_555
O10 N3 1_555 1_555
C14 C8 1_555 1_555
O11 N4 1_555 1_555
N4 C13 1_555 1_555
O12 N4 1_555 1_555
N5 H8 1_555 1_555
N6 H9 1_555 1_555
C15 N5 1_555 1_555
C16 N5 1_555 1_555
H10 C16 1_555 1_555
C17 C15 1_555 1_555
H11 C17 1_555 1_555
H12 C17 1_555 1_555
H13 C17 1_555 1_555
C18 N6 1_555 1_555
H14 C18 1_555 1_555
C2 C6 1_555 1_555
C3 C4 1_555 1_555
C5 C7 1_555 1_555
C9 C12 1_555 1_555
C10 C13 1_555 1_555
C10 C14 1_555 1_555
N3 C14 1_555 1_555
C11 C12 1_555 1_555
N6 C15 1_555 1_555
C16 C18 1_555 1_555

#END
