
#######################################################################
#
#                 Cambridge Crystallographic Data Centre
#                                CCDC 
#
#######################################################################
#
# If this CIF has been generated from an entry in the Cambridge 
# Structural Database, then it will include bibliographic, chemical, 
# crystal, experimental, refinement or atomic coordinate data resulting 
# from the CCDC's data processing and validation procedures.
#
#######################################################################

data_PENTIO
_chemical_formula_moiety         'C13 H10 N4'
_chemical_name_systematic        Z-(phenylhydrazono)(pyridin-2-yl)acetonitrile
_symmetry_cell_setting           monoclinic
_symmetry_space_group_name_H-M   'P 21/n'
_symmetry_Int_Tables_number      14
_space_group_name_Hall           '-P 2yn'
loop_
_symmetry_equiv_pos_site_id
_symmetry_equiv_pos_as_xyz
1 x,y,z
2 1/2-x,1/2+y,1/2-z
3 -x,-y,-z
4 1/2+x,1/2-y,1/2+z
_cell_length_a                   13.2896(8)
_cell_length_b                   5.5930(3)
_cell_length_c                   16.4363(9)
_cell_angle_alpha                90
_cell_angle_beta                 108.323(6)
_cell_angle_gamma                90
_cell_volume                     1159.75
_cell_formula_units_Z            4
loop_
_atom_site_label
_atom_site_type_symbol
_atom_site_fract_x
_atom_site_fract_y
_atom_site_fract_z
N1 N 0.59365(10) 0.2651(2) 0.38241(7)
H1 H 0.5601 0.3633 0.4049
N2 N 0.72278(11) -0.1532(2) 0.63913(8)
N3 N 0.64849(9) 0.0869(2) 0.42819(7)
C1 C 0.59064(10) 0.2926(2) 0.29683(8)
C2 C 0.71456(10) -0.1465(2) 0.55596(8)
C3 C 0.65208(10) 0.0531(2) 0.50702(8)
C4 C 0.63779(12) 0.1273(3) 0.25713(10)
H2 H 0.6735 -0.0039 0.2875
C5 C 0.76192(11) -0.3143(3) 0.51738(10)
H3 H 0.7538 -0.3057 0.4592
C6 C 0.53858(13) 0.4875(3) 0.25113(10)
H4 H 0.5073 0.5997 0.2773
N4 N 0.54691(11) 0.3287(3) 0.57728(9)
C7 C 0.63136(14) 0.1587(3) 0.17267(10)
H5 H 0.6625 0.0472 0.1461
C8 C 0.59544(11) 0.2036(3) 0.54938(8)
C9 C 0.82104(12) -0.4931(3) 0.56729(12)
H6 H 0.8541 -0.6073 0.5433
C10 C 0.57955(13) 0.3526(3) 0.12682(10)
H7 H 0.5760 0.3731 0.0698
C11 C 0.78041(15) -0.3307(3) 0.68556(10)
H8 H 0.7866 -0.3386 0.7435
C12 C 0.53316(15) 0.5154(3) 0.16643(11)
H9 H 0.4976 0.6463 0.1357
C13 C 0.83091(13) -0.5017(3) 0.65291(12)
H10 H 0.8709 -0.6207 0.6879
loop_
_geom_bond_atom_site_label_1
_geom_bond_atom_site_label_2
_geom_bond_site_symmetry_1
_geom_bond_site_symmetry_2
N1 H1 1_555 1_555
N2 C2 1_555 1_555
N3 N1 1_555 1_555
C1 N1 1_555 1_555
C2 C3 1_555 1_555
C3 N3 1_555 1_555
C4 C1 1_555 1_555
H2 C4 1_555 1_555
C5 C2 1_555 1_555
H3 C5 1_555 1_555
C6 C1 1_555 1_555
H4 C6 1_555 1_555
N4 C8 1_555 1_555
C7 C4 1_555 1_555
H5 C7 1_555 1_555
C8 C3 1_555 1_555
C9 C5 1_555 1_555
H6 C9 1_555 1_555
C10 C7 1_555 1_555
H7 C10 1_555 1_555
C11 N2 1_555 1_555
H8 C11 1_555 1_555
C12 C6 1_555 1_555
H9 C12 1_555 1_555
C13 C9 1_555 1_555
H10 C13 1_555 1_555
C10 C12 1_555 1_555
C11 C13 1_555 1_555

#END
