
#######################################################################
#
#                 Cambridge Crystallographic Data Centre
#                                CCDC 
#
#######################################################################
#
# If this CIF has been generated from an entry in the Cambridge 
# Structural Database, then it will include bibliographic, chemical, 
# crystal, experimental, refinement or atomic coordinate data resulting 
# from the CCDC's data processing and validation procedures.
#
#######################################################################

data_PENXUE
_chemical_formula_moiety         'C19 H13 N1 O3'
_chemical_name_systematic        
1-[(naphthalen-2-yl)methyl]-2H-3,1-benzoxazine-2,4(1H)-dione
_symmetry_cell_setting           orthorhombic
_symmetry_space_group_name_H-M   'P 21 21 21'
_symmetry_Int_Tables_number      19
_space_group_name_Hall           'P 2ac 2ab'
loop_
_symmetry_equiv_pos_site_id
_symmetry_equiv_pos_as_xyz
1 x,y,z
2 1/2-x,-y,1/2+z
3 -x,1/2+y,1/2-z
4 1/2+x,1/2-y,-z
_cell_length_a                   7.983(2)
_cell_length_b                   8.609(3)
_cell_length_c                   21.040(6)
_cell_angle_alpha                90
_cell_angle_beta                 90
_cell_angle_gamma                90
_cell_volume                     1445.99
_exptl_crystal_colour            white
_exptl_crystal_description       block
_cell_formula_units_Z            4
loop_
_atom_site_label
_atom_site_type_symbol
_atom_site_fract_x
_atom_site_fract_y
_atom_site_fract_z
C1 C 0.8295(2) 0.2073(2) 0.13806(8)
N1 N 1.27489(19) 0.06836(18) 0.28782(7)
C2 C 1.0655(2) 0.1198(2) 0.20126(7)
O1 O 1.56095(17) 0.06985(19) 0.31153(7)
C3 C 1.2412(2) 0.1667(2) 0.33928(7)
C4 C 1.0783(2) 0.2119(2) 0.35497(8)
H1 H 0.9885 0.1803 0.3300
C5 C 1.3728(2) 0.2177(2) 0.37714(8)
C6 C 0.9370(2) 0.3048(2) 0.10229(8)
C7 C 0.8983(2) 0.1167(2) 0.18773(8)
H2 H 0.8280 0.0536 0.2117
C8 C 0.7028(3) 0.3814(3) 0.03698(10)
H3 H 0.6601 0.4367 0.0026
C9 C 1.5429(2) 0.1686(3) 0.36219(10)
C10 C 1.3428(3) 0.3093(3) 0.43005(9)
H4 H 1.4318 0.3420 0.4552
C11 C 1.1710(2) 0.2218(2) 0.16681(9)
H5 H 1.2842 0.2278 0.1769
C12 C 1.4332(3) 0.0167(3) 0.27445(9)
C13 C 1.1379(2) 0.0068(2) 0.24865(8)
H6 H 1.0487 -0.0278 0.2766
H7 H 1.1787 -0.0835 0.2258
C14 C 1.0515(3) 0.3032(2) 0.40746(9)
H8 H 0.9427 0.3327 0.4177
C15 C 1.1084(2) 0.3111(2) 0.11904(8)
H9 H 1.1796 0.3774 0.0970
O2 O 1.4685(2) -0.0718(2) 0.23244(7)
C16 C 0.6570(3) 0.2023(3) 0.12251(10)
H10 H 0.5847 0.1397 0.1459
C17 C 0.5967(3) 0.2887(3) 0.07348(11)
H11 H 0.4828 0.2860 0.0641
C18 C 1.1823(3) 0.3522(3) 0.44542(10)
H12 H 1.1619 0.4135 0.4810
O3 O 1.6680(2) 0.2019(3) 0.39034(9)
C19 C 0.8675(3) 0.3913(3) 0.05130(9)
H13 H 0.9364 0.4559 0.0274
loop_
_geom_bond_atom_site_label_1
_geom_bond_atom_site_label_2
_geom_bond_site_symmetry_1
_geom_bond_site_symmetry_2
C1 C6 1_555 1_555
N1 C3 1_555 1_555
C2 C7 1_555 1_555
O1 C9 1_555 1_555
C3 C4 1_555 1_555
C4 H1 1_555 1_555
C5 C3 1_555 1_555
C6 C15 1_555 1_555
C7 C1 1_555 1_555
H2 C7 1_555 1_555
C8 H3 1_555 1_555
C9 C5 1_555 1_555
C10 C5 1_555 1_555
H4 C10 1_555 1_555
C11 C2 1_555 1_555
H5 C11 1_555 1_555
C12 N1 1_555 1_555
C13 N1 1_555 1_555
H6 C13 1_555 1_555
H7 C13 1_555 1_555
C14 C4 1_555 1_555
H8 C14 1_555 1_555
C15 C11 1_555 1_555
H9 C15 1_555 1_555
O2 C12 1_555 1_555
C16 C1 1_555 1_555
H10 C16 1_555 1_555
C17 C8 1_555 1_555
H11 C17 1_555 1_555
C18 C10 1_555 1_555
H12 C18 1_555 1_555
O3 C9 1_555 1_555
C19 C6 1_555 1_555
H13 C19 1_555 1_555
C2 C13 1_555 1_555
O1 C12 1_555 1_555
C8 C19 1_555 1_555
C14 C18 1_555 1_555
C16 C17 1_555 1_555

#END
