
#######################################################################
#
#                 Cambridge Crystallographic Data Centre
#                                CCDC 
#
#######################################################################
#
# If this CIF has been generated from an entry in the Cambridge 
# Structural Database, then it will include bibliographic, chemical, 
# crystal, experimental, refinement or atomic coordinate data resulting 
# from the CCDC's data processing and validation procedures.
#
#######################################################################

data_PEPDEU
_chemical_compound_source        
'Thai medicinal plant Leea rubra Blume ex Spreng. (Leeaceae)'
_chemical_formula_moiety         'C13 H14 N4 O5'
_chemical_name_systematic        
(5-((2,4-Dinitrophenyl)hydrazono)-2-methylcyclopent-1-enyl)methanol
_chemical_properties_biological  
'inactive with regard to antimycobacterial activity'
_symmetry_cell_setting           triclinic
_symmetry_space_group_name_H-M   'P -1'
_symmetry_Int_Tables_number      2
_space_group_name_Hall           '-P 1'
loop_
_symmetry_equiv_pos_site_id
_symmetry_equiv_pos_as_xyz
1 x,y,z
2 -x,-y,-z
_cell_length_a                   7.3291(2)
_cell_length_b                   14.1613(6)
_cell_length_c                   15.2631(7)
_cell_angle_alpha                108.199(2)
_cell_angle_beta                 101.926(2)
_cell_angle_gamma                98.204(2)
_cell_volume                     1435.36
_exptl_crystal_colour            red
_exptl_crystal_description       Plate
_chemical_melting_point          183-186deg.C
_cell_formula_units_Z            4
loop_
_atom_site_label
_atom_site_type_symbol
_atom_site_fract_x
_atom_site_fract_y
_atom_site_fract_z
C1 C 0.2462(7) 0.2087(4) 0.4079(3)
C2 C 0.2434(8) 0.1229(4) 0.4434(3)
C3 C 0.2548(8) 0.0384(4) 0.3737(4)
C4 C 0.2683(8) 0.0593(4) 0.2848(4)
H1 H 0.1650 0.0141 0.2305
H2 H 0.3892 0.0498 0.2710
C5 C 0.2531(7) 0.1703(3) 0.3052(3)
H3 H 0.3633 0.2095 0.2965
H4 H 0.1381 0.1745 0.2632
C6 C 0.2113(10) 0.1380(4) 0.5382(4)
H5 H 0.0979 0.1656 0.5405
H6 H 0.1837 0.0717 0.5444
O1 O 0.3604(10) 0.2020(5) 0.6183(5)
H9 H 0.4102 0.2506 0.6066
C7 C 0.2630(8) -0.0643(3) 0.3787(4)
H11 H 0.2681 -0.1093 0.3178
H12 H 0.1511 -0.0909 0.3944
H13 H 0.3751 -0.0590 0.4270
N1 N 0.2446(6) 0.2984(3) 0.4609(3)
N2 N 0.2543(5) 0.3702(3) 0.4158(3)
H14 H 0.2595 0.3518 0.3572
C8 C 0.2556(6) 0.4679(4) 0.4633(3)
C9 C 0.2769(6) 0.5461(4) 0.4224(3)
C10 C 0.2692(6) 0.6459(4) 0.4718(3)
H15 H 0.2805 0.6954 0.4439
C11 C 0.2447(6) 0.6698(3) 0.5619(3)
C12 C 0.2295(6) 0.5971(4) 0.6060(3)
H16 H 0.2159 0.6155 0.6680
C13 C 0.2348(6) 0.4988(4) 0.5573(3)
H17 H 0.2243 0.4509 0.5871
N3 N 0.3097(6) 0.5248(4) 0.3281(3)
O3 O 0.3398(6) 0.5950(3) 0.2985(3)
O4 O 0.3058(6) 0.4354(3) 0.2792(2)
N4 N 0.2351(6) 0.7749(3) 0.6135(3)
O5 O 0.2197(6) 0.7957(3) 0.6962(3)
O6 O 0.2462(6) 0.8382(3) 0.5740(3)
C14 C 0.5002(6) 0.7464(3) -0.0011(3)
C15 C 0.6041(6) 0.8440(3) 0.0735(3)
C16 C 0.6735(6) 0.9078(3) 0.0339(3)
C17 C 0.6314(7) 0.8592(3) -0.0733(3)
H18 H 0.7487 0.8537 -0.0926
H19 H 0.5638 0.8986 -0.1051
C18 C 0.5054(6) 0.7529(3) -0.0973(3)
H20 H 0.3778 0.7465 -0.1356
H21 H 0.5611 0.6998 -0.1320
C19 C 0.6021(7) 0.8657(4) 0.1762(3)
H24 H 0.6149 0.9382 0.2082
H25 H 0.4820 0.8297 0.1793
O8 O 0.7555(18) 0.8332(14) 0.2216(5)
H27 H 0.7137 0.7860 0.2375
C20 C 0.7964(8) 1.0139(4) 0.0844(4)
H28 H 0.8277 1.0414 0.0379
H29 H 0.9120 1.0115 0.1261
H30 H 0.7281 1.0563 0.1213
N5 N 0.4205(5) 0.6702(3) 0.0175(2)
N6 N 0.3276(5) 0.5846(3) -0.0619(3)
H31 H 0.3253 0.5855 -0.1182
C21 C 0.2406(6) 0.4998(3) -0.0517(3)
C22 C 0.1402(6) 0.4093(3) -0.1302(3)
C23 C 0.0482(6) 0.3240(3) -0.1173(3)
H32 H -0.0175 0.2660 -0.1698
C24 C 0.0556(6) 0.3262(3) -0.0262(3)
C25 C 0.1552(6) 0.4123(3) 0.0527(3)
H33 H 0.1588 0.4127 0.1141
C26 C 0.2481(6) 0.4966(3) 0.0408(3)
H34 H 0.3173 0.5527 0.0944
N7 N 0.1247(7) 0.4018(4) -0.2287(3)
O9 O 0.1867(7) 0.4787(3) -0.2439(3)
O10 O 0.0447(6) 0.3222(3) -0.2939(3)
N8 N -0.0424(6) 0.2378(3) -0.0111(4)
O11 O -0.1259(5) 0.1609(3) -0.0809(3)
O12 O -0.0373(5) 0.2441(3) 0.0718(3)
H7? H 0.3199 0.1892 0.5845
H8? H 0.1005 0.1680 0.5400
O2? O 0.1832(8) 0.0572(3) 0.5727(4)
H10? H 0.2642 0.0237 0.5633
H22? H 0.5103 0.9072 0.1910
H23? H 0.5621 0.8020 0.1855
O7? O 0.784(3) 0.917(4) 0.2388(16)
H26? H 0.8138 0.8879 0.2765
loop_
_geom_bond_atom_site_label_1
_geom_bond_atom_site_label_2
_geom_bond_site_symmetry_1
_geom_bond_site_symmetry_2
C1 C2 1_555 1_555
C2 C3 1_555 1_555
C3 C4 1_555 1_555
C4 H1 1_555 1_555
H2 C4 1_555 1_555
C5 C1 1_555 1_555
H3 C5 1_555 1_555
H4 C5 1_555 1_555
C6 C2 1_555 1_555
H5 C6 1_555 1_555
H6 C6 1_555 1_555
O1 C6 1_555 1_555
H9 O1 1_555 1_555
C7 C3 1_555 1_555
H11 C7 1_555 1_555
H12 C7 1_555 1_555
H13 C7 1_555 1_555
N1 C1 1_555 1_555
N2 N1 1_555 1_555
H14 N2 1_555 1_555
C8 N2 1_555 1_555
C9 C8 1_555 1_555
C10 C9 1_555 1_555
H15 C10 1_555 1_555
C11 C10 1_555 1_555
C12 C11 1_555 1_555
H16 C12 1_555 1_555
C13 C8 1_555 1_555
H17 C13 1_555 1_555
N3 C9 1_555 1_555
O3 N3 1_555 1_555
O4 N3 1_555 1_555
N4 C11 1_555 1_555
O5 N4 1_555 1_555
O6 N4 1_555 1_555
C14 C15 1_555 1_555
C15 C16 1_555 1_555
C16 C17 1_555 1_555
C17 H18 1_555 1_555
H19 C17 1_555 1_555
C18 C14 1_555 1_555
H20 C18 1_555 1_555
H21 C18 1_555 1_555
C19 C15 1_555 1_555
H24 C19 1_555 1_555
H25 C19 1_555 1_555
O8 C19 1_555 1_555
H27 O8 1_555 1_555
C20 C16 1_555 1_555
H28 C20 1_555 1_555
H29 C20 1_555 1_555
H30 C20 1_555 1_555
N5 C14 1_555 1_555
N6 N5 1_555 1_555
H31 N6 1_555 1_555
C21 N6 1_555 1_555
C22 C21 1_555 1_555
C23 C22 1_555 1_555
H32 C23 1_555 1_555
C24 C23 1_555 1_555
C25 C24 1_555 1_555
H33 C25 1_555 1_555
C26 C21 1_555 1_555
H34 C26 1_555 1_555
N7 C22 1_555 1_555
O9 N7 1_555 1_555
O10 N7 1_555 1_555
N8 C24 1_555 1_555
O11 N8 1_555 1_555
O12 N8 1_555 1_555
C4 C5 1_555 1_555
C12 C13 1_555 1_555
C17 C18 1_555 1_555
C25 C26 1_555 1_555

#END
