
#######################################################################
#
#                 Cambridge Crystallographic Data Centre
#                                CCDC 
#
#######################################################################
#
# If this CIF has been generated from an entry in the Cambridge 
# Structural Database, then it will include bibliographic, chemical, 
# crystal, experimental, refinement or atomic coordinate data resulting 
# from the CCDC's data processing and validation procedures.
#
#######################################################################

data_PEPJOL
_chemical_formula_moiety         'C18 H17 N5 O2'
_chemical_name_systematic        
2-(5-(2-Hydroxyphenyl)-1-isopropyl-1H-pyrazol-4-yl)pyrrolo[2,1-f][1,2,4]triazin-4(3H)-one
_symmetry_cell_setting           monoclinic
_symmetry_space_group_name_H-M   'P 21/c'
_symmetry_Int_Tables_number      14
_space_group_name_Hall           '-P 2ybc'
loop_
_symmetry_equiv_pos_site_id
_symmetry_equiv_pos_as_xyz
1 x,y,z
2 -x,1/2+y,1/2-z
3 -x,-y,-z
4 x,1/2-y,1/2+z
_cell_length_a                   16.640(8)
_cell_length_b                   7.053(4)
_cell_length_c                   14.173(7)
_cell_angle_alpha                90
_cell_angle_beta                 101.753(8)
_cell_angle_gamma                90
_cell_volume                     1628.5
_exptl_crystal_colour            colorless
_cell_formula_units_Z            4
loop_
_atom_site_label
_atom_site_type_symbol
_atom_site_fract_x
_atom_site_fract_y
_atom_site_fract_z
O1 O 0.42222(14) 0.3740(3) 0.93265(19)
O2 O 0.81916(18) 0.1556(3) 0.82140(19)
H1 H 0.8285 0.1602 0.7668
N1 N 0.52314(16) -0.0396(4) 0.86818(18)
N2 N 0.60356(15) -0.0103(4) 0.91261(19)
N3 N 0.55634(15) 0.2791(4) 0.96718(19)
H2 H 0.5703 0.3804 1.0002
N4 N 0.80799(16) 0.3077(4) 1.11746(19)
N5 N 0.83402(16) 0.1704(4) 1.06295(19)
C1 C 0.3884(2) -0.0017(5) 0.8182(2)
H3 H 0.3354 0.0472 0.8074
C2 C 0.45782(19) 0.0805(4) 0.8722(2)
C3 C 0.61690(18) 0.1480(4) 0.9597(2)
C4 C 0.70033(19) 0.1877(4) 1.0106(2)
C5 C 0.77172(18) 0.0945(4) 0.9977(2)
C6 C 0.78457(18) -0.0622(4) 0.9325(2)
C7 C 0.80600(18) -0.0262(4) 0.8441(2)
C8 C 0.8169(2) -0.1763(4) 0.7846(2)
H4 H 0.8318 -0.1526 0.7258
C9 C 0.80584(19) -0.3613(4) 0.8123(2)
H5 H 0.8128 -0.4611 0.7718
C10 C 0.4128(2) -0.1740(5) 0.7824(2)
H6 H 0.3784 -0.2592 0.7434
C11 C 0.4958(2) -0.1948(5) 0.8148(2)
H7 H 0.5276 -0.2968 0.8025
C12 C 0.47477(19) 0.2548(4) 0.9242(2)
C13 C 0.7276(2) 0.3177(4) 1.0853(2)
H8 H 0.6933 0.4009 1.1094
C14 C 0.7734(2) -0.2443(5) 0.9588(3)
C15 C 0.7845(2) -0.3986(5) 0.8998(3)
H9 H 0.7776 -0.5226 0.9192
C16 C 0.92223(19) 0.1289(4) 1.0742(2)
H10 H 0.9282 0.0336 1.0258
C17 C 0.9677(2) 0.3050(5) 1.0536(3)
H11 H 0.9443 0.3508 0.9902
H12 H 1.0246 0.2749 1.0574
H13 H 0.9632 0.4011 1.1002
C18 C 0.9567(2) 0.0454(6) 1.1721(3)
H14 H 0.9526 0.1367 1.2211
H15 H 1.0133 0.0126 1.1761
H16 H 0.9262 -0.0662 1.1814
H17 H 0.7553(13) -0.276(3) 1.0130(12)
loop_
_geom_bond_atom_site_label_1
_geom_bond_atom_site_label_2
_geom_bond_site_symmetry_1
_geom_bond_site_symmetry_2
O1 C12 1_555 1_555
O2 H1 1_555 1_555
N1 N2 1_555 1_555
N2 C3 1_555 1_555
N3 H2 1_555 1_555
N4 N5 1_555 1_555
N5 C5 1_555 1_555
C1 H3 1_555 1_555
C2 N1 1_555 1_555
C3 N3 1_555 1_555
C4 C3 1_555 1_555
C5 C4 1_555 1_555
C6 C5 1_555 1_555
C7 O2 1_555 1_555
C8 C7 1_555 1_555
H4 C8 1_555 1_555
C9 C8 1_555 1_555
H5 C9 1_555 1_555
C10 C1 1_555 1_555
H6 C10 1_555 1_555
C11 N1 1_555 1_555
H7 C11 1_555 1_555
C12 N3 1_555 1_555
C13 N4 1_555 1_555
H8 C13 1_555 1_555
C14 C6 1_555 1_555
C15 C9 1_555 1_555
H9 C15 1_555 1_555
C16 N5 1_555 1_555
H10 C16 1_555 1_555
C17 C16 1_555 1_555
H11 C17 1_555 1_555
H12 C17 1_555 1_555
H13 C17 1_555 1_555
C18 C16 1_555 1_555
H14 C18 1_555 1_555
H15 C18 1_555 1_555
H16 C18 1_555 1_555
H17 C14 1_555 1_555
C1 C2 1_555 1_555
C2 C12 1_555 1_555
C4 C13 1_555 1_555
C6 C7 1_555 1_555
C10 C11 1_555 1_555
C14 C15 1_555 1_555

#END
