
#######################################################################
#
#                 Cambridge Crystallographic Data Centre
#                                CCDC 
#
#######################################################################
#
# If this CIF has been generated from an entry in the Cambridge 
# Structural Database, then it will include bibliographic, chemical, 
# crystal, experimental, refinement or atomic coordinate data resulting 
# from the CCDC's data processing and validation procedures.
#
#######################################################################

data_PEPJEB
_chemical_formula_moiety         'C20 H17 N5 O4'
_chemical_name_systematic        
'Ethyl 2-amino-6-(2-hydroxyphenyl)-5-(4-oxo-3,4-dihydropyrrolo[2,1-f][1,2,4]triazin-2-yl)nicotinate'
_symmetry_cell_setting           triclinic
_symmetry_space_group_name_H-M   'P -1'
_symmetry_Int_Tables_number      2
_space_group_name_Hall           '-P 1'
loop_
_symmetry_equiv_pos_site_id
_symmetry_equiv_pos_as_xyz
1 x,y,z
2 -x,-y,-z
_cell_length_a                   7.1731(2)
_cell_length_b                   9.0580(3)
_cell_length_c                   15.2735(5)
_cell_angle_alpha                96.9650(10)
_cell_angle_beta                 93.3370(10)
_cell_angle_gamma                112.6080(10)
_cell_volume                     903.391
_exptl_crystal_colour            colorless
_exptl_crystal_description       Columnar
_cell_formula_units_Z            2
loop_
_atom_site_label
_atom_site_type_symbol
_atom_site_fract_x
_atom_site_fract_y
_atom_site_fract_z
O1 O 0.26413(12) 0.43421(9) 0.35576(5)
O2 O 0.35410(13) 0.60481(11) 0.48521(5)
O3 O 0.90234(15) 0.80404(11) -0.04276(6)
O4 O 0.99470(12) 1.06590(10) 0.18660(5)
H1 H 1.030(2) 1.1252(19) 0.1471(11)
N1 N 0.72418(14) 0.48104(11) 0.13262(6)
N2 N 0.72137(14) 0.43055(11) 0.04360(6)
C1 C 0.73699(16) 0.79338(13) 0.42305(7)
N3 N 0.83937(14) 0.74396(11) 0.09491(6)
H2 H 0.8725 0.8448 0.1146
N4 N 0.72753(15) 0.85218(12) 0.50642(6)
H3 H 0.6234(18) 0.8050(17) 0.5322(10)
H4 H 0.8304(18) 0.9329(15) 0.5345(9)
C2 C -0.06644(18) 0.44730(15) 0.35575(8)
H5 H -0.0099 0.5548 0.3889
H6 H -0.2032 0.3922 0.3688
H7 H -0.0668 0.4531 0.2934
C3 C 0.05977(17) 0.35618(13) 0.38113(8)
H8 H 0.0670 0.3553 0.4447
H9 H -0.0025 0.2450 0.3512
C4 C 0.39128(17) 0.56451(13) 0.41180(7)
C5 C 0.57831(16) 0.65413(13) 0.37302(7)
C6 C 0.60156(16) 0.60970(13) 0.28608(7)
H10 H 0.5001 0.5188 0.2524
C7 C 0.77323(16) 0.69751(13) 0.24739(7)
C8 C 0.78223(16) 0.63631(13) 0.15404(7)
C9 C 0.78187(17) 0.52983(14) -0.02079(7)
C10 C 0.76061(18) 0.43068(16) -0.10040(8)
H11 H 0.7897 0.4638 -0.1551
N5 N 0.90862(14) 0.87410(11) 0.38678(6)
C11 C 0.92666(16) 0.82955(12) 0.30195(7)
C12 C 0.66454(19) 0.27378(14) 0.00634(8)
H12 H 0.6187 0.1843 0.0356
C13 C 0.68719(19) 0.27122(16) -0.08305(8)
H13 H 0.6585 0.1792 -0.1246
C14 C 0.84696(17) 0.70036(14) 0.00587(7)
C15 C 1.13117(16) 0.92582(12) 0.27547(7)
C16 C 1.16211(16) 1.04459(12) 0.22097(7)
C17 C 1.35742(17) 1.13789(13) 0.20303(7)
H14 H 1.3767 1.2165 0.1666
C18 C 1.52287(17) 1.11363(14) 0.23946(7)
H15 H 1.6528 1.1751 0.2268
C19 C 1.49552(17) 0.99783(14) 0.29489(8)
H16 H 1.6067 0.9821 0.3196
C20 C 1.30107(17) 0.90596(13) 0.31304(7)
H17 H 1.2832 0.8297 0.3509
loop_
_geom_bond_atom_site_label_1
_geom_bond_atom_site_label_2
_geom_bond_site_symmetry_1
_geom_bond_site_symmetry_2
O1 C3 1_555 1_555
O2 C4 1_555 1_555
O3 C14 1_555 1_555
O4 H1 1_555 1_555
N1 N2 1_555 1_555
N2 C9 1_555 1_555
C1 N4 1_555 1_555
N3 H2 1_555 1_555
N4 H3 1_555 1_555
H4 N4 1_555 1_555
C2 H5 1_555 1_555
H6 C2 1_555 1_555
H7 C2 1_555 1_555
C3 C2 1_555 1_555
H8 C3 1_555 1_555
H9 C3 1_555 1_555
C4 O1 1_555 1_555
C5 C1 1_555 1_555
C6 C5 1_555 1_555
H10 C6 1_555 1_555
C7 C6 1_555 1_555
C8 N1 1_555 1_555
C9 C10 1_555 1_555
C10 H11 1_555 1_555
N5 C1 1_555 1_555
C11 C7 1_555 1_555
C12 N2 1_555 1_555
H12 C12 1_555 1_555
C13 C10 1_555 1_555
H13 C13 1_555 1_555
C14 N3 1_555 1_555
C15 C11 1_555 1_555
C16 O4 1_555 1_555
C17 C16 1_555 1_555
H14 C17 1_555 1_555
C18 C17 1_555 1_555
H15 C18 1_555 1_555
C19 C18 1_555 1_555
H16 C19 1_555 1_555
C20 C15 1_555 1_555
H17 C20 1_555 1_555
N3 C8 1_555 1_555
C4 C5 1_555 1_555
C7 C8 1_555 1_555
C9 C14 1_555 1_555
N5 C11 1_555 1_555
C12 C13 1_555 1_555
C15 C16 1_555 1_555
C19 C20 1_555 1_555

#END
