
#######################################################################
#
#                 Cambridge Crystallographic Data Centre
#                                CCDC 
#
#######################################################################
#
# If this CIF has been generated from an entry in the Cambridge 
# Structural Database, then it will include bibliographic, chemical, 
# crystal, experimental, refinement or atomic coordinate data resulting 
# from the CCDC's data processing and validation procedures.
#
#######################################################################

data_PEPKED
_chemical_compound_source        'mangrove endophytic fungus Phomopsis sp. 33#'
_chemical_name_common            'phochrodine A hemihydrate'
_chemical_formula_moiety         'C14 H11 N1 O4,0.5(H2 O1)'
_chemical_name_systematic        
'8-hydroxy-2-methyl-5H-[1]benzopyrano[4,3-b]pyridin-1-ium-10-carboxylate hemihydrate'
_symmetry_cell_setting           monoclinic
_symmetry_space_group_name_H-M   'P 21/c'
_symmetry_Int_Tables_number      14
_space_group_name_Hall           '-P 2ybc'
loop_
_symmetry_equiv_pos_site_id
_symmetry_equiv_pos_as_xyz
1 x,y,z
2 -x,1/2+y,1/2-z
3 -x,-y,-z
4 x,1/2-y,1/2+z
_cell_length_a                   17.61184(16)
_cell_length_b                   7.22299(8)
_cell_length_c                   18.84481(16)
_cell_angle_alpha                90
_cell_angle_beta                 94.9484(8)
_cell_angle_gamma                90
_cell_volume                     2388.32
_cell_formula_units_Z            8
loop_
_atom_site_label
_atom_site_type_symbol
_atom_site_fract_x
_atom_site_fract_y
_atom_site_fract_z
C1 C 0.37542(7) 0.33259(19) 0.33410(7)
C2 C 0.46090(7) 0.36247(18) 0.33197(7)
C3 C 0.50023(8) 0.3723(2) 0.39849(7)
H1 H 0.4737 0.3556 0.4386
C4 C 0.57835(8) 0.4064(2) 0.40748(7)
C5 C 0.61859(7) 0.4278(2) 0.34810(7)
H2 H 0.6707 0.4510 0.3531
C6 C 0.58010(7) 0.41422(19) 0.28128(7)
C7 C 0.50091(7) 0.38639(18) 0.26988(6)
C8 C 0.47010(7) 0.38927(18) 0.19517(7)
C9 C 0.51876(8) 0.36367(19) 0.14134(7)
C10 C 0.60129(8) 0.3378(2) 0.16278(8)
H3 H 0.6116 0.2075 0.1714
H4 H 0.6307 0.3778 0.1243
C11 C 0.48818(9) 0.3599(2) 0.07157(8)
H5 H 0.5197 0.3378 0.0354
C12 C 0.41116(9) 0.3887(2) 0.05479(8)
H6 H 0.3908 0.3844 0.0076
C13 C 0.36502(8) 0.4239(2) 0.10836(7)
C14 C 0.28214(9) 0.4693(3) 0.09676(9)
H7 H 0.2549 0.4048 0.1312
H8 H 0.2631 0.4321 0.0497
H9 H 0.2752 0.6003 0.1020
O1 O 0.32912(5) 0.40774(16) 0.28761(5)
O2 O 0.35470(5) 0.24191(15) 0.38507(5)
O3 O 0.61114(6) 0.41465(18) 0.47473(5)
H10 H 0.6554 0.4494 0.4742
O4 O 0.62434(5) 0.44124(15) 0.22577(5)
N1 N 0.39582(6) 0.42133(16) 0.17645(6)
H11 H 0.3663 0.4413 0.2097
C15 C 0.13316(8) 0.1424(2) 0.15675(7)
C16 C 0.10777(7) 0.17838(19) 0.23112(7)
C17 C 0.16749(8) 0.1851(2) 0.28368(7)
H12 H 0.2167 0.1628 0.2716
C18 C 0.15588(8) 0.2245(2) 0.35448(7)
C19 C 0.08270(8) 0.2518(2) 0.37319(7)
H13 H 0.0741 0.2777 0.4202
C20 C 0.02253(8) 0.24031(19) 0.32175(7)
C21 C 0.03172(7) 0.20835(19) 0.24918(7)
C22 C -0.03923(8) 0.21472(19) 0.20195(7)
C23 C -0.10935(8) 0.1995(2) 0.23038(8)
C24 C -0.10902(8) 0.1722(2) 0.30857(8)
H14 H -0.1572 0.2134 0.3244
H15 H -0.1032 0.0416 0.3197
C25 C -0.17510(9) 0.2105(2) 0.18520(9)
H16 H -0.2223 0.1999 0.2035
C26 C -0.17136(9) 0.2371(3) 0.11322(9)
H17 H -0.2158 0.2434 0.0828
C27 C -0.10112(9) 0.2542(2) 0.08670(9)
C28 C -0.09049(12) 0.2872(4) 0.00984(10)
H18 H -0.0691 0.1786 -0.0100
H19 H -0.0566 0.3900 0.0057
H20 H -0.1389 0.3141 -0.0155
O5 O 0.09583(6) 0.21242(18) 0.10213(5)
O6 O 0.19242(6) 0.05384(17) 0.15254(6)
O7 O 0.21310(6) 0.23259(19) 0.40684(5)
H21 H 0.2541 0.2316 0.3893
O8 O -0.04779(5) 0.27445(15) 0.34526(5)
N2 N -0.03787(7) 0.24281(17) 0.13157(6)
H22 H 0.0056 0.2540 0.1145
O9 O 0.24520(6) 0.01367(19) 0.02203(6)
H23 H 0.2277 0.0325 0.0621
H24 H 0.2253 0.0899 -0.0085
loop_
_geom_bond_atom_site_label_1
_geom_bond_atom_site_label_2
_geom_bond_site_symmetry_1
_geom_bond_site_symmetry_2
C1 C2 1_555 1_555
C2 C3 1_555 1_555
C3 H1 1_555 1_555
C4 C3 1_555 1_555
C5 C4 1_555 1_555
H2 C5 1_555 1_555
C6 C5 1_555 1_555
C7 C2 1_555 1_555
C8 C7 1_555 1_555
C9 C8 1_555 1_555
C10 C9 1_555 1_555
H3 C10 1_555 1_555
H4 C10 1_555 1_555
C11 C9 1_555 1_555
H5 C11 1_555 1_555
C12 C11 1_555 1_555
H6 C12 1_555 1_555
C13 C12 1_555 1_555
C14 C13 1_555 1_555
H7 C14 1_555 1_555
H8 C14 1_555 1_555
H9 C14 1_555 1_555
O1 C1 1_555 1_555
O2 C1 1_555 1_555
O3 C4 1_555 1_555
H10 O3 1_555 1_555
O4 C6 1_555 1_555
N1 C8 1_555 1_555
H11 N1 1_555 1_555
C15 C16 1_555 1_555
C16 C17 1_555 1_555
C17 H12 1_555 1_555
C18 C17 1_555 1_555
C19 C18 1_555 1_555
H13 C19 1_555 1_555
C20 C19 1_555 1_555
C21 C16 1_555 1_555
C22 C21 1_555 1_555
C23 C22 1_555 1_555
C24 C23 1_555 1_555
H14 C24 1_555 1_555
H15 C24 1_555 1_555
C25 C23 1_555 1_555
H16 C25 1_555 1_555
C26 C25 1_555 1_555
H17 C26 1_555 1_555
C27 C26 1_555 1_555
C28 C27 1_555 1_555
H18 C28 1_555 1_555
H19 C28 1_555 1_555
H20 C28 1_555 1_555
O5 C15 1_555 1_555
O6 C15 1_555 1_555
O7 C18 1_555 1_555
H21 O7 1_555 1_555
O8 C20 1_555 1_555
N2 C22 1_555 1_555
H22 N2 1_555 1_555
O9 H23 1_555 1_555
H24 O9 1_555 1_555
C6 C7 1_555 1_555
C10 O4 1_555 1_555
C13 N1 1_555 1_555
C20 C21 1_555 1_555
C24 O8 1_555 1_555
C27 N2 1_555 1_555

#END
