
#######################################################################
#
#                 Cambridge Crystallographic Data Centre
#                                CCDC 
#
#######################################################################
#
# If this CIF has been generated from an entry in the Cambridge 
# Structural Database, then it will include bibliographic, chemical, 
# crystal, experimental, refinement or atomic coordinate data resulting 
# from the CCDC's data processing and validation procedures.
#
#######################################################################

data_PEPKAZ
_chemical_compound_source        'mangrove endophytic fungus Phomopsis sp. 33#'
_chemical_name_common            'Phochrodine C'
_chemical_formula_moiety         'C15 H13 N1 O4'
_chemical_name_systematic        
'8-methoxy-2-methyl-5H-[1]benzopyrano[4,3-b]pyridine-10-carboxylic acid'
_chemical_properties_biological  
'moderate inhibition of nitric oxide production'
_symmetry_cell_setting           monoclinic
_symmetry_space_group_name_H-M   'P 21/c'
_symmetry_Int_Tables_number      14
_space_group_name_Hall           '-P 2ybc'
loop_
_symmetry_equiv_pos_site_id
_symmetry_equiv_pos_as_xyz
1 x,y,z
2 -x,1/2+y,1/2-z
3 -x,-y,-z
4 x,1/2-y,1/2+z
_cell_length_a                   9.08210(10)
_cell_length_b                   7.00140(10)
_cell_length_c                   19.1012(4)
_cell_angle_alpha                90
_cell_angle_beta                 95.3521(16)
_cell_angle_gamma                90
_cell_volume                     1209.3
_exptl_crystal_colour            colorless
_exptl_crystal_description       block
_cell_formula_units_Z            4
loop_
_atom_site_label
_atom_site_type_symbol
_atom_site_fract_x
_atom_site_fract_y
_atom_site_fract_z
O1 O 0.31570(11) 0.13058(16) 0.96431(5)
O2 O 0.29073(10) 0.05728(15) 0.71644(5)
N1 N 0.73673(13) 0.10882(17) 0.70613(6)
O3 O 0.81373(10) 0.26620(16) 0.92210(5)
O4 O 0.86801(10) 0.12038(16) 0.82518(5)
C1 C 0.52989(16) 0.12686(19) 0.77962(7)
C2 C 0.70430(17) 0.1233(2) 0.58157(8)
H1 H 0.7450 0.1239 0.5375
C3 C 0.49427(16) 0.13647(19) 0.64913(7)
C4 C 0.37686(16) 0.1253(2) 0.90219(8)
C5 C 0.52988(15) 0.1508(2) 0.90639(7)
H2 H 0.5825 0.1662 0.9514
C6 C 0.37614(16) 0.09834(19) 0.77806(7)
C7 C 0.59049(15) 0.12418(19) 0.71075(7)
C8 C 0.60779(15) 0.15462(19) 0.84769(7)
C9 C 0.29837(15) 0.0987(2) 0.83709(8)
H3 H 0.1942 0.0812 0.8331
C10 C 0.55273(16) 0.1345(2) 0.58491(8)
H4 H 0.4886 0.1408 0.5427
C11 C 0.15771(16) 0.1152(2) 0.96220(8)
H5 H 0.1117 0.2186 0.9333
H6 H 0.1276 0.1248 1.0100
H7 H 0.1260 -0.0082 0.9418
C12 C 0.79558(16) 0.1111(2) 0.64400(8)
C13 C 0.33243(15) 0.1562(2) 0.65531(7)
H8 H 0.3069 0.2932 0.6586
H9 H 0.2766 0.1032 0.6127
C14 C 0.96059(17) 0.1022(2) 0.64657(8)
H10 H 1.0030 0.2202 0.6674
H11 H 0.9900 0.0877 0.5988
H12 H 0.9968 -0.0071 0.6753
C15 C 0.77424(15) 0.1869(2) 0.86635(7)
loop_
_geom_bond_atom_site_label_1
_geom_bond_atom_site_label_2
_geom_bond_site_symmetry_1
_geom_bond_site_symmetry_2
O1 C4 1_555 1_555
O2 C6 1_555 1_555
N1 C7 1_555 1_555
O3 C15 1_555 1_555
O4 C15 1_555 1_555
C1 C6 1_555 1_555
C2 H1 1_555 1_555
C3 C7 1_555 1_555
C4 C5 1_555 1_555
C5 H2 1_555 1_555
C6 C9 1_555 1_555
C7 C1 1_555 1_555
C8 C1 1_555 1_555
C9 C4 1_555 1_555
H3 C9 1_555 1_555
C10 C2 1_555 1_555
H4 C10 1_555 1_555
C11 O1 1_555 1_555
H5 C11 1_555 1_555
H6 C11 1_555 1_555
H7 C11 1_555 1_555
C12 N1 1_555 1_555
C13 O2 1_555 1_555
H8 C13 1_555 1_555
H9 C13 1_555 1_555
C14 C12 1_555 1_555
H10 C14 1_555 1_555
H11 C14 1_555 1_555
H12 C14 1_555 1_555
C15 C8 1_555 1_555
C2 C12 1_555 1_555
C3 C10 1_555 1_555
C3 C13 1_555 1_555
C5 C8 1_555 1_555

#END
