
#######################################################################
#
#                 Cambridge Crystallographic Data Centre
#                                CCDC 
#
#######################################################################
#
# If this CIF has been generated from an entry in the Cambridge 
# Structural Database, then it will include bibliographic, chemical, 
# crystal, experimental, refinement or atomic coordinate data resulting 
# from the CCDC's data processing and validation procedures.
#
#######################################################################

data_PEPMIH
_chemical_formula_moiety         
'2(C22 H30 N2 O6),C50 H38 F4 N2 2+,2(F6 P1 1-),2(C2 H3 N1)'
_chemical_name_systematic        
'[3]-[1,4-bis(10-((3,5-difluorobenzyl)ammoniomethyl)anthracen-9-yl)benzene]-bis[3,6,9,17,20,23-hexaoxa-29,30-diazatricyclo[23.3.1.1^11,15^]triaconta-1(29),11(30),12,14,25,27-hexaene]-pseudorotaxane bis(hexafluorophosphate) acetonitrile solvate'
_symmetry_cell_setting           monoclinic
_symmetry_space_group_name_H-M   'P 21/n'
_symmetry_Int_Tables_number      14
_space_group_name_Hall           '-P 2yn'
loop_
_symmetry_equiv_pos_site_id
_symmetry_equiv_pos_as_xyz
1 x,y,z
2 1/2-x,1/2+y,1/2-z
3 -x,-y,-z
4 1/2+x,1/2-y,1/2+z
_cell_length_a                   12.6367(14)
_cell_length_b                   26.388(3)
_cell_length_c                   15.594(2)
_cell_angle_alpha                90
_cell_angle_beta                 111.060(8)
_cell_angle_gamma                90
_cell_volume                     4852.6
_exptl_crystal_colour            colorless
_exptl_crystal_description       prisms
_cell_formula_units_Z            2
loop_
_atom_site_label
_atom_site_type_symbol
_atom_site_fract_x
_atom_site_fract_y
_atom_site_fract_z
C1 C 0.1757(9) 0.1536(4) 0.5816(7)
H1 H 0.1435 0.1612 0.5165
H2 H 0.2355 0.1288 0.5911
O1 O 0.0932(7) 0.1337(3) 0.6099(5)
C2 C 0.0496(11) 0.0868(5) 0.5631(7)
H3 H 0.0263 0.0918 0.4973
H4 H 0.1087 0.0613 0.5813
C3 C -0.0454(12) 0.0697(5) 0.5852(9)
H5 H -0.1065 0.0941 0.5617
H6 H -0.0718 0.0378 0.5542
O2 O -0.0219(6) 0.0633(3) 0.6783(5)
C4 C -0.1037(14) 0.0320(8) 0.6959(9)
H7 H -0.0885 -0.0033 0.6870
H8 H -0.1788 0.0402 0.6528
C5 C -0.1007(12) 0.0390(12) 0.7881(13)
H9 H -0.1226 0.0737 0.7944
H10 H -0.1569 0.0169 0.7976
O3 O 0.0046(9) 0.0295(5) 0.8578(9)
C6 C 0.0178(12) -0.0217(6) 0.8805(12)
H11 H 0.0165 -0.0415 0.8277
H12 H -0.0438 -0.0332 0.8990
C7 C 0.1242(11) -0.0285(5) 0.9547(8)
N1 N 0.1785(10) 0.0135(5) 1.0052(9)
C8 C 0.2841(10) 0.0081(6) 1.0745(9)
C9 C 0.3354(12) -0.0393(7) 1.0933(12)
H13 H 0.4061 -0.0429 1.1397
C10 C 0.2811(16) -0.0813(6) 1.0428(13)
H14 H 0.3154 -0.1130 1.0553
C11 C 0.1755(15) -0.0759(5) 0.9734(11)
H15 H 0.1392 -0.1040 0.9396
C12 C 0.3438(13) 0.0521(8) 1.1210(12)
H16 H 0.3868 0.0452 1.1852
H17 H 0.2927 0.0803 1.1163
O4 O 0.4178(16) 0.0617(7) 1.0696(10)
C13 C 0.5185(16) 0.0797(8) 1.1227(18)
H18 H 0.5749 0.0537 1.1282
H19 H 0.5167 0.0854 1.1836
C14 C 0.5561(16) 0.1258(6) 1.0930(19)
H20 H 0.6055 0.1440 1.1466
H21 H 0.6001 0.1173 1.0553
O5 O 0.4683(12) 0.1573(5) 1.0438(9)
C15 C 0.4748(16) 0.2067(6) 1.0610(9)
H22 H 0.5535 0.2167 1.0774
H23 H 0.4547 0.2122 1.1147
C16 C 0.4077(16) 0.2403(5) 0.9908(13)
H24 H 0.3763 0.2656 1.0201
H25 H 0.4589 0.2580 0.9673
O6 O 0.3243(11) 0.2230(3) 0.9200(6)
C17 C 0.2574(13) 0.2587(4) 0.8571(8)
H26 H 0.2815 0.2927 0.8787
H27 H 0.1785 0.2549 0.8505
C18 C 0.2702(7) 0.2502(3) 0.7698(5)
N2 N 0.2189(6) 0.2078(2) 0.7190(5)
C19 C 0.2237(7) 0.1999(3) 0.6324(5)
C20 C 0.2798(9) 0.2344(4) 0.5965(6)
H28 H 0.2830 0.2292 0.5385
C21 C 0.3311(8) 0.2769(4) 0.6473(7)
H29 H 0.3687 0.3000 0.6233
C22 C 0.3263(7) 0.2847(3) 0.7340(7)
H30 H 0.3607 0.3131 0.7679
N4 N 0.1843(6) 0.1159(3) 0.8154(5)
H46 H 0.1938 0.1437 0.7854
H47 H 0.1306 0.0964 0.7754
C34 C 0.1475(9) 0.1312(4) 0.8927(7)
H48 H 0.2073 0.1511 0.9365
H49 H 0.1366 0.1010 0.9240
C35 C 0.0403(5) 0.1615(2) 0.8616(6)
C36 C -0.0138(6) 0.1807(3) 0.7736(5)
H50 H 0.0168 0.1750 0.7284
C37 C -0.1135(6) 0.2083(3) 0.7532(6)
C38 C -0.1592(6) 0.2167(3) 0.8208(7)
H51 H -0.2259 0.2351 0.8072
C39 C -0.1052(8) 0.1975(3) 0.9088(7)
C40 C -0.0054(8) 0.1699(3) 0.9292(5)
H52 H 0.0307 0.1570 0.9881
F1 F -0.1657(7) 0.2264(3) 0.6750(7)
F2 F -0.1509(11) 0.2060(5) 0.9668(10)
C41 C 0.2935(7) 0.0871(4) 0.8526(6)
H53 H 0.2826 0.0575 0.8853
H54 H 0.3506 0.1083 0.8961
C42 C 0.3363(7) 0.0702(4) 0.7776(5)
C43 C 0.3000(7) 0.0222(3) 0.7357(5)
C44 C 0.2201(8) -0.0083(4) 0.7564(6)
H55 H 0.1899 0.0033 0.7991
C45 C 0.1862(8) -0.0543(4) 0.7153(7)
H56 H 0.1345 -0.0742 0.7302
C46 C 0.2319(9) -0.0711(4) 0.6493(6)
H57 H 0.2104 -0.1025 0.6215
C47 C 0.3054(8) -0.0427(4) 0.6261(6)
H58 H 0.3334 -0.0549 0.5824
C48 C 0.3412(7) 0.0047(3) 0.6661(5)
C49 C 0.4179(7) 0.0343(3) 0.6419(5)
C50 C 0.4557(7) 0.0813(4) 0.6846(6)
C51 C 0.5336(10) 0.1112(5) 0.6623(8)
H59 H 0.5613 0.0997 0.6179
C52 C 0.5701(12) 0.1568(5) 0.7044(11)
H60 H 0.6198 0.1769 0.6873
C53 C 0.5311(12) 0.1729(5) 0.7741(11)
H61 H 0.5591 0.2031 0.8046
C54 C 0.4555(9) 0.1467(4) 0.7985(8)
H62 H 0.4298 0.1591 0.8433
C55 C 0.4146(7) 0.0988(3) 0.7540(6)
C56 C 0.4615(7) 0.0168(3) 0.5686(6)
C57 C 0.5561(8) -0.0129(4) 0.5911(6)
H63 H 0.5945 -0.0222 0.6520
C58 C 0.4048(8) 0.0295(4) 0.4773(6)
H64 H 0.3398 0.0494 0.4614
N4B N 0.8157(6) -0.1159(3) 0.1846(5)
H46B H 0.8062 -0.1437 0.2146
H47B H 0.8694 -0.0964 0.2246
C34B C 0.8525(9) -0.1312(4) 0.1073(7)
H48B H 0.7927 -0.1511 0.0635
H49B H 0.8634 -0.1010 0.0760
C35B C 0.9597(5) -0.1615(2) 0.1384(6)
C36B C 1.0138(6) -0.1807(3) 0.2264(5)
H50B H 0.9832 -0.1750 0.2716
C37B C 1.1135(6) -0.2083(3) 0.2468(6)
C38B C 1.1592(6) -0.2167(3) 0.1792(7)
H51B H 1.2259 -0.2351 0.1928
C39B C 1.1052(8) -0.1975(3) 0.0912(7)
C40B C 1.0054(8) -0.1699(3) 0.0708(5)
H52B H 0.9693 -0.1570 0.0119
F1B F 1.1657(7) -0.2264(3) 0.3250(7)
F2B F 1.1509(11) -0.2060(5) 0.0332(10)
C41B C 0.7065(7) -0.0871(4) 0.1474(6)
H53B H 0.7174 -0.0575 0.1147
H54B H 0.6494 -0.1083 0.1039
C42B C 0.6637(7) -0.0702(4) 0.2224(5)
C43B C 0.7000(7) -0.0222(3) 0.2643(5)
C44B C 0.7799(8) 0.0083(4) 0.2436(6)
H55B H 0.8101 -0.0033 0.2009
C45B C 0.8138(8) 0.0543(4) 0.2847(7)
H56B H 0.8655 0.0742 0.2698
C46B C 0.7681(9) 0.0711(4) 0.3507(6)
H57B H 0.7896 0.1025 0.3785
C47B C 0.6946(8) 0.0427(4) 0.3739(6)
H58B H 0.6666 0.0549 0.4176
C48B C 0.6588(7) -0.0047(3) 0.3339(5)
C49B C 0.5821(7) -0.0343(3) 0.3581(5)
C50B C 0.5443(7) -0.0813(4) 0.3154(6)
C51B C 0.4664(10) -0.1112(5) 0.3377(8)
H59B H 0.4387 -0.0997 0.3821
C52B C 0.4299(12) -0.1568(5) 0.2956(11)
H60B H 0.3802 -0.1769 0.3127
C53B C 0.4689(12) -0.1729(5) 0.2259(11)
H61B H 0.4409 -0.2031 0.1954
C54B C 0.5445(9) -0.1467(4) 0.2015(8)
H62B H 0.5702 -0.1591 0.1567
C55B C 0.5854(7) -0.0988(3) 0.2460(6)
C56B C 0.5385(7) -0.0168(3) 0.4314(6)
C57B C 0.4439(8) 0.0129(4) 0.4089(6)
H63B H 0.4055 0.0222 0.3480
C58B C 0.5952(8) -0.0295(4) 0.5227(6)
H64B H 0.6602 -0.0494 0.5386
P1 P 0.1514(4) 0.14415(15) 1.2930(3)
F3 F 0.1208(11) 0.1996(3) 1.2948(12)
F4 F 0.0617(12) 0.1242(6) 1.3263(11)
F5 F 0.2414(10) 0.1483(6) 1.3912(7)
F6 F 0.2478(13) 0.1622(5) 1.2537(11)
F7 F 0.0700(13) 0.1401(6) 1.1901(9)
F8 F 0.1952(10) 0.0889(3) 1.2833(9)
N5 N 0.659(4) 0.1571(14) 0.499(2)
C59 C 0.612(5) 0.157(3) 0.424(3)
C60 C 0.510(4) 0.160(2) 0.346(3)
H65 H 0.4757 0.1926 0.3440
H66 H 0.4584 0.1340 0.3497
H67 H 0.5267 0.1551 0.2910
C23? C -0.127(2) 0.056(2) 0.693(2)
H31? H -0.1689 0.0876 0.6815
H32? H -0.1724 0.0310 0.6497
C24? C -0.107(3) 0.039(2) 0.784(3)
H33? H -0.1675 0.0169 0.7844
H34? H -0.1068 0.0685 0.8225
O7? O 0.001(3) 0.0134(16) 0.822(2)
C25? C 0.003(2) -0.008(2) 0.905(3)
H35? H -0.0519 -0.0356 0.8929
H36? H -0.0153 0.0169 0.9425
C26? C 0.115(2) -0.0277(13) 0.952(2)
N3? N 0.203(3) 0.0062(9) 0.995(2)
C27? C 0.302(2) -0.0107(10) 1.062(2)
C28? C 0.314(2) -0.0616(11) 1.087(2)
H37? H 0.3808 -0.0729 1.1317
C29? C 0.227(3) -0.0956(9) 1.044(3)
H38? H 0.2353 -0.1296 1.0606
C30? C 0.128(3) -0.0786(11) 0.977(3)
H39? H 0.0693 -0.1013 0.9483
C31? C 0.406(3) 0.0173(15) 1.071(3)
H40? H 0.4673 -0.0061 1.0756
H41? H 0.3937 0.0389 1.0180
O8? O 0.434(3) 0.0467(10) 1.152(2)
C32? C 0.413(4) 0.0974(11) 1.134(3)
H42? H 0.3931 0.1116 1.1838
H43? H 0.3479 0.1009 1.0783
C33? C 0.502(3) 0.1270(9) 1.126(2)
H44? H 0.5630 0.1048 1.1261
H45? H 0.5307 0.1492 1.1786
F9? F 0.0927(17) 0.1801(7) 1.3492(12)
F10? F 0.2675(14) 0.1599(9) 1.3594(15)
F11? F 0.1440(19) 0.1899(7) 1.2298(13)
F12? F 0.0252(10) 0.1300(6) 1.2311(10)
F13? F 0.1456(18) 0.1007(6) 1.3604(12)
F14? F 0.1971(19) 0.1093(9) 1.2386(16)
N6? N 0.503(4) 0.174(3) 0.448(5)
C61? C 0.594(3) 0.1613(18) 0.470(4)
C62? C 0.704(3) 0.1453(14) 0.518(2)
H68? H 0.7026 0.1144 0.5500
H69? H 0.7438 0.1709 0.5614
H70? H 0.7425 0.1395 0.4757
N7? N 0.657(6) 0.205(6) 0.529(10)
C63? C 0.568(5) 0.218(3) 0.511(5)
C64? C 0.468(3) 0.2414(16) 0.508(3)
H71? H 0.4075 0.2173 0.4887
H72? H 0.4514 0.2693 0.4660
H73? H 0.4773 0.2536 0.5685
loop_
_geom_bond_atom_site_label_1
_geom_bond_atom_site_label_2
_geom_bond_site_symmetry_1
_geom_bond_site_symmetry_2
C1 H1 1_555 1_555
H2 C1 1_555 1_555
O1 C1 1_555 1_555
C2 O1 1_555 1_555
H3 C2 1_555 1_555
H4 C2 1_555 1_555
C3 C2 1_555 1_555
H5 C3 1_555 1_555
H6 C3 1_555 1_555
O2 C3 1_555 1_555
C4 O2 1_555 1_555
H7 C4 1_555 1_555
H8 C4 1_555 1_555
C5 C4 1_555 1_555
H9 C5 1_555 1_555
H10 C5 1_555 1_555
O3 C5 1_555 1_555
C6 O3 1_555 1_555
H11 C6 1_555 1_555
H12 C6 1_555 1_555
C7 C6 1_555 1_555
N1 C7 1_555 1_555
C8 N1 1_555 1_555
C9 C8 1_555 1_555
H13 C9 1_555 1_555
C10 C9 1_555 1_555
H14 C10 1_555 1_555
C11 C7 1_555 1_555
H15 C11 1_555 1_555
C12 C8 1_555 1_555
H16 C12 1_555 1_555
H17 C12 1_555 1_555
O4 C12 1_555 1_555
C13 O4 1_555 1_555
H18 C13 1_555 1_555
H19 C13 1_555 1_555
C14 C13 1_555 1_555
H20 C14 1_555 1_555
H21 C14 1_555 1_555
O5 C14 1_555 1_555
C15 O5 1_555 1_555
H22 C15 1_555 1_555
H23 C15 1_555 1_555
C16 C15 1_555 1_555
H24 C16 1_555 1_555
H25 C16 1_555 1_555
O6 C16 1_555 1_555
C17 O6 1_555 1_555
H26 C17 1_555 1_555
H27 C17 1_555 1_555
C18 C17 1_555 1_555
N2 C18 1_555 1_555
C19 C1 1_555 1_555
C20 C19 1_555 1_555
H28 C20 1_555 1_555
C21 C20 1_555 1_555
H29 C21 1_555 1_555
C22 C18 1_555 1_555
H30 C22 1_555 1_555
N4 H46 1_555 1_555
H47 N4 1_555 1_555
C34 N4 1_555 1_555
H48 C34 1_555 1_555
H49 C34 1_555 1_555
C35 C34 1_555 1_555
C36 C35 1_555 1_555
H50 C36 1_555 1_555
C37 C36 1_555 1_555
C38 C37 1_555 1_555
H51 C38 1_555 1_555
C39 C38 1_555 1_555
C40 C35 1_555 1_555
H52 C40 1_555 1_555
F1 C37 1_555 1_555
F2 C39 1_555 1_555
C41 N4 1_555 1_555
H53 C41 1_555 1_555
H54 C41 1_555 1_555
C42 C41 1_555 1_555
C43 C42 1_555 1_555
C44 C43 1_555 1_555
H55 C44 1_555 1_555
C45 C44 1_555 1_555
H56 C45 1_555 1_555
C46 C45 1_555 1_555
H57 C46 1_555 1_555
C47 C46 1_555 1_555
H58 C47 1_555 1_555
C48 C43 1_555 1_555
C49 C48 1_555 1_555
C50 C49 1_555 1_555
C51 C50 1_555 1_555
H59 C51 1_555 1_555
C52 C51 1_555 1_555
H60 C52 1_555 1_555
C53 C52 1_555 1_555
H61 C53 1_555 1_555
C54 C53 1_555 1_555
H62 C54 1_555 1_555
C55 C42 1_555 1_555
C56 C49 1_555 1_555
C57 C56 1_555 1_555
H63 C57 1_555 1_555
C58 C56 1_555 1_555
H64 C58 1_555 1_555
P1 F3 1_555 1_555
F4 P1 1_555 1_555
F5 P1 1_555 1_555
F6 P1 1_555 1_555
F7 P1 1_555 1_555
F8 P1 1_555 1_555
N5 C59 1_555 1_555
C59 C60 1_555 1_555
C60 H65 1_555 1_555
H66 C60 1_555 1_555
H67 C60 1_555 1_555
N4B H46B 1_555 1_555
H47B N4B 1_555 1_555
C34B N4B 1_555 1_555
H48B C34B 1_555 1_555
H49B C34B 1_555 1_555
C35B C34B 1_555 1_555
C36B C35B 1_555 1_555
H50B C36B 1_555 1_555
C37B C36B 1_555 1_555
C38B C37B 1_555 1_555
H51B C38B 1_555 1_555
C39B C38B 1_555 1_555
C40B C35B 1_555 1_555
H52B C40B 1_555 1_555
F1B C37B 1_555 1_555
F2B C39B 1_555 1_555
C41B N4B 1_555 1_555
H53B C41B 1_555 1_555
H54B C41B 1_555 1_555
C42B C41B 1_555 1_555
C43B C42B 1_555 1_555
C44B C43B 1_555 1_555
H55B C44B 1_555 1_555
C45B C44B 1_555 1_555
H56B C45B 1_555 1_555
C46B C45B 1_555 1_555
H57B C46B 1_555 1_555
C47B C46B 1_555 1_555
H58B C47B 1_555 1_555
C48B C43B 1_555 1_555
C49B C48B 1_555 1_555
C50B C49B 1_555 1_555
C51B C50B 1_555 1_555
H59B C51B 1_555 1_555
C52B C51B 1_555 1_555
H60B C52B 1_555 1_555
C53B C52B 1_555 1_555
H61B C53B 1_555 1_555
C54B C53B 1_555 1_555
H62B C54B 1_555 1_555
C55B C42B 1_555 1_555
C56B C49B 1_555 1_555
C57B C58 1_555 1_555
H63B C57B 1_555 1_555
C58B C57 1_555 1_555
H64B C58B 1_555 1_555
C10 C11 1_555 1_555
N2 C19 1_555 1_555
C21 C22 1_555 1_555
C39 C40 1_555 1_555
C47 C48 1_555 1_555
C50 C55 1_555 1_555
C54 C55 1_555 1_555
C39B C40B 1_555 1_555
C47B C48B 1_555 1_555
C50B C55B 1_555 1_555
C54B C55B 1_555 1_555
C56B C57B 1_555 1_555
C56B C58B 1_555 1_555

#END
