
#######################################################################
#
#                 Cambridge Crystallographic Data Centre
#                                CCDC 
#
#######################################################################
#
# If this CIF has been generated from an entry in the Cambridge 
# Structural Database, then it will include bibliographic, chemical, 
# crystal, experimental, refinement or atomic coordinate data resulting 
# from the CCDC's data processing and validation procedures.
#
#######################################################################

data_PEPNUV
_chemical_formula_moiety         'C19 H15 N1 O6'
_chemical_name_systematic        
3-Methyl-10-(4-nitrophenyl)-6,7,8,10-tetrahydro-1H,9H-pyrano[4,3-b]chromene-1,9-dione
_symmetry_cell_setting           monoclinic
_symmetry_space_group_name_H-M   'P 21/c'
_symmetry_Int_Tables_number      14
_space_group_name_Hall           '-P 2ybc'
loop_
_symmetry_equiv_pos_site_id
_symmetry_equiv_pos_as_xyz
1 x,y,z
2 -x,1/2+y,1/2-z
3 -x,-y,-z
4 x,1/2-y,1/2+z
_cell_length_a                   11.670(3)
_cell_length_b                   12.076(3)
_cell_length_c                   11.613(3)
_cell_angle_alpha                90
_cell_angle_beta                 99.490(4)
_cell_angle_gamma                90
_cell_volume                     1614.19
_exptl_crystal_colour            brown
_exptl_crystal_description       block
_cell_formula_units_Z            4
loop_
_atom_site_label
_atom_site_type_symbol
_atom_site_fract_x
_atom_site_fract_y
_atom_site_fract_z
O1 O -0.01778(14) 0.23257(13) 0.06599(15)
O2 O -0.05227(14) 0.13676(14) 0.21953(15)
O3 O 0.18527(13) -0.10102(12) 0.17526(13)
O4 O 0.29044(14) 0.05207(14) -0.16565(14)
O5 O 0.54440(16) 0.45771(15) 0.21205(18)
O6 O 0.42898(16) 0.55737(13) 0.08975(17)
N1 N 0.45747(18) 0.46913(16) 0.13780(19)
C1 C 0.09390(17) 0.07066(17) 0.11163(19)
C2 C 0.00753(19) 0.15160(19) 0.1272(2)
C3 C -0.0355(2) 0.04603(19) 0.2917(2)
C4 C -0.1099(2) 0.0485(2) 0.3818(2)
H1 H -0.1004 -0.0205 0.4267
H2 H -0.1913 0.0564 0.3447
H3 H -0.0880 0.1113 0.4342
C5 C 0.0429(2) -0.03246(19) 0.2765(2)
H4 H 0.0544 -0.0956 0.3259
C6 C 0.10759(18) -0.01773(17) 0.18438(19)
C7 C 0.24465(18) -0.09802(18) 0.08234(19)
C8 C 0.3152(2) -0.19999(19) 0.0776(2)
H5 H 0.2652 -0.2603 0.0398
H6 H 0.3478 -0.2238 0.1579
C9 C 0.4131(2) -0.1786(2) 0.0096(2)
H7 H 0.4717 -0.1296 0.0555
H8 H 0.4515 -0.2494 -0.0038
C10 C 0.3670(2) -0.1250(2) -0.1058(2)
H9 H 0.4331 -0.1065 -0.1460
H10 H 0.3169 -0.1786 -0.1552
C11 C 0.29867(19) -0.02183(19) -0.0935(2)
C12 C 0.23744(18) -0.01381(17) 0.00625(19)
C13 C 0.16712(18) 0.08951(17) 0.01843(19)
H11 H 0.1144 0.1032 -0.0573
C14 C 0.24517(18) 0.19044(17) 0.04700(19)
C15 C 0.2391(2) 0.28049(18) -0.0279(2)
H12 H 0.1866 0.2791 -0.0997
C16 C 0.3090(2) 0.37271(18) 0.0010(2)
H13 H 0.3049 0.4347 -0.0499
C17 C 0.38419(19) 0.37182(17) 0.1051(2)
C18 C 0.39263(19) 0.28338(18) 0.18068(19)
H14 H 0.4459 0.2848 0.2520
C19 C 0.32260(18) 0.19305(17) 0.15109(19)
H15 H 0.3273 0.1315 0.2026
loop_
_geom_bond_atom_site_label_1
_geom_bond_atom_site_label_2
_geom_bond_site_symmetry_1
_geom_bond_site_symmetry_2
O1 C2 1_555 1_555
O2 C2 1_555 1_555
O3 C6 1_555 1_555
O4 C11 1_555 1_555
O5 N1 1_555 1_555
O6 N1 1_555 1_555
N1 C17 1_555 1_555
C1 C2 1_555 1_555
C3 O2 1_555 1_555
C4 C3 1_555 1_555
H1 C4 1_555 1_555
H2 C4 1_555 1_555
H3 C4 1_555 1_555
C5 C3 1_555 1_555
H4 C5 1_555 1_555
C6 C1 1_555 1_555
C7 O3 1_555 1_555
C8 C7 1_555 1_555
H5 C8 1_555 1_555
H6 C8 1_555 1_555
C9 C8 1_555 1_555
H7 C9 1_555 1_555
H8 C9 1_555 1_555
C10 C9 1_555 1_555
H9 C10 1_555 1_555
H10 C10 1_555 1_555
C11 C10 1_555 1_555
C12 C7 1_555 1_555
C13 C1 1_555 1_555
H11 C13 1_555 1_555
C14 C13 1_555 1_555
C15 C14 1_555 1_555
H12 C15 1_555 1_555
C16 C15 1_555 1_555
H13 C16 1_555 1_555
C17 C16 1_555 1_555
C18 C17 1_555 1_555
H14 C18 1_555 1_555
C19 C14 1_555 1_555
H15 C19 1_555 1_555
C5 C6 1_555 1_555
C11 C12 1_555 1_555
C12 C13 1_555 1_555
C18 C19 1_555 1_555

#END
