
#######################################################################
#
#                 Cambridge Crystallographic Data Centre
#                                CCDC 
#
#######################################################################
#
# If this CIF has been generated from an entry in the Cambridge 
# Structural Database, then it will include bibliographic, chemical, 
# crystal, experimental, refinement or atomic coordinate data resulting 
# from the CCDC's data processing and validation procedures.
#
#######################################################################

data_PEPSEJ
_chemical_formula_moiety         'C8 H6 Cl1 N3 O1'
_chemical_name_systematic        2-azido-1-(4-chlorophenyl)ethanone
_symmetry_cell_setting           monoclinic
_symmetry_space_group_name_H-M   'P 21/c'
_symmetry_Int_Tables_number      14
_space_group_name_Hall           '-P 2ybc'
loop_
_symmetry_equiv_pos_site_id
_symmetry_equiv_pos_as_xyz
1 x,y,z
2 -x,1/2+y,1/2-z
3 -x,-y,-z
4 x,1/2-y,1/2+z
_cell_length_a                   12.6761(11)
_cell_length_b                   9.1007(8)
_cell_length_c                   7.4679(7)
_cell_angle_alpha                90
_cell_angle_beta                 93.289(2)
_cell_angle_gamma                90
_cell_volume                     860.088
_exptl_crystal_colour            colorless
_exptl_crystal_description       plate
_cell_formula_units_Z            4
loop_
_atom_site_label
_atom_site_type_symbol
_atom_site_fract_x
_atom_site_fract_y
_atom_site_fract_z
Cl1 Cl 0.56397(4) 0.24747(6) 0.06897(8)
O1 O 0.08878(12) 0.4081(2) 0.3571(2)
N1 N -0.0332(2) 0.1744(2) 0.4401(3)
N2 N -0.1064(2) 0.2354(2) 0.3532(3)
N3 N -0.1806(2) 0.2869(3) 0.2918(4)
C1 C 0.4354(2) 0.2578(2) 0.1354(3)
C2 C 0.3918(2) 0.3947(2) 0.1653(3)
H1 H 0.4310 0.4816 0.1460
C3 C 0.2907(2) 0.4029(2) 0.2234(3)
H2 H 0.2603 0.4962 0.2447
C4 C 0.2325(2) 0.2757(2) 0.2514(3)
C5 C 0.2777(2) 0.1395(2) 0.2174(3)
H3 H 0.2385 0.0521 0.2342
C6 C 0.3790(2) 0.1305(2) 0.1597(3)
H4 H 0.4095 0.0375 0.1368
C7 C 0.1252(2) 0.2899(2) 0.3197(3)
C8 C 0.0618(2) 0.1502(3) 0.3415(3)
H5 H 0.0410 0.1100 0.2215
H6 H 0.1070 0.0763 0.4060
loop_
_geom_bond_atom_site_label_1
_geom_bond_atom_site_label_2
_geom_bond_site_symmetry_1
_geom_bond_site_symmetry_2
Cl1 C1 1_555 1_555
O1 C7 1_555 1_555
N1 N2 1_555 1_555
N2 N3 1_555 1_555
C1 C2 1_555 1_555
C2 H1 1_555 1_555
C3 C2 1_555 1_555
H2 C3 1_555 1_555
C4 C3 1_555 1_555
C5 C4 1_555 1_555
H3 C5 1_555 1_555
C6 C1 1_555 1_555
H4 C6 1_555 1_555
C7 C4 1_555 1_555
C8 N1 1_555 1_555
H5 C8 1_555 1_555
H6 C8 1_555 1_555
C5 C6 1_555 1_555
C7 C8 1_555 1_555

#END
