
#######################################################################
#
#                 Cambridge Crystallographic Data Centre
#                                CCDC 
#
#######################################################################
#
# If this CIF has been generated from an entry in the Cambridge 
# Structural Database, then it will include bibliographic, chemical, 
# crystal, experimental, refinement or atomic coordinate data resulting 
# from the CCDC's data processing and validation procedures.
#
#######################################################################

data_PEPSIM
_chemical_formula_moiety         'C84 H90 N6 O12 S6,2(C3 H6 O1)'
_chemical_name_systematic        
'5,13,32-tris(4-t-Butylphenylsulfonyl)-20,28,34-tritosyl-5,13,20,28,32,34-hexa-azaheptacyclo(15.13.3.2^9,24^.1^3,29^.1^7,11^.1^15,19^.1^22,26^)nonatriaconta-1,3(36),7,9,11(37),15,17,19(38),22,24,26(39),29-dodecaene acetone solvate'
_symmetry_cell_setting           monoclinic
_symmetry_space_group_name_H-M   'P 21/n'
_symmetry_Int_Tables_number      14
_space_group_name_Hall           '-P 2yn'
loop_
_symmetry_equiv_pos_site_id
_symmetry_equiv_pos_as_xyz
1 x,y,z
2 1/2-x,1/2+y,1/2-z
3 -x,-y,-z
4 1/2+x,1/2-y,1/2+z
_cell_length_a                   22.642(2)
_cell_length_b                   20.384(1)
_cell_length_c                   23.772(2)
_cell_angle_alpha                90
_cell_angle_beta                 100.59(1)
_cell_angle_gamma                90
_cell_volume                     10784.7
_exptl_crystal_colour            colorless
_chemical_melting_point          '218-220 deg.C'
_cell_formula_units_Z            4
loop_
_atom_site_label
_atom_site_type_symbol
_atom_site_fract_x
_atom_site_fract_y
_atom_site_fract_z
N1 N 0.4058(4) 0.6366(4) 0.4965(4)
C1 C 0.4581(5) 0.5927(5) 0.5159(5)
C2 C 0.4997(5) 0.5942(5) 0.4737(5)
C3 C 0.4774(5) 0.5815(5) 0.4151(5)
C4 C 0.5156(6) 0.5825(5) 0.3760(5)
C5 C 0.5770(5) 0.5980(5) 0.3948(5)
C6 C 0.5989(5) 0.6096(5) 0.4527(5)
C7 C 0.5608(5) 0.6083(5) 0.4911(5)
C8 C 0.4920(5) 0.5674(5) 0.3134(5)
N2 N 0.5209(4) 0.6119(4) 0.2761(4)
C9 C 0.5122(5) 0.6803(5) 0.2813(4)
C10 C 0.5613(5) 0.7197(6) 0.2858(4)
C11 C 0.5585(5) 0.7882(5) 0.2864(4)
C12 C 0.5026(6) 0.8143(6) 0.2838(4)
C13 C 0.4505(5) 0.7749(5) 0.2826(5)
C14 C 0.4581(5) 0.7084(5) 0.2804(4)
C15 C 0.6106(5) 0.8310(5) 0.2895(4)
N3 N 0.6478(4) 0.8345(4) 0.3489(4)
C16 C 0.6189(5) 0.8657(5) 0.3929(4)
C17 C 0.6236(4) 0.8287(5) 0.4474(4)
C18 C 0.6466(4) 0.7661(5) 0.4558(4)
C19 C 0.6521(4) 0.7358(5) 0.5088(5)
C20 C 0.6325(4) 0.7676(5) 0.5530(4)
C21 C 0.6096(4) 0.8301(5) 0.5468(5)
C22 C 0.6065(4) 0.8611(5) 0.4948(5)
N4 N 0.6771(3) 0.6708(4) 0.5189(3)
C23 C 0.6638(5) 0.6214(5) 0.4716(5)
C24 C 0.5914(5) 0.8675(6) 0.5968(5)
N5 N 0.5306(4) 0.8926(4) 0.5849(3)
C25 C 0.4826(5) 0.8454(5) 0.5891(5)
C26 C 0.4592(4) 0.8079(5) 0.5366(5)
C27 C 0.4457(4) 0.8384(5) 0.4847(5)
C28 C 0.4177(5) 0.8044(5) 0.4349(5)
C29 C 0.4040(5) 0.7374(5) 0.4390(5)
C30 C 0.4198(5) 0.7064(5) 0.4927(5)
C31 C 0.4470(5) 0.7409(5) 0.5412(5)
C32 C 0.4052(5) 0.8397(5) 0.3795(5)
N6 N 0.3681(4) 0.8071(4) 0.3324(4)
C33 C 0.3903(5) 0.8071(5) 0.2777(5)
S1 S 0.3416(1) 0.6172(1) 0.5142(1)
O1 O 0.2988(3) 0.6642(4) 0.4879(3)
O2 O 0.3333(4) 0.5490(4) 0.4996(4)
C34 C 0.3506(5) 0.6261(6) 0.5885(5)
C35 C 0.3410(6) 0.6847(7) 0.6129(6)
C36 C 0.3506(7) 0.6916(8) 0.6721(7)
C37 C 0.3684(7) 0.6361(9) 0.7055(8)
C38 C 0.3789(7) 0.5785(8) 0.6823(7)
C39 C 0.3713(6) 0.5735(7) 0.6247(6)
C40 C 0.3785(8) 0.6453(10) 0.7720(8)
S2 S 0.5228(1) 0.5845(2) 0.2105(1)
O3 O 0.5378(4) 0.5160(4) 0.2161(3)
O4 O 0.5606(4) 0.6291(4) 0.1867(3)
C41 C 0.4511(5) 0.5906(6) 0.1708(5)
C42 C 0.4161(6) 0.5352(7) 0.1627(6)
C43 C 0.3547(7) 0.5401(8) 0.1292(6)
C44 C 0.3363(7) 0.6015(8) 0.1080(6)
C45 C 0.3708(7) 0.6547(8) 0.1186(6)
C46 C 0.4303(6) 0.6514(7) 0.1483(5)
C47 C 0.2682(8) 0.6085(9) 0.0720(8)
S3 S 0.7195(1) 0.8505(1) 0.3517(1)
O5 O 0.7437(3) 0.8617(4) 0.4106(3)
O6 O 0.7415(4) 0.7987(4) 0.3202(4)
C48 C 0.7244(5) 0.9239(5) 0.3141(5)
C49 C 0.7227(6) 0.9820(7) 0.3405(6)
C50 C 0.7252(6) 1.0413(8) 0.3103(6)
C51 C 0.7305(5) 1.0411(7) 0.2557(6)
C52 C 0.7334(6) 0.9855(7) 0.2287(6)
C53 C 0.7296(6) 0.9225(7) 0.2582(6)
C54 C 0.7329(9) 1.1074(10) 0.2243(9)
C55 C 0.7578(16) 1.1052(18) 0.1769(15)
C56 C 0.7763(14) 1.1493(16) 0.2685(13)
C57 C 0.6769(9) 1.1402(10) 0.2137(8)
S4 S 0.7441(1) 0.6632(2) 0.5603(1)
O7 O 0.7485(4) 0.5956(4) 0.5800(4)
O8 O 0.7502(3) 0.7139(4) 0.6019(3)
C58 C 0.7982(5) 0.6761(6) 0.5177(5)
C59 C 0.8013(6) 0.7315(7) 0.4901(5)
C60 C 0.8462(6) 0.7431(8) 0.4543(6)
C61 C 0.8875(7) 0.6954(8) 0.4532(6)
C62 C 0.8835(8) 0.6389(9) 0.4795(7)
C63 C 0.8365(6) 0.6245(8) 0.5115(6)
C64 C 0.9382(9) 0.7055(10) 0.4242(8)
S5 S 0.5189(2) 0.9696(1) 0.5940(1)
O9 O 0.5719(4) 1.0030(4) 0.5821(3)
O10 O 0.4619(5) 0.9851(4) 0.5609(4)
C65 C 0.5136(5) 0.9817(5) 0.6662(4)
C66 C 0.5674(5) 0.9949(5) 0.7065(5)
C67 C 0.5634(5) 1.0064(5) 0.7630(5)
C68 C 0.5073(5) 1.0037(6) 0.7815(5)
C69 C 0.4571(6) 0.9893(6) 0.7420(5)
C70 C 0.4604(5) 0.9766(6) 0.6846(5)
C71 C 0.5029(7) 1.0171(8) 0.8446(7)
C72 C 0.4426(11) 1.0275(12) 0.8557(10)
C73 C 0.5193(16) 0.9643(19) 0.8794(15)
C74 C 0.5367(12) 1.0694(14) 0.8679(12)
S6 S 0.2954(1) 0.8201(1) 0.3253(2)
O11 O 0.2821(4) 0.8230(4) 0.3815(4)
O12 O 0.2660(4) 0.7732(4) 0.2853(5)
C75 C 0.2814(4) 0.8974(5) 0.2932(4)
C76 C 0.2737(5) 0.9029(6) 0.2348(5)
C77 C 0.2656(5) 0.9654(6) 0.2098(6)
C78 C 0.2644(5) 1.0219(6) 0.2434(5)
C79 C 0.2708(5) 1.0137(6) 0.3001(5)
C80 C 0.2809(5) 0.9518(6) 0.3286(5)
C81 C 0.2535(7) 1.0874(7) 0.2164(6)
C82 C 0.3003(9) 1.1319(10) 0.2368(9)
C83 C 0.1971(8) 1.1120(10) 0.2148(8)
C84 C 0.2616(11) 1.0897(12) 0.1600(10)
H1 H 0.4442 0.5488 0.5203
H2 H 0.4795 0.6076 0.5523
H3 H 0.4358 0.5714 0.4021
H4 H 0.6030 0.6008 0.3673
H5 H 0.5759 0.6176 0.5307
H6 H 0.4495 0.5748 0.3049
H7 H 0.4995 0.5223 0.3051
H8 H 0.5999 0.6991 0.2887
H9 H 0.4974 0.8611 0.2830
H10 H 0.4232 0.6810 0.2777
H11 H 0.5969 0.8744 0.2779
H12 H 0.6356 0.8158 0.2637
H13 H 0.5769 0.8695 0.3769
H14 H 0.6346 0.9092 0.4006
H15 H 0.6599 0.7435 0.4250
H16 H 0.6339 0.7451 0.5887
H17 H 0.5921 0.9054 0.4905
H18 H 0.6813 0.6362 0.4399
H19 H 0.6827 0.5807 0.4849
H20 H 0.6185 0.9035 0.6069
H21 H 0.5954 0.8384 0.6291
H22 H 0.4500 0.8692 0.6003
H23 H 0.4975 0.8149 0.6192
H24 H 0.4549 0.8841 0.4817
H25 H 0.3847 0.7130 0.4062
H26 H 0.4569 0.7183 0.5771
H27 H 0.4429 0.8501 0.3686
H28 H 0.3862 0.8803 0.3865
H29 H 0.3617 0.7843 0.2497
H30 H 0.3932 0.8514 0.2647
H31 H 0.3268 0.7216 0.5891
H32 H 0.3438 0.7319 0.6908
H33 H 0.3926 0.5413 0.7060
H34 H 0.3789 0.5326 0.6075
H35 H 0.3926 0.6059 0.7922
H36 H 0.4078 0.6794 0.7819
H37 H 0.3413 0.6586 0.7824
H38 H 0.4309 0.4946 0.1804
H39 H 0.3299 0.5020 0.1197
H40 H 0.3557 0.6969 0.1051
H41 H 0.4564 0.6888 0.1531
H42 H 0.2596 0.6535 0.0618
H43 H 0.2667 0.5828 0.0379
H44 H 0.2389 0.5923 0.0930
H45 H 0.7194 0.9823 0.3802
H46 H 0.7238 1.0827 0.3293
H47 H 0.7371 0.9861 0.1891
H48 H 0.7304 0.8813 0.2386
H49 H 0.7289 1.0797 0.1513
H50 H 0.7631 1.1469 0.1598
H51 H 0.7954 1.0823 0.1844
H52 H 0.7816 1.1922 0.2534
H53 H 0.7595 1.1533 0.3026
H54 H 0.8145 1.1276 0.2775
H55 H 0.6511 1.1142 0.1857
H56 H 0.6607 1.1419 0.2483
H57 H 0.6795 1.1839 0.1992
H58 H 0.7712 0.7643 0.4918
H59 H 0.8478 0.7828 0.4329
H60 H 0.9144 0.6075 0.4769
H61 H 0.8315 0.5817 0.5268
H62 H 0.9631 0.6671 0.4280
H63 H 0.9221 0.7130 0.3844
H64 H 0.9617 0.7427 0.4396
H65 H 0.6054 0.9949 0.6941
H66 H 0.5991 1.0160 0.7904
H67 H 0.4189 0.9860 0.7538
H68 H 0.4250 0.9652 0.6575
H69 H 0.4429 1.0348 0.8956
H70 H 0.4308 1.0670 0.8347
H71 H 0.4148 0.9931 0.8420
H72 H 0.5179 0.9661 0.9195
H73 H 0.4889 0.9348 0.8606
H74 H 0.5581 0.9490 0.8743
H75 H 0.5346 1.0781 0.9072
H76 H 0.5779 1.0702 0.8632
H77 H 0.5145 1.1023 0.8440
H78 H 0.2741 0.8644 0.2116
H79 H 0.2603 0.9699 0.1690
H80 H 0.2693 1.0525 0.3228
H81 H 0.2858 0.9471 0.3694
H82 H 0.2992 1.1351 0.2768
H83 H 0.3392 1.1166 0.2319
H84 H 0.2929 1.1743 0.2193
H85 H 0.1686 1.0801 0.1967
H86 H 0.1911 1.1194 0.2533
H87 H 0.1915 1.1524 0.1938
H88 H 0.2321 1.0599 0.1402
H89 H 0.2547 1.1327 0.1438
H90 H 0.3011 1.0750 0.1564
O13 O 0.6644(7) 1.1215(8) 0.4058(7)
C85 C 0.6942(9) 1.1134(9) 0.4540(8)
C86 C 0.6837(8) 1.0567(8) 0.4923(7)
C87 C 0.7368(10) 1.1642(10) 0.4804(9)
H91 H 0.6559 1.0267 0.4703
H92 H 0.7204 1.0340 0.5075
H93 H 0.6665 1.0741 0.5231
H94 H 0.7420 1.1969 0.4526
H95 H 0.7210 1.1844 0.5110
H96 H 0.7748 1.1443 0.4954
O14 O 0.1324(12) 0.8110(14) 0.2140(12)
C88 C 0.0937(13) 0.8478(14) 0.1871(15)
C89 C 0.0418(12) 0.8181(15) 0.1492(13)
C90 C 0.1115(16) 0.9142(13) 0.1684(16)
H97 H 0.0344 0.7759 0.1644
H98 H 0.0076 0.8460 0.1493
H99 H 0.0485 0.8132 0.1107
H100 H 0.1466 0.9293 0.1941
H101 H 0.1198 0.9116 0.1304
H102 H 0.0790 0.9444 0.1690
O15 O 0.6491(17) 0.5199(17) 0.0320(15)
C91 C 0.6138(24) 0.4886(22) 0.0535(17)
C92 C 0.6133(27) 0.4956(28) 0.1169(16)
C93 C 0.5907(25) 0.4237(21) 0.0282(22)
H103 H 0.6291 0.5387 0.1266
H104 H 0.5744 0.4917 0.1272
H105 H 0.6398 0.4634 0.1373
H106 H 0.5885 0.4203 -0.0124
H107 H 0.6167 0.3901 0.0472
H108 H 0.5512 0.4184 0.0371
loop_
_geom_bond_atom_site_label_1
_geom_bond_atom_site_label_2
_geom_bond_site_symmetry_1
_geom_bond_site_symmetry_2
N1 C1 1_555 1_555
C1 C2 1_555 1_555
C2 C3 1_555 1_555
C3 C4 1_555 1_555
C4 C5 1_555 1_555
C5 C6 1_555 1_555
C6 C7 1_555 1_555
C7 C2 1_555 1_555
C8 C4 1_555 1_555
N2 C8 1_555 1_555
C9 N2 1_555 1_555
C10 C9 1_555 1_555
C11 C10 1_555 1_555
C12 C11 1_555 1_555
C13 C12 1_555 1_555
C14 C9 1_555 1_555
C15 C11 1_555 1_555
N3 C15 1_555 1_555
C16 N3 1_555 1_555
C17 C16 1_555 1_555
C18 C17 1_555 1_555
C19 C18 1_555 1_555
C20 C19 1_555 1_555
C21 C20 1_555 1_555
C22 C17 1_555 1_555
N4 C19 1_555 1_555
C23 C6 1_555 1_555
C24 C21 1_555 1_555
N5 C24 1_555 1_555
C25 N5 1_555 1_555
C26 C25 1_555 1_555
C27 C26 1_555 1_555
C28 C27 1_555 1_555
C29 C28 1_555 1_555
C30 N1 1_555 1_555
C31 C26 1_555 1_555
C32 C28 1_555 1_555
N6 C32 1_555 1_555
C33 C13 1_555 1_555
S1 N1 1_555 1_555
O1 S1 1_555 1_555
O2 S1 1_555 1_555
C34 S1 1_555 1_555
C35 C34 1_555 1_555
C36 C35 1_555 1_555
C37 C36 1_555 1_555
C38 C37 1_555 1_555
C39 C34 1_555 1_555
C40 C37 1_555 1_555
S2 N2 1_555 1_555
O3 S2 1_555 1_555
O4 S2 1_555 1_555
C41 S2 1_555 1_555
C42 C41 1_555 1_555
C43 C42 1_555 1_555
C44 C43 1_555 1_555
C45 C44 1_555 1_555
C46 C41 1_555 1_555
C47 C44 1_555 1_555
S3 N3 1_555 1_555
O5 S3 1_555 1_555
O6 S3 1_555 1_555
C48 S3 1_555 1_555
C49 C48 1_555 1_555
C50 C49 1_555 1_555
C51 C50 1_555 1_555
C52 C51 1_555 1_555
C53 C48 1_555 1_555
C54 C51 1_555 1_555
C55 C54 1_555 1_555
C56 C54 1_555 1_555
C57 C54 1_555 1_555
S4 N4 1_555 1_555
O7 S4 1_555 1_555
O8 S4 1_555 1_555
C58 S4 1_555 1_555
C59 C58 1_555 1_555
C60 C59 1_555 1_555
C61 C60 1_555 1_555
C62 C61 1_555 1_555
C63 C58 1_555 1_555
C64 C61 1_555 1_555
S5 N5 1_555 1_555
O9 S5 1_555 1_555
O10 S5 1_555 1_555
C65 S5 1_555 1_555
C66 C65 1_555 1_555
C67 C66 1_555 1_555
C68 C67 1_555 1_555
C69 C68 1_555 1_555
C70 C65 1_555 1_555
C71 C68 1_555 1_555
C72 C71 1_555 1_555
C73 C71 1_555 1_555
C74 C71 1_555 1_555
S6 N6 1_555 1_555
O11 S6 1_555 1_555
O12 S6 1_555 1_555
C75 S6 1_555 1_555
C76 C75 1_555 1_555
C77 C76 1_555 1_555
C78 C77 1_555 1_555
C79 C78 1_555 1_555
C80 C75 1_555 1_555
C81 C78 1_555 1_555
C82 C81 1_555 1_555
C83 C81 1_555 1_555
C84 C81 1_555 1_555
H1 C1 1_555 1_555
H2 C1 1_555 1_555
H3 C3 1_555 1_555
H4 C5 1_555 1_555
H5 C7 1_555 1_555
H6 C8 1_555 1_555
H7 C8 1_555 1_555
H8 C10 1_555 1_555
H9 C12 1_555 1_555
H10 C14 1_555 1_555
H11 C15 1_555 1_555
H12 C15 1_555 1_555
H13 C16 1_555 1_555
H14 C16 1_555 1_555
H15 C18 1_555 1_555
H16 C20 1_555 1_555
H17 C22 1_555 1_555
H18 C23 1_555 1_555
H19 C23 1_555 1_555
H20 C24 1_555 1_555
H21 C24 1_555 1_555
H22 C25 1_555 1_555
H23 C25 1_555 1_555
H24 C27 1_555 1_555
H25 C29 1_555 1_555
H26 C31 1_555 1_555
H27 C32 1_555 1_555
H28 C32 1_555 1_555
H29 C33 1_555 1_555
H30 C33 1_555 1_555
H31 C35 1_555 1_555
H32 C36 1_555 1_555
H33 C38 1_555 1_555
H34 C39 1_555 1_555
H35 C40 1_555 1_555
H36 C40 1_555 1_555
H37 C40 1_555 1_555
H38 C42 1_555 1_555
H39 C43 1_555 1_555
H40 C45 1_555 1_555
H41 C46 1_555 1_555
H42 C47 1_555 1_555
H43 C47 1_555 1_555
H44 C47 1_555 1_555
H45 C49 1_555 1_555
H46 C50 1_555 1_555
H47 C52 1_555 1_555
H48 C53 1_555 1_555
H49 C55 1_555 1_555
H50 C55 1_555 1_555
H51 C55 1_555 1_555
H52 C56 1_555 1_555
H53 C56 1_555 1_555
H54 C56 1_555 1_555
H55 C57 1_555 1_555
H56 C57 1_555 1_555
H57 C57 1_555 1_555
H58 C59 1_555 1_555
H59 C60 1_555 1_555
H60 C62 1_555 1_555
H61 C63 1_555 1_555
H62 C64 1_555 1_555
H63 C64 1_555 1_555
H64 C64 1_555 1_555
H65 C66 1_555 1_555
H66 C67 1_555 1_555
H67 C69 1_555 1_555
H68 C70 1_555 1_555
H69 C72 1_555 1_555
H70 C72 1_555 1_555
H71 C72 1_555 1_555
H72 C73 1_555 1_555
H73 C73 1_555 1_555
H74 C73 1_555 1_555
H75 C74 1_555 1_555
H76 C74 1_555 1_555
H77 C74 1_555 1_555
H78 C76 1_555 1_555
H79 C77 1_555 1_555
H80 C79 1_555 1_555
H81 C80 1_555 1_555
H82 C82 1_555 1_555
H83 C82 1_555 1_555
H84 C82 1_555 1_555
H85 C83 1_555 1_555
H86 C83 1_555 1_555
H87 C83 1_555 1_555
H88 C84 1_555 1_555
H89 C84 1_555 1_555
H90 C84 1_555 1_555
O13 C85 1_555 1_555
C85 C86 1_555 1_555
C86 H91 1_555 1_555
C87 C85 1_555 1_555
H92 C86 1_555 1_555
H93 C86 1_555 1_555
H94 C87 1_555 1_555
H95 C87 1_555 1_555
H96 C87 1_555 1_555
O14 C88 1_555 1_555
C88 C89 1_555 1_555
C89 H97 1_555 1_555
C90 C88 1_555 1_555
H98 C89 1_555 1_555
H99 C89 1_555 1_555
H100 C90 1_555 1_555
H101 C90 1_555 1_555
H102 C90 1_555 1_555
O15 C91 1_555 1_555
C91 C92 1_555 1_555
C92 H103 1_555 1_555
C93 C91 1_555 1_555
H104 C92 1_555 1_555
H105 C92 1_555 1_555
H106 C93 1_555 1_555
H107 C93 1_555 1_555
H108 C93 1_555 1_555
C13 C14 1_555 1_555
C21 C22 1_555 1_555
N4 C23 1_555 1_555
C29 C30 1_555 1_555
C30 C31 1_555 1_555
N6 C33 1_555 1_555
C38 C39 1_555 1_555
C45 C46 1_555 1_555
C52 C53 1_555 1_555
C62 C63 1_555 1_555
C69 C70 1_555 1_555
C79 C80 1_555 1_555

#END
