
#######################################################################
#
#                 Cambridge Crystallographic Data Centre
#                                CCDC 
#
#######################################################################
#
# If this CIF has been generated from an entry in the Cambridge 
# Structural Database, then it will include bibliographic, chemical, 
# crystal, experimental, refinement or atomic coordinate data resulting 
# from the CCDC's data processing and validation procedures.
#
#######################################################################

data_PEPTUB
_chemical_formula_moiety         'C23 H21 N3 O4 S1'
_chemical_name_systematic        
"Ethyl (2'R,3'S,4'S)-1,1''-dimethyl-2,2''-dioxo-5'-thioxo-1,1'',2,2''-tetrahydrodispiro[indole-3,2'-pyrrolidine-4',3''-indole]-3'-carboxylate"
_symmetry_cell_setting           orthorhombic
_symmetry_space_group_name_H-M   'P 21 21 21'
_symmetry_Int_Tables_number      19
_space_group_name_Hall           'P 2ac 2ab'
loop_
_symmetry_equiv_pos_site_id
_symmetry_equiv_pos_as_xyz
1 x,y,z
2 1/2+x,1/2-y,-z
3 -x,1/2+y,1/2-z
4 1/2-x,-y,1/2+z
_cell_length_a                   9.2529(10)
_cell_length_b                   11.1077(12)
_cell_length_c                   21.048(2)
_cell_angle_alpha                90
_cell_angle_beta                 90
_cell_angle_gamma                90
_cell_volume                     2163.28
_chemical_melting_point          '261-263 deg.C'
_cell_formula_units_Z            4
loop_
_atom_site_label
_atom_site_type_symbol
_atom_site_fract_x
_atom_site_fract_y
_atom_site_fract_z
C1 C 0.87417(17) 0.75108(14) 0.31327(8)
C2 C 0.86577(17) 0.62745(14) 0.32343(7)
C3 C 0.9902(2) 0.56477(17) 0.33753(10)
H1 H 0.9862 0.4826 0.3457
C4 C 1.1219(2) 0.6253(2) 0.33945(10)
H2 H 1.2063 0.5831 0.3483
C5 C 1.1278(2) 0.74715(19) 0.32836(9)
H3 H 1.2166 0.7863 0.3296
C6 C 1.00403(19) 0.81279(16) 0.31541(9)
H4 H 1.0080 0.8954 0.3084
C7 C 0.63299(17) 0.71267(14) 0.30690(8)
C8 C 0.70824(16) 0.59051(13) 0.31827(7)
C9 C 0.7039(2) 0.92561(14) 0.29237(10)
H5 H 0.7170 0.9437 0.2481
H6 H 0.7684 0.9743 0.3173
H7 H 0.6059 0.9425 0.3044
C10 C 0.67416(16) 0.50881(13) 0.26142(7)
C11 C 0.62007(18) 0.38773(14) 0.35080(7)
C12 C 0.63488(18) 0.52108(13) 0.37306(7)
H8 H 0.5354 0.5514 0.3734
C13 C 0.68675(19) 0.54007(16) 0.43992(8)
C14 C 0.7981(9) 0.6698(6) 0.5121(3)
H9 H 0.8833 0.6195 0.5163
H10 H 0.7315 0.6508 0.5463
C15 C 0.8379(7) 0.8006(5) 0.5130(3)
H11 H 0.9051 0.8170 0.4794
H12 H 0.8816 0.8201 0.5531
H13 H 0.7526 0.8485 0.5072
C16 C 0.47403(19) 0.34129(14) 0.37834(8)
C17 C 0.6507(2) 0.21381(14) 0.41274(8)
C18 C 0.72462(19) 0.29144(14) 0.37256(7)
C19 C 0.8643(2) 0.26492(16) 0.35501(10)
H14 H 0.9113 0.3110 0.3245
C20 C 0.9342(3) 0.16796(19) 0.38364(12)
H15 H 1.0300 0.1513 0.3735
C21 C 0.8623(3) 0.0968(2) 0.42676(13)
H16 H 0.9113 0.0341 0.4465
C22 C 0.7191(3) 0.11672(17) 0.44119(10)
H17 H 0.6698 0.0666 0.4692
C23 C 0.3958(3) 0.18131(18) 0.45306(9)
H18 H 0.3026 0.2168 0.4458
H19 H 0.4191 0.1863 0.4974
H20 H 0.3940 0.0984 0.4402
N1 N 0.73515(14) 0.79880(11) 0.30350(6)
N2 N 0.62068(16) 0.40535(12) 0.28250(6)
H21 H 0.598(2) 0.3458(13) 0.2581(8)
N3 N 0.50429(18) 0.24556(12) 0.41635(7)
O1 O 0.50215(12) 0.72634(10) 0.30208(6)
O2 O 0.67954(19) 0.46583(13) 0.48076(6)
O3 O 0.7282(2) 0.65194(12) 0.44899(6)
O4 O 0.35723(14) 0.38767(12) 0.37003(8)
S1 S 0.69717(5) 0.54773(4) 0.18658(2)
C24? C 0.7518(9) 0.6996(9) 0.5128(4)
H22? H 0.7168 0.6442 0.5449
H23? H 0.7044 0.7768 0.5182
C25? C 0.9115(9) 0.7121(12) 0.5157(4)
H24? H 0.9555 0.6344 0.5106
H25? H 0.9387 0.7453 0.5561
H26? H 0.9435 0.7646 0.4824
loop_
_geom_bond_atom_site_label_1
_geom_bond_atom_site_label_2
_geom_bond_site_symmetry_1
_geom_bond_site_symmetry_2
C1 C2 1_555 1_555
C2 C3 1_555 1_555
C3 H1 1_555 1_555
C4 C3 1_555 1_555
H2 C4 1_555 1_555
C5 C4 1_555 1_555
H3 C5 1_555 1_555
C6 C1 1_555 1_555
H4 C6 1_555 1_555
C7 C8 1_555 1_555
C8 C2 1_555 1_555
C9 H5 1_555 1_555
H6 C9 1_555 1_555
H7 C9 1_555 1_555
C10 C8 1_555 1_555
C11 C12 1_555 1_555
C12 C8 1_555 1_555
H8 C12 1_555 1_555
C13 C12 1_555 1_555
C14 H9 1_555 1_555
H10 C14 1_555 1_555
C15 C14 1_555 1_555
H11 C15 1_555 1_555
H12 C15 1_555 1_555
H13 C15 1_555 1_555
C16 C11 1_555 1_555
C17 C18 1_555 1_555
C18 C11 1_555 1_555
C19 C18 1_555 1_555
H14 C19 1_555 1_555
C20 C19 1_555 1_555
H15 C20 1_555 1_555
C21 C20 1_555 1_555
H16 C21 1_555 1_555
C22 C17 1_555 1_555
H17 C22 1_555 1_555
C23 H18 1_555 1_555
H19 C23 1_555 1_555
H20 C23 1_555 1_555
N1 C1 1_555 1_555
N2 C10 1_555 1_555
H21 N2 1_555 1_555
N3 C16 1_555 1_555
O1 C7 1_555 1_555
O2 C13 1_555 1_555
O3 C13 1_555 1_555
O4 C16 1_555 1_555
S1 C10 1_555 1_555
C5 C6 1_555 1_555
C7 N1 1_555 1_555
C9 N1 1_555 1_555
C11 N2 1_555 1_555
C14 O3 1_555 1_555
C17 N3 1_555 1_555
C21 C22 1_555 1_555
C23 N3 1_555 1_555

#END
