
#######################################################################
#
#                 Cambridge Crystallographic Data Centre
#                                CCDC 
#
#######################################################################
#
# If this CIF has been generated from an entry in the Cambridge 
# Structural Database, then it will include bibliographic, chemical, 
# crystal, experimental, refinement or atomic coordinate data resulting 
# from the CCDC's data processing and validation procedures.
#
#######################################################################

data_PEPTUB01
_chemical_formula_moiety         'C23 H21 N3 O4 S1'
_chemical_name_systematic        
"Ethyl 1,1''-dimethyl-2,2''-dioxo-5'-thioxo-1,1'',2,2''-tetrahydrodispiro[indole-3,2'-pyrrolidine-4',3''-indole]-3'-carboxylate"
_symmetry_cell_setting           orthorhombic
_symmetry_space_group_name_H-M   'P 21 21 21'
_symmetry_Int_Tables_number      19
_space_group_name_Hall           'P 2ac 2ab'
loop_
_symmetry_equiv_pos_site_id
_symmetry_equiv_pos_as_xyz
1 x,y,z
2 1/2-x,-y,1/2+z
3 1/2+x,1/2-y,-z
4 -x,1/2+y,1/2-z
_cell_length_a                   9.2466(4)
_cell_length_b                   11.1190(6)
_cell_length_c                   21.0521(18)
_cell_angle_alpha                90
_cell_angle_beta                 90
_cell_angle_gamma                90
_cell_volume                     2164.43
_exptl_crystal_colour            'dark colorless'
_exptl_crystal_description       block
_cell_formula_units_Z            4
loop_
_atom_site_label
_atom_site_type_symbol
_atom_site_fract_x
_atom_site_fract_y
_atom_site_fract_z
S1 S 0.30312(12) 0.45200(9) 0.81341(4)
O1 O 0.6429(3) 0.6122(2) 0.63000(15)
O2 O 0.4981(3) 0.2733(2) 0.69799(12)
O3 O 0.3195(4) 0.5343(3) 0.51970(13)
O4 O 0.2716(4) 0.3476(2) 0.55100(12)
N1 N 0.4953(4) 0.7541(2) 0.58366(14)
N2 N 0.3791(4) 0.5945(2) 0.71727(13)
H1 H 0.4111 0.6487 0.7428
N3 N 0.2655(3) 0.2010(2) 0.69639(13)
C1 C 0.3491(5) 0.7862(3) 0.58721(16)
C2 C 0.2807(7) 0.8835(3) 0.5590(2)
H2 H 0.3299 0.9341 0.5312
C3 C 0.1371(7) 0.9024(4) 0.5736(2)
H3 H 0.0870 0.9642 0.5535
C4 C 0.0671(6) 0.8321(4) 0.6169(2)
H4 H -0.0279 0.8500 0.6279
C5 C 0.1348(5) 0.7348(3) 0.64481(19)
H5 H 0.0867 0.6879 0.6747
C6 C 0.2744(5) 0.7086(3) 0.62761(16)
C7 C 0.3810(4) 0.6121(3) 0.64903(15)
C8 C 0.5253(5) 0.6589(3) 0.62144(17)
C9 C 0.6040(5) 0.8187(4) 0.54710(19)
H6 H 0.6981 0.7869 0.5566
H7 H 0.6011 0.9025 0.5580
H8 H 0.5847 0.8093 0.5026
C10 C 0.3258(4) 0.4911(3) 0.73875(16)
C11 C 0.2911(4) 0.4095(3) 0.68165(16)
C12 C 0.3653(4) 0.4792(3) 0.62690(15)
H9 H 0.4646 0.4484 0.6264
C13 C 0.3668(4) 0.2873(3) 0.69233(16)
C14 C 0.1257(4) 0.2490(3) 0.68695(17)
C15 C -0.0036(4) 0.1875(3) 0.68466(18)
H10 H -0.0070 0.1049 0.6915
C16 C -0.1286(5) 0.2522(4) 0.67179(19)
H11 H -0.2174 0.2131 0.6707
C17 C -0.1219(5) 0.3744(4) 0.6606(2)
H12 H -0.2061 0.4167 0.6514
C18 C 0.0097(5) 0.4349(3) 0.66278(19)
H13 H 0.0133 0.5172 0.6553
C19 C 0.1349(4) 0.3721(3) 0.67615(16)
C20 C 0.2958(5) 0.0736(3) 0.7075(2)
H14 H 0.3925 0.0555 0.6940
H15 H 0.2284 0.0254 0.6840
H16 H 0.2863 0.0563 0.7520
C21 C 0.3123(4) 0.4600(3) 0.56060(16)
C22 C 0.2230(8) 0.3167(5) 0.4875(2)
H17 H 0.1533 0.3759 0.4730
H18 H 0.3046 0.3180 0.4585
C23 C 0.1601(13) 0.2036(10) 0.4868(5)
H19 H 0.2338 0.1435 0.4915
H20 H 0.1105 0.1918 0.4472
H21 H 0.0924 0.1973 0.5212
H22? H 0.2469 0.3820 0.4588
H23? H 0.2745 0.2457 0.4732
C24? C 0.0693(12) 0.294(2) 0.4841(8)
H24? H 0.0425 0.2377 0.5167
H25? H 0.0457 0.2611 0.4432
H26? H 0.0176 0.3679 0.4903
loop_
_geom_bond_atom_site_label_1
_geom_bond_atom_site_label_2
_geom_bond_site_symmetry_1
_geom_bond_site_symmetry_2
S1 C10 1_555 1_555
O1 C8 1_555 1_555
O2 C13 1_555 1_555
O3 C21 1_555 1_555
O4 C21 1_555 1_555
N1 C1 1_555 1_555
N2 H1 1_555 1_555
N3 C13 1_555 1_555
C1 C2 1_555 1_555
C2 H2 1_555 1_555
C3 C2 1_555 1_555
H3 C3 1_555 1_555
C4 C3 1_555 1_555
H4 C4 1_555 1_555
C5 C4 1_555 1_555
H5 C5 1_555 1_555
C6 C1 1_555 1_555
C7 N2 1_555 1_555
C8 N1 1_555 1_555
C9 N1 1_555 1_555
H6 C9 1_555 1_555
H7 C9 1_555 1_555
H8 C9 1_555 1_555
C10 N2 1_555 1_555
C11 C10 1_555 1_555
C12 C7 1_555 1_555
H9 C12 1_555 1_555
C13 C11 1_555 1_555
C14 N3 1_555 1_555
C15 C14 1_555 1_555
H10 C15 1_555 1_555
C16 C15 1_555 1_555
H11 C16 1_555 1_555
C17 C16 1_555 1_555
H12 C17 1_555 1_555
C18 C17 1_555 1_555
H13 C18 1_555 1_555
C19 C11 1_555 1_555
C20 N3 1_555 1_555
H14 C20 1_555 1_555
H15 C20 1_555 1_555
H16 C20 1_555 1_555
C21 C12 1_555 1_555
C22 O4 1_555 1_555
H17 C22 1_555 1_555
H18 C22 1_555 1_555
C23 C22 1_555 1_555
H19 C23 1_555 1_555
H20 C23 1_555 1_555
H21 C23 1_555 1_555
C5 C6 1_555 1_555
C6 C7 1_555 1_555
C7 C8 1_555 1_555
C11 C12 1_555 1_555
C14 C19 1_555 1_555
C18 C19 1_555 1_555

#END
