
#######################################################################
#
#                 Cambridge Crystallographic Data Centre
#                                CCDC 
#
#######################################################################
#
# If this CIF has been generated from an entry in the Cambridge 
# Structural Database, then it will include bibliographic, chemical, 
# crystal, experimental, refinement or atomic coordinate data resulting 
# from the CCDC's data processing and validation procedures.
#
#######################################################################

data_PEPXIU
_chemical_formula_moiety         'C63 H65 Mg1 N5 Si2'
_chemical_name_systematic        
(5,15-bis(phenylethynyl)-10,20-bis((triisopropylsilyl)ethynyl)porphyrinato)-(pyridine)-magnesium
_symmetry_cell_setting           triclinic
_symmetry_space_group_name_H-M   'P -1'
_symmetry_Int_Tables_number      2
_space_group_name_Hall           '-P 1'
loop_
_symmetry_equiv_pos_site_id
_symmetry_equiv_pos_as_xyz
1 x,y,z
2 -x,-y,-z
_cell_length_a                   16.4994(3)
_cell_length_b                   17.8761(3)
_cell_length_c                   19.4470(4)
_cell_angle_alpha                90.9771(7)
_cell_angle_beta                 100.6926(7)
_cell_angle_gamma                102.9959(7)
_cell_volume                     5481.48
_exptl_crystal_colour            red
_exptl_crystal_description       Platelet
_cell_formula_units_Z            4
loop_
_atom_site_label
_atom_site_type_symbol
_atom_site_fract_x
_atom_site_fract_y
_atom_site_fract_z
C1 C 0.4801(2) -0.2538(2) 0.85344(19)
C2 C 0.4233(3) -0.3135(3) 0.8809(2)
H1 H 0.438(2) -0.3556(19) 0.8977(17)
C3 C 0.3496(3) -0.2916(2) 0.8760(2)
H2 H 0.297(3) -0.321(2) 0.891(2)
C4 C 0.3602(2) -0.2191(2) 0.84353(19)
C5 C 0.2971(2) -0.1769(2) 0.82792(19)
C6 C 0.3052(2) -0.1064(2) 0.79528(19)
C7 C 0.2397(3) -0.0644(3) 0.7792(2)
H3 H 0.190(2) -0.0775(19) 0.7901(17)
C8 C 0.2710(3) -0.0018(3) 0.7468(2)
H4 H 0.249(2) 0.040(2) 0.727(2)
C9 C 0.3567(2) -0.0041(2) 0.74214(19)
C10 C 0.4109(2) 0.0502(2) 0.70919(18)
C11 C 0.4943(2) 0.0475(2) 0.70297(18)
C12 C 0.5462(3) 0.0989(2) 0.6636(2)
H5 H 0.528(2) 0.142(2) 0.6375(18)
C13 C 0.6189(3) 0.0754(2) 0.6679(2)
H6 H 0.665(2) 0.098(2) 0.6485(19)
C14 C 0.6132(2) 0.0099(2) 0.71075(18)
C15 C 0.6750(2) -0.0334(2) 0.72563(19)
C16 C 0.6707(2) -0.0987(2) 0.76520(19)
C17 C 0.7357(3) -0.1419(3) 0.7785(2)
H7 H 0.790(2) -0.1273(18) 0.7666(17)
C18 C 0.7055(2) -0.2040(2) 0.8133(2)
H8 H 0.732(2) -0.245(2) 0.834(2)
C19 C 0.6213(2) -0.1992(2) 0.82060(18)
C20 C 0.5650(2) -0.2558(2) 0.84947(19)
C21 C 0.5920(2) -0.3235(2) 0.87157(19)
C22 C 0.6093(2) -0.3833(2) 0.88719(19)
C23 C 0.6241(2) -0.4571(2) 0.90442(19)
C24 C 0.6993(3) -0.4771(2) 0.8968(2)
H9 H 0.7418 -0.4410 0.8801
C25 C 0.7124(3) -0.5490(3) 0.9132(2)
H10 H 0.7635 -0.5623 0.9077
C26 C 0.6497(3) -0.6019(3) 0.9382(2)
H11 H 0.6583 -0.6513 0.9500
C27 C 0.5760(3) -0.5823(2) 0.9456(2)
H12 H 0.5336 -0.6183 0.9624
C28 C 0.5628(3) -0.5114(2) 0.9289(2)
H13 H 0.5111 -0.4990 0.9341
C29 C 0.3787(2) 0.1116(2) 0.6756(2)
C30 C 0.3570(2) 0.1641(2) 0.6457(2)
C31 C 0.3352(2) 0.2267(2) 0.6081(2)
C32 C 0.3989(3) 0.2859(2) 0.5931(2)
H14 H 0.4565 0.2848 0.6096
C33 C 0.3802(3) 0.3462(3) 0.5548(3)
H15 H 0.4246 0.3860 0.5450
C34 C 0.2968(3) 0.3483(3) 0.5309(2)
H16 H 0.2833 0.3897 0.5046
C35 C 0.2332(3) 0.2901(3) 0.5454(2)
H17 H 0.1757 0.2919 0.5292
C36 C 0.2514(3) 0.2294(2) 0.5831(2)
H18 H 0.2066 0.1893 0.5920
C37 C 0.2177(2) -0.2091(2) 0.8477(2)
C38 C 0.1532(3) -0.2382(3) 0.8676(2)
C39 C 0.1071(4) -0.2817(4) 1.0042(3)
H19 H 0.1076 -0.2287 1.0219
C40 C 0.1963(3) -0.2841(4) 1.0229(3)
H20 H 0.2143 -0.2793 1.0741
H21 H 0.2307 -0.2416 1.0023
H22 H 0.2039 -0.3332 1.0049
C41 C 0.0512(4) -0.3314(4) 1.0456(3)
H23 H 0.0422 -0.3854 1.0293
H24 H -0.0034 -0.3170 1.0394
H25 H 0.0782 -0.3246 1.0953
C42 C 0.0157(3) -0.3776(4) 0.8604(3)
H26 H 0.0056 -0.3680 0.8093
C43 C 0.0736(4) -0.4308(3) 0.8689(3)
H27 H 0.0869 -0.4418 0.9184
H28 H 0.1261 -0.4069 0.8533
H29 H 0.0461 -0.4788 0.8407
C44 C -0.0734(4) -0.4177(5) 0.8757(3)
H30 H -0.0963 -0.4654 0.8460
H31 H -0.1120 -0.3831 0.8655
H32 H -0.0676 -0.4295 0.9251
C45 C -0.0075(4) -0.2093(5) 0.8948(4)
H33 H 0.0323 -0.1580 0.9088
C46 C -0.0742(6) -0.2126(5) 0.9357(5)
H34 H -0.1080 -0.1756 0.9190
H35 H -0.0485 -0.2000 0.9853
H36 H -0.1110 -0.2646 0.9301
C47 C -0.0445(4) -0.2057(5) 0.8152(4)
H37 H -0.0787 -0.2565 0.7964
H38 H 0.0022 -0.1901 0.7900
H39 H -0.0800 -0.1683 0.8095
C48 C 0.7465(2) -0.0119(2) 0.6920(2)
C49 C 0.8017(2) 0.0039(2) 0.6583(2)
C50 C 0.9425(2) -0.0470(2) 0.6080(2)
H40 H 0.9763 -0.0405 0.5699
C51 C 1.0059(3) -0.0298(2) 0.6785(2)
H41 H 0.9748 -0.0358 0.7171
H42 H 1.0400 0.0230 0.6808
H43 H 1.0433 -0.0658 0.6824
C52 C 0.8924(3) -0.1317(2) 0.6023(2)
H44 H 0.9322 -0.1655 0.6084
H45 H 0.8553 -0.1435 0.5560
H46 H 0.8581 -0.1399 0.6387
C53 C 0.9329(2) 0.1243(2) 0.6118(2)
H47 H 0.9676 0.1267 0.6601
C54 C 0.9975(3) 0.1488(2) 0.5640(2)
H48 H 0.9675 0.1464 0.5152
H49 H 1.0362 0.1140 0.5681
H50 H 1.0301 0.2015 0.5781
C55 C 0.8792(3) 0.1823(2) 0.6149(3)
H51 H 0.9159 0.2322 0.6336
H52 H 0.8386 0.1648 0.6454
H53 H 0.8485 0.1873 0.5676
C56 C 0.7973(2) -0.0031(2) 0.50619(19)
H54 H 0.7666 -0.0579 0.5072
C57 C 0.8419(3) -0.0006(3) 0.4442(2)
H55 H 0.8003 -0.0224 0.4017
H56 H 0.8852 -0.0308 0.4532
H57 H 0.8688 0.0528 0.4376
C58 C 0.7287(3) 0.0421(3) 0.4916(2)
H58 H 0.7547 0.0959 0.4858
H59 H 0.6990 0.0392 0.5310
H60 H 0.6883 0.0202 0.4487
C59 C 0.5290(3) 0.0483(3) 0.9039(2)
H61 H 0.4847 0.0607 0.8707
C60 C 0.5698(4) 0.1017(3) 0.9593(3)
H62 H 0.5547 0.1496 0.9637
C61 C 0.6315(4) 0.0830(4) 1.0066(3)
H63 H 0.6610 0.1180 1.0452
C62 C 0.6519(4) 0.0133(4) 0.9991(3)
H64 H 0.6948 -0.0008 1.0325
C63 C 0.6093(3) -0.0353(3) 0.9424(2)
H65 H 0.6244 -0.0830 0.9371
N1 N 0.44150(18) -0.19661(17) 0.83082(15)
N2 N 0.60249(18) -0.13391(18) 0.79297(15)
N3 N 0.53647(18) -0.00558(17) 0.73213(15)
N4 N 0.37667(18) -0.06785(18) 0.77260(15)
N5 N 0.5481(2) -0.01946(19) 0.89443(16)
Mg1 Mg 0.49662(7) -0.09053(7) 0.79814(6)
Si1 Si 0.87097(6) 0.02121(6) 0.59403(6)
Si2 Si 0.06264(8) -0.28148(11) 0.90674(7)
C64 C 0.2851(2) 0.3878(2) 0.31770(19)
C65 C 0.2252(3) 0.3268(3) 0.3408(2)
H66 H 0.236(3) 0.283(2) 0.355(2)
C66 C 0.1544(3) 0.3518(2) 0.3413(2)
H67 H 0.106(2) 0.325(2) 0.3567(19)
C67 C 0.1692(2) 0.4285(2) 0.31824(19)
C68 C 0.1103(2) 0.4755(2) 0.31081(19)
C69 C 0.1227(2) 0.5507(2) 0.28639(18)
C70 C 0.0594(3) 0.5951(2) 0.2745(2)
H68 H 0.003(3) 0.578(2) 0.280(2)
C71 C 0.0955(2) 0.6622(2) 0.2508(2)
H69 H 0.070(2) 0.700(2) 0.2370(18)
C72 C 0.1815(2) 0.6607(2) 0.24859(18)
C73 C 0.2419(2) 0.7205(2) 0.22753(19)
C74 C 0.3266(2) 0.7190(2) 0.22347(19)
C75 C 0.3844(2) 0.7790(2) 0.1972(2)
H70 H 0.374(2) 0.827(2) 0.1793(19)
C76 C 0.4567(3) 0.7549(2) 0.1996(2)
H71 H 0.510(2) 0.783(2) 0.1817(18)
C77 C 0.4437(2) 0.6805(2) 0.22759(18)
C78 C 0.5027(2) 0.6329(2) 0.23494(19)
C79 C 0.4893(2) 0.5570(2) 0.25750(19)
C80 C 0.5498(2) 0.5094(2) 0.2623(2)
H72 H 0.607(2) 0.527(2) 0.2520(18)
C81 C 0.5125(2) 0.4407(3) 0.2829(2)
H73 H 0.534(2) 0.397(2) 0.2901(19)
C82 C 0.4287(2) 0.4454(2) 0.29092(18)
C83 C 0.3684(2) 0.3856(2) 0.31269(19)
C84 C 0.3958(2) 0.3178(2) 0.3342(2)
C85 C 0.4180(2) 0.2613(2) 0.3558(2)
C86 C 0.4490(2) 0.2000(2) 0.38707(19)
C87 C 0.5180(2) 0.1784(2) 0.3675(2)
H74 H 0.5410 0.2017 0.3297
C88 C 0.5531(2) 0.1235(2) 0.4027(2)
H75 H 0.5998 0.1087 0.3887
C89 C 0.5206(2) 0.0899(2) 0.4582(2)
H76 H 0.5455 0.0527 0.4830
C90 C 0.4516(3) 0.1104(2) 0.4775(2)
H77 H 0.4293 0.0872 0.5157
C91 C 0.4152(2) 0.1639(2) 0.4419(2)
H78 H 0.3668 0.1764 0.4546
C92 C 0.2120(2) 0.7869(2) 0.2043(2)
C93 C 0.1808(2) 0.8382(2) 0.1834(2)
C94 C 0.1373(3) 0.8953(3) 0.1545(2)
C95 C 0.1748(4) 0.9509(3) 0.1150(3)
H79 H 0.2312 0.9538 0.1089
C96 C 0.1291(5) 1.0043(3) 0.0831(3)
H80 H 0.1532 1.0422 0.0545
C97 C 0.0477(5) 0.9985(4) 0.0957(3)
H81 H 0.0163 1.0338 0.0753
C98 C 0.0113(4) 0.9446(4) 0.1359(3)
H82 H -0.0445 0.9425 0.1433
C99 C 0.0553(3) 0.8933(3) 0.1656(3)
H83 H 0.0301 0.8559 0.1942
C100 C 0.0297(2) 0.4446(2) 0.3308(2)
C101 C -0.0366(2) 0.4198(2) 0.3495(2)
C102 C -0.0957(3) 0.3932(3) 0.4824(2)
H84 H -0.0736 0.4501 0.4905
C103 C -0.0196(3) 0.3608(3) 0.5123(2)
H85 H -0.0009 0.3766 0.5623
H86 H 0.0266 0.3804 0.4874
H87 H -0.0357 0.3045 0.5063
C104 C -0.1649(3) 0.3753(3) 0.5245(2)
H88 H -0.1909 0.3201 0.5191
H89 H -0.2080 0.4040 0.5077
H90 H -0.1408 0.3903 0.5741
C105 C -0.1681(2) 0.2762(2) 0.3469(2)
H91 H -0.1835 0.2799 0.2951
C106 C -0.1020(3) 0.2289(3) 0.3572(3)
H92 H -0.0855 0.2216 0.4073
H93 H -0.0522 0.2557 0.3394
H94 H -0.1255 0.1786 0.3317
C107 C -0.2490(3) 0.2326(3) 0.3685(3)
H95 H -0.2660 0.1806 0.3457
H96 H -0.2942 0.2598 0.3542
H97 H -0.2389 0.2293 0.4195
C108 C -0.2149(2) 0.4318(2) 0.3537(2)
H98 H -0.2654 0.4076 0.3738
C109 C -0.2431(3) 0.4235(3) 0.2736(3)
H99 H -0.2895 0.4494 0.2596
H100 H -0.2627 0.3688 0.2582
H101 H -0.1952 0.4469 0.2518
C110 C -0.1899(3) 0.5162(3) 0.3787(3)
H102 H -0.1426 0.5427 0.3576
H103 H -0.1726 0.5209 0.4299
H104 H -0.2384 0.5395 0.3647
C111 C 0.5815(2) 0.6621(2) 0.21153(19)
C112 C 0.6459(2) 0.6834(2) 0.1894(2)
C113 C 0.7336(4) 0.6289(3) 0.0865(3)
H105 H 0.6953 0.6322 0.0409
C114 C 0.8267(4) 0.6309(4) 0.0692(4)
H106 H 0.8620 0.6140 0.1095
H107 H 0.8535 0.6834 0.0598
H108 H 0.8208 0.5964 0.0280
C115 C 0.7033(3) 0.5469(3) 0.1116(2)
H109 H 0.7015 0.5084 0.0745
H110 H 0.6465 0.5412 0.1222
H111 H 0.7427 0.5395 0.1538
C116 C 0.8322(2) 0.7527(2) 0.2057(2)
H112 H 0.8791 0.7648 0.1788
C117 C 0.8543(3) 0.6938(3) 0.2605(3)
H113 H 0.9059 0.7181 0.2943
H114 H 0.8636 0.6488 0.2364
H115 H 0.8073 0.6777 0.2854
C118 C 0.8290(3) 0.8269(3) 0.2423(3)
H116 H 0.7782 0.8187 0.2631
H117 H 0.8271 0.8666 0.2083
H118 H 0.8796 0.8436 0.2793
C119 C 0.7033(4) 0.7905(5) 0.0851(3)
H119 H 0.7114 0.8359 0.1184
C120 C 0.7680(4) 0.8154(4) 0.0360(3)
H120 H 0.7742 0.7699 0.0106
H121 H 0.8231 0.8417 0.0642
H122 H 0.7475 0.8505 0.0024
C121 C 0.6168(3) 0.7761(3) 0.0490(3)
H123 H 0.6063 0.8227 0.0267
H124 H 0.5792 0.7619 0.0825
H125 H 0.6059 0.7340 0.0131
C122 C 0.3718(2) 0.5483(2) 0.4470(2)
H126 H 0.3674 0.4964 0.4322
C123 C 0.3951(2) 0.5696(2) 0.5176(2)
H127 H 0.4059 0.5330 0.5508
C124 C 0.4024(2) 0.6437(2) 0.5387(2)
H128 H 0.4181 0.6598 0.5871
C125 C 0.3868(3) 0.6954(2) 0.4894(2)
H129 H 0.3929 0.7480 0.5031
C126 C 0.3622(2) 0.6700(2) 0.4200(2)
H130 H 0.3500 0.7058 0.3863
N6 N 0.24963(18) 0.44986(17) 0.30374(15)
N7 N 0.41584(18) 0.51673(17) 0.27525(15)
N8 N 0.36387(18) 0.65996(17) 0.24265(15)
N9 N 0.19707(18) 0.59117(17) 0.26963(15)
N10 N 0.35483(18) 0.59780(18) 0.39812(15)
Mg2 Mg 0.31275(7) 0.56006(7) 0.28798(6)
Si3 Si 0.73312(7) 0.70955(8) 0.14236(6)
Si4 Si -0.13079(7) 0.37809(6) 0.38469(6)
loop_
_geom_bond_atom_site_label_1
_geom_bond_atom_site_label_2
_geom_bond_site_symmetry_1
_geom_bond_site_symmetry_2
C1 C2 1_555 1_555
C2 H1 1_555 1_555
C3 C2 1_555 1_555
H2 C3 1_555 1_555
C4 C3 1_555 1_555
C5 C4 1_555 1_555
C6 C5 1_555 1_555
C7 C6 1_555 1_555
H3 C7 1_555 1_555
C8 C7 1_555 1_555
H4 C8 1_555 1_555
C9 C8 1_555 1_555
C10 C9 1_555 1_555
C11 C10 1_555 1_555
C12 C11 1_555 1_555
H5 C12 1_555 1_555
C13 C12 1_555 1_555
H6 C13 1_555 1_555
C14 C13 1_555 1_555
C15 C14 1_555 1_555
C16 C15 1_555 1_555
C17 C16 1_555 1_555
H7 C17 1_555 1_555
C18 C17 1_555 1_555
H8 C18 1_555 1_555
C19 C18 1_555 1_555
C20 C1 1_555 1_555
C21 C20 1_555 1_555
C22 C21 1_555 1_555
C23 C22 1_555 1_555
C24 C23 1_555 1_555
H9 C24 1_555 1_555
C25 C24 1_555 1_555
H10 C25 1_555 1_555
C26 C25 1_555 1_555
H11 C26 1_555 1_555
C27 C26 1_555 1_555
H12 C27 1_555 1_555
C28 C23 1_555 1_555
H13 C28 1_555 1_555
C29 C10 1_555 1_555
C30 C29 1_555 1_555
C31 C30 1_555 1_555
C32 C31 1_555 1_555
H14 C32 1_555 1_555
C33 C32 1_555 1_555
H15 C33 1_555 1_555
C34 C33 1_555 1_555
H16 C34 1_555 1_555
C35 C34 1_555 1_555
H17 C35 1_555 1_555
C36 C31 1_555 1_555
H18 C36 1_555 1_555
C37 C5 1_555 1_555
C38 C37 1_555 1_555
C39 H19 1_555 1_555
C40 C39 1_555 1_555
H20 C40 1_555 1_555
H21 C40 1_555 1_555
H22 C40 1_555 1_555
C41 C39 1_555 1_555
H23 C41 1_555 1_555
H24 C41 1_555 1_555
H25 C41 1_555 1_555
C42 H26 1_555 1_555
C43 C42 1_555 1_555
H27 C43 1_555 1_555
H28 C43 1_555 1_555
H29 C43 1_555 1_555
C44 C42 1_555 1_555
H30 C44 1_555 1_555
H31 C44 1_555 1_555
H32 C44 1_555 1_555
C45 H33 1_555 1_555
C46 C45 1_555 1_555
H34 C46 1_555 1_555
H35 C46 1_555 1_555
H36 C46 1_555 1_555
C47 C45 1_555 1_555
H37 C47 1_555 1_555
H38 C47 1_555 1_555
H39 C47 1_555 1_555
C48 C15 1_555 1_555
C49 C48 1_555 1_555
C50 H40 1_555 1_555
C51 C50 1_555 1_555
H41 C51 1_555 1_555
H42 C51 1_555 1_555
H43 C51 1_555 1_555
C52 C50 1_555 1_555
H44 C52 1_555 1_555
H45 C52 1_555 1_555
H46 C52 1_555 1_555
C53 H47 1_555 1_555
C54 C53 1_555 1_555
H48 C54 1_555 1_555
H49 C54 1_555 1_555
H50 C54 1_555 1_555
C55 C53 1_555 1_555
H51 C55 1_555 1_555
H52 C55 1_555 1_555
H53 C55 1_555 1_555
C56 H54 1_555 1_555
C57 C56 1_555 1_555
H55 C57 1_555 1_555
H56 C57 1_555 1_555
H57 C57 1_555 1_555
C58 C56 1_555 1_555
H58 C58 1_555 1_555
H59 C58 1_555 1_555
H60 C58 1_555 1_555
C59 H61 1_555 1_555
C60 C59 1_555 1_555
H62 C60 1_555 1_555
C61 C60 1_555 1_555
H63 C61 1_555 1_555
C62 C61 1_555 1_555
H64 C62 1_555 1_555
C63 C62 1_555 1_555
H65 C63 1_555 1_555
N1 C1 1_555 1_555
N2 C16 1_555 1_555
N3 C11 1_555 1_555
N4 C6 1_555 1_555
N5 C59 1_555 1_555
Mg1 N1 1_555 1_555
Si1 C49 1_555 1_555
Si2 C38 1_555 1_555
C64 C65 1_555 1_555
C65 H66 1_555 1_555
C66 C65 1_555 1_555
H67 C66 1_555 1_555
C67 C66 1_555 1_555
C68 C67 1_555 1_555
C69 C68 1_555 1_555
C70 C69 1_555 1_555
H68 C70 1_555 1_555
C71 C70 1_555 1_555
H69 C71 1_555 1_555
C72 C71 1_555 1_555
C73 C72 1_555 1_555
C74 C73 1_555 1_555
C75 C74 1_555 1_555
H70 C75 1_555 1_555
C76 C75 1_555 1_555
H71 C76 1_555 1_555
C77 C76 1_555 1_555
C78 C77 1_555 1_555
C79 C78 1_555 1_555
C80 C79 1_555 1_555
H72 C80 1_555 1_555
C81 C80 1_555 1_555
H73 C81 1_555 1_555
C82 C81 1_555 1_555
C83 C64 1_555 1_555
C84 C83 1_555 1_555
C85 C84 1_555 1_555
C86 C85 1_555 1_555
C87 C86 1_555 1_555
H74 C87 1_555 1_555
C88 C87 1_555 1_555
H75 C88 1_555 1_555
C89 C88 1_555 1_555
H76 C89 1_555 1_555
C90 C89 1_555 1_555
H77 C90 1_555 1_555
C91 C86 1_555 1_555
H78 C91 1_555 1_555
C92 C73 1_555 1_555
C93 C92 1_555 1_555
C94 C93 1_555 1_555
C95 C94 1_555 1_555
H79 C95 1_555 1_555
C96 C95 1_555 1_555
H80 C96 1_555 1_555
C97 C96 1_555 1_555
H81 C97 1_555 1_555
C98 C97 1_555 1_555
H82 C98 1_555 1_555
C99 C94 1_555 1_555
H83 C99 1_555 1_555
C100 C68 1_555 1_555
C101 C100 1_555 1_555
C102 H84 1_555 1_555
C103 C102 1_555 1_555
H85 C103 1_555 1_555
H86 C103 1_555 1_555
H87 C103 1_555 1_555
C104 C102 1_555 1_555
H88 C104 1_555 1_555
H89 C104 1_555 1_555
H90 C104 1_555 1_555
C105 H91 1_555 1_555
C106 C105 1_555 1_555
H92 C106 1_555 1_555
H93 C106 1_555 1_555
H94 C106 1_555 1_555
C107 C105 1_555 1_555
H95 C107 1_555 1_555
H96 C107 1_555 1_555
H97 C107 1_555 1_555
C108 H98 1_555 1_555
C109 C108 1_555 1_555
H99 C109 1_555 1_555
H100 C109 1_555 1_555
H101 C109 1_555 1_555
C110 C108 1_555 1_555
H102 C110 1_555 1_555
H103 C110 1_555 1_555
H104 C110 1_555 1_555
C111 C78 1_555 1_555
C112 C111 1_555 1_555
C113 H105 1_555 1_555
C114 C113 1_555 1_555
H106 C114 1_555 1_555
H107 C114 1_555 1_555
H108 C114 1_555 1_555
C115 C113 1_555 1_555
H109 C115 1_555 1_555
H110 C115 1_555 1_555
H111 C115 1_555 1_555
C116 H112 1_555 1_555
C117 C116 1_555 1_555
H113 C117 1_555 1_555
H114 C117 1_555 1_555
H115 C117 1_555 1_555
C118 C116 1_555 1_555
H116 C118 1_555 1_555
H117 C118 1_555 1_555
H118 C118 1_555 1_555
C119 H119 1_555 1_555
C120 C119 1_555 1_555
H120 C120 1_555 1_555
H121 C120 1_555 1_555
H122 C120 1_555 1_555
C121 C119 1_555 1_555
H123 C121 1_555 1_555
H124 C121 1_555 1_555
H125 C121 1_555 1_555
C122 H126 1_555 1_555
C123 C122 1_555 1_555
H127 C123 1_555 1_555
C124 C123 1_555 1_555
H128 C124 1_555 1_555
C125 C124 1_555 1_555
H129 C125 1_555 1_555
C126 C125 1_555 1_555
H130 C126 1_555 1_555
N6 C64 1_555 1_555
N7 C79 1_555 1_555
N8 C74 1_555 1_555
N9 C69 1_555 1_555
N10 C122 1_555 1_555
Mg2 N6 1_555 1_555
Si3 C112 1_555 1_555
Si4 C101 1_555 1_555
C4 N1 1_555 1_555
C9 N4 1_555 1_555
C14 N3 1_555 1_555
C19 C20 1_555 1_555
C19 N2 1_555 1_555
C27 C28 1_555 1_555
C35 C36 1_555 1_555
C39 Si2 1_555 1_555
C42 Si2 1_555 1_555
C45 Si2 1_555 1_555
C50 Si1 1_555 1_555
C53 Si1 1_555 1_555
C56 Si1 1_555 1_555
C63 N5 1_555 1_555
N2 Mg1 1_555 1_555
N3 Mg1 1_555 1_555
N4 Mg1 1_555 1_555
N5 Mg1 1_555 1_555
C67 N6 1_555 1_555
C72 N9 1_555 1_555
C77 N8 1_555 1_555
C82 C83 1_555 1_555
C82 N7 1_555 1_555
C90 C91 1_555 1_555
C98 C99 1_555 1_555
C102 Si4 1_555 1_555
C105 Si4 1_555 1_555
C108 Si4 1_555 1_555
C113 Si3 1_555 1_555
C116 Si3 1_555 1_555
C119 Si3 1_555 1_555
C126 N10 1_555 1_555
N7 Mg2 1_555 1_555
N8 Mg2 1_555 1_555
N9 Mg2 1_555 1_555
N10 Mg2 1_555 1_555

#END
