
#######################################################################
#
#                 Cambridge Crystallographic Data Centre
#                                CCDC 
#
#######################################################################
#
# If this CIF has been generated from an entry in the Cambridge 
# Structural Database, then it will include bibliographic, chemical, 
# crystal, experimental, refinement or atomic coordinate data resulting 
# from the CCDC's data processing and validation procedures.
#
#######################################################################

data_PEQCAS
_chemical_formula_moiety         'C12 H12 N12'
_chemical_name_systematic        
1,4,5,6,9,10,11,14,15,16,19,20-dodecaazapentacyclo[16.2.1.1^3,6^.1^8,11^.1^13,16^]tetracosa-3(24),4,8(23),9,13(22),14,18(21),19-octaene
_symmetry_cell_setting           monoclinic
_symmetry_space_group_name_H-M   'P 21/c'
_symmetry_Int_Tables_number      14
_space_group_name_Hall           '-P 2ybc'
loop_
_symmetry_equiv_pos_site_id
_symmetry_equiv_pos_as_xyz
1 x,y,z
2 -x,1/2+y,1/2-z
3 -x,-y,-z
4 x,1/2-y,1/2+z
_cell_length_a                   8.7126(9)
_cell_length_b                   5.5052(6)
_cell_length_c                   14.9132(18)
_cell_angle_alpha                90
_cell_angle_beta                 101.476(8)
_cell_angle_gamma                90
_cell_volume                     701.005
_exptl_crystal_colour            colorless
_exptl_crystal_description       rod
_cell_formula_units_Z            2
loop_
_atom_site_label
_atom_site_type_symbol
_atom_site_fract_x
_atom_site_fract_y
_atom_site_fract_z
C1 C 0.2306(5) 0.2583(8) 0.3058(3)
H1 H 0.1663 0.1139 0.3039
H2 H 0.2134 0.3272 0.2447
C2 C 0.5232(5) 0.3386(9) 0.3523(3)
H3 H 0.5254 0.5061 0.3445
C3 C 0.6465(5) 0.1915(8) 0.3826(3)
C4 C 0.8137(5) 0.2495(8) 0.4176(3)
H4 H 0.8761 0.1031 0.4188
H5 H 0.8492 0.3654 0.3771
C5 C 0.7724(5) 0.5603(9) 0.5378(3)
H6 H 0.7131 0.6758 0.5006
C6 C 0.8141(4) 0.5623(8) 0.6295(3)
N1 N 0.3967(4) 0.1940(7) 0.3358(3)
N2 N 0.4404(5) -0.0408(7) 0.3564(3)
N3 N 0.5943(4) -0.0398(7) 0.3845(3)
N4 N 0.8355(4) 0.3527(7) 0.5109(3)
N5 N 0.9134(4) 0.2342(7) 0.5853(3)
N6 N 0.8997(4) 0.3623(7) 0.6580(3)
C1B C 0.7694(5) 0.7417(8) 0.6942(3)
H1B H 0.8337 0.8861 0.6961
H2B H 0.7866 0.6728 0.7553
C2B C 0.4768(5) 0.6614(9) 0.6477(3)
H3B H 0.4746 0.4939 0.6555
C3B C 0.3535(5) 0.8085(8) 0.6174(3)
C4B C 0.1863(5) 0.7505(8) 0.5824(3)
H4B H 0.1239 0.8969 0.5812
H5B H 0.1508 0.6346 0.6229
C5B C 0.2276(5) 0.4397(9) 0.4622(3)
H6B H 0.2869 0.3242 0.4994
C6B C 0.1859(4) 0.4377(8) 0.3705(3)
N1B N 0.6033(4) 0.8060(7) 0.6642(3)
N2B N 0.5596(5) 1.0408(7) 0.6436(3)
N3B N 0.4057(4) 1.0398(7) 0.6155(3)
N4B N 0.1645(4) 0.6473(7) 0.4891(3)
N5B N 0.0866(4) 0.7658(7) 0.4147(3)
N6B N 0.1003(4) 0.6377(7) 0.3420(3)
loop_
_geom_bond_atom_site_label_1
_geom_bond_atom_site_label_2
_geom_bond_site_symmetry_1
_geom_bond_site_symmetry_2
C1 H1 1_555 1_555
H2 C1 1_555 1_555
C2 H3 1_555 1_555
C3 C2 1_555 1_555
C4 C3 1_555 1_555
H4 C4 1_555 1_555
H5 C4 1_555 1_555
C5 H6 1_555 1_555
C6 C5 1_555 1_555
N1 C1 1_555 1_555
N2 N1 1_555 1_555
N3 C3 1_555 1_555
N4 C4 1_555 1_555
N5 N4 1_555 1_555
N6 C6 1_555 1_555
C1B C6 1_555 1_555
H1B C1B 1_555 1_555
H2B C1B 1_555 1_555
C2B H3B 1_555 1_555
C3B C2B 1_555 1_555
C4B C3B 1_555 1_555
H4B C4B 1_555 1_555
H5B C4B 1_555 1_555
C5B H6B 1_555 1_555
C6B C1 1_555 1_555
N1B C1B 1_555 1_555
N2B N1B 1_555 1_555
N3B C3B 1_555 1_555
N4B C4B 1_555 1_555
N5B N4B 1_555 1_555
N6B C6B 1_555 1_555
C2 N1 1_555 1_555
C5 N4 1_555 1_555
N2 N3 1_555 1_555
N5 N6 1_555 1_555
C2B N1B 1_555 1_555
C5B C6B 1_555 1_555
C5B N4B 1_555 1_555
N2B N3B 1_555 1_555
N5B N6B 1_555 1_555

#END
