
#######################################################################
#
#                 Cambridge Crystallographic Data Centre
#                                CCDC 
#
#######################################################################
#
# If this CIF has been generated from an entry in the Cambridge 
# Structural Database, then it will include bibliographic, chemical, 
# crystal, experimental, refinement or atomic coordinate data resulting 
# from the CCDC's data processing and validation procedures.
#
#######################################################################

data_PEQCEW
_chemical_formula_moiety         'C19 H19 Br1 O3'
_chemical_name_systematic        
2-(bromomethyl)-8b-methoxy-3-phenyl-2,3,4,8b-tetrahydro-3aH-indeno[1,2-b]furan-3a-ol
_symmetry_cell_setting           monoclinic
_symmetry_space_group_name_H-M   'P 21'
_symmetry_Int_Tables_number      4
_space_group_name_Hall           'P 2yb'
loop_
_symmetry_equiv_pos_site_id
_symmetry_equiv_pos_as_xyz
1 x,y,z
2 -x,1/2+y,-z
_cell_length_a                   7.7292(9)
_cell_length_b                   25.126(3)
_cell_length_c                   9.0730(13)
_cell_angle_alpha                90
_cell_angle_beta                 110.817(11)
_cell_angle_gamma                90
_cell_volume                     1646.99
_exptl_crystal_colour            colorless
_exptl_crystal_description       block
_cell_formula_units_Z            4
loop_
_atom_site_label
_atom_site_type_symbol
_atom_site_fract_x
_atom_site_fract_y
_atom_site_fract_z
Br1 Br 1.34761(5) 0.58341(2) 0.82432(5)
C1 C 0.7088(5) 0.69100(14) 0.4237(4)
O1 O 0.9553(3) 0.63883(9) 0.6147(3)
C2 C 0.7853(5) 0.74097(15) 0.4191(5)
H1 H 0.8843 0.7540 0.5078
O2 O 0.5928(4) 0.56942(10) 0.5746(3)
H2 H 0.5934 0.5889 0.6501
C3 C 0.5723(6) 0.75138(17) 0.1528(5)
H3 H 0.5253 0.7725 0.0602
O3 O 0.6995(3) 0.66169(10) 0.6787(3)
C4 C 0.7153(6) 0.77107(16) 0.2845(5)
H4 H 0.7644 0.8055 0.2809
C5 C 0.5670(5) 0.67157(14) 0.2926(4)
C6 C 0.4989(5) 0.70159(16) 0.1562(4)
H5 H 0.4030 0.6881 0.0662
C7 C 0.7624(5) 0.65029(14) 0.5538(4)
C8 C 0.6610(5) 0.59868(13) 0.4727(4)
C9 C 0.5063(5) 0.61672(15) 0.3218(4)
H6 H 0.4956 0.5925 0.2329
H7 H 0.3858 0.6181 0.3372
C10 C 0.7727(6) 0.70880(17) 0.7677(5)
H8 H 0.9078 0.7090 0.7989
H9 H 0.7392 0.7095 0.8622
H10 H 0.7213 0.7402 0.7030
C11 C 0.9753(4) 0.58180(15) 0.6044(4)
H11 H 0.9511 0.5647 0.6947
C12 C 0.8194(5) 0.56605(14) 0.4511(4)
H12 H 0.7921 0.5273 0.4557
C13 C 0.8579(4) 0.57684(16) 0.3007(4)
C14 C 0.9856(5) 0.62877(19) 0.1401(5)
H13 H 1.0532 0.6591 0.1284
C15 C 0.9549(5) 0.62092(16) 0.2799(4)
H14 H 1.0010 0.6461 0.3629
C16 C 0.8208(7) 0.5495(2) 0.0352(5)
H15 H 0.7735 0.5250 -0.0494
C17 C 0.7897(5) 0.54089(16) 0.1756(4)
H16 H 0.7220 0.5105 0.1862
C18 C 1.1674(5) 0.56801(16) 0.6153(4)
H17 H 1.1992 0.5886 0.5354
H18 H 1.1731 0.5297 0.5918
C19 C 0.9189(6) 0.5930(2) 0.0180(4)
H19 H 0.9406 0.5985 -0.0775
Br2 Br 0.45415(6) 0.40154(2) 1.00524(5)
O4 O 0.9538(3) 0.44443(11) 0.7076(3)
H20 H 1.0195 0.4291 0.7910
O5 O 0.9842(3) 0.35141(10) 0.8258(3)
O6 O 0.6670(3) 0.35887(10) 0.7689(3)
C20 C 0.7721(5) 0.31419(14) 0.5776(4)
C21 C 0.7273(5) 0.26109(16) 0.5826(4)
H21 H 0.7153 0.2463 0.6749
C22 C 0.7002(5) 0.22972(16) 0.4494(5)
H22 H 0.6712 0.1930 0.4514
C23 C 0.7152(5) 0.25152(17) 0.3148(5)
H23 H 0.6982 0.2296 0.2255
C24 C 0.7551(5) 0.30525(16) 0.3087(4)
H24 H 0.7623 0.3203 0.2150
C25 C 0.7842(5) 0.33675(15) 0.4414(4)
C26 C 0.8247(5) 0.39523(16) 0.4591(4)
H25 H 0.7336 0.4155 0.3723
H26 H 0.9505 0.4028 0.4594
C27 C 0.8095(5) 0.40982(14) 0.6185(4)
C28 C 0.8091(5) 0.35608(15) 0.7043(4)
C29 C 1.0090(6) 0.30562(18) 0.9241(4)
H27 H 1.0116 0.2736 0.8631
H28 H 0.9065 0.3031 0.9634
H29 H 1.1261 0.3087 1.0134
C30 C 0.6197(5) 0.41415(14) 0.7707(4)
H30 H 0.7179 0.4323 0.8598
C31 C 0.6243(5) 0.43600(14) 0.6139(4)
H31 H 0.6425 0.4754 0.6241
C32 C 0.4513(5) 0.42468(14) 0.4723(4)
C33 C 0.3672(5) 0.46712(16) 0.3732(5)
H32 H 0.4221 0.5014 0.3942
C34 C 0.2055(6) 0.46005(17) 0.2453(5)
H33 H 0.1519 0.4894 0.1785
C35 C 0.1212(5) 0.41095(17) 0.2137(4)
H34 H 0.0092 0.4063 0.1264
C36 C 0.2015(5) 0.36852(17) 0.3107(4)
H35 H 0.1442 0.3345 0.2899
C37 C 0.3650(5) 0.37504(15) 0.4381(4)
H36 H 0.4190 0.3454 0.5029
C38 C 0.4370(5) 0.42015(16) 0.7929(4)
H37 H 0.3441 0.3970 0.7166
H38 H 0.3942 0.4574 0.7708
loop_
_geom_bond_atom_site_label_1
_geom_bond_atom_site_label_2
_geom_bond_site_symmetry_1
_geom_bond_site_symmetry_2
Br1 C18 1_555 1_555
C1 C2 1_555 1_555
O1 C7 1_555 1_555
C2 H1 1_555 1_555
O2 H2 1_555 1_555
C3 H3 1_555 1_555
O3 C7 1_555 1_555
C4 C2 1_555 1_555
H4 C4 1_555 1_555
C5 C1 1_555 1_555
C6 C3 1_555 1_555
H5 C6 1_555 1_555
C7 C1 1_555 1_555
C8 O2 1_555 1_555
C9 C5 1_555 1_555
H6 C9 1_555 1_555
H7 C9 1_555 1_555
C10 O3 1_555 1_555
H8 C10 1_555 1_555
H9 C10 1_555 1_555
H10 C10 1_555 1_555
C11 O1 1_555 1_555
H11 C11 1_555 1_555
C12 C8 1_555 1_555
H12 C12 1_555 1_555
C13 C12 1_555 1_555
C14 H13 1_555 1_555
C15 C13 1_555 1_555
H14 C15 1_555 1_555
C16 H15 1_555 1_555
C17 C13 1_555 1_555
H16 C17 1_555 1_555
C18 C11 1_555 1_555
H17 C18 1_555 1_555
H18 C18 1_555 1_555
C19 C14 1_555 1_555
H19 C19 1_555 1_555
Br2 C38 1_555 1_555
O4 H20 1_555 1_555
O5 C28 1_555 1_555
O6 C28 1_555 1_555
C20 C21 1_555 1_555
C21 H21 1_555 1_555
C22 C21 1_555 1_555
H22 C22 1_555 1_555
C23 C22 1_555 1_555
H23 C23 1_555 1_555
C24 C23 1_555 1_555
H24 C24 1_555 1_555
C25 C20 1_555 1_555
C26 C25 1_555 1_555
H25 C26 1_555 1_555
H26 C26 1_555 1_555
C27 O4 1_555 1_555
C28 C20 1_555 1_555
C29 O5 1_555 1_555
H27 C29 1_555 1_555
H28 C29 1_555 1_555
H29 C29 1_555 1_555
C30 O6 1_555 1_555
H30 C30 1_555 1_555
C31 C27 1_555 1_555
H31 C31 1_555 1_555
C32 C31 1_555 1_555
C33 C32 1_555 1_555
H32 C33 1_555 1_555
C34 C33 1_555 1_555
H33 C34 1_555 1_555
C35 C34 1_555 1_555
H34 C35 1_555 1_555
C36 C35 1_555 1_555
H35 C36 1_555 1_555
C37 C32 1_555 1_555
H36 C37 1_555 1_555
C38 C30 1_555 1_555
H37 C38 1_555 1_555
H38 C38 1_555 1_555
C3 C4 1_555 1_555
C5 C6 1_555 1_555
C7 C8 1_555 1_555
C8 C9 1_555 1_555
C11 C12 1_555 1_555
C14 C15 1_555 1_555
C16 C17 1_555 1_555
C16 C19 1_555 1_555
C24 C25 1_555 1_555
C26 C27 1_555 1_555
C27 C28 1_555 1_555
C30 C31 1_555 1_555
C36 C37 1_555 1_555

#END
