
#######################################################################
#
#                 Cambridge Crystallographic Data Centre
#                                CCDC 
#
#######################################################################
#
# If this CIF has been generated from an entry in the Cambridge 
# Structural Database, then it will include bibliographic, chemical, 
# crystal, experimental, refinement or atomic coordinate data resulting 
# from the CCDC's data processing and validation procedures.
#
#######################################################################

data_PEQFUP
_chemical_formula_moiety         'C11 H9 F2 N1 O2'
_chemical_name_systematic        '2,2-difluoroethyl 1H-indole-2-carboxylate'
_symmetry_cell_setting           triclinic
_symmetry_space_group_name_H-M   'P -1'
_symmetry_Int_Tables_number      2
_space_group_name_Hall           '-P 1'
loop_
_symmetry_equiv_pos_site_id
_symmetry_equiv_pos_as_xyz
1 x,y,z
2 -x,-y,-z
_cell_length_a                   5.5743(6)
_cell_length_b                   8.0878(11)
_cell_length_c                   12.3099(11)
_cell_angle_alpha                107.200(10)
_cell_angle_beta                 93.657(8)
_cell_angle_gamma                103.638(10)
_cell_volume                     509.854
_exptl_crystal_colour            colorless
_exptl_crystal_description       block
_cell_formula_units_Z            2
loop_
_atom_site_label
_atom_site_type_symbol
_atom_site_fract_x
_atom_site_fract_y
_atom_site_fract_z
N1 N 0.3567(3) 0.1659(2) 1.07847(13)
H1 H 0.2103 0.1011 1.0785
C1 C 0.5461(4) 0.2319(3) 1.16807(16)
C2 C 0.6807(4) 0.3193(3) 1.01890(17)
H2 H 0.7793 0.3710 0.9731
C3 C 0.4369(4) 0.2194(3) 0.98816(16)
C4 C 0.7543(4) 0.3292(3) 1.13347(16)
C5 C 0.9763(4) 0.4094(3) 1.21204(19)
H3 H 1.1174 0.4740 1.1916
C6 C 0.5512(4) 0.2141(3) 1.27738(17)
H4 H 0.4118 0.1496 1.2991
C7 C 0.7704(4) 0.2954(3) 1.35159(18)
H5 H 0.7789 0.2869 1.4254
C8 C 0.9807(4) 0.3906(3) 1.31899(18)
H6 H 1.1271 0.4424 1.3710
O1 O 0.3684(3) 0.22732(19) 0.80180(11)
O2 O 0.0522(3) 0.0736(2) 0.86620(12)
C9 C 0.2654(4) 0.1648(3) 0.88231(17)
C10 C 0.2106(4) 0.1733(3) 0.69391(17)
H7 H 0.0603 0.2135 0.7042
H8 H 0.1634 0.0436 0.6600
F1 F 0.2187(3) 0.2106(2) 0.51620(12)
C11 C 0.3588(5) 0.2585(4) 0.6200(2)
H9 H 0.4068 0.3894 0.6550
F2 F 0.5629(3) 0.1986(2) 0.60133(13)
loop_
_geom_bond_atom_site_label_1
_geom_bond_atom_site_label_2
_geom_bond_site_symmetry_1
_geom_bond_site_symmetry_2
N1 H1 1_555 1_555
C1 N1 1_555 1_555
C2 H2 1_555 1_555
C3 N1 1_555 1_555
C4 C1 1_555 1_555
C5 C4 1_555 1_555
H3 C5 1_555 1_555
C6 C1 1_555 1_555
H4 C6 1_555 1_555
C7 C6 1_555 1_555
H5 C7 1_555 1_555
C8 C5 1_555 1_555
H6 C8 1_555 1_555
O1 C9 1_555 1_555
O2 C9 1_555 1_555
C9 C3 1_555 1_555
C10 O1 1_555 1_555
H7 C10 1_555 1_555
H8 C10 1_555 1_555
F1 C11 1_555 1_555
C11 C10 1_555 1_555
H9 C11 1_555 1_555
F2 C11 1_555 1_555
C2 C3 1_555 1_555
C2 C4 1_555 1_555
C7 C8 1_555 1_555

#END
