
#######################################################################
#
#                 Cambridge Crystallographic Data Centre
#                                CCDC 
#
#######################################################################
#
# If this CIF has been generated from an entry in the Cambridge 
# Structural Database, then it will include bibliographic, chemical, 
# crystal, experimental, refinement or atomic coordinate data resulting 
# from the CCDC's data processing and validation procedures.
#
#######################################################################

data_PEQFAU
_chemical_formula_moiety         'C15 H23 N2 O7 P1'
_chemical_name_systematic        
'Methyl 3-((diethoxyphosphoryl)amino)-2-methyl-2-nitro-3-phenylpropanoate'
_symmetry_cell_setting           orthorhombic
_symmetry_space_group_name_H-M   'P 21 21 21'
_symmetry_Int_Tables_number      19
_space_group_name_Hall           'P 2ac 2ab'
loop_
_symmetry_equiv_pos_site_id
_symmetry_equiv_pos_as_xyz
1 x,y,z
2 1/2-x,-y,1/2+z
3 -x,1/2+y,1/2-z
4 1/2+x,1/2-y,-z
_cell_length_a                   9.992(2)
_cell_length_b                   10.278(2)
_cell_length_c                   17.851(4)
_cell_angle_alpha                90
_cell_angle_beta                 90
_cell_angle_gamma                90
_cell_volume                     1833.26
_exptl_crystal_colour            colorless
_exptl_crystal_description       Prism
_cell_formula_units_Z            4
loop_
_atom_site_label
_atom_site_type_symbol
_atom_site_fract_x
_atom_site_fract_y
_atom_site_fract_z
P1 P 0.77874(3) 0.68615(3) 0.99435(2)
O1 O 0.65317(11) 1.07563(12) 0.84082(6)
O2 O 0.79834(13) 1.07120(15) 0.75185(7)
O3 O 0.93948(11) 0.76269(11) 0.79602(6)
O4 O 0.71743(11) 0.78778(10) 0.81292(6)
O5 O 0.63448(9) 0.71117(9) 0.99524(6)
O6 O 0.81135(9) 0.56841(9) 0.94120(5)
O7 O 0.84213(10) 0.63687(9) 1.06980(5)
N1 N 0.86269(11) 0.81516(11) 0.97000(6)
N2 N 0.76143(13) 1.04311(12) 0.81487(7)
C1 C 0.94819(14) 1.05713(15) 1.03671(8)
H1 H 1.0094 0.9864 1.0364
C2 C 0.97436(15) 1.16549(15) 1.08061(8)
H2 H 1.0535 1.1682 1.1101
C3 C 0.88687(16) 1.26952(15) 1.08205(8)
H3 H 0.9067 1.3445 1.1111
C4 C 0.76994(16) 1.26313(14) 1.04068(8)
H4 H 0.7081 1.3333 1.0422
C5 C 0.74256(14) 1.15448(13) 0.99684(8)
H5 H 0.6614 1.1507 0.9692
C6 C 0.83250(13) 1.05112(12) 0.99283(8)
C7 C 0.80340(13) 0.93489(13) 0.94193(7)
H6 H 0.7042 0.9226 0.9398
C8 C 0.85532(14) 0.95432(13) 0.85990(8)
C9 C 0.99573(15) 1.00946(16) 0.85444(8)
H7 H 1.0570 0.9558 0.8841
H8 H 0.9963 1.0988 0.8737
H9 H 1.0246 1.0094 0.8020
C10 C 0.84574(15) 0.82309(15) 0.81873(8)
C11 C 0.69327(18) 0.66419(16) 0.77611(9)
H10 H 0.7464 0.6595 0.7300
H11 H 0.5980 0.6566 0.7638
H12 H 0.7191 0.5930 0.8097
C12 C 0.94874(15) 0.52383(15) 0.93080(9)
H13 H 0.9864 0.4946 0.9792
H14 H 1.0048 0.5959 0.9116
C13 C 0.94815(18) 0.41298(17) 0.87576(9)
H15 H 0.8969 0.3401 0.8966
H16 H 1.0403 0.3850 0.8661
H17 H 0.9068 0.4416 0.8288
C14 C 0.8468(2) 0.72518(16) 1.13381(9)
H18 H 0.7624 0.7754 1.1372
H19 H 0.9219 0.7872 1.1281
C15 C 0.86549(18) 0.64509(16) 1.20281(8)
H20 H 0.7882 0.5875 1.2094
H21 H 0.8736 0.7025 1.2464
H22 H 0.9469 0.5927 1.1979
H23 H 0.9449(10) 0.8171(17) 0.9827(8)
loop_
_geom_bond_atom_site_label_1
_geom_bond_atom_site_label_2
_geom_bond_site_symmetry_1
_geom_bond_site_symmetry_2
P1 O5 1_555 1_555
O1 N2 1_555 1_555
O2 N2 1_555 1_555
O3 C10 1_555 1_555
O4 C10 1_555 1_555
O6 P1 1_555 1_555
O7 P1 1_555 1_555
N1 P1 1_555 1_555
N2 C8 1_555 1_555
C1 H1 1_555 1_555
C2 C1 1_555 1_555
H2 C2 1_555 1_555
C3 C2 1_555 1_555
H3 C3 1_555 1_555
C4 C3 1_555 1_555
H4 C4 1_555 1_555
C5 C4 1_555 1_555
H5 C5 1_555 1_555
C6 C1 1_555 1_555
C7 N1 1_555 1_555
H6 C7 1_555 1_555
C8 C7 1_555 1_555
C9 C8 1_555 1_555
H7 C9 1_555 1_555
H8 C9 1_555 1_555
H9 C9 1_555 1_555
C10 C8 1_555 1_555
C11 O4 1_555 1_555
H10 C11 1_555 1_555
H11 C11 1_555 1_555
H12 C11 1_555 1_555
C12 O6 1_555 1_555
H13 C12 1_555 1_555
H14 C12 1_555 1_555
C13 C12 1_555 1_555
H15 C13 1_555 1_555
H16 C13 1_555 1_555
H17 C13 1_555 1_555
C14 O7 1_555 1_555
H18 C14 1_555 1_555
H19 C14 1_555 1_555
C15 C14 1_555 1_555
H20 C15 1_555 1_555
H21 C15 1_555 1_555
H22 C15 1_555 1_555
H23 N1 1_555 1_555
C5 C6 1_555 1_555
C6 C7 1_555 1_555

#END
