
#######################################################################
#
#                 Cambridge Crystallographic Data Centre
#                                CCDC 
#
#######################################################################
#
# If this CIF has been generated from an entry in the Cambridge 
# Structural Database, then it will include bibliographic, chemical, 
# crystal, experimental, refinement or atomic coordinate data resulting 
# from the CCDC's data processing and validation procedures.
#
#######################################################################

data_PEQFOJ
_chemical_formula_moiety         'C9 H7 F2 N1 O4'
_chemical_name_systematic        '2,2-difluoroethyl 4-nitrobenzoate'
_symmetry_cell_setting           hexagonal
_symmetry_space_group_name_H-M   'P 65'
_symmetry_Int_Tables_number      170
_space_group_name_Hall           'P 65'
loop_
_symmetry_equiv_pos_site_id
_symmetry_equiv_pos_as_xyz
1 x,y,z
2 -y,x-y,2/3+z
3 -x+y,-x,1/3+z
4 -x,-y,1/2+z
5 y,-x+y,1/6+z
6 x-y,x,5/6+z
_cell_length_a                   15.9119(6)
_cell_length_b                   15.9119(6)
_cell_length_c                   20.3939(14)
_cell_angle_alpha                90
_cell_angle_beta                 90
_cell_angle_gamma                120
_cell_volume                     4471.72
_exptl_crystal_colour            colorless
_exptl_crystal_description       block
_cell_formula_units_Z            18
loop_
_atom_site_label
_atom_site_type_symbol
_atom_site_fract_x
_atom_site_fract_y
_atom_site_fract_z
O1 O 0.4378(3) 0.4721(2) 0.1283(2)
O2 O 0.2834(3) 0.3506(2) 0.1295(2)
O3 O 0.2859(3) 0.8035(3) 0.1523(4)
O4 O 0.1401(3) 0.6905(4) 0.1598(3)
N1 N 0.2254(3) 0.7198(3) 0.1524(3)
C1 C 0.3150(3) 0.5138(3) 0.1331(2)
C2 C 0.3548(3) 0.6797(3) 0.1425(3)
H1 H 0.3998 0.7457 0.1448
C3 C 0.2573(3) 0.6472(3) 0.1454(2)
C4 C 0.3410(4) 0.4366(3) 0.1296(2)
C5 C 0.3848(3) 0.6113(3) 0.1362(3)
H2 H 0.4505 0.6308 0.1341
C6 C 0.2171(3) 0.4831(3) 0.1348(2)
H3 H 0.1716 0.4174 0.1315
C7 C 0.1868(3) 0.5508(3) 0.1413(2)
H4 H 0.1212 0.5317 0.1429
C8 C 0.4669(4) 0.3997(4) 0.1291(4)
H5 H 0.4427 0.3589 0.0904
H6 H 0.4412 0.3589 0.1677
C9 C 0.5738(5) 0.4519(5) 0.1301(4)
H7 H 0.5987 0.4918 0.0904
F1 F 0.6096(3) 0.5075(3) 0.1824(2)
F2 F 0.6041(3) 0.3878(3) 0.1318(3)
O5 O -0.1082(2) 0.8751(3) 0.1397(2)
O6 O -0.0761(3) 1.0283(3) 0.1474(2)
O7 O 0.3762(3) 1.0271(3) 0.1388(3)
O8 O 0.4104(3) 1.1733(3) 0.1460(3)
N2 N 0.3525(3) 1.0880(3) 0.1429(2)
C10 C 0.2478(3) 1.0554(3) 0.1446(2)
C11 C 0.0551(3) 0.9971(3) 0.1446(2)
C12 C 0.0844(3) 0.9291(3) 0.1406(2)
H8 H 0.0385 0.8634 0.1378
C13 C 0.1822(3) 0.9585(3) 0.1405(3)
H9 H 0.2028 0.9133 0.1378
C14 C 0.1231(4) 1.0950(3) 0.1499(3)
H10 H 0.1028 1.1404 0.1544
C15 C -0.0488(3) 0.9705(4) 0.1441(3)
C16 C 0.2211(4) 1.1251(3) 0.1485(3)
H11 H 0.2676 1.1906 0.1502
C17 C -0.2632(4) 0.7387(5) 0.1380(4)
H12 H -0.2502 0.7147 0.1788
C18 C -0.2102(4) 0.8456(4) 0.1344(4)
H13 H -0.2231 0.8672 0.0930
H14 H -0.2294 0.8729 0.1699
F3 F -0.3597(3) 0.7080(3) 0.1298(3)
F4 F -0.2453(3) 0.7014(3) 0.0850(3)
O9 O 0.8390(3) 0.4216(2) 0.1463(3)
O10 O 0.9613(3) 0.3949(3) 0.1293(3)
O11 O 0.5143(3) -0.0627(3) 0.1312(4)
O12 O 0.6262(3) -0.0914(3) 0.1090(3)
N3 N 0.5977(3) -0.0362(3) 0.1225(2)
C19 C 0.8004(3) 0.2608(3) 0.1326(2)
C20 C 0.7649(3) 0.0976(4) 0.1175(3)
H15 H 0.7846 0.0525 0.1096
C21 C 0.6683(3) 0.0684(3) 0.1261(2)
C22 C 0.6352(3) 0.1313(3) 0.1381(2)
H16 H 0.5693 0.1089 0.1439
C23 C 0.7020(3) 0.2285(3) 0.1413(3)
H17 H 0.6816 0.2730 0.1494
C24 C 0.8766(4) 0.3645(4) 0.1360(3)
C25 C 0.8315(3) 0.1949(4) 0.1207(3)
H18 H 0.8972 0.2165 0.1150
C26 C 0.9099(6) 0.5245(4) 0.1485(6)
H19 H 0.9458 0.5400 0.1894
H20 H 0.9556 0.5414 0.1127
C27 C 0.8611(6) 0.5781(5) 0.1435(5)
H21 H 0.8170 0.5628 0.1809
F5 F 0.8092(4) 0.5597(4) 0.0856(3)
F6 F 0.9244(3) 0.6725(2) 0.1429(3)
loop_
_geom_bond_atom_site_label_1
_geom_bond_atom_site_label_2
_geom_bond_site_symmetry_1
_geom_bond_site_symmetry_2
O1 C4 1_555 1_555
O2 C4 1_555 1_555
O3 N1 1_555 1_555
O4 N1 1_555 1_555
N1 C3 1_555 1_555
C1 C4 1_555 1_555
C2 H1 1_555 1_555
C3 C2 1_555 1_555
C5 C1 1_555 1_555
H2 C5 1_555 1_555
C6 C1 1_555 1_555
H3 C6 1_555 1_555
C7 C3 1_555 1_555
H4 C7 1_555 1_555
C8 O1 1_555 1_555
H5 C8 1_555 1_555
H6 C8 1_555 1_555
C9 C8 1_555 1_555
H7 C9 1_555 1_555
F1 C9 1_555 1_555
F2 C9 1_555 1_555
O5 C15 1_555 1_555
O6 C15 1_555 1_555
O7 N2 1_555 1_555
O8 N2 1_555 1_555
N2 C10 1_555 1_555
C10 C13 1_555 1_555
C11 C12 1_555 1_555
C12 H8 1_555 1_555
C13 C12 1_555 1_555
H9 C13 1_555 1_555
C14 C11 1_555 1_555
H10 C14 1_555 1_555
C15 C11 1_555 1_555
C16 C10 1_555 1_555
H11 C16 1_555 1_555
C17 H12 1_555 1_555
C18 O5 1_555 1_555
H13 C18 1_555 1_555
H14 C18 1_555 1_555
F3 C17 1_555 1_555
F4 C17 1_555 1_555
O9 C24 1_555 1_555
O10 C24 1_555 1_555
O11 N3 1_555 1_555
O12 N3 1_555 1_555
N3 C21 1_555 1_555
C19 C23 1_555 1_555
C20 H15 1_555 1_555
C21 C20 1_555 1_555
C22 C21 1_555 1_555
H16 C22 1_555 1_555
C23 C22 1_555 1_555
H17 C23 1_555 1_555
C24 C19 1_555 1_555
C25 C19 1_555 1_555
H18 C25 1_555 1_555
C26 O9 1_555 1_555
H19 C26 1_555 1_555
H20 C26 1_555 1_555
C27 C26 1_555 1_555
H21 C27 1_555 1_555
F5 C27 1_555 1_555
F6 C27 1_555 1_555
C2 C5 1_555 1_555
C6 C7 1_555 1_555
C14 C16 1_555 1_555
C17 C18 1_555 1_555
C20 C25 1_555 1_555

#END
