
#######################################################################
#
#                 Cambridge Crystallographic Data Centre
#                                CCDC 
#
#######################################################################
#
# If this CIF has been generated from an entry in the Cambridge 
# Structural Database, then it will include bibliographic, chemical, 
# crystal, experimental, refinement or atomic coordinate data resulting 
# from the CCDC's data processing and validation procedures.
#
#######################################################################

data_PEQGUQ
_chemical_formula_moiety         'C52 H74 Ca1 N12 O16'
_chemical_name_systematic        
tetra-aqua-bis(5-{2-[5-cyano-4-methyl-2,6-dioxo-1-{3-isopropoxypropyl}-1,6-dihydropyridin-3(2H)-ylidene]hydrazinyl}-2-oxy-4-methyl-6-oxo-1-{3-isopropoxypropyl}-1,6-dihydropyridine-3-carbonitrilato)-calcium
_symmetry_cell_setting           triclinic
_symmetry_space_group_name_H-M   'P -1'
_symmetry_Int_Tables_number      2
_space_group_name_Hall           '-P 1'
loop_
_symmetry_equiv_pos_site_id
_symmetry_equiv_pos_as_xyz
1 x,y,z
2 -x,-y,-z
_cell_length_a                   8.685(4)
_cell_length_b                   11.372(6)
_cell_length_c                   16.331(8)
_cell_angle_alpha                107.349(6)
_cell_angle_beta                 98.349(7)
_cell_angle_gamma                97.441(7)
_cell_volume                     1497.53
_exptl_crystal_colour            red
_exptl_crystal_description       block
_cell_formula_units_Z            1
loop_
_atom_site_label
_atom_site_type_symbol
_atom_site_fract_x
_atom_site_fract_y
_atom_site_fract_z
Ca1 Ca 0.0000 0.0000 0.0000
C1 C 0.2162(6) 0.4631(5) 0.2823(3)
C2 C 0.3794(6) 0.4626(4) 0.3145(3)
C3 C 0.4630(6) 0.3749(5) 0.2729(3)
C4 C 0.3774(6) 0.2785(5) 0.1964(3)
C5 C 0.2160(6) 0.2727(5) 0.1638(3)
C6 C -0.0234(6) 0.3674(5) 0.1682(4)
H1 H -0.0745 0.4106 0.2144
H2 H -0.0812 0.2821 0.1420
C7 C -0.0286(8) 0.4316(7) 0.1004(5)
H3 H 0.0223 0.3876 0.0543
H4 H 0.0315 0.5162 0.1268
C8 C -0.1932(9) 0.4375(8) 0.0608(5)
H5 H -0.2632 0.4341 0.1015
H6 H -0.1935 0.5157 0.0483
C9 C -0.4028(10) 0.3383(8) -0.0595(6)
H7 H -0.4492 0.3947 -0.0158
C10 C -0.4987(9) 0.2191(8) -0.0832(5)
H8 H -0.4949 0.1914 -0.0330
H9 H -0.6058 0.2238 -0.1047
H10 H -0.4606 0.1608 -0.1280
C11 C -0.3975(10) 0.3903(8) -0.1274(6)
H11 H -0.3297 0.4711 -0.1052
H12 H -0.3570 0.3362 -0.1733
H13 H -0.5022 0.3991 -0.1500
C12 C 0.6337(6) 0.3759(5) 0.3033(4)
H14 H 0.6658 0.3061 0.2642
H15 H 0.6958 0.4526 0.3040
H16 H 0.6495 0.3696 0.3611
C13 C 0.4491(6) 0.1827(6) 0.1489(3)
C14 C 0.6132(6) 0.6863(5) 0.5149(3)
C15 C 0.5033(7) 0.7646(5) 0.5439(3)
C16 C 0.7075(6) 0.8916(5) 0.6713(3)
C17 C 0.8132(6) 0.8100(5) 0.6388(3)
C18 C 0.7698(6) 0.7081(5) 0.5627(3)
C19 C 0.9681(7) 0.8393(5) 0.6918(3)
C20 C 0.4390(7) 0.9468(6) 0.6529(3)
H17 H 0.4572 0.9733 0.7162
H18 H 0.3323 0.8989 0.6308
C21 C 0.4526(9) 1.0602(7) 0.6240(4)
H19 H 0.4253 1.0331 0.5606
H20 H 0.5621 1.1030 0.6411
C22 C 0.3464(10) 1.1549(8) 0.6616(6)
H21 H 0.3571 1.1702 0.7241
H22 H 0.3806 1.2339 0.6525
C23 C 0.1011(9) 1.2040(8) 0.6488(5)
H23 H 0.1420 1.2809 0.6375
C24 C -0.0521(10) 1.1425(8) 0.5880(6)
H24 H -0.1283 1.1965 0.5992
H25 H -0.0375 1.1264 0.5288
H26 H -0.0895 1.0648 0.5968
C25 C 0.0826(11) 1.2350(10) 0.7407(5)
H27 H 0.0131 1.2945 0.7522
H28 H 0.0387 1.1603 0.7514
H29 H 0.1841 1.2704 0.7785
C26 C 0.8848(7) 0.6246(5) 0.5330(3)
H30 H 0.8349 0.5594 0.4794
H31 H 0.9755 0.6730 0.5234
H32 H 0.9176 0.5880 0.5770
N1 N 0.1408(5) 0.3659(4) 0.2056(2)
N2 N 0.5053(6) 0.1058(5) 0.1093(3)
N3 N 0.4359(5) 0.5630(4) 0.3929(2)
H33 H 0.3726 0.6130 0.4109
N4 N 0.5766(5) 0.5851(4) 0.4394(3)
N5 N 0.5530(5) 0.8654(4) 0.6220(2)
N6 N 1.0902(6) 0.8632(5) 0.7344(3)
O1 O 0.1441(5) 0.5441(4) 0.3177(2)
O2 O 0.1371(4) 0.1858(3) 0.0972(2)
O3 O -0.2459(6) 0.3371(5) -0.0159(3)
O4 O 0.3658(5) 0.7493(4) 0.5042(2)
O5 O 0.2059(7) 1.1134(6) 0.6254(4)
O6 O 0.7430(5) 0.9820(3) 0.7390(2)
O7 O -0.2063(4) 0.0194(4) 0.0791(2)
H34 H -0.2445 0.0952 0.0800
H35 H -0.1669 0.0224 0.1379
O8 O 0.1102(5) -0.1119(4) 0.0870(2)
H36 H 0.1512 -0.0560 0.1454
H37 H 0.1947 -0.1470 0.0626
C1A C -0.2162(6) -0.4631(5) -0.2823(3)
C2A C -0.3794(6) -0.4626(4) -0.3145(3)
C3A C -0.4630(6) -0.3749(5) -0.2729(3)
C4A C -0.3774(6) -0.2785(5) -0.1964(3)
C5A C -0.2160(6) -0.2727(5) -0.1638(3)
C6A C 0.0234(6) -0.3674(5) -0.1682(4)
H1A H 0.0745 -0.4106 -0.2144
H2A H 0.0812 -0.2821 -0.1420
C7A C 0.0286(8) -0.4316(7) -0.1004(5)
H3A H -0.0223 -0.3876 -0.0543
H4A H -0.0315 -0.5162 -0.1268
C8A C 0.1932(9) -0.4375(8) -0.0608(5)
H5A H 0.2632 -0.4341 -0.1015
H6A H 0.1935 -0.5157 -0.0483
C9A C 0.4028(10) -0.3383(8) 0.0595(6)
H7A H 0.4492 -0.3947 0.0158
C10A C 0.4987(9) -0.2191(8) 0.0832(5)
H8A H 0.4949 -0.1914 0.0330
H9A H 0.6058 -0.2238 0.1047
H10A H 0.4606 -0.1608 0.1280
C11A C 0.3975(10) -0.3903(8) 0.1274(6)
H11A H 0.3297 -0.4711 0.1052
H12A H 0.3570 -0.3362 0.1733
H13A H 0.5022 -0.3991 0.1500
C12A C -0.6337(6) -0.3759(5) -0.3033(4)
H14A H -0.6658 -0.3061 -0.2642
H15A H -0.6958 -0.4526 -0.3040
H16A H -0.6495 -0.3696 -0.3611
C13A C -0.4491(6) -0.1827(6) -0.1489(3)
C14A C -0.6132(6) -0.6863(5) -0.5149(3)
C15A C -0.5033(7) -0.7646(5) -0.5439(3)
C16A C -0.7075(6) -0.8916(5) -0.6713(3)
C17A C -0.8132(6) -0.8100(5) -0.6388(3)
C18A C -0.7698(6) -0.7081(5) -0.5627(3)
C19A C -0.9681(7) -0.8393(5) -0.6918(3)
C20A C -0.4390(7) -0.9468(6) -0.6529(3)
H17A H -0.4572 -0.9733 -0.7162
H18A H -0.3323 -0.8989 -0.6308
C21A C -0.4526(9) -1.0602(7) -0.6240(4)
H19A H -0.4253 -1.0331 -0.5606
H20A H -0.5621 -1.1030 -0.6411
C22A C -0.3464(10) -1.1549(8) -0.6616(6)
H21A H -0.3571 -1.1702 -0.7241
H22A H -0.3806 -1.2339 -0.6525
C23A C -0.1011(9) -1.2040(8) -0.6488(5)
H23A H -0.1420 -1.2809 -0.6375
C24A C 0.0521(10) -1.1425(8) -0.5880(6)
H24A H 0.1283 -1.1965 -0.5992
H25A H 0.0375 -1.1264 -0.5288
H26A H 0.0895 -1.0648 -0.5968
C25A C -0.0826(11) -1.2350(10) -0.7407(5)
H27A H -0.0131 -1.2945 -0.7522
H28A H -0.0387 -1.1603 -0.7514
H29A H -0.1841 -1.2704 -0.7785
C26A C -0.8848(7) -0.6246(5) -0.5330(3)
H30A H -0.8349 -0.5594 -0.4794
H31A H -0.9755 -0.6730 -0.5234
H32A H -0.9176 -0.5880 -0.5770
N1A N -0.1408(5) -0.3659(4) -0.2056(2)
N2A N -0.5053(6) -0.1058(5) -0.1093(3)
N3A N -0.4359(5) -0.5630(4) -0.3929(2)
H33A H -0.3726 -0.6130 -0.4109
N4A N -0.5766(5) -0.5851(4) -0.4394(3)
N5A N -0.5530(5) -0.8654(4) -0.6220(2)
N6A N -1.0902(6) -0.8632(5) -0.7344(3)
O1A O -0.1441(5) -0.5441(4) -0.3177(2)
O2A O -0.1371(4) -0.1858(3) -0.0972(2)
O3A O 0.2459(6) -0.3371(5) 0.0159(3)
O4A O -0.3658(5) -0.7493(4) -0.5042(2)
O5A O -0.2059(7) -1.1134(6) -0.6254(4)
O6A O -0.7430(5) -0.9820(3) -0.7390(2)
O7A O 0.2063(4) -0.0194(4) -0.0791(2)
H34A H 0.2445 -0.0952 -0.0800
H35A H 0.1669 -0.0224 -0.1379
O8A O -0.1102(5) 0.1119(4) -0.0870(2)
H36A H -0.1512 0.0560 -0.1454
H37A H -0.1947 0.1470 -0.0626
loop_
_geom_bond_atom_site_label_1
_geom_bond_atom_site_label_2
_geom_bond_site_symmetry_1
_geom_bond_site_symmetry_2
Ca1 O2 1_555 1_555
C1 C2 1_555 1_555
C2 C3 1_555 1_555
C3 C4 1_555 1_555
C4 C5 1_555 1_555
C5 N1 1_555 1_555
C6 H1 1_555 1_555
H2 C6 1_555 1_555
C7 C6 1_555 1_555
H3 C7 1_555 1_555
H4 C7 1_555 1_555
C8 C7 1_555 1_555
H5 C8 1_555 1_555
H6 C8 1_555 1_555
C9 H7 1_555 1_555
C10 C9 1_555 1_555
H8 C10 1_555 1_555
H9 C10 1_555 1_555
H10 C10 1_555 1_555
C11 C9 1_555 1_555
H11 C11 1_555 1_555
H12 C11 1_555 1_555
H13 C11 1_555 1_555
C12 C3 1_555 1_555
H14 C12 1_555 1_555
H15 C12 1_555 1_555
H16 C12 1_555 1_555
C13 C4 1_555 1_555
C14 C15 1_555 1_555
C15 N5 1_555 1_555
C16 C17 1_555 1_555
C17 C18 1_555 1_555
C18 C14 1_555 1_555
C19 C17 1_555 1_555
C20 H17 1_555 1_555
H18 C20 1_555 1_555
C21 C20 1_555 1_555
H19 C21 1_555 1_555
H20 C21 1_555 1_555
C22 C21 1_555 1_555
H21 C22 1_555 1_555
H22 C22 1_555 1_555
C23 H23 1_555 1_555
C24 C23 1_555 1_555
H24 C24 1_555 1_555
H25 C24 1_555 1_555
H26 C24 1_555 1_555
C25 C23 1_555 1_555
H27 C25 1_555 1_555
H28 C25 1_555 1_555
H29 C25 1_555 1_555
C26 C18 1_555 1_555
H30 C26 1_555 1_555
H31 C26 1_555 1_555
H32 C26 1_555 1_555
N1 C1 1_555 1_555
N2 C13 1_555 1_555
N3 C2 1_555 1_555
H33 N3 1_555 1_555
N4 C14 1_555 1_555
N5 C16 1_555 1_555
N6 C19 1_555 1_555
O1 C1 1_555 1_555
O2 C5 1_555 1_555
O3 C8 1_555 1_555
O4 C15 1_555 1_555
O5 C22 1_555 1_555
O6 C16 1_555 1_555
O7 Ca1 1_555 1_555
H34 O7 1_555 1_555
H35 O7 1_555 1_555
O8 Ca1 1_555 1_555
H36 O8 1_555 1_555
H37 O8 1_555 1_555
C1A C2A 1_555 1_555
C2A C3A 1_555 1_555
C3A C4A 1_555 1_555
C4A C5A 1_555 1_555
C5A N1A 1_555 1_555
C6A H1A 1_555 1_555
H2A C6A 1_555 1_555
C7A C6A 1_555 1_555
H3A C7A 1_555 1_555
H4A C7A 1_555 1_555
C8A C7A 1_555 1_555
H5A C8A 1_555 1_555
H6A C8A 1_555 1_555
C9A H7A 1_555 1_555
C10A C9A 1_555 1_555
H8A C10A 1_555 1_555
H9A C10A 1_555 1_555
H10A C10A 1_555 1_555
C11A C9A 1_555 1_555
H11A C11A 1_555 1_555
H12A C11A 1_555 1_555
H13A C11A 1_555 1_555
C12A C3A 1_555 1_555
H14A C12A 1_555 1_555
H15A C12A 1_555 1_555
H16A C12A 1_555 1_555
C13A C4A 1_555 1_555
C14A C15A 1_555 1_555
C15A N5A 1_555 1_555
C16A C17A 1_555 1_555
C17A C18A 1_555 1_555
C18A C14A 1_555 1_555
C19A C17A 1_555 1_555
C20A H17A 1_555 1_555
H18A C20A 1_555 1_555
C21A C20A 1_555 1_555
H19A C21A 1_555 1_555
H20A C21A 1_555 1_555
C22A C21A 1_555 1_555
H21A C22A 1_555 1_555
H22A C22A 1_555 1_555
C23A H23A 1_555 1_555
C24A C23A 1_555 1_555
H24A C24A 1_555 1_555
H25A C24A 1_555 1_555
H26A C24A 1_555 1_555
C25A C23A 1_555 1_555
H27A C25A 1_555 1_555
H28A C25A 1_555 1_555
H29A C25A 1_555 1_555
C26A C18A 1_555 1_555
H30A C26A 1_555 1_555
H31A C26A 1_555 1_555
H32A C26A 1_555 1_555
N1A C1A 1_555 1_555
N2A C13A 1_555 1_555
N3A C2A 1_555 1_555
H33A N3A 1_555 1_555
N4A C14A 1_555 1_555
N5A C16A 1_555 1_555
N6A C19A 1_555 1_555
O1A C1A 1_555 1_555
O2A Ca1 1_555 1_555
O3A C8A 1_555 1_555
O4A C15A 1_555 1_555
O5A C22A 1_555 1_555
O6A C16A 1_555 1_555
O7A Ca1 1_555 1_555
H34A O7A 1_555 1_555
H35A O7A 1_555 1_555
O8A Ca1 1_555 1_555
H36A O8A 1_555 1_555
H37A O8A 1_555 1_555
C6 N1 1_555 1_555
C9 O3 1_555 1_555
C20 N5 1_555 1_555
C23 O5 1_555 1_555
N3 N4 1_555 1_555
C5A O2A 1_555 1_555
C6A N1A 1_555 1_555
C9A O3A 1_555 1_555
C20A N5A 1_555 1_555
C23A O5A 1_555 1_555
N3A N4A 1_555 1_555

#END
