
#######################################################################
#
#                 Cambridge Crystallographic Data Centre
#                                CCDC 
#
#######################################################################
#
# If this CIF has been generated from an entry in the Cambridge 
# Structural Database, then it will include bibliographic, chemical, 
# crystal, experimental, refinement or atomic coordinate data resulting 
# from the CCDC's data processing and validation procedures.
#
#######################################################################

data_PEQHEB
_chemical_formula_moiety         'C36 H46 N12 Na2 O14'
_chemical_name_systematic        
bis(\m-aqua)-bis[\m-(5-{2-[5-cyano-1-ethyl-4-methyl-2-oxo-6-oxo-1,6-dihydropyridin-3(2H)-ylidene]hydrazinyl}-1-ethyl-6-hydroxy-4-methyl-2-oxo-1,2-dihydropyridine-3-carbonitrilato)]-tetra-aqua-di-sodium
_symmetry_cell_setting           triclinic
_symmetry_space_group_name_H-M   'P -1'
_symmetry_Int_Tables_number      2
_space_group_name_Hall           '-P 1'
loop_
_symmetry_equiv_pos_site_id
_symmetry_equiv_pos_as_xyz
1 x,y,z
2 -x,-y,-z
_cell_length_a                   7.080(3)
_cell_length_b                   11.081(4)
_cell_length_c                   14.917(6)
_cell_angle_alpha                101.280(6)
_cell_angle_beta                 97.767(6)
_cell_angle_gamma                106.380(6)
_cell_volume                     1078.34
_exptl_crystal_colour            red
_exptl_crystal_description       block
_cell_formula_units_Z            1
loop_
_atom_site_label
_atom_site_type_symbol
_atom_site_fract_x
_atom_site_fract_y
_atom_site_fract_z
Na1 Na 0.5101(2) 0.61820(14) 0.92785(10)
C1 C 0.3657(5) 0.3568(4) 0.7310(3)
C2 C 0.3315(6) 0.2672(4) 0.5643(3)
C3 C 0.2912(6) 0.1386(4) 0.5799(2)
C4 C 0.2971(5) 0.1200(4) 0.6722(3)
C5 C 0.3323(5) 0.2267(4) 0.7436(2)
C6 C 0.4319(6) 0.5039(4) 0.6274(3)
H1 H 0.5171 0.5086 0.5799
H2 H 0.5135 0.5649 0.6866
C7 C 0.2535(7) 0.5469(4) 0.5965(3)
H3 H 0.1760 0.4900 0.5360
H4 H 0.3015 0.6365 0.5906
H5 H 0.1678 0.5421 0.6429
C8 C 0.3452(5) 0.2202(4) 0.8393(3)
C9 C 0.2679(6) -0.0118(4) 0.6890(2)
H6 H 0.2780 -0.0063 0.7560
H7 H 0.3716 -0.0458 0.6671
H8 H 0.1348 -0.0700 0.6550
C10 C 0.2061(5) -0.0598(4) 0.3480(2)
C11 C 0.1917(5) -0.0135(4) 0.2640(3)
C12 C 0.1302(5) -0.2349(4) 0.1728(3)
C13 C 0.1465(5) -0.2742(4) 0.2583(3)
C14 C 0.1837(5) -0.1878(4) 0.3464(2)
C15 C 0.1196(6) -0.0619(4) 0.0930(2)
H9 H 0.0560 0.0073 0.1025
H10 H 0.0291 -0.1352 0.0421
C16 C 0.3206(6) -0.0102(4) 0.0648(3)
H11 H 0.4106 0.0621 0.1153
H12 H 0.2990 0.0202 0.0080
H13 H 0.3813 -0.0796 0.0531
C17 C 0.1252(6) -0.4068(4) 0.2498(3)
C18 C 0.1991(6) -0.2370(3) 0.4329(2)
H14 H 0.3272 -0.1860 0.4755
H15 H 0.1923 -0.3284 0.4162
H16 H 0.0879 -0.2288 0.4637
N1 N 0.3741(5) 0.3712(3) 0.6409(2)
N2 N 0.3612(5) 0.2212(3) 0.9169(2)
N3 N 0.2512(4) 0.0315(3) 0.5114(2)
N4 N 0.2459(5) 0.0443(3) 0.4261(2)
N5 N 0.1465(4) -0.1062(3) 0.1799(2)
N6 N 0.1089(5) -0.5143(3) 0.2403(2)
O1 O 0.3874(4) 0.4506(2) 0.79527(17)
O2 O 0.3311(4) 0.2887(2) 0.48569(17)
O3 O 0.2166(4) 0.1017(2) 0.26589(17)
O4 O 0.1023(4) -0.3102(2) 0.09496(17)
O5 O 0.7275(4) 0.5081(2) 0.98744(16)
H17 H 0.8395 0.5642 1.0159
H18 H 0.7486 0.4518 0.9458
O6 O 0.7612(4) 0.7273(2) 0.85448(17)
H19 H 0.8172 0.6744 0.8299
H20 H 0.7069 0.7558 0.8123
O7 O 0.2505(4) 0.7099(3) 0.9013(2)
H21 H 0.2672 0.7481 0.8574
H22 H 0.1379 0.6499 0.8858
H23 H 0.273(6) 0.132(4) 0.416(3)
Na1A Na 0.4899(2) 0.38180(14) 1.07215(10)
C1A C 0.6343(5) 0.6432(4) 1.2690(3)
C2A C 0.6685(6) 0.7328(4) 1.4357(3)
C3A C 0.7088(6) 0.8614(4) 1.4201(2)
C4A C 0.7029(5) 0.8800(4) 1.3278(3)
C5A C 0.6677(5) 0.7733(4) 1.2564(2)
C6A C 0.5681(6) 0.4961(4) 1.3726(3)
H1A H 0.4829 0.4914 1.4201
H2A H 0.4865 0.4351 1.3134
C7A C 0.7465(7) 0.4531(4) 1.4035(3)
H3A H 0.8240 0.5100 1.4640
H4A H 0.6985 0.3635 1.4094
H5A H 0.8322 0.4579 1.3571
C8A C 0.6548(5) 0.7798(4) 1.1607(3)
C9A C 0.7321(6) 1.0118(4) 1.3110(2)
H6A H 0.7220 1.0063 1.2440
H7A H 0.6284 1.0458 1.3329
H8A H 0.8652 1.0700 1.3450
C10A C 0.7939(5) 1.0598(4) 1.6520(2)
C11A C 0.8083(5) 1.0135(4) 1.7360(3)
C12A C 0.8698(5) 1.2349(4) 1.8272(3)
C13A C 0.8535(5) 1.2742(4) 1.7417(3)
C14A C 0.8163(5) 1.1878(4) 1.6536(2)
C15A C 0.8804(6) 1.0619(4) 1.9070(2)
H9A H 0.9440 0.9927 1.8975
H10A H 0.9709 1.1352 1.9579
C16A C 0.6794(6) 1.0102(4) 1.9352(3)
H11A H 0.5894 0.9379 1.8847
H12A H 0.7010 0.9798 1.9920
H13A H 0.6187 1.0796 1.9469
C17A C 0.8748(6) 1.4068(4) 1.7502(3)
C18A C 0.8009(6) 1.2370(3) 1.5671(2)
H14A H 0.6728 1.1860 1.5245
H15A H 0.8077 1.3284 1.5838
H16A H 0.9121 1.2288 1.5363
N1A N 0.6259(5) 0.6288(3) 1.3591(2)
N2A N 0.6388(5) 0.7788(3) 1.0831(2)
N3A N 0.7488(4) 0.9685(3) 1.4886(2)
N4A N 0.7541(5) 0.9557(3) 1.5739(2)
N5A N 0.8535(4) 1.1062(3) 1.8201(2)
N6A N 0.8911(5) 1.5143(3) 1.7597(2)
O1A O 0.6126(4) 0.5494(2) 1.20473(17)
O2A O 0.6689(4) 0.7113(2) 1.51431(17)
O3A O 0.7834(4) 0.8983(2) 1.73411(17)
O4A O 0.8977(4) 1.3102(2) 1.90504(17)
O5A O 0.2725(4) 0.4919(2) 1.01256(16)
H17A H 0.1605 0.4358 0.9841
H18A H 0.2514 0.5482 1.0542
O6A O 0.2388(4) 0.2727(2) 1.14552(17)
H19A H 0.1828 0.3256 1.1701
H20A H 0.2931 0.2442 1.1877
O7A O 0.7495(4) 0.2901(3) 1.0987(2)
H21A H 0.7328 0.2519 1.1426
H22A H 0.8621 0.3501 1.1142
H23A H 0.727(6) 0.868(4) 1.584(3)
loop_
_geom_bond_atom_site_label_1
_geom_bond_atom_site_label_2
_geom_bond_site_symmetry_1
_geom_bond_site_symmetry_2
Na1 O1 1_555 1_555
C1 C5 1_555 1_555
C2 C3 1_555 1_555
C3 C4 1_555 1_555
C4 C5 1_555 1_555
C5 C8 1_555 1_555
C6 H1 1_555 1_555
H2 C6 1_555 1_555
C7 C6 1_555 1_555
H3 C7 1_555 1_555
H4 C7 1_555 1_555
H5 C7 1_555 1_555
C8 N2 1_555 1_555
C9 C4 1_555 1_555
H6 C9 1_555 1_555
H7 C9 1_555 1_555
H8 C9 1_555 1_555
C10 C11 1_555 1_555
C11 N5 1_555 1_555
C12 C13 1_555 1_555
C13 C14 1_555 1_555
C14 C10 1_555 1_555
C15 H9 1_555 1_555
H10 C15 1_555 1_555
C16 C15 1_555 1_555
H11 C16 1_555 1_555
H12 C16 1_555 1_555
H13 C16 1_555 1_555
C17 C13 1_555 1_555
C18 C14 1_555 1_555
H14 C18 1_555 1_555
H15 C18 1_555 1_555
H16 C18 1_555 1_555
N1 C1 1_555 1_555
N2 Na1A 1_555 1_555
N3 C3 1_555 1_555
N4 C10 1_555 1_555
N5 C12 1_555 1_555
N6 C17 1_555 1_555
O1 C1 1_555 1_555
O2 C2 1_555 1_555
O3 C11 1_555 1_555
O4 C12 1_555 1_555
O5 Na1 1_555 1_555
H17 O5 1_555 1_555
H18 O5 1_555 1_555
O6 Na1 1_555 1_555
H19 O6 1_555 1_555
H20 O6 1_555 1_555
O7 Na1 1_555 1_555
H21 O7 1_555 1_555
H22 O7 1_555 1_555
H23 N4 1_555 1_555
Na1A O5 1_555 1_555
C1A C5A 1_555 1_555
C2A C3A 1_555 1_555
C3A C4A 1_555 1_555
C4A C5A 1_555 1_555
C5A C8A 1_555 1_555
C6A H1A 1_555 1_555
H2A C6A 1_555 1_555
C7A C6A 1_555 1_555
H3A C7A 1_555 1_555
H4A C7A 1_555 1_555
H5A C7A 1_555 1_555
C8A N2A 1_555 1_555
C9A C4A 1_555 1_555
H6A C9A 1_555 1_555
H7A C9A 1_555 1_555
H8A C9A 1_555 1_555
C10A C11A 1_555 1_555
C11A N5A 1_555 1_555
C12A C13A 1_555 1_555
C13A C14A 1_555 1_555
C14A C10A 1_555 1_555
C15A H9A 1_555 1_555
H10A C15A 1_555 1_555
C16A C15A 1_555 1_555
H11A C16A 1_555 1_555
H12A C16A 1_555 1_555
H13A C16A 1_555 1_555
C17A C13A 1_555 1_555
C18A C14A 1_555 1_555
H14A C18A 1_555 1_555
H15A C18A 1_555 1_555
H16A C18A 1_555 1_555
N1A C1A 1_555 1_555
N2A Na1 1_555 1_555
N3A C3A 1_555 1_555
N4A C10A 1_555 1_555
N5A C12A 1_555 1_555
N6A C17A 1_555 1_555
O1A Na1A 1_555 1_555
O2A C2A 1_555 1_555
O3A C11A 1_555 1_555
O4A C12A 1_555 1_555
O5A Na1 1_555 1_555
H17A O5A 1_555 1_555
H18A O5A 1_555 1_555
O6A Na1A 1_555 1_555
H19A O6A 1_555 1_555
H20A O6A 1_555 1_555
O7A Na1A 1_555 1_555
H21A O7A 1_555 1_555
H22A O7A 1_555 1_555
H23A N4A 1_555 1_555
C2 N1 1_555 1_555
C6 N1 1_555 1_555
C15 N5 1_555 1_555
N3 N4 1_555 1_555
Na1A O5A 1_555 1_555
C1A O1A 1_555 1_555
C2A N1A 1_555 1_555
C6A N1A 1_555 1_555
C15A N5A 1_555 1_555
N3A N4A 1_555 1_555

#END
