
#######################################################################
#
#                 Cambridge Crystallographic Data Centre
#                                CCDC 
#
#######################################################################
#
# If this CIF has been generated from an entry in the Cambridge 
# Structural Database, then it will include bibliographic, chemical, 
# crystal, experimental, refinement or atomic coordinate data resulting 
# from the CCDC's data processing and validation procedures.
#
#######################################################################

data_PEQHAX
_chemical_formula_moiety         'C26 H40 Ca1 N6 O10'
_chemical_name_systematic        
tetra-aqua-[5,5'-(diazene-1,2-diyl)bis[6-oxy-4-methyl-2-oxo-1-{3-isopropoxypropyl}-1,2-dihydropyridine-3-carbonitrilato]]-calcium
_symmetry_cell_setting           triclinic
_symmetry_space_group_name_H-M   'P -1'
_symmetry_Int_Tables_number      2
_space_group_name_Hall           '-P 1'
loop_
_symmetry_equiv_pos_site_id
_symmetry_equiv_pos_as_xyz
1 x,y,z
2 -x,-y,-z
_cell_length_a                   8.4863(11)
_cell_length_b                   13.9741(18)
_cell_length_c                   15.097(2)
_cell_angle_alpha                103.396(2)
_cell_angle_beta                 105.692(2)
_cell_angle_gamma                90.946(2)
_cell_volume                     1670.71
_exptl_crystal_colour            red
_exptl_crystal_description       block
_cell_formula_units_Z            2
loop_
_atom_site_label
_atom_site_type_symbol
_atom_site_fract_x
_atom_site_fract_y
_atom_site_fract_z
Ca1 Ca 0.62973(12) 0.32434(7) 0.23338(7)
C1 C 0.7877(5) 0.4910(4) 0.4219(3)
C2 C 0.7793(6) 0.5648(5) 0.3705(3)
C3 C 0.7905(6) 0.6639(5) 0.4171(4)
C4 C 0.8067(6) 0.6897(4) 0.5149(3)
C5 C 0.8138(5) 0.6168(3) 0.5679(3)
C6 C 0.8052(6) 0.4407(4) 0.5684(4)
H1 H 0.8614 0.4667 0.6352
H2 H 0.8665 0.3884 0.5432
C7 C 0.6367(6) 0.3987(4) 0.5585(4)
H3 H 0.5816 0.4479 0.5932
H4 H 0.5740 0.3827 0.4922
C8 C 0.6417(7) 0.3088(4) 0.5951(4)
H5 H 0.7174 0.3216 0.6583
H6 H 0.5335 0.2899 0.5987
C9 C 0.7217(14) 0.1438(6) 0.5570(7)
H7 H 0.8291 0.1664 0.6030
C10 C 0.7848(15) 0.0746(6) 0.4869(7)
H8 H 0.8541 0.1109 0.4631
H9 H 0.6942 0.0398 0.4353
H10 H 0.8469 0.0281 0.5168
C11 C 0.648(3) 0.1082(10) 0.6226(13)
H11 H 0.5399 0.0775 0.5889
H12 H 0.6420 0.1629 0.6731
H13 H 0.7151 0.0610 0.6485
C12 C 0.7792(8) 0.7467(6) 0.3672(4)
H14 H 0.6889 0.7305 0.3104
H15 H 0.8794 0.7557 0.3511
H16 H 0.7619 0.8066 0.4084
C13 C 0.8100(8) 0.7869(5) 0.5666(4)
C14 C 0.7620(7) 0.5151(5) 0.1261(4)
C15 C 0.6639(6) 0.4298(5) 0.0669(4)
C16 C 0.7149(6) 0.4715(4) -0.0726(3)
C17 C 0.8143(6) 0.5541(4) -0.0105(3)
C18 C 0.8383(6) 0.5777(4) 0.0881(3)
C19 C 0.5399(7) 0.3213(4) -0.0903(4)
H17 H 0.5004 0.3287 -0.1547
H18 H 0.4451 0.3143 -0.0673
C20 C 0.6309(8) 0.2281(5) -0.0909(5)
H19 H 0.7184 0.2317 -0.1205
H20 H 0.6803 0.2241 -0.0261
C21 C 0.5178(10) 0.1370(5) -0.1439(5)
H21 H 0.4603 0.1435 -0.2069
H22 H 0.5813 0.0801 -0.1507
C22 C 0.2940(14) 0.0346(8) -0.1415(6)
H23 H 0.3607 -0.0181 -0.1618
C23 C 0.1723(17) 0.0438(9) -0.2231(9)
H24 H 0.2237 0.0566 -0.2690
H25 H 0.1083 0.0974 -0.2061
H26 H 0.1019 -0.0163 -0.2498
C24 C 0.2291(15) 0.0079(9) -0.0684(8)
H27 H 0.1364 0.0456 -0.0654
H28 H 0.3101 0.0246 -0.0078
H29 H 0.1943 -0.0612 -0.0851
C25 C 0.8926(7) 0.6167(4) -0.0505(4)
C26 C 0.9487(8) 0.6681(5) 0.1492(4)
H30 H 0.8842 0.7235 0.1574
H31 H 1.0297 0.6816 0.1190
H32 H 1.0023 0.6566 0.2101
N1 N 0.8034(4) 0.5203(3) 0.5183(3)
N2 N 0.8115(10) 0.8647(5) 0.6109(5)
N3 N 0.7535(8) 0.5072(7) 0.2739(11)
N4 N 0.8036(10) 0.5604(8) 0.2264(10)
N5 N 0.6428(5) 0.4102(3) -0.0309(3)
N6 N 0.9581(7) 0.6665(5) -0.0824(4)
O1 O 0.7828(5) 0.3999(3) 0.3856(3)
O2 O 0.6935(5) 0.2316(3) 0.5330(3)
O3 O 0.8255(4) 0.6376(3) 0.6544(2)
O4 O 0.5930(5) 0.3669(4) 0.0934(3)
O5 O 0.4031(6) 0.1229(3) -0.0949(3)
O6 O 0.6893(5) 0.4492(3) -0.1607(2)
O7 O 0.8859(4) 0.2724(3) 0.2109(2)
H33 H 0.8878 0.2723 0.1475
H34 H 0.9739 0.3171 0.2557
O8 O 0.4035(4) 0.4076(3) 0.2582(2)
H35 H 0.3744 0.4493 0.2149
H36 H 0.3128 0.3603 0.2473
O9 O 0.5702(7) 0.2173(3) 0.3276(3)
H37 H 0.4540 0.2112 0.3194
H38 H 0.6264 0.2452 0.3933
O10 O 0.4634(6) 0.1857(3) 0.1185(3)
H39 H 0.3498 0.1928 0.1152
H40 H 0.4794 0.1834 0.0575
N7? N 0.7714(18) 0.5779(13) 0.2716(16)
N8? N 0.7395(16) 0.4961(12) 0.2168(19)
loop_
_geom_bond_atom_site_label_1
_geom_bond_atom_site_label_2
_geom_bond_site_symmetry_1
_geom_bond_site_symmetry_2
Ca1 N3 1_555 1_555
C1 C2 1_555 1_555
C2 C3 1_555 1_555
C3 C4 1_555 1_555
C4 C5 1_555 1_555
C5 N1 1_555 1_555
C6 H1 1_555 1_555
H2 C6 1_555 1_555
C7 C6 1_555 1_555
H3 C7 1_555 1_555
H4 C7 1_555 1_555
C8 C7 1_555 1_555
H5 C8 1_555 1_555
H6 C8 1_555 1_555
C9 H7 1_555 1_555
C10 C9 1_555 1_555
H8 C10 1_555 1_555
H9 C10 1_555 1_555
H10 C10 1_555 1_555
C11 C9 1_555 1_555
H11 C11 1_555 1_555
H12 C11 1_555 1_555
H13 C11 1_555 1_555
C12 C3 1_555 1_555
H14 C12 1_555 1_555
H15 C12 1_555 1_555
H16 C12 1_555 1_555
C13 C4 1_555 1_555
C14 C15 1_555 1_555
C15 N5 1_555 1_555
C16 C17 1_555 1_555
C17 C18 1_555 1_555
C18 C14 1_555 1_555
C19 H17 1_555 1_555
H18 C19 1_555 1_555
C20 C19 1_555 1_555
H19 C20 1_555 1_555
H20 C20 1_555 1_555
C21 C20 1_555 1_555
H21 C21 1_555 1_555
H22 C21 1_555 1_555
C22 H23 1_555 1_555
C23 C22 1_555 1_555
H24 C23 1_555 1_555
H25 C23 1_555 1_555
H26 C23 1_555 1_555
C24 C22 1_555 1_555
H27 C24 1_555 1_555
H28 C24 1_555 1_555
H29 C24 1_555 1_555
C25 C17 1_555 1_555
C26 C18 1_555 1_555
H30 C26 1_555 1_555
H31 C26 1_555 1_555
H32 C26 1_555 1_555
N1 C1 1_555 1_555
N2 C13 1_555 1_555
N3 C2 1_555 1_555
N4 C14 1_555 1_555
N5 C16 1_555 1_555
N6 C25 1_555 1_555
O1 Ca1 1_555 1_555
O2 C8 1_555 1_555
O3 C5 1_555 1_555
O4 Ca1 1_555 1_555
O5 C21 1_555 1_555
O6 C16 1_555 1_555
O7 Ca1 1_555 1_555
H33 O7 1_555 1_555
H34 O7 1_555 1_555
O8 Ca1 1_555 1_555
H35 O8 1_555 1_555
H36 O8 1_555 1_555
O9 Ca1 1_555 1_555
H37 O9 1_555 1_555
H38 O9 1_555 1_555
O10 Ca1 1_555 1_555
H39 O10 1_555 1_555
H40 O10 1_555 1_555
C1 O1 1_555 1_555
C6 N1 1_555 1_555
C9 O2 1_555 1_555
C15 O4 1_555 1_555
C19 N5 1_555 1_555
C22 O5 1_555 1_555
N3 N4 1_555 1_555

#END
