
#######################################################################
#
#                 Cambridge Crystallographic Data Centre
#                                CCDC 
#
#######################################################################
#
# If this CIF has been generated from an entry in the Cambridge 
# Structural Database, then it will include bibliographic, chemical, 
# crystal, experimental, refinement or atomic coordinate data resulting 
# from the CCDC's data processing and validation procedures.
#
#######################################################################

data_PEQLAB
_chemical_formula_moiety         'C37 H39 N2 O3 P1'
_chemical_name_systematic        
6,10-bis(3,5-dimethylphenyl)-3,8,13-trimethoxy-5,6,10,11-tetrahydro-8H-[1,3,2]diazaphospholo[4,3-a:5,1-a']di-isoquinoline
_symmetry_cell_setting           trigonal
_symmetry_space_group_name_H-M   'P 31 2 1'
_symmetry_Int_Tables_number      152
_space_group_name_Hall           'P 31 2"'
loop_
_symmetry_equiv_pos_site_id
_symmetry_equiv_pos_as_xyz
1 x,y,z
2 -y,x-y,1/3+z
3 -x+y,-x,2/3+z
4 y,x,-z
5 x-y,-y,2/3-z
6 -x,-x+y,1/3-z
_cell_length_a                   16.71139(14)
_cell_length_b                   16.71139(14)
_cell_length_c                   12.95592(12)
_cell_angle_alpha                90
_cell_angle_beta                 90
_cell_angle_gamma                120
_cell_volume                     3133.46
_exptl_crystal_colour            'intense yellow'
_exptl_crystal_description       plate
_cell_formula_units_Z            3
loop_
_atom_site_label
_atom_site_type_symbol
_atom_site_fract_x
_atom_site_fract_y
_atom_site_fract_z
P1 P 1.000000 0.64578(3) 0.666667
O1 O 0.68909(9) 0.09974(8) 0.75229(11)
O2 O 1.03329(15) 0.68821(15) 0.78501(17)
N1 N 0.92602(8) 0.53580(9) 0.70423(10)
C1 C 0.95622(9) 0.47201(10) 0.68502(10)
C2 C 0.88983(9) 0.37381(10) 0.70074(10)
C3 C 0.89297(10) 0.30396(11) 0.64535(11)
H1 H 0.940805 0.320017 0.596165
C4 C 0.82777(11) 0.21128(12) 0.66031(12)
H2 H 0.831635 0.164379 0.623006
C5 C 0.75680(10) 0.18853(11) 0.73091(12)
C6 C 0.75059(10) 0.25737(12) 0.78399(12)
H3 H 0.700962 0.241077 0.830706
C7 C 0.81594(9) 0.34952(11) 0.76960(10)
C8 C 0.81210(10) 0.42623(12) 0.82630(11)
H4 H 0.855006 0.445964 0.885769
H5 H 0.748868 0.403069 0.853325
C9 C 0.83852(10) 0.50993(11) 0.75523(11)
H6 H 0.849817 0.562747 0.801027
C10 C 0.69655(13) 0.02772(13) 0.70303(16)
H7 H 0.691422 0.032086 0.628142
H8 H 0.646876 -0.032238 0.727336
H9 H 0.756496 0.033659 0.719675
C11 C 0.76167(9) 0.49531(10) 0.68099(11)
C12 C 0.68606(10) 0.49829(10) 0.72099(11)
H10 H 0.681986 0.504634 0.793372
C13 C 0.61643(10) 0.49222(10) 0.65750(11)
C14 C 0.62373(10) 0.48253(10) 0.55133(11)
H11 H 0.576980 0.478921 0.506607
C15 C 0.69822(10) 0.47808(10) 0.50995(11)
C16 C 0.76684(9) 0.48381(10) 0.57571(11)
H12 H 0.817437 0.479805 0.548272
C17 C 0.53714(13) 0.49919(15) 0.70268(13)
H13 H 0.508337 0.453568 0.758038
H14 H 0.491392 0.487168 0.648703
H15 H 0.560090 0.561377 0.730710
C18 C 0.70611(12) 0.46858(13) 0.39503(11)
H16 H 0.770070 0.509678 0.373155
H17 H 0.665176 0.485390 0.358699
H18 H 0.688192 0.404517 0.378641
C19 C 1.0750(3) 0.7866(3) 0.7971(3)
H19 H 1.058267 0.812143 0.738286
H20 H 1.142298 0.814475 0.800142
H21 H 1.052749 0.800111 0.861072
O1E O 1.31091(9) 0.41065(12) 0.58104(11)
O2E O 0.96671(15) 0.65492(21) 0.54832(17)
N1E N 1.07398(8) 0.60978(12) 0.62910(10)
C1E C 1.04378(9) 0.51579(13) 0.64831(10)
C2E C 1.11017(9) 0.48398(13) 0.63259(10)
C3E C 1.10703(10) 0.41099(15) 0.68798(11)
H1E H 1.059195 0.379212 0.737168
C4E C 1.17223(11) 0.38351(16) 0.67302(12)
H2E H 1.168365 0.332744 0.710327
C5E C 1.24320(10) 0.43173(15) 0.60242(12)
C6E C 1.24941(10) 0.50678(16) 0.54934(12)
H3E H 1.299038 0.540115 0.502627
C7E C 1.18406(9) 0.53358(14) 0.56373(10)
C8E C 1.18790(10) 0.61413(16) 0.50703(11)
H4E H 1.144994 0.590958 0.447564
H5E H 1.251132 0.654201 0.480008
C9E C 1.16148(10) 0.67141(15) 0.57810(11)
H6E H 1.150183 0.712930 0.532306
C10E C 1.30345(13) 0.33117(18) 0.63030(16)
H7E H 1.308578 0.340664 0.705191
H8E H 1.353124 0.320886 0.605997
H9E H 1.243504 0.277163 0.613658
C11E C 1.23833(9) 0.73364(13) 0.65234(11)
C12E C 1.31394(10) 0.81223(14) 0.61234(11)
H10E H 1.318014 0.822648 0.539961
C13E C 1.38357(10) 0.87579(14) 0.67583(11)
C14E C 1.37627(10) 0.85880(14) 0.78200(11)
H11E H 1.423020 0.901941 0.826726
C15E C 1.30178(10) 0.77986(14) 0.82338(11)
C16E C 1.23316(9) 0.71697(13) 0.75762(11)
H12E H 1.182563 0.662368 0.785061
C17E C 1.46286(13) 0.96205(20) 0.63065(13)
H13E H 1.491663 0.945231 0.575295
H14E H 1.508608 0.995776 0.684630
H15E H 1.439910 1.001287 0.602623
C18E C 1.29389(12) 0.76247(18) 0.93830(11)
H16E H 1.229930 0.739608 0.960178
H17E H 1.334824 0.820214 0.974634
H18E H 1.311808 0.716325 0.954692
C19E C 0.9250(3) 0.7116(4) 0.5362(3)
H19E H 0.941733 0.753876 0.595047
H20E H 0.857702 0.672177 0.533191
H21E H 0.947251 0.747362 0.472261
loop_
_geom_bond_atom_site_label_1
_geom_bond_atom_site_label_2
_geom_bond_site_symmetry_1
_geom_bond_site_symmetry_2
P1 O2 1_555 1_555
O1 C5 1_555 1_555
O2 C19 1_555 1_555
N1 P1 1_555 1_555
C1 N1 1_555 1_555
C2 C1 1_555 1_555
C3 C2 1_555 1_555
H1 C3 1_555 1_555
C4 C3 1_555 1_555
H2 C4 1_555 1_555
C5 C4 1_555 1_555
C6 C5 1_555 1_555
H3 C6 1_555 1_555
C7 C2 1_555 1_555
C8 C7 1_555 1_555
H4 C8 1_555 1_555
H5 C8 1_555 1_555
C9 N1 1_555 1_555
H6 C9 1_555 1_555
C10 O1 1_555 1_555
H7 C10 1_555 1_555
H8 C10 1_555 1_555
H9 C10 1_555 1_555
C11 C9 1_555 1_555
C12 C11 1_555 1_555
H10 C12 1_555 1_555
C13 C12 1_555 1_555
C14 C13 1_555 1_555
H11 C14 1_555 1_555
C15 C14 1_555 1_555
C16 C11 1_555 1_555
H12 C16 1_555 1_555
C17 C13 1_555 1_555
H13 C17 1_555 1_555
H14 C17 1_555 1_555
H15 C17 1_555 1_555
C18 C15 1_555 1_555
H16 C18 1_555 1_555
H17 C18 1_555 1_555
H18 C18 1_555 1_555
C19 H19 1_555 1_555
H20 C19 1_555 1_555
H21 C19 1_555 1_555
O1E C5E 1_555 1_555
O2E P1 1_555 1_555
N1E P1 1_555 1_555
C1E C1 1_555 1_555
C2E C1E 1_555 1_555
C3E C2E 1_555 1_555
H1E C3E 1_555 1_555
C4E C3E 1_555 1_555
H2E C4E 1_555 1_555
C5E C4E 1_555 1_555
C6E C5E 1_555 1_555
H3E C6E 1_555 1_555
C7E C2E 1_555 1_555
C8E C7E 1_555 1_555
H4E C8E 1_555 1_555
H5E C8E 1_555 1_555
C9E N1E 1_555 1_555
H6E C9E 1_555 1_555
C10E O1E 1_555 1_555
H7E C10E 1_555 1_555
H8E C10E 1_555 1_555
H9E C10E 1_555 1_555
C11E C9E 1_555 1_555
C12E C11E 1_555 1_555
H10E C12E 1_555 1_555
C13E C12E 1_555 1_555
C14E C13E 1_555 1_555
H11E C14E 1_555 1_555
C15E C14E 1_555 1_555
C16E C11E 1_555 1_555
H12E C16E 1_555 1_555
C17E C13E 1_555 1_555
H13E C17E 1_555 1_555
H14E C17E 1_555 1_555
H15E C17E 1_555 1_555
C18E C15E 1_555 1_555
H16E C18E 1_555 1_555
H17E C18E 1_555 1_555
H18E C18E 1_555 1_555
C19E O2E 1_555 1_555
H19E C19E 1_555 1_555
H20E C19E 1_555 1_555
H21E C19E 1_555 1_555
C6 C7 1_555 1_555
C8 C9 1_555 1_555
C15 C16 1_555 1_555
N1E C1E 1_555 1_555
C6E C7E 1_555 1_555
C8E C9E 1_555 1_555
C15E C16E 1_555 1_555

#END
