
#######################################################################
#
#                 Cambridge Crystallographic Data Centre
#                                CCDC 
#
#######################################################################
#
# If this CIF has been generated from an entry in the Cambridge 
# Structural Database, then it will include bibliographic, chemical, 
# crystal, experimental, refinement or atomic coordinate data resulting 
# from the CCDC's data processing and validation procedures.
#
#######################################################################

data_PEQPUZ
_chemical_formula_moiety         'C7 H3 N2 O6 1-,C6 H9 N2 1+'
_chemical_name_systematic        '3-methylpyridin-2-aminium 3,5-dinitrobenzoate'
_symmetry_cell_setting           monoclinic
_symmetry_space_group_name_H-M   'P 21/c'
_symmetry_Int_Tables_number      14
_space_group_name_Hall           '-P 2ybc'
loop_
_symmetry_equiv_pos_site_id
_symmetry_equiv_pos_as_xyz
1 x,y,z
2 -x,1/2+y,1/2-z
3 -x,-y,-z
4 x,1/2-y,1/2+z
_cell_length_a                   11.2884(3)
_cell_length_b                   15.9147(5)
_cell_length_c                   7.7411(2)
_cell_angle_alpha                90
_cell_angle_beta                 92.484(3)
_cell_angle_gamma                90
_cell_volume                     1389.39
_exptl_crystal_colour            yellow
_exptl_crystal_description       block
_cell_formula_units_Z            4
loop_
_atom_site_label
_atom_site_type_symbol
_atom_site_fract_x
_atom_site_fract_y
_atom_site_fract_z
O1 O 0.79942(12) 0.46618(9) 1.0080(2)
C1 C 0.52307(16) 0.47696(12) 0.7539(2)
H1 H 0.5180 0.4222 0.7122
C2 C 0.62006(15) 0.50227(11) 0.8567(2)
O2 O 0.70277(15) 0.36635(9) 0.8582(2)
N1 N 0.32777(15) 0.50583(12) 0.6134(2)
C3 C 0.43388(16) 0.53433(12) 0.7141(2)
N2 N 0.53825(15) 0.72436(10) 0.9483(2)
C4 C 0.62566(15) 0.58389(12) 0.9191(2)
H2 H 0.6898 0.6014 0.9894
O3 O 0.62089(17) 0.74226(12) 1.0466(3)
O4 O 0.45853(15) 0.77249(10) 0.9100(3)
C5 C 0.71575(16) 0.43950(12) 0.9111(2)
O5 O 0.25663(16) 0.55769(12) 0.5615(3)
C6 C 0.43738(16) 0.61629(12) 0.7711(2)
H3 H 0.3775 0.6544 0.7411
O6 O 0.31592(17) 0.43108(12) 0.5884(3)
C7 C 0.53428(16) 0.63887(11) 0.8751(2)
N3 N 0.82602(15) 0.23934(11) 0.0451(3)
H4 H 0.7748 0.2819 0.0433
H5 H 0.7967 0.1966 0.1039
H6 H 0.8382 0.2231 -0.0627
N4 N 0.95156(14) 0.34719(10) 0.1257(2)
C8 C 1.01416(16) 0.20712(12) 0.1928(2)
C9 C 0.92778(15) 0.26386(11) 0.1206(2)
C10 C 1.13646(18) 0.32723(15) 0.2725(3)
H7 H 1.2055 0.3488 0.3253
C11 C 1.05319(19) 0.37860(13) 0.1981(3)
H8 H 1.0662 0.4363 0.1969
C12 C 1.11504(17) 0.24053(13) 0.2672(3)
H9 H 1.1719 0.2044 0.3163
C13 C 0.9927(2) 0.11438(13) 0.1815(3)
H10 H 1.0592 0.0850 0.2340
H11 H 0.9827 0.0982 0.0623
H12 H 0.9224 0.1005 0.2409
loop_
_geom_bond_atom_site_label_1
_geom_bond_atom_site_label_2
_geom_bond_site_symmetry_1
_geom_bond_site_symmetry_2
O1 C5 1_555 1_555
C1 H1 1_555 1_555
C2 C1 1_555 1_555
O2 C5 1_555 1_555
N1 C3 1_555 1_555
C3 C1 1_555 1_555
N2 O3 1_555 1_555
C4 C2 1_555 1_555
H2 C4 1_555 1_555
O4 N2 1_555 1_555
C5 C2 1_555 1_555
O5 N1 1_555 1_555
C6 C3 1_555 1_555
H3 C6 1_555 1_555
O6 N1 1_555 1_555
C7 N2 1_555 1_555
N3 H4 1_555 1_555
H5 N3 1_555 1_555
H6 N3 1_555 1_555
N4 C9 1_555 1_555
C8 C9 1_555 1_555
C9 N3 1_555 1_555
C10 H7 1_555 1_555
C11 N4 1_555 1_555
H8 C11 1_555 1_555
C12 C8 1_555 1_555
H9 C12 1_555 1_555
C13 C8 1_555 1_555
H10 C13 1_555 1_555
H11 C13 1_555 1_555
H12 C13 1_555 1_555
C4 C7 1_555 1_555
C6 C7 1_555 1_555
C10 C11 1_555 1_555
C10 C12 1_555 1_555

#END
