
#######################################################################
#
#                 Cambridge Crystallographic Data Centre
#                                CCDC 
#
#######################################################################
#
# If this CIF has been generated from an entry in the Cambridge 
# Structural Database, then it will include bibliographic, chemical, 
# crystal, experimental, refinement or atomic coordinate data resulting 
# from the CCDC's data processing and validation procedures.
#
#######################################################################

data_PEQPAE
_chemical_formula_moiety         'C20 H12 Cl2 S2 Si1'
_chemical_name_systematic        
2,5-Dichloro-7,7-diphenyl-7H-thieno[3',2':4,5]silolo[2,3-b]thiophene
_symmetry_cell_setting           monoclinic
_symmetry_space_group_name_H-M   'P 21'
_symmetry_Int_Tables_number      4
_space_group_name_Hall           'P 2yb'
loop_
_symmetry_equiv_pos_site_id
_symmetry_equiv_pos_as_xyz
1 x,y,z
2 -x,1/2+y,-z
_cell_length_a                   6.6297(12)
_cell_length_b                   12.109(2)
_cell_length_c                   11.969(2)
_cell_angle_alpha                90
_cell_angle_beta                 100.072(2)
_cell_angle_gamma                90
_cell_volume                     946.052
_exptl_crystal_colour            colorless
_exptl_crystal_description       block
_cell_formula_units_Z            2
loop_
_atom_site_label
_atom_site_type_symbol
_atom_site_fract_x
_atom_site_fract_y
_atom_site_fract_z
C1 C 0.3778(4) 0.0307(2) 0.1882(2)
C2 C 0.3316(4) 0.1294(2) 0.1330(2)
C3 C 0.5896(4) 0.0717(2) 0.0447(2)
C4 C 0.4534(4) 0.1528(2) 0.0496(2)
H1 H 0.4407 0.2158 0.0045
C5 C 0.0994(4) 0.1488(2) 0.2658(2)
C6 C 0.1673(4) 0.1929(2) 0.1721(2)
C7 C -0.0874(5) 0.3157(2) 0.1882(3)
C8 C 0.0610(5) 0.2896(2) 0.1275(2)
H2 H 0.0891 0.3294 0.0656
C9 C 0.4107(4) 0.0198(2) 0.4475(2)
C10 C 0.5419(4) 0.1095(2) 0.4716(3)
H3 H 0.5278 0.1694 0.4222
C11 C 0.6928(5) 0.1119(3) 0.5671(3)
H4 H 0.7790 0.1727 0.5816
C12 C 0.7152(5) 0.0234(3) 0.6410(3)
H5 H 0.8174 0.0243 0.7050
C13 C 0.5871(5) -0.0652(3) 0.6201(3)
H6 H 0.6022 -0.1247 0.6700
C14 C 0.4344(5) -0.0670(2) 0.5247(2)
H7 H 0.3463 -0.1272 0.5123
C15 C 0.0592(4) -0.1069(2) 0.2989(2)
C16 C 0.0478(4) -0.1849(2) 0.2122(2)
H8 H 0.1324 -0.1775 0.1583
C17 C -0.0865(4) -0.2725(3) 0.2050(3)
H9 H -0.0929 -0.3232 0.1461
C18 C -0.2114(5) -0.2852(3) 0.2849(3)
H10 H -0.3029 -0.3440 0.2793
C19 C -0.2010(5) -0.2114(3) 0.3722(3)
H11 H -0.2832 -0.2211 0.4270
C20 C -0.0679(5) -0.1219(2) 0.3794(3)
H12 H -0.0633 -0.0715 0.4384
Si1 Si 0.23282(11) 0.01511(5) 0.30849(6)
S1 S 0.57515(11) -0.03378(6) 0.13973(6)
S2 S -0.09854(11) 0.22659(6) 0.29821(6)
Cl1 Cl 0.76688(16) 0.06441(8) -0.04393(8)
Cl2 Cl -0.25435(15) 0.42458(7) 0.16086(9)
loop_
_geom_bond_atom_site_label_1
_geom_bond_atom_site_label_2
_geom_bond_site_symmetry_1
_geom_bond_site_symmetry_2
C1 C2 1_555 1_555
C2 C4 1_555 1_555
C3 C4 1_555 1_555
C4 H1 1_555 1_555
C5 C6 1_555 1_555
C6 C2 1_555 1_555
C7 C8 1_555 1_555
C8 C6 1_555 1_555
H2 C8 1_555 1_555
C9 C10 1_555 1_555
C10 H3 1_555 1_555
C11 C10 1_555 1_555
H4 C11 1_555 1_555
C12 C11 1_555 1_555
H5 C12 1_555 1_555
C13 C12 1_555 1_555
H6 C13 1_555 1_555
C14 C9 1_555 1_555
H7 C14 1_555 1_555
C15 C16 1_555 1_555
C16 H8 1_555 1_555
C17 C16 1_555 1_555
H9 C17 1_555 1_555
C18 C17 1_555 1_555
H10 C18 1_555 1_555
C19 C18 1_555 1_555
H11 C19 1_555 1_555
C20 C15 1_555 1_555
H12 C20 1_555 1_555
Si1 C1 1_555 1_555
S1 C1 1_555 1_555
S2 C5 1_555 1_555
Cl1 C3 1_555 1_555
Cl2 C7 1_555 1_555
C3 S1 1_555 1_555
C5 Si1 1_555 1_555
C7 S2 1_555 1_555
C9 Si1 1_555 1_555
C13 C14 1_555 1_555
C15 Si1 1_555 1_555
C19 C20 1_555 1_555

#END
