
#######################################################################
#
#                 Cambridge Crystallographic Data Centre
#                                CCDC 
#
#######################################################################
#
# If this CIF has been generated from an entry in the Cambridge 
# Structural Database, then it will include bibliographic, chemical, 
# crystal, experimental, refinement or atomic coordinate data resulting 
# from the CCDC's data processing and validation procedures.
#
#######################################################################

data_PEQVUE
_chemical_formula_moiety         'C26 H6 F18'
_chemical_name_systematic        1,3,5,7,9,11-hexakis(Trifluoromethyl)perylene
_symmetry_cell_setting           monoclinic
_symmetry_space_group_name_H-M   'C 2/c'
_symmetry_Int_Tables_number      15
_space_group_name_Hall           '-C 2yn'
loop_
_symmetry_equiv_pos_site_id
_symmetry_equiv_pos_as_xyz
1 x,y,z
2 -x,y,1/2-z
3 1/2+x,1/2+y,z
4 1/2-x,1/2+y,1/2-z
5 -x,-y,-z
6 x,-y,1/2+z
7 1/2-x,1/2-y,-z
8 1/2+x,1/2-y,1/2+z
_cell_length_a                   11.9315(5)
_cell_length_b                   22.7968(11)
_cell_length_c                   16.6986(7)
_cell_angle_alpha                90
_cell_angle_beta                 94.796(2)
_cell_angle_gamma                90
_cell_volume                     4526.12
_exptl_crystal_colour            green
_exptl_crystal_description       rod
_cell_formula_units_Z            8
loop_
_atom_site_label
_atom_site_type_symbol
_atom_site_fract_x
_atom_site_fract_y
_atom_site_fract_z
F1 F 0.48343(10) 0.71343(6) 0.06470(10)
F2 F 0.49871(11) 0.80458(6) 0.05117(10)
F3 F 0.52361(11) 0.76665(11) 0.16782(8)
C1 C 0.14112(12) 0.89636(6) 0.15036(9)
C2 C 0.02439(12) 0.90622(6) 0.12743(9)
C3 C 0.11033(12) 0.78828(6) 0.12964(9)
C4 C 0.15583(13) 0.73072(6) 0.12603(9)
C5 C -0.07576(12) 0.74833(6) 0.13961(9)
C6 C 0.15961(13) 1.00102(7) 0.17816(10)
H1 H 0.2031 1.0321 0.1992
C7 C 0.33874(13) 0.77183(7) 0.11112(10)
C8 C 0.18512(12) 0.83760(6) 0.13355(9)
C9 C 0.05354(13) 1.01176(6) 0.14386(9)
C10 C -0.00849(12) 0.79734(6) 0.12771(9)
C11 C -0.01887(13) 0.96444(6) 0.11903(9)
C12 C 0.32237(13) 0.94026(7) 0.22402(11)
C13 C 0.08150(13) 0.68221(6) 0.13223(10)
C14 C -0.02914(13) 0.69150(7) 0.14217(10)
H2 H -0.0751 0.6596 0.1509
C15 C -0.04934(12) 0.85730(6) 0.10862(9)
C16 C -0.15380(13) 0.86817(6) 0.06984(9)
H3 H -0.1992 0.8369 0.0519
C17 C -0.20025(13) 0.74982(6) 0.15117(9)
C18 C 0.27202(13) 0.72334(7) 0.11709(10)
H4 H 0.3028 0.6859 0.1153
C19 C 0.29633(13) 0.82881(6) 0.11950(9)
H5 H 0.3436 0.8609 0.1155
C20 C -0.19285(13) 0.92602(7) 0.05707(10)
C21 C 0.20467(13) 0.94357(6) 0.18237(9)
C22 C 0.12434(14) 0.62004(7) 0.13047(12)
C23 C 0.46198(14) 0.76433(7) 0.10037(11)
C24 C -0.12983(13) 0.97306(7) 0.08382(10)
H6 H -0.1596 1.0107 0.0790
C25 C 0.01513(14) 1.07428(7) 0.13303(10)
C26 C -0.30599(14) 0.93448(7) 0.01203(11)
F4 F -0.26447(8) 0.74628(4) 0.08071(6)
F5 F 0.34572(8) 0.88924(4) 0.26103(6)
F6 F -0.23145(8) 0.79791(4) 0.18915(6)
F7 F -0.07323(9) 1.08675(4) 0.17513(6)
F8 F 0.09581(9) 1.11276(4) 0.15561(7)
F9 F -0.22967(8) 0.70382(4) 0.19455(6)
F10 F 0.40239(8) 0.94961(5) 0.17346(7)
F11 F -0.01844(9) 1.08601(4) 0.05571(6)
F12 F 0.20011(9) 0.60881(5) 0.19268(8)
F13 F 0.33628(9) 0.98177(5) 0.28094(7)
F14 F 0.04261(9) 0.58074(4) 0.13386(9)
F15 F 0.17557(11) 0.60871(5) 0.06365(8)
F16 F -0.33312(11) 0.99013(5) 0.00186(10)
F17 F -0.30609(12) 0.91213(7) -0.06222(9)
F18 F -0.38727(11) 0.90829(8) 0.04615(10)
loop_
_geom_bond_atom_site_label_1
_geom_bond_atom_site_label_2
_geom_bond_site_symmetry_1
_geom_bond_site_symmetry_2
F1 C23 1_555 1_555
F2 C23 1_555 1_555
F3 C23 1_555 1_555
C1 C2 1_555 1_555
C2 C11 1_555 1_555
C3 C4 1_555 1_555
C4 C13 1_555 1_555
C5 C10 1_555 1_555
C6 H1 1_555 1_555
C7 C18 1_555 1_555
C8 C1 1_555 1_555
C9 C6 1_555 1_555
C10 C3 1_555 1_555
C11 C9 1_555 1_555
C12 C21 1_555 1_555
C13 C14 1_555 1_555
C14 C5 1_555 1_555
H2 C14 1_555 1_555
C15 C2 1_555 1_555
C16 C15 1_555 1_555
H3 C16 1_555 1_555
C17 C5 1_555 1_555
C18 C4 1_555 1_555
H4 C18 1_555 1_555
C19 C7 1_555 1_555
H5 C19 1_555 1_555
C20 C16 1_555 1_555
C21 C1 1_555 1_555
C22 C13 1_555 1_555
C23 C7 1_555 1_555
C24 C11 1_555 1_555
H6 C24 1_555 1_555
C25 C9 1_555 1_555
C26 C20 1_555 1_555
F4 C17 1_555 1_555
F5 C12 1_555 1_555
F6 C17 1_555 1_555
F7 C25 1_555 1_555
F8 C25 1_555 1_555
F9 C17 1_555 1_555
F10 C12 1_555 1_555
F11 C25 1_555 1_555
F12 C22 1_555 1_555
F13 C12 1_555 1_555
F14 C22 1_555 1_555
F15 C22 1_555 1_555
F16 C26 1_555 1_555
F17 C26 1_555 1_555
F18 C26 1_555 1_555
C3 C8 1_555 1_555
C6 C21 1_555 1_555
C8 C19 1_555 1_555
C10 C15 1_555 1_555
C20 C24 1_555 1_555

#END
