
#######################################################################
#
#                 Cambridge Crystallographic Data Centre
#                                CCDC 
#
#######################################################################
#
# If this CIF has been generated from an entry in the Cambridge 
# Structural Database, then it will include bibliographic, chemical, 
# crystal, experimental, refinement or atomic coordinate data resulting 
# from the CCDC's data processing and validation procedures.
#
#######################################################################

data_PEQVIS
_chemical_formula_moiety         'C21 H5 F15'
_chemical_name_systematic        1,3,4,6,8-pentakis(Trifluoromethyl)pyrene
_symmetry_cell_setting           monoclinic
_symmetry_space_group_name_H-M   'C 2/c'
_symmetry_Int_Tables_number      15
_space_group_name_Hall           '-C 2yn'
loop_
_symmetry_equiv_pos_site_id
_symmetry_equiv_pos_as_xyz
1 x,y,z
2 -x,y,1/2-z
3 1/2+x,1/2+y,z
4 1/2-x,1/2+y,1/2-z
5 -x,-y,-z
6 x,-y,1/2+z
7 1/2-x,1/2-y,-z
8 1/2+x,1/2-y,1/2+z
_cell_length_a                   23.826(2)
_cell_length_b                   10.8099(11)
_cell_length_c                   16.0567(17)
_cell_angle_alpha                90
_cell_angle_beta                 118.572(5)
_cell_angle_gamma                90
_cell_volume                     3631.87
_exptl_crystal_colour            colorless
_exptl_crystal_description       rod
_cell_formula_units_Z            8
loop_
_atom_site_label
_atom_site_type_symbol
_atom_site_fract_x
_atom_site_fract_y
_atom_site_fract_z
C1 C 0.08154(4) 0.06123(8) 0.21689(6)
C2 C 0.01811(4) 0.25352(8) 0.16047(6)
H1 H 0.0152 0.3388 0.1651
C3 C -0.03202(4) 0.05771(8) 0.09034(6)
C4 C 0.13390(4) 0.25947(8) 0.27757(6)
C5 C 0.13526(4) -0.13614(8) 0.28368(6)
C6 C 0.02751(4) -0.13729(8) 0.14802(6)
C7 C 0.02537(4) -0.00627(8) 0.15227(6)
C8 C 0.14050(4) -0.00259(8) 0.27575(6)
C9 C -0.03425(4) 0.18938(8) 0.09884(6)
H2 H -0.0722 0.2314 0.0615
C10 C -0.08027(4) -0.13904(8) 0.01535(6)
H3 H -0.1146 -0.1824 -0.0315
C11 C 0.19641(4) 0.07055(8) 0.31930(6)
C12 C 0.07809(4) 0.19270(8) 0.21891(6)
C13 C -0.02508(4) -0.20182(8) 0.07788(6)
C14 C -0.08420(4) -0.01167(8) 0.02286(6)
C15 C 0.08239(4) -0.19883(8) 0.22120(6)
H4 H 0.0817 -0.2845 0.2259
C16 C 0.19202(4) 0.19893(8) 0.32214(6)
H5 H 0.2292 0.2451 0.3549
C17 C 0.18171(4) -0.21333(8) 0.36734(6)
C18 C 0.13240(4) 0.39738(8) 0.29076(7)
C19 C -0.14629(4) 0.05121(9) -0.04321(6)
C20 C -0.02280(4) -0.34031(8) 0.06839(7)
C21 C 0.26469(4) 0.02593(9) 0.35770(7)
F1 F 0.21793(3) -0.14313(6) 0.44327(4)
F2 F -0.13873(3) 0.14270(6) -0.09394(4)
F3 F 0.02802(3) -0.37534(6) 0.05888(5)
F4 F 0.22029(3) -0.28396(5) 0.34870(5)
F5 F 0.14954(3) -0.29184(6) 0.39433(4)
F6 F -0.17401(3) 0.10343(6) 0.00425(4)
F7 F 0.11223(3) 0.46042(6) 0.20916(5)
F8 F -0.18857(3) -0.02763(6) -0.10589(4)
F9 F 0.26868(3) -0.08677(6) 0.32717(5)
F10 F 0.29591(3) 0.10252(6) 0.32776(5)
F11 F 0.09269(3) 0.42716(6) 0.32525(5)
F12 F -0.01810(3) -0.39995(6) 0.14521(5)
F13 F -0.07474(3) -0.38401(6) -0.00678(5)
F14 F 0.18973(3) 0.44191(6) 0.35136(5)
F15 F 0.29795(3) 0.02706(7) 0.45250(5)
loop_
_geom_bond_atom_site_label_1
_geom_bond_atom_site_label_2
_geom_bond_site_symmetry_1
_geom_bond_site_symmetry_2
C1 C7 1_555 1_555
C2 H1 1_555 1_555
C3 C7 1_555 1_555
C4 C12 1_555 1_555
C5 C8 1_555 1_555
C6 C7 1_555 1_555
C8 C1 1_555 1_555
C9 C2 1_555 1_555
H2 C9 1_555 1_555
C10 H3 1_555 1_555
C11 C8 1_555 1_555
C12 C1 1_555 1_555
C13 C6 1_555 1_555
C14 C3 1_555 1_555
C15 C5 1_555 1_555
H4 C15 1_555 1_555
C16 C4 1_555 1_555
H5 C16 1_555 1_555
C17 C5 1_555 1_555
C18 C4 1_555 1_555
C19 C14 1_555 1_555
C20 C13 1_555 1_555
C21 C11 1_555 1_555
F1 C17 1_555 1_555
F2 C19 1_555 1_555
F3 C20 1_555 1_555
F4 C17 1_555 1_555
F5 C17 1_555 1_555
F6 C19 1_555 1_555
F7 C18 1_555 1_555
F8 C19 1_555 1_555
F9 C21 1_555 1_555
F10 C21 1_555 1_555
F11 C18 1_555 1_555
F12 C20 1_555 1_555
F13 C20 1_555 1_555
F14 C18 1_555 1_555
F15 C21 1_555 1_555
C2 C12 1_555 1_555
C3 C9 1_555 1_555
C6 C15 1_555 1_555
C10 C13 1_555 1_555
C10 C14 1_555 1_555
C11 C16 1_555 1_555

#END
