
#######################################################################
#
#                 Cambridge Crystallographic Data Centre
#                                CCDC 
#
#######################################################################
#
# If this CIF has been generated from an entry in the Cambridge 
# Structural Database, then it will include bibliographic, chemical, 
# crystal, experimental, refinement or atomic coordinate data resulting 
# from the CCDC's data processing and validation procedures.
#
#######################################################################

data_PEQWIT
_chemical_formula_moiety         'C19 H5 F15'
_chemical_name_systematic        
1,3,6,8,10-pentakis(Trifluoromethyl)anthracene
_symmetry_cell_setting           triclinic
_symmetry_space_group_name_H-M   'P -1'
_symmetry_Int_Tables_number      2
_space_group_name_Hall           '-P 1'
loop_
_symmetry_equiv_pos_site_id
_symmetry_equiv_pos_as_xyz
1 x,y,z
2 -x,-y,-z
_cell_length_a                   9.0272(4)
_cell_length_b                   9.8319(5)
_cell_length_c                   20.6030(10)
_cell_angle_alpha                93.048(3)
_cell_angle_beta                 92.586(2)
_cell_angle_gamma                100.253(2)
_cell_volume                     1794.09
_exptl_crystal_colour            colorless
_exptl_crystal_description       rod
_cell_formula_units_Z            4
loop_
_atom_site_label
_atom_site_type_symbol
_atom_site_fract_x
_atom_site_fract_y
_atom_site_fract_z
C1 C 0.29115(11) 0.83858(10) 0.91177(5)
C2 C 0.35693(11) 0.97466(10) 0.89400(5)
C3 C 0.28873(11) 1.07592(10) 0.99663(5)
C4 C 0.29181(11) 1.19367(10) 1.04168(5)
C5 C 0.21506(11) 0.82565(10) 0.97011(5)
C6 C 0.35290(11) 1.08940(10) 0.93614(5)
H1 H 0.3939 1.1772 0.9238
C7 C 0.22816(12) 1.17995(11) 1.10016(5)
H2 H 0.2301 1.2571 1.1286
C8 C 0.31290(12) 0.72285(11) 0.86965(6)
H3 H 0.2760 0.6332 0.8808
C9 C 0.42678(12) 0.98935(11) 0.83249(5)
C10 C 0.15851(13) 1.04614(12) 1.11737(6)
C11 C 0.21675(11) 0.94164(10) 1.01418(5)
C12 C 0.15312(12) 0.93150(11) 1.07660(6)
H4 H 0.1075 0.8454 1.0894
C13 C 0.44066(13) 0.87705(12) 0.79353(6)
H5 H 0.4852 0.8881 0.7539
C14 C 0.12631(12) 0.68859(11) 0.98915(6)
C15 C 0.38622(12) 0.74245(12) 0.81408(6)
C16 C 0.36697(11) 1.33592(11) 1.02434(5)
C17 C 0.48742(14) 1.13175(12) 0.81100(6)
C18 C 0.41697(15) 0.62112(13) 0.77288(6)
C19 C 0.09041(15) 1.03414(14) 1.18248(6)
F1 F 0.19333(8) 0.64080(8) 1.03992(4)
F2 F 0.51297(7) 1.33995(7) 1.01237(4)
F3 F 0.30243(8) 1.37646(7) 0.97050(4)
F4 F 0.36345(10) 1.43170(7) 1.07229(4)
F5 F 0.38121(10) 1.21103(8) 0.80877(4)
F6 F -0.01117(8) 0.70389(8) 1.00700(5)
F7 F 0.59949(9) 1.19943(9) 0.85222(4)
F8 F 0.10381(12) 0.58720(9) 0.94256(5)
F9 F 0.56481(11) 0.62267(12) 0.77043(6)
F10 F 0.54191(12) 1.12735(9) 0.75202(4)
F11 F 0.36659(15) 0.62095(12) 0.71180(5)
F12 F -0.02873(11) 1.09534(13) 1.18561(5)
F13 F 0.18690(13) 1.10031(18) 1.23018(5)
F14 F 0.0507(2) 0.90652(12) 1.19828(7)
F15 F 0.35858(18) 0.50047(10) 0.79472(7)
C20 C 0.88448(11) 0.29972(11) 0.51771(5)
H6 H 0.8064 0.3213 0.4915
C21 C 1.11115(11) 0.19543(10) 0.52912(5)
C22 C 0.99256(11) 0.23363(10) 0.48916(5)
C23 C 0.89061(11) 0.33409(11) 0.58446(5)
C24 C 1.00861(11) 0.29840(10) 0.62524(5)
C25 C 0.98848(11) 0.20640(11) 0.41957(5)
C26 C 1.11495(11) 0.22625(10) 0.59719(5)
C27 C 0.79189(13) 0.44339(12) 0.67830(6)
H7 H 0.7209 0.4898 0.6964
C28 C 1.01460(13) 0.33952(11) 0.69334(5)
H8 H 1.0901 0.3176 0.7209
C29 C 1.09499(12) 0.14504(12) 0.39106(5)
H9 H 1.0909 0.1276 0.3461
C30 C 0.91071(13) 0.41049(12) 0.71805(6)
C31 C 0.78192(12) 0.40672(12) 0.61335(6)
C32 C 1.21217(12) 0.10811(12) 0.43070(5)
C33 C 1.22131(11) 0.13083(11) 0.49648(5)
H10 H 1.2996 0.1044 0.5208
C34 C 0.86820(12) 0.24968(12) 0.37656(6)
C35 C 1.23233(13) 0.18709(12) 0.64438(5)
C36 C 0.92335(15) 0.45990(13) 0.78860(6)
C37 C 1.33095(14) 0.04749(14) 0.39661(6)
C38 C 0.65507(13) 0.44353(13) 0.57184(7)
F16 F 0.87244(9) 0.38694(8) 0.38320(4)
F17 F 1.32073(9) 0.30018(9) 0.67343(4)
F18 F 1.40815(9) 0.13843(10) 0.35885(5)
F19 F 0.70566(10) 0.52557(9) 0.52426(4)
F20 F 1.16599(10) 0.11398(8) 0.69185(4)
F21 F 0.72895(8) 0.18938(8) 0.39045(4)
F22 F 0.56605(9) 0.33108(9) 0.54230(5)
F23 F 0.97301(14) 0.59595(10) 0.79643(5)
F24 F 0.88291(10) 0.21809(10) 0.31364(4)
F25 F 1.27090(10) -0.06205(9) 0.35657(5)
F26 F 1.32568(11) 0.11054(11) 0.61899(4)
F27 F 0.79024(12) 0.43697(13) 0.81551(5)
F28 F 1.01787(14) 0.40137(12) 0.82457(4)
F29 F 0.56626(10) 0.51131(11) 0.60640(5)
F30 F 1.43034(13) 0.00727(15) 0.43719(5)
loop_
_geom_bond_atom_site_label_1
_geom_bond_atom_site_label_2
_geom_bond_site_symmetry_1
_geom_bond_site_symmetry_2
C1 C2 1_555 1_555
C2 C6 1_555 1_555
C3 C4 1_555 1_555
C4 C7 1_555 1_555
C5 C1 1_555 1_555
C6 C3 1_555 1_555
H1 C6 1_555 1_555
C7 H2 1_555 1_555
C8 C1 1_555 1_555
H3 C8 1_555 1_555
C9 C2 1_555 1_555
C10 C7 1_555 1_555
C11 C3 1_555 1_555
C12 C10 1_555 1_555
H4 C12 1_555 1_555
C13 C9 1_555 1_555
H5 C13 1_555 1_555
C14 C5 1_555 1_555
C15 C8 1_555 1_555
C16 C4 1_555 1_555
C17 C9 1_555 1_555
C18 C15 1_555 1_555
C19 C10 1_555 1_555
F1 C14 1_555 1_555
F2 C16 1_555 1_555
F3 C16 1_555 1_555
F4 C16 1_555 1_555
F5 C17 1_555 1_555
F6 C14 1_555 1_555
F7 C17 1_555 1_555
F8 C14 1_555 1_555
F9 C18 1_555 1_555
F10 C17 1_555 1_555
F11 C18 1_555 1_555
F12 C19 1_555 1_555
F13 C19 1_555 1_555
F14 C19 1_555 1_555
F15 C18 1_555 1_555
C20 H6 1_555 1_555
C21 C22 1_555 1_555
C22 C20 1_555 1_555
C23 C20 1_555 1_555
C24 C23 1_555 1_555
C25 C22 1_555 1_555
C26 C21 1_555 1_555
C27 H7 1_555 1_555
C28 C24 1_555 1_555
H8 C28 1_555 1_555
C29 C25 1_555 1_555
H9 C29 1_555 1_555
C30 C27 1_555 1_555
C31 C23 1_555 1_555
C32 C29 1_555 1_555
C33 C21 1_555 1_555
H10 C33 1_555 1_555
C34 C25 1_555 1_555
C35 C26 1_555 1_555
C36 C30 1_555 1_555
C37 C32 1_555 1_555
C38 C31 1_555 1_555
F16 C34 1_555 1_555
F17 C35 1_555 1_555
F18 C37 1_555 1_555
F19 C38 1_555 1_555
F20 C35 1_555 1_555
F21 C34 1_555 1_555
F22 C38 1_555 1_555
F23 C36 1_555 1_555
F24 C34 1_555 1_555
F25 C37 1_555 1_555
F26 C35 1_555 1_555
F27 C36 1_555 1_555
F28 C36 1_555 1_555
F29 C38 1_555 1_555
F30 C37 1_555 1_555
C5 C11 1_555 1_555
C11 C12 1_555 1_555
C13 C15 1_555 1_555
C24 C26 1_555 1_555
C27 C31 1_555 1_555
C28 C30 1_555 1_555
C32 C33 1_555 1_555

#END
