
#######################################################################
#
#                 Cambridge Crystallographic Data Centre
#                                CCDC 
#
#######################################################################
#
# If this CIF has been generated from an entry in the Cambridge 
# Structural Database, then it will include bibliographic, chemical, 
# crystal, experimental, refinement or atomic coordinate data resulting 
# from the CCDC's data processing and validation procedures.
#
#######################################################################

data_PEQWEP
_chemical_formula_moiety         'C24 H8 F12'
_chemical_name_systematic        1,4,7,10-tetrakis(Trifluoromethyl)perylene
_symmetry_cell_setting           orthorhombic
_symmetry_space_group_name_H-M   'I b a 2'
_symmetry_Int_Tables_number      45
_space_group_name_Hall           'I 2 -2c'
loop_
_symmetry_equiv_pos_site_id
_symmetry_equiv_pos_as_xyz
1 x,y,z
2 -x,-y,z
3 1/2+x,1/2-y,z
4 1/2-x,1/2+y,z
5 1/2+x,1/2+y,1/2+z
6 1/2-x,1/2-y,1/2+z
7 x,-y,1/2+z
8 -x,y,1/2+z
_cell_length_a                   11.6159(19)
_cell_length_b                   19.637(5)
_cell_length_c                   8.4257(14)
_cell_angle_alpha                90
_cell_angle_beta                 90
_cell_angle_gamma                90
_cell_volume                     1921.91
_exptl_crystal_colour            yellow
_exptl_crystal_description       rod
_cell_formula_units_Z            4
loop_
_atom_site_label
_atom_site_type_symbol
_atom_site_fract_x
_atom_site_fract_y
_atom_site_fract_z
C1 C 0.23648(9) 0.98432(5) 0.18419(12)
C2 C 0.28509(9) 0.91833(5) 0.18771(13)
H1 H 0.3623 0.9128 0.2225
C3 C 0.22358(9) 0.86240(5) 0.14235(13)
H2 H 0.2603 0.8192 0.1369
C4 C 0.10522(9) 0.86824(5) 0.10323(13)
C5 C 0.03576(10) 0.81266(5) 0.05343(13)
C6 C -0.07765(9) 0.82215(5) 0.01574(13)
H3 H -0.1212 0.7855 -0.0269
C7 C -0.13023(9) 0.88591(5) 0.03985(13)
H4 H -0.2098 0.8913 0.0166
C8 C -0.06844(8) 0.94083(5) 0.09659(12)
C9 C 0.05346(8) 0.93398(5) 0.11250(12)
C10 C 0.12285(8) 0.99341(5) 0.13591(12)
C11 C 0.31475(9) 1.04107(5) 0.24136(14)
F1 F 0.25822(6) 1.09340(3) 0.30686(9)
F2 F 0.38166(6) 1.06668(4) 0.12590(10)
F3 F 0.38668(6) 1.01770(4) 0.35315(10)
C12 C 0.08629(11) 0.74264(6) 0.03521(16)
F4 F 0.16819(7) 0.74071(4) -0.07779(11)
F5 F 0.13651(8) 0.72014(3) 0.16901(11)
F6 F 0.00753(8) 0.69593(3) -0.00568(12)
C1A C -0.23648(9) 1.01568(5) 0.18419(12)
C2A C -0.28509(9) 1.08167(5) 0.18771(13)
H1A H -0.3623 1.0872 0.2225
C3A C -0.22358(9) 1.13760(5) 0.14235(13)
H2A H -0.2603 1.1808 0.1369
C4A C -0.10522(9) 1.13176(5) 0.10323(13)
C5A C -0.03576(10) 1.18734(5) 0.05343(13)
C6A C 0.07765(9) 1.17785(5) 0.01574(13)
H3A H 0.1212 1.2145 -0.0269
C7A C 0.13023(9) 1.11409(5) 0.03985(13)
H4A H 0.2098 1.1087 0.0166
C8A C 0.06844(8) 1.05917(5) 0.09659(12)
C9A C -0.05346(8) 1.06602(5) 0.11250(12)
C10A C -0.12285(8) 1.00659(5) 0.13591(12)
C11A C -0.31475(9) 0.95893(5) 0.24136(14)
F1A F -0.25822(6) 0.90660(3) 0.30686(9)
F2A F -0.38166(6) 0.93332(4) 0.12590(10)
F3A F -0.38668(6) 0.98230(4) 0.35315(10)
C12A C -0.08629(11) 1.25736(6) 0.03521(16)
F4A F -0.16819(7) 1.25929(4) -0.07779(11)
F5A F -0.13651(8) 1.27986(3) 0.16901(11)
F6A F -0.00753(8) 1.30407(3) -0.00568(12)
loop_
_geom_bond_atom_site_label_1
_geom_bond_atom_site_label_2
_geom_bond_site_symmetry_1
_geom_bond_site_symmetry_2
C1 C2 1_555 1_555
C2 H1 1_555 1_555
C3 C2 1_555 1_555
H2 C3 1_555 1_555
C4 C3 1_555 1_555
C5 C4 1_555 1_555
C6 C5 1_555 1_555
H3 C6 1_555 1_555
C7 C6 1_555 1_555
H4 C7 1_555 1_555
C8 C7 1_555 1_555
C9 C4 1_555 1_555
C10 C1 1_555 1_555
C11 C1 1_555 1_555
F1 C11 1_555 1_555
F2 C11 1_555 1_555
F3 C11 1_555 1_555
C12 C5 1_555 1_555
F4 C12 1_555 1_555
F5 C12 1_555 1_555
F6 C12 1_555 1_555
C1A C2A 1_555 1_555
C2A H1A 1_555 1_555
C3A C2A 1_555 1_555
H2A C3A 1_555 1_555
C4A C3A 1_555 1_555
C5A C4A 1_555 1_555
C6A C5A 1_555 1_555
H3A C6A 1_555 1_555
C7A C6A 1_555 1_555
H4A C7A 1_555 1_555
C8A C10 1_555 1_555
C9A C4A 1_555 1_555
C10A C8 1_555 1_555
C11A C1A 1_555 1_555
F1A C11A 1_555 1_555
F2A C11A 1_555 1_555
F3A C11A 1_555 1_555
C12A C5A 1_555 1_555
F4A C12A 1_555 1_555
F5A C12A 1_555 1_555
F6A C12A 1_555 1_555
C8 C9 1_555 1_555
C9 C10 1_555 1_555
C1A C10A 1_555 1_555
C7A C8A 1_555 1_555
C8A C9A 1_555 1_555
C9A C10A 1_555 1_555

#END
