
#######################################################################
#
#                 Cambridge Crystallographic Data Centre
#                                CCDC 
#
#######################################################################
#
# If this CIF has been generated from an entry in the Cambridge 
# Structural Database, then it will include bibliographic, chemical, 
# crystal, experimental, refinement or atomic coordinate data resulting 
# from the CCDC's data processing and validation procedures.
#
#######################################################################

data_PERCIA
_chemical_formula_moiety         'C58 H60 F2'
_chemical_name_systematic        
1,4-Difluoro-2,3,5,6-tetrakis((4-pentylphenyl)ethynyl)benzene
_symmetry_cell_setting           monoclinic
_symmetry_space_group_name_H-M   'P 21/c'
_symmetry_Int_Tables_number      14
_space_group_name_Hall           '-P 2ybc'
loop_
_symmetry_equiv_pos_site_id
_symmetry_equiv_pos_as_xyz
1 x,y,z
2 -x,1/2+y,1/2-z
3 -x,-y,-z
4 x,1/2-y,1/2+z
_cell_length_a                   11.1675(2)
_cell_length_b                   7.78760(10)
_cell_length_c                   26.7121(4)
_cell_angle_alpha                90
_cell_angle_beta                 101.3090(10)
_cell_angle_gamma                90
_cell_volume                     2277.99
_exptl_crystal_colour            brown
_exptl_crystal_description       prism
_cell_formula_units_Z            2
loop_
_atom_site_label
_atom_site_type_symbol
_atom_site_fract_x
_atom_site_fract_y
_atom_site_fract_z
F1 F 0.08831(7) 0.13379(10) 0.09347(3)
C1 C 0.04409(10) 0.06757(16) 0.04691(4)
C2 C 0.12047(10) 0.06748(16) 0.01142(4)
C3 C -0.07403(10) 0.00378(16) 0.03736(4)
C4 C 0.24008(11) 0.13861(17) 0.02409(5)
C5 C 0.33847(11) 0.20500(18) 0.03483(5)
C6 C 0.45439(10) 0.28756(17) 0.05044(5)
C7 C 0.47905(11) 0.37631(17) 0.09685(5)
H1 H 0.4184 0.3833 0.1172
C8 C 0.59066(11) 0.45359(18) 0.11320(5)
H2 H 0.6056 0.5139 0.1447
C9 C 0.68254(11) 0.44545(16) 0.08451(4)
C10 C 0.65683(11) 0.35994(18) 0.03804(5)
H3 H 0.7172 0.3550 0.0175
C11 C 0.54476(11) 0.28161(19) 0.02099(5)
H4 H 0.5293 0.2236 -0.0109
C12 C 0.80581(11) 0.52171(19) 0.10678(5)
H5 H 0.8388 0.4598 0.1389
H6 H 0.7929 0.6425 0.1160
C13 C 0.90273(11) 0.51999(17) 0.07428(5)
H7 H 0.8732 0.5860 0.0426
H8 H 0.9172 0.4002 0.0645
C14 C 1.02238(11) 0.59742(18) 0.10255(5)
H9 H 1.0060 0.7150 0.1136
H10 H 1.0522 0.5285 0.1336
C15 C 1.12294(11) 0.60652(19) 0.07158(5)
H11 H 1.0924 0.6697 0.0394
H12 H 1.1445 0.4887 0.0626
C16 C 1.23664(12) 0.6956(2) 0.10084(6)
H13 H 1.2159 0.8129 0.1094
H14 H 1.2991 0.6993 0.0797
H15 H 1.2682 0.6320 0.1323
C17 C -0.14730(11) 0.00940(16) 0.07537(4)
C18 C -0.21309(11) 0.01631(16) 0.10560(4)
C19 C -0.29546(10) 0.02654(16) 0.14046(4)
C20 C -0.26212(11) 0.11190(16) 0.18690(4)
H16 H -0.1831 0.1615 0.1961
C21 C -0.34369(11) 0.12502(16) 0.21986(4)
H17 H -0.3194 0.1828 0.2516
C22 C -0.46006(10) 0.05523(16) 0.20729(4)
C23 C -0.49205(11) -0.03263(17) 0.16112(4)
H18 H -0.5707 -0.0834 0.1522
C24 C -0.41140(11) -0.04730(17) 0.12807(4)
H19 H -0.4350 -0.1079 0.0968
C25 C -0.55074(11) 0.07401(17) 0.24232(4)
H20 H -0.5122 0.1413 0.2727
H21 H -0.5696 -0.0414 0.2542
C26 C -0.66993(11) 0.16131(19) 0.21755(5)
H22 H -0.6519 0.2789 0.2070
H23 H -0.7073 0.0969 0.1864
C27 C -0.76109(11) 0.17146(17) 0.25315(4)
H24 H -0.7801 0.0535 0.2630
H25 H -0.7226 0.2331 0.2846
C28 C -0.87961(11) 0.26152(19) 0.22989(5)
H26 H -0.9204 0.1970 0.1993
H27 H -0.8607 0.3779 0.2187
C29 C -0.96690(12) 0.2769(2) 0.26701(5)
H28 H -0.9923 0.1620 0.2757
H29 H -1.0389 0.3432 0.2511
H30 H -0.9256 0.3354 0.2981
F1B F -0.08831(7) -0.13379(10) -0.09347(3)
C1B C -0.04409(10) -0.06757(16) -0.04691(4)
C2B C -0.12047(10) -0.06748(16) -0.01142(4)
C3B C 0.07403(10) -0.00378(16) -0.03736(4)
C4B C -0.24008(11) -0.13861(17) -0.02409(5)
C5B C -0.33847(11) -0.20500(18) -0.03483(5)
C6B C -0.45439(10) -0.28756(17) -0.05044(5)
C7B C -0.47905(11) -0.37631(17) -0.09685(5)
H1B H -0.4184 -0.3833 -0.1172
C8B C -0.59066(11) -0.45359(18) -0.11320(5)
H2B H -0.6056 -0.5139 -0.1447
C9B C -0.68254(11) -0.44545(16) -0.08451(4)
C10B C -0.65683(11) -0.35994(18) -0.03804(5)
H3B H -0.7172 -0.3550 -0.0175
C11B C -0.54476(11) -0.28161(19) -0.02099(5)
H4B H -0.5293 -0.2236 0.0109
C12B C -0.80581(11) -0.52171(19) -0.10678(5)
H5B H -0.8388 -0.4598 -0.1389
H6B H -0.7929 -0.6425 -0.1160
C13B C -0.90273(11) -0.51999(17) -0.07428(5)
H7B H -0.8732 -0.5860 -0.0426
H8B H -0.9172 -0.4002 -0.0645
C14B C -1.02238(11) -0.59742(18) -0.10255(5)
H9B H -1.0060 -0.7150 -0.1136
H10B H -1.0522 -0.5285 -0.1336
C15B C -1.12294(11) -0.60652(19) -0.07158(5)
H11B H -1.0924 -0.6697 -0.0394
H12B H -1.1445 -0.4887 -0.0626
C16B C -1.23664(12) -0.6956(2) -0.10084(6)
H13B H -1.2159 -0.8129 -0.1094
H14B H -1.2991 -0.6993 -0.0797
H15B H -1.2682 -0.6320 -0.1323
C17B C 0.14730(11) -0.00940(16) -0.07537(4)
C18B C 0.21309(11) -0.01631(16) -0.10560(4)
C19B C 0.29546(10) -0.02654(16) -0.14046(4)
C20B C 0.26212(11) -0.11190(16) -0.18690(4)
H16B H 0.1831 -0.1615 -0.1961
C21B C 0.34369(11) -0.12502(16) -0.21986(4)
H17B H 0.3194 -0.1828 -0.2516
C22B C 0.46006(10) -0.05523(16) -0.20729(4)
C23B C 0.49205(11) 0.03263(17) -0.16112(4)
H18B H 0.5707 0.0834 -0.1522
C24B C 0.41140(11) 0.04730(17) -0.12807(4)
H19B H 0.4350 0.1079 -0.0968
C25B C 0.55074(11) -0.07401(17) -0.24232(4)
H20B H 0.5122 -0.1413 -0.2727
H21B H 0.5696 0.0414 -0.2542
C26B C 0.66993(11) -0.16131(19) -0.21755(5)
H22B H 0.6519 -0.2789 -0.2070
H23B H 0.7073 -0.0969 -0.1864
C27B C 0.76109(11) -0.17146(17) -0.25315(4)
H24B H 0.7801 -0.0535 -0.2630
H25B H 0.7226 -0.2331 -0.2846
C28B C 0.87961(11) -0.26152(19) -0.22989(5)
H26B H 0.9204 -0.1970 -0.1993
H27B H 0.8607 -0.3779 -0.2187
C29B C 0.96690(12) -0.2769(2) -0.26701(5)
H28B H 0.9923 -0.1620 -0.2757
H29B H 1.0389 -0.3432 -0.2511
H30B H 0.9256 -0.3354 -0.2981
loop_
_geom_bond_atom_site_label_1
_geom_bond_atom_site_label_2
_geom_bond_site_symmetry_1
_geom_bond_site_symmetry_2
F1 C1 1_555 1_555
C1 C2 1_555 1_555
C2 C4 1_555 1_555
C3 C1 1_555 1_555
C4 C5 1_555 1_555
C5 C6 1_555 1_555
C6 C7 1_555 1_555
C7 H1 1_555 1_555
C8 C7 1_555 1_555
H2 C8 1_555 1_555
C9 C8 1_555 1_555
C10 C9 1_555 1_555
H3 C10 1_555 1_555
C11 C6 1_555 1_555
H4 C11 1_555 1_555
C12 C9 1_555 1_555
H5 C12 1_555 1_555
H6 C12 1_555 1_555
C13 C12 1_555 1_555
H7 C13 1_555 1_555
H8 C13 1_555 1_555
C14 C13 1_555 1_555
H9 C14 1_555 1_555
H10 C14 1_555 1_555
C15 C14 1_555 1_555
H11 C15 1_555 1_555
H12 C15 1_555 1_555
C16 C15 1_555 1_555
H13 C16 1_555 1_555
H14 C16 1_555 1_555
H15 C16 1_555 1_555
C17 C3 1_555 1_555
C18 C17 1_555 1_555
C19 C18 1_555 1_555
C20 C19 1_555 1_555
H16 C20 1_555 1_555
C21 C20 1_555 1_555
H17 C21 1_555 1_555
C22 C21 1_555 1_555
C23 C22 1_555 1_555
H18 C23 1_555 1_555
C24 C19 1_555 1_555
H19 C24 1_555 1_555
C25 C22 1_555 1_555
H20 C25 1_555 1_555
H21 C25 1_555 1_555
C26 C25 1_555 1_555
H22 C26 1_555 1_555
H23 C26 1_555 1_555
C27 C26 1_555 1_555
H24 C27 1_555 1_555
H25 C27 1_555 1_555
C28 C27 1_555 1_555
H26 C28 1_555 1_555
H27 C28 1_555 1_555
C29 C28 1_555 1_555
H28 C29 1_555 1_555
H29 C29 1_555 1_555
H30 C29 1_555 1_555
F1B C1B 1_555 1_555
C1B C2B 1_555 1_555
C2B C3 1_555 1_555
C3B C2 1_555 1_555
C4B C2B 1_555 1_555
C5B C4B 1_555 1_555
C6B C5B 1_555 1_555
C7B C6B 1_555 1_555
H1B C7B 1_555 1_555
C8B C7B 1_555 1_555
H2B C8B 1_555 1_555
C9B C8B 1_555 1_555
C10B C9B 1_555 1_555
H3B C10B 1_555 1_555
C11B C6B 1_555 1_555
H4B C11B 1_555 1_555
C12B C9B 1_555 1_555
H5B C12B 1_555 1_555
H6B C12B 1_555 1_555
C13B C12B 1_555 1_555
H7B C13B 1_555 1_555
H8B C13B 1_555 1_555
C14B C13B 1_555 1_555
H9B C14B 1_555 1_555
H10B C14B 1_555 1_555
C15B C14B 1_555 1_555
H11B C15B 1_555 1_555
H12B C15B 1_555 1_555
C16B C15B 1_555 1_555
H13B C16B 1_555 1_555
H14B C16B 1_555 1_555
H15B C16B 1_555 1_555
C17B C3B 1_555 1_555
C18B C17B 1_555 1_555
C19B C18B 1_555 1_555
C20B C19B 1_555 1_555
H16B C20B 1_555 1_555
C21B C20B 1_555 1_555
H17B C21B 1_555 1_555
C22B C21B 1_555 1_555
C23B C22B 1_555 1_555
H18B C23B 1_555 1_555
C24B C19B 1_555 1_555
H19B C24B 1_555 1_555
C25B C22B 1_555 1_555
H20B C25B 1_555 1_555
H21B C25B 1_555 1_555
C26B C25B 1_555 1_555
H22B C26B 1_555 1_555
H23B C26B 1_555 1_555
C27B C26B 1_555 1_555
H24B C27B 1_555 1_555
H25B C27B 1_555 1_555
C28B C27B 1_555 1_555
H26B C28B 1_555 1_555
H27B C28B 1_555 1_555
C29B C28B 1_555 1_555
H28B C29B 1_555 1_555
H29B C29B 1_555 1_555
H30B C29B 1_555 1_555
C10 C11 1_555 1_555
C23 C24 1_555 1_555
C1B C3B 1_555 1_555
C10B C11B 1_555 1_555
C23B C24B 1_555 1_555

#END
