
#######################################################################
#
#                 Cambridge Crystallographic Data Centre
#                                CCDC 
#
#######################################################################
#
# If this CIF has been generated from an entry in the Cambridge 
# Structural Database, then it will include bibliographic, chemical, 
# crystal, experimental, refinement or atomic coordinate data resulting 
# from the CCDC's data processing and validation procedures.
#
#######################################################################

data_PERLAC
_chemical_formula_moiety         'C26 H18 N4,4(C6 F4 I2)'
_chemical_name_systematic        
"1,2,3,4-tetrafluoro-5,6-diiodobenzene 3,3',3'',3'''-benzene-1,2,4,5-tetrayltetrapyridine solvate"
_symmetry_cell_setting           triclinic
_symmetry_space_group_name_H-M   'P -1'
_symmetry_Int_Tables_number      2
_space_group_name_Hall           '-P 1'
loop_
_symmetry_equiv_pos_site_id
_symmetry_equiv_pos_as_xyz
1 x,y,z
2 -x,-y,-z
_cell_length_a                   8.696(4)
_cell_length_b                   12.747(5)
_cell_length_c                   14.654(9)
_cell_angle_alpha                110.273(6)
_cell_angle_beta                 96.116(6)
_cell_angle_gamma                104.398(4)
_cell_volume                     1442.31
_exptl_crystal_colour            colorless
_exptl_crystal_description       block
_cell_formula_units_Z            1
loop_
_atom_site_label
_atom_site_type_symbol
_atom_site_fract_x
_atom_site_fract_y
_atom_site_fract_z
F1 F 0.5448(6) 0.0311(4) 0.4118(4)
F2 F 0.8279(5) 0.1969(6) 0.4708(4)
F3 F 0.8525(6) 0.4119(5) 0.4674(4)
F4 F 0.5881(6) 0.4626(4) 0.4081(4)
I1 I 0.22127(7) 0.31944(4) 0.33331(4)
I2 I 0.18398(5) 0.02598(3) 0.34081(3)
C1 C 0.5709(9) 0.3554(6) 0.4091(5)
C2 C 0.4181(7) 0.2725(5) 0.3793(4)
C3 C 0.4047(7) 0.1616(5) 0.3810(4)
C4 C 0.5439(8) 0.1384(7) 0.4117(5)
C5 C 0.6935(8) 0.2222(8) 0.4410(6)
C6 C 0.7075(9) 0.3287(8) 0.4391(6)
F5 F 0.1398(6) -0.0781(5) 0.0654(4)
F6 F 0.4150(7) -0.1170(4) 0.1222(4)
F7 F 0.4203(5) 0.2961(4) 0.1015(4)
F8 F 0.1476(6) 0.1326(6) 0.0573(4)
I3 I 0.79206(5) 0.32094(4) 0.17755(4)
I4 I 0.77845(7) 0.03852(5) 0.19586(4)
C7 C 0.2869(9) 0.1129(8) 0.0860(6)
C8 C 0.2814(9) 0.0089(8) 0.0899(5)
C9 C 0.4238(10) -0.0114(6) 0.1205(5)
C10 C 0.5730(8) 0.0747(6) 0.1461(5)
C11 C 0.5770(7) 0.1817(6) 0.1413(5)
C12 C 0.4317(8) 0.1996(7) 0.1111(6)
N1 N 0.0859(7) 0.5039(5) 0.2189(4)
N2 N 0.8952(6) 0.8318(4) 0.3011(4)
C13 C 0.5834(6) 0.5749(5) 0.0979(4)
C14 C 0.6823(7) 0.6543(5) 0.2001(4)
C15 C 0.8021(7) 0.7546(5) 0.2124(4)
H1 H 0.8197 0.7699 0.1562
C16 C 0.8701(8) 0.8078(6) 0.3804(5)
H2 H 0.9327 0.8608 0.4424
C17 C 0.7558(8) 0.7081(6) 0.3753(5)
H3 H 0.7436 0.6934 0.4325
C18 C 0.6597(7) 0.6302(5) 0.2837(5)
H4 H 0.5809 0.5626 0.2784
C19 C 0.4128(7) 0.5356(5) 0.0754(4)
C20 C 0.3118(6) 0.5692(5) 0.1507(4)
C21 C 0.3386(8) 0.6832(5) 0.2154(5)
H5 H 0.4227 0.7443 0.2148
C22 C 0.2360(9) 0.7042(6) 0.2817(6)
H6 H 0.2509 0.7804 0.3263
C23 C 0.1140(9) 0.6135(6) 0.2815(5)
H7 H 0.0478 0.6292 0.3271
C24 C 0.1841(7) 0.4826(5) 0.1549(5)
H8 H 0.1655 0.4056 0.1110
C25 C 0.6655(7) 0.5377(4) 0.0224(4)
H9 H 0.7784 0.5631 0.0379
N1A N 0.9141(7) 0.4961(5) -0.2189(4)
N2A N 0.1048(6) 0.1682(4) -0.3011(4)
C13A C 0.4166(6) 0.4251(5) -0.0979(4)
C14A C 0.3177(7) 0.3457(5) -0.2001(4)
C15A C 0.1979(7) 0.2454(5) -0.2124(4)
H1A H 0.1803 0.2301 -0.1562
C16A C 0.1299(8) 0.1922(6) -0.3804(5)
H2A H 0.0673 0.1392 -0.4424
C17A C 0.2442(8) 0.2919(6) -0.3753(5)
H3A H 0.2564 0.3066 -0.4325
C18A C 0.3403(7) 0.3698(5) -0.2837(5)
H4A H 0.4191 0.4374 -0.2784
C19A C 0.5872(7) 0.4644(5) -0.0754(4)
C20A C 0.6882(6) 0.4308(5) -0.1507(4)
C21A C 0.6614(8) 0.3168(5) -0.2154(5)
H5A H 0.5773 0.2557 -0.2148
C22A C 0.7640(9) 0.2958(6) -0.2817(6)
H6A H 0.7491 0.2196 -0.3263
C23A C 0.8860(9) 0.3865(6) -0.2815(5)
H7A H 0.9522 0.3708 -0.3271
C24A C 0.8159(7) 0.5174(5) -0.1549(5)
H8A H 0.8345 0.5944 -0.1110
C25A C 0.3345(7) 0.4623(4) -0.0224(4)
H9A H 0.2216 0.4369 -0.0379
loop_
_geom_bond_atom_site_label_1
_geom_bond_atom_site_label_2
_geom_bond_site_symmetry_1
_geom_bond_site_symmetry_2
F1 C4 1_555 1_555
F2 C5 1_555 1_555
F3 C6 1_555 1_555
F4 C1 1_555 1_555
I1 C2 1_555 1_555
I2 C3 1_555 1_555
C1 C2 1_555 1_555
C2 C3 1_555 1_555
C3 C4 1_555 1_555
C4 C5 1_555 1_555
C5 C6 1_555 1_555
C6 C1 1_555 1_555
F5 C8 1_555 1_555
F6 C9 1_555 1_555
F7 C12 1_555 1_555
F8 C7 1_555 1_555
I3 C11 1_555 1_555
I4 C10 1_555 1_555
C7 C8 1_555 1_555
C8 C9 1_555 1_555
C9 C10 1_555 1_555
C10 C11 1_555 1_555
C11 C12 1_555 1_555
C12 C7 1_555 1_555
N1 C23 1_555 1_555
N2 C15 1_555 1_555
C13 C14 1_555 1_555
C14 C15 1_555 1_555
C15 H1 1_555 1_555
C16 N2 1_555 1_555
H2 C16 1_555 1_555
C17 C16 1_555 1_555
H3 C17 1_555 1_555
C18 C14 1_555 1_555
H4 C18 1_555 1_555
C19 C13 1_555 1_555
C20 C19 1_555 1_555
C21 C20 1_555 1_555
H5 C21 1_555 1_555
C22 C21 1_555 1_555
H6 C22 1_555 1_555
C23 C22 1_555 1_555
H7 C23 1_555 1_555
C24 N1 1_555 1_555
H8 C24 1_555 1_555
C25 C13 1_555 1_555
H9 C25 1_555 1_555
N1A C23A 1_555 1_555
N2A C15A 1_555 1_555
C13A C14A 1_555 1_555
C14A C15A 1_555 1_555
C15A H1A 1_555 1_555
C16A N2A 1_555 1_555
H2A C16A 1_555 1_555
C17A C16A 1_555 1_555
H3A C17A 1_555 1_555
C18A C14A 1_555 1_555
H4A C18A 1_555 1_555
C19A C25 1_555 1_555
C20A C19A 1_555 1_555
C21A C20A 1_555 1_555
H5A C21A 1_555 1_555
C22A C21A 1_555 1_555
H6A C22A 1_555 1_555
C23A C22A 1_555 1_555
H7A C23A 1_555 1_555
C24A N1A 1_555 1_555
H8A C24A 1_555 1_555
C25A C19 1_555 1_555
H9A C25A 1_555 1_555
C17 C18 1_555 1_555
C20 C24 1_555 1_555
C13A C19A 1_555 1_555
C13A C25A 1_555 1_555
C17A C18A 1_555 1_555
C20A C24A 1_555 1_555

#END
