
#######################################################################
#
#                 Cambridge Crystallographic Data Centre
#                                CCDC 
#
#######################################################################
#
# If this CIF has been generated from an entry in the Cambridge 
# Structural Database, then it will include bibliographic, chemical, 
# crystal, experimental, refinement or atomic coordinate data resulting 
# from the CCDC's data processing and validation procedures.
#
#######################################################################

data_PERLAA
_chemical_formula_moiety         'C7 H13 N3'
_chemical_name_systematic        1,6,8-triazabicyclo[5.3.0]dec-7-ene
_symmetry_cell_setting           triclinic
_symmetry_space_group_name_H-M   'P -1'
_symmetry_Int_Tables_number      2
_space_group_name_Hall           '-P 1'
loop_
_symmetry_equiv_pos_site_id
_symmetry_equiv_pos_as_xyz
1 x,y,z
2 -x,-y,-z
_cell_length_a                   5.937(3)
_cell_length_b                   8.520(5)
_cell_length_c                   8.671(5)
_cell_angle_alpha                67.410(9)
_cell_angle_beta                 73.543(10)
_cell_angle_gamma                71.570(9)
_cell_volume                     377.57
_exptl_crystal_colour            colorless
_exptl_crystal_description       plate
_cell_formula_units_Z            2
loop_
_atom_site_label
_atom_site_type_symbol
_atom_site_fract_x
_atom_site_fract_y
_atom_site_fract_z
N1 N 0.4769(2) 0.91856(18) 0.80105(17)
N2 N 0.7000(3) 1.12330(18) 0.59852(19)
H1 H 0.7611 1.1561 0.4905
C1 C 0.6810(3) 0.9553(2) 0.6792(2)
C2 C 0.2391(3) 1.0409(2) 0.7858(2)
H2 H 0.1132 0.9781 0.8562
H3 H 0.2180 1.0817 0.6675
N3 N 0.8449(3) 0.82256(19) 0.6502(2)
C3 C 0.6201(3) 1.2500(2) 0.6892(3)
H4 H 0.7043 1.3447 0.6264
H5 H 0.6674 1.1926 0.8010
C4 C 0.2049(3) 1.1976(2) 0.8387(2)
H6 H 0.2517 1.1570 0.9498
H7 H 0.0332 1.2568 0.8516
C5 C 0.4861(4) 0.7366(2) 0.8266(3)
H8 H 0.3814 0.7296 0.7612
H9 H 0.4389 0.6724 0.9470
C6 C 0.7534(4) 0.6669(2) 0.7599(3)
H10 H 0.8415 0.6010 0.8541
H11 H 0.7704 0.5902 0.6951
C7 C 0.3497(3) 1.3287(2) 0.7140(3)
H12 H 0.3152 1.4274 0.7555
H13 H 0.2981 1.3738 0.6040
loop_
_geom_bond_atom_site_label_1
_geom_bond_atom_site_label_2
_geom_bond_site_symmetry_1
_geom_bond_site_symmetry_2
N1 C1 1_555 1_555
N2 H1 1_555 1_555
C1 N2 1_555 1_555
C2 N1 1_555 1_555
H2 C2 1_555 1_555
H3 C2 1_555 1_555
N3 C1 1_555 1_555
C3 N2 1_555 1_555
H4 C3 1_555 1_555
H5 C3 1_555 1_555
C4 C2 1_555 1_555
H6 C4 1_555 1_555
H7 C4 1_555 1_555
C5 N1 1_555 1_555
H8 C5 1_555 1_555
H9 C5 1_555 1_555
C6 N3 1_555 1_555
H10 C6 1_555 1_555
H11 C6 1_555 1_555
C7 C3 1_555 1_555
H12 C7 1_555 1_555
H13 C7 1_555 1_555
C4 C7 1_555 1_555
C5 C6 1_555 1_555

#END
