
#######################################################################
#
#                 Cambridge Crystallographic Data Centre
#                                CCDC 
#
#######################################################################
#
# If this CIF has been generated from an entry in the Cambridge 
# Structural Database, then it will include bibliographic, chemical, 
# crystal, experimental, refinement or atomic coordinate data resulting 
# from the CCDC's data processing and validation procedures.
#
#######################################################################

data_PERLIK
_chemical_formula_moiety         'C26 H18 N4,2(C6 F4 I2),C1 H1 Cl3'
_chemical_name_systematic        
"3,3',3'',3'''-(benzene-1,2,4,5-tetrayl)tetrapyridine 1,2,4,5-tetrafluoro-3,6-diiodobenzene chloroform solvate"
_symmetry_cell_setting           triclinic
_symmetry_space_group_name_H-M   'P -1'
_symmetry_Int_Tables_number      2
_space_group_name_Hall           '-P 1'
loop_
_symmetry_equiv_pos_site_id
_symmetry_equiv_pos_as_xyz
1 x,y,z
2 -x,-y,-z
_cell_length_a                   6.0336(11)
_cell_length_b                   12.894(2)
_cell_length_c                   14.628(3)
_cell_angle_alpha                103.550(2)
_cell_angle_beta                 97.767(2)
_cell_angle_gamma                98.399(2)
_cell_volume                     1077.37
_exptl_crystal_colour            colorless
_exptl_crystal_description       block
_cell_formula_units_Z            1
loop_
_atom_site_label
_atom_site_type_symbol
_atom_site_fract_x
_atom_site_fract_y
_atom_site_fract_z
C14 C 0.4212(5) 0.3989(2) 0.0863(2)
C15 C 0.4409(5) 0.5040(3) 0.1412(2)
C16 C 0.6197(5) 0.5499(2) 0.2155(2)
C17 C 0.7857(5) 0.4940(2) 0.2398(2)
C18 C 0.7669(5) 0.3891(3) 0.1846(2)
C19 C 0.5895(5) 0.3431(2) 0.1096(2)
F1 F 0.2856(4) 0.56367(18) 0.12164(18)
F2 F 0.6308(4) 0.65375(16) 0.26531(17)
F3 F 0.9230(4) 0.32917(19) 0.20373(18)
F4 F 0.5823(4) 0.24092(17) 0.05849(17)
I1 I 0.14620(3) 0.325829(17) -0.025464(14)
I2 I 1.05830(3) 0.564035(17) 0.354119(15)
C1 C 0.5586(5) 0.7562(2) 0.4881(2)
H1 H 0.5277 0.7700 0.4285
C2 C 0.7329(5) 0.8261(2) 0.5555(2)
C3 C 0.7773(6) 0.8041(3) 0.6439(2)
H2 H 0.8919 0.8491 0.6916
C4 C 0.6481(6) 0.7138(3) 0.6599(3)
H3 H 0.6758 0.6969 0.7184
C5 C 0.4799(7) 0.6502(3) 0.5884(3)
H4 H 0.3943 0.5900 0.5998
C6 C 0.8681(5) 0.9185(2) 0.52959(19)
C7 C 0.9829(5) 0.8933(2) 0.45349(19)
H5 H 0.9706 0.8207 0.4218
C8 C 1.1162(5) 0.9716(2) 0.42209(19)
C9 C 1.1177(5) 0.8527(2) 0.2611(2)
H6 H 0.9671 0.8239 0.2612
C10 C 1.2337(5) 0.9349(2) 0.34040(19)
C11 C 1.4598(5) 0.9767(3) 0.3386(2)
H7 H 1.5456 1.0311 0.3898
C12 C 1.5538(6) 0.9365(3) 0.2605(2)
H8 H 1.7036 0.9639 0.2580
C13 C 1.4242(6) 0.8548(3) 0.1854(3)
H9 H 1.4902 0.8282 0.1328
N1 N 0.4318(5) 0.6697(2) 0.5036(2)
N2 N 1.2085(5) 0.8126(2) 0.18513(19)
C1A C 1.4414(5) 1.2438(2) 0.5119(2)
H1A H 1.4723 1.2300 0.5715
C2A C 1.2671(5) 1.1739(2) 0.4445(2)
C3A C 1.2227(6) 1.1959(3) 0.3561(2)
H2A H 1.1081 1.1509 0.3084
C4A C 1.3519(6) 1.2862(3) 0.3401(3)
H3A H 1.3242 1.3031 0.2816
C5A C 1.5201(7) 1.3498(3) 0.4116(3)
H4A H 1.6057 1.4100 0.4002
C6A C 1.1319(5) 1.0815(2) 0.47041(19)
C7A C 1.0171(5) 1.1067(2) 0.54651(19)
H5A H 1.0294 1.1793 0.5782
C8A C 0.8838(5) 1.0284(2) 0.57791(19)
C9A C 0.8823(5) 1.1473(2) 0.7389(2)
H6A H 1.0329 1.1761 0.7388
C10A C 0.7663(5) 1.0651(2) 0.65960(19)
C11A C 0.5402(5) 1.0233(3) 0.6614(2)
H7A H 0.4544 0.9689 0.6102
C12A C 0.4462(6) 1.0635(3) 0.7395(2)
H8A H 0.2964 1.0361 0.7420
C13A C 0.5758(6) 1.1452(3) 0.8146(3)
H9A H 0.5098 1.1718 0.8672
N1A N 1.5682(5) 1.3303(2) 0.4964(2)
N2A N 0.7915(5) 1.1874(2) 0.81487(19)
Cl1? Cl 0.8186(14) 0.9382(4) 0.8957(3)
Cl2? Cl 1.2593(9) 1.0004(6) 0.9897(9)
Cl3? Cl 0.9064(18) 1.0372(6) 1.0871(4)
C20? C 0.9953(11) 0.9689(7) 0.9962(5)
H10? H 0.9880(16) 0.8981(11) 1.0098(7)
loop_
_geom_bond_atom_site_label_1
_geom_bond_atom_site_label_2
_geom_bond_site_symmetry_1
_geom_bond_site_symmetry_2
C1 H1 1_555 1_555
C2 C1 1_555 1_555
C3 C2 1_555 1_555
H2 C3 1_555 1_555
C4 C3 1_555 1_555
H3 C4 1_555 1_555
C5 C4 1_555 1_555
H4 C5 1_555 1_555
C6 C2 1_555 1_555
C7 C6 1_555 1_555
H5 C7 1_555 1_555
C8 C7 1_555 1_555
C9 H6 1_555 1_555
C10 C8 1_555 1_555
C11 C10 1_555 1_555
H7 C11 1_555 1_555
C12 C11 1_555 1_555
H8 C12 1_555 1_555
C13 C12 1_555 1_555
H9 C13 1_555 1_555
N1 C1 1_555 1_555
N2 C9 1_555 1_555
C14 C15 1_555 1_555
C15 C16 1_555 1_555
C16 C17 1_555 1_555
C17 C18 1_555 1_555
C18 C19 1_555 1_555
C19 C14 1_555 1_555
F1 C15 1_555 1_555
F2 C16 1_555 1_555
F3 C18 1_555 1_555
F4 C19 1_555 1_555
I1 C14 1_555 1_555
I2 C17 1_555 1_555
C1A H1A 1_555 1_555
C2A C1A 1_555 1_555
C3A C2A 1_555 1_555
H2A C3A 1_555 1_555
C4A C3A 1_555 1_555
H3A C4A 1_555 1_555
C5A C4A 1_555 1_555
H4A C5A 1_555 1_555
C6A C8 1_555 1_555
C7A C6A 1_555 1_555
H5A C7A 1_555 1_555
C8A C6 1_555 1_555
C9A H6A 1_555 1_555
C10A C8A 1_555 1_555
C11A C10A 1_555 1_555
H7A C11A 1_555 1_555
C12A C11A 1_555 1_555
H8A C12A 1_555 1_555
C13A C12A 1_555 1_555
H9A C13A 1_555 1_555
N1A C1A 1_555 1_555
N2A C9A 1_555 1_555
C5 N1 1_555 1_555
C9 C10 1_555 1_555
C13 N2 1_555 1_555
C2A C6A 1_555 1_555
C5A N1A 1_555 1_555
C7A C8A 1_555 1_555
C9A C10A 1_555 1_555
C13A N2A 1_555 1_555

#END
