
#######################################################################
#
#                 Cambridge Crystallographic Data Centre
#                                CCDC 
#
#######################################################################
#
# If this CIF has been generated from an entry in the Cambridge 
# Structural Database, then it will include bibliographic, chemical, 
# crystal, experimental, refinement or atomic coordinate data resulting 
# from the CCDC's data processing and validation procedures.
#
#######################################################################

data_PERLEG
_chemical_formula_moiety         'C26 H18 N4,4(C6 F4 I2)'
_chemical_name_systematic        
"1,2,3,4-tetrafluoro-5,6-diiodobenzene 4,4',4'',4'''-benzene-1,2,4,5-tetrayltetrapyridine solvate"
_symmetry_cell_setting           triclinic
_symmetry_space_group_name_H-M   'P -1'
_symmetry_Int_Tables_number      2
_space_group_name_Hall           '-P 1'
loop_
_symmetry_equiv_pos_site_id
_symmetry_equiv_pos_as_xyz
1 x,y,z
2 -x,-y,-z
_cell_length_a                   12.0857(11)
_cell_length_b                   12.318(2)
_cell_length_c                   12.5718(12)
_cell_angle_alpha                96.3350(10)
_cell_angle_beta                 117.5290(10)
_cell_angle_gamma                112.1210(10)
_cell_volume                     1442.44
_exptl_crystal_colour            colorless
_exptl_crystal_description       block
_cell_formula_units_Z            1
loop_
_atom_site_label
_atom_site_type_symbol
_atom_site_fract_x
_atom_site_fract_y
_atom_site_fract_z
F1 F 0.4622(14) 0.6297(16) 1.0491(17)
F2 F 0.2535(17) 0.633(2) 0.845(2)
F3 F -0.0188(16) 0.4873(19) 0.7650(17)
F4 F -0.0853(14) 0.3325(18) 0.8823(17)
I1 I 0.4675(11) 0.4691(13) 1.2335(11)
I2 I 0.0859(6) 0.2629(4) 1.1120(5)
C1 C 0.1553(9) 0.4029(19) 1.0276(17)
C2 C 0.2913(11) 0.4715(18) 1.0651(19)
C3 C 0.3244(14) 0.550(2) 1.0063(19)
C4 C 0.2216(11) 0.560(2) 0.910(2)
C5 C 0.0856(13) 0.492(2) 0.872(2)
C6 C 0.0524(14) 0.413(2) 0.9313(18)
C13 C 0.6532(16) 1.0814(13) 0.9661(13)
H1 H 0.6576 1.1406 1.0230
C14 C 0.6003(14) 1.0819(12) 0.8426(12)
H2 H 0.5695 1.1387 0.8173
C15 C 0.5947(12) 0.9941(11) 0.7565(11)
C16 C 0.6411(15) 0.9144(12) 0.8020(12)
H3 H 0.6384 0.8536 0.7485
C17 C 0.6921(18) 0.9242(15) 0.9277(13)
H4 H 0.7253 0.8700 0.9573
C18 C 0.5415(12) 0.9948(11) 0.6245(11)
C19 C 0.4456(12) 0.8841(11) 0.5152(11)
C20 C 0.4071(13) 0.8942(11) 0.3953(11)
H5 H 0.3425 0.8214 0.3241
C21 C 0.2390(15) 0.6182(14) 0.5836(14)
H6 H 0.1949 0.6065 0.6286
C22 C 0.3014(15) 0.7344(12) 0.5817(12)
H7 H 0.2935 0.7979 0.6198
C23 C 0.3771(13) 0.7596(10) 0.5233(11)
C24 C 0.3753(15) 0.6568(12) 0.4619(13)
H8 H 0.4210 0.6665 0.4182
C25 C 0.3060(17) 0.5412(12) 0.4660(14)
H9 H 0.3073 0.4742 0.4255
N1 N 0.6966(14) 1.0060(12) 1.0087(11)
N2 N 0.2365(13) 0.5206(10) 0.5260(11)
C13A C 0.3468(16) 0.9186(13) 0.0339(13)
H1A H 0.3424 0.8594 -0.0230
C14A C 0.3997(14) 0.9181(12) 0.1574(12)
H2A H 0.4305 0.8613 0.1827
C15A C 0.4053(12) 1.0059(11) 0.2435(11)
C16A C 0.3589(15) 1.0856(12) 0.1980(12)
H3A H 0.3616 1.1464 0.2515
C17A C 0.3079(18) 1.0758(15) 0.0723(13)
H4A H 0.2747 1.1300 0.0427
C18A C 0.4585(12) 1.0052(11) 0.3755(11)
C19A C 0.5544(12) 1.1159(11) 0.4848(11)
C20A C 0.5929(13) 1.1058(11) 0.6047(11)
H5A H 0.6575 1.1786 0.6759
C21A C 0.7610(15) 1.3818(14) 0.4164(14)
H6A H 0.8051 1.3935 0.3714
C22A C 0.6986(15) 1.2656(12) 0.4183(12)
H7A H 0.7065 1.2021 0.3802
C23A C 0.6229(13) 1.2404(10) 0.4767(11)
C24A C 0.6247(15) 1.3432(12) 0.5381(13)
H8A H 0.5790 1.3335 0.5818
C25A C 0.6940(17) 1.4588(12) 0.5340(14)
H9A H 0.6927 1.5258 0.5745
N1A N 0.3034(14) 0.9940(12) -0.0087(11)
N2A N 0.7635(13) 1.4794(10) 0.4740(11)
C26 C 0.8353(13) 0.0223(11) 0.4492(12)
C27 C 0.7578(13) -0.0815(12) 0.4654(12)
C28 C 0.7928(15) -0.0875(13) 0.5852(14)
C29 C 0.9068(16) 0.0128(14) 0.6910(14)
C30 C 0.9848(15) 0.1210(14) 0.6764(13)
C31 C 0.9520(13) 0.1274(11) 0.5578(12)
F9 F 0.6443(9) -0.1848(7) 0.3655(8)
F10 F 0.7222(10) -0.1926(9) 0.5994(9)
F11 F 0.9466(12) 0.0098(11) 0.8086(9)
F12 F 1.0947(10) 0.2171(9) 0.7829(8)
I5 I 0.77702(9) 0.01427(8) 0.26134(8)
I6 I 1.07858(9) 0.29197(7) 0.54744(9)
F5? F 0.5220(12) 0.642(3) 1.074(3)
F6? F 0.366(2) 0.693(2) 0.868(2)
F7? F 0.076(2) 0.574(2) 0.741(2)
F8? F -0.0587(14) 0.405(2) 0.820(2)
I3? I 0.450(2) 0.454(3) 1.233(2)
I4? I 0.0423(12) 0.2874(9) 1.0550(10)
C7? C 0.1631(11) 0.4362(14) 0.9880(14)
C8? C 0.3110(11) 0.4966(17) 1.0527(17)
C9? C 0.3796(12) 0.5832(19) 1.012(2)
C10? C 0.3002(15) 0.6095(19) 0.907(2)
C11? C 0.1523(15) 0.5491(18) 0.8421(18)
C12? C 0.0837(11) 0.4624(16) 0.8827(16)
loop_
_geom_bond_atom_site_label_1
_geom_bond_atom_site_label_2
_geom_bond_site_symmetry_1
_geom_bond_site_symmetry_2
F1 C3 1_555 1_555
F2 C4 1_555 1_555
F3 C5 1_555 1_555
F4 C6 1_555 1_555
I1 C2 1_555 1_555
I2 C1 1_555 1_555
C1 C2 1_555 1_555
C2 C3 1_555 1_555
C3 C4 1_555 1_555
C4 C5 1_555 1_555
C5 C6 1_555 1_555
C6 C1 1_555 1_555
C13 H1 1_555 1_555
C14 C13 1_555 1_555
H2 C14 1_555 1_555
C15 C14 1_555 1_555
C16 C15 1_555 1_555
H3 C16 1_555 1_555
C17 C16 1_555 1_555
H4 C17 1_555 1_555
C18 C15 1_555 1_555
C19 C18 1_555 1_555
C20 C19 1_555 1_555
H5 C20 1_555 1_555
C21 H6 1_555 1_555
C22 C21 1_555 1_555
H7 C22 1_555 1_555
C23 C19 1_555 1_555
C24 C23 1_555 1_555
H8 C24 1_555 1_555
C25 C24 1_555 1_555
H9 C25 1_555 1_555
N1 C13 1_555 1_555
N2 C21 1_555 1_555
C26 C27 1_555 1_555
C27 C28 1_555 1_555
C28 C29 1_555 1_555
C29 C30 1_555 1_555
C30 C31 1_555 1_555
C31 C26 1_555 1_555
F9 C27 1_555 1_555
F10 C28 1_555 1_555
F11 C29 1_555 1_555
F12 C30 1_555 1_555
I5 C26 1_555 1_555
I6 C31 1_555 1_555
C13A H1A 1_555 1_555
C14A C13A 1_555 1_555
H2A C14A 1_555 1_555
C15A C14A 1_555 1_555
C16A C15A 1_555 1_555
H3A C16A 1_555 1_555
C17A C16A 1_555 1_555
H4A C17A 1_555 1_555
C18A C20 1_555 1_555
C19A C18A 1_555 1_555
C20A C18 1_555 1_555
H5A C20A 1_555 1_555
C21A H6A 1_555 1_555
C22A C21A 1_555 1_555
H7A C22A 1_555 1_555
C23A C19A 1_555 1_555
C24A C23A 1_555 1_555
H8A C24A 1_555 1_555
C25A C24A 1_555 1_555
H9A C25A 1_555 1_555
N1A C13A 1_555 1_555
N2A C21A 1_555 1_555
C17 N1 1_555 1_555
C22 C23 1_555 1_555
C25 N2 1_555 1_555
C15A C18A 1_555 1_555
C17A N1A 1_555 1_555
C19A C20A 1_555 1_555
C22A C23A 1_555 1_555
C25A N2A 1_555 1_555

#END
