
#######################################################################
#
#                 Cambridge Crystallographic Data Centre
#                                CCDC 
#
#######################################################################
#
# If this CIF has been generated from an entry in the Cambridge 
# Structural Database, then it will include bibliographic, chemical, 
# crystal, experimental, refinement or atomic coordinate data resulting 
# from the CCDC's data processing and validation procedures.
#
#######################################################################

data_PERPUA
_chemical_formula_moiety         'C19 H17 N1 O2 Si1'
_chemical_name_systematic        trimethyl((10-nitro-9-anthryl)ethynyl)silane
_symmetry_cell_setting           triclinic
_symmetry_space_group_name_H-M   'P -1'
_symmetry_Int_Tables_number      2
_space_group_name_Hall           '-P 1'
loop_
_symmetry_equiv_pos_site_id
_symmetry_equiv_pos_as_xyz
1 x,y,z
2 -x,-y,-z
_cell_length_a                   7.0157(4)
_cell_length_b                   10.2203(5)
_cell_length_c                   12.3017(6)
_cell_angle_alpha                75.910(4)
_cell_angle_beta                 87.015(4)
_cell_angle_gamma                85.358(4)
_cell_volume                     852.242
_exptl_crystal_colour            yellow
_exptl_crystal_description       needle
_cell_formula_units_Z            2
loop_
_atom_site_label
_atom_site_type_symbol
_atom_site_fract_x
_atom_site_fract_y
_atom_site_fract_z
Si1 Si 0.26735(10) 1.25290(7) 0.05055(5)
O1 O 0.0953(5) 0.6150(3) 0.7298(3)
O2 O 0.3899(7) 0.6499(5) 0.7508(4)
N1 N 0.2458(5) 0.6733(3) 0.7003(2)
C1 C 0.2503(4) 1.1397(3) 0.1916(2)
C2 C 0.2448(4) 1.0607(3) 0.2823(2)
C3 C 0.2420(3) 0.9641(3) 0.3881(2)
C4 C 0.2345(4) 0.8258(3) 0.3906(2)
C5 C 0.2263(4) 0.7800(3) 0.2908(2)
H1 H 0.2234 0.8427 0.2219
C6 C 0.2225(6) 0.6461(4) 0.2941(3)
H2 H 0.2180 0.6179 0.2279
C7 C 0.2256(6) 0.5495(3) 0.3988(3)
H3 H 0.2232 0.4582 0.4005
C8 C 0.2318(5) 0.5883(3) 0.4964(3)
H4 H 0.2338 0.5235 0.5642
C9 C 0.2354(4) 0.7280(3) 0.4960(2)
C10 C 0.2428(4) 0.7752(3) 0.5929(2)
C11 C 0.2514(4) 0.9106(3) 0.5941(2)
C12 C 0.2598(4) 0.9568(3) 0.6945(2)
H5 H 0.2583 0.8949 0.7639
C13 C 0.2700(4) 1.0913(4) 0.6891(3)
H6 H 0.2757 1.1202 0.7549
C14 C 0.2720(5) 1.1868(3) 0.5847(3)
H7 H 0.2804 1.2778 0.5824
C15 C 0.2616(4) 1.1469(3) 0.4865(2)
H8 H 0.2617 1.2110 0.4183
C16 C 0.2508(3) 1.0076(3) 0.4885(2)
C17 C 0.5064(6) 1.2131(4) -0.0132(3)
H9 H 0.5222 1.1182 -0.0105
H10 H 0.6055 1.2368 0.0280
H11 H 0.5143 1.2639 -0.0898
C18 C 0.0723(7) 1.2172(4) -0.0319(3)
H12 H 0.0868 1.1242 -0.0357
H13 H 0.0781 1.2745 -0.1063
H14 H -0.0491 1.2345 0.0036
C19 C 0.2473(5) 1.4332(3) 0.0587(2)
H15 H 0.1238 1.4543 0.0901
H16 H 0.2627 1.4906 -0.0151
H17 H 0.3450 1.4478 0.1055
loop_
_geom_bond_atom_site_label_1
_geom_bond_atom_site_label_2
_geom_bond_site_symmetry_1
_geom_bond_site_symmetry_2
Si1 C1 1_555 1_555
O1 N1 1_555 1_555
O2 N1 1_555 1_555
N1 C10 1_555 1_555
C1 C2 1_555 1_555
C2 C3 1_555 1_555
C3 C4 1_555 1_555
C4 C5 1_555 1_555
C5 H1 1_555 1_555
C6 C5 1_555 1_555
H2 C6 1_555 1_555
C7 C6 1_555 1_555
H3 C7 1_555 1_555
C8 C7 1_555 1_555
H4 C8 1_555 1_555
C9 C4 1_555 1_555
C10 C9 1_555 1_555
C11 C10 1_555 1_555
C12 C11 1_555 1_555
H5 C12 1_555 1_555
C13 C12 1_555 1_555
H6 C13 1_555 1_555
C14 C13 1_555 1_555
H7 C14 1_555 1_555
C15 C14 1_555 1_555
H8 C15 1_555 1_555
C16 C3 1_555 1_555
C17 Si1 1_555 1_555
H9 C17 1_555 1_555
H10 C17 1_555 1_555
H11 C17 1_555 1_555
C18 Si1 1_555 1_555
H12 C18 1_555 1_555
H13 C18 1_555 1_555
H14 C18 1_555 1_555
C19 Si1 1_555 1_555
H15 C19 1_555 1_555
H16 C19 1_555 1_555
H17 C19 1_555 1_555
C8 C9 1_555 1_555
C11 C16 1_555 1_555
C15 C16 1_555 1_555

#END
