
#######################################################################
#
#                 Cambridge Crystallographic Data Centre
#                                CCDC 
#
#######################################################################
#
# If this CIF has been generated from an entry in the Cambridge 
# Structural Database, then it will include bibliographic, chemical, 
# crystal, experimental, refinement or atomic coordinate data resulting 
# from the CCDC's data processing and validation procedures.
#
#######################################################################

data_PERQIP
_chemical_formula_moiety         'C13 H16 N2 O3'
_chemical_name_systematic        
3-t-butyl-6-methoxyquinazoline-2,4(1H,3H)-dione
_symmetry_cell_setting           monoclinic
_symmetry_space_group_name_H-M   'P 21/c'
_symmetry_Int_Tables_number      14
_space_group_name_Hall           '-P 2ybc'
loop_
_symmetry_equiv_pos_site_id
_symmetry_equiv_pos_as_xyz
1 x,y,z
2 -x,1/2+y,1/2-z
3 -x,-y,-z
4 x,1/2-y,1/2+z
_cell_length_a                   10.031(3)
_cell_length_b                   16.445(6)
_cell_length_c                   8.466(3)
_cell_angle_alpha                90
_cell_angle_beta                 114.798(5)
_cell_angle_gamma                90
_cell_volume                     1267.78
_exptl_crystal_colour            white
_exptl_crystal_description       block
_cell_formula_units_Z            4
loop_
_atom_site_label
_atom_site_type_symbol
_atom_site_fract_x
_atom_site_fract_y
_atom_site_fract_z
N1 N 0.73195(15) 0.07423(8) 0.62020(18)
N2 N 0.91589(16) -0.02174(9) 0.76373(18)
H1 H 0.9787 -0.0425 0.8592
C1 C 0.7827(2) -0.06004(11) 0.2957(2)
H2 H 0.7236 -0.0348 0.1914
C2 C 0.80431(17) -0.02428(10) 0.4552(2)
C3 C 0.89439(18) -0.06045(10) 0.6093(2)
C4 C 0.7286(2) 0.05182(10) 0.4576(2)
O1 O 0.87857(16) 0.08013(8) 0.91507(17)
O2 O 0.66484(17) 0.09166(8) 0.32699(18)
O3 O 0.83449(18) -0.17549(10) 0.15038(19)
C5 C 0.84532(19) 0.04595(11) 0.7743(2)
C6 C 0.8502(2) -0.13287(11) 0.2959(3)
C7 C 0.9658(2) -0.13326(11) 0.6086(3)
H3 H 1.0287 -0.1573 0.7127
C8 C 0.9422(2) -0.16872(12) 0.4534(3)
H4 H 0.9883 -0.2177 0.4526
C9 C 0.6306(2) 0.14018(10) 0.6358(2)
C10 C 0.5854(2) 0.11817(13) 0.7826(3)
H5 H 0.6714 0.1146 0.8906
H6 H 0.5355 0.0667 0.7576
H7 H 0.5211 0.1594 0.7914
C11 C 0.7118(2) 0.22103(11) 0.6687(3)
H8 H 0.7366 0.2331 0.5733
H9 H 0.8000 0.2177 0.7744
H10 H 0.6500 0.2633 0.6792
C12 C 0.4880(2) 0.14462(14) 0.4700(3)
H11 H 0.5098 0.1592 0.3736
H12 H 0.4244 0.1848 0.4841
H13 H 0.4402 0.0926 0.4482
C13 C 0.7384(3) -0.14414(16) -0.0123(3)
H14 H 0.7374 -0.1795 -0.1030
H15 H 0.7709 -0.0910 -0.0277
H16 H 0.6411 -0.1404 -0.0174
loop_
_geom_bond_atom_site_label_1
_geom_bond_atom_site_label_2
_geom_bond_site_symmetry_1
_geom_bond_site_symmetry_2
N1 C4 1_555 1_555
N2 H1 1_555 1_555
C1 H2 1_555 1_555
C2 C1 1_555 1_555
C3 N2 1_555 1_555
C4 C2 1_555 1_555
O1 C5 1_555 1_555
O2 C4 1_555 1_555
O3 C6 1_555 1_555
C5 N1 1_555 1_555
C6 C1 1_555 1_555
C7 C3 1_555 1_555
H3 C7 1_555 1_555
C8 C6 1_555 1_555
H4 C8 1_555 1_555
C9 N1 1_555 1_555
C10 C9 1_555 1_555
H5 C10 1_555 1_555
H6 C10 1_555 1_555
H7 C10 1_555 1_555
C11 C9 1_555 1_555
H8 C11 1_555 1_555
H9 C11 1_555 1_555
H10 C11 1_555 1_555
C12 C9 1_555 1_555
H11 C12 1_555 1_555
H12 C12 1_555 1_555
H13 C12 1_555 1_555
C13 O3 1_555 1_555
H14 C13 1_555 1_555
H15 C13 1_555 1_555
H16 C13 1_555 1_555
N2 C5 1_555 1_555
C2 C3 1_555 1_555
C7 C8 1_555 1_555

#END
