
#######################################################################
#
#                 Cambridge Crystallographic Data Centre
#                                CCDC 
#
#######################################################################
#
# If this CIF has been generated from an entry in the Cambridge 
# Structural Database, then it will include bibliographic, chemical, 
# crystal, experimental, refinement or atomic coordinate data resulting 
# from the CCDC's data processing and validation procedures.
#
#######################################################################

data_PERQAF
_chemical_compound_source        'Salvia przewalskii Maxim'
_chemical_name_common            'przewalskin B'
_chemical_formula_moiety         'C23 H26 O6'
_chemical_name_systematic        
4-acetyl-5-hydroxy-12,12-dimethyl-6-isopropyl-17-oxatetracyclo[7.6.2.0^1,11^.0^2,8^]heptadeca-2(8),4,6-triene-3,10,16-trione
_chemical_properties_biological  
'modest anti-HIV-1 activity; Salvia przewalskii Maxim is a traditional Chinese herb used for the treatment of various cardiovascular diseases'
_symmetry_cell_setting           orthorhombic
_symmetry_space_group_name_H-M   'P 21 21 21'
_symmetry_Int_Tables_number      19
_space_group_name_Hall           'P 2ac 2ab'
loop_
_symmetry_equiv_pos_site_id
_symmetry_equiv_pos_as_xyz
1 x,y,z
2 1/2-x,-y,1/2+z
3 -x,1/2+y,1/2-z
4 1/2+x,1/2-y,-z
_cell_length_a                   6.072(4)
_cell_length_b                   15.035(4)
_cell_length_c                   22.423(6)
_cell_angle_alpha                90
_cell_angle_beta                 90
_cell_angle_gamma                90
_cell_volume                     2047.05
_exptl_crystal_colour            grey
_exptl_crystal_description       prismatic
_chemical_melting_point          '202-204 deg.C'
_cell_formula_units_Z            4
_exptl_crystal_recrystallization_method methanol
loop_
_atom_site_label
_atom_site_type_symbol
_atom_site_fract_x
_atom_site_fract_y
_atom_site_fract_z
O1 O 0.0315(9) -0.1720(3) -0.0558(2)
O2 O -0.3792(6) -0.0648(2) 0.01826(18)
O3 O -0.4643(6) 0.0775(3) 0.02303(19)
O4 O 0.0443(6) 0.1065(2) 0.14422(17)
O5 O 0.6359(7) 0.0103(3) 0.2045(2)
O6 O 0.4649(8) -0.1328(4) 0.2062(3)
H1 H 0.554(12) -0.089(4) 0.208(4)
C1 C -0.0173(9) 0.1353(3) 0.0191(2)
H2 H -0.1042 0.1670 0.0485
H3 H 0.1367 0.1430 0.0293
C2 C -0.0589(11) 0.1757(3) -0.0417(3)
H4 H -0.2164 0.1777 -0.0488
H5 H -0.0048 0.2364 -0.0419
C3 C 0.0494(10) 0.1253(4) -0.0915(3)
H6 H 0.2078 0.1306 -0.0872
H7 H 0.0089 0.1528 -0.1291
C4 C -0.0107(9) 0.0263(3) -0.0941(2)
C5 C 0.0285(8) -0.0148(3) -0.0318(2)
H8 H 0.1882 -0.0131 -0.0256
C6 C -0.0356(9) -0.1112(3) -0.0259(2)
C7 C -0.1915(10) -0.1255(3) 0.0259(3)
H9 H -0.2399 -0.1876 0.0283
C8 C -0.0629(8) -0.0988(3) 0.0803(2)
C9 C -0.0026(8) -0.0135(3) 0.0784(2)
C10 C -0.0737(7) 0.0372(3) 0.0222(2)
C11 C 0.1029(8) 0.0317(3) 0.1301(2)
C12 C 0.2921(9) -0.1003(4) 0.1763(3)
C13 C 0.1144(9) -0.1656(4) 0.1716(2)
C14 C -0.0358(10) -0.1635(3) 0.1264(2)
H10 H -0.1346 -0.2108 0.1255
C15 C 0.1060(11) -0.2359(4) 0.2196(3)
H11 H 0.2562 -0.2574 0.2266
C16 C 0.0210(14) -0.1937(4) 0.2773(3)
H12 H -0.1285 -0.1746 0.2717
H13 H 0.1109 -0.1434 0.2873
H14 H 0.0271 -0.2366 0.3089
C17 C -0.0399(17) -0.3159(4) 0.2049(3)
H15 H -0.0305 -0.3587 0.2365
H16 H 0.0091 -0.3426 0.1683
H17 H -0.1898 -0.2967 0.2005
C18 C 0.1351(10) -0.0193(4) -0.1405(3)
H18 H 0.1222 0.0113 -0.1779
H19 H 0.0891 -0.0799 -0.1452
H20 H 0.2856 -0.0178 -0.1274
C19 C -0.2511(9) 0.0167(5) -0.1146(3)
H21 H -0.3441 0.0531 -0.0901
H22 H -0.2957 -0.0444 -0.1111
H23 H -0.2638 0.0353 -0.1554
C20 C -0.3244(8) 0.0213(3) 0.0209(2)
C21 C 0.2891(8) -0.0119(4) 0.1601(2)
C22 C 0.4793(10) 0.0443(4) 0.1776(3)
C23 C 0.4906(10) 0.1401(4) 0.1640(3)
H24 H 0.4065 0.1727 0.1930
H25 H 0.4313 0.1507 0.1250
H26 H 0.6412 0.1594 0.1652
loop_
_geom_bond_atom_site_label_1
_geom_bond_atom_site_label_2
_geom_bond_site_symmetry_1
_geom_bond_site_symmetry_2
O1 C6 1_555 1_555
O2 C7 1_555 1_555
O3 C20 1_555 1_555
O4 C11 1_555 1_555
O5 C22 1_555 1_555
O6 H1 1_555 1_555
C1 H2 1_555 1_555
H3 C1 1_555 1_555
C2 C1 1_555 1_555
H4 C2 1_555 1_555
H5 C2 1_555 1_555
C3 C2 1_555 1_555
H6 C3 1_555 1_555
H7 C3 1_555 1_555
C4 C3 1_555 1_555
C5 C4 1_555 1_555
H8 C5 1_555 1_555
C6 C5 1_555 1_555
C7 C6 1_555 1_555
H9 C7 1_555 1_555
C8 C7 1_555 1_555
C9 C8 1_555 1_555
C10 C1 1_555 1_555
C11 C9 1_555 1_555
C12 O6 1_555 1_555
C13 C12 1_555 1_555
C14 C8 1_555 1_555
H10 C14 1_555 1_555
C15 C13 1_555 1_555
H11 C15 1_555 1_555
C16 C15 1_555 1_555
H12 C16 1_555 1_555
H13 C16 1_555 1_555
H14 C16 1_555 1_555
C17 C15 1_555 1_555
H15 C17 1_555 1_555
H16 C17 1_555 1_555
H17 C17 1_555 1_555
C18 C4 1_555 1_555
H18 C18 1_555 1_555
H19 C18 1_555 1_555
H20 C18 1_555 1_555
C19 C4 1_555 1_555
H21 C19 1_555 1_555
H22 C19 1_555 1_555
H23 C19 1_555 1_555
C20 O2 1_555 1_555
C21 C11 1_555 1_555
C22 C21 1_555 1_555
C23 C22 1_555 1_555
H24 C23 1_555 1_555
H25 C23 1_555 1_555
H26 C23 1_555 1_555
C5 C10 1_555 1_555
C9 C10 1_555 1_555
C10 C20 1_555 1_555
C12 C21 1_555 1_555
C13 C14 1_555 1_555

#END
