
#######################################################################
#
#                 Cambridge Crystallographic Data Centre
#                                CCDC 
#
#######################################################################
#
# If this CIF has been generated from an entry in the Cambridge 
# Structural Database, then it will include bibliographic, chemical, 
# crystal, experimental, refinement or atomic coordinate data resulting 
# from the CCDC's data processing and validation procedures.
#
#######################################################################

data_PERTIQ
_chemical_formula_moiety         'C27 H30 B3 N3 O3'
_chemical_name_systematic        
3,8,13-Trimethyl-2,7,12-triphenylhexahydrotris(1,3,2)oxazaborolo(3,2-a:3',2'-c:3'',2''-e)(1,3,5,2,4,6)triazatriborinine
_symmetry_cell_setting           orthorhombic
_symmetry_space_group_name_H-M   'P 21 21 21'
_symmetry_Int_Tables_number      19
_space_group_name_Hall           'P 2ac 2ab'
loop_
_symmetry_equiv_pos_site_id
_symmetry_equiv_pos_as_xyz
1 x,y,z
2 1/2-x,-y,1/2+z
3 1/2+x,1/2-y,-z
4 -x,1/2+y,1/2-z
_cell_length_a                   10.8136(6)
_cell_length_b                   10.8576(6)
_cell_length_c                   22.3723(13)
_cell_angle_alpha                90
_cell_angle_beta                 90
_cell_angle_gamma                90
_cell_volume                     2626.73
_exptl_crystal_colour            colorless
_exptl_crystal_description       plate
_cell_formula_units_Z            4
loop_
_atom_site_label
_atom_site_type_symbol
_atom_site_fract_x
_atom_site_fract_y
_atom_site_fract_z
O1 O 0.27982(14) 0.61106(13) 0.25906(6)
N1 N 0.21073(15) 0.43580(16) 0.20934(7)
C1 C 0.1192(2) 0.4566(2) 0.25712(10)
H1 H 0.0431 0.4929 0.2388
B1 B 0.2999(2) 0.5328(2) 0.21189(10)
O2 O 0.49239(14) 0.47517(16) 0.08082(6)
N2 N 0.39385(16) 0.54026(16) 0.16771(7)
C2 C 0.1838(2) 0.5583(2) 0.29595(10)
H2 H 0.1217 0.6239 0.3050
B2 B 0.3960(2) 0.4544(2) 0.11935(10)
O3 O 0.13322(14) 0.25357(13) 0.15079(7)
N3 N 0.30385(16) 0.36171(16) 0.11546(7)
C3 C 0.0833(2) 0.3398(2) 0.28952(11)
H3 H 0.0424 0.2835 0.2616
H4 H 0.0266 0.3598 0.3223
H5 H 0.1576 0.3004 0.3057
B3 B 0.2119(2) 0.3506(2) 0.16113(11)
C4 C 0.2394(2) 0.5144(2) 0.35449(9)
C5 C 0.1672(3) 0.5147(2) 0.40584(11)
H6 H 0.0835 0.5409 0.4040
C6 C 0.2176(4) 0.4766(3) 0.46013(11)
H7 H 0.1678 0.4759 0.4951
C7 C 0.3387(4) 0.4401(3) 0.46320(12)
H8 H 0.3730 0.4157 0.5005
C8 C 0.4107(3) 0.4384(2) 0.41287(12)
H9 H 0.4944 0.4122 0.4151
C9 C 0.3611(2) 0.4751(2) 0.35865(10)
H10 H 0.4113 0.4734 0.3238
C10 C 0.5021(2) 0.6224(2) 0.16304(9)
H11 H 0.4729 0.7094 0.1592
C11 C 0.5615(2) 0.5808(2) 0.10201(9)
H12 H 0.5498 0.6491 0.0726
C12 C 0.5852(3) 0.6118(4) 0.21751(10)
H13 H 0.5377 0.6316 0.2536
H14 H 0.6545 0.6694 0.2136
H15 H 0.6170 0.5275 0.2205
C13 C 0.6976(2) 0.5498(2) 0.10389(9)
C14 C 0.7843(2) 0.6409(2) 0.09417(10)
H16 H 0.7577 0.7230 0.0869
C15 C 0.9093(2) 0.6144(2) 0.09487(11)
H17 H 0.9677 0.6783 0.0880
C16 C 0.9495(2) 0.4974(3) 0.10530(13)
H18 H 1.0355 0.4797 0.1056
C17 C 0.8653(3) 0.4056(3) 0.11533(15)
H19 H 0.8933 0.3242 0.1230
C18 C 0.7392(3) 0.4302(2) 0.11444(13)
H20 H 0.6815 0.3657 0.1210
C19 C 0.2852(2) 0.2648(2) 0.07068(10)
H21 H 0.2637 0.3041 0.0316
C20 C 0.1682(2) 0.19498(19) 0.09516(10)
H22 H 0.0992 0.2065 0.0659
C21 C 0.4015(3) 0.1882(3) 0.06261(18)
H23 H 0.4696 0.2415 0.0498
H24 H 0.3869 0.1248 0.0322
H25 H 0.4231 0.1488 0.1006
C22 C 0.18638(19) 0.05814(19) 0.10471(10)
C23 C 0.1745(2) -0.0202(2) 0.05664(11)
H26 H 0.1513 0.0116 0.0187
C24 C 0.1963(3) -0.1448(2) 0.06332(13)
H27 H 0.1899 -0.1979 0.0297
C25 C 0.2270(2) -0.1923(2) 0.11774(13)
H28 H 0.2408 -0.2783 0.1220
C26 C 0.2378(2) -0.1160(2) 0.16639(12)
H29 H 0.2591 -0.1490 0.2043
C27 C 0.2174(2) 0.0102(2) 0.15988(10)
H30 H 0.2248 0.0632 0.1935
loop_
_geom_bond_atom_site_label_1
_geom_bond_atom_site_label_2
_geom_bond_site_symmetry_1
_geom_bond_site_symmetry_2
O1 B1 1_555 1_555
N1 C1 1_555 1_555
C1 H1 1_555 1_555
B1 N1 1_555 1_555
O2 B2 1_555 1_555
N2 B1 1_555 1_555
C2 O1 1_555 1_555
H2 C2 1_555 1_555
B2 N2 1_555 1_555
O3 B3 1_555 1_555
N3 B2 1_555 1_555
C3 C1 1_555 1_555
H3 C3 1_555 1_555
H4 C3 1_555 1_555
H5 C3 1_555 1_555
B3 N1 1_555 1_555
C4 C2 1_555 1_555
C5 C4 1_555 1_555
H6 C5 1_555 1_555
C6 C5 1_555 1_555
H7 C6 1_555 1_555
C7 C6 1_555 1_555
H8 C7 1_555 1_555
C8 C7 1_555 1_555
H9 C8 1_555 1_555
C9 C4 1_555 1_555
H10 C9 1_555 1_555
C10 N2 1_555 1_555
H11 C10 1_555 1_555
C11 O2 1_555 1_555
H12 C11 1_555 1_555
C12 C10 1_555 1_555
H13 C12 1_555 1_555
H14 C12 1_555 1_555
H15 C12 1_555 1_555
C13 C11 1_555 1_555
C14 C13 1_555 1_555
H16 C14 1_555 1_555
C15 C14 1_555 1_555
H17 C15 1_555 1_555
C16 C15 1_555 1_555
H18 C16 1_555 1_555
C17 C16 1_555 1_555
H19 C17 1_555 1_555
C18 C13 1_555 1_555
H20 C18 1_555 1_555
C19 N3 1_555 1_555
H21 C19 1_555 1_555
C20 O3 1_555 1_555
H22 C20 1_555 1_555
C21 C19 1_555 1_555
H23 C21 1_555 1_555
H24 C21 1_555 1_555
H25 C21 1_555 1_555
C22 C20 1_555 1_555
C23 C22 1_555 1_555
H26 C23 1_555 1_555
C24 C23 1_555 1_555
H27 C24 1_555 1_555
C25 C24 1_555 1_555
H28 C25 1_555 1_555
C26 C25 1_555 1_555
H29 C26 1_555 1_555
C27 C22 1_555 1_555
H30 C27 1_555 1_555
C1 C2 1_555 1_555
N3 B3 1_555 1_555
C8 C9 1_555 1_555
C10 C11 1_555 1_555
C17 C18 1_555 1_555
C19 C20 1_555 1_555
C26 C27 1_555 1_555

#END
