
#######################################################################
#
#                 Cambridge Crystallographic Data Centre
#                                CCDC 
#
#######################################################################
#
# If this CIF has been generated from an entry in the Cambridge 
# Structural Database, then it will include bibliographic, chemical, 
# crystal, experimental, refinement or atomic coordinate data resulting 
# from the CCDC's data processing and validation procedures.
#
#######################################################################

data_PERWIV01
_chemical_formula_moiety         'C6 H14 N2 2+,2(C2 F3 O2 1-)'
_chemical_name_systematic        
'1,4-diazoniabicyclo[2.2.2]octane bis(trifluoroacetate)'
_symmetry_cell_setting           triclinic
_symmetry_space_group_name_H-M   'P -1'
_symmetry_Int_Tables_number      2
_space_group_name_Hall           '-P 1'
loop_
_symmetry_equiv_pos_site_id
_symmetry_equiv_pos_as_xyz
1 x,y,z
2 -x,-y,-z
_cell_length_a                   7.417(3)
_cell_length_b                   9.760(5)
_cell_length_c                   10.428(5)
_cell_angle_alpha                88.791(18)
_cell_angle_beta                 72.472(12)
_cell_angle_gamma                72.369(16)
_cell_volume                     683.975
_cell_formula_units_Z            2
loop_
_atom_site_label
_atom_site_type_symbol
_atom_site_fract_x
_atom_site_fract_y
_atom_site_fract_z
O1 O 0.2784(3) 0.5927(2) 0.9106(2)
O2 O 0.1518(3) 0.5704(2) 0.7462(2)
C1 C 0.1483(4) 0.6234(2) 0.8517(3)
F1 F -0.0046(5) 0.8446(3) 0.9929(4)
C2 C -0.0407(4) 0.7460(3) 0.9252(3)
F2 F -0.1696(5) 0.6947(4) 1.0067(6)
F3 F -0.1241(5) 0.8206(4) 0.8371(4)
N1 N 0.0664(3) 0.7671(2) 1.3770(2)
N2 N 0.3906(3) 0.5992(2) 1.2377(2)
C3 C 0.3551(4) 0.7411(3) 1.1784(3)
H1 H 0.3568 0.7289 1.0860
H2 H 0.4594 0.7817 1.1783
C4 C 0.2282(4) 0.5390(3) 1.2371(3)
H3 H 0.2533 0.4439 1.2707
H4 H 0.2234 0.5303 1.1458
C5 C 0.1532(4) 0.8426(3) 1.2619(3)
H5 H 0.1695 0.9290 1.2946
H6 H 0.0656 0.8705 1.2067
C6 C 0.3930(5) 0.6138(3) 1.3796(3)
H7 H 0.5065 0.6430 1.3806
H8 H 0.4045 0.5218 1.4189
C7 C 0.2030(5) 0.7251(3) 1.4605(3)
H9 H 0.1407 0.6857 1.5420
H10 H 0.2319 0.8091 1.4863
C8 C 0.0323(5) 0.6388(3) 1.3258(4)
H11 H -0.0606 0.6692 1.2744
H12 H -0.0245 0.5887 1.4010
H13 H 0.506(5) 0.531(4) 1.187(3)
H14 H -0.038(5) 0.815(4) 1.438(4)
O3 O 0.2678(3) 0.0708(2) 0.4427(2)
F7 F 0.7275(3) 0.1018(3) 0.2837(3)
O4 O 0.3647(4) 0.2673(2) 0.4312(3)
F8 F 0.6264(3) -0.0773(2) 0.2845(3)
C9 C 0.3820(4) 0.1435(3) 0.3984(3)
C10 C 0.5697(4) 0.0667(3) 0.2820(3)
F9 F 0.5434(4) 0.0965(4) 0.1657(2)
F4? F -0.1947(19) 0.7577(14) 0.8896(14)
F5? F -0.116(2) 0.7105(17) 1.0591(16)
F6? F -0.0345(18) 0.8616(13) 0.9500(12)
loop_
_geom_bond_atom_site_label_1
_geom_bond_atom_site_label_2
_geom_bond_site_symmetry_1
_geom_bond_site_symmetry_2
O1 C1 1_555 1_555
O2 C1 1_555 1_555
C1 C2 1_555 1_555
F1 C2 1_555 1_555
C2 F2 1_555 1_555
F3 C2 1_555 1_555
N1 C5 1_555 1_555
N2 C3 1_555 1_555
C3 H1 1_555 1_555
H2 C3 1_555 1_555
C4 N2 1_555 1_555
H3 C4 1_555 1_555
H4 C4 1_555 1_555
C5 C3 1_555 1_555
H5 C5 1_555 1_555
H6 C5 1_555 1_555
C6 N2 1_555 1_555
H7 C6 1_555 1_555
H8 C6 1_555 1_555
C7 N1 1_555 1_555
H9 C7 1_555 1_555
H10 C7 1_555 1_555
C8 N1 1_555 1_555
H11 C8 1_555 1_555
H12 C8 1_555 1_555
H13 N2 1_555 1_555
H14 N1 1_555 1_555
O3 C9 1_555 1_555
F7 C10 1_555 1_555
O4 C9 1_555 1_555
F8 C10 1_555 1_555
C9 C10 1_555 1_555
C10 F9 1_555 1_555
C4 C8 1_555 1_555
C6 C7 1_555 1_555

#END
