
#######################################################################
#
#                 Cambridge Crystallographic Data Centre
#                                CCDC 
#
#######################################################################
#
# If this CIF has been generated from an entry in the Cambridge 
# Structural Database, then it will include bibliographic, chemical, 
# crystal, experimental, refinement or atomic coordinate data resulting 
# from the CCDC's data processing and validation procedures.
#
#######################################################################

data_PERXIT
_chemical_formula_moiety         'C2 F6 N2 O2'
_chemical_name_systematic        O-Nitroso-bis(trifluoromethyl)hydroxylamine
_symmetry_cell_setting           orthorhombic
_symmetry_space_group_name_H-M   'P 21 21 21'
_symmetry_Int_Tables_number      19
_space_group_name_Hall           'P 2ac 2ab'
loop_
_symmetry_equiv_pos_site_id
_symmetry_equiv_pos_as_xyz
1 x,y,z
2 1/2+x,1/2-y,-z
3 -x,1/2+y,1/2-z
4 1/2-x,-y,1/2+z
_cell_length_a                   5.519(4)
_cell_length_b                   9.198(5)
_cell_length_c                   12.291(9)
_cell_angle_alpha                90
_cell_angle_beta                 90
_cell_angle_gamma                90
_cell_volume                     623.937
_cell_formula_units_Z            4
loop_
_atom_site_label
_atom_site_type_symbol
_atom_site_fract_x
_atom_site_fract_y
_atom_site_fract_z
F1 F 0.2810(4) 0.2117(2) 0.6440(1)
F2 F 0.3666(4) 0.1574(2) 0.4795(1)
F3 F 0.5677(4) 0.0661(3) 0.6102(2)
F4 F 0.0231(4) 0.0259(2) 0.7478(1)
F5 F -0.0545(5) -0.1715(2) 0.6638(1)
F6 F 0.2943(5) -0.1360(2) 0.7327(1)
O1 O 0.2484(4) -0.1157(2) 0.5083(1)
O2 O -0.1050(5) -0.0397(3) 0.4237(2)
N1 N 0.1763(4) -0.0088(2) 0.5796(1)
N2 N 0.0419(6) -0.1216(3) 0.4093(2)
C1 C 0.3506(5) 0.1059(3) 0.5794(2)
C2 C 0.1111(6) -0.0726(3) 0.6820(2)
loop_
_geom_bond_atom_site_label_1
_geom_bond_atom_site_label_2
_geom_bond_site_symmetry_1
_geom_bond_site_symmetry_2
F1 C1 1_555 1_555
F2 C1 1_555 1_555
F3 C1 1_555 1_555
F4 C2 1_555 1_555
F5 C2 1_555 1_555
F6 C2 1_555 1_555
O1 N1 1_555 1_555
O2 N2 1_555 1_555
N1 C1 1_555 1_555
N2 O1 1_555 1_555
C2 N1 1_555 1_555

#END
