
#######################################################################
#
#                 Cambridge Crystallographic Data Centre
#                                CCDC 
#
#######################################################################
#
# If this CIF has been generated from an entry in the Cambridge 
# Structural Database, then it will include bibliographic, chemical, 
# crystal, experimental, refinement or atomic coordinate data resulting 
# from the CCDC's data processing and validation procedures.
#
#######################################################################

data_PERZES
_chemical_formula_moiety         'C6 H18 N3 S1 1+,C40 H36 B2 F1 O1 1-'
_chemical_name_systematic        
"tris(Dimethylamino)sulfonium spiro(1,1-dimesityl-naphtho(1,8-cd)(1,2,6)fluoradiborinin-3,10'-phenoxaborine)"
_symmetry_cell_setting           orthorhombic
_symmetry_space_group_name_H-M   'P b c a'
_symmetry_Int_Tables_number      61
_space_group_name_Hall           '-P 2ac 2ab'
loop_
_symmetry_equiv_pos_site_id
_symmetry_equiv_pos_as_xyz
1 x,y,z
2 1/2-x,-y,1/2+z
3 -x,1/2+y,1/2-z
4 1/2+x,1/2-y,-z
5 -x,-y,-z
6 1/2+x,y,1/2-z
7 x,1/2-y,1/2+z
8 1/2-x,1/2+y,z
_cell_length_a                   13.579(14)
_cell_length_b                   21.12(2)
_cell_length_c                   28.62(3)
_cell_angle_alpha                90
_cell_angle_beta                 90
_cell_angle_gamma                90
_cell_volume                     8207.89
_exptl_crystal_colour            colorless
_exptl_crystal_description       plate
_cell_formula_units_Z            8
loop_
_atom_site_label
_atom_site_type_symbol
_atom_site_fract_x
_atom_site_fract_y
_atom_site_fract_z
F1 F 0.06719(15) 0.42619(10) -0.13760(8)
B1 B 0.0226(4) 0.3677(2) -0.10673(17)
B2 B 0.1616(4) 0.4232(3) -0.17302(19)
O1 O 0.2087(3) 0.55852(19) -0.19332(14)
C1 C 0.0270(3) 0.3094(2) -0.14368(15)
C2 C -0.0449(4) 0.2628(2) -0.14217(16)
H1 H -0.1021 0.2705 -0.1252
C3 C -0.0350(4) 0.2035(2) -0.16550(17)
H2 H -0.0858 0.1740 -0.1642
C4 C 0.0484(5) 0.1902(3) -0.18957(18)
H3 H 0.0565 0.1503 -0.2028
C5 C 0.2106(5) 0.2240(3) -0.22015(18)
H4 H 0.2212 0.1837 -0.2322
C6 C 0.2795(5) 0.2700(4) -0.22733(19)
H5 H 0.3369 0.2607 -0.2437
C7 C 0.2636(4) 0.3331(3) -0.20959(17)
H6 H 0.3100 0.3643 -0.2160
C8 C 0.1808(3) 0.3489(2) -0.18308(15)
C9 C 0.1104(4) 0.2987(2) -0.17367(15)
C10 C 0.1235(4) 0.2364(3) -0.19476(16)
C11 C 0.1018(3) 0.3641(2) -0.06277(14)
C12 C 0.1266(3) 0.4205(2) -0.03766(15)
C13 C 0.1944(3) 0.4199(2) -0.00071(16)
H7 H 0.2078 0.4576 0.0149
C14 C 0.2420(4) 0.3653(3) 0.01329(17)
C15 C 0.2163(4) 0.3096(3) -0.00950(17)
H8 H 0.2462 0.2721 0.0000
C16 C 0.1478(3) 0.3069(2) -0.04603(15)
C17 C 0.0836(3) 0.4852(2) -0.04916(16)
H9 H 0.0380 0.4809 -0.0746
H10 H 0.1347 0.5144 -0.0577
H11 H 0.0495 0.5009 -0.0221
C18 C 0.3217(5) 0.3661(3) 0.0515(2)
H12 H 0.3285 0.4083 0.0635
H13 H 0.3833 0.3525 0.0384
H14 H 0.3030 0.3380 0.0763
C19 C 0.1243(4) 0.2400(2) -0.06425(16)
H15 H 0.1637 0.2095 -0.0478
H16 H 0.1388 0.2377 -0.0970
H17 H 0.0558 0.2309 -0.0593
C20 C -0.0901(3) 0.38970(19) -0.09313(15)
C21 C -0.1333(3) 0.3770(2) -0.04847(16)
C22 C -0.2275(3) 0.3987(2) -0.03755(18)
H18 H -0.2534 0.3894 -0.0082
C23 C -0.2838(3) 0.4332(3) -0.0683(2)
C24 C -0.2446(3) 0.4435(2) -0.11297(19)
H19 H -0.2820 0.4656 -0.1348
C25 C -0.1516(3) 0.4216(2) -0.12581(16)
C26 C -0.0831(3) 0.3382(2) -0.01049(16)
H20 H -0.1249 0.3362 0.0165
H21 H -0.0217 0.3577 -0.0022
H22 H -0.0711 0.2961 -0.0219
C27 C -0.3865(4) 0.4566(3) -0.0550(2)
H23 H -0.4138 0.4804 -0.0805
H24 H -0.3820 0.4832 -0.0279
H25 H -0.4281 0.4210 -0.0483
C28 C -0.1224(3) 0.4307(3) -0.17730(17)
H26 H -0.0573 0.4143 -0.1822
H27 H -0.1234 0.4750 -0.1848
H28 H -0.1682 0.4086 -0.1970
C29 C 0.2444(3) 0.4634(3) -0.14670(16)
C30 C 0.3026(3) 0.4397(3) -0.10974(17)
H29 H 0.2988 0.3969 -0.1025
C31 C 0.3658(4) 0.4782(3) -0.0835(2)
H30 H 0.4023 0.4610 -0.0591
C32 C 0.3738(4) 0.5420(4) -0.0941(2)
H31 H 0.4151 0.5679 -0.0766
C33 C 0.3197(4) 0.5671(3) -0.1309(2)
H32 H 0.3253 0.6098 -0.1384
C34 C 0.2571(4) 0.5282(3) -0.15663(19)
C35 C 0.1256(3) 0.4616(2) -0.21877(17)
C36 C 0.0674(3) 0.4352(2) -0.25475(16)
H33 H 0.0498 0.3928 -0.2524
C37 C 0.0347(3) 0.4694(3) -0.29387(16)
H34 H -0.0057 0.4506 -0.3161
C38 C 0.0641(4) 0.5320(3) -0.2984(2)
H35 H 0.0444 0.5553 -0.3244
C39 C 0.1223(5) 0.5598(3) -0.2649(2)
H36 H 0.1420 0.6017 -0.2685
C40 C 0.1524(4) 0.5254(3) -0.2250(2)
S1 S 0.07271(19) 0.28390(13) 0.11603(8)
N1 N 0.1014(6) 0.2377(4) 0.1615(3)
N2 N 0.0456(8) 0.3508(4) 0.1443(3)
N3 N -0.0271(5) 0.2661(4) 0.0914(2)
C41 C 0.1692(7) 0.1855(5) 0.1543(4)
H37 H 0.1774 0.1627 0.1831
H38 H 0.2318 0.2017 0.1443
H39 H 0.1434 0.1575 0.1309
C42 C 0.0271(7) 0.2247(4) 0.1985(3)
H40 H 0.0549 0.1968 0.2214
H41 H -0.0298 0.2052 0.1847
H42 H 0.0082 0.2637 0.2131
C43 C 0.0144(9) 0.4000(4) 0.1116(3)
H43 H -0.0014 0.4379 0.1286
H44 H -0.0427 0.3858 0.0948
H45 H 0.0667 0.4086 0.0900
C44 C 0.1199(7) 0.3767(4) 0.1772(4)
H46 H 0.0952 0.4150 0.1911
H47 H 0.1797 0.3857 0.1606
H48 H 0.1329 0.3462 0.2013
C45 C -0.1197(7) 0.2680(6) 0.1150(4)
H49 H -0.1713 0.2572 0.0934
H50 H -0.1308 0.3099 0.1269
H51 H -0.1193 0.2383 0.1403
C46 C -0.0155(7) 0.2120(4) 0.0569(3)
H52 H -0.0783 0.2020 0.0434
H53 H 0.0100 0.1755 0.0727
H54 H 0.0293 0.2244 0.0326
S2? S 0.0284(3) 0.29340(19) 0.15609(13)
N4? N 0.0969(9) 0.2356(5) 0.1316(5)
N5? N 0.0620(15) 0.3661(6) 0.1494(5)
N6? N -0.0597(10) 0.2927(5) 0.1145(4)
C47? C 0.1615(14) 0.2444(6) 0.0933(6)
H55? H 0.1959 0.2056 0.0870
H56? H 0.2082 0.2771 0.1007
H57? H 0.1242 0.2566 0.0662
C48? C 0.143(3) 0.2100(12) 0.1736(6)
H58? H 0.1913 0.1790 0.1649
H59? H 0.0937 0.1904 0.1928
H60? H 0.1741 0.2436 0.1906
C49? C 0.1065(10) 0.4059(7) 0.1129(5)
H61? H 0.1237 0.4463 0.1259
H62? H 0.0601 0.4118 0.0879
H63? H 0.1646 0.3856 0.1010
C50? C 0.0568(17) 0.3901(10) 0.1972(5)
H64? H 0.0802 0.4330 0.1980
H65? H 0.0969 0.3643 0.2172
H66? H -0.0102 0.3888 0.2078
C51? C -0.1036(10) 0.2260(5) 0.1028(5)
H67? H -0.1682 0.2310 0.0896
H68? H -0.1079 0.2012 0.1308
H69? H -0.0618 0.2049 0.0807
C52? C -0.1401(8) 0.3397(5) 0.1190(4)
H70? H -0.1862 0.3342 0.0939
H71? H -0.1130 0.3817 0.1177
H72? H -0.1732 0.3338 0.1483
loop_
_geom_bond_atom_site_label_1
_geom_bond_atom_site_label_2
_geom_bond_site_symmetry_1
_geom_bond_site_symmetry_2
F1 B1 1_555 1_555
B1 C1 1_555 1_555
B2 F1 1_555 1_555
O1 C34 1_555 1_555
C1 C2 1_555 1_555
C2 H1 1_555 1_555
C3 C2 1_555 1_555
H2 C3 1_555 1_555
C4 C3 1_555 1_555
H3 C4 1_555 1_555
C5 H4 1_555 1_555
C6 C5 1_555 1_555
H5 C6 1_555 1_555
C7 C6 1_555 1_555
H6 C7 1_555 1_555
C8 B2 1_555 1_555
C9 C1 1_555 1_555
C10 C4 1_555 1_555
C11 B1 1_555 1_555
C12 C11 1_555 1_555
C13 C12 1_555 1_555
H7 C13 1_555 1_555
C14 C13 1_555 1_555
C15 C14 1_555 1_555
H8 C15 1_555 1_555
C16 C11 1_555 1_555
C17 C12 1_555 1_555
H9 C17 1_555 1_555
H10 C17 1_555 1_555
H11 C17 1_555 1_555
C18 C14 1_555 1_555
H12 C18 1_555 1_555
H13 C18 1_555 1_555
H14 C18 1_555 1_555
C19 C16 1_555 1_555
H15 C19 1_555 1_555
H16 C19 1_555 1_555
H17 C19 1_555 1_555
C20 B1 1_555 1_555
C21 C20 1_555 1_555
C22 C21 1_555 1_555
H18 C22 1_555 1_555
C23 C22 1_555 1_555
C24 C23 1_555 1_555
H19 C24 1_555 1_555
C25 C20 1_555 1_555
C26 C21 1_555 1_555
H20 C26 1_555 1_555
H21 C26 1_555 1_555
H22 C26 1_555 1_555
C27 C23 1_555 1_555
H23 C27 1_555 1_555
H24 C27 1_555 1_555
H25 C27 1_555 1_555
C28 C25 1_555 1_555
H26 C28 1_555 1_555
H27 C28 1_555 1_555
H28 C28 1_555 1_555
C29 B2 1_555 1_555
C30 C29 1_555 1_555
H29 C30 1_555 1_555
C31 C30 1_555 1_555
H30 C31 1_555 1_555
C32 C31 1_555 1_555
H31 C32 1_555 1_555
C33 C32 1_555 1_555
H32 C33 1_555 1_555
C34 C29 1_555 1_555
C35 B2 1_555 1_555
C36 C35 1_555 1_555
H33 C36 1_555 1_555
C37 C36 1_555 1_555
H34 C37 1_555 1_555
C38 C37 1_555 1_555
H35 C38 1_555 1_555
C39 C38 1_555 1_555
H36 C39 1_555 1_555
C40 O1 1_555 1_555
S1 N1 1_555 1_555
N1 C41 1_555 1_555
N2 S1 1_555 1_555
N3 S1 1_555 1_555
C41 H37 1_555 1_555
H38 C41 1_555 1_555
H39 C41 1_555 1_555
C42 N1 1_555 1_555
H40 C42 1_555 1_555
H41 C42 1_555 1_555
H42 C42 1_555 1_555
C43 N2 1_555 1_555
H43 C43 1_555 1_555
H44 C43 1_555 1_555
H45 C43 1_555 1_555
C44 N2 1_555 1_555
H46 C44 1_555 1_555
H47 C44 1_555 1_555
H48 C44 1_555 1_555
C45 N3 1_555 1_555
H49 C45 1_555 1_555
H50 C45 1_555 1_555
H51 C45 1_555 1_555
C46 N3 1_555 1_555
H52 C46 1_555 1_555
H53 C46 1_555 1_555
H54 C46 1_555 1_555
C5 C10 1_555 1_555
C7 C8 1_555 1_555
C8 C9 1_555 1_555
C9 C10 1_555 1_555
C15 C16 1_555 1_555
C24 C25 1_555 1_555
C33 C34 1_555 1_555
C35 C40 1_555 1_555
C39 C40 1_555 1_555

#END
