
#######################################################################
#
#                 Cambridge Crystallographic Data Centre
#                                CCDC 
#
#######################################################################
#
# If this CIF has been generated from an entry in the Cambridge 
# Structural Database, then it will include bibliographic, chemical, 
# crystal, experimental, refinement or atomic coordinate data resulting 
# from the CCDC's data processing and validation procedures.
#
#######################################################################

data_PESCOH
_chemical_formula_moiety         'C56 H60 N2 P2'
_chemical_name_systematic        
(2-Phenylethene-1,1-diyl)bis(((2,6-diisopropylphenyl)imino)(diphenyl)phosphorane)
_symmetry_cell_setting           monoclinic
_symmetry_space_group_name_H-M   'C c'
_symmetry_Int_Tables_number      9
_space_group_name_Hall           'C -2yc'
loop_
_symmetry_equiv_pos_site_id
_symmetry_equiv_pos_as_xyz
1 x,y,z
2 x,-y,1/2+z
3 1/2+x,1/2+y,z
4 1/2+x,1/2-y,1/2+z
_cell_length_a                   22.8541(15)
_cell_length_b                   11.1754(6)
_cell_length_c                   18.8490(12)
_cell_angle_alpha                90
_cell_angle_beta                 107.156(7)
_cell_angle_gamma                90
_cell_volume                     4599.9
_exptl_crystal_colour            yellow
_exptl_crystal_description       block
_cell_formula_units_Z            4
loop_
_atom_site_label
_atom_site_type_symbol
_atom_site_fract_x
_atom_site_fract_y
_atom_site_fract_z
P1 P 0.15225(5) 0.63777(8) 0.37865(5)
P2 P 0.28314(4) 0.64359(8) 0.50927(5)
N1 N 0.11369(16) 0.7486(3) 0.34340(19)
N2 N 0.30394(17) 0.6401(3) 0.5942(2)
C1 C 0.1992(2) 0.6492(3) 0.4770(3)
C2 C 0.0992(2) 0.5155(3) 0.3767(2)
C3 C 0.1077(2) 0.4289(4) 0.4315(2)
H1 H 0.1425 0.4325 0.4741
C4 C 0.0657(2) 0.3370(4) 0.4244(2)
H2 H 0.0713 0.2787 0.4626
C5 C 0.0153(2) 0.3301(4) 0.3617(3)
H3 H -0.0133 0.2666 0.3566
C6 C 0.0067(2) 0.4156(4) 0.3068(3)
H4 H -0.0278 0.4106 0.2639
C7 C 0.0482(2) 0.5088(4) 0.3138(2)
H5 H 0.0419 0.5677 0.2759
C8 C 0.2011(2) 0.5795(4) 0.3257(3)
C9 C 0.2309(2) 0.6618(5) 0.2927(2)
H6 H 0.2288 0.7450 0.3021
C10 C 0.2636(2) 0.6216(7) 0.2459(3)
H7 H 0.2848 0.6773 0.2244
C11 C 0.2656(3) 0.5015(7) 0.2305(4)
H8 H 0.2872 0.4748 0.1974
C12 C 0.2358(3) 0.4190(6) 0.2635(4)
H9 H 0.2380 0.3359 0.2541
C13 C 0.2030(2) 0.4593(5) 0.3103(3)
H10 H 0.1818 0.4036 0.3318
C14 C 0.3039(2) 0.5076(4) 0.4688(2)
C15 C 0.2843(2) 0.4005(4) 0.4918(3)
H11 H 0.2594 0.4011 0.5242
C16 C 0.3015(2) 0.2917(4) 0.4667(3)
H12 H 0.2877 0.2182 0.4814
C17 C 0.3388(2) 0.2915(5) 0.4206(4)
H13 H 0.3507 0.2177 0.4040
C18 C 0.3588(2) 0.3981(5) 0.3986(3)
H14 H 0.3841 0.3974 0.3666
C19 C 0.3420(2) 0.5062(4) 0.4231(3)
H15 H 0.3564 0.5793 0.4087
C20 C 0.31384(18) 0.7669(4) 0.4699(2)
C21 C 0.2778(2) 0.8560(4) 0.4264(2)
H16 H 0.2345 0.8522 0.4150
C22 C 0.3046(2) 0.9502(4) 0.3995(2)
H17 H 0.2795 1.0101 0.3696
C23 C 0.3673(2) 0.9575(4) 0.4159(3)
H18 H 0.3854 1.0203 0.3956
C24 C 0.4043(2) 0.8725(4) 0.4625(3)
H19 H 0.4476 0.8790 0.4756
C25 C 0.3777(2) 0.7788(4) 0.4895(2)
H20 H 0.4029 0.7218 0.5218
C26 C 0.11761(19) 0.8569(3) 0.3094(2)
C27 C 0.1099(2) 0.8634(4) 0.2312(2)
C28 C 0.1098(2) 0.9752(4) 0.1985(2)
H21 H 0.1053 0.9797 0.1468
C29 C 0.1162(2) 1.0802(4) 0.2394(3)
H22 H 0.1163 1.1554 0.2160
C30 C 0.1223(2) 1.0744(4) 0.3143(3)
H23 H 0.1259 1.1464 0.3421
C31 C 0.12335(19) 0.9650(4) 0.3500(2)
C32 C 0.0985(2) 0.7528(4) 0.1825(2)
H24 H 0.1112 0.6814 0.2154
C33 C 0.1360(2) 0.7537(5) 0.1270(3)
H25 H 0.1321 0.6759 0.1020
H26 H 0.1791 0.7689 0.1535
H27 H 0.1206 0.8167 0.0900
C34 C 0.0312(2) 0.7384(4) 0.1396(2)
H28 H 0.0177 0.8075 0.1069
H29 H 0.0069 0.7334 0.1746
H30 H 0.0256 0.6652 0.1098
C35 C 0.1254(2) 0.9625(4) 0.4314(2)
H31 H 0.1371 0.8797 0.4504
C36 C 0.0618(2) 0.9892(4) 0.4394(2)
H32 H 0.0485 1.0690 0.4194
H33 H 0.0636 0.9864 0.4920
H34 H 0.0325 0.9293 0.4118
C37 C 0.1726(2) 1.0497(4) 0.4803(3)
H35 H 0.2129 1.0349 0.4735
H36 H 0.1749 1.0374 0.5325
H37 H 0.1600 1.1322 0.4660
C38 C 0.3535(2) 0.6801(4) 0.6533(2)
C39 C 0.3553(2) 0.7990(4) 0.6809(2)
C40 C 0.4020(2) 0.8292(5) 0.7443(3)
H38 H 0.4032 0.9080 0.7635
C41 C 0.4465(2) 0.7492(5) 0.7801(3)
H39 H 0.4780 0.7728 0.8232
C42 C 0.4452(2) 0.6342(5) 0.7530(3)
H40 H 0.4762 0.5792 0.7777
C43 C 0.3992(2) 0.5969(5) 0.6902(2)
C44 C 0.3075(2) 0.8913(4) 0.6433(3)
H41 H 0.2796 0.8540 0.5975
C45 C 0.2689(3) 0.9278(6) 0.6934(4)
H42 H 0.2481 0.8572 0.7052
H43 H 0.2383 0.9871 0.6678
H44 H 0.2954 0.9626 0.7394
C46 C 0.3364(3) 1.0022(5) 0.6199(3)
H45 H 0.3618 1.0434 0.6642
H46 H 0.3040 1.0562 0.5919
H47 H 0.3618 0.9780 0.5887
C47 C 0.3990(2) 0.4703(4) 0.6624(3)
H48 H 0.3559 0.4498 0.6335
C48 C 0.4391(2) 0.4592(5) 0.6094(3)
H49 H 0.4823 0.4685 0.6377
H50 H 0.4276 0.5217 0.5713
H51 H 0.4328 0.3804 0.5855
C49 C 0.4209(3) 0.3766(5) 0.7247(3)
H52 H 0.4145 0.2961 0.7032
H53 H 0.3976 0.3857 0.7604
H54 H 0.4645 0.3886 0.7500
C50 C 0.1737(2) 0.6561(3) 0.5336(2)
H55 H 0.2035 0.6629 0.5808
C51 C 0.1107(2) 0.6555(4) 0.5385(2)
C52 C 0.1034(2) 0.6132(4) 0.6051(3)
H56 H 0.1384 0.5889 0.6440
C53 C 0.0458(2) 0.6064(5) 0.6151(3)
H57 H 0.0414 0.5764 0.6604
C54 C -0.0050(2) 0.6429(4) 0.5595(3)
H58 H -0.0446 0.6377 0.5663
C55 C 0.0017(2) 0.6870(4) 0.4940(3)
H59 H -0.0333 0.7137 0.4561
C56 C 0.05917(19) 0.6926(4) 0.4831(2)
H60 H 0.0632 0.7220 0.4375
loop_
_geom_bond_atom_site_label_1
_geom_bond_atom_site_label_2
_geom_bond_site_symmetry_1
_geom_bond_site_symmetry_2
P1 N1 1_555 1_555
P2 N2 1_555 1_555
N1 C26 1_555 1_555
N2 C38 1_555 1_555
C1 P1 1_555 1_555
C2 P1 1_555 1_555
C3 C2 1_555 1_555
H1 C3 1_555 1_555
C4 C3 1_555 1_555
H2 C4 1_555 1_555
C5 C4 1_555 1_555
H3 C5 1_555 1_555
C6 C5 1_555 1_555
H4 C6 1_555 1_555
C7 C2 1_555 1_555
H5 C7 1_555 1_555
C8 P1 1_555 1_555
C9 C8 1_555 1_555
H6 C9 1_555 1_555
C10 C9 1_555 1_555
H7 C10 1_555 1_555
C11 C10 1_555 1_555
H8 C11 1_555 1_555
C12 C11 1_555 1_555
H9 C12 1_555 1_555
C13 C8 1_555 1_555
H10 C13 1_555 1_555
C14 P2 1_555 1_555
C15 C14 1_555 1_555
H11 C15 1_555 1_555
C16 C15 1_555 1_555
H12 C16 1_555 1_555
C17 C16 1_555 1_555
H13 C17 1_555 1_555
C18 C17 1_555 1_555
H14 C18 1_555 1_555
C19 C14 1_555 1_555
H15 C19 1_555 1_555
C20 P2 1_555 1_555
C21 C20 1_555 1_555
H16 C21 1_555 1_555
C22 C21 1_555 1_555
H17 C22 1_555 1_555
C23 C22 1_555 1_555
H18 C23 1_555 1_555
C24 C23 1_555 1_555
H19 C24 1_555 1_555
C25 C20 1_555 1_555
H20 C25 1_555 1_555
C26 C27 1_555 1_555
C27 C28 1_555 1_555
C28 H21 1_555 1_555
C29 C28 1_555 1_555
H22 C29 1_555 1_555
C30 C29 1_555 1_555
H23 C30 1_555 1_555
C31 C26 1_555 1_555
C32 C27 1_555 1_555
H24 C32 1_555 1_555
C33 C32 1_555 1_555
H25 C33 1_555 1_555
H26 C33 1_555 1_555
H27 C33 1_555 1_555
C34 C32 1_555 1_555
H28 C34 1_555 1_555
H29 C34 1_555 1_555
H30 C34 1_555 1_555
C35 C31 1_555 1_555
H31 C35 1_555 1_555
C36 C35 1_555 1_555
H32 C36 1_555 1_555
H33 C36 1_555 1_555
H34 C36 1_555 1_555
C37 C35 1_555 1_555
H35 C37 1_555 1_555
H36 C37 1_555 1_555
H37 C37 1_555 1_555
C38 C39 1_555 1_555
C39 C40 1_555 1_555
C40 H38 1_555 1_555
C41 C40 1_555 1_555
H39 C41 1_555 1_555
C42 C41 1_555 1_555
H40 C42 1_555 1_555
C43 C38 1_555 1_555
C44 C39 1_555 1_555
H41 C44 1_555 1_555
C45 C44 1_555 1_555
H42 C45 1_555 1_555
H43 C45 1_555 1_555
H44 C45 1_555 1_555
C46 C44 1_555 1_555
H45 C46 1_555 1_555
H46 C46 1_555 1_555
H47 C46 1_555 1_555
C47 C43 1_555 1_555
H48 C47 1_555 1_555
C48 C47 1_555 1_555
H49 C48 1_555 1_555
H50 C48 1_555 1_555
H51 C48 1_555 1_555
C49 C47 1_555 1_555
H52 C49 1_555 1_555
H53 C49 1_555 1_555
H54 C49 1_555 1_555
C50 C1 1_555 1_555
H55 C50 1_555 1_555
C51 C50 1_555 1_555
C52 C51 1_555 1_555
H56 C52 1_555 1_555
C53 C52 1_555 1_555
H57 C53 1_555 1_555
C54 C53 1_555 1_555
H58 C54 1_555 1_555
C55 C54 1_555 1_555
H59 C55 1_555 1_555
C56 C51 1_555 1_555
H60 C56 1_555 1_555
P2 C1 1_555 1_555
C6 C7 1_555 1_555
C12 C13 1_555 1_555
C18 C19 1_555 1_555
C24 C25 1_555 1_555
C30 C31 1_555 1_555
C42 C43 1_555 1_555
C55 C56 1_555 1_555

#END
