
#######################################################################
#
#                 Cambridge Crystallographic Data Centre
#                                CCDC 
#
#######################################################################
#
# If this CIF has been generated from an entry in the Cambridge 
# Structural Database, then it will include bibliographic, chemical, 
# crystal, experimental, refinement or atomic coordinate data resulting 
# from the CCDC's data processing and validation procedures.
#
#######################################################################

data_PESGAW
_chemical_formula_moiety         'C17 H20 N1 O4 P1'
_chemical_name_systematic        't-Butyl N-(diphenylphosphinoyloxy)carbamate'
_symmetry_cell_setting           triclinic
_symmetry_space_group_name_H-M   'P -1'
_symmetry_Int_Tables_number      2
_space_group_name_Hall           '-P 1'
loop_
_symmetry_equiv_pos_site_id
_symmetry_equiv_pos_as_xyz
1 x,y,z
2 -x,-y,-z
_cell_length_a                   12.1810(10)
_cell_length_b                   13.7340(10)
_cell_length_c                   16.5320(10)
_cell_angle_alpha                101.100(10)
_cell_angle_beta                 96.770(10)
_cell_angle_gamma                92.930(10)
_cell_volume                     2687.3
_exptl_crystal_colour            colorless
_exptl_crystal_description       block
_cell_formula_units_Z            6
_exptl_crystal_recrystallization_method dichloromethane
_exptl_crystal_preparation       'thermally unstable explosive'
loop_
_atom_site_label
_atom_site_type_symbol
_atom_site_fract_x
_atom_site_fract_y
_atom_site_fract_z
P1 P 0.10055(3) 0.26988(3) 0.27389(2)
O1 O 0.18559(8) 0.36743(7) 0.30630(6)
O2 O 0.08405(8) 0.23290(7) 0.18273(6)
O3 O 0.18353(11) 0.55106(8) 0.39437(6)
O4 O 0.14394(10) 0.60494(7) 0.27240(6)
N1 N 0.14437(11) 0.44524(9) 0.26621(7)
H1 H 0.1747(14) 0.4421(12) 0.2197(10)
C1 C -0.02620(12) 0.30120(11) 0.31342(8)
C2 C -0.12504(14) 0.25301(12) 0.26970(10)
H2 H -0.1243 0.2066 0.2191
C3 C -0.22496(15) 0.27315(14) 0.30047(12)
H3 H -0.2926 0.2408 0.2706
C4 C -0.22558(16) 0.33991(14) 0.37421(13)
H4 H -0.2938 0.3523 0.3954
C5 C -0.12866(16) 0.38862(13) 0.41741(11)
H5 H -0.1302 0.4349 0.4679
C6 C -0.02786(14) 0.37012(12) 0.38722(9)
H6 H 0.0392 0.4043 0.4167
C7 C 0.16770(12) 0.18519(11) 0.32898(8)
C8 C 0.20979(12) 0.10244(11) 0.28261(9)
H7 H 0.2023 0.0926 0.2237
C9 C 0.26281(12) 0.03471(11) 0.32361(9)
H8 H 0.2920 -0.0213 0.2925
C10 C 0.27309(13) 0.04875(11) 0.40974(9)
H9 H 0.3091 0.0022 0.4373
C11 C 0.23058(13) 0.13071(12) 0.45561(9)
H10 H 0.2374 0.1400 0.5145
C12 C 0.17830(13) 0.19906(11) 0.41571(9)
H11 H 0.1497 0.2552 0.4472
C13 C 0.16195(13) 0.53720(11) 0.32002(9)
C14 C 0.14467(16) 0.71156(11) 0.31001(10)
C15 C 0.25948(18) 0.74960(13) 0.35381(12)
H12 H 0.3140 0.7340 0.3150
H13 H 0.2769 0.7176 0.4014
H14 H 0.2619 0.8218 0.3734
C16 C 0.11550(18) 0.75684(13) 0.23410(11)
H15 H 0.1721 0.7435 0.1967
H16 H 0.1124 0.8289 0.2516
H17 H 0.0432 0.7274 0.2050
C17 C 0.05589(19) 0.72724(14) 0.36741(12)
H18 H -0.0145 0.6928 0.3385
H19 H 0.0467 0.7986 0.3836
H20 H 0.0779 0.7004 0.4172
P2 P 0.24725(3) 0.38635(3) 0.04178(2)
O5 O 0.16717(9) 0.28576(7) 0.00742(6)
O6 O 0.25685(9) 0.42489(8) 0.13240(6)
O7 O 0.21538(10) 0.05117(7) 0.04486(6)
O8 O 0.19732(11) 0.10585(9) -0.07767(7)
N2 N 0.20689(11) 0.21047(9) 0.05057(7)
H21 H 0.1694(16) 0.2106(14) 0.0977(12)
C18 C 0.17804(12) 0.46636(11) -0.01717(9)
C19 C 0.14058(13) 0.55285(11) 0.02770(10)
H22 H 0.1523 0.5666 0.0868
C20 C 0.08625(14) 0.61845(12) -0.01490(11)
H23 H 0.0606 0.6771 0.0153
C21 C 0.06930(14) 0.59849(13) -0.10092(11)
H24 H 0.0326 0.6438 -0.1295
C22 C 0.10585(15) 0.51247(14) -0.14566(10)
H25 H 0.0937 0.4990 -0.2047
C23 C 0.16013(13) 0.44597(12) -0.10403(9)
H26 H 0.1849 0.3871 -0.1345
C24 C 0.38035(12) 0.36019(11) 0.01099(9)
C25 C 0.47290(14) 0.40633(12) 0.06499(10)
H27 H 0.4639 0.4494 0.1157
C26 C 0.57862(15) 0.38912(13) 0.04411(12)
H28 H 0.6421 0.4199 0.0809
C27 C 0.59084(15) 0.32707(14) -0.03009(13)
H29 H 0.6631 0.3162 -0.0444
C28 C 0.49962(15) 0.28076(14) -0.08368(11)
H30 H 0.5092 0.2380 -0.1344
C29 C 0.39359(14) 0.29679(12) -0.06343(9)
H31 H 0.3305 0.2647 -0.1000
C30 C 0.20366(13) 0.11913(11) -0.00321(9)
C31 C 0.21882(16) -0.05516(12) 0.00805(10)
C32 C 0.1093(2) -0.09396(15) -0.04397(13)
H32 H 0.0489 -0.0800 -0.0101
H33 H 0.1093 -0.1659 -0.0638
H34 H 0.0986 -0.0611 -0.0917
C33 C 0.3164(2) -0.07041(16) -0.04069(15)
H35 H 0.3839 -0.0374 -0.0060
H36 H 0.3033 -0.0418 -0.0906
H37 H 0.3253 -0.1418 -0.0570
C34 C 0.2348(2) -0.10051(13) 0.08505(12)
H38 H 0.1730 -0.0859 0.1173
H39 H 0.3046 -0.0723 0.1192
H40 H 0.2371 -0.1728 0.0684
P3 P 0.58759(3) 1.05685(3) 0.38744(2)
O9 O 0.51367(8) 0.95294(7) 0.35097(6)
O10 O 0.58442(8) 1.09867(7) 0.47662(6)
O11 O 0.56502(10) 0.72252(8) 0.39681(7)
O12 O 0.57720(12) 0.77787(9) 0.27653(7)
N3 N 0.55055(11) 0.88095(9) 0.39871(7)
H41 H 0.5092(15) 0.8805(14) 0.4420(11)
C35 C 0.52414(12) 1.13203(11) 0.32102(9)
C36 C 0.48845(13) 1.22263(11) 0.36013(9)
H42 H 0.4984 1.2414 0.4191
C37 C 0.43820(14) 1.28491(12) 0.31187(11)
H43 H 0.4139 1.3464 0.3380
C38 C 0.42358(14) 1.25756(14) 0.22619(11)
H44 H 0.3891 1.3003 0.1937
C39 C 0.45897(14) 1.16801(14) 0.18714(10)
H45 H 0.4490 1.1499 0.1282
C40 C 0.50918(13) 1.10465(12) 0.23440(9)
H46 H 0.5330 1.0432 0.2078
C41 C 0.72615(12) 1.03390(11) 0.36752(8)
C42 C 0.81257(13) 1.08015(12) 0.42822(9)
H47 H 0.7964 1.1220 0.4775
C43 C 0.92164(13) 1.06508(13) 0.41655(10)
H48 H 0.9802 1.0958 0.4582
C44 C 0.94527(14) 1.00512(13) 0.34412(10)
H49 H 1.0202 0.9948 0.3364
C45 C 0.86058(14) 0.96007(13) 0.28310(10)
H50 H 0.8774 0.9198 0.2332
C46 C 0.75090(13) 0.97382(12) 0.29476(9)
H51 H 0.6926 0.9423 0.2532
C47 C 0.56398(14) 0.79048(11) 0.34854(9)
C48 C 0.59500(19) 0.62056(12) 0.36590(12)
C49 C 0.7133(2) 0.62491(16) 0.34395(15)
H52 H 0.7159 0.6575 0.2963
H53 H 0.7366 0.5572 0.3297
H54 H 0.7633 0.6627 0.3917
C50 C 0.5102(3) 0.56827(15) 0.29476(15)
H55 H 0.4358 0.5733 0.3115
H56 H 0.5249 0.4980 0.2799
H57 H 0.5148 0.5996 0.2467
C51 C 0.5900(2) 0.57414(14) 0.44159(14)
H58 H 0.5159 0.5790 0.4590
H59 H 0.6453 0.6095 0.4870
H60 H 0.6056 0.5040 0.4279
loop_
_geom_bond_atom_site_label_1
_geom_bond_atom_site_label_2
_geom_bond_site_symmetry_1
_geom_bond_site_symmetry_2
P1 O1 1_555 1_555
O1 N1 1_555 1_555
O2 P1 1_555 1_555
O3 C13 1_555 1_555
O4 C13 1_555 1_555
N1 H1 1_555 1_555
C1 P1 1_555 1_555
C2 C1 1_555 1_555
H2 C2 1_555 1_555
C3 C2 1_555 1_555
H3 C3 1_555 1_555
C4 C3 1_555 1_555
H4 C4 1_555 1_555
C5 C4 1_555 1_555
H5 C5 1_555 1_555
C6 C1 1_555 1_555
H6 C6 1_555 1_555
C7 P1 1_555 1_555
C8 C7 1_555 1_555
H7 C8 1_555 1_555
C9 C8 1_555 1_555
H8 C9 1_555 1_555
C10 C9 1_555 1_555
H9 C10 1_555 1_555
C11 C10 1_555 1_555
H10 C11 1_555 1_555
C12 C7 1_555 1_555
H11 C12 1_555 1_555
C13 N1 1_555 1_555
C14 O4 1_555 1_555
C15 C14 1_555 1_555
H12 C15 1_555 1_555
H13 C15 1_555 1_555
H14 C15 1_555 1_555
C16 C14 1_555 1_555
H15 C16 1_555 1_555
H16 C16 1_555 1_555
H17 C16 1_555 1_555
C17 C14 1_555 1_555
H18 C17 1_555 1_555
H19 C17 1_555 1_555
H20 C17 1_555 1_555
P2 O5 1_555 1_555
O5 N2 1_555 1_555
O6 P2 1_555 1_555
O7 C30 1_555 1_555
O8 C30 1_555 1_555
N2 H21 1_555 1_555
C18 P2 1_555 1_555
C19 C18 1_555 1_555
H22 C19 1_555 1_555
C20 C19 1_555 1_555
H23 C20 1_555 1_555
C21 C20 1_555 1_555
H24 C21 1_555 1_555
C22 C21 1_555 1_555
H25 C22 1_555 1_555
C23 C18 1_555 1_555
H26 C23 1_555 1_555
C24 P2 1_555 1_555
C25 C24 1_555 1_555
H27 C25 1_555 1_555
C26 C25 1_555 1_555
H28 C26 1_555 1_555
C27 C26 1_555 1_555
H29 C27 1_555 1_555
C28 C27 1_555 1_555
H30 C28 1_555 1_555
C29 C24 1_555 1_555
H31 C29 1_555 1_555
C30 N2 1_555 1_555
C31 O7 1_555 1_555
C32 C31 1_555 1_555
H32 C32 1_555 1_555
H33 C32 1_555 1_555
H34 C32 1_555 1_555
C33 C31 1_555 1_555
H35 C33 1_555 1_555
H36 C33 1_555 1_555
H37 C33 1_555 1_555
C34 C31 1_555 1_555
H38 C34 1_555 1_555
H39 C34 1_555 1_555
H40 C34 1_555 1_555
P3 O9 1_555 1_555
O9 N3 1_555 1_555
O10 P3 1_555 1_555
O11 C47 1_555 1_555
O12 C47 1_555 1_555
N3 H41 1_555 1_555
C35 P3 1_555 1_555
C36 C35 1_555 1_555
H42 C36 1_555 1_555
C37 C36 1_555 1_555
H43 C37 1_555 1_555
C38 C37 1_555 1_555
H44 C38 1_555 1_555
C39 C38 1_555 1_555
H45 C39 1_555 1_555
C40 C35 1_555 1_555
H46 C40 1_555 1_555
C41 P3 1_555 1_555
C42 C41 1_555 1_555
H47 C42 1_555 1_555
C43 C42 1_555 1_555
H48 C43 1_555 1_555
C44 C43 1_555 1_555
H49 C44 1_555 1_555
C45 C44 1_555 1_555
H50 C45 1_555 1_555
C46 C41 1_555 1_555
H51 C46 1_555 1_555
C47 N3 1_555 1_555
C48 O11 1_555 1_555
C49 C48 1_555 1_555
H52 C49 1_555 1_555
H53 C49 1_555 1_555
H54 C49 1_555 1_555
C50 C48 1_555 1_555
H55 C50 1_555 1_555
H56 C50 1_555 1_555
H57 C50 1_555 1_555
C51 C48 1_555 1_555
H58 C51 1_555 1_555
H59 C51 1_555 1_555
H60 C51 1_555 1_555
C5 C6 1_555 1_555
C11 C12 1_555 1_555
C22 C23 1_555 1_555
C28 C29 1_555 1_555
C39 C40 1_555 1_555
C45 C46 1_555 1_555

#END
