
#######################################################################
#
#                 Cambridge Crystallographic Data Centre
#                                CCDC 
#
#######################################################################
#
# If this CIF has been generated from an entry in the Cambridge 
# Structural Database, then it will include bibliographic, chemical, 
# crystal, experimental, refinement or atomic coordinate data resulting 
# from the CCDC's data processing and validation procedures.
#
#######################################################################

data_PESGOJ
_chemical_formula_moiety         'C2 H2 N4 S4'
_chemical_name_systematic        1.1':2,2'-Bi-1,2,3,5-dithiadiazole
_symmetry_cell_setting           monoclinic
_symmetry_space_group_name_H-M   'P 21/n'
_symmetry_Int_Tables_number      14
_space_group_name_Hall           '-P 2yn'
loop_
_symmetry_equiv_pos_site_id
_symmetry_equiv_pos_as_xyz
1 x,y,z
2 1/2-x,1/2+y,1/2-z
3 -x,-y,-z
4 1/2+x,1/2-y,1/2+z
_cell_length_a                   6.833(6)
_cell_length_b                   16.463(4)
_cell_length_c                   19.161(4)
_cell_angle_alpha                90
_cell_angle_beta                 93.57(4)
_cell_angle_gamma                90
_cell_volume                     2151.27
_exptl_crystal_colour            black
_chemical_melting_point          '98-100 deg.C'
_cell_formula_units_Z            12
loop_
_atom_site_label
_atom_site_type_symbol
_atom_site_fract_x
_atom_site_fract_y
_atom_site_fract_z
S1 S 0.5445(6) 0.7199(3) 0.70958(20)
S2 S 0.4920(6) 0.71241(24) 0.60304(20)
N1 N 0.5330(19) 0.8202(8) 0.7142(5)
N2 N 0.4798(21) 0.8118(8) 0.5906(7)
C1 C 0.5062(25) 0.8518(10) 0.6499(9)
H1 H 0.501 0.909 0.647
S3 S 0.8159(6) 0.91815(23) 0.45259(18)
S4 S 0.7994(6) 0.79790(22) 0.42164(19)
N3 N 0.7745(18) 0.9550(8) 0.3736(6)
N4 N 0.7550(19) 0.8183(8) 0.3397(6)
C2 C 0.7464(23) 0.8959(11) 0.3253(9)
H2 H 0.713 0.912 0.279
S5 S 0.0670(6) 0.52933(25) 0.30090(20)
S6 S 0.1032(6) 0.62548(25) 0.36967(21)
N5 N 0.0952(22) 0.4587(8) 0.3622(6)
N6 N 0.1413(21) 0.5680(8) 0.4371(7)
C3 C 0.133(3) 0.4906(11) 0.4248(7)
H3 H 0.152 0.454 0.463
S7 S 0.9846(6) 0.7209(3) 0.69275(20)
S8 S 0.9421(6) 0.7139(3) 0.58559(19)
N7 N 0.9980(21) 0.8198(8) 0.6925(6)
N8 N 0.9436(19) 0.8116(8) 0.5738(6)
C4 C 0.9673(23) 0.8535(10) 0.6322(9)
H4 H 0.960 0.911 0.632
S9 S 0.3662(6) 0.91551(23) 0.47412(18)
S10 S 0.3492(6) 0.79614(21) 0.43999(17)
N9 N 0.3096(19) 0.9536(8) 0.3988(7)
N10 N 0.2891(18) 0.8187(7) 0.3571(6)
C5 C 0.2806(22) 0.8987(10) 0.3471(7)
H5 H 0.250 0.917 0.301
S11 S 0.5204(6) 0.53230(25) 0.28276(20)
S12 S 0.5498(6) 0.62830(23) 0.35345(20)
N11 N 0.5623(19) 0.4621(7) 0.3427(6)
N12 N 0.5885(20) 0.5709(8) 0.4226(7)
C6 C 0.591(3) 0.4900(10) 0.4062(10)
H6 H 0.616 0.452 0.444
loop_
_geom_bond_atom_site_label_1
_geom_bond_atom_site_label_2
_geom_bond_site_symmetry_1
_geom_bond_site_symmetry_2
S1 S2 1_555 1_555
S2 N2 1_555 1_555
S3 S4 1_555 1_555
S4 N4 1_555 1_555
S5 S6 1_555 1_555
S6 N6 1_555 1_555
S7 S8 1_555 1_555
S8 N8 1_555 1_555
S9 S10 1_555 1_555
S10 N10 1_555 1_555
S11 S12 1_555 1_555
S12 N12 1_555 1_555
N1 S1 1_555 1_555
N2 C1 1_555 1_555
N3 S3 1_555 1_555
N4 C2 1_555 1_555
N5 S5 1_555 1_555
N6 C3 1_555 1_555
N7 S7 1_555 1_555
N8 C4 1_555 1_555
N9 S9 1_555 1_555
N10 C5 1_555 1_555
N11 S11 1_555 1_555
N12 C6 1_555 1_555
C1 N1 1_555 1_555
C2 N3 1_555 1_555
C3 N5 1_555 1_555
C4 N7 1_555 1_555
C5 N9 1_555 1_555
C6 N11 1_555 1_555
H1 C1 1_555 1_555
H2 C2 1_555 1_555
H3 C3 1_555 1_555
H4 C4 1_555 1_555
H5 C5 1_555 1_555
H6 C6 1_555 1_555

#END
