
#######################################################################
#
#                 Cambridge Crystallographic Data Centre
#                                CCDC 
#
#######################################################################
#
# If this CIF has been generated from an entry in the Cambridge 
# Structural Database, then it will include bibliographic, chemical, 
# crystal, experimental, refinement or atomic coordinate data resulting 
# from the CCDC's data processing and validation procedures.
#
#######################################################################

data_PESGAX
_chemical_formula_moiety         'C24 H23 N1 O2'
_chemical_name_systematic        
2-(4-t-Butylphenyl)-6-(4-methoxyphenyl)-1,3-benzoxazole
_symmetry_cell_setting           orthorhombic
_symmetry_space_group_name_H-M   'P 21 21 21'
_symmetry_Int_Tables_number      19
_space_group_name_Hall           'P 2ac 2ab'
loop_
_symmetry_equiv_pos_site_id
_symmetry_equiv_pos_as_xyz
1 x,y,z
2 1/2+x,1/2-y,-z
3 -x,1/2+y,1/2-z
4 1/2-x,-y,1/2+z
_cell_length_a                   6.4320(1)
_cell_length_b                   11.5582(2)
_cell_length_c                   25.2373(5)
_cell_angle_alpha                90
_cell_angle_beta                 90
_cell_angle_gamma                90
_cell_volume                     1876.2
_exptl_crystal_colour            colorless
_exptl_crystal_description       prism
_chemical_melting_point          '100 deg.C'
_cell_formula_units_Z            4
loop_
_atom_site_label
_atom_site_type_symbol
_atom_site_fract_x
_atom_site_fract_y
_atom_site_fract_z
C1 C 0.6407(2) 0.69109(12) 0.89651(5)
C2 C 0.3021(2) 0.87022(13) 0.96722(6)
H1 H 0.1601 0.8485 0.9643
C3 C 0.3622(2) 0.96551(13) 0.99712(6)
H2 H 0.2581 1.0097 1.0145
C4 C 0.5722(2) 0.99917(12) 1.00255(5)
C5 C 0.7266(2) 0.93625(12) 0.97653(5)
H3 H 0.8691 0.9572 0.9790
C6 C 0.6625(2) 0.84231(12) 0.94709(6)
C7 C 0.4576(2) 0.80788(12) 0.94184(5)
C8 C 0.6309(2) 1.10049(12) 1.03558(6)
C9 C 0.8185(2) 1.10186(13) 1.06310(6)
H4 H 0.9065 1.0360 1.0614
C10 C 0.8808(2) 1.19677(14) 1.09300(6)
H5 H 1.0101 1.1957 1.1112
C11 C 0.7525(3) 1.29287(13) 1.09603(6)
C12 C 0.5622(3) 1.29238(14) 1.07001(6)
H6 H 0.4726 1.3574 1.0728
C13 C 0.5021(2) 1.19784(13) 1.03999(6)
H7 H 0.3720 1.1990 1.0222
C14 C 0.9997(3) 1.40153(17) 1.14579(8)
H8 H 1.1033 1.3883 1.1180
H9 H 1.0175 1.3439 1.1739
H10 H 1.0182 1.4793 1.1605
C15 C 0.7194(2) 0.60162(12) 0.86091(5)
C16 C 0.5811(2) 0.55066(13) 0.82546(6)
H11 H 0.4387 0.5723 0.8259
C17 C 0.6504(2) 0.46837(13) 0.78944(6)
H12 H 0.5542 0.4349 0.7654
C18 C 0.8579(2) 0.43387(12) 0.78783(6)
C19 C 0.9926(2) 0.48385(12) 0.82498(6)
H13 H 1.1339 0.4601 0.8256
C20 C 0.9268(2) 0.56658(13) 0.86079(5)
H14 H 1.0225 0.5994 0.8852
C21 C 0.9411(2) 0.34978(13) 0.74625(6)
C22 C 0.7666(3) 0.29360(18) 0.71386(8)
H15 H 0.6717 0.2526 0.7377
H16 H 0.8267 0.2387 0.6885
H17 H 0.6899 0.3536 0.6946
C23 C 1.0687(3) 0.25406(15) 0.77250(7)
H18 H 0.9803 0.2107 0.7971
H19 H 1.1851 0.2885 0.7920
H20 H 1.1225 0.2016 0.7452
C24 C 1.0807(3) 0.41736(16) 0.70786(7)
H21 H 1.1456 0.3635 0.6828
H22 H 1.1890 0.4579 0.7279
H23 H 0.9967 0.4738 0.6883
N1 N 0.44911(19) 0.70987(11) 0.90927(5)
O1 O 0.78379(15) 0.76720(8) 0.91776(4)
O2 O 0.79662(19) 1.39152(10) 1.12388(4)
loop_
_geom_bond_atom_site_label_1
_geom_bond_atom_site_label_2
_geom_bond_site_symmetry_1
_geom_bond_site_symmetry_2
C1 C15 1_555 1_555
C2 H1 1_555 1_555
C3 C2 1_555 1_555
H2 C3 1_555 1_555
C4 C3 1_555 1_555
C5 C4 1_555 1_555
H3 C5 1_555 1_555
C6 C5 1_555 1_555
C7 C2 1_555 1_555
C8 C4 1_555 1_555
C9 C8 1_555 1_555
H4 C9 1_555 1_555
C10 C9 1_555 1_555
H5 C10 1_555 1_555
C11 C10 1_555 1_555
C12 C11 1_555 1_555
H6 C12 1_555 1_555
C13 C8 1_555 1_555
H7 C13 1_555 1_555
C14 H8 1_555 1_555
H9 C14 1_555 1_555
H10 C14 1_555 1_555
C15 C16 1_555 1_555
C16 H11 1_555 1_555
C17 C16 1_555 1_555
H12 C17 1_555 1_555
C18 C17 1_555 1_555
C19 C18 1_555 1_555
H13 C19 1_555 1_555
C20 C15 1_555 1_555
H14 C20 1_555 1_555
C21 C18 1_555 1_555
C22 C21 1_555 1_555
H15 C22 1_555 1_555
H16 C22 1_555 1_555
H17 C22 1_555 1_555
C23 C21 1_555 1_555
H18 C23 1_555 1_555
H19 C23 1_555 1_555
H20 C23 1_555 1_555
C24 C21 1_555 1_555
H21 C24 1_555 1_555
H22 C24 1_555 1_555
H23 C24 1_555 1_555
N1 C1 1_555 1_555
O1 C1 1_555 1_555
O2 C11 1_555 1_555
C6 C7 1_555 1_555
C6 O1 1_555 1_555
C7 N1 1_555 1_555
C12 C13 1_555 1_555
C14 O2 1_555 1_555
C19 C20 1_555 1_555

#END
