
#######################################################################
#
#                 Cambridge Crystallographic Data Centre
#                                CCDC 
#
#######################################################################
#
# If this CIF has been generated from an entry in the Cambridge 
# Structural Database, then it will include bibliographic, chemical, 
# crystal, experimental, refinement or atomic coordinate data resulting 
# from the CCDC's data processing and validation procedures.
#
#######################################################################

data_PESHEC
_chemical_formula_moiety         'C28 H22 N2 O2'
_chemical_name_systematic        
1-(3-(4-Methoxyphenyl)-5-(pyren-1-yl)-4,5-dihydro-1H-pyrazol-1-yl)ethanone
_symmetry_cell_setting           triclinic
_symmetry_space_group_name_H-M   'P -1'
_symmetry_Int_Tables_number      2
_space_group_name_Hall           '-P 1'
loop_
_symmetry_equiv_pos_site_id
_symmetry_equiv_pos_as_xyz
1 x,y,z
2 -x,-y,-z
_cell_length_a                   8.7264(17)
_cell_length_b                   13.335(3)
_cell_length_c                   19.060(4)
_cell_angle_alpha                84.69(3)
_cell_angle_beta                 86.33(3)
_cell_angle_gamma                75.72(3)
_cell_volume                     2138.24
_exptl_crystal_colour            yellow
_exptl_crystal_description       block
_cell_formula_units_Z            4
loop_
_atom_site_label
_atom_site_type_symbol
_atom_site_fract_x
_atom_site_fract_y
_atom_site_fract_z
N1 N 0.5505(3) 0.88803(17) 0.14821(12)
N2 N 0.5244(3) 0.95944(17) 0.19999(12)
O1 O 0.4640(3) 0.82877(19) 0.05652(12)
O2 O 0.6279(2) 1.12364(14) 0.49436(10)
C1 C 1.1050(3) 0.5199(2) 0.07039(14)
C2 C 1.0227(3) 0.6261(2) 0.07434(13)
C3 C 0.6106(3) 1.0756(2) 0.43616(14)
C4 C 0.8041(3) 0.7581(2) 0.12122(14)
C5 C 0.6034(3) 0.9704(2) 0.31708(14)
C6 C 0.7027(3) 0.9766(2) 0.43117(15)
H1 H 0.7673 0.9443 0.4678
C7 C 0.6061(3) 0.9158(2) 0.25329(14)
C8 C 0.8856(3) 0.6533(2) 0.12042(13)
C9 C 1.0537(3) 0.4410(2) 0.11273(15)
C10 C 0.6588(3) 0.7879(2) 0.17016(14)
H2 H 0.6013 0.7330 0.1740
C11 C 0.5063(3) 1.0680(2) 0.32458(15)
H3 H 0.4373 1.0987 0.2892
C12 C 1.0784(3) 0.7044(2) 0.03293(15)
C13 C 0.5088(3) 1.1215(2) 0.38323(15)
H4 H 0.4429 1.1874 0.3870
C14 C 1.1342(4) 0.3374(2) 0.10730(18)
H5 H 1.1014 0.2848 0.1351
C15 C 0.8603(4) 0.8331(2) 0.08012(15)
H6 H 0.8058 0.9024 0.0809
C16 C 0.9189(4) 0.4711(2) 0.15924(15)
H7 H 0.8850 0.4199 0.1881
C17 C 0.6997(3) 0.9253(2) 0.37244(15)
H8 H 0.7638 0.8587 0.3696
C18 C 0.8385(3) 0.5709(2) 0.16323(14)
H9 H 0.7509 0.5866 0.1943
C19 C 1.2902(4) 0.5751(3) -0.01720(16)
H10 H 1.3776 0.5583 -0.0483
C20 C 0.9965(4) 0.8069(2) 0.03779(15)
H11 H 1.0339 0.8592 0.0119
C21 C 1.3146(4) 0.3891(3) 0.01881(19)
H12 H 1.4009 0.3706 -0.0126
C22 C 1.2185(4) 0.6740(3) -0.01241(16)
H13 H 1.2588 0.7248 -0.0386
C23 C 0.6999(3) 0.8077(2) 0.24446(14)
H14 H 0.6685 0.7591 0.2801
H15 H 0.8123 0.8024 0.2470
C24 C 1.2393(3) 0.4932(3) 0.02318(15)
C25 C 1.2633(4) 0.3134(3) 0.0603(2)
H16 H 1.3162 0.2443 0.0569
C26 C 0.4511(4) 0.8999(3) 0.09453(16)
C27 C 0.5362(4) 1.2273(2) 0.49947(18)
H17 H 0.5514 1.2685 0.4568
H18 H 0.5692 1.2560 0.5386
H19 H 0.4263 1.2272 0.5064
C28 C 0.3313(4) 1.0018(3) 0.08468(19)
H20 H 0.2431 0.9924 0.0606
H21 H 0.3788 1.0511 0.0573
H22 H 0.2953 1.0269 0.1299
N3 N 1.1041(3) 0.83744(19) 0.70140(14)
N4 N 1.0349(3) 0.92698(19) 0.73530(13)
O3 O 1.2936(3) 0.69095(19) 0.69260(15)
O4 O 0.5844(3) 1.38249(16) 0.76191(11)
C29 C 0.8389(3) 0.60245(18) 0.49135(14)
C30 C 0.9433(3) 0.71747(19) 0.56037(14)
C31 C 0.9165(3) 0.63566(19) 0.42862(14)
C32 C 0.8520(3) 0.64268(18) 0.55668(14)
C33 C 0.7739(3) 0.6079(2) 0.61824(14)
C34 C 0.9035(3) 0.5939(2) 0.36527(15)
H23 H 0.9546 0.6151 0.3243
C35 C 0.9547(3) 0.7547(2) 0.62541(15)
C36 C 0.7883(3) 0.6479(2) 0.68197(15)
H24 H 0.7369 0.6262 0.7227
C37 C 1.0065(3) 0.7102(2) 0.43430(15)
H25 H 1.0591 0.7322 0.3940
C38 C 0.7395(3) 0.4890(2) 0.42318(16)
H26 H 0.6803 0.4403 0.4207
C39 C 0.6729(3) 0.4952(2) 0.55181(16)
H27 H 0.6149 0.4456 0.5505
C40 C 0.7493(3) 0.5275(2) 0.48802(15)
C41 C 0.6823(3) 0.5335(2) 0.61233(17)
H28 H 0.6282 0.5118 0.6522
C42 C 0.8150(4) 0.5212(2) 0.36316(17)
H29 H 0.8066 0.4941 0.3207
C43 C 0.6482(3) 1.2481(2) 0.68756(14)
H30 H 0.5706 1.2872 0.6582
C44 C 1.0186(3) 0.7501(2) 0.49554(15)
H31 H 1.0767 0.7999 0.4961
C45 C 0.6783(4) 1.2871(2) 0.74837(15)
C46 C 0.9399(3) 0.9895(2) 0.69243(15)
C47 C 1.0437(4) 0.8378(2) 0.63122(16)
H32 H 1.1312 0.8305 0.5957
C48 C 0.8779(3) 0.7195(2) 0.68535(15)
H33 H 0.8871 0.7445 0.7285
C49 C 0.8510(3) 1.0909(2) 0.71228(14)
C50 C 0.7325(3) 1.1512(2) 0.67021(15)
H34 H 0.7098 1.1256 0.6294
C51 C 0.8807(4) 1.1329(2) 0.77245(16)
H35 H 0.9595 1.0946 0.8016
C52 C 0.7976(4) 1.2293(2) 0.79041(16)
H36 H 0.8214 1.2558 0.8307
C53 C 0.9353(4) 0.9484(2) 0.62229(15)
H37 H 0.9759 0.9902 0.5847
H38 H 0.8285 0.9466 0.6123
C54 C 1.2851(5) 0.7803(3) 0.79655(19)
H39 H 1.1986 0.7854 0.8309
H40 H 1.3213 0.8430 0.7932
H41 H 1.3700 0.7225 0.8107
C55 C 0.6176(5) 1.4302(3) 0.82140(18)
H42 H 0.6056 1.3872 0.8637
H43 H 0.5453 1.4970 0.8240
H44 H 0.7241 1.4383 0.8165
C56 C 1.2314(4) 0.7646(3) 0.7267(2)
loop_
_geom_bond_atom_site_label_1
_geom_bond_atom_site_label_2
_geom_bond_site_symmetry_1
_geom_bond_site_symmetry_2
N1 N2 1_555 1_555
N2 C7 1_555 1_555
O1 C26 1_555 1_555
O2 C3 1_555 1_555
C1 C2 1_555 1_555
C2 C8 1_555 1_555
C3 C6 1_555 1_555
C4 C8 1_555 1_555
C5 C7 1_555 1_555
C6 H1 1_555 1_555
C7 C23 1_555 1_555
C8 C18 1_555 1_555
C9 C1 1_555 1_555
C10 N1 1_555 1_555
H2 C10 1_555 1_555
C11 C5 1_555 1_555
H3 C11 1_555 1_555
C12 C2 1_555 1_555
C13 C3 1_555 1_555
H4 C13 1_555 1_555
C14 C9 1_555 1_555
H5 C14 1_555 1_555
C15 C4 1_555 1_555
H6 C15 1_555 1_555
C16 C9 1_555 1_555
H7 C16 1_555 1_555
C17 C5 1_555 1_555
H8 C17 1_555 1_555
C18 C16 1_555 1_555
H9 C18 1_555 1_555
C19 H10 1_555 1_555
C20 C12 1_555 1_555
H11 C20 1_555 1_555
C21 H12 1_555 1_555
C22 C12 1_555 1_555
H13 C22 1_555 1_555
C23 C10 1_555 1_555
H14 C23 1_555 1_555
H15 C23 1_555 1_555
C24 C1 1_555 1_555
C25 C14 1_555 1_555
H16 C25 1_555 1_555
C26 N1 1_555 1_555
C27 O2 1_555 1_555
H17 C27 1_555 1_555
H18 C27 1_555 1_555
H19 C27 1_555 1_555
C28 C26 1_555 1_555
H20 C28 1_555 1_555
H21 C28 1_555 1_555
H22 C28 1_555 1_555
N3 N4 1_555 1_555
N4 C46 1_555 1_555
O3 C56 1_555 1_555
O4 C45 1_555 1_555
C29 C31 1_555 1_555
C30 C32 1_555 1_555
C31 C34 1_555 1_555
C32 C29 1_555 1_555
C33 C32 1_555 1_555
C34 H23 1_555 1_555
C35 C30 1_555 1_555
C36 C33 1_555 1_555
H24 C36 1_555 1_555
C37 C31 1_555 1_555
H25 C37 1_555 1_555
C38 H26 1_555 1_555
C39 H27 1_555 1_555
C40 C29 1_555 1_555
C41 C33 1_555 1_555
H28 C41 1_555 1_555
C42 C34 1_555 1_555
H29 C42 1_555 1_555
C43 H30 1_555 1_555
C44 C30 1_555 1_555
H31 C44 1_555 1_555
C45 C43 1_555 1_555
C46 C49 1_555 1_555
C47 N3 1_555 1_555
H32 C47 1_555 1_555
C48 C35 1_555 1_555
H33 C48 1_555 1_555
C49 C50 1_555 1_555
C50 C43 1_555 1_555
H34 C50 1_555 1_555
C51 C49 1_555 1_555
H35 C51 1_555 1_555
C52 C45 1_555 1_555
H36 C52 1_555 1_555
C53 C46 1_555 1_555
H37 C53 1_555 1_555
H38 C53 1_555 1_555
C54 H39 1_555 1_555
H40 C54 1_555 1_555
H41 C54 1_555 1_555
C55 O4 1_555 1_555
H42 C55 1_555 1_555
H43 C55 1_555 1_555
H44 C55 1_555 1_555
C56 N3 1_555 1_555
C4 C10 1_555 1_555
C6 C17 1_555 1_555
C11 C13 1_555 1_555
C15 C20 1_555 1_555
C19 C22 1_555 1_555
C19 C24 1_555 1_555
C21 C24 1_555 1_555
C21 C25 1_555 1_555
C35 C47 1_555 1_555
C36 C48 1_555 1_555
C37 C44 1_555 1_555
C38 C40 1_555 1_555
C38 C42 1_555 1_555
C39 C40 1_555 1_555
C39 C41 1_555 1_555
C47 C53 1_555 1_555
C51 C52 1_555 1_555
C54 C56 1_555 1_555

#END
