
#######################################################################
#
#                 Cambridge Crystallographic Data Centre
#                                CCDC 
#
#######################################################################
#
# If this CIF has been generated from an entry in the Cambridge 
# Structural Database, then it will include bibliographic, chemical, 
# crystal, experimental, refinement or atomic coordinate data resulting 
# from the CCDC's data processing and validation procedures.
#
#######################################################################

data_PESHIG
_chemical_formula_moiety         'C28 H22 N2 O2,C6 H6 O1'
_chemical_name_systematic        
'1-(3-(4-Methoxyphenyl)-5-(pyren-1-yl)-4,5-dihydro-1H-pyrazol-1-yl)ethanone phenol'
_symmetry_cell_setting           monoclinic
_symmetry_space_group_name_H-M   'P c'
_symmetry_Int_Tables_number      7
_space_group_name_Hall           'P -2yc'
loop_
_symmetry_equiv_pos_site_id
_symmetry_equiv_pos_as_xyz
1 x,y,z
2 x,-y,1/2+z
_cell_length_a                   8.9740(18)
_cell_length_b                   9.951(2)
_cell_length_c                   29.751(6)
_cell_angle_alpha                90
_cell_angle_beta                 90.34(3)
_cell_angle_gamma                90
_cell_volume                     2656.73
_cell_formula_units_Z            4
loop_
_atom_site_label
_atom_site_type_symbol
_atom_site_fract_x
_atom_site_fract_y
_atom_site_fract_z
O1 O 0.5571(7) 0.4627(6) 0.75075(17)
O2 O -0.0179(8) 0.1265(7) 0.4850(2)
N1 N 0.4080(9) 0.3764(8) 0.6961(2)
N2 N 0.3489(7) 0.3740(7) 0.65224(19)
C1 C 0.2584(10) 0.2716(9) 0.8080(3)
C2 C 0.3451(11) 0.1539(10) 0.8174(3)
H1 H 0.3985 0.1137 0.7943
C3 C 0.3511(11) 0.0983(11) 0.8604(3)
H2 H 0.4093 0.0227 0.8659
C4 C 0.2672(12) 0.1582(12) 0.8964(4)
C5 C 0.1793(11) 0.2700(12) 0.8878(3)
C6 C 0.1666(10) 0.3263(10) 0.8430(3)
C7 C 0.2651(16) 0.1050(13) 0.9408(4)
H3 H 0.3231 0.0300 0.9474
C8 C 0.1818(16) 0.1598(17) 0.9739(4)
H4 H 0.1861 0.1244 1.0028
C9 C 0.0911(15) 0.2673(15) 0.9648(3)
H5 H 0.0298 0.3004 0.9874
C10 C 0.0882(14) 0.3276(14) 0.9231(4)
C11 C -0.0109(15) 0.4399(14) 0.9119(3)
H6 H -0.0732 0.4752 0.9338
C12 C -0.0131(14) 0.4935(11) 0.8694(3)
H7 H -0.0758 0.5652 0.8626
C13 C 0.0820(11) 0.4384(11) 0.8354(3)
C14 C 0.0703(10) 0.4942(9) 0.7898(3)
H8 H 0.0016 0.5616 0.7833
C15 C 0.1645(11) 0.4441(8) 0.7560(3)
H9 H 0.1686 0.4879 0.7284
C16 C 0.2518(10) 0.3300(10) 0.7632(3)
C17 C 0.3394(10) 0.2713(9) 0.7256(2)
H10 H 0.4178 0.2132 0.7379
C18 C 0.2448(11) 0.1925(9) 0.6927(2)
H11 H 0.1405 0.1934 0.7011
H12 H 0.2786 0.1003 0.6901
C19 C 0.2730(10) 0.2756(10) 0.6471(3)
C20 C 0.5064(11) 0.4662(9) 0.7103(3)
C21 C 0.5633(11) 0.5749(8) 0.6788(3)
H13 H 0.5152 0.5661 0.6501
H14 H 0.6691 0.5654 0.6753
H15 H 0.5416 0.6617 0.6913
C22 C 0.1902(11) 0.2332(9) 0.6064(3)
C23 C 0.0998(9) 0.1243(8) 0.6018(2)
H16 H 0.0817 0.0701 0.6267
C24 C 0.0360(12) 0.0934(10) 0.5621(3)
H17 H -0.0248 0.0179 0.5604
C25 C 0.0569(10) 0.1679(10) 0.5246(3)
C26 C 0.1457(9) 0.2813(10) 0.5257(3)
H18 H 0.1598 0.3327 0.5000
C27 C 0.2163(11) 0.3184(10) 0.5678(3)
H19 H 0.2763 0.3943 0.5699
C28 C -0.0037(14) 0.2043(11) 0.4472(3)
H20 H -0.0610 0.1656 0.4231
H21 H 0.0992 0.2085 0.4388
H22 H -0.0395 0.2933 0.4533
O3 O 0.1744(9) -0.2193(7) 0.7041(2)
H23 H 0.1423 -0.1597 0.7205
C29 C 0.0712(13) -0.2400(10) 0.6664(3)
C30 C -0.0522(12) -0.1759(10) 0.6619(3)
H24 H -0.0819 -0.1134 0.6833
C31 C -0.1447(13) -0.2035(11) 0.6225(3)
H25 H -0.2381 -0.1638 0.6198
C32 C -0.0936(13) -0.2896(11) 0.5887(4)
H26 H -0.1489 -0.3035 0.5626
C33 C 0.0447(11) -0.3550(10) 0.5955(3)
H27 H 0.0794 -0.4152 0.5740
C34 C 0.1284(16) -0.3304(10) 0.6334(3)
H28 H 0.2204 -0.3718 0.6376
O4 O 1.0494(8) -0.0164(6) 0.75338(19)
O5 O 0.5468(9) 0.2793(8) 1.0309(2)
N3 N 0.9159(8) 0.0611(8) 0.8101(2)
N4 N 0.8728(8) 0.0632(7) 0.8554(2)
C35 C 0.7464(10) 0.1696(9) 0.7006(3)
C36 C 0.8304(11) 0.2875(10) 0.6898(3)
H29 H 0.8855 0.3299 0.7123
C37 C 0.8316(13) 0.3385(10) 0.6478(3)
H30 H 0.8912 0.4129 0.6421
C38 C 0.7446(10) 0.2828(10) 0.6113(3)
C39 C 0.6610(11) 0.1681(12) 0.6221(3)
C40 C 0.6603(9) 0.1160(9) 0.6664(3)
C41 C 0.7410(16) 0.3370(12) 0.5693(3)
H31 H 0.7931 0.4156 0.5631
C42 C 0.6611(16) 0.2755(14) 0.5371(4)
H32 H 0.6688 0.3102 0.5082
C43 C 0.5635(13) 0.1596(13) 0.5429(3)
H33 H 0.5049 0.1228 0.5201
C44 C 0.5694(12) 0.1098(13) 0.5878(3)
C45 C 0.4811(17) -0.0034(13) 0.5998(4)
H34 H 0.4231 -0.0424 0.5774
C46 C 0.4748(14) -0.0564(11) 0.6394(3)
H35 H 0.4117 -0.1282 0.6456
C47 C 0.5720(13) 0.0018(10) 0.6742(3)
C48 C 0.5732(11) -0.0492(10) 0.7166(3)
H36 H 0.5113 -0.1218 0.7227
C49 C 0.6615(11) 0.0006(10) 0.7516(3)
H37 H 0.6598 -0.0401 0.7798
C50 C 0.7500(10) 0.1093(9) 0.7442(3)
C51 C 0.8463(10) 0.1660(8) 0.7825(2)
H38 H 0.9234 0.2250 0.7702
C52 C 0.7499(10) 0.2463(8) 0.8182(2)
H39 H 0.7827 0.3388 0.8212
H40 H 0.6445 0.2443 0.8108
C53 C 0.7853(9) 0.1645(9) 0.8596(2)
C54 C 1.0088(10) -0.0268(10) 0.7937(3)
C55 C 1.0756(12) -0.1354(9) 0.8259(3)
H41 H 1.0316 -0.1267 0.8550
H42 H 1.1814 -0.1231 0.8283
H43 H 1.0549 -0.2233 0.8140
C56 C 0.7162(11) 0.1964(10) 0.9038(3)
C57 C 0.7544(11) 0.1205(9) 0.9432(3)
H44 H 0.8232 0.0509 0.9412
C58 C 0.6894(13) 0.1501(9) 0.9846(3)
H45 H 0.7045 0.0957 1.0097
C59 C 0.6049(10) 0.2597(11) 0.9865(3)
C60 C 0.5653(13) 0.3373(9) 0.9496(3)
H46 H 0.4974 0.4076 0.9517
C61 C 0.6345(11) 0.3030(10) 0.9087(3)
H47 H 0.6209 0.3594 0.8841
C62 C 0.4464(12) 0.3884(11) 1.0373(4)
H48 H 0.4134 0.3894 1.0679
H49 H 0.3621 0.3780 1.0176
H50 H 0.4961 0.4714 1.0307
O6 O 0.6765(10) -0.3402(7) 0.8005(2)
H51 H 0.6397 -0.4009 0.7854
C63 C 0.5851(12) -0.3153(11) 0.8391(3)
C64 C 0.6455(15) -0.2318(11) 0.8698(3)
H52 H 0.7368 -0.1903 0.8649
C65 C 0.5646(12) -0.2094(10) 0.9099(4)
H53 H 0.5962 -0.1448 0.9304
C66 C 0.4448(13) -0.2809(11) 0.9177(3)
H54 H 0.3963 -0.2694 0.9449
C67 C 0.3856(14) -0.3749(11) 0.8866(4)
H55 H 0.2993 -0.4234 0.8925
C68 C 0.4667(12) -0.3908(10) 0.8457(3)
H56 H 0.4364 -0.4531 0.8242
loop_
_geom_bond_atom_site_label_1
_geom_bond_atom_site_label_2
_geom_bond_site_symmetry_1
_geom_bond_site_symmetry_2
O1 C20 1_555 1_555
O2 C25 1_555 1_555
N1 N2 1_555 1_555
N2 C19 1_555 1_555
C1 C2 1_555 1_555
C2 H1 1_555 1_555
C3 C2 1_555 1_555
H2 C3 1_555 1_555
C4 C3 1_555 1_555
C5 C4 1_555 1_555
C6 C1 1_555 1_555
C7 C4 1_555 1_555
H3 C7 1_555 1_555
C8 C7 1_555 1_555
H4 C8 1_555 1_555
C9 C8 1_555 1_555
H5 C9 1_555 1_555
C10 C5 1_555 1_555
C11 C10 1_555 1_555
H6 C11 1_555 1_555
C12 C11 1_555 1_555
H7 C12 1_555 1_555
C13 C6 1_555 1_555
C14 C13 1_555 1_555
H8 C14 1_555 1_555
C15 C14 1_555 1_555
H9 C15 1_555 1_555
C16 C1 1_555 1_555
C17 N1 1_555 1_555
H10 C17 1_555 1_555
C18 C17 1_555 1_555
H11 C18 1_555 1_555
H12 C18 1_555 1_555
C19 C18 1_555 1_555
C20 N1 1_555 1_555
C21 C20 1_555 1_555
H13 C21 1_555 1_555
H14 C21 1_555 1_555
H15 C21 1_555 1_555
C22 C19 1_555 1_555
C23 C22 1_555 1_555
H16 C23 1_555 1_555
C24 C23 1_555 1_555
H17 C24 1_555 1_555
C25 C24 1_555 1_555
C26 C25 1_555 1_555
H18 C26 1_555 1_555
C27 C22 1_555 1_555
H19 C27 1_555 1_555
C28 O2 1_555 1_555
H20 C28 1_555 1_555
H21 C28 1_555 1_555
H22 C28 1_555 1_555
O3 H23 1_555 1_555
C29 O3 1_555 1_555
C30 C29 1_555 1_555
H24 C30 1_555 1_555
C31 C30 1_555 1_555
H25 C31 1_555 1_555
C32 C31 1_555 1_555
H26 C32 1_555 1_555
C33 C32 1_555 1_555
H27 C33 1_555 1_555
C34 C29 1_555 1_555
H28 C34 1_555 1_555
O4 C54 1_555 1_555
O5 C59 1_555 1_555
N3 N4 1_555 1_555
N4 C53 1_555 1_555
C35 C36 1_555 1_555
C36 H29 1_555 1_555
C37 C36 1_555 1_555
H30 C37 1_555 1_555
C38 C37 1_555 1_555
C39 C38 1_555 1_555
C40 C35 1_555 1_555
C41 C38 1_555 1_555
H31 C41 1_555 1_555
C42 C41 1_555 1_555
H32 C42 1_555 1_555
C43 C42 1_555 1_555
H33 C43 1_555 1_555
C44 C39 1_555 1_555
C45 C44 1_555 1_555
H34 C45 1_555 1_555
C46 C45 1_555 1_555
H35 C46 1_555 1_555
C47 C40 1_555 1_555
C48 C47 1_555 1_555
H36 C48 1_555 1_555
C49 C48 1_555 1_555
H37 C49 1_555 1_555
C50 C35 1_555 1_555
C51 N3 1_555 1_555
H38 C51 1_555 1_555
C52 C51 1_555 1_555
H39 C52 1_555 1_555
H40 C52 1_555 1_555
C53 C52 1_555 1_555
C54 N3 1_555 1_555
C55 C54 1_555 1_555
H41 C55 1_555 1_555
H42 C55 1_555 1_555
H43 C55 1_555 1_555
C56 C53 1_555 1_555
C57 C56 1_555 1_555
H44 C57 1_555 1_555
C58 C57 1_555 1_555
H45 C58 1_555 1_555
C59 C58 1_555 1_555
C60 C59 1_555 1_555
H46 C60 1_555 1_555
C61 C56 1_555 1_555
H47 C61 1_555 1_555
C62 O5 1_555 1_555
H48 C62 1_555 1_555
H49 C62 1_555 1_555
H50 C62 1_555 1_555
O6 H51 1_555 1_555
C63 O6 1_555 1_555
C64 C63 1_555 1_555
H52 C64 1_555 1_555
C65 C64 1_555 1_555
H53 C65 1_555 1_555
C66 C65 1_555 1_555
H54 C66 1_555 1_555
C67 C66 1_555 1_555
H55 C67 1_555 1_555
C68 C63 1_555 1_555
H56 C68 1_555 1_555
C5 C6 1_555 1_555
C9 C10 1_555 1_555
C12 C13 1_555 1_555
C15 C16 1_555 1_555
C16 C17 1_555 1_555
C26 C27 1_555 1_555
C33 C34 1_555 1_555
C39 C40 1_555 1_555
C43 C44 1_555 1_555
C46 C47 1_555 1_555
C49 C50 1_555 1_555
C50 C51 1_555 1_555
C60 C61 1_555 1_555
C67 C68 1_555 1_555

#END
