
#######################################################################
#
#                 Cambridge Crystallographic Data Centre
#                                CCDC 
#
#######################################################################
#
# If this CIF has been generated from an entry in the Cambridge 
# Structural Database, then it will include bibliographic, chemical, 
# crystal, experimental, refinement or atomic coordinate data resulting 
# from the CCDC's data processing and validation procedures.
#
#######################################################################

data_PESHIF
_chemical_formula_moiety         'C8 H10 Cl2 N4'
_chemical_name_systematic        
2,4-Dichloro-6-(piperidin-1-yl)-1,3,5-triazine
_symmetry_cell_setting           monoclinic
_symmetry_space_group_name_H-M   'C 2/c'
_symmetry_Int_Tables_number      15
_space_group_name_Hall           '-C 2yn'
loop_
_symmetry_equiv_pos_site_id
_symmetry_equiv_pos_as_xyz
1 x,y,z
2 1/2+x,1/2+y,z
3 -x,y,1/2-z
4 1/2-x,1/2+y,1/2-z
5 -x,-y,-z
6 1/2-x,1/2-y,-z
7 x,-y,1/2+z
8 1/2+x,1/2-y,1/2+z
_cell_length_a                   16.666(4)
_cell_length_b                   7.615(2)
_cell_length_c                   17.493(5)
_cell_angle_alpha                90
_cell_angle_beta                 107.951(4)
_cell_angle_gamma                90
_cell_volume                     2111.99
_exptl_crystal_colour            colorless
_exptl_crystal_description       block
_chemical_melting_point          90.2-91.0deg.C
_cell_formula_units_Z            8
_exptl_crystal_recrystallization_method acetone
loop_
_atom_site_label
_atom_site_type_symbol
_atom_site_fract_x
_atom_site_fract_y
_atom_site_fract_z
Cl1 Cl 0.06320(6) 0.75817(9) 1.18343(4)
Cl2 Cl 0.15307(6) 1.34118(9) 1.08656(5)
N1 N 0.10614(12) 1.0442(2) 1.12818(11)
N2 N 0.12568(12) 1.0623(2) 0.99921(11)
N3 N 0.08202(12) 0.7926(2) 1.04350(11)
N4 N 0.10061(12) 0.8162(2) 0.91871(11)
C1 C 0.08612(14) 0.8781(3) 1.10888(13)
C2 C 0.12518(15) 1.1242(3) 1.06844(14)
C3 C 0.10267(13) 0.8913(3) 0.98749(13)
C4 C 0.12425(17) 0.9081(3) 0.85518(14)
H1 H 0.1427 1.0263 0.8727
H2 H 0.0757 0.9163 0.8074
C5 C 0.19403(17) 0.8111(4) 0.83581(16)
H3 H 0.2446 0.8153 0.8818
H4 H 0.2063 0.8682 0.7911
C6 C 0.17014(18) 0.6217(4) 0.81435(16)
H5 H 0.2178 0.5599 0.8064
H6 H 0.1240 0.6170 0.7645
C7 C 0.14391(17) 0.5327(3) 0.88051(16)
H7 H 0.1245 0.4146 0.8638
H8 H 0.1922 0.5242 0.9285
C8 C 0.07469(16) 0.6336(3) 0.89944(16)
H9 H 0.0240 0.6302 0.8536
H10 H 0.0622 0.5797 0.9447
loop_
_geom_bond_atom_site_label_1
_geom_bond_atom_site_label_2
_geom_bond_site_symmetry_1
_geom_bond_site_symmetry_2
Cl1 C1 1_555 1_555
Cl2 C2 1_555 1_555
N1 C1 1_555 1_555
N2 C2 1_555 1_555
N3 C1 1_555 1_555
N4 C3 1_555 1_555
C2 N1 1_555 1_555
C3 N2 1_555 1_555
C4 N4 1_555 1_555
H1 C4 1_555 1_555
H2 C4 1_555 1_555
C5 C4 1_555 1_555
H3 C5 1_555 1_555
H4 C5 1_555 1_555
C6 C5 1_555 1_555
H5 C6 1_555 1_555
H6 C6 1_555 1_555
C7 C6 1_555 1_555
H7 C7 1_555 1_555
H8 C7 1_555 1_555
C8 N4 1_555 1_555
H9 C8 1_555 1_555
H10 C8 1_555 1_555
N3 C3 1_555 1_555
C7 C8 1_555 1_555

#END
