
#######################################################################
#
#                 Cambridge Crystallographic Data Centre
#                                CCDC 
#
#######################################################################
#
# If this CIF has been generated from an entry in the Cambridge 
# Structural Database, then it will include bibliographic, chemical, 
# crystal, experimental, refinement or atomic coordinate data resulting 
# from the CCDC's data processing and validation procedures.
#
#######################################################################

data_PESHOL
_chemical_formula_moiety         'C12 H11 N1 O3'
_chemical_name_systematic        7-Acetamido-4-methyl-2H-1-benzopyran-2-one
_symmetry_cell_setting           triclinic
_symmetry_space_group_name_H-M   'P -1'
_symmetry_Int_Tables_number      2
_space_group_name_Hall           '-P 1'
loop_
_symmetry_equiv_pos_site_id
_symmetry_equiv_pos_as_xyz
1 x,y,z
2 -x,-y,-z
_cell_length_a                   8.011(4)
_cell_length_b                   8.155(4)
_cell_length_c                   8.354(4)
_cell_angle_alpha                86.733(6)
_cell_angle_beta                 87.655(6)
_cell_angle_gamma                71.606(5)
_cell_volume                     516.888
_exptl_crystal_colour            yellow
_exptl_crystal_description       block
_chemical_melting_point          551-553K
_cell_formula_units_Z            2
_exptl_crystal_recrystallization_method dmf
loop_
_atom_site_label
_atom_site_type_symbol
_atom_site_fract_x
_atom_site_fract_y
_atom_site_fract_z
N1 N 0.6235(2) 0.6383(2) 0.1971(2)
H1 H 0.5453 0.7233 0.2404
O1 O 1.13465(19) 0.1550(2) 0.31004(18)
O2 O 1.3734(2) -0.0657(2) 0.3472(2)
O3 O 0.7257(3) 0.5268(3) -0.0414(2)
C1 C 1.2480(3) 0.0368(3) 0.4111(3)
C2 C 1.2076(3) 0.0468(3) 0.5784(3)
H2 H 1.2828 -0.0329 0.6483
C3 C 1.0660(3) 0.1658(3) 0.6408(3)
C4 C 0.9500(3) 0.2899(3) 0.5318(3)
C5 C 0.8000(3) 0.4241(3) 0.5784(3)
H3 H 0.7704 0.4369 0.6868
C6 C 0.6966(3) 0.5361(3) 0.4673(3)
H4 H 0.5987 0.6246 0.5012
C7 C 0.7366(3) 0.5190(3) 0.3033(3)
C8 C 0.8849(3) 0.3892(3) 0.2537(3)
H5 H 0.9143 0.3765 0.1452
C9 C 0.9880(3) 0.2794(3) 0.3682(3)
C10 C 1.0279(4) 0.1696(4) 0.8177(3)
H6 H 1.1161 0.0770 0.8715
H7 H 0.9143 0.1559 0.8395
H8 H 1.0288 0.2783 0.8555
C11 C 0.6212(3) 0.6372(3) 0.0351(3)
C12 C 0.4799(3) 0.7803(4) -0.0454(3)
H9 H 0.4113 0.8558 0.0338
H10 H 0.4053 0.7324 -0.1016
H11 H 0.5325 0.8445 -0.1201
loop_
_geom_bond_atom_site_label_1
_geom_bond_atom_site_label_2
_geom_bond_site_symmetry_1
_geom_bond_site_symmetry_2
N1 H1 1_555 1_555
O1 C1 1_555 1_555
O2 C1 1_555 1_555
O3 C11 1_555 1_555
C1 C2 1_555 1_555
C2 H2 1_555 1_555
C3 C2 1_555 1_555
C4 C3 1_555 1_555
C5 C4 1_555 1_555
H3 C5 1_555 1_555
C6 C5 1_555 1_555
H4 C6 1_555 1_555
C7 N1 1_555 1_555
C8 C7 1_555 1_555
H5 C8 1_555 1_555
C9 O1 1_555 1_555
C10 C3 1_555 1_555
H6 C10 1_555 1_555
H7 C10 1_555 1_555
H8 C10 1_555 1_555
C11 N1 1_555 1_555
C12 C11 1_555 1_555
H9 C12 1_555 1_555
H10 C12 1_555 1_555
H11 C12 1_555 1_555
C4 C9 1_555 1_555
C6 C7 1_555 1_555
C8 C9 1_555 1_555

#END
