
#######################################################################
#
#                 Cambridge Crystallographic Data Centre
#                                CCDC 
#
#######################################################################
#
# If this CIF has been generated from an entry in the Cambridge 
# Structural Database, then it will include bibliographic, chemical, 
# crystal, experimental, refinement or atomic coordinate data resulting 
# from the CCDC's data processing and validation procedures.
#
#######################################################################

data_PESKEF
_chemical_formula_moiety         'C24 H24 O8'
_chemical_name_systematic        
'Dimethyl 2,4-bis(4-acetoxyphenyl)cyclobutane-1,3-dicarboxylate'
_symmetry_cell_setting           monoclinic
_symmetry_space_group_name_H-M   'P 21/c'
_symmetry_Int_Tables_number      14
_space_group_name_Hall           '-P 2ybc'
loop_
_symmetry_equiv_pos_site_id
_symmetry_equiv_pos_as_xyz
1 x,y,z
2 -x,1/2+y,1/2-z
3 -x,-y,-z
4 x,1/2-y,1/2+z
_cell_length_a                   14.0632(14)
_cell_length_b                   7.2591(7)
_cell_length_c                   11.4968(11)
_cell_angle_alpha                90
_cell_angle_beta                 111.2380(10)
_cell_angle_gamma                90
_cell_volume                     1093.95
_exptl_crystal_colour            colorless
_exptl_crystal_description       block
_cell_formula_units_Z            2
_exptl_crystal_recrystallization_method dichloromethane
loop_
_atom_site_label
_atom_site_type_symbol
_atom_site_fract_x
_atom_site_fract_y
_atom_site_fract_z
O1 O 0.40571(7) 1.16170(14) 0.70447(9)
O2 O 0.37061(6) 1.03144(11) 0.51547(7)
O3 O -0.15609(5) 0.62160(10) 0.63690(7)
O4 O -0.01918(6) 0.45178(11) 0.74756(7)
C1 C 0.07922(6) 0.52547(12) 0.56733(8)
H1 H 0.1083 0.4460 0.6431
C2 C -0.02810(6) 0.59662(12) 0.55398(8)
H2 H -0.0358 0.7312 0.5344
C3 C 0.15643(6) 0.66468(12) 0.56090(8)
C4 C 0.12643(7) 0.81903(13) 0.48330(9)
H3 H 0.0559 0.8404 0.4386
C5 C 0.19783(7) 0.94176(14) 0.47037(9)
H4 H 0.1767 1.0460 0.4173
C6 C 0.30021(7) 0.90932(14) 0.53623(9)
C7 C 0.33327(7) 0.75750(15) 0.61304(9)
H5 H 0.4040 0.7367 0.6567
C8 C 0.26084(7) 0.63551(14) 0.62525(9)
H6 H 0.2827 0.5310 0.6780
C9 C 0.48016(10) 1.28721(18) 0.56311(13)
H7 H 0.4932 1.3996 0.6137
H8 H 0.4440 1.3187 0.4752
H9 H 0.5452 1.2279 0.5727
C10 C 0.41631(7) 1.15803(15) 0.60551(10)
C11 C -0.06366(7) 0.54800(13) 0.65889(8)
C12 C -0.20546(9) 0.56977(18) 0.72249(12)
H10 H -0.2201 0.4374 0.7150
H11 H -0.2694 0.6386 0.7024
H12 H -0.1604 0.5982 0.8081
O1B O -0.40571(7) -0.16170(14) 0.29553(9)
O2B O -0.37061(6) -0.03144(11) 0.48453(7)
O3B O 0.15609(5) 0.37840(10) 0.36310(7)
O4B O 0.01918(6) 0.54822(11) 0.25244(7)
C1B C -0.07922(6) 0.47453(12) 0.43267(8)
H1B H -0.1083 0.5540 0.3569
C2B C 0.02810(6) 0.40338(12) 0.44602(8)
H2B H 0.0358 0.2688 0.4656
C3B C -0.15643(6) 0.33532(12) 0.43910(8)
C4B C -0.12643(7) 0.18097(13) 0.51670(9)
H3B H -0.0559 0.1596 0.5614
C5B C -0.19783(7) 0.05824(14) 0.52963(9)
H4B H -0.1767 -0.0460 0.5827
C6B C -0.30021(7) 0.09068(14) 0.46377(9)
C7B C -0.33327(7) 0.24250(15) 0.38696(9)
H5B H -0.4040 0.2633 0.3433
C8B C -0.26084(7) 0.36449(14) 0.37475(9)
H6B H -0.2827 0.4690 0.3220
C9B C -0.48016(10) -0.28721(18) 0.43689(13)
H7B H -0.4932 -0.3996 0.3863
H8B H -0.4440 -0.3187 0.5248
H9B H -0.5452 -0.2279 0.4273
C10B C -0.41631(7) -0.15803(15) 0.39449(10)
C11B C 0.06366(7) 0.45200(13) 0.34111(8)
C12B C 0.20546(9) 0.43023(18) 0.27751(12)
H10B H 0.2201 0.5626 0.2850
H11B H 0.2694 0.3614 0.2976
H12B H 0.1604 0.4018 0.1919
loop_
_geom_bond_atom_site_label_1
_geom_bond_atom_site_label_2
_geom_bond_site_symmetry_1
_geom_bond_site_symmetry_2
O1 C10 1_555 1_555
O2 C6 1_555 1_555
O3 C11 1_555 1_555
O4 C11 1_555 1_555
C1 H1 1_555 1_555
C2 C1 1_555 1_555
H2 C2 1_555 1_555
C3 C1 1_555 1_555
C4 C3 1_555 1_555
H3 C4 1_555 1_555
C5 C4 1_555 1_555
H4 C5 1_555 1_555
C6 C5 1_555 1_555
C7 C6 1_555 1_555
H5 C7 1_555 1_555
C8 C3 1_555 1_555
H6 C8 1_555 1_555
C9 H7 1_555 1_555
H8 C9 1_555 1_555
H9 C9 1_555 1_555
C10 O2 1_555 1_555
C11 C2 1_555 1_555
C12 O3 1_555 1_555
H10 C12 1_555 1_555
H11 C12 1_555 1_555
H12 C12 1_555 1_555
O1B C10B 1_555 1_555
O2B C6B 1_555 1_555
O3B C11B 1_555 1_555
O4B C11B 1_555 1_555
C1B C2 1_555 1_555
H1B C1B 1_555 1_555
C2B C1 1_555 1_555
H2B C2B 1_555 1_555
C3B C1B 1_555 1_555
C4B C3B 1_555 1_555
H3B C4B 1_555 1_555
C5B C4B 1_555 1_555
H4B C5B 1_555 1_555
C6B C5B 1_555 1_555
C7B C6B 1_555 1_555
H5B C7B 1_555 1_555
C8B C3B 1_555 1_555
H6B C8B 1_555 1_555
C9B H7B 1_555 1_555
H8B C9B 1_555 1_555
H9B C9B 1_555 1_555
C10B O2B 1_555 1_555
C11B C2B 1_555 1_555
C12B O3B 1_555 1_555
H10B C12B 1_555 1_555
H11B C12B 1_555 1_555
H12B C12B 1_555 1_555
C7 C8 1_555 1_555
C9 C10 1_555 1_555
C1B C2B 1_555 1_555
C7B C8B 1_555 1_555
C9B C10B 1_555 1_555

#END
