
#######################################################################
#
#                 Cambridge Crystallographic Data Centre
#                                CCDC 
#
#######################################################################
#
# If this CIF has been generated from an entry in the Cambridge 
# Structural Database, then it will include bibliographic, chemical, 
# crystal, experimental, refinement or atomic coordinate data resulting 
# from the CCDC's data processing and validation procedures.
#
#######################################################################

data_PESKOP
_chemical_compound_source        
'roots of Croton crassifolius Geisel. (Euphorbiaceae)'
_chemical_name_common            'Crassifolin D'
_chemical_formula_moiety         'C21 H24 O6'
_chemical_name_systematic        
"Methyl 5-(3-furyl)-7'-methyl-2-oxo-3',4,4',5,5',7',8',8a'-octahydrospiro[furan-3,6'-naphtho[1,8-bc]furan]-2a'(2'H)-carboxylate"
_symmetry_cell_setting           monoclinic
_symmetry_space_group_name_H-M   'P 21'
_symmetry_Int_Tables_number      4
_space_group_name_Hall           'P 2yb'
loop_
_symmetry_equiv_pos_site_id
_symmetry_equiv_pos_as_xyz
1 x,y,z
2 -x,1/2+y,-z
_cell_length_a                   6.1689(3)
_cell_length_b                   21.3668(9)
_cell_length_c                   7.5017(4)
_cell_angle_alpha                90
_cell_angle_beta                 113.089(6)
_cell_angle_gamma                90
_cell_volume                     909.591
_exptl_crystal_colour            'light colorless'
_exptl_crystal_description       block
_cell_formula_units_Z            2
loop_
_atom_site_label
_atom_site_type_symbol
_atom_site_fract_x
_atom_site_fract_y
_atom_site_fract_z
O1 O 0.6872(3) 0.09764(8) 0.1638(2)
O2 O 0.6198(3) 0.07371(10) 0.4242(3)
O3 O 0.9560(4) -0.09060(10) 0.8409(2)
C1 C 0.9395(4) 0.01996(11) 0.3689(3)
O4 O 1.1181(3) -0.19421(10) 0.6144(3)
C2 C 0.7593(4) -0.13816(11) 0.5310(3)
C3 C 0.8353(4) -0.04539(12) 0.3588(3)
C4 C 0.8933(4) -0.08082(11) 0.5153(3)
C5 C 1.0750(5) 0.00773(13) 0.7349(3)
H1 H 1.1966 0.0189 0.8593
H2 H 0.9268 0.0252 0.7280
O5 O 1.1746(3) 0.21639(10) 0.0098(3)
C6 C 1.0554(5) -0.06232(13) 0.7162(3)
H3 H 1.2119 -0.0801 0.7448
C7 C 0.9358(4) 0.13886(12) 0.0165(3)
C8 C 0.6438(5) -0.06478(13) 0.1678(3)
H4 H 0.7063 -0.0635 0.0677
H5 H 0.5154 -0.0349 0.1332
C9 C 1.1934(5) 0.10387(13) 0.6047(4)
H6 H 1.0606 0.1257 0.6108
H7 H 1.2281 0.1201 0.4994
H8 H 1.3276 0.1096 0.7241
C10 C 0.8879(5) -0.19969(13) 0.5445(4)
C11 C 1.0234(4) 0.03435(12) 0.2044(3)
H9 H 1.1789 0.0532 0.2565
H10 H 1.0304 -0.0038 0.1366
C12 C 1.1577(5) 0.15967(14) 0.0855(4)
H11 H 1.2850 0.1380 0.1744
C13 C 0.7513(5) -0.12521(15) 0.7311(4)
H12 H 0.6111 -0.1015 0.7159
H13 H 0.7483 -0.1643 0.7958
C14 C 0.9519(5) 0.23139(16) -0.1114(5)
H14 H 0.9098 0.2680 -0.1842
C15 C 0.8431(4) 0.07993(12) 0.0667(3)
H15 H 0.7501 0.0577 -0.0534
C16 C 0.7355(4) 0.06572(12) 0.3298(3)
C17 C 0.5478(5) -0.13013(14) 0.1736(4)
H16 H 0.3970 -0.1351 0.0658
H17 H 0.6553 -0.1611 0.1599
C18 C 1.2551(6) -0.25123(16) 0.6549(6)
H18 H 1.2177 -0.2762 0.7455
H19 H 1.4199 -0.2411 0.7092
H20 H 1.2187 -0.2743 0.5369
C19 C 0.8014(5) 0.18656(16) -0.1121(5)
H21 H 0.6394 0.1864 -0.1830
C20 C 1.1360(4) 0.03419(11) 0.5723(3)
H22 H 1.2795 0.0130 0.5782
C21 C 0.5177(5) -0.14107(15) 0.3627(4)
H23 H 0.4465 -0.1817 0.3601
H24 H 0.4148 -0.1093 0.3795
O6 O 0.7902(5) -0.24854(12) 0.5009(6)
loop_
_geom_bond_atom_site_label_1
_geom_bond_atom_site_label_2
_geom_bond_site_symmetry_1
_geom_bond_site_symmetry_2
O1 C15 1_555 1_555
O2 C16 1_555 1_555
O3 C6 1_555 1_555
C1 C3 1_555 1_555
O4 C10 1_555 1_555
C2 C4 1_555 1_555
C3 C4 1_555 1_555
C4 C6 1_555 1_555
C5 H1 1_555 1_555
H2 C5 1_555 1_555
O5 C12 1_555 1_555
C6 C5 1_555 1_555
H3 C6 1_555 1_555
C7 C12 1_555 1_555
C8 C3 1_555 1_555
H4 C8 1_555 1_555
H5 C8 1_555 1_555
C9 H6 1_555 1_555
H7 C9 1_555 1_555
H8 C9 1_555 1_555
C10 C2 1_555 1_555
C11 C1 1_555 1_555
H9 C11 1_555 1_555
H10 C11 1_555 1_555
C12 H11 1_555 1_555
C13 O3 1_555 1_555
H12 C13 1_555 1_555
H13 C13 1_555 1_555
C14 O5 1_555 1_555
H14 C14 1_555 1_555
C15 C7 1_555 1_555
H15 C15 1_555 1_555
C16 O1 1_555 1_555
C17 C8 1_555 1_555
H16 C17 1_555 1_555
H17 C17 1_555 1_555
C18 O4 1_555 1_555
H18 C18 1_555 1_555
H19 C18 1_555 1_555
H20 C18 1_555 1_555
C19 C7 1_555 1_555
H21 C19 1_555 1_555
C20 C1 1_555 1_555
H22 C20 1_555 1_555
C21 C2 1_555 1_555
H23 C21 1_555 1_555
H24 C21 1_555 1_555
O6 C10 1_555 1_555
C1 C16 1_555 1_555
C2 C13 1_555 1_555
C5 C20 1_555 1_555
C9 C20 1_555 1_555
C11 C15 1_555 1_555
C14 C19 1_555 1_555
C17 C21 1_555 1_555

#END
