
#######################################################################
#
#                 Cambridge Crystallographic Data Centre
#                                CCDC 
#
#######################################################################
#
# If this CIF has been generated from an entry in the Cambridge 
# Structural Database, then it will include bibliographic, chemical, 
# crystal, experimental, refinement or atomic coordinate data resulting 
# from the CCDC's data processing and validation procedures.
#
#######################################################################

data_PESKAA
_chemical_formula_moiety         'C28 H52 N2 O4'
_chemical_name_systematic        
'bis(2,2,6,6-Tetramethylpiperidin-4-yl) decane-1,10-dioate'
_symmetry_cell_setting           triclinic
_symmetry_space_group_name_H-M   'P -1'
_symmetry_Int_Tables_number      2
_space_group_name_Hall           '-P 1'
loop_
_symmetry_equiv_pos_site_id
_symmetry_equiv_pos_as_xyz
1 x,y,z
2 -x,-y,-z
_cell_length_a                   6.5450(13)
_cell_length_b                   8.1450(16)
_cell_length_c                   15.863(3)
_cell_angle_alpha                97.26(3)
_cell_angle_beta                 98.66(3)
_cell_angle_gamma                112.91(3)
_cell_volume                     753.998
_exptl_crystal_colour            colorless
_exptl_crystal_description       plate
_cell_formula_units_Z            1
_exptl_crystal_recrystallization_method acetone
loop_
_atom_site_label
_atom_site_type_symbol
_atom_site_fract_x
_atom_site_fract_y
_atom_site_fract_z
O3 O 0.595(3) 0.594(3) 0.6623(13)
O4 O 0.9355(18) 0.600(2) 0.7191(10)
C1 C 0.8005(6) 1.1182(7) 0.8364(4)
H1 H 0.8827 1.0526 0.8594
H2 H 0.7970 1.2039 0.8830
H3 H 0.8742 1.1820 0.7950
C2 C 0.4245(4) 1.0892(7) 0.7552(4)
H4 H 0.4243 1.1760 0.8021
H5 H 0.2708 1.0064 0.7278
H6 H 0.4972 1.1519 0.7133
C3 C 0.2616(3) 0.6409(5) 0.9198(4)
H7 H 0.1226 0.5980 0.8767
H8 H 0.2587 0.7243 0.9677
H9 H 0.2772 0.5396 0.9403
C4 C 0.6807(6) 0.8047(7) 0.9515(4)
H10 H 0.8099 0.8659 0.9277
H11 H 0.6937 0.7027 0.9723
H12 H 0.6750 0.8875 0.9989
C5 C 0.4603(4) 0.7369(6) 0.8799(3)
C6 C 0.4674(4) 0.6076(6) 0.8041(3)
H13 H 0.5186 0.5213 0.8263
H14 H 0.3149 0.5396 0.7686
C7 C 0.6200(6) 0.7030(6) 0.7488(4)
C8 C 0.5534(6) 0.8422(7) 0.7159(3)
H15 H 0.4025 0.7823 0.6784
H16 H 0.6582 0.9046 0.6813
C9 C 0.5543(6) 0.9827(6) 0.7910(3)
N1 N 0.4271(5) 0.8913(5) 0.8537(2)
C10 C 0.7675(5) 0.5489(5) 0.6546(4)
C11 C 0.7234(6) 0.4009(4) 0.5817(3)
H17 H 0.7164 0.4452 0.5278
H18 H 0.5766 0.3029 0.5785
C12 C 0.9035(8) 0.3268(3) 0.5900(3)
H19 H 1.0471 0.4223 0.5874
H20 H 0.9216 0.2952 0.6467
C13 C 0.8523(6) 0.1621(4) 0.5211(3)
H21 H 0.8416 0.1955 0.4645
H22 H 0.7051 0.0689 0.5218
C14 C 1.0253(7) 0.0823(3) 0.5314(3)
H23 H 1.1706 0.1741 0.5277
H24 H 1.0421 0.0559 0.5893
H25 H 0.2727 0.8448 0.8165
H26 H 0.7841 0.7576 0.7665
O3A O 1.405(3) -0.594(3) 0.3377(13)
O4A O 1.0645(18) -0.600(2) 0.2809(10)
C1A C 1.1995(6) -1.1182(7) 0.1636(4)
H1A H 1.1173 -1.0526 0.1406
H2A H 1.2030 -1.2039 0.1170
H3A H 1.1258 -1.1820 0.2050
C2A C 1.5755(4) -1.0892(7) 0.2448(4)
H4A H 1.5757 -1.1760 0.1979
H5A H 1.7292 -1.0064 0.2722
H6A H 1.5028 -1.1519 0.2867
C3A C 1.7384(3) -0.6409(5) 0.0802(4)
H7A H 1.8774 -0.5980 0.1233
H8A H 1.7413 -0.7243 0.0323
H9A H 1.7228 -0.5396 0.0597
C4A C 1.3193(6) -0.8047(7) 0.0485(4)
H10A H 1.1901 -0.8659 0.0723
H11A H 1.3063 -0.7027 0.0277
H12A H 1.3250 -0.8875 0.0011
C5A C 1.5397(4) -0.7369(6) 0.1201(3)
C6A C 1.5326(4) -0.6076(6) 0.1959(3)
H13A H 1.4814 -0.5213 0.1737
H14A H 1.6851 -0.5396 0.2314
C7A C 1.3800(6) -0.7030(6) 0.2512(4)
C8A C 1.4466(6) -0.8422(7) 0.2841(3)
H15A H 1.5975 -0.7823 0.3216
H16A H 1.3418 -0.9046 0.3187
C9A C 1.4457(6) -0.9827(6) 0.2090(3)
N1A N 1.5729(5) -0.8913(5) 0.1463(2)
C10A C 1.2325(5) -0.5489(5) 0.3454(4)
C11A C 1.2766(6) -0.4009(4) 0.4183(3)
H17A H 1.2836 -0.4452 0.4722
H18A H 1.4234 -0.3029 0.4215
C12A C 1.0965(8) -0.3268(3) 0.4100(3)
H19A H 0.9529 -0.4223 0.4126
H20A H 1.0784 -0.2952 0.3533
C13A C 1.1477(6) -0.1621(4) 0.4789(3)
H21A H 1.1584 -0.1955 0.5355
H22A H 1.2949 -0.0689 0.4782
C14A C 0.9747(7) -0.0823(3) 0.4686(3)
H23A H 0.8294 -0.1741 0.4723
H24A H 0.9579 -0.0559 0.4107
H25A H 1.7273 -0.8448 0.1835
H26A H 1.2159 -0.7576 0.2335
O1? O 0.601(2) 0.542(2) 0.6839(12)
O2? O 0.9605(13) 0.6910(15) 0.6751(9)
loop_
_geom_bond_atom_site_label_1
_geom_bond_atom_site_label_2
_geom_bond_site_symmetry_1
_geom_bond_site_symmetry_2
O3 C7 1_555 1_555
O4 C10 1_555 1_555
C1 H1 1_555 1_555
H2 C1 1_555 1_555
H3 C1 1_555 1_555
C2 H4 1_555 1_555
H5 C2 1_555 1_555
H6 C2 1_555 1_555
C3 H7 1_555 1_555
H8 C3 1_555 1_555
H9 C3 1_555 1_555
C4 H10 1_555 1_555
H11 C4 1_555 1_555
H12 C4 1_555 1_555
C5 C3 1_555 1_555
C6 C5 1_555 1_555
H13 C6 1_555 1_555
H14 C6 1_555 1_555
C7 C6 1_555 1_555
C8 C7 1_555 1_555
H15 C8 1_555 1_555
H16 C8 1_555 1_555
C9 C1 1_555 1_555
N1 C5 1_555 1_555
C10 O3 1_555 1_555
C11 C10 1_555 1_555
H17 C11 1_555 1_555
H18 C11 1_555 1_555
C12 C11 1_555 1_555
H19 C12 1_555 1_555
H20 C12 1_555 1_555
C13 C12 1_555 1_555
H21 C13 1_555 1_555
H22 C13 1_555 1_555
C14 C13 1_555 1_555
H23 C14 1_555 1_555
H24 C14 1_555 1_555
H25 N1 1_555 1_555
H26 C7 1_555 1_555
O3A C7A 1_555 1_555
O4A C10A 1_555 1_555
C1A H1A 1_555 1_555
H2A C1A 1_555 1_555
H3A C1A 1_555 1_555
C2A H4A 1_555 1_555
H5A C2A 1_555 1_555
H6A C2A 1_555 1_555
C3A H7A 1_555 1_555
H8A C3A 1_555 1_555
H9A C3A 1_555 1_555
C4A H10A 1_555 1_555
H11A C4A 1_555 1_555
H12A C4A 1_555 1_555
C5A C3A 1_555 1_555
C6A C5A 1_555 1_555
H13A C6A 1_555 1_555
H14A C6A 1_555 1_555
C7A C6A 1_555 1_555
C8A C7A 1_555 1_555
H15A C8A 1_555 1_555
H16A C8A 1_555 1_555
C9A C1A 1_555 1_555
N1A C5A 1_555 1_555
C10A O3A 1_555 1_555
C11A C10A 1_555 1_555
H17A C11A 1_555 1_555
H18A C11A 1_555 1_555
C12A C11A 1_555 1_555
H19A C12A 1_555 1_555
H20A C12A 1_555 1_555
C13A C12A 1_555 1_555
H21A C13A 1_555 1_555
H22A C13A 1_555 1_555
C14A C14 1_555 1_555
H23A C14A 1_555 1_555
H24A C14A 1_555 1_555
H25A N1A 1_555 1_555
H26A C7A 1_555 1_555
C2 C9 1_555 1_555
C4 C5 1_555 1_555
C8 C9 1_555 1_555
C9 N1 1_555 1_555
C2A C9A 1_555 1_555
C4A C5A 1_555 1_555
C8A C9A 1_555 1_555
C9A N1A 1_555 1_555
C13A C14A 1_555 1_555

#END
