
#######################################################################
#
#                 Cambridge Crystallographic Data Centre
#                                CCDC 
#
#######################################################################
#
# If this CIF has been generated from an entry in the Cambridge 
# Structural Database, then it will include bibliographic, chemical, 
# crystal, experimental, refinement or atomic coordinate data resulting 
# from the CCDC's data processing and validation procedures.
#
#######################################################################

data_PESKIJ
_chemical_compound_source        
'roots of Croton crassifolius Geisel. (Euphorbiaceae)'
_chemical_name_common            'Crassifolin G'
_chemical_formula_moiety         'C19 H20 O6'
_chemical_name_systematic        
5-(3-Furyl)-5a'-hydroxy-7'-methyl-3',4,5,5',5a',7',8',8a'-octahydrospiro[furan-3,6'-naphtho[1,8-bc]furan]-2,2'(4'H)-dione
_symmetry_cell_setting           orthorhombic
_symmetry_space_group_name_H-M   'P 21 21 21'
_symmetry_Int_Tables_number      19
_space_group_name_Hall           'P 2ac 2ab'
loop_
_symmetry_equiv_pos_site_id
_symmetry_equiv_pos_as_xyz
1 x,y,z
2 1/2-x,-y,1/2+z
3 1/2+x,1/2-y,-z
4 -x,1/2+y,1/2-z
_cell_length_a                   6.7585(2)
_cell_length_b                   7.0786(3)
_cell_length_c                   35.5061(12)
_cell_angle_alpha                90
_cell_angle_beta                 90
_cell_angle_gamma                90
_cell_volume                     1698.64
_exptl_crystal_colour            'light colorless'
_exptl_crystal_description       block
_cell_formula_units_Z            4
loop_
_atom_site_label
_atom_site_type_symbol
_atom_site_fract_x
_atom_site_fract_y
_atom_site_fract_z
O1 O 0.0219(2) 0.7144(2) 0.23299(4)
O2 O 0.2102(2) 0.2633(2) 0.15916(4)
H1 H 0.2142 0.2331 0.1814
O3 O -0.1817(2) 0.7356(2) 0.11991(4)
O4 O -0.2611(2) 0.6543(3) 0.26374(4)
O5 O -0.1240(2) 0.5566(2) 0.07006(4)
C1 C -0.0076(3) 0.4872(2) 0.18707(5)
C2 C 0.2524(3) 0.6689(3) 0.13550(5)
H2 H 0.3749 0.6016 0.1416
C3 C 0.0379(3) 0.3775(3) 0.15244(5)
C4 C -0.1701(3) 0.4786(3) 0.20750(5)
C5 C -0.0813(3) 0.6172(3) 0.10514(5)
C6 C 0.1807(3) 0.4119(3) 0.08605(5)
H3 H 0.2920 0.4784 0.0750
H4 H 0.2227 0.2856 0.0929
C7 C -0.1511(3) 0.6189(3) 0.23759(5)
C8 C -0.1424(3) 0.2529(3) 0.14236(5)
H5 H -0.2345 0.3262 0.1273
H6 H -0.0983 0.1468 0.1272
O6 O 0.0944(3) 0.3704(3) -0.04334(4)
C9 C 0.1307(3) 0.6315(3) 0.20202(5)
H7 H 0.2504 0.5699 0.2116
C10 C 0.1854(4) 0.7720(3) 0.17157(6)
H8 H 0.2915 0.8527 0.1805
H9 H 0.0721 0.8512 0.1659
C11 C 0.1022(3) 0.5184(3) 0.12062(5)
C12 C -0.3315(3) 0.3392(3) 0.20152(6)
H10 H -0.4423 0.3987 0.1889
H11 H -0.3771 0.2904 0.2255
C13 C -0.2492(3) 0.1785(3) 0.17735(6)
H12 H -0.3570 0.0967 0.1696
H13 H -0.1578 0.1040 0.1923
C14 C 0.3047(4) 0.8184(3) 0.10610(6)
H14 H 0.3946 0.9084 0.1169
H15 H 0.1864 0.8820 0.0981
H16 H 0.3660 0.7588 0.0848
C15 C 0.0589(3) 0.4307(3) 0.01774(5)
C16 C 0.0077(3) 0.4040(3) 0.05841(5)
H17 H -0.0612 0.2831 0.0614
C17 C 0.0280(4) 0.3056(4) -0.00960(6)
H18 H -0.0316 0.1886 -0.0061
C18 C 0.1677(4) 0.5443(4) -0.03634(7)
H19 H 0.2228 0.6231 -0.0545
C19 C 0.1505(4) 0.5882(4) 0.00017(6)
H20 H 0.1905 0.6997 0.0117
loop_
_geom_bond_atom_site_label_1
_geom_bond_atom_site_label_2
_geom_bond_site_symmetry_1
_geom_bond_site_symmetry_2
O1 C7 1_555 1_555
O2 H1 1_555 1_555
O3 C5 1_555 1_555
O4 C7 1_555 1_555
O5 C5 1_555 1_555
C1 C3 1_555 1_555
C2 H2 1_555 1_555
C3 O2 1_555 1_555
C4 C1 1_555 1_555
C5 C11 1_555 1_555
C6 H3 1_555 1_555
H4 C6 1_555 1_555
C7 C4 1_555 1_555
C8 C3 1_555 1_555
H5 C8 1_555 1_555
H6 C8 1_555 1_555
O6 C17 1_555 1_555
C9 O1 1_555 1_555
H7 C9 1_555 1_555
C10 C2 1_555 1_555
H8 C10 1_555 1_555
H9 C10 1_555 1_555
C11 C2 1_555 1_555
C12 C4 1_555 1_555
H10 C12 1_555 1_555
H11 C12 1_555 1_555
C13 C8 1_555 1_555
H12 C13 1_555 1_555
H13 C13 1_555 1_555
C14 C2 1_555 1_555
H14 C14 1_555 1_555
H15 C14 1_555 1_555
H16 C14 1_555 1_555
C15 C16 1_555 1_555
C16 O5 1_555 1_555
H17 C16 1_555 1_555
C17 C15 1_555 1_555
H18 C17 1_555 1_555
C18 O6 1_555 1_555
H19 C18 1_555 1_555
C19 C15 1_555 1_555
H20 C19 1_555 1_555
C1 C9 1_555 1_555
C3 C11 1_555 1_555
C6 C11 1_555 1_555
C6 C16 1_555 1_555
C9 C10 1_555 1_555
C12 C13 1_555 1_555
C18 C19 1_555 1_555

#END
