
#######################################################################
#
#                 Cambridge Crystallographic Data Centre
#                                CCDC 
#
#######################################################################
#
# If this CIF has been generated from an entry in the Cambridge 
# Structural Database, then it will include bibliographic, chemical, 
# crystal, experimental, refinement or atomic coordinate data resulting 
# from the CCDC's data processing and validation procedures.
#
#######################################################################

data_PESLAC
_chemical_name_common            'Crassifolin A'
_chemical_formula_moiety         'C21 H30 O4'
_chemical_name_systematic        
'Methyl 1,5,6-trimethyl-5-(2-(5-oxo-2,5-dihydrofuran-3-yl)ethyl)-1,2,3,4,5,6,7,8-octahydronaphthalene-1-carboxylate'
_symmetry_cell_setting           monoclinic
_symmetry_space_group_name_H-M   'P 21'
_symmetry_Int_Tables_number      4
_space_group_name_Hall           'P 2yb'
loop_
_symmetry_equiv_pos_site_id
_symmetry_equiv_pos_as_xyz
1 x,y,z
2 -x,1/2+y,-z
_cell_length_a                   9.2160(4)
_cell_length_b                   11.9757(3)
_cell_length_c                   9.9484(4)
_cell_angle_alpha                90
_cell_angle_beta                 116.940(5)
_cell_angle_gamma                90
_cell_volume                     978.834
_exptl_crystal_colour            colorless
_cell_formula_units_Z            2
loop_
_atom_site_label
_atom_site_type_symbol
_atom_site_fract_x
_atom_site_fract_y
_atom_site_fract_z
C1 C 0.1424(3) 0.4330(2) 0.6000(3)
O1 O -0.1872(3) 0.16698(19) 0.8937(2)
O2 O 0.4365(3) 0.8855(2) 0.7441(2)
O3 O -0.2173(3) 0.2077(2) 0.6672(2)
C2 C 0.0695(3) 0.3307(2) 0.7836(3)
C3 C 0.0525(3) 0.4197(2) 0.6972(3)
C4 C -0.0229(3) 0.3148(2) 0.8764(3)
C5 C 0.2101(3) 0.5522(2) 0.6149(3)
H1 H 0.2578 0.5600 0.5462
H2 H 0.1200 0.6043 0.5829
C6 C 0.1778(3) 0.2334(3) 0.7935(4)
H3 H 0.1221 0.1643 0.7922
H4 H 0.2762 0.2370 0.8885
C7 C -0.1512(3) 0.2244(2) 0.7987(3)
O4 O 0.3885(4) 0.9790(2) 0.9133(3)
C8 C 0.3483(4) 0.7795(3) 0.8800(3)
H5 H 0.3130 0.7610 0.9511
C9 C 0.0176(4) 0.4171(3) 0.4331(3)
H6 H -0.0184 0.3409 0.4164
H7 H 0.0675 0.4354 0.3696
H8 H -0.0741 0.4653 0.4094
C10 C 0.3380(3) 0.5856(3) 0.7730(3)
H9 H 0.3025 0.5607 0.8462
H10 H 0.4396 0.5480 0.7952
C11 C 0.2812(3) 0.3468(3) 0.6450(3)
H11 H 0.3670 0.3696 0.7437
C12 C 0.3901(3) 0.8909(3) 0.8547(3)
C13 C 0.2234(4) 0.2322(3) 0.6654(4)
H12 H 0.1297 0.2102 0.5729
H13 H 0.3091 0.1779 0.6864
C14 C -0.1925(4) 0.4789(3) 0.7301(4)
H14 H -0.2518 0.5440 0.7361
H15 H -0.2690 0.4286 0.6549
C15 C 0.3668(3) 0.7077(2) 0.7892(2)
C16 C -0.3113(5) 0.0827(3) 0.8262(4)
H16 H -0.4158 0.1179 0.7747
H17 H -0.3106 0.0343 0.9034
H18 H -0.2899 0.0398 0.7556
C17 C 0.0925(5) 0.2805(3) 1.0398(3)
H19 H 0.1352 0.2073 1.0402
H20 H 0.0336 0.2798 1.0985
H21 H 0.1806 0.3329 1.0826
C18 C -0.0632(4) 0.5136(3) 0.6852(4)
H22 H -0.0012 0.5749 0.7491
H23 H -0.1155 0.5405 0.5820
C19 C 0.4229(5) 0.7723(3) 0.6936(4)
H24 H 0.5274 0.7448 0.7063
H25 H 0.3449 0.7665 0.5880
C20 C -0.1136(4) 0.4214(3) 0.8807(4)
H26 H -0.1965 0.4023 0.9115
H27 H -0.0376 0.4723 0.9551
C21 C 0.3592(4) 0.3402(4) 0.5384(5)
H28 H 0.2814 0.3114 0.4426
H29 H 0.4520 0.2916 0.5806
H30 H 0.3930 0.4134 0.5249
loop_
_geom_bond_atom_site_label_1
_geom_bond_atom_site_label_2
_geom_bond_site_symmetry_1
_geom_bond_site_symmetry_2
C1 C3 1_555 1_555
O1 C7 1_555 1_555
O2 C12 1_555 1_555
O3 C7 1_555 1_555
C2 C3 1_555 1_555
C3 C18 1_555 1_555
C4 C2 1_555 1_555
C5 C1 1_555 1_555
H1 C5 1_555 1_555
H2 C5 1_555 1_555
C6 C2 1_555 1_555
H3 C6 1_555 1_555
H4 C6 1_555 1_555
C7 C4 1_555 1_555
O4 C12 1_555 1_555
C8 H5 1_555 1_555
C9 C1 1_555 1_555
H6 C9 1_555 1_555
H7 C9 1_555 1_555
H8 C9 1_555 1_555
C10 C5 1_555 1_555
H9 C10 1_555 1_555
H10 C10 1_555 1_555
C11 C1 1_555 1_555
H11 C11 1_555 1_555
C12 C8 1_555 1_555
C13 C6 1_555 1_555
H12 C13 1_555 1_555
H13 C13 1_555 1_555
C14 H14 1_555 1_555
H15 C14 1_555 1_555
C15 C8 1_555 1_555
C16 O1 1_555 1_555
H16 C16 1_555 1_555
H17 C16 1_555 1_555
H18 C16 1_555 1_555
C17 C4 1_555 1_555
H19 C17 1_555 1_555
H20 C17 1_555 1_555
H21 C17 1_555 1_555
C18 C14 1_555 1_555
H22 C18 1_555 1_555
H23 C18 1_555 1_555
C19 O2 1_555 1_555
H24 C19 1_555 1_555
H25 C19 1_555 1_555
C20 C4 1_555 1_555
H26 C20 1_555 1_555
H27 C20 1_555 1_555
C21 C11 1_555 1_555
H28 C21 1_555 1_555
H29 C21 1_555 1_555
H30 C21 1_555 1_555
C10 C15 1_555 1_555
C11 C13 1_555 1_555
C14 C20 1_555 1_555
C15 C19 1_555 1_555

#END
