
#######################################################################
#
#                 Cambridge Crystallographic Data Centre
#                                CCDC 
#
#######################################################################
#
# If this CIF has been generated from an entry in the Cambridge 
# Structural Database, then it will include bibliographic, chemical, 
# crystal, experimental, refinement or atomic coordinate data resulting 
# from the CCDC's data processing and validation procedures.
#
#######################################################################

data_PESNUX
_chemical_formula_moiety         'C18 H25 N1 O4'
_chemical_name_systematic        
8-(Benzyloxy)-5,5-dimethyl-4,6,12-trioxa-1-azatricyclo(7.4.0.0^3,7^)tridecane
_symmetry_cell_setting           monoclinic
_symmetry_space_group_name_H-M   'P 21'
_symmetry_Int_Tables_number      4
_space_group_name_Hall           'P 2yb'
loop_
_symmetry_equiv_pos_site_id
_symmetry_equiv_pos_as_xyz
1 x,y,z
2 -x,1/2+y,-z
_cell_length_a                   5.3217(7)
_cell_length_b                   9.7758(13)
_cell_length_c                   16.549(2)
_cell_angle_alpha                90
_cell_angle_beta                 92.897(2)
_cell_angle_gamma                90
_cell_volume                     859.843
_exptl_crystal_colour            colorless
_exptl_crystal_description       rectangular
_chemical_melting_point          '84-87 deg.C'
_cell_formula_units_Z            2
loop_
_atom_site_label
_atom_site_type_symbol
_atom_site_fract_x
_atom_site_fract_y
_atom_site_fract_z
O1 O 0.8231(6) 0.2120(4) 0.2685(2)
C1 C 0.9927(11) 0.1228(7) 0.2302(4)
C2 C 0.9705(10) 0.3267(6) 0.1612(3)
H1 H 1.0938 0.3823 0.1925
O2 O 1.0606(7) 0.1893(5) 0.1567(2)
C3 C 0.9006(12) 0.3969(7) 0.0837(3)
H2 H 1.0466 0.4067 0.0514
H3 H 0.7732 0.3451 0.0530
N1 N 0.8025(8) 0.5322(5) 0.1054(2)
C4 C 0.7226(13) 0.6072(7) 0.0319(3)
H4 H 0.8578 0.6068 -0.0053
H5 H 0.5785 0.5616 0.0056
O3 O 0.6592(10) 0.7413(5) 0.0493(3)
C5 C 0.4451(14) 0.7458(8) 0.0969(4)
H6 H 0.3021 0.7059 0.0668
H7 H 0.4048 0.8402 0.1088
C6 C 0.4942(14) 0.6690(7) 0.1742(4)
H8 H 0.3405 0.6641 0.2031
H9 H 0.6190 0.7176 0.2080
C7 C 0.5882(10) 0.5247(6) 0.1583(3)
H10 H 0.4522 0.4757 0.1285
C8 C 0.6492(9) 0.4460(6) 0.2361(3)
H11 H 0.4971 0.4343 0.2664
C9 C 0.7414(9) 0.3095(5) 0.2080(3)
H12 H 0.6093 0.2675 0.1728
O4 O 0.8356(6) 0.5173(4) 0.28383(18)
C10 C 0.8349(10) 0.4889(6) 0.3675(3)
H13 H 0.8636 0.3920 0.3766
H14 H 0.6723 0.5122 0.3876
C11 C 1.0343(10) 0.5690(6) 0.4114(3)
C12 C 1.1119(13) 0.5338(8) 0.4890(3)
H15 H 1.0355 0.4603 0.5137
C13 C 1.3010(13) 0.6049(9) 0.5315(4)
H16 H 1.3540 0.5771 0.5833
C14 C 1.4064(14) 0.7127(8) 0.4983(4)
H17 H 1.5285 0.7626 0.5277
C15 C 1.3360(16) 0.7508(8) 0.4207(5)
H18 H 1.4138 0.8248 0.3970
C16 C 1.1501(11) 0.6796(6) 0.3778(3)
H19 H 1.1022 0.7066 0.3253
C17 C 1.2170(13) 0.1044(11) 0.2865(5)
H20 H 1.2864 0.1923 0.3008
H21 H 1.3410 0.0510 0.2605
H22 H 1.1685 0.0581 0.3344
C18 C 0.8615(19) -0.0077(9) 0.2055(6)
H23 H 0.7761 -0.0440 0.2505
H24 H 0.9831 -0.0730 0.1886
H25 H 0.7415 0.0102 0.1615
loop_
_geom_bond_atom_site_label_1
_geom_bond_atom_site_label_2
_geom_bond_site_symmetry_1
_geom_bond_site_symmetry_2
O1 C1 1_555 1_555
C1 O2 1_555 1_555
C2 H1 1_555 1_555
O2 C2 1_555 1_555
C3 C2 1_555 1_555
H2 C3 1_555 1_555
H3 C3 1_555 1_555
N1 C3 1_555 1_555
C4 N1 1_555 1_555
H4 C4 1_555 1_555
H5 C4 1_555 1_555
O3 C4 1_555 1_555
C5 O3 1_555 1_555
H6 C5 1_555 1_555
H7 C5 1_555 1_555
C6 C5 1_555 1_555
H8 C6 1_555 1_555
H9 C6 1_555 1_555
C7 N1 1_555 1_555
H10 C7 1_555 1_555
C8 C7 1_555 1_555
H11 C8 1_555 1_555
C9 O1 1_555 1_555
H12 C9 1_555 1_555
O4 C8 1_555 1_555
C10 O4 1_555 1_555
H13 C10 1_555 1_555
H14 C10 1_555 1_555
C11 C10 1_555 1_555
C12 C11 1_555 1_555
H15 C12 1_555 1_555
C13 C12 1_555 1_555
H16 C13 1_555 1_555
C14 C13 1_555 1_555
H17 C14 1_555 1_555
C15 C14 1_555 1_555
H18 C15 1_555 1_555
C16 C11 1_555 1_555
H19 C16 1_555 1_555
C17 C1 1_555 1_555
H20 C17 1_555 1_555
H21 C17 1_555 1_555
H22 C17 1_555 1_555
C18 C1 1_555 1_555
H23 C18 1_555 1_555
H24 C18 1_555 1_555
H25 C18 1_555 1_555
C2 C9 1_555 1_555
C6 C7 1_555 1_555
C8 C9 1_555 1_555
C15 C16 1_555 1_555

#END
