
#######################################################################
#
#                 Cambridge Crystallographic Data Centre
#                                CCDC 
#
#######################################################################
#
# If this CIF has been generated from an entry in the Cambridge 
# Structural Database, then it will include bibliographic, chemical, 
# crystal, experimental, refinement or atomic coordinate data resulting 
# from the CCDC's data processing and validation procedures.
#
#######################################################################

data_PESNOR
_chemical_formula_moiety         'C12 H21 N1 O5'
_chemical_name_systematic        
5,5-Dimethyl-8-(hydroxymethyl)-4,6,12-trioxa-1-azatricyclo(7.4.0.0^3,7^)tridecan-8-ol
_symmetry_cell_setting           orthorhombic
_symmetry_space_group_name_H-M   'P 21 21 2'
_symmetry_Int_Tables_number      18
_space_group_name_Hall           'P 2 2ab'
loop_
_symmetry_equiv_pos_site_id
_symmetry_equiv_pos_as_xyz
1 x,y,z
2 -x,-y,z
3 1/2-x,1/2+y,-z
4 1/2+x,1/2-y,-z
_cell_length_a                   19.017(3)
_cell_length_b                   7.7976(11)
_cell_length_c                   8.8937(12)
_cell_angle_alpha                90
_cell_angle_beta                 90
_cell_angle_gamma                90
_cell_volume                     1318.82
_exptl_crystal_colour            colorless
_exptl_crystal_description       needle
_chemical_melting_point          '165-168 deg.C'
_cell_formula_units_Z            4
loop_
_atom_site_label
_atom_site_type_symbol
_atom_site_fract_x
_atom_site_fract_y
_atom_site_fract_z
O1 O 0.37572(10) 0.22823(19) 0.19636(17)
C1 C 0.37199(16) 0.1773(3) 0.0409(3)
C2 C 0.35974(13) -0.0597(3) 0.1884(2)
H1 H 0.3087 -0.0564 0.2027
O2 O 0.37630(10) -0.0077(2) 0.03961(17)
C3 C 0.38732(13) -0.2311(3) 0.2364(3)
H2 H 0.3660 -0.3219 0.1774
H3 H 0.4379 -0.2363 0.2234
N1 N 0.36870(10) -0.2495(2) 0.3957(2)
C4 C 0.39661(14) -0.4137(3) 0.4504(3)
H4 H 0.3813 -0.5048 0.3838
H5 H 0.4476 -0.4100 0.4476
O3 O 0.37490(10) -0.45104(19) 0.5961(2)
C5 C 0.40175(17) -0.3266(3) 0.6982(3)
H6 H 0.4527 -0.3296 0.6971
H7 H 0.3861 -0.3533 0.7993
C6 C 0.37681(16) -0.1503(3) 0.6552(3)
H8 H 0.3982 -0.0660 0.7211
H9 H 0.3262 -0.1436 0.6676
C7 C 0.39580(11) -0.1099(2) 0.4934(2)
H10 H 0.4472 -0.1123 0.4864
C8 C 0.37158(11) 0.0712(3) 0.4416(2)
C9 C 0.39326(12) 0.0790(3) 0.2792(2)
H11 H 0.4444 0.0636 0.2742
O4 O 0.41144(8) 0.19168(19) 0.52490(18)
H12 H 0.3850 0.2497 0.5770
C10 C 0.29297(12) 0.1044(3) 0.4581(3)
H13 H 0.2781 0.1892 0.3849
H14 H 0.2672 -0.0007 0.4391
O5 O 0.27804(9) 0.1635(2) 0.60344(18)
H15 H 0.2368 0.1934 0.6080
C11 C 0.30226(18) 0.2359(5) -0.0188(4)
H16 H 0.2652 0.1821 0.0372
H17 H 0.2983 0.2049 -0.1229
H18 H 0.2986 0.3581 -0.0088
C12 C 0.43393(18) 0.2457(4) -0.0450(3)
H19 H 0.4347 0.3686 -0.0380
H20 H 0.4302 0.2124 -0.1486
H21 H 0.4765 0.2000 -0.0033
loop_
_geom_bond_atom_site_label_1
_geom_bond_atom_site_label_2
_geom_bond_site_symmetry_1
_geom_bond_site_symmetry_2
O1 C1 1_555 1_555
C1 O2 1_555 1_555
C2 H1 1_555 1_555
O2 C2 1_555 1_555
C3 C2 1_555 1_555
H2 C3 1_555 1_555
H3 C3 1_555 1_555
N1 C3 1_555 1_555
C4 N1 1_555 1_555
H4 C4 1_555 1_555
H5 C4 1_555 1_555
O3 C4 1_555 1_555
C5 O3 1_555 1_555
H6 C5 1_555 1_555
H7 C5 1_555 1_555
C6 C5 1_555 1_555
H8 C6 1_555 1_555
H9 C6 1_555 1_555
C7 N1 1_555 1_555
H10 C7 1_555 1_555
C8 C7 1_555 1_555
C9 O1 1_555 1_555
H11 C9 1_555 1_555
O4 C8 1_555 1_555
H12 O4 1_555 1_555
C10 C8 1_555 1_555
H13 C10 1_555 1_555
H14 C10 1_555 1_555
O5 C10 1_555 1_555
H15 O5 1_555 1_555
C11 C1 1_555 1_555
H16 C11 1_555 1_555
H17 C11 1_555 1_555
H18 C11 1_555 1_555
C12 C1 1_555 1_555
H19 C12 1_555 1_555
H20 C12 1_555 1_555
H21 C12 1_555 1_555
C2 C9 1_555 1_555
C6 C7 1_555 1_555
C8 C9 1_555 1_555

#END
