
#######################################################################
#
#                 Cambridge Crystallographic Data Centre
#                                CCDC 
#
#######################################################################
#
# If this CIF has been generated from an entry in the Cambridge 
# Structural Database, then it will include bibliographic, chemical, 
# crystal, experimental, refinement or atomic coordinate data resulting 
# from the CCDC's data processing and validation procedures.
#
#######################################################################

data_PESPAG
_chemical_formula_moiety         'C110 H140 S16 Si12'
_chemical_name_systematic        
1,1,2,2-tetrakis(5-(1,2,2-tris(5-(Trimethylsilyl)-2-thienyl)ethenyl)thien-2-yl)ethene
_symmetry_cell_setting           triclinic
_symmetry_space_group_name_H-M   'P -1'
_symmetry_Int_Tables_number      2
_space_group_name_Hall           '-P 1'
loop_
_symmetry_equiv_pos_site_id
_symmetry_equiv_pos_as_xyz
1 x,y,z
2 -x,-y,-z
_cell_length_a                   12.183(7)
_cell_length_b                   16.129(9)
_cell_length_c                   16.620(10)
_cell_angle_alpha                100.265(10)
_cell_angle_beta                 92.579(11)
_cell_angle_gamma                90.124(11)
_cell_volume                     3210.12
_exptl_crystal_colour            colorless
_exptl_crystal_description       block
_cell_formula_units_Z            1
loop_
_atom_site_label
_atom_site_type_symbol
_atom_site_fract_x
_atom_site_fract_y
_atom_site_fract_z
S1 S 0.06902(6) 0.81380(5) -0.00395(5)
Si1 Si 0.37102(15) 0.48949(10) 0.32412(10)
S2 S -0.05987(7) 1.04197(5) -0.16331(5)
Si2 Si 0.73392(9) 0.76254(7) -0.01733(8)
S3 S 0.07576(8) 0.57580(5) 0.08506(6)
Si3 Si -0.11136(11) 0.51153(7) 0.18450(8)
S4 S 0.30712(10) 0.61845(6) 0.21272(7)
Si4 Si -0.49527(10) 0.94541(10) -0.24247(9)
C1 C 0.1190(3) 0.67904(18) 0.1026(2)
S5 S 0.52800(8) 0.71073(7) 0.06270(7)
Si5 Si 0.36940(11) 1.21130(11) -0.41547(10)
C2 C 0.0303(2) 0.97710(18) -0.02876(18)
S6 S -0.26795(8) 0.97871(6) -0.31250(6)
Si6 Si -0.08210(13) 1.28519(9) -0.59927(9)
C3 C 0.1941(2) 0.78945(18) 0.0346(2)
S7 S 0.17080(8) 1.16150(6) -0.32565(6)
C4 C 0.0847(3) 1.0789(2) -0.3636(2)
S8 S -0.03484(9) 1.18989(7) -0.45600(7)
C5 C 0.2634(3) 0.85614(18) 0.0417(2)
H1 H 0.3363 0.8552 0.0605
C6 C -0.2139(3) 1.0770(2) -0.3040(2)
C7 C -0.1320(3) 1.1406(2) -0.4102(2)
C8 C 0.2141(3) 0.92670(19) 0.0180(2)
H2 H 0.2518 0.9771 0.0189
C9 C 0.1080(2) 0.91535(17) -0.00625(19)
C10 C 0.0086(3) 1.0230(2) -0.2517(2)
C11 C 0.0303(3) 0.98458(18) -0.1142(2)
C12 C -0.0146(3) 1.06501(19) -0.32132(19)
C13 C 0.2124(3) 0.70894(18) 0.0631(2)
C14 C 0.1052(3) 0.9490(2) -0.1674(2)
H3 H 0.1589 0.9122 -0.1541
C15 C -0.3805(3) 1.0114(3) -0.2601(2)
C16 C -0.1120(3) 1.0926(2) -0.3438(2)
C17 C 0.4014(3) 0.69425(19) 0.0166(2)
C18 C 0.5067(3) 0.7333(2) -0.0806(2)
H4 H 0.5207 0.7455 -0.1318
C19 C 0.5847(3) 0.7385(2) -0.0204(2)
C20 C -0.0207(3) 0.5932(2) 0.1568(2)
C21 C 0.2550(3) 1.1408(3) -0.4050(2)
C22 C 0.1229(3) 1.0354(2) -0.4326(2)
H5 H 0.0894 0.9866 -0.4617
C23 C 0.3369(3) 0.6071(2) 0.1122(2)
C24 C 0.3091(3) 0.67107(19) 0.0621(2)
C25 C 0.0586(3) 0.7232(2) 0.1605(2)
H6 H 0.0669 0.7810 0.1781
C26 C 0.4029(3) 0.7083(2) -0.0609(2)
H7 H 0.3418 0.7021 -0.0972
C27 C 0.0940(3) 0.9729(2) -0.2435(2)
H8 H 0.1418 0.9555 -0.2851
C28 C 0.2182(3) 1.0706(3) -0.4563(2)
H9 H 0.2536 1.0476 -0.5034
C29 C -0.0174(3) 0.6749(2) 0.1918(3)
H10 H -0.0625 0.6973 0.2338
C30 C 0.3697(3) 0.5284(2) 0.2263(3)
C31 C 0.3944(3) 0.5358(2) 0.0901(3)
H11 H 0.4195 0.5178 0.0379
C32 C -0.3721(4) 1.0968(3) -0.2386(3)
H12 H -0.4253 1.1288 -0.2092
C33 C -0.2814(3) 1.1317(3) -0.2630(2)
H13 H -0.2673 1.1894 -0.2519
C34 C -0.2300(3) 1.1499(3) -0.4463(3)
H14 H -0.2948 1.1283 -0.4304
C35 C -0.1262(4) 1.2229(3) -0.5231(3)
C36 C 0.4117(4) 0.4920(3) 0.1555(3)
H15 H 0.4496 0.4414 0.1500
C37 C 0.8080(4) 0.6653(3) -0.0213(4)
H16 H 0.8855 0.6767 -0.0194
H17 H 0.7874 0.6275 -0.0712
H18 H 0.7905 0.6399 0.0246
C38 C -0.2442(5) 0.5096(4) 0.1284(4)
H19 H -0.2339 0.4938 0.0708
H20 H -0.2762 0.5646 0.1393
H21 H -0.2921 0.4695 0.1457
C39 C 0.7684(4) 0.8345(4) 0.0772(4)
H22 H 0.8454 0.8480 0.0800
H23 H 0.7514 0.8084 0.1229
H24 H 0.7266 0.8851 0.0789
C40 C -0.2260(4) 1.1955(3) -0.5110(3)
H25 H -0.2879 1.2056 -0.5425
C41 C -0.6169(4) 0.9740(5) -0.2980(5)
H26 H -0.6041 0.9650 -0.3554
H27 H -0.6329 1.0323 -0.2792
H28 H -0.6780 0.9398 -0.2886
C42 C 0.4177(6) 1.2655(5) -0.3147(4)
H29 H 0.4438 1.2250 -0.2827
H30 H 0.3583 1.2966 -0.2880
H31 H 0.4763 1.3037 -0.3202
C43 C 0.7647(4) 0.8116(4) -0.1048(4)
H32 H 0.8418 0.8246 -0.1031
H33 H 0.7234 0.8625 -0.1027
H34 H 0.7450 0.7735 -0.1546
C44 C -0.4615(5) 0.8336(3) -0.2834(4)
H35 H -0.4509 0.8271 -0.3411
H36 H -0.5207 0.7976 -0.2742
H37 H -0.3954 0.8186 -0.2561
C45 C -0.1324(6) 0.5417(4) 0.2938(3)
H38 H -0.1641 0.5967 0.3045
H39 H -0.0631 0.5424 0.3238
H40 H -0.1809 0.5017 0.3107
C46 C -0.5146(5) 0.9623(4) -0.1304(4)
H41 H -0.5319 1.0203 -0.1111
H42 H -0.4482 0.9483 -0.1027
H43 H -0.5736 0.9270 -0.1194
C47 C -0.1981(5) 1.2862(5) -0.6735(4)
H44 H -0.2599 1.3127 -0.6460
H45 H -0.2175 1.2294 -0.6984
H46 H -0.1775 1.3170 -0.7150
C48 C -0.0519(6) 0.4067(3) 0.1570(4)
H47 H -0.0404 0.3952 0.0994
H48 H -0.1012 0.3653 0.1705
H49 H 0.0171 0.4048 0.1869
C49 C 0.3227(6) 1.2868(4) -0.4798(4)
H50 H 0.2959 1.2568 -0.5322
H51 H 0.3829 1.3228 -0.4871
H52 H 0.2647 1.3202 -0.4539
C50 C 0.0370(5) 1.2349(4) -0.6514(4)
H53 H 0.0972 1.2343 -0.6122
H54 H 0.0580 1.2660 -0.6925
H55 H 0.0179 1.1781 -0.6767
C51 C -0.0414(7) 1.3897(4) -0.5460(4)
H56 H 0.0195 1.3853 -0.5083
H57 H -0.1019 1.4156 -0.5164
H58 H -0.0201 1.4233 -0.5849
C52 C 0.4758(5) 1.1451(5) -0.4662(5)
H59 H 0.5006 1.1060 -0.4322
H60 H 0.5364 1.1798 -0.4755
H61 H 0.4465 1.1147 -0.5176
C53 C 0.3598(9) 0.5756(5) 0.4073(4)
H62 H 0.3600 0.5546 0.4579
H63 H 0.2925 0.6049 0.4003
H64 H 0.4209 0.6136 0.4085
C54 C 0.2680(9) 0.4120(6) 0.3196(6)
H65 H 0.2679 0.3926 0.3710
H66 H 0.2821 0.3656 0.2767
H67 H 0.1977 0.4356 0.3088
C55 C 0.5017(9) 0.4381(7) 0.3368(6)
H68 H 0.5045 0.4179 0.3877
H69 H 0.5606 0.4778 0.3368
H70 H 0.5090 0.3917 0.2925
S1A S -0.06902(6) 1.18620(5) 0.00395(5)
Si1A Si -0.37102(15) 1.51051(10) -0.32412(10)
S2A S 0.05987(7) 0.95803(5) 0.16331(5)
Si2A Si -0.73392(9) 1.23746(7) 0.01733(8)
S3A S -0.07576(8) 1.42420(5) -0.08506(6)
Si3A Si 0.11136(11) 1.48847(7) -0.18450(8)
S4A S -0.30712(10) 1.38155(6) -0.21272(7)
Si4A Si 0.49527(10) 1.05459(10) 0.24247(9)
C1A C -0.1190(3) 1.32096(18) -0.1026(2)
S5A S -0.52800(8) 1.28927(7) -0.06270(7)
Si5A Si -0.36940(11) 0.78870(11) 0.41547(10)
C2A C -0.0303(2) 1.02290(18) 0.02876(18)
S6A S 0.26795(8) 1.02129(6) 0.31250(6)
Si6A Si 0.08210(13) 0.71481(9) 0.59927(9)
C3A C -0.1941(2) 1.21055(18) -0.0346(2)
S7A S -0.17080(8) 0.83850(6) 0.32565(6)
C4A C -0.0847(3) 0.9211(2) 0.3636(2)
S8A S 0.03484(9) 0.81011(7) 0.45600(7)
C5A C -0.2634(3) 1.14386(18) -0.0417(2)
H1A H -0.3363 1.1448 -0.0605
C6A C 0.2139(3) 0.9230(2) 0.3040(2)
C7A C 0.1320(3) 0.8594(2) 0.4102(2)
C8A C -0.2141(3) 1.07330(19) -0.0180(2)
H2A H -0.2518 1.0229 -0.0189
C9A C -0.1080(2) 1.08465(17) 0.00625(19)
C10A C -0.0086(3) 0.9770(2) 0.2517(2)
C11A C -0.0303(3) 1.01542(18) 0.1142(2)
C12A C 0.0146(3) 0.93499(19) 0.32132(19)
C13A C -0.2124(3) 1.29106(18) -0.0631(2)
C14A C -0.1052(3) 1.0510(2) 0.1674(2)
H3A H -0.1589 1.0878 0.1541
C15A C 0.3805(3) 0.9886(3) 0.2601(2)
C16A C 0.1120(3) 0.9074(2) 0.3438(2)
C17A C -0.4014(3) 1.30575(19) -0.0166(2)
C18A C -0.5067(3) 1.2667(2) 0.0806(2)
H4A H -0.5207 1.2545 0.1318
C19A C -0.5847(3) 1.2615(2) 0.0204(2)
C20A C 0.0207(3) 1.4068(2) -0.1568(2)
C21A C -0.2550(3) 0.8592(3) 0.4050(2)
C22A C -0.1229(3) 0.9646(2) 0.4326(2)
H5A H -0.0894 1.0134 0.4617
C23A C -0.3369(3) 1.3929(2) -0.1122(2)
C24A C -0.3091(3) 1.32893(19) -0.0621(2)
C25A C -0.0586(3) 1.2768(2) -0.1605(2)
H6A H -0.0669 1.2190 -0.1781
C26A C -0.4029(3) 1.2917(2) 0.0609(2)
H7A H -0.3418 1.2979 0.0972
C27A C -0.0940(3) 1.0271(2) 0.2435(2)
H8A H -0.1418 1.0445 0.2851
C28A C -0.2182(3) 0.9294(3) 0.4563(2)
H9A H -0.2536 0.9524 0.5034
C29A C 0.0174(3) 1.3251(2) -0.1918(3)
H10A H 0.0625 1.3027 -0.2338
C30A C -0.3697(3) 1.4716(2) -0.2263(3)
C31A C -0.3944(3) 1.4642(2) -0.0901(3)
H11A H -0.4195 1.4822 -0.0379
C32A C 0.3721(4) 0.9032(3) 0.2386(3)
H12A H 0.4253 0.8712 0.2092
C33A C 0.2814(3) 0.8683(3) 0.2630(2)
H13A H 0.2673 0.8106 0.2519
C34A C 0.2300(3) 0.8501(3) 0.4463(3)
H14A H 0.2948 0.8717 0.4304
C35A C 0.1262(4) 0.7771(3) 0.5231(3)
C36A C -0.4117(4) 1.5080(3) -0.1555(3)
H15A H -0.4496 1.5586 -0.1500
C37A C -0.8080(4) 1.3347(3) 0.0213(4)
H16A H -0.8855 1.3233 0.0194
H17A H -0.7874 1.3725 0.0712
H18A H -0.7905 1.3601 -0.0246
C38A C 0.2442(5) 1.4904(4) -0.1284(4)
H19A H 0.2339 1.5062 -0.0708
H20A H 0.2762 1.4354 -0.1393
H21A H 0.2921 1.5305 -0.1457
C39A C -0.7684(4) 1.1655(4) -0.0772(4)
H22A H -0.8454 1.1520 -0.0800
H23A H -0.7514 1.1916 -0.1229
H24A H -0.7266 1.1149 -0.0789
C40A C 0.2260(4) 0.8045(3) 0.5110(3)
H25A H 0.2879 0.7944 0.5425
C41A C 0.6169(4) 1.0260(5) 0.2980(5)
H26A H 0.6041 1.0350 0.3554
H27A H 0.6329 0.9677 0.2792
H28A H 0.6780 1.0602 0.2886
C42A C -0.4177(6) 0.7345(5) 0.3147(4)
H29A H -0.4438 0.7750 0.2827
H30A H -0.3583 0.7034 0.2880
H31A H -0.4763 0.6963 0.3202
C43A C -0.7647(4) 1.1884(4) 0.1048(4)
H32A H -0.8418 1.1754 0.1031
H33A H -0.7234 1.1375 0.1027
H34A H -0.7450 1.2265 0.1546
C44A C 0.4615(5) 1.1664(3) 0.2834(4)
H35A H 0.4509 1.1729 0.3411
H36A H 0.5207 1.2024 0.2742
H37A H 0.3954 1.1814 0.2561
C45A C 0.1324(6) 1.4583(4) -0.2938(3)
H38A H 0.1641 1.4033 -0.3045
H39A H 0.0631 1.4576 -0.3238
H40A H 0.1809 1.4983 -0.3107
C46A C 0.5146(5) 1.0377(4) 0.1304(4)
H41A H 0.5319 0.9797 0.1111
H42A H 0.4482 1.0517 0.1027
H43A H 0.5736 1.0730 0.1194
C47A C 0.1981(5) 0.7138(5) 0.6735(4)
H44A H 0.2599 0.6873 0.6460
H45A H 0.2175 0.7706 0.6984
H46A H 0.1775 0.6830 0.7150
C48A C 0.0519(6) 1.5933(3) -0.1570(4)
H47A H 0.0404 1.6048 -0.0994
H48A H 0.1012 1.6347 -0.1705
H49A H -0.0171 1.5952 -0.1869
C49A C -0.3227(6) 0.7132(4) 0.4798(4)
H50A H -0.2959 0.7432 0.5322
H51A H -0.3829 0.6772 0.4871
H52A H -0.2647 0.6798 0.4539
C50A C -0.0370(5) 0.7651(4) 0.6514(4)
H53A H -0.0972 0.7657 0.6122
H54A H -0.0580 0.7340 0.6925
H55A H -0.0179 0.8219 0.6767
C51A C 0.0414(7) 0.6103(4) 0.5460(4)
H56A H -0.0195 0.6147 0.5083
H57A H 0.1019 0.5844 0.5164
H58A H 0.0201 0.5767 0.5849
C52A C -0.4758(5) 0.8549(5) 0.4662(5)
H59A H -0.5006 0.8940 0.4322
H60A H -0.5364 0.8202 0.4755
H61A H -0.4465 0.8853 0.5176
C53A C -0.3598(9) 1.4244(5) -0.4073(4)
H62A H -0.3600 1.4454 -0.4579
H63A H -0.2925 1.3951 -0.4003
H64A H -0.4209 1.3864 -0.4085
C54A C -0.2680(9) 1.5880(6) -0.3196(6)
H65A H -0.2679 1.6074 -0.3710
H66A H -0.2821 1.6344 -0.2767
H67A H -0.1977 1.5644 -0.3088
C55A C -0.5017(9) 1.5619(7) -0.3368(6)
H68A H -0.5045 1.5821 -0.3877
H69A H -0.5606 1.5222 -0.3368
H70A H -0.5090 1.6083 -0.2925
loop_
_geom_bond_atom_site_label_1
_geom_bond_atom_site_label_2
_geom_bond_site_symmetry_1
_geom_bond_site_symmetry_2
S1 C3 1_555 1_555
Si1 C30 1_555 1_555
S2 C10 1_555 1_555
Si2 C19 1_555 1_555
S3 C1 1_555 1_555
Si3 C20 1_555 1_555
S4 C23 1_555 1_555
Si4 C15 1_555 1_555
C1 C13 1_555 1_555
S5 C17 1_555 1_555
Si5 C21 1_555 1_555
C2 C9 1_555 1_555
S6 C6 1_555 1_555
Si6 C35 1_555 1_555
C3 C5 1_555 1_555
S7 C4 1_555 1_555
C4 C12 1_555 1_555
S8 C7 1_555 1_555
C5 H1 1_555 1_555
C6 C16 1_555 1_555
C7 C16 1_555 1_555
C8 C5 1_555 1_555
H2 C8 1_555 1_555
C9 S1 1_555 1_555
C10 C12 1_555 1_555
C11 S2 1_555 1_555
C12 C16 1_555 1_555
C13 C3 1_555 1_555
C14 C11 1_555 1_555
H3 C14 1_555 1_555
C15 S6 1_555 1_555
C17 C24 1_555 1_555
C18 H4 1_555 1_555
C19 S5 1_555 1_555
C20 S3 1_555 1_555
C21 S7 1_555 1_555
C22 C4 1_555 1_555
H5 C22 1_555 1_555
C23 C24 1_555 1_555
C24 C13 1_555 1_555
C25 C1 1_555 1_555
H6 C25 1_555 1_555
C26 C17 1_555 1_555
H7 C26 1_555 1_555
C27 C10 1_555 1_555
H8 C27 1_555 1_555
C28 C21 1_555 1_555
H9 C28 1_555 1_555
C29 C20 1_555 1_555
H10 C29 1_555 1_555
C30 S4 1_555 1_555
C31 C23 1_555 1_555
H11 C31 1_555 1_555
C32 C15 1_555 1_555
H12 C32 1_555 1_555
C33 C6 1_555 1_555
H13 C33 1_555 1_555
C34 C7 1_555 1_555
H14 C34 1_555 1_555
C35 S8 1_555 1_555
C36 C30 1_555 1_555
H15 C36 1_555 1_555
C37 Si2 1_555 1_555
H16 C37 1_555 1_555
H17 C37 1_555 1_555
H18 C37 1_555 1_555
C38 Si3 1_555 1_555
H19 C38 1_555 1_555
H20 C38 1_555 1_555
H21 C38 1_555 1_555
C39 Si2 1_555 1_555
H22 C39 1_555 1_555
H23 C39 1_555 1_555
H24 C39 1_555 1_555
C40 C34 1_555 1_555
H25 C40 1_555 1_555
C41 Si4 1_555 1_555
H26 C41 1_555 1_555
H27 C41 1_555 1_555
H28 C41 1_555 1_555
C42 Si5 1_555 1_555
H29 C42 1_555 1_555
H30 C42 1_555 1_555
H31 C42 1_555 1_555
C43 Si2 1_555 1_555
H32 C43 1_555 1_555
H33 C43 1_555 1_555
H34 C43 1_555 1_555
C44 Si4 1_555 1_555
H35 C44 1_555 1_555
H36 C44 1_555 1_555
H37 C44 1_555 1_555
C45 Si3 1_555 1_555
H38 C45 1_555 1_555
H39 C45 1_555 1_555
H40 C45 1_555 1_555
C46 Si4 1_555 1_555
H41 C46 1_555 1_555
H42 C46 1_555 1_555
H43 C46 1_555 1_555
C47 Si6 1_555 1_555
H44 C47 1_555 1_555
H45 C47 1_555 1_555
H46 C47 1_555 1_555
C48 Si3 1_555 1_555
H47 C48 1_555 1_555
H48 C48 1_555 1_555
H49 C48 1_555 1_555
C49 Si5 1_555 1_555
H50 C49 1_555 1_555
H51 C49 1_555 1_555
H52 C49 1_555 1_555
C50 Si6 1_555 1_555
H53 C50 1_555 1_555
H54 C50 1_555 1_555
H55 C50 1_555 1_555
C51 Si6 1_555 1_555
H56 C51 1_555 1_555
H57 C51 1_555 1_555
H58 C51 1_555 1_555
C52 Si5 1_555 1_555
H59 C52 1_555 1_555
H60 C52 1_555 1_555
H61 C52 1_555 1_555
C53 Si1 1_555 1_555
H62 C53 1_555 1_555
H63 C53 1_555 1_555
H64 C53 1_555 1_555
C54 Si1 1_555 1_555
H65 C54 1_555 1_555
H66 C54 1_555 1_555
H67 C54 1_555 1_555
C55 Si1 1_555 1_555
H68 C55 1_555 1_555
H69 C55 1_555 1_555
H70 C55 1_555 1_555
S1A C3A 1_555 1_555
Si1A C30A 1_555 1_555
S2A C10A 1_555 1_555
Si2A C19A 1_555 1_555
S3A C1A 1_555 1_555
Si3A C20A 1_555 1_555
S4A C23A 1_555 1_555
Si4A C15A 1_555 1_555
C1A C13A 1_555 1_555
S5A C17A 1_555 1_555
Si5A C21A 1_555 1_555
C2A C2 1_555 1_555
S6A C6A 1_555 1_555
Si6A C35A 1_555 1_555
C3A C5A 1_555 1_555
S7A C4A 1_555 1_555
C4A C12A 1_555 1_555
S8A C7A 1_555 1_555
C5A H1A 1_555 1_555
C6A C16A 1_555 1_555
C7A C16A 1_555 1_555
C8A C5A 1_555 1_555
H2A C8A 1_555 1_555
C9A S1A 1_555 1_555
C10A C12A 1_555 1_555
C11A S2A 1_555 1_555
C12A C16A 1_555 1_555
C13A C3A 1_555 1_555
C14A C11A 1_555 1_555
H3A C14A 1_555 1_555
C15A S6A 1_555 1_555
C17A C24A 1_555 1_555
C18A H4A 1_555 1_555
C19A S5A 1_555 1_555
C20A S3A 1_555 1_555
C21A S7A 1_555 1_555
C22A C4A 1_555 1_555
H5A C22A 1_555 1_555
C23A C24A 1_555 1_555
C24A C13A 1_555 1_555
C25A C1A 1_555 1_555
H6A C25A 1_555 1_555
C26A C17A 1_555 1_555
H7A C26A 1_555 1_555
C27A C10A 1_555 1_555
H8A C27A 1_555 1_555
C28A C21A 1_555 1_555
H9A C28A 1_555 1_555
C29A C20A 1_555 1_555
H10A C29A 1_555 1_555
C30A S4A 1_555 1_555
C31A C23A 1_555 1_555
H11A C31A 1_555 1_555
C32A C15A 1_555 1_555
H12A C32A 1_555 1_555
C33A C6A 1_555 1_555
H13A C33A 1_555 1_555
C34A C7A 1_555 1_555
H14A C34A 1_555 1_555
C35A S8A 1_555 1_555
C36A C30A 1_555 1_555
H15A C36A 1_555 1_555
C37A Si2A 1_555 1_555
H16A C37A 1_555 1_555
H17A C37A 1_555 1_555
H18A C37A 1_555 1_555
C38A Si3A 1_555 1_555
H19A C38A 1_555 1_555
H20A C38A 1_555 1_555
H21A C38A 1_555 1_555
C39A Si2A 1_555 1_555
H22A C39A 1_555 1_555
H23A C39A 1_555 1_555
H24A C39A 1_555 1_555
C40A C34A 1_555 1_555
H25A C40A 1_555 1_555
C41A Si4A 1_555 1_555
H26A C41A 1_555 1_555
H27A C41A 1_555 1_555
H28A C41A 1_555 1_555
C42A Si5A 1_555 1_555
H29A C42A 1_555 1_555
H30A C42A 1_555 1_555
H31A C42A 1_555 1_555
C43A Si2A 1_555 1_555
H32A C43A 1_555 1_555
H33A C43A 1_555 1_555
H34A C43A 1_555 1_555
C44A Si4A 1_555 1_555
H35A C44A 1_555 1_555
H36A C44A 1_555 1_555
H37A C44A 1_555 1_555
C45A Si3A 1_555 1_555
H38A C45A 1_555 1_555
H39A C45A 1_555 1_555
H40A C45A 1_555 1_555
C46A Si4A 1_555 1_555
H41A C46A 1_555 1_555
H42A C46A 1_555 1_555
H43A C46A 1_555 1_555
C47A Si6A 1_555 1_555
H44A C47A 1_555 1_555
H45A C47A 1_555 1_555
H46A C47A 1_555 1_555
C48A Si3A 1_555 1_555
H47A C48A 1_555 1_555
H48A C48A 1_555 1_555
H49A C48A 1_555 1_555
C49A Si5A 1_555 1_555
H50A C49A 1_555 1_555
H51A C49A 1_555 1_555
H52A C49A 1_555 1_555
C50A Si6A 1_555 1_555
H53A C50A 1_555 1_555
H54A C50A 1_555 1_555
H55A C50A 1_555 1_555
C51A Si6A 1_555 1_555
H56A C51A 1_555 1_555
H57A C51A 1_555 1_555
H58A C51A 1_555 1_555
C52A Si5A 1_555 1_555
H59A C52A 1_555 1_555
H60A C52A 1_555 1_555
H61A C52A 1_555 1_555
C53A Si1A 1_555 1_555
H62A C53A 1_555 1_555
H63A C53A 1_555 1_555
H64A C53A 1_555 1_555
C54A Si1A 1_555 1_555
H65A C54A 1_555 1_555
H66A C54A 1_555 1_555
H67A C54A 1_555 1_555
C55A Si1A 1_555 1_555
H68A C55A 1_555 1_555
H69A C55A 1_555 1_555
H70A C55A 1_555 1_555
C2 C11 1_555 1_555
C8 C9 1_555 1_555
C14 C27 1_555 1_555
C18 C19 1_555 1_555
C18 C26 1_555 1_555
C22 C28 1_555 1_555
C25 C29 1_555 1_555
C31 C36 1_555 1_555
C32 C33 1_555 1_555
C35 C40 1_555 1_555
C2A C9A 1_555 1_555
C2A C11A 1_555 1_555
C8A C9A 1_555 1_555
C14A C27A 1_555 1_555
C18A C19A 1_555 1_555
C18A C26A 1_555 1_555
C22A C28A 1_555 1_555
C25A C29A 1_555 1_555
C31A C36A 1_555 1_555
C32A C33A 1_555 1_555
C35A C40A 1_555 1_555

#END
