
#######################################################################
#
#                 Cambridge Crystallographic Data Centre
#                                CCDC 
#
#######################################################################
#
# If this CIF has been generated from an entry in the Cambridge 
# Structural Database, then it will include bibliographic, chemical, 
# crystal, experimental, refinement or atomic coordinate data resulting 
# from the CCDC's data processing and validation procedures.
#
#######################################################################

data_PESQOU
_chemical_formula_moiety         'C1 H6 N3 1+,C2 H2 N7 O2 1-'
_chemical_name_systematic        
'Guanidine 3-amino-6-nitroamino-1,2,4,5-tetrazine'
_symmetry_cell_setting           monoclinic
_symmetry_space_group_name_H-M   'P 21/c'
_symmetry_Int_Tables_number      14
_space_group_name_Hall           '-P 2ybc'
loop_
_symmetry_equiv_pos_site_id
_symmetry_equiv_pos_as_xyz
1 x,y,z
2 -x,1/2+y,1/2-z
3 -x,-y,-z
4 x,1/2-y,1/2+z
_cell_length_a                   8.155(2)
_cell_length_b                   15.305(4)
_cell_length_c                   6.8667(18)
_cell_angle_alpha                90
_cell_angle_beta                 99.895(5)
_cell_angle_gamma                90
_cell_volume                     844.299
_exptl_crystal_colour            orange
_exptl_crystal_description       needle
_cell_formula_units_Z            4
_exptl_crystal_recrystallization_method water
loop_
_atom_site_label
_atom_site_type_symbol
_atom_site_fract_x
_atom_site_fract_y
_atom_site_fract_z
N1 N 0.59703(16) 0.81540(8) 0.52969(19)
H1 H 0.4986 0.7923 0.4874
H2 H 0.6683 0.7885 0.6208
N2 N 0.78628(15) 0.92711(8) 0.52027(18)
H3 H 0.8120 0.9775 0.4715
H4 H 0.8584 0.9007 0.6114
N3 N 0.53130(16) 0.93122(8) 0.31949(18)
H5 H 0.4328 0.9081 0.2771
H6 H 0.5586 0.9813 0.2707
C1 C 0.63796(18) 0.89082(10) 0.4560(2)
O1 O 0.17745(13) 0.89665(7) 0.66311(16)
O2 O 0.41168(13) 0.90813(7) 0.87138(15)
C2 C 0.15643(18) 0.73009(9) 0.7534(2)
C3 C -0.08361(18) 0.62758(9) 0.6031(2)
N4 N 0.29133(15) 0.86224(8) 0.78687(18)
N5 N 0.29555(15) 0.77917(8) 0.83246(18)
N6 N 0.19435(15) 0.64767(8) 0.70887(17)
N7 N 0.07329(15) 0.59475(8) 0.63330(18)
N8 N -0.12238(15) 0.70454(8) 0.68005(18)
N9 N 0.00067(16) 0.75736(8) 0.75464(19)
N10 N -0.20447(15) 0.57929(8) 0.50161(18)
H7 H -0.3082 0.5976 0.4853
H8 H -0.1807 0.5290 0.4508
loop_
_geom_bond_atom_site_label_1
_geom_bond_atom_site_label_2
_geom_bond_site_symmetry_1
_geom_bond_site_symmetry_2
N1 H1 1_555 1_555
H2 N1 1_555 1_555
N2 H3 1_555 1_555
H4 N2 1_555 1_555
N3 H5 1_555 1_555
H6 N3 1_555 1_555
O1 N4 1_555 1_555
O2 N4 1_555 1_555
C1 N1 1_555 1_555
C2 N5 1_555 1_555
C3 N7 1_555 1_555
N4 N5 1_555 1_555
N6 C2 1_555 1_555
N7 N6 1_555 1_555
N8 C3 1_555 1_555
N9 C2 1_555 1_555
N10 C3 1_555 1_555
H7 N10 1_555 1_555
H8 N10 1_555 1_555
N2 C1 1_555 1_555
N3 C1 1_555 1_555
N8 N9 1_555 1_555

#END
