
#######################################################################
#
#                 Cambridge Crystallographic Data Centre
#                                CCDC 
#
#######################################################################
#
# If this CIF has been generated from an entry in the Cambridge 
# Structural Database, then it will include bibliographic, chemical, 
# crystal, experimental, refinement or atomic coordinate data resulting 
# from the CCDC's data processing and validation procedures.
#
#######################################################################

data_PESRIP
_chemical_formula_moiety         '3(C26 H10 Cl4 N4 S4),2(C8 H10)'
_chemical_name_systematic        
'tris(2,3,7,8-tetrakis(5-Chlorothien-2-yl)pyrazino(2,3-g)quinoxaline) bis(p-xylene)'
_symmetry_cell_setting           triclinic
_symmetry_space_group_name_H-M   'P -1'
_symmetry_Int_Tables_number      2
_space_group_name_Hall           '-P 1'
loop_
_symmetry_equiv_pos_site_id
_symmetry_equiv_pos_as_xyz
1 x,y,z
2 -x,-y,-z
_cell_length_a                   11.4457(17)
_cell_length_b                   12.1201(18)
_cell_length_c                   17.054(3)
_cell_angle_alpha                80.079(2)
_cell_angle_beta                 75.752(2)
_cell_angle_gamma                81.631(2)
_cell_volume                     2245.5
_exptl_crystal_colour            red
_exptl_crystal_description       block
_chemical_melting_point          '373 K'
_cell_formula_units_Z            1
loop_
_atom_site_label
_atom_site_type_symbol
_atom_site_fract_x
_atom_site_fract_y
_atom_site_fract_z
N1 N 0.45455(10) -0.14299(9) 0.27709(7)
C1 C 0.55096(12) -0.17750(11) 0.30745(8)
C2 C 0.67058(12) -0.14714(11) 0.26267(8)
N2 N 0.68295(10) -0.07016(9) 0.19760(7)
C3 C 0.58199(11) -0.02803(11) 0.16795(8)
C4 C 0.59334(11) 0.05271(11) 0.09841(8)
C5 C 0.49222(11) 0.09248(10) 0.06550(8)
N3 N 0.50424(10) 0.17061(9) -0.00301(7)
C6 C 0.40770(11) 0.20931(11) -0.03286(8)
C7 C 0.28968(11) 0.17091(11) 0.00806(8)
N4 N 0.27799(10) 0.09189(9) 0.07181(7)
C8 C 0.37836(11) 0.05022(11) 0.10255(8)
C9 C 0.36708(11) -0.03098(11) 0.17171(8)
C10 C 0.46766(12) -0.06955(11) 0.20547(8)
S1 S 0.39720(3) -0.31010(3) 0.42079(2)
C11 C 0.52781(12) -0.24304(11) 0.38947(8)
C12 C 0.58734(13) -0.25300(13) 0.45163(9)
C13 C 0.52854(13) -0.31627(13) 0.52514(9)
C14 C 0.42618(13) -0.35259(12) 0.51615(8)
Cl1 Cl 0.32792(3) -0.43002(3) 0.58965(2)
S2 S 0.90893(3) -0.12556(3) 0.25637(2)
C15 C 0.78440(12) -0.20095(11) 0.28399(8)
C16 C 0.81521(13) -0.30993(12) 0.31638(9)
C17 C 0.93859(13) -0.33323(12) 0.32081(9)
C18 C 0.99884(12) -0.24060(12) 0.29167(8)
Cl2 Cl 1.14731(3) -0.23035(3) 0.28872(2)
S3 S 0.58126(3) 0.32556(3) -0.136966(19)
C19 C 0.43338(11) 0.29006(11) -0.10797(8)
C20 C 0.36543(12) 0.34620(11) -0.16195(8)
C21 C 0.43125(13) 0.42064(12) -0.22548(8)
C22 C 0.54769(12) 0.41788(11) -0.21862(8)
Cl3 Cl 0.65639(3) 0.49634(3) -0.28131(2)
S4 S 0.08414(3) 0.11952(3) -0.02758(2)
C23 C 0.17637(12) 0.21509(11) -0.01843(8)
C24 C 0.12213(12) 0.32384(12) -0.02921(9)
C25 C 0.00537(13) 0.33031(13) -0.04596(9)
C26 C -0.02520(12) 0.22657(13) -0.04749(9)
Cl4 Cl -0.15767(3) 0.19619(4) -0.06473(2)
H1 H 0.6710(18) 0.0784(17) 0.0733(12)
H2 H 0.2922(19) -0.0591(18) 0.1968(13)
H3 H 0.653(2) -0.2225(19) 0.4459(13)
H4 H 0.555(2) -0.325(2) 0.5732(15)
H5 H 0.7590(19) -0.3633(18) 0.3336(13)
H6 H 0.972(2) -0.4010(19) 0.3427(14)
H7 H 0.2814(19) 0.3360(17) -0.1583(13)
H8 H 0.3957(19) 0.4681(18) -0.2668(13)
H9 H 0.1601(18) 0.3865(17) -0.0251(12)
H10 H -0.0458(18) 0.3988(17) -0.0542(12)
N5 N 0.70443(10) 0.42337(10) 0.06188(7)
C27 C 0.69469(12) 0.34390(11) 0.12533(8)
C28 C 0.57862(12) 0.30221(11) 0.16607(8)
N6 N 0.48150(10) 0.33666(9) 0.13601(7)
C29 C 0.49109(12) 0.41575(11) 0.06811(8)
C30 C 0.38864(12) 0.45416(11) 0.03598(8)
C31 C 0.60311(11) 0.46222(11) 0.03159(8)
S5 S 0.89183(3) 0.39871(4) 0.17099(3)
C32 C 0.80871(12) 0.30248(12) 0.15186(8)
C33 C 0.87003(13) 0.19667(14) 0.15472(9)
C34 C 0.98581(14) 0.19173(16) 0.17286(10)
C35 C 1.00792(14) 0.29417(17) 0.18355(10)
Cl5 Cl 1.13613(4) 0.32627(6) 0.20598(3)
S6 S 0.40885(3) 0.18880(3) 0.27795(2)
C36 C 0.55583(12) 0.22492(11) 0.24284(8)
C37 C 0.62806(13) 0.17320(14) 0.29532(9)
C38 C 0.56604(14) 0.10240(14) 0.36310(9)
C39 C 0.44800(13) 0.10316(12) 0.36086(8)
Cl6 Cl 0.34076(4) 0.03127(3) 0.43074(2)
H11 H 0.3104(19) 0.4221(17) 0.0616(12)
H12 H 0.837(2) 0.1291(19) 0.1456(13)
H13 H 1.043(2) 0.1256(19) 0.1762(14)
H14 H 0.710(2) 0.183(2) 0.2865(14)
H15 H 0.603(2) 0.055(2) 0.4036(15)
N5A N 0.29557(10) 0.57663(10) -0.06188(7)
C27A C 0.30531(12) 0.65610(11) -0.12533(8)
C28A C 0.42138(12) 0.69779(11) -0.16607(8)
N6A N 0.51850(10) 0.66334(9) -0.13601(7)
C29A C 0.50891(12) 0.58425(11) -0.06811(8)
C30A C 0.61136(12) 0.54584(11) -0.03598(8)
C31A C 0.39689(11) 0.53778(11) -0.03159(8)
S5A S 0.10817(3) 0.60129(4) -0.17099(3)
C32A C 0.19129(12) 0.69752(12) -0.15186(8)
C33A C 0.12997(13) 0.80333(14) -0.15472(9)
C34A C 0.01419(14) 0.80827(16) -0.17286(10)
C35A C -0.00792(14) 0.70583(17) -0.18355(10)
Cl5A Cl -0.13613(4) 0.67373(6) -0.20598(3)
S6A S 0.59115(3) 0.81120(3) -0.27795(2)
C36A C 0.44417(12) 0.77508(11) -0.24284(8)
C37A C 0.37194(13) 0.82680(14) -0.29532(9)
C38A C 0.43396(14) 0.89760(14) -0.36310(9)
C39A C 0.55200(13) 0.89684(12) -0.36086(8)
Cl6A Cl 0.65924(4) 0.96873(3) -0.43074(2)
H11A H 0.6896(19) 0.5779(17) -0.0616(12)
H12A H 0.163(2) 0.8709(19) -0.1456(13)
H13A H -0.043(2) 0.8744(19) -0.1762(14)
H14A H 0.290(2) 0.817(2) -0.2865(14)
H15A H 0.397(2) 0.945(2) -0.4036(15)
C40 C 0.94049(14) 0.40998(14) 0.49701(10)
C41 C 0.87515(14) 0.50810(14) 0.52316(9)
C42 C 1.06687(14) 0.40023(14) 0.47323(9)
C43 C 1.13776(17) 0.29296(17) 0.44667(13)
H16 H 0.897(2) 0.349(2) 0.4945(14)
H17 H 0.791(2) 0.5112(18) 0.5385(13)
H20 H 1.115(3) 0.272(3) 0.408(2)
H21 H 1.131(3) 0.234(3) 0.4927(19)
H22 H 1.223(3) 0.302(2) 0.4286(18)
C40A C 1.05951(14) 0.59002(14) 0.50299(10)
C41A C 1.12485(14) 0.49190(14) 0.47684(9)
C42A C 0.93313(14) 0.59977(14) 0.52677(9)
C43A C 0.86224(17) 0.70704(17) 0.55333(13)
H16A H 1.103(2) 0.651(2) 0.5055(14)
H17A H 1.209(2) 0.4888(18) 0.4615(13)
H20A H 0.885(3) 0.728(3) 0.592(2)
H21A H 0.869(3) 0.766(3) 0.5073(19)
H22A H 0.777(3) 0.698(2) 0.5714(18)
C44 C 1.08929(15) -0.07988(15) 0.46680(10)
C45 C 1.02487(16) -0.00511(15) 0.41732(10)
C46 C 1.06531(15) -0.07590(15) 0.55050(10)
C47 C 1.13387(19) -0.15709(19) 0.60446(12)
H18 H 1.155(2) -0.135(2) 0.4437(14)
H19 H 1.041(2) -0.003(2) 0.3560(15)
H23 H 1.134(3) -0.127(2) 0.6545(18)
H24 H 1.223(3) -0.172(2) 0.5772(17)
H25 H 1.093(3) -0.230(3) 0.6294(18)
C44A C 0.91071(15) 0.07988(15) 0.53320(10)
C45A C 0.97513(16) 0.00511(15) 0.58268(10)
C46A C 0.93469(15) 0.07590(15) 0.44950(10)
C47A C 0.86613(19) 0.15709(19) 0.39554(12)
H18A H 0.845(2) 0.135(2) 0.5563(14)
H19A H 0.959(2) 0.003(2) 0.6440(15)
H23A H 0.866(3) 0.127(2) 0.3455(18)
H24A H 0.777(3) 0.172(2) 0.4228(17)
H25A H 0.907(3) 0.230(3) 0.3706(18)
loop_
_geom_bond_atom_site_label_1
_geom_bond_atom_site_label_2
_geom_bond_site_symmetry_1
_geom_bond_site_symmetry_2
N1 C1 1_555 1_555
C1 C2 1_555 1_555
C2 N2 1_555 1_555
N2 C3 1_555 1_555
C3 C4 1_555 1_555
C4 C5 1_555 1_555
C5 N3 1_555 1_555
N3 C6 1_555 1_555
C6 C7 1_555 1_555
C7 N4 1_555 1_555
N4 C8 1_555 1_555
C8 C5 1_555 1_555
C9 C8 1_555 1_555
C10 N1 1_555 1_555
S1 C11 1_555 1_555
C11 C1 1_555 1_555
C12 C11 1_555 1_555
C13 C12 1_555 1_555
C14 S1 1_555 1_555
Cl1 C14 1_555 1_555
S2 C15 1_555 1_555
C15 C2 1_555 1_555
C16 C15 1_555 1_555
C17 C16 1_555 1_555
C18 S2 1_555 1_555
Cl2 C18 1_555 1_555
S3 C19 1_555 1_555
C19 C6 1_555 1_555
C20 C19 1_555 1_555
C21 C20 1_555 1_555
C22 S3 1_555 1_555
Cl3 C22 1_555 1_555
S4 C23 1_555 1_555
C23 C7 1_555 1_555
C24 C23 1_555 1_555
C25 C24 1_555 1_555
C26 S4 1_555 1_555
Cl4 C26 1_555 1_555
N5 C27 1_555 1_555
C27 C28 1_555 1_555
C28 N6 1_555 1_555
N6 C29 1_555 1_555
C29 C30 1_555 1_555
C30 H11 1_555 1_555
C31 N5 1_555 1_555
S5 C32 1_555 1_555
C32 C27 1_555 1_555
C33 C32 1_555 1_555
C34 C33 1_555 1_555
C35 S5 1_555 1_555
Cl5 C35 1_555 1_555
S6 C36 1_555 1_555
C36 C28 1_555 1_555
C37 C36 1_555 1_555
C38 C37 1_555 1_555
C39 S6 1_555 1_555
Cl6 C39 1_555 1_555
C40 C41 1_555 1_555
C41 H17 1_555 1_555
C42 C40 1_555 1_555
C43 C42 1_555 1_555
C44 C45 1_555 1_555
C45 H19 1_555 1_555
C46 C44 1_555 1_555
C47 C46 1_555 1_555
H1 C4 1_555 1_555
H2 C9 1_555 1_555
H3 C12 1_555 1_555
H4 C13 1_555 1_555
H5 C16 1_555 1_555
H6 C17 1_555 1_555
H7 C20 1_555 1_555
H8 C21 1_555 1_555
H9 C24 1_555 1_555
H10 C25 1_555 1_555
H12 C33 1_555 1_555
H13 C34 1_555 1_555
H14 C37 1_555 1_555
H15 C38 1_555 1_555
H16 C40 1_555 1_555
H18 C44 1_555 1_555
H20 C43 1_555 1_555
H21 C43 1_555 1_555
H22 C43 1_555 1_555
H23 C47 1_555 1_555
H24 C47 1_555 1_555
H25 C47 1_555 1_555
N5A C27A 1_555 1_555
C27A C28A 1_555 1_555
C28A N6A 1_555 1_555
N6A C29A 1_555 1_555
C29A C30A 1_555 1_555
C30A C31 1_555 1_555
C31A C30 1_555 1_555
S5A C32A 1_555 1_555
C32A C27A 1_555 1_555
C33A C32A 1_555 1_555
C34A C33A 1_555 1_555
C35A S5A 1_555 1_555
Cl5A C35A 1_555 1_555
S6A C36A 1_555 1_555
C36A C28A 1_555 1_555
C37A C36A 1_555 1_555
C38A C37A 1_555 1_555
C39A S6A 1_555 1_555
Cl6A C39A 1_555 1_555
C40A C41A 1_555 1_555
C41A C42 1_555 1_555
C42A C41 1_555 1_555
C43A C42A 1_555 1_555
C44A C45A 1_555 1_555
C45A C46 1_555 1_555
C46A C45 1_555 1_555
C47A C46A 1_555 1_555
H11A C30A 1_555 1_555
H12A C33A 1_555 1_555
H13A C34A 1_555 1_555
H14A C37A 1_555 1_555
H15A C38A 1_555 1_555
H16A C40A 1_555 1_555
H17A C41A 1_555 1_555
H18A C44A 1_555 1_555
H19A C45A 1_555 1_555
H20A C43A 1_555 1_555
H21A C43A 1_555 1_555
H22A C43A 1_555 1_555
H23A C47A 1_555 1_555
H24A C47A 1_555 1_555
H25A C47A 1_555 1_555
C3 C10 1_555 1_555
C9 C10 1_555 1_555
C13 C14 1_555 1_555
C17 C18 1_555 1_555
C21 C22 1_555 1_555
C25 C26 1_555 1_555
C29 C31 1_555 1_555
C34 C35 1_555 1_555
C38 C39 1_555 1_555
N5A C31A 1_555 1_555
C29A C31A 1_555 1_555
C34A C35A 1_555 1_555
C38A C39A 1_555 1_555
C40A C42A 1_555 1_555
C44A C46A 1_555 1_555

#END
