
#######################################################################
#
#                 Cambridge Crystallographic Data Centre
#                                CCDC 
#
#######################################################################
#
# If this CIF has been generated from an entry in the Cambridge 
# Structural Database, then it will include bibliographic, chemical, 
# crystal, experimental, refinement or atomic coordinate data resulting 
# from the CCDC's data processing and validation procedures.
#
#######################################################################

data_PESROV01
_chemical_formula_moiety         'C8 H6 O4,C10 H8 N8'
_chemical_name_systematic        
'Isophthalic acid 3,6-bis(2-pyrazinyl)-1,4-dihydro-1,2,4,5-tetrazine'
_symmetry_cell_setting           orthorhombic
_symmetry_space_group_name_H-M   'P n n a'
_symmetry_Int_Tables_number      52
_space_group_name_Hall           '-P 2a 2bc'
loop_
_symmetry_equiv_pos_site_id
_symmetry_equiv_pos_as_xyz
1 x,y,z
2 1/2-x,-y,z
3 1/2-x,1/2+y,1/2-z
4 x,1/2-y,1/2-z
5 -x,-y,-z
6 1/2+x,y,-z
7 1/2+x,1/2-y,1/2+z
8 -x,1/2+y,1/2+z
_cell_length_a                   13.546(4)
_cell_length_b                   33.654(11)
_cell_length_c                   3.7035(12)
_cell_angle_alpha                90
_cell_angle_beta                 90
_cell_angle_gamma                90
_cell_volume                     1688.34
_exptl_crystal_colour            orange
_exptl_crystal_description       Prism
_cell_formula_units_Z            4
loop_
_atom_site_label
_atom_site_type_symbol
_atom_site_fract_x
_atom_site_fract_y
_atom_site_fract_z
O1 O 0.67031(11) 0.18838(5) 0.0948(5)
H1 H 0.6458 0.1681 0.1792
O2 O 0.80749(12) 0.15240(5) 0.1263(5)
C1 C 0.76590(17) 0.18285(7) 0.0449(7)
C2 C 0.81727(16) 0.21766(6) -0.1118(6)
C3 C 0.91976(16) 0.21782(7) -0.1134(6)
H3 H 0.9542 0.1961 -0.0221
C4 C 0.9707(2) 0.2500 -0.2500
H4 H 1.0394 0.2500 -0.2500
C5 C 0.7662(2) 0.2500 -0.2500
H5 H 0.6975 0.2500 -0.2500
O1C O 0.67031(11) 0.31162(5) -0.5948(5)
H1C H 0.6458 0.3319 -0.6792
O2C O 0.80749(12) 0.34760(5) -0.6263(5)
C1C C 0.76590(17) 0.31715(7) -0.5449(7)
C2C C 0.81727(16) 0.28234(6) -0.3882(6)
C3C C 0.91976(16) 0.28218(7) -0.3866(6)
H3C H 0.9542 0.3039 -0.4779
N1 N 0.52754(13) 0.05363(6) 0.7689(5)
N2 N 0.59035(13) 0.12361(5) 0.4414(5)
N3 N 0.78628(13) 0.03824(6) 0.8292(5)
N4 N 0.65837(13) -0.00538(5) 0.9555(5)
H2 H 0.5935 -0.0088 0.9066
C6 C 0.65414(17) 0.09648(6) 0.5560(7)
H6 H 0.7214 0.1011 0.5274
C7 C 0.49510(17) 0.11597(7) 0.4964(7)
H7 H 0.4482 0.1345 0.4224
C8 C 0.46425(17) 0.08145(7) 0.6598(7)
H8 H 0.3970 0.0774 0.6953
C9 C 0.62340(16) 0.06147(7) 0.7171(6)
C10 C 0.69377(15) 0.03110(7) 0.8372(6)
N1A N 0.97246(13) -0.05363(6) 0.7689(5)
N2A N 0.90965(13) -0.12361(5) 0.4414(5)
N3A N 0.71372(13) -0.03824(6) 0.8292(5)
N4A N 0.84163(13) 0.00538(5) 0.9555(5)
H2A H 0.9065 0.0088 0.9066
C6A C 0.84586(17) -0.09648(6) 0.5560(7)
H6A H 0.7786 -0.1011 0.5274
C7A C 1.00490(17) -0.11597(7) 0.4964(7)
H7A H 1.0518 -0.1345 0.4224
C8A C 1.03575(17) -0.08145(7) 0.6598(7)
H8A H 1.1030 -0.0774 0.6953
C9A C 0.87660(16) -0.06147(7) 0.7171(6)
C10A C 0.80623(15) -0.03110(7) 0.8372(6)
loop_
_geom_bond_atom_site_label_1
_geom_bond_atom_site_label_2
_geom_bond_site_symmetry_1
_geom_bond_site_symmetry_2
O1 H1 1_555 1_555
O2 C1 1_555 1_555
N1 C8 1_555 1_555
N2 C6 1_555 1_555
N3 C10 1_555 1_555
N4 H2 1_555 1_555
C1 O1 1_555 1_555
C2 C1 1_555 1_555
C3 C2 1_555 1_555
H3 C3 1_555 1_555
C4 C3 1_555 1_555
H4 C4 1_555 1_555
C5 C2 1_555 1_555
H5 C5 1_555 1_555
C6 H6 1_555 1_555
C7 N2 1_555 1_555
H7 C7 1_555 1_555
C8 C7 1_555 1_555
H8 C8 1_555 1_555
C9 N1 1_555 1_555
C10 N4 1_555 1_555
O1C H1C 1_555 1_555
O2C C1C 1_555 1_555
N1A C8A 1_555 1_555
N2A C6A 1_555 1_555
N3A N4 1_555 1_555
N4A N3 1_555 1_555
H2A N4A 1_555 1_555
C1C O1C 1_555 1_555
C2C C5 1_555 1_555
C3C C4 1_555 1_555
H3C C3C 1_555 1_555
C6A H6A 1_555 1_555
C7A N2A 1_555 1_555
H7A C7A 1_555 1_555
C8A C7A 1_555 1_555
H8A C8A 1_555 1_555
C9A N1A 1_555 1_555
C10A N3A 1_555 1_555
C6 C9 1_555 1_555
C9 C10 1_555 1_555
N4A C10A 1_555 1_555
C1C C2C 1_555 1_555
C2C C3C 1_555 1_555
C6A C9A 1_555 1_555
C9A C10A 1_555 1_555

#END
