
#######################################################################
#
#                 Cambridge Crystallographic Data Centre
#                                CCDC 
#
#######################################################################
#
# If this CIF has been generated from an entry in the Cambridge 
# Structural Database, then it will include bibliographic, chemical, 
# crystal, experimental, refinement or atomic coordinate data resulting 
# from the CCDC's data processing and validation procedures.
#
#######################################################################

data_PESROV
_chemical_formula_moiety         'C10 H8 N8,C8 H6 O4'
_chemical_name_systematic        
'1,4-Dihydro-3,6-dipyrazin-2-yl-1,2,4,5-tetrazine benzene-1,3-dicarboxylic acid'
_symmetry_cell_setting           orthorhombic
_symmetry_space_group_name_H-M   'P n n a'
_symmetry_Int_Tables_number      52
_space_group_name_Hall           '-P 2a 2bc'
loop_
_symmetry_equiv_pos_site_id
_symmetry_equiv_pos_as_xyz
1 x,y,z
2 1/2-x,-y,z
3 1/2-x,1/2+y,1/2-z
4 x,1/2-y,1/2-z
5 -x,-y,-z
6 1/2+x,y,-z
7 1/2+x,1/2-y,1/2+z
8 -x,1/2+y,1/2+z
_cell_length_a                   13.546(4)
_cell_length_b                   33.654(11)
_cell_length_c                   3.7035(12)
_cell_angle_alpha                90
_cell_angle_beta                 90
_cell_angle_gamma                90
_cell_volume                     1688.34
_exptl_crystal_colour            orange
_exptl_crystal_description       prism
_cell_formula_units_Z            4
_exptl_crystal_recrystallization_method dichloromethane/methanol
loop_
_atom_site_label
_atom_site_type_symbol
_atom_site_fract_x
_atom_site_fract_y
_atom_site_fract_z
O1 O 0.67031(11) 0.18837(5) 0.0947(5)
O2 O 0.80743(12) 0.15239(5) 0.1262(5)
C1 C 0.76584(17) 0.18283(7) 0.0452(7)
C2 C 0.81729(16) 0.21767(6) -0.1117(7)
C3 C 0.91983(17) 0.21782(7) -0.1133(7)
C4 C 0.9707(3) 0.2500 -0.2500
C5 C 0.7663(2) 0.2500 -0.2500
H1 H 0.6458 0.1682 0.1797
H3 H 0.9543 0.1962 -0.0218
H4 H 1.0393 0.2500 -0.2500
H5 H 0.6976 0.2500 -0.2500
O1C O 0.67031(11) 0.31163(5) -0.5947(5)
O2C O 0.80743(12) 0.34761(5) -0.6262(5)
C1C C 0.76584(17) 0.31717(7) -0.5452(7)
C2C C 0.81729(16) 0.28233(6) -0.3883(7)
C3C C 0.91983(17) 0.28218(7) -0.3867(7)
H1C H 0.6458 0.3318 -0.6797
H3C H 0.9543 0.3038 -0.4782
N1 N 0.52753(13) 0.05362(6) 0.7689(5)
N2 N 0.59041(14) 0.12359(5) 0.4411(6)
N3 N 0.78629(13) 0.03824(6) 0.8291(5)
N4 N 0.65834(13) -0.00537(5) 0.9557(6)
C6 C 0.65412(17) 0.09647(7) 0.5559(7)
C7 C 0.49508(17) 0.11594(7) 0.4963(7)
C8 C 0.46423(17) 0.08147(7) 0.6597(7)
C9 C 0.62337(16) 0.06146(7) 0.7166(6)
C10 C 0.69375(16) 0.03105(7) 0.8372(6)
H2 H 0.5934 -0.0088 0.9068
H6 H 0.7214 0.1011 0.5277
H7 H 0.4482 0.1344 0.4223
H8 H 0.3970 0.0774 0.6953
N1A N 0.97247(13) -0.05362(6) 0.7689(5)
N2A N 0.90959(14) -0.12359(5) 0.4411(6)
N3A N 0.71371(13) -0.03824(6) 0.8291(5)
N4A N 0.84166(13) 0.00537(5) 0.9557(6)
C6A C 0.84588(17) -0.09647(7) 0.5559(7)
C7A C 1.00492(17) -0.11594(7) 0.4963(7)
C8A C 1.03577(17) -0.08147(7) 0.6597(7)
C9A C 0.87663(16) -0.06146(7) 0.7166(6)
C10A C 0.80625(16) -0.03105(7) 0.8372(6)
H2A H 0.9066 0.0088 0.9068
H6A H 0.7786 -0.1011 0.5277
H7A H 1.0518 -0.1344 0.4223
H8A H 1.1030 -0.0774 0.6953
loop_
_geom_bond_atom_site_label_1
_geom_bond_atom_site_label_2
_geom_bond_site_symmetry_1
_geom_bond_site_symmetry_2
O1 C1 1_555 1_555
O2 C1 1_555 1_555
N1 C8 1_555 1_555
N2 C6 1_555 1_555
N3 C10 1_555 1_555
N4 C10 1_555 1_555
C1 C2 1_555 1_555
C2 C3 1_555 1_555
C3 C4 1_555 1_555
C4 H4 1_555 1_555
C5 C2 1_555 1_555
C6 C9 1_555 1_555
C7 N2 1_555 1_555
C8 C7 1_555 1_555
C9 N1 1_555 1_555
C10 C9 1_555 1_555
H1 O1 1_555 1_555
H2 N4 1_555 1_555
H3 C3 1_555 1_555
H5 C5 1_555 1_555
H6 C6 1_555 1_555
H7 C7 1_555 1_555
H8 C8 1_555 1_555
O1C C1C 1_555 1_555
O2C C1C 1_555 1_555
N1A C8A 1_555 1_555
N2A C6A 1_555 1_555
N3A N4 1_555 1_555
N4A N3 1_555 1_555
C1C C2C 1_555 1_555
C2C C5 1_555 1_555
C3C C4 1_555 1_555
C6A C9A 1_555 1_555
C7A N2A 1_555 1_555
C8A C7A 1_555 1_555
C9A N1A 1_555 1_555
C10A N3A 1_555 1_555
H1C O1C 1_555 1_555
H2A N4A 1_555 1_555
H3C C3C 1_555 1_555
H6A C6A 1_555 1_555
H7A C7A 1_555 1_555
H8A C8A 1_555 1_555
N4A C10A 1_555 1_555
C2C C3C 1_555 1_555
C9A C10A 1_555 1_555

#END
