
#######################################################################
#
#                 Cambridge Crystallographic Data Centre
#                                CCDC 
#
#######################################################################
#
# If this CIF has been generated from an entry in the Cambridge 
# Structural Database, then it will include bibliographic, chemical, 
# crystal, experimental, refinement or atomic coordinate data resulting 
# from the CCDC's data processing and validation procedures.
#
#######################################################################

data_PESTOY
_chemical_formula_moiety         'C18 H30 O6 Si1'
_chemical_name_systematic        
'Ethyl 7-((t-butyl(dimethyl)silyl)oxy)-2,5-dioxooctahydro-2H-cyclohepta[b]furan-3-carboxylate'
_symmetry_cell_setting           monoclinic
_symmetry_space_group_name_H-M   'C 2'
_symmetry_Int_Tables_number      5
_space_group_name_Hall           'C 2y'
loop_
_symmetry_equiv_pos_site_id
_symmetry_equiv_pos_as_xyz
1 x,y,z
2 -x,y,-z
3 1/2+x,1/2+y,z
4 1/2-x,1/2+y,-z
_cell_length_a                   57.606(17)
_cell_length_b                   6.594(2)
_cell_length_c                   10.648(3)
_cell_angle_alpha                90
_cell_angle_beta                 95.468(4)
_cell_angle_gamma                90
_cell_volume                     4026.28
_exptl_crystal_colour            colorless
_exptl_crystal_description       plate
_cell_formula_units_Z            8
loop_
_atom_site_label
_atom_site_type_symbol
_atom_site_fract_x
_atom_site_fract_y
_atom_site_fract_z
C1 C 0.11314(8) 0.0719(8) 0.3371(4)
H1 H 0.1168 0.1790 0.2756
C2 C 0.12115(8) 0.1451(9) 0.4713(4)
H2 H 0.1090 0.2352 0.5004
H3 H 0.1226 0.0262 0.5283
C3 C 0.14428(9) 0.2584(9) 0.4817(5)
O1 O 0.14472(7) 0.4390(6) 0.5004(5)
C4 C 0.16654(8) 0.1437(8) 0.4674(5)
H4 H 0.1763 0.1493 0.5491
H5 H 0.1751 0.2163 0.4048
C5 C 0.16428(8) -0.0777(8) 0.4272(4)
H6 H 0.1568 -0.1558 0.4929
C6 C 0.15027(7) -0.1092(8) 0.2984(4)
H7 H 0.1539 0.0018 0.2394
C7 C 0.12431(7) -0.1254(8) 0.3020(5)
H8 H 0.1210 -0.2310 0.3638
H9 H 0.1172 -0.1693 0.2180
C8 C 0.18728(7) -0.1774(8) 0.4052(4)
H10 H 0.1971 -0.0778 0.3633
C9 C 0.17999(8) -0.3464(8) 0.3125(4)
O2 O 0.19046(6) -0.4974(5) 0.2883(3)
O3 O 0.15875(5) -0.3031(5) 0.2535(3)
O4 O 0.08838(5) 0.0459(6) 0.3303(3)
Si1 Si 0.07134(2) 0.1448(2) 0.21231(12)
C10 C 0.07647(10) 0.4229(9) 0.2100(5)
H11 H 0.0684 0.4876 0.2765
H12 H 0.0705 0.4778 0.1278
H13 H 0.0932 0.4500 0.2246
C11 C 0.07848(9) 0.0338(10) 0.0605(5)
H14 H 0.0948 0.0639 0.0480
H15 H 0.0682 0.0923 -0.0088
H16 H 0.0762 -0.1134 0.0623
C12 C 0.04073(9) 0.0841(9) 0.2460(5)
C13 C 0.03583(10) 0.1753(13) 0.3736(5)
H17 H 0.0195 0.1500 0.3883
H18 H 0.0387 0.3218 0.3729
H19 H 0.0461 0.1123 0.4411
C14 C 0.02328(9) 0.1778(12) 0.1432(5)
H20 H 0.0073 0.1473 0.1620
H21 H 0.0259 0.1205 0.0608
H22 H 0.0255 0.3251 0.1414
C15 C 0.03707(10) -0.1439(10) 0.2482(7)
H23 H 0.0479 -0.2043 0.3144
H24 H 0.0400 -0.2014 0.1662
H25 H 0.0210 -0.1733 0.2653
C16 C 0.20105(7) -0.2576(7) 0.5236(4)
O5 O 0.19225(6) -0.3161(7) 0.6147(3)
O6 O 0.22384(5) -0.2513(5) 0.5145(3)
C17 C 0.23854(8) -0.3230(9) 0.6248(5)
H26 H 0.2365 -0.4708 0.6356
H27 H 0.2342 -0.2536 0.7018
C18 C 0.26333(8) -0.2767(9) 0.6042(5)
H28 H 0.2672 -0.3421 0.5263
H29 H 0.2737 -0.3279 0.6756
H30 H 0.2653 -0.1296 0.5972
C19 C 0.11415(8) 0.6017(8) 0.8446(4)
H31 H 0.1179 0.4992 0.7803
C20 C 0.12123(8) 0.5148(9) 0.9773(4)
H32 H 0.1226 0.6290 1.0379
H33 H 0.1084 0.4265 1.0009
C21 C 0.14355(9) 0.3951(9) 0.9929(5)
O7 O 0.14305(7) 0.2195(7) 1.0293(4)
C22 C 0.16633(9) 0.4858(8) 0.9632(5)
H34 H 0.1717 0.4106 0.8910
H35 H 0.1779 0.4626 1.0366
C23 C 0.16635(8) 0.7107(8) 0.9317(4)
H36 H 0.1607 0.7890 1.0033
C24 C 0.15183(8) 0.7694(8) 0.8092(4)
H37 H 0.1541 0.6654 0.7431
C25 C 0.12612(8) 0.7989(9) 0.8179(5)
H38 H 0.1189 0.8562 0.7375
H39 H 0.1238 0.8972 0.8859
C26 C 0.19035(8) 0.7911(8) 0.9046(4)
H40 H 0.1979 0.6890 0.8521
C27 C 0.18406(9) 0.9761(8) 0.8241(5)
O8 O 0.19631(6) 1.1182(6) 0.8042(4)
O9 O 0.16183(6) 0.9613(6) 0.7731(3)
O10 O 0.08955(5) 0.6336(6) 0.8339(3)
Si2 Si 0.07272(2) 0.5369(2) 0.71366(13)
C28 C 0.07781(10) 0.2588(9) 0.7095(5)
H41 H 0.0946 0.2322 0.7119
H42 H 0.0699 0.2023 0.6318
H43 H 0.0717 0.1953 0.7826
C29 C 0.08068(9) 0.6511(10) 0.5639(5)
H44 H 0.0787 0.7986 0.5670
H45 H 0.0706 0.5957 0.4929
H46 H 0.0970 0.6192 0.5528
C30 C 0.04190(9) 0.5979(9) 0.7440(5)
C31 C 0.03668(10) 0.5151(13) 0.8719(5)
H47 H 0.0476 0.5737 0.9381
H48 H 0.0383 0.3672 0.8723
H49 H 0.0207 0.5513 0.8875
C32 C 0.02470(9) 0.5056(11) 0.6405(6)
H50 H 0.0087 0.5375 0.6579
H51 H 0.0268 0.3581 0.6391
H52 H 0.0277 0.5624 0.5585
C33 C 0.03819(10) 0.8268(10) 0.7449(7)
H53 H 0.0404 0.8823 0.6616
H54 H 0.0495 0.8888 0.8084
H55 H 0.0223 0.8565 0.7655
C34 C 0.20696(8) 0.8402(7) 1.0187(4)
O11 O 0.20149(6) 0.9180(6) 1.1131(3)
O12 O 0.22873(5) 0.7888(6) 0.9989(3)
C35 C 0.24704(9) 0.8264(10) 1.1004(5)
H56 H 0.2447 0.9617 1.1375
H57 H 0.2624 0.8259 1.0659
C36 C 0.24669(9) 0.6660(10) 1.2015(5)
H58 H 0.2322 0.6768 1.2421
H59 H 0.2600 0.6859 1.2647
H60 H 0.2477 0.5314 1.1634
loop_
_geom_bond_atom_site_label_1
_geom_bond_atom_site_label_2
_geom_bond_site_symmetry_1
_geom_bond_site_symmetry_2
C1 H1 1_555 1_555
C2 C1 1_555 1_555
H2 C2 1_555 1_555
H3 C2 1_555 1_555
C3 C2 1_555 1_555
O1 C3 1_555 1_555
C4 C3 1_555 1_555
H4 C4 1_555 1_555
H5 C4 1_555 1_555
C5 C4 1_555 1_555
H6 C5 1_555 1_555
C6 C5 1_555 1_555
H7 C6 1_555 1_555
C7 C1 1_555 1_555
H8 C7 1_555 1_555
H9 C7 1_555 1_555
C8 C5 1_555 1_555
H10 C8 1_555 1_555
C9 C8 1_555 1_555
O2 C9 1_555 1_555
O3 C6 1_555 1_555
O4 C1 1_555 1_555
Si1 O4 1_555 1_555
C10 Si1 1_555 1_555
H11 C10 1_555 1_555
H12 C10 1_555 1_555
H13 C10 1_555 1_555
C11 Si1 1_555 1_555
H14 C11 1_555 1_555
H15 C11 1_555 1_555
H16 C11 1_555 1_555
C12 Si1 1_555 1_555
C13 C12 1_555 1_555
H17 C13 1_555 1_555
H18 C13 1_555 1_555
H19 C13 1_555 1_555
C14 C12 1_555 1_555
H20 C14 1_555 1_555
H21 C14 1_555 1_555
H22 C14 1_555 1_555
C15 C12 1_555 1_555
H23 C15 1_555 1_555
H24 C15 1_555 1_555
H25 C15 1_555 1_555
C16 C8 1_555 1_555
O5 C16 1_555 1_555
O6 C16 1_555 1_555
C17 O6 1_555 1_555
H26 C17 1_555 1_555
H27 C17 1_555 1_555
C18 C17 1_555 1_555
H28 C18 1_555 1_555
H29 C18 1_555 1_555
H30 C18 1_555 1_555
C19 H31 1_555 1_555
C20 C19 1_555 1_555
H32 C20 1_555 1_555
H33 C20 1_555 1_555
C21 C20 1_555 1_555
O7 C21 1_555 1_555
C22 C21 1_555 1_555
H34 C22 1_555 1_555
H35 C22 1_555 1_555
C23 C22 1_555 1_555
H36 C23 1_555 1_555
C24 C23 1_555 1_555
H37 C24 1_555 1_555
C25 C19 1_555 1_555
H38 C25 1_555 1_555
H39 C25 1_555 1_555
C26 C23 1_555 1_555
H40 C26 1_555 1_555
C27 C26 1_555 1_555
O8 C27 1_555 1_555
O9 C24 1_555 1_555
O10 C19 1_555 1_555
Si2 O10 1_555 1_555
C28 Si2 1_555 1_555
H41 C28 1_555 1_555
H42 C28 1_555 1_555
H43 C28 1_555 1_555
C29 Si2 1_555 1_555
H44 C29 1_555 1_555
H45 C29 1_555 1_555
H46 C29 1_555 1_555
C30 Si2 1_555 1_555
C31 C30 1_555 1_555
H47 C31 1_555 1_555
H48 C31 1_555 1_555
H49 C31 1_555 1_555
C32 C30 1_555 1_555
H50 C32 1_555 1_555
H51 C32 1_555 1_555
H52 C32 1_555 1_555
C33 C30 1_555 1_555
H53 C33 1_555 1_555
H54 C33 1_555 1_555
H55 C33 1_555 1_555
C34 C26 1_555 1_555
O11 C34 1_555 1_555
O12 C34 1_555 1_555
C35 O12 1_555 1_555
H56 C35 1_555 1_555
H57 C35 1_555 1_555
C36 C35 1_555 1_555
H58 C36 1_555 1_555
H59 C36 1_555 1_555
H60 C36 1_555 1_555
C6 C7 1_555 1_555
C9 O3 1_555 1_555
C24 C25 1_555 1_555
C27 O9 1_555 1_555

#END
