
#######################################################################
#
#                 Cambridge Crystallographic Data Centre
#                                CCDC 
#
#######################################################################
#
# If this CIF has been generated from an entry in the Cambridge 
# Structural Database, then it will include bibliographic, chemical, 
# crystal, experimental, refinement or atomic coordinate data resulting 
# from the CCDC's data processing and validation procedures.
#
#######################################################################

data_PESWAM
_chemical_formula_moiety         'C14 H10 Cl1 N3 S2'
_chemical_name_systematic        
(E)-(4-(2-Chlorophenyl)-1,3-dithiolan-2-ylidene)-1-imidazolyl-acetonitrile
_chemical_properties_biological  
'potent activity against the pathogenic fungi dermatophytes, candiasis and trichophyton'
_symmetry_cell_setting           monoclinic
_symmetry_space_group_name_H-M   'P 21'
_symmetry_Int_Tables_number      4
_space_group_name_Hall           'P 2yb'
loop_
_symmetry_equiv_pos_site_id
_symmetry_equiv_pos_as_xyz
1 x,y,z
2 -x,1/2+y,-z
_cell_length_a                   5.5690(11)
_cell_length_b                   9.5120(19)
_cell_length_c                   13.372(3)
_cell_angle_alpha                90
_cell_angle_beta                 95.05(3)
_cell_angle_gamma                90
_cell_volume                     705.596
_exptl_crystal_colour            yellow
_exptl_crystal_description       block
_chemical_melting_point          413-414K
_cell_formula_units_Z            2
_exptl_crystal_recrystallization_method ethanol
loop_
_atom_site_label
_atom_site_type_symbol
_atom_site_fract_x
_atom_site_fract_y
_atom_site_fract_z
Cl1 Cl 1.0713(4) 0.6876(3) 0.54197(17)
S1 S 0.6821(3) 0.86502(18) 0.87800(11)
S2 S 0.9283(3) 1.01255(19) 0.72387(11)
N1 N 1.3816(11) 1.2196(8) 0.8766(5)
N2 N 0.9976(9) 1.0482(6) 1.0250(3)
N3 N 0.8268(12) 1.0893(9) 1.1646(5)
C1 C 0.5819(15) 0.8890(9) 0.3648(5)
H1 H 0.5418 0.8964 0.2960
C2 C 0.4508(14) 0.9610(9) 0.4320(6)
H2 H 0.3222 1.0175 0.4079
C3 C 0.5077(13) 0.9501(9) 0.5318(5)
H3 H 0.4188 1.0007 0.5752
C4 C 0.6978(11) 0.8643(8) 0.5719(4)
C5 C 0.8255(12) 0.7961(8) 0.5037(5)
C6 C 0.7702(13) 0.8073(9) 0.4014(5)
H4 H 0.8615 0.7592 0.3575
C7 C 0.7686(11) 0.8515(8) 0.6834(5)
H5 H 0.8797 0.7720 0.6945
C8 C 0.5675(12) 0.8331(9) 0.7489(5)
H6 H 0.5036 0.7384 0.7420
H7 H 0.4386 0.8987 0.7292
C9 C 0.8994(10) 0.9877(7) 0.8510(4)
C10 C 1.0378(11) 1.0579(7) 0.9224(4)
C11 C 1.2279(12) 1.1483(9) 0.8958(5)
C12 C 1.1362(12) 0.9815(8) 1.1002(5)
H8 H 1.2772 0.9308 1.0944
C13 C 1.0247(14) 1.0048(10) 1.1856(5)
H9 H 1.0752 0.9687 1.2486
C14 C 0.8159(13) 1.1098(9) 1.0706(5)
H10 H 0.6946 1.1623 1.0361
loop_
_geom_bond_atom_site_label_1
_geom_bond_atom_site_label_2
_geom_bond_site_symmetry_1
_geom_bond_site_symmetry_2
Cl1 C5 1_555 1_555
S1 C8 1_555 1_555
S2 C7 1_555 1_555
N1 C11 1_555 1_555
N2 C10 1_555 1_555
N3 C13 1_555 1_555
C1 H1 1_555 1_555
C2 C1 1_555 1_555
H2 C2 1_555 1_555
C3 C2 1_555 1_555
H3 C3 1_555 1_555
C4 C3 1_555 1_555
C5 C4 1_555 1_555
C6 C1 1_555 1_555
H4 C6 1_555 1_555
C7 C4 1_555 1_555
H5 C7 1_555 1_555
C8 C7 1_555 1_555
H6 C8 1_555 1_555
H7 C8 1_555 1_555
C9 S1 1_555 1_555
C10 C9 1_555 1_555
C11 C10 1_555 1_555
C12 N2 1_555 1_555
H8 C12 1_555 1_555
C13 C12 1_555 1_555
H9 C13 1_555 1_555
C14 N2 1_555 1_555
H10 C14 1_555 1_555
S2 C9 1_555 1_555
N3 C14 1_555 1_555
C5 C6 1_555 1_555

#END
