
#######################################################################
#
#                 Cambridge Crystallographic Data Centre
#                                CCDC 
#
#######################################################################
#
# If this CIF has been generated from an entry in the Cambridge 
# Structural Database, then it will include bibliographic, chemical, 
# crystal, experimental, refinement or atomic coordinate data resulting 
# from the CCDC's data processing and validation procedures.
#
#######################################################################

data_PESXOD
_chemical_formula_moiety         'C54 H60 N2'
_chemical_name_systematic        
N^9^,N^9^,N^10^,N^10^-tetrakis(4-t-butylphenyl)anthracene-9,10-diamine
_symmetry_cell_setting           triclinic
_symmetry_space_group_name_H-M   'P -1'
_symmetry_Int_Tables_number      2
_space_group_name_Hall           '-P 1'
loop_
_symmetry_equiv_pos_site_id
_symmetry_equiv_pos_as_xyz
1 x,y,z
2 -x,-y,-z
_cell_length_a                   8.3726(17)
_cell_length_b                   9.4414(19)
_cell_length_c                   14.663(3)
_cell_angle_alpha                100.11(3)
_cell_angle_beta                 103.21(3)
_cell_angle_gamma                98.57(3)
_cell_volume                     1089.06
_exptl_crystal_colour            yellow
_exptl_crystal_description       block
_cell_formula_units_Z            1
loop_
_atom_site_label
_atom_site_type_symbol
_atom_site_fract_x
_atom_site_fract_y
_atom_site_fract_z
N1 N 0.6080(4) 0.7166(3) 0.1740(2)
C1 C 0.7559(5) 0.8219(4) 0.1886(3)
C2 C 0.8667(5) 0.7995(4) 0.1314(3)
H1 H 0.8436 0.7117 0.0836
C3 C 1.0093(5) 0.9035(4) 0.1437(3)
H2 H 1.0808 0.8858 0.1029
C4 C 1.0522(5) 1.0335(4) 0.2140(3)
C5 C 0.9411(5) 1.0545(4) 0.2703(3)
H3 H 0.9664 1.1410 0.3193
C6 C 0.7948(5) 0.9539(4) 0.2575(3)
H4 H 0.7202 0.9747 0.2958
C7 C 1.2128(5) 1.1456(4) 0.2257(3)
C8 C 1.2045(6) 1.1977(6) 0.1309(3)
H5 H 1.1073 1.2442 0.1161
H6 H 1.1939 1.1134 0.0789
H7 H 1.3068 1.2688 0.1378
C9 C 1.3658(5) 1.0717(5) 0.2489(3)
H8 H 1.4686 1.1435 0.2580
H9 H 1.3569 0.9896 0.1956
H10 H 1.3687 1.0352 0.3077
C10 C 1.2373(6) 1.2798(5) 0.3056(3)
H11 H 1.1434 1.3302 0.2911
H12 H 1.3420 1.3466 0.3106
H13 H 1.2424 1.2492 0.3665
C11 C 0.5101(5) 0.7104(4) 0.2412(3)
C12 C 0.3380(5) 0.6678(4) 0.2088(3)
H14 H 0.2862 0.6396 0.1418
C13 C 0.2401(5) 0.6660(4) 0.2736(3)
H15 H 0.1221 0.6362 0.2498
C14 C 0.3097(5) 0.7064(4) 0.3724(3)
C15 C 0.4841(5) 0.7431(4) 0.4036(3)
H16 H 0.5365 0.7678 0.4705
C16 C 0.5828(5) 0.7444(4) 0.3396(3)
H17 H 0.7012 0.7689 0.3632
C17 C 0.2042(5) 0.7186(5) 0.4458(3)
C18 C 0.0208(5) 0.6495(6) 0.3993(3)
H18 H -0.0241 0.6999 0.3490
H19 H -0.0424 0.6586 0.4480
H20 H 0.0107 0.5455 0.3709
C19 C 0.2159(7) 0.8837(5) 0.4856(4)
H21 H 0.3310 0.9283 0.5227
H22 H 0.1402 0.8954 0.5273
H23 H 0.1838 0.9320 0.4322
C20 C 0.2682(6) 0.6440(6) 0.5272(4)
H24 H 0.2574 0.5390 0.5012
H25 H 0.2023 0.6570 0.5742
H26 H 0.3861 0.6879 0.5584
C21 C 0.5521(5) 0.6078(4) 0.0852(3)
C22 C 0.5911(5) 0.4672(4) 0.0859(3)
C23 C 0.6835(5) 0.4317(4) 0.1701(3)
H27 H 0.7180 0.5029 0.2289
C24 C 0.7230(5) 0.2967(5) 0.1674(3)
H28 H 0.7865 0.2753 0.2240
C25 C 0.6705(5) 0.1873(5) 0.0809(3)
H29 H 0.6995 0.0936 0.0800
C26 C 0.5789(5) 0.2164(4) -0.0006(3)
H30 H 0.5435 0.1420 -0.0578
C27 C 0.5348(5) 0.3568(4) -0.0018(3)
N1A N 0.3920(4) 0.2834(3) -0.1740(2)
C1A C 0.2441(5) 0.1781(4) -0.1886(3)
C2A C 0.1333(5) 0.2005(4) -0.1314(3)
H1A H 0.1564 0.2883 -0.0836
C3A C -0.0093(5) 0.0965(4) -0.1437(3)
H2A H -0.0808 0.1142 -0.1029
C4A C -0.0522(5) -0.0335(4) -0.2140(3)
C5A C 0.0589(5) -0.0545(4) -0.2703(3)
H3A H 0.0336 -0.1410 -0.3193
C6A C 0.2052(5) 0.0461(4) -0.2575(3)
H4A H 0.2798 0.0253 -0.2958
C7A C -0.2128(5) -0.1456(4) -0.2257(3)
C8A C -0.2045(6) -0.1977(6) -0.1309(3)
H5A H -0.1073 -0.2442 -0.1161
H6A H -0.1939 -0.1134 -0.0789
H7A H -0.3068 -0.2688 -0.1378
C9A C -0.3658(5) -0.0717(5) -0.2489(3)
H8A H -0.4686 -0.1435 -0.2580
H9A H -0.3569 0.0104 -0.1956
H10A H -0.3687 -0.0352 -0.3077
C10A C -0.2373(6) -0.2798(5) -0.3056(3)
H11A H -0.1434 -0.3302 -0.2911
H12A H -0.3420 -0.3466 -0.3106
H13A H -0.2424 -0.2492 -0.3665
C11A C 0.4899(5) 0.2896(4) -0.2412(3)
C12A C 0.6620(5) 0.3322(4) -0.2088(3)
H14A H 0.7138 0.3604 -0.1418
C13A C 0.7599(5) 0.3340(4) -0.2736(3)
H15A H 0.8779 0.3638 -0.2498
C14A C 0.6903(5) 0.2936(4) -0.3724(3)
C15A C 0.5159(5) 0.2569(4) -0.4036(3)
H16A H 0.4635 0.2322 -0.4705
C16A C 0.4172(5) 0.2556(4) -0.3396(3)
H17A H 0.2988 0.2311 -0.3632
C17A C 0.7958(5) 0.2814(5) -0.4458(3)
C18A C 0.9792(5) 0.3505(6) -0.3993(3)
H18A H 1.0241 0.3001 -0.3490
H19A H 1.0424 0.3414 -0.4480
H20A H 0.9893 0.4545 -0.3709
C19A C 0.7841(7) 0.1163(5) -0.4856(4)
H21A H 0.6690 0.0717 -0.5227
H22A H 0.8598 0.1046 -0.5273
H23A H 0.8162 0.0680 -0.4322
C20A C 0.7318(6) 0.3560(6) -0.5272(4)
H24A H 0.7426 0.4610 -0.5012
H25A H 0.7977 0.3430 -0.5742
H26A H 0.6139 0.3121 -0.5584
C21A C 0.4479(5) 0.3922(4) -0.0852(3)
C22A C 0.4089(5) 0.5328(4) -0.0859(3)
C23A C 0.3165(5) 0.5683(4) -0.1701(3)
H27A H 0.2820 0.4971 -0.2289
C24A C 0.2770(5) 0.7033(5) -0.1674(3)
H28A H 0.2135 0.7247 -0.2240
C25A C 0.3295(5) 0.8127(5) -0.0809(3)
H29A H 0.3005 0.9064 -0.0800
C26A C 0.4211(5) 0.7836(4) 0.0006(3)
H30A H 0.4565 0.8580 0.0578
C27A C 0.4652(5) 0.6432(4) 0.0018(3)
loop_
_geom_bond_atom_site_label_1
_geom_bond_atom_site_label_2
_geom_bond_site_symmetry_1
_geom_bond_site_symmetry_2
N1 C1 1_555 1_555
C1 C2 1_555 1_555
C2 H1 1_555 1_555
C3 C2 1_555 1_555
H2 C3 1_555 1_555
C4 C3 1_555 1_555
C5 C4 1_555 1_555
H3 C5 1_555 1_555
C6 C1 1_555 1_555
H4 C6 1_555 1_555
C7 C4 1_555 1_555
C8 C7 1_555 1_555
H5 C8 1_555 1_555
H6 C8 1_555 1_555
H7 C8 1_555 1_555
C9 C7 1_555 1_555
H8 C9 1_555 1_555
H9 C9 1_555 1_555
H10 C9 1_555 1_555
C10 C7 1_555 1_555
H11 C10 1_555 1_555
H12 C10 1_555 1_555
H13 C10 1_555 1_555
C11 N1 1_555 1_555
C12 C11 1_555 1_555
H14 C12 1_555 1_555
C13 C12 1_555 1_555
H15 C13 1_555 1_555
C14 C13 1_555 1_555
C15 C14 1_555 1_555
H16 C15 1_555 1_555
C16 C11 1_555 1_555
H17 C16 1_555 1_555
C17 C14 1_555 1_555
C18 C17 1_555 1_555
H18 C18 1_555 1_555
H19 C18 1_555 1_555
H20 C18 1_555 1_555
C19 C17 1_555 1_555
H21 C19 1_555 1_555
H22 C19 1_555 1_555
H23 C19 1_555 1_555
C20 C17 1_555 1_555
H24 C20 1_555 1_555
H25 C20 1_555 1_555
H26 C20 1_555 1_555
C21 N1 1_555 1_555
C22 C21 1_555 1_555
C23 C22 1_555 1_555
H27 C23 1_555 1_555
C24 C23 1_555 1_555
H28 C24 1_555 1_555
C25 C24 1_555 1_555
H29 C25 1_555 1_555
C26 C25 1_555 1_555
H30 C26 1_555 1_555
C27 C22 1_555 1_555
N1A C1A 1_555 1_555
C1A C2A 1_555 1_555
C2A H1A 1_555 1_555
C3A C2A 1_555 1_555
H2A C3A 1_555 1_555
C4A C3A 1_555 1_555
C5A C4A 1_555 1_555
H3A C5A 1_555 1_555
C6A C1A 1_555 1_555
H4A C6A 1_555 1_555
C7A C4A 1_555 1_555
C8A C7A 1_555 1_555
H5A C8A 1_555 1_555
H6A C8A 1_555 1_555
H7A C8A 1_555 1_555
C9A C7A 1_555 1_555
H8A C9A 1_555 1_555
H9A C9A 1_555 1_555
H10A C9A 1_555 1_555
C10A C7A 1_555 1_555
H11A C10A 1_555 1_555
H12A C10A 1_555 1_555
H13A C10A 1_555 1_555
C11A N1A 1_555 1_555
C12A C11A 1_555 1_555
H14A C12A 1_555 1_555
C13A C12A 1_555 1_555
H15A C13A 1_555 1_555
C14A C13A 1_555 1_555
C15A C14A 1_555 1_555
H16A C15A 1_555 1_555
C16A C11A 1_555 1_555
H17A C16A 1_555 1_555
C17A C14A 1_555 1_555
C18A C17A 1_555 1_555
H18A C18A 1_555 1_555
H19A C18A 1_555 1_555
H20A C18A 1_555 1_555
C19A C17A 1_555 1_555
H21A C19A 1_555 1_555
H22A C19A 1_555 1_555
H23A C19A 1_555 1_555
C20A C17A 1_555 1_555
H24A C20A 1_555 1_555
H25A C20A 1_555 1_555
H26A C20A 1_555 1_555
C21A C27 1_555 1_555
C22A C21A 1_555 1_555
C23A C22A 1_555 1_555
H27A C23A 1_555 1_555
C24A C23A 1_555 1_555
H28A C24A 1_555 1_555
C25A C24A 1_555 1_555
H29A C25A 1_555 1_555
C26A C25A 1_555 1_555
H30A C26A 1_555 1_555
C27A C21 1_555 1_555
C5 C6 1_555 1_555
C15 C16 1_555 1_555
C26 C27 1_555 1_555
N1A C21A 1_555 1_555
C5A C6A 1_555 1_555
C15A C16A 1_555 1_555
C22A C27A 1_555 1_555
C26A C27A 1_555 1_555

#END
