
#######################################################################
#
#                 Cambridge Crystallographic Data Centre
#                                CCDC 
#
#######################################################################
#
# If this CIF has been generated from an entry in the Cambridge 
# Structural Database, then it will include bibliographic, chemical, 
# crystal, experimental, refinement or atomic coordinate data resulting 
# from the CCDC's data processing and validation procedures.
#
#######################################################################

data_PESXOC
_chemical_formula_moiety         'C12 H12 O3'
_chemical_name_systematic        7,8-Dimethoxy-2-naphthol
_symmetry_cell_setting           orthorhombic
_symmetry_space_group_name_H-M   'P b c a'
_symmetry_Int_Tables_number      61
_space_group_name_Hall           '-P 2ac 2ab'
loop_
_symmetry_equiv_pos_site_id
_symmetry_equiv_pos_as_xyz
1 x,y,z
2 1/2+x,1/2-y,-z
3 -x,1/2+y,1/2-z
4 1/2-x,-y,1/2+z
5 -x,-y,-z
6 1/2-x,1/2+y,z
7 x,1/2-y,1/2+z
8 1/2+x,y,1/2-z
_cell_length_a                   11.5988(5)
_cell_length_b                   18.2853(7)
_cell_length_c                   19.0374(7)
_cell_angle_alpha                90
_cell_angle_beta                 90
_cell_angle_gamma                90
_cell_volume                     4037.6
_exptl_crystal_colour            colorless
_exptl_crystal_description       tabular
_cell_formula_units_Z            16
loop_
_atom_site_label
_atom_site_type_symbol
_atom_site_fract_x
_atom_site_fract_y
_atom_site_fract_z
O1 O 0.66573(10) 0.12855(6) 0.16845(6)
O2 O 0.87040(11) 0.44646(6) 0.34865(6)
H1 H 0.8726 0.4922 0.3445
O3 O 0.77132(9) 0.18842(6) 0.27824(5)
C1 C 0.62063(15) 0.09492(10) 0.10649(9)
H2 H 0.5383 0.1062 0.1023
H3 H 0.6310 0.0418 0.1095
H4 H 0.6616 0.1137 0.0652
C2 C 0.66901(14) 0.20333(8) 0.16998(8)
C3 C 0.72614(13) 0.23404(9) 0.22618(8)
C4 C 0.73796(13) 0.31051(9) 0.23364(8)
C5 C 0.68527(13) 0.35610(9) 0.18188(8)
C6 C 0.69753(14) 0.43278(9) 0.18846(8)
H5 H 0.6625 0.4639 0.1546
C7 C 0.75862(14) 0.46296(9) 0.24238(8)
H6 H 0.7667 0.5146 0.2456
C8 C 0.80997(14) 0.41717(9) 0.29365(8)
C9 C 0.88385(14) 0.15970(10) 0.26090(9)
H7 H 0.8796 0.1329 0.2164
H8 H 0.9095 0.1265 0.2982
H9 H 0.9388 0.2001 0.2563
C10 C 0.61655(14) 0.24881(9) 0.11933(8)
H10 H 0.5757 0.2279 0.0810
C11 C 0.62471(14) 0.32302(9) 0.12560(8)
H11 H 0.5889 0.3532 0.0914
C12 C 0.80003(13) 0.34298(9) 0.28967(8)
H12 H 0.8348 0.3130 0.3245
O4 O 0.90588(10) 0.06892(6) 0.50776(6)
O5 O 1.12076(10) 0.40373(6) 0.65731(6)
H13 H 1.1634 0.3742 0.6789
O6 O 1.05679(9) 0.13845(6) 0.59108(5)
C13 C 0.97885(13) 0.40862(9) 0.56768(8)
H14 H 0.9816 0.4605 0.5700
C14 C 0.90504(13) 0.37459(9) 0.52230(8)
H15 H 0.8563 0.4033 0.4932
C15 C 0.89975(13) 0.29733(9) 0.51783(8)
C16 C 0.82221(13) 0.26006(9) 0.47329(8)
H16 H 0.7696 0.2874 0.4455
C17 C 0.82118(14) 0.18535(9) 0.46929(8)
H17 H 0.7678 0.1615 0.4392
C18 C 0.89917(13) 0.14360(9) 0.50978(8)
C19 C 0.82916(15) 0.03081(9) 0.46152(9)
H18 H 0.7494 0.0386 0.4768
H19 H 0.8468 -0.0216 0.4626
H20 H 0.8388 0.0493 0.4136
C20 C 1.05121(13) 0.36595(9) 0.61123(8)
C21 C 1.05185(13) 0.29151(9) 0.60759(8)
H21 H 1.1024 0.2640 0.6366
C22 C 0.97654(12) 0.25528(9) 0.56017(8)
C23 C 0.97601(13) 0.17844(9) 0.55380(8)
C24 C 1.01064(15) 0.10850(10) 0.65507(8)
H22 H 0.9897 0.1484 0.6870
H23 H 1.0688 0.0774 0.6774
H24 H 0.9420 0.0793 0.6444
loop_
_geom_bond_atom_site_label_1
_geom_bond_atom_site_label_2
_geom_bond_site_symmetry_1
_geom_bond_site_symmetry_2
O1 C1 1_555 1_555
O2 H1 1_555 1_555
O3 C3 1_555 1_555
C1 H2 1_555 1_555
H3 C1 1_555 1_555
H4 C1 1_555 1_555
C2 O1 1_555 1_555
C3 C2 1_555 1_555
C4 C3 1_555 1_555
C5 C4 1_555 1_555
C6 C5 1_555 1_555
H5 C6 1_555 1_555
C7 C6 1_555 1_555
H6 C7 1_555 1_555
C8 O2 1_555 1_555
C9 O3 1_555 1_555
H7 C9 1_555 1_555
H8 C9 1_555 1_555
H9 C9 1_555 1_555
C10 C2 1_555 1_555
H10 C10 1_555 1_555
C11 C5 1_555 1_555
H11 C11 1_555 1_555
C12 C4 1_555 1_555
H12 C12 1_555 1_555
O4 C18 1_555 1_555
O5 H13 1_555 1_555
O6 C23 1_555 1_555
C13 H14 1_555 1_555
C14 C13 1_555 1_555
H15 C14 1_555 1_555
C15 C14 1_555 1_555
C16 C15 1_555 1_555
H16 C16 1_555 1_555
C17 C16 1_555 1_555
H17 C17 1_555 1_555
C18 C17 1_555 1_555
C19 O4 1_555 1_555
H18 C19 1_555 1_555
H19 C19 1_555 1_555
H20 C19 1_555 1_555
C20 O5 1_555 1_555
C21 C20 1_555 1_555
H21 C21 1_555 1_555
C22 C15 1_555 1_555
C23 C18 1_555 1_555
C24 O6 1_555 1_555
H22 C24 1_555 1_555
H23 C24 1_555 1_555
H24 C24 1_555 1_555
C7 C8 1_555 1_555
C8 C12 1_555 1_555
C10 C11 1_555 1_555
C13 C20 1_555 1_555
C21 C22 1_555 1_555
C22 C23 1_555 1_555

#END
