
#######################################################################
#
#                 Cambridge Crystallographic Data Centre
#                                CCDC 
#
#######################################################################
#
# If this CIF has been generated from an entry in the Cambridge 
# Structural Database, then it will include bibliographic, chemical, 
# crystal, experimental, refinement or atomic coordinate data resulting 
# from the CCDC's data processing and validation procedures.
#
#######################################################################

data_PESYUJ
_chemical_formula_moiety         'C21 H15 Br1 O2'
_chemical_name_systematic        
4-Bromo-9-phenyl-8,10-dioxatetracyclo[7.7.1.0^2,7^.0^11,16^]heptadeca-2,4,6,11,13,15-hexaene
_symmetry_cell_setting           orthorhombic
_symmetry_space_group_name_H-M   'P 21 21 21'
_symmetry_Int_Tables_number      19
_space_group_name_Hall           'P 2ac 2ab'
loop_
_symmetry_equiv_pos_site_id
_symmetry_equiv_pos_as_xyz
1 x,y,z
2 1/2-x,-y,1/2+z
3 -x,1/2+y,1/2-z
4 1/2+x,1/2-y,-z
_cell_length_a                   5.9409(6)
_cell_length_b                   10.8264(12)
_cell_length_c                   25.900(3)
_cell_angle_alpha                90
_cell_angle_beta                 90
_cell_angle_gamma                90
_cell_volume                     1665.85
_exptl_crystal_colour            colorless
_exptl_crystal_description       prismatic
_cell_formula_units_Z            4
loop_
_atom_site_label
_atom_site_type_symbol
_atom_site_fract_x
_atom_site_fract_y
_atom_site_fract_z
Br1 Br 0.59992(7) 0.05840(3) -0.002089(13)
O1 O 1.1351(4) 0.5254(2) 0.15956(8)
O2 O 1.1547(4) 0.3126(2) 0.15949(8)
C1 C 0.9815(6) 0.5801(3) 0.12687(11)
C2 C 1.0461(6) 0.6899(4) 0.10495(12)
H1 H 1.1852 0.7244 0.1129
C3 C 0.9026(9) 0.7488(3) 0.07100(15)
H2 H 0.9463 0.8228 0.0558
C4 C 0.6962(8) 0.6991(4) 0.05948(14)
H3 H 0.5993 0.7398 0.0370
C5 C 0.6335(6) 0.5880(4) 0.08153(12)
H4 H 0.4953 0.5530 0.0731
C6 C 0.7744(5) 0.5280(3) 0.11620(11)
C7 C 0.7135(5) 0.4090(3) 0.14223(11)
H5 H 0.5497 0.4026 0.1457
C8 C 0.8226(5) 0.4096(3) 0.19543(11)
H6 H 0.7700 0.4798 0.2153
H7 H 0.7845 0.3346 0.2140
C9 C 1.0754(5) 0.4176(3) 0.18748(11)
C10 C 1.0181(5) 0.2588(3) 0.12334(11)
C11 C 0.8030(5) 0.2996(3) 0.11240(11)
C12 C 0.6813(5) 0.2411(3) 0.07424(12)
H8 H 0.5377 0.2688 0.0659
C13 C 0.7722(6) 0.1418(3) 0.04846(11)
C14 C 0.9863(6) 0.1005(3) 0.05932(12)
H9 H 1.0476 0.0345 0.0412
C15 C 1.1081(6) 0.1585(3) 0.09745(11)
H10 H 1.2513 0.1303 0.1058
C16 C 1.2085(6) 0.4201(3) 0.23712(11)
C17 C 1.2640(8) 0.5302(4) 0.25986(14)
H11 H 1.2238 0.6041 0.2441
C18 C 1.3805(10) 0.5318(5) 0.30651(17)
H12 H 1.4163 0.6068 0.3219
C19 C 1.4418(8) 0.4247(5) 0.32951(14)
H13 H 1.5207 0.4262 0.3605
C20 C 1.3879(8) 0.3147(5) 0.30713(15)
H14 H 1.4290 0.2410 0.3230
C21 C 1.2724(7) 0.3128(4) 0.26105(13)
H15 H 1.2372 0.2374 0.2459
loop_
_geom_bond_atom_site_label_1
_geom_bond_atom_site_label_2
_geom_bond_site_symmetry_1
_geom_bond_site_symmetry_2
Br1 C13 1_555 1_555
O1 C1 1_555 1_555
O2 C9 1_555 1_555
C1 C2 1_555 1_555
C2 H1 1_555 1_555
C3 C2 1_555 1_555
H2 C3 1_555 1_555
C4 C3 1_555 1_555
H3 C4 1_555 1_555
C5 C4 1_555 1_555
H4 C5 1_555 1_555
C6 C1 1_555 1_555
C7 C6 1_555 1_555
H5 C7 1_555 1_555
C8 C7 1_555 1_555
H6 C8 1_555 1_555
H7 C8 1_555 1_555
C9 O1 1_555 1_555
C10 O2 1_555 1_555
C11 C7 1_555 1_555
C12 C11 1_555 1_555
H8 C12 1_555 1_555
C13 C12 1_555 1_555
C14 C13 1_555 1_555
H9 C14 1_555 1_555
C15 C10 1_555 1_555
H10 C15 1_555 1_555
C16 C9 1_555 1_555
C17 C16 1_555 1_555
H11 C17 1_555 1_555
C18 C17 1_555 1_555
H12 C18 1_555 1_555
C19 C18 1_555 1_555
H13 C19 1_555 1_555
C20 C19 1_555 1_555
H14 C20 1_555 1_555
C21 C16 1_555 1_555
H15 C21 1_555 1_555
C5 C6 1_555 1_555
C8 C9 1_555 1_555
C10 C11 1_555 1_555
C14 C15 1_555 1_555
C20 C21 1_555 1_555

#END
