
#######################################################################
#
#                 Cambridge Crystallographic Data Centre
#                                CCDC 
#
#######################################################################
#
# If this CIF has been generated from an entry in the Cambridge 
# Structural Database, then it will include bibliographic, chemical, 
# crystal, experimental, refinement or atomic coordinate data resulting 
# from the CCDC's data processing and validation procedures.
#
#######################################################################

data_PESYOD
_chemical_formula_moiety         'C30 H27 Br1 N2 O3 S1'
_chemical_name_systematic        
N-Benzyl-N-((3-(4-bromophenyl)-2-phenyl-1,2-oxazolidin-4-ylidene)methyl)-4-methylbenzenesulfonamide
_symmetry_cell_setting           orthorhombic
_symmetry_space_group_name_H-M   'P 21 21 2'
_symmetry_Int_Tables_number      18
_space_group_name_Hall           'P 2 2ab'
loop_
_symmetry_equiv_pos_site_id
_symmetry_equiv_pos_as_xyz
1 x,y,z
2 -x,-y,z
3 1/2-x,1/2+y,-z
4 1/2+x,1/2-y,-z
_cell_length_a                   18.063(3)
_cell_length_b                   20.802(4)
_cell_length_c                   7.1849(12)
_cell_angle_alpha                90
_cell_angle_beta                 90
_cell_angle_gamma                90
_cell_volume                     2699.7
_exptl_crystal_colour            colorless
_exptl_crystal_description       Block
_cell_formula_units_Z            4
loop_
_atom_site_label
_atom_site_type_symbol
_atom_site_fract_x
_atom_site_fract_y
_atom_site_fract_z
Br1 Br 0.035556(14) 0.420353(12) 0.91200(4)
S1 S 0.47240(4) 0.31108(3) 0.51707(9)
O1 O 0.30156(9) 0.17180(7) 1.0049(2)
O2 O 0.49822(11) 0.36401(9) 0.4061(3)
O3 O 0.41482(10) 0.27046(9) 0.4456(2)
N1 N 0.28694(11) 0.17524(9) 0.8063(3)
N2 N 0.44112(11) 0.34236(9) 0.7147(3)
C1 C 0.30423(12) 0.24332(10) 0.7619(3)
H1 H 0.3177 0.2475 0.6275
C2 C 0.37138(12) 0.25703(10) 0.8825(3)
C3 C 0.36717(14) 0.20955(11) 1.0404(3)
H2 H 0.4117 0.1818 1.0427
H3 H 0.3631 0.2322 1.1613
C4 C 0.32875(13) 0.12795(11) 0.7062(3)
C5 C 0.36348(14) 0.07728(12) 0.7945(3)
H4 H 0.3629 0.0745 0.9265
C6 C 0.39918(17) 0.03045(13) 0.6903(4)
H5 H 0.4240 -0.0036 0.7522
C7 C 0.39925(15) 0.03248(12) 0.4985(4)
H6 H 0.4238 0.0001 0.4285
C8 C 0.36309(14) 0.08237(12) 0.4095(3)
H7 H 0.3628 0.0845 0.2774
C9 C 0.32723(15) 0.12931(12) 0.5124(3)
H8 H 0.3013 0.1628 0.4502
C10 C 0.23830(13) 0.28592(10) 0.8056(3)
C11 C 0.24592(14) 0.35265(11) 0.7987(3)
H9 H 0.2930 0.3707 0.7718
C12 C 0.18637(13) 0.39306(11) 0.8303(3)
H10 H 0.1921 0.4384 0.8243
C13 C 0.11870(13) 0.36605(10) 0.8707(3)
C14 C 0.10886(13) 0.30034(10) 0.8793(3)
H11 H 0.0617 0.2826 0.9077
C15 C 0.16885(13) 0.26078(11) 0.8457(3)
H12 H 0.1625 0.2155 0.8502
C16 C 0.42788(13) 0.29767(10) 0.8633(3)
H13 H 0.4638 0.2970 0.9599
C17 C 0.54783(13) 0.26162(11) 0.5748(3)
C18 C 0.54050(15) 0.19490(11) 0.5686(3)
H14 H 0.4942 0.1759 0.5383
C19 C 0.60081(16) 0.15701(12) 0.6066(4)
H15 H 0.5959 0.1116 0.5995
C20 C 0.66862(16) 0.18302(13) 0.6551(3)
C21 C 0.67415(16) 0.25004(13) 0.6684(4)
H16 H 0.7196 0.2689 0.7066
C22 C 0.61520(14) 0.28887(13) 0.6273(4)
H17 H 0.6202 0.3343 0.6346
C23 C 0.73529(17) 0.14084(14) 0.6925(4)
H18 H 0.7197 0.0958 0.6980
H19 H 0.7578 0.1531 0.8115
H20 H 0.7716 0.1464 0.5923
C24 C 0.47629(15) 0.40356(11) 0.7798(4)
H21 H 0.5080 0.4212 0.6796
H22 H 0.5081 0.3946 0.8889
C25 C 0.41797(16) 0.45264(13) 0.8324(5)
C26 C 0.37846(17) 0.48187(14) 0.6914(6)
H23 H 0.3868 0.4698 0.5656
C27 C 0.3271(2) 0.52828(18) 0.7331(10)
H24 H 0.2996 0.5479 0.6358
C28 C 0.3156(3) 0.5461(2) 0.9089(13)
H25 H 0.2808 0.5791 0.9351
C29 C 0.3536(3) 0.5173(2) 1.0539(9)
H26 H 0.3441 0.5296 1.1789
C30 C 0.4070(2) 0.46920(17) 1.0139(6)
H27 H 0.4343 0.4491 1.1108
loop_
_geom_bond_atom_site_label_1
_geom_bond_atom_site_label_2
_geom_bond_site_symmetry_1
_geom_bond_site_symmetry_2
Br1 C13 1_555 1_555
S1 O2 1_555 1_555
O1 N1 1_555 1_555
O3 S1 1_555 1_555
N1 C1 1_555 1_555
N2 S1 1_555 1_555
C1 H1 1_555 1_555
C2 C1 1_555 1_555
C3 O1 1_555 1_555
H2 C3 1_555 1_555
H3 C3 1_555 1_555
C4 N1 1_555 1_555
C5 C4 1_555 1_555
H4 C5 1_555 1_555
C6 C5 1_555 1_555
H5 C6 1_555 1_555
C7 C6 1_555 1_555
H6 C7 1_555 1_555
C8 C7 1_555 1_555
H7 C8 1_555 1_555
C9 C4 1_555 1_555
H8 C9 1_555 1_555
C10 C1 1_555 1_555
C11 C10 1_555 1_555
H9 C11 1_555 1_555
C12 C11 1_555 1_555
H10 C12 1_555 1_555
C13 C12 1_555 1_555
C14 C13 1_555 1_555
H11 C14 1_555 1_555
C15 C10 1_555 1_555
H12 C15 1_555 1_555
C16 N2 1_555 1_555
H13 C16 1_555 1_555
C17 S1 1_555 1_555
C18 C17 1_555 1_555
H14 C18 1_555 1_555
C19 C18 1_555 1_555
H15 C19 1_555 1_555
C20 C19 1_555 1_555
C21 C20 1_555 1_555
H16 C21 1_555 1_555
C22 C17 1_555 1_555
H17 C22 1_555 1_555
C23 C20 1_555 1_555
H18 C23 1_555 1_555
H19 C23 1_555 1_555
H20 C23 1_555 1_555
C24 N2 1_555 1_555
H21 C24 1_555 1_555
H22 C24 1_555 1_555
C25 C24 1_555 1_555
C26 C25 1_555 1_555
H23 C26 1_555 1_555
C27 C26 1_555 1_555
H24 C27 1_555 1_555
C28 C27 1_555 1_555
H25 C28 1_555 1_555
C29 C28 1_555 1_555
H26 C29 1_555 1_555
C30 C25 1_555 1_555
H27 C30 1_555 1_555
C2 C3 1_555 1_555
C2 C16 1_555 1_555
C8 C9 1_555 1_555
C14 C15 1_555 1_555
C21 C22 1_555 1_555
C29 C30 1_555 1_555

#END
