
#######################################################################
#
#                 Cambridge Crystallographic Data Centre
#                                CCDC 
#
#######################################################################
#
# If this CIF has been generated from an entry in the Cambridge 
# Structural Database, then it will include bibliographic, chemical, 
# crystal, experimental, refinement or atomic coordinate data resulting 
# from the CCDC's data processing and validation procedures.
#
#######################################################################

data_PETBOI
_chemical_formula_moiety         'C56 H40 N6,0.5(C2 H6 O1)'
_chemical_name_systematic        
"4,4'-(4-(4-(9H-carbazol-9-yl)phenyl)-4H-1,2,4-triazole-3,5-diyl)bis(N,N-diphenylaniline) ethanol solvate"
_symmetry_cell_setting           triclinic
_symmetry_space_group_name_H-M   'P -1'
_symmetry_Int_Tables_number      2
_space_group_name_Hall           '-P 1'
loop_
_symmetry_equiv_pos_site_id
_symmetry_equiv_pos_as_xyz
1 x,y,z
2 -x,-y,-z
_cell_length_a                   9.6110(19)
_cell_length_b                   13.412(3)
_cell_length_c                   18.755(4)
_cell_angle_alpha                99.88(3)
_cell_angle_beta                 96.84(3)
_cell_angle_gamma                106.34(3)
_cell_volume                     2249.41
_exptl_crystal_colour            colorless
_exptl_crystal_description       block
_cell_formula_units_Z            2
loop_
_atom_site_label
_atom_site_type_symbol
_atom_site_fract_x
_atom_site_fract_y
_atom_site_fract_z
C1 C 0.7541(3) -0.00375(17) -0.02129(13)
C2 C 0.8189(3) -0.00165(17) -0.08761(13)
C3 C 0.7316(3) -0.0581(2) -0.15478(14)
H1 H 0.6344 -0.0974 -0.1560
C4 C 0.7858(3) -0.0574(2) -0.22001(15)
H2 H 0.7255 -0.0952 -0.2646
C5 C 0.9319(3) 0.0007(2) -0.21792(14)
C6 C 1.0208(3) 0.05481(19) -0.15126(14)
H3 H 1.1191 0.0920 -0.1497
C7 C 0.9650(3) 0.05410(18) -0.08719(13)
H4 H 1.0259 0.0915 -0.0427
C8 C 0.9476(3) -0.0794(2) -0.34407(16)
C9 C 0.9285(4) -0.1810(3) -0.33271(19)
H5 H 0.9438 -0.1922 -0.2852
C10 C 0.8866(4) -0.2660(3) -0.3924(2)
H6 H 0.8718 -0.3346 -0.3846
C11 C 0.8663(4) -0.2505(4) -0.4636(2)
H7 H 0.8371 -0.3080 -0.5035
C12 C 0.8896(4) -0.1512(4) -0.4737(2)
H8 H 0.8805 -0.1401 -0.5215
C13 C 0.9265(4) -0.0650(3) -0.41575(17)
H9 H 0.9374 0.0027 -0.4245
C14 C 1.0667(3) 0.1115(2) -0.29295(15)
C15 C 1.1983(3) 0.1297(3) -0.32007(17)
H10 H 1.2367 0.0742 -0.3332
C16 C 1.2715(4) 0.2319(3) -0.32728(19)
H11 H 1.3599 0.2446 -0.3449
C17 C 1.2154(5) 0.3138(3) -0.3088(2)
H12 H 1.2633 0.3813 -0.3154
C18 C 1.0890(5) 0.2956(3) -0.2808(2)
H13 H 1.0529 0.3519 -0.2662
C19 C 1.0135(4) 0.1956(2) -0.27349(19)
H14 H 0.9258 0.1846 -0.2553
C20 C 0.8884(2) 0.18366(16) 0.04543(13)
C21 C 0.8650(3) 0.24517(17) -0.00378(14)
H15 H 0.7791 0.2227 -0.0388
C22 C 0.9708(3) 0.34058(18) -0.00033(15)
H16 H 0.9567 0.3826 -0.0334
C23 C 1.0981(3) 0.37420(17) 0.05212(14)
C24 C 1.1203(3) 0.31242(18) 0.10166(14)
H17 H 1.2056 0.3350 0.1370
C25 C 1.0137(3) 0.21631(17) 0.09802(13)
H18 H 1.0271 0.1741 0.1311
C26 C 1.2809(3) 0.49961(19) -0.00311(16)
C27 C 1.2673(3) 0.4385(2) -0.07288(17)
H19 H 1.2026 0.3696 -0.0878
C28 C 1.3545(4) 0.4852(3) -0.11865(18)
H20 H 1.3492 0.4462 -0.1655
C29 C 1.4498(4) 0.5881(3) -0.09741(19)
H21 H 1.5066 0.6170 -0.1300
C30 C 1.4610(3) 0.6473(2) -0.02890(19)
H22 H 1.5244 0.7166 -0.0149
C31 C 1.3768(3) 0.60317(19) 0.01993(16)
C32 C 1.3619(3) 0.64085(19) 0.09456(17)
C33 C 1.4234(3) 0.7383(2) 0.14432(18)
H23 H 1.4932 0.7936 0.1322
C34 C 1.3801(4) 0.7513(2) 0.2105(2)
H24 H 1.4216 0.8161 0.2439
C35 C 1.2755(4) 0.6704(2) 0.22973(19)
H25 H 1.2483 0.6820 0.2757
C36 C 1.2104(3) 0.5723(2) 0.18138(16)
H26 H 1.1389 0.5181 0.1934
C37 C 1.2580(3) 0.55939(18) 0.11404(15)
C38 C 0.6965(3) 0.04303(18) 0.08578(13)
C39 C 0.6839(3) 0.10300(18) 0.15609(13)
C40 C 0.6976(3) 0.21137(19) 0.16843(15)
H27 H 0.7231 0.2489 0.1321
C41 C 0.6739(3) 0.2634(2) 0.23382(15)
H28 H 0.6859 0.3359 0.2413
C42 C 0.6328(3) 0.2099(2) 0.28851(14)
C43 C 0.6199(3) 0.1020(2) 0.27720(15)
H29 H 0.5929 0.0643 0.3132
C44 C 0.6476(3) 0.0512(2) 0.21197(14)
H30 H 0.6416 -0.0202 0.2057
C45 C 0.5449(3) 0.3502(2) 0.35410(15)
C46 C 0.4433(3) 0.3528(2) 0.29696(17)
H31 H 0.4096 0.2961 0.2565
C47 C 0.3911(4) 0.4387(3) 0.29913(19)
H32 H 0.3233 0.4397 0.2597
C48 C 0.4378(4) 0.5229(2) 0.35874(19)
H33 H 0.4013 0.5804 0.3600
C49 C 0.5375(4) 0.5213(2) 0.41566(18)
H34 H 0.5693 0.5779 0.4562
C50 C 0.5931(3) 0.4354(2) 0.41398(17)
H35 H 0.6625 0.4354 0.4530
C51 C 0.6107(3) 0.2217(2) 0.41854(14)
C52 C 0.4915(4) 0.1970(3) 0.45344(17)
H36 H 0.4036 0.2067 0.4343
C53 C 0.5013(4) 0.1580(3) 0.5168(2)
H37 H 0.4197 0.1398 0.5395
C54 C 0.6333(5) 0.1461(3) 0.5463(2)
H38 H 0.6415 0.1222 0.5898
C55 C 0.7502(5) 0.1693(3) 0.5117(2)
H39 H 0.8383 0.1601 0.5311
C56 C 0.7395(4) 0.2065(3) 0.44799(19)
H40 H 0.8204 0.2215 0.4244
N1 N 0.7837(2) 0.08040(14) 0.03766(11)
N2 N 0.6195(2) -0.05724(16) 0.05908(12)
N3 N 0.6569(3) -0.08664(16) -0.00925(12)
N4 N 0.9917(3) 0.00896(18) -0.28361(12)
N5 N 1.2087(2) 0.47253(15) 0.05471(12)
N6 N 0.6004(3) 0.26169(18) 0.35382(12)
C57? C 1.0173(7) 0.5247(4) 0.65872(19)
H41? H 1.1116 0.5188 0.6771
H42? H 0.9488 0.5001 0.6899
H43? H 1.0269 0.5978 0.6582
C58? C 0.9620(5) 0.4584(2) 0.58198(9)
H44? H 0.9969 0.3970 0.5807
H45? H 0.8558 0.4318 0.5772
O1? O 0.9888(6) 0.4930(3) 0.51714(13)
H46? H 1.0697 0.5383 0.5249
loop_
_geom_bond_atom_site_label_1
_geom_bond_atom_site_label_2
_geom_bond_site_symmetry_1
_geom_bond_site_symmetry_2
C1 C2 1_555 1_555
C2 C3 1_555 1_555
C3 H1 1_555 1_555
C4 C3 1_555 1_555
H2 C4 1_555 1_555
C5 C4 1_555 1_555
C6 C5 1_555 1_555
H3 C6 1_555 1_555
C7 C2 1_555 1_555
H4 C7 1_555 1_555
C8 C9 1_555 1_555
C9 H5 1_555 1_555
C10 C9 1_555 1_555
H6 C10 1_555 1_555
C11 C10 1_555 1_555
H7 C11 1_555 1_555
C12 C11 1_555 1_555
H8 C12 1_555 1_555
C13 C8 1_555 1_555
H9 C13 1_555 1_555
C14 C15 1_555 1_555
C15 H10 1_555 1_555
C16 C15 1_555 1_555
H11 C16 1_555 1_555
C17 C16 1_555 1_555
H12 C17 1_555 1_555
C18 C17 1_555 1_555
H13 C18 1_555 1_555
C19 C14 1_555 1_555
H14 C19 1_555 1_555
C20 C21 1_555 1_555
C21 H15 1_555 1_555
C22 C21 1_555 1_555
H16 C22 1_555 1_555
C23 C22 1_555 1_555
C24 C23 1_555 1_555
H17 C24 1_555 1_555
C25 C20 1_555 1_555
H18 C25 1_555 1_555
C26 C27 1_555 1_555
C27 H19 1_555 1_555
C28 C27 1_555 1_555
H20 C28 1_555 1_555
C29 C28 1_555 1_555
H21 C29 1_555 1_555
C30 C29 1_555 1_555
H22 C30 1_555 1_555
C31 C26 1_555 1_555
C32 C31 1_555 1_555
C33 C32 1_555 1_555
H23 C33 1_555 1_555
C34 C33 1_555 1_555
H24 C34 1_555 1_555
C35 C34 1_555 1_555
H25 C35 1_555 1_555
C36 C35 1_555 1_555
H26 C36 1_555 1_555
C37 C32 1_555 1_555
C38 C39 1_555 1_555
C39 C40 1_555 1_555
C40 H27 1_555 1_555
C41 C40 1_555 1_555
H28 C41 1_555 1_555
C42 C41 1_555 1_555
C43 C42 1_555 1_555
H29 C43 1_555 1_555
C44 C39 1_555 1_555
H30 C44 1_555 1_555
C45 C46 1_555 1_555
C46 H31 1_555 1_555
C47 C46 1_555 1_555
H32 C47 1_555 1_555
C48 C47 1_555 1_555
H33 C48 1_555 1_555
C49 C48 1_555 1_555
H34 C49 1_555 1_555
C50 C45 1_555 1_555
H35 C50 1_555 1_555
C51 C52 1_555 1_555
C52 H36 1_555 1_555
C53 C52 1_555 1_555
H37 C53 1_555 1_555
C54 C53 1_555 1_555
H38 C54 1_555 1_555
C55 C54 1_555 1_555
H39 C55 1_555 1_555
C56 C51 1_555 1_555
H40 C56 1_555 1_555
N1 C1 1_555 1_555
N2 C38 1_555 1_555
N3 C1 1_555 1_555
N4 C5 1_555 1_555
N5 C23 1_555 1_555
N6 C42 1_555 1_555
C6 C7 1_555 1_555
C8 N4 1_555 1_555
C12 C13 1_555 1_555
C14 N4 1_555 1_555
C18 C19 1_555 1_555
C20 N1 1_555 1_555
C24 C25 1_555 1_555
C26 N5 1_555 1_555
C30 C31 1_555 1_555
C36 C37 1_555 1_555
C37 N5 1_555 1_555
C38 N1 1_555 1_555
C43 C44 1_555 1_555
C45 N6 1_555 1_555
C49 C50 1_555 1_555
C51 N6 1_555 1_555
C55 C56 1_555 1_555
N2 N3 1_555 1_555

#END
