
#######################################################################
#
#                 Cambridge Crystallographic Data Centre
#                                CCDC 
#
#######################################################################
#
# If this CIF has been generated from an entry in the Cambridge 
# Structural Database, then it will include bibliographic, chemical, 
# crystal, experimental, refinement or atomic coordinate data resulting 
# from the CCDC's data processing and validation procedures.
#
#######################################################################

data_PETDUQ
_chemical_formula_moiety         'C46 H38 O8'
_chemical_name_systematic        
'benzene-1,2,4,5-tetrayltetrakis(methylene) tetrakis(3-phenylacrylate)'
_symmetry_cell_setting           triclinic
_symmetry_space_group_name_H-M   'P -1'
_symmetry_Int_Tables_number      2
_space_group_name_Hall           '-P 1'
loop_
_symmetry_equiv_pos_site_id
_symmetry_equiv_pos_as_xyz
1 x,y,z
2 -x,-y,-z
_cell_length_a                   5.8035(6)
_cell_length_b                   12.8761(15)
_cell_length_c                   13.1702(13)
_cell_angle_alpha                66.778(4)
_cell_angle_beta                 82.336(5)
_cell_angle_gamma                86.696(5)
_cell_volume                     896.336
_exptl_crystal_colour            colorless
_exptl_crystal_description       needle
_cell_formula_units_Z            1
loop_
_atom_site_label
_atom_site_type_symbol
_atom_site_fract_x
_atom_site_fract_y
_atom_site_fract_z
O1 O 0.49022(14) 0.75712(7) 0.92619(7)
O2 O 0.94932(15) 1.05740(8) 0.70153(9)
O3 O 0.60694(14) 0.97150(7) 0.72592(7)
O4 O 0.23816(14) 0.67046(7) 0.86952(7)
C1 C 1.1264(2) 0.30880(10) 0.76546(10)
H1 H 1.2340 0.2567 0.7545
C2 C 1.1583(2) 0.35714(10) 0.84004(10)
H2 H 1.2872 0.3371 0.8790
C3 C 0.9987(2) 0.43528(10) 0.85680(10)
H3 H 1.0229 0.4681 0.9060
C4 C 0.80217(19) 0.46485(9) 0.80021(9)
C5 C 0.6223(2) 0.54291(9) 0.81924(9)
H4 H 0.4828 0.5448 0.7910
C6 C 0.6369(2) 0.61103(9) 0.87237(10)
H5 H 0.7745 0.6153 0.8995
C7 C 0.43205(19) 0.68003(9) 0.88802(9)
C8 C 0.3028(2) 0.83456(9) 0.93646(10)
H6 H 0.1800 0.7937 0.9937
H7 H 0.2377 0.8708 0.8666
C9 C 0.40533(19) 0.92167(9) 0.96681(10)
C10 C 0.49887(19) 1.02363(9) 0.88631(9)
C11 C 0.59249(19) 1.09960(9) 0.92121(10)
H8 H 0.6556 1.1668 0.8678
C12 C 0.7720(2) 0.41493(9) 0.72576(10)
H9 H 0.6416 0.4333 0.6879
C13 C 0.9343(2) 0.33809(10) 0.70748(10)
H10 H 0.9137 0.3067 0.6567
C14 C 1.5044(2) 0.64876(10) 0.50760(10)
H11 H 1.5809 0.5986 0.4793
C15 C 1.2809(2) 0.62488(10) 0.56358(11)
H12 H 1.2086 0.5584 0.5734
C16 C 1.1651(2) 0.70050(10) 0.60498(10)
H13 H 1.0159 0.6841 0.6427
C17 C 1.2720(2) 0.80092(10) 0.59005(9)
C18 C 1.1551(2) 0.88567(10) 0.62839(10)
H14 H 1.2459 0.9454 0.6227
C19 C 0.9343(2) 0.88622(10) 0.67013(10)
H15 H 0.8382 0.8266 0.6805
C20 C 0.8394(2) 0.98072(10) 0.70037(10)
C21 C 0.4922(2) 1.05573(10) 0.76367(10)
H16 H 0.3316 1.0640 0.7485
H17 H 0.5680 1.1281 0.7223
C22 C 1.4973(2) 0.82248(11) 0.53527(10)
H18 H 1.5713 0.8883 0.5262
C23 C 1.6135(2) 0.74710(11) 0.49392(10)
H19 H 1.7637 0.7627 0.4572
O1A O 0.50978(14) 1.24288(7) 1.07381(7)
O2A O 0.05068(15) 0.94260(8) 1.29847(9)
O3A O 0.39306(14) 1.02850(7) 1.27408(7)
O4A O 0.76184(14) 1.32954(7) 1.13048(7)
C1A C -0.1264(2) 1.69120(10) 1.23454(10)
H1A H -0.2340 1.7433 1.2455
C2A C -0.1583(2) 1.64286(10) 1.15996(10)
H2A H -0.2872 1.6629 1.1210
C3A C 0.0013(2) 1.56472(10) 1.14320(10)
H3A H -0.0229 1.5319 1.0940
C4A C 0.19783(19) 1.53515(9) 1.19979(9)
C5A C 0.3777(2) 1.45709(9) 1.18076(9)
H4A H 0.5172 1.4552 1.2090
C6A C 0.3631(2) 1.38897(9) 1.12763(10)
H5A H 0.2255 1.3847 1.1005
C7A C 0.56795(19) 1.31997(9) 1.11198(9)
C8A C 0.6972(2) 1.16544(9) 1.06354(10)
H6A H 0.8200 1.2063 1.0063
H7A H 0.7623 1.1292 1.1334
C9A C 0.59467(19) 1.07833(9) 1.03319(10)
C10A C 0.50113(19) 0.97637(9) 1.11369(9)
C11A C 0.40751(19) 0.90040(9) 1.07879(10)
H8A H 0.3444 0.8332 1.1322
C12A C 0.2280(2) 1.58507(9) 1.27424(10)
H9A H 0.3584 1.5667 1.3121
C13A C 0.0657(2) 1.66191(10) 1.29252(10)
H10A H 0.0863 1.6933 1.3433
C14A C -0.5044(2) 1.35124(10) 1.49240(10)
H11A H -0.5809 1.4014 1.5207
C15A C -0.2809(2) 1.37512(10) 1.43642(11)
H12A H -0.2086 1.4416 1.4266
C16A C -0.1651(2) 1.29950(10) 1.39502(10)
H13A H -0.0159 1.3159 1.3573
C17A C -0.2720(2) 1.19908(10) 1.40995(9)
C18A C -0.1551(2) 1.11433(10) 1.37161(10)
H14A H -0.2459 1.0546 1.3773
C19A C 0.0657(2) 1.11378(10) 1.32987(10)
H15A H 0.1618 1.1734 1.3195
C20A C 0.1606(2) 1.01928(10) 1.29963(10)
C21A C 0.5078(2) 0.94427(10) 1.23633(10)
H16A H 0.6684 0.9360 1.2515
H17A H 0.4320 0.8719 1.2777
C22A C -0.4973(2) 1.17752(11) 1.46473(10)
H18A H -0.5713 1.1117 1.4738
C23A C -0.6135(2) 1.25290(11) 1.50608(10)
H19A H -0.7637 1.2373 1.5428
loop_
_geom_bond_atom_site_label_1
_geom_bond_atom_site_label_2
_geom_bond_site_symmetry_1
_geom_bond_site_symmetry_2
O1 C7 1_555 1_555
O2 C20 1_555 1_555
O3 C20 1_555 1_555
O4 C7 1_555 1_555
C1 H1 1_555 1_555
C2 C1 1_555 1_555
H2 C2 1_555 1_555
C3 C2 1_555 1_555
H3 C3 1_555 1_555
C4 C3 1_555 1_555
C5 C4 1_555 1_555
H4 C5 1_555 1_555
C6 C5 1_555 1_555
H5 C6 1_555 1_555
C7 C6 1_555 1_555
C8 O1 1_555 1_555
H6 C8 1_555 1_555
H7 C8 1_555 1_555
C9 C8 1_555 1_555
C10 C9 1_555 1_555
C11 C10 1_555 1_555
H8 C11 1_555 1_555
C12 C4 1_555 1_555
H9 C12 1_555 1_555
C13 C1 1_555 1_555
H10 C13 1_555 1_555
C14 H11 1_555 1_555
C15 C14 1_555 1_555
H12 C15 1_555 1_555
C16 C15 1_555 1_555
H13 C16 1_555 1_555
C17 C16 1_555 1_555
C18 C17 1_555 1_555
H14 C18 1_555 1_555
C19 C18 1_555 1_555
H15 C19 1_555 1_555
C20 C19 1_555 1_555
C21 O3 1_555 1_555
H16 C21 1_555 1_555
H17 C21 1_555 1_555
C22 C17 1_555 1_555
H18 C22 1_555 1_555
C23 C14 1_555 1_555
H19 C23 1_555 1_555
O1A C7A 1_555 1_555
O2A C20A 1_555 1_555
O3A C20A 1_555 1_555
O4A C7A 1_555 1_555
C1A H1A 1_555 1_555
C2A C1A 1_555 1_555
H2A C2A 1_555 1_555
C3A C2A 1_555 1_555
H3A C3A 1_555 1_555
C4A C3A 1_555 1_555
C5A C4A 1_555 1_555
H4A C5A 1_555 1_555
C6A C5A 1_555 1_555
H5A C6A 1_555 1_555
C7A C6A 1_555 1_555
C8A O1A 1_555 1_555
H6A C8A 1_555 1_555
H7A C8A 1_555 1_555
C9A C11 1_555 1_555
C10A C9A 1_555 1_555
C11A C9 1_555 1_555
H8A C11A 1_555 1_555
C12A C4A 1_555 1_555
H9A C12A 1_555 1_555
C13A C1A 1_555 1_555
H10A C13A 1_555 1_555
C14A H11A 1_555 1_555
C15A C14A 1_555 1_555
H12A C15A 1_555 1_555
C16A C15A 1_555 1_555
H13A C16A 1_555 1_555
C17A C16A 1_555 1_555
C18A C17A 1_555 1_555
H14A C18A 1_555 1_555
C19A C18A 1_555 1_555
H15A C19A 1_555 1_555
C20A C19A 1_555 1_555
C21A O3A 1_555 1_555
H16A C21A 1_555 1_555
H17A C21A 1_555 1_555
C22A C17A 1_555 1_555
H18A C22A 1_555 1_555
C23A C14A 1_555 1_555
H19A C23A 1_555 1_555
C10 C21 1_555 1_555
C12 C13 1_555 1_555
C22 C23 1_555 1_555
C8A C9A 1_555 1_555
C10A C11A 1_555 1_555
C10A C21A 1_555 1_555
C12A C13A 1_555 1_555
C22A C23A 1_555 1_555

#END
