
#######################################################################
#
#                 Cambridge Crystallographic Data Centre
#                                CCDC 
#
#######################################################################
#
# If this CIF has been generated from an entry in the Cambridge 
# Structural Database, then it will include bibliographic, chemical, 
# crystal, experimental, refinement or atomic coordinate data resulting 
# from the CCDC's data processing and validation procedures.
#
#######################################################################

data_PETDID
_chemical_formula_moiety         'C18 H13 Br1 F3 N3 O2,0.25(C1 H2 Cl2)'
_chemical_name_systematic        
'6-Bromo-1-(4-methoxybenzyl)-2-oxo-4-(trifluoromethyl)-1,2,3,4-tetrahydroquinazoline-4-carbonitrile dichloromethane solvate'
_symmetry_cell_setting           triclinic
_symmetry_space_group_name_H-M   'P 1'
_symmetry_Int_Tables_number      1
_space_group_name_Hall           'P 1'
loop_
_symmetry_equiv_pos_site_id
_symmetry_equiv_pos_as_xyz
1 x,y,z
_cell_length_a                   7.3615(7)
_cell_length_b                   11.7909(12)
_cell_length_c                   12.1028(11)
_cell_angle_alpha                83.548(5)
_cell_angle_beta                 84.276(5)
_cell_angle_gamma                85.438(5)
_cell_volume                     1036.17
_exptl_crystal_colour            colorless
_exptl_crystal_description       triangular
_cell_formula_units_Z            2
loop_
_atom_site_label
_atom_site_type_symbol
_atom_site_fract_x
_atom_site_fract_y
_atom_site_fract_z
Br1 Br 0.82270(3) 0.70040(3) 0.23301(2)
O1 O 0.3440(4) 0.1326(2) 0.7869(3)
O2 O 1.1341(4) 0.4748(2) 0.8447(2)
N1 N 1.0067(4) 0.4604(2) 0.6829(3)
N2 N 1.0405(4) 0.6373(2) 0.7443(3)
H1 H 1.062(6) 0.678(3) 0.812(4)
N3 N 1.0872(7) 0.8948(3) 0.5949(3)
C1 C 0.8748(5) 0.6244(4) 0.3735(3)
C2 C 0.8983(5) 0.5081(4) 0.3871(3)
H2 H 0.8876 0.4658 0.3270
C3 C 0.9393(6) 0.4505(4) 0.4930(4)
H3 H 0.9541 0.3702 0.5033
C4 C 0.9570(4) 0.5139(3) 0.5802(3)
C5 C 1.0631(5) 0.5221(3) 0.7618(3)
C6 C 0.9344(5) 0.7016(3) 0.6623(3)
C7 C 0.9290(5) 0.6324(3) 0.5645(3)
C8 C 0.8874(5) 0.6876(3) 0.4611(3)
H4 H 0.8680 0.7677 0.4513
C9 C 1.0247(5) 0.3350(3) 0.7022(3)
H5 H 1.0900 0.3123 0.7688
H6 H 1.0981 0.3049 0.6385
C10 C 0.8421(5) 0.2825(3) 0.7180(3)
C11 C 0.6832(5) 0.3418(3) 0.7587(3)
H7 H 0.6876 0.4182 0.7730
C12 C 0.5187(5) 0.2907(3) 0.7787(4)
H8 H 0.4113 0.3331 0.8027
C13 C 0.5137(5) 0.1771(3) 0.7631(3)
C14 C 0.6692(6) 0.1154(3) 0.7235(4)
H9 H 0.6650 0.0383 0.7115
C15 C 0.8333(5) 0.1698(3) 0.7015(3)
H10 H 0.9398 0.1281 0.6748
C16 C 0.3327(7) 0.0137(4) 0.7754(5)
H11 H 0.3419 0.0025 0.6968
H12 H 0.2166 -0.0112 0.8111
H13 H 0.4321 -0.0307 0.8106
C17 C 1.0206(6) 0.8104(3) 0.6260(4)
C18 C 0.7406(6) 0.7326(3) 0.7126(3)
F1 F 0.6529(3) 0.63901(18) 0.74820(18)
F2 F 0.7439(4) 0.79093(19) 0.79944(18)
F3 F 0.6393(3) 0.79505(18) 0.64038(19)
Br2 Br 0.44335(3) 0.51403(3) 0.54204(2)
O3 O 0.9317(4) 1.0812(2) -0.0041(3)
O4 O 0.1487(4) 0.7426(2) -0.0731(2)
N4 N 0.2663(4) 0.7555(2) 0.0911(2)
N5 N 0.2342(5) 0.5793(2) 0.0287(3)
H14 H 0.1706 0.5390 -0.0073
N6 N 0.6909(6) 0.5153(6) 0.0071(4)
C19 C 0.3903(5) 0.5910(4) 0.4022(3)
C20 C 0.3582(5) 0.7091(4) 0.3870(4)
H15 H 0.3645 0.7525 0.4468
C21 C 0.3186(5) 0.7613(3) 0.2878(3)
H16 H 0.2952 0.8412 0.2796
C22 C 0.3106(4) 0.7001(3) 0.1947(3)
C23 C 0.2137(5) 0.6957(3) 0.0098(3)
C24 C 0.3565(5) 0.5199(3) 0.1054(3)
C25 C 0.3503(5) 0.5823(3) 0.2100(3)
C26 C 0.3892(5) 0.5270(3) 0.3127(3)
H17 H 0.4146 0.4473 0.3219
C27 C 0.2504(5) 0.8802(3) 0.0711(3)
H18 H 0.1731 0.9109 0.1331
H19 H 0.1899 0.9029 0.0027
C28 C 0.4345(5) 0.9320(3) 0.0598(3)
C29 C 0.5958(5) 0.8709(3) 0.0272(3)
H20 H 0.5945 0.7925 0.0197
C30 C 0.7592(5) 0.9238(3) 0.0055(4)
H21 H 0.8667 0.8818 -0.0191
C31 C 0.7641(5) 1.0386(3) 0.0200(3)
C32 C 0.6043(6) 1.1005(3) 0.0519(4)
H22 H 0.6056 1.1789 0.0591
C33 C 0.4423(5) 1.0469(3) 0.0731(4)
H23 H 0.3349 1.0893 0.0971
C34 C 0.9451(6) 1.1979(3) 0.0013(4)
H24 H 0.8636 1.2417 -0.0483
H25 H 1.0700 1.2172 -0.0212
H26 H 0.9111 1.2158 0.0772
C35 C 0.5493(6) 0.5138(4) 0.0505(3)
C36 C 0.3003(6) 0.3976(3) 0.1288(3)
F4 F 0.2929(3) 0.35152(15) 0.03357(17)
F5 F 0.4229(5) 0.32944(19) 0.1847(2)
F6 F 0.1415(5) 0.3915(2) 0.1853(2)
C37 C 0.3839 1.0790 0.4114
H27 H 0.3744 1.0995 0.3331
H28 H 0.2791 1.0370 0.4385
Cl1 Cl 0.3568 1.1839 0.4612
Cl2 Cl 0.5489 0.9925 0.4193
C38? C 0.9009 0.1510 0.3633
H29? H 0.9604 0.1974 0.3022
H30? H 0.9666 0.1490 0.4283
Cl3? Cl 0.8717 0.0208 0.3309
Cl4? Cl 0.6463 0.1992 0.3921
loop_
_geom_bond_atom_site_label_1
_geom_bond_atom_site_label_2
_geom_bond_site_symmetry_1
_geom_bond_site_symmetry_2
Br1 C1 1_555 1_555
O1 C13 1_555 1_555
O2 C5 1_555 1_555
N1 C4 1_555 1_555
N2 H1 1_555 1_555
N3 C17 1_555 1_555
C1 C2 1_555 1_555
C2 H2 1_555 1_555
C3 C2 1_555 1_555
H3 C3 1_555 1_555
C4 C3 1_555 1_555
C5 N1 1_555 1_555
C6 N2 1_555 1_555
C7 C4 1_555 1_555
C8 C1 1_555 1_555
H4 C8 1_555 1_555
C9 N1 1_555 1_555
H5 C9 1_555 1_555
H6 C9 1_555 1_555
C10 C9 1_555 1_555
C11 C10 1_555 1_555
H7 C11 1_555 1_555
C12 C11 1_555 1_555
H8 C12 1_555 1_555
C13 C12 1_555 1_555
C14 C13 1_555 1_555
H9 C14 1_555 1_555
C15 C10 1_555 1_555
H10 C15 1_555 1_555
C16 O1 1_555 1_555
H11 C16 1_555 1_555
H12 C16 1_555 1_555
H13 C16 1_555 1_555
C17 C6 1_555 1_555
C18 C6 1_555 1_555
F1 C18 1_555 1_555
F2 C18 1_555 1_555
F3 C18 1_555 1_555
Br2 C19 1_555 1_555
O3 C31 1_555 1_555
O4 C23 1_555 1_555
N4 C22 1_555 1_555
N5 H14 1_555 1_555
N6 C35 1_555 1_555
C19 C20 1_555 1_555
C20 H15 1_555 1_555
C21 C20 1_555 1_555
H16 C21 1_555 1_555
C22 C21 1_555 1_555
C23 N4 1_555 1_555
C24 N5 1_555 1_555
C25 C22 1_555 1_555
C26 C19 1_555 1_555
H17 C26 1_555 1_555
C27 N4 1_555 1_555
H18 C27 1_555 1_555
H19 C27 1_555 1_555
C28 C27 1_555 1_555
C29 C28 1_555 1_555
H20 C29 1_555 1_555
C30 C29 1_555 1_555
H21 C30 1_555 1_555
C31 C30 1_555 1_555
C32 C31 1_555 1_555
H22 C32 1_555 1_555
C33 C28 1_555 1_555
H23 C33 1_555 1_555
C34 O3 1_555 1_555
H24 C34 1_555 1_555
H25 C34 1_555 1_555
H26 C34 1_555 1_555
C35 C24 1_555 1_555
C36 C24 1_555 1_555
F4 C36 1_555 1_555
F5 C36 1_555 1_555
F6 C36 1_555 1_555
C37 H27 1_555 1_555
H28 C37 1_555 1_555
Cl1 C37 1_555 1_555
Cl2 C37 1_555 1_555
N2 C5 1_555 1_555
C6 C7 1_555 1_555
C7 C8 1_555 1_555
C14 C15 1_555 1_555
N5 C23 1_555 1_555
C24 C25 1_555 1_555
C25 C26 1_555 1_555
C32 C33 1_555 1_555

#END
