
#######################################################################
#
#                 Cambridge Crystallographic Data Centre
#                                CCDC 
#
#######################################################################
#
# If this CIF has been generated from an entry in the Cambridge 
# Structural Database, then it will include bibliographic, chemical, 
# crystal, experimental, refinement or atomic coordinate data resulting 
# from the CCDC's data processing and validation procedures.
#
#######################################################################

data_PETDUQ01
_chemical_formula_moiety         'C46 H38 O8'
_chemical_name_systematic        
'benzene-1,2,4,5-tetrayltetrakis(methylene) tetrakis(3-phenylacrylate)'
_symmetry_cell_setting           monoclinic
_symmetry_space_group_name_H-M   'P 21/n'
_symmetry_Int_Tables_number      14
_space_group_name_Hall           '-P 2yn'
loop_
_symmetry_equiv_pos_site_id
_symmetry_equiv_pos_as_xyz
1 x,y,z
2 1/2-x,1/2+y,1/2-z
3 -x,-y,-z
4 1/2+x,1/2-y,1/2+z
_cell_length_a                   5.5677(4)
_cell_length_b                   9.2109(7)
_cell_length_c                   35.394(3)
_cell_angle_alpha                90
_cell_angle_beta                 91.7260(10)
_cell_angle_gamma                90
_cell_volume                     1814.31
_exptl_crystal_colour            colorless
_exptl_crystal_description       block
_cell_formula_units_Z            2
loop_
_atom_site_label
_atom_site_type_symbol
_atom_site_fract_x
_atom_site_fract_y
_atom_site_fract_z
O1 O 0.64381(16) 0.13390(10) 0.90613(2)
O2 O 0.00075(15) 0.22929(9) 1.02591(2)
O3 O -0.24546(17) 0.39155(10) 0.99740(3)
O4 O 0.41940(17) 0.21949(11) 0.85685(2)
C1 C 1.2117(2) -0.12041(14) 0.73005(4)
H1 H 1.3033 -0.1734 0.7125
C2 C 1.0051(2) -0.04850(14) 0.71793(4)
H2 H 0.9567 -0.0501 0.6920
C3 C 0.8686(2) 0.02609(14) 0.74381(3)
H3 H 0.7264 0.0747 0.7353
C4 C 0.9372(2) 0.03080(13) 0.78218(3)
C5 C 0.7751(2) 0.10069(13) 0.80859(3)
H4 H 0.6405 0.1503 0.7977
C6 C 0.7958(2) 0.10226(14) 0.84625(3)
H5 H 0.9373 0.0656 0.8585
C7 C 0.6000(2) 0.16073(13) 0.86893(3)
C8 C 0.4550(2) 0.17281(14) 0.93131(3)
H6 H 0.2963 0.1547 0.9188
H7 H 0.4661 0.2773 0.9377
C9 C 0.4809(2) 0.08290(12) 0.96684(3)
C10 C 0.3456(2) 0.02506(13) 1.02919(3)
H8 H 0.2395 0.0424 1.0492
C11 C 0.3243(2) 0.10834(12) 0.99641(3)
C12 C -0.9872(2) 0.39939(15) 1.15766(4)
H9 H -1.0952 0.3999 1.1779
C13 C -1.0047(2) 0.50505(15) 1.12985(4)
H10 H -1.1229 0.5791 1.1312
C14 C -0.8481(2) 0.50197(14) 1.09992(4)
H11 H -0.8621 0.5736 1.0807
C15 C -0.6705(2) 0.39525(13) 1.09772(3)
C16 C -0.6535(2) 0.29032(14) 1.12636(4)
H12 H -0.5332 0.2173 1.1255
C17 C -0.8112(2) 0.29251(15) 1.15589(4)
H13 H -0.7991 0.2205 1.1751
C18 C -0.5153(2) 0.39366(13) 1.06492(3)
H14 H -0.5588 0.4572 1.0447
C19 C -0.3197(2) 0.31242(13) 1.06050(3)
H15 H -0.2636 0.2507 1.0804
C20 C -0.1910(2) 0.31857(13) 1.02482(3)
C21 C 0.1386(2) 0.22639(13) 0.99218(3)
H16 H 0.2180 0.3213 0.9885
H17 H 0.0318 0.2070 0.9699
C22 C 1.2847(2) -0.11485(15) 0.76797(4)
H18 H 1.4278 -0.1630 0.7762
C23 C 1.1501(2) -0.03956(15) 0.79380(4)
H19 H 1.2025 -0.0356 0.8196
O1B O 0.35619(16) -0.13390(10) 1.09387(2)
O2B O 0.99925(15) -0.22929(9) 0.97409(2)
O3B O 1.24546(17) -0.39155(10) 1.00260(3)
O4B O 0.58060(17) -0.21949(11) 1.14315(2)
C1B C -0.2117(2) 0.12041(14) 1.26995(4)
H1B H -0.3033 0.1734 1.2875
C2B C -0.0051(2) 0.04850(14) 1.28207(4)
H2B H 0.0433 0.0501 1.3080
C3B C 0.1314(2) -0.02609(14) 1.25619(3)
H3B H 0.2736 -0.0747 1.2647
C4B C 0.0628(2) -0.03080(13) 1.21782(3)
C5B C 0.2249(2) -0.10069(13) 1.19141(3)
H4B H 0.3595 -0.1503 1.2023
C6B C 0.2042(2) -0.10226(14) 1.15375(3)
H5B H 0.0627 -0.0656 1.1415
C7B C 0.4000(2) -0.16073(13) 1.13107(3)
C8B C 0.5450(2) -0.17281(14) 1.06869(3)
H6B H 0.7037 -0.1547 1.0812
H7B H 0.5339 -0.2773 1.0623
C9B C 0.5191(2) -0.08290(12) 1.03316(3)
C10B C 0.6544(2) -0.02506(13) 0.97081(3)
H8B H 0.7605 -0.0424 0.9508
C11B C 0.6757(2) -0.10834(12) 1.00359(3)
C12B C 1.9872(2) -0.39939(15) 0.84234(4)
H9B H 2.0952 -0.3999 0.8221
C13B C 2.0047(2) -0.50505(15) 0.87015(4)
H10B H 2.1229 -0.5791 0.8688
C14B C 1.8481(2) -0.50197(14) 0.90008(4)
H11B H 1.8621 -0.5736 0.9193
C15B C 1.6705(2) -0.39525(13) 0.90228(3)
C16B C 1.6535(2) -0.29032(14) 0.87364(4)
H12B H 1.5332 -0.2173 0.8745
C17B C 1.8112(2) -0.29251(15) 0.84411(4)
H13B H 1.7991 -0.2205 0.8249
C18B C 1.5153(2) -0.39366(13) 0.93508(3)
H14B H 1.5588 -0.4572 0.9553
C19B C 1.3197(2) -0.31242(13) 0.93950(3)
H15B H 1.2636 -0.2507 0.9196
C20B C 1.1910(2) -0.31857(13) 0.97518(3)
C21B C 0.8614(2) -0.22639(13) 1.00782(3)
H16B H 0.7820 -0.3213 1.0115
H17B H 0.9682 -0.2070 1.0301
C22B C -0.2847(2) 0.11485(15) 1.23203(4)
H18B H -0.4278 0.1630 1.2238
C23B C -0.1501(2) 0.03956(15) 1.20620(4)
H19B H -0.2025 0.0356 1.1804
loop_
_geom_bond_atom_site_label_1
_geom_bond_atom_site_label_2
_geom_bond_site_symmetry_1
_geom_bond_site_symmetry_2
O1 C7 1_555 1_555
O2 C20 1_555 1_555
O3 C20 1_555 1_555
O4 C7 1_555 1_555
C1 H1 1_555 1_555
C2 C1 1_555 1_555
H2 C2 1_555 1_555
C3 C2 1_555 1_555
H3 C3 1_555 1_555
C4 C3 1_555 1_555
C5 C4 1_555 1_555
H4 C5 1_555 1_555
C6 C5 1_555 1_555
H5 C6 1_555 1_555
C7 C6 1_555 1_555
C8 O1 1_555 1_555
H6 C8 1_555 1_555
H7 C8 1_555 1_555
C9 C8 1_555 1_555
C10 H8 1_555 1_555
C11 C9 1_555 1_555
C12 H9 1_555 1_555
C13 C12 1_555 1_555
H10 C13 1_555 1_555
C14 C13 1_555 1_555
H11 C14 1_555 1_555
C15 C14 1_555 1_555
C16 C15 1_555 1_555
H12 C16 1_555 1_555
C17 C12 1_555 1_555
H13 C17 1_555 1_555
C18 C15 1_555 1_555
H14 C18 1_555 1_555
C19 C18 1_555 1_555
H15 C19 1_555 1_555
C20 C19 1_555 1_555
C21 O2 1_555 1_555
H16 C21 1_555 1_555
H17 C21 1_555 1_555
C22 C1 1_555 1_555
H18 C22 1_555 1_555
C23 C4 1_555 1_555
H19 C23 1_555 1_555
O1B C7B 1_555 1_555
O2B C20B 1_555 1_555
O3B C20B 1_555 1_555
O4B C7B 1_555 1_555
C1B H1B 1_555 1_555
C2B C1B 1_555 1_555
H2B C2B 1_555 1_555
C3B C2B 1_555 1_555
H3B C3B 1_555 1_555
C4B C3B 1_555 1_555
C5B C4B 1_555 1_555
H4B C5B 1_555 1_555
C6B C5B 1_555 1_555
H5B C6B 1_555 1_555
C7B C6B 1_555 1_555
C8B O1B 1_555 1_555
H6B C8B 1_555 1_555
H7B C8B 1_555 1_555
C9B C10 1_555 1_555
C10B C9 1_555 1_555
H8B C10B 1_555 1_555
C11B C9B 1_555 1_555
C12B H9B 1_555 1_555
C13B C12B 1_555 1_555
H10B C13B 1_555 1_555
C14B C13B 1_555 1_555
H11B C14B 1_555 1_555
C15B C14B 1_555 1_555
C16B C15B 1_555 1_555
H12B C16B 1_555 1_555
C17B C12B 1_555 1_555
H13B C17B 1_555 1_555
C18B C15B 1_555 1_555
H14B C18B 1_555 1_555
C19B C18B 1_555 1_555
H15B C19B 1_555 1_555
C20B C19B 1_555 1_555
C21B O2B 1_555 1_555
H16B C21B 1_555 1_555
H17B C21B 1_555 1_555
C22B C1B 1_555 1_555
H18B C22B 1_555 1_555
C23B C4B 1_555 1_555
H19B C23B 1_555 1_555
C10 C11 1_555 1_555
C11 C21 1_555 1_555
C16 C17 1_555 1_555
C22 C23 1_555 1_555
C8B C9B 1_555 1_555
C10B C11B 1_555 1_555
C11B C21B 1_555 1_555
C16B C17B 1_555 1_555
C22B C23B 1_555 1_555

#END
