
#######################################################################
#
#                 Cambridge Crystallographic Data Centre
#                                CCDC 
#
#######################################################################
#
# If this CIF has been generated from an entry in the Cambridge 
# Structural Database, then it will include bibliographic, chemical, 
# crystal, experimental, refinement or atomic coordinate data resulting 
# from the CCDC's data processing and validation procedures.
#
#######################################################################

data_PETFAY
_chemical_formula_moiety         'C18 H14 O4 2-,2(C2 H9 N2 1+),H2 O1'
_chemical_name_systematic        
'bis(2-aminoethanaminium) 2,4-diphenylcyclobutane-1,3-dicarboxylate monohydrate'
_symmetry_cell_setting           monoclinic
_symmetry_space_group_name_H-M   'P 21/n'
_symmetry_Int_Tables_number      14
_space_group_name_Hall           '-P 2yn'
loop_
_symmetry_equiv_pos_site_id
_symmetry_equiv_pos_as_xyz
1 x,y,z
2 1/2-x,1/2+y,1/2-z
3 -x,-y,-z
4 1/2+x,1/2-y,1/2+z
_cell_length_a                   9.2260(3)
_cell_length_b                   20.5019(8)
_cell_length_c                   24.2730(9)
_cell_angle_alpha                90
_cell_angle_beta                 96.1320(10)
_cell_angle_gamma                90
_cell_volume                     4564.98
_exptl_crystal_colour            colorless
_exptl_crystal_description       plate
_cell_formula_units_Z            8
loop_
_atom_site_label
_atom_site_type_symbol
_atom_site_fract_x
_atom_site_fract_y
_atom_site_fract_z
O1 O 0.80899(13) 0.64872(6) 0.07065(5)
O2 O 0.68965(13) 0.71129(6) 0.00688(5)
O3 O 1.30781(13) 0.77680(7) -0.00827(5)
O4 O 1.20753(14) 0.85816(6) -0.05834(5)
C1 C 0.80519(17) 0.68713(7) 0.02992(6)
C2 C 1.04795(17) 0.75412(8) 0.04733(7)
H1 H 1.1462 0.7349 0.0588
C3 C 0.95241(17) 0.75124(8) -0.04049(7)
H2 H 0.8537 0.7712 -0.0491
C4 C 0.95128(17) 0.70467(8) 0.00976(6)
H3 H 1.0080 0.6642 0.0037
C5 C 1.00386(18) 0.72446(8) -0.09286(7)
C6 C 1.1166(2) 0.67899(9) -0.09234(7)
H4 H 1.1651 0.6645 -0.0580
C7 C 1.1580(2) 0.65488(9) -0.14182(9)
H5 H 1.2351 0.6241 -0.1413
C8 C 1.0867(3) 0.67586(10) -0.19238(8)
H6 H 1.1140 0.6587 -0.2261
C9 C 0.9772(2) 0.72131(11) -0.19337(8)
H7 H 0.9294 0.7360 -0.2277
C10 C 0.9366(2) 0.74563(10) -0.14391(7)
H8 H 0.8614 0.7774 -0.1449
C11 C 0.98552(18) 0.78337(8) 0.09671(7)
C12 C 0.8656(2) 0.82513(9) 0.09103(7)
H9 H 0.8198 0.8352 0.0551
C13 C 0.8123(2) 0.85222(9) 0.13731(9)
H10 H 0.7311 0.8809 0.1329
C14 C 0.8776(3) 0.83740(10) 0.19014(8)
H11 H 0.8416 0.8561 0.2218
C15 C 0.9950(2) 0.79544(10) 0.19631(8)
H12 H 1.0393 0.7848 0.2323
C16 C 1.0486(2) 0.76869(9) 0.15000(7)
H13 H 1.1297 0.7399 0.1547
C17 C 1.05402(18) 0.79973(8) -0.00344(7)
H14 H 1.0021 0.8417 0.0021
C18 C 1.20112(17) 0.81249(8) -0.02410(6)
O5 O 0.30693(13) 0.59938(6) 0.07118(5)
O6 O 0.18893(13) 0.53709(6) 0.00694(5)
C19 C 0.30367(17) 0.56220(8) 0.02975(6)
C20 C 0.44987(17) 0.54712(8) 0.00852(6)
H15 H 0.5053 0.5884 0.0041
C21 C 0.54844(17) 0.49626(8) 0.04382(7)
H16 H 0.6475 0.5150 0.0545
C22 C 0.49026(18) 0.46584(8) 0.09354(7)
C23 C 0.3707(2) 0.42377(9) 0.08863(7)
H17 H 0.3238 0.4135 0.0529
C24 C 0.3196(2) 0.39677(9) 0.13531(8)
H18 H 0.2385 0.3680 0.1314
C25 C 0.3868(2) 0.41175(10) 0.18781(8)
H19 H 0.3518 0.3933 0.2198
C26 C 0.5038(2) 0.45334(10) 0.19317(8)
H20 H 0.5501 0.4637 0.2290
C27 C 0.5550(2) 0.48036(9) 0.14657(7)
H21 H 0.6358 0.5093 0.1509
O5B O 0.69307(13) 0.40062(6) -0.07118(5)
O6B O 0.81107(13) 0.46291(6) -0.00694(5)
C19B C 0.69633(17) 0.43780(8) -0.02975(6)
C20B C 0.55013(17) 0.45288(8) -0.00852(6)
H15B H 0.4947 0.4116 -0.0041
C21B C 0.45156(17) 0.50374(8) -0.04382(7)
H16B H 0.3525 0.4850 -0.0545
C22B C 0.50974(18) 0.53416(8) -0.09354(7)
C23B C 0.6293(2) 0.57623(9) -0.08863(7)
H17B H 0.6762 0.5865 -0.0529
C24B C 0.6804(2) 0.60323(9) -0.13531(8)
H18B H 0.7615 0.6320 -0.1314
C25B C 0.6132(2) 0.58825(10) -0.18781(8)
H19B H 0.6482 0.6067 -0.2198
C26B C 0.4962(2) 0.54666(10) -0.19317(8)
H20B H 0.4499 0.5363 -0.2290
C27B C 0.4450(2) 0.51964(9) -0.14657(7)
H21B H 0.3642 0.4907 -0.1509
O7 O 0.30409(14) 0.11170(6) 0.05952(5)
O8 O 0.19331(13) 0.03404(7) 0.00788(5)
C28 C 0.30486(18) 0.06582(8) 0.02502(6)
C29 C 0.45178(18) 0.04840(8) 0.00598(7)
H22 H 0.5097 0.0887 0.0007
C30 C 0.54482(18) -0.00185(8) 0.04423(7)
H23 H 0.6445 0.0163 0.0549
C31 C 0.48418(19) -0.02919(9) 0.09466(7)
C32 C 0.3654(2) -0.07158(9) 0.09087(8)
H24 H 0.3175 -0.0828 0.0555
C33 C 0.3166(3) -0.09767(10) 0.13858(10)
H25 H 0.2359 -0.1267 0.1357
C34 C 0.3856(3) -0.08127(13) 0.19050(9)
H26 H 0.3531 -0.0995 0.2230
C35 C 0.5015(3) -0.03849(15) 0.19452(9)
H27 H 0.5485 -0.0267 0.2299
C36 C 0.5491(2) -0.01282(12) 0.14722(8)
H28 H 0.6285 0.0169 0.1506
O7B O 0.69591(14) -0.11170(6) -0.05952(5)
O8B O 0.80669(13) -0.03404(7) -0.00788(5)
C28B C 0.69514(18) -0.06582(8) -0.02502(6)
C29B C 0.54822(18) -0.04840(8) -0.00598(7)
H22B H 0.4903 -0.0887 -0.0007
C30B C 0.45518(18) 0.00185(8) -0.04423(7)
H23B H 0.3555 -0.0163 -0.0549
C31B C 0.51582(19) 0.02919(9) -0.09466(7)
C32B C 0.6346(2) 0.07158(9) -0.09087(8)
H24B H 0.6825 0.0828 -0.0555
C33B C 0.6834(3) 0.09767(10) -0.13858(10)
H25B H 0.7641 0.1267 -0.1357
C34B C 0.6144(3) 0.08127(13) -0.19050(9)
H26B H 0.6469 0.0995 -0.2230
C35B C 0.4985(3) 0.03849(15) -0.19452(9)
H27B H 0.4515 0.0267 -0.2299
C36B C 0.4509(2) 0.01282(12) -0.14722(8)
H28B H 0.3715 -0.0169 -0.1506
N1 N 0.50259(19) 0.63795(8) 0.18818(7)
H29 H 0.420(3) 0.6523(12) 0.2039(10)
H30 H 0.457(3) 0.6137(12) 0.1534(10)
N2 N 0.46657(15) 0.71125(7) 0.07626(6)
H31 H 0.4044 0.7373 0.0545
H32 H 0.4251 0.6713 0.0795
H33 H 0.5513 0.7068 0.0606
C37 C 0.49734(19) 0.74108(9) 0.13198(7)
H34 H 0.4043 0.7526 0.1464
H35 H 0.5540 0.7817 0.1290
C38 C 0.58270(19) 0.69455(9) 0.17210(7)
H36 H 0.6692 0.6792 0.1550
H37 H 0.6182 0.7191 0.2060
N3 N 0.96492(15) 0.53503(7) 0.07508(6)
H38 H 0.9028 0.5083 0.0540
H39 H 1.0486 0.5399 0.0588
H40 H 0.9223 0.5747 0.0782
N4 N 0.99963(18) 0.60968(8) 0.18581(7)
H41 H 0.960(3) 0.6351(11) 0.1523(10)
H42 H 0.914(3) 0.5948(12) 0.2024(10)
C39 C 1.08358(19) 0.55382(9) 0.16999(7)
H43 H 1.1219 0.5301 0.2040
H44 H 1.1682 0.5700 0.1521
C40 C 0.99915(19) 0.50606(8) 0.13091(7)
H45 H 1.0576 0.4659 0.1280
H46 H 0.9074 0.4939 0.1460
N5 N -0.03480(15) 0.03527(7) 0.07517(6)
H47 H -0.0922 0.0064 0.0544
H48 H 0.0543 0.0373 0.0624
H49 H -0.0770 0.0754 0.0728
N6 N 0.20539(19) 0.07912(9) 0.16548(7)
H50 H 0.215(2) 0.0957(11) 0.1245(10)
H51 H 0.252(3) 0.0327(12) 0.1746(9)
C41 C -0.0177(2) 0.01360(9) 0.13373(7)
H52 H 0.0415 -0.0268 0.1371
H53 H -0.1148 0.0035 0.1454
C42 C 0.0558(2) 0.06573(10) 0.17188(8)
H54 H -0.0001 0.1068 0.1657
H55 H 0.0494 0.0522 0.2107
N7 N 0.7060(3) 0.16810(15) 0.16520(11)
H56 H 0.720(4) 0.1527(18) 0.1280(16)
H57 H 0.757(4) 0.2101(19) 0.1753(14)
C43 C 0.5561(4) 0.18361(18) 0.17206(12)
H58 H 0.5491 0.1942 0.2115
H59 H 0.4953 0.1446 0.1628
C44 C 0.4942(2) 0.24105(10) 0.13607(7)
H60 H 0.4009 0.2555 0.1488
H61 H 0.5632 0.2781 0.1401
N8 N 0.46976(15) 0.22133(7) 0.07695(6)
H62 H 0.4083 0.2502 0.0580
H63 H 0.4296 0.1808 0.0744
H64 H 0.5564 0.2209 0.0622
O9 O 0.26993(18) 0.17767(8) 0.24954(6)
H71 H 0.343(3) 0.1611(12) 0.2668(10)
H72 H 0.255(3) 0.1516(12) 0.2252(10)
O10 O 0.73828(15) 0.56750(8) 0.24970(5)
H73 H 0.667(3) 0.5868(12) 0.2357(10)
H74 H 0.757(3) 0.5937(12) 0.2742(10)
H65? H 0.4061 0.2311 0.1545
H66? H 0.5113 0.2887 0.1385
N9? N 0.6032(5) 0.1351(2) 0.16229(16)
H67? H 0.615(6) 0.120(3) 0.121(2)
H68? H 0.499(6) 0.137(3) 0.181(2)
C45? C 0.6288(7) 0.2042(3) 0.16652(18)
H69? H 0.7181 0.2156 0.1494
H70? H 0.6428 0.2173 0.2060
loop_
_geom_bond_atom_site_label_1
_geom_bond_atom_site_label_2
_geom_bond_site_symmetry_1
_geom_bond_site_symmetry_2
O1 C1 1_555 1_555
O2 C1 1_555 1_555
O3 C18 1_555 1_555
O4 C18 1_555 1_555
C1 C4 1_555 1_555
C2 H1 1_555 1_555
C3 H2 1_555 1_555
C4 C2 1_555 1_555
H3 C4 1_555 1_555
C5 C3 1_555 1_555
C6 C5 1_555 1_555
H4 C6 1_555 1_555
C7 C6 1_555 1_555
H5 C7 1_555 1_555
C8 C7 1_555 1_555
H6 C8 1_555 1_555
C9 C8 1_555 1_555
H7 C9 1_555 1_555
C10 C5 1_555 1_555
H8 C10 1_555 1_555
C11 C2 1_555 1_555
C12 C11 1_555 1_555
H9 C12 1_555 1_555
C13 C12 1_555 1_555
H10 C13 1_555 1_555
C14 C13 1_555 1_555
H11 C14 1_555 1_555
C15 C14 1_555 1_555
H12 C15 1_555 1_555
C16 C11 1_555 1_555
H13 C16 1_555 1_555
C17 C2 1_555 1_555
H14 C17 1_555 1_555
C18 C17 1_555 1_555
O5 C19 1_555 1_555
O6 C19 1_555 1_555
C19 C20 1_555 1_555
C20 H15 1_555 1_555
C21 C20 1_555 1_555
H16 C21 1_555 1_555
C22 C21 1_555 1_555
C23 C22 1_555 1_555
H17 C23 1_555 1_555
C24 C23 1_555 1_555
H18 C24 1_555 1_555
C25 C24 1_555 1_555
H19 C25 1_555 1_555
C26 C25 1_555 1_555
H20 C26 1_555 1_555
C27 C22 1_555 1_555
H21 C27 1_555 1_555
O7 C28 1_555 1_555
O8 C28 1_555 1_555
C28 C29 1_555 1_555
C29 H22 1_555 1_555
C30 C29 1_555 1_555
H23 C30 1_555 1_555
C31 C30 1_555 1_555
C32 C31 1_555 1_555
H24 C32 1_555 1_555
C33 C32 1_555 1_555
H25 C33 1_555 1_555
C34 C33 1_555 1_555
H26 C34 1_555 1_555
C35 C34 1_555 1_555
H27 C35 1_555 1_555
C36 C31 1_555 1_555
H28 C36 1_555 1_555
N1 H29 1_555 1_555
H30 N1 1_555 1_555
N2 H31 1_555 1_555
H32 N2 1_555 1_555
H33 N2 1_555 1_555
C37 N2 1_555 1_555
H34 C37 1_555 1_555
H35 C37 1_555 1_555
C38 N1 1_555 1_555
H36 C38 1_555 1_555
H37 C38 1_555 1_555
N3 H38 1_555 1_555
H39 N3 1_555 1_555
H40 N3 1_555 1_555
N4 H41 1_555 1_555
H42 N4 1_555 1_555
C39 N4 1_555 1_555
H43 C39 1_555 1_555
H44 C39 1_555 1_555
C40 N3 1_555 1_555
H45 C40 1_555 1_555
H46 C40 1_555 1_555
N5 H47 1_555 1_555
H48 N5 1_555 1_555
H49 N5 1_555 1_555
N6 H50 1_555 1_555
H51 N6 1_555 1_555
C41 N5 1_555 1_555
H52 C41 1_555 1_555
H53 C41 1_555 1_555
C42 N6 1_555 1_555
H54 C42 1_555 1_555
H55 C42 1_555 1_555
N7 H56 1_555 1_555
H57 N7 1_555 1_555
C43 N7 1_555 1_555
H58 C43 1_555 1_555
H59 C43 1_555 1_555
C44 C43 1_555 1_555
H60 C44 1_555 1_555
H61 C44 1_555 1_555
N8 C44 1_555 1_555
H62 N8 1_555 1_555
H63 N8 1_555 1_555
H64 N8 1_555 1_555
O9 H71 1_555 1_555
H72 O9 1_555 1_555
O10 H73 1_555 1_555
H74 O10 1_555 1_555
O5B C19B 1_555 1_555
O6B C19B 1_555 1_555
C19B C20B 1_555 1_555
C20B C21 1_555 1_555
H15B C20B 1_555 1_555
C21B C20 1_555 1_555
H16B C21B 1_555 1_555
C22B C21B 1_555 1_555
C23B C22B 1_555 1_555
H17B C23B 1_555 1_555
C24B C23B 1_555 1_555
H18B C24B 1_555 1_555
C25B C24B 1_555 1_555
H19B C25B 1_555 1_555
C26B C25B 1_555 1_555
H20B C26B 1_555 1_555
C27B C22B 1_555 1_555
H21B C27B 1_555 1_555
O7B C28B 1_555 1_555
O8B C28B 1_555 1_555
C28B C29B 1_555 1_555
C29B C30 1_555 1_555
H22B C29B 1_555 1_555
C30B C29 1_555 1_555
H23B C30B 1_555 1_555
C31B C30B 1_555 1_555
C32B C31B 1_555 1_555
H24B C32B 1_555 1_555
C33B C32B 1_555 1_555
H25B C33B 1_555 1_555
C34B C33B 1_555 1_555
H26B C34B 1_555 1_555
C35B C34B 1_555 1_555
H27B C35B 1_555 1_555
C36B C31B 1_555 1_555
H28B C36B 1_555 1_555
C3 C4 1_555 1_555
C3 C17 1_555 1_555
C9 C10 1_555 1_555
C15 C16 1_555 1_555
C26 C27 1_555 1_555
C35 C36 1_555 1_555
C37 C38 1_555 1_555
C39 C40 1_555 1_555
C41 C42 1_555 1_555
C20B C21B 1_555 1_555
C26B C27B 1_555 1_555
C29B C30B 1_555 1_555
C35B C36B 1_555 1_555

#END
