
#######################################################################
#
#                 Cambridge Crystallographic Data Centre
#                                CCDC 
#
#######################################################################
#
# If this CIF has been generated from an entry in the Cambridge 
# Structural Database, then it will include bibliographic, chemical, 
# crystal, experimental, refinement or atomic coordinate data resulting 
# from the CCDC's data processing and validation procedures.
#
#######################################################################

data_PETJUV
_chemical_formula_moiety         'C9 H8 F3 N1 O1'
_chemical_name_systematic        N-Methyl-2-(trifluoromethyl)benzamide
_symmetry_cell_setting           monoclinic
_symmetry_space_group_name_H-M   'P 21/c'
_symmetry_Int_Tables_number      14
_space_group_name_Hall           '-P 2ybc'
loop_
_symmetry_equiv_pos_site_id
_symmetry_equiv_pos_as_xyz
1 x,y,z
2 -x,1/2+y,1/2-z
3 -x,-y,-z
4 x,1/2-y,1/2+z
_cell_length_a                   11.3520(3)
_cell_length_b                   8.9766(3)
_cell_length_c                   8.9705(3)
_cell_angle_alpha                90
_cell_angle_beta                 98.020(2)
_cell_angle_gamma                90
_cell_volume                     905.175
_exptl_crystal_colour            colorless
_exptl_crystal_description       Plate
_cell_formula_units_Z            4
loop_
_atom_site_label
_atom_site_type_symbol
_atom_site_fract_x
_atom_site_fract_y
_atom_site_fract_z
F1 F -0.03154(7) 1.00889(9) 0.69330(11)
F2 F 0.07232(7) 0.81644(8) 0.65758(9)
F3 F 0.06689(7) 0.89533(10) 0.88251(9)
O1 O 0.33018(7) 0.87754(9) 1.04213(8)
N1 N 0.31554(9) 0.73327(10) 0.83399(10)
H1 H 0.3039 0.7309 0.7350
C1 C 0.28967(9) 0.99873(11) 0.80465(11)
C2 C 0.38602(10) 1.09175(12) 0.79256(12)
H2 H 0.4626 1.0669 0.8433
C3 C 0.37057(11) 1.22079(13) 0.70647(14)
H3 H 0.4369 1.2831 0.6976
C4 C 0.25922(12) 1.25913(13) 0.63356(13)
H4 H 0.2490 1.3479 0.5755
C5 C 0.16279(11) 1.16804(13) 0.64540(12)
H5 H 0.0863 1.1943 0.5954
C6 C 0.17736(9) 1.03801(12) 0.73033(11)
C7 C 0.31199(9) 0.86312(12) 0.90382(11)
C8 C 0.33822(12) 0.59479(13) 0.91720(13)
H6 H 0.4109 0.6049 0.9895
H7 H 0.3481 0.5136 0.8469
H8 H 0.2710 0.5726 0.9712
C9 C 0.07142(10) 0.94084(13) 0.74125(13)
loop_
_geom_bond_atom_site_label_1
_geom_bond_atom_site_label_2
_geom_bond_site_symmetry_1
_geom_bond_site_symmetry_2
F1 C9 1_555 1_555
F2 C9 1_555 1_555
F3 C9 1_555 1_555
O1 C7 1_555 1_555
N1 H1 1_555 1_555
C1 C2 1_555 1_555
C2 H2 1_555 1_555
C3 C2 1_555 1_555
H3 C3 1_555 1_555
C4 C3 1_555 1_555
H4 C4 1_555 1_555
C5 C4 1_555 1_555
H5 C5 1_555 1_555
C6 C1 1_555 1_555
C7 N1 1_555 1_555
C8 N1 1_555 1_555
H6 C8 1_555 1_555
H7 C8 1_555 1_555
H8 C8 1_555 1_555
C9 C6 1_555 1_555
C1 C7 1_555 1_555
C5 C6 1_555 1_555

#END
