
#######################################################################
#
#                 Cambridge Crystallographic Data Centre
#                                CCDC 
#
#######################################################################
#
# If this CIF has been generated from an entry in the Cambridge 
# Structural Database, then it will include bibliographic, chemical, 
# crystal, experimental, refinement or atomic coordinate data resulting 
# from the CCDC's data processing and validation procedures.
#
#######################################################################

data_PETKIK
_chemical_formula_moiety         'C8 H8 F1 N1 O1'
_chemical_name_systematic        2-Fluoro-N-methylbenzamide
_symmetry_cell_setting           triclinic
_symmetry_space_group_name_H-M   'P -1'
_symmetry_Int_Tables_number      2
_space_group_name_Hall           '-P 1'
loop_
_symmetry_equiv_pos_site_id
_symmetry_equiv_pos_as_xyz
1 x,y,z
2 -x,-y,-z
_cell_length_a                   7.4896(10)
_cell_length_b                   9.7758(13)
_cell_length_c                   10.3578(13)
_cell_angle_alpha                88.856(6)
_cell_angle_beta                 85.667(6)
_cell_angle_gamma                75.912(7)
_cell_volume                     733.453
_exptl_crystal_colour            colorless
_exptl_crystal_description       plate
_cell_formula_units_Z            4
loop_
_atom_site_label
_atom_site_type_symbol
_atom_site_fract_x
_atom_site_fract_y
_atom_site_fract_z
O1 O 0.7000(2) 0.68878(14) 0.30961(15)
N1 N 0.7620(2) 0.46420(18) 0.24038(17)
H1 H 0.7934 0.3763 0.2605
F1 F 0.94161(18) 0.28292(12) 0.42276(12)
C1 C 0.7501(3) 0.5110(2) 0.4707(2)
C2 C 0.6622(3) 0.6046(2) 0.5685(2)
H2 H 0.5974 0.6946 0.5462
C3 C 0.6686(3) 0.5676(2) 0.6974(2)
H3 H 0.6086 0.6321 0.7608
C4 C 0.7643(3) 0.4342(2) 0.7323(2)
H4 H 0.7685 0.4090 0.8193
C5 C 0.8539(3) 0.3382(2) 0.6383(2)
H5 H 0.9180 0.2480 0.6610
C6 C 0.8465(3) 0.3786(2) 0.5110(2)
C7 C 0.7365(3) 0.5611(2) 0.3332(2)
C8 C 0.7377(3) 0.5044(2) 0.1067(2)
H6 H 0.6133 0.5578 0.0986
H7 H 0.7619 0.4212 0.0541
H8 H 0.8218 0.5608 0.0786
O2 O 0.7149(2) 0.18850(14) 0.20581(15)
N2 N 0.7627(2) -0.03736(17) 0.27215(16)
H13 H 0.7844 -0.1246 0.2504
F3 F 0.93893(18) -0.21456(12) 0.07210(12)
C15 C 0.7483(3) 0.0156(2) 0.0433(2)
C16 C 0.6569(3) 0.1122(2) -0.0450(2)
H14 H 0.5967 0.2025 -0.0168
C17 C 0.6531(3) 0.0774(2) -0.1731(2)
H15 H 0.5902 0.1434 -0.2300
C18 C 0.7436(3) -0.0564(2) -0.2164(2)
H16 H 0.7404 -0.0805 -0.3024
C19 C 0.8387(3) -0.1542(2) -0.1325(2)
H17 H 0.9010 -0.2438 -0.1614
C20 C 0.8395(3) -0.1170(2) -0.0058(2)
C21 C 0.7422(3) 0.06171(19) 0.1806(2)
C22 C 0.7491(3) -0.0002(2) 0.4079(2)
H18 H 0.8447 0.0459 0.4238
H19 H 0.7627 -0.0841 0.4597
H20 H 0.6308 0.0622 0.4300
F2? F 0.582(2) 0.7318(14) 0.5345(14)
C9? C 0.7501(3) 0.5110(2) 0.4707(2)
C10? C 0.6622(3) 0.6046(2) 0.5685(2)
C11? C 0.6686(3) 0.5676(2) 0.6974(2)
H9? H 0.6086 0.6321 0.7608
C12? C 0.7643(3) 0.4342(2) 0.7323(2)
H10? H 0.7685 0.4090 0.8193
C13? C 0.8539(3) 0.3382(2) 0.6383(2)
H11? H 0.9180 0.2480 0.6610
C14? C 0.8465(3) 0.3786(2) 0.5110(2)
H12? H 0.9089 0.3142 0.4482
F4? F 0.566(2) 0.2396(14) -0.0011(15)
C23? C 0.7483(3) 0.0156(2) 0.0433(2)
C24? C 0.6569(3) 0.1122(2) -0.0450(2)
C25? C 0.6531(3) 0.0774(2) -0.1731(2)
H21? H 0.5902 0.1434 -0.2300
C26? C 0.7436(3) -0.0564(2) -0.2164(2)
H22? H 0.7404 -0.0805 -0.3024
C27? C 0.8387(3) -0.1542(2) -0.1325(2)
H23? H 0.9010 -0.2438 -0.1614
C28? C 0.8395(3) -0.1170(2) -0.0058(2)
H24? H 0.9039 -0.1832 0.0502
loop_
_geom_bond_atom_site_label_1
_geom_bond_atom_site_label_2
_geom_bond_site_symmetry_1
_geom_bond_site_symmetry_2
O1 C7 1_555 1_555
N1 H1 1_555 1_555
F1 C6 1_555 1_555
C1 C2 1_555 1_555
C2 H2 1_555 1_555
C3 C2 1_555 1_555
H3 C3 1_555 1_555
C4 C3 1_555 1_555
H4 C4 1_555 1_555
C5 C4 1_555 1_555
H5 C5 1_555 1_555
C6 C1 1_555 1_555
C7 N1 1_555 1_555
C8 N1 1_555 1_555
H6 C8 1_555 1_555
H7 C8 1_555 1_555
H8 C8 1_555 1_555
O2 C21 1_555 1_555
N2 H13 1_555 1_555
F3 C20 1_555 1_555
C15 C16 1_555 1_555
C16 H14 1_555 1_555
C17 C16 1_555 1_555
H15 C17 1_555 1_555
C18 C17 1_555 1_555
H16 C18 1_555 1_555
C19 C18 1_555 1_555
H17 C19 1_555 1_555
C20 C15 1_555 1_555
C21 N2 1_555 1_555
C22 N2 1_555 1_555
H18 C22 1_555 1_555
H19 C22 1_555 1_555
H20 C22 1_555 1_555
C1 C7 1_555 1_555
C5 C6 1_555 1_555
C15 C21 1_555 1_555
C19 C20 1_555 1_555

#END
