
#######################################################################
#
#                 Cambridge Crystallographic Data Centre
#                                CCDC 
#
#######################################################################
#
# If this CIF has been generated from an entry in the Cambridge 
# Structural Database, then it will include bibliographic, chemical, 
# crystal, experimental, refinement or atomic coordinate data resulting 
# from the CCDC's data processing and validation procedures.
#
#######################################################################

data_PETLAD
_chemical_formula_moiety         'C9 H8 F3 N1 O1'
_chemical_name_systematic        N-(3-(Trifluoromethyl)phenyl)acetamide
_symmetry_cell_setting           monoclinic
_symmetry_space_group_name_H-M   'P 21/c'
_symmetry_Int_Tables_number      14
_space_group_name_Hall           '-P 2ybc'
loop_
_symmetry_equiv_pos_site_id
_symmetry_equiv_pos_as_xyz
1 x,y,z
2 -x,1/2+y,1/2-z
3 -x,-y,-z
4 x,1/2-y,1/2+z
_cell_length_a                   13.5119(6)
_cell_length_b                   9.7785(4)
_cell_length_c                   6.7775(3)
_cell_angle_alpha                90
_cell_angle_beta                 99.459(3)
_cell_angle_gamma                90
_cell_volume                     883.309
_exptl_crystal_colour            colorless
_exptl_crystal_description       Plate
_cell_formula_units_Z            4
loop_
_atom_site_label
_atom_site_type_symbol
_atom_site_fract_x
_atom_site_fract_y
_atom_site_fract_z
N1 N 0.06610(11) 0.81072(15) 0.2403(2)
H1 H 0.0444 0.7259 0.2399
O1 O 0.01390(9) 1.03179(13) 0.2513(2)
F1 F 0.30995(9) 1.19589(12) 0.1888(2)
F2 F 0.43322(12) 1.11360(15) 0.3883(3)
F3 F 0.42929(12) 1.09639(15) 0.0764(3)
C1 C 0.16912(13) 0.82619(19) 0.2285(3)
C2 C 0.21673(13) 0.95206(19) 0.2261(3)
H2 H 0.1801 1.0347 0.2298
C3 C 0.31899(13) 0.95486(19) 0.2182(3)
C4 C 0.37442(13) 0.8360(2) 0.2135(3)
H3 H 0.4442 0.8399 0.2087
C5 C 0.32588(14) 0.71144(19) 0.2159(3)
H4 H 0.3627 0.6289 0.2133
C6 C 0.22433(13) 0.70645(19) 0.2220(3)
H5 H 0.1917 0.6204 0.2219
C7 C -0.00359(13) 0.90833(19) 0.2520(3)
C8 C -0.10620(13) 0.8544(2) 0.2686(3)
H6 H -0.1259 0.8871 0.3932
H7 H -0.1048 0.7542 0.2688
H8 H -0.1547 0.8867 0.1545
C9 C 0.37146(14) 1.0890(2) 0.2168(4)
loop_
_geom_bond_atom_site_label_1
_geom_bond_atom_site_label_2
_geom_bond_site_symmetry_1
_geom_bond_site_symmetry_2
N1 H1 1_555 1_555
O1 C7 1_555 1_555
F1 C9 1_555 1_555
F2 C9 1_555 1_555
F3 C9 1_555 1_555
C1 N1 1_555 1_555
C2 C1 1_555 1_555
H2 C2 1_555 1_555
C3 C2 1_555 1_555
C4 C3 1_555 1_555
H3 C4 1_555 1_555
C5 C4 1_555 1_555
H4 C5 1_555 1_555
C6 C1 1_555 1_555
H5 C6 1_555 1_555
C7 N1 1_555 1_555
C8 C7 1_555 1_555
H6 C8 1_555 1_555
H7 C8 1_555 1_555
H8 C8 1_555 1_555
C9 C3 1_555 1_555
C5 C6 1_555 1_555

#END
