
#######################################################################
#
#                 Cambridge Crystallographic Data Centre
#                                CCDC 
#
#######################################################################
#
# If this CIF has been generated from an entry in the Cambridge 
# Structural Database, then it will include bibliographic, chemical, 
# crystal, experimental, refinement or atomic coordinate data resulting 
# from the CCDC's data processing and validation procedures.
#
#######################################################################

data_PETLOR
_chemical_formula_moiety         'C8 H8 F1 N1 O1'
_chemical_name_systematic        N-(3-Fluorophenyl)acetamide
_symmetry_cell_setting           orthorhombic
_symmetry_space_group_name_H-M   'P b c a'
_symmetry_Int_Tables_number      61
_space_group_name_Hall           '-P 2ac 2ab'
loop_
_symmetry_equiv_pos_site_id
_symmetry_equiv_pos_as_xyz
1 x,y,z
2 1/2+x,1/2-y,-z
3 -x,1/2+y,1/2-z
4 1/2-x,-y,1/2+z
5 -x,-y,-z
6 1/2-x,1/2+y,z
7 x,1/2-y,1/2+z
8 1/2+x,y,1/2-z
_cell_length_a                   12.1758(5)
_cell_length_b                   9.4952(5)
_cell_length_c                   12.9071(7)
_cell_angle_alpha                90
_cell_angle_beta                 90
_cell_angle_gamma                90
_cell_volume                     1492.21
_exptl_crystal_colour            colorless
_exptl_crystal_description       Needle
_cell_formula_units_Z            8
loop_
_atom_site_label
_atom_site_type_symbol
_atom_site_fract_x
_atom_site_fract_y
_atom_site_fract_z
N1 N 0.67475(9) -0.06508(12) 0.59960(8)
H1 H 0.6977 -0.1524 0.5922
O1 O 0.73178(8) 0.16230(10) 0.59618(8)
F1 F 0.34384(7) 0.20517(9) 0.63413(7)
C1 C 0.56403(11) -0.04816(14) 0.62967(10)
C2 C 0.50839(11) 0.07939(14) 0.62140(10)
H2 H 0.5452 0.1628 0.6003
C3 C 0.39816(11) 0.08026(15) 0.64495(11)
C4 C 0.34015(11) -0.03563(16) 0.67652(11)
H3 H 0.2639 -0.0302 0.6914
C5 C 0.39726(12) -0.16094(17) 0.68581(11)
H4 H 0.3599 -0.2434 0.7082
C6 C 0.50817(11) -0.16761(15) 0.66284(11)
H5 H 0.5463 -0.2544 0.6698
C7 C 0.74962(11) 0.03659(14) 0.58090(10)
C8 C 0.85870(11) -0.01431(15) 0.54103(12)
H6 H 0.8877 0.0535 0.4907
H7 H 0.8492 -0.1061 0.5075
H8 H 0.9103 -0.0235 0.5989
loop_
_geom_bond_atom_site_label_1
_geom_bond_atom_site_label_2
_geom_bond_site_symmetry_1
_geom_bond_site_symmetry_2
N1 H1 1_555 1_555
O1 C7 1_555 1_555
F1 C3 1_555 1_555
C1 N1 1_555 1_555
C2 C1 1_555 1_555
H2 C2 1_555 1_555
C3 C2 1_555 1_555
C4 C3 1_555 1_555
H3 C4 1_555 1_555
C5 C4 1_555 1_555
H4 C5 1_555 1_555
C6 C1 1_555 1_555
H5 C6 1_555 1_555
C7 N1 1_555 1_555
C8 C7 1_555 1_555
H6 C8 1_555 1_555
H7 C8 1_555 1_555
H8 C8 1_555 1_555
C5 C6 1_555 1_555

#END
