
#######################################################################
#
#                 Cambridge Crystallographic Data Centre
#                                CCDC 
#
#######################################################################
#
# If this CIF has been generated from an entry in the Cambridge 
# Structural Database, then it will include bibliographic, chemical, 
# crystal, experimental, refinement or atomic coordinate data resulting 
# from the CCDC's data processing and validation procedures.
#
#######################################################################

data_PETNUZ
_chemical_formula_moiety         'C10 H8 N4,C6 H1 F4 I1 O1'
_chemical_name_systematic        
"2,3,5,6-Tetrafluoro-4-iodophenol 4,4'-diazene-1,2-diyldipyridine"
_symmetry_cell_setting           triclinic
_symmetry_space_group_name_H-M   'P -1'
_symmetry_Int_Tables_number      2
_space_group_name_Hall           '-P 1'
loop_
_symmetry_equiv_pos_site_id
_symmetry_equiv_pos_as_xyz
1 x,y,z
2 -x,-y,-z
_cell_length_a                   6.1515(5)
_cell_length_b                   9.8197(7)
_cell_length_c                   13.7443(10)
_cell_angle_alpha                81.558(3)
_cell_angle_beta                 85.932(3)
_cell_angle_gamma                78.342(3)
_cell_volume                     803.569
_exptl_crystal_colour            orange
_exptl_crystal_description       plate
_cell_formula_units_Z            2
loop_
_atom_site_label
_atom_site_type_symbol
_atom_site_fract_x
_atom_site_fract_y
_atom_site_fract_z
N1 N 0.2493(5) 0.2299(3) 0.4821(2)
C1 C 0.4327(6) 0.2858(4) 0.4668(3)
H1 H 0.4406 0.3644 0.4984
C2 C 0.6116(6) 0.2330(4) 0.4065(3)
H2 H 0.7399 0.2742 0.3971
C3 C 0.5982(6) 0.1194(4) 0.3605(3)
N2 N 0.7887(5) 0.0685(3) 0.3001(2)
C4 C 0.4094(6) 0.0601(4) 0.3757(3)
H3 H 0.3974 -0.0186 0.3451
C5 C 0.2402(6) 0.1198(4) 0.4368(3)
H4 H 0.1101 0.0804 0.4472
N3 N 1.2797(5) -0.1576(3) 0.0502(2)
C6 C 1.0968(7) -0.2132(4) 0.0654(3)
H5 H 1.0864 -0.2885 0.0309
C7 C 0.9212(6) -0.1662(4) 0.1292(3)
H6 H 0.7934 -0.2080 0.1379
C8 C 0.9375(6) -0.0574(4) 0.1794(3)
N4 N 0.7498(5) -0.0091(3) 0.2422(2)
C9 C 1.1243(6) 0.0022(4) 0.1646(3)
H7 H 1.1383 0.0777 0.1982
C10 C 1.2908(6) -0.0514(4) 0.0992(3)
H8 H 1.4194 -0.0106 0.0887
C11 C -0.1787(6) 0.3604(4) 0.6561(3)
O1 O -0.1160(4) 0.2688(3) 0.59237(19)
H9 H 0.0095 0.2775 0.5669
C12 C -0.3758(6) 0.3560(4) 0.7129(3)
F1 F -0.4956(3) 0.2599(2) 0.70107(16)
C13 C -0.4498(6) 0.4466(4) 0.7805(3)
F2 F -0.6408(3) 0.4346(2) 0.83189(16)
C14 C -0.3321(6) 0.5474(4) 0.7975(3)
I1 I -0.45160(4) 0.68106(2) 0.902714(15)
C15 C -0.1384(6) 0.5524(4) 0.7416(3)
F3 F -0.0159(4) 0.6498(2) 0.75150(16)
C16 C -0.0647(6) 0.4637(4) 0.6734(3)
F4 F 0.1252(3) 0.4751(2) 0.61837(17)
loop_
_geom_bond_atom_site_label_1
_geom_bond_atom_site_label_2
_geom_bond_site_symmetry_1
_geom_bond_site_symmetry_2
N1 C1 1_555 1_555
C1 H1 1_555 1_555
C2 C1 1_555 1_555
H2 C2 1_555 1_555
C3 C2 1_555 1_555
N2 C3 1_555 1_555
C4 C3 1_555 1_555
H3 C4 1_555 1_555
C5 N1 1_555 1_555
H4 C5 1_555 1_555
N3 C6 1_555 1_555
C6 H5 1_555 1_555
C7 C6 1_555 1_555
H6 C7 1_555 1_555
C8 C7 1_555 1_555
N4 N2 1_555 1_555
C9 C8 1_555 1_555
H7 C9 1_555 1_555
C10 N3 1_555 1_555
H8 C10 1_555 1_555
C11 O1 1_555 1_555
O1 H9 1_555 1_555
C12 C11 1_555 1_555
F1 C12 1_555 1_555
C13 C12 1_555 1_555
F2 C13 1_555 1_555
C14 C13 1_555 1_555
I1 C14 1_555 1_555
C15 C14 1_555 1_555
F3 C15 1_555 1_555
C16 C11 1_555 1_555
F4 C16 1_555 1_555
C4 C5 1_555 1_555
C8 N4 1_555 1_555
C9 C10 1_555 1_555
C15 C16 1_555 1_555

#END
