
#######################################################################
#
#                 Cambridge Crystallographic Data Centre
#                                CCDC 
#
#######################################################################
#
# If this CIF has been generated from an entry in the Cambridge 
# Structural Database, then it will include bibliographic, chemical, 
# crystal, experimental, refinement or atomic coordinate data resulting 
# from the CCDC's data processing and validation procedures.
#
#######################################################################

data_PETNEJ
_chemical_formula_moiety         'C10 H8 N4,2(C7 H2 Br1 F4 N1 O1)'
_chemical_name_systematic        
"bis(1-(4-Bromo-2,3,5,6-tetrafluorophenyl)-N-hydroxymethanimine) 4,4'-diazene-1,2-diyldipyridine"
_symmetry_cell_setting           monoclinic
_symmetry_space_group_name_H-M   'P 21/n'
_symmetry_Int_Tables_number      14
_space_group_name_Hall           '-P 2yn'
loop_
_symmetry_equiv_pos_site_id
_symmetry_equiv_pos_as_xyz
1 x,y,z
2 1/2-x,1/2+y,1/2-z
3 -x,-y,-z
4 1/2+x,1/2-y,1/2+z
_cell_length_a                   10.2846(10)
_cell_length_b                   4.6215(5)
_cell_length_c                   27.841(2)
_cell_angle_alpha                90
_cell_angle_beta                 98.246(6)
_cell_angle_gamma                90
_cell_volume                     1309.61
_exptl_crystal_colour            orange
_exptl_crystal_description       needle
_cell_formula_units_Z            2
loop_
_atom_site_label
_atom_site_type_symbol
_atom_site_fract_x
_atom_site_fract_y
_atom_site_fract_z
Br1 Br 0.50494(5) 0.13770(13) 0.137433(17)
C1 C 0.4924(5) 0.2229(11) 0.30502(17)
C2 C 0.5766(5) 0.3904(11) 0.28136(19)
F1 F 0.6571(3) 0.5866(7) 0.30617(10)
C3 C 0.5818(5) 0.3655(11) 0.23243(18)
F2 F 0.6626(3) 0.5397(7) 0.21208(10)
C4 C 0.5030(5) 0.1690(11) 0.20440(17)
C5 C 0.4207(5) -0.0029(12) 0.22705(18)
F3 F 0.3418(3) -0.1988(7) 0.20115(10)
C6 C 0.4158(5) 0.0243(11) 0.27594(18)
F4 F 0.3347(3) -0.1523(6) 0.29619(11)
C7 C 0.4755(5) 0.2515(14) 0.35599(17)
H1 H 0.4238 0.1135 0.3700
N1 N 0.5288(4) 0.4578(10) 0.38200(14)
O1 O 0.4957(4) 0.4495(9) 0.42878(12)
H2 H 0.538(6) 0.615(13) 0.443(2)
N2 N 0.6641(4) 0.8666(9) 0.46679(14)
C8 C 0.7509(5) 0.9426(12) 0.43720(17)
H3 H 0.7418 0.8592 0.4057
C9 C 0.8514(5) 1.1328(11) 0.44993(17)
H4 H 0.9113 1.1779 0.4280
C10 C 0.8643(5) 1.2598(12) 0.49595(17)
N3 N 0.9650(4) 1.4566(10) 0.51527(14)
C11 C 0.7743(5) 1.1851(12) 0.52637(18)
H5 H 0.7796 1.2682 0.5578
C12 C 0.6766(5) 0.9880(13) 0.51032(18)
H6 H 0.6156 0.9372 0.5315
N2B N 1.3359(4) 2.1334(9) 0.53321(14)
C8B C 1.2491(5) 2.0574(12) 0.56280(17)
H3B H 1.2582 2.1408 0.5943
C9B C 1.1486(5) 1.8672(11) 0.55007(17)
H4B H 1.0887 1.8221 0.5720
C10B C 1.1357(5) 1.7402(12) 0.50405(17)
N3B N 1.0350(4) 1.5434(10) 0.48473(14)
C11B C 1.2257(5) 1.8149(12) 0.47363(18)
H5B H 1.2204 1.7318 0.4422
C12B C 1.3234(5) 2.0120(13) 0.48968(18)
H6B H 1.3844 2.0628 0.4685
loop_
_geom_bond_atom_site_label_1
_geom_bond_atom_site_label_2
_geom_bond_site_symmetry_1
_geom_bond_site_symmetry_2
Br1 C4 1_555 1_555
C1 C2 1_555 1_555
C2 F1 1_555 1_555
C3 C2 1_555 1_555
F2 C3 1_555 1_555
C4 C3 1_555 1_555
C5 C4 1_555 1_555
F3 C5 1_555 1_555
C6 C1 1_555 1_555
F4 C6 1_555 1_555
C7 C1 1_555 1_555
H1 C7 1_555 1_555
N1 C7 1_555 1_555
O1 N1 1_555 1_555
H2 O1 1_555 1_555
N2 C8 1_555 1_555
C8 H3 1_555 1_555
C9 C8 1_555 1_555
H4 C9 1_555 1_555
C10 C9 1_555 1_555
N3 C10 1_555 1_555
C11 C10 1_555 1_555
H5 C11 1_555 1_555
C12 N2 1_555 1_555
H6 C12 1_555 1_555
N2B C8B 1_555 1_555
C8B H3B 1_555 1_555
C9B C8B 1_555 1_555
H4B C9B 1_555 1_555
C10B C9B 1_555 1_555
N3B N3 1_555 1_555
C11B C10B 1_555 1_555
H5B C11B 1_555 1_555
C12B N2B 1_555 1_555
H6B C12B 1_555 1_555
C5 C6 1_555 1_555
C11 C12 1_555 1_555
C10B N3B 1_555 1_555
C11B C12B 1_555 1_555

#END
