
#######################################################################
#
#                 Cambridge Crystallographic Data Centre
#                                CCDC 
#
#######################################################################
#
# If this CIF has been generated from an entry in the Cambridge 
# Structural Database, then it will include bibliographic, chemical, 
# crystal, experimental, refinement or atomic coordinate data resulting 
# from the CCDC's data processing and validation procedures.
#
#######################################################################

data_PETNOT
_chemical_formula_moiety         'C10 H8 N4,C6 H1 Br1 F4 O1'
_chemical_name_systematic        
"4-Bromo-2,3,5,6-tetrafluorophenol 4,4'-diazene-1,2-diyldipyridine"
_symmetry_cell_setting           triclinic
_symmetry_space_group_name_H-M   'P -1'
_symmetry_Int_Tables_number      2
_space_group_name_Hall           '-P 1'
loop_
_symmetry_equiv_pos_site_id
_symmetry_equiv_pos_as_xyz
1 x,y,z
2 -x,-y,-z
_cell_length_a                   6.3706(3)
_cell_length_b                   9.5670(5)
_cell_length_c                   13.3289(7)
_cell_angle_alpha                79.453(2)
_cell_angle_beta                 83.090(2)
_cell_angle_gamma                79.4760(10)
_cell_volume                     782.026
_exptl_crystal_colour            colorless
_exptl_crystal_description       plate
_cell_formula_units_Z            2
loop_
_atom_site_label
_atom_site_type_symbol
_atom_site_fract_x
_atom_site_fract_y
_atom_site_fract_z
N1 N 0.26012(18) 0.26981(12) 0.51773(9)
C1 C 0.0798(2) 0.21336(14) 0.53042(11)
H1 H 0.0750 0.1351 0.4965
C2 C -0.1008(2) 0.26394(14) 0.59098(11)
H2 H -0.2269 0.2218 0.5981
C3 C -0.0923(2) 0.37806(13) 0.64094(10)
N2 N -0.28466(19) 0.42901(12) 0.70025(9)
C4 C 0.0940(2) 0.43862(13) 0.62828(10)
H3 H 0.1031 0.5174 0.6609
C5 C 0.2651(2) 0.38004(14) 0.56667(11)
H4 H 0.3935 0.4198 0.5584
N3 N -0.7982(2) 0.65352(13) 0.95081(9)
C6 C -0.6154(2) 0.70680(14) 0.94133(11)
H5 H -0.6095 0.7814 0.9787
C7 C -0.4338(2) 0.65923(14) 0.88000(11)
H6 H -0.3066 0.6995 0.8758
C8 C -0.4443(2) 0.55051(13) 0.82493(10)
N4 N -0.25323(18) 0.50177(12) 0.76418(9)
C9 C -0.6317(2) 0.49230(14) 0.83452(10)
H7 H -0.6416 0.4168 0.7988
C10 C -0.8040(2) 0.54781(14) 0.89794(11)
H8 H -0.9327 0.5089 0.9042
C11 C 0.6898(2) 0.13945(13) 0.33926(10)
O1 O 0.62864(17) 0.23194(11) 0.40504(8)
H9 H 0.506(4) 0.224(2) 0.4317(16)
C12 C 0.5714(2) 0.03785(13) 0.32290(10)
F1 F 0.38138(14) 0.02844(9) 0.37857(7)
C13 C 0.6435(2) -0.05410(13) 0.25298(10)
F2 F 0.52028(14) -0.14956(9) 0.24273(7)
C14 C 0.8398(2) -0.05094(13) 0.19589(10)
Br1 Br 0.94145(2) -0.175814(12) 0.100968(10)
C15 C 0.9608(2) 0.04843(13) 0.21214(10)
F3 F 1.15189(14) 0.05702(9) 0.15961(7)
C16 C 0.8879(2) 0.14080(13) 0.28164(10)
F4 F 1.01018(14) 0.23615(9) 0.29346(7)
loop_
_geom_bond_atom_site_label_1
_geom_bond_atom_site_label_2
_geom_bond_site_symmetry_1
_geom_bond_site_symmetry_2
N1 C1 1_555 1_555
C1 H1 1_555 1_555
C2 C1 1_555 1_555
H2 C2 1_555 1_555
C3 C2 1_555 1_555
N2 C3 1_555 1_555
C4 C3 1_555 1_555
H3 C4 1_555 1_555
C5 N1 1_555 1_555
H4 C5 1_555 1_555
N3 C6 1_555 1_555
C6 H5 1_555 1_555
C7 C6 1_555 1_555
H6 C7 1_555 1_555
C8 C7 1_555 1_555
N4 N2 1_555 1_555
C9 C8 1_555 1_555
H7 C9 1_555 1_555
C10 N3 1_555 1_555
H8 C10 1_555 1_555
C11 O1 1_555 1_555
O1 H9 1_555 1_555
C12 C11 1_555 1_555
F1 C12 1_555 1_555
C13 C12 1_555 1_555
F2 C13 1_555 1_555
C14 C13 1_555 1_555
Br1 C14 1_555 1_555
C15 C14 1_555 1_555
F3 C15 1_555 1_555
C16 C11 1_555 1_555
F4 C16 1_555 1_555
C4 C5 1_555 1_555
C8 N4 1_555 1_555
C9 C10 1_555 1_555
C15 C16 1_555 1_555

#END
