
#######################################################################
#
#                 Cambridge Crystallographic Data Centre
#                                CCDC 
#
#######################################################################
#
# If this CIF has been generated from an entry in the Cambridge 
# Structural Database, then it will include bibliographic, chemical, 
# crystal, experimental, refinement or atomic coordinate data resulting 
# from the CCDC's data processing and validation procedures.
#
#######################################################################

data_PETPOV
_chemical_formula_moiety         'C10 H8 N4,2(C7 H2 F4 I1 N1 O1)'
_chemical_name_systematic        
"bis(N-Hydroxy-1-(2,3,5,6-tetrafluoro-4-iodophenyl)methanimine) 3,3'-diazene-1,2-diyldipyridine"
_symmetry_cell_setting           triclinic
_symmetry_space_group_name_H-M   'P -1'
_symmetry_Int_Tables_number      2
_space_group_name_Hall           '-P 1'
loop_
_symmetry_equiv_pos_site_id
_symmetry_equiv_pos_as_xyz
1 x,y,z
2 -x,-y,-z
_cell_length_a                   5.6341(4)
_cell_length_b                   10.4834(7)
_cell_length_c                   11.5197(8)
_cell_angle_alpha                75.365(2)
_cell_angle_beta                 77.562(2)
_cell_angle_gamma                80.975(2)
_cell_volume                     639.088
_exptl_crystal_colour            orange
_exptl_crystal_description       prism
_cell_formula_units_Z            1
loop_
_atom_site_label
_atom_site_type_symbol
_atom_site_fract_x
_atom_site_fract_y
_atom_site_fract_z
N1 N -0.0478(2) 0.10679(12) 0.66176(11)
C1 C 0.0013(3) 0.08253(14) 0.77374(13)
H1 H 0.1308 0.1226 0.7863
C2 C -0.1310(3) 0.00008(13) 0.87338(12)
N2 N -0.0771(2) -0.03272(12) 0.99305(11)
C3 C -0.3214(3) -0.05736(14) 0.85597(13)
H2 H -0.4153 -0.1130 0.9224
C4 C -0.3720(3) -0.03193(15) 0.73944(14)
H3 H -0.5015 -0.0698 0.7241
C5 C -0.2304(3) 0.04964(15) 0.64576(14)
H4 H -0.2648 0.0659 0.5658
N1A N 0.0478(2) -0.10679(12) 1.33824(11)
C1A C -0.0013(3) -0.08253(14) 1.22626(13)
H1A H -0.1308 -0.1226 1.2137
C2A C 0.1310(3) -0.00008(13) 1.12662(12)
N2A N 0.0771(2) 0.03272(12) 1.00695(11)
C3A C 0.3214(3) 0.05736(14) 1.14403(13)
H2A H 0.4153 0.1130 1.0776
C4A C 0.3720(3) 0.03193(15) 1.26056(14)
H3A H 0.5015 0.0698 1.2759
C5A C 0.2304(3) -0.04964(15) 1.35424(14)
H4A H 0.2648 -0.0659 1.4342
I1 I 0.262421(15) 0.276903(8) 0.484817(7)
C6 C 0.8719(2) 0.53586(13) 0.18053(12)
C7 C 0.9113(2) 0.39903(13) 0.22241(12)
F1 F 1.11968(16) 0.33137(9) 0.17910(9)
C8 C 0.7401(2) 0.32804(13) 0.30664(12)
F2 F 0.79272(16) 0.19614(8) 0.34014(8)
C9 C 0.5177(2) 0.38851(13) 0.35592(12)
C10 C 0.4747(3) 0.52427(14) 0.31391(13)
F3 F 0.26300(17) 0.58962(10) 0.35554(10)
C11 C 0.6457(3) 0.59544(13) 0.22896(13)
F4 F 0.59088(17) 0.72645(9) 0.19158(9)
C12 C 1.0464(3) 0.61726(13) 0.09188(13)
H5 H 1.0022 0.7097 0.0653
N3 N 1.2581(2) 0.56562(12) 0.04960(11)
O1 O 1.3951(2) 0.66080(11) -0.03321(10)
H6 H 1.505(4) 0.621(2) -0.054(2)
loop_
_geom_bond_atom_site_label_1
_geom_bond_atom_site_label_2
_geom_bond_site_symmetry_1
_geom_bond_site_symmetry_2
N1 C1 1_555 1_555
C1 H1 1_555 1_555
C2 C1 1_555 1_555
N2 C2 1_555 1_555
C3 C2 1_555 1_555
H2 C3 1_555 1_555
C4 C3 1_555 1_555
H3 C4 1_555 1_555
C5 N1 1_555 1_555
H4 C5 1_555 1_555
I1 C9 1_555 1_555
C6 C7 1_555 1_555
C7 F1 1_555 1_555
C8 C7 1_555 1_555
F2 C8 1_555 1_555
C9 C8 1_555 1_555
C10 C9 1_555 1_555
F3 C10 1_555 1_555
C11 C6 1_555 1_555
F4 C11 1_555 1_555
C12 C6 1_555 1_555
H5 C12 1_555 1_555
N3 C12 1_555 1_555
O1 N3 1_555 1_555
H6 O1 1_555 1_555
N1A C1A 1_555 1_555
C1A H1A 1_555 1_555
C2A C1A 1_555 1_555
N2A N2 1_555 1_555
C3A C2A 1_555 1_555
H2A C3A 1_555 1_555
C4A C3A 1_555 1_555
H3A C4A 1_555 1_555
C5A N1A 1_555 1_555
H4A C5A 1_555 1_555
C4 C5 1_555 1_555
C10 C11 1_555 1_555
C2A N2A 1_555 1_555
C4A C5A 1_555 1_555

#END
