
#######################################################################
#
#                 Cambridge Crystallographic Data Centre
#                                CCDC 
#
#######################################################################
#
# If this CIF has been generated from an entry in the Cambridge 
# Structural Database, then it will include bibliographic, chemical, 
# crystal, experimental, refinement or atomic coordinate data resulting 
# from the CCDC's data processing and validation procedures.
#
#######################################################################

data_PETPOT
_chemical_formula_moiety         'C20 H54 B4 Li2 N4 Si2'
_chemical_name_systematic        
exo-4,5-bis(\m~2~-Hydrido)-bis(N,N,N',N'-tetramethyl-ethylenediamine-lithium)-closo-2,3-bis(trimethylsilyl)-2,3-dicarbahexaborane(4)
_symmetry_cell_setting           monoclinic
_symmetry_space_group_name_H-M   'P 21/c'
_symmetry_Int_Tables_number      14
_space_group_name_Hall           '-P 2ybc'
loop_
_symmetry_equiv_pos_site_id
_symmetry_equiv_pos_as_xyz
1 x,y,z
2 -x,1/2+y,1/2-z
3 -x,-y,-z
4 x,1/2-y,1/2+z
_cell_length_a                   17.080(4)
_cell_length_b                   16.294(4)
_cell_length_c                   11.775(4)
_cell_angle_alpha                90
_cell_angle_beta                 97.73(2)
_cell_angle_gamma                90
_cell_volume                     3247.22
_exptl_crystal_colour            colorless
_cell_formula_units_Z            4
_chemical_properties_physical    'Air- and moisture-sensitive'
loop_
_atom_site_label
_atom_site_type_symbol
_atom_site_fract_x
_atom_site_fract_y
_atom_site_fract_z
Li1 Li 0.2051(4) 1.0508(5) 0.3721(7)
Li2 Li 0.4365(4) 1.0875(5) 0.3348(7)
Si1 Si 0.2228(1) 1.0158(1) 0.0382(1)
Si2 Si 0.1618(1) 0.8429(1) 0.2354(1)
C1 C 0.2440(2) 1.0067(3) 0.1965(4)
C2 C 0.2244(2) 0.9349(3) 0.2686(4)
B1 B 0.2787(3) 0.9328(3) 0.3862(5)
B2 B 0.3395(3) 1.0105(3) 0.3860(4)
B3 B 0.3109(3) 1.0586(3) 0.2656(5)
B4 B 0.3220(3) 0.9490(3) 0.2582(5)
C3 C 0.1185(3) 1.0435(4) -0.0189(5)
C4 C 0.2504(3) 0.9214(3) -0.0378(5)
C5 C 0.2814(3) 1.1008(4) -0.0143(4)
C6 C 0.1090(3) 0.8217(3) 0.3615(5)
C7 C 0.0817(3) 0.8506(3) 0.1118(5)
C8 C 0.2217(3) 0.7504(3) 0.2122(6)
N1 N 0.1758(3) 1.0690(4) 0.5459(4)
N2 N 0.1044(3) 1.1309(3) 0.3327(5)
C9 C 0.0995(4) 1.1083(5) 0.5341(6)
C10 C 0.0844(5) 1.1615(5) 0.4434(7)
C11 C 0.2386(4) 1.1239(5) 0.5978(6)
C12 C 0.1771(5) 0.9957(5) 0.6140(6)
C13 C 0.1206(4) 1.1980(4) 0.2602(6)
C14 C 0.0417(4) 1.0813(5) 0.2733(6)
N3 N 0.5325(2) 1.0597(2) 0.2539(3)
N4 N 0.4941(2) 1.1936(2) 0.3941(3)
C15 C 0.5928(3) 1.1169(3) 0.3056(5)
C16 C 0.5607(3) 1.1979(3) 0.3272(5)
C17 C 0.5608(3) 0.9753(3) 0.2694(5)
C18 C 0.5103(3) 1.0742(3) 0.1329(4)
C19 C 0.4465(4) 1.2681(3) 0.3774(5)
C20 C 0.5227(3) 1.1848(3) 0.5152(5)
H1 H 0.2796(20) 0.8773(23) 0.4430(31)
H2 H 0.3952(22) 1.0166(21) 0.4435(30)
H3 H 0.3406(22) 1.1044(24) 0.2235(34)
H4 H 0.3591(22) 0.9113(22) 0.2070(32)
H5 H 0.1035 1.0923 0.0186
H6 H 0.1148 1.0533 -0.0999
H7 H 0.0838 0.9994 -0.0051
H8 H 0.3036 0.9056 -0.0096
H9 H 0.2149 0.8780 -0.0239
H10 H 0.2460 0.9319 -0.1186
H11 H 0.2702 1.1514 0.0222
H12 H 0.3366 1.0883 0.0038
H13 H 0.2682 1.1063 -0.0958
H14 H 0.1468 0.8164 0.4292
H15 H 0.0738 0.8663 0.3709
H16 H 0.0793 0.7717 0.3490
H17 H 0.1047 0.8614 0.0432
H18 H 0.0524 0.8002 0.1032
H19 H 0.0469 0.8948 0.1252
H20 H 0.2494 0.7599 0.1476
H21 H 0.2592 0.7399 0.2790
H22 H 0.1875 0.7038 0.1971
H23 H 0.0928 1.1343 0.6052
H24 H 0.0600 1.0664 0.5190
H25 H 0.0317 1.1833 0.4360
H26 H 0.1205 1.2060 0.4628
H27 H 0.2315 1.1361 0.6756
H28 H 0.2892 1.0984 0.5967
H29 H 0.2362 1.1738 0.5542
H30 H 0.1647 1.0074 0.6874
H31 H 0.1380 0.9596 0.5752
H32 H 0.2281 0.9701 0.6197
H33 H 0.0749 1.2323 0.2422
H34 H 0.1626 1.2294 0.3019
H35 H 0.1371 1.1779 0.1906
H36 H -0.0044 1.1146 0.2531
H37 H 0.0587 1.0594 0.2050
H38 H 0.0293 1.0370 0.3217
H39 H 0.6329 1.1211 0.2562
H40 H 0.6164 1.0950 0.3779
H41 H 0.6011 1.2327 0.3661
H42 H 0.5424 1.2223 0.2542
H43 H 0.6053 0.9674 0.2288
H44 H 0.5761 0.9644 0.3494
H45 H 0.5191 0.9387 0.2396
H46 H 0.5538 1.0617 0.0921
H47 H 0.4660 1.0400 0.1052
H48 H 0.4958 1.1308 0.1212
H49 H 0.4773 1.3145 0.4070
H50 H 0.4293 1.2759 0.2971
H51 H 0.4013 1.2627 0.4173
H52 H 0.5493 1.2341 0.5433
H53 H 0.4786 1.1749 0.5560
H54 H 0.5587 1.1394 0.5265
loop_
_geom_bond_atom_site_label_1
_geom_bond_atom_site_label_2
_geom_bond_site_symmetry_1
_geom_bond_site_symmetry_2
Li1 C1 1_555 1_555
Li2 B2 1_555 1_555
Si1 C1 1_555 1_555
Si2 C2 1_555 1_555
C1 C2 1_555 1_555
C2 Li1 1_555 1_555
B1 Li1 1_555 1_555
B2 Li1 1_555 1_555
B3 Li1 1_555 1_555
B4 C1 1_555 1_555
C3 Si1 1_555 1_555
C4 Si1 1_555 1_555
C5 Si1 1_555 1_555
C6 Si2 1_555 1_555
C7 Si2 1_555 1_555
C8 Si2 1_555 1_555
N1 Li1 1_555 1_555
N2 Li1 1_555 1_555
C9 N1 1_555 1_555
C10 N2 1_555 1_555
C11 N1 1_555 1_555
C12 N1 1_555 1_555
C13 N2 1_555 1_555
C14 N2 1_555 1_555
N3 Li2 1_555 1_555
N4 Li2 1_555 1_555
C15 N3 1_555 1_555
C16 N4 1_555 1_555
C17 N3 1_555 1_555
C18 N3 1_555 1_555
C19 N4 1_555 1_555
C20 N4 1_555 1_555
H1 B1 1_555 1_555
H2 Li2 1_555 1_555
H3 Li2 1_555 1_555
H4 B4 1_555 1_555
H5 C3 1_555 1_555
H6 C3 1_555 1_555
H7 C3 1_555 1_555
H8 C4 1_555 1_555
H9 C4 1_555 1_555
H10 C4 1_555 1_555
H11 C5 1_555 1_555
H12 C5 1_555 1_555
H13 C5 1_555 1_555
H14 C6 1_555 1_555
H15 C6 1_555 1_555
H16 C6 1_555 1_555
H17 C7 1_555 1_555
H18 C7 1_555 1_555
H19 C7 1_555 1_555
H20 C8 1_555 1_555
H21 C8 1_555 1_555
H22 C8 1_555 1_555
H23 C9 1_555 1_555
H24 C9 1_555 1_555
H25 C10 1_555 1_555
H26 C10 1_555 1_555
H27 C11 1_555 1_555
H28 C11 1_555 1_555
H29 C11 1_555 1_555
H30 C12 1_555 1_555
H31 C12 1_555 1_555
H32 C12 1_555 1_555
H33 C13 1_555 1_555
H34 C13 1_555 1_555
H35 C13 1_555 1_555
H36 C14 1_555 1_555
H37 C14 1_555 1_555
H38 C14 1_555 1_555
H39 C15 1_555 1_555
H40 C15 1_555 1_555
H41 C16 1_555 1_555
H42 C16 1_555 1_555
H43 C17 1_555 1_555
H44 C17 1_555 1_555
H45 C17 1_555 1_555
H46 C18 1_555 1_555
H47 C18 1_555 1_555
H48 C18 1_555 1_555
H49 C19 1_555 1_555
H50 C19 1_555 1_555
H51 C19 1_555 1_555
H52 C20 1_555 1_555
H53 C20 1_555 1_555
H54 C20 1_555 1_555
Li2 B3 1_555 1_555
C1 B3 1_555 1_555
C2 B1 1_555 1_555
C2 B4 1_555 1_555
B1 B2 1_555 1_555
B1 B4 1_555 1_555
B2 B3 1_555 1_555
B2 B4 1_555 1_555
B2 H2 1_555 1_555
B3 B4 1_555 1_555
B3 H3 1_555 1_555
C9 C10 1_555 1_555
C15 C16 1_555 1_555

#END
