
#######################################################################
#
#                 Cambridge Crystallographic Data Centre
#                                CCDC 
#
#######################################################################
#
# If this CIF has been generated from an entry in the Cambridge 
# Structural Database, then it will include bibliographic, chemical, 
# crystal, experimental, refinement or atomic coordinate data resulting 
# from the CCDC's data processing and validation procedures.
#
#######################################################################

data_PETQEM
_chemical_formula_moiety         'C10 H8 N4,2(C7 H1 Br1 F4 O2)'
_chemical_name_systematic        
"bis(4-Bromo-2,3,5,6-tetrafluorobenzoic acid) 3,3'-diazene-1,2-diyldipyridine"
_symmetry_cell_setting           monoclinic
_symmetry_space_group_name_H-M   'P 21/c'
_symmetry_Int_Tables_number      14
_space_group_name_Hall           '-P 2ybc'
loop_
_symmetry_equiv_pos_site_id
_symmetry_equiv_pos_as_xyz
1 x,y,z
2 -x,1/2+y,1/2-z
3 -x,-y,-z
4 x,1/2-y,1/2+z
_cell_length_a                   4.8724(3)
_cell_length_b                   22.0007(13)
_cell_length_c                   11.6936(7)
_cell_angle_alpha                90
_cell_angle_beta                 101.336(3)
_cell_angle_gamma                90
_cell_volume                     1229.06
_exptl_crystal_colour            orange
_exptl_crystal_description       plate
_cell_formula_units_Z            2
loop_
_atom_site_label
_atom_site_type_symbol
_atom_site_fract_x
_atom_site_fract_y
_atom_site_fract_z
N1 N 0.5498(4) 0.48670(9) 0.26066(17)
C1 C 0.6397(5) 0.47060(10) 0.1642(2)
H1 H 0.5814 0.4328 0.1282
C2 C 0.8161(5) 0.50772(10) 0.1152(2)
N2 N 0.9019(4) 0.48508(9) 0.01378(17)
C3 C 0.8915(5) 0.56446(10) 0.1655(2)
H2 H 1.0077 0.5912 0.1325
C4 C 0.7935(5) 0.58067(11) 0.2640(2)
H3 H 0.8397 0.6191 0.2996
C5 C 0.6276(5) 0.54047(11) 0.3103(2)
H4 H 0.5664 0.5513 0.3798
N1B N 1.4502(4) 0.51330(9) -0.26066(17)
C1B C 1.3603(5) 0.52940(10) -0.1642(2)
H1B H 1.4186 0.5672 -0.1282
C2B C 1.1839(5) 0.49228(10) -0.1152(2)
N2B N 1.0981(4) 0.51492(9) -0.01378(17)
C3B C 1.1085(5) 0.43554(10) -0.1655(2)
H2B H 0.9923 0.4088 -0.1325
C4B C 1.2065(5) 0.41933(11) -0.2640(2)
H3B H 1.1603 0.3809 -0.2996
C5B C 1.3724(5) 0.45953(11) -0.3103(2)
H4B H 1.4336 0.4487 -0.3798
C6 C -0.0597(5) 0.33440(10) 0.35097(19)
C7 C 0.1184(5) 0.37530(10) 0.2906(2)
O1 O 0.2491(4) 0.41703(8) 0.35954(15)
H5 H 0.380(6) 0.4479(13) 0.312(3)
O2 O 0.1307(4) 0.36817(8) 0.18910(14)
C8 C -0.1119(5) 0.27403(11) 0.31597(19)
F1 F 0.0079(3) 0.24982(6) 0.23260(12)
C9 C -0.2723(5) 0.23629(10) 0.36975(19)
F2 F -0.3083(3) 0.17834(6) 0.33407(12)
C10 C -0.3897(4) 0.25607(10) 0.46151(18)
Br1 Br -0.59719(5) 0.204787(10) 0.53986(2)
C11 C -0.3417(5) 0.31617(11) 0.4969(2)
F3 F -0.4547(3) 0.33815(6) 0.58394(12)
C12 C -0.1817(5) 0.35405(10) 0.4424(2)
F4 F -0.1526(3) 0.41170(6) 0.48094(12)
loop_
_geom_bond_atom_site_label_1
_geom_bond_atom_site_label_2
_geom_bond_site_symmetry_1
_geom_bond_site_symmetry_2
N1 C1 1_555 1_555
C1 H1 1_555 1_555
C2 C1 1_555 1_555
N2 C2 1_555 1_555
C3 C2 1_555 1_555
H2 C3 1_555 1_555
C4 C3 1_555 1_555
H3 C4 1_555 1_555
C5 N1 1_555 1_555
H4 C5 1_555 1_555
C6 C7 1_555 1_555
C7 O1 1_555 1_555
O1 H5 1_555 1_555
O2 C7 1_555 1_555
C8 C6 1_555 1_555
F1 C8 1_555 1_555
C9 C8 1_555 1_555
F2 C9 1_555 1_555
C10 C9 1_555 1_555
Br1 C10 1_555 1_555
C11 C10 1_555 1_555
F3 C11 1_555 1_555
C12 C6 1_555 1_555
F4 C12 1_555 1_555
N1B C1B 1_555 1_555
C1B H1B 1_555 1_555
C2B C1B 1_555 1_555
N2B N2 1_555 1_555
C3B C2B 1_555 1_555
H2B C3B 1_555 1_555
C4B C3B 1_555 1_555
H3B C4B 1_555 1_555
C5B N1B 1_555 1_555
H4B C5B 1_555 1_555
C4 C5 1_555 1_555
C11 C12 1_555 1_555
C2B N2B 1_555 1_555
C4B C5B 1_555 1_555

#END
