
#######################################################################
#
#                 Cambridge Crystallographic Data Centre
#                                CCDC 
#
#######################################################################
#
# If this CIF has been generated from an entry in the Cambridge 
# Structural Database, then it will include bibliographic, chemical, 
# crystal, experimental, refinement or atomic coordinate data resulting 
# from the CCDC's data processing and validation procedures.
#
#######################################################################

data_PETQIP
_chemical_formula_moiety         'C9 H10 F2 N2 O4 S1'
_chemical_name_systematic        
1-(3-Deoxy-3,3-difluoro-4-thio-\b-L-lyxofuranosyl)uracil
_symmetry_cell_setting           monoclinic
_symmetry_space_group_name_H-M   'P 21'
_symmetry_Int_Tables_number      4
_space_group_name_Hall           'P 2yb'
loop_
_symmetry_equiv_pos_site_id
_symmetry_equiv_pos_as_xyz
1 x,y,z
2 -x,1/2+y,-z
_cell_length_a                   6.4138(5)
_cell_length_b                   10.5196(9)
_cell_length_c                   17.1520(14)
_cell_angle_alpha                90
_cell_angle_beta                 99.8080(10)
_cell_angle_gamma                90
_cell_volume                     1140.34
_exptl_crystal_colour            colorless
_exptl_crystal_description       prismatic
_chemical_melting_point          168-170deg.C
_cell_formula_units_Z            4
loop_
_atom_site_label
_atom_site_type_symbol
_atom_site_fract_x
_atom_site_fract_y
_atom_site_fract_z
S1 S 0.86542(15) -0.12498(9) 0.55217(5)
O1 O 0.9056(4) 0.1822(3) 0.70586(17)
O2 O 0.3534(6) 0.0449(4) 0.8150(2)
O3 O 0.7092(5) 0.2298(3) 0.48987(18)
O4 O 0.4896(4) -0.1484(3) 0.40439(16)
N1 N 0.6188(6) 0.1150(3) 0.75572(19)
N2 N 0.6674(4) 0.0483(3) 0.63175(16)
C1 C 0.7395(6) 0.1195(3) 0.6987(2)
C2 C 0.4356(7) 0.0437(4) 0.7562(2)
C3 C 0.3667(6) -0.0235(4) 0.6831(2)
H1 H 0.2402 -0.0686 0.6757
C4 C 0.4855(6) -0.0210(4) 0.6258(2)
H2 H 0.4419 -0.0684 0.5802
C5 C 0.8021(5) 0.0421(3) 0.57139(19)
C6 C 0.7058(6) 0.0966(3) 0.49161(19)
C7 C 0.8427(6) 0.0437(3) 0.4362(2)
C8 C 0.8661(6) -0.0996(3) 0.4466(2)
C9 C 0.6996(7) -0.1776(4) 0.3941(2)
H3 H 0.7123 -0.1630 0.3393
H4 H 0.7263 -0.2670 0.4054
F1 F 1.0417(4) 0.0954(3) 0.45391(16)
F2 F 0.7701(4) 0.0745(3) 0.35931(13)
H9 H 0.685(8) 0.159(5) 0.791(3)
H11 H 0.920(5) 0.076(3) 0.6006(19)
H12 H 0.596(8) 0.062(5) 0.482(3)
H14 H 0.999(8) -0.119(5) 0.441(3)
H17 H 0.655(9) 0.268(6) 0.521(4)
H18 H 0.448(8) -0.118(5) 0.3613(18)
S2 S 0.8625(2) 0.58793(11) 0.89799(6)
O5 O 1.1654(6) 0.7032(5) 1.10016(19)
O6 O 0.6218(6) 0.8816(5) 1.19458(19)
O7 O 1.2323(7) 0.8275(7) 0.8769(3)
O8 O 0.6970(6) 0.4635(4) 0.73424(19)
N3 N 0.8866(6) 0.7934(4) 1.1450(2)
N4 N 0.8860(5) 0.7726(3) 1.01094(18)
C10 C 0.9914(6) 0.7530(4) 1.0863(2)
C11 C 0.6926(7) 0.8496(4) 1.1358(2)
C12 C 0.5905(7) 0.8632(7) 1.0556(3)
H5 H 0.4558 0.8984 1.0442
C13 C 0.6882(7) 0.8254(6) 0.9970(3)
H6 H 0.6198 0.8353 0.9450
C14 C 0.9899(6) 0.7299(4) 0.9462(2)
C15 C 1.0049(7) 0.8282(4) 0.8826(2)
C16 C 0.8805(9) 0.7868(6) 0.8088(4)
C17 C 0.8982(8) 0.6363(5) 0.8000(2)
C18 C 0.7164(9) 0.5980(6) 0.7360(3)
H7 H 0.5861 0.6358 0.7466
H8 H 0.7416 0.6285 0.6851
F3 F 0.9489(6) 0.8384(3) 0.74248(16)
F4 F 0.6772(6) 0.8296(4) 0.8112(3)
H10 H 0.940(10) 0.792(7) 1.184(4)
H13 H 1.273(5) 0.904(3) 0.887(5)
H15 H 1.123(5) 0.690(5) 0.973(3)
H16 H 1.036(5) 0.603(5) 0.793(3)
H19 H 0.566(5) 0.452(10) 0.719(6)
O9? O 1.087(3) 0.9410(16) 0.9020(9)
C19? C 1.0219(19) 0.7537(11) 0.8064(7)
F5? F 1.2472(12) 0.7469(9) 0.8183(5)
loop_
_geom_bond_atom_site_label_1
_geom_bond_atom_site_label_2
_geom_bond_site_symmetry_1
_geom_bond_site_symmetry_2
S1 C5 1_555 1_555
S2 C14 1_555 1_555
O1 C1 1_555 1_555
O2 C2 1_555 1_555
O3 C6 1_555 1_555
O4 C9 1_555 1_555
O5 C10 1_555 1_555
O6 C11 1_555 1_555
O7 C15 1_555 1_555
O8 C18 1_555 1_555
N1 C1 1_555 1_555
N2 C1 1_555 1_555
N3 C10 1_555 1_555
N4 C10 1_555 1_555
C2 N1 1_555 1_555
C3 C2 1_555 1_555
H1 C3 1_555 1_555
C4 N2 1_555 1_555
H2 C4 1_555 1_555
C5 N2 1_555 1_555
C6 C5 1_555 1_555
C7 C6 1_555 1_555
C8 S1 1_555 1_555
C9 C8 1_555 1_555
H3 C9 1_555 1_555
H4 C9 1_555 1_555
C11 N3 1_555 1_555
C12 C11 1_555 1_555
H5 C12 1_555 1_555
C13 N4 1_555 1_555
H6 C13 1_555 1_555
C14 N4 1_555 1_555
C15 C14 1_555 1_555
C16 C15 1_555 1_555
C17 S2 1_555 1_555
C18 C17 1_555 1_555
H7 C18 1_555 1_555
H8 C18 1_555 1_555
F1 C7 1_555 1_555
F2 C7 1_555 1_555
F3 C16 1_555 1_555
F4 C16 1_555 1_555
H9 N1 1_555 1_555
H10 N3 1_555 1_555
H11 C5 1_555 1_555
H12 C6 1_555 1_555
H13 O7 1_555 1_555
H14 C8 1_555 1_555
H15 C14 1_555 1_555
H16 C17 1_555 1_555
H17 O3 1_555 1_555
H18 O4 1_555 1_555
H19 O8 1_555 1_555
C3 C4 1_555 1_555
C7 C8 1_555 1_555
C12 C13 1_555 1_555
C16 C17 1_555 1_555

#END
