
#######################################################################
#
#                 Cambridge Crystallographic Data Centre
#                                CCDC 
#
#######################################################################
#
# If this CIF has been generated from an entry in the Cambridge 
# Structural Database, then it will include bibliographic, chemical, 
# crystal, experimental, refinement or atomic coordinate data resulting 
# from the CCDC's data processing and validation procedures.
#
#######################################################################

data_PETRAI
_chemical_formula_moiety         'C18 H16 Br1 F3 O4'
_chemical_name_systematic        
"Ethyl (2S)-2-hydroxy-2-(4'-(4'-bromobenzyloxy)phenyl)-3,3,3-trifluoropropanoate"
_symmetry_cell_setting           orthorhombic
_symmetry_space_group_name_H-M   'P 21 21 21'
_symmetry_Int_Tables_number      19
_space_group_name_Hall           'P 2ac 2ab'
loop_
_symmetry_equiv_pos_site_id
_symmetry_equiv_pos_as_xyz
1 x,y,z
2 1/2-x,-y,1/2+z
3 -x,1/2+y,1/2-z
4 1/2+x,1/2-y,-z
_cell_length_a                   5.9829(11)
_cell_length_b                   7.2720(14)
_cell_length_c                   41.691(8)
_cell_angle_alpha                90
_cell_angle_beta                 90
_cell_angle_gamma                90
_cell_volume                     1813.88
_exptl_crystal_colour            colorless
_exptl_crystal_description       block
_chemical_melting_point          82-84deg.C
_cell_formula_units_Z            4
loop_
_atom_site_label
_atom_site_type_symbol
_atom_site_fract_x
_atom_site_fract_y
_atom_site_fract_z
Br1 Br 0.02033(18) 1.07750(12) 0.99462(2)
F1 F 0.9122(9) -0.4757(6) 0.81736(13)
F2 F 0.8141(9) -0.4220(6) 0.86629(10)
F3 F 0.5977(7) -0.3450(6) 0.82748(10)
O1 O 0.4656(9) 0.3497(6) 0.91366(10)
O2 O 1.1414(7) -0.2056(7) 0.84962(12)
H1 H 1.2244 -0.1169 0.8472
O3 O 1.1458(11) -0.0298(13) 0.79427(15)
O4 O 0.7991(9) -0.1227(9) 0.78205(11)
C1 C 0.0209(12) 0.5965(9) 0.94160(17)
H2 H -0.0769 0.4989 0.9383
C2 C -0.0359(12) 0.7388(10) 0.96292(16)
H3 H -0.1693 0.7342 0.9743
C3 C 0.1055(12) 0.8828(8) 0.96671(15)
C4 C 0.3084(12) 0.8911(10) 0.95103(17)
H4 H 0.4051 0.9894 0.9544
C5 C 0.3661(12) 0.7487(9) 0.92996(17)
H5 H 0.5011 0.7530 0.9189
C6 C 0.2235(11) 0.6027(9) 0.92559(14)
C7 C 0.2803(12) 0.4566(9) 0.90126(16)
H6 H 0.1520 0.3777 0.8976
H7 H 0.3215 0.5132 0.8810
C8 C 0.5644(11) 0.2273(8) 0.89323(14)
C9 C 0.4997(12) 0.1901(8) 0.86217(15)
H8 H 0.3766 0.2508 0.8536
C10 C 0.6132(11) 0.0651(9) 0.84361(15)
H9 H 0.5645 0.0407 0.8229
C11 C 0.8013(10) -0.0255(8) 0.85563(14)
C12 C 0.8665(11) 0.0098(9) 0.88714(15)
H10 H 0.9897 -0.0506 0.8958
C13 C 0.7502(11) 0.1327(8) 0.90538(15)
H11 H 0.7953 0.1542 0.9264
C14 C 0.9317(10) -0.1682(9) 0.83521(14)
C15 C 0.8128(12) -0.3552(10) 0.83633(15)
C16 C 0.9713(12) -0.1009(10) 0.80144(17)
C17 C 0.8177(18) -0.0528(18) 0.74919(18)
H12 H 0.9525 -0.0994 0.7391
H13 H 0.8244 0.0805 0.7493
C18 C 0.617(2) -0.1164(18) 0.7312(2)
H14 H 0.4851 -0.0621 0.7404
H15 H 0.6061 -0.2479 0.7325
H16 H 0.6291 -0.0801 0.7091
loop_
_geom_bond_atom_site_label_1
_geom_bond_atom_site_label_2
_geom_bond_site_symmetry_1
_geom_bond_site_symmetry_2
Br1 C3 1_555 1_555
F1 C15 1_555 1_555
F2 C15 1_555 1_555
F3 C15 1_555 1_555
O1 C7 1_555 1_555
O2 H1 1_555 1_555
O3 C16 1_555 1_555
O4 C16 1_555 1_555
C1 H2 1_555 1_555
C2 C1 1_555 1_555
H3 C2 1_555 1_555
C3 C2 1_555 1_555
C4 C3 1_555 1_555
H4 C4 1_555 1_555
C5 C4 1_555 1_555
H5 C5 1_555 1_555
C6 C1 1_555 1_555
C7 C6 1_555 1_555
H6 C7 1_555 1_555
H7 C7 1_555 1_555
C8 O1 1_555 1_555
C9 C8 1_555 1_555
H8 C9 1_555 1_555
C10 C9 1_555 1_555
H9 C10 1_555 1_555
C11 C10 1_555 1_555
C12 C11 1_555 1_555
H10 C12 1_555 1_555
C13 C8 1_555 1_555
H11 C13 1_555 1_555
C14 O2 1_555 1_555
C15 C14 1_555 1_555
C16 C14 1_555 1_555
C17 O4 1_555 1_555
H12 C17 1_555 1_555
H13 C17 1_555 1_555
C18 C17 1_555 1_555
H14 C18 1_555 1_555
H15 C18 1_555 1_555
H16 C18 1_555 1_555
C5 C6 1_555 1_555
C11 C14 1_555 1_555
C12 C13 1_555 1_555

#END
