
#######################################################################
#
#                 Cambridge Crystallographic Data Centre
#                                CCDC 
#
#######################################################################
#
# If this CIF has been generated from an entry in the Cambridge 
# Structural Database, then it will include bibliographic, chemical, 
# crystal, experimental, refinement or atomic coordinate data resulting 
# from the CCDC's data processing and validation procedures.
#
#######################################################################

data_PETVOC
_chemical_formula_moiety         'C15 H17 N1 O4'
_chemical_name_systematic        
'dimethyl 1,2,3,9a-tetrahydro-9H-pyrrolo[1,2-a]indole-9,9-dicarboxylate'
_symmetry_cell_setting           monoclinic
_symmetry_space_group_name_H-M   'P 21/c'
_symmetry_Int_Tables_number      14
_space_group_name_Hall           '-P 2ybc'
loop_
_symmetry_equiv_pos_site_id
_symmetry_equiv_pos_as_xyz
1 x,y,z
2 -x,1/2+y,1/2-z
3 -x,-y,-z
4 x,1/2-y,1/2+z
_cell_length_a                   13.790(5)
_cell_length_b                   7.589(3)
_cell_length_c                   26.897(9)
_cell_angle_alpha                90
_cell_angle_beta                 99.021(4)
_cell_angle_gamma                90
_cell_volume                     2780.02
_exptl_crystal_description       block
_cell_formula_units_Z            8
loop_
_atom_site_label
_atom_site_type_symbol
_atom_site_fract_x
_atom_site_fract_y
_atom_site_fract_z
C1 C 0.4059(4) 0.3576(7) 0.25850(17)
H1 H 0.3817 0.3123 0.2251
H2 H 0.4484 0.4574 0.2553
C2 C 0.3219(4) 0.4116(8) 0.28456(17)
H3 H 0.2602 0.3689 0.2661
H4 H 0.3186 0.5390 0.2869
C3 C 0.3410(3) 0.3309(6) 0.33646(15)
H5 H 0.2801 0.3016 0.3483
H6 H 0.3790 0.4096 0.3604
C4 C 0.3992(3) 0.1656(5) 0.32822(13)
H7 H 0.3545 0.0703 0.3150
C5 C 0.5535(3) 0.2566(5) 0.31594(13)
C6 C 0.6292(4) 0.3451(6) 0.29820(17)
H8 H 0.6212 0.3886 0.2655
C7 C 0.7167(4) 0.3670(6) 0.33027(19)
H9 H 0.7675 0.4279 0.3189
C8 C 0.7311(3) 0.3016(6) 0.37853(19)
H10 H 0.7908 0.3183 0.3994
C9 C 0.6557(3) 0.2104(5) 0.39593(15)
H11 H 0.6646 0.1647 0.4284
C10 C 0.5679(3) 0.1887(4) 0.36465(13)
C11 C 0.4743(3) 0.0983(5) 0.37315(12)
C12 C 0.4411(3) 0.1419(5) 0.42357(13)
C13 C 0.4841(3) -0.1029(5) 0.36972(13)
C14 C 0.5674(4) -0.3513(6) 0.4089(2)
H12 H 0.5880 -0.3867 0.3779
H13 H 0.5082 -0.4126 0.4129
H14 H 0.6179 -0.3791 0.4365
C15 C 0.3147(3) 0.0894(6) 0.47136(16)
H15 H 0.2887 0.2070 0.4688
H16 H 0.3630 0.0797 0.5011
H17 H 0.2625 0.0071 0.4733
N1 N 0.4601(2) 0.2186(4) 0.29024(11)
O1 O 0.4424(3) -0.1937(4) 0.33775(12)
O2 O 0.5493(2) -0.1630(3) 0.40788(10)
O3 O 0.4795(2) 0.2436(4) 0.45385(10)
O4 O 0.35953(19) 0.0510(4) 0.42758(9)
C16 C 0.0308(5) 0.8546(8) 0.27892(19)
H18 H -0.0032 0.9609 0.2864
H19 H 0.0100 0.8243 0.2438
C17 C 0.1405(5) 0.8813(8) 0.2896(2)
H20 H 0.1567 1.0056 0.2893
H21 H 0.1724 0.8211 0.2647
C18 C 0.1717(4) 0.8033(7) 0.34125(17)
H22 H 0.1612 0.8856 0.3675
H23 H 0.2402 0.7684 0.3462
C19 C 0.1043(3) 0.6437(6) 0.34028(14)
H24 H 0.1295 0.5466 0.3220
C20 C -0.0541(3) 0.7371(6) 0.34600(17)
C21 C -0.1441(4) 0.8276(7) 0.3393(2)
H25 H -0.1679 0.8808 0.3087
C22 C -0.1961(4) 0.8361(8) 0.3783(3)
H26 H -0.2556 0.8962 0.3738
C23 C -0.1638(4) 0.7598(8) 0.4233(3)
H27 H -0.2015 0.7668 0.4490
C24 C -0.0752(3) 0.6717(6) 0.43144(19)
H28 H -0.0525 0.6202 0.4625
C25 C -0.0208(3) 0.6616(5) 0.39265(15)
C26 C 0.0776(3) 0.5758(5) 0.39092(13)
C27 C 0.1559(3) 0.6286(5) 0.43471(14)
C28 C 0.3225(3) 0.5911(6) 0.46966(19)
H29 H 0.3434 0.7070 0.4617
H30 H 0.3752 0.5091 0.4687
H31 H 0.3045 0.5915 0.5027
C29 C 0.0651(3) 0.3756(5) 0.39042(14)
C30 C 0.0175(4) 0.1365(6) 0.4377(2)
H32 H -0.0299 0.1044 0.4090
H33 H -0.0101 0.1180 0.4679
H34 H 0.0752 0.0650 0.4386
N2 N 0.0095(3) 0.7082(5) 0.31205(13)
O5 O 0.0726(3) 0.2814(4) 0.35598(12)
O6 O 0.0434(2) 0.3204(4) 0.43397(11)
O7 O 0.23886(19) 0.5396(4) 0.43327(10)
O8 O 0.1471(2) 0.7392(4) 0.46541(11)
loop_
_geom_bond_atom_site_label_1
_geom_bond_atom_site_label_2
_geom_bond_site_symmetry_1
_geom_bond_site_symmetry_2
C1 H1 1_555 1_555
H2 C1 1_555 1_555
C2 C1 1_555 1_555
H3 C2 1_555 1_555
H4 C2 1_555 1_555
C3 C2 1_555 1_555
H5 C3 1_555 1_555
H6 C3 1_555 1_555
C4 C3 1_555 1_555
H7 C4 1_555 1_555
C5 C6 1_555 1_555
C6 H8 1_555 1_555
C7 C6 1_555 1_555
H9 C7 1_555 1_555
C8 C7 1_555 1_555
H10 C8 1_555 1_555
C9 C8 1_555 1_555
H11 C9 1_555 1_555
C10 C5 1_555 1_555
C11 C4 1_555 1_555
C12 C11 1_555 1_555
C13 C11 1_555 1_555
C14 H12 1_555 1_555
H13 C14 1_555 1_555
H14 C14 1_555 1_555
C15 H15 1_555 1_555
H16 C15 1_555 1_555
H17 C15 1_555 1_555
N1 C1 1_555 1_555
O1 C13 1_555 1_555
O2 C13 1_555 1_555
O3 C12 1_555 1_555
O4 C12 1_555 1_555
C16 H18 1_555 1_555
H19 C16 1_555 1_555
C17 C16 1_555 1_555
H20 C17 1_555 1_555
H21 C17 1_555 1_555
C18 C17 1_555 1_555
H22 C18 1_555 1_555
H23 C18 1_555 1_555
C19 C18 1_555 1_555
H24 C19 1_555 1_555
C20 C21 1_555 1_555
C21 H25 1_555 1_555
C22 C21 1_555 1_555
H26 C22 1_555 1_555
C23 C22 1_555 1_555
H27 C23 1_555 1_555
C24 C23 1_555 1_555
H28 C24 1_555 1_555
C25 C20 1_555 1_555
C26 C19 1_555 1_555
C27 C26 1_555 1_555
C28 H29 1_555 1_555
H30 C28 1_555 1_555
H31 C28 1_555 1_555
C29 C26 1_555 1_555
C30 H32 1_555 1_555
H33 C30 1_555 1_555
H34 C30 1_555 1_555
N2 C16 1_555 1_555
O5 C29 1_555 1_555
O6 C29 1_555 1_555
O7 C27 1_555 1_555
O8 C27 1_555 1_555
C4 N1 1_555 1_555
C5 N1 1_555 1_555
C9 C10 1_555 1_555
C10 C11 1_555 1_555
C14 O2 1_555 1_555
C15 O4 1_555 1_555
C19 N2 1_555 1_555
C20 N2 1_555 1_555
C24 C25 1_555 1_555
C25 C26 1_555 1_555
C28 O7 1_555 1_555
C30 O6 1_555 1_555

#END
