
#######################################################################
#
#                 Cambridge Crystallographic Data Centre
#                                CCDC 
#
#######################################################################
#
# If this CIF has been generated from an entry in the Cambridge 
# Structural Database, then it will include bibliographic, chemical, 
# crystal, experimental, refinement or atomic coordinate data resulting 
# from the CCDC's data processing and validation procedures.
#
#######################################################################

data_PETVAO
_chemical_formula_moiety         'C17 H34 B10 N2 Si1'
_chemical_name_systematic        
(1,2-dicarba-closo-dodecaboranyl)(N,N'-di-t-butylbenzamidinato)silane
_symmetry_cell_setting           triclinic
_symmetry_space_group_name_H-M   'P -1'
_symmetry_Int_Tables_number      2
_space_group_name_Hall           '-P 1'
loop_
_symmetry_equiv_pos_site_id
_symmetry_equiv_pos_as_xyz
1 x,y,z
2 -x,-y,-z
_cell_length_a                   9.0164(17)
_cell_length_b                   10.686(2)
_cell_length_c                   14.570(3)
_cell_angle_alpha                85.245(3)
_cell_angle_beta                 77.550(4)
_cell_angle_gamma                66.458(3)
_cell_volume                     1256.69
_exptl_crystal_colour            colorless
_exptl_crystal_description       block
_cell_formula_units_Z            2
loop_
_atom_site_label
_atom_site_type_symbol
_atom_site_fract_x
_atom_site_fract_y
_atom_site_fract_z
Si1 Si 0.43805(6) 0.57150(5) 0.65515(3)
N1 N 0.48935(19) 0.70764(15) 0.69611(10)
N2 N 0.34149(19) 0.60985(15) 0.78152(10)
B1 B 0.8259(3) 0.3920(3) 0.60673(18)
H1 H 0.8483 0.4765 0.5662
B2 B 0.7879(3) 0.3881(3) 0.73113(18)
H2 H 0.7871 0.4701 0.7724
B3 B 0.6502(3) 0.3066(2) 0.77017(15)
H3 H 0.5598 0.3355 0.8368
B4 B 0.6030(3) 0.2588(2) 0.67007(15)
H4 H 0.4814 0.2581 0.6700
B5 B 0.9254(3) 0.2192(3) 0.5653(2)
H5 H 1.0133 0.1914 0.4977
B6 B 0.9742(3) 0.2678(3) 0.6652(2)
H6 H 1.0954 0.2708 0.6632
B7 B 0.8638(4) 0.2156(3) 0.76626(19)
H7 H 0.9142 0.1844 0.8307
B8 B 0.7474(4) 0.1350(2) 0.72920(17)
H8 H 0.7208 0.0518 0.7691
B9 B 0.7867(3) 0.1377(2) 0.60569(17)
H9 H 0.7852 0.0570 0.5642
B10 B 0.9478(4) 0.1109(3) 0.6651(2)
H10 H 1.0524 0.0117 0.6636
C1 C 0.6362(2) 0.40675(17) 0.67168(12)
C2 C 0.7191(2) 0.30619(19) 0.57812(12)
H11 H 0.6691 0.3380 0.5136
C3 C 0.5695(3) 0.80097(19) 0.65281(14)
C4 C 0.4600(3) 0.9501(2) 0.6721(2)
H12 H 0.5183 1.0055 0.6424
H13 H 0.3618 0.9731 0.6475
H14 H 0.4305 0.9664 0.7387
C5 C 0.7295(3) 0.7665(3) 0.68743(18)
H15 H 0.7808 0.8274 0.6591
H16 H 0.7054 0.7763 0.7545
H17 H 0.8029 0.6741 0.6704
C6 C 0.6091(4) 0.7767(3) 0.54625(16)
H18 H 0.6616 0.8353 0.5149
H19 H 0.6817 0.6832 0.5325
H20 H 0.5086 0.7964 0.5247
C7 C 0.3916(2) 0.71286(17) 0.78011(12)
C8 C 0.3548(2) 0.80802(18) 0.85852(12)
C9 C 0.4609(3) 0.7688(2) 0.92165(13)
H21 H 0.5509 0.6854 0.9144
C10 C 0.4317(4) 0.8547(3) 0.99547(15)
H22 H 0.5036 0.8296 1.0372
C11 C 0.2973(4) 0.9768(3) 1.00734(17)
H23 H 0.2772 1.0330 1.0579
C12 C 0.1927(3) 1.0165(2) 0.94538(17)
H24 H 0.1023 1.0996 0.9538
C13 C 0.2213(3) 0.9328(2) 0.86956(15)
H25 H 0.1514 0.9605 0.8267
C14 C 0.1991(3) 0.5913(2) 0.84651(15)
C15 C 0.0388(3) 0.7119(3) 0.8393(2)
H26 H -0.0515 0.6987 0.8814
H27 H 0.0455 0.7943 0.8560
H28 H 0.0214 0.7189 0.7760
C16 C 0.2264(4) 0.5711(3) 0.94746(16)
H29 H 0.1337 0.5594 0.9879
H30 H 0.3250 0.4915 0.9506
H31 H 0.2379 0.6497 0.9673
C17 C 0.1894(4) 0.4627(3) 0.8140(2)
H32 H 0.0990 0.4470 0.8542
H33 H 0.1726 0.4745 0.7505
H34 H 0.2906 0.3858 0.8170
loop_
_geom_bond_atom_site_label_1
_geom_bond_atom_site_label_2
_geom_bond_site_symmetry_1
_geom_bond_site_symmetry_2
Si1 N1 1_555 1_555
N1 C3 1_555 1_555
N2 Si1 1_555 1_555
B1 H1 1_555 1_555
B2 B1 1_555 1_555
H2 B2 1_555 1_555
B3 B2 1_555 1_555
H3 B3 1_555 1_555
B4 B3 1_555 1_555
H4 B4 1_555 1_555
B5 B1 1_555 1_555
H5 B5 1_555 1_555
B6 B1 1_555 1_555
H6 B6 1_555 1_555
B7 B2 1_555 1_555
H7 B7 1_555 1_555
B8 B3 1_555 1_555
H8 B8 1_555 1_555
B9 B4 1_555 1_555
H9 B9 1_555 1_555
B10 B5 1_555 1_555
H10 B10 1_555 1_555
C1 Si1 1_555 1_555
C2 B1 1_555 1_555
H11 C2 1_555 1_555
C3 C4 1_555 1_555
C4 H12 1_555 1_555
H13 C4 1_555 1_555
H14 C4 1_555 1_555
C5 C3 1_555 1_555
H15 C5 1_555 1_555
H16 C5 1_555 1_555
H17 C5 1_555 1_555
C6 C3 1_555 1_555
H18 C6 1_555 1_555
H19 C6 1_555 1_555
H20 C6 1_555 1_555
C7 N1 1_555 1_555
C8 C7 1_555 1_555
C9 C8 1_555 1_555
H21 C9 1_555 1_555
C10 C9 1_555 1_555
H22 C10 1_555 1_555
C11 C10 1_555 1_555
H23 C11 1_555 1_555
C12 C11 1_555 1_555
H24 C12 1_555 1_555
C13 C8 1_555 1_555
H25 C13 1_555 1_555
C14 N2 1_555 1_555
C15 C14 1_555 1_555
H26 C15 1_555 1_555
H27 C15 1_555 1_555
H28 C15 1_555 1_555
C16 C14 1_555 1_555
H29 C16 1_555 1_555
H30 C16 1_555 1_555
H31 C16 1_555 1_555
C17 C14 1_555 1_555
H32 C17 1_555 1_555
H33 C17 1_555 1_555
H34 C17 1_555 1_555
N2 C7 1_555 1_555
B1 C1 1_555 1_555
B2 B6 1_555 1_555
B2 C1 1_555 1_555
B3 B7 1_555 1_555
B3 C1 1_555 1_555
B4 B8 1_555 1_555
B4 C1 1_555 1_555
B4 C2 1_555 1_555
B5 B6 1_555 1_555
B5 B9 1_555 1_555
B5 C2 1_555 1_555
B6 B7 1_555 1_555
B6 B10 1_555 1_555
B7 B8 1_555 1_555
B7 B10 1_555 1_555
B8 B9 1_555 1_555
B8 B10 1_555 1_555
B9 B10 1_555 1_555
B9 C2 1_555 1_555
C1 C2 1_555 1_555
C12 C13 1_555 1_555

#END
