
#######################################################################
#
#                 Cambridge Crystallographic Data Centre
#                                CCDC 
#
#######################################################################
#
# If this CIF has been generated from an entry in the Cambridge 
# Structural Database, then it will include bibliographic, chemical, 
# crystal, experimental, refinement or atomic coordinate data resulting 
# from the CCDC's data processing and validation procedures.
#
#######################################################################

data_PETVES
_chemical_formula_moiety         'C17 H34 B10 N2 S1 Si1'
_chemical_name_systematic        
(1,2-dicarba-closo-dodecaboranyl)(N,N'-di-t-butylbenzamidinato)(thioxo)silane
_symmetry_cell_setting           monoclinic
_symmetry_space_group_name_H-M   'P 21/c'
_symmetry_Int_Tables_number      14
_space_group_name_Hall           '-P 2ybc'
loop_
_symmetry_equiv_pos_site_id
_symmetry_equiv_pos_as_xyz
1 x,y,z
2 -x,1/2+y,1/2-z
3 -x,-y,-z
4 x,1/2-y,1/2+z
_cell_length_a                   14.832(5)
_cell_length_b                   11.769(4)
_cell_length_c                   13.932(4)
_cell_angle_alpha                90
_cell_angle_beta                 90.514(6)
_cell_angle_gamma                90
_cell_volume                     2431.84
_exptl_crystal_colour            colorless
_exptl_crystal_description       block
_cell_formula_units_Z            4
loop_
_atom_site_label
_atom_site_type_symbol
_atom_site_fract_x
_atom_site_fract_y
_atom_site_fract_z
S1 S 0.10926(4) 0.23936(6) 0.91252(6)
Si1 Si 0.19721(4) 0.36440(5) 0.91544(4)
N1 N 0.18588(13) 0.49099(16) 0.84181(13)
N2 N 0.19182(13) 0.48474(16) 0.99575(13)
B1 B 0.3702(2) 0.2935(3) 0.8047(2)
H1 H 0.3380 0.3143 0.7355
B2 B 0.41068(19) 0.3989(3) 0.8844(2)
H2 H 0.4057 0.4900 0.8674
B3 B 0.39697(19) 0.3474(3) 1.0024(2)
H3 H 0.3828 0.4052 1.0625
B4 B 0.34798(19) 0.2120(3) 0.9966(2)
H4 H 0.3013 0.1805 1.0514
B5 B 0.4382(2) 0.1710(3) 0.8190(3)
H5 H 0.4510 0.1125 0.7590
B6 B 0.4865(2) 0.3086(3) 0.8253(2)
H6 H 0.5316 0.3406 0.7692
B7 B 0.5036(2) 0.3413(3) 0.9481(2)
H7 H 0.5603 0.3947 0.9722
B8 B 0.4644(2) 0.2260(3) 1.0180(2)
H8 H 0.4950 0.2041 1.0878
B9 B 0.4241(2) 0.1205(3) 0.9376(3)
H9 H 0.4275 0.0292 0.9542
B10 B 0.5206(2) 0.2012(3) 0.9084(3)
H10 H 0.5883 0.1630 0.9068
C1 C 0.32026(15) 0.3167(2) 0.91381(16)
C2 C 0.33824(17) 0.1852(2) 0.8769(2)
H11 H 0.2810 0.1326 0.8529
C3 C 0.17359(18) 0.5221(2) 0.73864(16)
C4 C 0.1015(2) 0.6116(3) 0.7247(2)
H12 H 0.0956 0.6292 0.6576
H13 H 0.0450 0.5833 0.7480
H14 H 0.1179 0.6789 0.7595
C5 C 0.2631(2) 0.5648(3) 0.6990(2)
H15 H 0.2554 0.5849 0.6326
H16 H 0.2824 0.6303 0.7347
H17 H 0.3077 0.5060 0.7047
C6 C 0.1442(2) 0.4133(3) 0.68789(19)
H18 H 0.1353 0.4284 0.6208
H19 H 0.1901 0.3564 0.6959
H20 H 0.0889 0.3867 0.7151
C7 C 0.18470(14) 0.5555(2) 0.92058(16)
C8 C 0.18091(16) 0.6817(2) 0.92343(16)
C9 C 0.26086(19) 0.7404(2) 0.91368(19)
H21 H 0.3150 0.7014 0.9070
C10 C 0.2593(2) 0.8578(3) 0.9140(2)
H22 H 0.3128 0.8980 0.9067
C11 C 0.1801(3) 0.9154(3) 0.9251(2)
H23 H 0.1802 0.9944 0.9261
C12 C 0.1006(3) 0.8575(3) 0.9348(2)
H24 H 0.0468 0.8972 0.9417
C13 C 0.1004(2) 0.7400(2) 0.9342(2)
H25 H 0.0466 0.7004 0.9411
C14 C 0.17853(17) 0.5077(2) 1.09959(16)
C15 C 0.2471(2) 0.5931(3) 1.1372(2)
H26 H 0.2371 0.6064 1.2042
H27 H 0.3069 0.5637 1.1285
H28 H 0.2408 0.6633 1.1026
C16 C 0.0841(2) 0.5508(3) 1.1177(2)
H29 H 0.0769 0.5651 1.1851
H30 H 0.0744 0.6200 1.0825
H31 H 0.0411 0.4948 1.0971
C17 C 0.1893(2) 0.3939(3) 1.1505(2)
H32 H 0.1813 0.4042 1.2182
H33 H 0.1449 0.3416 1.1265
H34 H 0.2485 0.3643 1.1389
loop_
_geom_bond_atom_site_label_1
_geom_bond_atom_site_label_2
_geom_bond_site_symmetry_1
_geom_bond_site_symmetry_2
S1 Si1 1_555 1_555
Si1 N1 1_555 1_555
N1 C3 1_555 1_555
N2 Si1 1_555 1_555
B1 H1 1_555 1_555
B2 B1 1_555 1_555
H2 B2 1_555 1_555
B3 B2 1_555 1_555
H3 B3 1_555 1_555
B4 B3 1_555 1_555
H4 B4 1_555 1_555
B5 B1 1_555 1_555
H5 B5 1_555 1_555
B6 B1 1_555 1_555
H6 B6 1_555 1_555
B7 B2 1_555 1_555
H7 B7 1_555 1_555
B8 B3 1_555 1_555
H8 B8 1_555 1_555
B9 B4 1_555 1_555
H9 B9 1_555 1_555
B10 B5 1_555 1_555
H10 B10 1_555 1_555
C1 Si1 1_555 1_555
C2 B1 1_555 1_555
H11 C2 1_555 1_555
C3 C4 1_555 1_555
C4 H12 1_555 1_555
H13 C4 1_555 1_555
H14 C4 1_555 1_555
C5 C3 1_555 1_555
H15 C5 1_555 1_555
H16 C5 1_555 1_555
H17 C5 1_555 1_555
C6 C3 1_555 1_555
H18 C6 1_555 1_555
H19 C6 1_555 1_555
H20 C6 1_555 1_555
C7 N1 1_555 1_555
C8 C7 1_555 1_555
C9 C8 1_555 1_555
H21 C9 1_555 1_555
C10 C9 1_555 1_555
H22 C10 1_555 1_555
C11 C10 1_555 1_555
H23 C11 1_555 1_555
C12 C11 1_555 1_555
H24 C12 1_555 1_555
C13 C8 1_555 1_555
H25 C13 1_555 1_555
C14 N2 1_555 1_555
C15 C14 1_555 1_555
H26 C15 1_555 1_555
H27 C15 1_555 1_555
H28 C15 1_555 1_555
C16 C14 1_555 1_555
H29 C16 1_555 1_555
H30 C16 1_555 1_555
H31 C16 1_555 1_555
C17 C14 1_555 1_555
H32 C17 1_555 1_555
H33 C17 1_555 1_555
H34 C17 1_555 1_555
N2 C7 1_555 1_555
B1 C1 1_555 1_555
B2 B6 1_555 1_555
B2 C1 1_555 1_555
B3 B7 1_555 1_555
B3 C1 1_555 1_555
B4 B8 1_555 1_555
B4 C1 1_555 1_555
B4 C2 1_555 1_555
B5 B6 1_555 1_555
B5 B9 1_555 1_555
B5 C2 1_555 1_555
B6 B7 1_555 1_555
B6 B10 1_555 1_555
B7 B8 1_555 1_555
B7 B10 1_555 1_555
B8 B9 1_555 1_555
B8 B10 1_555 1_555
B9 B10 1_555 1_555
B9 C2 1_555 1_555
C1 C2 1_555 1_555
C12 C13 1_555 1_555

#END
