
#######################################################################
#
#                 Cambridge Crystallographic Data Centre
#                                CCDC 
#
#######################################################################
#
# If this CIF has been generated from an entry in the Cambridge 
# Structural Database, then it will include bibliographic, chemical, 
# crystal, experimental, refinement or atomic coordinate data resulting 
# from the CCDC's data processing and validation procedures.
#
#######################################################################

data_PETVIW
_chemical_formula_moiety         'C41 H52 B10 N4 O2 Si1'
_chemical_name_systematic        
"(1,2-dicarba-closo-dodecaboranyl)(N,N'-di-t-butylbenzamidinato)(1,2-diphenyl-1,2-bis(2-pyridyl)ethane-1,2-diolato)silane unknown solvate"
_symmetry_cell_setting           monoclinic
_symmetry_space_group_name_H-M   'C 2/c'
_symmetry_Int_Tables_number      15
_space_group_name_Hall           '-C 2yn'
loop_
_symmetry_equiv_pos_site_id
_symmetry_equiv_pos_as_xyz
1 x,y,z
2 -x,y,1/2-z
3 1/2+x,1/2+y,z
4 1/2-x,1/2+y,1/2-z
5 -x,-y,-z
6 x,-y,1/2+z
7 1/2-x,1/2-y,-z
8 1/2+x,1/2-y,1/2+z
_cell_length_a                   41.164(3)
_cell_length_b                   12.7299(9)
_cell_length_c                   19.7074(14)
_cell_angle_alpha                90
_cell_angle_beta                 110.6370(10)
_cell_angle_gamma                90
_cell_volume                     9664.29
_exptl_crystal_colour            colorless
_exptl_crystal_description       Block
_cell_formula_units_Z            8
loop_
_atom_site_label
_atom_site_type_symbol
_atom_site_fract_x
_atom_site_fract_y
_atom_site_fract_z
Si1 Si 0.110051(12) 0.85632(4) 0.18178(2)
N1 N 0.09165(4) 0.99255(11) 0.17311(8)
N2 N 0.14479(4) 0.95560(11) 0.23556(8)
N3 N 0.13209(4) 0.88874(11) 0.09869(8)
N4 N 0.08212(5) 0.52862(16) 0.12294(15)
O1 O 0.13437(3) 0.74653(9) 0.18708(6)
O2 O 0.07723(3) 0.80093(9) 0.11170(6)
B1 B 0.12885(6) 0.74898(19) 0.33740(12)
H1 H 0.1557 0.7404 0.3393
B2 B 0.11255(6) 0.86857(19) 0.35255(11)
H2 H 0.1289 0.9393 0.3650
B3 B 0.06844(7) 0.8746(2) 0.29947(13)
H3 H 0.0557 0.9491 0.2767
B4 B 0.05796(6) 0.7566(2) 0.25304(13)
H4 H 0.0381 0.7526 0.1984
B5 B 0.06292(8) 0.6538(2) 0.31433(15)
H5 H 0.0467 0.5828 0.3008
B6 B 0.04653(7) 0.7754(2) 0.32971(15)
H6 H 0.0195 0.7847 0.3267
B7 B 0.08089(7) 0.8454(2) 0.39256(13)
H7 H 0.0765 0.9009 0.4312
B8 B 0.11848(7) 0.7664(2) 0.41622(13)
H8 H 0.1387 0.7695 0.4705
B9 B 0.10710(8) 0.6473(2) 0.36744(15)
H9 H 0.1198 0.5721 0.3888
B10 B 0.07737(8) 0.7081(2) 0.40226(14)
H10 H 0.0707 0.6736 0.4469
C1 C 0.09741(5) 0.81327(14) 0.26784(9)
C2 C 0.09404(6) 0.68368(17) 0.27860(11)
H11 H 0.0985 0.6289 0.2396
C3 C 0.12198(4) 1.03313(14) 0.21644(9)
C4 C 0.12823(5) 1.14470(14) 0.24042(11)
C5 C 0.12698(6) 1.17322(16) 0.30691(11)
H12 H 0.1230 1.1222 0.3369
C6 C 0.13150(7) 1.27612(19) 0.32961(14)
H13 H 0.1305 1.2945 0.3745
C7 C 0.13753(8) 1.35152(19) 0.28553(18)
H14 H 0.1407 1.4211 0.3009
C8 C 0.13884(7) 1.32507(18) 0.21903(17)
H15 H 0.1428 1.3764 0.1893
C9 C 0.13425(6) 1.22237(16) 0.19696(13)
H16 H 0.1352 1.2044 0.1519
C10 C 0.05828(5) 1.04977(14) 0.13438(10)
C11 C 0.04983(5) 1.13391(16) 0.18145(12)
H17 H 0.0684 1.1841 0.1971
H18 H 0.0471 1.1013 0.2230
H19 H 0.0287 1.1690 0.1537
C12 C 0.06029(6) 1.10149(18) 0.06636(11)
H20 H 0.0656 1.0494 0.0366
H21 H 0.0781 1.1541 0.0798
H22 H 0.0384 1.1336 0.0398
C13 C 0.02843(5) 0.97172(16) 0.11108(11)
H23 H 0.0332 0.9180 0.0816
H24 H 0.0074 1.0075 0.0836
H25 H 0.0259 0.9403 0.1532
C14 C 0.18344(4) 0.96421(15) 0.27274(11)
C15 C 0.19344(6) 0.9807(2) 0.35389(13)
H26 H 0.1833 1.0448 0.3626
H27 H 0.2182 0.9850 0.3759
H28 H 0.1851 0.9228 0.3744
C16 C 0.19901(6) 1.0508(2) 0.24055(16)
H29 H 0.1927 1.0397 0.1893
H30 H 0.2238 1.0497 0.2630
H31 H 0.1903 1.1177 0.2490
C17 C 0.19992(6) 0.86225(18) 0.26159(16)
H32 H 0.1942 0.8500 0.2106
H33 H 0.1913 0.8053 0.2824
H34 H 0.2247 0.8669 0.2846
C18 C 0.13970(5) 0.97531(16) 0.06922(11)
H35 H 0.1331 1.0401 0.0819
C19 C 0.15692(6) 0.97270(18) 0.02078(11)
H36 H 0.1618 1.0343 0.0009
C20 C 0.16679(6) 0.87684(19) 0.00256(12)
H37 H 0.1795 0.8727 -0.0282
C21 C 0.15765(5) 0.78670(17) 0.03050(11)
H38 H 0.1632 0.7209 0.0171
C22 C 0.14024(4) 0.79537(14) 0.07853(9)
C23 C 0.12777(4) 0.70746(14) 0.11632(9)
C24 C 0.14888(5) 0.60770(14) 0.12055(10)
C25 C 0.17496(5) 0.58392(15) 0.18525(11)
H39 H 0.1774 0.6237 0.2263
C26 C 0.19771(6) 0.50100(18) 0.18974(14)
H40 H 0.2151 0.4857 0.2337
C27 C 0.19446(6) 0.44199(18) 0.12950(15)
H41 H 0.2099 0.3875 0.1322
C28 C 0.16847(6) 0.46364(19) 0.06580(15)
H42 H 0.1658 0.4225 0.0252
C29 C 0.14590(5) 0.54678(17) 0.06094(12)
H43 H 0.1285 0.5615 0.0168
C30 C 0.08608(4) 0.70883(13) 0.08038(9)
C31 C 0.07292(4) 0.72153(14) -0.00252(9)
C32 C 0.06682(5) 0.63384(15) -0.04737(11)
H44 H 0.0712 0.5672 -0.0268
C33 C 0.05447(6) 0.64392(17) -0.12140(11)
H45 H 0.0510 0.5844 -0.1504
C34 C 0.04713(6) 0.74163(19) -0.15293(11)
H46 H 0.0387 0.7482 -0.2031
C35 C 0.05229(6) 0.82942(17) -0.10991(11)
H47 H 0.0473 0.8957 -0.1309
C36 C 0.06639(5) 0.61714(14) 0.09752(10)
C37 C 0.06504(5) 0.81883(16) -0.03488(10)
H48 H 0.0683 0.8785 -0.0060
C38 C 0.03115(5) 0.62803(17) 0.08252(13)
H49 H 0.0203 0.6914 0.0645
C39 C 0.01232(6) 0.54710(19) 0.09378(15)
H50 H -0.0114 0.5546 0.0834
C40 C 0.02816(7) 0.4561(2) 0.12001(17)
H51 H 0.0159 0.3990 0.1281
C41 C 0.06276(8) 0.4509(2) 0.1341(2)
H52 H 0.0739 0.3884 0.1531
loop_
_geom_bond_atom_site_label_1
_geom_bond_atom_site_label_2
_geom_bond_site_symmetry_1
_geom_bond_site_symmetry_2
Si1 N1 1_555 1_555
N1 C3 1_555 1_555
N2 Si1 1_555 1_555
N3 Si1 1_555 1_555
N4 C36 1_555 1_555
O1 Si1 1_555 1_555
O2 Si1 1_555 1_555
B1 H1 1_555 1_555
B2 B1 1_555 1_555
H2 B2 1_555 1_555
B3 B2 1_555 1_555
H3 B3 1_555 1_555
B4 B3 1_555 1_555
H4 B4 1_555 1_555
B5 B4 1_555 1_555
H5 B5 1_555 1_555
B6 B3 1_555 1_555
H6 B6 1_555 1_555
B7 B2 1_555 1_555
H7 B7 1_555 1_555
B8 B1 1_555 1_555
H8 B8 1_555 1_555
B9 B1 1_555 1_555
H9 B9 1_555 1_555
B10 B5 1_555 1_555
H10 B10 1_555 1_555
C1 Si1 1_555 1_555
C2 B1 1_555 1_555
H11 C2 1_555 1_555
C3 N2 1_555 1_555
C4 C3 1_555 1_555
C5 C4 1_555 1_555
H12 C5 1_555 1_555
C6 C5 1_555 1_555
H13 C6 1_555 1_555
C7 C6 1_555 1_555
H14 C7 1_555 1_555
C8 C7 1_555 1_555
H15 C8 1_555 1_555
C9 C4 1_555 1_555
H16 C9 1_555 1_555
C10 N1 1_555 1_555
C11 C10 1_555 1_555
H17 C11 1_555 1_555
H18 C11 1_555 1_555
H19 C11 1_555 1_555
C12 C10 1_555 1_555
H20 C12 1_555 1_555
H21 C12 1_555 1_555
H22 C12 1_555 1_555
C13 C10 1_555 1_555
H23 C13 1_555 1_555
H24 C13 1_555 1_555
H25 C13 1_555 1_555
C14 N2 1_555 1_555
C15 C14 1_555 1_555
H26 C15 1_555 1_555
H27 C15 1_555 1_555
H28 C15 1_555 1_555
C16 C14 1_555 1_555
H29 C16 1_555 1_555
H30 C16 1_555 1_555
H31 C16 1_555 1_555
C17 C14 1_555 1_555
H32 C17 1_555 1_555
H33 C17 1_555 1_555
H34 C17 1_555 1_555
C18 N3 1_555 1_555
H35 C18 1_555 1_555
C19 C18 1_555 1_555
H36 C19 1_555 1_555
C20 C19 1_555 1_555
H37 C20 1_555 1_555
C21 C20 1_555 1_555
H38 C21 1_555 1_555
C22 N3 1_555 1_555
C23 O1 1_555 1_555
C24 C23 1_555 1_555
C25 C24 1_555 1_555
H39 C25 1_555 1_555
C26 C25 1_555 1_555
H40 C26 1_555 1_555
C27 C26 1_555 1_555
H41 C27 1_555 1_555
C28 C27 1_555 1_555
H42 C28 1_555 1_555
C29 C24 1_555 1_555
H43 C29 1_555 1_555
C30 O2 1_555 1_555
C31 C30 1_555 1_555
C32 C31 1_555 1_555
H44 C32 1_555 1_555
C33 C32 1_555 1_555
H45 C33 1_555 1_555
C34 C33 1_555 1_555
H46 C34 1_555 1_555
C35 C34 1_555 1_555
H47 C35 1_555 1_555
C36 C30 1_555 1_555
C37 C31 1_555 1_555
H48 C37 1_555 1_555
C38 C36 1_555 1_555
H49 C38 1_555 1_555
C39 C38 1_555 1_555
H50 C39 1_555 1_555
C40 C39 1_555 1_555
H51 C40 1_555 1_555
C41 N4 1_555 1_555
H52 C41 1_555 1_555
B1 C1 1_555 1_555
B2 B8 1_555 1_555
B2 C1 1_555 1_555
B3 B7 1_555 1_555
B3 C1 1_555 1_555
B4 B6 1_555 1_555
B4 C1 1_555 1_555
B4 C2 1_555 1_555
B5 B6 1_555 1_555
B5 B9 1_555 1_555
B5 C2 1_555 1_555
B6 B7 1_555 1_555
B6 B10 1_555 1_555
B7 B8 1_555 1_555
B7 B10 1_555 1_555
B8 B9 1_555 1_555
B8 B10 1_555 1_555
B9 B10 1_555 1_555
B9 C2 1_555 1_555
C1 C2 1_555 1_555
C8 C9 1_555 1_555
C21 C22 1_555 1_555
C22 C23 1_555 1_555
C23 C30 1_555 1_555
C28 C29 1_555 1_555
C35 C37 1_555 1_555
C40 C41 1_555 1_555

#END
