
#######################################################################
#
#                 Cambridge Crystallographic Data Centre
#                                CCDC 
#
#######################################################################
#
# If this CIF has been generated from an entry in the Cambridge 
# Structural Database, then it will include bibliographic, chemical, 
# crystal, experimental, refinement or atomic coordinate data resulting 
# from the CCDC's data processing and validation procedures.
#
#######################################################################

data_PEVBIE
_chemical_formula_moiety         'C36 H34 Cl1 N5 O2'
_chemical_name_systematic        
2-(7-chloro-1,8-naphthyridin-2-yl)-3',6'-bis(diethylamino)spiro[isoindole-1,9'-xanthen]-3(2H)-one
_symmetry_cell_setting           monoclinic
_symmetry_space_group_name_H-M   'P 21/c'
_symmetry_Int_Tables_number      14
_space_group_name_Hall           '-P 2ybc'
loop_
_symmetry_equiv_pos_site_id
_symmetry_equiv_pos_as_xyz
1 x,y,z
2 -x,1/2+y,1/2-z
3 -x,-y,-z
4 x,1/2-y,1/2+z
_cell_length_a                   12.8821(6)
_cell_length_b                   22.4259(10)
_cell_length_c                   12.3958(6)
_cell_angle_alpha                90
_cell_angle_beta                 117.425(2)
_cell_angle_gamma                90
_cell_volume                     3178.6
_cell_formula_units_Z            4
loop_
_atom_site_label
_atom_site_type_symbol
_atom_site_fract_x
_atom_site_fract_y
_atom_site_fract_z
Cl1 Cl 0.95175(7) 0.78816(4) 0.87838(8)
O1 O 0.63618(13) 0.61298(7) 0.61954(15)
N1 N 0.64186(15) 0.65835(8) 0.86689(15)
N2 N 0.50515(15) 0.58852(7) 0.85089(15)
O2 O 0.41185(17) 0.56770(9) 0.96966(16)
N3 N 0.78526(16) 0.72300(8) 0.87848(17)
C1 C 0.45547(17) 0.60671(9) 0.63340(17)
C2 C 0.71437(18) 0.70402(9) 0.92623(18)
C3 C 0.52103(18) 0.62810(9) 0.57982(19)
C4 C 0.62360(18) 0.54173(9) 0.75907(18)
C5 C 0.50444(17) 0.56293(8) 0.73703(17)
C6 C 0.57495(18) 0.63695(9) 0.91204(17)
C7 C 0.38234(18) 0.50782(10) 0.7983(2)
C8 C 0.68150(19) 0.56699(9) 0.7008(2)
N4 N 0.3158(2) 0.72197(12) 0.3310(2)
C9 C 0.42265(18) 0.51075(9) 0.7134(2)
C10 C 0.7187(2) 0.73020(9) 1.03196(19)
C11 C 0.43157(18) 0.55675(10) 0.88521(19)
C12 C 0.4758(2) 0.66563(10) 0.4808(2)
H1 H 0.523227 0.678196 0.446921
C13 C 0.34006(19) 0.62594(10) 0.58240(19)
H2 H 0.292530 0.612054 0.615106
C14 C 0.3604(2) 0.68505(10) 0.4306(2)
C15 C 0.7972(2) 0.77712(11) 1.0877(2)
H3 H 0.800252 0.795813 1.156124
C16 C 0.8582(2) 0.76559(11) 0.9371(2)
C17 C 0.5727(2) 0.66063(11) 1.0180(2)
H4 H 0.523485 0.644537 1.046590
C18 C 0.2933(2) 0.66451(11) 0.4860(2)
H5 H 0.216390 0.677248 0.456793
C19 C 0.6791(2) 0.49416(10) 0.8362(2)
H6 H 0.642709 0.476005 0.877307
C20 C 0.3081(2) 0.46248(12) 0.7963(2)
H7 H 0.281593 0.460484 0.854474
C21 C 0.3901(2) 0.46874(11) 0.6225(2)
H8 H 0.417299 0.470523 0.564880
C22 C 0.6435(2) 0.70682(11) 1.0753(2)
H9 H 0.642750 0.723321 1.143731
C23 C 0.7889(2) 0.54695(12) 0.7175(3)
H10 H 0.825044 0.565539 0.676671
C24 C 0.8686(2) 0.79491(11) 1.0408(2)
H11 H 0.922515 0.825502 1.076339
C25 C 0.2754(2) 0.42081(12) 0.7058(3)
H12 H 0.225278 0.390063 0.701797
C26 C 0.3157(3) 0.42388(12) 0.6202(3)
H13 H 0.292231 0.395035 0.559621
C27 C 0.7856(2) 0.47317(12) 0.8537(3)
H14 H 0.819675 0.441058 0.905560
C28 C 0.8436(3) 0.49960(13) 0.7941(3)
N5 N 0.9518(3) 0.47982(16) 0.8115(4)
C29 C 0.3831(3) 0.73621(14) 0.2674(3)
H15 H 0.463097 0.744712 0.326668
H16 H 0.351145 0.771964 0.219386
C30 C 0.1989(3) 0.74763(16) 0.2822(3)
H17 H 0.166851 0.750959 0.194616
H18 H 0.149251 0.720565 0.298746
C31 C 0.3834(5) 0.6873(2) 0.1857(4)
H19 H 0.421777 0.652834 0.233495
H20 H 0.424292 0.700278 0.141846
H21 H 0.304321 0.677206 0.129199
C32 C 0.1951(5) 0.8057(2) 0.3311(6)
H22 H 0.212028 0.801616 0.414722
H23 H 0.118597 0.822592 0.285583
H24 H 0.252134 0.831277 0.325541
C33 C 1.0154(5) 0.5110(4) 0.7577(7)
H25 H 1.008148 0.553308 0.769109
H26 H 1.097338 0.500969 0.805696
C34 C 1.0262(5) 0.4305(4) 0.9156(6)
H27 H 1.109987 0.433771 0.944845
H28 H 1.007751 0.430598 0.983112
C35 C 0.9794(7) 0.3855(4) 0.8411(8)
H29 H 0.897226 0.383646 0.817286
H30 H 1.016114 0.349049 0.881243
H31 H 0.990647 0.390774 0.770341
C36 C 0.9912(10) 0.5038(7) 0.6490(12)
H32 H 1.011939 0.464009 0.637529
H33 H 1.034253 0.531973 0.626945
H34 H 0.908933 0.509768 0.598851
loop_
_geom_bond_atom_site_label_1
_geom_bond_atom_site_label_2
_geom_bond_site_symmetry_1
_geom_bond_site_symmetry_2
Cl1 C16 1_555 1_555
O1 C3 1_555 1_555
N1 C2 1_555 1_555
N2 C5 1_555 1_555
O2 C11 1_555 1_555
N3 C2 1_555 1_555
C1 C3 1_555 1_555
C2 C10 1_555 1_555
C3 C12 1_555 1_555
C4 C5 1_555 1_555
C5 C1 1_555 1_555
C6 N1 1_555 1_555
C7 C9 1_555 1_555
C8 O1 1_555 1_555
N4 C14 1_555 1_555
C9 C5 1_555 1_555
C10 C15 1_555 1_555
C11 N2 1_555 1_555
C12 H1 1_555 1_555
C13 C1 1_555 1_555
H2 C13 1_555 1_555
C14 C12 1_555 1_555
C15 H3 1_555 1_555
C16 N3 1_555 1_555
C17 C6 1_555 1_555
H4 C17 1_555 1_555
C18 C13 1_555 1_555
H5 C18 1_555 1_555
C19 C4 1_555 1_555
H6 C19 1_555 1_555
C20 C7 1_555 1_555
H7 C20 1_555 1_555
C21 C9 1_555 1_555
H8 C21 1_555 1_555
C22 C10 1_555 1_555
H9 C22 1_555 1_555
C23 C8 1_555 1_555
H10 C23 1_555 1_555
C24 C15 1_555 1_555
H11 C24 1_555 1_555
C25 C20 1_555 1_555
H12 C25 1_555 1_555
C26 C21 1_555 1_555
H13 C26 1_555 1_555
C27 C19 1_555 1_555
H14 C27 1_555 1_555
C28 C23 1_555 1_555
N5 C28 1_555 1_555
C29 N4 1_555 1_555
H15 C29 1_555 1_555
H16 C29 1_555 1_555
C30 N4 1_555 1_555
H17 C30 1_555 1_555
H18 C30 1_555 1_555
C31 C29 1_555 1_555
H19 C31 1_555 1_555
H20 C31 1_555 1_555
H21 C31 1_555 1_555
C32 C30 1_555 1_555
H22 C32 1_555 1_555
H23 C32 1_555 1_555
H24 C32 1_555 1_555
C33 N5 1_555 1_555
H25 C33 1_555 1_555
H26 C33 1_555 1_555
C34 N5 1_555 1_555
H27 C34 1_555 1_555
H28 C34 1_555 1_555
C35 C34 1_555 1_555
H29 C35 1_555 1_555
H30 C35 1_555 1_555
H31 C35 1_555 1_555
C36 C33 1_555 1_555
H32 C36 1_555 1_555
H33 C36 1_555 1_555
H34 C36 1_555 1_555
N2 C6 1_555 1_555
C4 C8 1_555 1_555
C7 C11 1_555 1_555
C14 C18 1_555 1_555
C16 C24 1_555 1_555
C17 C22 1_555 1_555
C25 C26 1_555 1_555
C27 C28 1_555 1_555

#END
