
#######################################################################
#
#                 Cambridge Crystallographic Data Centre
#                                CCDC 
#
#######################################################################
#
# If this CIF has been generated from an entry in the Cambridge 
# Structural Database, then it will include bibliographic, chemical, 
# crystal, experimental, refinement or atomic coordinate data resulting 
# from the CCDC's data processing and validation procedures.
#
#######################################################################

data_PEVCEA
_chemical_formula_moiety         'C30 H41 F1 N2 O3 S1'
_chemical_name_systematic        
'Ethyl 15-((2-fluorophenyl)carbamothioyl)-5,9,13-trimethyl-16-oxa-15-azapentacyclo[11.5.1.0^1,10^.0^4,9^.0^14,18^]nonadecane-5-carboxylate'
_symmetry_cell_setting           orthorhombic
_symmetry_space_group_name_H-M   'P 21 21 21'
_symmetry_Int_Tables_number      19
_space_group_name_Hall           'P 2ac 2ab'
loop_
_symmetry_equiv_pos_site_id
_symmetry_equiv_pos_as_xyz
1 x,y,z
2 1/2-x,-y,1/2+z
3 1/2+x,1/2-y,-z
4 -x,1/2+y,1/2-z
_cell_length_a                   10.2433(5)
_cell_length_b                   11.7925(5)
_cell_length_c                   23.9087(11)
_cell_angle_alpha                90
_cell_angle_beta                 90
_cell_angle_gamma                90
_cell_volume                     2888.03
_cell_formula_units_Z            4
loop_
_atom_site_label
_atom_site_type_symbol
_atom_site_fract_x
_atom_site_fract_y
_atom_site_fract_z
S1 S 0.19339(7) 0.43791(9) 0.37916(3)
F1 F 0.1506(4) 0.6431(3) 0.52641(17)
O1 O 0.9313(3) 0.9241(2) 0.42509(9)
O2 O 1.0463(4) 1.0140(3) 0.36018(15)
O3 O 0.5207(2) 0.4833(2) 0.46208(8)
N1 N 0.4358(2) 0.4604(2) 0.41600(10)
N2 N 0.2803(3) 0.4613(3) 0.48402(11)
H1 H 0.341(5) 0.477(4) 0.5041(17)
C1 C 0.8877(4) 0.7483(3) 0.25334(12)
H2 H 0.9356 0.6822 0.2407
H3 H 0.8155 0.7601 0.2278
C2 C 0.9775(4) 0.8512(3) 0.25104(15)
H4 H 1.0123 0.8595 0.2135
H5 H 0.9283 0.9191 0.2600
C3 C 1.0880(4) 0.8373(3) 0.29203(15)
H6 H 1.1419 0.9049 0.2907
H7 H 1.1416 0.7740 0.2801
C4 C 1.0456(3) 0.8167(3) 0.35373(15)
C5 C 0.9472(3) 0.7151(2) 0.35434(13)
H8 H 0.9985 0.6509 0.3404
C6 C 0.9008(3) 0.6763(3) 0.41191(12)
H9 H 0.9739 0.6751 0.4377
H10 H 0.8363 0.7292 0.4262
C7 C 0.8412(3) 0.5584(3) 0.40795(12)
H11 H 0.8112 0.5356 0.4448
H12 H 0.9083 0.5053 0.3964
C8 C 0.7270(2) 0.5507(2) 0.36703(11)
C9 C 0.7655(3) 0.6045(2) 0.31037(11)
H13 H 0.8315 0.5536 0.2945
C10 C 0.8323(3) 0.7242(3) 0.31265(11)
C11 C 0.6477(3) 0.5983(3) 0.26962(12)
H14 H 0.5839 0.6549 0.2804
H15 H 0.6775 0.6166 0.2322
C12 C 0.5822(3) 0.4822(3) 0.26873(13)
H16 H 0.6348 0.4311 0.2463
H17 H 0.4977 0.4893 0.2507
C13 C 0.5627(3) 0.4296(3) 0.32685(12)
C14 C 0.6934(3) 0.4258(2) 0.35582(12)
H18 H 0.7588 0.3908 0.3321
H19 H 0.6879 0.3836 0.3906
C15 C 0.5927(3) 0.5992(2) 0.38786(11)
H20 H 0.5774 0.6754 0.3729
C16 C 0.5670(3) 0.5958(3) 0.45042(13)
H21 H 0.6466 0.6112 0.4711
H22 H 0.5019 0.6517 0.4607
C17 C 0.4877(3) 0.5131(2) 0.36526(11)
H23 H 0.4188 0.5526 0.3445
C18 C 0.4972(4) 0.3130(3) 0.32145(16)
H24 H 0.4137 0.3215 0.3038
H25 H 0.4858 0.2806 0.3579
H26 H 0.5513 0.2640 0.2992
C19 C 1.1673(4) 0.7855(4) 0.3874(2)
H27 H 1.1996 0.7133 0.3751
H28 H 1.1455 0.7815 0.4264
H29 H 1.2333 0.8422 0.3818
C20 C 0.9927(4) 0.9217(3) 0.38209(14)
C21 C 0.7393(3) 0.8206(3) 0.32779(13)
H30 H 0.7818 0.8920 0.3215
H31 H 0.7151 0.8144 0.3665
H32 H 0.6625 0.8159 0.3049
C22 C 1.0184(8) 1.1201(4) 0.3890(3)
H33 H 1.0822 1.1769 0.3785
H34 H 1.0241 1.1087 0.4292
C23 C 0.8831(11) 1.1604(8) 0.3738(3)
H35 H 0.8752 1.1644 0.3338
H36 H 0.8686 1.2342 0.3896
H37 H 0.8196 1.1083 0.3883
C24 C 0.3054(3) 0.4563(2) 0.42869(12)
C25 C 0.1537(3) 0.4509(3) 0.50733(12)
C26 C 0.0940(3) 0.5429(4) 0.53028(15)
C27 C -0.0260(4) 0.5357(5) 0.55642(18)
H38 H -0.0632 0.5994 0.5729
C28 C -0.0882(4) 0.4356(6) 0.5577(2)
H39 H -0.1699 0.4306 0.5744
C29 C -0.0319(5) 0.3388(5) 0.5341(2)
H40 H -0.0757 0.2697 0.5349
C30 C 0.0906(4) 0.3472(4) 0.50933(19)
F2? F 0.1477(9) 0.2638(7) 0.4884(4)
O4? O 0.9576(13) 1.0199(8) 0.3425(5)
C31? C 0.888(3) 1.1202(14) 0.3610(11)
H41? H 0.8087 1.0968 0.3798
H42? H 0.8631 1.1642 0.3284
C32? C 0.964(3) 1.194(2) 0.3994(10)
H43? H 1.0016 1.2560 0.3786
H44? H 1.0327 1.1511 0.4166
H45? H 0.9074 1.2240 0.4278
loop_
_geom_bond_atom_site_label_1
_geom_bond_atom_site_label_2
_geom_bond_site_symmetry_1
_geom_bond_site_symmetry_2
S1 C24 1_555 1_555
F1 C26 1_555 1_555
O1 C20 1_555 1_555
O2 C20 1_555 1_555
O3 N1 1_555 1_555
N1 C17 1_555 1_555
N2 H1 1_555 1_555
C1 H2 1_555 1_555
H3 C1 1_555 1_555
C2 C1 1_555 1_555
H4 C2 1_555 1_555
H5 C2 1_555 1_555
C3 C2 1_555 1_555
H6 C3 1_555 1_555
H7 C3 1_555 1_555
C4 C3 1_555 1_555
C5 C4 1_555 1_555
H8 C5 1_555 1_555
C6 C5 1_555 1_555
H9 C6 1_555 1_555
H10 C6 1_555 1_555
C7 C6 1_555 1_555
H11 C7 1_555 1_555
H12 C7 1_555 1_555
C8 C7 1_555 1_555
C9 C8 1_555 1_555
H13 C9 1_555 1_555
C10 C1 1_555 1_555
C11 C9 1_555 1_555
H14 C11 1_555 1_555
H15 C11 1_555 1_555
C12 C11 1_555 1_555
H16 C12 1_555 1_555
H17 C12 1_555 1_555
C13 C12 1_555 1_555
C14 C8 1_555 1_555
H18 C14 1_555 1_555
H19 C14 1_555 1_555
C15 C8 1_555 1_555
H20 C15 1_555 1_555
C16 O3 1_555 1_555
H21 C16 1_555 1_555
H22 C16 1_555 1_555
C17 C13 1_555 1_555
H23 C17 1_555 1_555
C18 C13 1_555 1_555
H24 C18 1_555 1_555
H25 C18 1_555 1_555
H26 C18 1_555 1_555
C19 C4 1_555 1_555
H27 C19 1_555 1_555
H28 C19 1_555 1_555
H29 C19 1_555 1_555
C20 C4 1_555 1_555
C21 C10 1_555 1_555
H30 C21 1_555 1_555
H31 C21 1_555 1_555
H32 C21 1_555 1_555
C22 O2 1_555 1_555
H33 C22 1_555 1_555
H34 C22 1_555 1_555
C23 C22 1_555 1_555
H35 C23 1_555 1_555
H36 C23 1_555 1_555
H37 C23 1_555 1_555
C24 N1 1_555 1_555
C25 N2 1_555 1_555
C26 C25 1_555 1_555
C27 C26 1_555 1_555
H38 C27 1_555 1_555
C28 C27 1_555 1_555
H39 C28 1_555 1_555
C29 C28 1_555 1_555
H40 C29 1_555 1_555
C30 C25 1_555 1_555
N2 C24 1_555 1_555
C5 C10 1_555 1_555
C9 C10 1_555 1_555
C13 C14 1_555 1_555
C15 C16 1_555 1_555
C15 C17 1_555 1_555
C29 C30 1_555 1_555

#END
