
#######################################################################
#
#                 Cambridge Crystallographic Data Centre
#                                CCDC 
#
#######################################################################
#
# If this CIF has been generated from an entry in the Cambridge 
# Structural Database, then it will include bibliographic, chemical, 
# crystal, experimental, refinement or atomic coordinate data resulting 
# from the CCDC's data processing and validation procedures.
#
#######################################################################

data_PEVCIE
_chemical_formula_moiety         'C30 H38 F1 N3 O2 S1'
_chemical_name_systematic        
'Ethyl 16-((3-fluorophenyl)carbamothioyl)-5,9,13-trimethyl-15,16-diazapentacyclo[11.5.1.0^1,10^.0^4,9^.0^14,18^]nonadeca-14,17-diene-5-carboxylate'
_symmetry_cell_setting           orthorhombic
_symmetry_space_group_name_H-M   'P 21 21 21'
_symmetry_Int_Tables_number      19
_space_group_name_Hall           'P 2ac 2ab'
loop_
_symmetry_equiv_pos_site_id
_symmetry_equiv_pos_as_xyz
1 x,y,z
2 1/2-x,-y,1/2+z
3 1/2+x,1/2-y,-z
4 -x,1/2+y,1/2-z
_cell_length_a                   12.8160(2)
_cell_length_b                   13.2608(3)
_cell_length_c                   16.3731(4)
_cell_angle_alpha                90
_cell_angle_beta                 90
_cell_angle_gamma                90
_cell_volume                     2782.62
_cell_formula_units_Z            4
loop_
_atom_site_label
_atom_site_type_symbol
_atom_site_fract_x
_atom_site_fract_y
_atom_site_fract_z
S1 S 0.54568(4) 0.48644(4) 0.59430(3)
F1 F 0.86858(13) 0.38457(15) 0.43855(17)
O1 O 0.13034(14) 0.75807(14) 0.85634(9)
O2 O 0.26740(12) 0.78417(12) 0.77587(8)
N1 N 0.32822(12) 0.49455(12) 0.42307(9)
N2 N 0.38653(12) 0.51446(13) 0.49278(9)
N3 N 0.49791(13) 0.38693(14) 0.45745(11)
C1 C -0.03739(15) 0.70557(18) 0.64387(12)
H1 H -0.0758 0.7499 0.6076
H2 H -0.0642 0.6378 0.6365
C2 C -0.05638(16) 0.73864(19) 0.73258(13)
H3 H -0.1308 0.7395 0.7435
H4 H -0.0243 0.6905 0.7694
C3 C -0.01175(18) 0.84161(19) 0.74781(14)
H5 H -0.0234 0.8595 0.8045
H6 H -0.0487 0.8901 0.7143
C4 C 0.10563(17) 0.84924(15) 0.72934(12)
C5 C 0.12354(15) 0.81404(14) 0.63911(10)
H7 H 0.0804 0.8598 0.6065
C6 C 0.23381(15) 0.82828(14) 0.60527(11)
H8 H 0.2605 0.8938 0.6213
H9 H 0.2797 0.7769 0.6274
C7 C 0.23115(16) 0.82055(14) 0.51239(11)
H10 H 0.1867 0.8733 0.4907
H11 H 0.3009 0.8308 0.4910
C8 C 0.19081(14) 0.71893(14) 0.48424(10)
C9 C 0.08469(14) 0.69104(14) 0.52449(11)
H12 H 0.0334 0.7376 0.5011
C10 C 0.07924(13) 0.70738(14) 0.61985(11)
C11 C 0.05051(15) 0.58476(16) 0.49702(13)
H13 H 0.0902 0.5354 0.5278
H14 H -0.0224 0.5758 0.5111
C12 C 0.06394(15) 0.56237(17) 0.40572(13)
H15 H 0.0071 0.5938 0.3759
H16 H 0.0590 0.4901 0.3973
C13 C 0.16899(15) 0.60024(16) 0.36997(12)
C14 C 0.17379(15) 0.71441(15) 0.38979(11)
H17 H 0.1092 0.7476 0.3746
H18 H 0.2312 0.7464 0.3611
C15 C 0.26840(14) 0.63322(14) 0.49149(10)
C16 C 0.35123(13) 0.59857(14) 0.53436(11)
H19 H 0.3788 0.6258 0.5821
C17 C 0.25789(14) 0.56626(14) 0.42444(11)
C18 C 0.18167(19) 0.5738(2) 0.27984(13)
H20 H 0.1813 0.5019 0.2734
H21 H 0.2466 0.6005 0.2601
H22 H 0.1251 0.6025 0.2492
C19 C 0.1391(3) 0.96056(17) 0.73984(15)
H23 H 0.1053 1.0012 0.6991
H24 H 0.2134 0.9659 0.7337
H25 H 0.1194 0.9837 0.7932
C20 C 0.16671(16) 0.79103(15) 0.79399(11)
C21 C 0.13649(15) 0.62314(15) 0.66697(11)
H26 H 0.1292 0.6343 0.7246
H27 H 0.2091 0.6237 0.6527
H28 H 0.1068 0.5590 0.6530
C22 C 0.33337(19) 0.7333(2) 0.83467(14)
H29 H 0.3041 0.6681 0.8488
H30 H 0.3394 0.7732 0.8841
C23 C 0.4378(2) 0.7204(3) 0.7958(2)
H31 H 0.4851 0.6906 0.8343
H32 H 0.4640 0.7850 0.7791
H33 H 0.4315 0.6773 0.7489
C24 C 0.47684(14) 0.45945(14) 0.51094(11)
C25 C 0.59425(15) 0.33309(15) 0.45373(10)
C26 C 0.68698(17) 0.38604(16) 0.44978(14)
H34 H 0.6876 0.4561 0.4528
C27 C 0.77814(17) 0.3327(2) 0.44128(16)
C28 C 0.78141(18) 0.2298(2) 0.43464(15)
H35 H 0.8443 0.1959 0.4276
C29 C 0.68871(19) 0.17845(17) 0.43868(15)
H36 H 0.6888 0.1085 0.4344
C30 C 0.59407(17) 0.22909(16) 0.44913(12)
H37 H 0.5319 0.1933 0.4529
H38 H 0.452(2) 0.371(2) 0.4267(17)
loop_
_geom_bond_atom_site_label_1
_geom_bond_atom_site_label_2
_geom_bond_site_symmetry_1
_geom_bond_site_symmetry_2
S1 C24 1_555 1_555
F1 C27 1_555 1_555
O1 C20 1_555 1_555
O2 C20 1_555 1_555
N1 N2 1_555 1_555
N2 C16 1_555 1_555
N3 C24 1_555 1_555
C1 H1 1_555 1_555
H2 C1 1_555 1_555
C2 C1 1_555 1_555
H3 C2 1_555 1_555
H4 C2 1_555 1_555
C3 C2 1_555 1_555
H5 C3 1_555 1_555
H6 C3 1_555 1_555
C4 C3 1_555 1_555
C5 C4 1_555 1_555
H7 C5 1_555 1_555
C6 C5 1_555 1_555
H8 C6 1_555 1_555
H9 C6 1_555 1_555
C7 C6 1_555 1_555
H10 C7 1_555 1_555
H11 C7 1_555 1_555
C8 C7 1_555 1_555
C9 C8 1_555 1_555
H12 C9 1_555 1_555
C10 C1 1_555 1_555
C11 C9 1_555 1_555
H13 C11 1_555 1_555
H14 C11 1_555 1_555
C12 C11 1_555 1_555
H15 C12 1_555 1_555
H16 C12 1_555 1_555
C13 C12 1_555 1_555
C14 C8 1_555 1_555
H17 C14 1_555 1_555
H18 C14 1_555 1_555
C15 C8 1_555 1_555
C16 C15 1_555 1_555
H19 C16 1_555 1_555
C17 N1 1_555 1_555
C18 C13 1_555 1_555
H20 C18 1_555 1_555
H21 C18 1_555 1_555
H22 C18 1_555 1_555
C19 C4 1_555 1_555
H23 C19 1_555 1_555
H24 C19 1_555 1_555
H25 C19 1_555 1_555
C20 C4 1_555 1_555
C21 C10 1_555 1_555
H26 C21 1_555 1_555
H27 C21 1_555 1_555
H28 C21 1_555 1_555
C22 O2 1_555 1_555
H29 C22 1_555 1_555
H30 C22 1_555 1_555
C23 C22 1_555 1_555
H31 C23 1_555 1_555
H32 C23 1_555 1_555
H33 C23 1_555 1_555
C24 N2 1_555 1_555
C25 N3 1_555 1_555
C26 C25 1_555 1_555
H34 C26 1_555 1_555
C27 C26 1_555 1_555
C28 C27 1_555 1_555
H35 C28 1_555 1_555
C29 C28 1_555 1_555
H36 C29 1_555 1_555
C30 C25 1_555 1_555
H37 C30 1_555 1_555
H38 N3 1_555 1_555
C5 C10 1_555 1_555
C9 C10 1_555 1_555
C13 C14 1_555 1_555
C13 C17 1_555 1_555
C15 C17 1_555 1_555
C29 C30 1_555 1_555

#END
