
#######################################################################
#
#                 Cambridge Crystallographic Data Centre
#                                CCDC 
#
#######################################################################
#
# If this CIF has been generated from an entry in the Cambridge 
# Structural Database, then it will include bibliographic, chemical, 
# crystal, experimental, refinement or atomic coordinate data resulting 
# from the CCDC's data processing and validation procedures.
#
#######################################################################

data_PEVFII
_chemical_formula_moiety         'C91 H61 Cl1 N4'
_chemical_name_systematic        
'2-chloro-5,10,15-tris(2,4,6-triphenylphenyl)-corrole unknown solvate'
_symmetry_cell_setting           triclinic
_symmetry_space_group_name_H-M   'P -1'
_symmetry_Int_Tables_number      2
_space_group_name_Hall           '-P 1'
loop_
_symmetry_equiv_pos_site_id
_symmetry_equiv_pos_as_xyz
1 x,y,z
2 -x,-y,-z
_cell_length_a                   14.0088(2)
_cell_length_b                   15.7382(4)
_cell_length_c                   21.3633(4)
_cell_angle_alpha                95.995(2)
_cell_angle_beta                 104.076(2)
_cell_angle_gamma                108.830(2)
_cell_volume                     4237.38
_exptl_crystal_colour            red
_exptl_crystal_description       plate
_cell_formula_units_Z            2
loop_
_atom_site_label
_atom_site_type_symbol
_atom_site_fract_x
_atom_site_fract_y
_atom_site_fract_z
N1 N 0.26211(13) 0.36488(11) 0.61032(8)
N2 N 0.43788(13) 0.46134(12) 0.73033(7)
N3 N 0.20240(13) 0.23220(12) 0.67581(7)
H1 H 0.256628 0.276280 0.674002
N4 N 0.35529(13) 0.31935(12) 0.77949(8)
C1 C 0.31363(13) 0.43961(12) 0.58777(8)
C2 C 0.43578(14) 0.59414(12) 0.59196(8)
C3 C 0.40232(14) 0.51661(12) 0.62622(8)
C4 C 0.53381(14) 0.62080(12) 0.57864(8)
C5 C 0.17716(14) 0.34428(13) 0.50288(8)
H2 H 0.128829 0.318867 0.461331
C6 C 0.61746(14) 0.58406(13) 0.60534(8)
C7 C 0.45779(14) 0.52614(13) 0.69267(9)
C8 C 0.55557(14) 0.68616(12) 0.53912(9)
H3 H 0.620620 0.704191 0.530805
C9 C 0.17655(14) 0.30560(12) 0.55960(8)
C10 C 0.59884(15) 0.49075(13) 0.59993(9)
H4 H 0.531177 0.448316 0.579365
C11 C 0.48256(15) 0.72481(12) 0.51198(9)
C12 C 0.10054(14) 0.22499(12) 0.56641(8)
C13 C 0.11166(14) 0.19180(12) 0.62491(8)
C14 C 0.26061(14) 0.42518(13) 0.51937(8)
H5 H 0.279629 0.464121 0.490997
C15 C 0.50171(14) 0.78643(13) 0.46482(9)
C16 C 0.00287(14) 0.18039(12) 0.50905(9)
C17 C 0.36521(14) 0.63862(13) 0.56925(9)
C18 C 0.71997(15) 0.64595(14) 0.63652(9)
H6 H 0.733872 0.708513 0.640614
C19 C -0.09101(15) 0.19322(13) 0.51113(9)
C20 C 0.38867(15) 0.70159(13) 0.52907(9)
H7 H 0.340477 0.729014 0.513136
C21 C 0.04370(16) 0.12073(13) 0.64744(9)
H8 H -0.023746 0.080628 0.623531
C22 C 0.00567(15) 0.13086(13) 0.45103(9)
C23 C 0.51035(15) 0.49296(14) 0.79183(9)
C24 C 0.46926(16) 0.86125(14) 0.46558(10)
H9 H 0.437259 0.873767 0.496962
C25 C 0.26567(16) 0.62241(14) 0.58817(11)
C26 C 0.19662(16) 0.19492(14) 0.72863(9)
C27 C -0.10238(15) 0.24236(14) 0.57090(9)
C28 C 0.43310(16) 0.35848(15) 0.83770(9)
C29 C -0.08336(15) 0.09825(13) 0.39629(9)
H10 H -0.080756 0.065717 0.358206
C30 C 0.09989(15) 0.11068(13) 0.44449(9)
C31 C 0.54699(15) 0.60343(14) 0.73275(9)
H11 H 0.577156 0.658278 0.720132
C32 C 0.28535(16) 0.24073(14) 0.78613(9)
C33 C 0.68047(16) 0.46070(15) 0.62499(10)
H12 H 0.667261 0.398244 0.620951
C34 C 0.59959(15) 0.48672(15) 0.90613(9)
C35 C 0.57967(16) 0.58246(15) 0.79239(9)
H13 H 0.637164 0.619886 0.827461
C36 C -0.17584(16) 0.11270(14) 0.39668(9)
C37 C 0.61122(16) 0.56860(15) 0.94609(9)
C38 C 0.80107(16) 0.61559(16) 0.66136(10)
H14 H 0.869025 0.657591 0.681769
C39 C 0.41275(16) 0.30110(15) 0.88391(9)
H15 H 0.453500 0.310680 0.927270
C40 C 0.09675(16) 0.12277(13) 0.71111(10)
H16 H 0.071664 0.083731 0.738047
C41 C -0.17834(15) 0.15864(14) 0.45510(10)
H17 H -0.240611 0.166647 0.456938
C42 C 0.54979(17) 0.76959(14) 0.41735(10)
H18 H 0.572890 0.720446 0.416306
C43 C 0.32057(17) 0.22855(15) 0.85149(10)
C44 C 0.51042(15) 0.44431(15) 0.84376(9)
C45 C 0.48399(17) 0.91724(15) 0.42024(11)
H19 H 0.462409 0.967248 0.421620
C46 C 0.78112(17) 0.52280(16) 0.65587(11)
H20 H 0.835443 0.502274 0.672956
C47 C 0.70120(16) 0.60976(16) 1.00024(9)
H21 H 0.709490 0.664133 1.026531
C48 C -0.26691(17) 0.08201(15) 0.33605(10)
C49 C -0.03348(16) 0.32990(14) 0.60430(10)
H22 H 0.024082 0.359420 0.590091
C50 C 0.56346(19) 0.82539(16) 0.37172(11)
H23 H 0.594983 0.813125 0.340001
C51 C 0.67564(17) 0.44622(17) 0.92253(10)
C52 C 0.13106(17) 0.12306(14) 0.38795(10)
H24 H 0.096453 0.148565 0.356746
C53 C 0.53312(17) 0.61443(16) 0.93186(9)
C54 C -0.18816(16) 0.20075(15) 0.59325(10)
H25 H -0.235300 0.142394 0.571579
C55 C 0.53043(18) 0.89927(16) 0.37313(11)
H26 H 0.539561 0.936585 0.342403
C56 C 0.2675(2) 0.62594(16) 0.65390(12)
H27 H 0.329804 0.634513 0.686019
C57 C 0.15388(16) 0.07362(14) 0.49067(10)
H28 H 0.134579 0.065036 0.528887
C58 C 0.77837(17) 0.57185(17) 1.01586(10)
C59 C 0.66646(17) 0.35982(19) 0.88151(11)
C60 C 0.23651(18) 0.04925(15) 0.48027(12)
H29 H 0.272516 0.024804 0.511584
C61 C 0.17159(18) 0.60904(16) 0.54141(13)
H30 H 0.169419 0.606069 0.497357
C62 C 0.21262(19) 0.09800(16) 0.37757(12)
H31 H 0.231985 0.106035 0.339309
C63 C -0.04949(18) 0.37341(15) 0.65815(11)
H32 H -0.002411 0.431692 0.680032
C64 C 0.26518(19) 0.06128(16) 0.42353(13)
H33 H 0.320136 0.044510 0.416437
C65 C -0.20478(19) 0.24435(17) 0.64699(11)
H34 H -0.262732 0.215525 0.661070
C66 C 0.87661(18) 0.62135(18) 1.07102(11)
C67 C -0.29029(18) 0.00242(17) 0.29061(10)
H35 H -0.249237 -0.033595 0.298814
C68 C -0.13473(19) 0.33119(17) 0.67982(11)
H36 H -0.145137 0.360763 0.716189
C69 C 0.0805(2) 0.6000(2) 0.55923(17)
H37 H 0.017751 0.590861 0.527306
C70 C 0.76314(18) 0.48911(18) 0.97725(10)
H38 H 0.812964 0.461695 0.988377
C71 C 0.66213(18) 0.3543(2) 0.81507(12)
H39 H 0.665825 0.405511 0.796202
C72 C 0.42587(19) 0.56671(19) 0.91810(11)
H40 H 0.401547 0.504362 0.918337
C73 C 0.8737(2) 0.6642(2) 1.13036(11)
H41 H 0.809025 0.659106 1.137025
C74 C 0.5671(2) 0.70870(19) 0.93248(12)
H42 H 0.638867 0.742571 0.942735
C75 C -0.3736(2) -0.0237(2) 0.23359(12)
H43 H -0.387786 -0.076665 0.203576
C76 C 0.0835(2) 0.6046(2) 0.62439(19)
H44 H 0.022813 0.599671 0.636561
C77 C 0.6524(2) 0.2734(2) 0.77711(14)
H45 H 0.649462 0.270367 0.732940
C78 C 0.9660(2) 0.7142(2) 1.17950(12)
H46 H 0.962947 0.742746 1.218948
C79 C 0.1753(2) 0.6165(2) 0.67141(16)
H47 H 0.176287 0.618387 0.715229
C80 C 0.6622(2) 0.2829(2) 0.90871(14)
H48 H 0.665959 0.285359 0.952966
C81 C -0.3321(2) 0.13262(18) 0.32391(14)
H49 H -0.319260 0.184629 0.354479
C82 C 1.0620(2) 0.7222(2) 1.17085(13)
H50 H 1.123928 0.757274 1.203770
C83 C 0.9738(2) 0.6277(2) 1.06354(13)
H51 H 0.977311 0.597797 1.024707
C84 C 0.3543(2) 0.6109(2) 0.90396(14)
H52 H 0.282523 0.577825 0.894657
C85 C 0.6471(2) 0.1975(3) 0.80456(18)
H53 H 0.639931 0.142960 0.779006
C86 C 0.4949(3) 0.7518(2) 0.91798(16)
H54 H 0.518182 0.814240 0.917935
C87 C 0.6524(2) 0.2026(2) 0.87021(18)
H55 H 0.649353 0.151290 0.888816
C88 C 1.0661(2) 0.6780(2) 1.11312(14)
H56 H 1.131007 0.681928 1.107347
C89 C -0.4355(3) 0.0286(2) 0.22113(14)
H57 H -0.490367 0.011664 0.182153
C90 C 0.3884(3) 0.7024(3) 0.90359(18)
H58 H 0.339954 0.731418 0.893641
C91 C -0.4165(3) 0.1065(2) 0.26657(17)
H59 H -0.459542 0.140862 0.258805
Cl1 Cl 0.25653(10) 0.14214(8) 0.88432(5)
H60 H 0.274(2) 0.3585(19) 0.6422(13)
H61 H 0.395(3) 0.413(2) 0.7213(16)
H62? H 0.287234 0.180012 0.869374
Cl2? Cl 0.05396(10) 0.05251(8) 0.76177(5)
loop_
_geom_bond_atom_site_label_1
_geom_bond_atom_site_label_2
_geom_bond_site_symmetry_1
_geom_bond_site_symmetry_2
N1 C1 1_555 1_555
N2 C7 1_555 1_555
N3 H1 1_555 1_555
N4 C28 1_555 1_555
C1 C3 1_555 1_555
C2 C3 1_555 1_555
C3 C7 1_555 1_555
C4 C2 1_555 1_555
C5 H2 1_555 1_555
C6 C4 1_555 1_555
C7 C31 1_555 1_555
C8 C4 1_555 1_555
H3 C8 1_555 1_555
C9 N1 1_555 1_555
C10 C6 1_555 1_555
H4 C10 1_555 1_555
C11 C8 1_555 1_555
C12 C9 1_555 1_555
C13 N3 1_555 1_555
C14 C1 1_555 1_555
H5 C14 1_555 1_555
C15 C11 1_555 1_555
C16 C12 1_555 1_555
C17 C2 1_555 1_555
C18 C6 1_555 1_555
H6 C18 1_555 1_555
C19 C16 1_555 1_555
C20 C11 1_555 1_555
H7 C20 1_555 1_555
C21 C13 1_555 1_555
H8 C21 1_555 1_555
C22 C16 1_555 1_555
C23 N2 1_555 1_555
C24 C15 1_555 1_555
H9 C24 1_555 1_555
C25 C17 1_555 1_555
C26 N3 1_555 1_555
C27 C19 1_555 1_555
C28 C39 1_555 1_555
C29 C22 1_555 1_555
H10 C29 1_555 1_555
C30 C22 1_555 1_555
C31 H11 1_555 1_555
C32 N4 1_555 1_555
C33 C10 1_555 1_555
H12 C33 1_555 1_555
C34 C37 1_555 1_555
C35 C23 1_555 1_555
H13 C35 1_555 1_555
C36 C29 1_555 1_555
C37 C47 1_555 1_555
C38 C18 1_555 1_555
H14 C38 1_555 1_555
C39 H15 1_555 1_555
C40 C21 1_555 1_555
H16 C40 1_555 1_555
C41 C19 1_555 1_555
H17 C41 1_555 1_555
C42 C15 1_555 1_555
H18 C42 1_555 1_555
C43 C32 1_555 1_555
C44 C23 1_555 1_555
C45 C24 1_555 1_555
H19 C45 1_555 1_555
C46 C33 1_555 1_555
H20 C46 1_555 1_555
C47 H21 1_555 1_555
C48 C36 1_555 1_555
C49 C27 1_555 1_555
H22 C49 1_555 1_555
C50 C42 1_555 1_555
H23 C50 1_555 1_555
C51 C34 1_555 1_555
C52 C30 1_555 1_555
H24 C52 1_555 1_555
C53 C37 1_555 1_555
C54 C27 1_555 1_555
H25 C54 1_555 1_555
C55 C45 1_555 1_555
H26 C55 1_555 1_555
C56 C25 1_555 1_555
H27 C56 1_555 1_555
C57 C30 1_555 1_555
H28 C57 1_555 1_555
C58 C47 1_555 1_555
C59 C51 1_555 1_555
C60 C57 1_555 1_555
H29 C60 1_555 1_555
C61 C25 1_555 1_555
H30 C61 1_555 1_555
C62 C52 1_555 1_555
H31 C62 1_555 1_555
C63 C49 1_555 1_555
H32 C63 1_555 1_555
C64 C60 1_555 1_555
H33 C64 1_555 1_555
C65 C54 1_555 1_555
H34 C65 1_555 1_555
C66 C58 1_555 1_555
C67 C48 1_555 1_555
H35 C67 1_555 1_555
C68 C63 1_555 1_555
H36 C68 1_555 1_555
C69 C61 1_555 1_555
H37 C69 1_555 1_555
C70 C51 1_555 1_555
H38 C70 1_555 1_555
C71 C59 1_555 1_555
H39 C71 1_555 1_555
C72 C53 1_555 1_555
H40 C72 1_555 1_555
C73 C66 1_555 1_555
H41 C73 1_555 1_555
C74 C53 1_555 1_555
H42 C74 1_555 1_555
C75 C67 1_555 1_555
H43 C75 1_555 1_555
C76 C69 1_555 1_555
H44 C76 1_555 1_555
C77 C71 1_555 1_555
H45 C77 1_555 1_555
C78 C73 1_555 1_555
H46 C78 1_555 1_555
C79 C56 1_555 1_555
H47 C79 1_555 1_555
C80 C59 1_555 1_555
H48 C80 1_555 1_555
C81 C48 1_555 1_555
H49 C81 1_555 1_555
C82 C78 1_555 1_555
H50 C82 1_555 1_555
C83 C66 1_555 1_555
H51 C83 1_555 1_555
C84 C72 1_555 1_555
H52 C84 1_555 1_555
C85 C77 1_555 1_555
H53 C85 1_555 1_555
C86 C74 1_555 1_555
H54 C86 1_555 1_555
C87 C80 1_555 1_555
H55 C87 1_555 1_555
C88 C82 1_555 1_555
H56 C88 1_555 1_555
C89 C75 1_555 1_555
H57 C89 1_555 1_555
C90 C84 1_555 1_555
H58 C90 1_555 1_555
C91 C81 1_555 1_555
H59 C91 1_555 1_555
Cl1 C43 1_555 1_555
H60 N1 1_555 1_555
H61 N2 1_555 1_555
C5 C9 1_555 1_555
C5 C14 1_555 1_555
C12 C13 1_555 1_555
C17 C20 1_555 1_555
C26 C32 1_555 1_555
C26 C40 1_555 1_555
C28 C44 1_555 1_555
C31 C35 1_555 1_555
C34 C44 1_555 1_555
C36 C41 1_555 1_555
C38 C46 1_555 1_555
C39 C43 1_555 1_555
C50 C55 1_555 1_555
C58 C70 1_555 1_555
C62 C64 1_555 1_555
C65 C68 1_555 1_555
C76 C79 1_555 1_555
C83 C88 1_555 1_555
C85 C87 1_555 1_555
C86 C90 1_555 1_555
C89 C91 1_555 1_555

#END
