
#######################################################################
#
#                 Cambridge Crystallographic Data Centre
#                                CCDC 
#
#######################################################################
#
# If this CIF has been generated from an entry in the Cambridge 
# Structural Database, then it will include bibliographic, chemical, 
# crystal, experimental, refinement or atomic coordinate data resulting 
# from the CCDC's data processing and validation procedures.
#
#######################################################################

data_PEVFIG
_chemical_formula_moiety         'C18 H14 F2 N4 O1 S1'
_chemical_name_systematic        
6-(2,4-Difluorophenyl)-3-(4-ethoxylphenyl)-7H-1,2,4-triazolo(3,4-b)(1,3,4)thiadiazine
_symmetry_cell_setting           triclinic
_symmetry_space_group_name_H-M   'P -1'
_symmetry_Int_Tables_number      2
_space_group_name_Hall           '-P 1'
loop_
_symmetry_equiv_pos_site_id
_symmetry_equiv_pos_as_xyz
1 x,y,z
2 -x,-y,-z
_cell_length_a                   9.243(3)
_cell_length_b                   10.332(3)
_cell_length_c                   10.807(3)
_cell_angle_alpha                70.109(5)
_cell_angle_beta                 66.434(4)
_cell_angle_gamma                69.239(5)
_cell_volume                     860.503
_exptl_crystal_colour            yellow
_exptl_crystal_description       block
_chemical_melting_point          '190-191 deg.C'
_cell_formula_units_Z            2
loop_
_atom_site_label
_atom_site_type_symbol
_atom_site_fract_x
_atom_site_fract_y
_atom_site_fract_z
S1 S 1.09902(7) 0.88561(6) 0.15736(7)
F1 F 0.14434(18) 0.9958(2) 0.5028(2)
F2 F 0.6666(3) 0.7444(2) 0.50332(18)
O1 O 0.77392(18) 0.49700(18) -0.31528(16)
N1 N 0.83943(19) 0.80962(17) 0.09610(16)
N2 N 1.00415(19) 0.76974(17) 0.02274(16)
N3 N 1.2612(2) 0.7760(2) -0.0734(2)
N4 N 1.2202(2) 0.7212(2) -0.15281(18)
C1 C 0.3054(3) 0.9566(3) 0.4330(3)
C2 C 0.4061(3) 0.8684(3) 0.5056(3)
H1 H 0.3669 0.8339 0.6011
C3 C 0.5683(3) 0.8316(2) 0.4331(2)
C4 C 0.6308(2) 0.8793(2) 0.2903(2)
C5 C 0.5206(3) 0.9692(2) 0.2207(2)
C6 C 0.3568(3) 1.0101(3) 0.2920(3)
H2 H 0.2832 1.0720 0.2460
C7 C 0.8060(2) 0.83155(19) 0.21555(19)
C8 C 0.9321(3) 0.8099(2) 0.2798(2)
H3 H 0.9740 0.7088 0.3136
H4 H 0.8817 0.8536 0.3586
C9 C 1.1304(3) 0.8048(2) 0.0292(2)
C10 C 1.0664(2) 0.7195(2) -0.09599(19)
C11 C 0.9803(2) 0.6665(2) -0.14810(19)
C12 C 0.8306(3) 0.6362(2) -0.0724(2)
H5 H 0.7786 0.6522 0.0165
C13 C 0.7565(3) 0.5830(2) -0.1252(2)
H6 H 0.6546 0.5655 -0.0728
C14 C 0.8330(2) 0.5554(2) -0.2559(2)
C15 C 0.9832(3) 0.5849(3) -0.3333(2)
H7 H 1.0352 0.5680 -0.4219
C16 C 1.0555(3) 0.6388(3) -0.2804(2)
H8 H 1.1567 0.6574 -0.3336
C17 C 0.6131(3) 0.4754(3) -0.2442(3)
H9 H 0.5345 0.5646 -0.2283
H10 H 0.6089 0.4086 -0.1552
C18 C 0.5747(4) 0.4179(3) -0.3337(3)
H11 H 0.5831 0.4833 -0.4227
H12 H 0.4658 0.4057 -0.2905
H13 H 0.6505 0.3278 -0.3456
F3? F 0.5597(7) 1.0078(7) 0.0933(6)
loop_
_geom_bond_atom_site_label_1
_geom_bond_atom_site_label_2
_geom_bond_site_symmetry_1
_geom_bond_site_symmetry_2
S1 C8 1_555 1_555
F1 C1 1_555 1_555
F2 C3 1_555 1_555
O1 C14 1_555 1_555
N1 N2 1_555 1_555
N2 C9 1_555 1_555
N3 N4 1_555 1_555
N4 C10 1_555 1_555
C1 C2 1_555 1_555
C2 H1 1_555 1_555
C3 C2 1_555 1_555
C4 C3 1_555 1_555
C5 C4 1_555 1_555
C6 C1 1_555 1_555
H2 C6 1_555 1_555
C7 N1 1_555 1_555
C8 C7 1_555 1_555
H3 C8 1_555 1_555
H4 C8 1_555 1_555
C9 S1 1_555 1_555
C10 N2 1_555 1_555
C11 C10 1_555 1_555
C12 C11 1_555 1_555
H5 C12 1_555 1_555
C13 C12 1_555 1_555
H6 C13 1_555 1_555
C14 C13 1_555 1_555
C15 C14 1_555 1_555
H7 C15 1_555 1_555
C16 C11 1_555 1_555
H8 C16 1_555 1_555
C17 O1 1_555 1_555
H9 C17 1_555 1_555
H10 C17 1_555 1_555
C18 C17 1_555 1_555
H11 C18 1_555 1_555
H12 C18 1_555 1_555
H13 C18 1_555 1_555
N3 C9 1_555 1_555
C4 C7 1_555 1_555
C5 C6 1_555 1_555
C15 C16 1_555 1_555

#END
