
#######################################################################
#
#                 Cambridge Crystallographic Data Centre
#                                CCDC 
#
#######################################################################
#
# If this CIF has been generated from an entry in the Cambridge 
# Structural Database, then it will include bibliographic, chemical, 
# crystal, experimental, refinement or atomic coordinate data resulting 
# from the CCDC's data processing and validation procedures.
#
#######################################################################

data_PEVHII
_chemical_formula_moiety         'C17 H23 Cl1 O5 S1'
_chemical_name_systematic        
9-(4-Chlorobenzenesulfonylmethyl)-9-methyl-7,8,12-trioxaspiro(5.6)dodecane
_chemical_properties_biological  'no in vitro antimalarial activity'
_symmetry_cell_setting           monoclinic
_symmetry_space_group_name_H-M   'P 21/c'
_symmetry_Int_Tables_number      14
_space_group_name_Hall           '-P 2ybc'
loop_
_symmetry_equiv_pos_site_id
_symmetry_equiv_pos_as_xyz
1 x,y,z
2 -x,1/2+y,1/2-z
3 -x,-y,-z
4 x,1/2-y,1/2+z
_cell_length_a                   18.456(16)
_cell_length_b                   6.086(5)
_cell_length_c                   16.996(15)
_cell_angle_alpha                90
_cell_angle_beta                 112.799(14)
_cell_angle_gamma                90
_cell_volume                     1759.89
_exptl_crystal_colour            colorless
_exptl_crystal_description       cube
_cell_formula_units_Z            4
loop_
_atom_site_label
_atom_site_type_symbol
_atom_site_fract_x
_atom_site_fract_y
_atom_site_fract_z
C1 C 0.15486(11) 0.0667(4) 0.24653(13)
C2 C 0.16127(11) 0.2743(4) 0.28403(13)
H1 H 0.1162 0.3645 0.2717
C3 C 0.23517(11) 0.3465(4) 0.33990(12)
H2 H 0.2411 0.4860 0.3668
C4 C 0.30055(10) 0.2093(3) 0.35565(12)
C5 C 0.29333(11) 0.0032(4) 0.31769(13)
H3 H 0.3384 -0.0870 0.3296
C6 C 0.21958(12) -0.0701(4) 0.26200(13)
H4 H 0.2136 -0.2098 0.2353
C7 C 0.42294(10) 0.1664(3) 0.52168(12)
H5 H 0.4138 0.0074 0.5099
H6 H 0.4802 0.1864 0.5534
C8 C 0.38178(10) 0.2334(3) 0.58176(12)
C9 C 0.40533(10) 0.0678(3) 0.65656(12)
H7 H 0.4174 -0.0755 0.6368
H8 H 0.4538 0.1206 0.7031
C10 C 0.34111(11) 0.0340(4) 0.69210(12)
H9 H 0.3660 -0.0149 0.7522
H10 H 0.3150 0.1765 0.6914
C11 C 0.22868(10) -0.0606(3) 0.56219(12)
C12 C 0.39962(11) 0.4703(3) 0.61440(13)
H11 H 0.3793 0.5722 0.5661
H12 H 0.4566 0.4896 0.6435
H13 H 0.3744 0.5003 0.6545
C13 C 0.18737(11) -0.2707(3) 0.51703(13)
H14 H 0.1619 -0.3431 0.5519
H15 H 0.2269 -0.3734 0.5118
C14 C 0.12509(11) -0.2209(3) 0.42783(13)
H16 H 0.0971 -0.3583 0.4023
H17 H 0.1514 -0.1659 0.3908
C15 C 0.06520(11) -0.0490(4) 0.43128(15)
H18 H 0.0288 -0.0118 0.3725
H19 H 0.0338 -0.1115 0.4617
C16 C 0.10691(11) 0.1602(3) 0.47717(14)
H20 H 0.0675 0.2634 0.4823
H21 H 0.1327 0.2326 0.4427
C17 C 0.16886(11) 0.1099(3) 0.56653(13)
H22 H 0.1425 0.0532 0.6032
H23 H 0.1967 0.2470 0.5926
O1 O 0.39292(8) 0.5409(3) 0.43036(10)
O2 O 0.44883(8) 0.2163(3) 0.38355(10)
O3 O 0.29756(7) 0.2392(2) 0.53522(9)
O4 O 0.27000(7) 0.0118(2) 0.51007(9)
O5 O 0.28263(7) -0.1244(2) 0.64467(8)
S1 S 0.39637(2) 0.30398(8) 0.42118(3)
Cl1 Cl 0.06275(3) -0.02661(12) 0.17693(4)
loop_
_geom_bond_atom_site_label_1
_geom_bond_atom_site_label_2
_geom_bond_site_symmetry_1
_geom_bond_site_symmetry_2
C1 C2 1_555 1_555
C2 H1 1_555 1_555
C3 C2 1_555 1_555
H2 C3 1_555 1_555
C4 C3 1_555 1_555
C5 C4 1_555 1_555
H3 C5 1_555 1_555
C6 C1 1_555 1_555
H4 C6 1_555 1_555
C7 H5 1_555 1_555
H6 C7 1_555 1_555
C8 C7 1_555 1_555
C9 C8 1_555 1_555
H7 C9 1_555 1_555
H8 C9 1_555 1_555
C10 C9 1_555 1_555
H9 C10 1_555 1_555
H10 C10 1_555 1_555
C11 C13 1_555 1_555
C12 C8 1_555 1_555
H11 C12 1_555 1_555
H12 C12 1_555 1_555
H13 C12 1_555 1_555
C13 H14 1_555 1_555
H15 C13 1_555 1_555
C14 C13 1_555 1_555
H16 C14 1_555 1_555
H17 C14 1_555 1_555
C15 C14 1_555 1_555
H18 C15 1_555 1_555
H19 C15 1_555 1_555
C16 C15 1_555 1_555
H20 C16 1_555 1_555
H21 C16 1_555 1_555
C17 C11 1_555 1_555
H22 C17 1_555 1_555
H23 C17 1_555 1_555
O1 S1 1_555 1_555
O2 S1 1_555 1_555
O3 C8 1_555 1_555
O4 C11 1_555 1_555
O5 C10 1_555 1_555
S1 C4 1_555 1_555
Cl1 C1 1_555 1_555
C5 C6 1_555 1_555
C7 S1 1_555 1_555
C11 O5 1_555 1_555
C16 C17 1_555 1_555
O3 O4 1_555 1_555

#END
