
#######################################################################
#
#                 Cambridge Crystallographic Data Centre
#                                CCDC 
#
#######################################################################
#
# If this CIF has been generated from an entry in the Cambridge 
# Structural Database, then it will include bibliographic, chemical, 
# crystal, experimental, refinement or atomic coordinate data resulting 
# from the CCDC's data processing and validation procedures.
#
#######################################################################

data_PEVLIM
_chemical_formula_moiety         'C15 H13 F1 N2 O2 S1'
_chemical_name_systematic        N-2-Fluorobenzoyl-N'-4-methoxyphenylthiourea
_symmetry_cell_setting           triclinic
_symmetry_space_group_name_H-M   'P -1'
_symmetry_Int_Tables_number      2
_space_group_name_Hall           '-P 1'
loop_
_symmetry_equiv_pos_site_id
_symmetry_equiv_pos_as_xyz
1 x,y,z
2 -x,-y,-z
_cell_length_a                   7.617(4)
_cell_length_b                   9.485(5)
_cell_length_c                   10.322(5)
_cell_angle_alpha                77.80(2)
_cell_angle_beta                 73.55(2)
_cell_angle_gamma                81.01(2)
_cell_volume                     695.351
_exptl_crystal_colour            'light yellow'
_cell_formula_units_Z            2
loop_
_atom_site_label
_atom_site_type_symbol
_atom_site_fract_x
_atom_site_fract_y
_atom_site_fract_z
S1 S 0.38454(9) 0.70025(6) 0.25309(6)
F1 F -0.0850(2) 0.8660(1) 0.54907(13)
O1 O 0.1177(2) 0.4385(2) 0.6675(1)
O2 O 0.8311(2) 0.0437(2) 0.1253(2)
N1 N 0.1643(2) 0.6367(2) 0.4980(2)
N2 N 0.3506(2) 0.4391(2) 0.4213(2)
C1 C -0.0452(3) 0.6618(2) 0.7217(2)
C2 C -0.1196(3) 0.8029(2) 0.6852(2)
C3 C -0.2293(3) 0.8857(2) 0.7783(2)
C4 C -0.2690(3) 0.8243(3) 0.9162(2)
C5 C -0.2022(3) 0.6833(3) 0.9580(2)
C6 C -0.0935(3) 0.6023(2) 0.8617(2)
C7 C 0.0834(3) 0.5686(2) 0.6280(2)
C8 C 0.3021(3) 0.5818(2) 0.3930(2)
C9 C 0.4809(3) 0.3458(2) 0.3414(2)
C10 C 0.5439(3) 0.3745(2) 0.1983(2)
C11 C 0.6627(3) 0.2715(2) 0.1308(2)
C12 C 0.7184(3) 0.1378(2) 0.2026(2)
C13 C 0.6567(3) 0.1097(2) 0.3454(2)
C14 C 0.5381(3) 0.2133(2) 0.4132(2)
C15 C 0.8823(3) -0.0971(2) 0.1940(2)
H1 H 0.1459(2) 0.7390(2) 0.4820(2)
H2 H 0.2868(2) 0.3924(2) 0.5080(2)
H3 H -0.2764(3) 0.9829(2) 0.7552(2)
H4 H -0.3465(3) 0.8909(3) 0.9831(2)
H5 H -0.2346(3) 0.6360(3) 1.0540(2)
H6 H -0.0386(3) 0.5066(2) 0.8871(2)
H7 H 0.5004(3) 0.4660(2) 0.1429(2)
H8 H 0.6949(3) 0.2871(2) 0.0276(2)
H9 H 0.7027(3) 0.0135(2) 0.3970(2)
H10 H 0.5045(3) 0.1989(2) 0.5144(2)
H11 H 0.7724(3) -0.1535(2) 0.2415(2)
H12 H 0.9464(3) -0.0835(2) 0.2645(2)
H13 H 0.9584(3) -0.1435(2) 0.1275(2)
loop_
_geom_bond_atom_site_label_1
_geom_bond_atom_site_label_2
_geom_bond_site_symmetry_1
_geom_bond_site_symmetry_2
S1 C8 1_555 1_555
F1 C2 1_555 1_555
O1 C7 1_555 1_555
O2 C12 1_555 1_555
N1 C7 1_555 1_555
N2 C8 1_555 1_555
C1 C2 1_555 1_555
C2 C3 1_555 1_555
C3 C4 1_555 1_555
C4 C5 1_555 1_555
C5 C6 1_555 1_555
C6 C1 1_555 1_555
C7 C1 1_555 1_555
C8 N1 1_555 1_555
C9 N2 1_555 1_555
C10 C9 1_555 1_555
C11 C10 1_555 1_555
C12 C11 1_555 1_555
C13 C12 1_555 1_555
C14 C9 1_555 1_555
C15 O2 1_555 1_555
H1 N1 1_555 1_555
H2 N2 1_555 1_555
H3 C3 1_555 1_555
H4 C4 1_555 1_555
H5 C5 1_555 1_555
H6 C6 1_555 1_555
H7 C10 1_555 1_555
H8 C11 1_555 1_555
H9 C13 1_555 1_555
H10 C14 1_555 1_555
H11 C15 1_555 1_555
H12 C15 1_555 1_555
H13 C15 1_555 1_555
C13 C14 1_555 1_555

#END
