
#######################################################################
#
#                 Cambridge Crystallographic Data Centre
#                                CCDC 
#
#######################################################################
#
# If this CIF has been generated from an entry in the Cambridge 
# Structural Database, then it will include bibliographic, chemical, 
# crystal, experimental, refinement or atomic coordinate data resulting 
# from the CCDC's data processing and validation procedures.
#
#######################################################################

data_PEVMUZ
_chemical_formula_moiety         'C25 H20 F2'
_chemical_name_systematic        
2-Phenyl-3,3-dimethyl-1-(2',2'-bis(4-fluorophenyl)ethenyl)cyclopropene
_symmetry_cell_setting           monoclinic
_symmetry_space_group_name_H-M   'P 21/n'
_symmetry_Int_Tables_number      14
_space_group_name_Hall           '-P 2yn'
loop_
_symmetry_equiv_pos_site_id
_symmetry_equiv_pos_as_xyz
1 x,y,z
2 1/2-x,1/2+y,1/2-z
3 -x,-y,-z
4 1/2+x,1/2-y,1/2+z
_cell_length_a                   12.5896(12)
_cell_length_b                   9.1294(8)
_cell_length_c                   17.6833(16)
_cell_angle_alpha                90
_cell_angle_beta                 102.192(2)
_cell_angle_gamma                90
_cell_volume                     1986.6
_exptl_crystal_colour            colorless
_exptl_crystal_description       prismatic
_cell_formula_units_Z            4
loop_
_atom_site_label
_atom_site_type_symbol
_atom_site_fract_x
_atom_site_fract_y
_atom_site_fract_z
F1 F 0.45476(11) 0.88261(12) -0.05918(5)
F2 F 0.23197(9) 0.80938(13) 0.42122(5)
C1 C 0.55952(11) 0.22122(15) 0.32166(8)
C2 C 0.52304(12) 0.33358(15) 0.37222(7)
C3 C 0.51354(12) 0.33705(15) 0.28581(8)
C4 C 0.49537(12) 0.42465(16) 0.21754(8)
C5 C 0.45081(10) 0.55918(14) 0.20892(7)
C6 C 0.45429(11) 0.64782(14) 0.13933(7)
C7 C 0.53354(15) 0.6257(2) 0.09646(10)
C8 C 0.53326(19) 0.7042(2) 0.02979(11)
C9 C 0.45555(17) 0.80659(19) 0.00716(8)
C10 C 0.37914(16) 0.8373(2) 0.04823(9)
C11 C 0.37837(13) 0.75771(16) 0.11446(8)
C12 C 0.39443(10) 0.62334(13) 0.26723(7)
C13 C 0.43533(13) 0.74356(16) 0.31076(8)
C14 C 0.38131(15) 0.8052(2) 0.36310(9)
C15 C 0.28598(13) 0.74722(19) 0.37051(8)
C16 C 0.24124(14) 0.6310(2) 0.32893(11)
C17 C 0.29689(12) 0.56744(18) 0.27729(9)
C18 C 0.61698(10) 0.08441(14) 0.32320(8)
C19 C 0.65872(12) 0.01796(18) 0.39381(11)
C20 C 0.71371(15) -0.1115(2) 0.39791(14)
H1 H 0.7403 -0.1548 0.4458
C21 C 0.72972(16) -0.1769(2) 0.33305(18)
H2 H 0.7677 -0.2648 0.3366
C22 C 0.69077(16) -0.1157(2) 0.26171(14)
H3 H 0.7030 -0.1612 0.2173
C23 C 0.63233(13) 0.01609(17) 0.25634(10)
H4 H 0.6041 0.0574 0.2082
C24 C 0.60701(15) 0.43142(18) 0.42145(9)
H5 H 0.6328 0.3864 0.4710
H6 H 0.5748 0.5245 0.4283
H7 H 0.6667 0.4455 0.3963
C25 C 0.42479(15) 0.3009(2) 0.40587(10)
H8 H 0.3745 0.2418 0.3702
H9 H 0.3903 0.3911 0.4149
H10 H 0.4472 0.2492 0.4539
H11 H 0.5222(11) 0.3828(14) 0.1747(8)
H12 H 0.5882(15) 0.5547(19) 0.1135(10)
H13 H 0.5869(16) 0.6941(19) 0.0024(10)
H14 H 0.3286(14) 0.9178(18) 0.0317(9)
H15 H 0.3224(12) 0.7726(15) 0.1422(8)
H16 H 0.5035(15) 0.7812(17) 0.3021(9)
H17 H 0.4060(14) 0.8890(19) 0.3921(10)
H18 H 0.1742(16) 0.5889(19) 0.3325(9)
H19 H 0.2690(13) 0.4828(18) 0.2455(9)
H20 H 0.6475(13) 0.0677(17) 0.4405(9)
loop_
_geom_bond_atom_site_label_1
_geom_bond_atom_site_label_2
_geom_bond_site_symmetry_1
_geom_bond_site_symmetry_2
F1 C9 1_555 1_555
F2 C15 1_555 1_555
C1 C2 1_555 1_555
C2 C3 1_555 1_555
C3 C1 1_555 1_555
C4 C3 1_555 1_555
C5 C4 1_555 1_555
C6 C5 1_555 1_555
C7 C6 1_555 1_555
C8 C7 1_555 1_555
C9 C8 1_555 1_555
C10 C9 1_555 1_555
C11 C6 1_555 1_555
C12 C5 1_555 1_555
C13 C12 1_555 1_555
C14 C13 1_555 1_555
C15 C14 1_555 1_555
C16 C15 1_555 1_555
C17 C12 1_555 1_555
C18 C1 1_555 1_555
C19 C18 1_555 1_555
C20 C19 1_555 1_555
H1 C20 1_555 1_555
C21 C20 1_555 1_555
H2 C21 1_555 1_555
C22 C21 1_555 1_555
H3 C22 1_555 1_555
C23 C18 1_555 1_555
H4 C23 1_555 1_555
C24 C2 1_555 1_555
H5 C24 1_555 1_555
H6 C24 1_555 1_555
H7 C24 1_555 1_555
C25 C2 1_555 1_555
H8 C25 1_555 1_555
H9 C25 1_555 1_555
H10 C25 1_555 1_555
H11 C4 1_555 1_555
H12 C7 1_555 1_555
H13 C8 1_555 1_555
H14 C10 1_555 1_555
H15 C11 1_555 1_555
H16 C13 1_555 1_555
H17 C14 1_555 1_555
H18 C16 1_555 1_555
H19 C17 1_555 1_555
H20 C19 1_555 1_555
C10 C11 1_555 1_555
C16 C17 1_555 1_555
C22 C23 1_555 1_555

#END
