
#######################################################################
#
#                 Cambridge Crystallographic Data Centre
#                                CCDC 
#
#######################################################################
#
# If this CIF has been generated from an entry in the Cambridge 
# Structural Database, then it will include bibliographic, chemical, 
# crystal, experimental, refinement or atomic coordinate data resulting 
# from the CCDC's data processing and validation procedures.
#
#######################################################################

data_PEVNIP
_chemical_formula_moiety         'C19 H15 Br2 N1 O5,C1 H1 Cl3'
_chemical_name_systematic        
'Ethyl 6,9-dibromo-3-(4-nitrophenyl)-1,5-dihydro-2-benzoxepine-4-carboxylate chloroform solvate'
_symmetry_cell_setting           monoclinic
_symmetry_space_group_name_H-M   'C 2/c'
_symmetry_Int_Tables_number      15
_space_group_name_Hall           '-C 2yn'
loop_
_symmetry_equiv_pos_site_id
_symmetry_equiv_pos_as_xyz
1 x,y,z
2 -x,y,1/2-z
3 1/2+x,1/2+y,z
4 1/2-x,1/2+y,1/2-z
5 -x,-y,-z
6 x,-y,1/2+z
7 1/2-x,1/2-y,-z
8 1/2+x,1/2-y,1/2+z
_cell_length_a                   25.297(3)
_cell_length_b                   11.5939(14)
_cell_length_c                   16.0976(16)
_cell_angle_alpha                90
_cell_angle_beta                 93.893(2)
_cell_angle_gamma                90
_cell_volume                     4710.39
_exptl_crystal_colour            colorless
_exptl_crystal_description       block
_cell_formula_units_Z            8
loop_
_atom_site_label
_atom_site_type_symbol
_atom_site_fract_x
_atom_site_fract_y
_atom_site_fract_z
Br1 Br 0.58198(4) 0.16410(10) -0.18303(5)
Br2 Br 0.44544(3) 0.17998(9) 0.14788(5)
C1 C 0.5446(3) 0.1638(7) -0.0845(5)
C2 C 0.4954(3) 0.2166(8) -0.0886(5)
H1 H 0.4820 0.2501 -0.1381
C3 C 0.4662(3) 0.2195(8) -0.0190(5)
H2 H 0.4330 0.2543 -0.0212
C4 C 0.4873(3) 0.1699(7) 0.0540(5)
C5 C 0.5359(3) 0.1156(6) 0.0593(4)
C6 C 0.5660(3) 0.1124(7) -0.0113(4)
C7 C 0.6188(3) 0.0500(7) -0.0065(5)
H3 H 0.6346 0.0609 -0.0592
H4 H 0.6119 -0.0319 -0.0010
C8 C 0.6596(3) 0.0843(6) 0.0627(4)
C9 C 0.6515(3) 0.1230(7) 0.1396(4)
C10 C 0.5601(3) 0.0626(7) 0.1376(4)
H5 H 0.5333 0.0548 0.1775
H6 H 0.5731 -0.0139 0.1254
C11 C 0.7151(3) 0.0653(7) 0.0367(4)
C12 C 0.8020(11) 0.027(3) 0.074(2)
H7 H 0.8167 0.1034 0.0654
H8 H 0.8018 -0.0141 0.0212
C13 C 0.8359(10) -0.036(3) 0.139(2)
H9 H 0.8245 -0.0213 0.1936
H10 H 0.8722 -0.0136 0.1365
H11 H 0.8324 -0.1170 0.1268
O1 O 0.7269(13) 0.0988(18) -0.0306(8)
O2 O 0.7490(9) 0.038(2) 0.0985(14)
C14 C 0.6928(3) 0.1697(6) 0.2002(4)
C15 C 0.7288(3) 0.2519(8) 0.1771(5)
H12 H 0.7263 0.2804 0.1230
C16 C 0.7683(3) 0.2923(8) 0.2329(5)
H13 H 0.7925 0.3471 0.2171
C17 C 0.7707(3) 0.2493(7) 0.3126(5)
C18 C 0.7347(3) 0.1705(8) 0.3393(5)
H14 H 0.7365 0.1449 0.3942
C19 C 0.6958(3) 0.1308(7) 0.2819(5)
H15 H 0.6713 0.0771 0.2984
N1 N 0.8140(3) 0.2886(7) 0.3715(5)
O3 O 0.60315(18) 0.1313(5) 0.1735(3)
O4 O 0.8513(3) 0.3381(7) 0.3438(5)
O5 O 0.8108(3) 0.2708(8) 0.4455(5)
C20 C 0.5889(6) 0.433(2) 0.1399(12)
H16 H 0.5966 0.3514 0.1519
Cl1 Cl 0.5596(8) 0.4455(16) 0.0392(12)
Cl2 Cl 0.6477(4) 0.5099(12) 0.1441(8)
Cl3 Cl 0.5477(9) 0.486(2) 0.2121(16)
C21? C 0.8006(15) -0.019(3) 0.084(4)
H17? H 0.8048 -0.0522 0.0292
H18? H 0.8128 -0.0749 0.1253
C22? C 0.8338(16) 0.089(3) 0.094(3)
H19? H 0.8658 0.0769 0.0663
H20? H 0.8423 0.1048 0.1517
H21? H 0.8151 0.1541 0.0688
O6? O 0.7250(17) 0.058(3) -0.0359(9)
O7? O 0.7456(14) 0.006(4) 0.092(2)
C23? C 0.5705(8) 0.441(2) 0.1508(18)
H22? H 0.5719 0.3766 0.1902
Cl4? Cl 0.6014(9) 0.400(2) 0.062(2)
Cl5? Cl 0.5977(11) 0.563(2) 0.2007(18)
Cl6? Cl 0.5050(7) 0.4714(15) 0.1210(13)
loop_
_geom_bond_atom_site_label_1
_geom_bond_atom_site_label_2
_geom_bond_site_symmetry_1
_geom_bond_site_symmetry_2
Br1 C1 1_555 1_555
Br2 C4 1_555 1_555
C1 C2 1_555 1_555
C2 H1 1_555 1_555
C3 C2 1_555 1_555
H2 C3 1_555 1_555
C4 C3 1_555 1_555
C5 C4 1_555 1_555
C6 C1 1_555 1_555
C7 C6 1_555 1_555
H3 C7 1_555 1_555
H4 C7 1_555 1_555
C8 C7 1_555 1_555
C9 C8 1_555 1_555
C10 C5 1_555 1_555
H5 C10 1_555 1_555
H6 C10 1_555 1_555
C11 C8 1_555 1_555
C12 H7 1_555 1_555
H8 C12 1_555 1_555
C13 C12 1_555 1_555
H9 C13 1_555 1_555
H10 C13 1_555 1_555
H11 C13 1_555 1_555
O1 C11 1_555 1_555
O2 C11 1_555 1_555
C14 C9 1_555 1_555
C15 C14 1_555 1_555
H12 C15 1_555 1_555
C16 C15 1_555 1_555
H13 C16 1_555 1_555
C17 C16 1_555 1_555
C18 C17 1_555 1_555
H14 C18 1_555 1_555
C19 C14 1_555 1_555
H15 C19 1_555 1_555
N1 C17 1_555 1_555
O3 C9 1_555 1_555
O4 N1 1_555 1_555
O5 N1 1_555 1_555
C20 H16 1_555 1_555
Cl1 C20 1_555 1_555
Cl2 C20 1_555 1_555
Cl3 C20 1_555 1_555
C5 C6 1_555 1_555
C10 O3 1_555 1_555
C12 O2 1_555 1_555
C18 C19 1_555 1_555

#END
