
#######################################################################
#
#                 Cambridge Crystallographic Data Centre
#                                CCDC 
#
#######################################################################
#
# If this CIF has been generated from an entry in the Cambridge 
# Structural Database, then it will include bibliographic, chemical, 
# crystal, experimental, refinement or atomic coordinate data resulting 
# from the CCDC's data processing and validation procedures.
#
#######################################################################

data_PEVNEL
_chemical_formula_moiety         'C19 H17 N1 O5'
_chemical_name_systematic        
'Ethyl 3-(4-nitrophenyl)-1,5-dihydro-2-benzoxepine-4-carboxylate'
_symmetry_cell_setting           monoclinic
_symmetry_space_group_name_H-M   'P 21/c'
_symmetry_Int_Tables_number      14
_space_group_name_Hall           '-P 2ybc'
loop_
_symmetry_equiv_pos_site_id
_symmetry_equiv_pos_as_xyz
1 x,y,z
2 -x,1/2+y,1/2-z
3 -x,-y,-z
4 x,1/2-y,1/2+z
_cell_length_a                   8.7664(12)
_cell_length_b                   8.7325(11)
_cell_length_c                   22.469(3)
_cell_angle_alpha                90
_cell_angle_beta                 91.846(3)
_cell_angle_gamma                90
_cell_volume                     1719.17
_exptl_crystal_colour            colorless
_cell_formula_units_Z            4
loop_
_atom_site_label
_atom_site_type_symbol
_atom_site_fract_x
_atom_site_fract_y
_atom_site_fract_z
C1 C 0.8703(4) 0.2527(3) 0.39946(13)
H1 H 0.7752 0.2329 0.4149
C2 C 0.9743(5) 0.3427(4) 0.43110(15)
H2 H 0.9486 0.3830 0.4677
C3 C 1.1150(5) 0.3730(4) 0.40891(18)
H3 H 1.1844 0.4342 0.4302
C4 C 1.1528(4) 0.3125(4) 0.35492(15)
H4 H 1.2480 0.3330 0.3397
C5 C 1.0505(3) 0.2211(3) 0.32292(12)
C6 C 0.9072(3) 0.1919(3) 0.34486(12)
C7 C 0.7968(3) 0.0947(3) 0.30895(11)
H5 H 0.7028 0.0864 0.3303
H6 H 0.8392 -0.0075 0.3057
C8 C 1.0865(3) 0.1595(3) 0.26353(12)
H7 H 1.1956 0.1659 0.2581
H8 H 1.0572 0.0525 0.2613
C9 C 0.7591(3) 0.1544(3) 0.24668(11)
C10 C 0.8526(3) 0.2271(3) 0.20948(11)
C11 C 0.8030(3) 0.3140(3) 0.15576(10)
C12 C 0.6752(3) 0.4087(3) 0.15674(11)
H9 H 0.6173 0.4120 0.1907
C13 C 0.6333(3) 0.4972(3) 0.10856(12)
H10 H 0.5470 0.5589 0.1094
C14 C 0.8487(3) 0.4037(3) 0.05671(11)
H11 H 0.9069 0.4035 0.0228
C15 C 0.8903(3) 0.3139(3) 0.10513(11)
H12 H 0.9772 0.2530 0.1039
C16 C 0.7207(3) 0.4930(3) 0.05928(11)
C17 C 0.5969(3) 0.1330(3) 0.22823(13)
C18 C 0.4231(4) 0.0735(4) 0.14802(15)
H13 H 0.3721 0.1715 0.1516
H14 H 0.3656 -0.0030 0.1691
C19 C 0.4347(4) 0.0306(5) 0.08481(17)
H15 H 0.5023 0.1002 0.0657
H16 H 0.3355 0.0354 0.0655
H17 H 0.4740 -0.0717 0.0821
N1 N 0.6787(3) 0.5917(3) 0.00852(12)
O1 O 1.00678(18) 0.24399(19) 0.21655(7)
O2 O 0.4911(2) 0.1545(3) 0.26039(9)
O3 O 0.57903(19) 0.0826(2) 0.17237(9)
O4 O 0.5639(3) 0.6698(3) 0.01194(10)
O5 O 0.7589(3) 0.5906(3) -0.03468(10)
loop_
_geom_bond_atom_site_label_1
_geom_bond_atom_site_label_2
_geom_bond_site_symmetry_1
_geom_bond_site_symmetry_2
C1 H1 1_555 1_555
C2 C1 1_555 1_555
H2 C2 1_555 1_555
C3 C2 1_555 1_555
H3 C3 1_555 1_555
C4 C3 1_555 1_555
H4 C4 1_555 1_555
C5 C4 1_555 1_555
C6 C1 1_555 1_555
C7 C6 1_555 1_555
H5 C7 1_555 1_555
H6 C7 1_555 1_555
C8 C5 1_555 1_555
H7 C8 1_555 1_555
H8 C8 1_555 1_555
C9 C7 1_555 1_555
C10 C9 1_555 1_555
C11 C10 1_555 1_555
C12 C11 1_555 1_555
H9 C12 1_555 1_555
C13 C12 1_555 1_555
H10 C13 1_555 1_555
C14 H11 1_555 1_555
C15 C11 1_555 1_555
H12 C15 1_555 1_555
C16 C13 1_555 1_555
C17 C9 1_555 1_555
C18 H13 1_555 1_555
H14 C18 1_555 1_555
C19 C18 1_555 1_555
H15 C19 1_555 1_555
H16 C19 1_555 1_555
H17 C19 1_555 1_555
N1 C16 1_555 1_555
O1 C8 1_555 1_555
O2 C17 1_555 1_555
O3 C17 1_555 1_555
O4 N1 1_555 1_555
O5 N1 1_555 1_555
C5 C6 1_555 1_555
C10 O1 1_555 1_555
C14 C15 1_555 1_555
C14 C16 1_555 1_555
C18 O3 1_555 1_555

#END
