
#######################################################################
#
#                 Cambridge Crystallographic Data Centre
#                                CCDC 
#
#######################################################################
#
# If this CIF has been generated from an entry in the Cambridge 
# Structural Database, then it will include bibliographic, chemical, 
# crystal, experimental, refinement or atomic coordinate data resulting 
# from the CCDC's data processing and validation procedures.
#
#######################################################################

data_PEVNUB
_chemical_formula_moiety         'C19 H15 N1 O4'
_chemical_name_systematic        'Ethyl 3-(4-nitrophenyl)-2-naphthoate'
_symmetry_cell_setting           orthorhombic
_symmetry_space_group_name_H-M   'P 21 21 21'
_symmetry_Int_Tables_number      19
_space_group_name_Hall           'P 2ac 2ab'
loop_
_symmetry_equiv_pos_site_id
_symmetry_equiv_pos_as_xyz
1 x,y,z
2 1/2+x,1/2-y,-z
3 -x,1/2+y,1/2-z
4 1/2-x,-y,1/2+z
_cell_length_a                   7.6981(10)
_cell_length_b                   10.9144(14)
_cell_length_c                   19.206(2)
_cell_angle_alpha                90
_cell_angle_beta                 90
_cell_angle_gamma                90
_cell_volume                     1613.69
_exptl_crystal_description       block
_cell_formula_units_Z            4
loop_
_atom_site_label
_atom_site_type_symbol
_atom_site_fract_x
_atom_site_fract_y
_atom_site_fract_z
C1 C 0.0833(4) 0.7939(3) 0.25398(14)
H1 H 0.0544 0.8529 0.2210
C2 C 0.1297(4) 0.6762(3) 0.23226(13)
H2 H 0.1303 0.6574 0.1850
C3 C 0.1737(4) 0.5896(3) 0.27907(13)
H3 H 0.2059 0.5120 0.2638
C4 C 0.1714(3) 0.6157(2) 0.35156(12)
C5 C 0.1235(3) 0.7343(2) 0.37395(12)
C6 C 0.0799(3) 0.8232(3) 0.32286(13)
H4 H 0.0488 0.9020 0.3366
C7 C 0.1168(3) 0.7583(2) 0.44599(11)
H5 H 0.0854 0.8364 0.4607
C8 C 0.1546(3) 0.67122(19) 0.49543(11)
C9 C 0.2068(3) 0.55195(19) 0.47173(11)
C10 C 0.2126(3) 0.5274(2) 0.40195(12)
H6 H 0.2451 0.4494 0.3874
C11 C 0.2724(3) 0.4567(2) 0.52106(12)
C12 C 0.2957(4) 0.2421(2) 0.54054(14)
H7 H 0.2314 0.2341 0.5837
H8 H 0.4172 0.2554 0.5516
C13 C 0.2757(5) 0.1307(3) 0.4980(2)
H9 H 0.1545 0.1120 0.4929
H10 H 0.3334 0.0635 0.5204
H11 H 0.3261 0.1440 0.4529
C14 C 0.1342(3) 0.7022(2) 0.57008(11)
C15 C 0.1948(3) 0.8128(2) 0.59627(13)
H12 H 0.2474 0.8681 0.5661
C16 C 0.1793(4) 0.8432(2) 0.66556(13)
H13 H 0.2204 0.9178 0.6821
C17 C 0.1018(4) 0.7606(2) 0.70953(12)
C18 C 0.0355(3) 0.6519(3) 0.68622(13)
H14 H -0.0193 0.5982 0.7167
C19 C 0.0516(3) 0.6235(2) 0.61660(12)
H15 H 0.0061 0.5500 0.6003
N1 N 0.0930(4) 0.7879(3) 0.78434(13)
O1 O 0.3593(3) 0.47603(15) 0.57158(9)
O2 O 0.2282(2) 0.34436(13) 0.49974(9)
O3 O 0.0372(4) 0.7085(3) 0.82316(12)
O4 O 0.1443(5) 0.8879(3) 0.80394(12)
loop_
_geom_bond_atom_site_label_1
_geom_bond_atom_site_label_2
_geom_bond_site_symmetry_1
_geom_bond_site_symmetry_2
C1 H1 1_555 1_555
C2 C1 1_555 1_555
H2 C2 1_555 1_555
C3 C2 1_555 1_555
H3 C3 1_555 1_555
C4 C3 1_555 1_555
C5 C4 1_555 1_555
C6 C1 1_555 1_555
H4 C6 1_555 1_555
C7 C5 1_555 1_555
H5 C7 1_555 1_555
C8 C7 1_555 1_555
C9 C8 1_555 1_555
C10 C4 1_555 1_555
H6 C10 1_555 1_555
C11 C9 1_555 1_555
C12 H7 1_555 1_555
H8 C12 1_555 1_555
C13 C12 1_555 1_555
H9 C13 1_555 1_555
H10 C13 1_555 1_555
H11 C13 1_555 1_555
C14 C8 1_555 1_555
C15 C14 1_555 1_555
H12 C15 1_555 1_555
C16 C15 1_555 1_555
H13 C16 1_555 1_555
C17 C16 1_555 1_555
C18 C17 1_555 1_555
H14 C18 1_555 1_555
C19 C14 1_555 1_555
H15 C19 1_555 1_555
N1 C17 1_555 1_555
O1 C11 1_555 1_555
O2 C11 1_555 1_555
O3 N1 1_555 1_555
O4 N1 1_555 1_555
C5 C6 1_555 1_555
C9 C10 1_555 1_555
C12 O2 1_555 1_555
C18 C19 1_555 1_555

#END
