
#######################################################################
#
#                 Cambridge Crystallographic Data Centre
#                                CCDC 
#
#######################################################################
#
# If this CIF has been generated from an entry in the Cambridge 
# Structural Database, then it will include bibliographic, chemical, 
# crystal, experimental, refinement or atomic coordinate data resulting 
# from the CCDC's data processing and validation procedures.
#
#######################################################################

data_PEVNOV
_chemical_formula_moiety         'C19 H17 N1 O5'
_chemical_name_systematic        'Ethyl 2-(4-nitrobenzoyl)indane-2-carboxylate'
_symmetry_cell_setting           monoclinic
_symmetry_space_group_name_H-M   'P 21/c'
_symmetry_Int_Tables_number      14
_space_group_name_Hall           '-P 2ybc'
loop_
_symmetry_equiv_pos_site_id
_symmetry_equiv_pos_as_xyz
1 x,y,z
2 -x,1/2+y,1/2-z
3 -x,-y,-z
4 x,1/2-y,1/2+z
_cell_length_a                   8.0757(12)
_cell_length_b                   6.1510(9)
_cell_length_c                   33.116(5)
_cell_angle_alpha                90
_cell_angle_beta                 92.330(3)
_cell_angle_gamma                90
_cell_volume                     1643.63
_exptl_crystal_colour            colorless
_exptl_crystal_description       block
_cell_formula_units_Z            4
loop_
_atom_site_label
_atom_site_type_symbol
_atom_site_fract_x
_atom_site_fract_y
_atom_site_fract_z
C1 C 1.2278(3) 0.4537(3) 0.20834(6)
H1 H 1.2434 0.3132 0.1988
C2 C 1.3089(3) 0.5230(4) 0.24344(7)
H2 H 1.3805 0.4292 0.2576
C3 C 1.2845(3) 0.7302(4) 0.25768(7)
H3 H 1.3382 0.7741 0.2817
C4 C 1.1818(3) 0.8731(3) 0.23685(6)
H4 H 1.1657 1.0130 0.2466
C5 C 1.1025(2) 0.8060(3) 0.20116(6)
C6 C 1.1228(2) 0.5961(3) 0.18745(6)
C7 C 1.0180(3) 0.5511(3) 0.14991(6)
H5 H 0.9431 0.4307 0.1541
H6 H 1.0867 0.5165 0.1274
C8 C 0.9195(2) 0.7655(3) 0.14167(6)
C9 C 0.9934(3) 0.9359(3) 0.17239(7)
H7 H 1.0573 1.0449 0.1587
H8 H 0.9060 1.0078 0.1866
C10 C 0.9350(2) 0.8393(3) 0.09784(6)
C11 C 0.8610(2) 0.7010(3) 0.06413(6)
C12 C 0.8669(3) 0.7833(4) 0.02511(7)
H9 H 0.9131 0.9196 0.0211
C13 C 0.8057(3) 0.6670(4) -0.00755(7)
H10 H 0.8113 0.7224 -0.0336
C14 C 0.7363(3) 0.4684(4) -0.00105(6)
C15 C 0.7259(3) 0.3819(4) 0.03704(6)
H11 H 0.6778 0.2463 0.0407
C16 C 0.7879(3) 0.4992(3) 0.06955(6)
H12 H 0.7809 0.4429 0.0955
C17 C 0.7366(3) 0.7428(3) 0.15016(6)
C18 C 0.4793(3) 0.9344(4) 0.14242(7)
H13 H 0.4594 0.9406 0.1711
H14 H 0.4209 0.8098 0.1309
C19 C 0.4213(3) 1.1380(5) 0.12208(8)
H15 H 0.4743 1.2607 0.1350
H16 H 0.3034 1.1505 0.1239
H17 H 0.4489 1.1340 0.0942
N1 N 0.6726(3) 0.3407(4) -0.03590(6)
O1 O 0.6738(2) 0.5973(3) 0.16772(5)
O2 O 0.65607(17) 0.9170(2) 0.13600(5)
O3 O 1.0065(2) 1.0047(3) 0.08969(5)
O4 O 0.6054(4) 0.1687(4) -0.02955(6)
O5 O 0.6894(3) 0.4142(4) -0.06932(6)
loop_
_geom_bond_atom_site_label_1
_geom_bond_atom_site_label_2
_geom_bond_site_symmetry_1
_geom_bond_site_symmetry_2
C1 H1 1_555 1_555
C2 C1 1_555 1_555
H2 C2 1_555 1_555
C3 C2 1_555 1_555
H3 C3 1_555 1_555
C4 C3 1_555 1_555
H4 C4 1_555 1_555
C5 C4 1_555 1_555
C6 C1 1_555 1_555
C7 C6 1_555 1_555
H5 C7 1_555 1_555
H6 C7 1_555 1_555
C8 C7 1_555 1_555
C9 C5 1_555 1_555
H7 C9 1_555 1_555
H8 C9 1_555 1_555
C10 C8 1_555 1_555
C11 C10 1_555 1_555
C12 C11 1_555 1_555
H9 C12 1_555 1_555
C13 C12 1_555 1_555
H10 C13 1_555 1_555
C14 C13 1_555 1_555
C15 C14 1_555 1_555
H11 C15 1_555 1_555
C16 C11 1_555 1_555
H12 C16 1_555 1_555
C17 C8 1_555 1_555
C18 H13 1_555 1_555
H14 C18 1_555 1_555
C19 C18 1_555 1_555
H15 C19 1_555 1_555
H16 C19 1_555 1_555
H17 C19 1_555 1_555
N1 C14 1_555 1_555
O1 C17 1_555 1_555
O2 C17 1_555 1_555
O3 C10 1_555 1_555
O4 N1 1_555 1_555
O5 N1 1_555 1_555
C5 C6 1_555 1_555
C8 C9 1_555 1_555
C15 C16 1_555 1_555
C18 O2 1_555 1_555

#END
