
#######################################################################
#
#                 Cambridge Crystallographic Data Centre
#                                CCDC 
#
#######################################################################
#
# If this CIF has been generated from an entry in the Cambridge 
# Structural Database, then it will include bibliographic, chemical, 
# crystal, experimental, refinement or atomic coordinate data resulting 
# from the CCDC's data processing and validation procedures.
#
#######################################################################

data_PEVSEQ
_chemical_formula_moiety         'C16 H14 S2'
_chemical_name_systematic        3-(Diphenylmethylene)-1,2-dithiolane
_symmetry_cell_setting           monoclinic
_symmetry_space_group_name_H-M   'P 21/c'
_symmetry_Int_Tables_number      14
_space_group_name_Hall           '-P 2ybc'
loop_
_symmetry_equiv_pos_site_id
_symmetry_equiv_pos_as_xyz
1 x,y,z
2 -x,1/2+y,1/2-z
3 -x,-y,-z
4 x,1/2-y,1/2+z
_cell_length_a                   9.3053(14)
_cell_length_b                   15.019(2)
_cell_length_c                   21.117(3)
_cell_angle_alpha                90
_cell_angle_beta                 111.715(5)
_cell_angle_gamma                90
_cell_volume                     2741.8
_cell_formula_units_Z            8
loop_
_atom_site_label
_atom_site_type_symbol
_atom_site_fract_x
_atom_site_fract_y
_atom_site_fract_z
C1 C 0.8714(3) 0.54603(14) 0.13405(11)
H1 H 0.7627 0.5461 0.1049
H2 H 0.8955 0.4896 0.1580
C2 C 0.9067(3) 0.62330(13) 0.18496(10)
H3 H 0.8239 0.6287 0.2022
H4 H 1.0018 0.6110 0.2232
C3 C 0.9232(2) 0.71085(13) 0.15132(9)
C4 C 0.9287(2) 0.79196(12) 0.17915(9)
C5 C 0.9330(2) 0.87650(12) 0.14284(9)
C6 C 0.8401(3) 0.88911(15) 0.07435(10)
H5 H 0.7725 0.8443 0.0508
C7 C 0.8472(3) 0.96767(16) 0.04087(11)
H6 H 0.7849 0.9749 -0.0048
C8 C 0.9457(3) 1.03477(16) 0.07498(12)
H7 H 0.9515 1.0869 0.0522
C9 C 1.0361(3) 1.02463(15) 0.14313(12)
H8 H 1.1021 1.0702 0.1665
C10 C 1.0287(2) 0.94648(13) 0.17692(10)
H9 H 1.0885 0.9408 0.2230
C11 C 0.9323(2) 0.80127(12) 0.25056(9)
C12 C 0.8193(3) 0.85065(15) 0.26319(11)
H10 H 0.7403 0.8770 0.2270
C13 C 0.8228(3) 0.86109(17) 0.32911(13)
H11 H 0.7455 0.8932 0.3368
C14 C 0.9415(4) 0.82365(19) 0.38310(12)
H12 H 0.9445 0.8311 0.4273
C15 C 1.0546(4) 0.77554(17) 0.37183(11)
H13 H 1.1343 0.7505 0.4084
C16 C 1.0511(3) 0.76374(15) 0.30569(10)
H14 H 1.1281 0.7308 0.2984
S1 S 0.98985(8) 0.56171(4) 0.08392(3)
S2 S 0.92798(8) 0.69476(4) 0.06865(3)
C17 C 0.3237(3) 0.86343(18) 0.11803(14)
H15 H 0.3327 0.9216 0.1391
H16 H 0.2171 0.8547 0.0877
C18 C 0.3729(3) 0.79065(14) 0.17246(11)
H17 H 0.4615 0.8111 0.2111
H18 H 0.2891 0.7792 0.1883
C19 C 0.4146(2) 0.70487(14) 0.14506(10)
C20 C 0.4432(2) 0.62698(13) 0.17913(9)
C21 C 0.4707(2) 0.54101(13) 0.15059(9)
C22 C 0.3934(3) 0.51737(16) 0.08236(10)
H19 H 0.3205 0.5560 0.0534
C23 C 0.4236(3) 0.43721(18) 0.05725(12)
H20 H 0.3718 0.4231 0.0115
C24 C 0.5293(3) 0.37832(16) 0.09928(12)
H21 H 0.5508 0.3251 0.0820
C25 C 0.6030(3) 0.39897(15) 0.16725(11)
H22 H 0.6728 0.3589 0.1962
C26 C 0.5738(2) 0.47913(14) 0.19267(10)
H23 H 0.6239 0.4919 0.2387
C27 C 0.4514(2) 0.62378(12) 0.25130(9)
C28 C 0.3435(3) 0.57551(15) 0.26853(11)
H24 H 0.2624 0.5471 0.2346
C29 C 0.3559(3) 0.56944(17) 0.33626(12)
H25 H 0.2826 0.5376 0.3472
C30 C 0.4763(3) 0.61053(18) 0.38681(11)
H26 H 0.4844 0.6063 0.4319
C31 C 0.5843(3) 0.65752(17) 0.37091(11)
H27 H 0.6659 0.6849 0.4053
C32 C 0.5728(3) 0.66468(15) 0.30342(10)
H28 H 0.6465 0.6969 0.2931
S3 S 0.41802(9) 0.71850(5) 0.06200(3)
S4 S 0.45106(10) 0.85511(5) 0.07171(4)
loop_
_geom_bond_atom_site_label_1
_geom_bond_atom_site_label_2
_geom_bond_site_symmetry_1
_geom_bond_site_symmetry_2
C1 H1 1_555 1_555
H2 C1 1_555 1_555
C2 C1 1_555 1_555
H3 C2 1_555 1_555
H4 C2 1_555 1_555
C3 C2 1_555 1_555
C4 C3 1_555 1_555
C5 C4 1_555 1_555
C6 C5 1_555 1_555
H5 C6 1_555 1_555
C7 C6 1_555 1_555
H6 C7 1_555 1_555
C8 C7 1_555 1_555
H7 C8 1_555 1_555
C9 C8 1_555 1_555
H8 C9 1_555 1_555
C10 C5 1_555 1_555
H9 C10 1_555 1_555
C11 C4 1_555 1_555
C12 C11 1_555 1_555
H10 C12 1_555 1_555
C13 C12 1_555 1_555
H11 C13 1_555 1_555
C14 C13 1_555 1_555
H12 C14 1_555 1_555
C15 C14 1_555 1_555
H13 C15 1_555 1_555
C16 C11 1_555 1_555
H14 C16 1_555 1_555
S1 C1 1_555 1_555
S2 C3 1_555 1_555
C17 H15 1_555 1_555
H16 C17 1_555 1_555
C18 C17 1_555 1_555
H17 C18 1_555 1_555
H18 C18 1_555 1_555
C19 C18 1_555 1_555
C20 C19 1_555 1_555
C21 C20 1_555 1_555
C22 C21 1_555 1_555
H19 C22 1_555 1_555
C23 C22 1_555 1_555
H20 C23 1_555 1_555
C24 C23 1_555 1_555
H21 C24 1_555 1_555
C25 C24 1_555 1_555
H22 C25 1_555 1_555
C26 C21 1_555 1_555
H23 C26 1_555 1_555
C27 C20 1_555 1_555
C28 C27 1_555 1_555
H24 C28 1_555 1_555
C29 C28 1_555 1_555
H25 C29 1_555 1_555
C30 C29 1_555 1_555
H26 C30 1_555 1_555
C31 C30 1_555 1_555
H27 C31 1_555 1_555
C32 C27 1_555 1_555
H28 C32 1_555 1_555
S3 C19 1_555 1_555
S4 C17 1_555 1_555
C9 C10 1_555 1_555
C15 C16 1_555 1_555
S1 S2 1_555 1_555
C25 C26 1_555 1_555
C31 C32 1_555 1_555
S3 S4 1_555 1_555

#END
