
#######################################################################
#
#                 Cambridge Crystallographic Data Centre
#                                CCDC 
#
#######################################################################
#
# If this CIF has been generated from an entry in the Cambridge 
# Structural Database, then it will include bibliographic, chemical, 
# crystal, experimental, refinement or atomic coordinate data resulting 
# from the CCDC's data processing and validation procedures.
#
#######################################################################

data_PEVVUJ
_chemical_formula_moiety         'C33 H39 B1 N2'
_chemical_name_systematic        
(1,3-bis(2,2-dimethyl-1-(1-naphthyl)propyl)-1H-imidazol-2-ylidene)trihydridoborate
_symmetry_cell_setting           monoclinic
_symmetry_space_group_name_H-M   'C 2'
_symmetry_Int_Tables_number      5
_space_group_name_Hall           'C 2y'
loop_
_symmetry_equiv_pos_site_id
_symmetry_equiv_pos_as_xyz
1 x,y,z
2 -x,y,-z
3 1/2+x,1/2+y,z
4 1/2-x,1/2+y,-z
_cell_length_a                   20.7759(8)
_cell_length_b                   7.1727(3)
_cell_length_c                   19.0739(6)
_cell_angle_alpha                90
_cell_angle_beta                 106.583(4)
_cell_angle_gamma                90
_cell_volume                     2724.16
_cell_formula_units_Z            4
loop_
_atom_site_label
_atom_site_type_symbol
_atom_site_fract_x
_atom_site_fract_y
_atom_site_fract_z
N1 N 0.71992(13) 0.0965(4) 0.20793(13)
N2 N 0.81327(13) 0.0640(4) 0.29507(13)
C1 C 0.65661(15) 0.0472(5) 0.15243(15)
H1 H 0.6511 -0.0899 0.1585
C2 C 0.86961(16) -0.0189(6) 0.35284(16)
H2 H 0.8536 -0.1457 0.3619
C3 C 0.64506(17) -0.0547(6) -0.05008(17)
C4 C 0.85380(17) 0.0071(7) 0.48066(17)
C5 C 0.76019(16) -0.0324(5) 0.25201(16)
C6 C 0.59394(18) 0.1386(6) 0.16889(19)
C7 C 0.68960(18) 0.2269(6) 0.05359(18)
H3 H 0.7047 0.3248 0.0879
C8 C 0.63905(17) -0.0777(6) 0.02251(17)
C9 C 0.87879(17) 0.0875(6) 0.42458(17)
C10 C 0.61027(19) -0.2467(6) 0.03721(17)
H4 H 0.6062 -0.2678 0.0849
C11 C 0.93308(17) -0.0541(7) 0.32641(17)
C12 C 0.66214(16) 0.0700(5) 0.07454(16)
C13 C 0.80559(17) 0.2520(6) 0.27797(17)
H5 H 0.8356 0.3491 0.3002
C14 C 0.69595(18) 0.2462(7) -0.01825(18)
H6 H 0.7156 0.3556 -0.0313
C15 C 0.9074(2) 0.2613(7) 0.43569(19)
H7 H 0.9248 0.3135 0.3991
C16 C 0.5881(2) -0.3809(7) -0.0153(2)
H8 H 0.5686 -0.4923 -0.0037
C17 C 0.67404(18) 0.1092(7) -0.06828(18)
H9 H 0.6783 0.1239 -0.1163
C18 C 0.74788(17) 0.2721(6) 0.22417(17)
H10 H 0.7297 0.3858 0.2015
C19 C 0.6226(2) -0.1971(7) -0.10240(19)
H11 H 0.6276 -0.1821 -0.1500
C20 C 0.9125(2) -0.1831(7) 0.2595(2)
H12 H 0.8951 -0.3005 0.2731
H13 H 0.9517 -0.2088 0.2421
H14 H 0.8776 -0.1225 0.2205
C21 C 0.8870(2) 0.2953(8) 0.5522(2)
H15 H 0.8891 0.3676 0.5945
C22 C 0.9664(2) 0.1181(7) 0.3044(2)
H16 H 0.9324 0.1931 0.2696
H17 H 1.0007 0.0786 0.2814
H18 H 0.9873 0.1927 0.3480
C23 C 0.8329(2) 0.0414(10) 0.6006(2)
H19 H 0.8354 0.1135 0.6431
C24 C 0.53096(19) 0.0769(9) 0.1103(2)
H20 H 0.5340 0.1158 0.0621
H21 H 0.4914 0.1342 0.1196
H22 H 0.5270 -0.0592 0.1114
C25 C 0.82503(19) -0.1710(7) 0.47721(19)
H23 H 0.8215 -0.2454 0.4351
C26 C 0.9844(2) -0.1553(8) 0.3881(2)
H24 H 1.0002 -0.0711 0.4300
H25 H 1.0225 -0.1947 0.3711
H26 H 0.9633 -0.2649 0.4030
C27 C 0.5939(2) -0.3548(8) -0.0862(2)
H27 H 0.5779 -0.4474 -0.1226
C28 C 0.8019(2) -0.2417(9) 0.5321(2)
H28 H 0.7837 -0.3641 0.5284
C29 C 0.5943(2) 0.3508(7) 0.1708(3)
H29 H 0.6273 0.3938 0.2156
H30 H 0.5496 0.3961 0.1700
H31 H 0.6063 0.3991 0.1281
C30 C 0.8584(2) 0.1168(8) 0.54482(18)
B1 B 0.7455(2) -0.2526(7) 0.2501(2)
C31 C 0.9117(2) 0.3646(8) 0.4995(2)
H32 H 0.9322 0.4842 0.5055
C32 C 0.5900(2) 0.0627(9) 0.2430(2)
H33 H 0.5861 -0.0735 0.2405
H34 H 0.5507 0.1156 0.2544
H35 H 0.6308 0.0976 0.2813
C33 C 0.8051(2) -0.1313(11) 0.5944(2)
H36 H 0.7879 -0.1781 0.6320
H37 H 0.694(2) -0.286(6) 0.2538(18)
H38 H 0.754(2) -0.310(7) 0.198(2)
H39 H 0.778(3) -0.326(7) 0.300(2)
loop_
_geom_bond_atom_site_label_1
_geom_bond_atom_site_label_2
_geom_bond_site_symmetry_1
_geom_bond_site_symmetry_2
N1 C1 1_555 1_555
N2 C2 1_555 1_555
C1 H1 1_555 1_555
C2 H2 1_555 1_555
C3 C8 1_555 1_555
C4 C9 1_555 1_555
C5 N1 1_555 1_555
C6 C1 1_555 1_555
C7 H3 1_555 1_555
C8 C10 1_555 1_555
C9 C2 1_555 1_555
C10 H4 1_555 1_555
C11 C2 1_555 1_555
C12 C1 1_555 1_555
C13 N2 1_555 1_555
H5 C13 1_555 1_555
C14 C7 1_555 1_555
H6 C14 1_555 1_555
C15 C9 1_555 1_555
H7 C15 1_555 1_555
C16 C10 1_555 1_555
H8 C16 1_555 1_555
C17 C3 1_555 1_555
H9 C17 1_555 1_555
C18 N1 1_555 1_555
H10 C18 1_555 1_555
C19 C3 1_555 1_555
H11 C19 1_555 1_555
C20 C11 1_555 1_555
H12 C20 1_555 1_555
H13 C20 1_555 1_555
H14 C20 1_555 1_555
C21 H15 1_555 1_555
C22 C11 1_555 1_555
H16 C22 1_555 1_555
H17 C22 1_555 1_555
H18 C22 1_555 1_555
C23 H19 1_555 1_555
C24 C6 1_555 1_555
H20 C24 1_555 1_555
H21 C24 1_555 1_555
H22 C24 1_555 1_555
C25 C4 1_555 1_555
H23 C25 1_555 1_555
C26 C11 1_555 1_555
H24 C26 1_555 1_555
H25 C26 1_555 1_555
H26 C26 1_555 1_555
C27 C16 1_555 1_555
H27 C27 1_555 1_555
C28 C25 1_555 1_555
H28 C28 1_555 1_555
C29 C6 1_555 1_555
H29 C29 1_555 1_555
H30 C29 1_555 1_555
H31 C29 1_555 1_555
C30 C4 1_555 1_555
B1 C5 1_555 1_555
C31 C15 1_555 1_555
H32 C31 1_555 1_555
C32 C6 1_555 1_555
H33 C32 1_555 1_555
H34 C32 1_555 1_555
H35 C32 1_555 1_555
C33 C23 1_555 1_555
H36 C33 1_555 1_555
H37 B1 1_555 1_555
H38 B1 1_555 1_555
H39 B1 1_555 1_555
N2 C5 1_555 1_555
C7 C12 1_555 1_555
C8 C12 1_555 1_555
C13 C18 1_555 1_555
C14 C17 1_555 1_555
C19 C27 1_555 1_555
C21 C30 1_555 1_555
C21 C31 1_555 1_555
C23 C30 1_555 1_555
C28 C33 1_555 1_555

#END
