
#######################################################################
#
#                 Cambridge Crystallographic Data Centre
#                                CCDC 
#
#######################################################################
#
# If this CIF has been generated from an entry in the Cambridge 
# Structural Database, then it will include bibliographic, chemical, 
# crystal, experimental, refinement or atomic coordinate data resulting 
# from the CCDC's data processing and validation procedures.
#
#######################################################################

data_PEVWAQ
_chemical_formula_moiety         'C27 H39 B1 N2'
_chemical_name_systematic        
(1,3-bis(2,2-dimethyl-1-(2-methylphenyl)propyl)-1H-imidazol-2-ylidene)trihydridoborate
_symmetry_cell_setting           monoclinic
_symmetry_space_group_name_H-M   'C 2'
_symmetry_Int_Tables_number      5
_space_group_name_Hall           'C 2y'
loop_
_symmetry_equiv_pos_site_id
_symmetry_equiv_pos_as_xyz
1 x,y,z
2 -x,y,-z
3 1/2+x,1/2+y,z
4 1/2-x,1/2+y,-z
_cell_length_a                   46.4335(19)
_cell_length_b                   7.3273(2)
_cell_length_c                   23.5143(10)
_cell_angle_alpha                90
_cell_angle_beta                 110.669(3)
_cell_angle_gamma                90
_cell_volume                     7485.38
_exptl_crystal_colour            colorless
_exptl_crystal_description       platelet
_cell_formula_units_Z            12
loop_
_atom_site_label
_atom_site_type_symbol
_atom_site_fract_x
_atom_site_fract_y
_atom_site_fract_z
N1 N 0.67504(5) -0.0248(3) 0.53205(8)
N2 N 0.67274(5) -0.0195(3) 0.62214(8)
C1 C 0.66870(6) 0.0515(3) 0.67764(10)
H1 H 0.6647 0.1850 0.6700
C2 C 0.67506(5) 0.0409(3) 0.47226(9)
H2 H 0.6801 0.1739 0.4780
C3 C 0.64271(5) 0.0314(3) 0.42444(10)
C4 C 0.67399(7) -0.2036(3) 0.54980(11)
H3 H 0.6741 -0.3093 0.5265
C5 C 0.63894(6) -0.0252(5) 0.68602(12)
C6 C 0.67457(5) 0.0885(3) 0.57687(10)
C7 C 0.71538(6) -0.1204(4) 0.74580(11)
H4 H 0.7080 -0.2235 0.7203
C8 C 0.70952(6) 0.1914(4) 0.77086(11)
C9 C 0.74272(6) -0.1348(4) 0.79469(11)
H5 H 0.7540 -0.2460 0.8024
C10 C 0.61216(7) -0.0099(6) 0.62551(15)
H6 H 0.6152 -0.0961 0.5963
H7 H 0.6112 0.1147 0.6098
H8 H 0.5928 -0.0384 0.6317
C11 C 0.69827(5) 0.0404(3) 0.73271(10)
C12 C 0.59682(6) -0.1438(4) 0.36999(12)
H9 H 0.5858 -0.2558 0.3638
C13 C 0.67282(7) -0.2009(3) 0.60532(11)
H10 H 0.6722 -0.3042 0.6292
C14 C 0.70489(6) 0.0749(4) 0.40378(12)
H11 H 0.7221 0.0297 0.3928
H12 H 0.7091 0.2007 0.4186
H13 H 0.6859 0.0716 0.3680
C15 C 0.62933(6) 0.1843(3) 0.38931(10)
C16 C 0.60013(6) 0.1683(4) 0.34551(11)
H14 H 0.5910 0.2723 0.3219
C17 C 0.64465(7) 0.3696(4) 0.39774(13)
H15 H 0.6629 0.3632 0.3859
H16 H 0.6508 0.4060 0.4405
H17 H 0.6302 0.4594 0.3723
C18 C 0.73699(6) 0.1730(4) 0.82005(11)
H18 H 0.7446 0.2745 0.8462
C19 C 0.63209(7) 0.0985(6) 0.73205(14)
H19 H 0.6292 0.2241 0.7168
H20 H 0.6494 0.0942 0.7709
H21 H 0.6133 0.0565 0.7380
C20 C 0.69505(6) -0.2401(4) 0.42843(12)
H22 H 0.6936 -0.3225 0.4602
H23 H 0.7120 -0.2792 0.4155
H24 H 0.6757 -0.2433 0.3936
C21 C 0.73128(6) -0.0412(4) 0.50850(12)
H25 H 0.7342 0.0802 0.5271
H26 H 0.7486 -0.0690 0.4952
H27 H 0.7304 -0.1324 0.5383
C22 C 0.70111(5) -0.0451(3) 0.45351(10)
C23 C 0.58394(6) 0.0077(4) 0.33509(11)
H28 H 0.5641 0.0004 0.3043
C24 C 0.69397(8) 0.3760(4) 0.76092(13)
H29 H 0.7085 0.4683 0.7847
H30 H 0.6761 0.3717 0.7739
H31 H 0.6872 0.4077 0.7177
C25 C 0.75344(6) 0.0136(4) 0.83195(11)
H32 H 0.7721 0.0056 0.8658
C26 C 0.64179(7) -0.2210(5) 0.71066(16)
H33 H 0.6604 -0.2312 0.7471
H34 H 0.6432 -0.3062 0.6796
H35 H 0.6237 -0.2505 0.7211
C27 C 0.62593(5) -0.1301(3) 0.41414(11)
H36 H 0.6347 -0.2342 0.4381
B1 B 0.67696(8) 0.3095(4) 0.57836(14)
H37 H 0.6926(9) 0.341(6) 0.6255(17)
H38 H 0.6885(12) 0.362(8) 0.545(2)
H39 H 0.6575(11) 0.358(8) 0.5806(19)
N3 N 0.67001(4) 0.7754(3) 0.03100(8)
C28 C 0.67741(6) 0.5364(4) 0.24159(11)
H40 H 0.6575 0.4944 0.2174
C29 C 0.67119(5) 0.8461(3) -0.02740(9)
H41 H 0.6764 0.9786 -0.0200
N4 N 0.66773(4) 0.7730(3) 0.12093(8)
C30 C 0.68674(5) 0.7104(3) 0.23090(10)
C31 C 0.66654(5) 0.8329(3) 0.18049(9)
H42 H 0.6769 0.9548 0.1883
C32 C 0.63939(6) 0.8415(3) -0.07729(10)
C33 C 0.69624(8) 0.4243(4) 0.28613(12)
H43 H 0.6892 0.3071 0.2926
C34 C 0.72515(7) 0.4814(4) 0.32119(11)
H44 H 0.7384 0.4033 0.3514
C35 C 0.71629(5) 0.7692(3) 0.26738(10)
C36 C 0.69289(7) 0.5665(5) -0.06817(15)
H45 H 0.6920 0.4855 -0.0357
H46 H 0.7100 0.5296 -0.0810
H47 H 0.6735 0.5586 -0.1028
C37 C 0.66385(5) 0.5952(3) 0.09991(10)
H48 H 0.6608 0.4913 0.1213
C38 C 0.64231(10) 1.1819(4) -0.09813(14)
H49 H 0.6610 1.1762 -0.1084
H50 H 0.6478 1.2133 -0.0551
H51 H 0.6284 1.2752 -0.1231
C39 C 0.66517(6) 0.5961(3) 0.04451(10)
H52 H 0.6632 0.4932 0.0188
C40 C 0.62656(7) 1.0007(4) -0.10997(11)
C41 C 0.62243(6) 0.6822(4) -0.09149(11)
H53 H 0.6308 0.5745 -0.0693
C42 C 0.73490(6) 0.6540(4) 0.31218(11)
H54 H 0.7548 0.6945 0.3372
C43 C 0.61851(8) 1.0135(6) 0.12908(16)
H55 H 0.6322 1.1194 0.1361
H56 H 0.5986 1.0515 0.1309
H57 H 0.6154 0.9619 0.0889
C44 C 0.61131(7) 0.7065(6) 0.16386(17)
H58 H 0.5902 0.7484 0.1557
H59 H 0.6175 0.6236 0.1988
H60 H 0.6124 0.6421 0.1281
C45 C 0.59359(7) 0.6738(6) -0.13710(13)
H61 H 0.5825 0.5621 -0.1457
C46 C 0.69788(6) 0.7624(4) -0.04486(11)
C47 C 0.58133(7) 0.8278(6) -0.16948(13)
H62 H 0.5619 0.8235 -0.2014
C48 C 0.72866(6) 0.9532(4) 0.25943(13)
H63 H 0.7496 0.9671 0.2888
H64 H 0.7155 1.0489 0.2662
H65 H 0.7289 0.9637 0.2181
C49 C 0.72757(6) 0.7704(5) 0.01048(13)
H66 H 0.7260 0.6874 0.0419
H67 H 0.7308 0.8953 0.0265
H68 H 0.7450 0.7339 -0.0014
C50 C 0.63289(6) 0.8699(4) 0.17771(11)
C51 C 0.59745(8) 0.9881(5) -0.15525(12)
H69 H 0.5885 1.0952 -0.1771
C52 C 0.70153(8) 0.8837(6) -0.09443(14)
H70 H 0.7185 0.8383 -0.1060
H71 H 0.7060 1.0090 -0.0792
H72 H 0.6824 0.8819 -0.1299
C53 C 0.63523(8) 0.9481(6) 0.23938(13)
H73 H 0.6485 1.0564 0.2482
H74 H 0.6440 0.8561 0.2710
H75 H 0.6147 0.9821 0.2385
B2 B 0.67984(8) 1.1000(4) 0.08304(13)
C54 C 0.67209(5) 0.8842(3) 0.07860(10)
H76 H 0.6841(6) 1.146(4) 0.1294(12)
H77 H 0.7009(8) 1.121(5) 0.0687(14)
H78 H 0.6595(8) 1.177(5) 0.0487(15)
C55 C 0.49897(6) 0.4140(4) 0.14543(10)
H79 H 0.5033 0.5480 0.1469
N5 N 0.49673(5) 0.3699(3) 0.20536(9)
N6 N 0.49646(5) 0.4046(3) 0.29609(9)
C56 C 0.49659(6) 0.4964(4) 0.35223(10)
H80 H 0.4935 0.6289 0.3416
C57 C 0.45400(6) 0.5370(4) 0.05587(11)
C58 C 0.46781(5) 0.3900(4) 0.09421(10)
C59 C 0.55537(7) 0.3459(6) 0.19377(13)
H81 H 0.5572 0.4743 0.2062
H82 H 0.5739 0.3087 0.1860
H83 H 0.5531 0.2702 0.2263
C60 C 0.52823(6) 0.4841(5) 0.40200(11)
C61 C 0.45221(6) 0.2258(4) 0.08522(12)
H84 H 0.4614 0.1255 0.1108
C62 C 0.42372(6) 0.2028(5) 0.04017(13)
H85 H 0.4135 0.0883 0.0352
C63 C 0.54320(7) 0.6392(5) 0.43324(12)
C64 C 0.49877(5) 0.4973(4) 0.24825(10)
C65 C 0.49363(7) 0.1988(4) 0.22703(12)
H86 H 0.4918 0.0868 0.2057
C66 C 0.41015(6) 0.3467(5) 0.00258(13)
H87 H 0.3907 0.3321 -0.0288
C67 C 0.52725(6) 0.3216(4) 0.13600(12)
C68 C 0.46865(6) 0.4402(5) 0.37063(12)
C69 C 0.49361(7) 0.2195(4) 0.28299(12)
H88 H 0.4919 0.1249 0.3093
C70 C 0.57257(7) 0.6184(6) 0.47704(13)
H89 H 0.5828 0.7235 0.4985
C71 C 0.43926(7) 0.4452(7) 0.31383(15)
H90 H 0.4392 0.3411 0.2876
H91 H 0.4387 0.5590 0.2916
H92 H 0.4212 0.4386 0.3261
C72 C 0.42498(7) 0.5098(5) 0.01093(12)
H93 H 0.4153 0.6092 -0.0146
C73 C 0.58717(7) 0.4554(7) 0.49030(14)
H94 H 0.6071 0.4470 0.5206
C74 C 0.52328(8) 0.1203(5) 0.11869(18)
H95 H 0.5204 0.0502 0.1517
H96 H 0.5417 0.0763 0.1116
H97 H 0.5052 0.1050 0.0816
C75 C 0.57286(7) 0.3024(6) 0.45939(14)
H98 H 0.5828 0.1870 0.4677
C76 C 0.47165(8) 0.2551(7) 0.40237(17)
H99 H 0.4910 0.2511 0.4372
H100 H 0.4715 0.1577 0.3737
H101 H 0.4543 0.2382 0.4165
C77 C 0.54346(7) 0.3192(5) 0.41560(13)
H102 H 0.5336 0.2131 0.3944
C78 C 0.46532(8) 0.5881(8) 0.41411(16)
H103 H 0.4632 0.7077 0.3944
H104 H 0.4836 0.5878 0.4513
H105 H 0.4470 0.5631 0.4244
C79 C 0.53289(7) 0.4248(6) 0.08481(13)
H106 H 0.5510 0.3741 0.0782
H107 H 0.5364 0.5541 0.0957
H108 H 0.5149 0.4127 0.0475
C80 C 0.52989(9) 0.8293(5) 0.42171(15)
H109 H 0.5454 0.9172 0.4455
H110 H 0.5118 0.8360 0.4338
H111 H 0.5239 0.8580 0.3784
B3 B 0.50516(9) 0.7135(5) 0.24644(15)
C81 C 0.46824(9) 0.7222(4) 0.06089(15)
H112 H 0.4879 0.7127 0.0542
H113 H 0.4719 0.7719 0.1015
H114 H 0.4543 0.8032 0.0303
H115 H 0.4911(8) 0.798(5) 0.2657(14)
H116 H 0.4997(8) 0.764(5) 0.2027(16)
H117 H 0.5294(12) 0.742(8) 0.281(2)
loop_
_geom_bond_atom_site_label_1
_geom_bond_atom_site_label_2
_geom_bond_site_symmetry_1
_geom_bond_site_symmetry_2
N1 C2 1_555 1_555
N2 C1 1_555 1_555
C1 H1 1_555 1_555
C2 H2 1_555 1_555
C3 C2 1_555 1_555
C4 N1 1_555 1_555
H3 C4 1_555 1_555
C5 C1 1_555 1_555
C6 N1 1_555 1_555
C7 H4 1_555 1_555
C8 C11 1_555 1_555
C9 C7 1_555 1_555
H5 C9 1_555 1_555
C10 C5 1_555 1_555
H6 C10 1_555 1_555
H7 C10 1_555 1_555
H8 C10 1_555 1_555
C11 C1 1_555 1_555
C12 H9 1_555 1_555
C13 N2 1_555 1_555
H10 C13 1_555 1_555
C14 H11 1_555 1_555
H12 C14 1_555 1_555
H13 C14 1_555 1_555
C15 C3 1_555 1_555
C16 C15 1_555 1_555
H14 C16 1_555 1_555
C17 C15 1_555 1_555
H15 C17 1_555 1_555
H16 C17 1_555 1_555
H17 C17 1_555 1_555
C18 C8 1_555 1_555
H18 C18 1_555 1_555
C19 C5 1_555 1_555
H19 C19 1_555 1_555
H20 C19 1_555 1_555
H21 C19 1_555 1_555
C20 H22 1_555 1_555
H23 C20 1_555 1_555
H24 C20 1_555 1_555
C21 H25 1_555 1_555
H26 C21 1_555 1_555
H27 C21 1_555 1_555
C22 C2 1_555 1_555
C23 C12 1_555 1_555
H28 C23 1_555 1_555
C24 C8 1_555 1_555
H29 C24 1_555 1_555
H30 C24 1_555 1_555
H31 C24 1_555 1_555
C25 C9 1_555 1_555
H32 C25 1_555 1_555
C26 C5 1_555 1_555
H33 C26 1_555 1_555
H34 C26 1_555 1_555
H35 C26 1_555 1_555
C27 C3 1_555 1_555
H36 C27 1_555 1_555
B1 C6 1_555 1_555
H37 B1 1_555 1_555
H38 B1 1_555 1_555
H39 B1 1_555 1_555
N3 C29 1_555 1_555
C28 H40 1_555 1_555
C29 H41 1_555 1_555
N4 C31 1_555 1_555
C30 C28 1_555 1_555
C31 C30 1_555 1_555
H42 C31 1_555 1_555
C32 C29 1_555 1_555
C33 C28 1_555 1_555
H43 C33 1_555 1_555
C34 C33 1_555 1_555
H44 C34 1_555 1_555
C35 C30 1_555 1_555
C36 H45 1_555 1_555
H46 C36 1_555 1_555
H47 C36 1_555 1_555
C37 N4 1_555 1_555
H48 C37 1_555 1_555
C38 H49 1_555 1_555
H50 C38 1_555 1_555
H51 C38 1_555 1_555
C39 N3 1_555 1_555
H52 C39 1_555 1_555
C40 C32 1_555 1_555
C41 C32 1_555 1_555
H53 C41 1_555 1_555
C42 C34 1_555 1_555
H54 C42 1_555 1_555
C43 H55 1_555 1_555
H56 C43 1_555 1_555
H57 C43 1_555 1_555
C44 H58 1_555 1_555
H59 C44 1_555 1_555
H60 C44 1_555 1_555
C45 C41 1_555 1_555
H61 C45 1_555 1_555
C46 C29 1_555 1_555
C47 C45 1_555 1_555
H62 C47 1_555 1_555
C48 C35 1_555 1_555
H63 C48 1_555 1_555
H64 C48 1_555 1_555
H65 C48 1_555 1_555
C49 C46 1_555 1_555
H66 C49 1_555 1_555
H67 C49 1_555 1_555
H68 C49 1_555 1_555
C50 C31 1_555 1_555
C51 C40 1_555 1_555
H69 C51 1_555 1_555
C52 C46 1_555 1_555
H70 C52 1_555 1_555
H71 C52 1_555 1_555
H72 C52 1_555 1_555
C53 C50 1_555 1_555
H73 C53 1_555 1_555
H74 C53 1_555 1_555
H75 C53 1_555 1_555
B2 C54 1_555 1_555
C54 N3 1_555 1_555
H76 B2 1_555 1_555
H77 B2 1_555 1_555
H78 B2 1_555 1_555
C55 H79 1_555 1_555
N5 C55 1_555 1_555
N6 C56 1_555 1_555
C56 H80 1_555 1_555
C57 C58 1_555 1_555
C58 C55 1_555 1_555
C59 H81 1_555 1_555
H82 C59 1_555 1_555
H83 C59 1_555 1_555
C60 C56 1_555 1_555
C61 C58 1_555 1_555
H84 C61 1_555 1_555
C62 C61 1_555 1_555
H85 C62 1_555 1_555
C63 C60 1_555 1_555
C64 N5 1_555 1_555
C65 N5 1_555 1_555
H86 C65 1_555 1_555
C66 C62 1_555 1_555
H87 C66 1_555 1_555
C67 C55 1_555 1_555
C68 C56 1_555 1_555
C69 N6 1_555 1_555
H88 C69 1_555 1_555
C70 C63 1_555 1_555
H89 C70 1_555 1_555
C71 C68 1_555 1_555
H90 C71 1_555 1_555
H91 C71 1_555 1_555
H92 C71 1_555 1_555
C72 C57 1_555 1_555
H93 C72 1_555 1_555
C73 C70 1_555 1_555
H94 C73 1_555 1_555
C74 C67 1_555 1_555
H95 C74 1_555 1_555
H96 C74 1_555 1_555
H97 C74 1_555 1_555
C75 C73 1_555 1_555
H98 C75 1_555 1_555
C76 C68 1_555 1_555
H99 C76 1_555 1_555
H100 C76 1_555 1_555
H101 C76 1_555 1_555
C77 C60 1_555 1_555
H102 C77 1_555 1_555
C78 C68 1_555 1_555
H103 C78 1_555 1_555
H104 C78 1_555 1_555
H105 C78 1_555 1_555
C79 C67 1_555 1_555
H106 C79 1_555 1_555
H107 C79 1_555 1_555
H108 C79 1_555 1_555
C80 C63 1_555 1_555
H109 C80 1_555 1_555
H110 C80 1_555 1_555
H111 C80 1_555 1_555
B3 C64 1_555 1_555
C81 C57 1_555 1_555
H112 C81 1_555 1_555
H113 C81 1_555 1_555
H114 C81 1_555 1_555
H115 B3 1_555 1_555
H116 B3 1_555 1_555
H117 B3 1_555 1_555
N2 C6 1_555 1_555
C4 C13 1_555 1_555
C7 C11 1_555 1_555
C12 C27 1_555 1_555
C14 C22 1_555 1_555
C16 C23 1_555 1_555
C18 C25 1_555 1_555
C20 C22 1_555 1_555
C21 C22 1_555 1_555
N4 C54 1_555 1_555
C35 C42 1_555 1_555
C36 C46 1_555 1_555
C37 C39 1_555 1_555
C38 C40 1_555 1_555
C43 C50 1_555 1_555
C44 C50 1_555 1_555
C47 C51 1_555 1_555
N6 C64 1_555 1_555
C59 C67 1_555 1_555
C65 C69 1_555 1_555
C66 C72 1_555 1_555
C75 C77 1_555 1_555

#END
