
#######################################################################
#
#                 Cambridge Crystallographic Data Centre
#                                CCDC 
#
#######################################################################
#
# If this CIF has been generated from an entry in the Cambridge 
# Structural Database, then it will include bibliographic, chemical, 
# crystal, experimental, refinement or atomic coordinate data resulting 
# from the CCDC's data processing and validation procedures.
#
#######################################################################

data_PEVWAO
_chemical_compound_source        'from Litsea cassiaefolia(Lauraceae)'
_chemical_name_common            Litseacassifolide
_chemical_formula_moiety         'C15 H20 O4'
_chemical_name_systematic        
(1aS-(1a\a,2a\b,6a\b,7a\a,9a\b))-1a,5,7a-Trimethyl-2,2a,6,6a,7a,8,9,9a-octahydro-bis(oxireno)-(4,5:8,9)-cyclodeca(1,2-b)furan-4(1aH)-one
_symmetry_cell_setting           orthorhombic
_symmetry_space_group_name_H-M   'P 21 21 21'
_symmetry_Int_Tables_number      19
_space_group_name_Hall           'P 2ac 2ab'
loop_
_symmetry_equiv_pos_site_id
_symmetry_equiv_pos_as_xyz
1 x,y,z
2 1/2+x,1/2-y,-z
3 -x,1/2+y,1/2-z
4 1/2-x,-y,1/2+z
_cell_length_a                   14.071(6)
_cell_length_b                   10.268(3)
_cell_length_c                   9.618(5)
_cell_angle_alpha                90
_cell_angle_beta                 90
_cell_angle_gamma                90
_cell_volume                     1389.62
_chemical_melting_point          '203-205 deg.C'
_cell_formula_units_Z            4
loop_
_atom_site_label
_atom_site_type_symbol
_atom_site_fract_x
_atom_site_fract_y
_atom_site_fract_z
C1 C 0.9248(4) 0.2501(7) 0.6176(7)
O1 O 0.9554(3) 0.3503(5) 0.5220(5)
C2 C 0.9588(5) 0.2461(9) 0.7629(8)
C3 C 0.9191(5) 0.1258(9) 0.834(1)
C4 C 0.8094(4) 0.1243(6) 0.8368(7)
O2 O 0.7681(3) -0.0035(5) 0.8355(6)
C5 C 0.7597(4) 0.0782(6) 0.7151(8)
C6 C 0.6598(4) 0.1166(6) 0.6756(9)
C7 C 0.6480(3) 0.2497(5) 0.6161(6)
C8 C 0.6842(4) 0.2916(6) 0.4775(7)
O3 O 0.6449(3) 0.4205(4) 0.4572(4)
C9 C 0.7920(4) 0.3005(7) 0.4445(7)
C10 C 0.8551(4) 0.3453(5) 0.5626(7)
C11 C 0.5898(4) 0.3419(5) 0.6648(6)
C12 C 0.5875(5) 0.4487(7) 0.5675(7)
O4 O 0.5427(3) 0.5490(5) 0.5698(6)
C13 C 0.5291(6) 0.3472(9) 0.7908(9)
C14 C 0.8277(5) 0.4628(7) 0.6427(9)
C15 C 0.7671(7) 0.215(1) 0.940(1)
H1 H 0.923(4) 0.168(6) 0.561(6)
H2 H 1.017(4) 0.238(5) 0.757(5)
H3 H 0.936(4) 0.333(6) 0.807(7)
H4 H 0.931(5) 0.047(6) 0.792(7)
H5 H 0.936(3) 0.108(5) 0.939(5)
H6 H 0.780(4) 0.034(5) 0.642(5)
H7 H 0.629(3) 0.109(5) 0.762(5)
H8 H 0.636(4) 0.056(6) 0.597(6)
H9 H 0.660(3) 0.223(4) 0.394(4)
H10 H 0.808(4) 0.215(6) 0.416(6)
H11 H 0.807(3) 0.360(5) 0.359(5)
H12 H 0.545(6) 0.437(9) 0.862(8)
H13 H 0.465(7) 0.354(9) 0.756(9)
H14 H 0.537(5) 0.274(7) 0.840(7)
H15 H 0.775(3) 0.448(4) 0.703(6)
H16 H 0.862(5) 0.488(6) 0.732(7)
H17 H 0.814(4) 0.519(6) 0.562(7)
H18 H 0.770(5) 0.300(7) 0.915(7)
H19 H 0.693(5) 0.227(7) 0.937(7)
H20 H 0.787(5) 0.183(7) 1.034(9)
loop_
_geom_bond_atom_site_label_1
_geom_bond_atom_site_label_2
_geom_bond_site_symmetry_1
_geom_bond_site_symmetry_2
C1 O1 1_555 1_555
O1 C10 1_555 1_555
C2 C1 1_555 1_555
C3 C2 1_555 1_555
C4 C3 1_555 1_555
O2 C4 1_555 1_555
C5 C4 1_555 1_555
C6 C5 1_555 1_555
C7 C6 1_555 1_555
C8 C7 1_555 1_555
O3 C8 1_555 1_555
C9 C8 1_555 1_555
C10 C1 1_555 1_555
C11 C7 1_555 1_555
C12 O3 1_555 1_555
O4 C12 1_555 1_555
C13 C11 1_555 1_555
C14 C10 1_555 1_555
C15 C4 1_555 1_555
H1 C1 1_555 1_555
H2 C2 1_555 1_555
H3 C2 1_555 1_555
H4 C3 1_555 1_555
H5 C3 1_555 1_555
H6 C5 1_555 1_555
H7 C6 1_555 1_555
H8 C6 1_555 1_555
H9 C8 1_555 1_555
H10 C9 1_555 1_555
H11 C9 1_555 1_555
H12 C13 1_555 1_555
H13 C13 1_555 1_555
H14 C13 1_555 1_555
H15 C14 1_555 1_555
H16 C14 1_555 1_555
H17 C14 1_555 1_555
H18 C15 1_555 1_555
H19 C15 1_555 1_555
H20 C15 1_555 1_555
O2 C5 1_555 1_555
C9 C10 1_555 1_555
C11 C12 1_555 1_555

#END
