
#######################################################################
#
#                 Cambridge Crystallographic Data Centre
#                                CCDC 
#
#######################################################################
#
# If this CIF has been generated from an entry in the Cambridge 
# Structural Database, then it will include bibliographic, chemical, 
# crystal, experimental, refinement or atomic coordinate data resulting 
# from the CCDC's data processing and validation procedures.
#
#######################################################################

data_PEVYOH
_chemical_formula_moiety         'C39 H31 N1 O4 S1'
_chemical_name_systematic        
'ethyl 5-((4-methylphenyl)sulfonyl)-7,12-diphenyl-5,6-dihydrobenzo[j]phenanthridine-10-carboxylate'
_symmetry_cell_setting           triclinic
_symmetry_space_group_name_H-M   'P -1'
_symmetry_Int_Tables_number      2
_space_group_name_Hall           '-P 1'
loop_
_symmetry_equiv_pos_site_id
_symmetry_equiv_pos_as_xyz
1 x,y,z
2 -x,-y,-z
_cell_length_a                   11.4463(7)
_cell_length_b                   14.1435(9)
_cell_length_c                   21.9753(14)
_cell_angle_alpha                97.5660(10)
_cell_angle_beta                 101.1080(10)
_cell_angle_gamma                109.0720(10)
_cell_volume                     3225.86
_exptl_crystal_colour            colorless
_exptl_crystal_description       block
_cell_formula_units_Z            4
loop_
_atom_site_label
_atom_site_type_symbol
_atom_site_fract_x
_atom_site_fract_y
_atom_site_fract_z
C1 C 0.97370(18) 0.31440(15) 0.06193(9)
C2 C 1.1034(2) 0.34035(18) 0.06679(10)
H1 H 1.1504 0.4019 0.0579
C3 C 1.1620(2) 0.2740(2) 0.08487(11)
H2 H 1.2493 0.2914 0.0889
C4 C 1.0922(2) 0.18242(19) 0.09692(11)
H3 H 1.1322 0.1378 0.1090
C5 C 0.9628(2) 0.15622(17) 0.09119(10)
H4 H 0.9161 0.0931 0.0984
C6 C 0.90096(18) 0.22258(15) 0.07484(9)
C7 C 0.76084(18) 0.19655(14) 0.06679(9)
C8 C 0.69023(18) 0.13418(14) 0.10001(9)
C9 C 0.55406(18) 0.10449(14) 0.08359(9)
C10 C 0.4754(2) 0.03600(15) 0.11358(10)
H5 H 0.5133 0.0125 0.1467
C11 C 0.3448(2) 0.00354(15) 0.09482(10)
C12 C 0.2861(2) 0.03996(16) 0.04615(11)
H6 H 0.1975 0.0167 0.0329
C13 C 0.35852(19) 0.10938(16) 0.01819(10)
H7 H 0.3184 0.1346 -0.0132
C14 C 0.49375(18) 0.14402(14) 0.03590(9)
C15 C 0.56998(18) 0.21743(14) 0.00726(9)
C16 C 0.70054(18) 0.24153(14) 0.02219(9)
C17 C 0.78473(18) 0.31943(16) -0.00626(9)
H8 H 0.7975 0.2849 -0.0442
H9 H 0.7424 0.3658 -0.0186
C18 C 0.8734(2) 0.46331(16) 0.14949(10)
C19 C 0.7442(3) 0.43007(18) 0.14368(12)
H10 H 0.6883 0.4242 0.1053
C20 C 0.6982(3) 0.4057(2) 0.19492(17)
H11 H 0.6107 0.3834 0.1911
C21 C 0.7794(4) 0.4135(2) 0.25216(16)
C22 C 0.9073(4) 0.4481(2) 0.25730(13)
H12 H 0.9630 0.4554 0.2960
C23 C 0.9562(3) 0.47254(19) 0.20631(12)
H13 H 1.0438 0.4949 0.2103
C24 C 0.7259(5) 0.3802(3) 0.30691(19)
H14 H 0.6490 0.3209 0.2910
H15 H 0.7073 0.4347 0.3289
H16 H 0.7875 0.3638 0.3356
C25 C 0.75042(18) 0.10226(15) 0.15660(9)
C26 C 0.7350(2) 0.00181(16) 0.15894(11)
H17 H 0.6865 -0.0500 0.1237
C27 C 0.7909(2) -0.0221(2) 0.21314(13)
H18 H 0.7807 -0.0899 0.2139
C28 C 0.8610(2) 0.0523(2) 0.26549(13)
H19 H 0.8982 0.0354 0.3019
C29 C 0.8766(2) 0.1522(2) 0.26444(12)
H20 H 0.9234 0.2031 0.3004
C30 C 0.8230(2) 0.17705(17) 0.21023(10)
H21 H 0.8357 0.2453 0.2096
C31 C 0.2691(2) -0.0715(2) 0.12651(13)
C32 C 0.0598(3) -0.1704(3) 0.1317(2)
H22 H 0.0646 -0.2370 0.1189
H23 H 0.0852 -0.1514 0.1776
C33 C -0.0623(4) -0.1744(4) 0.1101(3)
H24 H -0.0671 -0.1090 0.1244
H25 H -0.1194 -0.2255 0.1262
H26 H -0.0861 -0.1915 0.0646
C34 C 0.50793(18) 0.26774(15) -0.03695(10)
C35 C 0.4502(2) 0.33275(18) -0.01468(13)
H27 H 0.4520 0.3449 0.0282
C36 C 0.3901(3) 0.3797(2) -0.05457(17)
H28 H 0.3524 0.4235 -0.0387
C37 C 0.3864(3) 0.3616(2) -0.11726(18)
H29 H 0.3461 0.3933 -0.1442
C38 C 0.4413(3) 0.2970(2) -0.14133(13)
H30 H 0.4371 0.2844 -0.1845
C39 C 0.5031(2) 0.25063(18) -0.10104(11)
H31 H 0.5415 0.2078 -0.1172
N1 N 0.90938(15) 0.37862(12) 0.03807(7)
O1 O 0.85245(16) 0.53161(12) 0.04642(8)
O2 O 1.06572(15) 0.54272(12) 0.10379(8)
O3 O 0.31301(18) -0.10893(16) 0.16680(11)
O4 O 0.14554(16) -0.09434(17) 0.10506(10)
S1 S 0.93184(5) 0.48877(4) 0.08242(3)
C40 C 0.82215(17) 0.82347(15) 0.40412(9)
C41 C 0.90703(19) 0.85590(17) 0.36717(10)
H32 H 0.9693 0.9213 0.3792
C42 C 0.8988(2) 0.79131(19) 0.31284(11)
H33 H 0.9538 0.8136 0.2873
C43 C 0.8090(2) 0.69339(19) 0.29619(11)
H34 H 0.8054 0.6489 0.2601
C44 C 0.7243(2) 0.66117(17) 0.33289(10)
H35 H 0.6649 0.5946 0.3215
C45 C 0.72606(18) 0.72638(15) 0.38653(9)
C46 C 0.63499(18) 0.69589(14) 0.42718(9)
C47 C 0.51084(18) 0.62618(14) 0.40393(9)
C48 C 0.43511(19) 0.59534(14) 0.44790(9)
C49 C 0.3086(2) 0.52318(15) 0.42721(10)
H36 H 0.2714 0.4988 0.3840
C50 C 0.2395(2) 0.48829(15) 0.46968(11)
C51 C 0.2943(2) 0.52551(17) 0.53471(11)
H37 H 0.2496 0.4996 0.5636
C52 C 0.4123(2) 0.59908(17) 0.55582(11)
H38 H 0.4458 0.6249 0.5992
C53 C 0.48583(19) 0.63765(15) 0.51370(10)
C54 C 0.60829(19) 0.71736(15) 0.53524(9)
C55 C 0.68042(18) 0.74417(14) 0.49273(9)
C56 C 0.80944(19) 0.82890(15) 0.51315(10)
H39 H 0.8134 0.8751 0.5509
H40 H 0.8748 0.7999 0.5239
C57 C 0.64081(19) 0.95259(15) 0.42059(10)
C58 C 0.6092(2) 0.95486(17) 0.35713(11)
H41 H 0.6730 0.9771 0.3361
C59 C 0.4822(2) 0.92393(19) 0.32504(12)
H42 H 0.4611 0.9244 0.2821
C60 C 0.3864(2) 0.89234(19) 0.35560(14)
C61 C 0.4202(2) 0.89023(19) 0.41908(14)
H43 H 0.3564 0.8686 0.4402
C62 C 0.5452(2) 0.91921(17) 0.45165(12)
H44 H 0.5659 0.9165 0.4943
C63 C 0.2482(3) 0.8587(3) 0.32080(17)
H45 H 0.1989 0.8676 0.3504
H46 H 0.2178 0.7879 0.3002
H47 H 0.2394 0.8991 0.2896
C64 C 0.6529(2) 0.76899(15) 0.60413(10)
C65 C 0.5872(3) 0.8250(2) 0.62954(12)
H48 H 0.5192 0.8339 0.6033
C66 C 0.6228(4) 0.8670(2) 0.69335(14)
H49 H 0.5790 0.9049 0.7099
C67 C 0.7212(3) 0.8541(2) 0.73273(13)
H50 H 0.7435 0.8819 0.7760
C68 C 0.7864(3) 0.8006(2) 0.70865(12)
H51 H 0.8543 0.7924 0.7354
C69 C 0.7527(2) 0.75788(18) 0.64435(11)
H52 H 0.7983 0.7212 0.6284
C70 C 0.44793(18) 0.58811(15) 0.33503(10)
C71 C 0.4115(2) 0.48703(18) 0.30474(11)
H53 H 0.4294 0.4402 0.3274
C72 C 0.3490(3) 0.4550(2) 0.24138(13)
H54 H 0.3265 0.3872 0.2214
C73 C 0.3200(3) 0.5220(3) 0.20791(13)
H55 H 0.2778 0.5000 0.1651
C74 C 0.3527(3) 0.6215(3) 0.23705(14)
H56 H 0.3314 0.6669 0.2142
C75 C 0.4175(2) 0.65532(19) 0.30043(11)
H57 H 0.4407 0.7236 0.3198
C76 C 0.1070(2) 0.41443(17) 0.44529(13)
C77 C -0.0765(2) 0.3159(2) 0.47518(17)
H58 H -0.0845 0.2521 0.4491
H59 H -0.1318 0.3450 0.4515
C78 C -0.1121(3) 0.2978(3) 0.53505(19)
H60 H -0.0637 0.2616 0.5555
H61 H -0.2016 0.2579 0.5260
H62 H -0.0941 0.3623 0.5625
N2 N 0.83586(14) 0.88692(12) 0.46329(8)
O5 O 0.87675(13) 1.04969(11) 0.42644(8)
O6 O 0.81237(15) 1.03249(11) 0.52684(8)
O7 O 0.05169(17) 0.38199(15) 0.39020(9)
O8 O 0.05464(15) 0.38634(13) 0.49237(9)
S2 S 0.80108(5) 0.99068(4) 0.46241(3)
loop_
_geom_bond_atom_site_label_1
_geom_bond_atom_site_label_2
_geom_bond_site_symmetry_1
_geom_bond_site_symmetry_2
C1 C2 1_555 1_555
C2 H1 1_555 1_555
C3 C2 1_555 1_555
H2 C3 1_555 1_555
C4 C3 1_555 1_555
H3 C4 1_555 1_555
C5 C4 1_555 1_555
H4 C5 1_555 1_555
C6 C1 1_555 1_555
C7 C6 1_555 1_555
C8 C7 1_555 1_555
C9 C8 1_555 1_555
C10 C9 1_555 1_555
H5 C10 1_555 1_555
C11 C10 1_555 1_555
C12 C11 1_555 1_555
H6 C12 1_555 1_555
C13 C12 1_555 1_555
H7 C13 1_555 1_555
C14 C9 1_555 1_555
C15 C14 1_555 1_555
C16 C7 1_555 1_555
C17 C16 1_555 1_555
H8 C17 1_555 1_555
H9 C17 1_555 1_555
C18 C19 1_555 1_555
C19 H10 1_555 1_555
C20 C19 1_555 1_555
H11 C20 1_555 1_555
C21 C20 1_555 1_555
C22 C21 1_555 1_555
H12 C22 1_555 1_555
C23 C18 1_555 1_555
H13 C23 1_555 1_555
C24 C21 1_555 1_555
H14 C24 1_555 1_555
H15 C24 1_555 1_555
H16 C24 1_555 1_555
C25 C8 1_555 1_555
C26 C25 1_555 1_555
H17 C26 1_555 1_555
C27 C26 1_555 1_555
H18 C27 1_555 1_555
C28 C27 1_555 1_555
H19 C28 1_555 1_555
C29 C28 1_555 1_555
H20 C29 1_555 1_555
C30 C25 1_555 1_555
H21 C30 1_555 1_555
C31 C11 1_555 1_555
C32 H22 1_555 1_555
H23 C32 1_555 1_555
C33 C32 1_555 1_555
H24 C33 1_555 1_555
H25 C33 1_555 1_555
H26 C33 1_555 1_555
C34 C15 1_555 1_555
C35 C34 1_555 1_555
H27 C35 1_555 1_555
C36 C35 1_555 1_555
H28 C36 1_555 1_555
C37 C36 1_555 1_555
H29 C37 1_555 1_555
C38 C37 1_555 1_555
H30 C38 1_555 1_555
C39 C34 1_555 1_555
H31 C39 1_555 1_555
N1 C1 1_555 1_555
O1 S1 1_555 1_555
O2 S1 1_555 1_555
O3 C31 1_555 1_555
O4 C31 1_555 1_555
S1 C18 1_555 1_555
C40 C41 1_555 1_555
C41 H32 1_555 1_555
C42 C41 1_555 1_555
H33 C42 1_555 1_555
C43 C42 1_555 1_555
H34 C43 1_555 1_555
C44 C43 1_555 1_555
H35 C44 1_555 1_555
C45 C40 1_555 1_555
C46 C45 1_555 1_555
C47 C46 1_555 1_555
C48 C47 1_555 1_555
C49 C48 1_555 1_555
H36 C49 1_555 1_555
C50 C49 1_555 1_555
C51 C50 1_555 1_555
H37 C51 1_555 1_555
C52 C51 1_555 1_555
H38 C52 1_555 1_555
C53 C48 1_555 1_555
C54 C53 1_555 1_555
C55 C46 1_555 1_555
C56 C55 1_555 1_555
H39 C56 1_555 1_555
H40 C56 1_555 1_555
C57 C58 1_555 1_555
C58 H41 1_555 1_555
C59 C58 1_555 1_555
H42 C59 1_555 1_555
C60 C59 1_555 1_555
C61 C60 1_555 1_555
H43 C61 1_555 1_555
C62 C57 1_555 1_555
H44 C62 1_555 1_555
C63 C60 1_555 1_555
H45 C63 1_555 1_555
H46 C63 1_555 1_555
H47 C63 1_555 1_555
C64 C54 1_555 1_555
C65 C64 1_555 1_555
H48 C65 1_555 1_555
C66 C65 1_555 1_555
H49 C66 1_555 1_555
C67 C66 1_555 1_555
H50 C67 1_555 1_555
C68 C67 1_555 1_555
H51 C68 1_555 1_555
C69 C64 1_555 1_555
H52 C69 1_555 1_555
C70 C47 1_555 1_555
C71 C70 1_555 1_555
H53 C71 1_555 1_555
C72 C71 1_555 1_555
H54 C72 1_555 1_555
C73 C72 1_555 1_555
H55 C73 1_555 1_555
C74 C73 1_555 1_555
H56 C74 1_555 1_555
C75 C70 1_555 1_555
H57 C75 1_555 1_555
C76 C50 1_555 1_555
C77 H58 1_555 1_555
H59 C77 1_555 1_555
C78 C77 1_555 1_555
H60 C78 1_555 1_555
H61 C78 1_555 1_555
H62 C78 1_555 1_555
N2 C40 1_555 1_555
O5 S2 1_555 1_555
O6 S2 1_555 1_555
O7 C76 1_555 1_555
O8 C76 1_555 1_555
S2 C57 1_555 1_555
C5 C6 1_555 1_555
C13 C14 1_555 1_555
C15 C16 1_555 1_555
C17 N1 1_555 1_555
C22 C23 1_555 1_555
C29 C30 1_555 1_555
C32 O4 1_555 1_555
C38 C39 1_555 1_555
N1 S1 1_555 1_555
C44 C45 1_555 1_555
C52 C53 1_555 1_555
C54 C55 1_555 1_555
C56 N2 1_555 1_555
C61 C62 1_555 1_555
C68 C69 1_555 1_555
C74 C75 1_555 1_555
C77 O8 1_555 1_555
N2 S2 1_555 1_555

#END
