
#######################################################################
#
#                 Cambridge Crystallographic Data Centre
#                                CCDC 
#
#######################################################################
#
# If this CIF has been generated from an entry in the Cambridge 
# Structural Database, then it will include bibliographic, chemical, 
# crystal, experimental, refinement or atomic coordinate data resulting 
# from the CCDC's data processing and validation procedures.
#
#######################################################################

data_PEWGUT
_chemical_formula_moiety         'C17 H16 N2 O3 S1'
_chemical_name_systematic        
6-Hydroxy-2-methyl-8-p-toluenesulfonamidoquinoline
_symmetry_cell_setting           monoclinic
_symmetry_space_group_name_H-M   'P 21/n'
_symmetry_Int_Tables_number      14
_space_group_name_Hall           '-P 2yn'
loop_
_symmetry_equiv_pos_site_id
_symmetry_equiv_pos_as_xyz
1 x,y,z
2 1/2-x,1/2+y,1/2-z
3 -x,-y,-z
4 1/2+x,1/2-y,1/2+z
_cell_length_a                   9.472(1)
_cell_length_b                   11.546(4)
_cell_length_c                   14.917(3)
_cell_angle_alpha                90
_cell_angle_beta                 105.28(1)
_cell_angle_gamma                90
_cell_volume                     1573.71
_exptl_crystal_colour            colorless
_chemical_melting_point          '452-455 K'
_cell_formula_units_Z            4
loop_
_atom_site_label
_atom_site_type_symbol
_atom_site_fract_x
_atom_site_fract_y
_atom_site_fract_z
S1 S 0.08811(8) 0.28129(7) 0.38111(6)
O1 O 0.14206(27) 0.03993(21) 0.08339(16)
O2 O -0.03976(22) 0.22984(23) 0.32022(16)
O3 O 0.07241(28) 0.37191(21) 0.44277(17)
N1 N 0.46545(25) 0.39197(20) 0.29760(16)
N2 N 0.18962(31) 0.33706(24) 0.31877(20)
C1 C 0.59820(34) 0.41621(26) 0.28860(21)
C2 C 0.68943(49) 0.50329(44) 0.35312(36)
C3 C 0.65344(37) 0.36137(29) 0.21985(23)
C4 C 0.57349(35) 0.28160(29) 0.16277(24)
C5 C 0.43483(33) 0.24949(24) 0.17180(20)
C6 C 0.35176(38) 0.15984(27) 0.11832(22)
C7 C 0.22199(35) 0.12871(26) 0.13456(21)
C8 C 0.16788(37) 0.18654(26) 0.20128(23)
C9 C 0.24499(32) 0.27552(25) 0.25334(21)
C10 C 0.38417(30) 0.30786(23) 0.24086(19)
C11 C 0.19112(30) 0.16911(25) 0.44670(19)
C12 C 0.13964(39) 0.05816(29) 0.43994(23)
C13 C 0.21808(50) -0.02660(34) 0.49795(27)
C14 C 0.34705(41) -0.00202(33) 0.56198(23)
C15 C 0.43013(93) -0.09351(66) 0.62806(47)
C16 C 0.39927(41) 0.10957(35) 0.56628(25)
C17 C 0.32323(35) 0.19588(29) 0.51008(24)
H1 H 0.0819(61) -0.0068(48) 0.1163(38)
H2 H 0.2423(38) 0.3940(31) 0.3467(24)
H3 H 0.7785(50) 0.4783(39) 0.3698(30)
H4 H 0.6515(45) 0.5167(37) 0.4092(31)
H5 H 0.6984(51) 0.5710(45) 0.3273(35)
H6 H 0.7481(36) 0.3803(25) 0.2166(20)
H7 H 0.6140(36) 0.2455(30) 0.1208(24)
H8 H 0.3943(30) 0.1266(25) 0.0658(21)
H9 H 0.0788(39) 0.1638(27) 0.2118(23)
H10 H 0.0431(37) 0.0467(30) 0.3940(24)
H11 H 0.1847(42) -0.1049(38) 0.4903(28)
H12 H 0.3820(70) -0.1125(61) 0.6714(49)
H13 H 0.5198(80) -0.0501(69) 0.6621(52)
H14 H 0.4098(66) -0.1590(56) 0.5975(45)
H15 H 0.4940(43) 0.1317(32) 0.6061(27)
H16 H 0.3647(35) 0.2788(29) 0.5134(24)
loop_
_geom_bond_atom_site_label_1
_geom_bond_atom_site_label_2
_geom_bond_site_symmetry_1
_geom_bond_site_symmetry_2
S1 O2 1_555 1_555
O1 C7 1_555 1_555
O3 S1 1_555 1_555
N1 C1 1_555 1_555
N2 S1 1_555 1_555
C1 C2 1_555 1_555
C2 H3 1_555 1_555
C3 C1 1_555 1_555
C4 C3 1_555 1_555
C5 C4 1_555 1_555
C6 C5 1_555 1_555
C7 C6 1_555 1_555
C8 C7 1_555 1_555
C9 N2 1_555 1_555
C10 N1 1_555 1_555
C11 S1 1_555 1_555
C12 C11 1_555 1_555
C13 C12 1_555 1_555
C14 C13 1_555 1_555
C15 C14 1_555 1_555
C16 C14 1_555 1_555
C17 C11 1_555 1_555
H1 O1 1_555 1_555
H2 N2 1_555 1_555
H4 C2 1_555 1_555
H5 C2 1_555 1_555
H6 C3 1_555 1_555
H7 C4 1_555 1_555
H8 C6 1_555 1_555
H9 C8 1_555 1_555
H10 C12 1_555 1_555
H11 C13 1_555 1_555
H12 C15 1_555 1_555
H13 C15 1_555 1_555
H14 C15 1_555 1_555
H15 C16 1_555 1_555
H16 C17 1_555 1_555
C5 C10 1_555 1_555
C8 C9 1_555 1_555
C9 C10 1_555 1_555
C16 C17 1_555 1_555

#END
