
#######################################################################
#
#                 Cambridge Crystallographic Data Centre
#                                CCDC 
#
#######################################################################
#
# If this CIF has been generated from an entry in the Cambridge 
# Structural Database, then it will include bibliographic, chemical, 
# crystal, experimental, refinement or atomic coordinate data resulting 
# from the CCDC's data processing and validation procedures.
#
#######################################################################

data_PEWHUW
_chemical_formula_moiety         'C11 H11 Cl1 N2'
_chemical_name_systematic        
([(1Z)-3-Chloro-1H-isoindol-1-ylidene]methyl)dimethylamine
_symmetry_cell_setting           monoclinic
_symmetry_space_group_name_H-M   'P 21/c'
_symmetry_Int_Tables_number      14
_space_group_name_Hall           '-P 2ybc'
loop_
_symmetry_equiv_pos_site_id
_symmetry_equiv_pos_as_xyz
1 x,y,z
2 -x,1/2+y,1/2-z
3 -x,-y,-z
4 x,1/2-y,1/2+z
_cell_length_a                   12.1588(9)
_cell_length_b                   10.4087(8)
_cell_length_c                   16.3165(12)
_cell_angle_alpha                90
_cell_angle_beta                 92.7200(10)
_cell_angle_gamma                90
_cell_volume                     2062.65
_exptl_crystal_colour            colorless
_exptl_crystal_description       block
_cell_formula_units_Z            8
loop_
_atom_site_label
_atom_site_type_symbol
_atom_site_fract_x
_atom_site_fract_y
_atom_site_fract_z
C1 C 0.10344(14) 0.95021(15) 0.17664(10)
H1 H 0.0995 1.0308 0.1520
C2 C 0.09492(15) 0.93661(16) 0.25997(10)
H2 H 0.0855 1.0090 0.2923
C3 C 0.10025(14) 0.81523(16) 0.29649(10)
H3 H 0.0948 0.8086 0.3530
C4 C 0.11330(13) 0.70544(15) 0.25124(9)
H4 H 0.1158 0.6253 0.2764
C5 C 0.12269(12) 0.71688(14) 0.16626(9)
C6 C 0.11816(12) 0.83963(14) 0.13021(9)
C7 C 0.13229(13) 0.81558(14) 0.04517(9)
C8 C 0.13736(12) 0.62763(14) 0.09977(9)
C9 C 0.14062(12) 0.49581(14) 0.10851(9)
H5 H 0.1383 0.4670 0.1624
C10 C 0.14543(16) 0.26882(15) 0.07727(12)
H6 H 0.1493 0.2628 0.1360
H7 H 0.2076 0.2257 0.0557
H8 H 0.0787 0.2292 0.0560
C11 C 0.14694(16) 0.42637(17) -0.03484(10)
H9 H 0.1402 0.5168 -0.0454
H10 H 0.0862 0.3819 -0.0618
H11 H 0.2147 0.3955 -0.0554
Cl1 Cl 0.13909(4) 0.93494(4) -0.02823(2)
N1 N 0.14301(11) 0.69544(12) 0.02584(8)
N2 N 0.14649(11) 0.40346(12) 0.05304(8)
C12 C 0.59631(16) 1.03344(17) 0.23675(11)
H12 H 0.6607 1.0464 0.2688
C13 C 0.50202(19) 1.1010(2) 0.25156(13)
H13 H 0.5023 1.1603 0.2942
C14 C 0.40623(19) 1.0810(2) 0.20311(14)
H14 H 0.3431 1.1266 0.2149
C15 C 0.40161(16) 0.9966(2) 0.13874(13)
H15 H 0.3371 0.9864 0.1065
C16 C 0.49652(14) 0.92593(16) 0.12242(10)
C17 C 0.59264(14) 0.94515(15) 0.17246(10)
C18 C 0.66982(13) 0.85782(16) 0.13977(10)
C19 C 0.52280(14) 0.82944(16) 0.06357(10)
C20 C 0.45005(15) 0.78325(18) 0.00284(11)
H16 H 0.3807 0.8210 0.0022
C21 C 0.56360(18) 0.6267(2) -0.06552(14)
H17 H 0.6006 0.6639 -0.1105
H18 H 0.5476 0.5381 -0.0772
H19 H 0.6100 0.6327 -0.0164
C22 C 0.37124(18) 0.6668(2) -0.11346(14)
H20 H 0.3079 0.7170 -0.1011
H21 H 0.3533 0.5771 -0.1107
H22 H 0.3931 0.6873 -0.1677
Cl2 Cl 0.80400(4) 0.83930(5) 0.17864(3)
N3 N 0.63250(11) 0.79025(14) 0.07737(8)
N4 N 0.46144(13) 0.69555(17) -0.05409(10)
loop_
_geom_bond_atom_site_label_1
_geom_bond_atom_site_label_2
_geom_bond_site_symmetry_1
_geom_bond_site_symmetry_2
C1 H1 1_555 1_555
C2 C1 1_555 1_555
H2 C2 1_555 1_555
C3 C2 1_555 1_555
H3 C3 1_555 1_555
C4 C3 1_555 1_555
H4 C4 1_555 1_555
C5 C4 1_555 1_555
C6 C1 1_555 1_555
C7 C6 1_555 1_555
C8 C5 1_555 1_555
C9 C8 1_555 1_555
H5 C9 1_555 1_555
C10 H6 1_555 1_555
H7 C10 1_555 1_555
H8 C10 1_555 1_555
C11 H9 1_555 1_555
H10 C11 1_555 1_555
H11 C11 1_555 1_555
Cl1 C7 1_555 1_555
N1 C7 1_555 1_555
N2 C9 1_555 1_555
C12 H12 1_555 1_555
C13 C12 1_555 1_555
H13 C13 1_555 1_555
C14 C13 1_555 1_555
H14 C14 1_555 1_555
C15 C14 1_555 1_555
H15 C15 1_555 1_555
C16 C15 1_555 1_555
C17 C12 1_555 1_555
C18 C17 1_555 1_555
C19 C16 1_555 1_555
C20 C19 1_555 1_555
H16 C20 1_555 1_555
C21 H17 1_555 1_555
H18 C21 1_555 1_555
H19 C21 1_555 1_555
C22 H20 1_555 1_555
H21 C22 1_555 1_555
H22 C22 1_555 1_555
Cl2 C18 1_555 1_555
N3 C18 1_555 1_555
N4 C20 1_555 1_555
C5 C6 1_555 1_555
C8 N1 1_555 1_555
C10 N2 1_555 1_555
C11 N2 1_555 1_555
C16 C17 1_555 1_555
C19 N3 1_555 1_555
C21 N4 1_555 1_555
C22 N4 1_555 1_555

#END
