
#######################################################################
#
#                 Cambridge Crystallographic Data Centre
#                                CCDC 
#
#######################################################################
#
# If this CIF has been generated from an entry in the Cambridge 
# Structural Database, then it will include bibliographic, chemical, 
# crystal, experimental, refinement or atomic coordinate data resulting 
# from the CCDC's data processing and validation procedures.
#
#######################################################################

data_PEWHIK
_chemical_formula_moiety         'C17 H11 F3 O1'
_chemical_name_systematic        2-Phenyl-4-(trifluoromethyl)-1-benzoxepine
_symmetry_cell_setting           monoclinic
_symmetry_space_group_name_H-M   'P 21/c'
_symmetry_Int_Tables_number      14
_space_group_name_Hall           '-P 2ybc'
loop_
_symmetry_equiv_pos_site_id
_symmetry_equiv_pos_as_xyz
1 x,y,z
2 -x,1/2+y,1/2-z
3 -x,-y,-z
4 x,1/2-y,1/2+z
_cell_length_a                   12.982(5)
_cell_length_b                   5.832(2)
_cell_length_c                   18.908(7)
_cell_angle_alpha                90
_cell_angle_beta                 105.818(8)
_cell_angle_gamma                90
_cell_volume                     1377.33
_exptl_crystal_colour            yellow
_exptl_crystal_description       prism
_cell_formula_units_Z            4
loop_
_atom_site_label
_atom_site_type_symbol
_atom_site_fract_x
_atom_site_fract_y
_atom_site_fract_z
F1 F 0.1293(10) -0.247(3) 0.4610(5)
F2 F 0.2989(10) -0.241(2) 0.4857(6)
F3 F 0.2186(8) 0.031(2) 0.5108(5)
O1 O 0.19878(12) 0.3589(2) 0.28762(9)
C1 C 0.3666(2) 0.6508(4) 0.29199(15)
H1 H 0.3022 0.6625 0.2555
C2 C 0.4465(2) 0.8099(5) 0.29459(18)
H2 H 0.4354 0.9274 0.2601
C3 C 0.5419(3) 0.7951(5) 0.34781(19)
H3 H 0.5953 0.9033 0.3498
C4 C 0.5585(3) 0.6211(6) 0.39794(19)
H4 H 0.6236 0.6103 0.4338
C5 C 0.4791(2) 0.4604(6) 0.39580(17)
H5 H 0.4915 0.3423 0.4301
C6 C 0.38094(19) 0.4738(4) 0.34293(13)
C7 C 0.29398(18) 0.3111(4) 0.34148(12)
C8 C 0.2964(2) 0.1396(4) 0.38911(13)
H6 H 0.3592 0.1210 0.4267
C9 C 0.21000(19) -0.0192(4) 0.38722(13)
C10 C 0.13428(19) -0.0878(4) 0.32744(13)
H7 H 0.0823 -0.1879 0.3347
C11 C 0.12642(16) -0.0190(4) 0.25204(12)
C12 C 0.16577(17) 0.1883(4) 0.23421(12)
C13 C 0.1641(2) 0.2417(5) 0.16272(14)
H8 H 0.1927 0.3796 0.1521
C14 C 0.1194(2) 0.0879(5) 0.10710(14)
H9 H 0.1180 0.1222 0.0588
C15 C 0.0771(2) -0.1153(5) 0.12300(15)
H10 H 0.0464 -0.2176 0.0854
C16 C 0.08004(19) -0.1675(4) 0.19424(14)
H11 H 0.0505 -0.3049 0.2043
C17 C 0.2114(3) -0.1243(5) 0.45977(16)
F4? F 0.1674(10) -0.3211(13) 0.4538(5)
F5? F 0.3048(8) -0.162(3) 0.5026(7)
F6? F 0.1573(14) -0.0047(19) 0.4957(6)
loop_
_geom_bond_atom_site_label_1
_geom_bond_atom_site_label_2
_geom_bond_site_symmetry_1
_geom_bond_site_symmetry_2
F1 C17 1_555 1_555
F2 C17 1_555 1_555
F3 C17 1_555 1_555
O1 C7 1_555 1_555
C1 H1 1_555 1_555
C2 C1 1_555 1_555
H2 C2 1_555 1_555
C3 C2 1_555 1_555
H3 C3 1_555 1_555
C4 C3 1_555 1_555
H4 C4 1_555 1_555
C5 C4 1_555 1_555
H5 C5 1_555 1_555
C6 C1 1_555 1_555
C7 C6 1_555 1_555
C8 C7 1_555 1_555
H6 C8 1_555 1_555
C9 C8 1_555 1_555
C10 C9 1_555 1_555
H7 C10 1_555 1_555
C11 C10 1_555 1_555
C12 O1 1_555 1_555
C13 C12 1_555 1_555
H8 C13 1_555 1_555
C14 C13 1_555 1_555
H9 C14 1_555 1_555
C15 C14 1_555 1_555
H10 C15 1_555 1_555
C16 C11 1_555 1_555
H11 C16 1_555 1_555
C17 C9 1_555 1_555
C5 C6 1_555 1_555
C11 C12 1_555 1_555
C15 C16 1_555 1_555

#END
