
#######################################################################
#
#                 Cambridge Crystallographic Data Centre
#                                CCDC 
#
#######################################################################
#
# If this CIF has been generated from an entry in the Cambridge 
# Structural Database, then it will include bibliographic, chemical, 
# crystal, experimental, refinement or atomic coordinate data resulting 
# from the CCDC's data processing and validation procedures.
#
#######################################################################

data_PEWLEL
_chemical_formula_moiety         'C20 H17 N3 S2'
_chemical_name_systematic        
'benzyl 2-(phenyl(pyridin-2-yl)methylene)hydrazinecarbodithioate'
_symmetry_cell_setting           monoclinic
_symmetry_space_group_name_H-M   'P 21/c'
_symmetry_Int_Tables_number      14
_space_group_name_Hall           '-P 2ybc'
loop_
_symmetry_equiv_pos_site_id
_symmetry_equiv_pos_as_xyz
1 x,y,z
2 -x,1/2+y,1/2-z
3 -x,-y,-z
4 x,1/2-y,1/2+z
_cell_length_a                   12.3607(19)
_cell_length_b                   12.599(2)
_cell_length_c                   11.7952(19)
_cell_angle_alpha                90
_cell_angle_beta                 90.588(3)
_cell_angle_gamma                90
_cell_volume                     1836.8
_exptl_crystal_colour            yellow
_exptl_crystal_description       stick
_cell_formula_units_Z            4
loop_
_atom_site_label
_atom_site_type_symbol
_atom_site_fract_x
_atom_site_fract_y
_atom_site_fract_z
S1 S 0.62597(7) 1.00883(6) 1.07317(7)
S2 S 0.78396(9) 1.01275(8) 1.27387(8)
N1 N 0.8232(2) 0.9413(2) 1.0712(2)
H1 H 0.8858 0.9228 1.0968
N2 N 0.79712(19) 0.9242(2) 0.9598(2)
N3 N 1.0158(2) 0.8578(2) 1.0310(2)
C1 C 0.6151(3) 1.2586(3) 1.2578(3)
H2 H 0.6340 1.2237 1.3246
C2 C 0.6320(3) 1.3660(3) 1.2490(4)
H3 H 0.6622 1.4033 1.3095
C3 C 0.6042(3) 1.4179(3) 1.1511(4)
H4 H 0.6159 1.4905 1.1446
C4 C 0.5590(3) 1.3623(3) 1.0627(3)
H5 H 0.5399 1.3974 0.9961
C5 C 0.5419(3) 1.2561(3) 1.0722(3)
H6 H 0.5102 1.2195 1.0120
C6 C 0.5706(2) 1.2018(2) 1.1692(2)
C7 C 0.5526(2) 1.0844(3) 1.1773(3)
H7 H 0.4759 1.0700 1.1681
H8 H 0.5742 1.0606 1.2524
C8 C 0.7521(3) 0.9867(2) 1.1404(3)
C9 C 0.8669(2) 0.8754(2) 0.8963(2)
C10 C 0.8305(2) 0.8627(2) 0.7751(2)
C11 C 0.7340(3) 0.8111(3) 0.7496(3)
H9 H 0.6914 0.7839 0.8073
C12 C 0.7018(3) 0.8007(3) 0.6375(3)
H10 H 0.6389 0.7633 0.6199
C13 C 0.7606(4) 0.8443(4) 0.5528(3)
H11 H 0.7364 0.8392 0.4781
C14 C 0.8553(4) 0.8956(3) 0.5771(3)
H12 H 0.8957 0.9248 0.5188
C15 C 0.8914(3) 0.9042(3) 0.6884(3)
H13 H 0.9567 0.9379 0.7046
C16 C 0.9717(2) 0.8271(2) 0.9309(3)
C17 C 1.0196(3) 0.7507(3) 0.8641(3)
H14 H 0.9885 0.7315 0.7950
C18 C 1.1142(3) 0.7031(4) 0.9011(4)
H15 H 1.1463 0.6497 0.8587
C19 C 1.1597(3) 0.7360(4) 1.0009(4)
H16 H 1.2250 0.7074 1.0262
C20 C 1.1082(3) 0.8112(4) 1.0628(3)
H17 H 1.1393 0.8315 1.1316
loop_
_geom_bond_atom_site_label_1
_geom_bond_atom_site_label_2
_geom_bond_site_symmetry_1
_geom_bond_site_symmetry_2
S1 C7 1_555 1_555
S2 C8 1_555 1_555
N1 H1 1_555 1_555
N2 N1 1_555 1_555
N3 C16 1_555 1_555
C1 H2 1_555 1_555
C2 C1 1_555 1_555
H3 C2 1_555 1_555
C3 C2 1_555 1_555
H4 C3 1_555 1_555
C4 C3 1_555 1_555
H5 C4 1_555 1_555
C5 C4 1_555 1_555
H6 C5 1_555 1_555
C6 C1 1_555 1_555
C7 C6 1_555 1_555
H7 C7 1_555 1_555
H8 C7 1_555 1_555
C8 S1 1_555 1_555
C9 N2 1_555 1_555
C10 C9 1_555 1_555
C11 C10 1_555 1_555
H9 C11 1_555 1_555
C12 C11 1_555 1_555
H10 C12 1_555 1_555
C13 C12 1_555 1_555
H11 C13 1_555 1_555
C14 C13 1_555 1_555
H12 C14 1_555 1_555
C15 C10 1_555 1_555
H13 C15 1_555 1_555
C16 C9 1_555 1_555
C17 C16 1_555 1_555
H14 C17 1_555 1_555
C18 C17 1_555 1_555
H15 C18 1_555 1_555
C19 C18 1_555 1_555
H16 C19 1_555 1_555
C20 N3 1_555 1_555
H17 C20 1_555 1_555
N1 C8 1_555 1_555
C5 C6 1_555 1_555
C14 C15 1_555 1_555
C19 C20 1_555 1_555

#END
