
#######################################################################
#
#                 Cambridge Crystallographic Data Centre
#                                CCDC 
#
#######################################################################
#
# If this CIF has been generated from an entry in the Cambridge 
# Structural Database, then it will include bibliographic, chemical, 
# crystal, experimental, refinement or atomic coordinate data resulting 
# from the CCDC's data processing and validation procedures.
#
#######################################################################

data_PEWRUG
_chemical_formula_moiety         'C14 H13 Cl1 I1 N1 O2'
_chemical_name_systematic        
4-Chloro-3-(1-(3-iodopropanoyl)cyclopropyl)-1,3-dihydro-2H-indol-2-one
_symmetry_cell_setting           monoclinic
_symmetry_space_group_name_H-M   'P 21/c'
_symmetry_Int_Tables_number      14
_space_group_name_Hall           '-P 2ybc'
loop_
_symmetry_equiv_pos_site_id
_symmetry_equiv_pos_as_xyz
1 x,y,z
2 -x,1/2+y,1/2-z
3 -x,-y,-z
4 x,1/2-y,1/2+z
_cell_length_a                   9.6909(5)
_cell_length_b                   15.7393(8)
_cell_length_c                   9.9721(6)
_cell_angle_alpha                90
_cell_angle_beta                 111.376(1)
_cell_angle_gamma                90
_cell_volume                     1416.39
_exptl_crystal_colour            colorless
_exptl_crystal_description       needle
_cell_formula_units_Z            4
loop_
_atom_site_label
_atom_site_type_symbol
_atom_site_fract_x
_atom_site_fract_y
_atom_site_fract_z
I1 I 1.15919(3) 0.16121(2) 0.33776(3)
Cl1 Cl 0.84237(12) -0.05104(6) 0.21437(11)
O1 O 0.4190(3) 0.21843(19) 0.1542(3)
O2 O 0.7863(3) 0.22662(15) 0.2167(2)
N1 N 0.4836(3) 0.17607(19) -0.0353(3)
C1 C 0.6512(3) 0.07170(18) 0.0653(3)
C2 C 0.7550(3) 0.0121(2) 0.0645(3)
C3 C 0.7914(4) 0.0012(3) -0.0576(4)
H1 H 0.8623 -0.0387 -0.0575
C4 C 0.7217(5) 0.0497(3) -0.1777(4)
H2 H 0.7469 0.0422 -0.2584
C5 C 0.6153(5) 0.1093(2) -0.1824(4)
H3 H 0.5676 0.1414 -0.2648
C6 C 0.5833(4) 0.11915(19) -0.0594(3)
C7 C 0.4865(3) 0.1721(2) 0.1007(4)
C8 C 0.5876(3) 0.09805(19) 0.1766(3)
H4 H 0.5246 0.0517 0.1867
C9 C 0.6943(3) 0.12116(19) 0.3254(3)
C10 C 0.6331(4) 0.1249(3) 0.4470(4)
H5 H 0.6734 0.1676 0.5211
H6 H 0.5287 0.1126 0.4229
C11 C 0.7316(5) 0.0534(2) 0.4421(4)
H7 H 0.6868 -0.0022 0.4153
H8 H 0.8314 0.0528 0.5135
C12 C 0.8026(3) 0.1885(2) 0.3267(3)
C13 C 0.9281(4) 0.2121(3) 0.4649(4)
H9 H 0.8921 0.2530 0.5172
H10 H 0.9594 0.1618 0.5245
C14 C 1.0584(4) 0.2490(3) 0.4397(4)
H11 H 1.1316 0.2665 0.5312
H12 H 1.0270 0.2991 0.3797
H13 H 0.437(5) 0.209(3) -0.090(5)
loop_
_geom_bond_atom_site_label_1
_geom_bond_atom_site_label_2
_geom_bond_site_symmetry_1
_geom_bond_site_symmetry_2
I1 C14 1_555 1_555
Cl1 C2 1_555 1_555
O1 C7 1_555 1_555
O2 C12 1_555 1_555
N1 C6 1_555 1_555
C1 C2 1_555 1_555
C2 C3 1_555 1_555
C3 H1 1_555 1_555
C4 C3 1_555 1_555
H2 C4 1_555 1_555
C5 C4 1_555 1_555
H3 C5 1_555 1_555
C6 C1 1_555 1_555
C7 N1 1_555 1_555
C8 C1 1_555 1_555
H4 C8 1_555 1_555
C9 C8 1_555 1_555
C10 C9 1_555 1_555
H5 C10 1_555 1_555
H6 C10 1_555 1_555
C11 C9 1_555 1_555
H7 C11 1_555 1_555
H8 C11 1_555 1_555
C12 C9 1_555 1_555
C13 C12 1_555 1_555
H9 C13 1_555 1_555
H10 C13 1_555 1_555
C14 C13 1_555 1_555
H11 C14 1_555 1_555
H12 C14 1_555 1_555
H13 N1 1_555 1_555
C5 C6 1_555 1_555
C7 C8 1_555 1_555
C10 C11 1_555 1_555

#END
