
#######################################################################
#
#                 Cambridge Crystallographic Data Centre
#                                CCDC 
#
#######################################################################
#
# If this CIF has been generated from an entry in the Cambridge 
# Structural Database, then it will include bibliographic, chemical, 
# crystal, experimental, refinement or atomic coordinate data resulting 
# from the CCDC's data processing and validation procedures.
#
#######################################################################

data_PEWSAN
_chemical_formula_moiety         'C16 H17 N1 O3'
_chemical_name_systematic        
N-(2-(8-Oxo-7-oxadispiro[2.0.2.3]non-9-yl)phenyl)acetamide
_symmetry_cell_setting           orthorhombic
_symmetry_space_group_name_H-M   'P b c a'
_symmetry_Int_Tables_number      61
_space_group_name_Hall           '-P 2ac 2ab'
loop_
_symmetry_equiv_pos_site_id
_symmetry_equiv_pos_as_xyz
1 x,y,z
2 1/2-x,-y,1/2+z
3 -x,1/2+y,1/2-z
4 1/2+x,1/2-y,-z
5 -x,-y,-z
6 1/2+x,y,1/2-z
7 x,1/2-y,1/2+z
8 1/2-x,1/2+y,z
_cell_length_a                   9.2655(7)
_cell_length_b                   9.3737(7)
_cell_length_c                   33.083(3)
_cell_angle_alpha                90
_cell_angle_beta                 90
_cell_angle_gamma                90
_cell_volume                     2873.33
_exptl_crystal_colour            colorless
_exptl_crystal_description       plate
_cell_formula_units_Z            8
loop_
_atom_site_label
_atom_site_type_symbol
_atom_site_fract_x
_atom_site_fract_y
_atom_site_fract_z
O1 O 0.00099(18) 0.50220(13) 0.15793(4)
O2 O 0.05920(12) 0.35407(11) 0.20793(3)
O3 O 0.16721(12) -0.07283(10) 0.06160(4)
N1 N 0.16474(13) 0.16848(12) 0.06431(3)
C1 C -0.18562(17) 0.27317(19) 0.10939(5)
H1 H -0.2223 0.3075 0.1337
C2 C -0.27646(19) 0.2572(2) 0.07676(7)
H2 H -0.3730 0.2835 0.0788
C3 C -0.2239(2) 0.2021(2) 0.04104(6)
H3 H -0.2861 0.1874 0.0194
C4 C -0.07990(18) 0.16857(17) 0.03729(5)
H4 H -0.0446 0.1327 0.0130
C5 C 0.01279(15) 0.18850(13) 0.06988(4)
C6 C -0.03929(14) 0.23867(14) 0.10661(4)
C7 C 0.05769(14) 0.25145(14) 0.14296(4)
H5 H 0.1575 0.2538 0.1332
C8 C 0.03385(17) 0.38498(16) 0.16843(4)
C9 C 0.10512(15) 0.20730(16) 0.21146(4)
C10 C 0.11652(19) 0.1483(2) 0.25268(5)
H6 H 0.0934 0.0483 0.2565
H7 H 0.0906 0.2099 0.2751
C11 C 0.25138(18) 0.1845(2) 0.22905(5)
H8 H 0.3060 0.2680 0.2372
H9 H 0.3088 0.1063 0.2186
C12 C 0.04787(16) 0.13453(15) 0.17474(4)
C13 C 0.0679(2) -0.02001(18) 0.16611(6)
H10 H 0.1203 -0.0765 0.1858
H11 H 0.0827 -0.0482 0.1382
C14 C -0.0788(2) 0.03439(18) 0.17780(6)
H12 H -0.1145 0.0111 0.2046
H13 H -0.1521 0.0395 0.1569
C15 C 0.23108(15) 0.04251(13) 0.05968(4)
C16 C 0.39078(18) 0.05212(17) 0.05264(6)
H14 H 0.4299 -0.0421 0.0496
H15 H 0.4357 0.0983 0.0753
H16 H 0.4089 0.1063 0.0285
H17 H 0.2172(19) 0.245(2) 0.0631(5)
loop_
_geom_bond_atom_site_label_1
_geom_bond_atom_site_label_2
_geom_bond_site_symmetry_1
_geom_bond_site_symmetry_2
O1 C8 1_555 1_555
O2 C8 1_555 1_555
O3 C15 1_555 1_555
N1 C5 1_555 1_555
C1 H1 1_555 1_555
C2 C1 1_555 1_555
H2 C2 1_555 1_555
C3 C2 1_555 1_555
H3 C3 1_555 1_555
C4 C3 1_555 1_555
H4 C4 1_555 1_555
C5 C4 1_555 1_555
C6 C1 1_555 1_555
C7 C6 1_555 1_555
H5 C7 1_555 1_555
C8 C7 1_555 1_555
C9 O2 1_555 1_555
C10 C9 1_555 1_555
H6 C10 1_555 1_555
H7 C10 1_555 1_555
C11 C9 1_555 1_555
H8 C11 1_555 1_555
H9 C11 1_555 1_555
C12 C7 1_555 1_555
C13 C12 1_555 1_555
H10 C13 1_555 1_555
H11 C13 1_555 1_555
C14 C12 1_555 1_555
H12 C14 1_555 1_555
H13 C14 1_555 1_555
C15 N1 1_555 1_555
C16 C15 1_555 1_555
H14 C16 1_555 1_555
H15 C16 1_555 1_555
H16 C16 1_555 1_555
H17 N1 1_555 1_555
C5 C6 1_555 1_555
C9 C12 1_555 1_555
C10 C11 1_555 1_555
C13 C14 1_555 1_555

#END
