
#######################################################################
#
#                 Cambridge Crystallographic Data Centre
#                                CCDC 
#
#######################################################################
#
# If this CIF has been generated from an entry in the Cambridge 
# Structural Database, then it will include bibliographic, chemical, 
# crystal, experimental, refinement or atomic coordinate data resulting 
# from the CCDC's data processing and validation procedures.
#
#######################################################################

data_PEWSER
_chemical_formula_moiety         'C16 H16 Cl1 N1 O3'
_chemical_name_systematic        
N-(2-(7-(2-Chloroethyl)-5-oxo-4-oxaspiro[2.4]hept-6-en-6-yl)phenyl)acetamide
_symmetry_cell_setting           triclinic
_symmetry_space_group_name_H-M   'P -1'
_symmetry_Int_Tables_number      2
_space_group_name_Hall           '-P 1'
loop_
_symmetry_equiv_pos_site_id
_symmetry_equiv_pos_as_xyz
1 x,y,z
2 -x,-y,-z
_cell_length_a                   7.7450(2)
_cell_length_b                   9.8432(2)
_cell_length_c                   10.1768(2)
_cell_angle_alpha                84.638(1)
_cell_angle_beta                 73.912(1)
_cell_angle_gamma                75.135(1)
_cell_volume                     720.294
_exptl_crystal_colour            colorless
_exptl_crystal_description       block
_cell_formula_units_Z            2
loop_
_atom_site_label
_atom_site_type_symbol
_atom_site_fract_x
_atom_site_fract_y
_atom_site_fract_z
Cl2 Cl 0.2351(11) 0.6432(3) 0.4693(3)
O1 O 0.43081(7) 0.37603(5) 0.84772(6)
O2 O 0.15487(8) 1.06666(6) 1.03584(6)
O3 O 0.67130(8) 0.45230(6) 0.86713(6)
N1 N 0.30080(9) 0.83698(6) 0.98632(6)
C1 C 0.41721(9) 0.85495(7) 0.85552(7)
C2 C 0.47468(10) 0.98010(8) 0.81459(8)
H1 H 0.4357 1.0544 0.8744
C3 C 0.58977(11) 0.99302(8) 0.68466(9)
H2 H 0.6240 1.0773 0.6572
C4 C 0.65452(11) 0.88152(9) 0.59504(8)
H3 H 0.7328 0.8905 0.5087
C5 C 0.60054(11) 0.75658(8) 0.63633(8)
H4 H 0.6456 0.6811 0.5777
C6 C 0.47943(9) 0.74267(7) 0.76468(7)
C7 C 0.41342(9) 0.61173(7) 0.79617(7)
C8 C 0.25520(9) 0.58753(7) 0.78273(7)
C9 C 0.26208(9) 0.43749(7) 0.81189(7)
C10 C 0.52331(10) 0.47817(7) 0.83940(7)
C11 C 0.17877(10) 0.94120(7) 1.06822(7)
C12 C 0.07038(11) 0.89180(8) 1.20295(8)
H5 H 0.0783 0.9434 1.2757
H6 H 0.1206 0.7933 1.2167
H7 H -0.0569 0.9071 1.2023
C13 C 0.09478(10) 0.68832(7) 0.74453(8)
H8 H 0.0366 0.7576 0.8153
H9 H 0.0043 0.6372 0.7415
C14 C 0.14676(11) 0.76436(8) 0.60797(8)
H10 H 0.2405 0.8119 0.6083
H11 H 0.0402 0.8337 0.5946
C15 C 0.19995(11) 0.34808(8) 0.73006(8)
H12 H 0.1365 0.3951 0.6624
H13 H 0.2781 0.2551 0.7057
C16 C 0.10123(11) 0.37389(8) 0.87839(8)
H14 H -0.0217 0.4363 0.8999
H15 H 0.1198 0.2963 0.9432
H16 H 0.3047(18) 0.7500(14) 1.0158(14)
Cl1? Cl 0.2682(9) 0.6463(7) 0.4722(6)
H17? H 0.2235 0.8260 0.6145
H18? H 0.0351 0.8222 0.5874
loop_
_geom_bond_atom_site_label_1
_geom_bond_atom_site_label_2
_geom_bond_site_symmetry_1
_geom_bond_site_symmetry_2
Cl2 C14 1_555 1_555
O1 C9 1_555 1_555
O2 C11 1_555 1_555
O3 C10 1_555 1_555
N1 C1 1_555 1_555
C1 C2 1_555 1_555
C2 H1 1_555 1_555
C3 C2 1_555 1_555
H2 C3 1_555 1_555
C4 C3 1_555 1_555
H3 C4 1_555 1_555
C5 C4 1_555 1_555
H4 C5 1_555 1_555
C6 C1 1_555 1_555
C7 C6 1_555 1_555
C8 C7 1_555 1_555
C9 C8 1_555 1_555
C10 O1 1_555 1_555
C11 N1 1_555 1_555
C12 C11 1_555 1_555
H5 C12 1_555 1_555
H6 C12 1_555 1_555
H7 C12 1_555 1_555
C13 C8 1_555 1_555
H8 C13 1_555 1_555
H9 C13 1_555 1_555
C14 C13 1_555 1_555
H10 C14 1_555 1_555
H11 C14 1_555 1_555
C15 C9 1_555 1_555
H12 C15 1_555 1_555
H13 C15 1_555 1_555
C16 C9 1_555 1_555
H14 C16 1_555 1_555
H15 C16 1_555 1_555
H16 N1 1_555 1_555
C5 C6 1_555 1_555
C7 C10 1_555 1_555
C15 C16 1_555 1_555

#END
