
#######################################################################
#
#                 Cambridge Crystallographic Data Centre
#                                CCDC 
#
#######################################################################
#
# If this CIF has been generated from an entry in the Cambridge 
# Structural Database, then it will include bibliographic, chemical, 
# crystal, experimental, refinement or atomic coordinate data resulting 
# from the CCDC's data processing and validation procedures.
#
#######################################################################

data_PEWSAO
_chemical_formula_moiety         'C14 H11 I1 O2'
_chemical_name_systematic        
5-iodo-4'-methoxy[1,1'-biphenyl]-2-carbaldehyde
_symmetry_cell_setting           monoclinic
_symmetry_space_group_name_H-M   'P 21/c'
_symmetry_Int_Tables_number      14
_space_group_name_Hall           '-P 2ybc'
loop_
_symmetry_equiv_pos_site_id
_symmetry_equiv_pos_as_xyz
1 x,y,z
2 -x,1/2+y,1/2-z
3 -x,-y,-z
4 x,1/2-y,1/2+z
_cell_length_a                   15.307(2)
_cell_length_b                   10.6883(16)
_cell_length_c                   7.8219(12)
_cell_angle_alpha                90
_cell_angle_beta                 97.097(2)
_cell_angle_gamma                90
_cell_volume                     1269.9
_exptl_crystal_colour            colorless
_exptl_crystal_description       block
_cell_formula_units_Z            4
loop_
_atom_site_label
_atom_site_type_symbol
_atom_site_fract_x
_atom_site_fract_y
_atom_site_fract_z
I1 I 0.48542(2) 0.82793(2) 0.23350(3)
O1 O 0.92060(15) 0.7973(2) 0.0191(4)
O2 O 0.83719(15) 0.13627(18) 0.1679(3)
C1 C 0.64051(19) 0.6683(3) 0.1658(4)
H1 H 0.6031 0.6038 0.1900
C2 C 0.61229(19) 0.7911(3) 0.1697(4)
C3 C 0.6657(2) 0.8890(3) 0.1352(4)
H2 H 0.6461 0.9711 0.1400
C4 C 0.7488(2) 0.8632(3) 0.0931(4)
H3 H 0.7853 0.9287 0.0692
C5 C 0.77894(18) 0.7399(2) 0.0859(3)
C6 C 0.72455(18) 0.6405(2) 0.1260(3)
C7 C 0.75650(17) 0.5084(2) 0.1349(3)
C8 C 0.70545(19) 0.4113(3) 0.0551(4)
H4 H 0.6513 0.4293 -0.0079
C9 C 0.7346(2) 0.2890(3) 0.0688(4)
H5 H 0.7000 0.2254 0.0147
C10 C 0.81482(18) 0.2602(2) 0.1623(4)
C11 C 0.86667(19) 0.3547(3) 0.2429(4)
H6 H 0.9208 0.3363 0.3057
C12 C 0.83649(18) 0.4771(3) 0.2283(4)
H7 H 0.8711 0.5403 0.2831
C13 C 0.8647(2) 0.7184(3) 0.0252(4)
H8 H 0.8768 0.6382 -0.0113
C14 C 0.9213(2) 0.1030(3) 0.2528(5)
H9 H 0.9660 0.1483 0.2027
H10 H 0.9305 0.0148 0.2401
H11 H 0.9244 0.1234 0.3729
loop_
_geom_bond_atom_site_label_1
_geom_bond_atom_site_label_2
_geom_bond_site_symmetry_1
_geom_bond_site_symmetry_2
I1 C2 1_555 1_555
O1 C13 1_555 1_555
O2 C10 1_555 1_555
C1 H1 1_555 1_555
C2 C1 1_555 1_555
C3 C2 1_555 1_555
H2 C3 1_555 1_555
C4 C3 1_555 1_555
H3 C4 1_555 1_555
C5 C4 1_555 1_555
C6 C1 1_555 1_555
C7 C6 1_555 1_555
C8 C7 1_555 1_555
H4 C8 1_555 1_555
C9 C8 1_555 1_555
H5 C9 1_555 1_555
C10 C9 1_555 1_555
C11 C10 1_555 1_555
H6 C11 1_555 1_555
C12 C7 1_555 1_555
H7 C12 1_555 1_555
C13 C5 1_555 1_555
H8 C13 1_555 1_555
C14 O2 1_555 1_555
H9 C14 1_555 1_555
H10 C14 1_555 1_555
H11 C14 1_555 1_555
C5 C6 1_555 1_555
C11 C12 1_555 1_555

#END
