
#######################################################################
#
#                 Cambridge Crystallographic Data Centre
#                                CCDC 
#
#######################################################################
#
# If this CIF has been generated from an entry in the Cambridge 
# Structural Database, then it will include bibliographic, chemical, 
# crystal, experimental, refinement or atomic coordinate data resulting 
# from the CCDC's data processing and validation procedures.
#
#######################################################################

data_PEWVUK
_chemical_formula_moiety         'C26 H21 N1 O5'
_chemical_name_systematic        
2-Benzoyl-3,7-diphenyltetrahydro-6H-furo[3,4-c][1,2]oxazolo[2,3-b][1,2]oxazol-6-one
_symmetry_cell_setting           monoclinic
_symmetry_space_group_name_H-M   'P 21/c'
_symmetry_Int_Tables_number      14
_space_group_name_Hall           '-P 2ybc'
loop_
_symmetry_equiv_pos_site_id
_symmetry_equiv_pos_as_xyz
1 x,y,z
2 -x,1/2+y,1/2-z
3 -x,-y,-z
4 x,1/2-y,1/2+z
_cell_length_a                   11.17290(10)
_cell_length_b                   22.3738(3)
_cell_length_c                   8.88330(10)
_cell_angle_alpha                90
_cell_angle_beta                 107.8660(10)
_cell_angle_gamma                90
_cell_volume                     2113.56
_cell_formula_units_Z            4
loop_
_atom_site_label
_atom_site_type_symbol
_atom_site_fract_x
_atom_site_fract_y
_atom_site_fract_z
C1 C 0.20975(11) 0.34864(5) 1.19255(14)
C2 C 0.20525(12) 0.29384(5) 1.26482(15)
H1 H 0.1281 0.2762 1.2563
C3 C 0.31570(13) 0.26563(6) 1.34937(19)
H2 H 0.3127 0.2295 1.3996
C4 C 0.43050(14) 0.29118(7) 1.3592(2)
H3 H 0.5046 0.2719 1.4149
C5 C 0.43559(13) 0.34536(6) 1.28641(19)
H4 H 0.5130 0.3623 1.2928
C6 C 0.32579(12) 0.37425(6) 1.20428(16)
H5 H 0.3294 0.4109 1.1567
C7 C 0.09360(11) 0.38291(5) 1.10984(14)
C8 C -0.02906(11) 0.34883(5) 1.03332(14)
H6 H -0.0718 0.3420 1.1130
C9 C -0.11861(11) 0.38282(5) 0.89244(13)
H7 H -0.0793 0.4211 0.8818
C10 C -0.24852(11) 0.39548(5) 0.90460(13)
C11 C -0.30508(11) 0.45001(5) 0.85019(15)
H8 H -0.2611 0.4788 0.8129
C12 C -0.42666(12) 0.46174(6) 0.85127(17)
H9 H -0.4637 0.4983 0.8146
C13 C -0.49305(12) 0.41957(6) 0.90636(17)
H10 H -0.5750 0.4274 0.9056
C14 C -0.43667(12) 0.36550(6) 0.96280(16)
H11 H -0.4805 0.3371 1.0016
C15 C -0.31528(12) 0.35340(5) 0.96185(15)
H12 H -0.2782 0.3169 0.9997
C16 C -0.11891(11) 0.34285(5) 0.74875(14)
C17 C -0.23846(11) 0.30782(5) 0.66737(14)
H13 H -0.2388 0.2700 0.7207
H14 H -0.3123 0.3305 0.6683
C18 C -0.15354(11) 0.33448(5) 0.47013(14)
C19 C -0.08173(11) 0.37061(5) 0.61349(14)
H15 H -0.1035 0.4131 0.6006
C20 C 0.06272(11) 0.36058(5) 0.65774(14)
H16 H 0.0799 0.3297 0.5889
C21 C 0.13956(11) 0.41536(5) 0.65188(14)
C22 C 0.21642(12) 0.41525(6) 0.55585(15)
H17 H 0.2230 0.3809 0.5001
C23 C 0.28372(13) 0.46593(6) 0.54199(17)
H18 H 0.3340 0.4657 0.4757
C24 C 0.27610(12) 0.51674(6) 0.62662(16)
H19 H 0.3211 0.5508 0.6173
C25 C 0.20157(13) 0.51701(6) 0.72510(16)
H20 H 0.1974 0.5511 0.7832
C26 C 0.13304(13) 0.46673(5) 0.73771(16)
H21 H 0.0825 0.4672 0.8037
N1 N -0.01340(9) 0.29953(4) 0.81279(11)
O1 O 0.09350(8) 0.43722(4) 1.10737(10)
O2 O -0.00576(7) 0.29136(3) 0.97051(9)
O3 O 0.09589(7) 0.33838(3) 0.81716(9)
O4 O -0.23753(8) 0.29796(4) 0.50645(10)
O5 O -0.14214(9) 0.33510(4) 0.34032(10)
loop_
_geom_bond_atom_site_label_1
_geom_bond_atom_site_label_2
_geom_bond_site_symmetry_1
_geom_bond_site_symmetry_2
C1 C2 1_555 1_555
C2 H1 1_555 1_555
C3 C2 1_555 1_555
H2 C3 1_555 1_555
C4 C3 1_555 1_555
H3 C4 1_555 1_555
C5 C4 1_555 1_555
H4 C5 1_555 1_555
C6 C1 1_555 1_555
H5 C6 1_555 1_555
C7 C1 1_555 1_555
C8 C7 1_555 1_555
H6 C8 1_555 1_555
C9 C8 1_555 1_555
H7 C9 1_555 1_555
C10 C9 1_555 1_555
C11 C10 1_555 1_555
H8 C11 1_555 1_555
C12 C11 1_555 1_555
H9 C12 1_555 1_555
C13 C12 1_555 1_555
H10 C13 1_555 1_555
C14 C13 1_555 1_555
H11 C14 1_555 1_555
C15 C10 1_555 1_555
H12 C15 1_555 1_555
C16 C9 1_555 1_555
C17 C16 1_555 1_555
H13 C17 1_555 1_555
H14 C17 1_555 1_555
C18 C19 1_555 1_555
C19 C16 1_555 1_555
H15 C19 1_555 1_555
C20 C19 1_555 1_555
H16 C20 1_555 1_555
C21 C20 1_555 1_555
C22 C21 1_555 1_555
H17 C22 1_555 1_555
C23 C22 1_555 1_555
H18 C23 1_555 1_555
C24 C23 1_555 1_555
H19 C24 1_555 1_555
C25 C24 1_555 1_555
H20 C25 1_555 1_555
C26 C21 1_555 1_555
H21 C26 1_555 1_555
N1 C16 1_555 1_555
O1 C7 1_555 1_555
O2 C8 1_555 1_555
O3 C20 1_555 1_555
O4 C17 1_555 1_555
O5 C18 1_555 1_555
C5 C6 1_555 1_555
C14 C15 1_555 1_555
C18 O4 1_555 1_555
C25 C26 1_555 1_555
N1 O2 1_555 1_555
N1 O3 1_555 1_555

#END
