
#######################################################################
#
#                 Cambridge Crystallographic Data Centre
#                                CCDC 
#
#######################################################################
#
# If this CIF has been generated from an entry in the Cambridge 
# Structural Database, then it will include bibliographic, chemical, 
# crystal, experimental, refinement or atomic coordinate data resulting 
# from the CCDC's data processing and validation procedures.
#
#######################################################################

data_PEWWEW
_chemical_formula_moiety         'C17 H20 N2 O2'
_chemical_name_systematic        't-butyl 1,2-diphenylhydrazine-1-carboxylate'
_symmetry_cell_setting           monoclinic
_symmetry_space_group_name_H-M   'P 21/c'
_symmetry_Int_Tables_number      14
_space_group_name_Hall           '-P 2ybc'
loop_
_symmetry_equiv_pos_site_id
_symmetry_equiv_pos_as_xyz
1 x,y,z
2 -x,1/2+y,1/2-z
3 -x,-y,-z
4 x,1/2-y,1/2+z
_cell_length_a                   11.465(10)
_cell_length_b                   17.268(15)
_cell_length_c                   8.346(7)
_cell_angle_alpha                90
_cell_angle_beta                 109.219(16)
_cell_angle_gamma                90
_cell_volume                     1560.23
_exptl_crystal_colour            colorless
_exptl_crystal_description       block
_cell_formula_units_Z            4
loop_
_atom_site_label
_atom_site_type_symbol
_atom_site_fract_x
_atom_site_fract_y
_atom_site_fract_z
N1 N 0.5281(4) 0.1601(2) 0.7444(4)
H1 H 0.5410 0.1811 0.6583
N2 N 0.6249(4) 0.1254(2) 0.8693(5)
O1 O 0.7476(3) 0.11506(18) 1.1376(4)
O2 O 0.6117(3) 0.21464(19) 1.0615(4)
C1 C 0.8893(4) 0.0722(3) 1.3907(6)
H2 H 0.8514 0.0221 1.3667
H3 H 0.9257 0.0787 1.5112
H4 H 0.9523 0.0766 1.3387
C2 C 0.8494(5) 0.2131(3) 1.3473(6)
H5 H 0.9135 0.2156 1.2969
H6 H 0.8839 0.2234 1.4667
H7 H 0.7871 0.2509 1.2954
C3 C 0.6884(5) 0.1248(3) 1.3946(6)
H8 H 0.6275 0.1643 1.3492
H9 H 0.7207 0.1296 1.5159
H10 H 0.6511 0.0747 1.3651
C4 C 0.7931(5) 0.1340(3) 1.3209(6)
C5 C 0.6592(5) 0.1569(3) 1.0310(6)
C6 C 0.6826(5) 0.0607(3) 0.8199(6)
C7 C 0.8070(5) 0.0558(3) 0.8595(6)
H11 H 0.8578 0.0943 0.9241
C8 C 0.8582(5) -0.0075(4) 0.8024(6)
H12 H 0.9433 -0.0110 0.8284
C9 C 0.7842(7) -0.0636(3) 0.7095(7)
H13 H 0.8188 -0.1058 0.6725
C10 C 0.6595(7) -0.0588(3) 0.6696(7)
H14 H 0.6088 -0.0974 0.6055
C11 C 0.6086(5) 0.0041(3) 0.7252(6)
H15 H 0.5233 0.0078 0.6978
C12 C 0.4082(5) 0.1614(3) 0.7570(6)
C13 C 0.3266(6) 0.2148(3) 0.6648(6)
H16 H 0.3516 0.2510 0.6002
C14 C 0.2070(6) 0.2153(3) 0.6664(7)
H17 H 0.1506 0.2509 0.6002
C15 C 0.1706(6) 0.1633(4) 0.7663(8)
H18 H 0.0907 0.1644 0.7711
C16 C 0.2541(6) 0.1105(3) 0.8572(7)
H19 H 0.2294 0.0745 0.9224
C17 C 0.3730(5) 0.1083(3) 0.8565(6)
H20 H 0.4288 0.0721 0.9211
loop_
_geom_bond_atom_site_label_1
_geom_bond_atom_site_label_2
_geom_bond_site_symmetry_1
_geom_bond_site_symmetry_2
N1 H1 1_555 1_555
N2 N1 1_555 1_555
O1 C4 1_555 1_555
O2 C5 1_555 1_555
C1 H2 1_555 1_555
H3 C1 1_555 1_555
H4 C1 1_555 1_555
C2 H5 1_555 1_555
H6 C2 1_555 1_555
H7 C2 1_555 1_555
C3 H8 1_555 1_555
H9 C3 1_555 1_555
H10 C3 1_555 1_555
C4 C1 1_555 1_555
C5 N2 1_555 1_555
C6 N2 1_555 1_555
C7 C6 1_555 1_555
H11 C7 1_555 1_555
C8 C7 1_555 1_555
H12 C8 1_555 1_555
C9 C8 1_555 1_555
H13 C9 1_555 1_555
C10 C9 1_555 1_555
H14 C10 1_555 1_555
C11 C6 1_555 1_555
H15 C11 1_555 1_555
C12 N1 1_555 1_555
C13 C12 1_555 1_555
H16 C13 1_555 1_555
C14 C13 1_555 1_555
H17 C14 1_555 1_555
C15 C14 1_555 1_555
H18 C15 1_555 1_555
C16 C15 1_555 1_555
H19 C16 1_555 1_555
C17 C12 1_555 1_555
H20 C17 1_555 1_555
O1 C5 1_555 1_555
C2 C4 1_555 1_555
C3 C4 1_555 1_555
C10 C11 1_555 1_555
C16 C17 1_555 1_555

#END
