
#######################################################################
#
#                 Cambridge Crystallographic Data Centre
#                                CCDC 
#
#######################################################################
#
# If this CIF has been generated from an entry in the Cambridge 
# Structural Database, then it will include bibliographic, chemical, 
# crystal, experimental, refinement or atomic coordinate data resulting 
# from the CCDC's data processing and validation procedures.
#
#######################################################################

data_PEWYOH
_chemical_formula_moiety         'C23 H17 N3 O1'
_chemical_name_systematic        
'7-Methyl-2,4-diphenylpyrazolo(1,5-a)quinoxaline 1-oxide'
_symmetry_cell_setting           monoclinic
_symmetry_space_group_name_H-M   'P 21/c'
_symmetry_Int_Tables_number      14
_space_group_name_Hall           '-P 2ybc'
loop_
_symmetry_equiv_pos_site_id
_symmetry_equiv_pos_as_xyz
1 x,y,z
2 -x,1/2+y,1/2-z
3 -x,-y,-z
4 x,1/2-y,1/2+z
_cell_length_a                   11.561(2)
_cell_length_b                   21.175(4)
_cell_length_c                   7.3777(15)
_cell_angle_alpha                90
_cell_angle_beta                 106.606(3)
_cell_angle_gamma                90
_cell_volume                     1730.76
_cell_formula_units_Z            4
loop_
_atom_site_label
_atom_site_type_symbol
_atom_site_fract_x
_atom_site_fract_y
_atom_site_fract_z
C1 C 0.2582(3) 0.95721(11) 0.0168(4)
H1 H 0.2518 0.9683 -0.1118
H2 H 0.3262 0.9785 0.0999
H3 H 0.1859 0.9697 0.0466
C2 C 0.2748(2) 0.88664(10) 0.0418(3)
C3 C 0.38136(19) 0.86137(9) 0.1533(3)
H4 H 0.4428 0.8885 0.2169
C4 C 0.39979(16) 0.79632(9) 0.1737(3)
C5 C 0.30527(16) 0.75598(9) 0.0812(3)
C6 C 0.19665(17) 0.78077(11) -0.0324(3)
H5 H 0.1339 0.7543 -0.0953
C7 C 0.1847(2) 0.84546(11) -0.0490(3)
H6 H 0.1126 0.8620 -0.1250
C8 C 0.53473(15) 0.71471(8) 0.2941(2)
C9 C 0.44496(14) 0.66899(8) 0.2028(2)
C10 C 0.43932(15) 0.60456(9) 0.1825(2)
H7 H 0.5026 0.5765 0.2304
C11 C 0.32223(16) 0.58825(8) 0.0774(2)
C12 C 0.27025(16) 0.52605(9) 0.0161(2)
C13 C 0.34502(19) 0.47360(9) 0.0480(3)
H8 H 0.4268 0.4787 0.1093
C14 C 0.3010(2) 0.41403(10) -0.0090(3)
H9 H 0.3530 0.3796 0.0146
C15 C 0.1826(2) 0.40561(11) -0.0991(3)
H10 H 0.1534 0.3656 -0.1402
C16 C 0.1061(2) 0.45630(13) -0.1295(4)
H11 H 0.0244 0.4504 -0.1889
C17 C 0.14919(19) 0.51637(11) -0.0727(4)
H12 H 0.0961 0.5504 -0.0946
C18 C 0.65889(15) 0.69487(8) 0.4006(2)
C19 C 0.75467(16) 0.73424(9) 0.3964(3)
H13 H 0.7395 0.7715 0.3267
C20 C 0.87092(17) 0.71882(11) 0.4938(3)
H14 H 0.9339 0.7455 0.4889
C21 C 0.89517(18) 0.66387(11) 0.5993(3)
H15 H 0.9741 0.6535 0.6654
C22 C 0.80126(18) 0.62469(10) 0.6056(3)
H16 H 0.8171 0.5877 0.6766
C23 C 0.68373(17) 0.63978(9) 0.5075(3)
H17 H 0.6210 0.6130 0.5128
N1 N 0.51252(13) 0.77503(7) 0.2825(2)
N2 N 0.33209(12) 0.69183(7) 0.1074(2)
N3 N 0.25786(13) 0.64249(7) 0.0338(2)
O1 O 0.14655(13) 0.65131(8) -0.0545(3)
loop_
_geom_bond_atom_site_label_1
_geom_bond_atom_site_label_2
_geom_bond_site_symmetry_1
_geom_bond_site_symmetry_2
C1 H1 1_555 1_555
H2 C1 1_555 1_555
H3 C1 1_555 1_555
C2 C1 1_555 1_555
C3 C2 1_555 1_555
H4 C3 1_555 1_555
C4 C3 1_555 1_555
C5 C4 1_555 1_555
C6 C5 1_555 1_555
H5 C6 1_555 1_555
C7 C2 1_555 1_555
H6 C7 1_555 1_555
C8 C9 1_555 1_555
C9 C10 1_555 1_555
C10 H7 1_555 1_555
C11 C10 1_555 1_555
C12 C11 1_555 1_555
C13 C12 1_555 1_555
H8 C13 1_555 1_555
C14 C13 1_555 1_555
H9 C14 1_555 1_555
C15 C14 1_555 1_555
H10 C15 1_555 1_555
C16 C15 1_555 1_555
H11 C16 1_555 1_555
C17 C12 1_555 1_555
H12 C17 1_555 1_555
C18 C8 1_555 1_555
C19 C18 1_555 1_555
H13 C19 1_555 1_555
C20 C19 1_555 1_555
H14 C20 1_555 1_555
C21 C20 1_555 1_555
H15 C21 1_555 1_555
C22 C21 1_555 1_555
H16 C22 1_555 1_555
C23 C18 1_555 1_555
H17 C23 1_555 1_555
N1 C4 1_555 1_555
N2 C5 1_555 1_555
N3 C11 1_555 1_555
O1 N3 1_555 1_555
C6 C7 1_555 1_555
C8 N1 1_555 1_555
C9 N2 1_555 1_555
C16 C17 1_555 1_555
C22 C23 1_555 1_555
N2 N3 1_555 1_555

#END
