
#######################################################################
#
#                 Cambridge Crystallographic Data Centre
#                                CCDC 
#
#######################################################################
#
# If this CIF has been generated from an entry in the Cambridge 
# Structural Database, then it will include bibliographic, chemical, 
# crystal, experimental, refinement or atomic coordinate data resulting 
# from the CCDC's data processing and validation procedures.
#
#######################################################################

data_PEXBOJ
_chemical_formula_moiety         'C16 H29 N5 O8,2(H2 O1)'
_chemical_name_systematic        
'1,7-bis((N-Methylcarbamoyl)methyl)-1,4,7-triazaheptane-1,4,7-triacetic acid dihydrate'
_symmetry_cell_setting           monoclinic
_symmetry_space_group_name_H-M   'P 21/c'
_symmetry_Int_Tables_number      14
_space_group_name_Hall           '-P 2ybc'
loop_
_symmetry_equiv_pos_site_id
_symmetry_equiv_pos_as_xyz
1 x,y,z
2 -x,1/2+y,1/2-z
3 -x,-y,-z
4 x,1/2-y,1/2+z
_cell_length_a                   17.472(4)
_cell_length_b                   7.110(2)
_cell_length_c                   17.846(2)
_cell_angle_alpha                90
_cell_angle_beta                 96.02(1)
_cell_angle_gamma                90
_cell_volume                     2204.71
_exptl_crystal_colour            colorless
_cell_formula_units_Z            4
loop_
_atom_site_label
_atom_site_type_symbol
_atom_site_fract_x
_atom_site_fract_y
_atom_site_fract_z
O1 O 0.8911(1) 0.4109(2) 0.6599(1)
O2 O 0.7791(1) 0.5926(2) 0.9574(1)
O3 O 0.8900(1) 0.7462(2) 0.9517(1)
O4 O 0.6779(1) 0.0966(2) 0.7193(1)
O5 O 0.5606(1) -0.0296(2) 0.6913(1)
O6 O 0.6028(1) -0.0642(2) 1.1067(1)
O7 O 0.5959(1) -0.3623(2) 1.0659(1)
O8 O 0.7816(1) 0.1471(2) 0.8909(1)
N1 N 0.8683(1) 0.2540(2) 0.7649(1)
N2 N 0.7658(1) 0.5380(2) 0.7988(1)
N3 N 0.6320(1) 0.3014(2) 0.8353(1)
N4 N 0.6550(1) 0.0509(2) 0.9664(1)
N5 N 0.8584(1) 0.1865(2) 1.0000(1)
C1 C 0.9319(1) 0.1241(3) 0.7609(1)
C2 C 0.8524(1) 0.3864(2) 0.7138(1)
C3 C 0.7824(1) 0.5074(3) 0.7209(1)
C4 C 0.8233(1) 0.6653(3) 0.8364(1)
C5 C 0.8274(1) 0.6616(2) 0.9216(1)
C6 C 0.6878(1) 0.6146(2) 0.8005(1)
C7 C 0.6260(1) 0.4684(2) 0.7826(1)
C8 C 0.5806(1) 0.1495(2) 0.8014(1)
C9 C 0.6099(1) 0.0677(2) 0.7305(1)
C10 C 0.6144(1) 0.3604(2) 0.9133(1)
C11 C 0.5971(1) 0.1977(2) 0.9642(1)
C12 C 0.6277(1) -0.1365(2) 0.9794(1)
C13 C 0.6076(1) -0.1815(2) 1.0585(1)
C14 C 0.7279(1) 0.0951(3) 1.0092(1)
C15 C 0.7918(1) 0.1463(2) 0.9610(1)
C16 C 0.9277(1) 0.2314(3) 0.9658(1)
O9 O 0.0963(1) 0.2399(2) 0.4032(1)
O10 O 0.2195(1) 0.0197(2) 0.3789(1)
loop_
_geom_bond_atom_site_label_1
_geom_bond_atom_site_label_2
_geom_bond_site_symmetry_1
_geom_bond_site_symmetry_2
O1 C2 1_555 1_555
O2 C5 1_555 1_555
O3 C5 1_555 1_555
O4 C9 1_555 1_555
O5 C9 1_555 1_555
O6 C13 1_555 1_555
O7 C13 1_555 1_555
O8 C15 1_555 1_555
N1 C1 1_555 1_555
N2 C3 1_555 1_555
N3 C7 1_555 1_555
N4 C11 1_555 1_555
N5 C15 1_555 1_555
C2 N1 1_555 1_555
C3 C2 1_555 1_555
C4 N2 1_555 1_555
C5 C4 1_555 1_555
C6 N2 1_555 1_555
C7 C6 1_555 1_555
C8 N3 1_555 1_555
C9 C8 1_555 1_555
C10 N3 1_555 1_555
C11 C10 1_555 1_555
C12 N4 1_555 1_555
C13 C12 1_555 1_555
C14 N4 1_555 1_555
C15 C14 1_555 1_555
C16 N5 1_555 1_555

#END
