
#######################################################################
#
#                 Cambridge Crystallographic Data Centre
#                                CCDC 
#
#######################################################################
#
# If this CIF has been generated from an entry in the Cambridge 
# Structural Database, then it will include bibliographic, chemical, 
# crystal, experimental, refinement or atomic coordinate data resulting 
# from the CCDC's data processing and validation procedures.
#
#######################################################################

data_PEXCUS
_chemical_formula_moiety         'C41 H32 O1 P2'
_chemical_name_systematic        
1,5-bis(2-(diphenylphosphino)phenyl)penta-1,4-dien-3-one
_symmetry_cell_setting           monoclinic
_symmetry_space_group_name_H-M   'C 2/c'
_symmetry_Int_Tables_number      15
_space_group_name_Hall           '-C 2yn'
loop_
_symmetry_equiv_pos_site_id
_symmetry_equiv_pos_as_xyz
1 x,y,z
2 -x,y,1/2-z
3 1/2+x,1/2+y,z
4 1/2-x,1/2+y,1/2-z
5 -x,-y,-z
6 x,-y,1/2+z
7 1/2-x,1/2-y,-z
8 1/2+x,1/2-y,1/2+z
_cell_length_a                   19.718(2)
_cell_length_b                   17.231(2)
_cell_length_c                   9.9214(13)
_cell_angle_alpha                90
_cell_angle_beta                 109.031(4)
_cell_angle_gamma                90
_cell_volume                     3186.66
_exptl_crystal_colour            yellow
_exptl_crystal_description       shard
_cell_formula_units_Z            4
_exptl_crystal_recrystallization_method acetonitrile
loop_
_atom_site_label
_atom_site_type_symbol
_atom_site_fract_x
_atom_site_fract_y
_atom_site_fract_z
C1 C 0.5000 0.20041(12) 1.2500
C2 C 0.44568(8) 0.24670(9) 1.14148(17)
H1 H 0.4507 0.3016 1.1440
C3 C 0.39044(7) 0.21587(8) 1.04108(14)
H2 H 0.3883 0.1608 1.0352
C4 C 0.33214(7) 0.25920(8) 0.93801(14)
C5 C 0.32616(8) 0.33937(9) 0.95395(16)
H3 H 0.3621 0.3654 1.0279
C6 C 0.26966(9) 0.38181(8) 0.86556(16)
H4 H 0.2667 0.4361 0.8793
C7 C 0.21743(8) 0.34440(8) 0.75683(16)
H5 H 0.1778 0.3728 0.6964
C8 C 0.22309(7) 0.26540(8) 0.73631(15)
H6 H 0.1874 0.2405 0.6603
C9 C 0.27993(7) 0.22136(8) 0.82435(14)
C10 C 0.35406(7) 0.11847(8) 0.69811(15)
C11 C 0.37942(8) 0.18562(8) 0.65279(15)
H7 H 0.3625 0.2348 0.6712
C12 C 0.42908(8) 0.18168(9) 0.58102(16)
H8 H 0.4463 0.2280 0.5516
C13 C 0.45362(8) 0.11025(10) 0.55210(17)
H9 H 0.4874 0.1074 0.5024
C14 C 0.42865(9) 0.04315(10) 0.5961(2)
H10 H 0.4448 -0.0059 0.5752
C15 C 0.38021(8) 0.04702(9) 0.67060(18)
H11 H 0.3647 0.0006 0.7032
C16 C 0.20480(8) 0.09850(8) 0.65104(15)
C17 C 0.14673(9) 0.07387(10) 0.69087(18)
H12 H 0.1534 0.0629 0.7882
C18 C 0.07932(10) 0.06522(12) 0.5900(2)
H13 H 0.0397 0.0503 0.6188
C19 C 0.06965(10) 0.07828(12) 0.4471(2)
H14 H 0.0234 0.0730 0.3781
C20 C 0.12746(10) 0.09896(10) 0.40517(18)
H15 H 0.1212 0.1061 0.3069
C21 C 0.19469(8) 0.10939(8) 0.50647(16)
H16 H 0.2341 0.1241 0.4770
O1 O 0.5000 0.12998(9) 1.2500
P1 P 0.289373(19) 0.11681(2) 0.79508(4)
C2A C 0.55432(8) 0.24670(9) 1.35852(17)
H1A H 0.5493 0.3016 1.3560
C3A C 0.60956(7) 0.21587(8) 1.45892(14)
H2A H 0.6117 0.1608 1.4648
C4A C 0.66786(7) 0.25920(8) 1.56199(14)
C5A C 0.67384(8) 0.33937(9) 1.54605(16)
H3A H 0.6379 0.3654 1.4721
C6A C 0.73034(9) 0.38181(8) 1.63444(16)
H4A H 0.7333 0.4361 1.6207
C7A C 0.78257(8) 0.34440(8) 1.74317(16)
H5A H 0.8222 0.3728 1.8036
C8A C 0.77691(7) 0.26540(8) 1.76369(15)
H6A H 0.8126 0.2405 1.8397
C9A C 0.72007(7) 0.22136(8) 1.67565(14)
C10A C 0.64594(7) 0.11847(8) 1.80189(15)
C11A C 0.62058(8) 0.18562(8) 1.84721(15)
H7A H 0.6375 0.2348 1.8288
C12A C 0.57092(8) 0.18168(9) 1.91898(16)
H8A H 0.5537 0.2280 1.9484
C13A C 0.54638(8) 0.11025(10) 1.94790(17)
H9A H 0.5126 0.1074 1.9976
C14A C 0.57135(9) 0.04315(10) 1.9039(2)
H10A H 0.5552 -0.0059 1.9248
C15A C 0.61979(8) 0.04702(9) 1.82940(18)
H11A H 0.6353 0.0006 1.7968
C16A C 0.79520(8) 0.09850(8) 1.84896(15)
C17A C 0.85327(9) 0.07387(10) 1.80913(18)
H12A H 0.8466 0.0629 1.7118
C18A C 0.92068(10) 0.06522(12) 1.9100(2)
H13A H 0.9603 0.0503 1.8812
C19A C 0.93035(10) 0.07828(12) 2.0529(2)
H14A H 0.9766 0.0730 2.1219
C20A C 0.87254(10) 0.09896(10) 2.09483(18)
H15A H 0.8788 0.1061 2.1931
C21A C 0.80531(8) 0.10939(8) 1.99353(16)
H16A H 0.7659 0.1241 2.0230
P1A P 0.710627(19) 0.11681(2) 1.70492(4)
loop_
_geom_bond_atom_site_label_1
_geom_bond_atom_site_label_2
_geom_bond_site_symmetry_1
_geom_bond_site_symmetry_2
C1 C2 1_555 1_555
C2 H1 1_555 1_555
C3 C2 1_555 1_555
H2 C3 1_555 1_555
C4 C3 1_555 1_555
C5 C4 1_555 1_555
H3 C5 1_555 1_555
C6 C5 1_555 1_555
H4 C6 1_555 1_555
C7 C6 1_555 1_555
H5 C7 1_555 1_555
C8 C7 1_555 1_555
H6 C8 1_555 1_555
C9 C4 1_555 1_555
C10 C11 1_555 1_555
C11 H7 1_555 1_555
C12 C11 1_555 1_555
H8 C12 1_555 1_555
C13 C12 1_555 1_555
H9 C13 1_555 1_555
C14 C13 1_555 1_555
H10 C14 1_555 1_555
C15 C10 1_555 1_555
H11 C15 1_555 1_555
C16 C17 1_555 1_555
C17 H12 1_555 1_555
C18 C17 1_555 1_555
H13 C18 1_555 1_555
C19 C18 1_555 1_555
H14 C19 1_555 1_555
C20 C19 1_555 1_555
H15 C20 1_555 1_555
C21 C16 1_555 1_555
H16 C21 1_555 1_555
O1 C1 1_555 1_555
P1 C9 1_555 1_555
C2A C1 1_555 1_555
H1A C2A 1_555 1_555
C3A C2A 1_555 1_555
H2A C3A 1_555 1_555
C4A C3A 1_555 1_555
C5A C4A 1_555 1_555
H3A C5A 1_555 1_555
C6A C5A 1_555 1_555
H4A C6A 1_555 1_555
C7A C6A 1_555 1_555
H5A C7A 1_555 1_555
C8A C7A 1_555 1_555
H6A C8A 1_555 1_555
C9A C4A 1_555 1_555
C10A C11A 1_555 1_555
C11A H7A 1_555 1_555
C12A C11A 1_555 1_555
H8A C12A 1_555 1_555
C13A C12A 1_555 1_555
H9A C13A 1_555 1_555
C14A C13A 1_555 1_555
H10A C14A 1_555 1_555
C15A C10A 1_555 1_555
H11A C15A 1_555 1_555
C16A C17A 1_555 1_555
C17A H12A 1_555 1_555
C18A C17A 1_555 1_555
H13A C18A 1_555 1_555
C19A C18A 1_555 1_555
H14A C19A 1_555 1_555
C20A C19A 1_555 1_555
H15A C20A 1_555 1_555
C21A C16A 1_555 1_555
H16A C21A 1_555 1_555
P1A C9A 1_555 1_555
C8 C9 1_555 1_555
C10 P1 1_555 1_555
C14 C15 1_555 1_555
C16 P1 1_555 1_555
C20 C21 1_555 1_555
C8A C9A 1_555 1_555
C10A P1A 1_555 1_555
C14A C15A 1_555 1_555
C16A P1A 1_555 1_555
C20A C21A 1_555 1_555

#END
