
#######################################################################
#
#                 Cambridge Crystallographic Data Centre
#                                CCDC 
#
#######################################################################
#
# If this CIF has been generated from an entry in the Cambridge 
# Structural Database, then it will include bibliographic, chemical, 
# crystal, experimental, refinement or atomic coordinate data resulting 
# from the CCDC's data processing and validation procedures.
#
#######################################################################

data_PEXJUZ
_chemical_formula_moiety         'C26 H40 N4 Si2'
_chemical_name_systematic        
N,N'-((2,2,4,4-Tetramethyl-1,3,2,4-diazadisiletidine-1,3-diyl)bis(phenylmethylylidene))bis(2-methylpropan-2-amine)
_symmetry_cell_setting           triclinic
_symmetry_space_group_name_H-M   'P -1'
_symmetry_Int_Tables_number      2
_space_group_name_Hall           '-P 1'
loop_
_symmetry_equiv_pos_site_id
_symmetry_equiv_pos_as_xyz
1 x,y,z
2 -x,-y,-z
_cell_length_a                   6.4846(6)
_cell_length_b                   10.6886(10)
_cell_length_c                   11.2487(10)
_cell_angle_alpha                69.8640(10)
_cell_angle_beta                 85.8130(10)
_cell_angle_gamma                76.7310(10)
_cell_volume                     712.45
_exptl_crystal_colour            colorless
_exptl_crystal_description       Prism
_cell_formula_units_Z            1
loop_
_atom_site_label
_atom_site_type_symbol
_atom_site_fract_x
_atom_site_fract_y
_atom_site_fract_z
Si1 Si 0.53077(11) 1.08632(7) 0.05207(6)
C1 C 0.7678(5) 1.1604(3) 0.0289(3)
H1 H 0.7533 1.2221 0.0778
H2 H 0.7817 1.2114 -0.0612
H3 H 0.8941 1.0869 0.0577
C2 C 0.3426(5) 1.1515(3) 0.1599(3)
H4 H 0.4008 1.2147 0.1864
H5 H 0.3200 1.0749 0.2345
H6 H 0.2073 1.1994 0.1158
N1 N 0.7383(18) 0.8666(7) 0.2701(9)
C3 C 0.8540(11) 0.7910(6) 0.3943(6)
C4 C 0.7140(16) 0.7285(13) 0.4952(7)
H7 H 0.5889 0.7981 0.5003
H8 H 0.7903 0.6902 0.5763
H9 H 0.6696 0.6557 0.4763
C5 C 1.0476(16) 0.6850(11) 0.3841(9)
H10 H 1.0037 0.6133 0.3630
H11 H 1.1242 0.6448 0.4651
H12 H 1.1404 0.7283 0.3175
C6 C 0.945(3) 0.8911(18) 0.4294(18)
H13 H 0.8300 0.9641 0.4395
H14 H 1.0404 0.9305 0.3624
H15 H 1.0244 0.8439 0.5092
C7 C 0.6962(15) 0.6683(10) 0.2116(7)
C8 C 0.5457(9) 0.6006(6) 0.2806(6)
H16 H 0.4316 0.6472 0.3180
C9 C 0.5608(12) 0.4673(7) 0.2950(8)
H17 H 0.4596 0.4206 0.3454
C10 C 0.722(2) 0.3977(9) 0.2373(10)
H18 H 0.7294 0.3048 0.2470
C11 C 0.8654(15) 0.4637(7) 0.1680(6)
H19 H 0.9733 0.4184 0.1259
C12 C 0.8574(10) 0.6025(6) 0.1570(6)
H20 H 0.9640 0.6477 0.1118
C13 C 0.6765(4) 0.8043(3) 0.1901(3)
N2 N 0.5811(3) 0.9094(2) 0.08677(19)
Si1A Si 0.46923(11) 0.91368(7) -0.05207(6)
C1A C 0.2322(5) 0.8396(3) -0.0289(3)
H1A H 0.2467 0.7779 -0.0778
H2A H 0.2183 0.7886 0.0612
H3A H 0.1059 0.9131 -0.0577
C2A C 0.6574(5) 0.8485(3) -0.1599(3)
H4A H 0.5992 0.7853 -0.1864
H5A H 0.6800 0.9251 -0.2345
H6A H 0.7927 0.8006 -0.1158
N1A N 0.2617(18) 1.1334(7) -0.2701(9)
C3A C 0.1460(11) 1.2090(6) -0.3943(6)
C4A C 0.2860(16) 1.2715(13) -0.4952(7)
H7A H 0.4111 1.2019 -0.5003
H8A H 0.2097 1.3098 -0.5763
H9A H 0.3304 1.3443 -0.4763
C5A C -0.0476(16) 1.3150(11) -0.3841(9)
H10A H -0.0037 1.3867 -0.3630
H11A H -0.1242 1.3552 -0.4651
H12A H -0.1404 1.2717 -0.3175
C6A C 0.055(3) 1.1089(18) -0.4294(18)
H13A H 0.1700 1.0359 -0.4395
H14A H -0.0404 1.0695 -0.3624
H15A H -0.0244 1.1561 -0.5092
C7A C 0.3038(15) 1.3317(10) -0.2116(7)
C8A C 0.4543(9) 1.3994(6) -0.2806(6)
H16A H 0.5684 1.3528 -0.3180
C9A C 0.4392(12) 1.5327(7) -0.2950(8)
H17A H 0.5404 1.5794 -0.3454
C10A C 0.278(2) 1.6023(9) -0.2373(10)
H18A H 0.2706 1.6952 -0.2470
C11A C 0.1346(15) 1.5363(7) -0.1680(6)
H19A H 0.0267 1.5816 -0.1259
C12A C 0.1426(10) 1.3975(6) -0.1570(6)
H20A H 0.0360 1.3523 -0.1118
C13A C 0.3235(4) 1.1957(3) -0.1901(3)
N2A N 0.4189(3) 1.0906(2) -0.08677(19)
N3? N 0.6780(17) 0.6802(10) 0.1583(7)
C14? C 0.7683(12) 0.5401(6) 0.2436(6)
C15? C 0.9989(18) 0.5093(10) 0.2275(14)
H21? H 1.0609 0.5716 0.2532
H22? H 1.0317 0.5208 0.1384
H23? H 1.0582 0.4149 0.2801
C16? C 0.7078(19) 0.5124(8) 0.3830(8)
H24? H 0.7614 0.5734 0.4151
H25? H 0.7701 0.4173 0.4322
H26? H 0.5532 0.5289 0.3908
C17? C 0.667(4) 0.4475(13) 0.2002(19)
H27? H 0.7011 0.4602 0.1110
H28? H 0.5130 0.4706 0.2099
H29? H 0.7221 0.3520 0.2518
C18? C 0.748(2) 0.8153(10) 0.2953(11)
C19? C 0.9501(12) 0.8279(7) 0.2996(7)
H30? H 1.0452 0.8196 0.2330
C20? C 1.014(3) 0.8518(17) 0.3967(14)
H31? H 1.1559 0.8601 0.4022
C21? C 0.854(2) 0.8658(11) 0.4995(9)
H32? H 0.8942 0.8845 0.5702
C22? C 0.6693(17) 0.8525(10) 0.4905(7)
H33? H 0.5701 0.8622 0.5549
C23? C 0.6051(12) 0.8239(8) 0.3881(6)
H34? H 0.4661 0.8109 0.3838
loop_
_geom_bond_atom_site_label_1
_geom_bond_atom_site_label_2
_geom_bond_site_symmetry_1
_geom_bond_site_symmetry_2
Si1 C1 1_555 1_555
C1 H1 1_555 1_555
H2 C1 1_555 1_555
H3 C1 1_555 1_555
C2 Si1 1_555 1_555
H4 C2 1_555 1_555
H5 C2 1_555 1_555
H6 C2 1_555 1_555
N1 C3 1_555 1_555
C3 C4 1_555 1_555
C4 H7 1_555 1_555
H8 C4 1_555 1_555
H9 C4 1_555 1_555
C5 C3 1_555 1_555
H10 C5 1_555 1_555
H11 C5 1_555 1_555
H12 C5 1_555 1_555
C6 C3 1_555 1_555
H13 C6 1_555 1_555
H14 C6 1_555 1_555
H15 C6 1_555 1_555
C7 C8 1_555 1_555
C8 H16 1_555 1_555
C9 C8 1_555 1_555
H17 C9 1_555 1_555
C10 C9 1_555 1_555
H18 C10 1_555 1_555
C11 C10 1_555 1_555
H19 C11 1_555 1_555
C12 C7 1_555 1_555
H20 C12 1_555 1_555
C13 N1 1_555 1_555
N2 Si1 1_555 1_555
Si1A N2 1_555 1_555
C1A Si1A 1_555 1_555
H1A C1A 1_555 1_555
H2A C1A 1_555 1_555
H3A C1A 1_555 1_555
C2A Si1A 1_555 1_555
H4A C2A 1_555 1_555
H5A C2A 1_555 1_555
H6A C2A 1_555 1_555
N1A C3A 1_555 1_555
C3A C4A 1_555 1_555
C4A H7A 1_555 1_555
H8A C4A 1_555 1_555
H9A C4A 1_555 1_555
C5A C3A 1_555 1_555
H10A C5A 1_555 1_555
H11A C5A 1_555 1_555
H12A C5A 1_555 1_555
C6A C3A 1_555 1_555
H13A C6A 1_555 1_555
H14A C6A 1_555 1_555
H15A C6A 1_555 1_555
C7A C8A 1_555 1_555
C8A H16A 1_555 1_555
C9A C8A 1_555 1_555
H17A C9A 1_555 1_555
C10A C9A 1_555 1_555
H18A C10A 1_555 1_555
C11A C10A 1_555 1_555
H19A C11A 1_555 1_555
C12A C7A 1_555 1_555
H20A C12A 1_555 1_555
C13A N1A 1_555 1_555
N2A Si1 1_555 1_555
C7 C13 1_555 1_555
C11 C12 1_555 1_555
C13 N2 1_555 1_555
Si1A N2A 1_555 1_555
C7A C13A 1_555 1_555
C11A C12A 1_555 1_555
C13A N2A 1_555 1_555

#END
