
#######################################################################
#
#                 Cambridge Crystallographic Data Centre
#                                CCDC 
#
#######################################################################
#
# If this CIF has been generated from an entry in the Cambridge 
# Structural Database, then it will include bibliographic, chemical, 
# crystal, experimental, refinement or atomic coordinate data resulting 
# from the CCDC's data processing and validation procedures.
#
#######################################################################

data_PEXKUA
_chemical_formula_moiety         'C23 H19 N1'
_chemical_name_systematic        1-Benzyl-2,4-diphenyl-1H-pyrrole
_symmetry_cell_setting           monoclinic
_symmetry_space_group_name_H-M   'P 21/n'
_symmetry_Int_Tables_number      14
_space_group_name_Hall           '-P 2yn'
loop_
_symmetry_equiv_pos_site_id
_symmetry_equiv_pos_as_xyz
1 x,y,z
2 1/2-x,1/2+y,1/2-z
3 -x,-y,-z
4 1/2+x,1/2-y,1/2+z
_cell_length_a                   9.768(2)
_cell_length_b                   11.392(3)
_cell_length_c                   15.150(3)
_cell_angle_alpha                90
_cell_angle_beta                 97.216(6)
_cell_angle_gamma                90
_cell_volume                     1672.49
_exptl_crystal_colour            yellow
_exptl_crystal_description       block
_cell_formula_units_Z            4
loop_
_atom_site_label
_atom_site_type_symbol
_atom_site_fract_x
_atom_site_fract_y
_atom_site_fract_z
N1 N 0.03975(18) 0.14434(15) 0.44078(12)
C1 C 0.1642(2) 0.08656(19) 0.45031(15)
H1 H 0.2407 0.1041 0.4911
C2 C 0.1544(2) -0.00139(18) 0.38877(15)
C3 C 0.02538(18) 0.00095(15) 0.34113(12)
H2 H -0.0083 -0.0492 0.2950
C4 C -0.0415(2) 0.08807(18) 0.37340(14)
C5 C 0.0060(3) 0.2366(2) 0.50199(16)
H3 H 0.0116 0.2046 0.5617
H4 H -0.0880 0.2628 0.4847
C6 C 0.1023(2) 0.34023(19) 0.50229(15)
C7 C 0.1097(3) 0.4062(2) 0.42712(18)
H5 H 0.0533 0.3876 0.3749
C8 C 0.1996(4) 0.4996(3) 0.4282(2)
H6 H 0.2049 0.5423 0.3765
C9 C 0.2809(3) 0.5298(2) 0.5048(2)
H7 H 0.3413 0.5930 0.5053
C10 C 0.2731(3) 0.4670(2) 0.5807(2)
H8 H 0.3272 0.4879 0.6333
C11 C 0.1846(3) 0.3720(2) 0.57912(17)
H9 H 0.1805 0.3289 0.6309
C12 C 0.2572(2) -0.09070(19) 0.37311(15)
C13 C 0.3634(2) -0.1214(2) 0.43848(17)
H10 H 0.3720 -0.0833 0.4932
C14 C 0.4571(3) -0.2084(2) 0.4230(2)
H11 H 0.5286 -0.2277 0.4671
C15 C 0.4442(3) -0.2664(2) 0.3422(2)
H12 H 0.5066 -0.3250 0.3319
C16 C 0.3400(3) -0.2373(2) 0.2780(2)
H13 H 0.3311 -0.2767 0.2238
C17 C 0.2466(2) -0.1496(2) 0.29207(17)
H14 H 0.1765 -0.1300 0.2471
C18 C -0.1877(2) 0.11422(19) 0.34409(14)
C19 C -0.2778(2) 0.01928(19) 0.32656(15)
H15 H -0.2438 -0.0569 0.3326
C20 C -0.4163(2) 0.0375(2) 0.30047(16)
H16 H -0.4752 -0.0264 0.2894
C21 C -0.4679(3) 0.1497(2) 0.29068(19)
H17 H -0.5619 0.1616 0.2747
C22 C -0.3796(3) 0.2450(2) 0.3047(2)
H18 H -0.4138 0.3209 0.2963
C23 C -0.2412(3) 0.2268(2) 0.33111(18)
H19 H -0.1824 0.2910 0.3404
loop_
_geom_bond_atom_site_label_1
_geom_bond_atom_site_label_2
_geom_bond_site_symmetry_1
_geom_bond_site_symmetry_2
N1 C1 1_555 1_555
C1 H1 1_555 1_555
C2 C1 1_555 1_555
C3 C2 1_555 1_555
H2 C3 1_555 1_555
C4 N1 1_555 1_555
C5 N1 1_555 1_555
H3 C5 1_555 1_555
H4 C5 1_555 1_555
C6 C5 1_555 1_555
C7 C6 1_555 1_555
H5 C7 1_555 1_555
C8 C7 1_555 1_555
H6 C8 1_555 1_555
C9 C8 1_555 1_555
H7 C9 1_555 1_555
C10 C9 1_555 1_555
H8 C10 1_555 1_555
C11 C6 1_555 1_555
H9 C11 1_555 1_555
C12 C2 1_555 1_555
C13 C12 1_555 1_555
H10 C13 1_555 1_555
C14 C13 1_555 1_555
H11 C14 1_555 1_555
C15 C14 1_555 1_555
H12 C15 1_555 1_555
C16 C15 1_555 1_555
H13 C16 1_555 1_555
C17 C12 1_555 1_555
H14 C17 1_555 1_555
C18 C4 1_555 1_555
C19 C18 1_555 1_555
H15 C19 1_555 1_555
C20 C19 1_555 1_555
H16 C20 1_555 1_555
C21 C20 1_555 1_555
H17 C21 1_555 1_555
C22 C21 1_555 1_555
H18 C22 1_555 1_555
C23 C18 1_555 1_555
H19 C23 1_555 1_555
C3 C4 1_555 1_555
C10 C11 1_555 1_555
C16 C17 1_555 1_555
C22 C23 1_555 1_555

#END
