
#######################################################################
#
#                 Cambridge Crystallographic Data Centre
#                                CCDC 
#
#######################################################################
#
# If this CIF has been generated from an entry in the Cambridge 
# Structural Database, then it will include bibliographic, chemical, 
# crystal, experimental, refinement or atomic coordinate data resulting 
# from the CCDC's data processing and validation procedures.
#
#######################################################################

data_PEXKAG
_chemical_formula_moiety         'C42 H56 N4 Si2'
_chemical_name_systematic        
N,N'-((2,2,4,4-Tetramethyl-1,3,2,4-diazadisiletidine-1,3-diyl)bis(phenylmethylylidene))bis(2,6-diisopropylaniline)
_symmetry_cell_setting           monoclinic
_symmetry_space_group_name_H-M   'C 2/c'
_symmetry_Int_Tables_number      15
_space_group_name_Hall           '-C 2yn'
loop_
_symmetry_equiv_pos_site_id
_symmetry_equiv_pos_as_xyz
1 x,y,z
2 -x,y,1/2-z
3 1/2+x,1/2+y,z
4 1/2-x,1/2+y,1/2-z
5 -x,-y,-z
6 x,-y,1/2+z
7 1/2-x,1/2-y,-z
8 1/2+x,1/2-y,1/2+z
_cell_length_a                   27.789(2)
_cell_length_b                   9.2265(8)
_cell_length_c                   16.4715(13)
_cell_angle_alpha                90
_cell_angle_beta                 96.475(2)
_cell_angle_gamma                90
_cell_volume                     4196.27
_exptl_crystal_colour            colorless
_exptl_crystal_description       Block
_cell_formula_units_Z            4
loop_
_atom_site_label
_atom_site_type_symbol
_atom_site_fract_x
_atom_site_fract_y
_atom_site_fract_z
Si1 Si 0.25723(2) 0.28433(9) 0.07743(4)
N1 N 0.21009(7) 0.2895(2) -0.00258(11)
N2 N 0.15233(6) 0.3810(2) 0.07151(10)
C1 C 0.24582(12) 0.1592(5) 0.16023(18)
H1 H 0.2536 0.2070 0.2125
H2 H 0.2659 0.0736 0.1579
H3 H 0.2120 0.1312 0.1539
C2 C 0.27937(11) 0.4612(4) 0.1167(2)
H4 H 0.2818 0.4607 0.1760
H5 H 0.2570 0.5364 0.0957
H6 H 0.3110 0.4799 0.0994
C3 C 0.16301(7) 0.3312(3) 0.00321(13)
C4 C 0.10446(8) 0.4309(3) 0.07885(12)
C5 C 0.07229(8) 0.3398(3) 0.11437(14)
C6 C 0.02712(9) 0.3954(3) 0.12632(15)
H7 H 0.0051 0.3361 0.1503
C7 C 0.01385(9) 0.5342(3) 0.10410(16)
H8 H -0.0172 0.5687 0.1117
C8 C 0.04611(9) 0.6225(3) 0.07069(15)
H9 H 0.0369 0.7179 0.0561
C9 C 0.09222(8) 0.5745(3) 0.05788(13)
C10 C 0.08693(10) 0.1890(3) 0.14263(16)
H10 H 0.1126 0.1564 0.1097
C11 C 0.10885(15) 0.1916(4) 0.23171(19)
H11 H 0.1351 0.2615 0.2384
H12 H 0.1213 0.0962 0.2474
H13 H 0.0842 0.2188 0.2660
C12 C 0.04579(13) 0.0786(4) 0.1300(2)
H14 H 0.0324 0.0782 0.0730
H15 H 0.0207 0.1045 0.1638
H16 H 0.0582 -0.0171 0.1453
C13 C 0.12851(10) 0.6762(3) 0.02624(16)
H17 H 0.1514 0.6158 -0.0009
C14 C 0.15766(15) 0.7544(5) 0.0960(2)
H18 H 0.1724 0.6841 0.1349
H19 H 0.1365 0.8177 0.1228
H20 H 0.1828 0.8116 0.0749
C15 C 0.10521(16) 0.7817(4) -0.0375(3)
H21 H 0.0873 0.7280 -0.0817
H22 H 0.1302 0.8389 -0.0589
H23 H 0.0833 0.8453 -0.0125
C16 C 0.12895(8) 0.3101(3) -0.07284(13)
C17 C 0.12903(9) 0.4026(3) -0.13914(14)
H24 H 0.1495 0.4841 -0.1354
C18 C 0.09926(10) 0.3760(3) -0.21066(15)
H25 H 0.0995 0.4395 -0.2552
C19 C 0.06946(9) 0.2579(3) -0.21676(15)
H26 H 0.0493 0.2398 -0.2655
C20 C 0.06900(10) 0.1659(3) -0.15153(16)
H27 H 0.0486 0.0843 -0.1557
C21 C 0.09822(9) 0.1923(3) -0.08006(15)
H28 H 0.0972 0.1292 -0.0355
Si1F Si 0.24277(2) 0.21567(9) -0.07743(4)
N1F N 0.28991(7) 0.2105(2) 0.00258(11)
N2F N 0.34767(6) 0.1190(2) -0.07151(10)
C1F C 0.25418(12) 0.3408(5) -0.16023(18)
H1F H 0.2464 0.2930 -0.2125
H2F H 0.2341 0.4264 -0.1579
H3F H 0.2880 0.3688 -0.1539
C2F C 0.22063(11) 0.0388(4) -0.1167(2)
H4F H 0.2182 0.0393 -0.1760
H5F H 0.2430 -0.0364 -0.0957
H6F H 0.1890 0.0201 -0.0994
C3F C 0.33699(7) 0.1688(3) -0.00321(13)
C4F C 0.39554(8) 0.0691(3) -0.07885(12)
C5F C 0.42771(8) 0.1602(3) -0.11437(14)
C6F C 0.47288(9) 0.1046(3) -0.12632(15)
H7F H 0.4949 0.1639 -0.1503
C7F C 0.48615(9) -0.0342(3) -0.10410(16)
H8F H 0.5172 -0.0687 -0.1117
C8F C 0.45389(9) -0.1225(3) -0.07069(15)
H9F H 0.4631 -0.2179 -0.0561
C9F C 0.40778(8) -0.0745(3) -0.05788(13)
C10F C 0.41307(10) 0.3110(3) -0.14263(16)
H10F H 0.3874 0.3436 -0.1097
C11F C 0.39115(15) 0.3084(4) -0.23171(19)
H11F H 0.3649 0.2385 -0.2384
H12F H 0.3787 0.4038 -0.2474
H13F H 0.4158 0.2812 -0.2660
C12F C 0.45421(13) 0.4214(4) -0.1300(2)
H14F H 0.4676 0.4218 -0.0730
H15F H 0.4793 0.3955 -0.1638
H16F H 0.4418 0.5171 -0.1453
C13F C 0.37149(10) -0.1762(3) -0.02624(16)
H17F H 0.3486 -0.1158 0.0009
C14F C 0.34234(15) -0.2544(5) -0.0960(2)
H18F H 0.3276 -0.1841 -0.1349
H19F H 0.3635 -0.3177 -0.1228
H20F H 0.3172 -0.3116 -0.0749
C15F C 0.39479(16) -0.2817(4) 0.0375(3)
H21F H 0.4127 -0.2280 0.0817
H22F H 0.3698 -0.3389 0.0589
H23F H 0.4167 -0.3453 0.0125
C16F C 0.37105(8) 0.1899(3) 0.07284(13)
C17F C 0.37097(9) 0.0974(3) 0.13914(14)
H24F H 0.3505 0.0159 0.1354
C18F C 0.40074(10) 0.1240(3) 0.21066(15)
H25F H 0.4005 0.0605 0.2552
C19F C 0.43054(9) 0.2421(3) 0.21676(15)
H26F H 0.4507 0.2602 0.2655
C20F C 0.43100(10) 0.3341(3) 0.15153(16)
H27F H 0.4514 0.4157 0.1557
C21F C 0.40178(9) 0.3077(3) 0.08006(15)
H28F H 0.4028 0.3708 0.0355
loop_
_geom_bond_atom_site_label_1
_geom_bond_atom_site_label_2
_geom_bond_site_symmetry_1
_geom_bond_site_symmetry_2
Si1 N1 1_555 1_555
N1 C3 1_555 1_555
N2 C3 1_555 1_555
C1 Si1 1_555 1_555
H1 C1 1_555 1_555
H2 C1 1_555 1_555
H3 C1 1_555 1_555
C2 Si1 1_555 1_555
H4 C2 1_555 1_555
H5 C2 1_555 1_555
H6 C2 1_555 1_555
C3 C16 1_555 1_555
C4 N2 1_555 1_555
C5 C4 1_555 1_555
C6 C5 1_555 1_555
H7 C6 1_555 1_555
C7 C6 1_555 1_555
H8 C7 1_555 1_555
C8 C7 1_555 1_555
H9 C8 1_555 1_555
C9 C4 1_555 1_555
C10 C5 1_555 1_555
H10 C10 1_555 1_555
C11 C10 1_555 1_555
H11 C11 1_555 1_555
H12 C11 1_555 1_555
H13 C11 1_555 1_555
C12 C10 1_555 1_555
H14 C12 1_555 1_555
H15 C12 1_555 1_555
H16 C12 1_555 1_555
C13 C9 1_555 1_555
H17 C13 1_555 1_555
C14 C13 1_555 1_555
H18 C14 1_555 1_555
H19 C14 1_555 1_555
H20 C14 1_555 1_555
C15 C13 1_555 1_555
H21 C15 1_555 1_555
H22 C15 1_555 1_555
H23 C15 1_555 1_555
C16 C17 1_555 1_555
C17 H24 1_555 1_555
C18 C17 1_555 1_555
H25 C18 1_555 1_555
C19 C18 1_555 1_555
H26 C19 1_555 1_555
C20 C19 1_555 1_555
H27 C20 1_555 1_555
C21 C16 1_555 1_555
H28 C21 1_555 1_555
Si1F N1 1_555 1_555
N1F Si1 1_555 1_555
N2F C3F 1_555 1_555
C1F Si1F 1_555 1_555
H1F C1F 1_555 1_555
H2F C1F 1_555 1_555
H3F C1F 1_555 1_555
C2F Si1F 1_555 1_555
H4F C2F 1_555 1_555
H5F C2F 1_555 1_555
H6F C2F 1_555 1_555
C3F N1F 1_555 1_555
C4F N2F 1_555 1_555
C5F C4F 1_555 1_555
C6F C5F 1_555 1_555
H7F C6F 1_555 1_555
C7F C6F 1_555 1_555
H8F C7F 1_555 1_555
C8F C7F 1_555 1_555
H9F C8F 1_555 1_555
C9F C4F 1_555 1_555
C10F C5F 1_555 1_555
H10F C10F 1_555 1_555
C11F C10F 1_555 1_555
H11F C11F 1_555 1_555
H12F C11F 1_555 1_555
H13F C11F 1_555 1_555
C12F C10F 1_555 1_555
H14F C12F 1_555 1_555
H15F C12F 1_555 1_555
H16F C12F 1_555 1_555
C13F C9F 1_555 1_555
H17F C13F 1_555 1_555
C14F C13F 1_555 1_555
H18F C14F 1_555 1_555
H19F C14F 1_555 1_555
H20F C14F 1_555 1_555
C15F C13F 1_555 1_555
H21F C15F 1_555 1_555
H22F C15F 1_555 1_555
H23F C15F 1_555 1_555
C16F C3F 1_555 1_555
C17F C16F 1_555 1_555
H24F C17F 1_555 1_555
C18F C17F 1_555 1_555
H25F C18F 1_555 1_555
C19F C18F 1_555 1_555
H26F C19F 1_555 1_555
C20F C19F 1_555 1_555
H27F C20F 1_555 1_555
C21F C16F 1_555 1_555
H28F C21F 1_555 1_555
C8 C9 1_555 1_555
C20 C21 1_555 1_555
Si1F N1F 1_555 1_555
C8F C9F 1_555 1_555
C20F C21F 1_555 1_555

#END
