
#######################################################################
#
#                 Cambridge Crystallographic Data Centre
#                                CCDC 
#
#######################################################################
#
# If this CIF has been generated from an entry in the Cambridge 
# Structural Database, then it will include bibliographic, chemical, 
# crystal, experimental, refinement or atomic coordinate data resulting 
# from the CCDC's data processing and validation procedures.
#
#######################################################################

data_PEXKIO
_chemical_formula_moiety         'C18 H23 N1 O3'
_chemical_name_systematic        
't-Butyl 3-(2,2-dimethylpropylidene)-2-oxoindoline-1-carboxylate'
_symmetry_cell_setting           triclinic
_symmetry_space_group_name_H-M   'P -1'
_symmetry_Int_Tables_number      2
_space_group_name_Hall           '-P 1'
loop_
_symmetry_equiv_pos_site_id
_symmetry_equiv_pos_as_xyz
1 x,y,z
2 -x,-y,-z
_cell_length_a                   6.7576(3)
_cell_length_b                   9.8259(6)
_cell_length_c                   13.0850(11)
_cell_angle_alpha                92.213(6)
_cell_angle_beta                 97.254(5)
_cell_angle_gamma                92.098(5)
_cell_volume                     860.486
_exptl_crystal_colour            colorless
_exptl_crystal_description       block
_cell_formula_units_Z            2
loop_
_atom_site_label
_atom_site_type_symbol
_atom_site_fract_x
_atom_site_fract_y
_atom_site_fract_z
O1 O 0.2425(2) 0.11806(13) 0.38012(11)
O2 O 0.1807(2) 0.49385(14) 0.24506(11)
O3 O 0.2230(2) 0.26992(14) 0.22009(10)
N1 N 0.23299(18) 0.35602(13) 0.38107(11)
C1 C 0.2460(2) 0.22694(18) 0.42632(14)
C2 C 0.2620(2) 0.25343(16) 0.54053(13)
C3 C 0.2613(2) 0.40143(16) 0.55727(13)
C4 C 0.2435(2) 0.46011(16) 0.46093(13)
C5 C 0.2408(2) 0.59986(17) 0.45111(15)
H1 H 0.2296 0.6376 0.3866
C6 C 0.2555(2) 0.68130(18) 0.54052(17)
H2 H 0.2538 0.7755 0.5360
C7 C 0.2726(2) 0.62587(17) 0.63602(16)
H3 H 0.2818 0.6829 0.6950
C8 C 0.2761(2) 0.48680(17) 0.64512(14)
H4 H 0.2883 0.4502 0.7100
C9 C 0.2714(2) 0.14467(17) 0.59905(14)
H5 H 0.2702 0.0620 0.5619
C10 C 0.2836(2) 0.13108(17) 0.71405(14)
C11 C 0.2831(3) -0.02063(18) 0.73668(16)
H6 H 0.1629 -0.0654 0.7023
H7 H 0.2893 -0.0309 0.8097
H8 H 0.3967 -0.0608 0.7123
C12 C 0.4793(3) 0.1981(2) 0.76822(16)
H9 H 0.5902 0.1531 0.7449
H10 H 0.4840 0.1906 0.8414
H11 H 0.4863 0.2926 0.7523
C13 C 0.0999(3) 0.1911(2) 0.75359(15)
H12 H 0.0926 0.2851 0.7366
H13 H 0.1105 0.1844 0.8271
H14 H -0.0183 0.1414 0.7218
C14 C 0.2095(3) 0.3829(2) 0.27636(15)
C15 C 0.1929(3) 0.2708(2) 0.10657(15)
C16 C 0.2219(5) 0.1228(3) 0.07744(19)
H15 H 0.3574 0.1007 0.0995
H16 H 0.1935 0.1083 0.0040
H17 H 0.1330 0.0655 0.1104
C17 C -0.0159(4) 0.3097(3) 0.07026(19)
H18 H -0.1090 0.2512 0.0994
H19 H -0.0398 0.3001 -0.0036
H20 H -0.0327 0.4026 0.0917
C18 C 0.3467(4) 0.3631(3) 0.0687(2)
H21 H 0.3279 0.4555 0.0907
H22 H 0.3331 0.3559 -0.0053
H23 H 0.4776 0.3371 0.0962
loop_
_geom_bond_atom_site_label_1
_geom_bond_atom_site_label_2
_geom_bond_site_symmetry_1
_geom_bond_site_symmetry_2
O1 C1 1_555 1_555
O2 C14 1_555 1_555
O3 C14 1_555 1_555
N1 C1 1_555 1_555
C1 C2 1_555 1_555
C2 C3 1_555 1_555
C3 C4 1_555 1_555
C4 N1 1_555 1_555
C5 C4 1_555 1_555
H1 C5 1_555 1_555
C6 C5 1_555 1_555
H2 C6 1_555 1_555
C7 C6 1_555 1_555
H3 C7 1_555 1_555
C8 C3 1_555 1_555
H4 C8 1_555 1_555
C9 C2 1_555 1_555
H5 C9 1_555 1_555
C10 C9 1_555 1_555
C11 C10 1_555 1_555
H6 C11 1_555 1_555
H7 C11 1_555 1_555
H8 C11 1_555 1_555
C12 C10 1_555 1_555
H9 C12 1_555 1_555
H10 C12 1_555 1_555
H11 C12 1_555 1_555
C13 C10 1_555 1_555
H12 C13 1_555 1_555
H13 C13 1_555 1_555
H14 C13 1_555 1_555
C14 N1 1_555 1_555
C15 O3 1_555 1_555
C16 C15 1_555 1_555
H15 C16 1_555 1_555
H16 C16 1_555 1_555
H17 C16 1_555 1_555
C17 C15 1_555 1_555
H18 C17 1_555 1_555
H19 C17 1_555 1_555
H20 C17 1_555 1_555
C18 C15 1_555 1_555
H21 C18 1_555 1_555
H22 C18 1_555 1_555
H23 C18 1_555 1_555
C7 C8 1_555 1_555

#END
