
#######################################################################
#
#                 Cambridge Crystallographic Data Centre
#                                CCDC 
#
#######################################################################
#
# If this CIF has been generated from an entry in the Cambridge 
# Structural Database, then it will include bibliographic, chemical, 
# crystal, experimental, refinement or atomic coordinate data resulting 
# from the CCDC's data processing and validation procedures.
#
#######################################################################

data_PEXPOX
_chemical_formula_moiety         'C22 H32 O6 S1 Si1'
_chemical_name_systematic        
4-t-Butyldimethylsilyloxy-8,8-ethylenedioxy-6-phenylsulfonyl-2-oxobicyclo(3.3.0)octane
_symmetry_cell_setting           triclinic
_symmetry_space_group_name_H-M   'P -1'
_symmetry_Int_Tables_number      2
_space_group_name_Hall           '-P 1'
loop_
_symmetry_equiv_pos_site_id
_symmetry_equiv_pos_as_xyz
1 x,y,z
2 -x,-y,-z
_cell_length_a                   9.820(1)
_cell_length_b                   11.563(1)
_cell_length_c                   12.439(2)
_cell_angle_alpha                106.25(2)
_cell_angle_beta                 79.77(2)
_cell_angle_gamma                69.18(1)
_cell_volume                     1205.54
_cell_formula_units_Z            2
loop_
_atom_site_label
_atom_site_type_symbol
_atom_site_fract_x
_atom_site_fract_y
_atom_site_fract_z
C1 C 0.1661(3) 0.2547(2) 0.7712(2)
C2 C 0.1742(4) 0.2307(3) 0.8848(3)
C3 C 0.3045(5) 0.2553(4) 0.9173(3)
C4 C 0.4163(3) 0.2200(3) 0.8012(3)
C5 C 0.3161(3) 0.2653(2) 0.7244(2)
C6 C 0.2613(3) 0.4120(2) 0.7321(2)
C7 C 0.1018(3) 0.4892(2) 0.8216(2)
C8 C 0.0337(3) 0.3905(2) 0.7934(2)
O1 O -0.0062(2) 0.3846(2) 0.6891(2)
C9 C -0.1399(4) 0.3623(4) 0.7022(3)
C10 C -0.2028(5) 0.3951(5) 0.8288(4)
O2 O -0.0993(2) 0.4257(2) 0.8826(2)
O3 O 0.4948(2) 0.0774(2) 0.7473(2)
Si1 Si 0.6781(1) -0.0064(1) 0.7261(1)
C11 C 0.7277(5) 0.0629(4) 0.8602(4)
C12 C 0.7898(6) 0.0077(5) 0.5982(4)
C13 C 0.7055(3) -0.1812(3) 0.6989(3)
C14 C 0.6600(5) -0.2345(4) 0.5919(4)
C15 C 0.8760(5) -0.2701(4) 0.6752(6)
C16 C 0.6065(7) -0.1862(5) 0.8031(4)
S1 S 0.3899(1) 0.4848(1) 0.7591(1)
O4 O 0.3917(2) 0.5096(2) 0.8784(2)
O5 O 0.5317(2) 0.4029(2) 0.6647(2)
C17 C 0.3053(3) 0.6393(3) 0.7441(2)
C18 C 0.2266(4) 0.7545(3) 0.8449(3)
C19 C 0.1649(4) 0.8755(3) 0.8316(3)
C20 C 0.1815(4) 0.8802(4) 0.7213(4)
C21 C 0.2576(4) 0.7654(4) 0.6212(3)
C22 C 0.3189(3) 0.6447(3) 0.6333(3)
O6 O 0.0923(4) 0.1946(3) 0.9364(3)
H1 H -0.2215(4) 0.4261(4) 0.6722(3)
H2 H -0.1117(4) 0.2593(4) 0.6529(3)
H3 H -0.2141(5) 0.3107(5) 0.8434(4)
H4 H -0.3135(5) 0.4798(5) 0.8643(4)
H5 H 0.8483(5) 0.0077(4) 0.8462(4)
H6 H 0.6614(5) 0.0547(4) 0.9346(4)
H7 H 0.7020(5) 0.1665(4) 0.8776(4)
H8 H 0.9106(6) -0.0472(5) 0.5835(4)
H9 H 0.7636(6) 0.1114(5) 0.6153(4)
H10 H 0.7606(6) -0.0328(5) 0.5209(4)
H11 H 0.7295(5) -0.2320(4) 0.5156(4)
H12 H 0.5408(5) -0.1735(4) 0.6067(4)
H13 H 0.6773(5) -0.3360(4) 0.5773(4)
H14 H 0.9108(5) -0.2337(4) 0.7505(6)
H15 H 0.9444(5) -0.2674(4) 0.5985(6)
H16 H 0.8923(5) -0.3714(4) 0.6601(6)
H17 H 0.6365(7) -0.1487(5) 0.8807(4)
H18 H 0.6242(7) -0.2880(5) 0.7868(4)
H19 H 0.4876(7) -0.1255(5) 0.8163(4)
H20 H 0.1584(55) 0.1790(47) 0.7141(41)
H21 H 0.3413(55) 0.2085(47) 0.9562(41)
H22 H 0.2573(57) 0.3441(53) 0.9683(42)
H23 H 0.4899(58) 0.2643(46) 0.8114(41)
H24 H 0.3722(54) 0.2040(47) 0.6548(40)
H25 H 0.2478(54) 0.4271(47) 0.6709(45)
H26 H 0.1079(57) 0.5069(49) 0.8986(43)
H27 H 0.0446(55) 0.5605(51) 0.8113(41)
H28 H 0.2116(55) 0.7513(48) 0.9198(41)
H29 H 0.1298(57) 0.9451(50) 0.8954(44)
H30 H 0.1250(55) 0.9759(50) 0.7240(40)
H31 H 0.2677(58) 0.7634(48) 0.5425(44)
H32 H 0.3831(58) 0.5588(48) 0.5703(41)
loop_
_geom_bond_atom_site_label_1
_geom_bond_atom_site_label_2
_geom_bond_site_symmetry_1
_geom_bond_site_symmetry_2
C1 C2 1_555 1_555
C2 C3 1_555 1_555
C3 C4 1_555 1_555
C4 C5 1_555 1_555
C5 C1 1_555 1_555
C6 C5 1_555 1_555
C7 C6 1_555 1_555
C8 C1 1_555 1_555
O1 C8 1_555 1_555
C9 O1 1_555 1_555
C10 C9 1_555 1_555
O2 C8 1_555 1_555
O3 C4 1_555 1_555
Si1 O3 1_555 1_555
C11 Si1 1_555 1_555
C12 Si1 1_555 1_555
C13 Si1 1_555 1_555
C14 C13 1_555 1_555
C15 C13 1_555 1_555
C16 C13 1_555 1_555
S1 C6 1_555 1_555
O4 S1 1_555 1_555
O5 S1 1_555 1_555
C17 S1 1_555 1_555
C18 C17 1_555 1_555
C19 C18 1_555 1_555
C20 C19 1_555 1_555
C21 C20 1_555 1_555
C22 C17 1_555 1_555
O6 C2 1_555 1_555
H1 C9 1_555 1_555
H2 C9 1_555 1_555
H3 C10 1_555 1_555
H4 C10 1_555 1_555
H5 C11 1_555 1_555
H6 C11 1_555 1_555
H7 C11 1_555 1_555
H8 C12 1_555 1_555
H9 C12 1_555 1_555
H10 C12 1_555 1_555
H11 C14 1_555 1_555
H12 C14 1_555 1_555
H13 C14 1_555 1_555
H14 C15 1_555 1_555
H15 C15 1_555 1_555
H16 C15 1_555 1_555
H17 C16 1_555 1_555
H18 C16 1_555 1_555
H19 C16 1_555 1_555
H20 C1 1_555 1_555
H21 C3 1_555 1_555
H22 C3 1_555 1_555
H23 C4 1_555 1_555
H24 C5 1_555 1_555
H25 C6 1_555 1_555
H26 C7 1_555 1_555
H27 C7 1_555 1_555
H28 C18 1_555 1_555
H29 C19 1_555 1_555
H30 C20 1_555 1_555
H31 C21 1_555 1_555
H32 C22 1_555 1_555
C7 C8 1_555 1_555
C10 O2 1_555 1_555
C21 C22 1_555 1_555

#END
