
#######################################################################
#
#                 Cambridge Crystallographic Data Centre
#                                CCDC 
#
#######################################################################
#
# If this CIF has been generated from an entry in the Cambridge 
# Structural Database, then it will include bibliographic, chemical, 
# crystal, experimental, refinement or atomic coordinate data resulting 
# from the CCDC's data processing and validation procedures.
#
#######################################################################

data_PEXQEQ
_chemical_formula_moiety         'C25 H26 F1 N1 O2 S1,C1 H2 Cl2'
_chemical_name_systematic        
'6-Fluoro-1-((4-methylphenyl)sulfonyl)-3,3-diphenylazepane dichloromethane solvate'
_symmetry_cell_setting           orthorhombic
_symmetry_space_group_name_H-M   'P 21 21 21'
_symmetry_Int_Tables_number      19
_space_group_name_Hall           'P 2ac 2ab'
loop_
_symmetry_equiv_pos_site_id
_symmetry_equiv_pos_as_xyz
1 x,y,z
2 1/2-x,-y,1/2+z
3 1/2+x,1/2-y,-z
4 -x,1/2+y,1/2-z
_cell_length_a                   9.67668(10)
_cell_length_b                   14.42323(19)
_cell_length_c                   17.40513(18)
_cell_angle_alpha                90
_cell_angle_beta                 90
_cell_angle_gamma                90
_cell_volume                     2429.22
_exptl_crystal_colour            colorless
_exptl_crystal_description       prism
_cell_formula_units_Z            4
loop_
_atom_site_label
_atom_site_type_symbol
_atom_site_fract_x
_atom_site_fract_y
_atom_site_fract_z
S1 S 0.39261(4) 0.72076(3) 0.34732(2)
F1 F 0.38702(10) 0.82074(7) 0.55935(5)
O1 O 0.31131(11) 0.64688(8) 0.31576(6)
O2 O 0.33059(12) 0.80896(8) 0.36147(7)
N1 N 0.45244(12) 0.68363(8) 0.43083(7)
C1 C 0.50747(14) 0.58769(10) 0.43037(8)
H1 H 0.6057 0.5900 0.4145
H2 H 0.4568 0.5517 0.3909
C2 C 0.49803(14) 0.53482(10) 0.50771(8)
C3 C 0.56442(15) 0.59232(10) 0.57315(8)
H3 H 0.5795 0.5512 0.6179
H4 H 0.6561 0.6145 0.5558
C4 C 0.47854(17) 0.67642(11) 0.59917(8)
H5 H 0.3793 0.6610 0.5942
H6 H 0.4974 0.6882 0.6542
C5 C 0.50717(15) 0.76409(11) 0.55441(8)
H7 H 0.5854 0.7975 0.5797
C6 C 0.54179(15) 0.75177(10) 0.47051(8)
H8 H 0.5332 0.8124 0.4443
H9 H 0.6392 0.7315 0.4660
C7 C 0.53724(15) 0.73873(11) 0.28694(8)
C8 C 0.59220(18) 0.82698(12) 0.27944(9)
H10 H 0.5501 0.8781 0.3046
C9 C 0.70954(18) 0.83983(13) 0.23473(10)
H11 H 0.7470 0.9003 0.2293
C10 C 0.77304(17) 0.76582(13) 0.19785(9)
C11 C 0.71574(17) 0.67813(12) 0.20602(9)
H12 H 0.7577 0.6269 0.1809
C12 C 0.59831(16) 0.66391(11) 0.25025(8)
H13 H 0.5602 0.6035 0.2553
C13 C 0.9023(2) 0.77998(16) 0.15037(12)
H14 H 0.8964 0.8394 0.1233
H15 H 0.9108 0.7296 0.1129
H16 H 0.9832 0.7801 0.1842
C14 C 0.57934(14) 0.44533(10) 0.49172(8)
C15 C 0.51895(16) 0.37595(11) 0.44669(9)
H17 H 0.4261 0.3830 0.4300
C16 C 0.59181(18) 0.29705(11) 0.42588(10)
H18 H 0.5496 0.2515 0.3942
C17 C 0.72640(17) 0.28457(12) 0.45141(10)
H19 H 0.7761 0.2300 0.4382
C18 C 0.78741(16) 0.35227(11) 0.49614(10)
H20 H 0.8798 0.3442 0.5134
C19 C 0.71553(15) 0.43190(11) 0.51619(9)
H21 H 0.7593 0.4778 0.5469
C20 C 0.35019(14) 0.50904(10) 0.53177(8)
C21 C 0.23303(15) 0.52732(10) 0.48804(8)
H22 H 0.2425 0.5553 0.4389
C22 C 0.10192(16) 0.50507(10) 0.51540(9)
H23 H 0.0229 0.5179 0.4848
C23 C 0.08580(16) 0.46443(11) 0.58689(9)
H24 H -0.0040 0.4511 0.6060
C24 C 0.20145(16) 0.44341(11) 0.63039(9)
H25 H 0.1915 0.4142 0.6790
C25 C 0.33161(16) 0.46509(11) 0.60269(8)
H26 H 0.4104 0.4497 0.6326
Cl1 Cl 0.77480(5) 0.43564(3) 0.26461(2)
Cl2 Cl 1.02112(4) 0.54619(3) 0.29905(2)
C26 C 0.85944(18) 0.50678(14) 0.33211(10)
H27 H 0.8002 0.5609 0.3438
H28 H 0.8728 0.4715 0.3804
loop_
_geom_bond_atom_site_label_1
_geom_bond_atom_site_label_2
_geom_bond_site_symmetry_1
_geom_bond_site_symmetry_2
S1 O1 1_555 1_555
F1 C5 1_555 1_555
O2 S1 1_555 1_555
N1 S1 1_555 1_555
C1 N1 1_555 1_555
H1 C1 1_555 1_555
H2 C1 1_555 1_555
C2 C1 1_555 1_555
C3 C2 1_555 1_555
H3 C3 1_555 1_555
H4 C3 1_555 1_555
C4 C3 1_555 1_555
H5 C4 1_555 1_555
H6 C4 1_555 1_555
C5 C4 1_555 1_555
H7 C5 1_555 1_555
C6 N1 1_555 1_555
H8 C6 1_555 1_555
H9 C6 1_555 1_555
C7 S1 1_555 1_555
C8 C7 1_555 1_555
H10 C8 1_555 1_555
C9 C8 1_555 1_555
H11 C9 1_555 1_555
C10 C9 1_555 1_555
C11 C10 1_555 1_555
H12 C11 1_555 1_555
C12 C7 1_555 1_555
H13 C12 1_555 1_555
C13 C10 1_555 1_555
H14 C13 1_555 1_555
H15 C13 1_555 1_555
H16 C13 1_555 1_555
C14 C2 1_555 1_555
C15 C14 1_555 1_555
H17 C15 1_555 1_555
C16 C15 1_555 1_555
H18 C16 1_555 1_555
C17 C16 1_555 1_555
H19 C17 1_555 1_555
C18 C17 1_555 1_555
H20 C18 1_555 1_555
C19 C14 1_555 1_555
H21 C19 1_555 1_555
C20 C2 1_555 1_555
C21 C20 1_555 1_555
H22 C21 1_555 1_555
C22 C21 1_555 1_555
H23 C22 1_555 1_555
C23 C22 1_555 1_555
H24 C23 1_555 1_555
C24 C23 1_555 1_555
H25 C24 1_555 1_555
C25 C20 1_555 1_555
H26 C25 1_555 1_555
Cl1 C26 1_555 1_555
Cl2 C26 1_555 1_555
C26 H27 1_555 1_555
H28 C26 1_555 1_555
C5 C6 1_555 1_555
C11 C12 1_555 1_555
C18 C19 1_555 1_555
C24 C25 1_555 1_555

#END
