
#######################################################################
#
#                 Cambridge Crystallographic Data Centre
#                                CCDC 
#
#######################################################################
#
# If this CIF has been generated from an entry in the Cambridge 
# Structural Database, then it will include bibliographic, chemical, 
# crystal, experimental, refinement or atomic coordinate data resulting 
# from the CCDC's data processing and validation procedures.
#
#######################################################################

data_PEXTOD
_chemical_formula_moiety         'C29 H27 N1 O5 S1'
_chemical_name_systematic        
'(9-(2-(Hydroxymethyl)phenyl)-2-((4-methylphenyl)sulfonyl)-2,3-dihydro-1H-benzo[f]isoindol-5-yl)methyl acetate'
_symmetry_cell_setting           triclinic
_symmetry_space_group_name_H-M   'P -1'
_symmetry_Int_Tables_number      2
_space_group_name_Hall           '-P 1'
loop_
_symmetry_equiv_pos_site_id
_symmetry_equiv_pos_as_xyz
1 x,y,z
2 -x,-y,-z
_cell_length_a                   7.951(5)
_cell_length_b                   11.991(5)
_cell_length_c                   28.403(5)
_cell_angle_alpha                97.846(5)
_cell_angle_beta                 90.102(5)
_cell_angle_gamma                109.067(5)
_cell_volume                     2532.32
_cell_formula_units_Z            4
loop_
_atom_site_label
_atom_site_type_symbol
_atom_site_fract_x
_atom_site_fract_y
_atom_site_fract_z
S1 S -0.0424(3) 0.1938(2) 0.22834(7)
O1 O 0.1129(6) -0.2170(4) 0.41785(18)
N1 N -0.1319(7) 0.1139(5) 0.26922(19)
O2 O -0.0201(6) 0.1117(5) 0.18855(17)
O3 O -0.1523(6) 0.2636(5) 0.22246(18)
C1 C -0.2265(8) 0.0210(6) 0.4234(3)
C2 C 0.3167(10) 0.2548(6) 0.2403(3)
H1 H 0.3048 0.1893 0.2173
C3 C -0.3435(10) 0.1886(7) 0.4085(3)
C4 C -0.2486(8) 0.1025(6) 0.3930(3)
C5 C -0.1507(9) -0.0664(6) 0.4058(3)
C6 C 0.1690(8) 0.2869(7) 0.2520(3)
C7 C -0.1033(8) 0.0128(7) 0.3323(3)
C8 C -0.1873(9) 0.0942(6) 0.3486(3)
O4 O 0.0956(9) -0.4033(6) 0.3956(3)
C9 C -0.1920(9) 0.1718(7) 0.3122(3)
H2 H -0.3116 0.1736 0.3069
H3 H -0.1122 0.2526 0.3217
C10 C -0.0845(9) -0.0681(6) 0.3594(3)
H4 H -0.0296 -0.1232 0.3477
C11 C -0.2581(12) 0.2957(8) 0.4366(3)
C12 C 0.1867(11) 0.3856(7) 0.2850(3)
H5 H 0.0891 0.4102 0.2923
C13 C -0.2663(9) -0.0535(8) 0.4987(3)
H6 H -0.3000 -0.0479 0.5300
C14 C -0.0449(9) 0.0284(7) 0.2829(3)
H7 H -0.0858 -0.0468 0.2617
H8 H 0.0838 0.0615 0.2825
C15 C 0.4989(11) 0.4126(9) 0.2960(3)
C16 C -0.1979(10) -0.1425(7) 0.4802(3)
H9 H -0.1912 -0.1977 0.4995
C17 C -0.5257(16) 0.3458(12) 0.4314(4)
H10 H -0.5891 0.3982 0.4388
C18 C -0.1403(9) -0.1529(7) 0.4351(3)
C19 C -0.2833(9) 0.0251(7) 0.4703(3)
H11 H -0.3333 0.0827 0.4822
C20 C 0.3835(10) -0.2536(7) 0.4091(3)
H12 H 0.4240 -0.1691 0.4194
H13 H 0.4256 -0.2698 0.3781
H14 H 0.4289 -0.2921 0.4312
C21 C -0.5216(12) 0.1602(8) 0.3909(3)
H15 H -0.5778 0.0883 0.3716
C22 C -0.0798(9) -0.2555(7) 0.4172(3)
H16 H -0.1231 -0.3177 0.4371
H17 H -0.1283 -0.2881 0.3850
C23 C 0.4794(10) 0.3169(8) 0.2619(3)
H18 H 0.5776 0.2942 0.2534
C24 C 0.1892(13) -0.2991(10) 0.4070(3)
C25 C -0.6083(13) 0.2382(12) 0.4026(4)
H19 H -0.7253 0.2200 0.3911
C26 C -0.3504(15) 0.3780(8) 0.4497(3)
H20 H -0.2967 0.4497 0.4695
O5 O 0.0497(10) 0.3682(8) 0.4225(4)
H21 H 0.0352 0.4260 0.4129
C27 C 0.3522(14) 0.4477(7) 0.3072(3)
H22 H 0.3654 0.5139 0.3299
C28 C -0.0738(15) 0.3281(10) 0.4550(4)
H23 H -0.0538 0.3897 0.4824
H24 H -0.0568 0.2590 0.4658
C29 C 0.6827(10) 0.4833(8) 0.3213(3)
H25 H 0.6717 0.5469 0.3442
H26 H 0.7658 0.5159 0.2982
H27 H 0.7247 0.4309 0.3371
S2 S 0.2655(3) -0.1942(2) 0.27125(8)
O6 O 0.8264(6) 0.2145(4) 0.08195(18)
O7 O 0.3683(7) -0.1147(5) 0.31095(17)
N2 N 0.2553(7) -0.1139(5) 0.2301(2)
O8 O 0.0864(6) -0.2650(5) 0.27700(18)
C30 C 0.2521(9) -0.0214(6) 0.0766(3)
C31 C 0.4159(9) 0.0666(6) 0.0945(3)
C32 C 0.2162(8) -0.0941(6) 0.1511(3)
O9 O 0.9953(7) 0.4013(6) 0.1024(2)
C33 C -0.0321(9) -0.1903(7) 0.0913(3)
C34 C 0.2876(10) 0.0525(8) 0.0010(3)
H28 H 0.2479 0.0463 -0.0304
C35 C 0.1470(8) -0.1022(6) 0.1064(3)
C36 C 0.3841(9) -0.0119(7) 0.1673(3)
C37 C 0.1919(9) -0.0259(7) 0.0296(3)
H29 H 0.0849 -0.0835 0.0178
C38 C 0.4833(9) 0.0672(6) 0.1403(3)
H30 H 0.5938 0.1209 0.1518
C39 C 0.1352(9) -0.1699(6) 0.1881(3)
H31 H 0.0155 -0.1689 0.1940
H32 H 0.1311 -0.2516 0.1786
C40 C 0.5117(9) 0.1521(7) 0.0642(3)
C41 C 0.3845(9) -0.2856(6) 0.2477(3)
C42 C 0.4461(10) 0.1426(7) 0.0191(3)
H33 H 0.5078 0.1973 -0.0004
C43 C 0.4251(10) -0.0288(7) 0.2168(3)
H34 H 0.4579 0.0461 0.2381
H35 H 0.5211 -0.0619 0.2174
C44 C 0.5629(9) -0.2558(6) 0.2589(3)
H36 H 0.6177 -0.1898 0.2815
C45 C -0.3513(10) -0.2437(10) 0.0957(3)
H37 H -0.4506 -0.2258 0.1070
C46 C -0.0534(10) -0.2971(7) 0.0626(3)
C47 C 0.5894(14) -0.4144(9) 0.2033(3)
C48 C 0.6724(9) 0.2531(6) 0.0816(3)
H38 H 0.6914 0.3143 0.0612
H39 H 0.6558 0.2871 0.1135
C49 C 0.1024(12) -0.3301(8) 0.0448(4)
H40 H 0.0629 -0.3931 0.0179
H41 H 0.1876 -0.2616 0.0337
C50 C -0.3721(11) -0.3473(10) 0.0679(4)
H42 H -0.4859 -0.4017 0.0604
C51 C 0.3034(10) -0.3837(7) 0.2147(3)
H43 H 0.1817 -0.4070 0.2074
C52 C -0.1838(9) -0.1639(7) 0.1076(3)
H44 H -0.1703 -0.0917 0.1267
C53 C 0.6631(10) -0.3208(8) 0.2375(3)
H45 H 0.7830 -0.3000 0.2467
C54 C -0.2244(12) -0.3743(8) 0.0502(3)
H46 H -0.2409 -0.4449 0.0297
C55 C 1.1336(10) 0.2515(8) 0.0912(3)
H47 H 1.0894 0.1663 0.0828
H48 H 1.1945 0.2717 0.1220
H49 H 1.2148 0.2860 0.0681
O10 O 0.1856(9) -0.3679(7) 0.0786(4)
H50 H 0.1145 -0.4262 0.0880
C56 C 0.4063(14) -0.4483(7) 0.1921(3)
H51 H 0.3525 -0.5145 0.1694
C57 C 0.9849(11) 0.2978(9) 0.0924(3)
C58 C 0.7051(13) -0.4813(8) 0.1789(3)
H52 H 0.6339 -0.5448 0.1555
H53 H 0.7558 -0.5139 0.2021
H54 H 0.7990 -0.4276 0.1637
loop_
_geom_bond_atom_site_label_1
_geom_bond_atom_site_label_2
_geom_bond_site_symmetry_1
_geom_bond_site_symmetry_2
S1 N1 1_555 1_555
O1 C22 1_555 1_555
N1 C9 1_555 1_555
O2 S1 1_555 1_555
O3 S1 1_555 1_555
C1 C4 1_555 1_555
C2 H1 1_555 1_555
C3 C4 1_555 1_555
C4 C8 1_555 1_555
C5 C1 1_555 1_555
C6 S1 1_555 1_555
C7 C8 1_555 1_555
C8 C9 1_555 1_555
O4 C24 1_555 1_555
C9 H2 1_555 1_555
H3 C9 1_555 1_555
C10 C5 1_555 1_555
H4 C10 1_555 1_555
C11 C3 1_555 1_555
C12 C6 1_555 1_555
H5 C12 1_555 1_555
C13 H6 1_555 1_555
C14 N1 1_555 1_555
H7 C14 1_555 1_555
H8 C14 1_555 1_555
C15 C23 1_555 1_555
C16 C13 1_555 1_555
H9 C16 1_555 1_555
C17 H10 1_555 1_555
C18 C5 1_555 1_555
C19 C1 1_555 1_555
H11 C19 1_555 1_555
C20 H12 1_555 1_555
H13 C20 1_555 1_555
H14 C20 1_555 1_555
C21 C3 1_555 1_555
H15 C21 1_555 1_555
C22 C18 1_555 1_555
H16 C22 1_555 1_555
H17 C22 1_555 1_555
C23 C2 1_555 1_555
H18 C23 1_555 1_555
C24 O1 1_555 1_555
C25 C17 1_555 1_555
H19 C25 1_555 1_555
C26 C11 1_555 1_555
H20 C26 1_555 1_555
O5 H21 1_555 1_555
C27 C12 1_555 1_555
H22 C27 1_555 1_555
C28 C11 1_555 1_555
H23 C28 1_555 1_555
H24 C28 1_555 1_555
C29 C15 1_555 1_555
H25 C29 1_555 1_555
H26 C29 1_555 1_555
H27 C29 1_555 1_555
S2 O7 1_555 1_555
O6 C48 1_555 1_555
N2 S2 1_555 1_555
O8 S2 1_555 1_555
C30 C31 1_555 1_555
C31 C38 1_555 1_555
C32 C35 1_555 1_555
O9 C57 1_555 1_555
C33 C35 1_555 1_555
C34 H28 1_555 1_555
C35 C30 1_555 1_555
C36 C32 1_555 1_555
C37 C30 1_555 1_555
H29 C37 1_555 1_555
C38 C36 1_555 1_555
H30 C38 1_555 1_555
C39 N2 1_555 1_555
H31 C39 1_555 1_555
H32 C39 1_555 1_555
C40 C31 1_555 1_555
C41 S2 1_555 1_555
C42 C34 1_555 1_555
H33 C42 1_555 1_555
C43 N2 1_555 1_555
H34 C43 1_555 1_555
H35 C43 1_555 1_555
C44 C41 1_555 1_555
H36 C44 1_555 1_555
C45 H37 1_555 1_555
C46 C33 1_555 1_555
C47 C53 1_555 1_555
C48 C40 1_555 1_555
H38 C48 1_555 1_555
H39 C48 1_555 1_555
C49 C46 1_555 1_555
H40 C49 1_555 1_555
H41 C49 1_555 1_555
C50 C45 1_555 1_555
H42 C50 1_555 1_555
C51 C41 1_555 1_555
H43 C51 1_555 1_555
C52 C33 1_555 1_555
H44 C52 1_555 1_555
C53 C44 1_555 1_555
H45 C53 1_555 1_555
C54 C46 1_555 1_555
H46 C54 1_555 1_555
C55 H47 1_555 1_555
H48 C55 1_555 1_555
H49 C55 1_555 1_555
O10 C49 1_555 1_555
H50 O10 1_555 1_555
C56 C47 1_555 1_555
H51 C56 1_555 1_555
C57 O6 1_555 1_555
C58 C47 1_555 1_555
H52 C58 1_555 1_555
H53 C58 1_555 1_555
H54 C58 1_555 1_555
C2 C6 1_555 1_555
C7 C10 1_555 1_555
C7 C14 1_555 1_555
C13 C19 1_555 1_555
C15 C27 1_555 1_555
C16 C18 1_555 1_555
C17 C26 1_555 1_555
C20 C24 1_555 1_555
C21 C25 1_555 1_555
O5 C28 1_555 1_555
C32 C39 1_555 1_555
C34 C37 1_555 1_555
C36 C43 1_555 1_555
C40 C42 1_555 1_555
C45 C52 1_555 1_555
C50 C54 1_555 1_555
C51 C56 1_555 1_555
C55 C57 1_555 1_555

#END
