
#######################################################################
#
#                 Cambridge Crystallographic Data Centre
#                                CCDC 
#
#######################################################################
#
# If this CIF has been generated from an entry in the Cambridge 
# Structural Database, then it will include bibliographic, chemical, 
# crystal, experimental, refinement or atomic coordinate data resulting 
# from the CCDC's data processing and validation procedures.
#
#######################################################################

data_PEXVOG
_chemical_formula_moiety         'C15 H11 F1 O5 S1'
_chemical_name_systematic        
'(3-oxo-6-phenoxy-1,3-dihydro-2-benzofuran-1-yl)methanesulfonyl fluoride'
_symmetry_cell_setting           monoclinic
_symmetry_space_group_name_H-M   'P 21/n'
_symmetry_Int_Tables_number      14
_space_group_name_Hall           '-P 2yn'
loop_
_symmetry_equiv_pos_site_id
_symmetry_equiv_pos_as_xyz
1 x,y,z
2 1/2-x,1/2+y,1/2-z
3 -x,-y,-z
4 1/2+x,1/2-y,1/2+z
_cell_length_a                   8.6492(9)
_cell_length_b                   6.7929(8)
_cell_length_c                   25.645(3)
_cell_angle_alpha                90
_cell_angle_beta                 98.112(2)
_cell_angle_gamma                90
_cell_volume                     1491.65
_cell_formula_units_Z            4
loop_
_atom_site_label
_atom_site_type_symbol
_atom_site_fract_x
_atom_site_fract_y
_atom_site_fract_z
O1 O 0.7330(6) 0.7871(9) 1.10163(18)
O2 O 0.7415(4) 0.9537(5) 0.99128(14)
O3 O 0.8862(4) 1.2054(5) 0.96973(15)
O4 O 0.8863(7) 0.4339(6) 0.81989(18)
F1 F 0.5021(5) 0.6488(8) 1.05511(16)
O5 O 0.7021(7) 0.4405(9) 1.0990(2)
S1 S 0.66303(16) 0.6233(2) 1.07018(5)
C1 C 0.8385(6) 1.0420(7) 0.95994(19)
C2 C 0.8645(5) 0.9065(7) 0.91889(19)
C3 C 0.9538(6) 0.9262(8) 0.8782(2)
H1 H 1.0065 1.0432 0.8739
C4 C 0.9636(7) 0.7730(9) 0.8445(2)
H2 H 1.0250 0.7832 0.8177
C5 C 0.8796(7) 0.5988(8) 0.8509(2)
C6 C 0.7901(6) 0.5765(7) 0.89046(19)
H3 H 0.7360 0.4604 0.8945
C7 C 0.7837(5) 0.7350(7) 0.92431(17)
C8 C 0.7029(6) 0.7553(7) 0.97240(18)
H4 H 0.5897 0.7417 0.9627
C9 C 0.7619(6) 0.6089(7) 1.01482(18)
H5 H 0.8724 0.6317 1.0259
H6 H 0.7502 0.4770 1.0003
C10 C 0.9485(7) 0.4397(9) 0.7727(2)
C11 C 0.8937(8) 0.5588(10) 0.7321(3)
H7 H 0.8142 0.6482 0.7355
C12 C 0.9566(11) 0.5472(12) 0.6850(3)
H8 H 0.9224 0.6326 0.6574
C13 C 1.0662(11) 0.4130(12) 0.6797(3)
H9 H 1.1057 0.4024 0.6479
C14 C 1.1203(10) 0.2925(12) 0.7202(3)
H10 H 1.1959 0.1987 0.7160
C15 C 1.0641(8) 0.3080(10) 0.7676(2)
H11 H 1.1047 0.2292 0.7959
loop_
_geom_bond_atom_site_label_1
_geom_bond_atom_site_label_2
_geom_bond_site_symmetry_1
_geom_bond_site_symmetry_2
O1 S1 1_555 1_555
O2 C1 1_555 1_555
O3 C1 1_555 1_555
O4 C5 1_555 1_555
F1 S1 1_555 1_555
O5 S1 1_555 1_555
S1 C9 1_555 1_555
C1 C2 1_555 1_555
C2 C3 1_555 1_555
C3 H1 1_555 1_555
C4 C3 1_555 1_555
H2 C4 1_555 1_555
C5 C4 1_555 1_555
C6 C5 1_555 1_555
H3 C6 1_555 1_555
C7 C2 1_555 1_555
C8 O2 1_555 1_555
H4 C8 1_555 1_555
C9 C8 1_555 1_555
H5 C9 1_555 1_555
H6 C9 1_555 1_555
C10 O4 1_555 1_555
C11 C10 1_555 1_555
H7 C11 1_555 1_555
C12 C11 1_555 1_555
H8 C12 1_555 1_555
C13 C12 1_555 1_555
H9 C13 1_555 1_555
C14 C13 1_555 1_555
H10 C14 1_555 1_555
C15 C10 1_555 1_555
H11 C15 1_555 1_555
C6 C7 1_555 1_555
C7 C8 1_555 1_555
C14 C15 1_555 1_555

#END
