
#######################################################################
#
#                 Cambridge Crystallographic Data Centre
#                                CCDC 
#
#######################################################################
#
# If this CIF has been generated from an entry in the Cambridge 
# Structural Database, then it will include bibliographic, chemical, 
# crystal, experimental, refinement or atomic coordinate data resulting 
# from the CCDC's data processing and validation procedures.
#
#######################################################################

data_PEXWOF
_chemical_formula_moiety         'C12 H21 N1 O2 S2'
_chemical_name_systematic        
'Butyl 2-(piperidine-1-carbothioylsulfanyl)acetate'
_symmetry_cell_setting           monoclinic
_symmetry_space_group_name_H-M   'P 21/n'
_symmetry_Int_Tables_number      14
_space_group_name_Hall           '-P 2yn'
loop_
_symmetry_equiv_pos_site_id
_symmetry_equiv_pos_as_xyz
1 x,y,z
2 1/2-x,1/2+y,1/2-z
3 -x,-y,-z
4 1/2+x,1/2-y,1/2+z
_cell_length_a                   6.504(3)
_cell_length_b                   24.123(12)
_cell_length_c                   9.506(5)
_cell_angle_alpha                90
_cell_angle_beta                 107.513(7)
_cell_angle_gamma                90
_cell_volume                     1422.32
_exptl_crystal_colour            colorless
_exptl_crystal_description       plate
_cell_formula_units_Z            4
_exptl_crystal_recrystallization_method ethanol
loop_
_atom_site_label
_atom_site_type_symbol
_atom_site_fract_x
_atom_site_fract_y
_atom_site_fract_z
C1 C 1.2478(4) -0.02321(12) 0.7652(3)
H1 H 1.3431 0.0087 0.7844
H2 H 1.2892 -0.0475 0.6970
C2 C 1.2674(5) -0.05344(12) 0.9064(3)
H3 H 1.2372 -0.0280 0.9768
H4 H 1.4141 -0.0667 0.9476
C3 C 1.1140(5) -0.10195(12) 0.8828(3)
H5 H 1.1196 -0.1181 0.9774
H6 H 1.1577 -0.1301 0.8248
C4 C 0.8852(5) -0.08365(12) 0.8037(3)
H7 H 0.7920 -0.1159 0.7795
H8 H 0.8333 -0.0599 0.8682
C5 C 0.8767(5) -0.05275(10) 0.6648(3)
H9 H 0.9177 -0.0772 0.5969
H10 H 0.7309 -0.0399 0.6176
C6 C 0.9636(4) 0.04736(9) 0.7047(2)
C7 C 0.6509(4) 0.12928(11) 0.6650(3)
H11 H 0.5084 0.1363 0.6737
H12 H 0.7551 0.1412 0.7564
C8 C 0.6801(4) 0.16428(10) 0.5411(3)
C9 C 0.7264(5) 0.25895(12) 0.4813(4)
H13 H 0.6155 0.2868 0.4714
H14 H 0.7074 0.2424 0.3852
C10 C 0.9456(5) 0.28531(12) 0.5363(4)
H15 H 0.9524 0.3158 0.4715
H16 H 0.9631 0.3006 0.6336
C11 C 1.1290(5) 0.24686(12) 0.5454(3)
H17 H 1.2628 0.2666 0.5897
H18 H 1.1222 0.2165 0.6107
C12 C 1.1354(5) 0.22341(15) 0.4029(4)
H19 H 1.0074 0.2020 0.3602
H20 H 1.2598 0.2001 0.4190
H21 H 1.1431 0.2530 0.3371
N1 N 1.0246(3) -0.00510(8) 0.7005(2)
O1 O 0.6723(4) 0.14809(8) 0.4213(2)
O2 O 0.7074(3) 0.21661(7) 0.5855(2)
S1 S 1.13068(11) 0.10062(3) 0.76094(9)
S2 S 0.68005(11) 0.05665(3) 0.64571(8)
loop_
_geom_bond_atom_site_label_1
_geom_bond_atom_site_label_2
_geom_bond_site_symmetry_1
_geom_bond_site_symmetry_2
C1 H1 1_555 1_555
H2 C1 1_555 1_555
C2 C1 1_555 1_555
H3 C2 1_555 1_555
H4 C2 1_555 1_555
C3 C2 1_555 1_555
H5 C3 1_555 1_555
H6 C3 1_555 1_555
C4 C3 1_555 1_555
H7 C4 1_555 1_555
H8 C4 1_555 1_555
C5 C4 1_555 1_555
H9 C5 1_555 1_555
H10 C5 1_555 1_555
C6 N1 1_555 1_555
C7 H11 1_555 1_555
H12 C7 1_555 1_555
C8 C7 1_555 1_555
C9 H13 1_555 1_555
H14 C9 1_555 1_555
C10 C9 1_555 1_555
H15 C10 1_555 1_555
H16 C10 1_555 1_555
C11 C10 1_555 1_555
H17 C11 1_555 1_555
H18 C11 1_555 1_555
C12 C11 1_555 1_555
H19 C12 1_555 1_555
H20 C12 1_555 1_555
H21 C12 1_555 1_555
N1 C1 1_555 1_555
O1 C8 1_555 1_555
O2 C8 1_555 1_555
S1 C6 1_555 1_555
S2 C6 1_555 1_555
C5 N1 1_555 1_555
C7 S2 1_555 1_555
C9 O2 1_555 1_555

#END
