
#######################################################################
#
#                 Cambridge Crystallographic Data Centre
#                                CCDC 
#
#######################################################################
#
# If this CIF has been generated from an entry in the Cambridge 
# Structural Database, then it will include bibliographic, chemical, 
# crystal, experimental, refinement or atomic coordinate data resulting 
# from the CCDC's data processing and validation procedures.
#
#######################################################################

data_PEXXAU
_chemical_formula_moiety         'C30 H36 N2 O3 S1'
_chemical_name_systematic        
4-[(3-butyl-1,3-benzothiazol-3-ium-2-yl)methylidene]-2-[4-(dibutylamino)-2-hydroxyphenyl]-3-oxocyclobut-1-en-1-olate
_symmetry_cell_setting           triclinic
_symmetry_space_group_name_H-M   'P -1'
_symmetry_Int_Tables_number      2
_space_group_name_Hall           '-P 1'
loop_
_symmetry_equiv_pos_site_id
_symmetry_equiv_pos_as_xyz
1 x,y,z
2 -x,-y,-z
_cell_length_a                   9.3736(9)
_cell_length_b                   9.8299(12)
_cell_length_c                   16.506(2)
_cell_angle_alpha                86.875(10)
_cell_angle_beta                 85.566(9)
_cell_angle_gamma                66.162(11)
_cell_volume                     1386.53
_exptl_crystal_colour            green
_exptl_crystal_description       block
_chemical_melting_point          '395.5 K'
_cell_formula_units_Z            2
_exptl_crystal_recrystallization_method methanol/chloroform
loop_
_atom_site_label
_atom_site_type_symbol
_atom_site_fract_x
_atom_site_fract_y
_atom_site_fract_z
S1 S -0.28492(19) 0.96404(18) 0.32795(11)
O1 O 0.3321(5) 0.5289(6) 0.3516(3)
O2 O 0.0084(5) 0.9800(5) 0.2573(3)
O3 O 0.2296(5) 1.0192(6) 0.1621(3)
H1 H 0.1614 1.0084 0.1948
N1 N -0.3131(5) 0.7696(5) 0.4297(3)
N2 N 0.7777(6) 0.8335(7) 0.1079(4)
C1 C -0.4725(7) 0.9869(7) 0.3650(4)
C2 C -0.6123(7) 1.0961(7) 0.3456(5)
H2 H -0.6168 1.1739 0.3078
C3 C -0.7465(8) 1.0903(8) 0.3825(5)
H3 H -0.8448 1.1669 0.3712
C4 C -0.7407(7) 0.9748(9) 0.4359(5)
H4 H -0.8352 0.9718 0.4593
C5 C -0.6023(7) 0.8664(7) 0.4552(4)
H5 H -0.5991 0.7894 0.4934
C6 C -0.4641(7) 0.8690(6) 0.4183(4)
C7 C -0.2017(6) 0.8007(5) 0.3850(3)
C8 C -0.2811(7) 0.6401(6) 0.4856(4)
H6 H -0.3527 0.6711 0.5348
H7 H -0.1729 0.6059 0.5027
C9 C -0.3005(7) 0.5114(7) 0.4485(4)
H8 H -0.3005 0.4388 0.4925
H9 H -0.4041 0.5496 0.4250
C10 C -0.1798(7) 0.4316(7) 0.3842(5)
H10 H -0.0752 0.3949 0.4065
H11 H -0.1823 0.5017 0.3385
C11 C -0.2057(10) 0.2989(8) 0.3525(6)
H12 H -0.1315 0.2563 0.3062
H13 H -0.3126 0.3332 0.3352
H14 H -0.1893 0.2229 0.3959
C12 C -0.0416(7) 0.7144(7) 0.3833(4)
H15 H -0.0092 0.6272 0.4171
C13 C 0.0759(7) 0.7407(7) 0.3383(4)
C14 C 0.2446(7) 0.6513(7) 0.3259(4)
C15 C 0.2613(7) 0.7665(7) 0.2714(4)
C16 C 0.0953(7) 0.8560(7) 0.2835(4)
C17 C 0.3868(6) 0.7846(7) 0.2266(3)
C18 C 0.3705(7) 0.9078(8) 0.1746(4)
C19 C 0.4977(7) 0.9223(8) 0.1349(4)
H16 H 0.4824 1.0066 0.1000
C20 C 0.6504(7) 0.8152(8) 0.1446(4)
C21 C 0.6685(7) 0.6902(8) 0.1965(4)
H17 H 0.7700 0.6165 0.2050
C22 C 0.5409(7) 0.6751(7) 0.2343(4)
H18 H 0.5556 0.5883 0.2669
C23 C 0.7633(9) 0.9560(10) 0.0515(5)
H19 H 0.6723 0.9782 0.0185
H20 H 0.8581 0.9275 0.0142
C24 C 0.7416(11) 1.0989(12) 0.0987(6)
H21 H 0.6526 1.1211 0.1395
H22 H 0.8366 1.0785 0.1280
C25 C 0.7131(17) 1.2278(16) 0.0451(7)
H23 H 0.6184 1.2489 0.0153
H24 H 0.8027 1.2075 0.0047
C26 C 0.6914(18) 1.3602(16) 0.0937(9)
H25 H 0.6733 1.4467 0.0572
H26 H 0.7853 1.3389 0.1231
H27 H 0.6012 1.3813 0.1328
C27 C 0.9385(8) 0.7383(9) 0.1333(5)
H28 H 1.0042 0.7962 0.1262
H29 H 0.9327 0.7110 0.1917
C28 C 1.0133(10) 0.6011(10) 0.0860(6)
H30 H 1.0266 0.6273 0.0280
H31 H 0.9456 0.5452 0.0903
C29 C 1.1746(11) 0.5025(12) 0.1185(8)
H32 H 1.2442 0.4416 0.0740
H33 H 1.2231 0.5665 0.1379
C30 C 1.158(2) 0.407(2) 0.1836(11)
H34 H 1.1098 0.4661 0.2319
H35 H 1.2612 0.3315 0.1957
H36 H 1.0918 0.3586 0.1678
H37? H 1.2443 0.5543 0.1033
H38? H 1.1605 0.5027 0.1786
C31? C 1.261(3) 0.347(2) 0.0957(17)
H39? H 1.2875 0.3423 0.0370
H40? H 1.1961 0.2909 0.1099
H41? H 1.3571 0.3031 0.1248
loop_
_geom_bond_atom_site_label_1
_geom_bond_atom_site_label_2
_geom_bond_site_symmetry_1
_geom_bond_site_symmetry_2
S1 C1 1_555 1_555
O1 C14 1_555 1_555
O2 C16 1_555 1_555
O3 H1 1_555 1_555
N1 C6 1_555 1_555
N2 C20 1_555 1_555
C1 C2 1_555 1_555
C2 H2 1_555 1_555
C3 C2 1_555 1_555
H3 C3 1_555 1_555
C4 C3 1_555 1_555
H4 C4 1_555 1_555
C5 C4 1_555 1_555
H5 C5 1_555 1_555
C6 C1 1_555 1_555
C7 S1 1_555 1_555
C8 N1 1_555 1_555
H6 C8 1_555 1_555
H7 C8 1_555 1_555
C9 C8 1_555 1_555
H8 C9 1_555 1_555
H9 C9 1_555 1_555
C10 C9 1_555 1_555
H10 C10 1_555 1_555
H11 C10 1_555 1_555
C11 C10 1_555 1_555
H12 C11 1_555 1_555
H13 C11 1_555 1_555
H14 C11 1_555 1_555
C12 C7 1_555 1_555
H15 C12 1_555 1_555
C13 C12 1_555 1_555
C14 C13 1_555 1_555
C15 C14 1_555 1_555
C16 C13 1_555 1_555
C17 C15 1_555 1_555
C18 O3 1_555 1_555
C19 C18 1_555 1_555
H16 C19 1_555 1_555
C20 C19 1_555 1_555
C21 C20 1_555 1_555
H17 C21 1_555 1_555
C22 C17 1_555 1_555
H18 C22 1_555 1_555
C23 N2 1_555 1_555
H19 C23 1_555 1_555
H20 C23 1_555 1_555
C24 C23 1_555 1_555
H21 C24 1_555 1_555
H22 C24 1_555 1_555
C25 C24 1_555 1_555
H23 C25 1_555 1_555
H24 C25 1_555 1_555
C26 C25 1_555 1_555
H25 C26 1_555 1_555
H26 C26 1_555 1_555
H27 C26 1_555 1_555
C27 N2 1_555 1_555
H28 C27 1_555 1_555
H29 C27 1_555 1_555
C28 C27 1_555 1_555
H30 C28 1_555 1_555
H31 C28 1_555 1_555
C29 C28 1_555 1_555
H32 C29 1_555 1_555
H33 C29 1_555 1_555
C30 C29 1_555 1_555
H34 C30 1_555 1_555
H35 C30 1_555 1_555
H36 C30 1_555 1_555
N1 C7 1_555 1_555
C5 C6 1_555 1_555
C15 C16 1_555 1_555
C17 C18 1_555 1_555
C21 C22 1_555 1_555

#END
