
#######################################################################
#
#                 Cambridge Crystallographic Data Centre
#                                CCDC 
#
#######################################################################
#
# If this CIF has been generated from an entry in the Cambridge 
# Structural Database, then it will include bibliographic, chemical, 
# crystal, experimental, refinement or atomic coordinate data resulting 
# from the CCDC's data processing and validation procedures.
#
#######################################################################

data_PEXXAS
_chemical_compound_source        'root of Angelica dahurica'
_chemical_name_common            'Oxypeucedanin hydrate'
_chemical_formula_moiety         'C16 H16 O6'
_chemical_name_systematic        
4-(2,3-Dihydroxy-3-methylbutoxy)-7H-furo(3,2-g)chromen-7-one
_chemical_properties_biological  'inhibits histamine release'
_symmetry_cell_setting           monoclinic
_symmetry_space_group_name_H-M   'P 21/c'
_symmetry_Int_Tables_number      14
_space_group_name_Hall           '-P 2ybc'
loop_
_symmetry_equiv_pos_site_id
_symmetry_equiv_pos_as_xyz
1 x,y,z
2 -x,1/2+y,1/2-z
3 -x,-y,-z
4 x,1/2-y,1/2+z
_cell_length_a                   9.1301(19)
_cell_length_b                   10.015(2)
_cell_length_c                   16.003(3)
_cell_angle_alpha                90
_cell_angle_beta                 98.824(4)
_cell_angle_gamma                90
_cell_volume                     1445.96
_exptl_crystal_colour            colorless
_exptl_crystal_description       block
_chemical_melting_point          '409-410 K'
_cell_formula_units_Z            4
_exptl_crystal_recrystallization_method ethanol
loop_
_atom_site_label
_atom_site_type_symbol
_atom_site_fract_x
_atom_site_fract_y
_atom_site_fract_z
O1 O 1.07560(19) 0.86876(18) 0.98538(12)
O2 O 0.90741(18) 0.53830(18) 1.16131(9)
O3 O 0.8358(2) 0.3865(2) 1.24520(10)
O4 O 0.71683(18) 0.55393(16) 0.86943(9)
O5 O 0.40394(18) 0.71393(15) 0.68192(9)
H1 H 0.3359 0.6710 0.7030
C1 C 1.0378(3) 0.8939(3) 0.90062(18)
H2 H 1.0796 0.9618 0.8724
C2 C 0.9357(3) 0.8110(2) 0.86331(15)
H3 H 0.8947 0.8104 0.8064
C3 C 0.8998(2) 0.7215(2) 0.92808(12)
C4 C 0.8084(2) 0.6118(2) 0.93395(12)
C5 C 0.8097(2) 0.5493(2) 1.01266(12)
C6 C 0.7200(2) 0.4366(2) 1.02521(14)
H4 H 0.6571 0.4010 0.9794
C7 C 0.7247(3) 0.3812(3) 1.10162(14)
H5 H 0.6636 0.3088 1.1080
C8 C 0.8214(3) 0.4306(3) 1.17347(14)
C9 C 0.9047(2) 0.5986(2) 1.08341(12)
C10 C 0.9962(3) 0.7061(3) 1.08029(14)
H6 H 1.0576 0.7383 1.1278
C11 C 0.9904(2) 0.7625(2) 1.00207(15)
C12 C 0.6767(3) 0.6241(2) 0.79234(13)
H7 H 0.7643 0.6441 0.7671
H8 H 0.6285 0.7076 0.8025
C13 C 0.5727(2) 0.5372(2) 0.73406(12)
H9 H 0.4949 0.5066 0.7655
O6 O 0.6420(3) 0.4251(3) 0.70826(15)
H10 H 0.6374 0.3629 0.7442
C14 C 0.4968(2) 0.6119(2) 0.65559(12)
C15 C 0.6070(3) 0.6834(3) 0.60991(14)
H13 H 0.5559 0.7230 0.5590
H14 H 0.6791 0.6208 0.5960
H15 H 0.6559 0.7520 0.6458
C16 C 0.4017(3) 0.5165(2) 0.59720(13)
H16 H 0.3290 0.4765 0.6268
H17 H 0.4631 0.4479 0.5789
H18 H 0.3527 0.5644 0.5489
H11? H 0.6335 0.4672 0.7137
O7? O 0.4675(4) 0.4724(4) 0.7739(2)
H12? H 0.5040 0.3909 0.7918
loop_
_geom_bond_atom_site_label_1
_geom_bond_atom_site_label_2
_geom_bond_site_symmetry_1
_geom_bond_site_symmetry_2
O1 C1 1_555 1_555
O2 C8 1_555 1_555
O3 C8 1_555 1_555
O4 C4 1_555 1_555
O5 H1 1_555 1_555
C1 H2 1_555 1_555
C2 C1 1_555 1_555
H3 C2 1_555 1_555
C3 C2 1_555 1_555
C4 C3 1_555 1_555
C5 C4 1_555 1_555
C6 C5 1_555 1_555
H4 C6 1_555 1_555
C7 C6 1_555 1_555
H5 C7 1_555 1_555
C8 C7 1_555 1_555
C9 O2 1_555 1_555
C10 C9 1_555 1_555
H6 C10 1_555 1_555
C11 O1 1_555 1_555
C12 O4 1_555 1_555
H7 C12 1_555 1_555
H8 C12 1_555 1_555
C13 C12 1_555 1_555
H9 C13 1_555 1_555
O6 C13 1_555 1_555
H10 O6 1_555 1_555
C14 O5 1_555 1_555
C15 C14 1_555 1_555
H13 C15 1_555 1_555
H14 C15 1_555 1_555
H15 C15 1_555 1_555
C16 C14 1_555 1_555
H16 C16 1_555 1_555
H17 C16 1_555 1_555
H18 C16 1_555 1_555
C3 C11 1_555 1_555
C5 C9 1_555 1_555
C10 C11 1_555 1_555
C13 C14 1_555 1_555

#END
