
#######################################################################
#
#                 Cambridge Crystallographic Data Centre
#                                CCDC 
#
#######################################################################
#
# If this CIF has been generated from an entry in the Cambridge 
# Structural Database, then it will include bibliographic, chemical, 
# crystal, experimental, refinement or atomic coordinate data resulting 
# from the CCDC's data processing and validation procedures.
#
#######################################################################

data_PEXXEY
_chemical_formula_moiety         'C33 H36 N4 O2 S1'
_chemical_name_systematic        
4-[(3-butyl-1,3-benzothiazol-3-ium-2-yl)methylidene]-2-[4-(dibutylamino)-2-hydroxyphenyl]-3-(dicyanomethylidene)cyclobut-1-en-1-olate
_symmetry_cell_setting           monoclinic
_symmetry_space_group_name_H-M   'P 21/c'
_symmetry_Int_Tables_number      14
_space_group_name_Hall           '-P 2ybc'
loop_
_symmetry_equiv_pos_site_id
_symmetry_equiv_pos_as_xyz
1 x,y,z
2 -x,1/2+y,1/2-z
3 -x,-y,-z
4 x,1/2-y,1/2+z
_cell_length_a                   8.9009(5)
_cell_length_b                   29.0765(17)
_cell_length_c                   11.7440(6)
_cell_angle_alpha                90
_cell_angle_beta                 105.910(6)
_cell_angle_gamma                90
_cell_volume                     2923
_exptl_crystal_colour            green
_chemical_melting_point          '500 K'
_cell_formula_units_Z            4
_exptl_crystal_recrystallization_method n-Hexane/dichloromethane
loop_
_atom_site_label
_atom_site_type_symbol
_atom_site_fract_x
_atom_site_fract_y
_atom_site_fract_z
S1 S 0.36375(8) 0.54785(2) 0.50161(6)
O1 O 0.2485(2) 0.48518(6) 0.65192(15)
O2 O 0.1632(3) 0.44680(7) 0.82337(16)
H1 H 0.1897 0.4594 0.7674
N1 N 0.3095(2) 0.54241(7) 0.27718(18)
N2 N -0.0998(3) 0.42765(10) 0.1330(2)
N3 N -0.3020(4) 0.34383(11) 0.3504(2)
N4 N -0.0605(3) 0.31251(9) 0.9316(2)
C1 C 0.4607(3) 0.58529(9) 0.4314(2)
C2 C 0.5683(3) 0.61907(10) 0.4829(3)
H2 H 0.5950 0.6248 0.5657
C3 C 0.6347(4) 0.64402(11) 0.4095(3)
H3 H 0.7089 0.6673 0.4423
C4 C 0.5953(4) 0.63572(11) 0.2888(3)
H4 H 0.6444 0.6532 0.2406
C5 C 0.4872(4) 0.60295(10) 0.2369(3)
H5 H 0.4596 0.5978 0.1539
C6 C 0.4195(3) 0.57763(9) 0.3103(2)
C7 C 0.2693(3) 0.52239(9) 0.3679(2)
C8 C 0.2436(3) 0.52976(10) 0.1505(2)
H6 H 0.2269 0.5581 0.1018
H7 H 0.1407 0.5148 0.1403
C9 C 0.3501(4) 0.49729(10) 0.1065(2)
H8 H 0.3106 0.4949 0.0193
H9 H 0.4557 0.5111 0.1249
C10 C 0.3643(4) 0.44963(11) 0.1575(3)
H10 H 0.2589 0.4360 0.1436
H11 H 0.4119 0.4513 0.2442
C11 C 0.4640(4) 0.41879(12) 0.1023(3)
H12 H 0.4140 0.4157 0.0173
H13 H 0.4743 0.3884 0.1397
H14 H 0.5678 0.4325 0.1145
C12 C 0.1618(3) 0.48587(9) 0.3544(2)
H15 H 0.1137 0.4762 0.2756
C13 C 0.1190(3) 0.46287(8) 0.4421(2)
C14 C 0.1599(3) 0.46245(8) 0.5725(2)
C15 C 0.0532(3) 0.42448(8) 0.5695(2)
C16 C 0.0098(3) 0.42536(8) 0.4418(2)
C17 C -0.0910(3) 0.40346(9) 0.3455(2)
C18 C -0.0954(3) 0.41721(10) 0.2278(2)
C19 C -0.2055(4) 0.37010(10) 0.3514(2)
C20 C 0.0190(3) 0.39758(9) 0.6614(2)
C21 C 0.0799(3) 0.40846(9) 0.7835(2)
C22 C 0.0520(3) 0.38051(9) 0.8703(2)
H16 H 0.0951 0.3889 0.9508
C23 C -0.0370(3) 0.34043(9) 0.8448(2)
C24 C -0.1015(4) 0.33018(10) 0.7234(2)
H17 H -0.1658 0.3038 0.7014
C25 C -0.0730(3) 0.35746(9) 0.6380(2)
H18 H -0.1177 0.3490 0.5577
C26 C -0.1556(4) 0.27079(10) 0.9044(3)
H19 H -0.1243 0.2497 0.9730
H20 H -0.1327 0.2553 0.8361
C27 C -0.3313(4) 0.27896(12) 0.8758(3)
H21 H -0.3630 0.2989 0.8048
H22 H -0.3851 0.2491 0.8551
C28 C -0.3881(5) 0.30078(15) 0.9733(4)
H23 H -0.3235 0.3283 1.0026
H24 H -0.4970 0.3113 0.9395
C29 C -0.3831(7) 0.27057(19) 1.0737(4)
H25 H -0.4331 0.2412 1.0447
H26 H -0.4386 0.2851 1.1256
H27 H -0.2741 0.2651 1.1181
C30 C 0.0208(4) 0.32065(12) 1.0566(3)
H28 H -0.0416 0.3072 1.1064
H29 H 0.0279 0.3542 1.0714
C31 C 0.1827(5) 0.30043(17) 1.0934(3)
H30 H 0.2476 0.3154 1.0478
H31 H 0.1767 0.2672 1.0737
C32 C 0.2615(7) 0.3064(2) 1.2257(4)
H32 H 0.3753 0.3015 1.2398
H33 H 0.2460 0.3385 1.2481
C33 C 0.2070(8) 0.2765(2) 1.3004(4)
H34 H 0.1937 0.2455 1.2662
H35 H 0.1065 0.2877 1.3083
H36 H 0.2830 0.2756 1.3786
loop_
_geom_bond_atom_site_label_1
_geom_bond_atom_site_label_2
_geom_bond_site_symmetry_1
_geom_bond_site_symmetry_2
S1 C1 1_555 1_555
O1 C14 1_555 1_555
O2 H1 1_555 1_555
N1 C6 1_555 1_555
N2 C18 1_555 1_555
N3 C19 1_555 1_555
N4 C23 1_555 1_555
C1 C2 1_555 1_555
C2 H2 1_555 1_555
C3 C2 1_555 1_555
H3 C3 1_555 1_555
C4 C3 1_555 1_555
H4 C4 1_555 1_555
C5 C4 1_555 1_555
H5 C5 1_555 1_555
C6 C1 1_555 1_555
C7 S1 1_555 1_555
C8 N1 1_555 1_555
H6 C8 1_555 1_555
H7 C8 1_555 1_555
C9 C8 1_555 1_555
H8 C9 1_555 1_555
H9 C9 1_555 1_555
C10 C9 1_555 1_555
H10 C10 1_555 1_555
H11 C10 1_555 1_555
C11 C10 1_555 1_555
H12 C11 1_555 1_555
H13 C11 1_555 1_555
H14 C11 1_555 1_555
C12 C7 1_555 1_555
H15 C12 1_555 1_555
C13 C12 1_555 1_555
C14 C13 1_555 1_555
C15 C14 1_555 1_555
C16 C13 1_555 1_555
C17 C16 1_555 1_555
C18 C17 1_555 1_555
C19 C17 1_555 1_555
C20 C15 1_555 1_555
C21 O2 1_555 1_555
C22 C21 1_555 1_555
H16 C22 1_555 1_555
C23 C22 1_555 1_555
C24 C23 1_555 1_555
H17 C24 1_555 1_555
C25 C20 1_555 1_555
H18 C25 1_555 1_555
C26 N4 1_555 1_555
H19 C26 1_555 1_555
H20 C26 1_555 1_555
C27 C26 1_555 1_555
H21 C27 1_555 1_555
H22 C27 1_555 1_555
C28 C27 1_555 1_555
H23 C28 1_555 1_555
H24 C28 1_555 1_555
C29 C28 1_555 1_555
H25 C29 1_555 1_555
H26 C29 1_555 1_555
H27 C29 1_555 1_555
C30 N4 1_555 1_555
H28 C30 1_555 1_555
H29 C30 1_555 1_555
C31 C30 1_555 1_555
H30 C31 1_555 1_555
H31 C31 1_555 1_555
C32 C31 1_555 1_555
H32 C32 1_555 1_555
H33 C32 1_555 1_555
C33 C32 1_555 1_555
H34 C33 1_555 1_555
H35 C33 1_555 1_555
H36 C33 1_555 1_555
N1 C7 1_555 1_555
C5 C6 1_555 1_555
C15 C16 1_555 1_555
C20 C21 1_555 1_555
C24 C25 1_555 1_555

#END
