
#######################################################################
#
#                 Cambridge Crystallographic Data Centre
#                                CCDC 
#
#######################################################################
#
# If this CIF has been generated from an entry in the Cambridge 
# Structural Database, then it will include bibliographic, chemical, 
# crystal, experimental, refinement or atomic coordinate data resulting 
# from the CCDC's data processing and validation procedures.
#
#######################################################################

data_PEXYID
_chemical_formula_moiety         'C8 H4 N26,2(C3 H7 N1 O1)'
_chemical_name_systematic        
'3,6-bis[2-(4,6-diazido-1,3,5-triazin-2-yl)hydrazinyl]-1,2,4,5-tetrazine N,N-dimethylformamide solvate'
_symmetry_cell_setting           triclinic
_symmetry_space_group_name_H-M   'P -1'
_symmetry_Int_Tables_number      2
_space_group_name_Hall           '-P 1'
loop_
_symmetry_equiv_pos_site_id
_symmetry_equiv_pos_as_xyz
1 x,y,z
2 -x,-y,-z
_cell_length_a                   7.5168(14)
_cell_length_b                   10.0643(18)
_cell_length_c                   10.4408(18)
_cell_angle_alpha                61.325(5)
_cell_angle_beta                 77.203(6)
_cell_angle_gamma                74.219(6)
_cell_volume                     662.984
_exptl_crystal_description       sheet
_cell_formula_units_Z            1
loop_
_atom_site_label
_atom_site_type_symbol
_atom_site_fract_x
_atom_site_fract_y
_atom_site_fract_z
C1 C 0.3289(13) 0.5040(8) 0.5561(8)
C2 C 0.2329(12) 0.4110(9) 1.0160(9)
C3 C 0.2132(12) 0.1677(9) 1.0907(9)
C4 C 0.1546(11) 0.3467(9) 0.8627(8)
N1 N 0.5475(10) 0.6273(7) 0.3776(7)
N2 N 0.3726(10) 0.6307(7) 0.4358(7)
N3 N 0.1503(11) 0.5121(8) 0.6116(7)
H1 H 0.056(10) 0.573(9) 0.566(9)
N4 N 0.0997(10) 0.3811(7) 0.7346(7)
H2 H 0.114(12) 0.310(8) 0.708(9)
N5 N 0.1914(10) 0.4565(7) 0.8846(7)
N6 N 0.2475(10) 0.2659(7) 1.1284(7)
N7 N 0.1631(9) 0.1968(7) 0.9636(7)
N8 N 0.2703(10) 0.5256(7) 1.0402(7)
N9 N 0.3149(11) 0.4805(8) 1.1623(9)
N10 N 0.3582(12) 0.4550(9) 1.2706(10)
N11 N 0.2359(11) 0.0129(7) 1.2043(7)
N12 N 0.2299(12) -0.0800(9) 1.1597(8)
N13 N 0.2312(14) -0.1792(9) 1.1363(8)
C1A C 0.6711(13) 0.4960(8) 0.4439(8)
C2A C 0.7671(12) 0.5890(9) -0.0160(9)
C3A C 0.7868(12) 0.8323(9) -0.0907(9)
C4A C 0.8454(11) 0.6533(9) 0.1373(8)
N1A N 0.4525(10) 0.3727(7) 0.6224(7)
N2A N 0.6274(10) 0.3693(7) 0.5642(7)
N3A N 0.8497(11) 0.4879(8) 0.3884(7)
H1A H 0.944(10) 0.427(9) 0.434(9)
N4A N 0.9003(10) 0.6189(7) 0.2654(7)
H2A H 0.886(12) 0.690(8) 0.292(9)
N5A N 0.8086(10) 0.5435(7) 0.1154(7)
N6A N 0.7525(10) 0.7341(7) -0.1284(7)
N7A N 0.8369(9) 0.8032(7) 0.0364(7)
N8A N 0.7297(10) 0.4744(7) -0.0402(7)
N9A N 0.6851(11) 0.5195(8) -0.1623(9)
N10A N 0.6418(12) 0.5450(9) -0.2706(10)
N11A N 0.7641(11) 0.9871(7) -0.2043(7)
N12A N 0.7701(12) 1.0800(9) -0.1597(8)
N13A N 0.7688(14) 1.1792(9) -0.1363(8)
C5 C 0.1576(12) 0.1178(10) 0.5375(9)
H3 H 0.1353 0.1318 0.4454
C6 C 0.3033(17) -0.1446(11) 0.5866(11)
H4 H 0.2682 -0.1105 0.4890
H5 H 0.2434 -0.2309 0.6588
H6 H 0.4387 -0.1779 0.5855
C7 C 0.2853(16) -0.0508(11) 0.7689(11)
H7 H 0.2571 0.0462 0.7767
H8 H 0.4171 -0.0973 0.7798
H9 H 0.2088 -0.1220 0.8465
N14 N 0.2447(10) -0.0199(8) 0.6250(8)
O1 O 0.1024(9) 0.2302(6) 0.5640(6)
loop_
_geom_bond_atom_site_label_1
_geom_bond_atom_site_label_2
_geom_bond_site_symmetry_1
_geom_bond_site_symmetry_2
C1 N2 1_555 1_555
C2 N5 1_555 1_555
C3 N6 1_555 1_555
C4 N4 1_555 1_555
N1 N2 1_555 1_555
N3 C1 1_555 1_555
H1 N3 1_555 1_555
N4 N3 1_555 1_555
H2 N4 1_555 1_555
N5 C4 1_555 1_555
N6 C2 1_555 1_555
N7 C3 1_555 1_555
N8 C2 1_555 1_555
N9 N8 1_555 1_555
N10 N9 1_555 1_555
N11 C3 1_555 1_555
N12 N11 1_555 1_555
N13 N12 1_555 1_555
C5 H3 1_555 1_555
C6 H4 1_555 1_555
H5 C6 1_555 1_555
H6 C6 1_555 1_555
C7 H7 1_555 1_555
H8 C7 1_555 1_555
H9 C7 1_555 1_555
N14 C5 1_555 1_555
O1 C5 1_555 1_555
C1A N1 1_555 1_555
C2A N5A 1_555 1_555
C3A N6A 1_555 1_555
C4A N4A 1_555 1_555
N1A C1 1_555 1_555
N2A C1A 1_555 1_555
N3A C1A 1_555 1_555
H1A N3A 1_555 1_555
N4A N3A 1_555 1_555
H2A N4A 1_555 1_555
N5A C4A 1_555 1_555
N6A C2A 1_555 1_555
N7A C3A 1_555 1_555
N8A C2A 1_555 1_555
N9A N8A 1_555 1_555
N10A N9A 1_555 1_555
N11A C3A 1_555 1_555
N12A N11A 1_555 1_555
N13A N12A 1_555 1_555
C4 N7 1_555 1_555
C6 N14 1_555 1_555
C7 N14 1_555 1_555
C4A N7A 1_555 1_555
N1A N2A 1_555 1_555

#END
