
#######################################################################
#
#                 Cambridge Crystallographic Data Centre
#                                CCDC 
#
#######################################################################
#
# If this CIF has been generated from an entry in the Cambridge 
# Structural Database, then it will include bibliographic, chemical, 
# crystal, experimental, refinement or atomic coordinate data resulting 
# from the CCDC's data processing and validation procedures.
#
#######################################################################

data_PEXZAU
_chemical_formula_moiety         'C18 H16 Br1 N3 O2'
_chemical_name_systematic        
(E)-4-(5-Bromo-2-hydroxybenzylideneamino)-1,5-dimethyl-2-phenyl-1H-pyrazol-3(2H)-one
_symmetry_cell_setting           monoclinic
_symmetry_space_group_name_H-M   'P 21/n'
_symmetry_Int_Tables_number      14
_space_group_name_Hall           '-P 2yn'
loop_
_symmetry_equiv_pos_site_id
_symmetry_equiv_pos_as_xyz
1 x,y,z
2 1/2-x,1/2+y,1/2-z
3 -x,-y,-z
4 1/2+x,1/2-y,1/2+z
_cell_length_a                   12.1187(5)
_cell_length_b                   7.0788(3)
_cell_length_c                   20.3250(9)
_cell_angle_alpha                90
_cell_angle_beta                 104.4580(10)
_cell_angle_gamma                90
_cell_volume                     1688.38
_exptl_crystal_colour            colorless
_exptl_crystal_description       block
_cell_formula_units_Z            4
_exptl_crystal_recrystallization_method 'dichloromethane/absolute ethanol'
loop_
_atom_site_label
_atom_site_type_symbol
_atom_site_fract_x
_atom_site_fract_y
_atom_site_fract_z
Br1 Br -0.35478(3) -0.03320(5) 0.082381(18)
C1 C -0.17284(19) 0.2268(3) 0.09172(12)
H1 H -0.1304 0.1374 0.1210
C2 C -0.2858(2) 0.1930(3) 0.06190(12)
C3 C -0.3506(2) 0.3227(4) 0.01774(13)
H2 H -0.4271 0.2983 -0.0022
C4 C -0.3018(2) 0.4869(4) 0.00364(13)
H3 H -0.3456 0.5740 -0.0260
C5 C -0.1879(2) 0.5253(3) 0.03282(12)
C6 C -0.12073(19) 0.3944(3) 0.07858(11)
C7 C -0.0021(2) 0.4287(3) 0.11062(12)
H4 H 0.0396 0.3374 0.1393
C8 C 0.16129(19) 0.6198(3) 0.13017(11)
C9 C 0.21375(19) 0.7857(3) 0.12130(11)
C10 C 0.1631(2) 0.9586(3) 0.08486(14)
H5 H 0.1759 1.0636 0.1157
H6 H 0.0826 0.9405 0.0670
H7 H 0.1979 0.9837 0.0482
C11 C 0.3955(2) 0.9381(3) 0.18358(14)
H8 H 0.3812 1.0436 0.1530
H9 H 0.4749 0.9057 0.1937
H10 H 0.3751 0.9710 0.2248
C12 C 0.2451(2) 0.4964(3) 0.17212(13)
C13 C 0.45644(19) 0.5219(3) 0.20346(11)
C14 C 0.5329(2) 0.5591(3) 0.16505(12)
H11 H 0.5128 0.6402 0.1280
C15 C 0.6395(2) 0.4760(4) 0.18158(14)
H12 H 0.6912 0.5024 0.1559
C16 C 0.6691(2) 0.3555(4) 0.23539(15)
H13 H 0.7410 0.3003 0.2465
C17 C 0.5924(2) 0.3156(4) 0.27327(14)
H14 H 0.6123 0.2310 0.3093
C18 C 0.4858(2) 0.4000(4) 0.25842(12)
H15 H 0.4349 0.3752 0.2848
N1 N 0.04723(16) 0.5828(3) 0.10033(9)
N2 N 0.32693(15) 0.7754(2) 0.15177(9)
N3 N 0.34597(15) 0.6022(2) 0.18708(10)
O1 O 0.23820(13) 0.3331(2) 0.19119(9)
O2 O -0.14255(15) 0.6879(3) 0.01757(9)
H16 H -0.0736 0.6873 0.0343
loop_
_geom_bond_atom_site_label_1
_geom_bond_atom_site_label_2
_geom_bond_site_symmetry_1
_geom_bond_site_symmetry_2
Br1 C2 1_555 1_555
C1 H1 1_555 1_555
C2 C1 1_555 1_555
C3 C2 1_555 1_555
H2 C3 1_555 1_555
C4 C3 1_555 1_555
H3 C4 1_555 1_555
C5 C4 1_555 1_555
C6 C1 1_555 1_555
C7 C6 1_555 1_555
H4 C7 1_555 1_555
C8 C9 1_555 1_555
C9 C10 1_555 1_555
C10 H5 1_555 1_555
H6 C10 1_555 1_555
H7 C10 1_555 1_555
C11 H8 1_555 1_555
H9 C11 1_555 1_555
H10 C11 1_555 1_555
C12 C8 1_555 1_555
C13 C14 1_555 1_555
C14 H11 1_555 1_555
C15 C14 1_555 1_555
H12 C15 1_555 1_555
C16 C15 1_555 1_555
H13 C16 1_555 1_555
C17 C16 1_555 1_555
H14 C17 1_555 1_555
C18 C13 1_555 1_555
H15 C18 1_555 1_555
N1 C7 1_555 1_555
N2 C9 1_555 1_555
N3 C12 1_555 1_555
O1 C12 1_555 1_555
O2 C5 1_555 1_555
H16 O2 1_555 1_555
C5 C6 1_555 1_555
C8 N1 1_555 1_555
C11 N2 1_555 1_555
C13 N3 1_555 1_555
C17 C18 1_555 1_555
N2 N3 1_555 1_555

#END
