
#######################################################################
#
#                 Cambridge Crystallographic Data Centre
#                                CCDC 
#
#######################################################################
#
# If this CIF has been generated from an entry in the Cambridge 
# Structural Database, then it will include bibliographic, chemical, 
# crystal, experimental, refinement or atomic coordinate data resulting 
# from the CCDC's data processing and validation procedures.
#
#######################################################################

data_PEXZOK
_chemical_formula_moiety         'C8 H4 Cl4 N14,2(C3 H8 O1)'
_chemical_name_systematic        
'3,6-bis[2-(4,6-dichloro-1,3,5-triazin-2-yl)hydrazinyl]-1,2,4,5-tetrazine isopropanol solvate'
_symmetry_cell_setting           triclinic
_symmetry_space_group_name_H-M   'P -1'
_symmetry_Int_Tables_number      2
_space_group_name_Hall           '-P 1'
loop_
_symmetry_equiv_pos_site_id
_symmetry_equiv_pos_as_xyz
1 x,y,z
2 -x,-y,-z
_cell_length_a                   7.5480(15)
_cell_length_b                   7.7800(16)
_cell_length_c                   11.411(2)
_cell_angle_alpha                79.51(3)
_cell_angle_beta                 75.37(3)
_cell_angle_gamma                71.85(3)
_cell_volume                     612.199
_cell_formula_units_Z            1
loop_
_atom_site_label
_atom_site_type_symbol
_atom_site_fract_x
_atom_site_fract_y
_atom_site_fract_z
Cl1 Cl 0.44633(14) 0.06610(10) 0.35704(7)
Cl2 Cl 0.26131(13) 0.75465(9) 0.21220(7)
N1 N 0.3613(3) 0.1924(3) 0.14792(19)
C1 C 0.3785(4) 0.2420(3) 0.2477(2)
N2 N 0.2791(3) 0.5115(3) 0.07977(19)
C2 C 0.3084(3) 0.3349(3) 0.0664(2)
N3 N 0.3496(3) 0.4074(3) 0.27528(19)
C3 C 0.3016(4) 0.5328(3) 0.1848(2)
N4 N 0.2771(3) 0.3072(3) -0.0379(2)
H1 H 0.2456 0.3988 -0.0909
C4 C 0.1419(4) 0.0679(3) -0.0301(2)
N5 N 0.2944(3) 0.1343(3) -0.0627(2)
H2 H 0.4025 0.0694 -0.0988
N6 N -0.0079(3) 0.1436(3) 0.05487(19)
N7 N -0.1537(3) 0.0735(3) 0.0859(2)
Cl1A Cl -0.44633(14) -0.06610(10) -0.35704(7)
Cl2A Cl -0.26131(13) -0.75465(9) -0.21220(7)
N1A N -0.3613(3) -0.1924(3) -0.14792(19)
C1A C -0.3785(4) -0.2420(3) -0.2477(2)
N2A N -0.2791(3) -0.5115(3) -0.07977(19)
C2A C -0.3084(3) -0.3349(3) -0.0664(2)
N3A N -0.3496(3) -0.4074(3) -0.27528(19)
C3A C -0.3016(4) -0.5328(3) -0.1848(2)
N4A N -0.2771(3) -0.3072(3) 0.0379(2)
H1A H -0.2456 -0.3988 0.0909
C4A C -0.1419(4) -0.0679(3) 0.0301(2)
N5A N -0.2944(3) -0.1343(3) 0.0627(2)
H2A H -0.4025 -0.0694 0.0988
N6A N 0.0079(3) -0.1436(3) -0.05487(19)
N7A N 0.1537(3) -0.0735(3) -0.0859(2)
O1 O 0.1153(3) 0.5711(3) 0.78691(18)
H3 H 0.1043 0.6610 0.8190
C5 C 0.2266(9) 0.4249(7) 0.6117(4)
H4 H 0.2898 0.3202 0.6600
H5 H 0.2984 0.4275 0.5292
H6 H 0.1011 0.4185 0.6130
C6 C 0.1206(9) 0.7639(7) 0.5970(4)
H7 H 0.1220 0.8634 0.6354
H8 H -0.0088 0.7687 0.5992
H9 H 0.1888 0.7726 0.5138
C7 C 0.2120(5) 0.5913(5) 0.6621(3)
H10 H 0.3417 0.5926 0.6612
loop_
_geom_bond_atom_site_label_1
_geom_bond_atom_site_label_2
_geom_bond_site_symmetry_1
_geom_bond_site_symmetry_2
Cl1 C1 1_555 1_555
Cl2 C3 1_555 1_555
N1 C1 1_555 1_555
C1 N3 1_555 1_555
N2 C2 1_555 1_555
C2 N1 1_555 1_555
N3 C3 1_555 1_555
C3 N2 1_555 1_555
N4 C2 1_555 1_555
H1 N4 1_555 1_555
C4 N5 1_555 1_555
N5 N4 1_555 1_555
H2 N5 1_555 1_555
N6 C4 1_555 1_555
N7 N6 1_555 1_555
O1 H3 1_555 1_555
C5 H4 1_555 1_555
H5 C5 1_555 1_555
H6 C5 1_555 1_555
C6 H7 1_555 1_555
H8 C6 1_555 1_555
H9 C6 1_555 1_555
C7 O1 1_555 1_555
H10 C7 1_555 1_555
Cl1A C1A 1_555 1_555
Cl2A C3A 1_555 1_555
N1A C1A 1_555 1_555
C1A N3A 1_555 1_555
N2A C2A 1_555 1_555
C2A N1A 1_555 1_555
N3A C3A 1_555 1_555
C3A N2A 1_555 1_555
N4A C2A 1_555 1_555
H1A N4A 1_555 1_555
C4A N7 1_555 1_555
N5A N4A 1_555 1_555
H2A N5A 1_555 1_555
N6A C4A 1_555 1_555
N7A C4 1_555 1_555
C5 C7 1_555 1_555
C6 C7 1_555 1_555
C4A N5A 1_555 1_555
N6A N7A 1_555 1_555

#END
