
#######################################################################
#
#                 Cambridge Crystallographic Data Centre
#                                CCDC 
#
#######################################################################
#
# If this CIF has been generated from an entry in the Cambridge 
# Structural Database, then it will include bibliographic, chemical, 
# crystal, experimental, refinement or atomic coordinate data resulting 
# from the CCDC's data processing and validation procedures.
#
#######################################################################

data_PEYFEG
_chemical_formula_moiety         'C19 H13 F3 N2 O3'
_chemical_name_systematic        
2-(4-Methoxyphenyl)-6-(4-nitrophenyl)-4-(trifluoromethyl)pyridine
_symmetry_cell_setting           orthorhombic
_symmetry_space_group_name_H-M   'P 21 21 21'
_symmetry_Int_Tables_number      19
_space_group_name_Hall           'P 2ac 2ab'
loop_
_symmetry_equiv_pos_site_id
_symmetry_equiv_pos_as_xyz
1 x,y,z
2 1/2+x,1/2-y,-z
3 -x,1/2+y,1/2-z
4 1/2-x,-y,1/2+z
_cell_length_a                   12.7231(2)
_cell_length_b                   6.61730(10)
_cell_length_c                   19.4361(4)
_cell_angle_alpha                90
_cell_angle_beta                 90
_cell_angle_gamma                90
_cell_volume                     1636.38
_exptl_crystal_colour            'light yellow'
_exptl_crystal_description       'part of a needle'
_cell_formula_units_Z            4
loop_
_atom_site_label
_atom_site_type_symbol
_atom_site_fract_x
_atom_site_fract_y
_atom_site_fract_z
C1 C 0.46764(11) 0.2497(7) 0.18366(8)
C2 C 0.36639(12) 0.2506(8) 0.21230(8)
H1 H 0.3057 0.2498 0.1838
C3 C 0.35762(12) 0.2527(8) 0.28307(8)
C4 C 0.44573(12) 0.2515(8) 0.32453(8)
H2 H 0.4398 0.2519 0.3732
C5 C 0.54399(11) 0.2497(8) 0.29239(8)
C6 C 0.48743(12) 0.2498(7) 0.10850(8)
C7 C 0.59072(13) 0.2492(9) 0.08399(9)
H3 H 0.6473 0.2462 0.1159
C8 C 0.61218(14) 0.2529(12) 0.01463(9)
H4 H 0.6830 0.2580 -0.0007
C9 C 0.53113(13) 0.2491(9) -0.03307(8)
C10 C 0.42835(14) 0.2497(12) -0.01019(9)
H5 H 0.3721 0.2508 -0.0423
C11 C 0.40766(13) 0.2487(9) 0.05982(9)
H6 H 0.3367 0.2472 0.0749
C12 C 0.48119(17) 0.2544(10) -0.15134(10)
H7 H 0.4329 0.1412 -0.1439
H8 H 0.5126 0.2435 -0.1972
H9 H 0.4425 0.3820 -0.1477
C13 C 0.25121(12) 0.2481(9) 0.31711(9)
C14 C 0.64433(11) 0.2480(7) 0.33197(8)
C15 C 0.64513(13) 0.2499(10) 0.40338(9)
H10 H 0.5805 0.2513 0.4279
C16 C 0.73939(13) 0.2499(8) 0.43949(9)
H11 H 0.7398 0.2503 0.4884
C17 C 0.83202(12) 0.2492(8) 0.40315(8)
C18 C 0.83453(13) 0.2534(9) 0.33211(9)
H12 H 0.8995 0.2584 0.3081
C19 C 0.73987(12) 0.2501(9) 0.29669(8)
H13 H 0.7401 0.2492 0.2478
F1 F 0.2393(2) 0.4040(4) 0.35909(16)
F2 F 0.17344(10) 0.2459(9) 0.27358(7)
F3 F 0.2364(2) 0.0901(4) 0.35504(18)
N1 N 0.55383(10) 0.2491(6) 0.22370(6)
N2 N 0.93151(11) 0.2511(7) 0.44125(8)
O1 O 0.56199(10) 0.2494(8) -0.10072(6)
O2 O 1.01429(10) 0.2480(8) 0.40879(7)
O3 O 0.92724(11) 0.2515(9) 0.50396(7)
loop_
_geom_bond_atom_site_label_1
_geom_bond_atom_site_label_2
_geom_bond_site_symmetry_1
_geom_bond_site_symmetry_2
C1 C2 1_555 1_555
C2 H1 1_555 1_555
C3 C2 1_555 1_555
C4 C3 1_555 1_555
H2 C4 1_555 1_555
C5 C4 1_555 1_555
C6 C1 1_555 1_555
C7 C6 1_555 1_555
H3 C7 1_555 1_555
C8 C7 1_555 1_555
H4 C8 1_555 1_555
C9 C8 1_555 1_555
C10 C9 1_555 1_555
H5 C10 1_555 1_555
C11 C6 1_555 1_555
H6 C11 1_555 1_555
C12 H7 1_555 1_555
H8 C12 1_555 1_555
H9 C12 1_555 1_555
C13 C3 1_555 1_555
C14 C5 1_555 1_555
C15 C14 1_555 1_555
H10 C15 1_555 1_555
C16 C15 1_555 1_555
H11 C16 1_555 1_555
C17 C16 1_555 1_555
C18 C17 1_555 1_555
H12 C18 1_555 1_555
C19 C14 1_555 1_555
H13 C19 1_555 1_555
F1 C13 1_555 1_555
F2 C13 1_555 1_555
F3 C13 1_555 1_555
N1 C1 1_555 1_555
N2 C17 1_555 1_555
O1 C9 1_555 1_555
O2 N2 1_555 1_555
O3 N2 1_555 1_555
C5 N1 1_555 1_555
C10 C11 1_555 1_555
C12 O1 1_555 1_555
C18 C19 1_555 1_555

#END
