
#######################################################################
#
#                 Cambridge Crystallographic Data Centre
#                                CCDC 
#
#######################################################################
#
# If this CIF has been generated from an entry in the Cambridge 
# Structural Database, then it will include bibliographic, chemical, 
# crystal, experimental, refinement or atomic coordinate data resulting 
# from the CCDC's data processing and validation procedures.
#
#######################################################################

data_PEYFIJ
_chemical_formula_moiety         'C19 H18 O2 S1'
_chemical_name_systematic        
(Z)-2-Methylsulfanyl-1,4-di-p-tolylbut-2-ene-1,4-dione
_symmetry_cell_setting           orthorhombic
_symmetry_space_group_name_H-M   'P 21 21 21'
_symmetry_Int_Tables_number      19
_space_group_name_Hall           'P 2ac 2ab'
loop_
_symmetry_equiv_pos_site_id
_symmetry_equiv_pos_as_xyz
1 x,y,z
2 1/2-x,-y,1/2+z
3 -x,1/2+y,1/2-z
4 1/2+x,1/2-y,-z
_cell_length_a                   5.7812(6)
_cell_length_b                   7.5573(8)
_cell_length_c                   37.412(4)
_cell_angle_alpha                90
_cell_angle_beta                 90
_cell_angle_gamma                90
_cell_volume                     1634.54
_exptl_crystal_colour            yellow
_exptl_crystal_description       block
_cell_formula_units_Z            4
_exptl_crystal_recrystallization_method dichloromethane/methanol
loop_
_atom_site_label
_atom_site_type_symbol
_atom_site_fract_x
_atom_site_fract_y
_atom_site_fract_z
C1 C -0.2773(6) 0.4917(5) 0.80380(9)
C2 C -0.4314(6) 0.4461(5) 0.77690(10)
H1 H -0.5730 0.3957 0.7829
C3 C -0.3789(6) 0.4737(5) 0.74204(10)
H2 H -0.4863 0.4436 0.7246
C4 C -0.1659(6) 0.5470(5) 0.73172(9)
C5 C -0.0145(7) 0.5941(5) 0.75853(10)
H3 H 0.1266 0.6453 0.7526
C6 C -0.0684(6) 0.5668(5) 0.79423(10)
H4 H 0.0368 0.5993 0.8118
C7 C -0.1061(8) 0.5699(6) 0.69323(10)
H5 H -0.0671 0.4571 0.6831
H6 H 0.0236 0.6485 0.6911
H7 H -0.2362 0.6188 0.6807
C8 C -0.3384(7) 0.4537(6) 0.84148(10)
C9 C -0.1783(7) 0.5166(5) 0.87087(9)
C10 C -0.0339(6) 0.3978(5) 0.88509(10)
H8 H -0.0437 0.2815 0.8771
C11 C 0.1389(7) 0.4398(5) 0.91241(9)
C12 C 0.2768(6) 0.2975(5) 0.92949(9)
C13 C 0.4781(7) 0.3422(5) 0.94731(10)
H9 H 0.5246 0.4599 0.9483
C14 C 0.6109(6) 0.2131(5) 0.96374(10)
H10 H 0.7477 0.2451 0.9751
C15 C 0.5435(7) 0.0374(5) 0.96347(10)
C16 C 0.3431(8) -0.0055(5) 0.94603(11)
H11 H 0.2959 -0.1231 0.9455
C17 C 0.2090(7) 0.1205(5) 0.92919(10)
H12 H 0.0733 0.0873 0.9176
C18 C 0.6861(9) -0.1008(6) 0.98144(12)
H13 H 0.6371 -0.1132 1.0058
H14 H 0.8460 -0.0667 0.9808
H15 H 0.6671 -0.2116 0.9692
C19 C -0.4432(9) 0.8172(7) 0.86119(13)
H16 H -0.4230 0.8076 0.8358
H17 H -0.4693 0.9387 0.8675
H18 H -0.5738 0.7473 0.8684
O1 O -0.5102(6) 0.3713(6) 0.84932(8)
O2 O 0.1689(6) 0.5957(4) 0.92056(8)
S1 S -0.1891(2) 0.73875(15) 0.88330(3)
loop_
_geom_bond_atom_site_label_1
_geom_bond_atom_site_label_2
_geom_bond_site_symmetry_1
_geom_bond_site_symmetry_2
C1 C2 1_555 1_555
C2 H1 1_555 1_555
C3 C2 1_555 1_555
H2 C3 1_555 1_555
C4 C3 1_555 1_555
C5 C4 1_555 1_555
H3 C5 1_555 1_555
C6 C1 1_555 1_555
H4 C6 1_555 1_555
C7 C4 1_555 1_555
H5 C7 1_555 1_555
H6 C7 1_555 1_555
H7 C7 1_555 1_555
C8 C1 1_555 1_555
C9 C8 1_555 1_555
C10 C9 1_555 1_555
H8 C10 1_555 1_555
C11 C10 1_555 1_555
C12 C11 1_555 1_555
C13 C12 1_555 1_555
H9 C13 1_555 1_555
C14 C13 1_555 1_555
H10 C14 1_555 1_555
C15 C14 1_555 1_555
C16 C15 1_555 1_555
H11 C16 1_555 1_555
C17 C12 1_555 1_555
H12 C17 1_555 1_555
C18 C15 1_555 1_555
H13 C18 1_555 1_555
H14 C18 1_555 1_555
H15 C18 1_555 1_555
C19 H16 1_555 1_555
H17 C19 1_555 1_555
H18 C19 1_555 1_555
O1 C8 1_555 1_555
O2 C11 1_555 1_555
S1 C9 1_555 1_555
C5 C6 1_555 1_555
C16 C17 1_555 1_555
C19 S1 1_555 1_555

#END
