
#######################################################################
#
#                 Cambridge Crystallographic Data Centre
#                                CCDC 
#
#######################################################################
#
# If this CIF has been generated from an entry in the Cambridge 
# Structural Database, then it will include bibliographic, chemical, 
# crystal, experimental, refinement or atomic coordinate data resulting 
# from the CCDC's data processing and validation procedures.
#
#######################################################################

data_PEYPUH
_chemical_formula_moiety         'C41 H30 F3 N1 O4 S1'
_chemical_name_systematic        
'7-methoxy-1-(2,3,3-triphenyl-1,2,3,4-tetrahydrocyclopenta[b]indol-1-yl)naphthalen-2-yl trifluoromethanesulfonate unknown solvate'
_symmetry_cell_setting           orthorhombic
_symmetry_space_group_name_H-M   'P 21 21 2'
_symmetry_Int_Tables_number      18
_space_group_name_Hall           'P 2 2ab'
loop_
_symmetry_equiv_pos_site_id
_symmetry_equiv_pos_as_xyz
1 x,y,z
2 -x,-y,z
3 1/2-x,1/2+y,-z
4 1/2+x,1/2-y,-z
_cell_length_a                   12.0584(9)
_cell_length_b                   33.163(2)
_cell_length_c                   9.3861(7)
_cell_angle_alpha                90
_cell_angle_beta                 90
_cell_angle_gamma                90
_cell_volume                     3753.43
_exptl_crystal_description       block
_cell_formula_units_Z            4
loop_
_atom_site_label
_atom_site_type_symbol
_atom_site_fract_x
_atom_site_fract_y
_atom_site_fract_z
S1 S 0.50627(11) 0.60492(3) 0.35542(11)
F1 F 0.3010(5) 0.6055(3) 0.2931(5)
F2 F 0.3759(7) 0.54782(18) 0.2825(6)
F3 F 0.4088(5) 0.59077(16) 0.1203(4)
O1 O 0.4803(2) 0.72931(8) 1.1081(3)
O2 O 0.4852(2) 0.58763(7) 0.5072(3)
O3 O 0.6007(4) 0.58548(18) 0.3039(5)
O4 O 0.4990(5) 0.64647(11) 0.3522(4)
N1 N 0.8226(2) 0.71533(8) 0.7324(3)
H1 H 0.885530 0.722412 0.767531
C1 C 0.6217(3) 0.63666(9) 0.6860(3)
H2 H 0.641792 0.621274 0.600683
C2 C 0.6845(3) 0.61812(9) 0.8155(3)
H3 H 0.643419 0.626772 0.900252
C3 C 0.8026(3) 0.64023(9) 0.8248(4)
C4 C 0.7712(3) 0.67846(9) 0.7495(3)
C5 C 0.6756(3) 0.67756(9) 0.6762(3)
C6 C 0.6600(3) 0.71604(9) 0.6083(3)
C7 C 0.7543(3) 0.73864(9) 0.6485(4)
C8 C 0.7674(3) 0.77887(10) 0.6037(4)
H4 H 0.830279 0.793625 0.627676
C9 C 0.6844(4) 0.79548(11) 0.5236(4)
H5 H 0.690458 0.822227 0.494862
C10 C 0.5912(4) 0.77343(12) 0.4839(4)
H6 H 0.536685 0.785652 0.428712
C11 C 0.5782(3) 0.73377(11) 0.5250(4)
H7 H 0.515965 0.719183 0.497413
C12 C 0.4965(3) 0.63531(8) 0.7023(3)
C13 C 0.4329(3) 0.61157(9) 0.6166(4)
C14 C 0.3182(3) 0.60579(10) 0.6297(4)
H8 H 0.280038 0.589057 0.567117
C15 C 0.2651(3) 0.62513(11) 0.7353(4)
H9 H 0.189344 0.621176 0.747427
C16 C 0.3221(3) 0.65125(10) 0.8279(4)
C17 C 0.2671(3) 0.67223(14) 0.9375(5)
H10 H 0.191168 0.668491 0.948779
C18 C 0.3203(3) 0.69749(14) 1.0265(5)
H11 H 0.281332 0.711155 1.097048
C19 C 0.4352(3) 0.70302(10) 1.0119(4)
C20 C 0.4924(3) 0.68361(9) 0.9074(3)
H12 H 0.568194 0.688020 0.898336
C21 C 0.4386(3) 0.65678(9) 0.8120(4)
C22 C 0.5983(4) 0.73263(16) 1.1104(6)
H13 H 0.623636 0.743515 1.021384
H14 H 0.630301 0.706433 1.124618
H15 H 0.620278 0.750168 1.186686
C23 C 0.3899(8) 0.5850(3) 0.2556(7)
C24 C 0.6833(3) 0.57218(9) 0.8188(4)
C25 C 0.6562(5) 0.55254(13) 0.9396(5)
H16 H 0.639883 0.567396 1.021000
C26 C 0.6519(7) 0.51066(15) 0.9458(7)
H17 H 0.635248 0.498142 1.031870
C27 C 0.6710(6) 0.48831(14) 0.8318(8)
H18 H 0.664984 0.460381 0.836386
C28 C 0.6999(5) 0.50702(13) 0.7059(6)
H19 H 0.716282 0.491590 0.625915
C29 C 0.7048(4) 0.54916(11) 0.6981(5)
H20 H 0.722398 0.561705 0.612440
C30 C 0.8907(3) 0.61586(10) 0.7437(4)
C31 C 0.9444(3) 0.58395(12) 0.8105(5)
H21 H 0.932280 0.579067 0.906762
C32 C 1.0153(4) 0.55966(12) 0.7351(6)
H22 H 1.051001 0.538443 0.780900
C33 C 1.0341(4) 0.56625(15) 0.5937(7)
H23 H 1.080440 0.549057 0.542856
C34 C 0.9846(4) 0.59821(16) 0.5265(5)
H24 H 0.999240 0.603192 0.430847
C35 C 0.9127(3) 0.62317(12) 0.6010(4)
H25 H 0.879192 0.644849 0.555187
C36 C 0.8415(3) 0.64978(10) 0.9773(4)
C37 C 0.7802(4) 0.64290(15) 1.0985(5)
H26 H 0.713364 0.629011 1.091897
C38 C 0.8166(5) 0.6564(2) 1.2308(5)
H27 H 0.773566 0.651768 1.311346
C39 C 0.9148(5) 0.67629(19) 1.2430(5)
H28 H 0.938818 0.685134 1.331862
C40 C 0.9772(5) 0.68318(18) 1.1267(5)
H29 H 1.044323 0.696776 1.134926
C41 C 0.9407(4) 0.66981(16) 0.9933(5)
H30 H 0.984522 0.674567 0.913503
loop_
_geom_bond_atom_site_label_1
_geom_bond_atom_site_label_2
_geom_bond_site_symmetry_1
_geom_bond_site_symmetry_2
S1 O2 1_555 1_555
F1 C23 1_555 1_555
F2 C23 1_555 1_555
F3 C23 1_555 1_555
O1 C19 1_555 1_555
O2 C13 1_555 1_555
O3 S1 1_555 1_555
O4 S1 1_555 1_555
N1 H1 1_555 1_555
C1 H2 1_555 1_555
C2 C1 1_555 1_555
H3 C2 1_555 1_555
C3 C2 1_555 1_555
C4 N1 1_555 1_555
C5 C1 1_555 1_555
C6 C5 1_555 1_555
C7 N1 1_555 1_555
C8 C7 1_555 1_555
H4 C8 1_555 1_555
C9 C8 1_555 1_555
H5 C9 1_555 1_555
C10 C9 1_555 1_555
H6 C10 1_555 1_555
C11 C6 1_555 1_555
H7 C11 1_555 1_555
C12 C1 1_555 1_555
C13 C12 1_555 1_555
C14 C13 1_555 1_555
H8 C14 1_555 1_555
C15 C14 1_555 1_555
H9 C15 1_555 1_555
C16 C15 1_555 1_555
C17 C16 1_555 1_555
H10 C17 1_555 1_555
C18 C17 1_555 1_555
H11 C18 1_555 1_555
C19 C18 1_555 1_555
C20 C19 1_555 1_555
H12 C20 1_555 1_555
C21 C12 1_555 1_555
C22 O1 1_555 1_555
H13 C22 1_555 1_555
H14 C22 1_555 1_555
H15 C22 1_555 1_555
C23 S1 1_555 1_555
C24 C2 1_555 1_555
C25 C24 1_555 1_555
H16 C25 1_555 1_555
C26 C25 1_555 1_555
H17 C26 1_555 1_555
C27 C26 1_555 1_555
H18 C27 1_555 1_555
C28 C27 1_555 1_555
H19 C28 1_555 1_555
C29 C24 1_555 1_555
H20 C29 1_555 1_555
C30 C3 1_555 1_555
C31 C30 1_555 1_555
H21 C31 1_555 1_555
C32 C31 1_555 1_555
H22 C32 1_555 1_555
C33 C32 1_555 1_555
H23 C33 1_555 1_555
C34 C33 1_555 1_555
H24 C34 1_555 1_555
C35 C30 1_555 1_555
H25 C35 1_555 1_555
C36 C3 1_555 1_555
C37 C36 1_555 1_555
H26 C37 1_555 1_555
C38 C37 1_555 1_555
H27 C38 1_555 1_555
C39 C38 1_555 1_555
H28 C39 1_555 1_555
C40 C39 1_555 1_555
H29 C40 1_555 1_555
C41 C36 1_555 1_555
H30 C41 1_555 1_555
C3 C4 1_555 1_555
C4 C5 1_555 1_555
C6 C7 1_555 1_555
C10 C11 1_555 1_555
C16 C21 1_555 1_555
C20 C21 1_555 1_555
C28 C29 1_555 1_555
C34 C35 1_555 1_555
C40 C41 1_555 1_555

#END
