
#######################################################################
#
#                 Cambridge Crystallographic Data Centre
#                                CCDC 
#
#######################################################################
#
# If this CIF has been generated from an entry in the Cambridge 
# Structural Database, then it will include bibliographic, chemical, 
# crystal, experimental, refinement or atomic coordinate data resulting 
# from the CCDC's data processing and validation procedures.
#
#######################################################################

data_PEYSAZ
_chemical_formula_moiety         'C17 H22 O3'
_chemical_name_systematic        'Ethyl 3-(2-oxocyclohexyl)-3-phenylpropionate'
_symmetry_cell_setting           monoclinic
_symmetry_space_group_name_H-M   'C 2/c'
_symmetry_Int_Tables_number      15
_space_group_name_Hall           '-C 2yn'
loop_
_symmetry_equiv_pos_site_id
_symmetry_equiv_pos_as_xyz
1 x,y,z
2 1/2+x,1/2+y,z
3 -x,y,1/2-z
4 1/2-x,1/2+y,1/2-z
5 -x,-y,-z
6 1/2-x,1/2-y,-z
7 x,-y,1/2+z
8 1/2+x,1/2-y,1/2+z
_cell_length_a                   23.834(6)
_cell_length_b                   5.579(1)
_cell_length_c                   23.351(6)
_cell_angle_alpha                90
_cell_angle_beta                 100.85(2)
_cell_angle_gamma                90
_cell_volume                     3049.47
_exptl_crystal_colour            white
_chemical_melting_point          '98-100 deg.C'
_cell_formula_units_Z            8
loop_
_atom_site_label
_atom_site_type_symbol
_atom_site_fract_x
_atom_site_fract_y
_atom_site_fract_z
O1 O 0.5277(1) -0.2214(3) 0.1771(1)
O2 O 0.4591(1) -0.4666(4) 0.1341(1)
O3 O 0.3271(1) -0.0981(3) 0.2145(1)
C1 C 0.4734(1) -0.2758(4) 0.1545(1)
C2 C 0.4343(1) -0.0710(4) 0.1590(1)
C3 C 0.3777(1) -0.0868(4) 0.1152(1)
C4 C 0.3361(1) 0.1085(4) 0.1269(1)
C5 C 0.3166(1) 0.0796(5) 0.1845(1)
C6 C 0.2793(1) 0.2763(5) 0.1996(1)
C7 C 0.2261(1) 0.2960(5) 0.1523(1)
C8 C 0.2419(1) 0.3242(5) 0.0925(1)
C9 C 0.2814(1) 0.1263(5) 0.0802(1)
C10 C 0.3878(1) -0.0822(4) 0.0527(1)
C11 C 0.4186(1) 0.0996(4) 0.0334(1)
C12 C 0.4292(1) 0.1004(5) -0.0230(1)
C13 C 0.4088(1) -0.0810(5) -0.0607(1)
C14 C 0.3780(1) -0.2620(5) -0.0424(1)
C15 C 0.3676(1) -0.2640(4) 0.0142(1)
C16 C 0.5705(1) -0.4024(5) 0.1727(1)
C17 C 0.5747(1) -0.5851(5) 0.2181(1)
H1 H 0.4264 -0.0672 0.1978
H2 H 0.4523 0.0753 0.1514
H3 H 0.3602 -0.2391 0.1197
H4 H 0.3582 0.2527 0.1274
H5 H 0.2688 0.2427 0.2365
H6 H 0.3000 0.4248 0.2021
H7 H 0.2038 0.4313 0.1600
H8 H 0.2040 0.1521 0.1524
H9 H 0.2620 0.4729 0.0919
H10 H 0.2078 0.3268 0.0631
H11 H 0.2614 -0.0228 0.0809
H12 H 0.2910 0.1488 0.0425
H13 H 0.4329 0.2276 0.0596
H14 H 0.4507 0.2284 -0.0359
H15 H 0.4160 -0.0809 -0.0998
H16 H 0.3637 -0.3900 -0.0687
H17 H 0.3460 -0.3920 0.0271
H18 H 0.5629 -0.4756 0.1348
H19 H 0.6067 -0.3217 0.1782
H20 H 0.6044 -0.6971 0.2145
H21 H 0.5387 -0.6674 0.2127
H22 H 0.5825 -0.5135 0.2561
loop_
_geom_bond_atom_site_label_1
_geom_bond_atom_site_label_2
_geom_bond_site_symmetry_1
_geom_bond_site_symmetry_2
O1 C1 1_555 1_555
O2 C1 1_555 1_555
O3 C5 1_555 1_555
C1 C2 1_555 1_555
C2 C3 1_555 1_555
C3 C4 1_555 1_555
C4 C5 1_555 1_555
C5 C6 1_555 1_555
C6 C7 1_555 1_555
C7 C8 1_555 1_555
C8 C9 1_555 1_555
C9 C4 1_555 1_555
C10 C3 1_555 1_555
C11 C10 1_555 1_555
C12 C11 1_555 1_555
C13 C12 1_555 1_555
C14 C13 1_555 1_555
C15 C10 1_555 1_555
C16 O1 1_555 1_555
C17 C16 1_555 1_555
H1 C2 1_555 1_555
H2 C2 1_555 1_555
H3 C3 1_555 1_555
H4 C4 1_555 1_555
H5 C6 1_555 1_555
H6 C6 1_555 1_555
H7 C7 1_555 1_555
H8 C7 1_555 1_555
H9 C8 1_555 1_555
H10 C8 1_555 1_555
H11 C9 1_555 1_555
H12 C9 1_555 1_555
H13 C11 1_555 1_555
H14 C12 1_555 1_555
H15 C13 1_555 1_555
H16 C14 1_555 1_555
H17 C15 1_555 1_555
H18 C16 1_555 1_555
H19 C16 1_555 1_555
H20 C17 1_555 1_555
H21 C17 1_555 1_555
H22 C17 1_555 1_555
C14 C15 1_555 1_555

#END
