
#######################################################################
#
#                 Cambridge Crystallographic Data Centre
#                                CCDC 
#
#######################################################################
#
# If this CIF has been generated from an entry in the Cambridge 
# Structural Database, then it will include bibliographic, chemical, 
# crystal, experimental, refinement or atomic coordinate data resulting 
# from the CCDC's data processing and validation procedures.
#
#######################################################################

data_PEYTET01
_chemical_name_common            
6,6'-Dimethoxy-2,2'-[(cyclohexane-1,2-diyl)bis(nitrilomethylidyne)]diphenol
_chemical_formula_moiety         'C22 H26 N2 O4'
_chemical_name_systematic        
trans-2,2'-(Cyclohexane-1,2-diylbis(nitrilomethylylidene))bis(6-methoxyphenol)
_symmetry_cell_setting           monoclinic
_symmetry_space_group_name_H-M   'P 21/c'
_symmetry_Int_Tables_number      14
_space_group_name_Hall           '-P 2ybc'
loop_
_symmetry_equiv_pos_site_id
_symmetry_equiv_pos_as_xyz
1 x,y,z
2 -x,1/2+y,1/2-z
3 -x,-y,-z
4 x,1/2-y,1/2+z
_cell_length_a                   15.014(3)
_cell_length_b                   12.029(2)
_cell_length_c                   12.099(2)
_cell_angle_alpha                90
_cell_angle_beta                 107.54(3)
_cell_angle_gamma                90
_cell_volume                     2083.53
_exptl_crystal_colour            yellow
_exptl_crystal_description       block
_cell_formula_units_Z            4
_exptl_crystal_recrystallization_method methanol/acetonitrile
loop_
_atom_site_label
_atom_site_type_symbol
_atom_site_fract_x
_atom_site_fract_y
_atom_site_fract_z
C1 C 0.0604(3) 0.6458(3) 0.0711(3)
H1 H 0.0594 0.6532 -0.0083
H2 H 0.1008 0.7015 0.1171
H3 H -0.0016 0.6553 0.0765
C2 C 0.0895(3) 0.5459(3) 0.4138(4)
H4 H 0.0743 0.5934 0.4661
C3 C 0.6339(2) 0.4074(3) 0.4551(3)
H5 H 0.6771 0.4377 0.4223
C4 C 0.2019(2) -0.1264(2) 0.3541(3)
H6 H 0.2139 -0.1370 0.4368
H7 H 0.1573 -0.1825 0.3140
C5 C 0.1206(2) 0.4412(3) 0.4475(3)
H8 H 0.1276 0.4182 0.5231
C6 C 0.2916(2) -0.1400(2) 0.3237(3)
H9 H 0.2788 -0.1342 0.2404
H10 H 0.3175 -0.2132 0.3475
C7 C 0.6257(2) 0.5092(3) 0.7826(3)
H11 H 0.6137 0.5225 0.8550
H12 H 0.6185 0.5774 0.7395
H13 H 0.6883 0.4821 0.7971
C8 C 0.5739(2) 0.3277(3) 0.3967(2)
H14 H 0.5761 0.3042 0.3243
C9 C 0.0802(2) 0.5821(2) 0.3029(3)
H15 H 0.0599 0.6542 0.2813
C10 C 0.36190(19) -0.0523(2) 0.3828(2)
H16 H 0.4176 -0.0605 0.3587
H17 H 0.3796 -0.0634 0.4660
C11 C 0.16120(19) -0.0121(2) 0.3201(3)
H18 H 0.1046 -0.0040 0.3421
H19 H 0.1449 -0.0038 0.2366
C12 C 0.10074(19) 0.5126(2) 0.2240(3)
C13 C 0.14201(18) 0.3684(2) 0.3698(2)
C14 C 0.6317(2) 0.4439(2) 0.5620(2)
H20 H 0.6731 0.4987 0.6009
C15 C 0.17636(18) 0.2574(2) 0.4061(2)
H21 H 0.1869 0.2370 0.4831
C16 C 0.23034(17) 0.0781(2) 0.3785(2)
H22 H 0.2407 0.0746 0.4624
C17 C 0.13111(18) 0.4042(2) 0.2567(3)
C18 C 0.56880(19) 0.3998(2) 0.6112(2)
C19 C 0.50689(17) 0.3178(2) 0.5532(2)
C20 C 0.32359(16) 0.0644(2) 0.3545(2)
H23 H 0.3149 0.0794 0.2723
C21 C 0.50889(17) 0.2810(2) 0.44483(19)
C22 C 0.44426(17) 0.1969(2) 0.3816(2)
H24 H 0.4441 0.1787 0.3068
N1 N 0.19248(14) 0.18712(18) 0.33625(18)
N2 N 0.38790(14) 0.14722(17) 0.42452(16)
O1 O 0.56134(14) 0.42882(16) 0.71764(15)
O2 O 0.09388(17) 0.53935(17) 0.1121(2)
O3 O 0.15024(16) 0.33730(17) 0.17764(17)
H25 H 0.166(3) 0.2728(19) 0.211(3)
O4 O 0.44555(14) 0.27515(16) 0.60379(15)
H26 H 0.414(2) 0.225(3) 0.557(3)
loop_
_geom_bond_atom_site_label_1
_geom_bond_atom_site_label_2
_geom_bond_site_symmetry_1
_geom_bond_site_symmetry_2
C1 H1 1_555 1_555
H2 C1 1_555 1_555
H3 C1 1_555 1_555
C2 H4 1_555 1_555
C3 H5 1_555 1_555
C4 H6 1_555 1_555
H7 C4 1_555 1_555
C5 C2 1_555 1_555
H8 C5 1_555 1_555
C6 C4 1_555 1_555
H9 C6 1_555 1_555
H10 C6 1_555 1_555
C7 H11 1_555 1_555
H12 C7 1_555 1_555
H13 C7 1_555 1_555
C8 C3 1_555 1_555
H14 C8 1_555 1_555
C9 C2 1_555 1_555
H15 C9 1_555 1_555
C10 C6 1_555 1_555
H16 C10 1_555 1_555
H17 C10 1_555 1_555
C11 C4 1_555 1_555
H18 C11 1_555 1_555
H19 C11 1_555 1_555
C12 C9 1_555 1_555
C13 C5 1_555 1_555
C14 C3 1_555 1_555
H20 C14 1_555 1_555
C15 C13 1_555 1_555
H21 C15 1_555 1_555
C16 C11 1_555 1_555
H22 C16 1_555 1_555
C17 C12 1_555 1_555
C18 C14 1_555 1_555
C19 C18 1_555 1_555
C20 C10 1_555 1_555
H23 C20 1_555 1_555
C21 C8 1_555 1_555
C22 C21 1_555 1_555
H24 C22 1_555 1_555
N1 C15 1_555 1_555
N2 C20 1_555 1_555
O1 C7 1_555 1_555
O2 C1 1_555 1_555
O3 C17 1_555 1_555
H25 O3 1_555 1_555
O4 C19 1_555 1_555
H26 O4 1_555 1_555
C12 O2 1_555 1_555
C13 C17 1_555 1_555
C16 C20 1_555 1_555
C16 N1 1_555 1_555
C18 O1 1_555 1_555
C19 C21 1_555 1_555
C22 N2 1_555 1_555

#END
