
#######################################################################
#
#                 Cambridge Crystallographic Data Centre
#                                CCDC 
#
#######################################################################
#
# If this CIF has been generated from an entry in the Cambridge 
# Structural Database, then it will include bibliographic, chemical, 
# crystal, experimental, refinement or atomic coordinate data resulting 
# from the CCDC's data processing and validation procedures.
#
#######################################################################

data_PEYVUK
_chemical_formula_moiety         'C24 H24 N2 O6'
_chemical_name_systematic        
'dl-Diethyl 2,3-dicyano-2,3-bis(p-methoxyphenyl)succinate'
_symmetry_cell_setting           monoclinic
_symmetry_space_group_name_H-M   'P 21/c'
_symmetry_Int_Tables_number      14
_space_group_name_Hall           '-P 2ybc'
loop_
_symmetry_equiv_pos_site_id
_symmetry_equiv_pos_as_xyz
1 x,y,z
2 -x,1/2+y,1/2-z
3 -x,-y,-z
4 x,1/2-y,1/2+z
_cell_length_a                   17.296(1)
_cell_length_b                   15.394(1)
_cell_length_c                   8.916(1)
_cell_angle_alpha                90
_cell_angle_beta                 104.24(2)
_cell_angle_gamma                90
_cell_volume                     2300.98
_cell_formula_units_Z            4
loop_
_atom_site_label
_atom_site_type_symbol
_atom_site_fract_x
_atom_site_fract_y
_atom_site_fract_z
O1 O 0.6696(1) 0.0353(1) 0.1429(2)
O2 O 0.8445(1) -0.0866(1) 0.3702(2)
O3 O 0.6623(1) -0.0846(1) 0.2800(2)
O4 O 0.8095(1) -0.1728(1) 0.5452(3)
O5 O 0.5272(1) 0.2723(1) 0.6247(2)
O6 O 1.0021(1) 0.1452(2) 1.0156(3)
N1 N 0.8386(2) 0.1347(2) 0.3260(3)
N2 N 0.6608(1) -0.0916(2) 0.6617(3)
C1 C 0.7313(2) 0.0406(2) 0.4101(3)
C2 C 0.7720(2) -0.0256(2) 0.5441(3)
C3 C 0.7937(2) 0.0915(2) 0.3630(3)
C4 C 0.7086(2) -0.0639(2) 0.6087(3)
C5 C 0.6843(2) -0.0120(2) 0.2698(3)
C6 C 0.8130(2) -0.0988(3) 0.4730(3)
C7 C 0.6209(2) -0.0061(2) 0.0029(4)
C8 C 0.8418(2) -0.2489(2) 0.4800(5)
C9 C 0.5901(2) 0.0631(3) -0.1119(4)
C10 C 0.8016(3) -0.3226(3) 0.4990(7)
C11 C 0.6746(2) 0.1031(2) 0.4647(3)
C12 C 0.8337(2) 0.0185(2) 0.6745(8)
C13 C 0.5947(2) 0.0841(2) 0.4398(3)
C14 C 0.8131(2) 0.0507(2) 0.8035(3)
C15 C 0.5426(2) 0.1390(2) 0.4903(3)
C16 C 0.8669(2) 0.0934(2) 0.9198(3)
C17 C 0.5723(2) 0.2139(2) 0.5685(3)
C18 C 0.9438(2) 0.1044(2) 0.9088(4)
C19 C 0.6522(2) 0.2333(2) 0.5945(4)
C20 C 0.9665(2) 0.0713(3) 0.7811(4)
C21 C 0.7027(2) 0.1796(2) 0.5421(3)
C22 C 0.9125(2) 0.0294(2) 0.6668(3)
C23 C 0.4458(2) 0.2535(2) 0.6090(4)
C24 C 0.9803(3) 0.1851(4) 1.1428(5)
loop_
_geom_bond_atom_site_label_1
_geom_bond_atom_site_label_2
_geom_bond_site_symmetry_1
_geom_bond_site_symmetry_2
O1 C5 1_555 1_555
O2 C6 1_555 1_555
O3 C5 1_555 1_555
O4 C6 1_555 1_555
O5 C17 1_555 1_555
O6 C18 1_555 1_555
N1 C3 1_555 1_555
N2 C4 1_555 1_555
C1 C2 1_555 1_555
C2 C4 1_555 1_555
C3 C1 1_555 1_555
C5 C1 1_555 1_555
C6 C2 1_555 1_555
C7 O1 1_555 1_555
C8 O4 1_555 1_555
C9 C7 1_555 1_555
C10 C8 1_555 1_555
C11 C1 1_555 1_555
C12 C2 1_555 1_555
C13 C11 1_555 1_555
C14 C12 1_555 1_555
C15 C13 1_555 1_555
C16 C14 1_555 1_555
C17 C15 1_555 1_555
C18 C16 1_555 1_555
C19 C17 1_555 1_555
C20 C18 1_555 1_555
C21 C11 1_555 1_555
C22 C12 1_555 1_555
C23 O5 1_555 1_555
C24 O6 1_555 1_555
C19 C21 1_555 1_555
C20 C22 1_555 1_555

#END
