
#######################################################################
#
#                 Cambridge Crystallographic Data Centre
#                                CCDC 
#
#######################################################################
#
# If this CIF has been generated from an entry in the Cambridge 
# Structural Database, then it will include bibliographic, chemical, 
# crystal, experimental, refinement or atomic coordinate data resulting 
# from the CCDC's data processing and validation procedures.
#
#######################################################################

data_PEYVIB
_chemical_formula_moiety         'C13 H10 Br2 N2 O2'
_chemical_name_systematic        
4-((3,5-dibromophenyl)diazenyl)-2-methoxyphenol
_symmetry_cell_setting           monoclinic
_symmetry_space_group_name_H-M   'C 2/c'
_symmetry_Int_Tables_number      15
_space_group_name_Hall           '-C 2yn'
loop_
_symmetry_equiv_pos_site_id
_symmetry_equiv_pos_as_xyz
1 x,y,z
2 -x,y,1/2-z
3 1/2+x,1/2+y,z
4 1/2-x,1/2+y,1/2-z
5 -x,-y,-z
6 x,-y,1/2+z
7 1/2-x,1/2-y,-z
8 1/2+x,1/2-y,1/2+z
_cell_length_a                   16.182(3)
_cell_length_b                   8.1847(16)
_cell_length_c                   21.945(4)
_cell_angle_alpha                90
_cell_angle_beta                 102.819(2)
_cell_angle_gamma                90
_cell_volume                     2834.06
_exptl_crystal_colour            yellow
_exptl_crystal_description       Block
_cell_formula_units_Z            8
loop_
_atom_site_label
_atom_site_type_symbol
_atom_site_fract_x
_atom_site_fract_y
_atom_site_fract_z
Br1 Br 0.05474(3) 0.29232(5) 1.027809(19)
Br2 Br 0.39837(3) 0.42066(5) 1.135449(19)
C1 C 0.3565(2) 0.9254(4) 0.75000(15)
C2 C 0.3227(2) 0.7799(4) 0.85508(15)
C3 C 0.2742(2) 0.8769(4) 0.75042(15)
C4 C 0.3030(2) 0.4483(4) 1.06860(16)
C5 C 0.1587(2) 0.3914(4) 1.02306(16)
C6 C 0.1649(2) 0.4767(4) 0.96932(15)
H1 H 0.1184 0.4867 0.9360
C7 C 0.4035(2) 0.8318(4) 0.85511(16)
H2 H 0.4467 0.8179 0.8905
C8 C 0.2422(2) 0.5463(4) 0.96671(15)
C9 C 0.3118(2) 0.5335(4) 1.01621(16)
H3 H 0.3633 0.5812 1.0142
C10 C 0.2563(2) 0.8063(3) 0.80289(15)
H4 H 0.2011 0.7765 0.8037
C11 C 0.2274(2) 0.3755(4) 1.07292(16)
H5 H 0.2229 0.3174 1.1085
C12 C 0.4203(2) 0.9047(4) 0.80225(17)
H6 H 0.4750 0.9398 0.8021
C13 C 0.1288(2) 0.8907(5) 0.69575(18)
H7 H 0.1163 0.7796 0.7044
H8 H 0.0953 0.9222 0.6557
H9 H 0.1159 0.9608 0.7275
O1 O 0.21575(16) 0.9048(3) 0.69528(10)
O2 O 0.37490(15) 0.9980(3) 0.69853(11)
H10 H 0.3309 1.0149 0.6725
N1 N 0.3144(2) 0.7011(3) 0.91106(13)
N2 N 0.2455(2) 0.6276(3) 0.90879(12)
loop_
_geom_bond_atom_site_label_1
_geom_bond_atom_site_label_2
_geom_bond_site_symmetry_1
_geom_bond_site_symmetry_2
Br1 C5 1_555 1_555
Br2 C4 1_555 1_555
C1 C3 1_555 1_555
C2 C7 1_555 1_555
C3 C10 1_555 1_555
C4 C9 1_555 1_555
C5 C6 1_555 1_555
C6 H1 1_555 1_555
C7 H2 1_555 1_555
C8 C6 1_555 1_555
C9 C8 1_555 1_555
H3 C9 1_555 1_555
C10 C2 1_555 1_555
H4 C10 1_555 1_555
C11 C4 1_555 1_555
H5 C11 1_555 1_555
C12 C1 1_555 1_555
H6 C12 1_555 1_555
C13 H7 1_555 1_555
H8 C13 1_555 1_555
H9 C13 1_555 1_555
O1 C3 1_555 1_555
O2 C1 1_555 1_555
H10 O2 1_555 1_555
N1 C2 1_555 1_555
N2 C8 1_555 1_555
C5 C11 1_555 1_555
C7 C12 1_555 1_555
C13 O1 1_555 1_555
N1 N2 1_555 1_555

#END
