
#######################################################################
#
#                 Cambridge Crystallographic Data Centre
#                                CCDC 
#
#######################################################################
#
# If this CIF has been generated from an entry in the Cambridge 
# Structural Database, then it will include bibliographic, chemical, 
# crystal, experimental, refinement or atomic coordinate data resulting 
# from the CCDC's data processing and validation procedures.
#
#######################################################################

data_PEYWUL
_chemical_compound_source        'aerial parts of Saussurea japonica'
_chemical_formula_moiety         'C21 H32 O9,3(H2 O1)'
_chemical_name_systematic        
'Japonicolactone-10-O-\b-D-glucoside trihydrate'
_symmetry_cell_setting           monoclinic
_symmetry_space_group_name_H-M   'P 21'
_symmetry_Int_Tables_number      4
_space_group_name_Hall           'P 2yb'
loop_
_symmetry_equiv_pos_site_id
_symmetry_equiv_pos_as_xyz
1 x,y,z
2 -x,1/2+y,-z
_cell_length_a                   9.067(4)
_cell_length_b                   9.333(9)
_cell_length_c                   14.194(5)
_cell_angle_alpha                90
_cell_angle_beta                 79.76(3)
_cell_angle_gamma                90
_cell_volume                     1182
_chemical_melting_point          '136-137 deg.C'
_cell_formula_units_Z            2
loop_
_atom_site_label
_atom_site_type_symbol
_atom_site_fract_x
_atom_site_fract_y
_atom_site_fract_z
O1 O 0.2654(3) 0.517 -0.0191(2)
O2 O 0.4703(3) 0.6501(4) -0.0586(2)
O3 O 0.1568(3) 0.1560(3) 0.2184(2)
O4 O 0.1134(3) -0.0342(3) 0.3195(2)
O5 O 0.4606(3) 0.1722(3) 0.2531(2)
O6 O 0.5571(3) -0.0928(4) 0.3249(3)
O7 O 0.3882(3) -0.2091(4) 0.4754(2)
O8 O -0.1116(4) -0.1932(5) 0.4482(3)
O9 O -0.1660(3) 0.0583(4) 0.2681(2)
C1 C -0.0101(4) 0.2589(5) 0.1299(3)
C2 C -0.1526(4) 0.3453(5) 0.1206(3)
C3 C -0.1347(4) 0.3856(6) 0.0154(3)
C4 C 0.0182(5) 0.3304(5) -0.0319(3)
C5 C 0.1108(4) 0.3160(5) 0.0473(3)
C6 C 0.1742(4) 0.4596(5) 0.0697(3)
C7 C 0.2839(4) 0.4568(5) 0.1393(3)
C8 C 0.2168(5) 0.4562(5) 0.2460(3)
C9 C 0.0579(4) 0.3946(5) 0.2753(3)
C10 C 0.0262(4) 0.2511(5) 0.2312(3)
C11 C 0.3794(4) 0.5889(5) 0.1082(3)
C12 C 0.3821(4) 0.5912(5) 0.0030(3)
C13 C 0.5320(5) 0.5960(8) 0.1369(4)
C14 C -0.1077(4) 0.1862(5) 0.3007(3)
C15 C 0.0607(5) 0.2934(6) -0.1220(3)
C16 C 0.1995(4) 0.0954(5) 0.2985(3)
C17 C 0.3646(4) 0.0500(5) 0.2724(3)
C18 C 0.4110(4) -0.0313(5) 0.3551(3)
C19 C 0.3061(4) -0.1543(5) 0.3879(3)
C20 C 0.1408(4) -0.1061(5) 0.4037(3)
C21 C 0.0387(4) -0.2354(5) 0.4171(3)
loop_
_geom_bond_atom_site_label_1
_geom_bond_atom_site_label_2
_geom_bond_site_symmetry_1
_geom_bond_site_symmetry_2
O1 C6 1_555 1_555
O2 C12 1_555 1_555
O3 C10 1_555 1_555
O4 C16 1_555 1_555
O5 C17 1_555 1_555
O6 C18 1_555 1_555
O7 C19 1_555 1_555
O8 C21 1_555 1_555
O9 C14 1_555 1_555
C1 C2 1_555 1_555
C2 C3 1_555 1_555
C3 C4 1_555 1_555
C4 C5 1_555 1_555
C5 C1 1_555 1_555
C6 C5 1_555 1_555
C7 C6 1_555 1_555
C8 C7 1_555 1_555
C9 C8 1_555 1_555
C10 C1 1_555 1_555
C11 C7 1_555 1_555
C12 O1 1_555 1_555
C13 C11 1_555 1_555
C14 C10 1_555 1_555
C15 C4 1_555 1_555
C16 O3 1_555 1_555
C17 C16 1_555 1_555
C18 C17 1_555 1_555
C19 C18 1_555 1_555
C20 O4 1_555 1_555
C21 C20 1_555 1_555
C9 C10 1_555 1_555
C11 C12 1_555 1_555
C19 C20 1_555 1_555

#END
