
#######################################################################
#
#                 Cambridge Crystallographic Data Centre
#                                CCDC 
#
#######################################################################
#
# If this CIF has been generated from an entry in the Cambridge 
# Structural Database, then it will include bibliographic, chemical, 
# crystal, experimental, refinement or atomic coordinate data resulting 
# from the CCDC's data processing and validation procedures.
#
#######################################################################

data_PEYWAR
_chemical_formula_moiety         'C24 H24 N2 O4'
_chemical_name_systematic        
'meso-Diethyl 2,3-dicyano-2,3-bis(p-tolyl)succinate'
_symmetry_cell_setting           triclinic
_symmetry_space_group_name_H-M   'P -1'
_symmetry_Int_Tables_number      2
_space_group_name_Hall           '-P 1'
loop_
_symmetry_equiv_pos_site_id
_symmetry_equiv_pos_as_xyz
1 x,y,z
2 -x,-y,-z
_cell_length_a                   9.315(1)
_cell_length_b                   9.390(1)
_cell_length_c                   13.241(2)
_cell_angle_alpha                84.39(1)
_cell_angle_beta                 99.38(1)
_cell_angle_gamma                105.46(1)
_cell_volume                     1099.53
_cell_formula_units_Z            2
loop_
_atom_site_label
_atom_site_type_symbol
_atom_site_fract_x
_atom_site_fract_y
_atom_site_fract_z
O1 O 0.1102(3) 0.3162(3) 0.5559(2)
O2 O 0.1705(3) 0.1249(3) 0.6517(2)
N1 N -0.1936(4) 0.1979(4) 0.4033(3)
C1 C 0.0294(4) 0.0840(4) 0.4812(3)
C2 C -0.0981(4) 0.1451(4) 0.4357(3)
C3 C 0.1108(4) 0.1750(4) 0.5757(3)
C4 C 0.1974(6) 0.4183(5) 0.6358(4)
C5 C 0.3547(6) 0.4607(6) 0.6262(4)
C6 C 0.1448(4) 0.1071(4) 0.4055(3)
C7 C 0.2923(4) 0.1101(4) 0.4397(3)
C8 C 0.3959(4) 0.1327(4) 0.3713(3)
C9 C 0.3517(4) 0.1533(4) 0.2662(3)
C10 C 0.2048(5) 0.1489(5) 0.2338(3)
C11 C 0.0993(4) 0.1270(4) 0.3008(3)
C12 C 0.4634(5) 0.1799(5) 0.1928(4)
C1A C -0.0294(4) -0.0840(4) 0.5188(3)
C2A C 0.0981(4) -0.1451(4) 0.5643(3)
C3A C -0.1108(4) -0.1750(4) 0.4243(3)
C6A C -0.1448(4) -0.1071(4) 0.5945(3)
N1A N 0.1936(4) -0.1979(4) 0.5967(3)
O1A O -0.1102(3) -0.3162(3) 0.4441(2)
O2A O -0.1705(3) -0.1249(3) 0.3483(2)
C7A C -0.2923(4) -0.1101(4) 0.5603(3)
C11A C -0.0993(4) -0.1270(4) 0.6992(3)
C4A C -0.1974(6) -0.4183(5) 0.3642(4)
C8A C -0.3959(4) -0.1327(4) 0.6287(3)
C10A C -0.2048(5) -0.1489(5) 0.7662(3)
C5A C -0.3547(6) -0.4607(6) 0.3738(4)
C9A C -0.3517(4) -0.1533(4) 0.7338(3)
C12A C -0.4634(5) -0.1799(5) 0.8072(4)
O3 O -0.2437(3) 0.3939(3) 0.8879(2)
O4 O -0.0937(3) 0.4990(3) 0.7718(2)
N2 N 0.1498(4) 0.7785(3) 0.8914(3)
C13 C 0.0205(4) 0.5042(4) 0.9433(3)
C14 C 0.0948(4) 0.6606(4) 0.9158(3)
C15 C -0.1237(4) 0.4591(4) 0.8658(3)
C16 C -0.2198(6) 0.4582(6) 0.6887(4)
C17 C -0.2480(7) 0.3041(7) 0.6624(5)
C18 C 0.1233(4) 0.4047(4) 0.9318(3)
C19 C 0.2739(4) 0.4619(4) 0.9249(3)
C20 C 0.3643(4) 0.3737(4) 0.9114(3)
C21 C 0.3061(4) 0.2221(4) 0.9016(3)
C22 C 0.1548(4) 0.1655(4) 0.9077(3)
C23 C 0.0620(4) 0.2540(4) 0.9209(3)
C24 C 0.4039(5) 0.1284(4) 0.8831(4)
C13A C -0.0205(4) 0.4958(4) 1.0567(3)
C14A C -0.0948(4) 0.3394(4) 1.0842(3)
C15A C 0.1237(4) 0.5409(4) 1.1342(3)
C18A C -0.1233(4) 0.5953(4) 1.0682(3)
N2A N -0.1498(4) 0.2215(3) 1.1086(3)
O3A O 0.2437(3) 0.6061(3) 1.1121(2)
O4A O 0.0937(3) 0.5010(3) 1.2282(2)
C19A C -0.2739(4) 0.5381(4) 1.0751(3)
C23A C -0.0620(4) 0.7460(4) 1.0791(3)
C16A C 0.2198(6) 0.5418(6) 1.3113(4)
C20A C -0.3643(4) 0.6263(4) 1.0886(3)
C22A C -0.1548(4) 0.8345(4) 1.0923(3)
C17A C 0.2480(7) 0.6959(7) 1.3376(5)
C21A C -0.3061(4) 0.7779(4) 1.0984(3)
C24A C -0.4039(5) 0.8716(4) 1.1169(4)
loop_
_geom_bond_atom_site_label_1
_geom_bond_atom_site_label_2
_geom_bond_site_symmetry_1
_geom_bond_site_symmetry_2
O1 C3 1_555 1_555
O2 C3 1_555 1_555
N1 C2 1_555 1_555
C1 C2 1_555 1_555
C3 C1 1_555 1_555
C4 O1 1_555 1_555
C5 C4 1_555 1_555
C6 C1 1_555 1_555
C7 C6 1_555 1_555
C8 C7 1_555 1_555
C9 C8 1_555 1_555
C10 C9 1_555 1_555
C11 C6 1_555 1_555
C12 C9 1_555 1_555
O3 C15 1_555 1_555
O4 C15 1_555 1_555
N2 C14 1_555 1_555
C13 C14 1_555 1_555
C15 C13 1_555 1_555
C16 O4 1_555 1_555
C17 C16 1_555 1_555
C18 C13 1_555 1_555
C19 C18 1_555 1_555
C20 C19 1_555 1_555
C21 C20 1_555 1_555
C22 C21 1_555 1_555
C23 C18 1_555 1_555
C24 C21 1_555 1_555
C1A C1 1_555 1_555
C2A C1A 1_555 1_555
C3A C1A 1_555 1_555
C6A C1A 1_555 1_555
N1A C2A 1_555 1_555
O1A C3A 1_555 1_555
O2A C3A 1_555 1_555
C7A C6A 1_555 1_555
C11A C6A 1_555 1_555
C4A O1A 1_555 1_555
C8A C7A 1_555 1_555
C10A C11A 1_555 1_555
C5A C4A 1_555 1_555
C9A C8A 1_555 1_555
C12A C9A 1_555 1_555
C13A C13 1_555 1_555
C14A C13A 1_555 1_555
C15A C13A 1_555 1_555
C18A C13A 1_555 1_555
N2A C14A 1_555 1_555
O3A C15A 1_555 1_555
O4A C15A 1_555 1_555
C19A C18A 1_555 1_555
C23A C18A 1_555 1_555
C16A O4A 1_555 1_555
C20A C19A 1_555 1_555
C22A C23A 1_555 1_555
C17A C16A 1_555 1_555
C21A C20A 1_555 1_555
C24A C21A 1_555 1_555
C10 C11 1_555 1_555
C22 C23 1_555 1_555
C10A C9A 1_555 1_555
C22A C21A 1_555 1_555

#END
