
#######################################################################
#
#                 Cambridge Crystallographic Data Centre
#                                CCDC 
#
#######################################################################
#
# If this CIF has been generated from an entry in the Cambridge 
# Structural Database, then it will include bibliographic, chemical, 
# crystal, experimental, refinement or atomic coordinate data resulting 
# from the CCDC's data processing and validation procedures.
#
#######################################################################

data_PEYYUQ
_chemical_formula_moiety         
'C36 H39 N6 1+,0.47(C8 H4 O4 2-),0.07(C2 F3 O2 1-),2(C2 H3 N1)'
_chemical_name_systematic        
'5,5,10,15,15,20-hexamethyl-10-(4-pyridinium)-20-(pyridin-4-yl)calix[4]pyrrole terephthalate trifluoroacetate acetonitrile solvate'
_symmetry_cell_setting           monoclinic
_symmetry_space_group_name_H-M   'P 21/n'
_symmetry_Int_Tables_number      14
_space_group_name_Hall           '-P 2yn'
loop_
_symmetry_equiv_pos_site_id
_symmetry_equiv_pos_as_xyz
1 x,y,z
2 1/2-x,1/2+y,1/2-z
3 -x,-y,-z
4 1/2+x,1/2-y,1/2+z
_cell_length_a                   15.1217(4)
_cell_length_b                   15.2911(3)
_cell_length_c                   16.9007(3)
_cell_angle_alpha                90
_cell_angle_beta                 99.493(2)
_cell_angle_gamma                90
_cell_volume                     3854.39
_exptl_crystal_colour            colorless
_exptl_crystal_description       prism
_cell_formula_units_Z            4
loop_
_atom_site_label
_atom_site_type_symbol
_atom_site_fract_x
_atom_site_fract_y
_atom_site_fract_z
C37 C 0.95478(9) 0.05095(9) 0.58122(8)
C38 C 0.90384(10) 0.12068(10) 0.53651(10)
H40 H 0.8465 0.1279 0.5556
H41 H 0.8927 0.1058 0.4793
H42 H 0.9380 0.1754 0.5444
N7 N 0.99464(10) -0.00387(9) 0.61649(9)
C39 C 1.22004(12) 0.20593(11) 0.53330(13)
C40 C 1.15311(12) 0.13922(12) 0.50537(15)
H43 H 1.1005 0.1669 0.4736
H44 H 1.1354 0.1094 0.5516
H45 H 1.1786 0.0966 0.4721
N8 N 1.27227(11) 0.25809(11) 0.55474(13)
O1 O 0.72283(7) 0.40173(7) 0.56435(6)
O2 O 0.63326(7) 0.30013(6) 0.49893(6)
C41 C 0.64909(9) 0.37586(10) 0.52681(8)
C42 C 0.57162(9) 0.44052(9) 0.51298(8)
C43 C 0.48660(10) 0.41345(9) 0.47589(8)
C44 C 0.58435(10) 0.52776(9) 0.53683(8)
H46 H 0.4776(13) 0.3494(13) 0.4608(11)
H47 H 0.6463(12) 0.5475(12) 0.5623(11)
O1B O 0.27717(7) 0.59827(7) 0.43565(6)
O2B O 0.36674(7) 0.69987(6) 0.50107(6)
C41B C 0.35091(9) 0.62414(10) 0.47319(8)
C42B C 0.42838(9) 0.55948(9) 0.48702(8)
C43B C 0.51340(10) 0.58655(9) 0.52411(8)
C44B C 0.41565(10) 0.47224(9) 0.46317(8)
H46B H 0.5224(13) 0.6506(13) 0.5392(11)
H47B H 0.3537(12) 0.4525(12) 0.4377(11)
C1 C 0.70322(8) 0.10983(8) 0.39350(7)
C2 C 0.75731(9) 0.07488(8) 0.34379(8)
H1 H 0.7583 0.0154 0.3276
C3 C 0.81153(9) 0.14329(9) 0.32084(8)
H2 H 0.8549 0.1379 0.2864
C4 C 0.78979(8) 0.21851(8) 0.35742(7)
C5 C 0.82912(8) 0.30998(8) 0.35586(8)
C6 C 0.90176(8) 0.32559(8) 0.42787(8)
C7 C 0.99332(9) 0.32509(9) 0.43228(8)
H3 H 1.0250 0.3163 0.3888
C8 C 1.03193(9) 0.34005(9) 0.51339(8)
H4 H 1.0942 0.3431 0.5340
C9 C 0.96348(8) 0.34943(8) 0.55695(8)
C10 C 0.96760(8) 0.36931(8) 0.64544(8)
C11 C 0.92264(8) 0.29865(8) 0.68772(8)
C12 C 0.95844(9) 0.24350(9) 0.74856(8)
H5 H 1.0199 0.2401 0.7721
C13 C 0.88795(9) 0.19237(9) 0.77042(8)
H6 H 0.8937 0.1488 0.8110
C14 C 0.81003(8) 0.21741(8) 0.72230(7)
C15 C 0.71622(8) 0.18008(8) 0.71825(7)
C16 C 0.69797(8) 0.11207(8) 0.65213(7)
C17 C 0.69685(9) 0.02243(8) 0.65599(8)
H7 H 0.7079 -0.0119 0.7034
C18 C 0.67616(9) -0.00969(8) 0.57596(8)
H8 H 0.6714 -0.0694 0.5604
C19 C 0.66438(8) 0.06115(8) 0.52535(8)
C20 C 0.63262(9) 0.06728(8) 0.43548(8)
C21 C 0.87214(10) 0.31927(9) 0.27931(8)
H9 H 0.8972 0.3782 0.2772
H10 H 0.8264 0.3096 0.2318
H11 H 0.9200 0.2759 0.2804
C22 C 1.06678(9) 0.37471(9) 0.68420(8)
H12 H 1.0711 0.3853 0.7419
H13 H 1.0957 0.4228 0.6598
H14 H 1.0968 0.3195 0.6756
C23 C 0.92386(10) 0.45867(8) 0.65605(9)
H15 H 0.8603 0.4566 0.6321
H16 H 0.9540 0.5041 0.6294
H17 H 0.9294 0.4722 0.7133
C24 C 0.70958(9) 0.13595(9) 0.79937(8)
H18 H 0.6483 0.1148 0.7987
H19 H 0.7249 0.1785 0.8428
H20 H 0.7513 0.0865 0.8080
C25 C 0.61324(10) -0.02531(9) 0.40138(9)
H21 H 0.6682 -0.0603 0.4115
H22 H 0.5921 -0.0217 0.3435
H23 H 0.5671 -0.0529 0.4274
C26 C 0.54387(9) 0.11909(10) 0.42035(8)
H24 H 0.5002 0.0912 0.4491
H25 H 0.5204 0.1198 0.3627
H26 H 0.5547 0.1792 0.4396
C27 C 0.75534(9) 0.37966(8) 0.34801(8)
C28 C 0.67405(9) 0.36420(9) 0.29734(8)
H27 H 0.6640 0.3098 0.2702
C29 C 0.60857(9) 0.42763(9) 0.28662(9)
H28 H 0.5535 0.4164 0.2522
C30 C 0.69900(9) 0.52253(9) 0.37190(9)
H29 H 0.7074 0.5780 0.3974
C31 C 0.76727(9) 0.46128(8) 0.38496(8)
H30 H 0.8220 0.4748 0.4190
C32 C 0.64424(8) 0.25167(8) 0.70751(7)
C33 C 0.66028(9) 0.33268(9) 0.74510(8)
H31 H 0.7175 0.3454 0.7754
C34 C 0.59273(9) 0.39442(9) 0.73817(9)
H32 H 0.6046 0.4492 0.7642
C35 C 0.49436(9) 0.30206(9) 0.65971(8)
H33 H 0.4366 0.2915 0.6294
C36 C 0.55834(9) 0.23686(8) 0.66482(8)
H34 H 0.5439 0.1821 0.6394
N1 N 0.72386(7) 0.19756(7) 0.40175(6)
N2 N 0.88391(7) 0.34002(7) 0.50423(6)
N3 N 0.83137(7) 0.28186(7) 0.67161(6)
N4 N 0.67896(7) 0.13501(7) 0.57232(6)
N5 N 0.62138(8) 0.50502(7) 0.32401(7)
H35 H 0.5785 0.5445 0.3170
N6 N 0.51079(8) 0.37967(7) 0.69588(7)
H36 H 0.6978(12) 0.2359(12) 0.4309(11)
H37 H 0.7913(12) 0.3132(12) 0.6370(11)
H38 H 0.8292(12) 0.3491(11) 0.5178(10)
H39 H 0.6695(12) 0.1889(13) 0.5543(11)
F1? F 0.7189(6) 0.5133(6) 0.5366(6)
F2? F 0.6131(6) 0.4781(6) 0.6004(5)
F3? F 0.5821(6) 0.5265(6) 0.4798(6)
O3? O 0.6965(9) 0.3317(9) 0.5330(8)
O4? O 0.5848(9) 0.3595(9) 0.4370(8)
C45? C 0.6386(6) 0.4768(12) 0.5291(6)
C46? C 0.6397(8) 0.3811(16) 0.4967(9)
loop_
_geom_bond_atom_site_label_1
_geom_bond_atom_site_label_2
_geom_bond_site_symmetry_1
_geom_bond_site_symmetry_2
C1 C2 1_555 1_555
C2 H1 1_555 1_555
C3 C2 1_555 1_555
H2 C3 1_555 1_555
C4 C3 1_555 1_555
C5 C4 1_555 1_555
C6 C5 1_555 1_555
C7 C6 1_555 1_555
H3 C7 1_555 1_555
C8 C7 1_555 1_555
H4 C8 1_555 1_555
C9 C8 1_555 1_555
C10 C9 1_555 1_555
C11 C10 1_555 1_555
C12 C11 1_555 1_555
H5 C12 1_555 1_555
C13 C12 1_555 1_555
H6 C13 1_555 1_555
C14 C13 1_555 1_555
C15 C14 1_555 1_555
C16 C15 1_555 1_555
C17 C16 1_555 1_555
H7 C17 1_555 1_555
C18 C17 1_555 1_555
H8 C18 1_555 1_555
C19 C18 1_555 1_555
C20 C1 1_555 1_555
C21 C5 1_555 1_555
H9 C21 1_555 1_555
H10 C21 1_555 1_555
H11 C21 1_555 1_555
C22 C10 1_555 1_555
H12 C22 1_555 1_555
H13 C22 1_555 1_555
H14 C22 1_555 1_555
C23 C10 1_555 1_555
H15 C23 1_555 1_555
H16 C23 1_555 1_555
H17 C23 1_555 1_555
C24 C15 1_555 1_555
H18 C24 1_555 1_555
H19 C24 1_555 1_555
H20 C24 1_555 1_555
C25 C20 1_555 1_555
H21 C25 1_555 1_555
H22 C25 1_555 1_555
H23 C25 1_555 1_555
C26 C20 1_555 1_555
H24 C26 1_555 1_555
H25 C26 1_555 1_555
H26 C26 1_555 1_555
C27 C5 1_555 1_555
C28 C27 1_555 1_555
H27 C28 1_555 1_555
C29 C28 1_555 1_555
H28 C29 1_555 1_555
C30 H29 1_555 1_555
C31 C27 1_555 1_555
H30 C31 1_555 1_555
C32 C15 1_555 1_555
C33 C32 1_555 1_555
H31 C33 1_555 1_555
C34 C33 1_555 1_555
H32 C34 1_555 1_555
C35 H33 1_555 1_555
C36 C32 1_555 1_555
H34 C36 1_555 1_555
N1 C1 1_555 1_555
N2 C6 1_555 1_555
N3 C11 1_555 1_555
N4 C16 1_555 1_555
N5 C29 1_555 1_555
H35 N5 1_555 1_555
N6 C34 1_555 1_555
H36 N1 1_555 1_555
H37 N3 1_555 1_555
H38 N2 1_555 1_555
H39 N4 1_555 1_555
C37 C38 1_555 1_555
C38 H40 1_555 1_555
H41 C38 1_555 1_555
H42 C38 1_555 1_555
N7 C37 1_555 1_555
C39 C40 1_555 1_555
C40 H43 1_555 1_555
H44 C40 1_555 1_555
H45 C40 1_555 1_555
N8 C39 1_555 1_555
O1 C41 1_555 1_555
O2 C41 1_555 1_555
C41 C42 1_555 1_555
C42 C43 1_555 1_555
C43 H46 1_555 1_555
C44 C42 1_555 1_555
H47 C44 1_555 1_555
O1B C41B 1_555 1_555
O2B C41B 1_555 1_555
C41B C42B 1_555 1_555
C42B C43B 1_555 1_555
C43B C44 1_555 1_555
C44B C43 1_555 1_555
H46B C43B 1_555 1_555
H47B C44B 1_555 1_555
C4 N1 1_555 1_555
C9 N2 1_555 1_555
C14 N3 1_555 1_555
C19 C20 1_555 1_555
C19 N4 1_555 1_555
C30 C31 1_555 1_555
C30 N5 1_555 1_555
C35 C36 1_555 1_555
C35 N6 1_555 1_555
C42B C44B 1_555 1_555

#END
