
#######################################################################
#
#                 Cambridge Crystallographic Data Centre
#                                CCDC 
#
#######################################################################
#
# If this CIF has been generated from an entry in the Cambridge 
# Structural Database, then it will include bibliographic, chemical, 
# crystal, experimental, refinement or atomic coordinate data resulting 
# from the CCDC's data processing and validation procedures.
#
#######################################################################

data_PEYYAV
_chemical_formula_moiety         'C26 H24 O8'
_chemical_name_systematic        
'Divinyl 2,4-bis(4-acetoxyphenyl)cyclobutane-1,3-dicarboxylate'
_symmetry_cell_setting           monoclinic
_symmetry_space_group_name_H-M   'P 21/c'
_symmetry_Int_Tables_number      14
_space_group_name_Hall           '-P 2ybc'
loop_
_symmetry_equiv_pos_site_id
_symmetry_equiv_pos_as_xyz
1 x,y,z
2 -x,1/2+y,1/2-z
3 -x,-y,-z
4 x,1/2-y,1/2+z
_cell_length_a                   10.0760(2)
_cell_length_b                   7.6203(2)
_cell_length_c                   15.0290(4)
_cell_angle_alpha                90
_cell_angle_beta                 95.4460(10)
_cell_angle_gamma                90
_cell_volume                     1148.75
_exptl_crystal_colour            colorless
_exptl_crystal_description       block
_cell_formula_units_Z            2
loop_
_atom_site_label
_atom_site_type_symbol
_atom_site_fract_x
_atom_site_fract_y
_atom_site_fract_z
O1 O 0.62751(9) 0.78820(12) -0.03624(6)
O2 O 0.61222(9) 0.62619(12) -0.16205(6)
O3 O 0.94897(10) -0.04298(16) 0.19051(6)
O4 O 1.15904(9) 0.05876(13) 0.19868(6)
C1 C 1.03348(12) 0.07870(17) 0.05901(8)
H1 H 1.0660 0.2017 0.0531
C2 C 0.89672(12) 0.05089(17) 0.00434(8)
H2 H 0.8360 -0.0164 0.0408
C3 C 0.82498(12) 0.20882(16) -0.03655(8)
C4 C 0.89006(12) 0.33811(17) -0.08203(8)
H3 H 0.9836 0.3303 -0.0849
C5 C 0.82016(13) 0.47784(17) -0.12305(8)
H4 H 0.8648 0.5636 -0.1551
C6 C 0.68496(13) 0.49003(16) -0.11655(8)
C7 C 0.61759(12) 0.36565(18) -0.07153(8)
H5 H 0.5244 0.3762 -0.0675
C8 C 0.68817(12) 0.22510(17) -0.03224(8)
H6 H 0.6422 0.1382 -0.0018
C9 C 0.58655(12) 0.77078(17) -0.11332(9)
C10 C 0.50217(14) 0.89819(19) -0.16943(10)
H7 H 0.4777 0.9964 -0.1322
H8 H 0.4212 0.8391 -0.1954
H9 H 0.5524 0.9425 -0.2175
C11 C 1.03788(13) 0.02451(17) 0.15505(8)
C12 C 1.18146(14) -0.0078(2) 0.28576(9)
H10 H 1.1513 -0.1223 0.2988
C13 C 1.24348(15) 0.0866(2) 0.34893(10)
H11 H 1.2737 0.2010 0.3361
H12 H 1.2585 0.0409 0.4079
O1B O 1.37249(9) -0.78820(12) 0.03624(6)
O2B O 1.38778(9) -0.62619(12) 0.16205(6)
O3B O 1.05103(10) 0.04298(16) -0.19051(6)
O4B O 0.84096(9) -0.05876(13) -0.19868(6)
C1B C 0.96652(12) -0.07870(17) -0.05901(8)
H1B H 0.9340 -0.2017 -0.0531
C2B C 1.10328(12) -0.05089(17) -0.00434(8)
H2B H 1.1640 0.0164 -0.0408
C3B C 1.17502(12) -0.20882(16) 0.03655(8)
C4B C 1.10994(12) -0.33811(17) 0.08203(8)
H3B H 1.0164 -0.3303 0.0849
C5B C 1.17984(13) -0.47784(17) 0.12305(8)
H4B H 1.1352 -0.5636 0.1551
C6B C 1.31504(13) -0.49003(16) 0.11655(8)
C7B C 1.38241(12) -0.36565(18) 0.07153(8)
H5B H 1.4756 -0.3762 0.0675
C8B C 1.31183(12) -0.22510(17) 0.03224(8)
H6B H 1.3578 -0.1382 0.0018
C9B C 1.41345(12) -0.77078(17) 0.11332(9)
C10B C 1.49783(14) -0.89819(19) 0.16943(10)
H7B H 1.5223 -0.9964 0.1322
H8B H 1.5788 -0.8391 0.1954
H9B H 1.4476 -0.9425 0.2175
C11B C 0.96212(13) -0.02451(17) -0.15505(8)
C12B C 0.81854(14) 0.0078(2) -0.28576(9)
H10B H 0.8487 0.1223 -0.2988
C13B C 0.75652(15) -0.0866(2) -0.34893(10)
H11B H 0.7263 -0.2010 -0.3361
H12B H 0.7415 -0.0409 -0.4079
loop_
_geom_bond_atom_site_label_1
_geom_bond_atom_site_label_2
_geom_bond_site_symmetry_1
_geom_bond_site_symmetry_2
O1 C9 1_555 1_555
O2 C6 1_555 1_555
O3 C11 1_555 1_555
O4 C11 1_555 1_555
C1 H1 1_555 1_555
C2 C1 1_555 1_555
H2 C2 1_555 1_555
C3 C2 1_555 1_555
C4 C3 1_555 1_555
H3 C4 1_555 1_555
C5 C4 1_555 1_555
H4 C5 1_555 1_555
C6 C5 1_555 1_555
C7 C6 1_555 1_555
H5 C7 1_555 1_555
C8 C3 1_555 1_555
H6 C8 1_555 1_555
C9 O2 1_555 1_555
C10 C9 1_555 1_555
H7 C10 1_555 1_555
H8 C10 1_555 1_555
H9 C10 1_555 1_555
C11 C1 1_555 1_555
C12 O4 1_555 1_555
H10 C12 1_555 1_555
C13 C12 1_555 1_555
H11 C13 1_555 1_555
H12 C13 1_555 1_555
O1B C9B 1_555 1_555
O2B C6B 1_555 1_555
O3B C11B 1_555 1_555
O4B C11B 1_555 1_555
C1B C2 1_555 1_555
H1B C1B 1_555 1_555
C2B C1 1_555 1_555
H2B C2B 1_555 1_555
C3B C2B 1_555 1_555
C4B C3B 1_555 1_555
H3B C4B 1_555 1_555
C5B C4B 1_555 1_555
H4B C5B 1_555 1_555
C6B C5B 1_555 1_555
C7B C6B 1_555 1_555
H5B C7B 1_555 1_555
C8B C3B 1_555 1_555
H6B C8B 1_555 1_555
C9B O2B 1_555 1_555
C10B C9B 1_555 1_555
H7B C10B 1_555 1_555
H8B C10B 1_555 1_555
H9B C10B 1_555 1_555
C11B C1B 1_555 1_555
C12B O4B 1_555 1_555
H10B C12B 1_555 1_555
C13B C12B 1_555 1_555
H11B C13B 1_555 1_555
H12B C13B 1_555 1_555
C7 C8 1_555 1_555
C1B C2B 1_555 1_555
C7B C8B 1_555 1_555

#END
