
#######################################################################
#
#                 Cambridge Crystallographic Data Centre
#                                CCDC 
#
#######################################################################
#
# If this CIF has been generated from an entry in the Cambridge 
# Structural Database, then it will include bibliographic, chemical, 
# crystal, experimental, refinement or atomic coordinate data resulting 
# from the CCDC's data processing and validation procedures.
#
#######################################################################

data_PEYYIB
_chemical_formula_moiety         'C12 H28 N2 S4 2+,2(N1 O3 1-)'
_chemical_name_systematic        
'1,4,10,13-Tetrathia-7,16-diazacyclo-octadecane dinitrate'
_symmetry_cell_setting           monoclinic
_symmetry_space_group_name_H-M   'P 21/c'
_symmetry_Int_Tables_number      14
_space_group_name_Hall           '-P 2ybc'
loop_
_symmetry_equiv_pos_site_id
_symmetry_equiv_pos_as_xyz
1 x,y,z
2 -x,1/2+y,1/2-z
3 -x,-y,-z
4 x,1/2-y,1/2+z
_cell_length_a                   7.936(5)
_cell_length_b                   8.866(7)
_cell_length_c                   14.756(5)
_cell_angle_alpha                90
_cell_angle_beta                 95.33(4)
_cell_angle_gamma                90
_cell_volume                     1033.75
_cell_formula_units_Z            2
loop_
_atom_site_label
_atom_site_type_symbol
_atom_site_fract_x
_atom_site_fract_y
_atom_site_fract_z
S1 S 0.3514(3) 0.4185(3) 0.1893(2)
S2 S -0.3141(3) 0.9085(3) 0.0338(2)
N1 N 0.1237(8) 0.7050(9) 0.1397(6)
C1 C 0.416(1) 0.611(1) 0.1784(7)
C2 C 0.299(1) 0.707(1) 0.1156(7)
C3 C 0.012(1) 0.813(1) 0.0819(7)
C4 C -0.164(1) 0.797(1) 0.1057(7)
C5 C -0.308(1) 0.814(1) -0.0731(7)
C6 C 0.381(1) 0.342(1) 0.0788(7)
C6B C -0.381(1) 0.658(1) -0.0788(7)
C5B C 0.308(1) 0.186(1) 0.0731(7)
S1B S -0.3514(3) 0.5815(3) -0.1893(2)
S2B S 0.3141(3) 0.0915(3) -0.0338(2)
C1B C -0.416(1) 0.389(1) -0.1784(7)
C4B C 0.164(1) 0.203(1) -0.1057(7)
C2B C -0.299(1) 0.293(1) -0.1156(7)
C3B C -0.012(1) 0.187(1) -0.0819(7)
N1B N -0.1237(8) 0.2950(9) -0.1397(6)
O1 O 0.9201(9) 0.0689(9) 0.5807(5)
O2 O 0.873(1) 0.046(1) 0.7203(5)
O3 O 0.870(1) 0.2623(9) 0.6620(6)
N2 N 0.883(1) 0.127(1) 0.6540(6)
loop_
_geom_bond_atom_site_label_1
_geom_bond_atom_site_label_2
_geom_bond_site_symmetry_1
_geom_bond_site_symmetry_2
S1 C1 1_555 1_555
S2 C4 1_555 1_555
N1 C2 1_555 1_555
C1 C2 1_555 1_555
C3 N1 1_555 1_555
C4 C3 1_555 1_555
C5 S2 1_555 1_555
C6 S1 1_555 1_555
O1 N2 1_555 1_555
O2 N2 1_555 1_555
O3 N2 1_555 1_555
C6B C5 1_555 1_555
C5B C6 1_555 1_555
S1B C6B 1_555 1_555
S2B C5B 1_555 1_555
C1B S1B 1_555 1_555
C4B S2B 1_555 1_555
C2B C1B 1_555 1_555
C3B C4B 1_555 1_555
N1B C2B 1_555 1_555
C3B N1B 1_555 1_555

#END
