
#######################################################################
#
#                 Cambridge Crystallographic Data Centre
#                                CCDC 
#
#######################################################################
#
# If this CIF has been generated from an entry in the Cambridge 
# Structural Database, then it will include bibliographic, chemical, 
# crystal, experimental, refinement or atomic coordinate data resulting 
# from the CCDC's data processing and validation procedures.
#
#######################################################################

data_PEYYOK
_chemical_formula_moiety         
'2(C36 H38 N6),C8 H4 O4 2-,3(C2 H3 N1),2(Cs1 1+)'
_chemical_name_systematic        
'di-cesium bis(5,5,10,15,15,20-hexamethyl-10,20-bis(pyridin-4-yl)calix[4]pyrrole) terephthalate acetonitrile solvate'
_symmetry_cell_setting           triclinic
_symmetry_space_group_name_H-M   'P -1'
_symmetry_Int_Tables_number      2
_space_group_name_Hall           '-P 1'
loop_
_symmetry_equiv_pos_site_id
_symmetry_equiv_pos_as_xyz
1 x,y,z
2 -x,-y,-z
_cell_length_a                   11.2373(11)
_cell_length_b                   18.3845(8)
_cell_length_c                   20.4193(15)
_cell_angle_alpha                79.728(5)
_cell_angle_beta                 77.533(8)
_cell_angle_gamma                88.574(6)
_cell_volume                     4052.57
_exptl_crystal_colour            colorless
_exptl_crystal_description       prism
_cell_formula_units_Z            2
loop_
_atom_site_label
_atom_site_type_symbol
_atom_site_fract_x
_atom_site_fract_y
_atom_site_fract_z
Cs1 Cs 0.92804(2) 0.78215(2) 0.74357(2)
N1 N 1.1282(2) 0.72384(15) 0.62036(14)
H1 H 1.0723 0.7002 0.6077
N2 N 0.9460(3) 0.59792(15) 0.74403(15)
H2 H 0.9344 0.5965 0.7030
N3 N 0.7037(2) 0.69269(15) 0.70745(14)
H3 H 0.7560 0.6753 0.6754
N4 N 0.8860(2) 0.81660(15) 0.57774(14)
H4 H 0.8898 0.7732 0.5650
N5 N 0.6457(3) 0.41144(17) 0.69481(18)
N6 N 1.1470(4) 0.7467(2) 0.35684(17)
C1 C 1.1647(3) 0.79640(19) 0.59434(17)
C2 C 1.2498(3) 0.8123(2) 0.6285(2)
H5 H 1.2903 0.8586 0.6222
C3 C 1.2672(4) 0.7480(2) 0.6749(2)
H6 H 1.3218 0.7434 0.7050
C4 C 1.1920(3) 0.6940(2) 0.66889(19)
C5 C 1.1745(3) 0.6146(2) 0.7059(2)
C6 C 1.0572(4) 0.6059(2) 0.7593(2)
C7 C 1.0345(5) 0.6072(4) 0.8281(2)
H7 H 1.0943 0.6132 0.8534
C8 C 0.9098(5) 0.5983(3) 0.8547(2)
H8 H 0.8699 0.5967 0.9010
C9 C 0.8547(4) 0.5923(2) 0.80196(18)
C10 C 0.7220(3) 0.58425(19) 0.80123(18)
C11 C 0.6709(3) 0.65810(19) 0.77443(18)
C12 C 0.5873(5) 0.7025(2) 0.8067(2)
H9 H 0.5477 0.6928 0.8535
C13 C 0.5697(4) 0.7652(2) 0.7586(3)
H10 H 0.5162 0.8048 0.7674
C14 C 0.6426(3) 0.75872(19) 0.6978(2)
C15 C 0.6581(3) 0.8088(2) 0.6295(2)
C16 C 0.7822(3) 0.84742(18) 0.61014(18)
C17 C 0.8140(3) 0.91414(19) 0.6222(2)
H11 H 0.7607 0.9475 0.6443
C18 C 0.9403(3) 0.92466(19) 0.59610(19)
H12 H 0.9872 0.9664 0.5975
C19 C 0.9834(3) 0.86418(17) 0.56838(15)
C20 C 1.1135(3) 0.84497(18) 0.53911(16)
C21 C 1.1753(4) 0.5626(2) 0.6547(3)
H13 H 1.1101 0.5763 0.6300
H14 H 1.1622 0.5116 0.6791
H15 H 1.2541 0.5669 0.6223
C22 C 1.2820(5) 0.5954(3) 0.7416(3)
H16 H 1.3588 0.6012 0.7074
H17 H 1.2729 0.5442 0.7659
H18 H 1.2825 0.6287 0.7740
C23 C 0.6517(5) 0.5575(2) 0.8755(2)
H19 H 0.6652 0.5927 0.9041
H20 H 0.6811 0.5087 0.8929
H21 H 0.5645 0.5541 0.8765
C24 C 0.6385(4) 0.7654(3) 0.5758(2)
H22 H 0.7022 0.7283 0.5698
H23 H 0.6422 0.7992 0.5324
H24 H 0.5584 0.7407 0.5904
C25 C 0.5608(4) 0.8697(3) 0.6351(3)
H25 H 0.4793 0.8468 0.6480
H26 H 0.5696 0.9028 0.5910
H27 H 0.5717 0.8980 0.6698
C26 C 1.1903(3) 0.9170(2) 0.51625(18)
H28 H 1.1855 0.9421 0.5552
H29 H 1.1588 0.9494 0.4805
H30 H 1.2754 0.9053 0.4985
C27 C 0.6995(3) 0.52526(18) 0.76076(18)
C28 C 0.6021(4) 0.5292(2) 0.7289(3)
H31 H 0.5509 0.5711 0.7286
C29 C 0.5793(5) 0.4717(2) 0.6972(3)
H32 H 0.5116 0.4760 0.6759
C30 C 0.7389(4) 0.4085(2) 0.7251(2)
H33 H 0.7887 0.3660 0.7244
C31 C 0.7692(3) 0.46288(19) 0.7579(2)
H34 H 0.8380 0.4571 0.7783
C32 C 1.1244(3) 0.8086(2) 0.47579(16)
C33 C 1.2071(3) 0.7538(2) 0.46181(19)
H35 H 1.2591 0.7362 0.4921
C34 C 1.2137(4) 0.7243(2) 0.4028(2)
H36 H 1.2697 0.6856 0.3950
C35 C 1.0698(5) 0.8005(2) 0.3700(2)
H37 H 1.0220 0.8184 0.3376
C36 C 1.0542(4) 0.8325(2) 0.42789(18)
H38 H 0.9961 0.8703 0.4347
Cs2 Cs 1.51114(12) 0.73802(9) 0.28266(8)
N7 N 1.2281(4) 1.16988(18) 0.73411(19)
H39 H 1.2251 1.1414 0.7739
N8 N 1.4645(3) 1.07333(17) 0.76129(17)
H40 H 1.3997 1.0719 0.7946
N9 N 1.5027(3) 1.17922(17) 0.88565(16)
H41 H 1.4324 1.1553 0.8998
N10 N 1.2673(3) 1.27619(17) 0.85593(16)
H42 H 1.2603 1.2284 0.8721
N11 N 1.0933(4) 0.8968(2) 0.7775(2)
N12 N 1.2218(5) 1.1818(3) 1.1189(2)
C37 C 1.1777(5) 1.2394(2) 0.7252(3)
C38 C 1.2029(7) 1.2650(3) 0.6571(3)
H43 H 1.1810 1.3120 0.6354
C39 C 1.2669(8) 1.2105(3) 0.6243(3)
H44 H 1.2943 1.2140 0.5764
C40 C 1.2832(6) 1.1512(2) 0.6727(2)
C41 C 1.3447(5) 1.0771(2) 0.6684(2)
C42 C 1.4615(4) 1.0756(2) 0.6937(2)
C43 C 1.5792(5) 1.0791(3) 0.6580(3)
H45 H 1.6053 1.0814 0.6102
C44 C 1.6540(5) 1.0788(3) 0.7036(4)
H46 H 1.7406 1.0817 0.6921
C45 C 1.5828(3) 1.0737(2) 0.7691(3)
C46 C 1.6161(4) 1.0734(3) 0.8360(3)
C47 C 1.6087(4) 1.1505(3) 0.8524(3)
C48 C 1.6958(4) 1.2059(3) 0.8353(3)
H47 H 1.7767 1.2031 0.8099
C49 C 1.6429(4) 1.2680(3) 0.8626(3)
H48 H 1.6832 1.3135 0.8601
C50 C 1.5224(3) 1.2505(2) 0.8935(2)
C51 C 1.4218(4) 1.2982(2) 0.92433(19)
C52 C 1.3441(4) 1.3240(2) 0.8733(2)
C53 C 1.3360(8) 1.3910(3) 0.8349(4)
H49 H 1.3812 1.4343 0.8339
C54 C 1.2463(11) 1.3842(3) 0.7962(5)
H50 H 1.2200 1.4230 0.7653
C55 C 1.2046(6) 1.3125(3) 0.8109(3)
C56 C 1.1094(6) 1.2738(3) 0.7840(3)
C57 C 1.3713(8) 1.0665(3) 0.5929(3)
H51 H 1.4316 1.1035 0.5654
H52 H 1.2958 1.0723 0.5759
H53 H 1.4033 1.0168 0.5897
C58 C 1.7494(5) 1.0469(4) 0.8314(5)
H54 H 1.7591 1.0004 0.8138
H55 H 1.7681 1.0391 0.8768
H56 H 1.8052 1.0844 0.8007
C59 C 1.5337(5) 1.0201(3) 0.8926(3)
H57 H 1.4490 1.0362 0.8969
H58 H 1.5587 1.0196 0.9358
H59 H 1.5405 0.9702 0.8815
C60 C 1.4791(5) 1.3673(2) 0.9401(2)
H60 H 1.5259 1.3960 0.8977
H61 H 1.5332 1.3516 0.9716
H62 H 1.4142 1.3978 0.9610
C61 C 1.0343(5) 1.2170(3) 0.8392(4)
H63 H 0.9770 1.1925 0.8199
H64 H 0.9889 1.2416 0.8756
H65 H 1.0884 1.1802 0.8579
C62 C 1.0267(8) 1.3338(4) 0.7556(5)
H66 H 0.9676 1.3110 0.7362
H67 H 1.0767 1.3703 0.7200
H68 H 0.9833 1.3584 0.7925
C63 C 1.2565(4) 1.0146(2) 0.7084(2)
C64 C 1.1308(5) 1.0185(3) 0.7102(3)
H69 H 1.0971 1.0614 0.6879
C65 C 1.0565(5) 0.9583(3) 0.7454(3)
H70 H 0.9717 0.9623 0.7462
C66 C 1.2121(4) 0.8937(3) 0.7746(3)
H71 H 1.2427 0.8496 0.7967
C67 C 1.2951(4) 0.9499(2) 0.7418(2)
H72 H 1.3791 0.9437 0.7425
C68 C 1.3485(4) 1.2566(2) 0.99219(19)
C69 C 1.2261(5) 1.2651(3) 1.0131(2)
H73 H 1.1822 1.2974 0.9853
C70 C 1.1650(5) 1.2249(4) 1.0772(3)
H74 H 1.0792 1.2295 1.0905
C71 C 1.3403(6) 1.1760(3) 1.0993(3)
H75 H 1.3831 1.1466 1.1296
C72 C 1.4056(5) 1.2108(3) 1.0366(2)
H76 H 1.4908 1.2030 1.0240
N13 N 0.5016(8) 0.3700(5) 0.5667(5)
C73 C 0.4304(8) 0.3972(5) 0.5358(5)
C74 C 0.3390(9) 0.4286(6) 0.4982(6)
H77 H 0.3722 0.4325 0.4492
H78 H 0.3171 0.4778 0.5087
H79 H 0.2663 0.3965 0.5116
O1 O 0.2380(3) 0.06454(16) 0.84960(14)
O2 O 0.2619(3) 0.12593(17) 0.93106(16)
C75 C 0.2092(3) 0.0790(2) 0.9094(2)
C76 C 0.1004(3) 0.03801(18) 0.95700(17)
C77 C 0.0686(3) 0.0462(2) 1.02473(18)
H80 H 0.1162 0.0782 1.0417
C78 C 0.0310(3) -0.0079(2) 0.93216(17)
H81 H 0.0527 -0.0132 0.8851
O1A O -0.2380(3) -0.06454(16) 1.15040(14)
O2A O -0.2619(3) -0.12593(17) 1.06894(16)
C75A C -0.2092(3) -0.0790(2) 1.0906(2)
C76A C -0.1004(3) -0.03801(18) 1.04300(17)
C77A C -0.0686(3) -0.0462(2) 0.97527(18)
H80A H -0.1162 -0.0782 0.9583
C78A C -0.0310(3) 0.0079(2) 1.06784(17)
H81A H -0.0527 0.0132 1.1149
O3 O 0.8928(3) 0.68870(17) 0.50944(17)
O4 O 0.9058(3) 0.63553(19) 0.61456(15)
C79 C 0.9168(2) 0.6313(2) 0.55531(17)
C80 C 0.9583(3) 0.5634(2) 0.52619(17)
C81 C 0.9514(4) 0.4952(2) 0.56853(19)
H82 H 0.9197 0.4916 0.6166
C82 C 1.0087(4) 0.5677(2) 0.4571(2)
H83 H 1.0171 0.6149 0.4274
O3A O 1.1072(3) 0.31130(17) 0.49056(17)
O4A O 1.0942(3) 0.36447(19) 0.38544(15)
C79A C 1.0832(2) 0.3687(2) 0.44469(17)
C80A C 1.0417(3) 0.4366(2) 0.47381(17)
C81A C 1.0486(4) 0.5048(2) 0.43147(19)
H82A H 1.0803 0.5084 0.3834
C82A C 0.9913(4) 0.4323(2) 0.5429(2)
H83A H 0.9829 0.3851 0.5726
N14 N 0.785(2) 0.1465(12) 0.9977(10)
C83 C 0.7952(17) 0.1972(10) 1.0322(9)
C84 C 0.822(2) 0.2436(12) 1.0526(10)
H84 H 0.8787 0.2266 1.0824
H85 H 0.7499 0.2643 1.0787
H86 H 0.8624 0.2817 1.0149
Cs3? Cs 0.5185(2) 0.25525(17) 0.72388(16)
O5? O 0.9481(9) 0.6939(3) 0.5295(6)
O6? O 0.8394(9) 0.6111(6) 0.6172(4)
N15? N 0.750(3) 0.1269(17) 1.0017(13)
C85? C 0.7029(19) 0.1430(12) 1.0607(11)
C86? C 0.644(2) 0.1507(13) 1.1088(11)
H87? H 0.5585 0.1479 1.1056
H88? H 0.6610 0.1992 1.1187
H89? H 0.6595 0.1119 1.1455
loop_
_geom_bond_atom_site_label_1
_geom_bond_atom_site_label_2
_geom_bond_site_symmetry_1
_geom_bond_site_symmetry_2
N1 H1 1_555 1_555
N2 H2 1_555 1_555
N3 H3 1_555 1_555
N4 H4 1_555 1_555
N5 C29 1_555 1_555
N6 C34 1_555 1_555
C1 N1 1_555 1_555
C2 C1 1_555 1_555
H5 C2 1_555 1_555
C3 C2 1_555 1_555
H6 C3 1_555 1_555
C4 N1 1_555 1_555
C5 C4 1_555 1_555
C6 N2 1_555 1_555
C7 C6 1_555 1_555
H7 C7 1_555 1_555
C8 C7 1_555 1_555
H8 C8 1_555 1_555
C9 N2 1_555 1_555
C10 C9 1_555 1_555
C11 N3 1_555 1_555
C12 C11 1_555 1_555
H9 C12 1_555 1_555
C13 C12 1_555 1_555
H10 C13 1_555 1_555
C14 N3 1_555 1_555
C15 C14 1_555 1_555
C16 N4 1_555 1_555
C17 C16 1_555 1_555
H11 C17 1_555 1_555
C18 C17 1_555 1_555
H12 C18 1_555 1_555
C19 N4 1_555 1_555
C20 C1 1_555 1_555
C21 C5 1_555 1_555
H13 C21 1_555 1_555
H14 C21 1_555 1_555
H15 C21 1_555 1_555
C22 C5 1_555 1_555
H16 C22 1_555 1_555
H17 C22 1_555 1_555
H18 C22 1_555 1_555
C23 C10 1_555 1_555
H19 C23 1_555 1_555
H20 C23 1_555 1_555
H21 C23 1_555 1_555
C24 C15 1_555 1_555
H22 C24 1_555 1_555
H23 C24 1_555 1_555
H24 C24 1_555 1_555
C25 C15 1_555 1_555
H25 C25 1_555 1_555
H26 C25 1_555 1_555
H27 C25 1_555 1_555
C26 C20 1_555 1_555
H28 C26 1_555 1_555
H29 C26 1_555 1_555
H30 C26 1_555 1_555
C27 C10 1_555 1_555
C28 C27 1_555 1_555
H31 C28 1_555 1_555
C29 C28 1_555 1_555
H32 C29 1_555 1_555
C30 N5 1_555 1_555
H33 C30 1_555 1_555
C31 C27 1_555 1_555
H34 C31 1_555 1_555
C32 C20 1_555 1_555
C33 C32 1_555 1_555
H35 C33 1_555 1_555
C34 C33 1_555 1_555
H36 C34 1_555 1_555
C35 N6 1_555 1_555
H37 C35 1_555 1_555
C36 C32 1_555 1_555
H38 C36 1_555 1_555
N7 H39 1_555 1_555
N8 H40 1_555 1_555
N9 H41 1_555 1_555
N10 H42 1_555 1_555
N11 C65 1_555 1_555
N12 C70 1_555 1_555
C37 N7 1_555 1_555
C38 C37 1_555 1_555
H43 C38 1_555 1_555
C39 C38 1_555 1_555
H44 C39 1_555 1_555
C40 N7 1_555 1_555
C41 C40 1_555 1_555
C42 N8 1_555 1_555
C43 C42 1_555 1_555
H45 C43 1_555 1_555
C44 C43 1_555 1_555
H46 C44 1_555 1_555
C45 N8 1_555 1_555
C46 C45 1_555 1_555
C47 N9 1_555 1_555
C48 C47 1_555 1_555
H47 C48 1_555 1_555
C49 C48 1_555 1_555
H48 C49 1_555 1_555
C50 N9 1_555 1_555
C51 C50 1_555 1_555
C52 N10 1_555 1_555
C53 C52 1_555 1_555
H49 C53 1_555 1_555
C54 C53 1_555 1_555
H50 C54 1_555 1_555
C55 N10 1_555 1_555
C56 C37 1_555 1_555
C57 C41 1_555 1_555
H51 C57 1_555 1_555
H52 C57 1_555 1_555
H53 C57 1_555 1_555
C58 C46 1_555 1_555
H54 C58 1_555 1_555
H55 C58 1_555 1_555
H56 C58 1_555 1_555
C59 C46 1_555 1_555
H57 C59 1_555 1_555
H58 C59 1_555 1_555
H59 C59 1_555 1_555
C60 C51 1_555 1_555
H60 C60 1_555 1_555
H61 C60 1_555 1_555
H62 C60 1_555 1_555
C61 C56 1_555 1_555
H63 C61 1_555 1_555
H64 C61 1_555 1_555
H65 C61 1_555 1_555
C62 C56 1_555 1_555
H66 C62 1_555 1_555
H67 C62 1_555 1_555
H68 C62 1_555 1_555
C63 C41 1_555 1_555
C64 C63 1_555 1_555
H69 C64 1_555 1_555
C65 C64 1_555 1_555
H70 C65 1_555 1_555
C66 N11 1_555 1_555
H71 C66 1_555 1_555
C67 C63 1_555 1_555
H72 C67 1_555 1_555
C68 C51 1_555 1_555
C69 C68 1_555 1_555
H73 C69 1_555 1_555
C70 C69 1_555 1_555
H74 C70 1_555 1_555
C71 N12 1_555 1_555
H75 C71 1_555 1_555
C72 C68 1_555 1_555
H76 C72 1_555 1_555
N13 C73 1_555 1_555
C73 C74 1_555 1_555
C74 H77 1_555 1_555
H78 C74 1_555 1_555
H79 C74 1_555 1_555
O1 C75 1_555 1_555
O2 C75 1_555 1_555
C75 C76 1_555 1_555
C76 C77 1_555 1_555
C77 H80 1_555 1_555
C78 C76 1_555 1_555
H81 C78 1_555 1_555
O3 C79 1_555 1_555
O4 C79 1_555 1_555
C79 C80 1_555 1_555
C80 C81 1_555 1_555
C81 H82 1_555 1_555
C82 C80 1_555 1_555
H83 C82 1_555 1_555
N14 C83 1_555 1_555
C83 C84 1_555 1_555
C84 H84 1_555 1_555
H85 C84 1_555 1_555
H86 C84 1_555 1_555
O1A C75A 1_555 1_555
O2A C75A 1_555 1_555
C75A C76A 1_555 1_555
C76A C77A 1_555 1_555
C77A C78 1_555 1_555
H80A C77A 1_555 1_555
C78A C77 1_555 1_555
H81A C78A 1_555 1_555
O3A C79A 1_555 1_555
O4A C79A 1_555 1_555
C79A C80A 1_555 1_555
C80A C81A 1_555 1_555
C81A C82 1_555 1_555
H82A C81A 1_555 1_555
C82A C81 1_555 1_555
H83A C82A 1_555 1_555
C3 C4 1_555 1_555
C5 C6 1_555 1_555
C8 C9 1_555 1_555
C10 C11 1_555 1_555
C13 C14 1_555 1_555
C15 C16 1_555 1_555
C18 C19 1_555 1_555
C19 C20 1_555 1_555
C30 C31 1_555 1_555
C35 C36 1_555 1_555
C39 C40 1_555 1_555
C41 C42 1_555 1_555
C44 C45 1_555 1_555
C46 C47 1_555 1_555
C49 C50 1_555 1_555
C51 C52 1_555 1_555
C54 C55 1_555 1_555
C55 C56 1_555 1_555
C66 C67 1_555 1_555
C71 C72 1_555 1_555
C76A C78A 1_555 1_555
C80A C82A 1_555 1_555

#END
