
#######################################################################
#
#                 Cambridge Crystallographic Data Centre
#                                CCDC 
#
#######################################################################
#
# If this CIF has been generated from an entry in the Cambridge 
# Structural Database, then it will include bibliographic, chemical, 
# crystal, experimental, refinement or atomic coordinate data resulting 
# from the CCDC's data processing and validation procedures.
#
#######################################################################

data_PEZBEB
_chemical_formula_moiety         'C28 H24 O4,H2 O1'
_chemical_name_systematic        
'25,26,27,28-tetrahydroxycalix(4)arene monohydrate clathrate'
_symmetry_cell_setting           hexagonal
_symmetry_space_group_name_H-M   'P 63/m'
_symmetry_Int_Tables_number      176
_space_group_name_Hall           '-P 6c'
loop_
_symmetry_equiv_pos_site_id
_symmetry_equiv_pos_as_xyz
1 x,y,z
2 -y,x-y,z
3 -x+y,-x,z
4 -x,-y,1/2+z
5 y,-x+y,1/2+z
6 x-y,x,1/2+z
7 -x,-y,-z
8 y,-x+y,-z
9 x-y,x,-z
10 x,y,1/2-z
11 -y,x-y,1/2-z
12 -x+y,-x,1/2-z
_cell_length_a                   14.528(2)
_cell_length_b                   14.528(2)
_cell_length_c                   18.269(4)
_cell_angle_alpha                90
_cell_angle_beta                 90
_cell_angle_gamma                120
_cell_volume                     3339.31
_cell_formula_units_Z            6
loop_
_atom_site_label
_atom_site_type_symbol
_atom_site_fract_x
_atom_site_fract_y
_atom_site_fract_z
O1 O 0.3862(5) 0.4427(5) 0.7500
O2 O 0.2824(4) 0.2833(4) 0.6559(3)
O3 O 0.1557(5) 0.1337(5) 0.7500
C1 C 0.4891(7) 0.4580(6) 0.7500
C2 C 0.6917(7) 0.4915(7) 0.7500
C3 C 0.6406(5) 0.4817(5) 0.6852(5)
C4 C 0.5388(4) 0.4655(4) 0.6832(4)
C5 C 0.4845(5) 0.4553(5) 0.6106(4)
C6 C 0.4331(5) 0.3433(5) 0.5788(4)
C7 C 0.4846(7) 0.3210(7) 0.5217(4)
C8 C 0.4392(8) 0.2191(8) 0.4941(4)
C9 C 0.3450(7) 0.1373(7) 0.5215(4)
C10 C 0.2938(5) 0.1581(5) 0.5786(4)
C11 C 0.3377(5) 0.2618(5) 0.6042(4)
C12 C 0.1925(6) 0.0677(8) 0.6109(6)
C13 C 0.2089(4) 0.0266(5) 0.6829(5)
C14 C 0.2420(6) -0.0479(6) 0.6851(6)
C15 C 0.2587(9) -0.0849(10) 0.7500
C16 C 0.1934(7) 0.0626(7) 0.7500
C4I C 0.5388(4) 0.4655(4) 0.8168(4)
C3I C 0.6406(5) 0.4817(5) 0.8148(5)
C14I C 0.2420(6) -0.0479(6) 0.8149(6)
C13I C 0.2089(4) 0.0266(5) 0.8171(5)
C5I C 0.4845(5) 0.4553(5) 0.8894(4)
C12I C 0.1925(6) 0.0677(8) 0.8891(6)
C6I C 0.4331(5) 0.3433(5) 0.9212(4)
C10I C 0.2938(5) 0.1581(5) 0.9214(4)
C7I C 0.4846(7) 0.3210(7) 0.9783(4)
C11I C 0.3377(5) 0.2618(5) 0.8958(4)
C9I C 0.3450(7) 0.1373(7) 0.9785(4)
C8I C 0.4392(8) 0.2191(8) 1.0059(4)
O2I O 0.2824(4) 0.2833(4) 0.8441(3)
O4 O 0.6667 0.3333 0.3265(5)
loop_
_geom_bond_atom_site_label_1
_geom_bond_atom_site_label_2
_geom_bond_site_symmetry_1
_geom_bond_site_symmetry_2
O1 C1 1_555 1_555
O2 C11 1_555 1_555
O3 C16 1_555 1_555
C1 C4 1_555 1_555
C2 C3 1_555 1_555
C3 C4 1_555 1_555
C4 C5 1_555 1_555
C5 C6 1_555 1_555
C6 C7 1_555 1_555
C7 C8 1_555 1_555
C8 C9 1_555 1_555
C9 C10 1_555 1_555
C10 C11 1_555 1_555
C11 C6 1_555 1_555
C12 C10 1_555 1_555
C13 C12 1_555 1_555
C14 C13 1_555 1_555
C15 C14 1_555 1_555
C16 C13 1_555 1_555
C4I C1 1_555 1_555
C3I C2 1_555 1_555
C14I C15 1_555 1_555
C13I C16 1_555 1_555
C5I C4I 1_555 1_555
C12I C13I 1_555 1_555
C6I C5I 1_555 1_555
C10I C12I 1_555 1_555
C7I C6I 1_555 1_555
C11I C6I 1_555 1_555
C9I C10I 1_555 1_555
C8I C7I 1_555 1_555
O2I C11I 1_555 1_555
C4I C3I 1_555 1_555
C14I C13I 1_555 1_555
C10I C11I 1_555 1_555
C9I C8I 1_555 1_555

#END
