
#######################################################################
#
#                 Cambridge Crystallographic Data Centre
#                                CCDC 
#
#######################################################################
#
# If this CIF has been generated from an entry in the Cambridge 
# Structural Database, then it will include bibliographic, chemical, 
# crystal, experimental, refinement or atomic coordinate data resulting 
# from the CCDC's data processing and validation procedures.
#
#######################################################################

data_PEZBII
_chemical_formula_moiety         'C44 H54 N6,2(H2 O1)'
_chemical_name_systematic        
'5,5,15,15-tetramethyl-10,20-bis(2-methylbutyl)-10,20-bis(pyridin-4-yl)calix[4]pyrrole dihydrate'
_symmetry_cell_setting           monoclinic
_symmetry_space_group_name_H-M   'P 21/n'
_symmetry_Int_Tables_number      14
_space_group_name_Hall           '-P 2yn'
loop_
_symmetry_equiv_pos_site_id
_symmetry_equiv_pos_as_xyz
1 x,y,z
2 1/2-x,1/2+y,1/2-z
3 -x,-y,-z
4 1/2+x,1/2-y,1/2+z
_cell_length_a                   10.6246(10)
_cell_length_b                   12.3223(13)
_cell_length_c                   14.8745(14)
_cell_angle_alpha                90
_cell_angle_beta                 98.778(6)
_cell_angle_gamma                90
_cell_volume                     1924.55
_exptl_crystal_colour            colorless
_exptl_crystal_description       needle
_cell_formula_units_Z            2
loop_
_atom_site_label
_atom_site_type_symbol
_atom_site_fract_x
_atom_site_fract_y
_atom_site_fract_z
C1 C 0.4916(3) 0.2585(3) 0.5520(2)
C2 C 0.3893(3) 0.1947(3) 0.5626(2)
H1 H 0.3732 0.1235 0.5392
C3 C 0.3117(3) 0.2541(3) 0.6148(2)
H2 H 0.2348 0.2295 0.6331
C4 C 0.3676(3) 0.3536(3) 0.6341(2)
C5 C 0.3349(3) 0.4427(3) 0.6961(2)
C6 C 0.3881(3) 0.5521(3) 0.6739(2)
C7 C 0.4381(3) 0.6352(3) 0.7283(2)
H3 H 0.4609 0.6325 0.7925
C8 C 0.4503(3) 0.7265(3) 0.6724(2)
H4 H 0.4834 0.7954 0.6924
C9 C 0.4061(3) 0.6981(3) 0.5847(2)
C10 C 0.3960(3) 0.7639(3) 0.4975(2)
C11 C 0.1887(3) 0.4615(3) 0.6842(2)
C12 C 0.1058(3) 0.4291(3) 0.6079(2)
H5 H 0.1368 0.3903 0.5606
C13 C -0.0228(3) 0.4535(3) 0.6011(3)
H6 H -0.0775 0.4302 0.5480
C14 C 0.0052(3) 0.5397(3) 0.7367(2)
H7 H -0.0287 0.5794 0.7823
C15 C 0.1350(3) 0.5187(3) 0.7498(2)
H8 H 0.1873 0.5432 0.8035
C16 C 0.3795(3) 0.4072(3) 0.7968(2)
H9 H 0.3823 0.4727 0.8356
H10 H 0.3136 0.3585 0.8150
C17 C 0.5098(3) 0.3488(3) 0.8191(2)
H11 H 0.5128 0.2916 0.7718
C18 C 0.5162(4) 0.2911(4) 0.9113(3)
H12 H 0.5181 0.3448 0.9610
H13 H 0.4414 0.2427 0.9089
H14 H 0.5933 0.2449 0.9209
C19 C 0.6241(4) 0.4221(4) 0.8176(3)
H15 H 0.6125 0.4649 0.7606
H16 H 0.6311 0.4735 0.8693
C20 C 0.7431(7) 0.3562(8) 0.8234(6)
H17 H 0.7638 0.3253 0.8845
H18 H 0.8133 0.4027 0.8109
H19 H 0.7302 0.2975 0.7785
C21 C 0.2716(3) 0.7397(3) 0.4331(3)
H20 H 0.2722 0.6642 0.4124
H21 H 0.2644 0.7884 0.3805
H22 H 0.1989 0.7511 0.4655
C22 C 0.3955(4) 0.8846(3) 0.5222(3)
H23 H 0.3216 0.9003 0.5521
H24 H 0.3909 0.9283 0.4667
H25 H 0.4738 0.9023 0.5635
N1 N 0.4774(3) 0.3555(2) 0.59532(19)
N2 N 0.3677(3) 0.5909(2) 0.5859(2)
N3 N -0.0746(3) 0.5071(3) 0.6636(2)
H26 H 0.342(4) 0.549(3) 0.536(3)
H27 H 0.534(4) 0.409(4) 0.603(3)
C1B C 0.5084(3) 0.7415(3) 0.4480(2)
C2B C 0.6107(3) 0.8053(3) 0.4374(2)
H1B H 0.6268 0.8765 0.4608
C3B C 0.6883(3) 0.7459(3) 0.3852(2)
H2B H 0.7652 0.7705 0.3669
C4B C 0.6324(3) 0.6464(3) 0.3659(2)
C5B C 0.6651(3) 0.5573(3) 0.3039(2)
C6B C 0.6119(3) 0.4479(3) 0.3261(2)
C7B C 0.5619(3) 0.3648(3) 0.2717(2)
H3B H 0.5391 0.3675 0.2075
C8B C 0.5497(3) 0.2735(3) 0.3276(2)
H4B H 0.5166 0.2046 0.3076
C9B C 0.5939(3) 0.3019(3) 0.4153(2)
C10B C 0.6040(3) 0.2361(3) 0.5025(2)
C11B C 0.8113(3) 0.5385(3) 0.3158(2)
C12B C 0.8942(3) 0.5709(3) 0.3921(2)
H5B H 0.8632 0.6097 0.4394
C13B C 1.0228(3) 0.5465(3) 0.3989(3)
H6B H 1.0775 0.5698 0.4520
C14B C 0.9948(3) 0.4603(3) 0.2633(2)
H7B H 1.0287 0.4206 0.2177
C15B C 0.8650(3) 0.4813(3) 0.2502(2)
H8B H 0.8127 0.4568 0.1965
C16B C 0.6205(3) 0.5928(3) 0.2032(2)
H9B H 0.6177 0.5273 0.1644
H10B H 0.6864 0.6415 0.1850
C17B C 0.4902(3) 0.6512(3) 0.1809(2)
H11B H 0.4872 0.7084 0.2282
C18B C 0.4838(4) 0.7089(4) 0.0887(3)
H12B H 0.4819 0.6552 0.0390
H13B H 0.5586 0.7573 0.0911
H14B H 0.4067 0.7551 0.0791
C19B C 0.3759(4) 0.5779(4) 0.1824(3)
H15B H 0.3875 0.5351 0.2394
H16B H 0.3689 0.5265 0.1307
C20B C 0.2569(7) 0.6438(8) 0.1766(6)
H17B H 0.2362 0.6747 0.1155
H18B H 0.1867 0.5973 0.1891
H19B H 0.2698 0.7025 0.2215
C21B C 0.7284(3) 0.2603(3) 0.5669(3)
H20B H 0.7278 0.3358 0.5876
H21B H 0.7356 0.2116 0.6195
H22B H 0.8011 0.2489 0.5345
C22B C 0.6045(4) 0.1154(3) 0.4778(3)
H23B H 0.6784 0.0997 0.4479
H24B H 0.6091 0.0717 0.5333
H25B H 0.5262 0.0977 0.4365
N1B N 0.5226(3) 0.6445(2) 0.40468(19)
N2B N 0.6323(3) 0.4091(2) 0.4141(2)
N3B N 1.0746(3) 0.4929(3) 0.3364(2)
H26B H 0.658(4) 0.451(3) 0.464(3)
H27B H 0.466(4) 0.591(4) 0.397(3)
O1 O 0.6718(2) 0.5325(2) 0.58775(19)
H28 H 0.646(5) 0.5966(17) 0.591(4)
H29 H 0.745(2) 0.532(5) 0.619(3)
H30? H 0.7025 0.3778 0.8218
C23? C 0.5204(8) 0.3680(8) 0.9945(6)
H31? H 0.5890 0.4211 0.9942
H32? H 0.5360 0.3254 1.0508
H33? H 0.4388 0.4061 0.9911
loop_
_geom_bond_atom_site_label_1
_geom_bond_atom_site_label_2
_geom_bond_site_symmetry_1
_geom_bond_site_symmetry_2
C1 C2 1_555 1_555
C2 H1 1_555 1_555
C3 C2 1_555 1_555
H2 C3 1_555 1_555
C4 C3 1_555 1_555
C5 C4 1_555 1_555
C6 C5 1_555 1_555
C7 C6 1_555 1_555
H3 C7 1_555 1_555
C8 C7 1_555 1_555
H4 C8 1_555 1_555
C9 C8 1_555 1_555
C10 C9 1_555 1_555
C11 C5 1_555 1_555
C12 C11 1_555 1_555
H5 C12 1_555 1_555
C13 C12 1_555 1_555
H6 C13 1_555 1_555
C14 H7 1_555 1_555
C15 C11 1_555 1_555
H8 C15 1_555 1_555
C16 C5 1_555 1_555
H9 C16 1_555 1_555
H10 C16 1_555 1_555
C17 C16 1_555 1_555
H11 C17 1_555 1_555
C18 C17 1_555 1_555
H12 C18 1_555 1_555
H13 C18 1_555 1_555
H14 C18 1_555 1_555
C19 C17 1_555 1_555
H15 C19 1_555 1_555
H16 C19 1_555 1_555
C20 C19 1_555 1_555
H17 C20 1_555 1_555
H18 C20 1_555 1_555
H19 C20 1_555 1_555
C21 C10 1_555 1_555
H20 C21 1_555 1_555
H21 C21 1_555 1_555
H22 C21 1_555 1_555
C22 C10 1_555 1_555
H23 C22 1_555 1_555
H24 C22 1_555 1_555
H25 C22 1_555 1_555
N1 C1 1_555 1_555
N2 C6 1_555 1_555
N3 C13 1_555 1_555
H26 N2 1_555 1_555
H27 N1 1_555 1_555
O1 H28 1_555 1_555
H29 O1 1_555 1_555
C1B C10 1_555 1_555
C2B C1B 1_555 1_555
H1B C2B 1_555 1_555
C3B C2B 1_555 1_555
H2B C3B 1_555 1_555
C4B C3B 1_555 1_555
C5B C4B 1_555 1_555
C6B C5B 1_555 1_555
C7B C6B 1_555 1_555
H3B C7B 1_555 1_555
C8B C7B 1_555 1_555
H4B C8B 1_555 1_555
C9B C8B 1_555 1_555
C10B C1 1_555 1_555
C11B C5B 1_555 1_555
C12B C11B 1_555 1_555
H5B C12B 1_555 1_555
C13B C12B 1_555 1_555
H6B C13B 1_555 1_555
C14B H7B 1_555 1_555
C15B C11B 1_555 1_555
H8B C15B 1_555 1_555
C16B C5B 1_555 1_555
H9B C16B 1_555 1_555
H10B C16B 1_555 1_555
C17B C16B 1_555 1_555
H11B C17B 1_555 1_555
C18B C17B 1_555 1_555
H12B C18B 1_555 1_555
H13B C18B 1_555 1_555
H14B C18B 1_555 1_555
C19B C17B 1_555 1_555
H15B C19B 1_555 1_555
H16B C19B 1_555 1_555
C20B C19B 1_555 1_555
H17B C20B 1_555 1_555
H18B C20B 1_555 1_555
H19B C20B 1_555 1_555
C21B C10B 1_555 1_555
H20B C21B 1_555 1_555
H21B C21B 1_555 1_555
H22B C21B 1_555 1_555
C22B C10B 1_555 1_555
H23B C22B 1_555 1_555
H24B C22B 1_555 1_555
H25B C22B 1_555 1_555
N1B C1B 1_555 1_555
N2B C6B 1_555 1_555
N3B C13B 1_555 1_555
H26B N2B 1_555 1_555
H27B N1B 1_555 1_555
C4 N1 1_555 1_555
C9 N2 1_555 1_555
C14 C15 1_555 1_555
C14 N3 1_555 1_555
C4B N1B 1_555 1_555
C9B C10B 1_555 1_555
C9B N2B 1_555 1_555
C14B C15B 1_555 1_555
C14B N3B 1_555 1_555

#END
