
#######################################################################
#
#                 Cambridge Crystallographic Data Centre
#                                CCDC 
#
#######################################################################
#
# If this CIF has been generated from an entry in the Cambridge 
# Structural Database, then it will include bibliographic, chemical, 
# crystal, experimental, refinement or atomic coordinate data resulting 
# from the CCDC's data processing and validation procedures.
#
#######################################################################

data_PEZCAB
_chemical_formula_moiety         'C17 H18 N2 O3'
_chemical_name_systematic        
2-[(2-oxooctahydro-3aH-indol-3a-yl)methyl]-1H-isoindole-1,3(2H)-dione
_symmetry_cell_setting           triclinic
_symmetry_space_group_name_H-M   'P -1'
_symmetry_Int_Tables_number      2
_space_group_name_Hall           '-P 1'
loop_
_symmetry_equiv_pos_site_id
_symmetry_equiv_pos_as_xyz
1 x,y,z
2 -x,-y,-z
_cell_length_a                   8.4351(12)
_cell_length_b                   8.4449(12)
_cell_length_c                   11.063(2)
_cell_angle_alpha                82.266(5)
_cell_angle_beta                 84.646(6)
_cell_angle_gamma                73.485(4)
_cell_volume                     747.415
_exptl_crystal_colour            colourless
_exptl_crystal_description       block
_cell_formula_units_Z            2
loop_
_atom_site_label
_atom_site_type_symbol
_atom_site_fract_x
_atom_site_fract_y
_atom_site_fract_z
C1 C 0.81957(10) 0.32340(10) 0.61935(7)
C2 C 0.78344(10) 0.20571(10) 0.72431(7)
C3 C 0.76106(12) 0.22234(12) 0.84823(8)
H1 H 0.7719 0.3180 0.8793
C4 C 0.72179(14) 0.09171(13) 0.92532(8)
H2 H 0.7057 0.0986 1.0108
C5 C 0.70574(13) -0.04861(13) 0.87917(9)
H3 H 0.6781 -0.1349 0.9338
C6 C 0.72957(12) -0.06451(11) 0.75408(8)
H4 H 0.7193 -0.1600 0.7224
C7 C 0.76885(10) 0.06543(10) 0.67838(7)
C8 C 0.80217(11) 0.08703(10) 0.54366(7)
C9 C 0.87749(10) 0.30826(10) 0.39213(7)
H5 H 0.9453 0.2126 0.3505
H6 H 0.9489 0.3808 0.4000
C10 C 0.73407(10) 0.40596(10) 0.31265(7)
C11 C 0.61395(11) 0.30515(11) 0.29281(7)
H7 H 0.6727 0.1857 0.2919
H8 H 0.5230 0.3174 0.3573
C12 C 0.54863(11) 0.38223(10) 0.16864(7)
C13 C 0.80098(10) 0.44416(11) 0.17921(7)
H9 H 0.8890 0.3438 0.1561
C14 C 0.87122(12) 0.59382(13) 0.15520(8)
H10 H 0.9808 0.5640 0.1907
H11 H 0.8881 0.6207 0.0659
C15 C 0.76005(13) 0.74764(12) 0.20843(9)
H12 H 0.6564 0.7885 0.1647
H13 H 0.8169 0.8367 0.1970
C16 C 0.71873(12) 0.70713(11) 0.34447(9)
H14 H 0.8217 0.6726 0.3890
H15 H 0.6449 0.8075 0.3774
C17 C 0.63373(10) 0.56788(10) 0.36401(7)
H16 H 0.5262 0.6080 0.3253
H17 H 0.6103 0.5428 0.4528
N1 N 0.82282(9) 0.24696(9) 0.51425(6)
N2 N 0.65484(10) 0.46310(10) 0.11047(6)
H18 H 0.6384 0.5215 0.0384
O1 O 0.84132(9) 0.45911(8) 0.62040(6)
O2 O 0.81389(10) -0.01120(9) 0.47026(6)
O3 O 0.42082(9) 0.37114(9) 0.12772(6)
loop_
_geom_bond_atom_site_label_1
_geom_bond_atom_site_label_2
_geom_bond_site_symmetry_1
_geom_bond_site_symmetry_2
C1 C2 1_555 1_555
C2 C3 1_555 1_555
C3 H1 1_555 1_555
C4 C3 1_555 1_555
H2 C4 1_555 1_555
C5 C4 1_555 1_555
H3 C5 1_555 1_555
C6 C5 1_555 1_555
H4 C6 1_555 1_555
C7 C2 1_555 1_555
C8 C7 1_555 1_555
C9 H5 1_555 1_555
H6 C9 1_555 1_555
C10 C9 1_555 1_555
C11 C10 1_555 1_555
H7 C11 1_555 1_555
H8 C11 1_555 1_555
C12 C11 1_555 1_555
C13 C10 1_555 1_555
H9 C13 1_555 1_555
C14 C13 1_555 1_555
H10 C14 1_555 1_555
H11 C14 1_555 1_555
C15 C14 1_555 1_555
H12 C15 1_555 1_555
H13 C15 1_555 1_555
C16 C15 1_555 1_555
H14 C16 1_555 1_555
H15 C16 1_555 1_555
C17 C10 1_555 1_555
H16 C17 1_555 1_555
H17 C17 1_555 1_555
N1 C1 1_555 1_555
N2 C12 1_555 1_555
H18 N2 1_555 1_555
O1 C1 1_555 1_555
O2 C8 1_555 1_555
O3 C12 1_555 1_555
C6 C7 1_555 1_555
C8 N1 1_555 1_555
C9 N1 1_555 1_555
C13 N2 1_555 1_555
C16 C17 1_555 1_555

#END
