
#######################################################################
#
#                 Cambridge Crystallographic Data Centre
#                                CCDC 
#
#######################################################################
#
# If this CIF has been generated from an entry in the Cambridge 
# Structural Database, then it will include bibliographic, chemical, 
# crystal, experimental, refinement or atomic coordinate data resulting 
# from the CCDC's data processing and validation procedures.
#
#######################################################################

data_PEZCOP
_chemical_formula_moiety         'C14 H14 N2 O3,0.5(C1 H2 Cl2)'
_chemical_name_systematic        
'2-(5,5-dimethyl-2-oxopyrrolidin-3-yl)-1H-isoindole-1,3(2H)-dione dichloromethane solvate'
_symmetry_cell_setting           monoclinic
_symmetry_space_group_name_H-M   'P 21'
_symmetry_Int_Tables_number      4
_space_group_name_Hall           'P 2yb'
loop_
_symmetry_equiv_pos_site_id
_symmetry_equiv_pos_as_xyz
1 x,y,z
2 -x,1/2+y,-z
_cell_length_a                   11.4499(17)
_cell_length_b                   10.4586(15)
_cell_length_c                   12.6359(19)
_cell_angle_alpha                90
_cell_angle_beta                 104.808(5)
_cell_angle_gamma                90
_cell_volume                     1462.89
_exptl_crystal_colour            colorless
_exptl_crystal_description       block
_cell_formula_units_Z            4
loop_
_atom_site_label
_atom_site_type_symbol
_atom_site_fract_x
_atom_site_fract_y
_atom_site_fract_z
C1 C 0.93781(16) 0.68218(18) 0.63049(14)
H1 H 0.8932 0.7641 0.6083
C2 C 0.87181(16) 0.57588(18) 0.55453(13)
C3 C 1.03232(16) 0.64600(17) 0.48205(13)
C4 C 1.13669(19) 0.5699(2) 0.45852(19)
H2 H 1.1567 0.4980 0.5098
H3 H 1.2074 0.6255 0.4673
H4 H 1.1129 0.5372 0.3834
C5 C 0.9978(2) 0.75522(19) 0.40058(16)
H5 H 0.9719 0.7205 0.3262
H6 H 1.0677 0.8113 0.4063
H7 H 0.9315 0.8043 0.4167
C6 C 1.05984(18) 0.6919(2) 0.60240(15)
H8 H 1.1207 0.6362 0.6507
H9 H 1.0899 0.7810 0.6094
C7 C 0.87369(16) 0.72994(18) 0.80121(14)
C8 C 0.98800(16) 0.54633(17) 0.80085(14)
C9 C 0.95210(16) 0.55076(17) 0.90602(14)
C10 C 0.88342(15) 0.66017(16) 0.90601(13)
C11 C 0.97538(17) 0.4653(2) 0.99261(16)
H10 H 1.0218 0.3902 0.9919
C12 C 0.92752(19) 0.4943(2) 1.08109(16)
H11 H 0.9420 0.4381 1.1421
C13 C 0.85879(18) 0.6045(2) 1.08122(15)
H12 H 0.8278 0.6223 1.1426
C14 C 0.83474(17) 0.68928(19) 0.99270(15)
H13 H 0.7870 0.7637 0.9921
N1 N 0.92778(14) 0.56135(15) 0.47485(12)
H14 H 0.9040 0.5053 0.4218
N2 N 0.94010(14) 0.65735(15) 0.74352(12)
O1 O 0.78181(13) 0.51798(16) 0.56616(11)
O2 O 1.04580(14) 0.46584(14) 0.76800(12)
O3 O 0.82141(14) 0.82854(15) 0.76922(12)
C15 C 0.51296(16) 0.36829(19) 0.33790(15)
C16 C 0.4950(2) 0.2483(2) 0.4005(2)
H15 H 0.5428 0.1781 0.3818
H16 H 0.4094 0.2247 0.3807
H17 H 0.5214 0.2651 0.4794
C17 C 0.4427(2) 0.4808(2) 0.36786(19)
H18 H 0.4716 0.4984 0.4464
H19 H 0.3565 0.4597 0.3501
H20 H 0.4550 0.5565 0.3263
C18 C 0.48279(17) 0.3448(2) 0.21260(15)
H21 H 0.4901 0.2531 0.1963
H22 H 0.3999 0.3739 0.1766
C19 C 0.57681(16) 0.42442(19) 0.17465(14)
H23 H 0.5441 0.5129 0.1583
C20 C 0.68397(16) 0.43043(17) 0.27647(13)
C21 C 0.67684(17) 0.26351(19) 0.07839(15)
C22 C 0.70408(17) 0.2604(2) -0.03139(16)
C23 C 0.7629(2) 0.1680(3) -0.0771(2)
H24 H 0.7904 0.0904 -0.0399
C24 C 0.7796(2) 0.1946(3) -0.1804(2)
H25 H 0.8205 0.1340 -0.2141
C25 C 0.7382(2) 0.3070(3) -0.23518(19)
H26 H 0.7510 0.3216 -0.3056
C26 C 0.6778(2) 0.3998(3) -0.18894(16)
H27 H 0.6494 0.4771 -0.2261
C27 C 0.66157(16) 0.3726(2) -0.08573(14)
C28 C 0.60246(16) 0.45030(19) -0.01528(14)
N3 N 0.64253(14) 0.40054(17) 0.36288(12)
H28 H 0.6892 0.4001 0.4301
N4 N 0.61315(14) 0.37775(16) 0.07992(12)
O4 O 0.78739(12) 0.46189(15) 0.27585(10)
O5 O 0.55422(14) 0.55380(15) -0.03317(12)
O6 O 0.70431(15) 0.18863(16) 0.15336(13)
C29 C 0.3325(2) 0.4033(2) 0.7537(2)
H29 H 0.3808 0.4815 0.7775
H30 H 0.2460 0.4262 0.7390
Cl1 Cl 0.36812(5) 0.28767(6) 0.85847(5)
Cl2 Cl 0.36354(7) 0.34320(12) 0.63315(5)
loop_
_geom_bond_atom_site_label_1
_geom_bond_atom_site_label_2
_geom_bond_site_symmetry_1
_geom_bond_site_symmetry_2
C1 H1 1_555 1_555
C2 C1 1_555 1_555
C3 C4 1_555 1_555
C4 H2 1_555 1_555
H3 C4 1_555 1_555
H4 C4 1_555 1_555
C5 C3 1_555 1_555
H5 C5 1_555 1_555
H6 C5 1_555 1_555
H7 C5 1_555 1_555
C6 C1 1_555 1_555
H8 C6 1_555 1_555
H9 C6 1_555 1_555
C7 C10 1_555 1_555
C8 C9 1_555 1_555
C9 C10 1_555 1_555
C10 C14 1_555 1_555
C11 C9 1_555 1_555
H10 C11 1_555 1_555
C12 C11 1_555 1_555
H11 C12 1_555 1_555
C13 C12 1_555 1_555
H12 C13 1_555 1_555
C14 C13 1_555 1_555
H13 C14 1_555 1_555
N1 C2 1_555 1_555
H14 N1 1_555 1_555
N2 C1 1_555 1_555
O1 C2 1_555 1_555
O2 C8 1_555 1_555
O3 C7 1_555 1_555
C15 C16 1_555 1_555
C16 H15 1_555 1_555
H16 C16 1_555 1_555
H17 C16 1_555 1_555
C17 C15 1_555 1_555
H18 C17 1_555 1_555
H19 C17 1_555 1_555
H20 C17 1_555 1_555
C18 C15 1_555 1_555
H21 C18 1_555 1_555
H22 C18 1_555 1_555
C19 C18 1_555 1_555
H23 C19 1_555 1_555
C20 C19 1_555 1_555
C21 C22 1_555 1_555
C22 C23 1_555 1_555
C23 H24 1_555 1_555
C24 C23 1_555 1_555
H25 C24 1_555 1_555
C25 C24 1_555 1_555
H26 C25 1_555 1_555
C26 C25 1_555 1_555
H27 C26 1_555 1_555
C27 C22 1_555 1_555
C28 C27 1_555 1_555
N3 C15 1_555 1_555
H28 N3 1_555 1_555
N4 C19 1_555 1_555
O4 C20 1_555 1_555
O5 C28 1_555 1_555
O6 C21 1_555 1_555
C29 H29 1_555 1_555
H30 C29 1_555 1_555
Cl1 C29 1_555 1_555
Cl2 C29 1_555 1_555
C3 C6 1_555 1_555
C3 N1 1_555 1_555
C7 N2 1_555 1_555
C8 N2 1_555 1_555
C20 N3 1_555 1_555
C21 N4 1_555 1_555
C26 C27 1_555 1_555
C28 N4 1_555 1_555

#END
