
#######################################################################
#
#                 Cambridge Crystallographic Data Centre
#                                CCDC 
#
#######################################################################
#
# If this CIF has been generated from an entry in the Cambridge 
# Structural Database, then it will include bibliographic, chemical, 
# crystal, experimental, refinement or atomic coordinate data resulting 
# from the CCDC's data processing and validation procedures.
#
#######################################################################

data_PEZCAY
_chemical_formula_moiety         'C15 H22 B1 N6 1-,K1 1+'
_chemical_name_systematic        
'Potassium (hydrogen tris(3,5-dimethylpyrazol-1-yl)borate)'
_symmetry_cell_setting           monoclinic
_symmetry_space_group_name_H-M   'P 21/n'
_symmetry_Int_Tables_number      14
_space_group_name_Hall           '-P 2yn'
loop_
_symmetry_equiv_pos_site_id
_symmetry_equiv_pos_as_xyz
1 x,y,z
2 1/2-x,1/2+y,1/2-z
3 -x,-y,-z
4 1/2+x,1/2-y,1/2+z
_cell_length_a                   10.527(8)
_cell_length_b                   9.464(3)
_cell_length_c                   17.730(9)
_cell_angle_alpha                90
_cell_angle_beta                 94.51(5)
_cell_angle_gamma                90
_cell_volume                     1760.93
_cell_formula_units_Z            4
loop_
_atom_site_label
_atom_site_type_symbol
_atom_site_fract_x
_atom_site_fract_y
_atom_site_fract_z
B1 B 0.9482(6) 0.4196(6) 0.6432(4)
N1 N 0.7161(5) 0.4981(5) 0.6592(3)
N2 N 0.7987(5) 0.4188(5) 0.6221(4)
C1 C 0.7391(7) 0.3549(7) 0.5613(5)
C2 C 0.6108(6) 0.3889(8) 0.5594(5)
C3 C 0.6033(6) 0.4767(7) 0.6228(5)
C4 C 0.7970(8) 0.2668(9) 0.5058(5)
C5 C 0.4872(7) 0.548(1) 0.6515(7)
N3 N 0.8924(5) 0.3959(6) 0.7838(4)
N4 N 0.9644(5) 0.4522(6) 0.7312(4)
C6 C 1.0627(6) 0.5274(8) 0.7688(4)
C7 C 1.0497(7) 0.521(1) 0.8434(5)
C8 C 0.9425(7) 0.4358(7) 0.8496(5)
C9 C 1.1690(7) 0.595(1) 0.7288(7)
C10 C 0.889(1) 0.393(1) 0.9177(8)
N5 N 0.9448(6) 0.1556(6) 0.6546(5)
N6 N 1.0009(5) 0.2739(6) 0.6295(4)
C11 C 1.0062(8) 0.0467(7) 0.6299(6)
C12 C 1.1024(7) 0.0911(8) 0.5849(6)
C13 C 1.0972(7) 0.2393(9) 0.5861(5)
C14 C 0.966(1) -0.1029(9) 0.612(1)
C15 C 1.176(1) 0.343(1) 0.5444(9)
K1 K 0.7175(2) 0.1907(1) 0.7526(1)
loop_
_geom_bond_atom_site_label_1
_geom_bond_atom_site_label_2
_geom_bond_site_symmetry_1
_geom_bond_site_symmetry_2
B1 N2 1_555 1_555
N1 N2 1_555 1_555
N2 C1 1_555 1_555
C1 C2 1_555 1_555
C2 C3 1_555 1_555
C3 N1 1_555 1_555
C4 C1 1_555 1_555
C5 C3 1_555 1_555
N3 N4 1_555 1_555
N4 B1 1_555 1_555
C6 N4 1_555 1_555
C7 C6 1_555 1_555
C8 N3 1_555 1_555
C9 C6 1_555 1_555
C10 C8 1_555 1_555
N5 N6 1_555 1_555
N6 B1 1_555 1_555
C11 N5 1_555 1_555
C12 C11 1_555 1_555
C13 N6 1_555 1_555
C14 C11 1_555 1_555
C15 C13 1_555 1_555
C7 C8 1_555 1_555
C12 C13 1_555 1_555

#END
