
#######################################################################
#
#                 Cambridge Crystallographic Data Centre
#                                CCDC 
#
#######################################################################
#
# If this CIF has been generated from an entry in the Cambridge 
# Structural Database, then it will include bibliographic, chemical, 
# crystal, experimental, refinement or atomic coordinate data resulting 
# from the CCDC's data processing and validation procedures.
#
#######################################################################

data_PEZDAA
_chemical_name_common            
(1R,2R,4aS,8aS,3'R,4'E,1''S)-(+)-1-(6'-(2'',2''-dimethyl-6''-methylenecyclohexyl)-4'-methylhex-4'-enyl)-2,3'-epoxy-2,5,5,8a-tetramethyldecahydronaphthalen-2-ol
_chemical_formula_moiety         'C30 H50 O1'
_chemical_name_systematic        
3-[3-(2,2-Dimethyl-6-methylidenecyclohexyl)-1-methylprop-1-en-1-yl]-4a,7,7,10a-tetramethyldodecahydro-1H-benzo[f]chromene
_chemical_properties_biological  
'cytotoxic activity against human liver carcinoma (Hepa59T/VGH), colon adenocarcinoma (WiDr), lung carcinoma (A-549) and human breast adenocarcinoma (MCF07) cell lines. Anti-inflammatory activity against human neutrophils'
_symmetry_cell_setting           orthorhombic
_symmetry_space_group_name_H-M   'P 21 21 21'
_symmetry_Int_Tables_number      19
_space_group_name_Hall           'P 2ac 2ab'
loop_
_symmetry_equiv_pos_site_id
_symmetry_equiv_pos_as_xyz
1 x,y,z
2 1/2-x,-y,1/2+z
3 -x,1/2+y,1/2-z
4 1/2+x,1/2-y,-z
_cell_length_a                   6.2983(15)
_cell_length_b                   11.916(2)
_cell_length_c                   35.057(5)
_cell_angle_alpha                90
_cell_angle_beta                 90
_cell_angle_gamma                90
_cell_volume                     2631.05
_exptl_crystal_colour            colorless
_exptl_crystal_description       prism
_chemical_melting_point          112deg.C
_cell_formula_units_Z            4
loop_
_atom_site_label
_atom_site_type_symbol
_atom_site_fract_x
_atom_site_fract_y
_atom_site_fract_z
O1 O 0.4306(4) 0.11468(18) 0.02055(6)
C1 C 0.3814(6) -0.0901(3) -0.06407(8)
C2 C 0.4233(5) -0.0443(2) -0.02284(8)
H1 H 0.5778 -0.0359 -0.0212
C3 C 0.3349(6) 0.0721(3) -0.01467(8)
C4 C 0.5166(6) 0.0965(3) 0.08602(8)
C5 C 0.5048(6) -0.0355(3) -0.13441(8)
C6 C 0.4757(5) -0.0005(3) -0.09165(8)
H2 H 0.6213 0.0100 -0.0824
C7 C 0.6459(6) -0.0462(3) 0.18071(9)
C8 C 0.3650(8) -0.1267(3) 0.00936(8)
H3 H 0.2239 -0.1564 0.0048
H4 H 0.4640 -0.1891 0.0092
C9 C 0.3727(7) 0.1130(3) -0.08566(8)
H5 H 0.2215 0.1073 -0.0905
H6 H 0.4319 0.1666 -0.1036
C10 C 0.5063(7) -0.2000(3) -0.06914(9)
H7 H 0.6490 -0.1897 -0.0594
H8 H 0.4389 -0.2584 -0.0541
C11 C 0.6816(6) 0.0829(3) 0.10845(9)
H9 H 0.7885 0.0354 0.0998
C12 C 0.4088(7) 0.1547(3) -0.04485(8)
H10 H 0.5590 0.1692 -0.0413
H11 H 0.3338 0.2251 -0.0414
C13 C 0.3708(7) -0.0691(3) 0.04864(8)
H12 H 0.2274 -0.0494 0.0562
H13 H 0.4269 -0.1211 0.0674
C14 C 0.6033(6) 0.0767(3) 0.18068(8)
H14 H 0.4501 0.0861 0.1769
C15 C 0.5062(6) 0.0354(3) 0.04802(8)
H15 H 0.6509 0.0137 0.0408
C16 C 0.6584(6) 0.1295(3) 0.22026(9)
C17 C 0.8836(7) 0.0964(4) 0.23128(10)
H16 H 0.9819 0.1316 0.2137
H17 H 0.9136 0.1254 0.2566
C18 C 0.6168(7) -0.1494(3) -0.13584(10)
H18 H 0.6163 -0.1760 -0.1620
H19 H 0.7638 -0.1392 -0.1283
C19 C 0.1460(6) -0.1150(3) -0.07150(9)
H20 H 0.1338 -0.1721 -0.0907
H21 H 0.0763 -0.0480 -0.0801
H22 H 0.0805 -0.1407 -0.0484
C20 C 0.2951(6) -0.0405(3) -0.15682(9)
H23 H 0.3249 -0.0517 -0.1834
H24 H 0.2191 0.0286 -0.1535
H25 H 0.2104 -0.1017 -0.1475
C21 C 0.7146(7) 0.1370(3) 0.14711(9)
H26 H 0.6633 0.2137 0.1460
H27 H 0.8658 0.1399 0.1523
C22 C 0.5193(8) -0.2386(3) -0.11079(9)
H28 H 0.6039 -0.3065 -0.1123
H29 H 0.3778 -0.2560 -0.1200
C23 C 0.5026(8) -0.1216(4) 0.17185(10)
H30 H 0.3662 -0.0993 0.1651
H31 H 0.5374 -0.1975 0.1723
C24 C 0.5015(8) 0.0869(4) 0.24987(10)
H32 H 0.4984 0.0064 0.2493
H33 H 0.3626 0.1156 0.2442
H34 H 0.5444 0.1119 0.2747
C25 C 0.0944(6) 0.0799(3) -0.00977(11)
H35 H 0.0459 0.0187 0.0058
H36 H 0.0272 0.0762 -0.0343
H37 H 0.0589 0.1497 0.0023
C26 C 0.6501(8) 0.0506(4) -0.15416(10)
H38 H 0.7754 0.0619 -0.1391
H39 H 0.5759 0.1206 -0.1568
H40 H 0.6895 0.0232 -0.1789
C27 C 0.3277(9) 0.1659(4) 0.09632(11)
H41 H 0.3520 0.2019 0.1204
H42 H 0.2047 0.1186 0.0981
H43 H 0.3051 0.2219 0.0771
C28 C 0.6398(9) 0.2567(3) 0.21922(10)
H44 H 0.6491 0.2858 0.2447
H45 H 0.5057 0.2774 0.2083
H46 H 0.7528 0.2872 0.2041
C29 C 0.9235(8) -0.0292(4) 0.23125(12)
H47 H 0.8386 -0.0645 0.2510
H48 H 1.0718 -0.0438 0.2368
C30 C 0.8659(8) -0.0795(4) 0.19232(11)
H49 H 0.9665 -0.0537 0.1733
H50 H 0.8751 -0.1607 0.1936
loop_
_geom_bond_atom_site_label_1
_geom_bond_atom_site_label_2
_geom_bond_site_symmetry_1
_geom_bond_site_symmetry_2
O1 C3 1_555 1_555
C1 C2 1_555 1_555
C2 H1 1_555 1_555
C3 C2 1_555 1_555
C4 C11 1_555 1_555
C5 C6 1_555 1_555
C6 C1 1_555 1_555
H2 C6 1_555 1_555
C7 C14 1_555 1_555
C8 C2 1_555 1_555
H3 C8 1_555 1_555
H4 C8 1_555 1_555
C9 C6 1_555 1_555
H5 C9 1_555 1_555
H6 C9 1_555 1_555
C10 C1 1_555 1_555
H7 C10 1_555 1_555
H8 C10 1_555 1_555
C11 H9 1_555 1_555
C12 C3 1_555 1_555
H10 C12 1_555 1_555
H11 C12 1_555 1_555
C13 C8 1_555 1_555
H12 C13 1_555 1_555
H13 C13 1_555 1_555
C14 H14 1_555 1_555
C15 O1 1_555 1_555
H15 C15 1_555 1_555
C16 C14 1_555 1_555
C17 C16 1_555 1_555
H16 C17 1_555 1_555
H17 C17 1_555 1_555
C18 C5 1_555 1_555
H18 C18 1_555 1_555
H19 C18 1_555 1_555
C19 C1 1_555 1_555
H20 C19 1_555 1_555
H21 C19 1_555 1_555
H22 C19 1_555 1_555
C20 C5 1_555 1_555
H23 C20 1_555 1_555
H24 C20 1_555 1_555
H25 C20 1_555 1_555
C21 C11 1_555 1_555
H26 C21 1_555 1_555
H27 C21 1_555 1_555
C22 C10 1_555 1_555
H28 C22 1_555 1_555
H29 C22 1_555 1_555
C23 C7 1_555 1_555
H30 C23 1_555 1_555
H31 C23 1_555 1_555
C24 C16 1_555 1_555
H32 C24 1_555 1_555
H33 C24 1_555 1_555
H34 C24 1_555 1_555
C25 C3 1_555 1_555
H35 C25 1_555 1_555
H36 C25 1_555 1_555
H37 C25 1_555 1_555
C26 C5 1_555 1_555
H38 C26 1_555 1_555
H39 C26 1_555 1_555
H40 C26 1_555 1_555
C27 C4 1_555 1_555
H41 C27 1_555 1_555
H42 C27 1_555 1_555
H43 C27 1_555 1_555
C28 C16 1_555 1_555
H44 C28 1_555 1_555
H45 C28 1_555 1_555
H46 C28 1_555 1_555
C29 C17 1_555 1_555
H47 C29 1_555 1_555
H48 C29 1_555 1_555
C30 C7 1_555 1_555
H49 C30 1_555 1_555
H50 C30 1_555 1_555
C4 C15 1_555 1_555
C9 C12 1_555 1_555
C13 C15 1_555 1_555
C14 C21 1_555 1_555
C18 C22 1_555 1_555
C29 C30 1_555 1_555

#END
