
#######################################################################
#
#                 Cambridge Crystallographic Data Centre
#                                CCDC 
#
#######################################################################
#
# If this CIF has been generated from an entry in the Cambridge 
# Structural Database, then it will include bibliographic, chemical, 
# crystal, experimental, refinement or atomic coordinate data resulting 
# from the CCDC's data processing and validation procedures.
#
#######################################################################

data_PEZDUU
_chemical_formula_moiety         'C5 H10 N4 O1 S1'
_chemical_name_systematic        
4-Amino-3-(3-hydroxypropyl)-1H-1,2,4-triazole-5(4H)-thione
_symmetry_cell_setting           monoclinic
_symmetry_space_group_name_H-M   'P 21/c'
_symmetry_Int_Tables_number      14
_space_group_name_Hall           '-P 2ybc'
loop_
_symmetry_equiv_pos_site_id
_symmetry_equiv_pos_as_xyz
1 x,y,z
2 -x,1/2+y,1/2-z
3 -x,-y,-z
4 x,1/2-y,1/2+z
_cell_length_a                   8.4568(6)
_cell_length_b                   22.8905(16)
_cell_length_c                   9.2625(6)
_cell_angle_alpha                90
_cell_angle_beta                 114.172(1)
_cell_angle_gamma                90
_cell_volume                     1635.83
_exptl_crystal_colour            colorless
_exptl_crystal_description       block
_chemical_melting_point          125-126deg.C
_cell_formula_units_Z            8
_exptl_crystal_recrystallization_method ethanol
loop_
_atom_site_label
_atom_site_type_symbol
_atom_site_fract_x
_atom_site_fract_y
_atom_site_fract_z
S1 S 0.45177(10) 0.67054(3) 0.30975(10)
O1 O 0.5557(3) 0.33577(9) 0.0668(3)
H1 H 0.4630 0.3249 -0.0018
N1 N 0.6436(3) 0.51325(9) 0.4215(3)
N2 N 0.6331(3) 0.57261(10) 0.4479(3)
N3 N 0.4399(3) 0.55618(9) 0.2172(3)
N4 N 0.3020(3) 0.56096(10) 0.0670(3)
C1 C 0.5421(5) 0.33902(12) 0.2170(4)
H3 H 0.6144 0.3091 0.2875
H4 H 0.4232 0.3320 0.2014
C2 C 0.5993(4) 0.39889(11) 0.2911(4)
H5 H 0.7148 0.4070 0.2981
H6 H 0.6048 0.3986 0.3978
C3 C 0.4758(4) 0.44755(10) 0.1958(4)
H7 H 0.4800 0.4509 0.0930
H8 H 0.3581 0.4375 0.1790
C4 C 0.5231(3) 0.50484(11) 0.2796(3)
C5 C 0.5102(3) 0.59966(11) 0.3274(3)
H16 H 0.706(3) 0.5897(11) 0.531(3)
H17 H 0.209(3) 0.5640(12) 0.084(4)
H18 H 0.316(4) 0.5940(9) 0.028(3)
S2 S 0.05714(9) 0.12282(3) 0.73092(10)
O2 O -0.1285(3) 0.46473(10) 0.7189(3)
H2 H -0.1978 0.4724 0.6286
N5 N 0.2106(3) 0.28180(9) 0.8758(3)
N6 N 0.2187(3) 0.22137(10) 0.8877(4)
N7 N 0.0021(3) 0.23992(9) 0.6726(3)
N8 N -0.1428(4) 0.23546(11) 0.5268(4)
C6 C 0.0402(4) 0.45853(12) 0.7219(4)
H9 H 0.1158 0.4886 0.7884
H10 H 0.0346 0.4631 0.6158
C7 C 0.1127(4) 0.39894(11) 0.7856(4)
H11 H 0.1087 0.3934 0.8879
H12 H 0.2330 0.3971 0.8006
C8 C 0.0120(4) 0.34999(11) 0.6746(4)
H13 H -0.1097 0.3533 0.6541
H14 H 0.0222 0.3541 0.5745
C9 C 0.0769(4) 0.29135(11) 0.7427(4)
C10 C 0.0946(3) 0.19465(11) 0.7668(4)
H15 H 0.302(3) 0.2060(11) 0.964(3)
H19 H -0.225(4) 0.2216(12) 0.550(4)
H20 H -0.108(4) 0.2089(10) 0.482(4)
loop_
_geom_bond_atom_site_label_1
_geom_bond_atom_site_label_2
_geom_bond_site_symmetry_1
_geom_bond_site_symmetry_2
S1 C5 1_555 1_555
S2 C10 1_555 1_555
O1 H1 1_555 1_555
O2 H2 1_555 1_555
N1 N2 1_555 1_555
N2 C5 1_555 1_555
N3 N4 1_555 1_555
N4 H17 1_555 1_555
N5 N6 1_555 1_555
N6 C10 1_555 1_555
N7 N8 1_555 1_555
N8 H19 1_555 1_555
C1 O1 1_555 1_555
H3 C1 1_555 1_555
H4 C1 1_555 1_555
C2 C1 1_555 1_555
H5 C2 1_555 1_555
H6 C2 1_555 1_555
C3 C2 1_555 1_555
H7 C3 1_555 1_555
H8 C3 1_555 1_555
C4 N1 1_555 1_555
C5 N3 1_555 1_555
C6 O2 1_555 1_555
H9 C6 1_555 1_555
H10 C6 1_555 1_555
C7 C6 1_555 1_555
H11 C7 1_555 1_555
H12 C7 1_555 1_555
C8 C7 1_555 1_555
H13 C8 1_555 1_555
H14 C8 1_555 1_555
C9 N5 1_555 1_555
C10 N7 1_555 1_555
H15 N6 1_555 1_555
H16 N2 1_555 1_555
H18 N4 1_555 1_555
H20 N8 1_555 1_555
N3 C4 1_555 1_555
N7 C9 1_555 1_555
C3 C4 1_555 1_555
C8 C9 1_555 1_555

#END
