
#######################################################################
#
#                 Cambridge Crystallographic Data Centre
#                                CCDC 
#
#######################################################################
#
# If this CIF has been generated from an entry in the Cambridge 
# Structural Database, then it will include bibliographic, chemical, 
# crystal, experimental, refinement or atomic coordinate data resulting 
# from the CCDC's data processing and validation procedures.
#
#######################################################################

data_PEZFIK
_chemical_formula_moiety         'C24 H24 O4'
_chemical_name_systematic        
6,6'-Dimethyl-3,3'-diethyl-3,3'-dihydroxy-2,2'-(bi-1H-indene)-1,1'-dione
_symmetry_cell_setting           monoclinic
_symmetry_space_group_name_H-M   'P 21/n'
_symmetry_Int_Tables_number      14
_space_group_name_Hall           '-P 2yn'
loop_
_symmetry_equiv_pos_site_id
_symmetry_equiv_pos_as_xyz
1 x,y,z
2 1/2-x,1/2+y,1/2-z
3 -x,-y,-z
4 1/2+x,1/2-y,1/2+z
_cell_length_a                   9.577(5)
_cell_length_b                   7.548(4)
_cell_length_c                   14.708(8)
_cell_angle_alpha                90
_cell_angle_beta                 107.290(9)
_cell_angle_gamma                90
_cell_volume                     1015.16
_exptl_crystal_colour            yellow
_chemical_melting_point          203-205deg.C
_cell_formula_units_Z            2
_exptl_crystal_recrystallization_method ethanol/acetone
loop_
_atom_site_label
_atom_site_type_symbol
_atom_site_fract_x
_atom_site_fract_y
_atom_site_fract_z
O1 O 0.6168(6) 0.1874(7) 0.0698(4)
O2 O 0.2437(6) 0.6080(7) 0.0264(4)
H1 H 0.2229 0.6874 -0.0135
C1 C 0.2525(8) 0.2995(11) 0.0398(6)
C2 C 0.1226(10) 0.2553(13) 0.0542(8)
H2 H 0.0384 0.3209 0.0268
C3 C 0.1201(13) 0.1032(17) 0.1133(9)
H3 H 0.0357 0.0779 0.1298
C4 C 0.2343(13) 0.0007(12) 0.1440(8)
C5 C 0.1986(16) -0.143(2) 0.1941(10)
H4 H 0.1059 -0.1217 0.2048
H5 H 0.2726 -0.1565 0.2542
H6 H 0.1929 -0.2498 0.1575
C6 C 0.3618(11) 0.0414(12) 0.1308(6)
H7 H 0.4438 -0.0291 0.1562
C7 C 0.3699(9) 0.1933(11) 0.0777(6)
C8 C 0.5009(8) 0.2604(10) 0.0559(5)
C9 C 0.4548(6) 0.4409(9) 0.0071(5)
C10 C 0.2880(7) 0.4520(10) -0.0150(6)
C11 C 0.2056(8) 0.4360(11) -0.1206(6)
H8 H 0.1021 0.4239 -0.1276
H9 H 0.2187 0.5447 -0.1522
C12 C 0.2521(10) 0.2845(15) -0.1693(7)
H10 H 0.3565 0.2863 -0.1559
H11 H 0.2069 0.2941 -0.2368
H12 H 0.2229 0.1754 -0.1468
O1B O 0.3832(6) 0.8126(7) -0.0698(4)
O2B O 0.7563(6) 0.3920(7) -0.0264(4)
H1B H 0.7771 0.3126 0.0135
C1B C 0.7475(8) 0.7005(11) -0.0398(6)
C2B C 0.8774(10) 0.7447(13) -0.0542(8)
H2B H 0.9616 0.6791 -0.0268
C3B C 0.8799(13) 0.8968(17) -0.1133(9)
H3B H 0.9643 0.9221 -0.1298
C4B C 0.7657(13) 0.9993(12) -0.1440(8)
C5B C 0.8014(16) 1.143(2) -0.1941(10)
H4B H 0.8941 1.1217 -0.2048
H5B H 0.7274 1.1565 -0.2542
H6B H 0.8071 1.2498 -0.1575
C6B C 0.6382(11) 0.9586(12) -0.1308(6)
H7B H 0.5562 1.0291 -0.1562
C7B C 0.6301(9) 0.8067(11) -0.0777(6)
C8B C 0.4991(8) 0.7396(10) -0.0559(5)
C9B C 0.5452(6) 0.5591(9) -0.0071(5)
C10B C 0.7120(7) 0.5480(10) 0.0150(6)
C11B C 0.7944(8) 0.5640(11) 0.1206(6)
H8B H 0.8979 0.5761 0.1276
H9B H 0.7813 0.4553 0.1522
C12B C 0.7479(10) 0.7155(15) 0.1693(7)
H10B H 0.6435 0.7137 0.1559
H11B H 0.7931 0.7059 0.2368
H12B H 0.7771 0.8246 0.1468
loop_
_geom_bond_atom_site_label_1
_geom_bond_atom_site_label_2
_geom_bond_site_symmetry_1
_geom_bond_site_symmetry_2
O1 C8 1_555 1_555
O2 H1 1_555 1_555
C1 C2 1_555 1_555
C2 H2 1_555 1_555
C3 C2 1_555 1_555
H3 C3 1_555 1_555
C4 C3 1_555 1_555
C5 C4 1_555 1_555
H4 C5 1_555 1_555
H5 C5 1_555 1_555
H6 C5 1_555 1_555
C6 C4 1_555 1_555
H7 C6 1_555 1_555
C7 C1 1_555 1_555
C8 C7 1_555 1_555
C9 C8 1_555 1_555
C10 O2 1_555 1_555
C11 C10 1_555 1_555
H8 C11 1_555 1_555
H9 C11 1_555 1_555
C12 C11 1_555 1_555
H10 C12 1_555 1_555
H11 C12 1_555 1_555
H12 C12 1_555 1_555
O1B C8B 1_555 1_555
O2B H1B 1_555 1_555
C1B C2B 1_555 1_555
C2B H2B 1_555 1_555
C3B C2B 1_555 1_555
H3B C3B 1_555 1_555
C4B C3B 1_555 1_555
C5B C4B 1_555 1_555
H4B C5B 1_555 1_555
H5B C5B 1_555 1_555
H6B C5B 1_555 1_555
C6B C4B 1_555 1_555
H7B C6B 1_555 1_555
C7B C1B 1_555 1_555
C8B C7B 1_555 1_555
C9B C9 1_555 1_555
C10B O2B 1_555 1_555
C11B C10B 1_555 1_555
H8B C11B 1_555 1_555
H9B C11B 1_555 1_555
C12B C11B 1_555 1_555
H10B C12B 1_555 1_555
H11B C12B 1_555 1_555
H12B C12B 1_555 1_555
C1 C10 1_555 1_555
C6 C7 1_555 1_555
C9 C10 1_555 1_555
C1B C10B 1_555 1_555
C6B C7B 1_555 1_555
C8B C9B 1_555 1_555
C9B C10B 1_555 1_555

#END
