
#######################################################################
#
#                 Cambridge Crystallographic Data Centre
#                                CCDC 
#
#######################################################################
#
# If this CIF has been generated from an entry in the Cambridge 
# Structural Database, then it will include bibliographic, chemical, 
# crystal, experimental, refinement or atomic coordinate data resulting 
# from the CCDC's data processing and validation procedures.
#
#######################################################################

data_PEZFOS
_chemical_formula_moiety         'C11 H13 N1 O1'
_chemical_name_systematic        4-methyl-5-phenylpyrrolidin-2-one
_symmetry_cell_setting           orthorhombic
_symmetry_space_group_name_H-M   'P b c a'
_symmetry_Int_Tables_number      61
_space_group_name_Hall           '-P 2ac 2ab'
loop_
_symmetry_equiv_pos_site_id
_symmetry_equiv_pos_as_xyz
1 x,y,z
2 1/2-x,-y,1/2+z
3 -x,1/2+y,1/2-z
4 1/2+x,1/2-y,-z
5 -x,-y,-z
6 1/2+x,y,1/2-z
7 x,1/2-y,1/2+z
8 1/2-x,1/2+y,z
_cell_length_a                   8.7611(5)
_cell_length_b                   8.0839(4)
_cell_length_c                   26.8826(14)
_cell_angle_alpha                90
_cell_angle_beta                 90
_cell_angle_gamma                90
_cell_volume                     1903.93
_exptl_crystal_colour            colorless
_exptl_crystal_description       Block
_cell_formula_units_Z            8
loop_
_atom_site_label
_atom_site_type_symbol
_atom_site_fract_x
_atom_site_fract_y
_atom_site_fract_z
O1 O 0.36005(9) 0.65930(9) 0.47953(3)
N1 N 0.50660(9) 0.64938(10) 0.55009(3)
H1 H 0.5455 0.5505 0.5449
C1 C 0.56407(9) 0.65492(11) 0.64021(3)
C2 C 0.40333(10) 0.71749(11) 0.51963(3)
C3 C 0.54955(9) 0.75186(11) 0.59251(3)
H2 H 0.6480 0.8096 0.5853
C4 C 0.46583(11) 0.52390(13) 0.65076(4)
H3 H 0.3936 0.4893 0.6265
C5 C 0.67175(11) 0.70155(12) 0.67562(4)
H4 H 0.7409 0.7891 0.6687
C6 C 0.41742(10) 0.88086(11) 0.59477(3)
H5 H 0.3386 0.8389 0.6185
C7 C 0.34854(12) 0.87804(12) 0.54241(4)
H6 H 0.2357 0.8809 0.5440
H7 H 0.3845 0.9739 0.5227
C8 C 0.47259(13) 0.44329(15) 0.69645(4)
H8 H 0.4048 0.3545 0.7034
C9 C 0.57849(15) 0.49272(15) 0.73193(4)
H9 H 0.5822 0.4392 0.7634
C10 C 0.67837(14) 0.62002(15) 0.72131(4)
H10 H 0.7522 0.6523 0.7453
C11 C 0.46951(14) 1.05009(13) 0.61264(4)
H11 H 0.5424 1.0965 0.5888
H12 H 0.5187 1.0392 0.6452
H13 H 0.3810 1.1237 0.6155
loop_
_geom_bond_atom_site_label_1
_geom_bond_atom_site_label_2
_geom_bond_site_symmetry_1
_geom_bond_site_symmetry_2
O1 C2 1_555 1_555
N1 H1 1_555 1_555
C1 C3 1_555 1_555
C2 N1 1_555 1_555
C3 N1 1_555 1_555
H2 C3 1_555 1_555
C4 C1 1_555 1_555
H3 C4 1_555 1_555
C5 C1 1_555 1_555
H4 C5 1_555 1_555
C6 C3 1_555 1_555
H5 C6 1_555 1_555
C7 C2 1_555 1_555
H6 C7 1_555 1_555
H7 C7 1_555 1_555
C8 C4 1_555 1_555
H8 C8 1_555 1_555
C9 C8 1_555 1_555
H9 C9 1_555 1_555
C10 C5 1_555 1_555
H10 C10 1_555 1_555
C11 C6 1_555 1_555
H11 C11 1_555 1_555
H12 C11 1_555 1_555
H13 C11 1_555 1_555
C6 C7 1_555 1_555
C9 C10 1_555 1_555

#END
