
#######################################################################
#
#                 Cambridge Crystallographic Data Centre
#                                CCDC 
#
#######################################################################
#
# If this CIF has been generated from an entry in the Cambridge 
# Structural Database, then it will include bibliographic, chemical, 
# crystal, experimental, refinement or atomic coordinate data resulting 
# from the CCDC's data processing and validation procedures.
#
#######################################################################

data_PEZFIM
_chemical_formula_moiety         'C11 H11 N1 O1'
_chemical_name_systematic        
3,3a,4,8b-tetrahydroindeno[1,2-b]pyrrol-2(1H)-one
_symmetry_cell_setting           orthorhombic
_symmetry_space_group_name_H-M   'P 21 21 21'
_symmetry_Int_Tables_number      19
_space_group_name_Hall           'P 2ac 2ab'
loop_
_symmetry_equiv_pos_site_id
_symmetry_equiv_pos_as_xyz
1 x,y,z
2 1/2-x,-y,1/2+z
3 -x,1/2+y,1/2-z
4 1/2+x,1/2-y,-z
_cell_length_a                   5.4158(2)
_cell_length_b                   5.9535(3)
_cell_length_c                   26.9147(12)
_cell_angle_alpha                90
_cell_angle_beta                 90
_cell_angle_gamma                90
_cell_volume                     867.81
_exptl_crystal_colour            colorless
_exptl_crystal_description       block
_cell_formula_units_Z            4
loop_
_atom_site_label
_atom_site_type_symbol
_atom_site_fract_x
_atom_site_fract_y
_atom_site_fract_z
C1 C 0.8020(2) 0.04795(19) 0.71303(4)
C2 C 1.0423(2) 0.0287(2) 0.68452(4)
H1 H 1.0458 -0.1110 0.6646
H2 H 1.1851 0.0286 0.7075
C3 C 1.0482(2) 0.2354(2) 0.65080(4)
H3 H 1.2152 0.3070 0.6516
C4 C 0.8510(2) 0.39748(19) 0.67280(4)
H4 H 0.9289 0.5216 0.6923
C5 C 0.7126(2) 0.48605(19) 0.62826(4)
C6 C 0.5386(3) 0.6572(2) 0.62644(5)
H5 H 0.4942 0.7370 0.6557
C7 C 0.4301(3) 0.7096(2) 0.58077(6)
H6 H 0.3097 0.8254 0.5790
C8 C 0.4968(3) 0.5938(3) 0.53786(6)
H7 H 0.4223 0.6316 0.5070
C9 C 0.6719(3) 0.4231(3) 0.53992(5)
H8 H 0.7176 0.3441 0.5107
C10 C 0.7794(3) 0.3697(2) 0.58545(4)
C11 C 0.9679(3) 0.1909(2) 0.59642(5)
H9 H 1.1105 0.2032 0.5736
H10 H 0.8945 0.0393 0.5930
N1 N 0.7020(2) 0.25029(18) 0.70446(4)
H11 H 0.5586 0.2913 0.7168
O1 O 0.71495(19) -0.09997(17) 0.74025(3)
loop_
_geom_bond_atom_site_label_1
_geom_bond_atom_site_label_2
_geom_bond_site_symmetry_1
_geom_bond_site_symmetry_2
C1 C2 1_555 1_555
C2 H1 1_555 1_555
H2 C2 1_555 1_555
C3 C2 1_555 1_555
H3 C3 1_555 1_555
C4 C3 1_555 1_555
H4 C4 1_555 1_555
C5 C4 1_555 1_555
C6 C5 1_555 1_555
H5 C6 1_555 1_555
C7 C6 1_555 1_555
H6 C7 1_555 1_555
C8 C7 1_555 1_555
H7 C8 1_555 1_555
C9 C8 1_555 1_555
H8 C9 1_555 1_555
C10 C5 1_555 1_555
C11 C3 1_555 1_555
H9 C11 1_555 1_555
H10 C11 1_555 1_555
N1 C1 1_555 1_555
H11 N1 1_555 1_555
O1 C1 1_555 1_555
C4 N1 1_555 1_555
C9 C10 1_555 1_555
C10 C11 1_555 1_555

#END
