
#######################################################################
#
#                 Cambridge Crystallographic Data Centre
#                                CCDC 
#
#######################################################################
#
# If this CIF has been generated from an entry in the Cambridge 
# Structural Database, then it will include bibliographic, chemical, 
# crystal, experimental, refinement or atomic coordinate data resulting 
# from the CCDC's data processing and validation procedures.
#
#######################################################################

data_PEZFEI
_chemical_formula_moiety         'C15 H19 N1 O2'
_chemical_name_systematic        
3,5a,9-trimethyl-3a,5,5a,9b-tetrahydro-1H-benzo[g]indole-2,8(3H,4H)-dione
_symmetry_cell_setting           orthorhombic
_symmetry_space_group_name_H-M   'P 21 21 21'
_symmetry_Int_Tables_number      19
_space_group_name_Hall           'P 2ac 2ab'
loop_
_symmetry_equiv_pos_site_id
_symmetry_equiv_pos_as_xyz
1 x,y,z
2 1/2-x,-y,1/2+z
3 -x,1/2+y,1/2-z
4 1/2+x,1/2-y,-z
_cell_length_a                   7.9515(5)
_cell_length_b                   10.9100(6)
_cell_length_c                   14.7791(9)
_cell_angle_alpha                90
_cell_angle_beta                 90
_cell_angle_gamma                90
_cell_volume                     1282.1
_exptl_crystal_colour            colourless
_exptl_crystal_description       block
_cell_formula_units_Z            4
loop_
_atom_site_label
_atom_site_type_symbol
_atom_site_fract_x
_atom_site_fract_y
_atom_site_fract_z
C1 C 0.50559(15) 0.32610(11) 0.50352(12)
C2 C 0.64039(15) 0.42276(11) 0.48906(12)
H1 H 0.750542 0.394158 0.513970
C3 C 0.6554(2) 0.44859(16) 0.38767(13)
H2 H 0.681538 0.372274 0.355637
H3 H 0.745538 0.508226 0.377259
H4 H 0.548850 0.481811 0.365148
C4 C 0.57406(14) 0.53193(11) 0.54374(9)
H5 H 0.609520 0.610590 0.514714
C5 C 0.38095(14) 0.51590(10) 0.53578(8)
H6 H 0.345232 0.548781 0.475615
C6 C 0.27782(14) 0.58019(10) 0.60835(7)
C7 C 0.13129(15) 0.63485(10) 0.58544(7)
C8 C 0.05021(15) 0.62232(12) 0.49375(8)
H7 H 0.120576 0.662624 0.448159
H8 H -0.061060 0.660924 0.494782
H9 H 0.038381 0.535273 0.478681
C9 C 0.04245(17) 0.71516(11) 0.65119(9)
C10 C 0.1210(2) 0.73478(14) 0.73968(9)
H10 H 0.072492 0.791530 0.780850
C11 C 0.2594(2) 0.67412(15) 0.76309(9)
H11 H 0.305621 0.689304 0.821296
C12 C 0.34711(18) 0.58326(12) 0.70332(8)
C13 C 0.3200(3) 0.45599(15) 0.74784(11)
H12 H 0.199340 0.438526 0.751506
H13 H 0.368333 0.456239 0.808843
H14 H 0.375359 0.392822 0.711275
C14 C 0.5367(2) 0.61513(14) 0.70135(10)
H15 H 0.551190 0.699823 0.678616
H16 H 0.582114 0.611753 0.763666
C15 C 0.63498(18) 0.52760(13) 0.64162(11)
H17 H 0.622672 0.443123 0.665155
H18 H 0.755784 0.549381 0.643731
N1 N 0.36407(13) 0.38122(9) 0.53319(8)
H19 H 0.272413 0.341517 0.549144
O1 O 0.52219(13) 0.21526(9) 0.48854(11)
O2 O -0.09080(15) 0.76614(11) 0.63148(9)
loop_
_geom_bond_atom_site_label_1
_geom_bond_atom_site_label_2
_geom_bond_site_symmetry_1
_geom_bond_site_symmetry_2
C1 C2 1_555 1_555
C2 H1 1_555 1_555
C3 C2 1_555 1_555
H2 C3 1_555 1_555
H3 C3 1_555 1_555
H4 C3 1_555 1_555
C4 C2 1_555 1_555
H5 C4 1_555 1_555
C5 C4 1_555 1_555
H6 C5 1_555 1_555
C6 C5 1_555 1_555
C7 C6 1_555 1_555
C8 C7 1_555 1_555
H7 C8 1_555 1_555
H8 C8 1_555 1_555
H9 C8 1_555 1_555
C9 C7 1_555 1_555
C10 C9 1_555 1_555
H10 C10 1_555 1_555
C11 C10 1_555 1_555
H11 C11 1_555 1_555
C12 C6 1_555 1_555
C13 C12 1_555 1_555
H12 C13 1_555 1_555
H13 C13 1_555 1_555
H14 C13 1_555 1_555
C14 C12 1_555 1_555
H15 C14 1_555 1_555
H16 C14 1_555 1_555
C15 C4 1_555 1_555
H17 C15 1_555 1_555
H18 C15 1_555 1_555
N1 C1 1_555 1_555
H19 N1 1_555 1_555
O1 C1 1_555 1_555
O2 C9 1_555 1_555
C5 N1 1_555 1_555
C11 C12 1_555 1_555
C14 C15 1_555 1_555

#END
