
#######################################################################
#
#                 Cambridge Crystallographic Data Centre
#                                CCDC 
#
#######################################################################
#
# If this CIF has been generated from an entry in the Cambridge 
# Structural Database, then it will include bibliographic, chemical, 
# crystal, experimental, refinement or atomic coordinate data resulting 
# from the CCDC's data processing and validation procedures.
#
#######################################################################

data_PEZFEG
_chemical_formula_moiety         'C24 H24 O4'
_chemical_name_systematic        
5,5'-Dimethyl-3,3'-dihydroxy-3,3'-diethyl-2,2'-(bi-1H-indene)-1,1'-dione
_symmetry_cell_setting           monoclinic
_symmetry_space_group_name_H-M   'P 21/n'
_symmetry_Int_Tables_number      14
_space_group_name_Hall           '-P 2yn'
loop_
_symmetry_equiv_pos_site_id
_symmetry_equiv_pos_as_xyz
1 x,y,z
2 1/2-x,1/2+y,1/2-z
3 -x,-y,-z
4 1/2+x,1/2-y,1/2+z
_cell_length_a                   8.571(4)
_cell_length_b                   7.472(3)
_cell_length_c                   15.531(6)
_cell_angle_alpha                90
_cell_angle_beta                 100.566(6)
_cell_angle_gamma                90
_cell_volume                     977.779
_chemical_melting_point          269-271deg.C
_cell_formula_units_Z            2
_exptl_crystal_recrystallization_method dichloromethane
loop_
_atom_site_label
_atom_site_type_symbol
_atom_site_fract_x
_atom_site_fract_y
_atom_site_fract_z
O1 O -0.1444(2) 1.1083(2) 0.83730(10)
H1 H -0.2129 1.1349 0.8657
O2 O 0.29994(19) 0.8803(3) 1.02655(11)
C1 C 0.2086(3) 0.8896(3) 0.87162(14)
C2 C 0.3442(3) 0.8555(3) 0.83607(16)
H2 H 0.4426 0.8401 0.8721
C3 C 0.3280(3) 0.8455(3) 0.74653(17)
H3 H 0.4172 0.8232 0.7220
C4 C 0.1809(3) 0.8679(3) 0.69143(16)
C5 C 0.0469(3) 0.8999(3) 0.72821(15)
H4 H -0.0521 0.9132 0.6925
C6 C 0.0623(3) 0.9116(3) 0.81837(14)
C7 C -0.0680(2) 0.9468(3) 0.87095(14)
C8 C 0.0266(2) 0.9684(3) 0.96448(13)
C9 C 0.1946(3) 0.9087(3) 0.96350(15)
C10 C 0.1681(4) 0.8613(4) 0.59369(16)
H5 H 0.2643 0.8132 0.5797
H6 H 0.1514 0.9799 0.5701
H7 H 0.0803 0.7865 0.5688
C11 C -0.1854(3) 0.7906(3) 0.86360(15)
H8 H -0.2642 0.8171 0.8993
H9 H -0.2402 0.7819 0.8033
C12 C -0.1114(3) 0.6115(4) 0.8913(2)
H10 H -0.0411 0.5778 0.8525
H11 H -0.1933 0.5231 0.8888
H12 H -0.0527 0.6197 0.9500
O1B O 0.1444(2) 0.8917(2) 1.16270(10)
H1B H 0.2129 0.8651 1.1343
O2B O -0.29994(19) 1.1197(3) 0.97345(11)
C1B C -0.2086(3) 1.1104(3) 1.12838(14)
C2B C -0.3442(3) 1.1445(3) 1.16393(16)
H2B H -0.4426 1.1599 1.1279
C3B C -0.3280(3) 1.1545(3) 1.25347(17)
H3B H -0.4172 1.1768 1.2780
C4B C -0.1809(3) 1.1321(3) 1.30857(16)
C5B C -0.0469(3) 1.1001(3) 1.27179(15)
H4B H 0.0521 1.0868 1.3075
C6B C -0.0623(3) 1.0884(3) 1.18163(14)
C7B C 0.0680(2) 1.0532(3) 1.12905(14)
C8B C -0.0266(2) 1.0316(3) 1.03552(13)
C9B C -0.1946(3) 1.0913(3) 1.03650(15)
C10B C -0.1681(4) 1.1387(4) 1.40631(16)
H5B H -0.2643 1.1868 1.4203
H6B H -0.1514 1.0201 1.4299
H7B H -0.0803 1.2135 1.4312
C11B C 0.1854(3) 1.2094(3) 1.13640(15)
H8B H 0.2642 1.1829 1.1007
H9B H 0.2402 1.2181 1.1967
C12B C 0.1114(3) 1.3885(4) 1.1087(2)
H10B H 0.0411 1.4222 1.1475
H11B H 0.1933 1.4769 1.1112
H12B H 0.0527 1.3803 1.0500
loop_
_geom_bond_atom_site_label_1
_geom_bond_atom_site_label_2
_geom_bond_site_symmetry_1
_geom_bond_site_symmetry_2
O1 H1 1_555 1_555
O2 C9 1_555 1_555
C1 C2 1_555 1_555
C2 H2 1_555 1_555
C3 C2 1_555 1_555
H3 C3 1_555 1_555
C4 C3 1_555 1_555
C5 C4 1_555 1_555
H4 C5 1_555 1_555
C6 C1 1_555 1_555
C7 O1 1_555 1_555
C8 C7 1_555 1_555
C9 C1 1_555 1_555
C10 C4 1_555 1_555
H5 C10 1_555 1_555
H6 C10 1_555 1_555
H7 C10 1_555 1_555
C11 C7 1_555 1_555
H8 C11 1_555 1_555
H9 C11 1_555 1_555
C12 C11 1_555 1_555
H10 C12 1_555 1_555
H11 C12 1_555 1_555
H12 C12 1_555 1_555
O1B H1B 1_555 1_555
O2B C9B 1_555 1_555
C1B C2B 1_555 1_555
C2B H2B 1_555 1_555
C3B C2B 1_555 1_555
H3B C3B 1_555 1_555
C4B C3B 1_555 1_555
C5B C4B 1_555 1_555
H4B C5B 1_555 1_555
C6B C1B 1_555 1_555
C7B O1B 1_555 1_555
C8B C8 1_555 1_555
C9B C1B 1_555 1_555
C10B C4B 1_555 1_555
H5B C10B 1_555 1_555
H6B C10B 1_555 1_555
H7B C10B 1_555 1_555
C11B C7B 1_555 1_555
H8B C11B 1_555 1_555
H9B C11B 1_555 1_555
C12B C11B 1_555 1_555
H10B C12B 1_555 1_555
H11B C12B 1_555 1_555
H12B C12B 1_555 1_555
C5 C6 1_555 1_555
C6 C7 1_555 1_555
C8 C9 1_555 1_555
C5B C6B 1_555 1_555
C6B C7B 1_555 1_555
C7B C8B 1_555 1_555
C8B C9B 1_555 1_555

#END
