
#######################################################################
#
#                 Cambridge Crystallographic Data Centre
#                                CCDC 
#
#######################################################################
#
# If this CIF has been generated from an entry in the Cambridge 
# Structural Database, then it will include bibliographic, chemical, 
# crystal, experimental, refinement or atomic coordinate data resulting 
# from the CCDC's data processing and validation procedures.
#
#######################################################################

data_PEZFEG01
_chemical_formula_moiety         'C24 H24 O4'
_chemical_name_systematic        
3,3'-Diethyl-3,3'-dihydroxy-5,5'-dimethyl-2,2'-bi-1H-indanylidene-1,1'-dione
_symmetry_cell_setting           monoclinic
_symmetry_space_group_name_H-M   'P 21/n'
_symmetry_Int_Tables_number      14
_space_group_name_Hall           '-P 2yn'
loop_
_symmetry_equiv_pos_site_id
_symmetry_equiv_pos_as_xyz
1 x,y,z
2 1/2-x,1/2+y,1/2-z
3 -x,-y,-z
4 1/2+x,1/2-y,1/2+z
_cell_length_a                   8.584(2)
_cell_length_b                   7.4860(15)
_cell_length_c                   15.554(4)
_cell_angle_alpha                90
_cell_angle_beta                 100.564(8)
_cell_angle_gamma                90
_cell_volume                     982.557
_exptl_crystal_colour            yellow
_exptl_crystal_description       block
_cell_formula_units_Z            2
_exptl_crystal_recrystallization_method dichloromethane
loop_
_atom_site_label
_atom_site_type_symbol
_atom_site_fract_x
_atom_site_fract_y
_atom_site_fract_z
O1 O 0.35525(15) 1.10849(18) 0.83725(8)
H1 H 0.283(2) 1.123(3) 0.8659(13)
O2 O 0.79979(14) 0.8805(2) 1.02654(8)
C1 C 0.43197(18) 0.9471(2) 0.87088(10)
C2 C 0.52671(18) 0.9685(2) 0.96464(10)
C3 C 0.69471(19) 0.9095(2) 0.96328(11)
C4 C 0.70850(19) 0.8898(2) 0.87165(11)
C5 C 0.56168(19) 0.9118(2) 0.81850(10)
C6 C 0.5467(2) 0.8999(2) 0.72829(11)
H2 H 0.4479 0.9131 0.6925
C7 C 0.6806(2) 0.8680(2) 0.69174(12)
C8 C 0.8272(2) 0.8461(3) 0.74658(13)
H3 H 0.9163 0.8241 0.7220
C9 C 0.8434(2) 0.8562(3) 0.83620(12)
H4 H 0.9417 0.8411 0.8721
C10 C 0.3142(2) 0.7905(3) 0.86382(12)
H5 H 0.2360 0.8169 0.8998
H6 H 0.2588 0.7818 0.8037
C11 C 0.3885(3) 0.6116(3) 0.89118(15)
H7 H 0.4598 0.5792 0.8529
H8 H 0.3070 0.5227 0.8879
H9 H 0.4461 0.6192 0.9501
C12 C 0.6677(3) 0.8615(3) 0.59374(13)
H10 H 0.6450 0.9789 0.5699
H11 H 0.5839 0.7814 0.5692
H12 H 0.7659 0.8200 0.5798
O1B O 0.64475(15) 0.89151(18) 1.16275(8)
H1B H 0.717(2) 0.877(3) 1.1341(13)
O2B O 0.20021(14) 1.1195(2) 0.97346(8)
C1B C 0.56803(18) 1.0529(2) 1.12912(10)
C2B C 0.47329(18) 1.0315(2) 1.03536(10)
C3B C 0.30529(19) 1.0905(2) 1.03672(11)
C4B C 0.29150(19) 1.1102(2) 1.12835(11)
C5B C 0.43832(19) 1.0882(2) 1.18150(10)
C6B C 0.4533(2) 1.1001(2) 1.27171(11)
H2B H 0.5521 1.0869 1.3075
C7B C 0.3194(2) 1.1320(2) 1.30826(12)
C8B C 0.1728(2) 1.1539(3) 1.25342(13)
H3B H 0.0837 1.1759 1.2780
C9B C 0.1566(2) 1.1438(3) 1.16380(12)
H4B H 0.0583 1.1589 1.1279
C10B C 0.6858(2) 1.2095(3) 1.13618(12)
H5B H 0.7640 1.1831 1.1002
H6B H 0.7412 1.2182 1.1963
C11B C 0.6115(3) 1.3884(3) 1.10882(15)
H7B H 0.5402 1.4208 1.1471
H8B H 0.6930 1.4773 1.1121
H9B H 0.5539 1.3808 1.0499
C12B C 0.3323(3) 1.1385(3) 1.40626(13)
H10B H 0.3550 1.0211 1.4301
H11B H 0.4161 1.2186 1.4308
H12B H 0.2341 1.1800 1.4202
loop_
_geom_bond_atom_site_label_1
_geom_bond_atom_site_label_2
_geom_bond_site_symmetry_1
_geom_bond_site_symmetry_2
O1 H1 1_555 1_555
O2 C3 1_555 1_555
C1 O1 1_555 1_555
C2 C1 1_555 1_555
C3 C2 1_555 1_555
C4 C3 1_555 1_555
C5 C1 1_555 1_555
C6 C5 1_555 1_555
H2 C6 1_555 1_555
C7 C6 1_555 1_555
C8 C7 1_555 1_555
H3 C8 1_555 1_555
C9 C4 1_555 1_555
H4 C9 1_555 1_555
C10 C1 1_555 1_555
H5 C10 1_555 1_555
H6 C10 1_555 1_555
C11 C10 1_555 1_555
H7 C11 1_555 1_555
H8 C11 1_555 1_555
H9 C11 1_555 1_555
C12 C7 1_555 1_555
H10 C12 1_555 1_555
H11 C12 1_555 1_555
H12 C12 1_555 1_555
O1B H1B 1_555 1_555
O2B C3B 1_555 1_555
C1B O1B 1_555 1_555
C2B C2 1_555 1_555
C3B C2B 1_555 1_555
C4B C3B 1_555 1_555
C5B C1B 1_555 1_555
C6B C5B 1_555 1_555
H2B C6B 1_555 1_555
C7B C6B 1_555 1_555
C8B C7B 1_555 1_555
H3B C8B 1_555 1_555
C9B C4B 1_555 1_555
H4B C9B 1_555 1_555
C10B C1B 1_555 1_555
H5B C10B 1_555 1_555
H6B C10B 1_555 1_555
C11B C10B 1_555 1_555
H7B C11B 1_555 1_555
H8B C11B 1_555 1_555
H9B C11B 1_555 1_555
C12B C7B 1_555 1_555
H10B C12B 1_555 1_555
H11B C12B 1_555 1_555
H12B C12B 1_555 1_555
C4 C5 1_555 1_555
C8 C9 1_555 1_555
C1B C2B 1_555 1_555
C4B C5B 1_555 1_555
C8B C9B 1_555 1_555

#END
