
#######################################################################
#
#                 Cambridge Crystallographic Data Centre
#                                CCDC 
#
#######################################################################
#
# If this CIF has been generated from an entry in the Cambridge 
# Structural Database, then it will include bibliographic, chemical, 
# crystal, experimental, refinement or atomic coordinate data resulting 
# from the CCDC's data processing and validation procedures.
#
#######################################################################

data_PEZHUX
_chemical_formula_moiety         'C15 H27 N1 O5'
_chemical_name_systematic        
'4-Amino-8-O-(t-butyl)-2,3,4-trideoxy-6,7-O-isopropylidene-L-galacto-octonic acid-1,4-lactam'
_symmetry_cell_setting           orthorhombic
_symmetry_space_group_name_H-M   'P 21 21 21'
_symmetry_Int_Tables_number      19
_space_group_name_Hall           'P 2ac 2ab'
loop_
_symmetry_equiv_pos_site_id
_symmetry_equiv_pos_as_xyz
1 x,y,z
2 1/2+x,1/2-y,-z
3 -x,1/2+y,1/2-z
4 1/2-x,-y,1/2+z
_cell_length_a                   16.663(5)
_cell_length_b                   10.488(4)
_cell_length_c                   9.869(3)
_cell_angle_alpha                90
_cell_angle_beta                 90
_cell_angle_gamma                90
_cell_volume                     1724.72
_chemical_melting_point          '170-171 deg.C'
_cell_formula_units_Z            4
loop_
_atom_site_label
_atom_site_type_symbol
_atom_site_fract_x
_atom_site_fract_y
_atom_site_fract_z
N1 N 0.41611(31) -0.22504(49) 0.44834(46)
O1 O 0.46008(37) -0.40642(48) 0.33943(52)
O2 O 0.53120(22) -0.02869(45) 0.40269(43)
O3 O 0.39654(25) 0.04230(45) 0.67571(44)
O4 O 0.49330(29) 0.15638(51) 0.78520(49)
O5 O 0.65558(28) 0.18590(47) 0.71681(63)
C1 C 0.43530(37) -0.29490(61) 0.33931(58)
C2 C 0.42162(47) -0.21120(74) 0.21504(63)
C3 C 0.37699(37) -0.09588(65) 0.26730(70)
C4 C 0.39247(33) -0.09449(61) 0.42088(59)
C5 C 0.45666(32) -0.00002(53) 0.46266(57)
C6 C 0.47061(32) 0.00800(52) 0.61514(54)
C7 C 0.52770(34) 0.11526(53) 0.66045(59)
C8 C 0.41510(47) 0.10566(81) 0.80105(69)
C9 C 0.35961(61) 0.2096(12) 0.8268(14)
C10 C 0.41728(85) 0.0041(11) 0.91109(97)
C11 C 0.61205(40) 0.07614(65) 0.67867(85)
C12 C 0.74077(39) 0.17442(77) 0.72456(90)
C13 C 0.77297(58) 0.2941(12) 0.7814(21)
C14 C 0.76364(80) 0.0745(18) 0.8032(24)
C15 C 0.77043(85) 0.1716(23) 0.5825(17)
H1 H 0.4266(30) -0.2490(59) 0.5433(57)
H2 H 0.4001(33) -0.2541(58) 0.1388(58)
H3 H 0.4916(33) -0.1911(60) 0.1794(61)
H4 H 0.3198(34) -0.0924(64) 0.2319(59)
H5 H 0.3915(35) -0.0290(54) 0.2339(60)
H6 H 0.3403(33) -0.0579(63) 0.4717(62)
H7 H 0.4433(32) 0.0819(57) 0.4506(59)
H8 H 0.5306(33) 0.0024(54) 0.3513(66)
H9 H 0.4884(33) -0.0765(57) 0.6482(63)
H10 H 0.5363(33) 0.1911(58) 0.5930(62)
H11 H 0.6155(34) 0.0279(55) 0.7419(64)
H12 H 0.6363(32) 0.0235(53) 0.5976(67)
H13 H 0.8365(34) 0.2907(60) 0.7897(61)
H14 H 0.7504(34) 0.3034(54) 0.8805(63)
H15 H 0.7551(33) 0.3666(51) 0.7211(62)
H16 H 0.8262(34) 0.0641(60) 0.8095(62)
H17 H 0.7399(35) -0.0210(53) 0.7625(59)
H18 H 0.7439(33) 0.0780(58) 0.8947(63)
H19 H 0.8295(33) 0.1681(55) 0.5809(62)
H20 H 0.7493(34) 0.2398(56) 0.5370(59)
H21 H 0.7464(33) 0.0760(59) 0.5443(63)
H22 H 0.4034(35) -0.0293(56) 1.0081(60)
H23 H 0.4855(33) 0.0050(54) 0.9293(63)
H24 H 0.4142(34) -0.0735(58) 0.8437(63)
H25 H 0.3336(31) 0.1722(54) 0.9064(62)
H26 H 0.3152(35) 0.2200(58) 0.7355(59)
H27 H 0.3905(33) 0.3139(55) 0.8421(63)
loop_
_geom_bond_atom_site_label_1
_geom_bond_atom_site_label_2
_geom_bond_site_symmetry_1
_geom_bond_site_symmetry_2
N1 C1 1_555 1_555
O1 C1 1_555 1_555
O2 C5 1_555 1_555
O3 C6 1_555 1_555
O4 C7 1_555 1_555
O5 C11 1_555 1_555
C1 C2 1_555 1_555
C2 C3 1_555 1_555
C3 C4 1_555 1_555
C4 N1 1_555 1_555
C5 C4 1_555 1_555
C6 C5 1_555 1_555
C7 C6 1_555 1_555
C8 O3 1_555 1_555
C9 C8 1_555 1_555
C10 C8 1_555 1_555
C11 C7 1_555 1_555
C12 O5 1_555 1_555
C13 C12 1_555 1_555
C14 C12 1_555 1_555
C15 C12 1_555 1_555
H1 N1 1_555 1_555
H2 C2 1_555 1_555
H3 C2 1_555 1_555
H4 C3 1_555 1_555
H5 C3 1_555 1_555
H6 C4 1_555 1_555
H7 C5 1_555 1_555
H8 O2 1_555 1_555
H9 C6 1_555 1_555
H10 C7 1_555 1_555
H11 C11 1_555 1_555
H12 C11 1_555 1_555
H13 C13 1_555 1_555
H14 C13 1_555 1_555
H15 C13 1_555 1_555
H16 C14 1_555 1_555
H17 C14 1_555 1_555
H18 C14 1_555 1_555
H19 C15 1_555 1_555
H20 C15 1_555 1_555
H21 C15 1_555 1_555
H22 C10 1_555 1_555
H23 C10 1_555 1_555
H24 C10 1_555 1_555
H25 C9 1_555 1_555
H26 C9 1_555 1_555
H27 C9 1_555 1_555
O4 C8 1_555 1_555

#END
