
#######################################################################
#
#                 Cambridge Crystallographic Data Centre
#                                CCDC 
#
#######################################################################
#
# If this CIF has been generated from an entry in the Cambridge 
# Structural Database, then it will include bibliographic, chemical, 
# crystal, experimental, refinement or atomic coordinate data resulting 
# from the CCDC's data processing and validation procedures.
#
#######################################################################

data_PEZHIO
_chemical_formula_moiety         'C30 H36 N4 O6'
_chemical_name_systematic        
'methyl 12-(2-amino-2-oxoethyl)-3-benzyl-1,4,15-trioxo-2,3,4,5,6,7,12,13,14,15,17,18,19,19a-tetradecahydro-1H-8,11-ethenopyrrolo[1,2-a][1,4,7]triazacycloheptadecine-6-carboxylate unknown solvate'
_symmetry_cell_setting           orthorhombic
_symmetry_space_group_name_H-M   'P 21 21 21'
_symmetry_Int_Tables_number      19
_space_group_name_Hall           'P 2ac 2ab'
loop_
_symmetry_equiv_pos_site_id
_symmetry_equiv_pos_as_xyz
1 x,y,z
2 1/2-x,-y,1/2+z
3 1/2+x,1/2-y,-z
4 -x,1/2+y,1/2-z
_cell_length_a                   9.2253(7)
_cell_length_b                   14.8660(9)
_cell_length_c                   23.6066(14)
_cell_angle_alpha                90
_cell_angle_beta                 90
_cell_angle_gamma                90
_cell_volume                     3237.49
_exptl_crystal_colour            'light colorless'
_exptl_crystal_description       block
_cell_formula_units_Z            4
loop_
_atom_site_label
_atom_site_type_symbol
_atom_site_fract_x
_atom_site_fract_y
_atom_site_fract_z
O1 O -0.5687(3) -0.9144(2) -0.23847(12)
O2 O -1.1060(3) -0.9833(2) -0.33580(14)
N1 N -0.3353(4) -0.9597(2) -0.24552(15)
H1 H -0.2603 -0.9672 -0.2681
C1 C -0.4647(4) -0.9365(3) -0.26800(17)
N2 N -0.6151(4) -0.9656(3) -0.35120(15)
H2 H -0.6888 -0.9283 -0.3481
O3 O -1.2024(4) -1.3014(3) -0.15327(15)
C2 C -0.4703(5) -0.9374(3) -0.33280(17)
H3 H -0.3968 -0.9810 -0.3475
C3 C -1.1190(5) -1.3013(3) -0.19337(18)
C4 C -0.4368(5) -0.8447(3) -0.35554(18)
H4 H -0.5120 -0.8021 -0.3423
H5 H -0.3424 -0.8245 -0.3403
C5 C -0.4312(5) -0.8429(3) -0.41924(18)
C6 C -0.3174(4) -0.9726(3) -0.18458(17)
H6 H -0.3987 -0.9403 -0.1653
C7 C -0.9914(5) -1.0193(3) -0.3368(2)
O4 O -0.1020(4) -0.8823(3) -0.19010(16)
C8 C -0.3303(5) -1.0737(3) -0.16897(19)
H7 H -0.2607 -1.1089 -0.1920
H8 H -0.3050 -1.0820 -0.1286
C9 C -0.1770(5) -0.9309(3) -0.1641(2)
C10 C -0.3241(6) -0.8917(4) -0.4472(2)
H9 H -0.2590 -0.9282 -0.4262
C11 C -0.9816(5) -1.1398(4) -0.2621(2)
H10 H -1.0334 -1.1926 -0.2777
H11 H -1.0589 -1.0962 -0.2523
C12 C -0.4118(7) -0.8389(4) -0.5376(2)
H12 H -0.4043 -0.8374 -0.5778
O5 O -0.5402(7) -1.1034(4) -0.3836(3)
O6 O -0.1615(8) -0.9501(5) -0.1100(3)
C13 C -0.5293(8) -0.7938(3) -0.4502(2)
H13 H -0.6025 -0.7601 -0.4314
C14 C -0.5213(8) -0.7935(4) -0.5105(2)
H14 H -0.5918 -0.7617 -0.5320
C15 C -0.9646(6) -1.2628(4) -0.1866(2)
H15 H -0.9380 -1.2695 -0.1462
H16 H -0.8988 -1.3026 -0.2083
C16 C -0.3121(7) -0.8872(5) -0.5056(3)
H17 H -0.2346 -0.9175 -0.5240
C17 C -0.6356(5) -1.0497(4) -0.3731(3)
C18 C -0.7634(2) -1.16101(15) -0.20213(11)
C19 C -0.6534(3) -1.1801(2) -0.24055(11)
H18 H -0.6750 -1.2113 -0.2747
C20 C -0.5119(3) -1.1537(2) -0.22907(13)
H19 H -0.4368 -1.1668 -0.2553
C21 C -0.4804(3) -1.1081(2) -0.17917(14)
C22 C -0.5903(3) -1.0890(2) -0.14074(13)
H20 H -0.5687 -1.0578 -0.1066
C23 C -0.7318(3) -1.1154(2) -0.15222(11)
H21 H -0.8069 -1.1023 -0.1260
C24 C -0.9313(9) -1.1745(6) -0.2020(3)
H22 H -0.9734 -1.1335 -0.1727
N3 N -1.1540(4) -1.3347(3) -0.24261(17)
H23 H -1.2404 -1.3584 -0.2478
H24 H -1.0912 -1.3335 -0.2707
C25 C 0.0051(12) -0.9344(9) -0.0983(6)
H25 H 0.0613 -0.9528 -0.1315
H26 H 0.0350 -0.9701 -0.0654
H27 H 0.0223 -0.8705 -0.0906
C26 C -0.9149(10) -1.0981(6) -0.3145(4)
H28 H -0.8140 -1.0804 -0.3056
H29 H -0.9107 -1.1444 -0.3446
C27 C -0.9557(12) -0.9279(8) -0.4319(4)
H30 H -0.9851 -0.8717 -0.4125
H31 H -1.0424 -0.9525 -0.4511
C28 C -0.7744(8) -1.0376(7) -0.4122(3)
H32 H -0.8068 -1.1010 -0.4185
C29 C -0.7650(12) -0.9967(7) -0.4773(4)
H33 H -0.6625 -0.9894 -0.4890
H34 H -0.8132 -1.0379 -0.5044
N4 N -0.9054(7) -0.9944(5) -0.3880(3)
C30 C -0.8420(12) -0.9051(7) -0.4767(5)
H35 H -0.7770 -0.8558 -0.4645
H36 H -0.8861 -0.8902 -0.5137
H37? H -1.0774 -1.1318 -0.2438
H38? H -1.0007 -1.1694 -0.2988
N5? N -0.8955(7) -1.0244(4) -0.3822(3)
H39? H -0.9594 -1.2312 -0.1498
H40? H -0.8958 -1.3138 -0.1850
C31? C -0.9348(10) -1.0522(6) -0.2758(4)
H41? H -0.8275 -1.0506 -0.2754
H42? H -0.9699 -1.0098 -0.2465
C32? C -0.9525(11) -0.9804(7) -0.4342(3)
H43? H -0.9600 -0.9143 -0.4302
H44? H -1.0468 -1.0056 -0.4463
C33? C -0.7802(7) -1.0924(6) -0.3840(4)
H45? H -0.8000 -1.1493 -0.3627
C34? C -0.7755(12) -1.1017(7) -0.4525(3)
H46? H -0.6757 -1.1134 -0.4661
H47? H -0.8401 -1.1505 -0.4658
C35? C -0.9148(7) -1.1998(6) -0.2315(3)
H48? H -0.8765 -1.2419 -0.2610
C36? C -0.8306(10) -1.0080(7) -0.4722(4)
H49? H -0.7511 -0.9634 -0.4701
H50? H -0.8647 -1.0114 -0.5119
O7? O -0.5437(7) -1.1119(4) -0.3603(3)
O8? O -0.1209(8) -0.9718(5) -0.1208(3)
C37? C -0.0125(14) -0.9170(9) -0.0833(5)
H51? H 0.0805 -0.9117 -0.1031
H52? H 0.0019 -0.9482 -0.0472
H53? H -0.0520 -0.8569 -0.0763
loop_
_geom_bond_atom_site_label_1
_geom_bond_atom_site_label_2
_geom_bond_site_symmetry_1
_geom_bond_site_symmetry_2
O1 C1 1_555 1_555
O2 C7 1_555 1_555
N1 H1 1_555 1_555
C1 N1 1_555 1_555
N2 H2 1_555 1_555
O3 C3 1_555 1_555
C2 C1 1_555 1_555
H3 C2 1_555 1_555
C3 C15 1_555 1_555
C4 C2 1_555 1_555
H4 C4 1_555 1_555
H5 C4 1_555 1_555
C5 C4 1_555 1_555
C6 N1 1_555 1_555
H6 C6 1_555 1_555
C7 C26 1_555 1_555
O4 C9 1_555 1_555
C8 C6 1_555 1_555
H7 C8 1_555 1_555
H8 C8 1_555 1_555
C9 C6 1_555 1_555
C10 C5 1_555 1_555
H9 C10 1_555 1_555
C11 H10 1_555 1_555
H11 C11 1_555 1_555
C12 H12 1_555 1_555
O5 C17 1_555 1_555
O6 C9 1_555 1_555
C13 C5 1_555 1_555
H13 C13 1_555 1_555
C14 C12 1_555 1_555
H14 C14 1_555 1_555
C15 H15 1_555 1_555
H16 C15 1_555 1_555
C16 C10 1_555 1_555
H17 C16 1_555 1_555
C17 N2 1_555 1_555
C18 C19 1_555 1_555
C19 H18 1_555 1_555
C20 C19 1_555 1_555
H19 C20 1_555 1_555
C21 C8 1_555 1_555
C22 C21 1_555 1_555
H20 C22 1_555 1_555
C23 C18 1_555 1_555
H21 C23 1_555 1_555
C24 C11 1_555 1_555
H22 C24 1_555 1_555
N3 C3 1_555 1_555
H23 N3 1_555 1_555
H24 N3 1_555 1_555
C25 O6 1_555 1_555
H25 C25 1_555 1_555
H26 C25 1_555 1_555
H27 C25 1_555 1_555
C26 C11 1_555 1_555
H28 C26 1_555 1_555
H29 C26 1_555 1_555
C27 H30 1_555 1_555
H31 C27 1_555 1_555
C28 C17 1_555 1_555
H32 C28 1_555 1_555
C29 C28 1_555 1_555
H33 C29 1_555 1_555
H34 C29 1_555 1_555
N4 C7 1_555 1_555
C30 C27 1_555 1_555
H35 C30 1_555 1_555
H36 C30 1_555 1_555
N2 C2 1_555 1_555
C12 C16 1_555 1_555
C13 C14 1_555 1_555
C15 C24 1_555 1_555
C18 C24 1_555 1_555
C20 C21 1_555 1_555
C22 C23 1_555 1_555
C27 N4 1_555 1_555
C28 N4 1_555 1_555
C29 C30 1_555 1_555

#END
