
#######################################################################
#
#                 Cambridge Crystallographic Data Centre
#                                CCDC 
#
#######################################################################
#
# If this CIF has been generated from an entry in the Cambridge 
# Structural Database, then it will include bibliographic, chemical, 
# crystal, experimental, refinement or atomic coordinate data resulting 
# from the CCDC's data processing and validation procedures.
#
#######################################################################

data_PEZJEL
_chemical_formula_moiety         'C15 H19 N1 O2 S1'
_chemical_name_systematic        
6-Allyl-2-methyl-4-(phenylsulfonyl)-1,2,3,6-tetrahydropyridine
_symmetry_cell_setting           monoclinic
_symmetry_space_group_name_H-M   'P 21/n'
_symmetry_Int_Tables_number      14
_space_group_name_Hall           '-P 2yn'
loop_
_symmetry_equiv_pos_site_id
_symmetry_equiv_pos_as_xyz
1 x,y,z
2 1/2-x,1/2+y,1/2-z
3 -x,-y,-z
4 1/2+x,1/2-y,1/2+z
_cell_length_a                   12.8303(4)
_cell_length_b                   8.1588(3)
_cell_length_c                   14.1964(5)
_cell_angle_alpha                90
_cell_angle_beta                 105.732(2)
_cell_angle_gamma                90
_cell_volume                     1430.41
_exptl_crystal_colour            colorless
_exptl_crystal_description       prism
_cell_formula_units_Z            4
loop_
_atom_site_label
_atom_site_type_symbol
_atom_site_fract_x
_atom_site_fract_y
_atom_site_fract_z
S1 S 0.81575(6) 0.20871(9) 0.52473(5)
O1 O 0.8025(2) 0.3255(3) 0.59596(16)
O2 O 0.91687(18) 0.2059(3) 0.49858(18)
N1 N 0.5831(3) 0.3126(4) 0.2370(2)
H1 H 0.5821 0.3635 0.1821
C1 C 0.7969(2) 0.0117(4) 0.5681(2)
C2 C 0.8495(3) -0.1211(4) 0.5410(2)
H2 H 0.8947 -0.1071 0.4985
C3 C 0.8351(3) -0.2746(4) 0.5770(2)
H3 H 0.8696 -0.3673 0.5583
C4 C 0.7708(3) -0.2936(4) 0.6398(2)
H4 H 0.7617 -0.3994 0.6645
C5 C 0.7193(3) -0.1593(4) 0.6675(2)
H5 H 0.6756 -0.1733 0.7113
C6 C 0.7316(3) -0.0057(4) 0.6312(2)
H6 H 0.6961 0.0866 0.6491
C7 C 0.7111(2) 0.2336(4) 0.4161(2)
C8 C 0.7096(3) 0.1187(4) 0.3341(2)
H7 H 0.7119 0.0044 0.3580
H8 H 0.7748 0.1372 0.3109
C9 C 0.6100(3) 0.1423(5) 0.2503(2)
H9 H 0.5496 0.0915 0.2722
C10 C 0.6118(4) 0.0546(5) 0.1604(3)
H10 H 0.5445 0.0762 0.1095
H11 H 0.6187 -0.0634 0.1736
H12 H 0.6736 0.0924 0.1380
C11 C 0.5583(3) 0.3960(5) 0.3158(2)
H13 H 0.4882 0.3497 0.3218
C12 C 0.5416(4) 0.5773(5) 0.3015(3)
H14 H 0.6129 0.6284 0.3066
H15 H 0.4961 0.5961 0.2339
C13 C 0.4920(3) 0.6623(5) 0.3682(3)
H16 H 0.4191 0.6332 0.3636
C14 C 0.5336(3) 0.7718(5) 0.4327(3)
H17 H 0.6062 0.8067 0.4412
H18 H 0.4916 0.8179 0.4719
C15 C 0.6421(3) 0.3561(4) 0.4097(2)
H19 H 0.6456 0.4209 0.4661
loop_
_geom_bond_atom_site_label_1
_geom_bond_atom_site_label_2
_geom_bond_site_symmetry_1
_geom_bond_site_symmetry_2
S1 O1 1_555 1_555
O2 S1 1_555 1_555
N1 H1 1_555 1_555
C1 S1 1_555 1_555
C2 C1 1_555 1_555
H2 C2 1_555 1_555
C3 C2 1_555 1_555
H3 C3 1_555 1_555
C4 C3 1_555 1_555
H4 C4 1_555 1_555
C5 C4 1_555 1_555
H5 C5 1_555 1_555
C6 C1 1_555 1_555
H6 C6 1_555 1_555
C7 S1 1_555 1_555
C8 C7 1_555 1_555
H7 C8 1_555 1_555
H8 C8 1_555 1_555
C9 N1 1_555 1_555
H9 C9 1_555 1_555
C10 C9 1_555 1_555
H10 C10 1_555 1_555
H11 C10 1_555 1_555
H12 C10 1_555 1_555
C11 N1 1_555 1_555
H13 C11 1_555 1_555
C12 C11 1_555 1_555
H14 C12 1_555 1_555
H15 C12 1_555 1_555
C13 C12 1_555 1_555
H16 C13 1_555 1_555
C14 C13 1_555 1_555
H17 C14 1_555 1_555
H18 C14 1_555 1_555
C15 C7 1_555 1_555
H19 C15 1_555 1_555
C5 C6 1_555 1_555
C8 C9 1_555 1_555
C11 C15 1_555 1_555

#END
