
#######################################################################
#
#                 Cambridge Crystallographic Data Centre
#                                CCDC 
#
#######################################################################
#
# If this CIF has been generated from an entry in the Cambridge 
# Structural Database, then it will include bibliographic, chemical, 
# crystal, experimental, refinement or atomic coordinate data resulting 
# from the CCDC's data processing and validation procedures.
#
#######################################################################

data_PEZJIQ
_chemical_formula_moiety         'C28 H28 N4 O4'
_chemical_name_systematic        
'methyl 7-oxo-11-{2-oxo-2-[(quinolin-8-yl)amino]ethyl}-4,5,6,7,8,9,10,11-octahydro-2H-1,12-ethenopyrrolo[3,4-d]azacyclododecine-5-carboxylate'
_symmetry_cell_setting           monoclinic
_symmetry_space_group_name_H-M   'P 21'
_symmetry_Int_Tables_number      4
_space_group_name_Hall           'P 2yb'
loop_
_symmetry_equiv_pos_site_id
_symmetry_equiv_pos_as_xyz
1 x,y,z
2 -x,1/2+y,-z
_cell_length_a                   4.95874(16)
_cell_length_b                   16.5259(7)
_cell_length_c                   14.7144(7)
_cell_angle_alpha                90
_cell_angle_beta                 95.240(4)
_cell_angle_gamma                90
_cell_volume                     1200.77
_exptl_crystal_colour            colorless
_exptl_crystal_description       needle
_cell_formula_units_Z            2
loop_
_atom_site_label
_atom_site_type_symbol
_atom_site_fract_x
_atom_site_fract_y
_atom_site_fract_z
O1 O -0.6847(5) -0.33049(18) -0.58189(19)
O2 O -1.2899(5) -0.46269(18) -0.1153(2)
O3 O -0.8858(6) -0.74173(17) -0.0735(2)
O4 O -0.5796(5) -0.64471(19) -0.03728(19)
N1 N -0.8949(6) -0.52804(19) -0.1203(2)
H1 H -0.7196 -0.5243 -0.1247
N2 N -0.6541(6) -0.7053(2) -0.3615(2)
H2 H -0.5474 -0.7402 -0.3857
N3 N -1.0603(6) -0.4079(2) -0.6140(2)
H3 H -1.2152 -0.4217 -0.5936
C1 C -0.8037(8) -0.6645(3) -0.0699(3)
N4 N -1.3416(6) -0.5393(2) -0.6633(2)
C2 C -1.0429(8) -0.4603(2) -0.1213(3)
C3 C -0.8816(7) -0.5918(2) -0.3327(3)
C4 C -0.9055(8) -0.3562(3) -0.5604(3)
C5 C -0.6845(7) -0.6247(2) -0.3855(3)
C6 C -0.9635(7) -0.6541(3) -0.2741(3)
C7 C -1.0079(8) -0.4425(2) -0.6972(3)
C8 C -0.9436(7) -0.5096(3) -0.3404(3)
H4 H -1.0845 -0.4880 -0.3081
C9 C -0.8047(7) -0.4596(2) -0.3937(3)
C10 C -1.1647(8) -0.5129(2) -0.7234(3)
C11 C -0.8370(7) -0.3682(2) -0.3893(3)
H5 H -0.6519 -0.3445 -0.3905
C12 C -0.5512(8) -0.5764(3) -0.4444(3)
H6 H -0.4246 -0.5988 -0.4821
C13 C -0.8276(8) -0.4125(3) -0.7551(3)
H7 H -0.7232 -0.3656 -0.7389
C14 C -1.0114(8) -0.3330(2) -0.4715(3)
H8 H -1.1996 -0.3529 -0.4708
H9 H -1.0147 -0.2733 -0.4664
C15 C -1.0152(7) -0.6078(2) -0.1120(3)
H10 H -1.1572 -0.6027 -0.0683
C16 C -0.8205(7) -0.7218(3) -0.2929(3)
H11 H -0.8331 -0.7726 -0.2634
C17 C -0.6088(8) -0.4950(3) -0.4463(3)
H12 H -0.5137 -0.4609 -0.4845
C18 C -0.9429(7) -0.3412(2) -0.2994(3)
H13 H -1.1239 -0.3653 -0.2948
H14 H -0.9640 -0.2816 -0.3000
C19 C -1.1558(7) -0.6412(3) -0.2021(3)
H15 H -1.2442 -0.6932 -0.1897
H16 H -1.2989 -0.6028 -0.2256
C20 C -0.8946(8) -0.3807(3) -0.1273(3)
H17 H -0.7557 -0.3773 -0.0747
H18 H -1.0256 -0.3363 -0.1209
C21 C -0.7542(7) -0.3658(3) -0.2153(3)
H19 H -0.6168 -0.3228 -0.2030
H20 H -0.6574 -0.4158 -0.2301
C22 C -1.1349(9) -0.5508(3) -0.8075(3)
C23 C -1.4855(9) -0.6043(3) -0.6873(3)
H21 H -1.6069 -0.6239 -0.6461
C24 C -0.8004(9) -0.4523(3) -0.8384(3)
H22 H -0.6749 -0.4316 -0.8776
C25 C -0.6828(9) -0.8004(3) -0.0406(4)
H23 H -0.5219 -0.7940 -0.0739
H24 H -0.7557 -0.8551 -0.0502
H25 H -0.6333 -0.7916 0.0247
C26 C -1.2944(9) -0.6206(3) -0.8293(3)
H26 H -1.2785 -0.6489 -0.8847
C27 C -0.9451(9) -0.5187(3) -0.8649(3)
H27 H -0.9205 -0.5439 -0.9216
C28 C -1.4717(9) -0.6465(3) -0.7694(3)
H28 H -1.5836 -0.6923 -0.7832
loop_
_geom_bond_atom_site_label_1
_geom_bond_atom_site_label_2
_geom_bond_site_symmetry_1
_geom_bond_site_symmetry_2
O1 C4 1_555 1_555
O2 C2 1_555 1_555
O3 C1 1_555 1_555
O4 C1 1_555 1_555
N1 H1 1_555 1_555
N2 H2 1_555 1_555
N3 H3 1_555 1_555
C1 C15 1_555 1_555
N4 C10 1_555 1_555
C2 N1 1_555 1_555
C3 C5 1_555 1_555
C4 N3 1_555 1_555
C5 N2 1_555 1_555
C6 C3 1_555 1_555
C7 N3 1_555 1_555
C8 C3 1_555 1_555
H4 C8 1_555 1_555
C9 C8 1_555 1_555
C10 C7 1_555 1_555
C11 C9 1_555 1_555
H5 C11 1_555 1_555
C12 C5 1_555 1_555
H6 C12 1_555 1_555
C13 C7 1_555 1_555
H7 C13 1_555 1_555
C14 C4 1_555 1_555
H8 C14 1_555 1_555
H9 C14 1_555 1_555
C15 N1 1_555 1_555
H10 C15 1_555 1_555
C16 N2 1_555 1_555
H11 C16 1_555 1_555
C17 C9 1_555 1_555
H12 C17 1_555 1_555
C18 C11 1_555 1_555
H13 C18 1_555 1_555
H14 C18 1_555 1_555
C19 C6 1_555 1_555
H15 C19 1_555 1_555
H16 C19 1_555 1_555
C20 C2 1_555 1_555
H17 C20 1_555 1_555
H18 C20 1_555 1_555
C21 C18 1_555 1_555
H19 C21 1_555 1_555
H20 C21 1_555 1_555
C22 C10 1_555 1_555
C23 N4 1_555 1_555
H21 C23 1_555 1_555
C24 C13 1_555 1_555
H22 C24 1_555 1_555
C25 O3 1_555 1_555
H23 C25 1_555 1_555
H24 C25 1_555 1_555
H25 C25 1_555 1_555
C26 C22 1_555 1_555
H26 C26 1_555 1_555
C27 C22 1_555 1_555
H27 C27 1_555 1_555
C28 C23 1_555 1_555
H28 C28 1_555 1_555
C6 C16 1_555 1_555
C11 C14 1_555 1_555
C12 C17 1_555 1_555
C15 C19 1_555 1_555
C20 C21 1_555 1_555
C24 C27 1_555 1_555
C26 C28 1_555 1_555

#END
