
#######################################################################
#
#                 Cambridge Crystallographic Data Centre
#                                CCDC 
#
#######################################################################
#
# If this CIF has been generated from an entry in the Cambridge 
# Structural Database, then it will include bibliographic, chemical, 
# crystal, experimental, refinement or atomic coordinate data resulting 
# from the CCDC's data processing and validation procedures.
#
#######################################################################

data_PEZVUL
_chemical_formula_moiety         'C20 H28 O2 S2'
_chemical_name_systematic        
trans-3,4-bis((1-Ethynyl)cyclohexan-1-methylene)-1,2-dithietane-1,1-dioxide
_symmetry_cell_setting           monoclinic
_symmetry_space_group_name_H-M   'P 21/n'
_symmetry_Int_Tables_number      14
_space_group_name_Hall           '-P 2yn'
loop_
_symmetry_equiv_pos_site_id
_symmetry_equiv_pos_as_xyz
1 x,y,z
2 1/2-x,1/2+y,1/2-z
3 -x,-y,-z
4 1/2+x,1/2-y,1/2+z
_cell_length_a                   10.770(3)
_cell_length_b                   9.343(6)
_cell_length_c                   19.730(3)
_cell_angle_alpha                90
_cell_angle_beta                 91.76(2)
_cell_angle_gamma                90
_cell_volume                     1984.38
_cell_formula_units_Z            4
loop_
_atom_site_label
_atom_site_type_symbol
_atom_site_fract_x
_atom_site_fract_y
_atom_site_fract_z
S1 S 0.6907(1) 0.2068(1) 0.03316(6)
S2 S 0.5458(1) 0.3441(1) 0.05554(6)
O1 O 0.6691(3) 0.1347(4) -0.0300(2)
O2 O 0.8101(3) 0.2700(3) 0.0441(2)
C1 C 0.6325(3) 0.1039(4) 0.1026(2)
C2 C 0.6322(4) -0.0586(4) 0.0962(2)
C3 C 0.7543(3) -0.1353(4) 0.1181(2)
C4 C 0.7353(4) -0.2992(5) 0.1084(3)
C5 C 0.8545(5) -0.3827(5) 0.1237(3)
C6 C 0.9575(5) -0.3326(6) 0.0815(3)
C7 C 0.9806(4) -0.1733(6) 0.0896(3)
C8 C 0.8608(4) -0.0899(5) 0.0748(2)
C9 C 0.7811(4) -0.1041(5) 0.1896(2)
C10 C 0.7999(6) -0.0750(6) 0.2457(3)
C11 C 0.5045(3) 0.1775(4) 0.1014(2)
C12 C 0.4485(4) 0.2011(4) 0.1685(2)
C13 C 0.3159(3) 0.2643(4) 0.1690(2)
C14 C 0.2739(4) 0.2749(5) 0.2411(2)
C15 C 0.1419(5) 0.3219(5) 0.2482(3)
C16 C 0.0539(5) 0.2316(7) 0.2041(4)
C17 C 0.0933(5) 0.2225(7) 0.1340(4)
C18 C 0.2243(4) 0.1749(6) 0.1271(3)
C19 C 0.3179(4) 0.4110(5) 0.1400(2)
C20 C 0.3186(6) 0.5254(6) 0.1190(3)
H1 H 0.672(3) 0.133(4) 0.140(2)
H2 H 0.564(3) -0.091(4) 0.128(2)
H3 H 0.617(3) -0.080(4) 0.045(2)
H4 H 0.666(3) -0.329(4) 0.133(2)
H5 H 0.708(3) -0.313(4) 0.061(2)
H6 H 0.876(3) -0.374(4) 0.175(2)
H7 H 0.837(3) -0.466(4) 0.115(2)
H8 H 0.934(3) -0.346(4) 0.033(2)
H9 H 1.024(3) -0.377(4) 0.086(2)
H10 H 1.045(3) -0.145(4) 0.056(2)
H11 H 0.996(3) -0.152(4) 0.142(2)
H12 H 0.872(3) -0.006(4) 0.080(2)
H13 H 0.838(3) -0.096(4) 0.031(2)
H14 H 0.804(3) -0.057(4) 0.288(2)
H15 H 0.450(3) 0.130(4) 0.075(2)
H16 H 0.505(3) 0.259(4) 0.197(2)
H17 H 0.443(3) 0.114(4) 0.190(2)
H18 H 0.322(3) 0.325(4) 0.260(2)
H19 H 0.278(3) 0.194(4) 0.257(2)
H20 H 0.137(3) 0.414(4) 0.231(2)
H21 H 0.107(3) 0.320(4) 0.292(2)
H22 H -0.018(3) 0.255(4) 0.212(2)
H23 H 0.055(3) 0.154(4) 0.223(2)
H24 H 0.087(3) 0.308(4) 0.121(2)
H25 H 0.051(3) 0.171(4) 0.108(2)
H26 H 0.248(3) 0.177(4) 0.076(2)
H27 H 0.230(3) 0.085(4) 0.147(2)
H28 H 0.319(3) 0.621(4) 0.102(2)
loop_
_geom_bond_atom_site_label_1
_geom_bond_atom_site_label_2
_geom_bond_site_symmetry_1
_geom_bond_site_symmetry_2
S1 S2 1_555 1_555
S2 C11 1_555 1_555
O1 S1 1_555 1_555
O2 S1 1_555 1_555
C1 S1 1_555 1_555
C2 C1 1_555 1_555
C3 C2 1_555 1_555
C4 C3 1_555 1_555
C5 C4 1_555 1_555
C6 C5 1_555 1_555
C7 C6 1_555 1_555
C8 C3 1_555 1_555
C9 C3 1_555 1_555
C10 C9 1_555 1_555
C11 C1 1_555 1_555
C12 C11 1_555 1_555
C13 C12 1_555 1_555
C14 C13 1_555 1_555
C15 C14 1_555 1_555
C16 C15 1_555 1_555
C17 C16 1_555 1_555
C18 C13 1_555 1_555
C19 C13 1_555 1_555
C20 C19 1_555 1_555
H1 C1 1_555 1_555
H2 C2 1_555 1_555
H3 C2 1_555 1_555
H4 C4 1_555 1_555
H5 C4 1_555 1_555
H6 C5 1_555 1_555
H7 C5 1_555 1_555
H8 C6 1_555 1_555
H9 C6 1_555 1_555
H10 C7 1_555 1_555
H11 C7 1_555 1_555
H12 C8 1_555 1_555
H13 C8 1_555 1_555
H14 C10 1_555 1_555
H15 C11 1_555 1_555
H16 C12 1_555 1_555
H17 C12 1_555 1_555
H18 C14 1_555 1_555
H19 C14 1_555 1_555
H20 C15 1_555 1_555
H21 C15 1_555 1_555
H22 C16 1_555 1_555
H23 C16 1_555 1_555
H24 C17 1_555 1_555
H25 C17 1_555 1_555
H26 C18 1_555 1_555
H27 C18 1_555 1_555
H28 C20 1_555 1_555
C7 C8 1_555 1_555
C17 C18 1_555 1_555

#END
