
#######################################################################
#
#                 Cambridge Crystallographic Data Centre
#                                CCDC 
#
#######################################################################
#
# If this CIF has been generated from an entry in the Cambridge 
# Structural Database, then it will include bibliographic, chemical, 
# crystal, experimental, refinement or atomic coordinate data resulting 
# from the CCDC's data processing and validation procedures.
#
#######################################################################

data_PEZVAS
_chemical_formula_moiety         'C9 H10 N2 O6 S1'
_chemical_name_systematic        N-(2-Nitrobenzenesulfonyl)-L-alanine
_symmetry_cell_setting           monoclinic
_symmetry_space_group_name_H-M   'P 21'
_symmetry_Int_Tables_number      4
_space_group_name_Hall           'P 2yb'
loop_
_symmetry_equiv_pos_site_id
_symmetry_equiv_pos_as_xyz
1 x,y,z
2 -x,1/2+y,-z
_cell_length_a                   7.0998(10)
_cell_length_b                   7.4331(11)
_cell_length_c                   11.2388(16)
_cell_angle_alpha                90
_cell_angle_beta                 103.854(2)
_cell_angle_gamma                90
_cell_volume                     575.857
_cell_formula_units_Z            2
loop_
_atom_site_label
_atom_site_type_symbol
_atom_site_fract_x
_atom_site_fract_y
_atom_site_fract_z
S1 S 0.73447(7) 0.80377(8) 0.73832(4)
O1 O 1.0049(2) 0.59032(19) 0.51580(15)
O2 O 0.7726(2) 0.3838(2) 0.50496(18)
H1 H 0.8642 0.3139 0.5128
O3 O 0.5595(2) 0.7105(3) 0.73982(16)
O4 O 0.7739(3) 0.9739(3) 0.79769(16)
O5 O 1.1328(3) 0.9574(3) 0.73671(16)
O6 O 1.3089(3) 0.9438(3) 0.9211(2)
N1 N 0.7369(2) 0.8326(2) 0.59574(16)
H3 H 0.7742 0.9339 0.5724
N2 N 1.1926(3) 0.8804(3) 0.8338(2)
C1 C 0.8370(3) 0.5502(3) 0.51088(18)
C2 C 0.6762(3) 0.6879(3) 0.50628(18)
H4 H 0.5628 0.6271 0.5231
C3 C 0.6216(3) 0.7668(3) 0.3771(2)
H5 H 0.5202 0.8540 0.3718
H6 H 0.5772 0.6723 0.3189
H7 H 0.7331 0.8237 0.3593
C4 C 0.9262(3) 0.6513(3) 0.80589(18)
C5 C 0.8752(4) 0.4740(3) 0.8229(2)
H8 H 0.7459 0.4391 0.7987
C6 C 1.0145(4) 0.3494(3) 0.8750(2)
H9 H 0.9784 0.2309 0.8839
C7 C 1.2059(4) 0.3984(4) 0.9140(3)
H10 H 1.2987 0.3130 0.9486
C8 C 1.2603(4) 0.5742(4) 0.9020(2)
H11 H 1.3890 0.6088 0.9308
C9 C 1.1233(3) 0.6978(3) 0.84725(18)
H2? H 1.3758 1.0190 0.8971
loop_
_geom_bond_atom_site_label_1
_geom_bond_atom_site_label_2
_geom_bond_site_symmetry_1
_geom_bond_site_symmetry_2
S1 O3 1_555 1_555
O1 C1 1_555 1_555
O2 H1 1_555 1_555
O4 S1 1_555 1_555
O5 N2 1_555 1_555
O6 N2 1_555 1_555
N1 S1 1_555 1_555
H3 N1 1_555 1_555
N2 C9 1_555 1_555
C1 O2 1_555 1_555
C2 N1 1_555 1_555
H4 C2 1_555 1_555
C3 C2 1_555 1_555
H5 C3 1_555 1_555
H6 C3 1_555 1_555
H7 C3 1_555 1_555
C4 S1 1_555 1_555
C5 C4 1_555 1_555
H8 C5 1_555 1_555
C6 C5 1_555 1_555
H9 C6 1_555 1_555
C7 C6 1_555 1_555
H10 C7 1_555 1_555
C8 C7 1_555 1_555
H11 C8 1_555 1_555
C9 C4 1_555 1_555
C1 C2 1_555 1_555
C8 C9 1_555 1_555

#END
