
#######################################################################
#
#                 Cambridge Crystallographic Data Centre
#                                CCDC 
#
#######################################################################
#
# If this CIF has been generated from an entry in the Cambridge 
# Structural Database, then it will include bibliographic, chemical, 
# crystal, experimental, refinement or atomic coordinate data resulting 
# from the CCDC's data processing and validation procedures.
#
#######################################################################

data_PEZZAY
_chemical_formula_moiety         'C17 H24 O4'
_chemical_name_systematic        
6'-(prop-1-en-2-yl)hexahydro-4'H,9'H-spiro[1,3-dioxolane-2,8'-naphtho[1,8a-b]furan]-2'(3'H)-one
_symmetry_cell_setting           monoclinic
_symmetry_space_group_name_H-M   'P 21'
_symmetry_Int_Tables_number      4
_space_group_name_Hall           'P 2yb'
loop_
_symmetry_equiv_pos_site_id
_symmetry_equiv_pos_as_xyz
1 x,y,z
2 -x,1/2+y,-z
_cell_length_a                   7.4430(9)
_cell_length_b                   11.5052(11)
_cell_length_c                   17.6997(16)
_cell_angle_alpha                90
_cell_angle_beta                 92.738(6)
_cell_angle_gamma                90
_cell_volume                     1513.95
_exptl_crystal_colour            colorless
_exptl_crystal_description       prism
_cell_formula_units_Z            4
loop_
_atom_site_label
_atom_site_type_symbol
_atom_site_fract_x
_atom_site_fract_y
_atom_site_fract_z
O1 O 0.39891(15) 0.73115(10) 0.03494(6)
O2 O 0.35380(17) 0.90200(11) 0.08951(6)
O3 O 0.85773(16) 0.64165(10) 0.18755(6)
O4 O 1.04306(16) 0.51635(10) 0.12780(6)
C1 C 0.7175(2) 0.73029(13) 0.03049(8)
C2 C 0.5508(2) 0.65022(14) 0.02914(9)
C3 C 0.5467(2) 0.56739(14) 0.09594(9)
C4 C 0.7217(2) 0.49825(14) 0.10566(9)
C5 C 0.8788(2) 0.58089(14) 0.11789(8)
C6 C 0.8969(2) 0.66661(13) 0.05172(8)
C7 C 0.9753(2) 0.60257(13) -0.01588(8)
C8 C 0.9903(2) 0.68093(13) -0.08508(8)
C9 C 0.8027(2) 0.72275(14) -0.10972(9)
C10 C 0.7270(2) 0.79372(14) -0.04606(8)
C11 C 0.6584(2) 0.82148(13) 0.08801(9)
C12 C 0.4573(2) 0.82671(15) 0.07298(9)
C13 C 1.0297(3) 0.64449(18) 0.22539(10)
C14 C 1.1138(3) 0.53128(19) 0.20248(10)
C15 C 1.0893(2) 0.62066(14) -0.14657(8)
C16 C 0.9928(3) 0.52558(16) -0.19069(10)
C17 C 1.2561(2) 0.65089(15) -0.16080(9)
H1 H 0.4445 0.5130 0.0881
H2 H 0.5279 0.6123 0.1426
H3 H 1.0961 0.5724 -0.0005
H4 H 0.8975 0.5353 -0.0297
H5 H 0.7237 0.6553 -0.1216
H6 H 0.8083 0.7711 -0.1558
H7 H 0.6042 0.8195 -0.0623
H8 H 0.8019 0.8642 -0.0384
H9 H 0.6894 0.7964 0.1405
H10 H 0.7149 0.8978 0.0790
H11 H 1.0195 0.6486 0.2809
H12 H 1.1006 0.7117 0.2087
H13 H 1.2467 0.5369 0.2041
H14 H 1.0780 0.4667 0.2355
H15 H 0.5398 0.6062 -0.0196
H16 H 0.9863 0.7271 0.0688
H17 H 1.0624 0.7507 -0.0688
H18 H 0.8928 0.5591 -0.2215
H19 H 0.9461 0.4684 -0.1556
H20 H 1.0767 0.4874 -0.2238
H21 H 1.3172 0.6124 -0.1995
H22 H 1.3145 0.7111 -0.1323
H23 H 0.7156 0.4454 0.1496
H24 H 0.7386 0.4505 0.0600
O5 O 1.08885(15) 1.01801(10) 0.46743(7)
O6 O 1.14382(17) 1.19126(11) 0.41689(7)
O7 O 0.43719(16) 0.81875(10) 0.36748(6)
O8 O 0.62879(15) 0.94447(10) 0.31146(6)
C18 C 0.7708(2) 1.02349(12) 0.46960(8)
C19 C 0.9333(2) 0.94046(14) 0.47116(9)
C20 C 0.9352(2) 0.85945(14) 0.40315(9)
C21 C 0.7581(2) 0.79513(14) 0.39027(9)
C22 C 0.6048(2) 0.87987(14) 0.37964(8)
C23 C 0.5900(2) 0.96264(13) 0.44814(8)
C24 C 0.5150(2) 0.89419(14) 0.51460(8)
C25 C 0.4996(2) 0.96815(14) 0.58587(8)
C26 C 0.6852(2) 1.01426(14) 0.60975(8)
C27 C 0.7588(2) 1.08693(14) 0.54638(8)
C28 C 0.8358(2) 1.11486(13) 0.41328(9)
C29 C 1.0360(2) 1.11700(15) 0.43082(9)
C30 C 0.4118(2) 0.89936(15) 0.64749(8)
C31 C 0.5155(3) 0.80839(16) 0.68707(10)
C32 C 0.2394(3) 0.92195(17) 0.66341(10)
C33 C 0.3659(3) 0.84464(16) 0.29340(9)
C34 C 0.4532(2) 0.95898(16) 0.27581(9)
H25 H 0.9597 0.9053 0.3574
H26 H 1.0337 0.8023 0.4111
H27 H 0.7637 0.7452 0.3449
H28 H 0.7375 0.7445 0.4342
H29 H 0.3946 0.8635 0.4990
H30 H 0.5947 0.8271 0.5265
H31 H 0.7674 0.9485 0.6217
H32 H 0.6775 1.0624 0.6558
H33 H 0.8805 1.1145 0.5627
H34 H 0.6814 1.1563 0.5387
H35 H 0.8075 1.0909 0.3603
H36 H 0.7810 1.1918 0.4221
H37 H 0.2333 0.8521 0.2925
H38 H 0.3987 0.7839 0.2569
H39 H 0.4594 0.9709 0.2206
H40 H 0.3885 1.0250 0.2979
H41 H 0.9402 0.8948 0.5193
H42 H 0.5006 1.0244 0.4333
H43 H 0.4206 1.0362 0.5726
H44 H 0.4380 0.7667 0.7212
H45 H 0.6164 0.8435 0.7165
H46 H 0.5617 0.7539 0.6502
H47 H 0.1831 0.8782 0.7011
H48 H 0.1747 0.9816 0.6369
loop_
_geom_bond_atom_site_label_1
_geom_bond_atom_site_label_2
_geom_bond_site_symmetry_1
_geom_bond_site_symmetry_2
O1 C2 1_555 1_555
O2 C12 1_555 1_555
O3 C5 1_555 1_555
O4 C5 1_555 1_555
C1 C2 1_555 1_555
C2 C3 1_555 1_555
C3 C4 1_555 1_555
C4 C5 1_555 1_555
C5 C6 1_555 1_555
C6 C1 1_555 1_555
C7 C6 1_555 1_555
C8 C7 1_555 1_555
C9 C8 1_555 1_555
C10 C1 1_555 1_555
C11 C1 1_555 1_555
C12 O1 1_555 1_555
C13 O3 1_555 1_555
C14 O4 1_555 1_555
C15 C8 1_555 1_555
C16 C15 1_555 1_555
C17 C15 1_555 1_555
H1 C3 1_555 1_555
H2 C3 1_555 1_555
H3 C7 1_555 1_555
H4 C7 1_555 1_555
H5 C9 1_555 1_555
H6 C9 1_555 1_555
H7 C10 1_555 1_555
H8 C10 1_555 1_555
H9 C11 1_555 1_555
H10 C11 1_555 1_555
H11 C13 1_555 1_555
H12 C13 1_555 1_555
H13 C14 1_555 1_555
H14 C14 1_555 1_555
H15 C2 1_555 1_555
H16 C6 1_555 1_555
H17 C8 1_555 1_555
H18 C16 1_555 1_555
H19 C16 1_555 1_555
H20 C16 1_555 1_555
H21 C17 1_555 1_555
H22 C17 1_555 1_555
H23 C4 1_555 1_555
H24 C4 1_555 1_555
O5 C19 1_555 1_555
O6 C29 1_555 1_555
O7 C22 1_555 1_555
O8 C22 1_555 1_555
C18 C19 1_555 1_555
C19 C20 1_555 1_555
C20 C21 1_555 1_555
C21 C22 1_555 1_555
C22 C23 1_555 1_555
C23 C18 1_555 1_555
C24 C23 1_555 1_555
C25 C24 1_555 1_555
C26 C25 1_555 1_555
C27 C18 1_555 1_555
C28 C18 1_555 1_555
C29 O5 1_555 1_555
C30 C25 1_555 1_555
C31 C30 1_555 1_555
C32 C30 1_555 1_555
C33 O7 1_555 1_555
C34 O8 1_555 1_555
H25 C20 1_555 1_555
H26 C20 1_555 1_555
H27 C21 1_555 1_555
H28 C21 1_555 1_555
H29 C24 1_555 1_555
H30 C24 1_555 1_555
H31 C26 1_555 1_555
H32 C26 1_555 1_555
H33 C27 1_555 1_555
H34 C27 1_555 1_555
H35 C28 1_555 1_555
H36 C28 1_555 1_555
H37 C33 1_555 1_555
H38 C33 1_555 1_555
H39 C34 1_555 1_555
H40 C34 1_555 1_555
H41 C19 1_555 1_555
H42 C23 1_555 1_555
H43 C25 1_555 1_555
H44 C31 1_555 1_555
H45 C31 1_555 1_555
H46 C31 1_555 1_555
H47 C32 1_555 1_555
H48 C32 1_555 1_555
C9 C10 1_555 1_555
C11 C12 1_555 1_555
C13 C14 1_555 1_555
C26 C27 1_555 1_555
C28 C29 1_555 1_555
C33 C34 1_555 1_555

#END
