
#######################################################################
#
#                 Cambridge Crystallographic Data Centre
#                                CCDC 
#
#######################################################################
#
# If this CIF has been generated from an entry in the Cambridge 
# Structural Database, then it will include bibliographic, chemical, 
# crystal, experimental, refinement or atomic coordinate data resulting 
# from the CCDC's data processing and validation procedures.
#
#######################################################################

data_PEZZEC
_chemical_formula_moiety         'C21 H25 N1 O6'
_chemical_name_systematic        
'[4-hydroxy-1-oxo-7-(prop-1-en-2-yl)octahydronaphthalen-4a(2H)-yl]methyl 4-nitrobenzoate'
_symmetry_cell_setting           orthorhombic
_symmetry_space_group_name_H-M   'P 21 21 21'
_symmetry_Int_Tables_number      19
_space_group_name_Hall           'P 2ac 2ab'
loop_
_symmetry_equiv_pos_site_id
_symmetry_equiv_pos_as_xyz
1 x,y,z
2 1/2+x,1/2-y,-z
3 -x,1/2+y,1/2-z
4 1/2-x,-y,1/2+z
_cell_length_a                   7.5750(10)
_cell_length_b                   14.9850(15)
_cell_length_c                   17.198(2)
_cell_angle_alpha                90
_cell_angle_beta                 90
_cell_angle_gamma                90
_cell_volume                     1952.17
_exptl_crystal_colour            colorless
_exptl_crystal_description       prism
_cell_formula_units_Z            4
loop_
_atom_site_label
_atom_site_type_symbol
_atom_site_fract_x
_atom_site_fract_y
_atom_site_fract_z
O1 O 0.47295(16) 0.90229(9) 0.27853(7)
O2 O -0.21228(14) 0.82671(8) 0.34181(8)
O3 O 0.07648(14) 0.98272(7) 0.38595(6)
O4 O 0.15214(17) 1.09865(8) 0.46105(7)
O5 O -0.6734(2) 1.27604(8) 0.38098(9)
O6 O -0.7133(2) 1.17406(10) 0.29382(9)
N1 N -0.6231(2) 1.21172(9) 0.34331(8)
C1 C 0.25576(17) 0.84583(9) 0.37343(7)
C2 C 0.31524(18) 0.85261(9) 0.28758(8)
H1 H 0.3366 0.7920 0.2683
C3 C 0.17716(19) 0.89580(10) 0.23577(8)
H2 H 0.2177 0.8945 0.1823
H3 H 0.1626 0.9578 0.2508
C4 C -0.0005(2) 0.84830(12) 0.24136(9)
H4 H -0.0899 0.8861 0.2180
H5 H 0.0055 0.7938 0.2110
C5 C -0.05818(19) 0.82500(9) 0.32234(9)
C6 C 0.08225(18) 0.79221(9) 0.37861(8)
H6 H 0.0356 0.8001 0.4313
C7 C 0.1066(2) 0.69082(9) 0.36530(9)
H7 H -0.0045 0.6607 0.3753
H8 H 0.1379 0.6805 0.3114
C8 C 0.2500(2) 0.65091(10) 0.41788(8)
H9 H 0.2152 0.6636 0.4716
C9 C 0.4222(2) 0.70023(10) 0.40356(9)
H10 H 0.4570 0.6934 0.3496
H11 H 0.5145 0.6752 0.4360
C10 C 0.3985(2) 0.79906(10) 0.42248(8)
H12 H 0.5102 0.8294 0.4145
H13 H 0.3680 0.8049 0.4770
C11 C 0.2369(2) 0.93798(10) 0.41088(9)
H14 H 0.2354 0.9315 0.4670
H15 H 0.3381 0.9743 0.3971
C12 C 0.0496(2) 1.06343(10) 0.41750(9)
C13 C -0.1233(2) 1.10308(9) 0.39327(8)
C14 C -0.2365(2) 1.05972(10) 0.34249(10)
H16 H -0.2027 1.0059 0.3201
C15 C -0.3993(2) 1.09605(10) 0.32494(9)
H17 H -0.4756 1.0674 0.2907
C16 C -0.4462(2) 1.17553(9) 0.35910(8)
C17 C -0.3353(2) 1.22165(9) 0.40893(9)
H18 H -0.3698 1.2756 0.4309
C18 C -0.1725(2) 1.18518(10) 0.42499(9)
H19 H -0.0945 1.2155 0.4573
C19 C 0.2605(3) 0.54985(10) 0.41011(9)
C20 C 0.4010(3) 0.50830(13) 0.38256(12)
H20 H 0.4034 0.4463 0.3805
H21 H 0.4975 0.5410 0.3652
C21 C 0.1033(3) 0.49898(12) 0.43849(13)
H22 H 0.1259 0.4361 0.4343
H23 H 0.0022 0.5142 0.4075
H24 H 0.0809 0.5140 0.4918
H25 H 0.551(3) 0.8751(16) 0.2887(15)
loop_
_geom_bond_atom_site_label_1
_geom_bond_atom_site_label_2
_geom_bond_site_symmetry_1
_geom_bond_site_symmetry_2
O1 C2 1_555 1_555
O2 C5 1_555 1_555
O3 C11 1_555 1_555
O4 C12 1_555 1_555
O5 N1 1_555 1_555
O6 N1 1_555 1_555
N1 C16 1_555 1_555
C1 C2 1_555 1_555
C2 H1 1_555 1_555
C3 C2 1_555 1_555
H2 C3 1_555 1_555
H3 C3 1_555 1_555
C4 C3 1_555 1_555
H4 C4 1_555 1_555
H5 C4 1_555 1_555
C5 C4 1_555 1_555
C6 C1 1_555 1_555
H6 C6 1_555 1_555
C7 C6 1_555 1_555
H7 C7 1_555 1_555
H8 C7 1_555 1_555
C8 C7 1_555 1_555
H9 C8 1_555 1_555
C9 C8 1_555 1_555
H10 C9 1_555 1_555
H11 C9 1_555 1_555
C10 C1 1_555 1_555
H12 C10 1_555 1_555
H13 C10 1_555 1_555
C11 C1 1_555 1_555
H14 C11 1_555 1_555
H15 C11 1_555 1_555
C12 O3 1_555 1_555
C13 C12 1_555 1_555
C14 C13 1_555 1_555
H16 C14 1_555 1_555
C15 C14 1_555 1_555
H17 C15 1_555 1_555
C16 C15 1_555 1_555
C17 C16 1_555 1_555
H18 C17 1_555 1_555
C18 C13 1_555 1_555
H19 C18 1_555 1_555
C19 C8 1_555 1_555
C20 C19 1_555 1_555
H20 C20 1_555 1_555
H21 C20 1_555 1_555
C21 C19 1_555 1_555
H22 C21 1_555 1_555
H23 C21 1_555 1_555
H24 C21 1_555 1_555
H25 O1 1_555 1_555
C5 C6 1_555 1_555
C9 C10 1_555 1_555
C17 C18 1_555 1_555

#END
