
#######################################################################
#
#                 Cambridge Crystallographic Data Centre
#                                CCDC 
#
#######################################################################
#
# If this CIF has been generated from an entry in the Cambridge 
# Structural Database, then it will include bibliographic, chemical, 
# crystal, experimental, refinement or atomic coordinate data resulting 
# from the CCDC's data processing and validation procedures.
#
#######################################################################

data_PHBZAC04
_chemical_formula_moiety         'C7 H6 O3,H2 O1'
_chemical_name_systematic        '4-hydroxybenzoic acid monohydrate'
_symmetry_cell_setting           monoclinic
_symmetry_space_group_name_H-M   'P 21/n'
_symmetry_Int_Tables_number      14
_space_group_name_Hall           '-P 2yn'
loop_
_symmetry_equiv_pos_site_id
_symmetry_equiv_pos_as_xyz
1 x,y,z
2 1/2-x,1/2+y,1/2-z
3 -x,-y,-z
4 1/2+x,1/2-y,1/2+z
_cell_length_a                   6.7309(13)
_cell_length_b                   6.4359(13)
_cell_length_c                   17.226(3)
_cell_angle_alpha                90
_cell_angle_beta                 96.74(3)
_cell_angle_gamma                90
_cell_volume                     741.063
_cell_formula_units_Z            4
loop_
_atom_site_label
_atom_site_type_symbol
_atom_site_fract_x
_atom_site_fract_y
_atom_site_fract_z
O1 O 1.3152(2) 1.1008(3) 0.94102(9)
O2 O 1.3375(2) 0.7735(3) 0.98365(9)
H1 H 1.4439 0.8167 1.0059
O3 O 0.4649(2) 0.7457(2) 0.80743(9)
H2 H 0.4328 0.6265 0.8172
C1 C 1.0414(3) 0.8723(3) 0.90664(11)
C2 C 1.2421(3) 0.9263(4) 0.94451(11)
C3 C 0.6555(3) 0.7813(3) 0.83963(11)
C4 C 0.7742(3) 0.6264(3) 0.87737(13)
H3 H 0.7245 0.4921 0.8804
C5 C 0.7307(3) 0.9807(3) 0.83453(12)
H4 H 0.6526 1.0841 0.8085
C6 C 0.9657(3) 0.6721(4) 0.91032(12)
H5 H 1.0451 0.5680 0.9353
C7 C 0.9220(3) 1.0248(3) 0.86834(12)
H6 H 0.9716 1.1590 0.8654
O4 O 0.8341(3) 0.1357(3) 0.31133(10)
loop_
_geom_bond_atom_site_label_1
_geom_bond_atom_site_label_2
_geom_bond_site_symmetry_1
_geom_bond_site_symmetry_2
O1 C2 1_555 1_555
O2 H1 1_555 1_555
O3 H2 1_555 1_555
C1 C2 1_555 1_555
C2 O2 1_555 1_555
C3 O3 1_555 1_555
C4 C3 1_555 1_555
H3 C4 1_555 1_555
C5 C3 1_555 1_555
H4 C5 1_555 1_555
C6 C1 1_555 1_555
H5 C6 1_555 1_555
C7 C1 1_555 1_555
H6 C7 1_555 1_555
C4 C6 1_555 1_555
C5 C7 1_555 1_555

#END
