
#######################################################################
#
#                 Cambridge Crystallographic Data Centre
#                                CCDC 
#
#######################################################################
#
# If this CIF has been generated from an entry in the Cambridge 
# Structural Database, then it will include bibliographic, chemical, 
# crystal, experimental, refinement or atomic coordinate data resulting 
# from the CCDC's data processing and validation procedures.
#
#######################################################################

data_PHCPDE
_chemical_formula_moiety         'C12 H16 S3'
_chemical_name_systematic        
2,6,10-Trithiabicyclo(9.4.0)pentadeca-1(11),12,14-triene
_symmetry_cell_setting           monoclinic
_symmetry_space_group_name_H-M   'P 21/c'
_symmetry_Int_Tables_number      14
_space_group_name_Hall           '-P 2ybc'
loop_
_symmetry_equiv_pos_site_id
_symmetry_equiv_pos_as_xyz
1 x,y,z
2 -x,1/2+y,1/2-z
3 -x,-y,-z
4 x,1/2-y,1/2+z
_cell_length_a                   5.419(1)
_cell_length_b                   16.090(2)
_cell_length_c                   13.664(1)
_cell_angle_alpha                90
_cell_angle_beta                 98.03(1)
_cell_angle_gamma                90
_cell_volume                     1179.71
_exptl_crystal_colour            white
_chemical_melting_point          61-62deg.C
_cell_formula_units_Z            4
loop_
_atom_site_label
_atom_site_type_symbol
_atom_site_fract_x
_atom_site_fract_y
_atom_site_fract_z
S1 S 0.06447 -0.71742 -0.20272
S2 S 0.09595 -0.55732 -0.33662
S3 S -0.39351 -0.46999 -0.11173
C1 C -0.12080 -0.70880 -0.10340
C2 C -0.16110 -0.62140 -0.06920
C3 C -0.38030 -0.57990 -0.12890
C4 C -0.16980 -0.44000 -0.18930
C5 C -0.26540 -0.44630 -0.29780
C6 C -0.06260 -0.45980 -0.36040
C7 C -0.14320 -0.62990 -0.36690
C8 C -0.15480 -0.69970 -0.30780
C9 C -0.33930 -0.75770 -0.33350
C10 C -0.51680 -0.74610 -0.41340
C11 C -0.50680 -0.67710 -0.47070
C12 C -0.32100 -0.62030 -0.44860
loop_
_geom_bond_atom_site_label_1
_geom_bond_atom_site_label_2
_geom_bond_site_symmetry_1
_geom_bond_site_symmetry_2
S1 C1 1_555 1_555
S2 C6 1_555 1_555
S3 C3 1_555 1_555
C1 C2 1_555 1_555
C2 C3 1_555 1_555
C4 S3 1_555 1_555
C5 C4 1_555 1_555
C6 C5 1_555 1_555
C7 S2 1_555 1_555
C8 S1 1_555 1_555
C9 C8 1_555 1_555
C10 C9 1_555 1_555
C11 C10 1_555 1_555
C12 C7 1_555 1_555
C7 C8 1_555 1_555
C11 C12 1_555 1_555

#END
