
#######################################################################
#
#                 Cambridge Crystallographic Data Centre
#                                CCDC 
#
#######################################################################
#
# If this CIF has been generated from an entry in the Cambridge 
# Structural Database, then it will include bibliographic, chemical, 
# crystal, experimental, refinement or atomic coordinate data resulting 
# from the CCDC's data processing and validation procedures.
#
#######################################################################

data_PHENOL02
_chemical_name_common            'DrugBank: DB03255'
_chemical_formula_moiety         'C6 H6 O1'
_chemical_name_systematic        Phenol
_symmetry_cell_setting           monoclinic
_symmetry_space_group_name_H-M   'P 1 1 21'
_symmetry_Int_Tables_number      4
_space_group_name_Hall           'P 2ac'
loop_
_symmetry_equiv_pos_site_id
_symmetry_equiv_pos_as_xyz
1 x,y,z
2 1/2-x,-y,1/2+z
_cell_length_a                   6.020(20)
_cell_length_b                   9.040(30)
_cell_length_c                   15.180(40)
_cell_angle_alpha                90
_cell_angle_beta                 90
_cell_angle_gamma                90.0
_cell_volume                     826.108
_cell_formula_units_Z            6
loop_
_atom_site_label
_atom_site_type_symbol
_atom_site_fract_x
_atom_site_fract_y
_atom_site_fract_z
C1 C 0.00170 -0.21760 0.25480
C2 C 0.18260 -0.14760 0.22220
C3 C 0.17840 0.00920 0.22180
C4 C 0.01050 0.08490 0.25320
C5 C -0.18220 0.01180 0.28700
C6 C -0.18280 -0.14730 0.28660
O1 O 0.00220 -0.37350 0.25460
C7 C 0.33880 0.38530 0.12210
C8 C 0.15640 0.39450 0.06790
C9 C 0.15710 0.28800 -0.00560
C10 C 0.32560 0.19560 -0.01900
C11 C 0.51620 0.20060 0.03350
C12 C 0.53180 0.29750 0.10870
O2 O 0.35200 0.47810 0.19130
C13 C -0.33690 0.38590 0.38940
C14 C -0.15440 0.39510 0.44260
C15 C -0.15870 0.28900 0.51740
C16 C -0.33120 0.19520 0.52820
C17 C -0.51200 0.19910 0.47690
C18 C -0.51930 0.29760 0.40410
O3 O -0.35000 0.47550 0.31790
loop_
_geom_bond_atom_site_label_1
_geom_bond_atom_site_label_2
_geom_bond_site_symmetry_1
_geom_bond_site_symmetry_2
C1 C2 1_555 1_555
C2 C3 1_555 1_555
C3 C4 1_555 1_555
C4 C5 1_555 1_555
C5 C6 1_555 1_555
C6 C1 1_555 1_555
O1 C1 1_555 1_555
C7 C8 1_555 1_555
C8 C9 1_555 1_555
C9 C10 1_555 1_555
C10 C11 1_555 1_555
C11 C12 1_555 1_555
C12 C7 1_555 1_555
O2 C7 1_555 1_555
C13 C14 1_555 1_555
C14 C15 1_555 1_555
C15 C16 1_555 1_555
C16 C17 1_555 1_555
C17 C18 1_555 1_555
C18 C13 1_555 1_555
O3 C13 1_555 1_555

#END
