
#######################################################################
#
#                 Cambridge Crystallographic Data Centre
#                                CCDC 
#
#######################################################################
#
# If this CIF has been generated from an entry in the Cambridge 
# Structural Database, then it will include bibliographic, chemical, 
# crystal, experimental, refinement or atomic coordinate data resulting 
# from the CCDC's data processing and validation procedures.
#
#######################################################################

data_PHYDZC01
_chemical_formula_moiety         'C6 H9 N2 1+,Cl1 1-'
_chemical_name_systematic        'Phenylhydrazinium chloride'
_symmetry_cell_setting           monoclinic
_symmetry_space_group_name_H-M   'P 21/n'
_symmetry_Int_Tables_number      14
_space_group_name_Hall           '-P 2yn'
loop_
_symmetry_equiv_pos_site_id
_symmetry_equiv_pos_as_xyz
1 x,y,z
2 1/2-x,1/2+y,1/2-z
3 -x,-y,-z
4 1/2+x,1/2-y,1/2+z
_cell_length_a                   3.8223(5)
_cell_length_b                   30.461(5)
_cell_length_c                   6.0121(10)
_cell_angle_alpha                90
_cell_angle_beta                 100.686(6)
_cell_angle_gamma                90
_cell_volume                     687.856
_exptl_crystal_colour            colorless
_exptl_crystal_description       blade
_chemical_melting_point          525-528K(dec.)
_cell_formula_units_Z            4
_exptl_crystal_recrystallization_method ethanol
loop_
_atom_site_label
_atom_site_type_symbol
_atom_site_fract_x
_atom_site_fract_y
_atom_site_fract_z
C1 C 0.2381(11) 0.12905(16) 0.7787(9)
C2 C 0.1470(12) 0.10308(16) 0.9478(9)
H1 H 0.0795 0.1161 1.0771
C3 C 0.1557(13) 0.05785(17) 0.9259(9)
H2 H 0.0939 0.0398 1.0416
C4 C 0.2530(13) 0.03857(17) 0.7383(9)
H3 H 0.2574 0.0075 0.7245
C5 C 0.3432(13) 0.06488(17) 0.5721(9)
H4 H 0.4120 0.0519 0.4432
C6 C 0.3349(12) 0.11030(16) 0.5904(9)
H5 H 0.3955 0.1283 0.4741
N1 N 0.1991(10) 0.17567(13) 0.8023(7)
H6 H 0.262(15) 0.1852(18) 0.947(11)
N2 N 0.4198(11) 0.20052(14) 0.6761(8)
H7 H 0.384(15) 0.234(2) 0.707(10)
H8 H 0.303(17) 0.1992(18) 0.532(12)
H9 H 0.652(17) 0.190(2) 0.712(10)
Cl1 Cl -0.2104(3) 0.20115(4) 0.2468(2)
loop_
_geom_bond_atom_site_label_1
_geom_bond_atom_site_label_2
_geom_bond_site_symmetry_1
_geom_bond_site_symmetry_2
C1 C2 1_555 1_555
C2 H1 1_555 1_555
C3 C2 1_555 1_555
H2 C3 1_555 1_555
C4 C3 1_555 1_555
H3 C4 1_555 1_555
C5 C4 1_555 1_555
H4 C5 1_555 1_555
C6 C1 1_555 1_555
H5 C6 1_555 1_555
N1 C1 1_555 1_555
H6 N1 1_555 1_555
N2 N1 1_555 1_555
H7 N2 1_555 1_555
H8 N2 1_555 1_555
H9 N2 1_555 1_555
C5 C6 1_555 1_555

#END
