
#######################################################################
#
#                 Cambridge Crystallographic Data Centre
#                                CCDC 
#
#######################################################################
#
# If this CIF has been generated from an entry in the Cambridge 
# Structural Database, then it will include bibliographic, chemical, 
# crystal, experimental, refinement or atomic coordinate data resulting 
# from the CCDC's data processing and validation procedures.
#
#######################################################################

data_PIBJAO
_chemical_formula_moiety         'C22 H27 N1 O4'
_chemical_name_systematic        
't-butyl [1-hydroxy-2-(4-methoxyphenyl)-4-phenylbut-3-en-2-yl]carbamate unknown solvate'
_symmetry_cell_setting           monoclinic
_symmetry_space_group_name_H-M   'C 2'
_symmetry_Int_Tables_number      5
_space_group_name_Hall           'C 2y'
loop_
_symmetry_equiv_pos_site_id
_symmetry_equiv_pos_as_xyz
1 x,y,z
2 -x,y,-z
3 1/2+x,1/2+y,z
4 1/2-x,1/2+y,-z
_cell_length_a                   31.0606(10)
_cell_length_b                   5.9778(2)
_cell_length_c                   15.6347(5)
_cell_angle_alpha                90
_cell_angle_beta                 114.6130(10)
_cell_angle_gamma                90
_cell_volume                     2639.2
_exptl_crystal_colour            colorless
_exptl_crystal_description       block
_cell_formula_units_Z            4
loop_
_atom_site_label
_atom_site_type_symbol
_atom_site_fract_x
_atom_site_fract_y
_atom_site_fract_z
O1 O 0.27070(10) 0.7445(6) 0.6530(2)
O2 O 0.39655(9) 1.0551(4) 0.43834(18)
H1 H 0.3740 0.9999 0.3942
O3 O 0.33659(9) 0.4223(4) 0.27075(16)
O4 O 0.33909(10) 0.7891(4) 0.30817(19)
N1 N 0.38873(9) 0.5347(4) 0.40951(17)
H2 H 0.4020 0.4082 0.4100
C1 C 0.36858(10) 0.6925(5) 0.5345(2)
C2 C 0.30164(12) 0.7163(7) 0.6116(2)
C3 C 0.35371(12) 0.5972(5) 0.3285(2)
C4 C 0.33485(13) 0.5272(6) 0.5193(3)
H3 H 0.3347 0.4036 0.4831
C5 C 0.36782(12) 0.8720(6) 0.5904(3)
H4 H 0.3902 0.9851 0.6027
C6 C 0.40692(10) 0.6626(5) 0.4986(2)
C7 C 0.30143(13) 0.5398(7) 0.5562(3)
H5 H 0.2788 0.4278 0.5432
C8 C 0.42884(12) 0.8859(6) 0.4872(3)
H6 H 0.4491 0.9418 0.5493
H7 H 0.4489 0.8564 0.4546
C9 C 0.33474(14) 0.8880(7) 0.6285(3)
H8 H 0.3346 1.0112 0.6647
C10 C 0.44718(11) 0.5176(6) 0.5648(2)
H9 H 0.4713 0.4864 0.5459
C11 C 0.45198(14) 0.4312(8) 0.6453(3)
H10 H 0.4289 0.4679 0.6661
C12 C 0.30317(14) 0.4557(7) 0.1708(3)
C13 C 0.49001(14) 0.2828(9) 0.7058(3)
C14 C 0.23760(16) 0.5692(10) 0.6407(4)
H11 H 0.2205 0.5381 0.5749
H12 H 0.2158 0.6142 0.6666
H13 H 0.2542 0.4372 0.6725
C15 C 0.25737(15) 0.5566(11) 0.1653(3)
H14 H 0.2464 0.4735 0.2049
H15 H 0.2339 0.5508 0.1014
H16 H 0.2627 0.7094 0.1859
C16 C 0.32668(19) 0.5978(9) 0.1223(3)
H17 H 0.3293 0.7491 0.1445
H18 H 0.3080 0.5946 0.0556
H19 H 0.3577 0.5397 0.1360
C17 C 0.56280(17) 0.0813(13) 0.7459(4)
H20 H 0.5901 0.0564 0.7367
C18 C 0.53179(13) 0.2403(10) 0.6954(3)
H21 H 0.5385 0.3243 0.6524
C19 C 0.48080(17) 0.1495(12) 0.7679(4)
H22 H 0.4530 0.1709 0.7757
C20 C 0.2959(2) 0.2170(9) 0.1333(3)
H23 H 0.3260 0.1518 0.1443
H24 H 0.2761 0.2185 0.0669
H25 H 0.2809 0.1303 0.1649
C21 C 0.5542(2) -0.0429(14) 0.8102(5)
H26 H 0.5766 -0.1453 0.8478
C22 C 0.5123(3) -0.0171(15) 0.8195(5)
H27 H 0.5051 -0.1095 0.8596
loop_
_geom_bond_atom_site_label_1
_geom_bond_atom_site_label_2
_geom_bond_site_symmetry_1
_geom_bond_site_symmetry_2
O1 C2 1_555 1_555
O2 H1 1_555 1_555
O3 C3 1_555 1_555
O4 C3 1_555 1_555
N1 H2 1_555 1_555
C1 C4 1_555 1_555
C2 C7 1_555 1_555
C3 N1 1_555 1_555
C4 H3 1_555 1_555
C5 C1 1_555 1_555
H4 C5 1_555 1_555
C6 N1 1_555 1_555
C7 C4 1_555 1_555
H5 C7 1_555 1_555
C8 O2 1_555 1_555
H6 C8 1_555 1_555
H7 C8 1_555 1_555
C9 C2 1_555 1_555
H8 C9 1_555 1_555
C10 C6 1_555 1_555
H9 C10 1_555 1_555
C11 C10 1_555 1_555
H10 C11 1_555 1_555
C12 O3 1_555 1_555
C13 C11 1_555 1_555
C14 O1 1_555 1_555
H11 C14 1_555 1_555
H12 C14 1_555 1_555
H13 C14 1_555 1_555
C15 C12 1_555 1_555
H14 C15 1_555 1_555
H15 C15 1_555 1_555
H16 C15 1_555 1_555
C16 C12 1_555 1_555
H17 C16 1_555 1_555
H18 C16 1_555 1_555
H19 C16 1_555 1_555
C17 H20 1_555 1_555
C18 C13 1_555 1_555
H21 C18 1_555 1_555
C19 C13 1_555 1_555
H22 C19 1_555 1_555
C20 C12 1_555 1_555
H23 C20 1_555 1_555
H24 C20 1_555 1_555
H25 C20 1_555 1_555
C21 C17 1_555 1_555
H26 C21 1_555 1_555
C22 C19 1_555 1_555
H27 C22 1_555 1_555
C1 C6 1_555 1_555
C5 C9 1_555 1_555
C6 C8 1_555 1_555
C17 C18 1_555 1_555
C21 C22 1_555 1_555

#END
