
#######################################################################
#
#                 Cambridge Crystallographic Data Centre
#                                CCDC 
#
#######################################################################
#
# If this CIF has been generated from an entry in the Cambridge 
# Structural Database, then it will include bibliographic, chemical, 
# crystal, experimental, refinement or atomic coordinate data resulting 
# from the CCDC's data processing and validation procedures.
#
#######################################################################

data_PIBMEV
_chemical_formula_moiety         'C23 H27 Cl2 N3 O2,C7 H8 O2'
_chemical_name_systematic        
'7-{4-[4-(2,3-dichlorophenyl)piperazin-1-yl]butoxy}-3,4-dihydroquinolin-2(1H)-one 5-methylbenzene-1,3-diol'
_symmetry_cell_setting           monoclinic
_symmetry_space_group_name_H-M   'P 21/n'
_symmetry_Int_Tables_number      14
_space_group_name_Hall           '-P 2yn'
loop_
_symmetry_equiv_pos_site_id
_symmetry_equiv_pos_as_xyz
1 x,y,z
2 1/2-x,1/2+y,1/2-z
3 -x,-y,-z
4 1/2+x,1/2-y,1/2+z
_cell_length_a                   14.6340(4)
_cell_length_b                   9.8587(3)
_cell_length_c                   21.6049(6)
_cell_angle_alpha                90
_cell_angle_beta                 110.0530(10)
_cell_angle_gamma                90
_cell_volume                     2928.02
_exptl_crystal_colour            colorless
_exptl_crystal_description       'Hexagonal plate'
_cell_formula_units_Z            4
loop_
_atom_site_label
_atom_site_type_symbol
_atom_site_fract_x
_atom_site_fract_y
_atom_site_fract_z
O1 O 0.12349(9) 0.83207(17) 0.21944(7)
H1 H 0.1487 0.7787 0.2496
O2 O 0.3781(3) 0.6577(3) 0.14829(19)
H2 H 0.3964 0.6597 0.1164
C1 C 0.1699(7) 0.8203(11) 0.1705(4)
C2 C 0.2535(3) 0.7443(4) 0.1841(2)
H3 H 0.2820 0.7031 0.2249
C3 C 0.2939(8) 0.7310(13) 0.1345(5)
C4 C 0.2496(5) 0.7929(7) 0.0734(3)
H4 H 0.2772 0.7835 0.0407
C5 C 0.1655(4) 0.8681(5) 0.0609(2)
C6 C 0.1274(4) 0.8843(5) 0.1110(3)
H5 H 0.0729 0.9386 0.1043
C7 C 0.1183(5) 0.9358(6) -0.0046(2)
H6 H 0.1655 0.9904 -0.0149
H7 H 0.0660 0.9923 -0.0026
H8 H 0.0934 0.8680 -0.0380
Cl1 Cl 0.64568(3) 0.24533(4) 0.09315(2)
Cl2 Cl 0.87196(3) 0.23405(6) 0.15584(3)
O4 O -0.53993(8) 0.63719(13) 0.04071(7)
O5 O -0.06972(7) 0.46951(12) 0.06305(6)
N1 N -0.39201(9) 0.60938(14) 0.03321(7)
H16 H -0.4126 0.5392 0.0087
N2 N 0.33906(9) 0.21366(13) 0.16071(7)
N3 N 0.53904(9) 0.14698(12) 0.17973(7)
C15 C -0.45690(11) 0.68067(18) 0.05139(9)
C16 C -0.42229(15) 0.8121(2) 0.08659(13)
H17 H -0.4756 0.8765 0.0733
H18 H -0.4054 0.7969 0.1335
C17 C -0.33771(16) 0.8737(2) 0.07474(16)
H19 H -0.3094 0.9421 0.1081
H20 H -0.3596 0.9184 0.0322
C18 C -0.26108(13) 0.77092(18) 0.07616(11)
C19 C -0.29196(10) 0.64209(15) 0.05168(8)
C20 C -0.22723(10) 0.54411(15) 0.04701(8)
H21 H -0.2496 0.4593 0.0295
C21 C -0.12836(11) 0.57346(17) 0.06871(8)
C22 C -0.09541(12) 0.69923(19) 0.09507(10)
H22 H -0.0292 0.7186 0.1106
C23 C -0.16197(14) 0.7960(2) 0.09810(12)
H23 H -0.1395 0.8808 0.1155
C24 C 0.03334(10) 0.48567(19) 0.09293(9)
H24 H 0.0497 0.5134 0.1385
H25 H 0.0564 0.5546 0.0698
C25 C 0.07965(11) 0.35164(19) 0.08915(10)
H26 H 0.0630 0.3255 0.0433
H27 H 0.0540 0.2831 0.1110
C26 C 0.18957(11) 0.35724(18) 0.12111(10)
H28 H 0.2154 0.4241 0.0986
H29 H 0.2062 0.3855 0.1667
C27 C 0.23573(12) 0.22106(19) 0.11864(11)
H30 H 0.1999 0.1514 0.1324
H31 H 0.2303 0.2021 0.0735
C28 C 0.37448(12) 0.07261(17) 0.16421(11)
H32 H 0.3663 0.0409 0.1201
H33 H 0.3359 0.0149 0.1821
C29 C 0.48082(11) 0.06165(17) 0.20705(10)
H34 H 0.4892 0.0906 0.2516
H35 H 0.5021 -0.0319 0.2087
C30 C 0.39977(11) 0.29846(17) 0.13428(9)
H36 H 0.3786 0.3921 0.1321
H37 H 0.3923 0.2691 0.0900
C31 C 0.50569(11) 0.28838(15) 0.17748(9)
H38 H 0.5447 0.3462 0.1600
H39 H 0.5135 0.3191 0.2217
C32 C 0.64101(11) 0.13017(14) 0.20651(8)
C33 C 0.68771(12) 0.06353(17) 0.26562(8)
H40 H 0.6509 0.0291 0.2896
C34 C 0.78749(12) 0.0473(2) 0.28956(9)
H41 H 0.8164 -0.0003 0.3285
C35 C 0.84467(12) 0.10055(19) 0.25665(9)
H42 H 0.9120 0.0921 0.2737
C36 C 0.79988(11) 0.16703(16) 0.19758(8)
C37 C 0.69959(10) 0.17924(15) 0.17137(7)
O3? O 0.40252(19) 0.5839(3) 0.20932(16)
H9? H 0.4012 0.5492 0.2435
C8? C 0.1822(6) 0.7834(10) 0.1891(4)
C9? C 0.2622(2) 0.6978(4) 0.2180(2)
H10? H 0.2744 0.6641 0.2603
C10? C 0.3229(3) 0.6638(4) 0.1833(2)
C11? C 0.3031(8) 0.7137(12) 0.1188(5)
H11? H 0.3438 0.6915 0.0953
C12? C 0.2224(5) 0.7963(7) 0.0904(3)
C13? C 0.1624(4) 0.8306(5) 0.1258(3)
H12? H 0.1086 0.8857 0.1066
C14? C 0.2011(5) 0.8488(5) 0.0209(2)
H13? H 0.1582 0.9254 0.0135
H14? H 0.1709 0.7785 -0.0101
H15? H 0.2608 0.8757 0.0153
loop_
_geom_bond_atom_site_label_1
_geom_bond_atom_site_label_2
_geom_bond_site_symmetry_1
_geom_bond_site_symmetry_2
O1 H1 1_555 1_555
O2 H2 1_555 1_555
C1 O1 1_555 1_555
C2 C1 1_555 1_555
H3 C2 1_555 1_555
C3 O2 1_555 1_555
C4 C3 1_555 1_555
H4 C4 1_555 1_555
C5 C4 1_555 1_555
C6 C1 1_555 1_555
H5 C6 1_555 1_555
C7 C5 1_555 1_555
H6 C7 1_555 1_555
H7 C7 1_555 1_555
H8 C7 1_555 1_555
Cl1 C37 1_555 1_555
Cl2 C36 1_555 1_555
O4 C15 1_555 1_555
O5 C21 1_555 1_555
N1 H16 1_555 1_555
N2 C27 1_555 1_555
N3 C29 1_555 1_555
C15 N1 1_555 1_555
C16 C15 1_555 1_555
H17 C16 1_555 1_555
H18 C16 1_555 1_555
C17 C16 1_555 1_555
H19 C17 1_555 1_555
H20 C17 1_555 1_555
C18 C17 1_555 1_555
C19 N1 1_555 1_555
C20 C19 1_555 1_555
H21 C20 1_555 1_555
C21 C20 1_555 1_555
C22 C21 1_555 1_555
H22 C22 1_555 1_555
C23 C18 1_555 1_555
H23 C23 1_555 1_555
C24 O5 1_555 1_555
H24 C24 1_555 1_555
H25 C24 1_555 1_555
C25 C24 1_555 1_555
H26 C25 1_555 1_555
H27 C25 1_555 1_555
C26 C25 1_555 1_555
H28 C26 1_555 1_555
H29 C26 1_555 1_555
C27 C26 1_555 1_555
H30 C27 1_555 1_555
H31 C27 1_555 1_555
C28 N2 1_555 1_555
H32 C28 1_555 1_555
H33 C28 1_555 1_555
C29 C28 1_555 1_555
H34 C29 1_555 1_555
H35 C29 1_555 1_555
C30 N2 1_555 1_555
H36 C30 1_555 1_555
H37 C30 1_555 1_555
C31 N3 1_555 1_555
H38 C31 1_555 1_555
H39 C31 1_555 1_555
C32 N3 1_555 1_555
C33 C32 1_555 1_555
H40 C33 1_555 1_555
C34 C33 1_555 1_555
H41 C34 1_555 1_555
C35 C34 1_555 1_555
H42 C35 1_555 1_555
C36 C35 1_555 1_555
C37 C32 1_555 1_555
C2 C3 1_555 1_555
C5 C6 1_555 1_555
C18 C19 1_555 1_555
C22 C23 1_555 1_555
C30 C31 1_555 1_555
C36 C37 1_555 1_555

#END
