
#######################################################################
#
#                 Cambridge Crystallographic Data Centre
#                                CCDC 
#
#######################################################################
#
# If this CIF has been generated from an entry in the Cambridge 
# Structural Database, then it will include bibliographic, chemical, 
# crystal, experimental, refinement or atomic coordinate data resulting 
# from the CCDC's data processing and validation procedures.
#
#######################################################################

data_PIBPEX
_chemical_formula_moiety         'C16 H18 Cl1 N3 O1,C1 H4 O1'
_chemical_name_systematic        
'2-((4-Chlorobenzyl)amino)-5-cyclohexylidene-1,5-dihydro-4H-imidazol-4-one methanol solvate'
_symmetry_cell_setting           monoclinic
_symmetry_space_group_name_H-M   'P 21/n'
_symmetry_Int_Tables_number      14
_space_group_name_Hall           '-P 2yn'
loop_
_symmetry_equiv_pos_site_id
_symmetry_equiv_pos_as_xyz
1 x,y,z
2 1/2-x,1/2+y,1/2-z
3 -x,-y,-z
4 1/2+x,1/2-y,1/2+z
_cell_length_a                   5.9895(12)
_cell_length_b                   12.161(2)
_cell_length_c                   24.289(5)
_cell_angle_alpha                90
_cell_angle_beta                 94.09(3)
_cell_angle_gamma                90
_cell_volume                     1764.66
_exptl_crystal_colour            colorless
_exptl_crystal_description       block
_cell_formula_units_Z            4
loop_
_atom_site_label
_atom_site_type_symbol
_atom_site_fract_x
_atom_site_fract_y
_atom_site_fract_z
Cl1 Cl 0.29365(12) 0.82565(6) -0.00434(2)
O1 O -0.3188(2) 0.80178(11) -0.32788(6)
N1 N -0.3329(3) 0.93035(13) -0.25875(6)
N2 N -0.1459(3) 1.06913(13) -0.29683(6)
H1 H -0.0813 1.1350 -0.2969
N3 N -0.2819(3) 1.09637(13) -0.21001(6)
H2 H -0.2266 1.1643 -0.2080
C1 C -0.0297(3) 0.88035(17) -0.41778(8)
H3 H -0.0998 0.8963 -0.4551
H4 H -0.1145 0.8199 -0.4016
C2 C 0.2134(4) 0.8451(2) -0.42205(9)
H5 H 0.2776 0.8210 -0.3853
H6 H 0.2186 0.7821 -0.4477
C3 C 0.3525(4) 0.9390(2) -0.44263(10)
H7 H 0.3004 0.9566 -0.4812
H8 H 0.5110 0.9159 -0.4422
C4 C 0.3351(4) 1.0416(2) -0.40711(11)
H9 H 0.4171 1.1026 -0.4236
H10 H 0.4074 1.0271 -0.3699
C5 C 0.0930(3) 1.07659(17) -0.40175(8)
H11 H 0.0881 1.1380 -0.3751
H12 H 0.0263 1.1023 -0.4379
C6 C -0.0385(3) 0.98081(16) -0.38222(8)
C7 C -0.1411(3) 0.98175(16) -0.33477(7)
C8 C -0.2712(3) 0.89379(16) -0.30847(8)
C9 C -0.2545(3) 1.03321(15) -0.25321(7)
C10 C -0.3773(4) 1.05526(17) -0.16040(8)
H13 H -0.5009 1.0039 -0.1713
H14 H -0.4413 1.1177 -0.1406
C11 C -0.2075(3) 0.99673(16) -0.12166(7)
C12 C -0.0054(4) 1.04614(18) -0.10554(9)
H15 H 0.0269 1.1169 -0.1195
C13 C 0.1502(4) 0.99469(19) -0.06962(9)
H16 H 0.2889 1.0291 -0.0589
C14 C 0.0998(4) 0.89207(19) -0.04956(8)
C15 C -0.1008(4) 0.84177(19) -0.06426(9)
H17 H -0.1340 0.7717 -0.0496
C16 C -0.2542(4) 0.89433(18) -0.10065(9)
H18 H -0.3928 0.8597 -0.1113
O2 O 0.0717(2) 1.27254(12) -0.29383(6)
H19 H 0.0008 1.3229 -0.2791
C17 C 0.2966(5) 1.2845(3) -0.27484(17)
H20 H 0.3449 1.3602 -0.2811
H21 H 0.3886 1.2336 -0.2948
H22 H 0.3138 1.2680 -0.2353
loop_
_geom_bond_atom_site_label_1
_geom_bond_atom_site_label_2
_geom_bond_site_symmetry_1
_geom_bond_site_symmetry_2
Cl1 C14 1_555 1_555
O1 C8 1_555 1_555
N1 C8 1_555 1_555
N2 H1 1_555 1_555
N3 H2 1_555 1_555
C1 H3 1_555 1_555
H4 C1 1_555 1_555
C2 C1 1_555 1_555
H5 C2 1_555 1_555
H6 C2 1_555 1_555
C3 C2 1_555 1_555
H7 C3 1_555 1_555
H8 C3 1_555 1_555
C4 C3 1_555 1_555
H9 C4 1_555 1_555
H10 C4 1_555 1_555
C5 C4 1_555 1_555
H11 C5 1_555 1_555
H12 C5 1_555 1_555
C6 C1 1_555 1_555
C7 N2 1_555 1_555
C8 C7 1_555 1_555
C9 N1 1_555 1_555
C10 N3 1_555 1_555
H13 C10 1_555 1_555
H14 C10 1_555 1_555
C11 C10 1_555 1_555
C12 C11 1_555 1_555
H15 C12 1_555 1_555
C13 C12 1_555 1_555
H16 C13 1_555 1_555
C14 C13 1_555 1_555
C15 C14 1_555 1_555
H17 C15 1_555 1_555
C16 C11 1_555 1_555
H18 C16 1_555 1_555
O2 H19 1_555 1_555
C17 O2 1_555 1_555
H20 C17 1_555 1_555
H21 C17 1_555 1_555
H22 C17 1_555 1_555
N2 C9 1_555 1_555
N3 C9 1_555 1_555
C5 C6 1_555 1_555
C6 C7 1_555 1_555
C15 C16 1_555 1_555

#END
