
#######################################################################
#
#                 Cambridge Crystallographic Data Centre
#                                CCDC 
#
#######################################################################
#
# If this CIF has been generated from an entry in the Cambridge 
# Structural Database, then it will include bibliographic, chemical, 
# crystal, experimental, refinement or atomic coordinate data resulting 
# from the CCDC's data processing and validation procedures.
#
#######################################################################

data_PIBQAV
_chemical_formula_moiety         'C32 H40 O9'
_chemical_name_systematic        
'4-(furan-3-yl)-6-hydroxy-8-(2-methoxy-2-oxoethyl)-4a,7,9,9-tetramethyl-2,13-dioxo-1,4,4a,5,6,6a,7,8,9,10,11,12b-dodecahydro-2H-7,11-methanocycloocta[3,4]benzo[1,2-c]pyran-10-yl 2-methylbut-2-enoate'
_symmetry_cell_setting           orthorhombic
_symmetry_space_group_name_H-M   'P 21 21 21'
_symmetry_Int_Tables_number      19
_space_group_name_Hall           'P 2ac 2ab'
loop_
_symmetry_equiv_pos_site_id
_symmetry_equiv_pos_as_xyz
1 x,y,z
2 1/2-x,-y,1/2+z
3 -x,1/2+y,1/2-z
4 1/2+x,1/2-y,-z
_cell_length_a                   11.49100(10)
_cell_length_b                   13.49460(10)
_cell_length_c                   18.7471(2)
_cell_angle_alpha                90
_cell_angle_beta                 90
_cell_angle_gamma                90
_cell_volume                     2907.05
_exptl_crystal_description       block
_cell_formula_units_Z            4
loop_
_atom_site_label
_atom_site_type_symbol
_atom_site_fract_x
_atom_site_fract_y
_atom_site_fract_z
O1 O 0.71823(17) 0.57029(16) 0.53641(11)
O2 O 0.72286(18) 0.63829(16) 0.75271(12)
O3 O 0.51426(18) 0.33726(18) 0.64769(11)
O4 O 0.8560(2) 0.70768(18) 0.82297(12)
O5 O 1.09079(17) 0.42822(18) 0.54288(12)
O6 O 0.6889(2) 0.5312(2) 0.42202(11)
O7 O 0.94349(19) 0.4074(2) 0.79936(12)
H1 H 0.9155 0.4282 0.8367
O8 O 0.4744(3) 0.2796(2) 0.54169(14)
O9 O 0.4701(3) 0.4737(2) 0.86419(15)
C1 C 0.8228(3) 0.65867(19) 0.76494(15)
C2 C 0.9986(2) 0.4552(2) 0.56763(15)
C3 C 0.8186(2) 0.34788(19) 0.62014(14)
C4 C 0.8538(2) 0.3956(2) 0.74784(14)
H2 H 0.8055 0.4555 0.7473
C5 C 0.9000(2) 0.5712(2) 0.65318(15)
H3 H 0.8204 0.5466 0.6593
C6 C 0.8898(2) 0.4637(2) 0.52426(14)
H4 H 0.9073 0.4447 0.4750
C7 C 0.8083(2) 0.3880(2) 0.55584(14)
H5 H 0.7457 0.3678 0.5280
C8 C 0.5977(2) 0.3622(2) 0.70350(14)
H6 H 0.6413 0.4207 0.6877
C9 C 0.9102(2) 0.3822(2) 0.67377(14)
H7 H 0.9669 0.3283 0.6782
C10 C 0.9788(2) 0.4757(2) 0.64688(15)
C11 C 0.5271(3) 0.3915(2) 0.76681(15)
C12 C 0.7455(3) 0.2595(2) 0.64359(15)
H8 H 0.7993 0.2040 0.6505
C13 C 0.8971(3) 0.6355(2) 0.58451(17)
C14 C 0.9267(3) 0.6318(3) 0.72133(17)
H9 H 0.9797 0.5938 0.7509
H10 H 0.9664 0.6922 0.7076
C15 C 0.8434(2) 0.5716(2) 0.52475(16)
H11 H 0.8598 0.6025 0.4785
C16 C 0.5438(3) 0.2832(2) 0.58958(16)
C17 C 1.0986(2) 0.4842(3) 0.68307(19)
H12 H 1.1466 0.4294 0.6687
H13 H 1.0890 0.4831 0.7339
H14 H 1.1350 0.5452 0.6691
C18 C 0.6855(3) 0.2780(2) 0.71626(15)
C19 C 0.7789(3) 0.3080(2) 0.76961(15)
H15 H 0.7414 0.3237 0.8146
H16 H 0.8294 0.2515 0.7778
C20 C 0.6547(3) 0.2252(2) 0.59017(17)
H17 H 0.6886 0.2280 0.5428
H18 H 0.6362 0.1564 0.6001
C21 C 0.8208(4) 0.7283(3) 0.5954(2)
H19 H 0.7471 0.7091 0.6152
H20 H 0.8086 0.7605 0.5504
H21 H 0.8591 0.7731 0.6275
C22 C 0.6249(4) 0.1840(2) 0.74354(19)
H22 H 0.6061 0.1918 0.7931
H23 H 0.6758 0.1282 0.7377
H24 H 0.5547 0.1732 0.7168
C23 C 0.5498(3) 0.4668(3) 0.8123(2)
H25 H 0.6134 0.5090 0.8081
C24 C 1.0183(3) 0.6712(3) 0.5602(2)
H26 H 1.0517 0.7126 0.5965
H27 H 1.0109 0.7084 0.5167
H28 H 1.0677 0.6150 0.5522
C25 C 0.3932(4) 0.3988(3) 0.8516(2)
H29 H 0.3265 0.3862 0.8781
C26 C 0.7642(4) 0.7321(3) 0.8733(2)
H30 H 0.7093 0.7758 0.8510
H31 H 0.7973 0.7640 0.9143
H32 H 0.7252 0.6725 0.8879
C27 C 0.4280(4) 0.3466(4) 0.7958(3)
H33 H 0.3924 0.2895 0.7786
C28 C 0.6506(3) 0.5460(2) 0.48132(15)
C29 C 0.5267(3) 0.5355(3) 0.50040(18)
C30 C 0.4460(8) 0.4935(10) 0.4460(7)
H34 H 0.4903 0.4675 0.4068
H35 H 0.3950 0.5446 0.4291
H36 H 0.4009 0.4413 0.4671
C31 C 0.4849(8) 0.5774(9) 0.5632(5)
H37 H 0.5280 0.6230 0.5894
C32 C 0.3616(6) 0.5432(8) 0.5866(5)
H38 H 0.3406 0.5759 0.6302
H39 H 0.3617 0.4728 0.5938
H40 H 0.3063 0.5599 0.5501
C33? C 0.3391(7) 0.4799(11) 0.4727(7)
H41? H 0.2956 0.4401 0.4397
H42? H 0.3105 0.5467 0.4716
H43? H 0.3303 0.4534 0.5200
C34? C 0.4639(10) 0.4789(16) 0.4525(9)
H44? H 0.4951 0.4453 0.4136
C35? C 0.4961(13) 0.5530(12) 0.5745(6)
H45? H 0.5535 0.5950 0.5961
H46? H 0.4931 0.4909 0.5995
H47? H 0.4213 0.5846 0.5768
loop_
_geom_bond_atom_site_label_1
_geom_bond_atom_site_label_2
_geom_bond_site_symmetry_1
_geom_bond_site_symmetry_2
O1 C15 1_555 1_555
O2 C1 1_555 1_555
O3 C8 1_555 1_555
O4 C1 1_555 1_555
O5 C2 1_555 1_555
O6 C28 1_555 1_555
O7 H1 1_555 1_555
O8 C16 1_555 1_555
O9 C23 1_555 1_555
C1 C14 1_555 1_555
C2 C6 1_555 1_555
C3 C7 1_555 1_555
C4 O7 1_555 1_555
H2 C4 1_555 1_555
C5 H3 1_555 1_555
C6 H4 1_555 1_555
C7 C6 1_555 1_555
H5 C7 1_555 1_555
C8 H6 1_555 1_555
C9 C3 1_555 1_555
H7 C9 1_555 1_555
C10 C2 1_555 1_555
C11 C8 1_555 1_555
C12 C3 1_555 1_555
H8 C12 1_555 1_555
C13 C5 1_555 1_555
C14 C5 1_555 1_555
H9 C14 1_555 1_555
H10 C14 1_555 1_555
C15 C6 1_555 1_555
H11 C15 1_555 1_555
C16 O3 1_555 1_555
C17 C10 1_555 1_555
H12 C17 1_555 1_555
H13 C17 1_555 1_555
H14 C17 1_555 1_555
C18 C8 1_555 1_555
C19 C4 1_555 1_555
H15 C19 1_555 1_555
H16 C19 1_555 1_555
C20 C12 1_555 1_555
H17 C20 1_555 1_555
H18 C20 1_555 1_555
C21 C13 1_555 1_555
H19 C21 1_555 1_555
H20 C21 1_555 1_555
H21 C21 1_555 1_555
C22 C18 1_555 1_555
H22 C22 1_555 1_555
H23 C22 1_555 1_555
H24 C22 1_555 1_555
C23 C11 1_555 1_555
H25 C23 1_555 1_555
C24 C13 1_555 1_555
H26 C24 1_555 1_555
H27 C24 1_555 1_555
H28 C24 1_555 1_555
C25 O9 1_555 1_555
H29 C25 1_555 1_555
C26 O4 1_555 1_555
H30 C26 1_555 1_555
H31 C26 1_555 1_555
H32 C26 1_555 1_555
C27 C11 1_555 1_555
H33 C27 1_555 1_555
C28 O1 1_555 1_555
C29 C28 1_555 1_555
C30 C29 1_555 1_555
H34 C30 1_555 1_555
H35 C30 1_555 1_555
H36 C30 1_555 1_555
C31 C29 1_555 1_555
H37 C31 1_555 1_555
C32 C31 1_555 1_555
H38 C32 1_555 1_555
H39 C32 1_555 1_555
H40 C32 1_555 1_555
C4 C9 1_555 1_555
C5 C10 1_555 1_555
C9 C10 1_555 1_555
C12 C18 1_555 1_555
C13 C15 1_555 1_555
C16 C20 1_555 1_555
C18 C19 1_555 1_555
C25 C27 1_555 1_555

#END
