
#######################################################################
#
#                 Cambridge Crystallographic Data Centre
#                                CCDC 
#
#######################################################################
#
# If this CIF has been generated from an entry in the Cambridge 
# Structural Database, then it will include bibliographic, chemical, 
# crystal, experimental, refinement or atomic coordinate data resulting 
# from the CCDC's data processing and validation procedures.
#
#######################################################################

data_PIBWIH
_chemical_formula_moiety         'C56 H46'
_chemical_name_systematic        
7,20-Di-t-butyl-13,14-diphenyl-8,19-dihydrodiindeno(1,2-b:2',1'-p)pentahelicene
_symmetry_cell_setting           monoclinic
_symmetry_space_group_name_H-M   'C 2/c'
_symmetry_Int_Tables_number      15
_space_group_name_Hall           '-C 2yn'
loop_
_symmetry_equiv_pos_site_id
_symmetry_equiv_pos_as_xyz
1 x,y,z
2 1/2+x,1/2+y,z
3 -x,y,1/2-z
4 1/2-x,1/2+y,1/2-z
5 -x,-y,-z
6 1/2-x,1/2-y,-z
7 x,-y,1/2+z
8 1/2+x,1/2-y,1/2+z
_cell_length_a                   18.5363(13)
_cell_length_b                   15.7011(11)
_cell_length_c                   13.4032(9)
_cell_angle_alpha                90
_cell_angle_beta                 93.6380(10)
_cell_angle_gamma                90
_cell_volume                     3893.01
_exptl_crystal_colour            yellow
_cell_formula_units_Z            4
_exptl_crystal_recrystallization_method dichloromethane/hexane
loop_
_atom_site_label
_atom_site_type_symbol
_atom_site_fract_x
_atom_site_fract_y
_atom_site_fract_z
C1 C 0.01392(10) 0.51629(11) 0.29746(15)
H1 H 0.0202 0.5675 0.3317
C2 C 0.03384(8) 0.43885(10) 0.34581(14)
C3 C 0.02324(8) 0.35952(10) 0.29574(12)
C4 C 0.06385(8) 0.28631(10) 0.33763(11)
C5 C 0.09128(7) 0.22064(10) 0.27708(11)
C6 C 0.13422(8) 0.15822(10) 0.32446(12)
C7 C 0.18622(8) 0.09812(11) 0.28204(12)
C8 C 0.21604(8) 0.09381(12) 0.18913(13)
H2 H 0.1989 0.1287 0.1368
C9 C 0.27161(9) 0.03681(13) 0.17613(15)
H3 H 0.2923 0.0345 0.1148
C10 C 0.29691(11) -0.01667(14) 0.25206(16)
H4 H 0.3331 -0.0559 0.2409
C11 C 0.26863(11) -0.01199(14) 0.34454(16)
H5 H 0.2858 -0.0476 0.3962
C12 C 0.21439(9) 0.04631(12) 0.35953(13)
C13 C 0.18295(10) 0.06904(12) 0.45623(13)
H6 H 0.2207 0.0808 0.5079
H7 H 0.1524 0.0236 0.4787
C14 C 0.13894(8) 0.14858(11) 0.43021(12)
C15 C 0.11482(8) 0.21178(11) 0.49221(12)
C16 C 0.08669(8) 0.28716(10) 0.44204(12)
C17 C 0.08946(9) 0.36856(12) 0.49082(13)
H8 H 0.1064 0.3716 0.5575
C18 C 0.06845(9) 0.44034(12) 0.44316(14)
H9 H 0.0768 0.4924 0.4748
C19 C 0.08818(8) 0.22033(11) 0.16560(12)
C20 C 0.12270(13) 0.28177(14) 0.11362(16)
H10 H 0.1403 0.3304 0.1465
C21 C 0.13147(19) 0.2717(2) 0.0116(2)
H11 H 0.1551 0.3135 -0.0231
C22 C 0.10574(19) 0.2010(3) -0.03719(19)
H12 H 0.1133 0.1936 -0.1046
C23 C 0.06879(14) 0.1409(2) 0.01264(19)
H13 H 0.0498 0.0935 -0.0215
C24 C 0.05956(9) 0.15006(13) 0.11333(14)
H14 H 0.0340 0.1090 0.1466
C25 C 0.12402(9) 0.20447(12) 0.60808(12)
C26 C 0.11001(12) 0.11278(15) 0.64326(15)
H15 H 0.1089 0.1119 0.7148
H16 H 0.1480 0.0762 0.6233
H17 H 0.0645 0.0932 0.6137
C27 C 0.20162(11) 0.23059(17) 0.64290(16)
H18 H 0.2082 0.2246 0.7142
H19 H 0.2096 0.2888 0.6247
H20 H 0.2354 0.1946 0.6115
C28 C 0.06984(13) 0.25856(17) 0.66369(15)
H21 H 0.0255 0.2638 0.6231
H22 H 0.0898 0.3141 0.6769
H23 H 0.0604 0.2314 0.7257
C1B C -0.01392(10) 0.51629(11) 0.20254(15)
H1B H -0.0202 0.5675 0.1683
C2B C -0.03384(8) 0.43885(10) 0.15419(14)
C3B C -0.02324(8) 0.35952(10) 0.20426(12)
C4B C -0.06385(8) 0.28631(10) 0.16237(11)
C5B C -0.09128(7) 0.22064(10) 0.22292(11)
C6B C -0.13422(8) 0.15822(10) 0.17554(12)
C7B C -0.18622(8) 0.09812(11) 0.21796(12)
C8B C -0.21604(8) 0.09381(12) 0.31087(13)
H2B H -0.1989 0.1287 0.3632
C9B C -0.27161(9) 0.03681(13) 0.32387(15)
H3B H -0.2923 0.0345 0.3852
C10B C -0.29691(11) -0.01667(14) 0.24794(16)
H4B H -0.3331 -0.0559 0.2591
C11B C -0.26863(11) -0.01199(14) 0.15546(16)
H5B H -0.2858 -0.0476 0.1038
C12B C -0.21439(9) 0.04631(12) 0.14047(13)
C13B C -0.18295(10) 0.06904(12) 0.04377(13)
H6B H -0.2207 0.0808 -0.0079
H7B H -0.1524 0.0236 0.0213
C14B C -0.13894(8) 0.14858(11) 0.06979(12)
C15B C -0.11482(8) 0.21178(11) 0.00779(12)
C16B C -0.08669(8) 0.28716(10) 0.05796(12)
C17B C -0.08946(9) 0.36856(12) 0.00918(13)
H8B H -0.1064 0.3716 -0.0575
C18B C -0.06845(9) 0.44034(12) 0.05684(14)
H9B H -0.0768 0.4924 0.0252
C19B C -0.08818(8) 0.22033(11) 0.33440(12)
C20B C -0.12270(13) 0.28177(14) 0.38638(16)
H10B H -0.1403 0.3304 0.3535
C21B C -0.13147(19) 0.2717(2) 0.4884(2)
H11B H -0.1551 0.3135 0.5231
C22B C -0.10574(19) 0.2010(3) 0.53719(19)
H12B H -0.1133 0.1936 0.6046
C23B C -0.06879(14) 0.1409(2) 0.48736(19)
H13B H -0.0498 0.0935 0.5215
C24B C -0.05956(9) 0.15006(13) 0.38667(14)
H14B H -0.0340 0.1090 0.3534
C25B C -0.12402(9) 0.20447(12) -0.10808(12)
C26B C -0.11001(12) 0.11278(15) -0.14326(15)
H15B H -0.1089 0.1119 -0.2148
H16B H -0.1480 0.0762 -0.1233
H17B H -0.0645 0.0932 -0.1137
C27B C -0.20162(11) 0.23059(17) -0.14290(16)
H18B H -0.2082 0.2246 -0.2142
H19B H -0.2096 0.2888 -0.1247
H20B H -0.2354 0.1946 -0.1115
C28B C -0.06984(13) 0.25856(17) -0.16369(15)
H21B H -0.0255 0.2638 -0.1231
H22B H -0.0898 0.3141 -0.1769
H23B H -0.0604 0.2314 -0.2257
loop_
_geom_bond_atom_site_label_1
_geom_bond_atom_site_label_2
_geom_bond_site_symmetry_1
_geom_bond_site_symmetry_2
C1 H1 1_555 1_555
C2 C1 1_555 1_555
C3 C2 1_555 1_555
C4 C3 1_555 1_555
C5 C4 1_555 1_555
C6 C5 1_555 1_555
C7 C6 1_555 1_555
C8 C7 1_555 1_555
H2 C8 1_555 1_555
C9 C8 1_555 1_555
H3 C9 1_555 1_555
C10 C9 1_555 1_555
H4 C10 1_555 1_555
C11 C10 1_555 1_555
H5 C11 1_555 1_555
C12 C7 1_555 1_555
C13 C12 1_555 1_555
H6 C13 1_555 1_555
H7 C13 1_555 1_555
C14 C6 1_555 1_555
C15 C14 1_555 1_555
C16 C4 1_555 1_555
C17 C16 1_555 1_555
H8 C17 1_555 1_555
C18 C2 1_555 1_555
H9 C18 1_555 1_555
C19 C5 1_555 1_555
C20 C19 1_555 1_555
H10 C20 1_555 1_555
C21 C20 1_555 1_555
H11 C21 1_555 1_555
C22 C21 1_555 1_555
H12 C22 1_555 1_555
C23 C22 1_555 1_555
H13 C23 1_555 1_555
C24 C19 1_555 1_555
H14 C24 1_555 1_555
C25 C15 1_555 1_555
C26 C25 1_555 1_555
H15 C26 1_555 1_555
H16 C26 1_555 1_555
H17 C26 1_555 1_555
C27 C25 1_555 1_555
H18 C27 1_555 1_555
H19 C27 1_555 1_555
H20 C27 1_555 1_555
C28 C25 1_555 1_555
H21 C28 1_555 1_555
H22 C28 1_555 1_555
H23 C28 1_555 1_555
C1B C1 1_555 1_555
H1B C1B 1_555 1_555
C2B C1B 1_555 1_555
C3B C3 1_555 1_555
C4B C3B 1_555 1_555
C5B C4B 1_555 1_555
C6B C5B 1_555 1_555
C7B C6B 1_555 1_555
C8B C7B 1_555 1_555
H2B C8B 1_555 1_555
C9B C8B 1_555 1_555
H3B C9B 1_555 1_555
C10B C9B 1_555 1_555
H4B C10B 1_555 1_555
C11B C10B 1_555 1_555
H5B C11B 1_555 1_555
C12B C7B 1_555 1_555
C13B C12B 1_555 1_555
H6B C13B 1_555 1_555
H7B C13B 1_555 1_555
C14B C6B 1_555 1_555
C15B C14B 1_555 1_555
C16B C4B 1_555 1_555
C17B C16B 1_555 1_555
H8B C17B 1_555 1_555
C18B C2B 1_555 1_555
H9B C18B 1_555 1_555
C19B C5B 1_555 1_555
C20B C19B 1_555 1_555
H10B C20B 1_555 1_555
C21B C20B 1_555 1_555
H11B C21B 1_555 1_555
C22B C21B 1_555 1_555
H12B C22B 1_555 1_555
C23B C22B 1_555 1_555
H13B C23B 1_555 1_555
C24B C19B 1_555 1_555
H14B C24B 1_555 1_555
C25B C15B 1_555 1_555
C26B C25B 1_555 1_555
H15B C26B 1_555 1_555
H16B C26B 1_555 1_555
H17B C26B 1_555 1_555
C27B C25B 1_555 1_555
H18B C27B 1_555 1_555
H19B C27B 1_555 1_555
H20B C27B 1_555 1_555
C28B C25B 1_555 1_555
H21B C28B 1_555 1_555
H22B C28B 1_555 1_555
H23B C28B 1_555 1_555
C11 C12 1_555 1_555
C13 C14 1_555 1_555
C15 C16 1_555 1_555
C17 C18 1_555 1_555
C23 C24 1_555 1_555
C2B C3B 1_555 1_555
C11B C12B 1_555 1_555
C13B C14B 1_555 1_555
C15B C16B 1_555 1_555
C17B C18B 1_555 1_555
C23B C24B 1_555 1_555

#END
