
#######################################################################
#
#                 Cambridge Crystallographic Data Centre
#                                CCDC 
#
#######################################################################
#
# If this CIF has been generated from an entry in the Cambridge 
# Structural Database, then it will include bibliographic, chemical, 
# crystal, experimental, refinement or atomic coordinate data resulting 
# from the CCDC's data processing and validation procedures.
#
#######################################################################

data_PICFAI
_chemical_formula_moiety         'C9 H6 N2 O6,C11 H13 N1 O2'
_chemical_name_systematic        
'3,5-Dinitrocinnamic acid 4-(N,N-dimethylamino)cinnamic acid'
_symmetry_cell_setting           triclinic
_symmetry_space_group_name_H-M   'P -1'
_symmetry_Int_Tables_number      2
_space_group_name_Hall           '-P 1'
loop_
_symmetry_equiv_pos_site_id
_symmetry_equiv_pos_as_xyz
1 x,y,z
2 -x,-y,-z
_cell_length_a                   8.422(4)
_cell_length_b                   15.854(6)
_cell_length_c                   7.623(3)
_cell_angle_alpha                85.20(3)
_cell_angle_beta                 102.76(3)
_cell_angle_gamma                91.73(3)
_cell_volume                     989.151
_cell_formula_units_Z            2
loop_
_atom_site_label
_atom_site_type_symbol
_atom_site_fract_x
_atom_site_fract_y
_atom_site_fract_z
C1 C -0.4721(3) -0.2720(2) 0.0133(4)
C2 C -0.3087(4) -0.2834(2) 0.0128(4)
C3 C -0.1971(4) -0.2214(2) 0.0759(4)
C4 C -0.2381(4) -0.1484(2) 0.1383(4)
C5 C -0.3993(4) -0.1379(2) 0.1343(4)
C6 C -0.5166(3) -0.1981(2) 0.0753(4)
C7 C -0.6018(3) -0.3327(2) -0.0512(4)
C8 C -0.5957(4) -0.4041(2) -0.1259(4)
C9 C -0.7474(4) -0.4522(2) -0.1865(5)
N1 N -0.0244(3) -0.2334(2) 0.0745(4)
N2 N -0.4500(4) -0.0592(2) 0.1948(4)
O1 O 0.0108(3) -0.2943(2) 0.0044(4)
O2 O 0.0744(3) -0.1810(2) 0.1423(4)
O3 O -0.3445(3) -0.0089(2) 0.2572(4)
O4 O -0.5943(3) -0.0479(2) 0.1790(4)
O5 O -0.7372(3) -0.5251(1) -0.2429(3)
O6 O -0.8793(3) -0.4192(2) -0.1881(4)
H1 H -0.268(4) -0.331(2) -0.020(4)
H2 H -0.164(4) -0.108(2) 0.182(4)
H3 H -0.624(3) -0.192(2) 0.083(4)
H4 H -0.705(3) -0.318(2) -0.039(3)
H5 H -0.503(4) -0.428(2) -0.141(4)
H6 H -0.854(8) -0.562(4) -0.271(8)
C10 C 0.5098(4) 0.2731(2) 0.4979(4)
C11 C 0.3574(4) 0.3058(2) 0.4926(4)
C12 C 0.2159(4) 0.2607(2) 0.4363(5)
C13 C 0.2208(4) 0.1790(2) 0.3802(4)
C14 C 0.3736(4) 0.1452(2) 0.3858(4)
C15 C 0.5127(4) 0.1916(2) 0.4427(4)
C16 C 0.6619(4) 0.3190(2) 0.5558(4)
C17 C 0.6801(4) 0.3937(2) 0.6217(5)
C18 C 0.8402(5) 0.4356(2) 0.6722(5)
C19 C -0.0753(4) 0.1629(2) 0.3437(6)
C20 C 0.0854(4) 0.0473(2) 0.2729(6)
N3 N 0.0780(3) 0.1340(2) 0.3192(4)
O7 O 0.8382(3) 0.5062(2) 0.7392(4)
O8 O 0.9675(3) 0.4027(2) 0.6493(4)
H7 H 0.344(4) 0.359(2) 0.534(4)
H8 H 0.119(4) 0.285(2) 0.440(4)
H9 H 0.380(4) 0.088(2) 0.350(4)
H10 H 0.617(4) 0.165(2) 0.454(4)
H11 H 0.770(5) 0.294(2) 0.559(5)
H12 H 0.584(4) 0.425(2) 0.645(5)
H13 H -0.077(6) 0.158(3) 0.497(7)
H14 H -0.089(5) 0.216(2) 0.294(5)
H15 H -0.154(5) 0.129(3) 0.301(5)
H16 H 0.148(5) 0.044(3) 0.192(6)
H17 H -0.008(6) 0.028(3) 0.240(6)
H18 H 0.146(8) 0.007(4) 0.400(8)
H19 H 0.931(7) 0.537(4) 0.767(7)
loop_
_geom_bond_atom_site_label_1
_geom_bond_atom_site_label_2
_geom_bond_site_symmetry_1
_geom_bond_site_symmetry_2
C1 C2 1_555 1_555
C2 C3 1_555 1_555
C3 C4 1_555 1_555
C4 C5 1_555 1_555
C5 C6 1_555 1_555
C6 C1 1_555 1_555
C7 C1 1_555 1_555
C8 C7 1_555 1_555
C9 C8 1_555 1_555
N1 C3 1_555 1_555
N2 C5 1_555 1_555
O1 N1 1_555 1_555
O2 N1 1_555 1_555
O3 N2 1_555 1_555
O4 N2 1_555 1_555
O5 C9 1_555 1_555
O6 C9 1_555 1_555
H1 C2 1_555 1_555
H2 C4 1_555 1_555
H3 C6 1_555 1_555
H4 C7 1_555 1_555
H5 C8 1_555 1_555
H6 O5 1_555 1_555
C10 C11 1_555 1_555
C11 C12 1_555 1_555
C12 C13 1_555 1_555
C13 C14 1_555 1_555
C14 C15 1_555 1_555
C15 C10 1_555 1_555
C16 C10 1_555 1_555
C17 C16 1_555 1_555
C18 C17 1_555 1_555
C19 N3 1_555 1_555
C20 N3 1_555 1_555
N3 C13 1_555 1_555
O7 C18 1_555 1_555
O8 C18 1_555 1_555
H7 C11 1_555 1_555
H8 C12 1_555 1_555
H9 C14 1_555 1_555
H10 C15 1_555 1_555
H11 C16 1_555 1_555
H12 C17 1_555 1_555
H13 C19 1_555 1_555
H14 C19 1_555 1_555
H15 C19 1_555 1_555
H16 C20 1_555 1_555
H17 C20 1_555 1_555
H18 C20 1_555 1_555
H19 O7 1_555 1_555

#END
