
#######################################################################
#
#                 Cambridge Crystallographic Data Centre
#                                CCDC 
#
#######################################################################
#
# If this CIF has been generated from an entry in the Cambridge 
# Structural Database, then it will include bibliographic, chemical, 
# crystal, experimental, refinement or atomic coordinate data resulting 
# from the CCDC's data processing and validation procedures.
#
#######################################################################

data_PICQUQ
_chemical_formula_moiety         'C33 H41 N4 O1 1+,2(C4 H8 O1),Cl1 1-'
_chemical_name_systematic        
'1,3-bis(2,6-di-isopropylphenyl)-4-(hydroxydiazenyl)-2-phenyl-1H-imidazol-3-ium chloride tetrahydrofuran solvate'
_symmetry_cell_setting           orthorhombic
_symmetry_space_group_name_H-M   'P c a 21'
_symmetry_Int_Tables_number      29
_space_group_name_Hall           'P 2c -2ac'
loop_
_symmetry_equiv_pos_site_id
_symmetry_equiv_pos_as_xyz
1 x,y,z
2 -x,-y,1/2+z
3 1/2+x,-y,z
4 1/2-x,y,1/2+z
_cell_length_a                   19.83497(19)
_cell_length_b                   10.39021(10)
_cell_length_c                   18.98482(14)
_cell_angle_alpha                90
_cell_angle_beta                 90
_cell_angle_gamma                90
_cell_volume                     3912.57
_exptl_crystal_colour            colorless
_exptl_crystal_description       prism
_cell_formula_units_Z            4
loop_
_atom_site_label
_atom_site_type_symbol
_atom_site_fract_x
_atom_site_fract_y
_atom_site_fract_z
Cl1 Cl 0.41119(2) 0.70658(5) 0.71477(3)
O1 O 0.47657(16) 0.5189(2) 0.62373(12)
H1 H 0.451(2) 0.574(4) 0.660(2)
N1 N 0.60468(8) 0.29911(15) 0.51889(9)
N2 N 0.50806(8) 0.21787(15) 0.48928(9)
N3 N 0.57787(10) 0.47860(19) 0.59035(12)
N4 N 0.54249(19) 0.5546(4) 0.62482(19)
C1 C 0.57529(9) 0.20502(18) 0.48148(10)
C2 C 0.55472(10) 0.3738(2) 0.55092(11)
C3 C 0.49422(9) 0.32129(19) 0.53277(11)
H2 H 0.450920 0.350136 0.547195
C4 C 0.67660(9) 0.31896(19) 0.52733(11)
C5 C 0.71113(9) 0.38440(18) 0.47437(12)
C6 C 0.77984(10) 0.4061(2) 0.48552(13)
H3 H 0.805524 0.448397 0.450197
C7 C 0.81105(10) 0.3673(2) 0.54687(14)
H4 H 0.857519 0.385363 0.553838
C8 C 0.77556(11) 0.3026(2) 0.59804(13)
H5 H 0.797920 0.275620 0.639746
C9 C 0.70707(10) 0.2763(2) 0.58942(12)
C10 C 0.67781(10) 0.4343(2) 0.40830(13)
H6 H 0.631171 0.398009 0.406058
C11 C 0.71557(14) 0.3917(3) 0.34255(14)
H7 H 0.760124 0.432462 0.341596
H8 H 0.690067 0.417289 0.300616
H9 H 0.720854 0.297941 0.343097
C12 C 0.67216(13) 0.5812(2) 0.41232(19)
H10 H 0.646920 0.605387 0.454675
H11 H 0.648552 0.613299 0.370508
H12 H 0.717408 0.618939 0.414337
C13 C 0.6719(7) 0.1928(15) 0.6454(6)
H13 H 0.627564 0.163768 0.626039
C14 C 0.7123(8) 0.0732(13) 0.6672(8)
H14 H 0.728337 0.028449 0.624917
H15 H 0.683458 0.015420 0.694605
H16 H 0.751053 0.099485 0.695847
C15 C 0.6585(6) 0.2767(18) 0.7098(7)
H17 H 0.701251 0.310876 0.727686
H18 H 0.636762 0.224969 0.746544
H19 H 0.628826 0.348194 0.696656
C16 C 0.61046(9) 0.10748(18) 0.43931(10)
C17 C 0.65426(10) 0.02041(19) 0.47167(11)
H20 H 0.660700 0.022721 0.521238
C18 C 0.68834(11) -0.0695(2) 0.43097(12)
H21 H 0.717763 -0.129580 0.452849
C19 C 0.67962(10) -0.0720(2) 0.35874(12)
H22 H 0.703116 -0.133643 0.331081
C20 C 0.63667(11) 0.0151(2) 0.32670(12)
H23 H 0.631088 0.013587 0.277005
C21 C 0.60164(10) 0.10499(19) 0.36679(12)
H24 H 0.571898 0.164221 0.344719
C22 C 0.45854(9) 0.11805(18) 0.47462(11)
C23 C 0.45211(10) 0.02163(19) 0.52596(12)
C24 C 0.40051(11) -0.0686(2) 0.51597(15)
H25 H 0.394273 -0.135399 0.549513
C25 C 0.35875(11) -0.0618(2) 0.45820(16)
H26 H 0.323532 -0.122964 0.452756
C26 C 0.36754(10) 0.0334(2) 0.40788(15)
H27 H 0.338902 0.035040 0.367780
C27 C 0.41774(9) 0.1273(2) 0.41490(12)
C28 C 0.42390(10) 0.2361(2) 0.36188(12)
H28 H 0.468419 0.279076 0.369465
C29 C 0.42123(14) 0.1899(3) 0.28595(15)
H29 H 0.425420 0.263869 0.254186
H30 H 0.458388 0.129800 0.277326
H31 H 0.378177 0.146420 0.277373
C30 C 0.36849(12) 0.3356(3) 0.37553(15)
H32 H 0.324241 0.295088 0.369502
H33 H 0.373145 0.406896 0.342101
H34 H 0.372614 0.368437 0.423724
C31 C 0.49678(12) 0.0140(2) 0.59020(13)
H35 H 0.532384 0.081600 0.585504
C32 C 0.45632(16) 0.0430(3) 0.65733(15)
H36 H 0.434016 0.126670 0.652578
H37 H 0.486845 0.044858 0.697905
H38 H 0.422274 -0.024190 0.664341
C33 C 0.53214(13) -0.1170(2) 0.59507(15)
H39 H 0.498539 -0.184449 0.603344
H40 H 0.564480 -0.115748 0.634096
H41 H 0.556004 -0.134414 0.550891
O3 O 0.50462(9) 0.53622(16) 0.39500(10)
C37 C 0.50808(15) 0.5597(3) 0.32115(15)
H50 H 0.465478 0.533824 0.297979
H51 H 0.545616 0.510437 0.299849
C38 C 0.51982(14) 0.7039(3) 0.31248(16)
H52 H 0.488705 0.740397 0.276922
H53 H 0.566790 0.721407 0.297673
C39 C 0.50593(16) 0.7614(3) 0.38528(19)
H54 H 0.547995 0.792890 0.407452
H55 H 0.473237 0.833229 0.382344
C40 C 0.47685(15) 0.6490(3) 0.42569(17)
H56 H 0.489248 0.654650 0.476103
H57 H 0.427072 0.648151 0.421831
O4 O 0.34717(8) 0.32189(17) 0.60080(10)
C41 C 0.29065(14) 0.2580(3) 0.57096(17)
H58 H 0.295080 0.163668 0.576591
H59 H 0.286935 0.278017 0.520122
C42 C 0.2299(3) 0.3064(6) 0.6099(3)
H60 H 0.191690 0.245121 0.607339
H61 H 0.215208 0.391956 0.592803
C43 C 0.2603(3) 0.3130(8) 0.6837(3)
H62 H 0.234022 0.370986 0.714664
H63 H 0.262731 0.226610 0.705613
C44 C 0.32980(14) 0.3663(3) 0.66971(14)
H64 H 0.329373 0.461497 0.671355
H65 H 0.362423 0.334057 0.705028
O2? O 0.5392(3) 0.6070(5) 0.6658(3)
H42? H 0.497(5) 0.652(15) 0.687(9)
N5? N 0.5192(5) 0.5110(8) 0.6213(4)
C34? C 0.6662(12) 0.228(2) 0.6520(10)
H43? H 0.619318 0.211615 0.635069
C35? C 0.6963(13) 0.100(2) 0.6747(13)
H44? H 0.699318 0.042553 0.633842
H45? H 0.667421 0.060622 0.710636
H46? H 0.741444 0.114001 0.694171
C36? C 0.6615(10) 0.322(3) 0.7139(10)
H47? H 0.706824 0.339940 0.732078
H48? H 0.633847 0.284379 0.751258
H49? H 0.640844 0.402934 0.697944
H66? H 0.302327 0.168261 0.558402
H67? H 0.275180 0.303224 0.527997
C45? C 0.2353(7) 0.2605(14) 0.6282(8)
H68? H 0.190070 0.270913 0.607004
H69? H 0.236041 0.180673 0.656663
C46? C 0.2534(5) 0.3743(11) 0.6718(7)
H70? H 0.235991 0.366362 0.720507
H71? H 0.236767 0.455314 0.650664
H72? H 0.349961 0.451891 0.678644
H73? H 0.346447 0.305491 0.705916
loop_
_geom_bond_atom_site_label_1
_geom_bond_atom_site_label_2
_geom_bond_site_symmetry_1
_geom_bond_site_symmetry_2
O1 H1 1_555 1_555
N1 C1 1_555 1_555
N2 C1 1_555 1_555
N3 N4 1_555 1_555
N4 O1 1_555 1_555
C1 C16 1_555 1_555
C2 N1 1_555 1_555
C3 N2 1_555 1_555
H2 C3 1_555 1_555
C4 N1 1_555 1_555
C5 C4 1_555 1_555
C6 C5 1_555 1_555
H3 C6 1_555 1_555
C7 C6 1_555 1_555
H4 C7 1_555 1_555
C8 C7 1_555 1_555
H5 C8 1_555 1_555
C9 C4 1_555 1_555
C10 C5 1_555 1_555
H6 C10 1_555 1_555
C11 C10 1_555 1_555
H7 C11 1_555 1_555
H8 C11 1_555 1_555
H9 C11 1_555 1_555
C12 C10 1_555 1_555
H10 C12 1_555 1_555
H11 C12 1_555 1_555
H12 C12 1_555 1_555
C13 C9 1_555 1_555
H13 C13 1_555 1_555
C14 C13 1_555 1_555
H14 C14 1_555 1_555
H15 C14 1_555 1_555
H16 C14 1_555 1_555
C15 C13 1_555 1_555
H17 C15 1_555 1_555
H18 C15 1_555 1_555
H19 C15 1_555 1_555
C16 C17 1_555 1_555
C17 H20 1_555 1_555
C18 C17 1_555 1_555
H21 C18 1_555 1_555
C19 C18 1_555 1_555
H22 C19 1_555 1_555
C20 C19 1_555 1_555
H23 C20 1_555 1_555
C21 C16 1_555 1_555
H24 C21 1_555 1_555
C22 N2 1_555 1_555
C23 C22 1_555 1_555
C24 C23 1_555 1_555
H25 C24 1_555 1_555
C25 C24 1_555 1_555
H26 C25 1_555 1_555
C26 C25 1_555 1_555
H27 C26 1_555 1_555
C27 C22 1_555 1_555
C28 C27 1_555 1_555
H28 C28 1_555 1_555
C29 C28 1_555 1_555
H29 C29 1_555 1_555
H30 C29 1_555 1_555
H31 C29 1_555 1_555
C30 C28 1_555 1_555
H32 C30 1_555 1_555
H33 C30 1_555 1_555
H34 C30 1_555 1_555
C31 C23 1_555 1_555
H35 C31 1_555 1_555
C32 C31 1_555 1_555
H36 C32 1_555 1_555
H37 C32 1_555 1_555
H38 C32 1_555 1_555
C33 C31 1_555 1_555
H39 C33 1_555 1_555
H40 C33 1_555 1_555
H41 C33 1_555 1_555
O3 C37 1_555 1_555
C37 H50 1_555 1_555
H51 C37 1_555 1_555
C38 C37 1_555 1_555
H52 C38 1_555 1_555
H53 C38 1_555 1_555
C39 C38 1_555 1_555
H54 C39 1_555 1_555
H55 C39 1_555 1_555
C40 O3 1_555 1_555
H56 C40 1_555 1_555
H57 C40 1_555 1_555
O4 C41 1_555 1_555
C41 H58 1_555 1_555
H59 C41 1_555 1_555
C42 C41 1_555 1_555
H60 C42 1_555 1_555
H61 C42 1_555 1_555
C43 C42 1_555 1_555
H62 C43 1_555 1_555
H63 C43 1_555 1_555
C44 O4 1_555 1_555
H64 C44 1_555 1_555
H65 C44 1_555 1_555
N3 C2 1_555 1_555
C2 C3 1_555 1_555
C8 C9 1_555 1_555
C20 C21 1_555 1_555
C26 C27 1_555 1_555
C39 C40 1_555 1_555
C43 C44 1_555 1_555

#END
