
#######################################################################
#
#                 Cambridge Crystallographic Data Centre
#                                CCDC 
#
#######################################################################
#
# If this CIF has been generated from an entry in the Cambridge 
# Structural Database, then it will include bibliographic, chemical, 
# crystal, experimental, refinement or atomic coordinate data resulting 
# from the CCDC's data processing and validation procedures.
#
#######################################################################

data_PICROL
_chemical_formula_moiety         'C21 H25 N5 O1'
_chemical_name_systematic        
(3-(2,6-di-isopropylphenyl)-1-methyl-5-phenyl-1H-1,2,3-triazol-3-ium-4-yl)diazen-1-olate
_symmetry_cell_setting           monoclinic
_symmetry_space_group_name_H-M   'P 21/c'
_symmetry_Int_Tables_number      14
_space_group_name_Hall           '-P 2ybc'
loop_
_symmetry_equiv_pos_site_id
_symmetry_equiv_pos_as_xyz
1 x,y,z
2 -x,1/2+y,1/2-z
3 -x,-y,-z
4 x,1/2-y,1/2+z
_cell_length_a                   12.0405(3)
_cell_length_b                   9.62717(19)
_cell_length_c                   16.9171(4)
_cell_angle_alpha                90
_cell_angle_beta                 98.264(2)
_cell_angle_gamma                90
_cell_volume                     1940.6
_exptl_crystal_colour            'pale yellow'
_exptl_crystal_description       prism
_cell_formula_units_Z            4
loop_
_atom_site_label
_atom_site_type_symbol
_atom_site_fract_x
_atom_site_fract_y
_atom_site_fract_z
O1 O 0.46787(7) 0.67122(8) 0.34325(5)
N1 N 0.37711(7) 0.12806(9) 0.31818(5)
N2 N 0.27795(8) 0.14701(9) 0.27491(5)
N3 N 0.26996(7) 0.28553(9) 0.26876(5)
N4 N 0.36244(7) 0.49577(9) 0.30784(5)
N5 N 0.46103(8) 0.54150(10) 0.34134(6)
C1 C 0.43306(9) 0.24753(11) 0.34075(6)
C2 C 0.36137(8) 0.35348(11) 0.30815(6)
C3 C 0.41341(10) -0.01551(12) 0.33648(7)
H1 H 0.3461(16) -0.073(3) 0.3345(16)
H2 H 0.457(2) -0.015(3) 0.3911(10)
H3 H 0.462(2) -0.044(3) 0.2970(15)
C4 C 0.17382(8) 0.34244(10) 0.21766(6)
C5 C 0.17099(9) 0.32865(11) 0.13476(6)
C6 C 0.07427(10) 0.37599(12) 0.08706(6)
H4 H 0.0702(13) 0.3671(16) 0.0301(10)
C7 C -0.01334(9) 0.43510(12) 0.12021(7)
H5 H -0.0831(13) 0.4681(15) 0.0859(9)
C8 C -0.00615(9) 0.45074(12) 0.20225(7)
H6 H -0.0678(13) 0.4952(15) 0.2240(8)
C9 C 0.08835(9) 0.40465(11) 0.25297(6)
C10 C 0.26692(10) 0.26482(12) 0.09780(7)
H7 H 0.3335(13) 0.2697(15) 0.1367(9)
C11 C 0.29043(13) 0.34476(15) 0.02366(8)
H8 H 0.3596(16) 0.3085(19) 0.0075(11)
H9 H 0.3018(15) 0.4457(19) 0.0340(10)
H10 H 0.2276(17) 0.332(2) -0.0230(12)
C12 C 0.24418(12) 0.11187(14) 0.07698(8)
H11 H 0.1737(15) 0.1003(18) 0.0351(10)
H12 H 0.2299(14) 0.0584(17) 0.1241(10)
H13 H 0.3086(17) 0.0705(19) 0.0562(11)
C13 C 0.09424(9) 0.42380(12) 0.34260(6)
H14 H 0.1692(13) 0.3903(15) 0.3681(8)
C14 C 0.00343(12) 0.33824(15) 0.37439(8)
H15 H -0.0746(16) 0.3691(19) 0.3478(11)
H16 H 0.0109(15) 0.2363(19) 0.3618(10)
H17 H 0.0080(15) 0.3524(19) 0.4350(11)
C15 C 0.08215(12) 0.57705(14) 0.36255(8)
H18 H 0.0072(15) 0.6130(18) 0.3403(10)
H19 H 0.1432(16) 0.6378(19) 0.3411(11)
H20 H 0.0903(15) 0.5872(18) 0.4219(11)
C16 C 0.54745(9) 0.24725(11) 0.38609(6)
C17 C 0.56799(9) 0.29094(12) 0.46549(7)
H21 H 0.5081(13) 0.3279(15) 0.4910(9)
C18 C 0.67622(10) 0.28353(13) 0.50697(7)
H22 H 0.6892(14) 0.3110(17) 0.5615(10)
C19 C 0.76356(10) 0.23421(12) 0.46933(8)
H23 H 0.8402(15) 0.2267(17) 0.4984(10)
C20 C 0.74335(10) 0.19273(12) 0.39001(8)
H24 H 0.8034(14) 0.1590(17) 0.3633(10)
C21 C 0.63557(9) 0.19948(12) 0.34817(7)
H25 H 0.6214(14) 0.1723(17) 0.2923(10)
H26? H 0.406(2) -0.032(3) 0.3933(10)
H27? H 0.4923(15) -0.025(3) 0.3271(17)
H28? H 0.364(2) -0.079(3) 0.3018(15)
loop_
_geom_bond_atom_site_label_1
_geom_bond_atom_site_label_2
_geom_bond_site_symmetry_1
_geom_bond_site_symmetry_2
O1 N5 1_555 1_555
N1 N2 1_555 1_555
N2 N3 1_555 1_555
N3 C2 1_555 1_555
N4 N5 1_555 1_555
C1 N1 1_555 1_555
C2 N4 1_555 1_555
C3 N1 1_555 1_555
H1 C3 1_555 1_555
H2 C3 1_555 1_555
H3 C3 1_555 1_555
C4 N3 1_555 1_555
C5 C4 1_555 1_555
C6 C5 1_555 1_555
H4 C6 1_555 1_555
C7 C6 1_555 1_555
H5 C7 1_555 1_555
C8 C7 1_555 1_555
H6 C8 1_555 1_555
C9 C4 1_555 1_555
C10 C5 1_555 1_555
H7 C10 1_555 1_555
C11 C10 1_555 1_555
H8 C11 1_555 1_555
H9 C11 1_555 1_555
H10 C11 1_555 1_555
C12 C10 1_555 1_555
H11 C12 1_555 1_555
H12 C12 1_555 1_555
H13 C12 1_555 1_555
C13 C9 1_555 1_555
H14 C13 1_555 1_555
C14 C13 1_555 1_555
H15 C14 1_555 1_555
H16 C14 1_555 1_555
H17 C14 1_555 1_555
C15 C13 1_555 1_555
H18 C15 1_555 1_555
H19 C15 1_555 1_555
H20 C15 1_555 1_555
C16 C1 1_555 1_555
C17 C16 1_555 1_555
H21 C17 1_555 1_555
C18 C17 1_555 1_555
H22 C18 1_555 1_555
C19 C18 1_555 1_555
H23 C19 1_555 1_555
C20 C19 1_555 1_555
H24 C20 1_555 1_555
C21 C16 1_555 1_555
H25 C21 1_555 1_555
C1 C2 1_555 1_555
C8 C9 1_555 1_555
C20 C21 1_555 1_555

#END
