
#######################################################################
#
#                 Cambridge Crystallographic Data Centre
#                                CCDC 
#
#######################################################################
#
# If this CIF has been generated from an entry in the Cambridge 
# Structural Database, then it will include bibliographic, chemical, 
# crystal, experimental, refinement or atomic coordinate data resulting 
# from the CCDC's data processing and validation procedures.
#
#######################################################################

data_PICRAX
_chemical_formula_moiety         'C45 H57 N6 1+,B1 F4 1-,3(C1 H2 Cl2)'
_chemical_name_systematic        
'1,3-bis(2,6-di-isopropylphenyl)-2,5-bis((2,4,6-trimethylphenyl)diazenyl)-1H-imidazol-3-ium tetrafluoroborate dichloromethane solvate'
_symmetry_cell_setting           triclinic
_symmetry_space_group_name_H-M   'P -1'
_symmetry_Int_Tables_number      2
_space_group_name_Hall           '-P 1'
loop_
_symmetry_equiv_pos_site_id
_symmetry_equiv_pos_as_xyz
1 x,y,z
2 -x,-y,-z
_cell_length_a                   8.9814(4)
_cell_length_b                   13.1814(6)
_cell_length_c                   22.6704(12)
_cell_angle_alpha                93.401(4)
_cell_angle_beta                 92.535(4)
_cell_angle_gamma                104.415(4)
_cell_volume                     2589.98
_exptl_crystal_colour            'intense orange'
_exptl_crystal_description       prism
_cell_formula_units_Z            2
_exptl_crystal_recrystallization_method dichloromethane/hexane
loop_
_atom_site_label
_atom_site_type_symbol
_atom_site_fract_x
_atom_site_fract_y
_atom_site_fract_z
N1 N 0.3225(2) 0.20727(17) 0.15557(10)
N2 N 0.2639(2) 0.17473(16) 0.24588(10)
N3 N 0.4777(3) 0.3159(2) 0.24414(13)
N4 N 0.5682(3) 0.37485(19) 0.21164(11)
N5 N 0.0441(2) 0.03144(16) 0.23539(11)
N6 N -0.0444(2) -0.03478(18) 0.19881(12)
C2 C 0.3634(2) 0.23780(19) 0.21290(12)
C3 C 0.1577(2) 0.10295(19) 0.20844(12)
C4 C 0.1939(3) 0.1222(2) 0.15162(12)
H3 H 0.141790 0.084884 0.116448
C5 C 0.3983(3) 0.2516(2) 0.10431(13)
C6 C 0.5274(3) 0.2193(2) 0.08651(14)
C7 C 0.5950(4) 0.2620(3) 0.03675(14)
H4 H 0.683576 0.242754 0.023387
C8 C 0.5355(4) 0.3318(3) 0.00653(15)
H5 H 0.583537 0.359962 -0.027487
C9 C 0.4073(4) 0.3614(3) 0.02482(17)
H6 H 0.368291 0.409684 0.003117
C10 C 0.3338(3) 0.3220(3) 0.07461(16)
C11 C 0.5908(4) 0.1403(3) 0.11886(19)
H7 H 0.533426 0.125576 0.155490
C12 C 0.7599(5) 0.1801(3) 0.1372(2)
H8 H 0.819454 0.189452 0.101883
H9 H 0.792514 0.129104 0.161224
H10 H 0.777518 0.247492 0.160515
C13 C 0.5631(5) 0.0369(4) 0.0804(3)
H11 H 0.455372 0.015471 0.064972
H12 H 0.585698 -0.017596 0.104256
H13 H 0.630605 0.046885 0.047249
C14 C 0.1951(4) 0.3560(3) 0.0961(2)
H14 H 0.134145 0.297750 0.118153
C15 C 0.0892(5) 0.3750(4) 0.0458(3)
H15 H -0.000931 0.393008 0.062127
H16 H 0.055570 0.311276 0.019099
H17 H 0.144887 0.433012 0.023762
C16 C 0.2453(5) 0.4531(4) 0.1396(2)
H18 H 0.311675 0.510466 0.120123
H19 H 0.302269 0.436547 0.174058
H20 H 0.154192 0.474460 0.152434
C17 C 0.6851(3) 0.4544(2) 0.24123(16)
C18 C 0.7729(3) 0.5220(2) 0.20220(15)
C19 C 0.8933(4) 0.6038(2) 0.22576(17)
H21 H 0.954510 0.648569 0.199894
C20 C 0.9263(4) 0.6216(3) 0.28647(18)
C21 C 0.8394(4) 0.5542(3) 0.32430(17)
H22 H 0.863672 0.566272 0.365745
C22 C 0.7184(3) 0.4697(3) 0.30345(16)
C23 C 0.7386(4) 0.5068(3) 0.13621(17)
H23 H 0.650719 0.446044 0.126831
H24 H 0.713853 0.569782 0.121902
H25 H 0.828893 0.494846 0.116948
C24 C 1.0573(8) 0.7109(5) 0.3116(4)
H26 H 1.063359 0.711479 0.354849
H27 H 1.154052 0.701960 0.296410
H28 H 1.039665 0.777534 0.299757
C25 C 0.6368(4) 0.3992(3) 0.34871(18)
H29 H 0.554389 0.343092 0.328597
H30 H 0.710600 0.368355 0.369663
H31 H 0.592507 0.440626 0.377145
C26 C 0.2666(2) 0.18414(19) 0.31006(12)
C27 C 0.2026(3) 0.2600(2) 0.33683(14)
C28 C 0.2073(3) 0.2681(2) 0.39834(14)
H32 H 0.166087 0.319215 0.418496
C29 C 0.2726(3) 0.2012(2) 0.43055(14)
H33 H 0.275182 0.207377 0.472564
C30 C 0.3334(3) 0.1263(2) 0.40255(13)
H34 H 0.376667 0.081457 0.425438
C31 C 0.3321(3) 0.11583(19) 0.34113(12)
C32 C 0.1270(4) 0.3291(3) 0.30044(17)
H35 H 0.163016 0.326937 0.259379
C33 C 0.1711(4) 0.4428(3) 0.3257(3)
H36 H 0.125344 0.447943 0.363898
H37 H 0.132834 0.486549 0.298236
H38 H 0.283444 0.467287 0.331335
C34 C -0.0457(4) 0.2879(3) 0.2969(2)
H39 H -0.073070 0.212966 0.283880
H40 H -0.091646 0.326253 0.268445
H41 H -0.084674 0.297579 0.335955
C35 C 0.3989(3) 0.0342(2) 0.30930(13)
H42 H 0.338157 0.011970 0.270618
C36 C 0.5673(3) 0.0808(2) 0.29564(15)
H43 H 0.573851 0.142763 0.273073
H44 H 0.604655 0.028238 0.272328
H45 H 0.630618 0.101130 0.332803
C37 C 0.3871(3) -0.0635(2) 0.34294(16)
H46 H 0.457343 -0.046173 0.378470
H47 H 0.415131 -0.117791 0.317585
H48 H 0.281226 -0.089453 0.354479
C38 C -0.1628(3) -0.1085(2) 0.22293(16)
C39 C -0.2585(3) -0.1798(2) 0.17886(18)
C40 C -0.3818(3) -0.2556(2) 0.1972(2)
H49 H -0.448849 -0.302341 0.168315
C41 C -0.4091(3) -0.2643(2) 0.2566(2)
C42 C -0.3144(3) -0.1956(2) 0.29823(18)
H50 H -0.333256 -0.202778 0.338861
C43 C -0.1907(3) -0.1151(2) 0.28318(16)
C44 C -0.2310(4) -0.1772(3) 0.1143(2)
H51 H -0.187859 -0.104445 0.104893
H52 H -0.328706 -0.205940 0.091039
H53 H -0.158508 -0.219348 0.104537
C45 C -0.5430(4) -0.3496(3) 0.2748(3)
H54 H -0.514501 -0.416770 0.273636
H55 H -0.632894 -0.355551 0.247504
H56 H -0.568020 -0.331546 0.315121
C46 C -0.1003(3) -0.0432(3) 0.33250(16)
H57 H 0.007823 -0.045763 0.332402
H58 H -0.141572 -0.065253 0.370300
H59 H -0.107610 0.028687 0.327237
Cl1 Cl 0.1538(5) 0.69269(19) 0.09294(12)
Cl2 Cl 0.3151(5) 0.8637(3) 0.17391(17)
C1 C 0.1914(7) 0.8303(2) 0.1089(2)
H1 H 0.240996 0.867726 0.075548
H2 H 0.093928 0.850515 0.115112
Cl3? Cl 0.1044(8) 0.6972(6) 0.0886(4)
Cl4? Cl 0.2549(8) 0.8555(5) 0.1815(3)
C47? C 0.2567(11) 0.8107(8) 0.1064(3)
H60? H 0.356368 0.794234 0.099360
H61? H 0.245426 0.866702 0.080633
N7? N 0.4869(13) 0.3209(10) 0.2047(6)
N8? N 0.5358(17) 0.3468(11) 0.2579(7)
C48? C 0.6604(14) 0.4371(10) 0.2665(8)
C49? C 0.7372(16) 0.5009(11) 0.2250(6)
C50? C 0.8587(17) 0.5868(11) 0.2433(6)
H62? H 0.911134 0.630348 0.214870
C51? C 0.9034(17) 0.6088(12) 0.3031(7)
C52? C 0.827(2) 0.5450(15) 0.3446(5)
H63? H 0.857126 0.560084 0.385515
C53? C 0.7051(18) 0.4592(13) 0.3263(7)
C54? C 0.696(3) 0.4900(19) 0.1593(7)
H64? H 0.767899 0.544704 0.139989
H65? H 0.701735 0.420739 0.142982
H66? H 0.590767 0.497637 0.152239
C55? C 1.033(4) 0.705(3) 0.320(2)
H67? H 1.070678 0.738708 0.284317
H68? H 0.994821 0.754867 0.345607
H69? H 1.116880 0.684972 0.341482
C56? C 0.659(3) 0.402(2) 0.3812(10)
H70? H 0.573524 0.340249 0.370746
H71? H 0.747339 0.379388 0.398013
H72? H 0.627720 0.448950 0.410449
F1? F 0.9401(5) 1.0260(4) 0.0527(2)
F2? F 1.1603(5) 1.0259(5) 0.0104(2)
F3? F 0.9428(6) 1.0352(4) -0.0457(2)
F4? F 0.9542(8) 0.8824(4) -0.0081(3)
B1? B 1.0007(7) 0.9915(5) 0.0019(3)
F5? F -0.0827(7) 0.3893(4) 0.4596(2)
F6? F -0.1139(5) 0.5437(4) 0.4951(3)
F7? F 0.0963(6) 0.5438(6) 0.4465(2)
F8? F 0.0706(12) 0.4746(9) 0.5397(3)
B2? B -0.0013(6) 0.4871(4) 0.4861(2)
loop_
_geom_bond_atom_site_label_1
_geom_bond_atom_site_label_2
_geom_bond_site_symmetry_1
_geom_bond_site_symmetry_2
Cl1 C1 1_555 1_555
Cl2 C1 1_555 1_555
C1 H1 1_555 1_555
H2 C1 1_555 1_555
N1 C2 1_555 1_555
N2 C2 1_555 1_555
N3 N4 1_555 1_555
N4 C17 1_555 1_555
N5 N6 1_555 1_555
N6 C38 1_555 1_555
C2 N3 1_555 1_555
C3 N2 1_555 1_555
C4 N1 1_555 1_555
H3 C4 1_555 1_555
C5 N1 1_555 1_555
C6 C5 1_555 1_555
C7 C6 1_555 1_555
H4 C7 1_555 1_555
C8 C7 1_555 1_555
H5 C8 1_555 1_555
C9 C8 1_555 1_555
H6 C9 1_555 1_555
C10 C5 1_555 1_555
C11 C6 1_555 1_555
H7 C11 1_555 1_555
C12 C11 1_555 1_555
H8 C12 1_555 1_555
H9 C12 1_555 1_555
H10 C12 1_555 1_555
C13 C11 1_555 1_555
H11 C13 1_555 1_555
H12 C13 1_555 1_555
H13 C13 1_555 1_555
C14 C10 1_555 1_555
H14 C14 1_555 1_555
C15 C14 1_555 1_555
H15 C15 1_555 1_555
H16 C15 1_555 1_555
H17 C15 1_555 1_555
C16 C14 1_555 1_555
H18 C16 1_555 1_555
H19 C16 1_555 1_555
H20 C16 1_555 1_555
C17 C18 1_555 1_555
C18 C19 1_555 1_555
C19 H21 1_555 1_555
C20 C19 1_555 1_555
C21 C20 1_555 1_555
H22 C21 1_555 1_555
C22 C17 1_555 1_555
C23 C18 1_555 1_555
H23 C23 1_555 1_555
H24 C23 1_555 1_555
H25 C23 1_555 1_555
C24 C20 1_555 1_555
H26 C24 1_555 1_555
H27 C24 1_555 1_555
H28 C24 1_555 1_555
C25 C22 1_555 1_555
H29 C25 1_555 1_555
H30 C25 1_555 1_555
H31 C25 1_555 1_555
C26 N2 1_555 1_555
C27 C26 1_555 1_555
C28 C27 1_555 1_555
H32 C28 1_555 1_555
C29 C28 1_555 1_555
H33 C29 1_555 1_555
C30 C29 1_555 1_555
H34 C30 1_555 1_555
C31 C26 1_555 1_555
C32 C27 1_555 1_555
H35 C32 1_555 1_555
C33 C32 1_555 1_555
H36 C33 1_555 1_555
H37 C33 1_555 1_555
H38 C33 1_555 1_555
C34 C32 1_555 1_555
H39 C34 1_555 1_555
H40 C34 1_555 1_555
H41 C34 1_555 1_555
C35 C31 1_555 1_555
H42 C35 1_555 1_555
C36 C35 1_555 1_555
H43 C36 1_555 1_555
H44 C36 1_555 1_555
H45 C36 1_555 1_555
C37 C35 1_555 1_555
H46 C37 1_555 1_555
H47 C37 1_555 1_555
H48 C37 1_555 1_555
C38 C39 1_555 1_555
C39 C40 1_555 1_555
C40 H49 1_555 1_555
C41 C40 1_555 1_555
C42 C41 1_555 1_555
H50 C42 1_555 1_555
C43 C38 1_555 1_555
C44 C39 1_555 1_555
H51 C44 1_555 1_555
H52 C44 1_555 1_555
H53 C44 1_555 1_555
C45 C41 1_555 1_555
H54 C45 1_555 1_555
H55 C45 1_555 1_555
H56 C45 1_555 1_555
C46 C43 1_555 1_555
H57 C46 1_555 1_555
H58 C46 1_555 1_555
H59 C46 1_555 1_555
N5 C3 1_555 1_555
C3 C4 1_555 1_555
C9 C10 1_555 1_555
C21 C22 1_555 1_555
C30 C31 1_555 1_555
C42 C43 1_555 1_555

#END
