
#######################################################################
#
#                 Cambridge Crystallographic Data Centre
#                                CCDC 
#
#######################################################################
#
# If this CIF has been generated from an entry in the Cambridge 
# Structural Database, then it will include bibliographic, chemical, 
# crystal, experimental, refinement or atomic coordinate data resulting 
# from the CCDC's data processing and validation procedures.
#
#######################################################################

data_PICRIF
_chemical_formula_moiety         'C30 H36 N5 1+,B1 F4 1-'
_chemical_name_systematic        
'1-(2,6-di-isopropylphenyl)-3-methyl-4-phenyl-5-((2,4,6-trimethylphenyl)diazenyl)-1H-1,2,3-triazol-3-ium tetrafluoroborate'
_symmetry_cell_setting           monoclinic
_symmetry_space_group_name_H-M   'C c'
_symmetry_Int_Tables_number      9
_space_group_name_Hall           'C -2yc'
loop_
_symmetry_equiv_pos_site_id
_symmetry_equiv_pos_as_xyz
1 x,y,z
2 x,-y,1/2+z
3 1/2+x,1/2+y,z
4 1/2+x,1/2-y,1/2+z
_cell_length_a                   17.0622(2)
_cell_length_b                   19.2261(3)
_cell_length_c                   18.8010(3)
_cell_angle_alpha                90
_cell_angle_beta                 102.0178(14)
_cell_angle_gamma                90
_cell_volume                     6032.3
_exptl_crystal_colour            'pale red'
_exptl_crystal_description       plate
_cell_formula_units_Z            8
loop_
_atom_site_label
_atom_site_type_symbol
_atom_site_fract_x
_atom_site_fract_y
_atom_site_fract_z
N1 N 0.66585(12) 0.57146(12) 0.47873(11)
N2 N 0.70175(14) 0.51214(13) 0.47108(13)
N3 N 0.72885(15) 0.49037(13) 0.53761(13)
N4 N 0.62915(14) 0.64848(12) 0.56300(12)
N5 N 0.62965(13) 0.65755(12) 0.62880(12)
C1 C 0.66875(15) 0.58746(14) 0.54984(14)
C2 C 0.71144(17) 0.53353(15) 0.58909(15)
C3 C 0.7700(2) 0.42319(19) 0.5485(2)
H1 H 0.823472 0.429510 0.579130
H2 H 0.774964 0.404099 0.501289
H3 H 0.739092 0.390980 0.572302
C4 C 0.7351(2) 0.51990(17) 0.66745(16)
C5 C 0.8149(2) 0.52830(17) 0.70213(17)
H4 H 0.853822 0.541025 0.674951
C6 C 0.8375(3) 0.5179(2) 0.77722(19)
H5 H 0.891807 0.524017 0.801376
C7 C 0.7816(3) 0.4990(3) 0.8155(2)
H6 H 0.797237 0.491507 0.866467
C8 C 0.7026(4) 0.4906(4) 0.7814(3)
H7 H 0.664214 0.477707 0.809016
C9 C 0.6786(3) 0.5006(3) 0.7072(2)
H8 H 0.624143 0.494402 0.683736
C10 C 0.62847(16) 0.61130(15) 0.41475(14)
C11 C 0.67400(18) 0.66285(18) 0.38969(17)
C12 C 0.6354(2) 0.6974(3) 0.3268(2)
H9 H 0.663101 0.733001 0.307156
C13 C 0.5587(3) 0.6812(3) 0.2927(2)
H10 H 0.534574 0.705357 0.249589
C14 C 0.5159(2) 0.6307(2) 0.3198(2)
H11 H 0.462536 0.620859 0.295185
C15 C 0.54923(17) 0.59343(18) 0.38294(17)
C16 C 0.75888(18) 0.68075(19) 0.42786(19)
H12 H 0.779333 0.641525 0.461569
C17 C 0.7606(2) 0.7460(2) 0.4735(2)
H13 H 0.731234 0.737658 0.512302
H14 H 0.735444 0.784347 0.442728
H15 H 0.816292 0.758085 0.495075
C18 C 0.8146(2) 0.6875(2) 0.3737(2)
H16 H 0.801347 0.730053 0.344967
H17 H 0.807518 0.647127 0.341223
H18 H 0.870342 0.689747 0.400382
C19 C 0.50485(18) 0.53726(16) 0.4141(2)
H19 H 0.527729 0.534526 0.467468
C20 C 0.5166(3) 0.4665(2) 0.3810(3)
H20 H 0.573640 0.454260 0.392460
H21 H 0.497836 0.468607 0.328109
H22 H 0.486012 0.431197 0.401185
C21 C 0.4150(2) 0.5527(2) 0.4040(3)
H23 H 0.389642 0.549278 0.352355
H24 H 0.407635 0.599825 0.421470
H25 H 0.390472 0.519015 0.431803
C22 C 0.58806(16) 0.71664(14) 0.64630(16)
C23 C 0.59161(19) 0.72170(16) 0.72152(16)
C24 C 0.5509(2) 0.77746(18) 0.74510(19)
H26 H 0.553206 0.782658 0.795745
C25 C 0.5074(2) 0.82524(17) 0.6980(2)
C26 C 0.5045(2) 0.81818(15) 0.6239(2)
H27 H 0.474447 0.850748 0.591200
C27 C 0.54454(17) 0.76453(13) 0.59643(16)
C28 C 0.53390(18) 0.76151(14) 0.51501(16)
H28 H 0.506985 0.718016 0.496978
H29 H 0.586474 0.763498 0.501803
H30 H 0.501320 0.801066 0.493212
C29 C 0.6327(2) 0.6688(2) 0.77435(18)
H31 H 0.686727 0.660337 0.765951
H32 H 0.602090 0.625301 0.767784
H33 H 0.636418 0.685908 0.824027
C30 C 0.4610(3) 0.8836(2) 0.7251(3)
H34 H 0.483514 0.892254 0.776640
H35 H 0.404626 0.870084 0.718977
H36 H 0.465030 0.925906 0.697043
N6 N 0.15901(15) 0.48887(11) 0.51838(12)
N7 N 0.16957(14) 0.53416(11) 0.57191(12)
N8 N 0.19417(12) 0.59065(10) 0.54263(11)
N9 N 0.22943(13) 0.63680(11) 0.43789(11)
N10 N 0.22885(14) 0.62312(12) 0.37247(12)
C31 C 0.19936(15) 0.58172(13) 0.47260(14)
C32 C 0.17561(15) 0.51395(13) 0.45546(14)
C33 C 0.1317(2) 0.41843(15) 0.53099(19)
H37 H 0.109100 0.418224 0.574818
H38 H 0.177174 0.386230 0.537444
H39 H 0.090634 0.403787 0.489117
C34 C 0.16709(18) 0.47190(14) 0.38872(15)
C35 C 0.2285(2) 0.42859(15) 0.37834(18)
H40 H 0.276602 0.425589 0.414228
C36 C 0.2191(3) 0.38976(17) 0.3153(2)
H41 H 0.261175 0.359878 0.308182
C37 C 0.1499(3) 0.39373(18) 0.2629(2)
H42 H 0.144342 0.366922 0.219679
C38 C 0.0884(3) 0.4370(3) 0.2733(2)
H43 H 0.040795 0.440234 0.236824
C39 C 0.0960(3) 0.4755(2) 0.3367(2)
H44 H 0.053202 0.504091 0.344563
C40 C 0.21105(16) 0.65388(12) 0.58596(13)
C41 C 0.15193(17) 0.70428(13) 0.57821(13)
C42 C 0.1695(2) 0.76358(14) 0.62118(15)
H45 H 0.130681 0.799462 0.618283
C43 C 0.2428(2) 0.77040(16) 0.66778(16)
H46 H 0.253806 0.811240 0.696578
C44 C 0.30101(19) 0.71919(15) 0.67378(16)
H47 H 0.351116 0.725479 0.706359
C45 C 0.28676(16) 0.65879(14) 0.63262(14)
C46 C 0.07116(17) 0.69586(16) 0.52641(16)
H48 H 0.072426 0.651413 0.499041
C47 C 0.0567(3) 0.7548(2) 0.4715(2)
H49 H 0.103372 0.759877 0.449205
H50 H 0.048090 0.798204 0.496215
H51 H 0.009175 0.744458 0.433804
C48 C 0.0047(2) 0.6903(2) 0.5684(2)
H52 H 0.001502 0.733666 0.595020
H53 H 0.016044 0.651546 0.602930
H54 H -0.046378 0.681999 0.534518
C49 C 0.34981(17) 0.60190(15) 0.63752(17)
H55 H 0.321567 0.557039 0.622387
C50 C 0.4023(4) 0.5919(5) 0.7141(3)
H56 H 0.367930 0.583404 0.748974
H57 H 0.434369 0.633835 0.728242
H58 H 0.438000 0.551984 0.713792
C51 C 0.4038(4) 0.6179(3) 0.5846(4)
H59 H 0.429273 0.663310 0.596369
H60 H 0.371710 0.618766 0.534898
H61 H 0.445137 0.581912 0.588485
C52 C 0.26331(17) 0.67164(14) 0.33267(15)
C53 C 0.30076(18) 0.73395(15) 0.35839(18)
C54 C 0.3360(2) 0.77199(17) 0.3109(2)
H62 H 0.362986 0.814115 0.327030
C55 C 0.3325(2) 0.74920(19) 0.2382(2)
C56 C 0.2959(2) 0.68878(19) 0.2152(2)
H63 H 0.294057 0.673881 0.166740
C57 C 0.2611(2) 0.64821(19) 0.26025(17)
C58 C 0.3052(2) 0.76298(16) 0.4339(2)
H64 H 0.335620 0.730969 0.469974
H65 H 0.250928 0.768433 0.442731
H66 H 0.332013 0.808325 0.438026
C59 C 0.3715(3) 0.7933(2) 0.1885(3)
H67 H 0.417216 0.818292 0.217466
H68 H 0.332406 0.826794 0.162675
H69 H 0.389962 0.763253 0.153222
C60 C 0.2216(3) 0.5813(2) 0.2326(2)
H70 H 0.163345 0.587596 0.221000
H71 H 0.235702 0.545262 0.269974
H72 H 0.239903 0.567065 0.188705
F1 F 0.87528(14) 0.54294(11) 0.50113(16)
F2 F 0.92488(15) 0.43884(11) 0.47461(16)
F3 F 0.99444(15) 0.53787(12) 0.46681(14)
F4 F 0.98189(16) 0.49785(13) 0.57702(14)
B1 B 0.9436(2) 0.5047(2) 0.5041(3)
H73? H 0.332807 0.572270 0.593283
C61? C 0.3498(8) 0.5567(6) 0.6998(6)
H74? H 0.298309 0.532390 0.693216
H75? H 0.357869 0.584772 0.744234
H76? H 0.393177 0.522621 0.703750
C62? C 0.4309(7) 0.6310(7) 0.6335(11)
H77? H 0.450143 0.660902 0.675745
H78? H 0.426467 0.658261 0.588831
H79? H 0.468749 0.592668 0.633393
loop_
_geom_bond_atom_site_label_1
_geom_bond_atom_site_label_2
_geom_bond_site_symmetry_1
_geom_bond_site_symmetry_2
N1 N2 1_555 1_555
N2 N3 1_555 1_555
N3 C2 1_555 1_555
N4 N5 1_555 1_555
N5 C22 1_555 1_555
C1 N1 1_555 1_555
C2 C1 1_555 1_555
C3 N3 1_555 1_555
H1 C3 1_555 1_555
H2 C3 1_555 1_555
H3 C3 1_555 1_555
C4 C2 1_555 1_555
C5 C4 1_555 1_555
H4 C5 1_555 1_555
C6 C5 1_555 1_555
H5 C6 1_555 1_555
C7 C6 1_555 1_555
H6 C7 1_555 1_555
C8 C7 1_555 1_555
H7 C8 1_555 1_555
C9 C4 1_555 1_555
H8 C9 1_555 1_555
C10 N1 1_555 1_555
C11 C10 1_555 1_555
C12 C11 1_555 1_555
H9 C12 1_555 1_555
C13 C12 1_555 1_555
H10 C13 1_555 1_555
C14 C13 1_555 1_555
H11 C14 1_555 1_555
C15 C10 1_555 1_555
C16 C11 1_555 1_555
H12 C16 1_555 1_555
C17 C16 1_555 1_555
H13 C17 1_555 1_555
H14 C17 1_555 1_555
H15 C17 1_555 1_555
C18 C16 1_555 1_555
H16 C18 1_555 1_555
H17 C18 1_555 1_555
H18 C18 1_555 1_555
C19 C15 1_555 1_555
H19 C19 1_555 1_555
C20 C19 1_555 1_555
H20 C20 1_555 1_555
H21 C20 1_555 1_555
H22 C20 1_555 1_555
C21 C19 1_555 1_555
H23 C21 1_555 1_555
H24 C21 1_555 1_555
H25 C21 1_555 1_555
C22 C23 1_555 1_555
C23 C24 1_555 1_555
C24 H26 1_555 1_555
C25 C24 1_555 1_555
C26 C25 1_555 1_555
H27 C26 1_555 1_555
C27 C22 1_555 1_555
C28 C27 1_555 1_555
H28 C28 1_555 1_555
H29 C28 1_555 1_555
H30 C28 1_555 1_555
C29 C23 1_555 1_555
H31 C29 1_555 1_555
H32 C29 1_555 1_555
H33 C29 1_555 1_555
C30 C25 1_555 1_555
H34 C30 1_555 1_555
H35 C30 1_555 1_555
H36 C30 1_555 1_555
N6 N7 1_555 1_555
N7 N8 1_555 1_555
N8 C31 1_555 1_555
N9 N10 1_555 1_555
N10 C52 1_555 1_555
C31 N9 1_555 1_555
C32 N6 1_555 1_555
C33 N6 1_555 1_555
H37 C33 1_555 1_555
H38 C33 1_555 1_555
H39 C33 1_555 1_555
C34 C32 1_555 1_555
C35 C34 1_555 1_555
H40 C35 1_555 1_555
C36 C35 1_555 1_555
H41 C36 1_555 1_555
C37 C36 1_555 1_555
H42 C37 1_555 1_555
C38 C37 1_555 1_555
H43 C38 1_555 1_555
C39 C34 1_555 1_555
H44 C39 1_555 1_555
C40 N8 1_555 1_555
C41 C40 1_555 1_555
C42 C41 1_555 1_555
H45 C42 1_555 1_555
C43 C42 1_555 1_555
H46 C43 1_555 1_555
C44 C43 1_555 1_555
H47 C44 1_555 1_555
C45 C40 1_555 1_555
C46 C41 1_555 1_555
H48 C46 1_555 1_555
C47 C46 1_555 1_555
H49 C47 1_555 1_555
H50 C47 1_555 1_555
H51 C47 1_555 1_555
C48 C46 1_555 1_555
H52 C48 1_555 1_555
H53 C48 1_555 1_555
H54 C48 1_555 1_555
C49 C45 1_555 1_555
H55 C49 1_555 1_555
C50 C49 1_555 1_555
H56 C50 1_555 1_555
H57 C50 1_555 1_555
H58 C50 1_555 1_555
C51 C49 1_555 1_555
H59 C51 1_555 1_555
H60 C51 1_555 1_555
H61 C51 1_555 1_555
C52 C53 1_555 1_555
C53 C54 1_555 1_555
C54 H62 1_555 1_555
C55 C54 1_555 1_555
C56 C55 1_555 1_555
H63 C56 1_555 1_555
C57 C52 1_555 1_555
C58 C53 1_555 1_555
H64 C58 1_555 1_555
H65 C58 1_555 1_555
H66 C58 1_555 1_555
C59 C55 1_555 1_555
H67 C59 1_555 1_555
H68 C59 1_555 1_555
H69 C59 1_555 1_555
C60 C57 1_555 1_555
H70 C60 1_555 1_555
H71 C60 1_555 1_555
H72 C60 1_555 1_555
F1 B1 1_555 1_555
F2 B1 1_555 1_555
F3 B1 1_555 1_555
F4 B1 1_555 1_555
N4 C1 1_555 1_555
C8 C9 1_555 1_555
C14 C15 1_555 1_555
C26 C27 1_555 1_555
C31 C32 1_555 1_555
C38 C39 1_555 1_555
C44 C45 1_555 1_555
C56 C57 1_555 1_555

#END
