
#######################################################################
#
#                 Cambridge Crystallographic Data Centre
#                                CCDC 
#
#######################################################################
#
# If this CIF has been generated from an entry in the Cambridge 
# Structural Database, then it will include bibliographic, chemical, 
# crystal, experimental, refinement or atomic coordinate data resulting 
# from the CCDC's data processing and validation procedures.
#
#######################################################################

data_PICVUU
_chemical_name_common            'Sunitinib malate'
_chemical_formula_moiety         'C22 H28 F1 N4 O2 1+,C4 H5 O5 1-'
_chemical_name_systematic        
'N,N-Diethyl-2-(((5-((5-fluoro-2-oxo-1,2-dihydro-3H-indol-3-ylidene)methyl)-2,4-dimethyl-1H-pyrrol-3-yl)carbonyl)amino)ethanaminium 3-carboxy-2-hydroxypropanoate'
_chemical_properties_biological  'anticancer drug'
_symmetry_cell_setting           monoclinic
_symmetry_space_group_name_H-M   'P 21'
_symmetry_Int_Tables_number      4
_space_group_name_Hall           'P 2yb'
loop_
_symmetry_equiv_pos_site_id
_symmetry_equiv_pos_as_xyz
1 x,y,z
2 -x,1/2+y,-z
_cell_length_a                   7.5404(16)
_cell_length_b                   8.3349(18)
_cell_length_c                   20.286(4)
_cell_angle_alpha                90
_cell_angle_beta                 98.352(11)
_cell_angle_gamma                90
_cell_volume                     1261.42
_exptl_crystal_colour            orange
_exptl_crystal_description       planar
_cell_formula_units_Z            2
loop_
_atom_site_label
_atom_site_type_symbol
_atom_site_fract_x
_atom_site_fract_y
_atom_site_fract_z
O1 O 0.74092(15) 0.44984(16) 0.57641(6)
H1 H 0.6890 0.5366 0.5647
O2 O 1.10301(16) 0.18460(17) 0.61388(6)
O3 O 0.47637(15) 0.21532(17) 0.44973(5)
O4 O 0.40283(15) 0.3389(2) 0.53970(6)
O5 O 1.07663(15) 0.28071(18) 0.51025(6)
H2 H 1.1872 0.2968 0.5206
C1 C 1.0128(2) 0.21727(19) 0.56083(7)
C2 C 0.81342(19) 0.1872(2) 0.54714(7)
H3 H 0.7717 0.1473 0.5882
H4 H 0.7883 0.1032 0.5125
C3 C 0.71036(19) 0.3390(2) 0.52381(7)
H5 H 0.7595 0.3834 0.4844
C4 C 0.5129(2) 0.2947(2) 0.50275(8)
F1 F 0.40194(14) -0.81124(14) 1.00756(5)
O6 O -0.19478(15) -0.26094(15) 0.81719(6)
N1 N 0.04729(17) -0.02850(17) 0.81205(6)
H6 H -0.0591 -0.0740 0.8071
O7 O 0.49968(16) 0.33632(16) 0.82784(6)
N2 N 0.33765(18) 0.70513(17) 0.65716(6)
H7 H 0.3975 0.6945 0.6204
N3 N 0.33989(17) 0.33634(17) 0.72453(6)
H8 H 0.2400 0.3093 0.6989
N4 N -0.17539(18) -0.50563(17) 0.86954(7)
H9 H -0.2886 -0.5337 0.8595
C5 C 0.0303(2) 0.6544(3) 0.68923(9)
H10 H 0.0890 0.6099 0.7315
H11 H -0.0818 0.5965 0.6749
H12 H 0.0041 0.7683 0.6951
C6 C 0.1527(2) 0.6371(2) 0.63699(7)
H13 H 0.1637 0.5218 0.6266
H14 H 0.0969 0.6914 0.5957
C7 C 0.4475(2) 0.6177(2) 0.71338(7)
H15 H 0.3898 0.6291 0.7540
H16 H 0.5675 0.6680 0.7224
C8 C 0.4696(2) 0.4405(2) 0.69913(8)
H17 H 0.4594 0.4253 0.6503
H18 H 0.5916 0.4068 0.7189
C9 C 0.37457(19) 0.28166(19) 0.78791(7)
C10 C 0.2658(2) 0.14592(19) 0.80604(7)
C11 C 0.3414(2) 0.01351(19) 0.84352(7)
C12 C 0.2021(2) -0.09592(19) 0.84601(7)
C13 C 0.2140(2) -0.24884(19) 0.87615(7)
H19 H 0.3303 -0.2760 0.8978
C14 C 0.0879(2) -0.36438(19) 0.87966(7)
C15 C 0.1199(2) -0.51812(18) 0.91307(7)
C16 C 0.2731(2) -0.5878(2) 0.94809(8)
H20 H 0.3854 -0.5341 0.9541
C17 C 0.2531(2) -0.7390(2) 0.97366(8)
C18 C 0.0934(2) -0.8220(2) 0.96706(8)
H21 H 0.0882 -0.9260 0.9858
C19 C -0.0606(2) -0.7515(2) 0.93250(8)
H22 H -0.1730 -0.8052 0.9274
C20 C -0.0432(2) -0.60088(19) 0.90608(7)
C21 C -0.1063(2) -0.3640(2) 0.85151(7)
C22 C 0.0826(2) 0.11628(19) 0.78768(7)
C23 C 0.5328(2) -0.0077(2) 0.87395(8)
H23 H 0.5523 0.0430 0.9180
H24 H 0.6111 0.0423 0.8453
H25 H 0.5604 -0.1224 0.8785
C24 C 0.3317(2) 0.8812(2) 0.67189(8)
H26 H 0.2821 0.8969 0.7140
H27 H 0.2502 0.9347 0.6359
C25 C 0.5155(3) 0.9595(2) 0.67800(10)
H28 H 0.5848 0.9319 0.7212
H29 H 0.5015 1.0763 0.6746
H30 H 0.5786 0.9209 0.6421
C26 C -0.0638(2) 0.2166(2) 0.75165(8)
H31 H -0.0883 0.1825 0.7050
H32 H -0.0270 0.3295 0.7537
H33 H -0.1723 0.2039 0.7725
loop_
_geom_bond_atom_site_label_1
_geom_bond_atom_site_label_2
_geom_bond_site_symmetry_1
_geom_bond_site_symmetry_2
O1 H1 1_555 1_555
O2 C1 1_555 1_555
O3 C4 1_555 1_555
O4 C4 1_555 1_555
O5 H2 1_555 1_555
C1 O5 1_555 1_555
C2 C1 1_555 1_555
H3 C2 1_555 1_555
H4 C2 1_555 1_555
C3 O1 1_555 1_555
H5 C3 1_555 1_555
C4 C3 1_555 1_555
F1 C17 1_555 1_555
O6 C21 1_555 1_555
N1 H6 1_555 1_555
O7 C9 1_555 1_555
N2 H7 1_555 1_555
N3 H8 1_555 1_555
N4 H9 1_555 1_555
C5 H10 1_555 1_555
H11 C5 1_555 1_555
H12 C5 1_555 1_555
C6 N2 1_555 1_555
H13 C6 1_555 1_555
H14 C6 1_555 1_555
C7 N2 1_555 1_555
H15 C7 1_555 1_555
H16 C7 1_555 1_555
C8 N3 1_555 1_555
H17 C8 1_555 1_555
H18 C8 1_555 1_555
C9 N3 1_555 1_555
C10 C9 1_555 1_555
C11 C10 1_555 1_555
C12 N1 1_555 1_555
C13 C12 1_555 1_555
H19 C13 1_555 1_555
C14 C13 1_555 1_555
C15 C14 1_555 1_555
C16 C15 1_555 1_555
H20 C16 1_555 1_555
C17 C16 1_555 1_555
C18 C17 1_555 1_555
H21 C18 1_555 1_555
C19 C18 1_555 1_555
H22 C19 1_555 1_555
C20 N4 1_555 1_555
C21 N4 1_555 1_555
C22 N1 1_555 1_555
C23 C11 1_555 1_555
H23 C23 1_555 1_555
H24 C23 1_555 1_555
H25 C23 1_555 1_555
C24 N2 1_555 1_555
H26 C24 1_555 1_555
H27 C24 1_555 1_555
C25 C24 1_555 1_555
H28 C25 1_555 1_555
H29 C25 1_555 1_555
H30 C25 1_555 1_555
C26 C22 1_555 1_555
H31 C26 1_555 1_555
H32 C26 1_555 1_555
H33 C26 1_555 1_555
C2 C3 1_555 1_555
C5 C6 1_555 1_555
C7 C8 1_555 1_555
C10 C22 1_555 1_555
C11 C12 1_555 1_555
C14 C21 1_555 1_555
C15 C20 1_555 1_555
C19 C20 1_555 1_555

#END
