
#######################################################################
#
#                 Cambridge Crystallographic Data Centre
#                                CCDC 
#
#######################################################################
#
# If this CIF has been generated from an entry in the Cambridge 
# Structural Database, then it will include bibliographic, chemical, 
# crystal, experimental, refinement or atomic coordinate data resulting 
# from the CCDC's data processing and validation procedures.
#
#######################################################################

data_PICWAC
_chemical_formula_moiety         'C16 H14 B2 F4 N4 S1'
_chemical_name_systematic        
10-(2-thiophenyl)-5,5,12,12-tetrafluoro-1,3-dimethyl-5H,12H-pyrido[1',2':4,5][1,2,4,3]triazaborolo[2,1-a]pyrrolo[1,2-d][1,2,4,3]triazaborinine-6,13-diium-5,12-diide
_symmetry_cell_setting           monoclinic
_symmetry_space_group_name_H-M   'C 2/c'
_symmetry_Int_Tables_number      15
_space_group_name_Hall           '-C 2yn'
loop_
_symmetry_equiv_pos_site_id
_symmetry_equiv_pos_as_xyz
1 x,y,z
2 -x,y,1/2-z
3 1/2+x,1/2+y,z
4 1/2-x,1/2+y,1/2-z
5 -x,-y,-z
6 x,-y,1/2+z
7 1/2-x,1/2-y,-z
8 1/2+x,1/2-y,1/2+z
_cell_length_a                   11.677(8)
_cell_length_b                   12.781(9)
_cell_length_c                   22.528(15)
_cell_angle_alpha                90
_cell_angle_beta                 101.983(8)
_cell_angle_gamma                90
_cell_volume                     3288.9
_exptl_crystal_colour            colorless
_exptl_crystal_description       block
_cell_formula_units_Z            8
loop_
_atom_site_label
_atom_site_type_symbol
_atom_site_fract_x
_atom_site_fract_y
_atom_site_fract_z
B1 B 1.1594(2) 0.7770(2) 0.32165(12)
B2 B 0.9007(2) 0.79020(17) 0.40882(11)
C1 C 1.22452(18) 0.59704(18) 0.28808(9)
C2 C 1.19103(19) 0.49378(18) 0.29168(10)
H1 H 1.2267 0.4363 0.2778
C3 C 1.09613(18) 0.48992(17) 0.31931(10)
C4 C 1.07348(17) 0.59395(16) 0.33237(9)
C5 C 1.3200(2) 0.6413(2) 0.26129(11)
H2 H 1.2870 0.6749 0.2235
H3 H 1.3713 0.5860 0.2543
H4 H 1.3635 0.6915 0.2888
C6 C 1.0309(2) 0.39635(18) 0.33355(11)
H5 H 1.0552 0.3360 0.3139
H6 H 0.9485 0.4073 0.3193
H7 H 1.0471 0.3854 0.3766
C7 C 0.99124(17) 0.63637(16) 0.36144(9)
H8 H 0.9371 0.5913 0.3729
C8 C 1.03718(17) 0.90172(15) 0.37467(9)
C9 C 1.09996(19) 0.99133(17) 0.36625(10)
H9 H 1.1632 0.9880 0.3471
C10 C 1.0659(2) 1.08325(17) 0.38685(11)
H10 H 1.1062 1.1443 0.3819
C11 C 0.97148(19) 1.08733(16) 0.41532(10)
H11 H 0.9488 1.1513 0.4288
C12 C 0.91127(17) 0.99876(15) 0.42381(9)
C13 C 0.81333(17) 1.00446(15) 0.45509(9)
C14 C 0.74038(18) 0.92986(18) 0.47158(10)
H12 H 0.7456 0.8587 0.4641
C15 C 0.6572(2) 0.97442(18) 0.50113(11)
H13 H 0.6006 0.9353 0.5147
C16 C 0.6671(2) 1.07819(19) 0.50800(11)
H14 H 0.6188 1.1187 0.5268
F1 F 1.26667(11) 0.80788(11) 0.35557(7)
F2 F 1.13839(13) 0.82947(11) 0.26718(7)
F3 F 0.92112(11) 0.75802(9) 0.46813(6)
F4 F 0.78737(10) 0.77293(10) 0.38051(6)
N1 N 1.15378(14) 0.65873(14) 0.31319(8)
N2 N 0.98466(14) 0.73512(13) 0.37387(8)
N3 N 1.06269(15) 0.80566(13) 0.35755(8)
N4 N 0.94503(13) 0.90509(12) 0.40295(7)
S1 S 0.77731(5) 1.12670(4) 0.47851(3)
loop_
_geom_bond_atom_site_label_1
_geom_bond_atom_site_label_2
_geom_bond_site_symmetry_1
_geom_bond_site_symmetry_2
B1 F1 1_555 1_555
B2 F3 1_555 1_555
C1 C2 1_555 1_555
C2 H1 1_555 1_555
C3 C2 1_555 1_555
C4 C3 1_555 1_555
C5 C1 1_555 1_555
H2 C5 1_555 1_555
H3 C5 1_555 1_555
H4 C5 1_555 1_555
C6 C3 1_555 1_555
H5 C6 1_555 1_555
H6 C6 1_555 1_555
H7 C6 1_555 1_555
C7 C4 1_555 1_555
H8 C7 1_555 1_555
C8 C9 1_555 1_555
C9 H9 1_555 1_555
C10 C9 1_555 1_555
H10 C10 1_555 1_555
C11 C10 1_555 1_555
H11 C11 1_555 1_555
C12 C11 1_555 1_555
C13 C12 1_555 1_555
C14 C13 1_555 1_555
H12 C14 1_555 1_555
C15 C14 1_555 1_555
H13 C15 1_555 1_555
C16 C15 1_555 1_555
H14 C16 1_555 1_555
F2 B1 1_555 1_555
F4 B2 1_555 1_555
N1 B1 1_555 1_555
N2 B2 1_555 1_555
N3 B1 1_555 1_555
N4 B2 1_555 1_555
S1 C13 1_555 1_555
C1 N1 1_555 1_555
C4 N1 1_555 1_555
C7 N2 1_555 1_555
C8 N3 1_555 1_555
C8 N4 1_555 1_555
C12 N4 1_555 1_555
C16 S1 1_555 1_555
N2 N3 1_555 1_555

#END
