
#######################################################################
#
#                 Cambridge Crystallographic Data Centre
#                                CCDC 
#
#######################################################################
#
# If this CIF has been generated from an entry in the Cambridge 
# Structural Database, then it will include bibliographic, chemical, 
# crystal, experimental, refinement or atomic coordinate data resulting 
# from the CCDC's data processing and validation procedures.
#
#######################################################################

data_PICWIK
_chemical_formula_moiety         'C16 H21 B2 F4 N5'
_chemical_name_systematic        
10-(butylamino)-5,5,12,12-tetrafluoro-1,3-dimethyl-5H,12H-pyrido[1',2':4,5][1,2,4,3]triazaborolo[2,1-a]pyrrolo[1,2-d][1,2,4,3]triazaborinine-6,13-diium-5,12-diide
_symmetry_cell_setting           monoclinic
_symmetry_space_group_name_H-M   'P 21/m'
_symmetry_Int_Tables_number      11
_space_group_name_Hall           '-P 2yb'
loop_
_symmetry_equiv_pos_site_id
_symmetry_equiv_pos_as_xyz
1 x,y,z
2 -x,1/2+y,-z
3 -x,-y,-z
4 x,1/2-y,z
_cell_length_a                   8.367(3)
_cell_length_b                   7.289(2)
_cell_length_c                   14.878(5)
_cell_angle_alpha                90
_cell_angle_beta                 93.739(4)
_cell_angle_gamma                90
_cell_volume                     905.434
_exptl_crystal_colour            colorless
_exptl_crystal_description       block
_cell_formula_units_Z            2
loop_
_atom_site_label
_atom_site_type_symbol
_atom_site_fract_x
_atom_site_fract_y
_atom_site_fract_z
F1 F 0.39742(19) 0.4019(3) 0.17913(10)
F2 F 0.89079(19) 0.4032(3) 0.42125(10)
N1 N 0.6183(3) 0.2500 0.11646(18)
N2 N 0.7523(3) 0.2500 0.29477(18)
N3 N 0.6362(3) 0.2500 0.43162(17)
N4 N 0.5870(3) 0.2500 0.28077(19)
C1 C 0.5955(4) 0.2500 0.0257(2)
N5 N 0.7182(4) 0.2500 0.5817(2)
C2 C 0.8416(4) 0.2500 0.2259(2)
H1 H 0.9522 0.2500 0.2374
C3 C 0.7820(4) 0.2500 0.1376(2)
C4 C 0.8621(4) 0.2500 0.0579(2)
C5 C 0.7433(4) 0.2500 -0.0103(2)
H2 H 0.7599 0.2500 -0.0715
C6 C 0.5220(4) 0.2500 0.3627(2)
C7 C 0.5975(4) 0.2500 0.5195(2)
C8 C 0.4336(4) 0.2500 -0.0225(2)
C9 C 0.3226(5) 0.2500 0.4667(3)
H3 H 0.2150 0.2500 0.4791
C10 C 0.4359(4) 0.2500 0.5367(3)
H4 H 0.4055 0.2500 0.5957
C11 C 0.3620(4) 0.2500 0.3777(3)
H5 H 0.2836 0.2500 0.3304
C12 C 1.0394(4) 0.2500 0.0508(3)
B1 B 0.4940(5) 0.2500 0.1867(3)
B2 B 0.8048(5) 0.2500 0.3967(3)
C13 C 0.6958(6) 0.265(3) 0.6782(3)
C14 C 0.8567(7) 0.1631(8) 0.7262(4)
C15 C 0.9766(8) 0.3169(8) 0.7317(5)
C16 C 1.1401(6) 0.263(8) 0.7737(4)
H6 H 0.8318(15) 0.2500 0.565(3)
F1C F 0.39742(19) 0.0981(3) 0.17913(10)
F2C F 0.89079(19) 0.0968(3) 0.42125(10)
C13C C 0.6958(6) 0.235(3) 0.6782(3)
C14C C 0.8567(7) 0.3369(8) 0.7262(4)
C15C C 0.9766(8) 0.1831(8) 0.7317(5)
C16C C 1.1401(6) 0.237(8) 0.7737(4)
H7? H 0.5986 0.2037 0.6936
H8? H 0.6908 0.3929 0.6965
H9? H 0.8366 0.1167 0.7855
H10? H 0.9345 0.4160 0.7667
H11? H 0.8921 0.0631 0.6893
H12? H 1.1863 0.1710 0.7373
H13? H 0.9892 0.3631 0.6714
H14? H 1.2085 0.3691 0.7772
H15? H 1.1290 0.2156 0.8331
H16? H 1.0646 0.1891 -0.0037
H17? H 1.0900 0.1867 0.1016
H18? H 1.0775 0.3742 0.0500
H19? H 0.3884 0.1291 -0.0206
H20? H 0.3655 0.3350 0.0062
H21? H 0.4426 0.2859 -0.0840
loop_
_geom_bond_atom_site_label_1
_geom_bond_atom_site_label_2
_geom_bond_site_symmetry_1
_geom_bond_site_symmetry_2
F1 B1 1_555 1_555
F2 B2 1_555 1_555
N1 C1 1_555 1_555
N2 N4 1_555 1_555
N3 C6 1_555 1_555
N4 C6 1_555 1_555
C1 C5 1_555 1_555
N5 C7 1_555 1_555
C2 N2 1_555 1_555
H1 C2 1_555 1_555
C3 N1 1_555 1_555
C4 C3 1_555 1_555
C5 C4 1_555 1_555
H2 C5 1_555 1_555
C6 C11 1_555 1_555
C7 N3 1_555 1_555
C8 C1 1_555 1_555
C9 H3 1_555 1_555
C10 C7 1_555 1_555
H4 C10 1_555 1_555
C11 C9 1_555 1_555
H5 C11 1_555 1_555
C12 C4 1_555 1_555
B1 N1 1_555 1_555
B2 N2 1_555 1_555
C13 N5 1_555 1_555
C14 C13 1_555 1_555
C15 C14 1_555 1_555
C16 C15 1_555 1_555
H6 N5 1_555 1_555
F1C B1 1_555 1_555
F2C B2 1_555 1_555
C13C N5 1_555 1_555
C14C C13 1_555 1_555
C15C C14 1_555 1_555
C16C C15 1_555 1_555
N3 B2 1_555 1_555
N4 B1 1_555 1_555
C2 C3 1_555 1_555
C9 C10 1_555 1_555
C14 C13C 1_555 1_555
C14 C14C 1_555 1_555
C15 C14C 1_555 1_555
C15 C15C 1_555 1_555
C16 C15C 1_555 1_555
C13C C14C 1_555 1_555
C14C C15C 1_555 1_555
C15C C16C 1_555 1_555

#END
