
#######################################################################
#
#                 Cambridge Crystallographic Data Centre
#                                CCDC 
#
#######################################################################
#
# If this CIF has been generated from an entry in the Cambridge 
# Structural Database, then it will include bibliographic, chemical, 
# crystal, experimental, refinement or atomic coordinate data resulting 
# from the CCDC's data processing and validation procedures.
#
#######################################################################

data_PIDDOY
_chemical_formula_moiety         'C11 H16 O6'
_chemical_name_systematic        1,5,10-trioxacyclotetradecane-6,9,14-trione
_symmetry_cell_setting           monoclinic
_symmetry_space_group_name_H-M   'P 21/n'
_symmetry_Int_Tables_number      14
_space_group_name_Hall           '-P 2yn'
loop_
_symmetry_equiv_pos_site_id
_symmetry_equiv_pos_as_xyz
1 x,y,z
2 1/2-x,1/2+y,1/2-z
3 -x,-y,-z
4 1/2+x,1/2-y,1/2+z
_cell_length_a                   8.7723(6)
_cell_length_b                   9.5366(6)
_cell_length_c                   14.1590(9)
_cell_angle_alpha                90
_cell_angle_beta                 103.008(7)
_cell_angle_gamma                90
_cell_volume                     1154.12
_cell_formula_units_Z            4
loop_
_atom_site_label
_atom_site_type_symbol
_atom_site_fract_x
_atom_site_fract_y
_atom_site_fract_z
C1 C 1.07841(17) 0.86077(16) 0.15912(11)
C2 C 1.20477(17) 0.75387(16) 0.16302(12)
H1 H 1.2605 0.7424 0.2300
H2 H 1.2787 0.7895 0.1272
C3 C 1.14770(17) 0.61091(15) 0.12250(11)
H3 H 1.0939 0.6209 0.0551
H4 H 1.2370 0.5498 0.1252
C4 C 1.03956(16) 0.54525(15) 0.17756(11)
C5 C 0.89858(18) 0.33735(16) 0.19694(12)
H5 H 0.9090 0.3762 0.2614
H6 H 0.9321 0.2402 0.2040
C6 C 0.72893(18) 0.34285(16) 0.14417(12)
H7 H 0.6700 0.2810 0.1771
H8 H 0.7203 0.3061 0.0793
C7 C 0.65318(18) 0.48635(16) 0.13591(11)
H9 H 0.5401 0.4773 0.1205
H10 H 0.6848 0.5367 0.1967
C8 C 0.63878(16) 0.68734(15) 0.03557(10)
C9 C 0.69690(17) 0.75369(15) -0.04518(11)
H11 H 0.6204 0.7392 -0.1055
H12 H 0.7932 0.7080 -0.0508
C10 C 0.72693(18) 0.91070(15) -0.03008(12)
H13 H 0.7706 0.9466 -0.0824
H14 H 0.6280 0.9579 -0.0332
C11 C 0.83648(18) 0.94514(16) 0.06508(13)
H15 H 0.8694 1.0423 0.0658
H16 H 0.7848 0.9307 0.1181
O1 O 1.07461(13) 0.94777(12) 0.22006(9)
O2 O 0.97011(11) 0.85301(10) 0.07531(7)
O3 O 0.99293(13) 0.60217(12) 0.24192(8)
O4 O 0.99984(11) 0.41415(10) 0.14702(7)
O5 O 0.70412(12) 0.56128(10) 0.05913(7)
O6 O 0.54371(13) 0.73808(11) 0.07535(8)
loop_
_geom_bond_atom_site_label_1
_geom_bond_atom_site_label_2
_geom_bond_site_symmetry_1
_geom_bond_site_symmetry_2
C1 C2 1_555 1_555
C2 H1 1_555 1_555
H2 C2 1_555 1_555
C3 C2 1_555 1_555
H3 C3 1_555 1_555
H4 C3 1_555 1_555
C4 C3 1_555 1_555
C5 H5 1_555 1_555
H6 C5 1_555 1_555
C6 C5 1_555 1_555
H7 C6 1_555 1_555
H8 C6 1_555 1_555
C7 C6 1_555 1_555
H9 C7 1_555 1_555
H10 C7 1_555 1_555
C8 C9 1_555 1_555
C9 H11 1_555 1_555
H12 C9 1_555 1_555
C10 C9 1_555 1_555
H13 C10 1_555 1_555
H14 C10 1_555 1_555
C11 C10 1_555 1_555
H15 C11 1_555 1_555
H16 C11 1_555 1_555
O1 C1 1_555 1_555
O2 C1 1_555 1_555
O3 C4 1_555 1_555
O4 C4 1_555 1_555
O5 C7 1_555 1_555
O6 C8 1_555 1_555
C5 O4 1_555 1_555
C8 O5 1_555 1_555
C11 O2 1_555 1_555

#END
