
#######################################################################
#
#                 Cambridge Crystallographic Data Centre
#                                CCDC 
#
#######################################################################
#
# If this CIF has been generated from an entry in the Cambridge 
# Structural Database, then it will include bibliographic, chemical, 
# crystal, experimental, refinement or atomic coordinate data resulting 
# from the CCDC's data processing and validation procedures.
#
#######################################################################

data_PIDDIR
_chemical_formula_moiety         'C28 H32 N2 O2 S1'
_chemical_name_systematic        
2-(4-(Decyloxy)phenyl)-5-(5-phenyl-2-furyl)-1,3,4-thiadiazole
_symmetry_cell_setting           monoclinic
_symmetry_space_group_name_H-M   'P 21/c'
_symmetry_Int_Tables_number      14
_space_group_name_Hall           '-P 2ybc'
loop_
_symmetry_equiv_pos_site_id
_symmetry_equiv_pos_as_xyz
1 x,y,z
2 -x,1/2+y,1/2-z
3 -x,-y,-z
4 x,1/2-y,1/2+z
_cell_length_a                   9.2917(19)
_cell_length_b                   16.569(3)
_cell_length_c                   16.273(3)
_cell_angle_alpha                90
_cell_angle_beta                 97.08(3)
_cell_angle_gamma                90
_cell_volume                     2486.19
_cell_formula_units_Z            4
loop_
_atom_site_label
_atom_site_type_symbol
_atom_site_fract_x
_atom_site_fract_y
_atom_site_fract_z
S1 S -0.1515(2) 0.09583(17) 0.17206(15)
O1 O -0.2657(5) -0.0739(4) 0.1906(4)
O2 O 0.1002(6) 0.4755(4) 0.1172(4)
N1 N -0.3866(8) 0.1286(5) 0.2335(5)
N2 N -0.3235(7) 0.2017(5) 0.2209(5)
C1 C -0.3010(9) -0.2939(6) 0.1961(6)
H1 H -0.3864 -0.2990 0.2201
C2 C -0.2267(9) -0.3640(6) 0.1758(7)
H2 H -0.2616 -0.4149 0.1869
C3 C -0.1009(8) -0.3555(7) 0.1391(7)
H3 H -0.0509 -0.4012 0.1254
C4 C -0.0492(8) -0.2803(7) 0.1227(6)
H4 H 0.0339 -0.2753 0.0967
C5 C -0.1208(8) -0.2122(6) 0.1451(6)
H5 H -0.0832 -0.1614 0.1361
C6 C -0.2505(9) -0.2191(6) 0.1813(5)
C7 C -0.3271(8) -0.1474(6) 0.2029(6)
C8 C -0.4501(9) -0.1351(7) 0.2400(6)
H6 H -0.5095 -0.1750 0.2578
C9 C -0.4698(7) -0.0523(7) 0.2462(6)
H7 H -0.5483 -0.0272 0.2659
C10 C -0.3538(8) -0.0131(6) 0.2182(6)
C11 C -0.3138(8) 0.0659(6) 0.2097(5)
C12 C -0.2001(8) 0.1920(6) 0.1914(6)
C13 C -0.1144(8) 0.2668(6) 0.1703(6)
C14 C 0.0020(8) 0.2582(6) 0.1256(7)
H8 H 0.0301 0.2076 0.1087
C15 C 0.0784(8) 0.3302(5) 0.1061(5)
H9 H 0.1548 0.3260 0.0744
C16 C 0.0406(9) 0.4043(7) 0.1332(6)
C17 C -0.0777(9) 0.4097(7) 0.1817(6)
H10 H -0.1055 0.4595 0.2009
C18 C -0.1504(8) 0.3402(6) 0.2000(7)
H11 H -0.2250 0.3436 0.2330
C19 C 0.2178(8) 0.4805(6) 0.0663(5)
H12 H 0.1913 0.4547 0.0131
H13 H 0.3049 0.4552 0.0937
C20 C 0.2408(9) 0.5706(6) 0.0558(6)
H14 H 0.2451 0.5957 0.1099
H15 H 0.1561 0.5921 0.0220
C21 C 0.3764(8) 0.5968(6) 0.0166(6)
H16 H 0.4621 0.5731 0.0474
H17 H 0.3693 0.5771 -0.0399
C22 C 0.3914(8) 0.6871(7) 0.0168(7)
H18 H 0.3984 0.7055 0.0738
H19 H 0.3031 0.7097 -0.0122
C23 C 0.5216(8) 0.7222(6) -0.0223(6)
H20 H 0.6107 0.7006 0.0068
H21 H 0.5153 0.7048 -0.0795
C24 C 0.5282(8) 0.8126(6) -0.0194(6)
H22 H 0.5292 0.8296 0.0377
H23 H 0.4401 0.8336 -0.0502
C25 C 0.6607(8) 0.8521(7) -0.0545(6)
H24 H 0.7489 0.8297 -0.0253
H25 H 0.6576 0.8372 -0.1123
C26 C 0.6687(9) 0.9401(6) -0.0484(7)
H26 H 0.6760 0.9551 0.0096
H27 H 0.5790 0.9626 -0.0758
C27 C 0.7969(9) 0.9784(8) -0.0864(7)
H28 H 0.8868 0.9554 -0.0598
H29 H 0.7887 0.9647 -0.1447
C28 C 0.8042(11) 1.0694(8) -0.0776(8)
H30 H 0.7156 1.0927 -0.1037
H31 H 0.8842 1.0896 -0.1036
H32 H 0.8173 1.0835 -0.0200
loop_
_geom_bond_atom_site_label_1
_geom_bond_atom_site_label_2
_geom_bond_site_symmetry_1
_geom_bond_site_symmetry_2
S1 C11 1_555 1_555
O1 C7 1_555 1_555
O2 C16 1_555 1_555
N1 N2 1_555 1_555
N2 C12 1_555 1_555
C1 H1 1_555 1_555
C2 C1 1_555 1_555
H2 C2 1_555 1_555
C3 C2 1_555 1_555
H3 C3 1_555 1_555
C4 C3 1_555 1_555
H4 C4 1_555 1_555
C5 C4 1_555 1_555
H5 C5 1_555 1_555
C6 C1 1_555 1_555
C7 C6 1_555 1_555
C8 C7 1_555 1_555
H6 C8 1_555 1_555
C9 C8 1_555 1_555
H7 C9 1_555 1_555
C10 O1 1_555 1_555
C11 N1 1_555 1_555
C12 S1 1_555 1_555
C13 C12 1_555 1_555
C14 C13 1_555 1_555
H8 C14 1_555 1_555
C15 C14 1_555 1_555
H9 C15 1_555 1_555
C16 C15 1_555 1_555
C17 C16 1_555 1_555
H10 C17 1_555 1_555
C18 C13 1_555 1_555
H11 C18 1_555 1_555
C19 O2 1_555 1_555
H12 C19 1_555 1_555
H13 C19 1_555 1_555
C20 C19 1_555 1_555
H14 C20 1_555 1_555
H15 C20 1_555 1_555
C21 C20 1_555 1_555
H16 C21 1_555 1_555
H17 C21 1_555 1_555
C22 C21 1_555 1_555
H18 C22 1_555 1_555
H19 C22 1_555 1_555
C23 C22 1_555 1_555
H20 C23 1_555 1_555
H21 C23 1_555 1_555
C24 C23 1_555 1_555
H22 C24 1_555 1_555
H23 C24 1_555 1_555
C25 C24 1_555 1_555
H24 C25 1_555 1_555
H25 C25 1_555 1_555
C26 C25 1_555 1_555
H26 C26 1_555 1_555
H27 C26 1_555 1_555
C27 C26 1_555 1_555
H28 C27 1_555 1_555
H29 C27 1_555 1_555
C28 C27 1_555 1_555
H30 C28 1_555 1_555
H31 C28 1_555 1_555
H32 C28 1_555 1_555
C5 C6 1_555 1_555
C9 C10 1_555 1_555
C10 C11 1_555 1_555
C17 C18 1_555 1_555

#END
