
#######################################################################
#
#                 Cambridge Crystallographic Data Centre
#                                CCDC 
#
#######################################################################
#
# If this CIF has been generated from an entry in the Cambridge 
# Structural Database, then it will include bibliographic, chemical, 
# crystal, experimental, refinement or atomic coordinate data resulting 
# from the CCDC's data processing and validation procedures.
#
#######################################################################

data_PIDHOA
_chemical_formula_moiety         'C13 H10 O5'
_chemical_name_systematic        
'Methyl 2-(2-hydroxy-1,3-dioxoinden-2-yl)acrylate'
_symmetry_cell_setting           triclinic
_symmetry_space_group_name_H-M   'P -1'
_symmetry_Int_Tables_number      2
_space_group_name_Hall           '-P 1'
loop_
_symmetry_equiv_pos_site_id
_symmetry_equiv_pos_as_xyz
1 x,y,z
2 -x,-y,-z
_cell_length_a                   7.1194(5)
_cell_length_b                   8.7236(4)
_cell_length_c                   9.7519(11)
_cell_angle_alpha                83.838(8)
_cell_angle_beta                 88.921(8)
_cell_angle_gamma                74.015(6)
_cell_volume                     578.84
_exptl_crystal_colour            colorless
_exptl_crystal_description       block
_cell_formula_units_Z            2
_exptl_crystal_recrystallization_method ethanol
loop_
_atom_site_label
_atom_site_type_symbol
_atom_site_fract_x
_atom_site_fract_y
_atom_site_fract_z
O1 O 0.23054(17) 0.49660(13) 0.50353(11)
O2 O 0.02397(16) 0.27200(13) 0.67980(12)
H1 H -0.0583 0.3334 0.6273
O3 O 0.29344(19) 0.17790(14) 0.92888(11)
O4 O 0.38264(18) 0.52769(16) 0.81921(14)
O5 O 0.1272(2) 0.71715(16) 0.88537(16)
C1 C 0.2782(2) 0.38290(17) 0.59118(15)
C2 C 0.1590(2) 0.35257(17) 0.71973(15)
C3 C 0.3123(2) 0.22025(17) 0.80899(15)
C4 C 0.4766(2) 0.15419(17) 0.71833(15)
C5 C 0.6330(2) 0.01820(19) 0.74407(18)
H2 H 0.6512 -0.0417 0.8300
C6 C 0.7603(2) -0.0247(2) 0.6375(2)
H3 H 0.8647 -0.1166 0.6515
C7 C 0.7363(3) 0.0659(2) 0.5101(2)
H4 H 0.8238 0.0328 0.4401
C8 C 0.5849(2) 0.2043(2) 0.48497(17)
H5 H 0.5709 0.2666 0.4002
C9 C 0.4545(2) 0.24673(18) 0.59135(15)
C10 C 0.0664(2) 0.49843(17) 0.79210(15)
C11 C 0.2094(2) 0.58099(18) 0.83307(16)
C12 C 0.2577(5) 0.7968(3) 0.9401(3)
H6 H 0.1828 0.8936 0.9751
H7 H 0.3415 0.8226 0.8682
H8 H 0.3357 0.7273 1.0132
C13 C -0.1205(3) 0.5456(2) 0.82124(19)
H9 H -0.1680 0.6344 0.8696
H10 H -0.2052 0.4902 0.7935
loop_
_geom_bond_atom_site_label_1
_geom_bond_atom_site_label_2
_geom_bond_site_symmetry_1
_geom_bond_site_symmetry_2
O1 C1 1_555 1_555
O2 H1 1_555 1_555
O3 C3 1_555 1_555
O4 C11 1_555 1_555
O5 C11 1_555 1_555
C1 C2 1_555 1_555
C2 O2 1_555 1_555
C3 C2 1_555 1_555
C4 C3 1_555 1_555
C5 C4 1_555 1_555
H2 C5 1_555 1_555
C6 C5 1_555 1_555
H3 C6 1_555 1_555
C7 C6 1_555 1_555
H4 C7 1_555 1_555
C8 C7 1_555 1_555
H5 C8 1_555 1_555
C9 C1 1_555 1_555
C10 C2 1_555 1_555
C11 C10 1_555 1_555
C12 O5 1_555 1_555
H6 C12 1_555 1_555
H7 C12 1_555 1_555
H8 C12 1_555 1_555
C13 C10 1_555 1_555
H9 C13 1_555 1_555
H10 C13 1_555 1_555
C4 C9 1_555 1_555
C8 C9 1_555 1_555

#END
