
#######################################################################
#
#                 Cambridge Crystallographic Data Centre
#                                CCDC 
#
#######################################################################
#
# If this CIF has been generated from an entry in the Cambridge 
# Structural Database, then it will include bibliographic, chemical, 
# crystal, experimental, refinement or atomic coordinate data resulting 
# from the CCDC's data processing and validation procedures.
#
#######################################################################

data_PIDJER
_chemical_formula_moiety         'C32 H54 Br2 Si6'
_chemical_name_systematic        
1-Bromo-1-trimethylsilyl-2,2-bis(trimethylsilylethynyl)-3-(bromo(trimethylsilyl)methylene)-4-(bis(trimethylsilylethynyl)methylene)cyclobutane
_symmetry_cell_setting           monoclinic
_symmetry_space_group_name_H-M   'P 21/c'
_symmetry_Int_Tables_number      14
_space_group_name_Hall           '-P 2ybc'
loop_
_symmetry_equiv_pos_site_id
_symmetry_equiv_pos_as_xyz
1 x,y,z
2 -x,1/2+y,1/2-z
3 -x,-y,-z
4 x,1/2-y,1/2+z
_cell_length_a                   11.3870(10)
_cell_length_b                   18.847(2)
_cell_length_c                   22.468(4)
_cell_angle_alpha                90
_cell_angle_beta                 118.27(2)
_cell_angle_gamma                90
_cell_volume                     4246.75
_exptl_crystal_colour            'light yellow'
_chemical_melting_point          125-126deg.C
_cell_formula_units_Z            4
loop_
_atom_site_label
_atom_site_type_symbol
_atom_site_fract_x
_atom_site_fract_y
_atom_site_fract_z
Br1 Br 0.84576(3) 0.33388(2) 0.38149(2)
Br2 Br 0.24034(3) 0.38741(2) 0.29027(2)
Si1 Si 0.71667(9) 0.44957(5) 0.43303(4)
Si2 Si 0.70544(10) 0.29984(5) 0.63273(5)
Si3 Si 0.72464(9) 0.07761(5) 0.36850(5)
Si4 Si 0.29452(9) 0.27980(5) 0.40524(5)
Si5 Si 0.11570(9) 0.30424(5) 0.09380(5)
Si6 Si 0.76134(9) 0.50163(5) 0.19137(5)
C1 C 0.6848(3) 0.3590(2) 0.3878(2)
C2 C 0.6262(3) 0.2958(2) 0.4155(2)
C3 C 0.4883(3) 0.3205(2) 0.3574(2)
C4 C 0.5545(3) 0.3561(2) 0.32335(15)
C5 C 0.7466(3) 0.5160(2) 0.3804(2)
C6 C 0.5627(3) 0.4749(2) 0.4364(2)
C7 C 0.8650(3) 0.4459(2) 0.5188(2)
C8 C 0.6504(3) 0.3018(2) 0.4857(2)
C9 C 0.6711(3) 0.3037(2) 0.5434(2)
C10 C 0.7987(4) 0.2163(2) 0.6697(2)
C11 C 0.8061(4) 0.3792(2) 0.6765(2)
C12 C 0.5458(4) 0.2977(2) 0.6363(2)
C13 C 0.6614(3) 0.2250(2) 0.4022(2)
C14 C 0.6883(3) 0.1660(2) 0.3905(2)
C15 C 0.8990(4) 0.0777(2) 0.3816(2)
C16 C 0.6073(4) 0.0609(2) 0.2781(2)
C17 C 0.7041(4) 0.0111(2) 0.4238(2)
C18 C 0.3678(3) 0.3221(2) 0.3538(2)
C19 C 0.2983(4) 0.3518(2) 0.4630(2)
C20 C 0.3872(3) 0.1983(2) 0.4489(2)
C21 C 0.1177(3) 0.2564(2) 0.3455(2)
C22 C 0.5163(3) 0.3708(2) 0.2573(2)
C23 C 0.3889(3) 0.3495(2) 0.2043(2)
C24 C 0.2827(3) 0.3317(2) 0.1593(2)
C25 C 0.1253(4) 0.2947(2) 0.0143(2)
C26 C 0.0749(4) 0.2189(2) 0.1208(2)
C27 C -0.0080(3) 0.3735(2) 0.0841(2)
C28 C 0.6007(3) 0.4074(2) 0.23632(15)
C29 C 0.6620(3) 0.4427(2) 0.2151(2)
C30 C 0.7400(4) 0.5933(2) 0.2147(2)
C31 C 0.7042(4) 0.4943(2) 0.0991(2)
C32 C 0.9369(4) 0.4731(2) 0.2404(2)
loop_
_geom_bond_atom_site_label_1
_geom_bond_atom_site_label_2
_geom_bond_site_symmetry_1
_geom_bond_site_symmetry_2
Br1 C1 1_555 1_555
Br2 C18 1_555 1_555
Si1 C1 1_555 1_555
Si2 C9 1_555 1_555
Si3 C14 1_555 1_555
Si4 C18 1_555 1_555
Si5 C24 1_555 1_555
Si6 C29 1_555 1_555
C1 C2 1_555 1_555
C2 C3 1_555 1_555
C3 C4 1_555 1_555
C4 C1 1_555 1_555
C5 Si1 1_555 1_555
C6 Si1 1_555 1_555
C7 Si1 1_555 1_555
C8 C2 1_555 1_555
C9 C8 1_555 1_555
C10 Si2 1_555 1_555
C11 Si2 1_555 1_555
C12 Si2 1_555 1_555
C13 C2 1_555 1_555
C14 C13 1_555 1_555
C15 Si3 1_555 1_555
C16 Si3 1_555 1_555
C17 Si3 1_555 1_555
C18 C3 1_555 1_555
C19 Si4 1_555 1_555
C20 Si4 1_555 1_555
C21 Si4 1_555 1_555
C22 C4 1_555 1_555
C23 C22 1_555 1_555
C24 C23 1_555 1_555
C25 Si5 1_555 1_555
C26 Si5 1_555 1_555
C27 Si5 1_555 1_555
C28 C22 1_555 1_555
C29 C28 1_555 1_555
C30 Si6 1_555 1_555
C31 Si6 1_555 1_555
C32 Si6 1_555 1_555

#END
