
#######################################################################
#
#                 Cambridge Crystallographic Data Centre
#                                CCDC 
#
#######################################################################
#
# If this CIF has been generated from an entry in the Cambridge 
# Structural Database, then it will include bibliographic, chemical, 
# crystal, experimental, refinement or atomic coordinate data resulting 
# from the CCDC's data processing and validation procedures.
#
#######################################################################

data_PIDJIX
_chemical_formula_moiety         'C16 H11 Cl1 N2'
_chemical_name_systematic        6-Chloro-11-methyl-11H-indolo[3,2-c]quinoline
_symmetry_cell_setting           monoclinic
_symmetry_space_group_name_H-M   'C 2/c'
_symmetry_Int_Tables_number      15
_space_group_name_Hall           '-C 2yn'
loop_
_symmetry_equiv_pos_site_id
_symmetry_equiv_pos_as_xyz
1 x,y,z
2 -x,y,1/2-z
3 1/2+x,1/2+y,z
4 1/2-x,1/2+y,1/2-z
5 -x,-y,-z
6 x,-y,1/2+z
7 1/2-x,1/2-y,-z
8 1/2+x,1/2-y,1/2+z
_cell_length_a                   20.76(11)
_cell_length_b                   8.51(3)
_cell_length_c                   16.75(12)
_cell_angle_alpha                90
_cell_angle_beta                 124.59(4)
_cell_angle_gamma                90
_cell_volume                     2436.1
_exptl_crystal_colour            colorless
_exptl_crystal_description       prism
_cell_formula_units_Z            8
loop_
_atom_site_label
_atom_site_type_symbol
_atom_site_fract_x
_atom_site_fract_y
_atom_site_fract_z
Cl1 Cl 0.10968(6) 0.54551(14) 0.24230(7)
N1 N 0.26387(19) 0.5538(4) 0.6026(3)
N2 N 0.2396(2) 0.3881(4) 0.3534(3)
C1 C 0.1677(3) 0.7300(5) 0.6071(3)
C2 C 0.3058(3) 0.3402(5) 0.4406(3)
C3 C 0.2664(3) 0.4925(5) 0.5291(3)
C4 C 0.3569(3) 0.2389(6) 0.4374(4)
C5 C 0.3229(3) 0.3914(5) 0.5323(3)
C6 C 0.3948(3) 0.3386(5) 0.6168(3)
C7 C 0.1913(3) 0.4867(6) 0.3554(4)
C8 C 0.4430(3) 0.2401(6) 0.6101(4)
C9 C 0.1546(3) 0.6432(5) 0.4597(3)
C10 C 0.0837(3) 0.7239(6) 0.4026(4)
C11 C 0.1949(3) 0.6472(5) 0.5612(3)
C12 C 0.3150(3) 0.5188(6) 0.7076(3)
C13 C 0.0559(3) 0.8063(6) 0.4495(4)
C14 C 0.0975(3) 0.8092(6) 0.5502(3)
C15 C 0.4240(3) 0.1888(6) 0.5187(4)
C16 C 0.2007(3) 0.5435(5) 0.4399(3)
H1 H 0.1964 0.7325 0.6759
H2 H 0.3443 0.2041 0.3762
H3 H 0.4092 0.3731 0.6788
H4 H 0.4901 0.2050 0.6676
H5 H 0.0552 0.7228 0.3339
H6 H 0.3693 0.5443 0.7322
H7 H 0.3110 0.4069 0.7182
H8 H 0.2985 0.5819 0.7419
H9 H 0.0076 0.8613 0.4119
H10 H 0.0774 0.8665 0.5802
H11 H 0.4580 0.1199 0.5147
H12? H 0.2298 0.3539 0.2980
loop_
_geom_bond_atom_site_label_1
_geom_bond_atom_site_label_2
_geom_bond_site_symmetry_1
_geom_bond_site_symmetry_2
Cl1 C7 1_555 1_555
N1 C3 1_555 1_555
N2 C2 1_555 1_555
C1 C11 1_555 1_555
C2 C4 1_555 1_555
C3 C5 1_555 1_555
C4 C15 1_555 1_555
C5 C2 1_555 1_555
C6 C5 1_555 1_555
C7 N2 1_555 1_555
C8 C6 1_555 1_555
C9 C10 1_555 1_555
C10 C13 1_555 1_555
C11 N1 1_555 1_555
C12 N1 1_555 1_555
C13 C14 1_555 1_555
C14 C1 1_555 1_555
C15 C8 1_555 1_555
C16 C3 1_555 1_555
H1 C1 1_555 1_555
H2 C4 1_555 1_555
H3 C6 1_555 1_555
H4 C8 1_555 1_555
H5 C10 1_555 1_555
H6 C12 1_555 1_555
H7 C12 1_555 1_555
H8 C12 1_555 1_555
H9 C13 1_555 1_555
H10 C14 1_555 1_555
H11 C15 1_555 1_555
C7 C16 1_555 1_555
C9 C11 1_555 1_555
C9 C16 1_555 1_555

#END
