
#######################################################################
#
#                 Cambridge Crystallographic Data Centre
#                                CCDC 
#
#######################################################################
#
# If this CIF has been generated from an entry in the Cambridge 
# Structural Database, then it will include bibliographic, chemical, 
# crystal, experimental, refinement or atomic coordinate data resulting 
# from the CCDC's data processing and validation procedures.
#
#######################################################################

data_PIDKAR
_chemical_formula_moiety         'C27 H17 Br1 O2'
_chemical_name_systematic        
(S)-4-bromo-3-hydroxy-2'-phenyl[1,1'-binaphthalene]-2-carbaldehyde
_symmetry_cell_setting           monoclinic
_symmetry_space_group_name_H-M   'P 21'
_symmetry_Int_Tables_number      4
_space_group_name_Hall           'P 2yb'
loop_
_symmetry_equiv_pos_site_id
_symmetry_equiv_pos_as_xyz
1 x,y,z
2 -x,1/2+y,-z
_cell_length_a                   10.66779(16)
_cell_length_b                   13.8650(2)
_cell_length_c                   13.5618(2)
_cell_angle_alpha                90
_cell_angle_beta                 94.8127(15)
_cell_angle_gamma                90
_cell_volume                     1998.84
_exptl_crystal_colour            yellow
_exptl_crystal_description       block
_chemical_melting_point          '137-139 deg.C'
_cell_formula_units_Z            4
loop_
_atom_site_label
_atom_site_type_symbol
_atom_site_fract_x
_atom_site_fract_y
_atom_site_fract_z
Br1 Br 0.64293(6) 0.28986(6) 1.05414(5)
C1 C 0.1117(5) 0.5780(5) 0.9974(4)
H1 H 0.1410 0.5999 0.9387
C2 C 0.1335(6) 0.6329(5) 1.0840(5)
H2 H 0.1772 0.6909 1.0825
C3 C 0.0899(6) 0.6007(5) 1.1720(4)
H3 H 0.1061 0.6358 1.2301
C4 C 0.0223(7) 0.5158(6) 1.1716(5)
H4 H -0.0096 0.4949 1.2297
C5 C 0.0012(7) 0.4617(6) 1.0871(5)
H5 H -0.0440 0.4044 1.0887
C6 C 0.0472(5) 0.4920(4) 0.9983(4)
C7 C 0.0179(5) 0.4351(4) 0.9056(4)
C8 C 0.1040(5) 0.3729(4) 0.8680(4)
C9 C 0.0706(5) 0.3221(4) 0.7784(4)
C10 C 0.1549(5) 0.2583(4) 0.7349(4)
H6 H 0.2344 0.2479 0.7667
C11 C 0.1215(6) 0.2120(5) 0.6475(4)
H7 H 0.1786 0.1711 0.6204
C12 C 0.0006(6) 0.2260(5) 0.5984(4)
H8 H -0.0218 0.1941 0.5392
C13 C -0.0829(6) 0.2862(5) 0.6377(4)
H9 H -0.1621 0.2954 0.6048
C14 C -0.0507(5) 0.3347(4) 0.7277(4)
C15 C -0.1359(5) 0.3985(4) 0.7688(4)
H10 H -0.2156 0.4076 0.7367
C16 C -0.1030(5) 0.4470(5) 0.8549(4)
H11 H -0.1607 0.4883 0.8806
C17 C 0.2331(5) 0.3588(4) 0.9180(4)
C18 C 0.2553(5) 0.2952(5) 0.9965(4)
C19 C 0.3803(5) 0.2766(5) 1.0389(4)
C20 C 0.4800(5) 0.3210(4) 0.9979(4)
C21 C 0.4609(5) 0.3876(4) 0.9196(4)
C22 C 0.5621(6) 0.4357(5) 0.8787(5)
H12 H 0.6444 0.4222 0.9029
C23 C 0.5400(6) 0.5008(5) 0.8049(5)
H13 H 0.6075 0.5319 0.7795
C24 C 0.4179(6) 0.5221(5) 0.7661(5)
H14 H 0.4046 0.5672 0.7156
C25 C 0.3173(5) 0.4764(5) 0.8028(4)
H15 H 0.2361 0.4911 0.7768
C26 C 0.3353(5) 0.4075(4) 0.8794(4)
C27 C 0.1498(6) 0.2437(5) 1.0355(5)
H16 H 0.0698 0.2518 1.0037
O1 O 0.1621(5) 0.1905(5) 1.1080(4)
O2 O 0.4026(4) 0.2152(4) 1.1147(3)
H17 H 0.3361 0.2014 1.1375
Br2 Br 1.15209(6) 0.47521(6) 0.53947(6)
C28 C 0.4821(7) 0.3286(5) 0.5797(5)
H18 H 0.4289 0.3818 0.5784
C29 C 0.5013(7) 0.2746(5) 0.6649(4)
H19 H 0.4623 0.2923 0.7211
C30 C 0.5781(6) 0.1946(5) 0.6673(4)
H20 H 0.5910 0.1585 0.7251
C31 C 0.6364(6) 0.1673(5) 0.5832(5)
H21 H 0.6866 0.1124 0.5844
C32 C 0.6189(5) 0.2231(5) 0.4975(4)
H22 H 0.6589 0.2060 0.4417
C33 C 0.5414(5) 0.3044(4) 0.4954(4)
C34 C 0.5136(5) 0.3608(4) 0.4030(4)
C35 C 0.6047(5) 0.4132(4) 0.3575(4)
C36 C 0.5738(5) 0.4645(4) 0.2684(4)
C37 C 0.6610(6) 0.5207(5) 0.2210(4)
H23 H 0.7429 0.5261 0.2499
C38 C 0.6288(7) 0.5674(5) 0.1339(5)
H24 H 0.6890 0.6030 0.1039
C39 C 0.5043(7) 0.5621(5) 0.0891(4)
H25 H 0.4822 0.5949 0.0304
C40 C 0.4170(7) 0.5084(5) 0.1329(5)
H26 H 0.3360 0.5031 0.1023
C41 C 0.4477(6) 0.4605(5) 0.2240(4)
C42 C 0.3564(5) 0.4085(5) 0.2729(4)
H27 H 0.2737 0.4065 0.2451
C43 C 0.3877(5) 0.3613(5) 0.3597(5)
H28 H 0.3258 0.3290 0.3911
C44 C 0.7353(5) 0.4239(4) 0.4065(4)
C45 C 0.7584(5) 0.4911(4) 0.4835(4)
C46 C 0.6601(5) 0.5469(5) 0.5206(4)
H29 H 0.5782 0.5393 0.4924
C47 C 0.6826(6) 0.6104(5) 0.5955(4)
H30 H 0.6164 0.6452 0.6183
C48 C 0.8068(6) 0.6243(5) 0.6397(4)
H31 H 0.8218 0.6674 0.6919
C49 C 0.9045(6) 0.5738(5) 0.6048(4)
H32 H 0.9856 0.5835 0.6338
C50 C 0.8850(5) 0.5079(5) 0.5265(4)
C51 C 0.9832(5) 0.4566(5) 0.4863(4)
C52 C 0.9621(5) 0.3914(5) 0.4121(4)
C53 C 0.8362(5) 0.3731(5) 0.3709(4)
C54 C 0.8120(6) 0.3016(6) 0.2935(4)
H33 H 0.7287 0.2899 0.2709
O3 O 1.0591(4) 0.3428(4) 0.3774(4)
H34 H 1.0333 0.3106 0.3292
O4 O 0.8937(5) 0.2555(4) 0.2556(4)
loop_
_geom_bond_atom_site_label_1
_geom_bond_atom_site_label_2
_geom_bond_site_symmetry_1
_geom_bond_site_symmetry_2
Br1 C20 1_555 1_555
C1 H1 1_555 1_555
C2 C1 1_555 1_555
H2 C2 1_555 1_555
C3 C2 1_555 1_555
H3 C3 1_555 1_555
C4 C3 1_555 1_555
H4 C4 1_555 1_555
C5 C4 1_555 1_555
H5 C5 1_555 1_555
C6 C1 1_555 1_555
C7 C6 1_555 1_555
C8 C7 1_555 1_555
C9 C8 1_555 1_555
C10 C9 1_555 1_555
H6 C10 1_555 1_555
C11 C10 1_555 1_555
H7 C11 1_555 1_555
C12 C11 1_555 1_555
H8 C12 1_555 1_555
C13 C12 1_555 1_555
H9 C13 1_555 1_555
C14 C9 1_555 1_555
C15 C14 1_555 1_555
H10 C15 1_555 1_555
C16 C7 1_555 1_555
H11 C16 1_555 1_555
C17 C8 1_555 1_555
C18 C17 1_555 1_555
C19 C18 1_555 1_555
C20 C19 1_555 1_555
C21 C20 1_555 1_555
C22 C21 1_555 1_555
H12 C22 1_555 1_555
C23 C22 1_555 1_555
H13 C23 1_555 1_555
C24 C23 1_555 1_555
H14 C24 1_555 1_555
C25 C24 1_555 1_555
H15 C25 1_555 1_555
C26 C17 1_555 1_555
C27 C18 1_555 1_555
H16 C27 1_555 1_555
O1 C27 1_555 1_555
O2 C19 1_555 1_555
H17 O2 1_555 1_555
Br2 C51 1_555 1_555
C28 H18 1_555 1_555
C29 C28 1_555 1_555
H19 C29 1_555 1_555
C30 C29 1_555 1_555
H20 C30 1_555 1_555
C31 C30 1_555 1_555
H21 C31 1_555 1_555
C32 C31 1_555 1_555
H22 C32 1_555 1_555
C33 C28 1_555 1_555
C34 C33 1_555 1_555
C35 C34 1_555 1_555
C36 C35 1_555 1_555
C37 C36 1_555 1_555
H23 C37 1_555 1_555
C38 C37 1_555 1_555
H24 C38 1_555 1_555
C39 C38 1_555 1_555
H25 C39 1_555 1_555
C40 C39 1_555 1_555
H26 C40 1_555 1_555
C41 C36 1_555 1_555
C42 C41 1_555 1_555
H27 C42 1_555 1_555
C43 C34 1_555 1_555
H28 C43 1_555 1_555
C44 C35 1_555 1_555
C45 C44 1_555 1_555
C46 C45 1_555 1_555
H29 C46 1_555 1_555
C47 C46 1_555 1_555
H30 C47 1_555 1_555
C48 C47 1_555 1_555
H31 C48 1_555 1_555
C49 C48 1_555 1_555
H32 C49 1_555 1_555
C50 C45 1_555 1_555
C51 C50 1_555 1_555
C52 C51 1_555 1_555
C53 C44 1_555 1_555
C54 C53 1_555 1_555
H33 C54 1_555 1_555
O3 C52 1_555 1_555
H34 O3 1_555 1_555
O4 C54 1_555 1_555
C5 C6 1_555 1_555
C13 C14 1_555 1_555
C15 C16 1_555 1_555
C21 C26 1_555 1_555
C25 C26 1_555 1_555
C32 C33 1_555 1_555
C40 C41 1_555 1_555
C42 C43 1_555 1_555
C49 C50 1_555 1_555
C52 C53 1_555 1_555

#END
