
#######################################################################
#
#                 Cambridge Crystallographic Data Centre
#                                CCDC 
#
#######################################################################
#
# If this CIF has been generated from an entry in the Cambridge 
# Structural Database, then it will include bibliographic, chemical, 
# crystal, experimental, refinement or atomic coordinate data resulting 
# from the CCDC's data processing and validation procedures.
#
#######################################################################

data_PIDKUI
_chemical_formula_moiety         'C18 H20'
_chemical_name_systematic        (3.3)-Orthocyclophane
_symmetry_cell_setting           monoclinic
_symmetry_space_group_name_H-M   'P 21/n'
_symmetry_Int_Tables_number      14
_space_group_name_Hall           '-P 2yn'
loop_
_symmetry_equiv_pos_site_id
_symmetry_equiv_pos_as_xyz
1 x,y,z
2 1/2-x,1/2+y,1/2-z
3 -x,-y,-z
4 1/2+x,1/2-y,1/2+z
_cell_length_a                   12.665(2)
_cell_length_b                   6.891(1)
_cell_length_c                   7.687(2)
_cell_angle_alpha                90
_cell_angle_beta                 92.44(1)
_cell_angle_gamma                90
_cell_volume                     670.271
_exptl_crystal_colour            colorless
_chemical_melting_point          '153-155 deg.C'
_cell_formula_units_Z            2
loop_
_atom_site_label
_atom_site_type_symbol
_atom_site_fract_x
_atom_site_fract_y
_atom_site_fract_z
C1 C -0.0433(3) 0.2095(5) 0.6675(4)
C2 C -0.1126(3) 0.0461(5) 0.7357(4)
C3 C -0.1023(2) -0.1479(5) 0.6415(5)
C4 C 0.0068(2) -0.2382(4) 0.6594(4)
C5 C 0.0421(3) -0.3005(5) 0.8255(5)
C6 C 0.1389(3) -0.3922(6) 0.8548(5)
C7 C 0.2029(3) -0.4235(5) 0.7167(6)
C8 C 0.1694(3) -0.3619(5) 0.5517(5)
C9 C -0.0721(2) 0.2682(4) 0.4811(4)
H1 H 0.035(3) 0.164(5) 0.694(5)
H2 H -0.058(3) 0.349(6) 0.737(5)
H3 H -0.196(3) 0.095(5) 0.729(5)
H4 H -0.093(3) 0.022(5) 0.865(5)
H5 H -0.132(2) -0.138(5) 0.518(4)
H6 H -0.160(2) -0.259(5) 0.695(4)
H7 H -0.010(3) -0.277(6) 0.929(5)
H8 H 0.165(3) -0.453(6) 0.992(6)
H9 H 0.280(3) -0.503(6) 0.746(6)
H10 H 0.214(3) -0.367(6) 0.448(5)
C9B C 0.0721(2) -0.2682(4) 0.5189(4)
C4B C -0.0068(2) 0.2382(4) 0.3406(4)
C8B C -0.1694(3) 0.3619(5) 0.4483(5)
C1B C 0.0433(3) -0.2095(5) 0.3325(4)
C3B C 0.1023(2) 0.1479(5) 0.3585(5)
C5B C -0.0421(3) 0.3005(5) 0.1745(5)
C7B C -0.2029(3) 0.4235(5) 0.2833(6)
H10B H -0.214(3) 0.367(6) 0.552(5)
C2B C 0.1126(3) -0.0461(5) 0.2643(4)
H1B H -0.035(3) -0.164(5) 0.306(5)
H2B H 0.058(3) -0.349(6) 0.263(5)
H5B H 0.132(2) 0.138(5) 0.482(4)
H6B H 0.160(2) 0.259(5) 0.305(4)
C6B C -0.1389(3) 0.3922(6) 0.1452(5)
H7B H 0.010(3) 0.277(6) 0.071(5)
H9B H -0.280(3) 0.503(6) 0.254(6)
H3B H 0.196(3) -0.095(5) 0.271(5)
H4B H 0.093(3) -0.022(5) 0.135(5)
H8B H -0.165(3) 0.453(6) 0.008(6)
loop_
_geom_bond_atom_site_label_1
_geom_bond_atom_site_label_2
_geom_bond_site_symmetry_1
_geom_bond_site_symmetry_2
C1 C2 1_555 1_555
C2 C3 1_555 1_555
C3 C4 1_555 1_555
C4 C5 1_555 1_555
C5 C6 1_555 1_555
C6 C7 1_555 1_555
C7 C8 1_555 1_555
C8 H10 1_555 1_555
C9 C1 1_555 1_555
H1 C1 1_555 1_555
H2 C1 1_555 1_555
H3 C2 1_555 1_555
H4 C2 1_555 1_555
H5 C3 1_555 1_555
H6 C3 1_555 1_555
H7 C5 1_555 1_555
H8 C6 1_555 1_555
H9 C7 1_555 1_555
C9B C4 1_555 1_555
C4B C9 1_555 1_555
C8B C9 1_555 1_555
C1B C9B 1_555 1_555
C3B C4B 1_555 1_555
C5B C4B 1_555 1_555
C7B C8B 1_555 1_555
H10B C8B 1_555 1_555
C2B C1B 1_555 1_555
H1B C1B 1_555 1_555
H2B C1B 1_555 1_555
H5B C3B 1_555 1_555
H6B C3B 1_555 1_555
C6B C5B 1_555 1_555
H7B C5B 1_555 1_555
H9B C7B 1_555 1_555
H3B C2B 1_555 1_555
H4B C2B 1_555 1_555
H8B C6B 1_555 1_555
C8 C9B 1_555 1_555
C3B C2B 1_555 1_555
C7B C6B 1_555 1_555

#END
