
#######################################################################
#
#                 Cambridge Crystallographic Data Centre
#                                CCDC 
#
#######################################################################
#
# If this CIF has been generated from an entry in the Cambridge 
# Structural Database, then it will include bibliographic, chemical, 
# crystal, experimental, refinement or atomic coordinate data resulting 
# from the CCDC's data processing and validation procedures.
#
#######################################################################

data_PIDKEV
_chemical_formula_moiety         'C35 H44 O4'
_chemical_name_systematic        'pregnane-3,20-diyl dibenzoate'
_symmetry_cell_setting           orthorhombic
_symmetry_space_group_name_H-M   'P 21 21 21'
_symmetry_Int_Tables_number      19
_space_group_name_Hall           'P 2ac 2ab'
loop_
_symmetry_equiv_pos_site_id
_symmetry_equiv_pos_as_xyz
1 x,y,z
2 1/2-x,-y,1/2+z
3 1/2+x,1/2-y,-z
4 -x,1/2+y,1/2-z
_cell_length_a                   6.3698(5)
_cell_length_b                   13.2280(12)
_cell_length_c                   34.571(2)
_cell_angle_alpha                90
_cell_angle_beta                 90
_cell_angle_gamma                90
_cell_volume                     2912.94
_exptl_crystal_colour            colorless
_exptl_crystal_description       block
_cell_formula_units_Z            4
loop_
_atom_site_label
_atom_site_type_symbol
_atom_site_fract_x
_atom_site_fract_y
_atom_site_fract_z
O1 O 0.1189(4) 0.26920(19) 0.17556(6)
O2 O -0.1400(4) 0.0847(2) 0.50608(7)
C1 C -0.0467(6) 0.3199(3) 0.19715(9)
H1 H -0.1419 0.3540 0.1791
O3 O -0.0509(4) 0.08898(18) 0.44311(6)
C2 C -0.2576(6) 0.3764(3) 0.27129(9)
C3 C -0.3411(6) 0.2921(3) 0.24446(9)
H2 H -0.4391 0.3238 0.2263
C4 C -0.1324(6) 0.3308(3) 0.30569(9)
H3 H -0.0043 0.3011 0.2949
C5 C -0.1164(6) 0.1977(3) 0.35927(9)
H4 H -0.2075 0.1510 0.3735
C6 C 0.0659(6) 0.2367(3) 0.13987(9)
C7 C -0.3320(6) 0.1651(3) 0.29887(10)
H5 H -0.2143 0.1295 0.2874
H6 H -0.4158 0.1164 0.3131
C8 C -0.0295(6) 0.2751(3) 0.38897(9)
C9 C 0.1470(6) 0.2179(3) 0.41054(9)
H7 H 0.2620 0.2660 0.4145
C10 C -0.1674(6) 0.2423(3) 0.22029(10)
H8 H -0.0717 0.2067 0.2373
H9 H -0.2295 0.1933 0.2028
C11 C -0.2498(6) 0.2454(3) 0.32678(9)
H10 H -0.3726 0.2761 0.3392
C12 C 0.0725(7) 0.3629(3) 0.36709(10)
H11 H 0.1094 0.4151 0.3856
H12 H 0.2017 0.3389 0.3554
C13 C 0.4159(6) 0.1488(3) 0.14007(10)
H13 H 0.4438 0.1749 0.1645
C14 C -0.1204(6) 0.4486(3) 0.24683(10)
H14 H -0.2107 0.4851 0.2291
H15 H -0.0563 0.4978 0.2640
C15 C 0.2288(6) 0.1723(3) 0.12167(10)
O4 O -0.0983(4) 0.2576(2) 0.12461(7)
C16 C -0.4648(6) 0.2120(3) 0.26690(10)
H16 H -0.5888 0.2427 0.2782
H17 H -0.5106 0.1594 0.2493
C17 C 0.5205(7) 0.0481(3) 0.08576(10)
H18 H 0.6173 0.0057 0.0738
C18 C -0.4442(6) 0.4399(3) 0.28603(10)
H19 H -0.5257 0.4005 0.3039
H20 H -0.5307 0.4595 0.2645
H21 H -0.3925 0.4993 0.2988
C19 C 0.0531(6) 0.3967(3) 0.22351(9)
H22 H 0.1294 0.4463 0.2084
H23 H 0.1512 0.3636 0.2409
C20 C 0.5608(7) 0.0869(3) 0.12225(10)
H24 H 0.6858 0.0711 0.1348
C21 C -0.1551(6) 0.0509(3) 0.47350(10)
C22 C -0.2032(6) 0.3151(3) 0.41531(10)
H25 H -0.2721 0.2594 0.4278
H26 H -0.3034 0.3522 0.4002
H27 H -0.1434 0.3589 0.4345
C23 C 0.3351(7) 0.0730(3) 0.06721(11)
H28 H 0.3089 0.0488 0.0424
C24 C 0.2268(6) 0.1370(3) 0.38145(9)
H29 H 0.3689 0.1527 0.3733
H30 H 0.2270 0.0708 0.3935
C25 C 0.2886(6) 0.1344(3) 0.47066(10)
H31 H 0.3531 0.0818 0.4557
H32 H 0.2493 0.1082 0.4955
H33 H 0.3862 0.1890 0.4740
C26 C 0.0792(6) 0.1377(3) 0.34657(10)
H34 H 0.0410 0.0692 0.3394
H35 H 0.1460 0.1700 0.3246
C27 C -0.2940(6) -0.0345(3) 0.46243(10)
C28 C -0.0629(6) 0.4099(3) 0.33566(9)
H36 H 0.0158 0.4629 0.3228
H37 H -0.1860 0.4404 0.3474
C29 C -0.4938(7) -0.1274(3) 0.41559(11)
H38 H -0.5318 -0.1389 0.3900
C30 C 0.1896(6) 0.1333(3) 0.08532(10)
H39 H 0.0636 0.1481 0.0730
C31 C -0.3853(7) -0.0916(3) 0.49155(11)
H40 H -0.3498 -0.0794 0.5172
C32 C 0.0955(6) 0.1726(3) 0.44990(9)
H41 H 0.0266 0.2239 0.4659
C33 C -0.5854(7) -0.1831(3) 0.44471(11)
H42 H -0.6855 -0.2318 0.4387
C34 C -0.3455(6) -0.0543(3) 0.42420(11)
H43 H -0.2805 -0.0186 0.4044
C35 C -0.5294(7) -0.1669(3) 0.48263(11)
H44 H -0.5877 -0.2061 0.5022
loop_
_geom_bond_atom_site_label_1
_geom_bond_atom_site_label_2
_geom_bond_site_symmetry_1
_geom_bond_site_symmetry_2
O1 C1 1_555 1_555
O2 C21 1_555 1_555
C1 H1 1_555 1_555
O3 C21 1_555 1_555
C2 C3 1_555 1_555
C3 H2 1_555 1_555
C4 C2 1_555 1_555
H3 C4 1_555 1_555
C5 H4 1_555 1_555
C6 O1 1_555 1_555
C7 H5 1_555 1_555
H6 C7 1_555 1_555
C8 C5 1_555 1_555
C9 C8 1_555 1_555
H7 C9 1_555 1_555
C10 C1 1_555 1_555
H8 C10 1_555 1_555
H9 C10 1_555 1_555
C11 C4 1_555 1_555
H10 C11 1_555 1_555
C12 C8 1_555 1_555
H11 C12 1_555 1_555
H12 C12 1_555 1_555
C13 H13 1_555 1_555
C14 C2 1_555 1_555
H14 C14 1_555 1_555
H15 C14 1_555 1_555
C15 C6 1_555 1_555
O4 C6 1_555 1_555
C16 C3 1_555 1_555
H16 C16 1_555 1_555
H17 C16 1_555 1_555
C17 H18 1_555 1_555
C18 C2 1_555 1_555
H19 C18 1_555 1_555
H20 C18 1_555 1_555
H21 C18 1_555 1_555
C19 C1 1_555 1_555
H22 C19 1_555 1_555
H23 C19 1_555 1_555
C20 C13 1_555 1_555
H24 C20 1_555 1_555
C21 C27 1_555 1_555
C22 C8 1_555 1_555
H25 C22 1_555 1_555
H26 C22 1_555 1_555
H27 C22 1_555 1_555
C23 C17 1_555 1_555
H28 C23 1_555 1_555
C24 C9 1_555 1_555
H29 C24 1_555 1_555
H30 C24 1_555 1_555
C25 H31 1_555 1_555
H32 C25 1_555 1_555
H33 C25 1_555 1_555
C26 C5 1_555 1_555
H34 C26 1_555 1_555
H35 C26 1_555 1_555
C27 C31 1_555 1_555
C28 C4 1_555 1_555
H36 C28 1_555 1_555
H37 C28 1_555 1_555
C29 H38 1_555 1_555
C30 C15 1_555 1_555
H39 C30 1_555 1_555
C31 H40 1_555 1_555
C32 O3 1_555 1_555
H41 C32 1_555 1_555
C33 C29 1_555 1_555
H42 C33 1_555 1_555
C34 C27 1_555 1_555
H43 C34 1_555 1_555
C35 C31 1_555 1_555
H44 C35 1_555 1_555
C3 C10 1_555 1_555
C5 C11 1_555 1_555
C7 C11 1_555 1_555
C7 C16 1_555 1_555
C9 C32 1_555 1_555
C12 C28 1_555 1_555
C13 C15 1_555 1_555
C14 C19 1_555 1_555
C17 C20 1_555 1_555
C23 C30 1_555 1_555
C24 C26 1_555 1_555
C25 C32 1_555 1_555
C29 C34 1_555 1_555
C33 C35 1_555 1_555

#END
