
#######################################################################
#
#                 Cambridge Crystallographic Data Centre
#                                CCDC 
#
#######################################################################
#
# If this CIF has been generated from an entry in the Cambridge 
# Structural Database, then it will include bibliographic, chemical, 
# crystal, experimental, refinement or atomic coordinate data resulting 
# from the CCDC's data processing and validation procedures.
#
#######################################################################

data_PIDLIA
_chemical_formula_moiety         'C23 H30 O4'
_chemical_name_systematic        
'3-acetyl-3a-methyl-12-oxo-2,3,3a,4,5,5a,8,9,10,11,12,13b-dodecahydro-1H-6,11-methanocyclodeca[e]inden-9-yl acetate'
_symmetry_cell_setting           orthorhombic
_symmetry_space_group_name_H-M   'P 21 21 21'
_symmetry_Int_Tables_number      19
_space_group_name_Hall           'P 2ac 2ab'
loop_
_symmetry_equiv_pos_site_id
_symmetry_equiv_pos_as_xyz
1 x,y,z
2 1/2-x,-y,1/2+z
3 -x,1/2+y,1/2-z
4 1/2+x,1/2-y,-z
_cell_length_a                   6.70030(10)
_cell_length_b                   14.5512(3)
_cell_length_c                   20.4826(4)
_cell_angle_alpha                90
_cell_angle_beta                 90
_cell_angle_gamma                90
_cell_volume                     1997
_exptl_crystal_colour            colorless
_exptl_crystal_description       prismatic
_chemical_melting_point          '162.3-163.9 deg.C'
_cell_formula_units_Z            4
loop_
_atom_site_label
_atom_site_type_symbol
_atom_site_fract_x
_atom_site_fract_y
_atom_site_fract_z
O1 O 0.0327(3) 0.46982(12) 0.53280(9)
O2 O 0.2383(6) -0.05544(16) 0.73390(12)
O3 O 0.4365(3) 0.69010(10) 0.59750(8)
O4 O 0.5817(4) 0.68876(15) 0.49980(10)
C1 C 0.5750(3) 0.43989(15) 0.60719(12)
H1 H 0.6639 0.4146 0.5773
C2 C 0.5845(4) 0.54180(16) 0.61947(13)
H2 H 0.7022 0.5668 0.5984
H3 H 0.5968 0.5527 0.6660
C3 C 0.3998(3) 0.59162(14) 0.59392(12)
H4 H 0.3768 0.5741 0.5483
C4 C 0.2088(4) 0.57769(16) 0.63265(13)
H5 H 0.1018 0.6098 0.6103
H6 H 0.2255 0.6066 0.6750
C5 C 0.1428(3) 0.47798(15) 0.64365(12)
H7 H 0.0208 0.4808 0.6700
C6 C 0.0877(3) 0.42814(15) 0.58081(11)
C7 C 0.0780(3) 0.32539(14) 0.57971(11)
H8 H -0.0420 0.3013 0.5646
C8 C 0.2133(3) 0.26280(14) 0.59689(10)
C9 C 0.4241(3) 0.28434(15) 0.62007(11)
H9 H 0.5141 0.2715 0.5835
C10 C 0.4471(3) 0.38435(15) 0.63659(11)
C11 C 0.4921(4) 0.22304(17) 0.67779(14)
H10 H 0.6348 0.2304 0.6839
H11 H 0.4265 0.2439 0.7173
C12 C 0.4457(4) 0.12090(16) 0.66766(13)
H12 H 0.5263 0.0972 0.6321
H13 H 0.4795 0.0870 0.7069
C13 C 0.2257(3) 0.10699(14) 0.65198(10)
C14 C 0.1766(3) 0.16123(14) 0.58890(10)
H14 H 0.2697 0.1397 0.5554
C15 C -0.0301(4) 0.12610(16) 0.56939(12)
H15 H -0.0507 0.1319 0.5227
H16 H -0.1342 0.1597 0.5920
C16 C -0.0279(4) 0.02377(16) 0.59039(15)
H17 H -0.1427 0.0100 0.6175
H18 H -0.0307 -0.0160 0.5524
C17 C 0.1679(4) 0.00987(15) 0.62921(11)
H19 H 0.2693 -0.0089 0.5974
C18 C 0.0910(4) 0.13814(16) 0.70881(11)
H20 H 0.1415 0.1136 0.7491
H21 H -0.0423 0.1161 0.7018
H22 H 0.0900 0.2040 0.7110
C19 C 0.2930(4) 0.42222(17) 0.68301(11)
H23 H 0.3567 0.4610 0.7154
H24 H 0.2259 0.3723 0.7054
C20 C 0.1616(5) -0.06533(18) 0.68113(13)
C21 C 0.0653(6) -0.1531(2) 0.66445(17)
H25 H 0.1156 -0.2007 0.6924
H26 H 0.0938 -0.1682 0.6198
H27 H -0.0764 -0.1476 0.6702
C22 C 0.5290(4) 0.73012(17) 0.54716(13)
C23 C 0.5606(5) 0.82977(19) 0.55795(18)
H28 H 0.6932 0.8462 0.5446
H29 H 0.5436 0.8436 0.6034
H30 H 0.4653 0.8640 0.5328
loop_
_geom_bond_atom_site_label_1
_geom_bond_atom_site_label_2
_geom_bond_site_symmetry_1
_geom_bond_site_symmetry_2
O1 C6 1_555 1_555
O2 C20 1_555 1_555
O3 C3 1_555 1_555
O4 C22 1_555 1_555
C1 H1 1_555 1_555
C2 C1 1_555 1_555
H2 C2 1_555 1_555
H3 C2 1_555 1_555
C3 C2 1_555 1_555
H4 C3 1_555 1_555
C4 C3 1_555 1_555
H5 C4 1_555 1_555
H6 C4 1_555 1_555
C5 C4 1_555 1_555
H7 C5 1_555 1_555
C6 C5 1_555 1_555
C7 C6 1_555 1_555
H8 C7 1_555 1_555
C8 C7 1_555 1_555
C9 C8 1_555 1_555
H9 C9 1_555 1_555
C10 C1 1_555 1_555
C11 C9 1_555 1_555
H10 C11 1_555 1_555
H11 C11 1_555 1_555
C12 C11 1_555 1_555
H12 C12 1_555 1_555
H13 C12 1_555 1_555
C13 C12 1_555 1_555
C14 C8 1_555 1_555
H14 C14 1_555 1_555
C15 C14 1_555 1_555
H15 C15 1_555 1_555
H16 C15 1_555 1_555
C16 C15 1_555 1_555
H17 C16 1_555 1_555
H18 C16 1_555 1_555
C17 C13 1_555 1_555
H19 C17 1_555 1_555
C18 C13 1_555 1_555
H20 C18 1_555 1_555
H21 C18 1_555 1_555
H22 C18 1_555 1_555
C19 C5 1_555 1_555
H23 C19 1_555 1_555
H24 C19 1_555 1_555
C20 C17 1_555 1_555
C21 C20 1_555 1_555
H25 C21 1_555 1_555
H26 C21 1_555 1_555
H27 C21 1_555 1_555
C22 O3 1_555 1_555
C23 C22 1_555 1_555
H28 C23 1_555 1_555
H29 C23 1_555 1_555
H30 C23 1_555 1_555
C9 C10 1_555 1_555
C10 C19 1_555 1_555
C13 C14 1_555 1_555
C16 C17 1_555 1_555

#END
