
#######################################################################
#
#                 Cambridge Crystallographic Data Centre
#                                CCDC 
#
#######################################################################
#
# If this CIF has been generated from an entry in the Cambridge 
# Structural Database, then it will include bibliographic, chemical, 
# crystal, experimental, refinement or atomic coordinate data resulting 
# from the CCDC's data processing and validation procedures.
#
#######################################################################

data_PIDLOG01
_chemical_formula_moiety         'C16 H19 N1 O1 S1'
_chemical_name_systematic        
2-methyl-N-[2-(1-phenylethyl)thiophen-3-yl]propanamide
_symmetry_cell_setting           orthorhombic
_symmetry_space_group_name_H-M   'P 21 21 21'
_symmetry_Int_Tables_number      19
_space_group_name_Hall           'P 2ac 2ab'
loop_
_symmetry_equiv_pos_site_id
_symmetry_equiv_pos_as_xyz
1 x,y,z
2 1/2-x,-y,1/2+z
3 -x,1/2+y,1/2-z
4 1/2+x,1/2-y,-z
_cell_length_a                   5.05680(10)
_cell_length_b                   16.3847(4)
_cell_length_c                   17.2832(4)
_cell_angle_alpha                90
_cell_angle_beta                 90
_cell_angle_gamma                90
_cell_volume                     1431.98
_exptl_crystal_colour            colorless
_exptl_crystal_description       block
_cell_formula_units_Z            4
loop_
_atom_site_label
_atom_site_type_symbol
_atom_site_fract_x
_atom_site_fract_y
_atom_site_fract_z
S1 S 0.65312(9) 0.60476(3) 0.50392(2)
O1 O 1.0272(2) 0.67889(9) 0.76314(7)
N1 N 0.6032(3) 0.66535(9) 0.72264(9)
C1 C 0.5368(3) 0.59791(11) 0.59788(9)
C2 C 0.6632(3) 0.65490(10) 0.64319(9)
C3 C 0.8529(4) 0.70254(11) 0.60268(10)
H1 H 0.956220 0.744222 0.626035
C4 C 0.8696(4) 0.68167(11) 0.52657(10)
H2 H 0.986496 0.706568 0.490578
C5 C 0.3259(4) 0.53729(11) 0.62046(10)
H3 H 0.167073 0.569061 0.637182
C6 C 0.2430(4) 0.48427(12) 0.55153(10)
H4 H 0.182143 0.519373 0.509207
H5 H 0.099336 0.447714 0.567273
H6 H 0.394405 0.451825 0.534028
C7 C 0.4070(3) 0.48271(11) 0.68798(10)
C8 C 0.6185(4) 0.42915(13) 0.68140(12)
H7 H 0.723718 0.429957 0.635871
C9 C 0.6792(4) 0.37440(13) 0.74013(13)
H8 H 0.823610 0.337829 0.734353
C10 C 0.5294(4) 0.37317(12) 0.80690(12)
H9 H 0.570118 0.335827 0.847230
C11 C 0.3208(5) 0.42646(13) 0.81459(11)
H10 H 0.217986 0.426018 0.860584
C12 C 0.2589(4) 0.48120(12) 0.75536(11)
H11 H 0.114250 0.517650 0.761333
C13 C 0.7893(3) 0.67717(11) 0.77770(10)
C14 C 0.6864(3) 0.68539(12) 0.85975(10)
H12 H 0.490163 0.692735 0.858315
C15 C 0.7516(5) 0.60675(16) 0.90324(13)
H13 H 0.676463 0.560072 0.875433
H14 H 0.676222 0.609270 0.955423
H15 H 0.943958 0.600470 0.906763
C16 C 0.8118(5) 0.75944(15) 0.89862(13)
H16 H 1.004619 0.753541 0.898391
H17 H 0.748871 0.763395 0.952124
H18 H 0.762378 0.808988 0.870331
H19 H 0.455(6) 0.6649(15) 0.7361(14)
loop_
_geom_bond_atom_site_label_1
_geom_bond_atom_site_label_2
_geom_bond_site_symmetry_1
_geom_bond_site_symmetry_2
S1 C1 1_555 1_555
O1 C13 1_555 1_555
N1 C2 1_555 1_555
C1 C2 1_555 1_555
C2 C3 1_555 1_555
C3 H1 1_555 1_555
C4 S1 1_555 1_555
H2 C4 1_555 1_555
C5 C1 1_555 1_555
H3 C5 1_555 1_555
C6 C5 1_555 1_555
H4 C6 1_555 1_555
H5 C6 1_555 1_555
H6 C6 1_555 1_555
C7 C5 1_555 1_555
C8 C7 1_555 1_555
H7 C8 1_555 1_555
C9 C8 1_555 1_555
H8 C9 1_555 1_555
C10 C9 1_555 1_555
H9 C10 1_555 1_555
C11 C10 1_555 1_555
H10 C11 1_555 1_555
C12 C7 1_555 1_555
H11 C12 1_555 1_555
C13 N1 1_555 1_555
C14 C13 1_555 1_555
H12 C14 1_555 1_555
C15 C14 1_555 1_555
H13 C15 1_555 1_555
H14 C15 1_555 1_555
H15 C15 1_555 1_555
C16 C14 1_555 1_555
H16 C16 1_555 1_555
H17 C16 1_555 1_555
H18 C16 1_555 1_555
H19 N1 1_555 1_555
C3 C4 1_555 1_555
C11 C12 1_555 1_555

#END
