
#######################################################################
#
#                 Cambridge Crystallographic Data Centre
#                                CCDC 
#
#######################################################################
#
# If this CIF has been generated from an entry in the Cambridge 
# Structural Database, then it will include bibliographic, chemical, 
# crystal, experimental, refinement or atomic coordinate data resulting 
# from the CCDC's data processing and validation procedures.
#
#######################################################################

data_PIDLUM
_chemical_formula_moiety         'C15 H18 N1 1+,C10 H15 O4 S1 1-'
_chemical_name_systematic        
'(R)-2-Methyl-6-(1-phenylethyl)benzenaminium ((1S,4R)-7,7-dimethyl-2-oxobicyclo[2.2.1]heptan-1-yl)methanesulfonate'
_symmetry_cell_setting           monoclinic
_symmetry_space_group_name_H-M   'P 21'
_symmetry_Int_Tables_number      4
_space_group_name_Hall           'P 2yb'
loop_
_symmetry_equiv_pos_site_id
_symmetry_equiv_pos_as_xyz
1 x,y,z
2 -x,1/2+y,-z
_cell_length_a                   9.8224(3)
_cell_length_b                   6.6868(2)
_cell_length_c                   17.4224(6)
_cell_angle_alpha                90
_cell_angle_beta                 91.738(2)
_cell_angle_gamma                90
_cell_volume                     1143.78
_exptl_crystal_colour            colorless
_exptl_crystal_description       plate
_chemical_melting_point          '157-159 deg.C'
_cell_formula_units_Z            2
_exptl_crystal_recrystallization_method 'ethyl acetate/hexane'
loop_
_atom_site_label
_atom_site_type_symbol
_atom_site_fract_x
_atom_site_fract_y
_atom_site_fract_z
S1 S 0.48314(7) 0.54992(11) 0.64458(4)
O1 O 0.5800(2) 0.6862(4) 0.68124(12)
O2 O 0.4192(3) 0.6410(4) 0.57559(12)
O3 O 0.5382(2) 0.3528(3) 0.62896(11)
O4 O 0.2241(2) 0.1504(4) 0.76271(13)
C1 C 0.3470(3) 0.5157(5) 0.70807(15)
H1 H 0.302053 0.646846 0.714618
H2 H 0.279454 0.426022 0.682446
C2 C 0.3791(3) 0.4312(4) 0.78784(15)
C3 C 0.5229(3) 0.3383(5) 0.80691(16)
H3 H 0.530684 0.202770 0.784567
H4 H 0.596340 0.423692 0.787152
C4 C 0.5298(3) 0.3299(5) 0.89599(17)
H5 H 0.545368 0.191517 0.914468
H6 H 0.603061 0.417292 0.917179
C5 C 0.3883(3) 0.4065(5) 0.91829(16)
H7 H 0.382827 0.451449 0.972860
C6 C 0.2866(3) 0.2407(5) 0.89502(17)
H8 H 0.318916 0.107753 0.912686
H9 H 0.195378 0.266661 0.915581
C7 C 0.2847(3) 0.2563(4) 0.80773(17)
C8 C 0.3581(3) 0.5729(5) 0.85796(15)
C9 C 0.4600(3) 0.7454(5) 0.86252(18)
H10 H 0.551906 0.694120 0.854420
H11 H 0.456959 0.808292 0.913248
H12 H 0.436453 0.844417 0.822833
C10 C 0.2137(3) 0.6587(5) 0.86033(17)
H13 H 0.201217 0.759304 0.819825
H14 H 0.200201 0.720867 0.910469
H15 H 0.147271 0.550817 0.852222
N1 N 0.3597(2) 0.4870(4) 0.42993(15)
C11 C 0.2178(3) 0.4149(4) 0.41873(15)
C12 C 0.1740(3) 0.2663(4) 0.46910(15)
C13 C 0.0395(3) 0.2021(4) 0.46097(16)
H16 H 0.005522 0.106003 0.495718
C14 C -0.0456(3) 0.2768(4) 0.40267(16)
H17 H -0.137151 0.231754 0.397667
C15 C 0.0033(3) 0.4172(4) 0.35169(15)
H18 H -0.055036 0.465588 0.311340
C16 C 0.1364(3) 0.4886(4) 0.35869(15)
C17 C 0.2668(3) 0.1675(5) 0.52860(17)
H19 H 0.301416 0.041589 0.508021
H20 H 0.215777 0.140253 0.574926
H21 H 0.343386 0.256586 0.541433
C18 C 0.1826(3) 0.6522(4) 0.30430(16)
H22 H 0.283903 0.661231 0.311012
C19 C 0.1260(4) 0.8512(5) 0.33053(19)
H23 H 0.027420 0.854674 0.319962
H24 H 0.169541 0.960120 0.302763
H25 H 0.144335 0.867223 0.385784
C20 C 0.1534(3) 0.6011(4) 0.22037(15)
C21 C 0.1752(3) 0.4084(5) 0.19347(17)
H26 H 0.202994 0.306053 0.228381
C22 C 0.1569(3) 0.3644(6) 0.11624(19)
H27 H 0.170582 0.231718 0.098612
C23 C 0.1186(3) 0.5130(7) 0.06441(17)
H28 H 0.105868 0.482476 0.011423
C24 C 0.0990(3) 0.7057(6) 0.09039(19)
H29 H 0.074871 0.808636 0.054947
C25 C 0.1142(3) 0.7493(5) 0.16749(18)
H30 H 0.098004 0.881539 0.184926
H31 H 0.379(3) 0.510(5) 0.4842(17)
H32 H 0.373(3) 0.595(6) 0.4062(18)
H33 H 0.418(5) 0.387(7) 0.409(3)
loop_
_geom_bond_atom_site_label_1
_geom_bond_atom_site_label_2
_geom_bond_site_symmetry_1
_geom_bond_site_symmetry_2
S1 O1 1_555 1_555
O2 S1 1_555 1_555
O3 S1 1_555 1_555
O4 C7 1_555 1_555
C1 S1 1_555 1_555
H1 C1 1_555 1_555
H2 C1 1_555 1_555
C2 C1 1_555 1_555
C3 C2 1_555 1_555
H3 C3 1_555 1_555
H4 C3 1_555 1_555
C4 C3 1_555 1_555
H5 C4 1_555 1_555
H6 C4 1_555 1_555
C5 C4 1_555 1_555
H7 C5 1_555 1_555
C6 C5 1_555 1_555
H8 C6 1_555 1_555
H9 C6 1_555 1_555
C7 C2 1_555 1_555
C8 C2 1_555 1_555
C9 C8 1_555 1_555
H10 C9 1_555 1_555
H11 C9 1_555 1_555
H12 C9 1_555 1_555
C10 C8 1_555 1_555
H13 C10 1_555 1_555
H14 C10 1_555 1_555
H15 C10 1_555 1_555
N1 C11 1_555 1_555
C11 C12 1_555 1_555
C12 C13 1_555 1_555
C13 H16 1_555 1_555
C14 C13 1_555 1_555
H17 C14 1_555 1_555
C15 C14 1_555 1_555
H18 C15 1_555 1_555
C16 C11 1_555 1_555
C17 C12 1_555 1_555
H19 C17 1_555 1_555
H20 C17 1_555 1_555
H21 C17 1_555 1_555
C18 C16 1_555 1_555
H22 C18 1_555 1_555
C19 C18 1_555 1_555
H23 C19 1_555 1_555
H24 C19 1_555 1_555
H25 C19 1_555 1_555
C20 C18 1_555 1_555
C21 C20 1_555 1_555
H26 C21 1_555 1_555
C22 C21 1_555 1_555
H27 C22 1_555 1_555
C23 C22 1_555 1_555
H28 C23 1_555 1_555
C24 C23 1_555 1_555
H29 C24 1_555 1_555
C25 C20 1_555 1_555
H30 C25 1_555 1_555
H31 N1 1_555 1_555
H32 N1 1_555 1_555
H33 N1 1_555 1_555
C5 C8 1_555 1_555
C6 C7 1_555 1_555
C15 C16 1_555 1_555
C24 C25 1_555 1_555

#END
