
#######################################################################
#
#                 Cambridge Crystallographic Data Centre
#                                CCDC 
#
#######################################################################
#
# If this CIF has been generated from an entry in the Cambridge 
# Structural Database, then it will include bibliographic, chemical, 
# crystal, experimental, refinement or atomic coordinate data resulting 
# from the CCDC's data processing and validation procedures.
#
#######################################################################

data_PIDLOG
_chemical_name_common            
(S)-N-(2-(1-Phenylethyl)thiophen-3-yl)isobutyramide
_chemical_formula_moiety         'C16 H19 N1 O1 S1'
_chemical_name_systematic        
(S)-2-methyl-N-(2-(1-phenylethyl)thiophen-3-yl)propanamide
_symmetry_cell_setting           orthorhombic
_symmetry_space_group_name_H-M   'P 21 21 21'
_symmetry_Int_Tables_number      19
_space_group_name_Hall           'P 2ac 2ab'
loop_
_symmetry_equiv_pos_site_id
_symmetry_equiv_pos_as_xyz
1 x,y,z
2 1/2-x,-y,1/2+z
3 -x,1/2+y,1/2-z
4 1/2+x,1/2-y,-z
_cell_length_a                   5.0523(2)
_cell_length_b                   16.4230(5)
_cell_length_c                   17.2698(5)
_cell_angle_alpha                90
_cell_angle_beta                 90
_cell_angle_gamma                90
_cell_volume                     1432.94
_exptl_crystal_colour            colorless
_exptl_crystal_description       block
_chemical_melting_point          '142-144 deg.C'
_cell_formula_units_Z            4
_exptl_crystal_recrystallization_method dichloromethane/hexane
loop_
_atom_site_label
_atom_site_type_symbol
_atom_site_fract_x
_atom_site_fract_y
_atom_site_fract_z
S1 S 0.34839(10) 0.60492(3) 0.49492(3)
O1 O -0.0265(3) 0.67836(10) 0.23577(8)
N1 N 0.3982(3) 0.66573(10) 0.27628(10)
H1 H 0.550(7) 0.6644(17) 0.2621(16)
C1 C 0.7375(5) 0.48118(14) 0.24347(12)
H2 H 0.881946 0.517640 0.237282
C2 C 0.6761(6) 0.42664(15) 0.18435(13)
H3 H 0.778764 0.426141 0.138267
C3 C 0.4660(5) 0.37314(14) 0.19248(13)
H4 H 0.424240 0.335797 0.152288
C4 C 0.3179(5) 0.37471(15) 0.25975(14)
H5 H 0.172897 0.338453 0.265993
C5 C 0.3813(5) 0.42932(14) 0.31807(13)
H6 H 0.278389 0.429989 0.364097
C6 C 0.5914(4) 0.48290(12) 0.31075(11)
C7 C 0.6749(4) 0.53743(11) 0.37820(11)
H7 H 0.833921 0.568966 0.361162
C8 C 0.7585(5) 0.48455(13) 0.44712(12)
H8 H 0.606029 0.453108 0.465478
H9 H 0.823474 0.519509 0.488995
H10 H 0.899360 0.447219 0.430958
C9 C 0.4640(4) 0.59820(12) 0.40089(10)
C10 C 0.3384(4) 0.65514(11) 0.35566(10)
C11 C 0.1484(4) 0.70265(11) 0.39645(11)
H11 H 0.045006 0.744293 0.373174
C12 C 0.1316(4) 0.68169(12) 0.47262(12)
H12 H 0.014768 0.706446 0.508718
C13 C 0.2117(4) 0.67697(11) 0.22128(11)
C14 C 0.3147(4) 0.68542(12) 0.13904(11)
H13 H 0.511413 0.692021 0.140348
C15 C 0.1913(6) 0.76005(15) 0.10081(14)
H14 H -0.001772 0.754210 0.100155
H15 H 0.256787 0.764923 0.047604
H16 H 0.239445 0.808946 0.130119
C16 C 0.2457(6) 0.60779(17) 0.09501(14)
H17 H 0.320840 0.560711 0.122075
H18 H 0.319029 0.610731 0.042551
H19 H 0.052888 0.602037 0.092115
loop_
_geom_bond_atom_site_label_1
_geom_bond_atom_site_label_2
_geom_bond_site_symmetry_1
_geom_bond_site_symmetry_2
S1 C9 1_555 1_555
O1 C13 1_555 1_555
N1 H1 1_555 1_555
C1 H2 1_555 1_555
C2 C1 1_555 1_555
H3 C2 1_555 1_555
C3 C2 1_555 1_555
H4 C3 1_555 1_555
C4 C3 1_555 1_555
H5 C4 1_555 1_555
C5 C4 1_555 1_555
H6 C5 1_555 1_555
C6 C1 1_555 1_555
C7 C6 1_555 1_555
H7 C7 1_555 1_555
C8 C7 1_555 1_555
H8 C8 1_555 1_555
H9 C8 1_555 1_555
H10 C8 1_555 1_555
C9 C7 1_555 1_555
C10 N1 1_555 1_555
C11 C10 1_555 1_555
H11 C11 1_555 1_555
C12 S1 1_555 1_555
H12 C12 1_555 1_555
C13 N1 1_555 1_555
C14 C13 1_555 1_555
H13 C14 1_555 1_555
C15 C14 1_555 1_555
H14 C15 1_555 1_555
H15 C15 1_555 1_555
H16 C15 1_555 1_555
C16 C14 1_555 1_555
H17 C16 1_555 1_555
H18 C16 1_555 1_555
H19 C16 1_555 1_555
C5 C6 1_555 1_555
C9 C10 1_555 1_555
C11 C12 1_555 1_555

#END
