
#######################################################################
#
#                 Cambridge Crystallographic Data Centre
#                                CCDC 
#
#######################################################################
#
# If this CIF has been generated from an entry in the Cambridge 
# Structural Database, then it will include bibliographic, chemical, 
# crystal, experimental, refinement or atomic coordinate data resulting 
# from the CCDC's data processing and validation procedures.
#
#######################################################################

data_PIDMEX
_chemical_formula_moiety         '2(C16 H36 N1 1+),C2 Cl12 Si4 2-'
_chemical_name_systematic        
'bis(tetra-n-butylammonium) 1,1,2,2-tetrakis(trichlorosilyl)ethane-1,2-diide'
_symmetry_cell_setting           triclinic
_symmetry_space_group_name_H-M   'P -1'
_symmetry_Int_Tables_number      2
_space_group_name_Hall           '-P 1'
loop_
_symmetry_equiv_pos_site_id
_symmetry_equiv_pos_as_xyz
1 x,y,z
2 -x,-y,-z
_cell_length_a                   11.4327(6)
_cell_length_b                   11.8063(6)
_cell_length_c                   19.5139(9)
_cell_angle_alpha                85.921(4)
_cell_angle_beta                 85.777(4)
_cell_angle_gamma                88.686(4)
_cell_volume                     2619.73
_exptl_crystal_colour            colorless
_exptl_crystal_description       block
_cell_formula_units_Z            2
loop_
_atom_site_label
_atom_site_type_symbol
_atom_site_fract_x
_atom_site_fract_y
_atom_site_fract_z
C1 C 0.2213(3) 0.2846(3) 0.28818(17)
C2 C 0.2077(3) 0.2815(3) 0.21085(17)
Si1 Si 0.35901(10) 0.26471(10) 0.32067(5)
Si2 Si 0.20531(9) 0.41306(8) 0.16283(5)
Si3 Si 0.09446(9) 0.28707(9) 0.34532(5)
Si4 Si 0.20481(9) 0.14851(8) 0.17710(5)
Cl1 Cl 0.42459(14) 0.09818(14) 0.33170(8)
Cl2 Cl 0.49554(11) 0.34381(14) 0.26341(7)
Cl3 Cl 0.36694(11) 0.31575(15) 0.41926(6)
Cl4 Cl 0.07201(12) 0.14853(10) 0.41810(6)
Cl5 Cl 0.07315(10) 0.41707(10) 0.41217(6)
Cl6 Cl -0.05883(9) 0.29497(12) 0.29745(6)
Cl7 Cl 0.36342(10) 0.48121(10) 0.11903(7)
Cl8 Cl 0.13606(13) 0.54213(9) 0.21913(6)
Cl9 Cl 0.11116(12) 0.42424(10) 0.07585(6)
Cl10 Cl 0.36489(10) 0.06891(9) 0.14996(6)
Cl11 Cl 0.12331(10) 0.14031(9) 0.08651(5)
Cl12 Cl 0.12380(11) 0.02675(8) 0.24419(5)
N1 N 0.7243(2) 0.2537(2) 0.06038(15)
C3 C 0.6974(3) 0.1767(3) 0.12521(19)
H1 H 0.6416 0.2173 0.1565
H2 H 0.6575 0.1087 0.1123
C4 C 0.8013(4) 0.1380(4) 0.1644(2)
H3 H 0.8491 0.2042 0.1721
H4 H 0.8511 0.0850 0.1373
C5 C 0.7586(4) 0.0779(4) 0.2341(2)
H5 H 0.8277 0.0547 0.2599
H6 H 0.7115 0.1326 0.2613
C6 C 0.6855(4) -0.0258(4) 0.2277(3)
H7 H 0.6605 -0.0590 0.2738
H8 H 0.7324 -0.0818 0.2025
H9 H 0.6163 -0.0035 0.2028
C7 C 0.7863(3) 0.3606(3) 0.0760(2)
H10 H 0.8668 0.3390 0.0881
H11 H 0.7932 0.4117 0.0335
C8 C 0.7283(4) 0.4261(4) 0.1331(2)
H12 H 0.7330 0.3815 0.1777
H13 H 0.6444 0.4399 0.1252
C9 C 0.7900(5) 0.5406(4) 0.1353(3)
H14 H 0.8738 0.5263 0.1432
H15 H 0.7858 0.5845 0.0904
C10 C 0.7347(7) 0.6083(6) 0.1910(3)
H16 H 0.7746 0.6810 0.1905
H17 H 0.7415 0.5662 0.2357
H18 H 0.6517 0.6223 0.1834
C11 C 0.6091(3) 0.2876(3) 0.03045(19)
H19 H 0.5555 0.3171 0.0675
H20 H 0.6238 0.3508 -0.0051
C12 C 0.5470(3) 0.1953(3) -0.0015(2)
H21 H 0.5367 0.1288 0.0321
H22 H 0.5953 0.1708 -0.0422
C13 C 0.4279(4) 0.2376(4) -0.0232(2)
H23 H 0.3808 0.2643 0.0173
H24 H 0.4387 0.3028 -0.0578
C14 C 0.3628(4) 0.1457(4) -0.0535(3)
H25 H 0.2866 0.1758 -0.0670
H26 H 0.3507 0.0816 -0.0191
H27 H 0.4087 0.1199 -0.0941
C15 C 0.8044(3) 0.1905(3) 0.00951(19)
H28 H 0.8789 0.1710 0.0308
H29 H 0.7670 0.1184 0.0012
C16 C 0.8324(4) 0.2559(3) -0.0594(2)
H30 H 0.7586 0.2853 -0.0781
H31 H 0.8814 0.3217 -0.0527
C17 C 0.8964(4) 0.1821(4) -0.1104(2)
H32 H 0.8499 0.1132 -0.1137
H33 H 0.9012 0.2239 -0.1564
C18 C 1.0168(4) 0.1465(5) -0.0932(3)
H34 H 1.0522 0.0990 -0.1286
H35 H 1.0131 0.1032 -0.0484
H36 H 1.0645 0.2140 -0.0911
N2 N 0.2513(3) 0.7592(3) 0.44368(19)
C19 C 0.3225(11) 0.7109(14) 0.3829(6)
H37 H 0.3589 0.7848 0.3683
H38 H 0.3804 0.6733 0.4128
C20 C 0.3584(12) 0.6729(12) 0.3395(7)
H39 H 0.2888 0.6347 0.3252
H40 H 0.4059 0.6108 0.3609
C21 C 0.4271(10) 0.6946(9) 0.2710(5)
H41 H 0.5038 0.7215 0.2831
H42 H 0.4428 0.6179 0.2546
C22 C 0.4039(9) 0.7594(9) 0.2137(6)
H43 H 0.4708 0.7537 0.1796
H44 H 0.3334 0.7317 0.1950
H45 H 0.3913 0.8389 0.2242
C23 C 0.3191(11) 0.8489(9) 0.4715(6)
H46 H 0.3358 0.9100 0.4349
H47 H 0.3951 0.8163 0.4853
C24 C 0.2526(19) 0.9005(16) 0.5345(11)
H48 H 0.2498 0.8469 0.5759
H49 H 0.1721 0.9261 0.5247
C25 C 0.336(3) 1.004(3) 0.5414(15)
H50 H 0.4076 0.9625 0.5552
H51 H 0.3540 1.0278 0.4921
C26 C 0.3503(9) 1.0955(7) 0.5670(5)
H52 H 0.4279 1.1242 0.5506
H53 H 0.2899 1.1510 0.5532
H54 H 0.3457 1.0835 0.6173
C27 C 0.1375(8) 0.8181(8) 0.4152(5)
H55 H 0.0851 0.8369 0.4557
H56 H 0.1618 0.8912 0.3909
C28 C 0.0722(5) 0.7658(6) 0.3731(4)
H57 H 0.1223 0.6983 0.3640
H58 H 0.0837 0.8163 0.3305
C29 C -0.0418(9) 0.7221(10) 0.3649(5)
H59 H -0.0327 0.6391 0.3612
H60 H -0.0912 0.7335 0.4077
C30 C -0.1056(7) 0.7666(8) 0.3084(4)
H61 H -0.1816 0.7294 0.3103
H62 H -0.1180 0.8486 0.3111
H63 H -0.0608 0.7520 0.2651
C31 C 0.2168(8) 0.6632(8) 0.4946(5)
H64 H 0.1735 0.6076 0.4710
H65 H 0.1620 0.6931 0.5310
C32 C 0.3160(10) 0.6019(10) 0.5284(6)
H66 H 0.3558 0.6545 0.5561
H67 H 0.3740 0.5750 0.4927
C33 C 0.2698(9) 0.5011(9) 0.5749(5)
H68 H 0.2172 0.5282 0.6131
H69 H 0.2244 0.4514 0.5482
C34 C 0.3600(8) 0.4435(8) 0.5998(5)
H70 H 0.3299 0.3786 0.6294
H71 H 0.4111 0.4160 0.5617
H72 H 0.4048 0.4919 0.6267
C35? C 0.3299(11) 0.7872(13) 0.3812(6)
H73? H 0.3317 0.8710 0.3811
H74? H 0.4068 0.7612 0.3973
C36? C 0.3447(13) 0.7741(15) 0.3209(7)
H75? H 0.2832 0.8242 0.3013
H76? H 0.3165 0.6960 0.3181
C37? C 0.4345(18) 0.782(2) 0.2699(10)
H77? H 0.4655 0.8597 0.2663
H78? H 0.4989 0.7288 0.2830
H79? H 0.4709 0.7735 0.1801
H80? H 0.3840 0.6789 0.2159
H81? H 0.3364 0.8058 0.1996
C38? C 0.2239(10) 0.8654(8) 0.4830(6)
H82? H 0.1851 0.9215 0.4516
H83? H 0.1654 0.8441 0.5215
C39? C 0.3169(10) 0.9226(9) 0.5115(5)
H84? H 0.3691 0.9572 0.4733
H85? H 0.3640 0.8661 0.5381
C40? C 0.2721(13) 1.0164(13) 0.5590(9)
H86? H 0.2022 1.0540 0.5399
H87? H 0.2472 0.9801 0.6049
H88? H 0.3128 1.1513 0.5968
H89? H 0.4171 1.0593 0.5892
H90? H 0.3779 1.1338 0.5228
H91? H 0.1184 0.8353 0.3613
H92? H 0.0922 0.7171 0.3345
H93? H -0.1828 0.8045 0.3093
H94? H -0.0631 0.7842 0.2636
H95? H -0.1154 0.6843 0.3159
C41? C 0.1370(7) 0.7092(8) 0.4277(4)
H96? H 0.1533 0.6300 0.4159
H97? H 0.0847 0.7058 0.4706
C42? C -0.0433(9) 0.8049(11) 0.3591(6)
H98? H -0.0925 0.7915 0.4027
H99? H -0.0388 0.8883 0.3500
H100? H 0.3935 0.4164 0.6429
H101? H 0.2978 0.3924 0.5900
H102? H 0.4215 0.4448 0.5620
C43? C 0.3156(9) 0.6699(9) 0.4906(5)
H103? H 0.3282 0.5997 0.4660
H104? H 0.3937 0.6992 0.4981
C44? C 0.2523(12) 0.6396(11) 0.5602(6)
H105? H 0.2403 0.7099 0.5848
H106? H 0.1739 0.6110 0.5526
C45? C 0.3132(14) 0.5525(14) 0.6059(9)
H107? H 0.3796 0.5947 0.6208
H108? H 0.2576 0.5431 0.6472
loop_
_geom_bond_atom_site_label_1
_geom_bond_atom_site_label_2
_geom_bond_site_symmetry_1
_geom_bond_site_symmetry_2
C1 C2 1_555 1_555
C2 Si2 1_555 1_555
Si1 C1 1_555 1_555
Si2 Cl7 1_555 1_555
Si3 C1 1_555 1_555
Si4 C2 1_555 1_555
Cl1 Si1 1_555 1_555
Cl2 Si1 1_555 1_555
Cl3 Si1 1_555 1_555
Cl4 Si3 1_555 1_555
Cl5 Si3 1_555 1_555
Cl6 Si3 1_555 1_555
Cl8 Si2 1_555 1_555
Cl9 Si2 1_555 1_555
Cl10 Si4 1_555 1_555
Cl11 Si4 1_555 1_555
Cl12 Si4 1_555 1_555
N1 C3 1_555 1_555
C3 H1 1_555 1_555
H2 C3 1_555 1_555
C4 C3 1_555 1_555
H3 C4 1_555 1_555
H4 C4 1_555 1_555
C5 C4 1_555 1_555
H5 C5 1_555 1_555
H6 C5 1_555 1_555
C6 C5 1_555 1_555
H7 C6 1_555 1_555
H8 C6 1_555 1_555
H9 C6 1_555 1_555
C7 N1 1_555 1_555
H10 C7 1_555 1_555
H11 C7 1_555 1_555
C8 C7 1_555 1_555
H12 C8 1_555 1_555
H13 C8 1_555 1_555
C9 C8 1_555 1_555
H14 C9 1_555 1_555
H15 C9 1_555 1_555
C10 C9 1_555 1_555
H16 C10 1_555 1_555
H17 C10 1_555 1_555
H18 C10 1_555 1_555
C11 N1 1_555 1_555
H19 C11 1_555 1_555
H20 C11 1_555 1_555
C12 C11 1_555 1_555
H21 C12 1_555 1_555
H22 C12 1_555 1_555
C13 C12 1_555 1_555
H23 C13 1_555 1_555
H24 C13 1_555 1_555
C14 C13 1_555 1_555
H25 C14 1_555 1_555
H26 C14 1_555 1_555
H27 C14 1_555 1_555
C15 N1 1_555 1_555
H28 C15 1_555 1_555
H29 C15 1_555 1_555
C16 C15 1_555 1_555
H30 C16 1_555 1_555
H31 C16 1_555 1_555
C17 C16 1_555 1_555
H32 C17 1_555 1_555
H33 C17 1_555 1_555
C18 C17 1_555 1_555
H34 C18 1_555 1_555
H35 C18 1_555 1_555
H36 C18 1_555 1_555
N2 C19 1_555 1_555
C19 H37 1_555 1_555
H38 C19 1_555 1_555
C20 C19 1_555 1_555
H39 C20 1_555 1_555
H40 C20 1_555 1_555
C21 C20 1_555 1_555
H41 C21 1_555 1_555
H42 C21 1_555 1_555
C22 C21 1_555 1_555
H43 C22 1_555 1_555
H44 C22 1_555 1_555
H45 C22 1_555 1_555
C23 N2 1_555 1_555
H46 C23 1_555 1_555
H47 C23 1_555 1_555
C24 C23 1_555 1_555
H48 C24 1_555 1_555
H49 C24 1_555 1_555
C25 C24 1_555 1_555
H50 C25 1_555 1_555
H51 C25 1_555 1_555
C26 C25 1_555 1_555
H52 C26 1_555 1_555
H53 C26 1_555 1_555
H54 C26 1_555 1_555
C27 N2 1_555 1_555
H55 C27 1_555 1_555
H56 C27 1_555 1_555
C28 C27 1_555 1_555
H57 C28 1_555 1_555
H58 C28 1_555 1_555
C29 C28 1_555 1_555
H59 C29 1_555 1_555
H60 C29 1_555 1_555
C30 C29 1_555 1_555
H61 C30 1_555 1_555
H62 C30 1_555 1_555
H63 C30 1_555 1_555
C31 N2 1_555 1_555
H64 C31 1_555 1_555
H65 C31 1_555 1_555
C32 C31 1_555 1_555
H66 C32 1_555 1_555
H67 C32 1_555 1_555
C33 C32 1_555 1_555
H68 C33 1_555 1_555
H69 C33 1_555 1_555
C34 C33 1_555 1_555
H70 C34 1_555 1_555
H71 C34 1_555 1_555
H72 C34 1_555 1_555

#END
