
#######################################################################
#
#                 Cambridge Crystallographic Data Centre
#                                CCDC 
#
#######################################################################
#
# If this CIF has been generated from an entry in the Cambridge 
# Structural Database, then it will include bibliographic, chemical, 
# crystal, experimental, refinement or atomic coordinate data resulting 
# from the CCDC's data processing and validation procedures.
#
#######################################################################

data_PIDSEA
_chemical_formula_moiety         'C17 H16 N2 O4'
_chemical_name_systematic        
N-(6-Phenoxy-2H-chromen-3-ylmethyl)-N-hydroxyurea
_chemical_properties_biological  
'agent which inhibits sheep seminal vesicle cyclo-oxygenase and guinea pig PMN 5-lipoxygenase'
_symmetry_cell_setting           monoclinic
_symmetry_space_group_name_H-M   'P 21/c'
_symmetry_Int_Tables_number      14
_space_group_name_Hall           '-P 2ybc'
loop_
_symmetry_equiv_pos_site_id
_symmetry_equiv_pos_as_xyz
1 x,y,z
2 -x,1/2+y,1/2-z
3 -x,-y,-z
4 x,1/2-y,1/2+z
_cell_length_a                   16.901(3)
_cell_length_b                   5.2193(8)
_cell_length_c                   19.214(3)
_cell_angle_alpha                90
_cell_angle_beta                 116.001(11)
_cell_angle_gamma                90
_cell_volume                     1523.35
_cell_formula_units_Z            4
loop_
_atom_site_label
_atom_site_type_symbol
_atom_site_fract_x
_atom_site_fract_y
_atom_site_fract_z
C1 C 0.2019(3) -0.0510(9) 0.3225(3)
C2 C 0.1221(3) 0.0525(11) 0.2711(3)
C3 C 0.1181(3) 0.2459(12) 0.2222(3)
C4 C 0.1945(3) 0.3427(10) 0.2241(3)
C5 C 0.2752(3) 0.2422(9) 0.2753(3)
C6 C 0.2782(3) 0.0512(8) 0.3239(2)
O1 O 0.3555(2) -0.0591(7) 0.3787(2)
C7 C 0.4342(3) -0.0083(9) 0.3728(3)
C8 C 0.4543(3) -0.1412(8) 0.3218(2)
C9 C 0.5336(3) -0.0961(8) 0.3189(2)
C10 C 0.5908(2) 0.0829(7) 0.3682(2)
C11 C 0.5722(2) 0.2150(7) 0.4218(2)
C12 C 0.4918(2) 0.1675(8) 0.4234(2)
C13 C 0.6392(2) 0.3883(7) 0.4748(2)
C14 C 0.7053(2) 0.4617(7) 0.4599(2)
C15 C 0.7105(2) 0.3634(8) 0.3892(2)
O2 O 0.6700(2) 0.1186(5) 0.3645(1)
C16 C 0.7706(2) 0.6601(7) 0.5081(2)
N1 N 0.8609(2) 0.5931(5) 0.5245(2)
O3 O 0.8952(2) 0.3917(5) 0.5786(2)
C17 C 0.9199(2) 0.7757(7) 0.5287(2)
O4 O 0.8936(2) 0.9793(5) 0.4921(2)
N2 N 1.0047(2) 0.7256(7) 0.5708(2)
H1 H 0.2042 -0.1910 0.3557
H2 H 0.0682 -0.0100 0.2701
H3 H 0.0618 0.3140 0.1872
H4 H 0.1924 0.4766 0.1891
H5 H 0.3294 0.3090 0.2780
H6 H 0.4131 -0.2653 0.2887
H7 H 0.5485 -0.1869 0.2828
H8 H 0.4761 0.2572 0.4592
H9 H 0.6351 0.4499 0.5201
H10 H 0.7709 0.3546 0.3980
H11 H 0.6809 0.4836 0.3481
H12 H 0.7666 0.6794 0.5561
H13 H 0.7557 0.8211 0.4813
H14 H 0.8917(21) 0.2398(40) 0.5456(16)
H15 H 1.0415 0.8186 0.5469
H16 H 1.0267 0.5628 0.5993
loop_
_geom_bond_atom_site_label_1
_geom_bond_atom_site_label_2
_geom_bond_site_symmetry_1
_geom_bond_site_symmetry_2
C1 C2 1_555 1_555
C2 C3 1_555 1_555
C3 C4 1_555 1_555
C4 C5 1_555 1_555
C5 C6 1_555 1_555
C6 C1 1_555 1_555
O1 C6 1_555 1_555
C7 O1 1_555 1_555
C8 C7 1_555 1_555
C9 C8 1_555 1_555
C10 C9 1_555 1_555
C11 C10 1_555 1_555
C12 C7 1_555 1_555
C13 C11 1_555 1_555
C14 C13 1_555 1_555
C15 C14 1_555 1_555
O2 C10 1_555 1_555
C16 C14 1_555 1_555
N1 C16 1_555 1_555
O3 N1 1_555 1_555
C17 N1 1_555 1_555
O4 C17 1_555 1_555
N2 C17 1_555 1_555
H1 C1 1_555 1_555
H2 C2 1_555 1_555
H3 C3 1_555 1_555
H4 C4 1_555 1_555
H5 C5 1_555 1_555
H6 C8 1_555 1_555
H7 C9 1_555 1_555
H8 C12 1_555 1_555
H9 C13 1_555 1_555
H10 C15 1_555 1_555
H11 C15 1_555 1_555
H12 C16 1_555 1_555
H13 C16 1_555 1_555
H14 O3 1_555 1_555
H15 N2 1_555 1_555
H16 N2 1_555 1_555
C11 C12 1_555 1_555
C15 O2 1_555 1_555

#END
