
#######################################################################
#
#                 Cambridge Crystallographic Data Centre
#                                CCDC 
#
#######################################################################
#
# If this CIF has been generated from an entry in the Cambridge 
# Structural Database, then it will include bibliographic, chemical, 
# crystal, experimental, refinement or atomic coordinate data resulting 
# from the CCDC's data processing and validation procedures.
#
#######################################################################

data_PIDTEE
_chemical_formula_moiety         'C8 H13 N1 O2'
_chemical_name_systematic        (6S)-6-hydroxy-1-azabicyclo[3.3.1]nonan-2-one
_symmetry_cell_setting           orthorhombic
_symmetry_space_group_name_H-M   'P 21 21 21'
_symmetry_Int_Tables_number      19
_space_group_name_Hall           'P 2ac 2ab'
loop_
_symmetry_equiv_pos_site_id
_symmetry_equiv_pos_as_xyz
1 x,y,z
2 1/2-x,-y,1/2+z
3 -x,1/2+y,1/2-z
4 1/2+x,1/2-y,-z
_cell_length_a                   6.70541(16)
_cell_length_b                   8.8095(2)
_cell_length_c                   12.8015(3)
_cell_angle_alpha                90
_cell_angle_beta                 90
_cell_angle_gamma                90
_cell_volume                     756.201
_exptl_crystal_colour            colorless
_exptl_crystal_description       irregular
_cell_formula_units_Z            4
loop_
_atom_site_label
_atom_site_type_symbol
_atom_site_fract_x
_atom_site_fract_y
_atom_site_fract_z
O1 O 0.18970(18) 0.59786(14) 0.42086(9)
N1 N 0.2929(2) 0.42054(16) 0.53850(10)
C1 C 0.3179(2) 0.50738(19) 0.45053(12)
O2 O 0.72048(19) 0.65010(16) 0.70950(9)
C2 C 0.5217(2) 0.4949(2) 0.40150(13)
H1 H 0.5348 0.5669 0.3446
H2 H 0.5422 0.3935 0.3741
C3 C 0.6773(2) 0.5299(2) 0.48841(12)
H3 H 0.8095 0.5046 0.4630
H4 H 0.6751 0.6378 0.5036
C4 C 0.6367(2) 0.4407(2) 0.59014(12)
H5 H 0.7566 0.3833 0.6090
C5 C 0.4662(3) 0.3295(2) 0.56965(14)
H6 H 0.5021 0.2592 0.5145
H7 H 0.4364 0.2718 0.6323
C6 C 0.5729(3) 0.5392(2) 0.68400(12)
H8 H 0.5621 0.4711 0.7443
C7 C 0.3667(2) 0.6131(2) 0.66910(13)
H9 H 0.3230 0.6552 0.7353
H10 H 0.3787 0.6962 0.6197
C8 C 0.2086(2) 0.5016(2) 0.62944(12)
H11 H 0.1741 0.4299 0.6840
H12 H 0.0889 0.5559 0.6092
H13 H 0.712(4) 0.721(3) 0.669(2)
loop_
_geom_bond_atom_site_label_1
_geom_bond_atom_site_label_2
_geom_bond_site_symmetry_1
_geom_bond_site_symmetry_2
O1 C1 1_555 1_555
N1 C1 1_555 1_555
C1 C2 1_555 1_555
O2 C6 1_555 1_555
C2 H1 1_555 1_555
H2 C2 1_555 1_555
C3 C2 1_555 1_555
H3 C3 1_555 1_555
H4 C3 1_555 1_555
C4 C3 1_555 1_555
H5 C4 1_555 1_555
C5 N1 1_555 1_555
H6 C5 1_555 1_555
H7 C5 1_555 1_555
C6 C4 1_555 1_555
H8 C6 1_555 1_555
C7 C6 1_555 1_555
H9 C7 1_555 1_555
H10 C7 1_555 1_555
C8 N1 1_555 1_555
H11 C8 1_555 1_555
H12 C8 1_555 1_555
H13 O2 1_555 1_555
C4 C5 1_555 1_555
C7 C8 1_555 1_555

#END
