
#######################################################################
#
#                 Cambridge Crystallographic Data Centre
#                                CCDC 
#
#######################################################################
#
# If this CIF has been generated from an entry in the Cambridge 
# Structural Database, then it will include bibliographic, chemical, 
# crystal, experimental, refinement or atomic coordinate data resulting 
# from the CCDC's data processing and validation procedures.
#
#######################################################################

data_PIDWEF02
_chemical_formula_moiety         'C10 H9 B1 F2 N2'
_chemical_name_systematic        
difluoro(2-(1-(2H-pyrrol-2-ylidene)ethyl)-1H-pyrrolato)boron
_symmetry_cell_setting           triclinic
_symmetry_space_group_name_H-M   'P -1'
_symmetry_Int_Tables_number      2
_space_group_name_Hall           '-P 1'
loop_
_symmetry_equiv_pos_site_id
_symmetry_equiv_pos_as_xyz
1 x,y,z
2 -x,-y,-z
_cell_length_a                   7.7265(7)
_cell_length_b                   7.7446(7)
_cell_length_c                   16.6941(15)
_cell_angle_alpha                102.9460(10)
_cell_angle_beta                 93.5520(10)
_cell_angle_gamma                92.3290(10)
_cell_volume                     970.163
_exptl_crystal_colour            colorless
_exptl_crystal_description       block
_chemical_melting_point          '427-428 K'
_cell_formula_units_Z            4
_chemical_properties_physical    Efflorescent
_exptl_crystal_preparation       Luminescent
loop_
_atom_site_label
_atom_site_type_symbol
_atom_site_fract_x
_atom_site_fract_y
_atom_site_fract_z
B1 B 0.2782(3) 0.3818(3) 0.09548(12)
C1 C 0.4829(3) 0.4802(3) 0.22733(11)
H1 H 0.4018 0.5402 0.2604
C2 C 0.6529(3) 0.4573(3) 0.25402(12)
H2 H 0.7044 0.4988 0.3071
C3 C 0.7305(3) 0.3625(3) 0.18786(12)
H3 H 0.8442 0.3276 0.1875
C4 C 0.6052(2) 0.3279(2) 0.12040(10)
C5 C 0.6164(2) 0.2419(2) 0.03819(10)
C6 C 0.4752(2) 0.2358(2) -0.01878(10)
C7 C 0.4569(2) 0.1708(3) -0.10440(11)
H4 H 0.5398 0.1127 -0.1369
C8 C 0.2952(3) 0.2083(3) -0.13144(11)
H5 H 0.2478 0.1803 -0.1856
C9 C 0.2150(2) 0.2958(3) -0.06300(11)
H6 H 0.1037 0.3369 -0.0642
C10 C 0.7805(2) 0.1599(3) 0.01089(13)
H7 H 0.8688 0.2516 0.0123
H8 H 0.7606 0.0891 -0.0443
H9 H 0.8178 0.0862 0.0471
F1 F 0.16998(14) 0.25733(16) 0.11902(7)
F2 F 0.19718(15) 0.53956(15) 0.10475(7)
N1 N 0.45296(18) 0.40361(19) 0.14746(8)
N2 N 0.32136(17) 0.31260(18) 0.00519(8)
B2 B 0.1369(3) 0.7189(3) 0.40881(13)
C11 C 0.1721(3) 0.7648(3) 0.56695(11)
H10 H 0.1246 0.6540 0.5695
C12 C 0.2436(3) 0.8926(3) 0.63410(11)
H11 H 0.2525 0.8828 0.6887
C13 C 0.2987(3) 1.0357(3) 0.60516(11)
H12 H 0.3522 1.1410 0.6365
C14 C 0.2597(2) 0.9948(2) 0.51942(10)
C15 C 0.2808(2) 1.0955(2) 0.46068(11)
C16 C 0.2212(2) 1.0248(2) 0.37882(10)
C17 C 0.2170(3) 1.1000(3) 0.30922(12)
H13 H 0.2577 1.2140 0.3080
C18 C 0.1423(3) 0.9745(3) 0.24399(13)
H14 H 0.1225 0.9872 0.1902
C19 C 0.1013(3) 0.8240(3) 0.27314(11)
H15 H 0.0495 0.7184 0.2412
C20 C 0.3634(3) 1.2792(2) 0.48561(14)
H16 H 0.2747 1.3634 0.4940
H17 H 0.4335 1.3008 0.4430
H18 H 0.4350 1.2913 0.5359
F3 F 0.25851(17) 0.59288(15) 0.38678(7)
F4 F -0.02643(16) 0.63489(16) 0.40078(7)
N3 N 0.18146(17) 0.82497(18) 0.49758(8)
N4 N 0.14716(18) 0.85335(19) 0.35388(8)
loop_
_geom_bond_atom_site_label_1
_geom_bond_atom_site_label_2
_geom_bond_site_symmetry_1
_geom_bond_site_symmetry_2
B1 F1 1_555 1_555
C1 H1 1_555 1_555
C2 C1 1_555 1_555
H2 C2 1_555 1_555
C3 C2 1_555 1_555
H3 C3 1_555 1_555
C4 C3 1_555 1_555
C5 C4 1_555 1_555
C6 C5 1_555 1_555
C7 C6 1_555 1_555
H4 C7 1_555 1_555
C8 C7 1_555 1_555
H5 C8 1_555 1_555
C9 C8 1_555 1_555
H6 C9 1_555 1_555
C10 C5 1_555 1_555
H7 C10 1_555 1_555
H8 C10 1_555 1_555
H9 C10 1_555 1_555
F2 B1 1_555 1_555
N1 B1 1_555 1_555
N2 B1 1_555 1_555
B2 F3 1_555 1_555
C11 H10 1_555 1_555
C12 C11 1_555 1_555
H11 C12 1_555 1_555
C13 C12 1_555 1_555
H12 C13 1_555 1_555
C14 C13 1_555 1_555
C15 C14 1_555 1_555
C16 C15 1_555 1_555
C17 C16 1_555 1_555
H13 C17 1_555 1_555
C18 C17 1_555 1_555
H14 C18 1_555 1_555
C19 C18 1_555 1_555
H15 C19 1_555 1_555
C20 C15 1_555 1_555
H16 C20 1_555 1_555
H17 C20 1_555 1_555
H18 C20 1_555 1_555
F4 B2 1_555 1_555
N3 B2 1_555 1_555
N4 B2 1_555 1_555
C1 N1 1_555 1_555
C4 N1 1_555 1_555
C6 N2 1_555 1_555
C9 N2 1_555 1_555
C11 N3 1_555 1_555
C14 N3 1_555 1_555
C16 N4 1_555 1_555
C19 N4 1_555 1_555

#END
