
#######################################################################
#
#                 Cambridge Crystallographic Data Centre
#                                CCDC 
#
#######################################################################
#
# If this CIF has been generated from an entry in the Cambridge 
# Structural Database, then it will include bibliographic, chemical, 
# crystal, experimental, refinement or atomic coordinate data resulting 
# from the CCDC's data processing and validation procedures.
#
#######################################################################

data_PIDWIK
_chemical_formula_moiety         'C19 H19 Br1 N2 O5'
_chemical_name_systematic        
't-Butyl (4-bromophenyl)((2-methoxy-4-nitrophenyl)imino)acetate'
_symmetry_cell_setting           monoclinic
_symmetry_space_group_name_H-M   'P 21/n'
_symmetry_Int_Tables_number      14
_space_group_name_Hall           '-P 2yn'
loop_
_symmetry_equiv_pos_site_id
_symmetry_equiv_pos_as_xyz
1 x,y,z
2 1/2-x,1/2+y,1/2-z
3 -x,-y,-z
4 1/2+x,1/2-y,1/2+z
_cell_length_a                   9.6092(7)
_cell_length_b                   12.9429(10)
_cell_length_c                   15.9398(12)
_cell_angle_alpha                90
_cell_angle_beta                 95.126(2)
_cell_angle_gamma                90
_cell_volume                     1974.52
_exptl_crystal_colour            yellow
_exptl_crystal_description       prismatic
_cell_formula_units_Z            4
loop_
_atom_site_label
_atom_site_type_symbol
_atom_site_fract_x
_atom_site_fract_y
_atom_site_fract_z
Br1 Br 0.25814(3) 0.52197(2) 0.057024(18)
N1 N 0.75364(18) 0.90368(16) 0.06130(12)
N2 N 1.0953(3) 1.2548(2) 0.08410(16)
O1 O 0.4796(2) 1.03960(16) 0.11431(14)
O2 O 0.66360(18) 1.01111(14) 0.20898(10)
O3 O 0.98463(19) 0.90577(15) 0.16731(12)
O4 O 1.0720(3) 1.3240(2) 0.03343(19)
O5 O 1.1927(2) 1.2563(2) 0.13885(15)
C1 C 0.8364(2) 0.99361(18) 0.06828(14)
C2 C 0.8032(2) 1.0791(2) 0.01897(15)
H1 H 0.7224 1.0787 -0.0178
C3 C 0.8879(3) 1.1654(2) 0.02325(16)
H2 H 0.8654 1.2230 -0.0101
C4 C 1.0057(2) 1.16364(19) 0.07780(15)
C5 C 1.0435(2) 1.0796(2) 0.12762(15)
H3 H 1.1244 1.0811 0.1643
C6 C 0.9599(2) 0.99349(19) 0.12239(15)
C7 C 0.6367(2) 0.90246(18) 0.09245(14)
C8 C 0.5826(2) 0.99339(19) 0.13957(15)
C9 C 0.5436(2) 0.81198(17) 0.08237(14)
C10 C 0.5449(2) 0.74794(19) 0.01318(14)
H4 H 0.6039 0.7628 -0.0284
C11 C 0.4597(2) 0.66243(19) 0.00507(14)
H5 H 0.4602 0.6199 -0.0419
C12 C 0.3737(2) 0.64058(18) 0.06731(15)
C13 C 0.3705(2) 0.70287(19) 0.13678(15)
H6 H 0.3123 0.6871 0.1785
C14 C 0.4542(2) 0.78863(19) 0.14379(15)
H7 H 0.4513 0.8318 0.1902
C15 C 1.1055(4) 0.9039(3) 0.2256(3)
H8 H 1.1866 0.9189 0.1967
H9 H 1.1151 0.8367 0.2510
H10 H 1.0963 0.9548 0.2686
C16 C 0.6420(3) 1.1010(2) 0.26454(17)
C17 C 0.4997(4) 1.0957(4) 0.2964(3)
H11 H 0.4295 1.1026 0.2499
H12 H 0.4899 1.1507 0.3358
H13 H 0.4888 1.0305 0.3237
C18 C 0.6665(4) 1.1986(3) 0.2179(2)
H14 H 0.7549 1.1947 0.1944
H15 H 0.6669 1.2562 0.2559
H16 H 0.5934 1.2077 0.1734
C19 C 0.7556(5) 1.0835(4) 0.3343(2)
H17 H 0.7475 1.0149 0.3563
H18 H 0.7467 1.1330 0.3783
H19 H 0.8451 1.0913 0.3127
loop_
_geom_bond_atom_site_label_1
_geom_bond_atom_site_label_2
_geom_bond_site_symmetry_1
_geom_bond_site_symmetry_2
Br1 C12 1_555 1_555
N1 C1 1_555 1_555
N2 O4 1_555 1_555
O1 C8 1_555 1_555
O2 C8 1_555 1_555
O3 C6 1_555 1_555
O5 N2 1_555 1_555
C1 C2 1_555 1_555
C2 H1 1_555 1_555
C3 C2 1_555 1_555
H2 C3 1_555 1_555
C4 N2 1_555 1_555
C5 C4 1_555 1_555
H3 C5 1_555 1_555
C6 C1 1_555 1_555
C7 N1 1_555 1_555
C8 C7 1_555 1_555
C9 C7 1_555 1_555
C10 C9 1_555 1_555
H4 C10 1_555 1_555
C11 C10 1_555 1_555
H5 C11 1_555 1_555
C12 C11 1_555 1_555
C13 C12 1_555 1_555
H6 C13 1_555 1_555
C14 C9 1_555 1_555
H7 C14 1_555 1_555
C15 O3 1_555 1_555
H8 C15 1_555 1_555
H9 C15 1_555 1_555
H10 C15 1_555 1_555
C16 O2 1_555 1_555
C17 C16 1_555 1_555
H11 C17 1_555 1_555
H12 C17 1_555 1_555
H13 C17 1_555 1_555
C18 C16 1_555 1_555
H14 C18 1_555 1_555
H15 C18 1_555 1_555
H16 C18 1_555 1_555
C19 C16 1_555 1_555
H17 C19 1_555 1_555
H18 C19 1_555 1_555
H19 C19 1_555 1_555
C3 C4 1_555 1_555
C5 C6 1_555 1_555
C13 C14 1_555 1_555

#END
