
#######################################################################
#
#                 Cambridge Crystallographic Data Centre
#                                CCDC 
#
#######################################################################
#
# If this CIF has been generated from an entry in the Cambridge 
# Structural Database, then it will include bibliographic, chemical, 
# crystal, experimental, refinement or atomic coordinate data resulting 
# from the CCDC's data processing and validation procedures.
#
#######################################################################

data_PIDWOP
_chemical_formula_moiety         'C7 H7 Br1 N2 O1'
_chemical_name_systematic        '4-Bromobenzamide oxime'
_symmetry_cell_setting           monoclinic
_symmetry_space_group_name_H-M   'P 21/c'
_symmetry_Int_Tables_number      14
_space_group_name_Hall           '-P 2ybc'
loop_
_symmetry_equiv_pos_site_id
_symmetry_equiv_pos_as_xyz
1 x,y,z
2 -x,1/2+y,1/2-z
3 -x,-y,-z
4 x,1/2-y,1/2+z
_cell_length_a                   8.1347(16)
_cell_length_b                   12.964(3)
_cell_length_c                   7.6517(15)
_cell_angle_alpha                90
_cell_angle_beta                 90.41(3)
_cell_angle_gamma                90
_cell_volume                     806.914
_exptl_crystal_colour            colorless
_exptl_crystal_description       block
_cell_formula_units_Z            4
_exptl_crystal_recrystallization_method ethanol
loop_
_atom_site_label
_atom_site_type_symbol
_atom_site_fract_x
_atom_site_fract_y
_atom_site_fract_z
Br1 Br 1.03926(12) 0.61583(7) 0.17550(12)
C1 C 0.6232(7) 0.6299(5) 0.5922(7)
C2 C 0.7873(7) 0.6266(5) 0.6462(8)
H1 H 0.8149 0.6281 0.7643
C3 C 0.9087(7) 0.6212(5) 0.5194(8)
H2 H 1.0184 0.6173 0.5538
C4 C 0.8703(8) 0.6214(5) 0.3473(8)
C5 C 0.7096(7) 0.6231(5) 0.2913(7)
H3 H 0.6836 0.6217 0.1728
C6 C 0.5892(7) 0.6269(5) 0.4139(7)
H4 H 0.4801 0.6275 0.3770
C7 C 0.4908(7) 0.6336(5) 0.7238(7)
N1 N 0.5100(7) 0.5823(4) 0.8656(7)
N2 N 0.3526(8) 0.6883(4) 0.6809(7)
H5 H 0.2708 0.6898 0.7515
H6 H 0.3474 0.7211 0.5834
O1 O 0.3744(7) 0.5984(4) 0.9788(6)
H7 H 0.3802 0.5581 1.0612
loop_
_geom_bond_atom_site_label_1
_geom_bond_atom_site_label_2
_geom_bond_site_symmetry_1
_geom_bond_site_symmetry_2
Br1 C4 1_555 1_555
C1 C2 1_555 1_555
C2 H1 1_555 1_555
C3 C2 1_555 1_555
H2 C3 1_555 1_555
C4 C3 1_555 1_555
C5 C4 1_555 1_555
H3 C5 1_555 1_555
C6 C1 1_555 1_555
H4 C6 1_555 1_555
C7 C1 1_555 1_555
N1 C7 1_555 1_555
N2 C7 1_555 1_555
H5 N2 1_555 1_555
H6 N2 1_555 1_555
O1 N1 1_555 1_555
H7 O1 1_555 1_555
C5 C6 1_555 1_555

#END
