
#######################################################################
#
#                 Cambridge Crystallographic Data Centre
#                                CCDC 
#
#######################################################################
#
# If this CIF has been generated from an entry in the Cambridge 
# Structural Database, then it will include bibliographic, chemical, 
# crystal, experimental, refinement or atomic coordinate data resulting 
# from the CCDC's data processing and validation procedures.
#
#######################################################################

data_PIDWEF
_chemical_name_common            'C10 H9 B F2 N2'
_chemical_formula_moiety         'C10 H9 B1 F2 N2'
_chemical_name_systematic        
4,4-Difluoro-8-methyl-4-bora-3a,4a-diaza-s-indacene
_symmetry_cell_setting           triclinic
_symmetry_space_group_name_H-M   'P -1'
_symmetry_Int_Tables_number      2
_space_group_name_Hall           '-P 1'
loop_
_symmetry_equiv_pos_site_id
_symmetry_equiv_pos_as_xyz
1 x,y,z
2 -x,-y,-z
_cell_length_a                   7.7156(4)
_cell_length_b                   7.7329(4)
_cell_length_c                   16.6895(8)
_cell_angle_alpha                102.952(3)
_cell_angle_beta                 93.604(3)
_cell_angle_gamma                92.362(4)
_cell_volume                     966.942
_exptl_crystal_colour            red
_exptl_crystal_description       block
_chemical_melting_point          '145.0 deg.C'
_cell_formula_units_Z            4
_exptl_crystal_recrystallization_method hexane-dichloromethane
loop_
_atom_site_label
_atom_site_type_symbol
_atom_site_fract_x
_atom_site_fract_y
_atom_site_fract_z
N1 N 0.67864(16) 0.18764(17) 0.49490(8)
N2 N 0.54700(18) 0.09665(18) 0.35253(8)
F1 F 0.80266(15) -0.03948(15) 0.39532(7)
F2 F 0.82989(13) 0.24290(16) 0.38099(7)
C1 C 0.5249(2) 0.2638(2) 0.51885(10)
C2 C 0.38338(19) 0.2583(2) 0.46174(10)
C3 C 0.3950(2) 0.1722(2) 0.37969(10)
C4 C 0.2198(2) 0.3401(3) 0.48910(12)
H1 H 0.1362 0.3251 0.4426
H2 H 0.2434 0.4645 0.5128
H3 H 0.1740 0.2835 0.5296
C5 C 0.5433(2) 0.3293(2) 0.60440(11)
H4 H 0.4603 0.3877 0.6369
C6 C 0.7850(2) 0.2044(2) 0.56292(11)
H5 H 0.8965 0.1633 0.5641
C7 C 0.2701(3) 0.1374(2) 0.31228(12)
H6 H 0.1563 0.1727 0.3126
C8 C 0.5169(3) 0.0200(3) 0.27252(11)
H7 H 0.5981 -0.0395 0.2393
C9 C 0.7051(2) 0.2918(3) 0.63152(11)
H8 H 0.7528 0.3197 0.6857
B1 B 0.7221(2) 0.1181(3) 0.40451(12)
C10 C 0.3469(3) 0.0422(3) 0.24618(12)
H9 H 0.2948 -0.0001 0.1932
N3 N 0.18102(17) 0.32462(17) -0.00250(8)
N4 N 0.14688(17) 0.35327(18) -0.14632(8)
F3 F 0.25831(16) 0.09273(14) -0.11314(7)
C11 C 0.2594(2) 0.4949(2) 0.01954(10)
C12 C 0.2802(2) 0.5954(2) -0.03936(11)
F4 F -0.02633(15) 0.13484(15) -0.09935(7)
C13 C 0.2213(2) 0.5253(2) -0.12095(11)
B2 B 0.1370(3) 0.2189(2) -0.09117(12)
C14 C 0.2986(3) 0.5353(2) 0.10487(11)
H10 H 0.3526 0.6407 0.1362
C15 C 0.3632(3) 0.7792(2) -0.01432(13)
H11 H 0.3679 0.8293 -0.0619
H12 H 0.4790 0.7750 0.0095
H13 H 0.2960 0.8514 0.0254
C16 C 0.1722(2) 0.2653(2) 0.06687(11)
H14 H 0.1247 0.1544 0.0694
C17 C 0.2438(3) 0.3926(3) 0.13396(11)
H15 H 0.2528 0.3828 0.1886
C18 C 0.1010(3) 0.3242(3) -0.22693(11)
H16 H 0.0492 0.2184 -0.2590
C19 C 0.2170(2) 0.5993(3) -0.19069(12)
H17 H 0.2584 0.7131 -0.1921
C20 C 0.1414(3) 0.4742(3) -0.25588(13)
H18 H 0.1209 0.4873 -0.3097
loop_
_geom_bond_atom_site_label_1
_geom_bond_atom_site_label_2
_geom_bond_site_symmetry_1
_geom_bond_site_symmetry_2
N1 C1 1_555 1_555
N2 C3 1_555 1_555
F1 B1 1_555 1_555
F2 B1 1_555 1_555
C1 C2 1_555 1_555
C2 C3 1_555 1_555
C3 C7 1_555 1_555
C4 C2 1_555 1_555
H1 C4 1_555 1_555
H2 C4 1_555 1_555
H3 C4 1_555 1_555
C5 C1 1_555 1_555
H4 C5 1_555 1_555
C6 N1 1_555 1_555
H5 C6 1_555 1_555
C7 H6 1_555 1_555
C8 N2 1_555 1_555
H7 C8 1_555 1_555
C9 C5 1_555 1_555
H8 C9 1_555 1_555
B1 N1 1_555 1_555
C10 C7 1_555 1_555
H9 C10 1_555 1_555
N3 C11 1_555 1_555
N4 C13 1_555 1_555
F3 B2 1_555 1_555
C11 C12 1_555 1_555
C12 C13 1_555 1_555
F4 B2 1_555 1_555
C13 C19 1_555 1_555
B2 N3 1_555 1_555
C14 C11 1_555 1_555
H10 C14 1_555 1_555
C15 C12 1_555 1_555
H11 C15 1_555 1_555
H12 C15 1_555 1_555
H13 C15 1_555 1_555
C16 N3 1_555 1_555
H14 C16 1_555 1_555
C17 C14 1_555 1_555
H15 C17 1_555 1_555
C18 N4 1_555 1_555
H16 C18 1_555 1_555
C19 H17 1_555 1_555
C20 C18 1_555 1_555
H18 C20 1_555 1_555
N2 B1 1_555 1_555
C6 C9 1_555 1_555
C8 C10 1_555 1_555
N4 B2 1_555 1_555
C16 C17 1_555 1_555
C19 C20 1_555 1_555

#END
