
#######################################################################
#
#                 Cambridge Crystallographic Data Centre
#                                CCDC 
#
#######################################################################
#
# If this CIF has been generated from an entry in the Cambridge 
# Structural Database, then it will include bibliographic, chemical, 
# crystal, experimental, refinement or atomic coordinate data resulting 
# from the CCDC's data processing and validation procedures.
#
#######################################################################

data_PIDWAC
_chemical_formula_moiety         'C15 H11 F3 N2 O3'
_chemical_name_systematic        
2-Methoxy-4-nitro-N-(2,2,2-trifluoro-1-phenylethylidene)aniline
_symmetry_cell_setting           monoclinic
_symmetry_space_group_name_H-M   'P 21/n'
_symmetry_Int_Tables_number      14
_space_group_name_Hall           '-P 2yn'
loop_
_symmetry_equiv_pos_site_id
_symmetry_equiv_pos_as_xyz
1 x,y,z
2 1/2-x,1/2+y,1/2-z
3 -x,-y,-z
4 1/2+x,1/2-y,1/2+z
_cell_length_a                   8.7347(2)
_cell_length_b                   9.1914(2)
_cell_length_c                   18.1434(4)
_cell_angle_alpha                90
_cell_angle_beta                 91.6150(10)
_cell_angle_gamma                90
_cell_volume                     1456.05
_exptl_crystal_colour            yellow
_exptl_crystal_description       block
_cell_formula_units_Z            4
loop_
_atom_site_label
_atom_site_type_symbol
_atom_site_fract_x
_atom_site_fract_y
_atom_site_fract_z
N1 N 0.51128(15) 0.82543(14) 0.12536(7)
N2 N 0.11256(18) 1.16331(19) -0.05257(8)
O1 O 0.0921(2) 1.28980(19) -0.03562(10)
O2 O 0.05205(19) 1.1060(2) -0.10608(8)
O3 O 0.35841(15) 0.70307(12) 0.01341(6)
F1 F 0.75375(13) 0.82460(16) 0.25258(8)
F2 F 0.70678(15) 0.64181(17) 0.18203(7)
F3 F 0.60721(14) 0.65577(14) 0.28710(6)
C1 C 0.40375(17) 0.91074(17) 0.08480(7)
C2 C 0.32965(18) 0.84641(17) 0.02304(7)
C3 C 0.23389(18) 0.93004(19) -0.02210(8)
H1 H 0.1836 0.8893 -0.0630
C4 C 0.21494(18) 1.07495(18) -0.00507(8)
C5 C 0.2873(2) 1.14071(19) 0.05454(9)
H2 H 0.2728 1.2390 0.0644
C6 C 0.3818(2) 1.05668(18) 0.09917(9)
H3 H 0.4318 1.0990 0.1397
C7 C 0.50990(16) 0.81631(16) 0.19502(8)
C8 C 0.39598(16) 0.87320(15) 0.24706(7)
C9 C 0.24090(17) 0.85131(17) 0.23243(8)
H4 H 0.2086 0.8015 0.1902
C10 C 0.13483(18) 0.90361(19) 0.28064(10)
H5 H 0.0310 0.8879 0.2710
C11 C 0.18121(19) 0.97900(19) 0.34305(9)
H6 H 0.1088 1.0145 0.3751
C12 C 0.3346(2) 1.00172(19) 0.35788(9)
H7 H 0.3659 1.0529 0.3999
C13 C 0.44243(17) 0.94864(18) 0.31045(8)
H8 H 0.5461 0.9633 0.3209
C14 C 0.64509(18) 0.7327(2) 0.22870(9)
C15 C 0.2900(3) 0.6324(2) -0.04914(11)
H9 H 0.3200 0.5319 -0.0494
H10 H 0.3233 0.6786 -0.0933
H11 H 0.1805 0.6390 -0.0469
loop_
_geom_bond_atom_site_label_1
_geom_bond_atom_site_label_2
_geom_bond_site_symmetry_1
_geom_bond_site_symmetry_2
N1 C1 1_555 1_555
N2 O1 1_555 1_555
O2 N2 1_555 1_555
O3 C2 1_555 1_555
F1 C14 1_555 1_555
F2 C14 1_555 1_555
F3 C14 1_555 1_555
C1 C2 1_555 1_555
C2 C3 1_555 1_555
C3 H1 1_555 1_555
C4 N2 1_555 1_555
C5 C4 1_555 1_555
H2 C5 1_555 1_555
C6 C1 1_555 1_555
H3 C6 1_555 1_555
C7 N1 1_555 1_555
C8 C7 1_555 1_555
C9 C8 1_555 1_555
H4 C9 1_555 1_555
C10 C9 1_555 1_555
H5 C10 1_555 1_555
C11 C10 1_555 1_555
H6 C11 1_555 1_555
C12 C11 1_555 1_555
H7 C12 1_555 1_555
C13 C8 1_555 1_555
H8 C13 1_555 1_555
C14 C7 1_555 1_555
C15 O3 1_555 1_555
H9 C15 1_555 1_555
H10 C15 1_555 1_555
H11 C15 1_555 1_555
C3 C4 1_555 1_555
C5 C6 1_555 1_555
C12 C13 1_555 1_555

#END
