
#######################################################################
#
#                 Cambridge Crystallographic Data Centre
#                                CCDC 
#
#######################################################################
#
# If this CIF has been generated from an entry in the Cambridge 
# Structural Database, then it will include bibliographic, chemical, 
# crystal, experimental, refinement or atomic coordinate data resulting 
# from the CCDC's data processing and validation procedures.
#
#######################################################################

data_PIDYAF
_chemical_formula_moiety         'C28 H28 B10'
_chemical_name_systematic        
1-(4-(anthracen-9-yl)phenyl)-2-phenyl-1,2-dicarba-closo-dodecaborane(10)
_symmetry_cell_setting           monoclinic
_symmetry_space_group_name_H-M   'P 21/c'
_symmetry_Int_Tables_number      14
_space_group_name_Hall           '-P 2ybc'
loop_
_symmetry_equiv_pos_site_id
_symmetry_equiv_pos_as_xyz
1 x,y,z
2 -x,1/2+y,1/2-z
3 -x,-y,-z
4 x,1/2-y,1/2+z
_cell_length_a                   9.8772(19)
_cell_length_b                   29.557(5)
_cell_length_c                   18.615(3)
_cell_angle_alpha                90
_cell_angle_beta                 106.699(8)
_cell_angle_gamma                90
_cell_volume                     5205.29
_exptl_crystal_colour            colorless
_exptl_crystal_description       block
_cell_formula_units_Z            8
loop_
_atom_site_label
_atom_site_type_symbol
_atom_site_fract_x
_atom_site_fract_y
_atom_site_fract_z
B1 B 0.3175(4) -0.01669(11) 0.31541(18)
H1 H 0.218698 0.002424 0.307476
B2 B 0.6221(4) -0.07225(11) 0.3370(2)
H2 H 0.722319 -0.090342 0.343932
B3 B 0.3359(4) -0.05691(11) 0.24880(19)
H3 H 0.249052 -0.064614 0.198211
B4 B 0.6030(4) -0.03193(12) 0.40439(19)
H4 H 0.690165 -0.023613 0.454505
B5 B 0.3332(4) -0.07447(12) 0.34036(19)
H5 H 0.244718 -0.093986 0.349413
B6 B 0.4234(4) -0.03315(11) 0.40581(19)
H6 H 0.393037 -0.025411 0.456870
B7 B 0.5097(4) -0.08410(12) 0.3946(2)
H7 H 0.536285 -0.110069 0.438709
B8 B 0.5142(4) -0.05600(12) 0.2475(2)
H8 H 0.543946 -0.063315 0.196070
B9 B 0.6032(4) -0.01437(12) 0.31272(18)
H9 H 0.689177 0.006213 0.303093
B10 B 0.4556(4) -0.09858(12) 0.2979(2)
H10 H 0.446952 -0.134065 0.279313
C1 C 0.4887(3) 0.05612(9) 0.37384(14)
C2 C 0.4297(3) -0.00800(10) 0.26148(15)
C3 C 0.4928(3) 0.15073(10) 0.38867(15)
C4 C 0.5154(3) 0.27803(10) 0.43069(17)
C5 C 0.5223(3) 0.23029(10) 0.44273(16)
C6 C 0.4867(3) 0.20084(10) 0.38039(15)
C7 C 0.4830(3) 0.00630(9) 0.35593(15)
C8 C 0.4682(3) 0.29494(10) 0.35810(17)
H11 H 0.464180 0.326084 0.350724
C9 C 0.3945(4) 0.02901(10) 0.20327(15)
C10 C 0.4385(3) 0.21853(10) 0.30694(16)
C11 C 0.6143(4) 0.08005(10) 0.38733(16)
H12 H 0.698045 0.064615 0.390891
C12 C 0.2572(4) 0.04480(10) 0.17514(16)
H13 H 0.186961 0.033974 0.194859
C13 C 0.4269(3) 0.26638(10) 0.29617(17)
C14 C 0.3684(4) 0.07955(10) 0.37476(17)
H14 H 0.285285 0.063781 0.371190
C15 C 0.6166(4) 0.12667(10) 0.39557(17)
H15 H 0.702234 0.142038 0.405851
C16 C 0.3700(4) 0.12614(10) 0.38093(17)
H16 H 0.286933 0.141297 0.379858
C17 C 0.3263(4) 0.09254(11) 0.08831(17)
H17 H 0.303451 0.113853 0.049957
C18 C 0.2237(4) 0.07635(11) 0.11830(17)
H18 H 0.131286 0.086760 0.100105
C19 C 0.5537(4) 0.30723(11) 0.49440(18)
H19 H 0.550356 0.338406 0.487371
C20 C 0.5643(4) 0.21399(11) 0.51800(16)
H20 H 0.568111 0.182992 0.526935
C21 C 0.3998(4) 0.19007(11) 0.24217(16)
H21 H 0.410987 0.158899 0.247630
C22 C 0.4966(4) 0.04540(11) 0.17207(17)
H22 H 0.589062 0.034911 0.189622
C23 C 0.3687(4) 0.28367(12) 0.22179(18)
H23 H 0.358446 0.314742 0.214361
C24 C 0.3284(4) 0.25543(12) 0.16206(18)
H24 H 0.288730 0.267033 0.114180
C25 C 0.5988(4) 0.24314(12) 0.57670(18)
H25 H 0.625405 0.231962 0.625454
C26 C 0.4624(4) 0.07707(12) 0.11527(18)
H26 H 0.532042 0.087997 0.095168
C27 C 0.3469(4) 0.20815(12) 0.17294(18)
H27 H 0.322131 0.189051 0.131505
C28 C 0.5947(4) 0.29037(12) 0.56442(19)
H28 H 0.620606 0.309972 0.605165
B11 B 0.8382(4) 0.34135(11) 0.36202(19)
H29 H 0.743529 0.361729 0.358997
B12 B 1.1248(4) 0.27822(11) 0.37097(19)
H30 H 1.216882 0.256592 0.373969
B13 B 0.8358(4) 0.28166(11) 0.36928(18)
H31 H 0.741824 0.262343 0.371296
B14 B 0.9351(4) 0.31445(11) 0.44696(19)
H32 H 0.904398 0.317202 0.499093
B15 B 1.0117(4) 0.36029(12) 0.4106(2)
H33 H 1.030596 0.393257 0.439192
B16 B 1.1146(4) 0.31206(11) 0.4474(2)
H34 H 1.201013 0.313158 0.500052
B17 B 0.9597(4) 0.35636(12) 0.3120(2)
H35 H 0.945395 0.386842 0.276737
B18 B 0.8494(4) 0.30830(11) 0.28526(19)
H36 H 0.763017 0.307008 0.232594
B19 B 1.0291(4) 0.30577(11) 0.28644(19)
H37 H 1.059730 0.302664 0.234303
B20 B 1.1300(4) 0.33764(11) 0.3642(2)
H38 H 1.226761 0.355531 0.362625
C29 C 0.9300(3) -0.00043(10) 0.26039(16)
C30 C 0.9066(3) 0.12762(10) 0.23499(15)
C31 C 0.8543(3) 0.06322(10) 0.14201(16)
C32 C 1.0178(4) 0.22397(10) 0.46498(15)
C33 C 0.9374(3) 0.04698(10) 0.27626(15)
C34 C 0.9332(3) 0.21649(9) 0.28841(15)
C35 C 1.0051(3) 0.26682(10) 0.41946(16)
C36 C 0.8988(3) 0.07845(9) 0.21675(15)
C37 C 0.8098(4) 0.19234(10) 0.28144(16)
H39 H 0.735301 0.205729 0.294784
C38 C 0.9540(3) 0.26305(9) 0.32330(15)
C39 C 0.8143(4) 0.09352(10) 0.08008(16)
H40 H 0.818351 0.124561 0.088591
C40 C 1.0387(4) 0.19689(10) 0.26388(17)
H41 H 1.119337 0.213406 0.264901
C41 C 1.1278(4) 0.19353(10) 0.47094(17)
H42 H 1.194360 0.199076 0.445369
C42 C 0.7970(4) 0.14865(10) 0.25488(17)
H43 H 0.713394 0.132907 0.250166
C43 C 0.8462(4) 0.01540(10) 0.12695(17)
C44 C 0.9858(3) 0.06096(11) 0.35347(16)
H44 H 0.990008 0.091576 0.365405
C45 C 1.0254(4) 0.02959(11) 0.40916(17)
H45 H 1.058408 0.039131 0.458749
C46 C 0.9704(4) -0.03156(11) 0.32151(17)
H46 H 0.964071 -0.062477 0.311856
C47 C 1.0252(4) 0.15280(10) 0.23777(17)
H47 H 1.097586 0.139960 0.221830
C48 C 0.8837(4) -0.01474(10) 0.18622(17)
H48 H 0.877623 -0.045604 0.176098
C49 C 0.9198(4) 0.21473(11) 0.50292(17)
H49 H 0.845080 0.234596 0.499302
C50 C 1.0174(4) -0.01688(11) 0.39301(17)
H50 H 1.044784 -0.037735 0.431913
C51 C 1.1390(4) 0.15533(11) 0.51429(19)
H51 H 1.213794 0.135420 0.518361
C52 C 1.0414(4) 0.14635(12) 0.5514(2)
H52 H 1.049065 0.120190 0.580068
C53 C 0.8002(4) 0.00086(12) 0.05128(18)
H53 H 0.795437 -0.029967 0.040822
C54 C 0.9319(4) 0.17593(12) 0.54651(19)
H54 H 0.865947 0.170014 0.572295
C55 C 0.7702(4) 0.07762(12) 0.00878(18)
H55 H 0.744154 0.097897 -0.031027
C56 C 0.7633(5) 0.03055(12) -0.00578(18)
H56 H 0.733106 0.020120 -0.054955
loop_
_geom_bond_atom_site_label_1
_geom_bond_atom_site_label_2
_geom_bond_site_symmetry_1
_geom_bond_site_symmetry_2
B1 H1 1_555 1_555
B2 H2 1_555 1_555
B3 B1 1_555 1_555
H3 B3 1_555 1_555
B4 B2 1_555 1_555
H4 B4 1_555 1_555
B5 B1 1_555 1_555
H5 B5 1_555 1_555
B6 B1 1_555 1_555
H6 B6 1_555 1_555
B7 B2 1_555 1_555
H7 B7 1_555 1_555
B8 B2 1_555 1_555
H8 B8 1_555 1_555
B9 B2 1_555 1_555
H9 B9 1_555 1_555
B10 B2 1_555 1_555
H10 B10 1_555 1_555
C1 C7 1_555 1_555
C2 B1 1_555 1_555
C3 C6 1_555 1_555
C4 C5 1_555 1_555
C5 C6 1_555 1_555
C6 C10 1_555 1_555
C7 B1 1_555 1_555
C8 C4 1_555 1_555
H11 C8 1_555 1_555
C9 C2 1_555 1_555
C10 C13 1_555 1_555
C11 C1 1_555 1_555
H12 C11 1_555 1_555
C12 C9 1_555 1_555
H13 C12 1_555 1_555
C13 C8 1_555 1_555
C14 C1 1_555 1_555
H14 C14 1_555 1_555
C15 C3 1_555 1_555
H15 C15 1_555 1_555
C16 C3 1_555 1_555
H16 C16 1_555 1_555
C17 H17 1_555 1_555
C18 C12 1_555 1_555
H18 C18 1_555 1_555
C19 C4 1_555 1_555
H19 C19 1_555 1_555
C20 C5 1_555 1_555
H20 C20 1_555 1_555
C21 C10 1_555 1_555
H21 C21 1_555 1_555
C22 C9 1_555 1_555
H22 C22 1_555 1_555
C23 C13 1_555 1_555
H23 C23 1_555 1_555
C24 C23 1_555 1_555
H24 C24 1_555 1_555
C25 C20 1_555 1_555
H25 C25 1_555 1_555
C26 C17 1_555 1_555
H26 C26 1_555 1_555
C27 C21 1_555 1_555
H27 C27 1_555 1_555
C28 C19 1_555 1_555
H28 C28 1_555 1_555
B11 H29 1_555 1_555
B12 H30 1_555 1_555
B13 B11 1_555 1_555
H31 B13 1_555 1_555
B14 B11 1_555 1_555
H32 B14 1_555 1_555
B15 B11 1_555 1_555
H33 B15 1_555 1_555
B16 B12 1_555 1_555
H34 B16 1_555 1_555
B17 B11 1_555 1_555
H35 B17 1_555 1_555
B18 B11 1_555 1_555
H36 B18 1_555 1_555
B19 B12 1_555 1_555
H37 B19 1_555 1_555
B20 B12 1_555 1_555
H38 B20 1_555 1_555
C29 C33 1_555 1_555
C30 C36 1_555 1_555
C31 C36 1_555 1_555
C32 C35 1_555 1_555
C33 C36 1_555 1_555
C34 C37 1_555 1_555
C35 B12 1_555 1_555
C37 H39 1_555 1_555
C38 B12 1_555 1_555
C39 C31 1_555 1_555
H40 C39 1_555 1_555
C40 C34 1_555 1_555
H41 C40 1_555 1_555
C41 C32 1_555 1_555
H42 C41 1_555 1_555
C42 C30 1_555 1_555
H43 C42 1_555 1_555
C43 C31 1_555 1_555
C44 C33 1_555 1_555
H44 C44 1_555 1_555
C45 C44 1_555 1_555
H45 C45 1_555 1_555
C46 C29 1_555 1_555
H46 C46 1_555 1_555
C47 C30 1_555 1_555
H47 C47 1_555 1_555
C48 C29 1_555 1_555
H48 C48 1_555 1_555
C49 C32 1_555 1_555
H49 C49 1_555 1_555
C50 C45 1_555 1_555
H50 C50 1_555 1_555
C51 C41 1_555 1_555
H51 C51 1_555 1_555
C52 C51 1_555 1_555
H52 C52 1_555 1_555
C53 C43 1_555 1_555
H53 C53 1_555 1_555
C54 C49 1_555 1_555
H54 C54 1_555 1_555
C55 C39 1_555 1_555
H55 C55 1_555 1_555
C56 C53 1_555 1_555
H56 C56 1_555 1_555
B3 B5 1_555 1_555
B3 B8 1_555 1_555
B3 B10 1_555 1_555
B3 C2 1_555 1_555
B4 B6 1_555 1_555
B4 B7 1_555 1_555
B4 B9 1_555 1_555
B4 C7 1_555 1_555
B5 B6 1_555 1_555
B5 B7 1_555 1_555
B5 B10 1_555 1_555
B6 B7 1_555 1_555
B6 C7 1_555 1_555
B7 B10 1_555 1_555
B8 B9 1_555 1_555
B8 B10 1_555 1_555
B8 C2 1_555 1_555
B9 C2 1_555 1_555
B9 C7 1_555 1_555
C2 C7 1_555 1_555
C11 C15 1_555 1_555
C14 C16 1_555 1_555
C17 C18 1_555 1_555
C22 C26 1_555 1_555
C24 C27 1_555 1_555
C25 C28 1_555 1_555
B13 B14 1_555 1_555
B13 B18 1_555 1_555
B13 C35 1_555 1_555
B13 C38 1_555 1_555
B14 B15 1_555 1_555
B14 B16 1_555 1_555
B14 C35 1_555 1_555
B15 B16 1_555 1_555
B15 B17 1_555 1_555
B15 B20 1_555 1_555
B16 B20 1_555 1_555
B16 C35 1_555 1_555
B17 B18 1_555 1_555
B17 B19 1_555 1_555
B17 B20 1_555 1_555
B18 B19 1_555 1_555
B18 C38 1_555 1_555
B19 B20 1_555 1_555
B19 C38 1_555 1_555
C34 C38 1_555 1_555
C35 C38 1_555 1_555
C37 C42 1_555 1_555
C40 C47 1_555 1_555
C43 C48 1_555 1_555
C46 C50 1_555 1_555
C52 C54 1_555 1_555
C55 C56 1_555 1_555

#END
