
#######################################################################
#
#                 Cambridge Crystallographic Data Centre
#                                CCDC 
#
#######################################################################
#
# If this CIF has been generated from an entry in the Cambridge 
# Structural Database, then it will include bibliographic, chemical, 
# crystal, experimental, refinement or atomic coordinate data resulting 
# from the CCDC's data processing and validation procedures.
#
#######################################################################

data_PIFCUE
_chemical_formula_moiety         'C28 H40 B1 Cl1 N2'
_chemical_name_systematic        
2-Chloro-1,3-bis(2,6-diisopropylphenyl)-4,5-dimethyl-2,3-dihydro-1H-1,3,2-diazaborole
_symmetry_cell_setting           monoclinic
_symmetry_space_group_name_H-M   'P 21/n'
_symmetry_Int_Tables_number      14
_space_group_name_Hall           '-P 2yn'
loop_
_symmetry_equiv_pos_site_id
_symmetry_equiv_pos_as_xyz
1 x,y,z
2 1/2-x,1/2+y,1/2-z
3 -x,-y,-z
4 1/2+x,1/2-y,1/2+z
_cell_length_a                   12.086(4)
_cell_length_b                   16.987(5)
_cell_length_c                   13.148(4)
_cell_angle_alpha                90
_cell_angle_beta                 100.534(7)
_cell_angle_gamma                90
_cell_volume                     2653.86
_exptl_crystal_colour            colorless
_exptl_crystal_description       Prism
_cell_formula_units_Z            4
loop_
_atom_site_label
_atom_site_type_symbol
_atom_site_fract_x
_atom_site_fract_y
_atom_site_fract_z
B1 B 0.16412(10) 0.11635(7) 0.24956(10)
Cl1 Cl 0.15897(2) 0.011982(16) 0.24914(2)
N1 N 0.13772(7) 0.16684(5) 0.32678(7)
N2 N 0.19614(7) 0.16411(5) 0.17210(7)
C1 C 0.15434(9) 0.24562(6) 0.29533(9)
C2 C 0.18916(9) 0.24387(6) 0.20335(9)
C3 C 0.09813(9) 0.14599(6) 0.41982(8)
C4 C -0.01820(9) 0.14131(7) 0.41754(9)
C5 C -0.05474(10) 0.11325(7) 0.50526(9)
H1 H -0.1331 0.1077 0.5044
C6 C 0.02104(10) 0.09339(7) 0.59350(9)
H2 H -0.0052 0.0742 0.6527
C7 C 0.13476(10) 0.10154(7) 0.59538(9)
H3 H 0.1862 0.0895 0.6571
C8 C 0.17611(9) 0.12703(7) 0.50905(9)
C9 C -0.10311(9) 0.16516(7) 0.32233(9)
H4 H -0.0618 0.1939 0.2744
C10 C -0.19243(10) 0.22065(8) 0.35089(11)
H5 H -0.2411 0.1915 0.3896
H6 H -0.2379 0.2422 0.2877
H7 H -0.1555 0.2638 0.3937
C11 C -0.15863(10) 0.09282(8) 0.26536(10)
H8 H -0.1005 0.0583 0.2466
H9 H -0.2100 0.1095 0.2026
H10 H -0.2010 0.0642 0.3104
C12 C 0.30220(10) 0.13142(8) 0.51237(10)
H11 H 0.3150 0.1580 0.4476
C13 C 0.36129(11) 0.18006(9) 0.60453(11)
H12 H 0.3293 0.2332 0.6006
H13 H 0.4419 0.1832 0.6029
H14 H 0.3505 0.1549 0.6691
C14 C 0.35302(12) 0.04879(10) 0.51480(13)
H15 H 0.3428 0.0219 0.5784
H16 H 0.4335 0.0527 0.5130
H17 H 0.3153 0.0189 0.4546
C15 C 0.13337(10) 0.31377(7) 0.36089(9)
H18 H 0.1552 0.3627 0.3303
H19 H 0.1779 0.3075 0.4306
H20 H 0.0532 0.3159 0.3648
C16 C 0.22110(10) 0.30957(7) 0.13935(9)
H21 H 0.2119 0.3599 0.1733
H22 H 0.1726 0.3086 0.0709
H23 H 0.2998 0.3034 0.1318
C17 C 0.22669(9) 0.13817(6) 0.07699(8)
C18 C 0.14277(9) 0.13205(6) -0.01216(9)
C19 C 0.17102(10) 0.09569(7) -0.09872(9)
H24 H 0.1153 0.0899 -0.1594
C20 C 0.27853(10) 0.06776(7) -0.09820(9)
H25 H 0.2953 0.0412 -0.1571
C21 C 0.36152(9) 0.07840(7) -0.01206(9)
H26 H 0.4360 0.0611 -0.0135
C22 C 0.33781(9) 0.11419(7) 0.07714(9)
C23 C 0.02502(9) 0.16416(7) -0.01340(9)
H27 H 0.0305 0.2036 0.0437
C24 C -0.02139(11) 0.20680(9) -0.11450(10)
H28 H 0.0315 0.2479 -0.1267
H29 H -0.0941 0.2308 -0.1099
H30 H -0.0314 0.1691 -0.1718
C25 C -0.05633(10) 0.09973(8) 0.00774(11)
H31 H -0.0651 0.0607 -0.0480
H32 H -0.1297 0.1232 0.0110
H33 H -0.0263 0.0740 0.0738
C26 C 0.43074(10) 0.12764(8) 0.16998(9)
H34 H 0.3995 0.1611 0.2205
C27 C 0.47062(12) 0.05023(10) 0.22389(11)
H35 H 0.4075 0.0246 0.2480
H36 H 0.5307 0.0610 0.2831
H37 H 0.4992 0.0155 0.1751
C28 C 0.52952(11) 0.17202(9) 0.13867(11)
H38 H 0.5641 0.1393 0.0917
H39 H 0.5855 0.1841 0.2006
H40 H 0.5022 0.2211 0.1037
loop_
_geom_bond_atom_site_label_1
_geom_bond_atom_site_label_2
_geom_bond_site_symmetry_1
_geom_bond_site_symmetry_2
B1 Cl1 1_555 1_555
N1 B1 1_555 1_555
N2 B1 1_555 1_555
C1 N1 1_555 1_555
C2 N2 1_555 1_555
C3 N1 1_555 1_555
C4 C3 1_555 1_555
C5 C4 1_555 1_555
H1 C5 1_555 1_555
C6 C5 1_555 1_555
H2 C6 1_555 1_555
C7 C6 1_555 1_555
H3 C7 1_555 1_555
C8 C3 1_555 1_555
C9 C4 1_555 1_555
H4 C9 1_555 1_555
C10 C9 1_555 1_555
H5 C10 1_555 1_555
H6 C10 1_555 1_555
H7 C10 1_555 1_555
C11 C9 1_555 1_555
H8 C11 1_555 1_555
H9 C11 1_555 1_555
H10 C11 1_555 1_555
C12 C8 1_555 1_555
H11 C12 1_555 1_555
C13 C12 1_555 1_555
H12 C13 1_555 1_555
H13 C13 1_555 1_555
H14 C13 1_555 1_555
C14 C12 1_555 1_555
H15 C14 1_555 1_555
H16 C14 1_555 1_555
H17 C14 1_555 1_555
C15 C1 1_555 1_555
H18 C15 1_555 1_555
H19 C15 1_555 1_555
H20 C15 1_555 1_555
C16 C2 1_555 1_555
H21 C16 1_555 1_555
H22 C16 1_555 1_555
H23 C16 1_555 1_555
C17 N2 1_555 1_555
C18 C17 1_555 1_555
C19 C18 1_555 1_555
H24 C19 1_555 1_555
C20 C19 1_555 1_555
H25 C20 1_555 1_555
C21 C20 1_555 1_555
H26 C21 1_555 1_555
C22 C17 1_555 1_555
C23 C18 1_555 1_555
H27 C23 1_555 1_555
C24 C23 1_555 1_555
H28 C24 1_555 1_555
H29 C24 1_555 1_555
H30 C24 1_555 1_555
C25 C23 1_555 1_555
H31 C25 1_555 1_555
H32 C25 1_555 1_555
H33 C25 1_555 1_555
C26 C22 1_555 1_555
H34 C26 1_555 1_555
C27 C26 1_555 1_555
H35 C27 1_555 1_555
H36 C27 1_555 1_555
H37 C27 1_555 1_555
C28 C26 1_555 1_555
H38 C28 1_555 1_555
H39 C28 1_555 1_555
H40 C28 1_555 1_555
C1 C2 1_555 1_555
C7 C8 1_555 1_555
C21 C22 1_555 1_555

#END
