
#######################################################################
#
#                 Cambridge Crystallographic Data Centre
#                                CCDC 
#
#######################################################################
#
# If this CIF has been generated from an entry in the Cambridge 
# Structural Database, then it will include bibliographic, chemical, 
# crystal, experimental, refinement or atomic coordinate data resulting 
# from the CCDC's data processing and validation procedures.
#
#######################################################################

data_PIFDOZ
_chemical_formula_moiety         'C40 H52 I4 O8 Si8'
_chemical_name_systematic        
2,4,6,8-tetrakis((dimethyl(vinyl)silyl)oxy)-2,4,6,8-tetrakis(4-iodophenyl)-1,3,5,7,2,4,6,8-tetroxatetrasilocane
_symmetry_cell_setting           monoclinic
_symmetry_space_group_name_H-M   'P 21/c'
_symmetry_Int_Tables_number      14
_space_group_name_Hall           '-P 2ybc'
loop_
_symmetry_equiv_pos_site_id
_symmetry_equiv_pos_as_xyz
1 x,y,z
2 -x,1/2+y,1/2-z
3 -x,-y,-z
4 x,1/2-y,1/2+z
_cell_length_a                   22.2691(15)
_cell_length_b                   21.9669(8)
_cell_length_c                   11.5215(4)
_cell_angle_alpha                90
_cell_angle_beta                 96.973(7)
_cell_angle_gamma                90
_cell_volume                     5594.44
_exptl_crystal_colour            colorless
_exptl_crystal_description       block
_cell_formula_units_Z            4
loop_
_atom_site_label
_atom_site_type_symbol
_atom_site_fract_x
_atom_site_fract_y
_atom_site_fract_z
C1 C 0.1685(4) 0.0959(4) 0.0265(8)
C2 C 0.1482(4) 0.1360(4) -0.0612(9)
H1 H 0.1767 0.1620 -0.0915
C3 C 0.0878(4) 0.1401(5) -0.1074(10)
H2 H 0.0752 0.1683 -0.1680
C4 C 0.0470(4) 0.1028(4) -0.0638(8)
C5 C 0.0639(4) 0.0614(4) 0.0241(8)
H3 H 0.0348 0.0360 0.0539
C6 C 0.1253(4) 0.0580(4) 0.0683(8)
H4 H 0.1379 0.0294 0.1280
C7 C 0.2052(4) 0.1608(4) 0.4150(8)
C8 C 0.1485(4) 0.1666(4) 0.3503(9)
H5 H 0.1431 0.1534 0.2712
C9 C 0.0994(4) 0.1914(5) 0.3986(9)
H6 H 0.0612 0.1954 0.3526
C10 C 0.1069(4) 0.2098(4) 0.5133(9)
C11 C 0.1624(4) 0.2071(5) 0.5806(10)
H7 H 0.1676 0.2221 0.6586
C12 C 0.2101(4) 0.1821(5) 0.5317(9)
H8 H 0.2481 0.1789 0.5786
C13 C 0.1695(4) -0.0272(4) 0.4689(8)
C14 C 0.1551(4) 0.0165(4) 0.5477(8)
H9 H 0.1798 0.0517 0.5598
C15 C 0.1047(5) 0.0102(5) 0.6105(9)
H10 H 0.0959 0.0406 0.6644
C16 C 0.0690(4) -0.0403(5) 0.5925(9)
C17 C 0.0820(4) -0.0849(5) 0.5106(9)
H11 H 0.0566 -0.1195 0.4969
C18 C 0.1312(4) -0.0781(4) 0.4510(9)
H12 H 0.1397 -0.1085 0.3966
C19 C 0.2176(4) -0.0966(4) 0.0380(8)
C20 C 0.2086(4) -0.1578(4) 0.0621(8)
H13 H 0.2252 -0.1741 0.1355
C21 C 0.1757(4) -0.1957(5) -0.0190(9)
H14 H 0.1693 -0.2372 -0.0009
C22 C 0.1526(4) -0.1723(4) -0.1255(8)
C23 C 0.1607(5) -0.1118(5) -0.1552(9)
H15 H 0.1446 -0.0965 -0.2296
C24 C 0.1931(4) -0.0740(4) -0.0718(9)
H16 H 0.1987 -0.0323 -0.0898
C25 C 0.3071(5) 0.2073(5) -0.1751(10)
H17 H 0.2637 0.2127 -0.1987
H18 H 0.3290 0.2123 -0.2434
H19 H 0.3213 0.2378 -0.1160
C26 C 0.4038(5) 0.1146(8) -0.0796(15)
H20 H 0.4221 0.1453 -0.0245
H21 H 0.4228 0.1165 -0.1519
H22 H 0.4098 0.0741 -0.0447
C27 C 0.2817(7) 0.0722(6) -0.2132(11)
H23 H 0.2389 0.0753 -0.2288
C28 C 0.3073(10) 0.0283(7) -0.2632(15)
H24 H 0.3500 0.0235 -0.2501
H25 H 0.2835 0.0008 -0.3132
C29 C 0.4222(7) 0.0574(5) 0.4865(17)
H26 H 0.4070 0.0531 0.5624
H27 H 0.4661 0.0512 0.4961
H28 H 0.4029 0.0270 0.4320
C30 C 0.4306(7) 0.1471(10) 0.2841(11)
H29 H 0.4129 0.1161 0.2289
H30 H 0.4748 0.1442 0.2916
H31 H 0.4180 0.1876 0.2551
C31 C 0.4358(7) 0.1905(8) 0.5389(17)
H32 H 0.4208 0.1898 0.6126
C32 C 0.4763(11) 0.2304(10) 0.523(3)
H33 H 0.4924 0.2324 0.4509
H34 H 0.4902 0.2578 0.5847
C33 C 0.2906(7) -0.1865(5) 0.4079(12)
H35 H 0.2488 -0.1787 0.3738
H36 H 0.2934 -0.2273 0.4425
H37 H 0.3174 -0.1838 0.3467
C34 C 0.3954(5) -0.1271(8) 0.5666(15)
H38 H 0.4167 -0.1233 0.4973
H39 H 0.4083 -0.1647 0.6085
H40 H 0.4051 -0.0921 0.6181
C35 C 0.2742(5) -0.1466(5) 0.6491(10)
H41 H 0.2323 -0.1368 0.6425
C36 C 0.2973(7) -0.1702(7) 0.7468(15)
H42 H 0.3390 -0.1809 0.7582
H43 H 0.2727 -0.1770 0.8075
C37 C 0.4500(17) -0.0379(18) 0.203(4)
H44 H 0.4507 -0.0379 0.2881
H45 H 0.4388 0.0026 0.1722
H46 H 0.4902 -0.0487 0.1828
C38 C 0.416(2) -0.1727(19) 0.185(4)
H47 H 0.4182 -0.1758 0.2698
H48 H 0.4558 -0.1822 0.1606
H49 H 0.3861 -0.2016 0.1479
C39 C 0.3920(15) -0.080(2) -0.0198(11)
H50 H 0.3535 -0.0834 -0.0650
C40 C 0.4366(16) -0.066(2) -0.076(2)
H51 H 0.4762 -0.0614 -0.0359
H52 H 0.4299 -0.0593 -0.1585
O1 O 0.2585(3) 0.1203(3) 0.2194(6)
O2 O 0.2636(3) 0.0476(3) 0.4019(6)
O3 O 0.2285(3) -0.0458(3) 0.2648(6)
O4 O 0.2698(3) 0.0196(3) 0.0975(6)
O5 O 0.2913(3) 0.1274(3) 0.0092(6)
O6 O 0.3310(3) 0.1447(3) 0.4149(6)
O7 O 0.2931(3) -0.0625(3) 0.4709(6)
O8 O 0.3289(3) -0.0775(3) 0.1834(6)
Si1 Si 0.24938(10) 0.09080(11) 0.0893(2)
Si2 Si 0.26671(10) 0.11764(11) 0.3600(2)
Si3 Si 0.24039(10) -0.02192(11) 0.3995(2)
Si4 Si 0.26290(10) -0.04849(11) 0.1481(2)
Si5 Si 0.32130(13) 0.12997(13) -0.1132(3)
Si6 Si 0.40456(12) 0.13451(14) 0.4279(3)
Si7 Si 0.31328(13) -0.12979(12) 0.5213(3)
Si8 Si 0.39395(12) -0.09420(14) 0.1380(3)
I1 I -0.04657(3) 0.11124(3) -0.12295(7)
I2 I 0.03031(3) 0.24071(3) 0.58802(6)
I3 I -0.00329(3) -0.05173(4) 0.68926(8)
I4 I 0.10537(3) -0.23093(3) -0.25021(6)
C41? C 0.424(6) 0.077(4) 0.542(8)
H53? H 0.4001 0.0402 0.5235
H54? H 0.4158 0.0931 0.6178
H55? H 0.4673 0.0670 0.5460
C42? C 0.417(6) 0.106(6) 0.282(5)
H56? H 0.3960 0.0670 0.2677
H57? H 0.4600 0.1010 0.2782
H58? H 0.4001 0.1356 0.2224
C43? C 0.443(4) 0.2075(18) 0.461(10)
H59? H 0.4243 0.2428 0.4264
C44? C 0.494(3) 0.215(3) 0.528(19)
H60? H 0.5143 0.1813 0.5647
H61? H 0.5100 0.2550 0.5397
C45? C 0.4546(15) -0.0571(17) 0.236(4)
H62? H 0.4535 -0.0717 0.3164
H63? H 0.4487 -0.0129 0.2337
H64? H 0.4939 -0.0671 0.2110
C46? C 0.402(2) -0.1769(19) 0.135(5)
H65? H 0.4043 -0.1930 0.2146
H66? H 0.4388 -0.1876 0.1010
H67? H 0.3668 -0.1946 0.0870
C47? C 0.389(3) -0.073(3) -0.0173(17)
H68? H 0.3677 -0.0371 -0.0432
C48? C 0.414(3) -0.105(3) -0.092(3)
H69? H 0.4360 -0.1408 -0.0675
H70? H 0.4110 -0.0926 -0.1716
loop_
_geom_bond_atom_site_label_1
_geom_bond_atom_site_label_2
_geom_bond_site_symmetry_1
_geom_bond_site_symmetry_2
C1 C2 1_555 1_555
C2 H1 1_555 1_555
C3 C2 1_555 1_555
H2 C3 1_555 1_555
C4 C3 1_555 1_555
C5 C4 1_555 1_555
H3 C5 1_555 1_555
C6 C1 1_555 1_555
H4 C6 1_555 1_555
C7 C8 1_555 1_555
C8 H5 1_555 1_555
C9 C8 1_555 1_555
H6 C9 1_555 1_555
C10 C9 1_555 1_555
C11 C10 1_555 1_555
H7 C11 1_555 1_555
C12 C7 1_555 1_555
H8 C12 1_555 1_555
C13 C14 1_555 1_555
C14 H9 1_555 1_555
C15 C14 1_555 1_555
H10 C15 1_555 1_555
C16 C15 1_555 1_555
C17 C16 1_555 1_555
H11 C17 1_555 1_555
C18 C13 1_555 1_555
H12 C18 1_555 1_555
C19 C20 1_555 1_555
C20 H13 1_555 1_555
C21 C20 1_555 1_555
H14 C21 1_555 1_555
C22 C21 1_555 1_555
C23 C22 1_555 1_555
H15 C23 1_555 1_555
C24 C19 1_555 1_555
H16 C24 1_555 1_555
C25 H17 1_555 1_555
H18 C25 1_555 1_555
H19 C25 1_555 1_555
C26 H20 1_555 1_555
H21 C26 1_555 1_555
H22 C26 1_555 1_555
C27 H23 1_555 1_555
C28 C27 1_555 1_555
H24 C28 1_555 1_555
H25 C28 1_555 1_555
C29 H26 1_555 1_555
H27 C29 1_555 1_555
H28 C29 1_555 1_555
C30 H29 1_555 1_555
H30 C30 1_555 1_555
H31 C30 1_555 1_555
C31 H32 1_555 1_555
C32 C31 1_555 1_555
H33 C32 1_555 1_555
H34 C32 1_555 1_555
C33 H35 1_555 1_555
H36 C33 1_555 1_555
H37 C33 1_555 1_555
C34 H38 1_555 1_555
H39 C34 1_555 1_555
H40 C34 1_555 1_555
C35 H41 1_555 1_555
C36 C35 1_555 1_555
H42 C36 1_555 1_555
H43 C36 1_555 1_555
C37 H44 1_555 1_555
H45 C37 1_555 1_555
H46 C37 1_555 1_555
C38 H47 1_555 1_555
H48 C38 1_555 1_555
H49 C38 1_555 1_555
C39 H50 1_555 1_555
C40 C39 1_555 1_555
H51 C40 1_555 1_555
H52 C40 1_555 1_555
O1 Si1 1_555 1_555
O2 Si2 1_555 1_555
O3 Si3 1_555 1_555
O4 Si1 1_555 1_555
O5 Si1 1_555 1_555
O6 Si2 1_555 1_555
O7 Si3 1_555 1_555
O8 Si4 1_555 1_555
Si1 C1 1_555 1_555
Si2 C7 1_555 1_555
Si3 C13 1_555 1_555
Si4 C19 1_555 1_555
Si5 C25 1_555 1_555
Si6 C29 1_555 1_555
Si7 C33 1_555 1_555
Si8 C37 1_555 1_555
I1 C4 1_555 1_555
I2 C10 1_555 1_555
I3 C16 1_555 1_555
I4 C22 1_555 1_555
C5 C6 1_555 1_555
C11 C12 1_555 1_555
C17 C18 1_555 1_555
C23 C24 1_555 1_555
C26 Si5 1_555 1_555
C27 Si5 1_555 1_555
C30 Si6 1_555 1_555
C31 Si6 1_555 1_555
C34 Si7 1_555 1_555
C35 Si7 1_555 1_555
C38 Si8 1_555 1_555
C39 Si8 1_555 1_555
O1 Si2 1_555 1_555
O2 Si3 1_555 1_555
O3 Si4 1_555 1_555
O4 Si4 1_555 1_555
O5 Si5 1_555 1_555
O6 Si6 1_555 1_555
O7 Si7 1_555 1_555
O8 Si8 1_555 1_555

#END
