
#######################################################################
#
#                 Cambridge Crystallographic Data Centre
#                                CCDC 
#
#######################################################################
#
# If this CIF has been generated from an entry in the Cambridge 
# Structural Database, then it will include bibliographic, chemical, 
# crystal, experimental, refinement or atomic coordinate data resulting 
# from the CCDC's data processing and validation procedures.
#
#######################################################################

data_PIFGIV
_chemical_formula_moiety         'C12 H12 N4 O2'
_chemical_name_systematic        
'4-Hydroxy-3-methoxybenzaldehyde (pyrazin-2-yl)hydrazone'
_symmetry_cell_setting           monoclinic
_symmetry_space_group_name_H-M   'C 2/c'
_symmetry_Int_Tables_number      15
_space_group_name_Hall           '-C 2yn'
loop_
_symmetry_equiv_pos_site_id
_symmetry_equiv_pos_as_xyz
1 x,y,z
2 1/2+x,1/2+y,z
3 -x,y,1/2-z
4 1/2-x,1/2+y,1/2-z
5 -x,-y,-z
6 1/2-x,1/2-y,-z
7 x,-y,1/2+z
8 1/2+x,1/2-y,1/2+z
_cell_length_a                   43.862(6)
_cell_length_b                   7.9026(11)
_cell_length_c                   13.4958(19)
_cell_angle_alpha                90
_cell_angle_beta                 92.783(3)
_cell_angle_gamma                90
_cell_volume                     4672.45
_exptl_crystal_colour            orange
_exptl_crystal_description       prism
_chemical_melting_point          '469-471 K'
_cell_formula_units_Z            16
_exptl_crystal_recrystallization_method methanol
loop_
_atom_site_label
_atom_site_type_symbol
_atom_site_fract_x
_atom_site_fract_y
_atom_site_fract_z
O1 O 0.09624(3) -0.0018(2) 0.35987(9)
H1 H 0.1125 -0.0479 0.3489
O2 O 0.12414(3) -0.05024(18) 0.19008(9)
N1 N -0.07790(4) 0.4233(2) -0.07185(13)
N2 N -0.03900(4) 0.3369(2) -0.21998(12)
N3 N -0.00114(4) 0.2727(3) -0.10462(12)
H3 H 0.0109 0.2598 -0.1525
N4 N 0.00922(4) 0.2394(2) -0.00933(12)
C1 C -0.06743(5) 0.3908(3) -0.24004(16)
H5 H -0.0744 0.3999 -0.3061
C2 C -0.08688(5) 0.4334(3) -0.16788(17)
H6 H -0.1065 0.4697 -0.1857
C3 C -0.04997(4) 0.3702(3) -0.04990(15)
H7 H -0.0432 0.3618 0.0163
C4 C -0.03019(4) 0.3260(3) -0.12424(14)
C5 C 0.03653(5) 0.1859(3) 0.00035(14)
H8 H 0.0476 0.1749 -0.0563
C6 C 0.05136(4) 0.1408(3) 0.09534(14)
C7 C 0.03815(5) 0.1649(3) 0.18529(15)
H9 H 0.0189 0.2137 0.1868
C8 C 0.05330(5) 0.1172(3) 0.27277(15)
H10 H 0.0442 0.1343 0.3328
C9 C 0.08172(5) 0.0447(3) 0.27178(14)
C10 C 0.09553(4) 0.0212(2) 0.18214(13)
C11 C 0.08029(4) 0.0694(2) 0.09510(14)
H11 H 0.0895 0.0540 0.0352
C12 C 0.13893(5) -0.0775(3) 0.10010(16)
H12 H 0.1268 -0.1518 0.0581
H13 H 0.1586 -0.1279 0.1144
H14 H 0.1415 0.0287 0.0670
O3 O 0.88212(3) 0.37662(18) 0.52439(11)
H2 H 0.8939 0.4482 0.5043
O4 O 0.84359(3) 0.17444(17) 0.60218(10)
N5 N 0.77115(4) 0.2428(2) 1.12707(13)
N6 N 0.74870(4) 0.5668(2) 1.08398(13)
N7 N 0.78167(4) 0.5929(2) 0.95882(13)
H4 H 0.7774 0.6990 0.9548
N8 N 0.80002(4) 0.5187(2) 0.89084(12)
C13 C 0.73840(5) 0.4715(3) 1.15752(16)
H15 H 0.7233 0.5156 1.1959
C14 C 0.74906(5) 0.3134(3) 1.17852(17)
H16 H 0.7408 0.2527 1.2299
C15 C 0.78173(5) 0.3346(3) 1.05504(15)
H17 H 0.7972 0.2904 1.0182
C16 C 0.77044(4) 0.4973(2) 1.03167(14)
C17 C 0.81365(4) 0.6185(3) 0.83397(15)
H18 H 0.8122 0.7344 0.8445
C18 C 0.83143(4) 0.5577(2) 0.75289(14)
C19 C 0.85151(4) 0.6639(2) 0.70776(15)
H19 H 0.8536 0.7752 0.7294
C20 C 0.86862(4) 0.6076(2) 0.63082(15)
H20 H 0.8821 0.6811 0.6018
C21 C 0.86583(4) 0.4434(2) 0.59665(14)
C22 C 0.84495(4) 0.3358(2) 0.64100(14)
C23 C 0.82815(4) 0.3918(2) 0.71763(14)
H21 H 0.8145 0.3190 0.7464
C24 C 0.81790(5) 0.0741(3) 0.62537(17)
H22 H 0.8191 0.0467 0.6947
H23 H 0.8178 -0.0283 0.5871
H24 H 0.7995 0.1363 0.6099
loop_
_geom_bond_atom_site_label_1
_geom_bond_atom_site_label_2
_geom_bond_site_symmetry_1
_geom_bond_site_symmetry_2
O1 H1 1_555 1_555
O2 C10 1_555 1_555
O3 H2 1_555 1_555
O4 C22 1_555 1_555
N1 C2 1_555 1_555
N2 C1 1_555 1_555
N3 H3 1_555 1_555
N4 N3 1_555 1_555
N5 C14 1_555 1_555
N6 C13 1_555 1_555
N7 H4 1_555 1_555
N8 N7 1_555 1_555
C1 H5 1_555 1_555
C2 C1 1_555 1_555
H6 C2 1_555 1_555
C3 N1 1_555 1_555
H7 C3 1_555 1_555
C4 N2 1_555 1_555
C5 N4 1_555 1_555
H8 C5 1_555 1_555
C6 C5 1_555 1_555
C7 C6 1_555 1_555
H9 C7 1_555 1_555
C8 C7 1_555 1_555
H10 C8 1_555 1_555
C9 O1 1_555 1_555
C10 C9 1_555 1_555
C11 C6 1_555 1_555
H11 C11 1_555 1_555
C12 O2 1_555 1_555
H12 C12 1_555 1_555
H13 C12 1_555 1_555
H14 C12 1_555 1_555
C13 H15 1_555 1_555
C14 C13 1_555 1_555
H16 C14 1_555 1_555
C15 N5 1_555 1_555
H17 C15 1_555 1_555
C16 N6 1_555 1_555
C17 N8 1_555 1_555
H18 C17 1_555 1_555
C18 C17 1_555 1_555
C19 C18 1_555 1_555
H19 C19 1_555 1_555
C20 C19 1_555 1_555
H20 C20 1_555 1_555
C21 O3 1_555 1_555
C22 C21 1_555 1_555
C23 C18 1_555 1_555
H21 C23 1_555 1_555
C24 O4 1_555 1_555
H22 C24 1_555 1_555
H23 C24 1_555 1_555
H24 C24 1_555 1_555
N3 C4 1_555 1_555
N7 C16 1_555 1_555
C3 C4 1_555 1_555
C8 C9 1_555 1_555
C10 C11 1_555 1_555
C15 C16 1_555 1_555
C20 C21 1_555 1_555
C22 C23 1_555 1_555

#END
