
#######################################################################
#
#                 Cambridge Crystallographic Data Centre
#                                CCDC 
#
#######################################################################
#
# If this CIF has been generated from an entry in the Cambridge 
# Structural Database, then it will include bibliographic, chemical, 
# crystal, experimental, refinement or atomic coordinate data resulting 
# from the CCDC's data processing and validation procedures.
#
#######################################################################

data_PIFJUM
_chemical_formula_moiety         'C54 H54 N6 S6,0.5(C1 H2 Cl2),0.25(C4 H10 O1)'
_chemical_name_systematic        
'2,17,19,34,49,52-hexaethyl-8,25,39,47,50,53-hexathia-5,14,22,31,36,45-hexa-azadecacyclo[16.16.12.1^3,33^.1^7,10^.1^9,12^.1^16,20^.1^24,27^.1^26,29^.1^38,41^.1^40,43^]tetrapentaconta-1,3(49),5,7(54),9,11,13,16(52),17,19,22,24(51),26,28,30,33,36,38(48),40,42,44-henicosaene dichloromethane diethyl ether solvate'
_symmetry_cell_setting           triclinic
_symmetry_space_group_name_H-M   'P -1'
_symmetry_Int_Tables_number      2
_space_group_name_Hall           '-P 1'
loop_
_symmetry_equiv_pos_site_id
_symmetry_equiv_pos_as_xyz
1 x,y,z
2 -x,-y,-z
_cell_length_a                   12.90010(10)
_cell_length_b                   12.99880(10)
_cell_length_c                   17.19660(10)
_cell_angle_alpha                87.0750(10)
_cell_angle_beta                 68.5880(10)
_cell_angle_gamma                82.3650(10)
_cell_volume                     2660.79
_exptl_crystal_colour            yellow
_exptl_crystal_description       block
_cell_formula_units_Z            2
loop_
_atom_site_label
_atom_site_type_symbol
_atom_site_fract_x
_atom_site_fract_y
_atom_site_fract_z
S1 S 0.64541(5) 0.21064(5) 0.19416(4)
S2 S 0.70303(5) 0.19180(5) 0.35966(4)
S3 S 0.19757(5) 0.08972(5) 0.38446(4)
S4 S 0.24687(5) 0.07782(5) 0.55067(4)
S5 S 0.11525(5) 0.61144(4) 0.39743(3)
S6 S 0.18699(5) 0.59797(4) 0.55617(3)
N1 N 0.09532(17) 0.54420(15) 0.22790(12)
N2 N 0.10714(18) 0.10676(16) 0.25346(13)
N3 N 0.51175(17) 0.25046(16) 0.07085(14)
N4 N 0.67248(16) 0.20067(15) 0.55533(13)
N5 N 0.27568(17) 0.51173(15) 0.69737(12)
N6 N 0.24256(19) 0.08156(18) 0.71959(15)
C2 C 0.3213(3) 0.0423(2) -0.00849(18)
H3 H 0.3587 0.0860 -0.0560
H4 H 0.2439 0.0399 -0.0044
H5 H 0.3616 -0.0281 -0.0165
C3 C 0.3209(2) 0.08786(19) 0.07205(16)
H6 H 0.2833 0.0434 0.1199
H7 H 0.3992 0.0879 0.0685
C4 C 0.2610(2) 0.19774(18) 0.08724(14)
C5 C 0.14481(19) 0.21489(18) 0.13328(14)
C6 C 0.0833(2) 0.12370(19) 0.17699(16)
H8 H 0.0016 0.1403 0.1900
H9 H 0.1110 0.0611 0.1413
C7 C 0.0284(2) 0.12497(18) 0.32471(16)
H10 H -0.047(2) 0.142(2) 0.3301(16)
C8 C 0.0555(2) 0.11905(18) 0.39943(16)
C9 C -0.0116(2) 0.13447(19) 0.48182(16)
H11 H -0.082(3) 0.148(2) 0.496(2)
C10 C 0.0515(2) 0.12137(18) 0.53550(16)
C11 C 0.1656(2) 0.09744(18) 0.49075(15)
C12 C 0.0304(2) 0.12412(19) 0.62354(17)
H12 H -0.0421 0.1394 0.6651
C13 C 0.1260(2) 0.10234(19) 0.64040(17)
C14 C 0.1435(2) 0.1022(2) 0.71919(18)
H13 H 0.0816 0.1173 0.7699
C15 C 0.2644(2) 0.0959(2) 0.79566(17)
H14 H 0.3001 0.0304 0.8118
H15 H 0.1936 0.1185 0.8423
C16 C 0.3428(2) 0.17917(18) 0.77478(15)
C17 C 0.4590(2) 0.15167(18) 0.73179(16)
C18 C 0.5083(2) 0.03800(19) 0.7151(2)
H16 H 0.4490 -0.0024 0.7139
H17 H 0.5687 0.0324 0.6593
C19 C 0.5530(3) -0.0072(3) 0.7760(3)
H18 H 0.6089 0.0345 0.7799
H19 H 0.5885 -0.0780 0.7592
H20 H 0.4922 -0.0088 0.8305
C20 C 0.5296(2) 0.23002(18) 0.70303(15)
C21 C 0.6520(2) 0.20149(18) 0.64613(15)
H21 H 0.6976 0.2514 0.6560
H22 H 0.6789 0.1318 0.6624
C22 C 0.5889(2) 0.2301(2) 0.53338(16)
H23 H 0.5194 0.2511 0.5768
C23 C 0.5890(2) 0.2348(2) 0.44874(16)
C24 C 0.4960(2) 0.2718(2) 0.43062(18)
H24 H 0.4268 0.2995 0.4715
C25 C 0.5132(2) 0.2647(2) 0.34517(17)
C26 C 0.6222(2) 0.22336(18) 0.29866(15)
C27 C 0.4475(2) 0.2857(2) 0.29435(17)
H25 H 0.3707 0.3139 0.3151
C28 C 0.5057(2) 0.26111(19) 0.21297(16)
C29 C 0.4572(2) 0.27078(19) 0.14867(16)
H26 H 0.3792 0.2939 0.1652
C30 C 0.4481(2) 0.2636(2) 0.01392(16)
H27 H 0.4671 0.2004 -0.0208
H28 H 0.4730 0.3226 -0.0241
C31 C 0.32104(19) 0.28276(19) 0.05740(14)
C32 C 0.2674(2) 0.38467(18) 0.07635(14)
C33 C 0.3337(2) 0.47689(19) 0.05050(15)
H29 H 0.4118 0.4548 0.0470
H30 H 0.3003 0.5314 0.0938
C34 C 0.3353(2) 0.5223(2) -0.03345(16)
H31 H 0.3713 0.4695 -0.0770
H32 H 0.3775 0.5823 -0.0469
H33 H 0.2582 0.5441 -0.0303
C35 C 0.15081(19) 0.40125(17) 0.12055(13)
C36 C 0.08915(19) 0.31684(18) 0.14894(14)
C37 C -0.03641(19) 0.33524(19) 0.19551(15)
H34 H -0.0564 0.4039 0.2231
H35 H -0.0589 0.2817 0.2395
C38 C -0.0998(2) 0.3315(2) 0.13671(18)
H36 H -0.0821 0.3879 0.0958
H37 H -0.1807 0.3393 0.1689
H38 H -0.0775 0.2647 0.1076
C39 C 0.0944(2) 0.51099(18) 0.14667(14)
H39 H 0.1325 0.5599 0.1027
H40 H 0.0156 0.5159 0.1502
C40 C 0.10263(19) 0.47321(18) 0.28045(14)
H41 H 0.1011 0.4040 0.2661
C41 C 0.11307(19) 0.48871(17) 0.35990(14)
C42 C 0.1358(2) 0.40962(18) 0.40849(14)
H42 H 0.134(3) 0.338(3) 0.395(2)
C43 C 0.15971(19) 0.44467(17) 0.47608(14)
C44 C 0.15169(19) 0.55308(17) 0.47746(14)
C45 C 0.1956(2) 0.39852(18) 0.54022(15)
H43 H 0.201(2) 0.319(2) 0.5481(18)
C46 C 0.21524(19) 0.46966(17) 0.58706(14)
C47 C 0.26038(19) 0.44461(18) 0.65263(14)
H44 H 0.2798 0.3734 0.6628
C48 C 0.3190(2) 0.47478(18) 0.76378(15)
H45 H 0.2568 0.4858 0.8184
H46 H 0.3769 0.5184 0.7627
C49 C 0.3695(2) 0.36193(17) 0.75835(14)
C50 C 0.4850(2) 0.33536(17) 0.71582(14)
C51 C 0.5621(2) 0.41942(18) 0.68395(16)
H47 H 0.5206 0.4818 0.6687
H48 H 0.6261 0.3945 0.6332
C52 C 0.6064(2) 0.4482(2) 0.75079(18)
H49 H 0.6560 0.5022 0.7288
H50 H 0.6484 0.3866 0.7654
H51 H 0.5432 0.4740 0.8007
C53 C 0.29826(19) 0.28458(19) 0.78788(14)
C54 C 0.1729(2) 0.3147(2) 0.83076(15)
H52 H 0.1325 0.2633 0.8165
H53 H 0.1513 0.3832 0.8094
C55 C 0.1367(2) 0.3203(2) 0.92550(16)
H54 H 0.1767 0.3708 0.9400
H55 H 0.1544 0.2518 0.9474
H56 H 0.0557 0.3419 0.9500
Cl1 Cl -0.1359(2) 0.2051(2) 0.93027(15)
Cl2 Cl -0.2474(2) 0.15927(14) 0.82047(13)
C1 C -0.2239(5) 0.2377(5) 0.8787(4)
H1 H -0.2977 0.2627 0.9212
H2 H -0.1972 0.2984 0.8434
H57? H 0.5822 0.0301 0.7213
H58? H 0.4594 -0.0036 0.7601
C56? C 0.5227(6) -0.0046(6) 0.6438(5)
H59? H 0.4498 -0.0040 0.6380
H60? H 0.5580 -0.0764 0.6423
H61? H 0.5710 0.0347 0.5977
H62? H -0.0451 0.1360 0.8696
H63? H -0.1670 0.1652 0.9391
C57? C -0.1032(6) 0.1108(4) 0.9189(4)
H64? H -0.1281 0.0492 0.9040
O1? O 0.0096(12) -0.0176(10) 0.9730(8)
C58? C -0.0552(8) 0.0827(8) 0.9877(5)
H65? H -0.0072 0.1354 0.9893
H66? H -0.1174 0.0829 1.0425
loop_
_geom_bond_atom_site_label_1
_geom_bond_atom_site_label_2
_geom_bond_site_symmetry_1
_geom_bond_site_symmetry_2
Cl1 C1 1_555 1_555
Cl2 C1 1_555 1_555
C1 H1 1_555 1_555
H2 C1 1_555 1_555
S1 C26 1_555 1_555
S2 C23 1_555 1_555
S3 C8 1_555 1_555
S4 C11 1_555 1_555
S5 C41 1_555 1_555
S6 C44 1_555 1_555
N1 C39 1_555 1_555
N2 C6 1_555 1_555
N3 C29 1_555 1_555
N4 C21 1_555 1_555
N5 C47 1_555 1_555
N6 C14 1_555 1_555
C2 H3 1_555 1_555
H4 C2 1_555 1_555
H5 C2 1_555 1_555
C3 C2 1_555 1_555
H6 C3 1_555 1_555
H7 C3 1_555 1_555
C4 C3 1_555 1_555
C5 C4 1_555 1_555
C6 C5 1_555 1_555
H8 C6 1_555 1_555
H9 C6 1_555 1_555
C7 N2 1_555 1_555
H10 C7 1_555 1_555
C8 C7 1_555 1_555
C9 C8 1_555 1_555
H11 C9 1_555 1_555
C10 C9 1_555 1_555
C11 S3 1_555 1_555
C12 C10 1_555 1_555
H12 C12 1_555 1_555
C13 S4 1_555 1_555
C14 C13 1_555 1_555
H13 C14 1_555 1_555
C15 N6 1_555 1_555
H14 C15 1_555 1_555
H15 C15 1_555 1_555
C16 C15 1_555 1_555
C17 C16 1_555 1_555
C18 C17 1_555 1_555
H16 C18 1_555 1_555
H17 C18 1_555 1_555
C19 C18 1_555 1_555
H18 C19 1_555 1_555
H19 C19 1_555 1_555
H20 C19 1_555 1_555
C20 C17 1_555 1_555
C21 C20 1_555 1_555
H21 C21 1_555 1_555
H22 C21 1_555 1_555
C22 N4 1_555 1_555
H23 C22 1_555 1_555
C23 C22 1_555 1_555
C24 C23 1_555 1_555
H24 C24 1_555 1_555
C25 C24 1_555 1_555
C26 S2 1_555 1_555
C27 C25 1_555 1_555
H25 C27 1_555 1_555
C28 S1 1_555 1_555
C29 C28 1_555 1_555
H26 C29 1_555 1_555
C30 N3 1_555 1_555
H27 C30 1_555 1_555
H28 C30 1_555 1_555
C31 C4 1_555 1_555
C32 C31 1_555 1_555
C33 C32 1_555 1_555
H29 C33 1_555 1_555
H30 C33 1_555 1_555
C34 C33 1_555 1_555
H31 C34 1_555 1_555
H32 C34 1_555 1_555
H33 C34 1_555 1_555
C35 C32 1_555 1_555
C36 C5 1_555 1_555
C37 C36 1_555 1_555
H34 C37 1_555 1_555
H35 C37 1_555 1_555
C38 C37 1_555 1_555
H36 C38 1_555 1_555
H37 C38 1_555 1_555
H38 C38 1_555 1_555
C39 C35 1_555 1_555
H39 C39 1_555 1_555
H40 C39 1_555 1_555
C40 N1 1_555 1_555
H41 C40 1_555 1_555
C41 C40 1_555 1_555
C42 C41 1_555 1_555
H42 C42 1_555 1_555
C43 C42 1_555 1_555
C44 S5 1_555 1_555
C45 C43 1_555 1_555
H43 C45 1_555 1_555
C46 S6 1_555 1_555
C47 C46 1_555 1_555
H44 C47 1_555 1_555
C48 N5 1_555 1_555
H45 C48 1_555 1_555
H46 C48 1_555 1_555
C49 C48 1_555 1_555
C50 C20 1_555 1_555
C51 C50 1_555 1_555
H47 C51 1_555 1_555
H48 C51 1_555 1_555
C52 C51 1_555 1_555
H49 C52 1_555 1_555
H50 C52 1_555 1_555
H51 C52 1_555 1_555
C53 C16 1_555 1_555
C54 C53 1_555 1_555
H52 C54 1_555 1_555
H53 C54 1_555 1_555
C55 C54 1_555 1_555
H54 C55 1_555 1_555
H55 C55 1_555 1_555
H56 C55 1_555 1_555
C10 C11 1_555 1_555
C12 C13 1_555 1_555
C25 C26 1_555 1_555
C27 C28 1_555 1_555
C30 C31 1_555 1_555
C35 C36 1_555 1_555
C43 C44 1_555 1_555
C45 C46 1_555 1_555
C49 C50 1_555 1_555
C49 C53 1_555 1_555

#END
