
#######################################################################
#
#                 Cambridge Crystallographic Data Centre
#                                CCDC 
#
#######################################################################
#
# If this CIF has been generated from an entry in the Cambridge 
# Structural Database, then it will include bibliographic, chemical, 
# crystal, experimental, refinement or atomic coordinate data resulting 
# from the CCDC's data processing and validation procedures.
#
#######################################################################

data_PIFJIA
_chemical_formula_moiety         'C78 H72 N6,2(C4 H8 O1)'
_chemical_name_systematic        
'2,19,21,38,59,66-hexaethyl-5,16,24,35,40,51-hexa-azatridecacyclo[18.18.14.6^7,14^.6^26,33^.6^42,49^.1^3,37^.1^18,22^.0^8,13^.0^27,32^.0^43,48^.0^53,58^.0^60,65^.0^67,72^]doheptaconta-1,3(59),5,7,9,11,13,15,18(66),19,21,24,26,28,30,32,34,37,40,42,44,46,48,50,53(58),54,56,60(65),61,63,67,69,71-tritriacontaene tetrahydrofuran solvate'
_symmetry_cell_setting           triclinic
_symmetry_space_group_name_H-M   'P -1'
_symmetry_Int_Tables_number      2
_space_group_name_Hall           '-P 1'
loop_
_symmetry_equiv_pos_site_id
_symmetry_equiv_pos_as_xyz
1 x,y,z
2 -x,-y,-z
_cell_length_a                   13.2233(10)
_cell_length_b                   13.3938(10)
_cell_length_c                   19.8291(16)
_cell_angle_alpha                75.682(3)
_cell_angle_beta                 81.032(3)
_cell_angle_gamma                72.388(3)
_cell_volume                     3230.83
_exptl_crystal_colour            colorless
_exptl_crystal_description       block
_cell_formula_units_Z            2
loop_
_atom_site_label
_atom_site_type_symbol
_atom_site_fract_x
_atom_site_fract_y
_atom_site_fract_z
N1 N 0.9291(2) 0.5695(2) 0.07863(16)
N2 N 0.9446(2) 0.5884(2) 0.36309(15)
N3 N 1.1145(2) 0.8807(2) 0.16644(15)
N4 N 0.5649(2) 1.2667(2) 0.18141(17)
C1 C 0.3385(2) 1.0917(3) 0.32347(18)
C2 C 0.3152(2) 1.0455(3) 0.27364(18)
C3 C 0.3267(2) 1.0930(3) 0.20191(18)
C4 C 0.3670(2) 1.1822(3) 0.18044(18)
C5 C 0.3935(2) 1.2261(3) 0.23068(18)
C6 C 0.3783(2) 1.1821(3) 0.30211(18)
C7 C 0.3303(3) 1.0367(3) 0.40035(19)
H1 H 0.3041 1.0947 0.4267
H2 H 0.2727 1.0013 0.4065
C8 C 0.2739(3) 0.9468(3) 0.29664(19)
H3 H 0.3050 0.9018 0.3402
H4 H 0.2958 0.9038 0.2601
C9 C 0.1522(3) 0.9808(3) 0.3092(2)
H5 H 0.1215 1.0212 0.2652
H6 H 0.1307 1.0260 0.3438
H7 H 0.1264 0.9169 0.3265
C10 C 0.3039(3) 1.0397(3) 0.14890(19)
H8 H 0.2943 1.0893 0.1027
H9 H 0.2397 1.0139 0.1647
C11 C 0.3814(3) 1.2337(3) 0.10360(18)
H10 H 0.3935 1.1793 0.0751
H11 H 0.4446 1.2616 0.0948
C12 C 0.2825(3) 1.3255(3) 0.08219(19)
H12 H 0.2950 1.3616 0.0335
H13 H 0.2679 1.3769 0.1125
H14 H 0.2213 1.2967 0.0868
C13 C 0.4519(3) 1.3130(3) 0.20496(19)
H15 H 0.4161 1.3669 0.1658
H16 H 0.4486 1.3497 0.2432
C14 C 0.4010(3) 1.2333(3) 0.35647(19)
H17 H 0.4198 1.1782 0.3996
H18 H 0.4625 1.2629 0.3385
C15 C 0.3051(3) 1.3220(3) 0.3734(2)
H19 H 0.2828 1.3734 0.3301
H20 H 0.3237 1.3588 0.4047
H21 H 0.2467 1.2915 0.3962
C16 C 0.6121(3) 0.8696(3) 0.4274(2)
C17 C 0.7019(3) 0.9099(3) 0.40848(19)
C18 C 0.8065(3) 0.8379(3) 0.40172(17)
C19 C 0.8193(3) 0.7261(3) 0.41623(17)
C20 C 0.7309(3) 0.6857(3) 0.44213(17)
C21 C 0.6261(3) 0.7587(3) 0.44762(19)
C22 C 0.6912(3) 1.0224(3) 0.3933(2)
H22 H 0.6227 1.0708 0.3988
C23 C 0.7765(3) 1.0617(3) 0.3711(2)
H23 H 0.7675 1.1368 0.3620
C24 C 0.8789(3) 0.9910(3) 0.3616(2)
H24 H 0.9382 1.0190 0.3443
C25 C 0.8931(3) 0.8834(3) 0.37709(19)
H25 H 0.9628 0.8372 0.3713
C26 C 0.7427(3) 0.5727(3) 0.46466(19)
H26 H 0.8110 0.5232 0.4606
C27 C 0.6564(3) 0.5362(3) 0.4917(2)
H27 H 0.6653 0.4613 0.5072
C28 C 0.5536(3) 0.6077(3) 0.4973(2)
H28 H 0.4945 0.5803 0.5166
C29 C 0.5383(3) 0.7146(3) 0.4754(2)
H29 H 0.4683 0.7613 0.4785
C30 C 0.9275(3) 0.6538(3) 0.40248(18)
H30 H 0.9854 0.6571 0.4241
C31 C 0.6135(3) 1.1811(3) 0.2172(2)
H31 H 0.5769 1.1566 0.2603
C32 C 0.7472(3) 0.7804(3) 0.25023(19)
H32 H 0.7536 0.7057 0.2640
C33 C 0.6468(3) 0.8537(3) 0.2529(3)
H33 H 0.5849 0.8291 0.2664
C34 C 0.6379(3) 0.9605(3) 0.2363(2)
H34 H 0.5690 1.0096 0.2386
C35 C 0.7287(3) 1.0014(3) 0.21535(18)
C36 C 0.8305(2) 0.9257(3) 0.20682(17)
C37 C 0.8356(3) 0.8146(3) 0.22819(18)
H35 H 0.9030 0.7630 0.2269
C38 C 0.7208(3) 1.1118(3) 0.20168(18)
C39 C 0.8115(3) 1.1488(3) 0.17682(17)
C40 C 0.9121(3) 1.0741(3) 0.16318(16)
C41 C 0.9206(2) 0.9633(3) 0.17905(17)
C42 C 0.8068(3) 1.2595(3) 0.16394(19)
H36 H 0.7420 1.3095 0.1754
C43 C 0.8933(3) 1.2949(3) 0.1355(2)
H37 H 0.8881 1.3692 0.1270
C44 C 0.9906(3) 1.2224(3) 0.11866(19)
H38 H 1.0499 1.2484 0.0973
C45 C 1.0003(3) 1.1159(3) 0.13263(18)
H39 H 1.0670 1.0680 0.1219
C46 C 1.0194(3) 0.8807(3) 0.16404(17)
H40 H 1.0104 0.8204 0.1510
C47 C 0.7399(3) 1.0641(3) 0.03031(18)
H41 H 0.7325 1.1388 0.0219
C48 C 0.6534(3) 1.0267(3) 0.05219(19)
H42 H 0.5857 1.0763 0.0580
C49 C 0.6609(3) 0.9150(3) 0.06687(18)
C50 C 0.7645(2) 0.8416(3) 0.06011(16)
C51 C 0.8524(3) 0.8848(3) 0.03499(17)
H43 H 0.9212 0.8375 0.0284
C52 C 0.8401(3) 0.9928(3) 0.02011(18)
H44 H 0.9000 1.0196 0.0027
C53 C 0.5711(3) 0.8757(3) 0.0887(2)
C54 C 0.5819(3) 0.7650(3) 0.10050(18)
C55 C 0.6862(2) 0.6907(3) 0.09574(16)
C56 C 0.7768(2) 0.7298(3) 0.07904(16)
C57 C 0.4912(3) 0.7231(3) 0.1165(2)
H45 H 0.4219 0.7712 0.1195
C58 C 0.5021(3) 0.6165(3) 0.1275(2)
H46 H 0.4406 0.5909 0.1382
C59 C 0.6045(3) 0.5429(3) 0.12324(19)
H47 H 0.6113 0.4685 0.1301
C60 C 0.6932(3) 0.5787(3) 0.10931(18)
H48 H 0.7613 0.5281 0.1086
C61 C 0.8867(3) 0.6605(3) 0.09078(18)
H49 H 0.9301 0.6894 0.1101
C62 C 1.1414(2) 0.6426(2) 0.24825(17)
C63 C 1.1611(2) 0.6815(2) 0.17641(17)
C64 C 1.1310(2) 0.6398(2) 0.12683(17)
C65 C 1.0801(2) 0.5563(2) 0.15023(17)
C66 C 1.0576(2) 0.5195(2) 0.22211(17)
C67 C 1.0890(2) 0.5615(2) 0.27106(17)
C68 C 1.0567(3) 0.5267(3) 0.34874(17)
H50 H 1.0631 0.4489 0.3608
H51 H 1.1037 0.5412 0.3772
C69 C 1.1758(3) 0.6902(3) 0.29968(18)
H52 H 1.1287 0.6838 0.3436
H53 H 1.1681 0.7674 0.2801
C70 C 1.2917(3) 0.6341(3) 0.3160(2)
H54 H 1.3386 0.6396 0.2726
H55 H 1.2989 0.5584 0.3375
H56 H 1.3116 0.6685 0.3482
C71 C 1.1503(2) 0.6846(3) 0.04949(17)
H57 H 1.1359 0.7634 0.0415
H58 H 1.1000 0.6695 0.0239
C72 C 1.2641(3) 0.6372(3) 0.02033(19)
H59 H 1.2735 0.6709 -0.0292
H60 H 1.2773 0.5598 0.0253
H61 H 1.3144 0.6505 0.0462
C73 C 1.0404(2) 0.5145(2) 0.09772(18)
H62 H 1.0889 0.5195 0.0544
H63 H 1.0459 0.4376 0.1167
C74 C 0.9984(3) 0.4342(3) 0.24699(18)
H64 H 0.9488 0.4428 0.2121
H65 H 0.9553 0.4457 0.2913
C75 C 1.0713(3) 0.3200(3) 0.2585(2)
H66 H 1.1148 0.3079 0.2150
H67 H 1.0281 0.2691 0.2730
H68 H 1.1179 0.3094 0.2951
C76 C 1.1988(2) 0.7827(2) 0.15466(18)
H69 H 1.2597 0.7732 0.1813
H70 H 1.2244 0.7926 0.1045
N5 N 0.4053(7) 0.9455(5) 0.1462(4)
N6 N 0.4149(5) 0.9610(6) 0.4354(4)
C77 C 0.5069(8) 0.9510(6) 0.3987(5)
H71 H 0.5104 0.9945 0.3531
C78 C 0.4651(6) 0.9525(5) 0.0903(4)
H72 H 0.4422 1.0061 0.0502
C81 C 0.7188(3) 0.4957(3) 0.3046(2)
H79 H 0.7499 0.5125 0.2558
H80 H 0.7574 0.5168 0.3352
C82 C 0.5966(3) 0.5552(4) 0.3110(2)
H81 H 0.5747 0.5854 0.3535
H82 H 0.5747 0.6121 0.2692
C83 C 0.5552(4) 0.4577(4) 0.3161(3)
H83 H 0.5422 0.4529 0.2693
H84 H 0.4881 0.4626 0.3468
O1 O 0.6453(10) 0.3580(8) 0.3476(7)
C84 C 0.7250(16) 0.3756(14) 0.3278(10)
H85 H 0.7561 0.3409 0.2878
H86 H 0.7739 0.3428 0.3652
O3 O 0.8801(3) 0.3019(2) 0.51361(16)
C86 C 0.9556(4) 0.2879(4) 0.4548(2)
H93 H 1.0246 0.2941 0.4642
H94 H 0.9301 0.3439 0.4133
C87 C 0.9691(5) 0.1795(4) 0.4416(3)
H95 H 1.0444 0.1363 0.4433
H96 H 0.9455 0.1851 0.3955
C88 C 0.8985(4) 0.1300(4) 0.5006(2)
H97 H 0.8627 0.0867 0.4840
H98 H 0.9402 0.0844 0.5400
C89 C 0.8198(3) 0.2263(4) 0.5215(2)
H99 H 0.7607 0.2552 0.4908
H100 H 0.7900 0.2084 0.5705
H73? H 0.2667 1.0094 0.4130
H74? H 0.3287 1.0852 0.4311
H75? H 0.2479 1.0046 0.1721
H76? H 0.2709 1.0986 0.1109
N7? N 0.3811(8) 0.9640(8) 0.1159(6)
N8? N 0.4397(8) 0.9394(6) 0.4038(4)
C79? C 0.5093(7) 0.9423(7) 0.4363(6)
H77? H 0.4958 0.9910 0.4664
C80? C 0.4750(10) 0.9540(7) 0.1268(7)
H78? H 0.4889 0.9923 0.1571
H87? H 0.7441 0.4890 0.2558
H88? H 0.7608 0.5346 0.3200
H89? H 0.5021 0.4532 0.3570
H90? H 0.5184 0.4691 0.2738
O2? O 0.7280(9) 0.3858(9) 0.3525(7)
C85? C 0.6305(17) 0.3649(16) 0.3220(14)
H91? H 0.6534 0.3450 0.2760
H92? H 0.6046 0.3069 0.3545
loop_
_geom_bond_atom_site_label_1
_geom_bond_atom_site_label_2
_geom_bond_site_symmetry_1
_geom_bond_site_symmetry_2
N1 C61 1_555 1_555
N2 C30 1_555 1_555
N3 C46 1_555 1_555
N4 C13 1_555 1_555
C1 C2 1_555 1_555
C2 C3 1_555 1_555
C3 C4 1_555 1_555
C4 C5 1_555 1_555
C5 C6 1_555 1_555
C6 C1 1_555 1_555
C7 C1 1_555 1_555
H1 C7 1_555 1_555
H2 C7 1_555 1_555
C8 C2 1_555 1_555
H3 C8 1_555 1_555
H4 C8 1_555 1_555
C9 C8 1_555 1_555
H5 C9 1_555 1_555
H6 C9 1_555 1_555
H7 C9 1_555 1_555
C10 C3 1_555 1_555
H8 C10 1_555 1_555
H9 C10 1_555 1_555
C11 C4 1_555 1_555
H10 C11 1_555 1_555
H11 C11 1_555 1_555
C12 C11 1_555 1_555
H12 C12 1_555 1_555
H13 C12 1_555 1_555
H14 C12 1_555 1_555
C13 C5 1_555 1_555
H15 C13 1_555 1_555
H16 C13 1_555 1_555
C14 C6 1_555 1_555
H17 C14 1_555 1_555
H18 C14 1_555 1_555
C15 C14 1_555 1_555
H19 C15 1_555 1_555
H20 C15 1_555 1_555
H21 C15 1_555 1_555
C16 C17 1_555 1_555
C17 C18 1_555 1_555
C18 C19 1_555 1_555
C19 C20 1_555 1_555
C20 C21 1_555 1_555
C21 C16 1_555 1_555
C22 C17 1_555 1_555
H22 C22 1_555 1_555
C23 C22 1_555 1_555
H23 C23 1_555 1_555
C24 C23 1_555 1_555
H24 C24 1_555 1_555
C25 C18 1_555 1_555
H25 C25 1_555 1_555
C26 C20 1_555 1_555
H26 C26 1_555 1_555
C27 C26 1_555 1_555
H27 C27 1_555 1_555
C28 C27 1_555 1_555
H28 C28 1_555 1_555
C29 C21 1_555 1_555
H29 C29 1_555 1_555
C30 C19 1_555 1_555
H30 C30 1_555 1_555
C31 N4 1_555 1_555
H31 C31 1_555 1_555
C32 H32 1_555 1_555
C33 C32 1_555 1_555
H33 C33 1_555 1_555
C34 C33 1_555 1_555
H34 C34 1_555 1_555
C35 C34 1_555 1_555
C36 C35 1_555 1_555
C37 C32 1_555 1_555
H35 C37 1_555 1_555
C38 C31 1_555 1_555
C39 C38 1_555 1_555
C40 C39 1_555 1_555
C41 C36 1_555 1_555
C42 C39 1_555 1_555
H36 C42 1_555 1_555
C43 C42 1_555 1_555
H37 C43 1_555 1_555
C44 C43 1_555 1_555
H38 C44 1_555 1_555
C45 C40 1_555 1_555
H39 C45 1_555 1_555
C46 C41 1_555 1_555
H40 C46 1_555 1_555
C47 H41 1_555 1_555
C48 C47 1_555 1_555
H42 C48 1_555 1_555
C49 C48 1_555 1_555
C50 C49 1_555 1_555
C51 C50 1_555 1_555
H43 C51 1_555 1_555
C52 C47 1_555 1_555
H44 C52 1_555 1_555
C53 C49 1_555 1_555
C54 C53 1_555 1_555
C55 C54 1_555 1_555
C56 C50 1_555 1_555
C57 C54 1_555 1_555
H45 C57 1_555 1_555
C58 C57 1_555 1_555
H46 C58 1_555 1_555
C59 C58 1_555 1_555
H47 C59 1_555 1_555
C60 C55 1_555 1_555
H48 C60 1_555 1_555
C61 C56 1_555 1_555
H49 C61 1_555 1_555
C62 C63 1_555 1_555
C63 C64 1_555 1_555
C64 C65 1_555 1_555
C65 C66 1_555 1_555
C66 C67 1_555 1_555
C67 C62 1_555 1_555
C68 N2 1_555 1_555
H50 C68 1_555 1_555
H51 C68 1_555 1_555
C69 C62 1_555 1_555
H52 C69 1_555 1_555
H53 C69 1_555 1_555
C70 C69 1_555 1_555
H54 C70 1_555 1_555
H55 C70 1_555 1_555
H56 C70 1_555 1_555
C71 C64 1_555 1_555
H57 C71 1_555 1_555
H58 C71 1_555 1_555
C72 C71 1_555 1_555
H59 C72 1_555 1_555
H60 C72 1_555 1_555
H61 C72 1_555 1_555
C73 N1 1_555 1_555
H62 C73 1_555 1_555
H63 C73 1_555 1_555
C74 C66 1_555 1_555
H64 C74 1_555 1_555
H65 C74 1_555 1_555
C75 C74 1_555 1_555
H66 C75 1_555 1_555
H67 C75 1_555 1_555
H68 C75 1_555 1_555
C76 N3 1_555 1_555
H69 C76 1_555 1_555
H70 C76 1_555 1_555
N5 C10 1_555 1_555
N6 C7 1_555 1_555
C77 C16 1_555 1_555
H71 C77 1_555 1_555
C78 C53 1_555 1_555
H72 C78 1_555 1_555
C81 H79 1_555 1_555
H80 C81 1_555 1_555
C82 C81 1_555 1_555
H81 C82 1_555 1_555
H82 C82 1_555 1_555
C83 C82 1_555 1_555
H83 C83 1_555 1_555
H84 C83 1_555 1_555
O1 C83 1_555 1_555
C84 C81 1_555 1_555
H85 C84 1_555 1_555
H86 C84 1_555 1_555
O3 C86 1_555 1_555
C86 H93 1_555 1_555
H94 C86 1_555 1_555
C87 C86 1_555 1_555
H95 C87 1_555 1_555
H96 C87 1_555 1_555
C88 C87 1_555 1_555
H97 C88 1_555 1_555
H98 C88 1_555 1_555
C89 O3 1_555 1_555
H99 C89 1_555 1_555
H100 C89 1_555 1_555
C24 C25 1_555 1_555
C28 C29 1_555 1_555
C35 C38 1_555 1_555
C36 C37 1_555 1_555
C40 C41 1_555 1_555
C44 C45 1_555 1_555
C51 C52 1_555 1_555
C55 C56 1_555 1_555
C59 C60 1_555 1_555
C63 C76 1_555 1_555
C65 C73 1_555 1_555
C67 C68 1_555 1_555
N5 C78 1_555 1_555
N6 C77 1_555 1_555
O1 C84 1_555 1_555
C88 C89 1_555 1_555

#END
