
#######################################################################
#
#                 Cambridge Crystallographic Data Centre
#                                CCDC 
#
#######################################################################
#
# If this CIF has been generated from an entry in the Cambridge 
# Structural Database, then it will include bibliographic, chemical, 
# crystal, experimental, refinement or atomic coordinate data resulting 
# from the CCDC's data processing and validation procedures.
#
#######################################################################

data_PIFJUK
_chemical_formula_moiety         'C19 H18 B1 Br1 F2 N2'
_chemical_name_systematic        
8-(4-Bromophenyl)-4,4-difluoro-1,3,5,7-tetramethyl-4-bora-3a,4a-diaza-s-indacene
_symmetry_cell_setting           monoclinic
_symmetry_space_group_name_H-M   'P 21/c'
_symmetry_Int_Tables_number      14
_space_group_name_Hall           '-P 2ybc'
loop_
_symmetry_equiv_pos_site_id
_symmetry_equiv_pos_as_xyz
1 x,y,z
2 -x,1/2+y,1/2-z
3 -x,-y,-z
4 x,1/2-y,1/2+z
_cell_length_a                   11.9874(12)
_cell_length_b                   8.2874(7)
_cell_length_c                   17.7140(15)
_cell_angle_alpha                90
_cell_angle_beta                 91.049(7)
_cell_angle_gamma                90
_cell_volume                     1759.49
_exptl_crystal_colour            'dark red'
_exptl_crystal_description       block
_chemical_melting_point          '440-441 K'
_cell_formula_units_Z            4
_exptl_crystal_recrystallization_method chloroform/hexane
loop_
_atom_site_label
_atom_site_type_symbol
_atom_site_fract_x
_atom_site_fract_y
_atom_site_fract_z
Br1 Br -0.03359(4) 0.71112(6) 0.04766(2)
C1 C 0.2385(2) 0.2985(4) 0.27304(17)
C2 C 0.2716(2) 0.3598(4) 0.34286(17)
C3 C 0.0493(3) 0.5822(4) 0.11723(18)
C4 C 0.1705(2) 0.4002(4) 0.21984(17)
C5 C 0.2712(2) 0.1449(4) 0.24924(17)
C6 C 0.2476(3) 0.0557(4) 0.18261(18)
C7 C 0.0560(3) 0.4146(4) 0.22579(19)
H1 H 0.0197 0.3622 0.2647
C8 C 0.3683(3) -0.0835(4) 0.25676(19)
C9 C -0.0048(3) 0.5057(4) 0.17462(19)
H2 H -0.0817 0.5151 0.1790
C10 C 0.2232(3) 0.4766(4) 0.16093(18)
H3 H 0.3000 0.4665 0.1560
C11 C 0.3057(3) 0.5012(4) 0.44785(19)
H4 H 0.3077 0.5825 0.4840
C12 C 0.4453(3) -0.2100(5) 0.2867(2)
H5 H 0.4735 -0.1781 0.3356
H6 H 0.5064 -0.2232 0.2530
H7 H 0.4057 -0.3102 0.2910
C13 C 0.3098(3) -0.0832(4) 0.18801(19)
H8 H 0.3125 -0.1640 0.1517
C14 C 0.3586(3) 0.3521(5) 0.45480(19)
C15 C 0.1626(3) 0.5677(4) 0.10936(19)
H9 H 0.1981 0.6187 0.0697
C16 C 0.2501(3) 0.5096(4) 0.37948(18)
C17 C 0.1662(3) 0.0949(5) 0.1197(2)
H10 H 0.1691 0.0123 0.0818
H11 H 0.1852 0.1969 0.0978
H12 H 0.0921 0.1004 0.1393
C18 C 0.4261(4) 0.2875(5) 0.5194(2)
H13 H 0.4518 0.1810 0.5074
H14 H 0.3809 0.2830 0.5635
H15 H 0.4890 0.3567 0.5288
C19 C 0.1810(3) 0.6495(4) 0.3533(2)
H16 H 0.1827 0.7324 0.3911
H17 H 0.1054 0.6148 0.3446
H18 H 0.2105 0.6913 0.3072
N1 N 0.3388(2) 0.2661(3) 0.39129(14)
F1 F 0.50032(16) 0.0954(3) 0.37912(12)
F2 F 0.3431(2) -0.0139(3) 0.42586(11)
N2 N 0.3444(2) 0.0526(3) 0.29409(14)
B1 B 0.3845(3) 0.0952(5) 0.3751(2)
loop_
_geom_bond_atom_site_label_1
_geom_bond_atom_site_label_2
_geom_bond_site_symmetry_1
_geom_bond_site_symmetry_2
Br1 C3 1_555 1_555
C1 C2 1_555 1_555
C2 C16 1_555 1_555
C3 C9 1_555 1_555
C4 C1 1_555 1_555
C5 C1 1_555 1_555
C6 C5 1_555 1_555
C7 C4 1_555 1_555
H1 C7 1_555 1_555
C8 C12 1_555 1_555
C9 C7 1_555 1_555
H2 C9 1_555 1_555
C10 C4 1_555 1_555
H3 C10 1_555 1_555
C11 H4 1_555 1_555
C12 H5 1_555 1_555
H6 C12 1_555 1_555
H7 C12 1_555 1_555
C13 C6 1_555 1_555
H8 C13 1_555 1_555
C14 C11 1_555 1_555
C15 C3 1_555 1_555
H9 C15 1_555 1_555
C16 C11 1_555 1_555
C17 C6 1_555 1_555
H10 C17 1_555 1_555
H11 C17 1_555 1_555
H12 C17 1_555 1_555
C18 C14 1_555 1_555
H13 C18 1_555 1_555
H14 C18 1_555 1_555
H15 C18 1_555 1_555
C19 C16 1_555 1_555
H16 C19 1_555 1_555
H17 C19 1_555 1_555
H18 C19 1_555 1_555
N1 C2 1_555 1_555
F1 B1 1_555 1_555
F2 B1 1_555 1_555
N2 C5 1_555 1_555
B1 N1 1_555 1_555
C8 C13 1_555 1_555
C8 N2 1_555 1_555
C10 C15 1_555 1_555
C14 N1 1_555 1_555
N2 B1 1_555 1_555

#END
