
#######################################################################
#
#                 Cambridge Crystallographic Data Centre
#                                CCDC 
#
#######################################################################
#
# If this CIF has been generated from an entry in the Cambridge 
# Structural Database, then it will include bibliographic, chemical, 
# crystal, experimental, refinement or atomic coordinate data resulting 
# from the CCDC's data processing and validation procedures.
#
#######################################################################

data_PIFJAS
_chemical_formula_moiety         'C54 H60 N6,C8 H10,0.25(C1 H2 Cl2),0.25(H2 O1)'
_chemical_name_systematic        
'2,16,18,32,45,47-hexaethyl-5,13,21,29,34,42-hexa-azaheptacyclo[15.15.11.1^3,31^.1^7,11^.1^15,19^.1^23,27^.1^36,40^]octatetraconta-1,3(45),5,7(48),8,10,12,15(47),16,18,21,23(46),24,26,28,31,34,36(44),37,39,41-henicosaene dichloromethane m-xylene solvate hydrate'
_symmetry_cell_setting           triclinic
_symmetry_space_group_name_H-M   'P -1'
_symmetry_Int_Tables_number      2
_space_group_name_Hall           '-P 1'
loop_
_symmetry_equiv_pos_site_id
_symmetry_equiv_pos_as_xyz
1 x,y,z
2 -x,-y,-z
_cell_length_a                   15.0024(6)
_cell_length_b                   15.2730(7)
_cell_length_c                   15.2779(6)
_cell_angle_alpha                60.8167(16)
_cell_angle_beta                 81.7670(16)
_cell_angle_gamma                76.8256(17)
_cell_volume                     2973.74
_exptl_crystal_colour            colorless
_exptl_crystal_description       block
_cell_formula_units_Z            2
loop_
_atom_site_label
_atom_site_type_symbol
_atom_site_fract_x
_atom_site_fract_y
_atom_site_fract_z
N1 N 0.2442(2) 0.8720(2) 0.4373(2)
N2 N 0.2493(2) 0.5887(2) 0.9094(2)
C1 C 0.3352(2) 0.4301(3) 0.6180(3)
H1 H 0.3659 0.4457 0.5516
H2 H 0.3752 0.3711 0.6688
N3 N -0.2438(2) 0.6813(2) 0.9344(2)
C2 C 0.3323(2) 0.5874(3) 0.7506(3)
C3 C -0.3269(2) 0.6497(3) 0.6655(3)
N4 N -0.2440(2) 0.4944(2) 0.6434(2)
C4 C -0.3267(2) 0.7147(3) 0.7823(3)
C5 C -0.3351(2) 0.9370(3) 0.5150(3)
H3 H -0.3762 0.9436 0.4660
H4 H -0.3648 0.9860 0.5398
N5 N 0.2491(2) 0.3977(2) 0.6211(2)
C6 C 0.3356(2) 0.5715(3) 0.8567(3)
H5 H 0.3668 0.5005 0.8983
H6 H 0.3748 0.6170 0.8540
C7 C 0.3293(2) 0.7015(3) 0.5708(3)
N6 N -0.2490(2) 0.9689(2) 0.4605(2)
C8 C 0.0806(2) 0.9125(3) 0.4338(3)
C9 C 0.3312(2) 0.8061(3) 0.4817(3)
H7 H 0.3620 0.8438 0.5021
H8 H 0.3705 0.7965 0.4280
C10 C 0.0857(2) 0.4186(3) 0.6309(3)
C11 C -0.0803(2) 0.4520(3) 0.6367(3)
C12 C 0.3310(2) 0.5209(3) 0.6354(3)
C13 C -0.3247(2) 0.6330(3) 0.7641(3)
C14 C -0.3238(2) 0.5262(3) 0.8512(3)
H9 H -0.2896 0.5177 0.9064
H10 H -0.2914 0.4756 0.8292
C15 C -0.1728(2) 0.9149(3) 0.4945(3)
H11 H -0.1712 0.8528 0.5556
C16 C -0.0857(2) 0.9454(3) 0.4421(3)
C17 C -0.3307(2) 0.5617(3) 0.6471(3)
H12 H -0.3710 0.5186 0.7005
H13 H -0.3607 0.5904 0.5827
C18 C -0.1679(2) 0.5185(3) 0.6404(3)
H14 H -0.1670 0.5804 0.6407
C19 C -0.3294(2) 0.8306(3) 0.6027(3)
C20 C 0.0023(2) 0.4800(3) 0.6341(3)
H15 H 0.0019 0.5421 0.6345
C21 C 0.3281(2) 0.6196(3) 0.5533(3)
C22 C -0.3274(2) 0.7481(3) 0.5844(3)
C23 C -0.3277(2) 0.8138(3) 0.7014(3)
C24 C 0.3307(2) 0.6868(3) 0.6686(3)
C25 C 0.0862(2) 0.6200(3) 0.9275(3)
C26 C 0.1684(2) 0.8466(3) 0.4792(3)
H16 H 0.1677 0.7849 0.5402
C27 C -0.3301(2) 0.6988(3) 0.8886(3)
H17 H -0.3700 0.7595 0.8901
H18 H -0.3606 0.6398 0.9322
C28 C 0.3213(2) 0.6370(3) 0.4477(3)
H19 H 0.2860 0.7063 0.4079
H20 H 0.2865 0.5876 0.4509
C29 C -0.0023(2) 0.8855(3) 0.4821(3)
H21 H -0.0019 0.8246 0.5441
C30 C 0.3315(2) 0.5047(3) 0.7343(3)
C31 C 0.1724(2) 0.4510(3) 0.6277(3)
H22 H 0.1707 0.5121 0.6305
C32 C 0.1732(2) 0.6041(3) 0.8739(3)
H23 H 0.1718 0.6055 0.8113
C33 C 0.3286(2) 0.3996(3) 0.8224(3)
H24 H 0.2954 0.3628 0.8032
H25 H 0.2936 0.4072 0.8791
C34 C -0.0803(2) 0.6488(3) 0.9371(3)
C35 C -0.1675(2) 0.6664(3) 0.8916(3)
H26 H -0.1663 0.6664 0.8293
C36 C 0.3288(2) 0.7760(3) 0.6872(3)
H27 H 0.2971 0.7626 0.7528
H28 H 0.2930 0.8381 0.6347
C37 C -0.3277(2) 0.7658(3) 0.4776(3)
H29 H -0.2918 0.7049 0.4734
H30 H -0.2974 0.8245 0.4321
C38 C 0.0030(2) 0.6348(3) 0.8872(3)
H31 H 0.0030 0.6353 0.8247
C39 C -0.3271(3) 0.9023(3) 0.7202(3)
H32 H -0.2941 0.9521 0.6634
H33 H -0.2935 0.8769 0.7817
C40 C 0.0797(3) 1.0018(3) 0.3422(3)
H34 H 0.1357 1.0212 0.3082
C41 C -0.0791(3) 0.3604(3) 0.6363(3)
H35 H -0.1351 0.3407 0.6375
C42 C 0.0856(3) 0.3269(3) 0.6318(3)
H36 H 0.1420 0.2839 0.6307
C43 C -0.0851(3) 1.0341(3) 0.3505(3)
H37 H -0.1415 1.0759 0.3218
C44 C 0.4238(3) 0.3352(3) 0.8575(3)
H38 H 0.4590 0.3272 0.8018
H39 H 0.4171 0.2678 0.9132
H40 H 0.4560 0.3693 0.8800
C45 C 0.4138(3) 0.6264(3) 0.3927(3)
H41 H 0.4034 0.6425 0.3241
H42 H 0.4473 0.5563 0.4283
H43 H 0.4496 0.6736 0.3906
C46 C -0.4247(3) 0.7869(3) 0.4426(3)
H44 H -0.4214 0.7975 0.3737
H45 H -0.4602 0.8481 0.4451
H46 H -0.4546 0.7285 0.4867
C47 C -0.4208(3) 0.5052(3) 0.8901(3)
H47 H -0.4550 0.5139 0.8355
H48 H -0.4522 0.5530 0.9149
H49 H -0.4171 0.4351 0.9449
C48 C -0.0794(3) 0.6478(4) 1.0289(3)
H50 H -0.1355 0.6578 1.0634
C49 C 0.4246(3) 0.7956(3) 0.6870(3)
H51 H 0.4554 0.8118 0.6212
H52 H 0.4604 0.7344 0.7389
H53 H 0.4193 0.8529 0.7007
C50 C 0.0854(3) 0.6189(4) 1.0193(3)
H54 H 0.1416 0.6089 1.0477
C51 C 0.0035(3) 0.2983(3) 0.6343(4)
H55 H 0.0039 0.2358 0.6346
C52 C -0.4241(3) 0.9565(3) 0.7322(3)
H56 H -0.4577 0.9819 0.6714
H57 H -0.4202 1.0139 0.7427
H58 H -0.4562 0.9083 0.7901
C53 C -0.0029(3) 1.0619(3) 0.3010(3)
H59 H -0.0034 1.1224 0.2386
C54 C 0.0029(3) 0.6322(4) 1.0696(3)
H60 H 0.0030 0.6307 1.1325
C55? C -0.3797(6) 0.1831(4) 1.0826(5)
H61? H -0.3631 0.1319 1.1513
H62? H -0.4288 0.1646 1.0625
H63? H -0.4008 0.2501 1.0796
C56? C -0.2982(4) 0.1869(3) 1.0134(4)
C57? C -0.2168(5) 0.1261(4) 1.0588(4)
H64? H -0.2158 0.0857 1.1296
C58? C -0.1370(4) 0.1245(5) 1.0005(7)
C59? C -0.1385(5) 0.1837(6) 0.8968(6)
H65? H -0.0839 0.1825 0.8569
C60? C -0.2199(6) 0.2444(6) 0.8514(4)
H66? H -0.2210 0.2849 0.7805
C61? C -0.2998(5) 0.2461(4) 0.9097(4)
H67? H -0.3554 0.2876 0.8786
C62? C -0.0473(9) 0.0598(8) 1.0466(13)
H68? H -0.0423 0.0598 1.1098
H69? H 0.0034 0.0876 1.0003
H70? H -0.0448 -0.0103 1.0596
C63? C -0.2182(4) -0.0936(2) 1.0065(4)
C64? C -0.2121(4) -0.1526(4) 1.1099(4)
H71? H -0.1548 -0.1919 1.1382
C65? C -0.2897(5) -0.1540(6) 1.1720(4)
H72? H -0.2855 -0.1943 1.2427
C66? C -0.3734(4) -0.0964(6) 1.1307(6)
H73? H -0.4265 -0.0974 1.1731
C67? C -0.3795(4) -0.0375(5) 1.0273(6)
C68? C -0.3019(4) -0.0361(3) 0.9652(4)
H74? H -0.3061 0.0042 0.8945
C69? C -0.1360(5) -0.0900(3) 0.9368(5)
H75? H -0.1412 -0.1268 0.9008
H76? H -0.1327 -0.0188 0.8886
H77? H -0.0804 -0.1220 0.9757
C70? C -0.4700(8) 0.0238(8) 0.9844(13)
H78? H -0.5117 0.0305 1.0372
H79? H -0.4619 0.0917 0.9309
H80? H -0.4960 -0.0106 0.9568
Cl1? Cl -0.2147(4) -0.0718(4) 0.9159(4)
Cl2? Cl -0.3042(5) 0.1396(5) 0.8235(4)
C71? C -0.1695(8) -0.0614(7) 1.1623(9)
H81? H -0.1317 -0.1271 1.1903
C72? C -0.2625(8) -0.0515(8) 1.1528(10)
C73? C -0.3178(6) 0.0446(9) 1.1120(10)
H82? H -0.3814 0.0513 1.1054
C74? C -0.2801(8) 0.1308(7) 1.0807(10)
C75? C -0.1871(9) 0.1210(8) 1.0902(11)
H83? H -0.1613 0.1799 1.0688
C76? C -0.1318(7) 0.0249(10) 1.1310(11)
H84? H -0.0682 0.0181 1.1376
C77? C -0.2062(10) 0.0520(7) 0.8824(16)
H85? H -0.1520 0.0705 0.8365
H86? H -0.1969 0.0559 0.9433
C78? C -0.3017(19) -0.1343(15) 1.176(2)
H87? H -0.2898 -0.1509 1.1209
H88? H -0.3679 -0.1178 1.1877
H89? H -0.2751 -0.1931 1.2374
C79? C -0.3445(12) 0.2319(12) 1.0468(13)
H90? H -0.3679 0.2531 0.9814
H91? H -0.3117 0.2832 1.0410
H92? H -0.3957 0.2253 1.0959
O1? O -0.2323(18) 0.1910(19) 0.8290(19)
loop_
_geom_bond_atom_site_label_1
_geom_bond_atom_site_label_2
_geom_bond_site_symmetry_1
_geom_bond_site_symmetry_2
N1 C9 1_555 1_555
N2 C6 1_555 1_555
C1 H1 1_555 1_555
H2 C1 1_555 1_555
N3 C27 1_555 1_555
C2 C6 1_555 1_555
C3 C13 1_555 1_555
N4 C17 1_555 1_555
C4 C13 1_555 1_555
C5 H3 1_555 1_555
H4 C5 1_555 1_555
N5 C1 1_555 1_555
C6 H5 1_555 1_555
H6 C6 1_555 1_555
C7 C9 1_555 1_555
N6 C5 1_555 1_555
C8 C26 1_555 1_555
C9 H7 1_555 1_555
H8 C9 1_555 1_555
C10 C20 1_555 1_555
C11 C18 1_555 1_555
C12 C1 1_555 1_555
C13 C14 1_555 1_555
C14 H9 1_555 1_555
H10 C14 1_555 1_555
C15 N6 1_555 1_555
H11 C15 1_555 1_555
C16 C15 1_555 1_555
C17 C3 1_555 1_555
H12 C17 1_555 1_555
H13 C17 1_555 1_555
C18 N4 1_555 1_555
H14 C18 1_555 1_555
C19 C5 1_555 1_555
C20 C11 1_555 1_555
H15 C20 1_555 1_555
C21 C7 1_555 1_555
C22 C3 1_555 1_555
C23 C4 1_555 1_555
C24 C2 1_555 1_555
C25 C32 1_555 1_555
C26 N1 1_555 1_555
H16 C26 1_555 1_555
C27 C4 1_555 1_555
H17 C27 1_555 1_555
H18 C27 1_555 1_555
C28 C21 1_555 1_555
H19 C28 1_555 1_555
H20 C28 1_555 1_555
C29 C8 1_555 1_555
H21 C29 1_555 1_555
C30 C2 1_555 1_555
C31 N5 1_555 1_555
H22 C31 1_555 1_555
C32 N2 1_555 1_555
H23 C32 1_555 1_555
C33 C30 1_555 1_555
H24 C33 1_555 1_555
H25 C33 1_555 1_555
C34 C35 1_555 1_555
C35 N3 1_555 1_555
H26 C35 1_555 1_555
C36 C24 1_555 1_555
H27 C36 1_555 1_555
H28 C36 1_555 1_555
C37 C22 1_555 1_555
H29 C37 1_555 1_555
H30 C37 1_555 1_555
C38 C25 1_555 1_555
H31 C38 1_555 1_555
C39 C23 1_555 1_555
H32 C39 1_555 1_555
H33 C39 1_555 1_555
C40 C8 1_555 1_555
H34 C40 1_555 1_555
C41 C11 1_555 1_555
H35 C41 1_555 1_555
C42 C10 1_555 1_555
H36 C42 1_555 1_555
C43 C16 1_555 1_555
H37 C43 1_555 1_555
C44 C33 1_555 1_555
H38 C44 1_555 1_555
H39 C44 1_555 1_555
H40 C44 1_555 1_555
C45 C28 1_555 1_555
H41 C45 1_555 1_555
H42 C45 1_555 1_555
H43 C45 1_555 1_555
C46 C37 1_555 1_555
H44 C46 1_555 1_555
H45 C46 1_555 1_555
H46 C46 1_555 1_555
C47 C14 1_555 1_555
H47 C47 1_555 1_555
H48 C47 1_555 1_555
H49 C47 1_555 1_555
C48 C34 1_555 1_555
H50 C48 1_555 1_555
C49 C36 1_555 1_555
H51 C49 1_555 1_555
H52 C49 1_555 1_555
H53 C49 1_555 1_555
C50 C25 1_555 1_555
H54 C50 1_555 1_555
C51 C41 1_555 1_555
H55 C51 1_555 1_555
C52 C39 1_555 1_555
H56 C52 1_555 1_555
H57 C52 1_555 1_555
H58 C52 1_555 1_555
C53 C40 1_555 1_555
H59 C53 1_555 1_555
C54 C48 1_555 1_555
H60 C54 1_555 1_555
C7 C24 1_555 1_555
C10 C31 1_555 1_555
C12 C21 1_555 1_555
C12 C30 1_555 1_555
C16 C29 1_555 1_555
C19 C22 1_555 1_555
C19 C23 1_555 1_555
C34 C38 1_555 1_555
C42 C51 1_555 1_555
C43 C53 1_555 1_555
C50 C54 1_555 1_555

#END
