
#######################################################################
#
#                 Cambridge Crystallographic Data Centre
#                                CCDC 
#
#######################################################################
#
# If this CIF has been generated from an entry in the Cambridge 
# Structural Database, then it will include bibliographic, chemical, 
# crystal, experimental, refinement or atomic coordinate data resulting 
# from the CCDC's data processing and validation procedures.
#
#######################################################################

data_PIFKIB
_chemical_formula_moiety         
'C240 H204 N12,12.25(C1 H1 Cl3),12.25(C4 H10 O1)'
_chemical_name_systematic        
'7,19,31,43(1,3,5)-tetrakis(2,4,6-triethylbenzena)-1,13,25,37(1,3,5)-tetrabenzena-2,3,11,12,14,15,23,24,26,27,35,36,38,39,47,48,49,50,57,58,59,60,64,65(1,4)-tetracosabenzena-5,9,17,21,29,33,41,45,52,55,62,67-dodecaazapentacyclo[29.17.5.5^7,25^.5^13,43^.5^19,37^]octahexacontaphane-4,9,16,21,28,33,40,45,51,55,61,66-dodecaene chloroform diethyl ether solvate'
_symmetry_cell_setting           tetragonal
_symmetry_space_group_name_H-M   'I 41/a'
_symmetry_Int_Tables_number      88
_space_group_name_Hall           '-I 4ad'
loop_
_symmetry_equiv_pos_site_id
_symmetry_equiv_pos_as_xyz
1 x,y,z
2 3/4-y,1/4+x,1/4+z
3 -x,1/2-y,z
4 1/4+y,1/4-x,1/4+z
5 1/2+x,1/2+y,1/2+z
6 1/4-y,3/4+x,3/4+z
7 1/2-x,-y,1/2+z
8 3/4+y,3/4-x,3/4+z
9 -x,-y,-z
10 1/4+y,3/4-x,3/4-z
11 x,1/2+y,-z
12 3/4-y,3/4+x,3/4-z
13 1/2-x,1/2-y,1/2-z
14 3/4+y,1/4-x,1/4-z
15 1/2+x,y,1/2-z
16 1/4-y,1/4+x,1/4-z
_cell_length_a                   41.493(9)
_cell_length_b                   41.493(9)
_cell_length_c                   20.413(4)
_cell_angle_alpha                90
_cell_angle_beta                 90
_cell_angle_gamma                90
_cell_volume                     35144.4
_exptl_crystal_colour            colorless
_exptl_crystal_description       block
_cell_formula_units_Z            4
loop_
_atom_site_label
_atom_site_type_symbol
_atom_site_fract_x
_atom_site_fract_y
_atom_site_fract_z
N1 N 0.30734(14) 0.59142(18) 0.1436(2)
N2 N 0.3268(2) 0.4902(2) 0.3321(4)
N3 N 0.2639(2) 0.8224(3) 1.1233(4)
C1 C 0.32612(17) 0.49463(14) 0.2123(2)
C2 C 0.30797(11) 0.51959(16) 0.1858(3)
C3 C 0.31949(15) 0.53664(12) 0.1320(3)
C4 C 0.34915(17) 0.52872(14) 0.1048(2)
C5 C 0.36730(11) 0.50376(16) 0.1313(3)
C6 C 0.35578(16) 0.48672(12) 0.1850(3)
C7 C 0.3765(3) 0.4598(3) 0.2134(5)
H1 H 0.3732 0.4587 0.2613
H2 H 0.3995 0.4647 0.2053
C8 C 0.3676(3) 0.4252(3) 0.1808(6)
H3 H 0.3505 0.4281 0.1481
H4 H 0.3602 0.4104 0.2150
H5 H 0.3868 0.4162 0.1595
C9 C 0.4001(2) 0.4950(2) 0.0998(4)
H6 H 0.4043 0.4718 0.1067
H7 H 0.3987 0.4988 0.0520
C10 C 0.3618(2) 0.5480(2) 0.0460(3)
H8 H 0.3856 0.5487 0.0477
H9 H 0.3537 0.5704 0.0488
C11 C 0.3511(2) 0.5330(2) -0.0201(3)
H10 H 0.3607 0.5451 -0.0563
H11 H 0.3275 0.5339 -0.0235
H12 H 0.3582 0.5105 -0.0222
C12 C 0.2987(3) 0.5624(2) 0.1010(4)
H13 H 0.2755 0.5571 0.1042
H14 H 0.3045 0.5661 0.0546
C13 C 0.2756(2) 0.5296(2) 0.2169(5)
H15 H 0.2722 0.5530 0.2103
H16 H 0.2763 0.5254 0.2646
C14 C 0.2462(3) 0.5102(3) 0.1855(6)
H17 H 0.2424 0.5179 0.1408
H18 H 0.2268 0.5137 0.2120
H19 H 0.2514 0.4872 0.1845
C15 C 0.3136(2) 0.4755(2) 0.2692(4)
H20 H 0.3206 0.4528 0.2655
H21 H 0.2898 0.4760 0.2697
C16 C 0.3202(3) 0.4792(3) 0.3810(5)
H22 H 0.3062 0.4611 0.3803
C17 C 0.33178(16) 0.49055(18) 0.4476(2)
C18 C 0.34933(16) 0.51903(17) 0.4511(3)
H23 H 0.3552 0.5300 0.4121
C19 C 0.35826(15) 0.53139(15) 0.5118(4)
H24 H 0.3703 0.5509 0.5142
C20 C 0.34964(16) 0.51527(18) 0.5688(3)
C21 C 0.33209(17) 0.48679(18) 0.5653(3)
H25 H 0.3262 0.4758 0.6043
C22 C 0.32316(16) 0.47443(14) 0.5046(3)
H26 H 0.3112 0.4550 0.5022
C23 C 0.35820(16) 0.53066(19) 0.6329(3)
C24 C 0.35740(17) 0.56395(18) 0.6405(3)
H27 H 0.3523 0.5773 0.6042
C25 C 0.36409(17) 0.57765(13) 0.7011(3)
H28 H 0.3635 0.6004 0.7062
C26 C 0.37159(16) 0.55807(18) 0.7542(2)
C27 C 0.37239(19) 0.52478(17) 0.7467(3)
H29 H 0.3775 0.5114 0.7830
C28 C 0.3657(2) 0.51108(14) 0.6860(4)
H30 H 0.3662 0.4883 0.6809
C29 C 0.38108(13) 0.57336(12) 0.81816(19)
C30 C 0.36202(10) 0.59745(13) 0.8453(2)
H31 H 0.3421 0.6031 0.8254
C31 C 0.37209(12) 0.61333(11) 0.9017(3)
C32 C 0.40121(13) 0.60512(12) 0.9309(2)
H32 H 0.4081 0.6160 0.9694
C33 C 0.42027(10) 0.58102(13) 0.9037(2)
C34 C 0.41021(12) 0.56515(11) 0.8474(2)
H33 H 0.4232 0.5487 0.8288
C35 C 0.45501(16) 0.5777(2) 0.9230(5)
C36 C 0.45945(19) 0.5711(3) 0.9892(5)
H34 H 0.4414 0.5699 1.0176
C37 C 0.4903(2) 0.5663(3) 1.0137(4)
H35 H 0.4934 0.5618 1.0589
C38 C 0.51677(17) 0.5680(3) 0.9720(5)
C39 C 0.51233(17) 0.5746(3) 0.9059(5)
H36 H 0.5304 0.5758 0.8774
C40 C 0.48146(17) 0.5794(2) 0.8814(5)
H37 H 0.4784 0.5839 0.8362
C41 C 0.57497(14) 0.58274(11) 0.99498(19)
H38 H 0.5733 0.5999 0.9644
C42 C 0.54854(13) 0.56285(8) 1.00712(15)
C43 C 0.5532(2) 0.53899(16) 1.0514(2)
H39 H 0.5356 0.5251 1.0606
C44 C 0.35020(16) 0.63811(13) 0.9339(3)
C45 C 0.32724(18) 0.65409(17) 0.8965(2)
H40 H 0.3236 0.6479 0.8523
C46 C 0.30953(17) 0.67918(18) 0.9237(3)
H41 H 0.2938 0.6901 0.8981
C47 C 0.31479(17) 0.68829(15) 0.9883(3)
C48 C 0.3377(2) 0.67231(18) 1.0258(2)
H42 H 0.3413 0.6785 1.0699
C49 C 0.35546(18) 0.64722(18) 0.9986(3)
H43 H 0.3712 0.6363 1.0242
C50 C 0.2984(2) 0.71747(14) 1.0178(3)
C51 C 0.26514(19) 0.72075(16) 1.0125(3)
H44 H 0.2529 0.7048 0.9901
C52 C 0.24981(14) 0.7473(2) 1.0399(4)
H45 H 0.2271 0.7495 1.0363
C53 C 0.2677(2) 0.77056(14) 1.0727(3)
C54 C 0.3010(2) 0.76728(17) 1.0781(3)
H46 H 0.3132 0.7832 1.1005
C55 C 0.31628(14) 0.7407(2) 1.0506(4)
H47 H 0.3390 0.7385 1.0542
C56 C 0.2497(3) 0.7998(3) 1.0989(6)
H48 H 0.2269 0.8004 1.0960
C57 C 0.29383(17) 0.6131(2) 0.1384(3)
H49 H 0.2761 0.6139 0.1089
C58 C 0.32716(17) 0.6460(2) 0.2218(2)
H50 H 0.3408 0.6281 0.2304
C59 C 0.30262(15) 0.6425(2) 0.1773(2)
C60 C 0.28354(18) 0.6685(2) 0.1662(3)
H51 H 0.2663 0.6670 0.1357
N1M N 0.34142(18) 0.94266(14) 1.1064(2)
N2M N 0.2402(2) 0.9232(2) 0.9179(4)
N3M N 0.5724(3) 0.9861(2) 0.1267(4)
C1M C 0.24463(14) 0.92388(17) 1.0377(2)
C2M C 0.26959(16) 0.94203(11) 1.0642(3)
C3M C 0.28664(12) 0.93051(15) 1.1180(3)
C4M C 0.27872(14) 0.90085(17) 1.1452(2)
C5M C 0.25376(16) 0.88270(11) 1.1187(3)
C6M C 0.23672(12) 0.89422(16) 1.0650(3)
C7M C 0.2098(3) 0.8735(3) 1.0366(5)
H1M H 0.2087 0.8768 0.9887
H2M H 0.2147 0.8505 1.0447
C8M C 0.1752(3) 0.8824(3) 1.0692(6)
H3M H 0.1781 0.8995 1.1019
H4M H 0.1604 0.8898 1.0350
H5M H 0.1662 0.8632 1.0905
C9M C 0.2450(2) 0.8499(2) 1.1502(4)
H6M H 0.2218 0.8457 1.1433
H7M H 0.2488 0.8513 1.1980
C10M C 0.2980(2) 0.8882(2) 1.2040(3)
H8M H 0.2987 0.8644 1.2023
H9M H 0.3204 0.8963 1.2012
C11M C 0.2830(2) 0.8989(2) 1.2701(3)
H10M H 0.2951 0.8893 1.3063
H11M H 0.2839 0.9225 1.2735
H12M H 0.2605 0.8918 1.2722
C12M C 0.3124(2) 0.9513(3) 1.1490(4)
H13M H 0.3071 0.9745 1.1458
H14M H 0.3161 0.9455 1.1954
C13M C 0.2796(2) 0.9744(2) 1.0331(5)
H15M H 0.3030 0.9778 1.0397
H16M H 0.2754 0.9737 0.9854
C14M C 0.2602(3) 1.0038(3) 1.0645(6)
H17M H 0.2679 1.0076 1.1092
H18M H 0.2637 1.0232 1.0380
H19M H 0.2372 0.9986 1.0655
C15M C 0.2255(2) 0.9364(2) 0.9808(4)
H20M H 0.2028 0.9294 0.9845
H21M H 0.2260 0.9602 0.9803
C16M C 0.2292(3) 0.9298(3) 0.8690(5)
H22M H 0.2111 0.9438 0.8697
C17M C 0.24055(18) 0.91822(16) 0.8024(2)
C18M C 0.26903(17) 0.90067(16) 0.7989(3)
H23M H 0.2800 0.8948 0.8379
C19M C 0.28139(15) 0.89174(15) 0.7382(4)
H24M H 0.3009 0.8797 0.7358
C20M C 0.26527(18) 0.90036(16) 0.6812(3)
C21M C 0.23679(18) 0.91791(17) 0.6847(3)
H25M H 0.2258 0.9238 0.6457
C22M C 0.22443(14) 0.92684(16) 0.7454(3)
H26M H 0.2050 0.9388 0.7478
C23M C 0.28066(19) 0.89180(16) 0.6171(3)
C24M C 0.31395(18) 0.89260(17) 0.6095(3)
H27M H 0.3273 0.8977 0.6458
C25M C 0.32765(13) 0.88591(17) 0.5489(3)
H28M H 0.3504 0.8865 0.5438
C26M C 0.30807(18) 0.87841(16) 0.4958(2)
C27M C 0.27478(17) 0.87761(19) 0.5033(3)
H29M H 0.2614 0.8725 0.4670
C28M C 0.26108(14) 0.8843(2) 0.5640(4)
H30M H 0.2383 0.8838 0.5691
C29M C 0.32336(12) 0.86892(13) 0.43184(19)
C30M C 0.34745(13) 0.88798(10) 0.4047(2)
H31M H 0.3531 0.9079 0.4246
C31M C 0.36333(11) 0.87791(12) 0.3483(3)
C32M C 0.35512(12) 0.84879(13) 0.3191(2)
H32M H 0.3660 0.8419 0.2806
C33M C 0.33102(13) 0.82973(10) 0.3463(2)
C34M C 0.31515(11) 0.83979(12) 0.4026(2)
H33M H 0.2987 0.8268 0.4212
C35M C 0.3277(2) 0.79499(16) 0.3270(5)
C36M C 0.3211(3) 0.79055(19) 0.2608(5)
H34M H 0.3199 0.8086 0.2324
C37M C 0.3163(3) 0.7597(2) 0.2363(4)
H35M H 0.3118 0.7566 0.1911
C38M C 0.3180(3) 0.73323(17) 0.2780(5)
C39M C 0.3246(3) 0.73767(17) 0.3441(5)
H36M H 0.3258 0.7196 0.3726
C40M C 0.3294(2) 0.76854(17) 0.3686(5)
H37M H 0.3339 0.7716 0.4138
C41M C 0.33274(11) 0.67503(14) 0.25502(19)
H38M H 0.3499 0.6767 0.2856
C42M C 0.31285(8) 0.70146(13) 0.24288(15)
C43M C 0.28899(16) 0.6968(2) 0.1986(2)
H39M H 0.2751 0.7144 0.1894
C44M C 0.38811(13) 0.89980(16) 0.3161(3)
C45M C 0.40409(17) 0.92276(18) 0.3535(2)
H40M H 0.3979 0.9264 0.3977
C46M C 0.42918(18) 0.94047(17) 0.3263(3)
H41M H 0.4401 0.9562 0.3519
C47M C 0.43829(15) 0.93521(17) 0.2617(3)
C48M C 0.42231(18) 0.9123(2) 0.2242(2)
H42M H 0.4285 0.9087 0.1801
C49M C 0.39722(18) 0.89454(18) 0.2514(3)
H43M H 0.3863 0.8788 0.2258
C50M C 0.46747(14) 0.9516(2) 0.2322(3)
C51M C 0.47075(16) 0.98486(19) 0.2375(3)
H44M H 0.4548 0.9971 0.2599
C52M C 0.4973(2) 1.00019(14) 0.2101(4)
H45M H 0.4995 1.0229 0.2137
C53M C 0.52056(14) 0.9823(2) 0.1773(3)
C54M C 0.51728(17) 0.9490(2) 0.1719(3)
H46M H 0.5332 0.9368 0.1495
C55M C 0.4907(2) 0.93372(14) 0.1994(4)
H47M H 0.4885 0.9110 0.1958
C56M C 0.5498(3) 1.0003(3) 0.1511(6)
H48M H 0.5504 1.0231 0.1540
C57M C 0.3631(2) 0.95617(17) 1.1116(3)
H49M H 0.3639 0.9739 1.1411
C58M C 0.3960(2) 0.92284(17) 1.0282(2)
H50M H 0.3781 0.9092 1.0196
C59M C 0.3925(2) 0.94738(15) 1.0727(2)
C60M C 0.4185(2) 0.96646(18) 1.0838(3)
H51M H 0.4170 0.9837 1.1143
N1O N 0.65858(18) 0.55734(14) 1.1064(2)
N2O N 0.7598(2) 0.5768(2) 0.9179(4)
N3O N 0.4276(3) 0.5139(2) 0.1267(4)
C1O C 0.75537(14) 0.57612(17) 1.0377(2)
C2O C 0.73041(16) 0.55797(11) 1.0642(3)
C3O C 0.71336(12) 0.56949(15) 1.1180(3)
C4O C 0.72128(14) 0.59915(17) 1.1452(2)
C5O C 0.74624(16) 0.61730(11) 1.1187(3)
C6O C 0.76328(12) 0.60578(16) 1.0650(3)
C7O C 0.7902(3) 0.6265(3) 1.0366(5)
H1O H 0.7913 0.6232 0.9887
H2O H 0.7853 0.6495 1.0447
C8O C 0.8248(3) 0.6176(3) 1.0692(6)
H3O H 0.8219 0.6005 1.1019
H4O H 0.8396 0.6102 1.0350
H5O H 0.8338 0.6368 1.0905
C9O C 0.7550(2) 0.6501(2) 1.1502(4)
H6O H 0.7782 0.6543 1.1433
H7O H 0.7512 0.6487 1.1980
C10O C 0.7020(2) 0.6118(2) 1.2040(3)
H8O H 0.7013 0.6356 1.2023
H9O H 0.6796 0.6037 1.2012
C11O C 0.7170(2) 0.6011(2) 1.2701(3)
H10O H 0.7049 0.6107 1.3063
H11O H 0.7161 0.5775 1.2735
H12O H 0.7395 0.6082 1.2722
C12O C 0.6876(2) 0.5487(3) 1.1490(4)
H13O H 0.6929 0.5255 1.1458
H14O H 0.6839 0.5545 1.1954
C13O C 0.7204(2) 0.5256(2) 1.0331(5)
H15O H 0.6970 0.5222 1.0397
H16O H 0.7246 0.5263 0.9854
C14O C 0.7398(3) 0.4962(3) 1.0645(6)
H17O H 0.7321 0.4924 1.1092
H18O H 0.7363 0.4768 1.0380
H19O H 0.7628 0.5014 1.0655
C15O C 0.7745(2) 0.5636(2) 0.9808(4)
H20O H 0.7972 0.5706 0.9845
H21O H 0.7740 0.5398 0.9803
C16O C 0.7708(3) 0.5702(3) 0.8690(5)
H22O H 0.7889 0.5562 0.8697
C17O C 0.75945(18) 0.58178(16) 0.8024(2)
C18O C 0.73097(17) 0.59933(16) 0.7989(3)
H23O H 0.7200 0.6052 0.8379
C19O C 0.71861(15) 0.60826(15) 0.7382(4)
H24O H 0.6991 0.6203 0.7358
C20O C 0.73473(18) 0.59964(16) 0.6812(3)
C21O C 0.76321(18) 0.58209(17) 0.6847(3)
H25O H 0.7742 0.5762 0.6457
C22O C 0.77557(14) 0.57316(16) 0.7454(3)
H26O H 0.7950 0.5612 0.7478
C23O C 0.71934(19) 0.60820(16) 0.6171(3)
C24O C 0.68605(18) 0.60740(17) 0.6095(3)
H27O H 0.6727 0.6023 0.6458
C25O C 0.67235(13) 0.61409(17) 0.5489(3)
H28O H 0.6496 0.6135 0.5438
C26O C 0.69193(18) 0.62159(16) 0.4958(2)
C27O C 0.72522(17) 0.62239(19) 0.5033(3)
H29O H 0.7386 0.6275 0.4670
C28O C 0.73892(14) 0.6157(2) 0.5640(4)
H30O H 0.7617 0.6162 0.5691
C29O C 0.67664(12) 0.63108(13) 0.43184(19)
C30O C 0.65255(13) 0.61202(10) 0.4047(2)
H31O H 0.6469 0.5921 0.4246
C31O C 0.63667(11) 0.62209(12) 0.3483(3)
C32O C 0.64488(12) 0.65121(13) 0.3191(2)
H32O H 0.6340 0.6581 0.2806
C33O C 0.66898(13) 0.67027(10) 0.3463(2)
C34O C 0.68485(11) 0.66021(12) 0.4026(2)
H33O H 0.7013 0.6732 0.4212
C35O C 0.6723(2) 0.70501(16) 0.3270(5)
C36O C 0.6789(3) 0.70945(19) 0.2608(5)
H34O H 0.6801 0.6914 0.2324
C37O C 0.6837(3) 0.7403(2) 0.2363(4)
H35O H 0.6882 0.7434 0.1911
C38O C 0.6820(3) 0.76677(17) 0.2780(5)
C39O C 0.6754(3) 0.76233(17) 0.3441(5)
H36O H 0.6742 0.7804 0.3726
C40O C 0.6706(2) 0.73146(17) 0.3686(5)
H37O H 0.6661 0.7284 0.4138
C41O C 0.66726(11) 0.82497(14) 0.25502(19)
H38O H 0.6501 0.8233 0.2856
C42O C 0.68715(8) 0.79854(13) 0.24288(15)
C43O C 0.71101(16) 0.8032(2) 0.1986(2)
H39O H 0.7249 0.7856 0.1894
C44O C 0.61189(13) 0.60020(16) 0.3161(3)
C45O C 0.59591(17) 0.57724(18) 0.3535(2)
H40O H 0.6021 0.5736 0.3977
C46O C 0.57082(18) 0.55953(17) 0.3263(3)
H41O H 0.5599 0.5438 0.3519
C47O C 0.56171(15) 0.56479(17) 0.2617(3)
C48O C 0.57769(18) 0.5877(2) 0.2242(2)
H42O H 0.5715 0.5913 0.1801
C49O C 0.60278(18) 0.60546(18) 0.2514(3)
H43O H 0.6137 0.6212 0.2258
C50O C 0.53253(14) 0.5484(2) 0.2322(3)
C51O C 0.52925(16) 0.51514(19) 0.2375(3)
H44O H 0.5452 0.5029 0.2599
C52O C 0.5027(2) 0.49981(14) 0.2101(4)
H45O H 0.5005 0.4771 0.2137
C53O C 0.47944(14) 0.5177(2) 0.1773(3)
C54O C 0.48272(17) 0.5510(2) 0.1719(3)
H46O H 0.4668 0.5632 0.1495
C55O C 0.5093(2) 0.56628(14) 0.1994(4)
H47O H 0.5115 0.5890 0.1958
C56O C 0.4502(3) 0.4997(3) 0.1511(6)
H48O H 0.4496 0.4769 0.1540
C57O C 0.6369(2) 0.54383(17) 1.1116(3)
H49O H 0.6361 0.5261 1.1411
C58O C 0.6040(2) 0.57716(17) 1.0282(2)
H50O H 0.6219 0.5908 1.0196
C59O C 0.6075(2) 0.55262(15) 1.0727(2)
C60O C 0.5815(2) 0.53354(18) 1.0838(3)
H51O H 0.5830 0.5163 1.1143
N1B N 0.69266(14) 0.90858(18) 0.1436(2)
N2B N 0.6732(2) 1.0098(2) 0.3321(4)
N3B N 0.7361(2) 0.6776(3) 1.1233(4)
C1B C 0.67388(17) 1.00537(14) 0.2123(2)
C2B C 0.69203(11) 0.98041(16) 0.1858(3)
C3B C 0.68051(15) 0.96336(12) 0.1320(3)
C4B C 0.65085(17) 0.97128(14) 0.1048(2)
C5B C 0.63270(11) 0.99624(16) 0.1313(3)
C6B C 0.64422(16) 1.01328(12) 0.1850(3)
C7B C 0.6235(3) 1.0402(3) 0.2134(5)
H1B H 0.6268 1.0413 0.2613
H2B H 0.6005 1.0353 0.2053
C8B C 0.6324(3) 1.0748(3) 0.1808(6)
H3B H 0.6495 1.0719 0.1481
H4B H 0.6398 1.0896 0.2150
H5B H 0.6132 1.0838 0.1595
C9B C 0.5999(2) 1.0050(2) 0.0998(4)
H6B H 0.5957 1.0282 0.1067
H7B H 0.6013 1.0012 0.0520
C10B C 0.6382(2) 0.9520(2) 0.0460(3)
H8B H 0.6144 0.9513 0.0477
H9B H 0.6463 0.9296 0.0488
C11B C 0.6489(2) 0.9670(2) -0.0201(3)
H10B H 0.6393 0.9549 -0.0563
H11B H 0.6725 0.9661 -0.0235
H12B H 0.6418 0.9895 -0.0222
C12B C 0.7013(3) 0.9376(2) 0.1010(4)
H13B H 0.7245 0.9429 0.1042
H14B H 0.6955 0.9339 0.0546
C13B C 0.7244(2) 0.9704(2) 0.2169(5)
H15B H 0.7278 0.9470 0.2103
H16B H 0.7237 0.9746 0.2646
C14B C 0.7538(3) 0.9898(3) 0.1855(6)
H17B H 0.7576 0.9821 0.1408
H18B H 0.7732 0.9863 0.2120
H19B H 0.7486 1.0128 0.1845
C15B C 0.6864(2) 1.0245(2) 0.2692(4)
H20B H 0.6794 1.0472 0.2655
H21B H 0.7102 1.0240 0.2697
C16B C 0.6798(3) 1.0208(3) 0.3810(5)
H22B H 0.6938 1.0389 0.3803
C17B C 0.66822(16) 1.00945(18) 0.4476(2)
C18B C 0.65067(16) 0.98097(17) 0.4511(3)
H23B H 0.6448 0.9700 0.4121
C19B C 0.64174(15) 0.96861(15) 0.5118(4)
H24B H 0.6297 0.9491 0.5142
C20B C 0.65036(16) 0.98473(18) 0.5688(3)
C21B C 0.66791(17) 1.01321(18) 0.5653(3)
H25B H 0.6738 1.0242 0.6043
C22B C 0.67684(16) 1.02557(14) 0.5046(3)
H26B H 0.6888 1.0450 0.5022
C23B C 0.64180(16) 0.96934(19) 0.6329(3)
C24B C 0.64260(17) 0.93605(18) 0.6405(3)
H27B H 0.6477 0.9227 0.6042
C25B C 0.63591(17) 0.92235(13) 0.7011(3)
H28B H 0.6365 0.8996 0.7062
C26B C 0.62841(16) 0.94193(18) 0.7542(2)
C27B C 0.62761(19) 0.97522(17) 0.7467(3)
H29B H 0.6225 0.9886 0.7830
C28B C 0.6343(2) 0.98892(14) 0.6860(4)
H30B H 0.6338 1.0117 0.6809
C29B C 0.61892(13) 0.92664(12) 0.81816(19)
C30B C 0.63798(10) 0.90255(13) 0.8453(2)
H31B H 0.6579 0.8969 0.8254
C31B C 0.62791(12) 0.88667(11) 0.9017(3)
C32B C 0.59879(13) 0.89488(12) 0.9309(2)
H32B H 0.5919 0.8840 0.9694
C33B C 0.57973(10) 0.91898(13) 0.9037(2)
C34B C 0.58979(12) 0.93485(11) 0.8474(2)
H33B H 0.5768 0.9513 0.8288
C35B C 0.54499(16) 0.9223(2) 0.9230(5)
C36B C 0.54055(19) 0.9289(3) 0.9892(5)
H34B H 0.5586 0.9301 1.0176
C37B C 0.5097(2) 0.9337(3) 1.0137(4)
H35B H 0.5066 0.9382 1.0589
C38B C 0.48323(17) 0.9320(3) 0.9720(5)
C39B C 0.48767(17) 0.9254(3) 0.9059(5)
H36B H 0.4696 0.9242 0.8774
C40B C 0.51854(17) 0.9206(2) 0.8814(5)
H37B H 0.5216 0.9161 0.8362
C41B C 0.42503(14) 0.91726(11) 0.99498(19)
H38B H 0.4267 0.9001 0.9644
C42B C 0.45146(13) 0.93715(8) 1.00712(15)
C43B C 0.4468(2) 0.96101(16) 1.0514(2)
H39B H 0.4644 0.9749 1.0606
C44B C 0.64980(16) 0.86189(13) 0.9339(3)
C45B C 0.67276(18) 0.84591(17) 0.8965(2)
H40B H 0.6764 0.8521 0.8523
C46B C 0.69047(17) 0.82082(18) 0.9237(3)
H41B H 0.7062 0.8099 0.8981
C47B C 0.68521(17) 0.81171(15) 0.9883(3)
C48B C 0.6623(2) 0.82769(18) 1.0258(2)
H42B H 0.6587 0.8215 1.0699
C49B C 0.64454(18) 0.85278(18) 0.9986(3)
H43B H 0.6288 0.8637 1.0242
C50B C 0.7016(2) 0.78253(14) 1.0178(3)
C51B C 0.73486(19) 0.77925(16) 1.0125(3)
H44B H 0.7471 0.7952 0.9901
C52B C 0.75019(14) 0.7527(2) 1.0399(4)
H45B H 0.7729 0.7505 1.0363
C53B C 0.7323(2) 0.72944(14) 1.0727(3)
C54B C 0.6990(2) 0.73272(17) 1.0781(3)
H46B H 0.6868 0.7168 1.1005
C55B C 0.68372(14) 0.7593(2) 1.0506(4)
H47B H 0.6610 0.7615 1.0542
C56B C 0.7503(3) 0.7002(3) 1.0989(6)
H48B H 0.7731 0.6996 1.0960
C57B C 0.70617(17) 0.8869(2) 0.1384(3)
H49B H 0.7239 0.8861 0.1089
C58B C 0.67284(17) 0.8540(2) 0.2218(2)
H50B H 0.6592 0.8719 0.2304
C59B C 0.69738(15) 0.8575(2) 0.1773(2)
C60B C 0.71646(18) 0.8315(2) 0.1662(3)
H51B H 0.7337 0.8330 0.1357
C61? C 0.51286(17) 0.5627(3) 0.9924(5)
C62? C 0.4947(2) 0.5371(2) 0.9684(4)
H52? H 0.5034 0.5159 0.9689
C63? C 0.4640(2) 0.5425(2) 0.9437(5)
H53? H 0.4516 0.5250 0.9273
C64? C 0.45139(18) 0.5735(3) 0.9429(5)
C65? C 0.4695(2) 0.5991(2) 0.9669(5)
H54? H 0.4609 0.6203 0.9664
C66? C 0.5002(2) 0.5937(3) 0.9916(5)
H55? H 0.5126 0.6112 1.0080
C67? C 0.2996(3) 0.6604(2) 0.9683(3)
H56? H 0.2769 0.6584 0.9732
C68? C 0.3663(5) 0.6660(3) 0.9536(5)
H57? H 0.3890 0.6678 0.9486
C69? C 0.3481(3) 0.6913(4) 0.9812(5)
H58? H 0.3586 0.7105 0.9949
C70? C 0.3172(3) 0.6354(3) 0.9412(3)
H59? H 0.3065 0.6162 0.9276
loop_
_geom_bond_atom_site_label_1
_geom_bond_atom_site_label_2
_geom_bond_site_symmetry_1
_geom_bond_site_symmetry_2
N1 C12 1_555 1_555
N2 C15 1_555 1_555
N3 C56 1_555 1_555
C1 C2 1_555 1_555
C2 C3 1_555 1_555
C3 C4 1_555 1_555
C4 C5 1_555 1_555
C5 C6 1_555 1_555
C6 C1 1_555 1_555
C7 C6 1_555 1_555
H1 C7 1_555 1_555
H2 C7 1_555 1_555
C8 C7 1_555 1_555
H3 C8 1_555 1_555
H4 C8 1_555 1_555
H5 C8 1_555 1_555
C9 C5 1_555 1_555
H6 C9 1_555 1_555
H7 C9 1_555 1_555
C10 C4 1_555 1_555
H8 C10 1_555 1_555
H9 C10 1_555 1_555
C11 C10 1_555 1_555
H10 C11 1_555 1_555
H11 C11 1_555 1_555
H12 C11 1_555 1_555
C12 C3 1_555 1_555
H13 C12 1_555 1_555
H14 C12 1_555 1_555
C13 C2 1_555 1_555
H15 C13 1_555 1_555
H16 C13 1_555 1_555
C14 C13 1_555 1_555
H17 C14 1_555 1_555
H18 C14 1_555 1_555
H19 C14 1_555 1_555
C15 C1 1_555 1_555
H20 C15 1_555 1_555
H21 C15 1_555 1_555
C16 N2 1_555 1_555
H22 C16 1_555 1_555
C17 C16 1_555 1_555
C18 C17 1_555 1_555
H23 C18 1_555 1_555
C19 C18 1_555 1_555
H24 C19 1_555 1_555
C20 C19 1_555 1_555
C21 C20 1_555 1_555
H25 C21 1_555 1_555
C22 C17 1_555 1_555
H26 C22 1_555 1_555
C23 C20 1_555 1_555
C24 C23 1_555 1_555
H27 C24 1_555 1_555
C25 C24 1_555 1_555
H28 C25 1_555 1_555
C26 C25 1_555 1_555
C27 C26 1_555 1_555
H29 C27 1_555 1_555
C28 C23 1_555 1_555
H30 C28 1_555 1_555
C29 C26 1_555 1_555
C30 C29 1_555 1_555
H31 C30 1_555 1_555
C31 C30 1_555 1_555
C32 C31 1_555 1_555
H32 C32 1_555 1_555
C33 C32 1_555 1_555
C34 C29 1_555 1_555
H33 C34 1_555 1_555
C35 C33 1_555 1_555
C36 C35 1_555 1_555
H34 C36 1_555 1_555
C37 C36 1_555 1_555
H35 C37 1_555 1_555
C38 C37 1_555 1_555
C39 C38 1_555 1_555
H36 C39 1_555 1_555
C40 C35 1_555 1_555
H37 C40 1_555 1_555
C41 H38 1_555 1_555
C42 C38 1_555 1_555
C43 C42 1_555 1_555
H39 C43 1_555 1_555
C44 C31 1_555 1_555
C45 C44 1_555 1_555
H40 C45 1_555 1_555
C46 C45 1_555 1_555
H41 C46 1_555 1_555
C47 C46 1_555 1_555
C48 C47 1_555 1_555
H42 C48 1_555 1_555
C49 C44 1_555 1_555
H43 C49 1_555 1_555
C50 C47 1_555 1_555
C51 C50 1_555 1_555
H44 C51 1_555 1_555
C52 C51 1_555 1_555
H45 C52 1_555 1_555
C53 C52 1_555 1_555
C54 C53 1_555 1_555
H46 C54 1_555 1_555
C55 C50 1_555 1_555
H47 C55 1_555 1_555
C56 C53 1_555 1_555
H48 C56 1_555 1_555
C57 N1 1_555 1_555
H49 C57 1_555 1_555
C58 H50 1_555 1_555
C59 C57 1_555 1_555
C60 C59 1_555 1_555
H51 C60 1_555 1_555
N1M C12M 1_555 1_555
N2M C15M 1_555 1_555
N3M C56M 1_555 1_555
C1M C2M 1_555 1_555
C2M C3M 1_555 1_555
C3M C4M 1_555 1_555
C4M C5M 1_555 1_555
C5M C6M 1_555 1_555
C6M C1M 1_555 1_555
C7M C6M 1_555 1_555
H1M C7M 1_555 1_555
H2M C7M 1_555 1_555
C8M C7M 1_555 1_555
H3M C8M 1_555 1_555
H4M C8M 1_555 1_555
H5M C8M 1_555 1_555
C9M N3 1_555 1_555
H6M C9M 1_555 1_555
H7M C9M 1_555 1_555
C10M C4M 1_555 1_555
H8M C10M 1_555 1_555
H9M C10M 1_555 1_555
C11M C10M 1_555 1_555
H10M C11M 1_555 1_555
H11M C11M 1_555 1_555
H12M C11M 1_555 1_555
C12M C3M 1_555 1_555
H13M C12M 1_555 1_555
H14M C12M 1_555 1_555
C13M C2M 1_555 1_555
H15M C13M 1_555 1_555
H16M C13M 1_555 1_555
C14M C13M 1_555 1_555
H17M C14M 1_555 1_555
H18M C14M 1_555 1_555
H19M C14M 1_555 1_555
C15M C1M 1_555 1_555
H20M C15M 1_555 1_555
H21M C15M 1_555 1_555
C16M N2M 1_555 1_555
H22M C16M 1_555 1_555
C17M C16M 1_555 1_555
C18M C17M 1_555 1_555
H23M C18M 1_555 1_555
C19M C18M 1_555 1_555
H24M C19M 1_555 1_555
C20M C19M 1_555 1_555
C21M C20M 1_555 1_555
H25M C21M 1_555 1_555
C22M C17M 1_555 1_555
H26M C22M 1_555 1_555
C23M C20M 1_555 1_555
C24M C23M 1_555 1_555
H27M C24M 1_555 1_555
C25M C24M 1_555 1_555
H28M C25M 1_555 1_555
C26M C25M 1_555 1_555
C27M C26M 1_555 1_555
H29M C27M 1_555 1_555
C28M C23M 1_555 1_555
H30M C28M 1_555 1_555
C29M C26M 1_555 1_555
C30M C29M 1_555 1_555
H31M C30M 1_555 1_555
C31M C30M 1_555 1_555
C32M C31M 1_555 1_555
H32M C32M 1_555 1_555
C33M C32M 1_555 1_555
C34M C29M 1_555 1_555
H33M C34M 1_555 1_555
C35M C33M 1_555 1_555
C36M C35M 1_555 1_555
H34M C36M 1_555 1_555
C37M C36M 1_555 1_555
H35M C37M 1_555 1_555
C38M C37M 1_555 1_555
C39M C38M 1_555 1_555
H36M C39M 1_555 1_555
C40M C35M 1_555 1_555
H37M C40M 1_555 1_555
C41M C58 1_555 1_555
H38M C41M 1_555 1_555
C42M C38M 1_555 1_555
C43M C60 1_555 1_555
H39M C43M 1_555 1_555
C44M C31M 1_555 1_555
C45M C44M 1_555 1_555
H40M C45M 1_555 1_555
C46M C45M 1_555 1_555
H41M C46M 1_555 1_555
C47M C46M 1_555 1_555
C48M C47M 1_555 1_555
H42M C48M 1_555 1_555
C49M C44M 1_555 1_555
H43M C49M 1_555 1_555
C50M C47M 1_555 1_555
C51M C50M 1_555 1_555
H44M C51M 1_555 1_555
C52M C51M 1_555 1_555
H45M C52M 1_555 1_555
C53M C52M 1_555 1_555
C54M C53M 1_555 1_555
H46M C54M 1_555 1_555
C55M C50M 1_555 1_555
H47M C55M 1_555 1_555
C56M C53M 1_555 1_555
H48M C56M 1_555 1_555
C57M N1M 1_555 1_555
H49M C57M 1_555 1_555
C58M H50M 1_555 1_555
C59M C57M 1_555 1_555
C60M C59M 1_555 1_555
H51M C60M 1_555 1_555
N1O C12O 1_555 1_555
N2O C15O 1_555 1_555
N3O C9 1_555 1_555
C1O C2O 1_555 1_555
C2O C3O 1_555 1_555
C3O C4O 1_555 1_555
C4O C5O 1_555 1_555
C5O C6O 1_555 1_555
C6O C1O 1_555 1_555
C7O C6O 1_555 1_555
H1O C7O 1_555 1_555
H2O C7O 1_555 1_555
C8O C7O 1_555 1_555
H3O C8O 1_555 1_555
H4O C8O 1_555 1_555
H5O C8O 1_555 1_555
C9O C5O 1_555 1_555
H6O C9O 1_555 1_555
H7O C9O 1_555 1_555
C10O C4O 1_555 1_555
H8O C10O 1_555 1_555
H9O C10O 1_555 1_555
C11O C10O 1_555 1_555
H10O C11O 1_555 1_555
H11O C11O 1_555 1_555
H12O C11O 1_555 1_555
C12O C3O 1_555 1_555
H13O C12O 1_555 1_555
H14O C12O 1_555 1_555
C13O C2O 1_555 1_555
H15O C13O 1_555 1_555
H16O C13O 1_555 1_555
C14O C13O 1_555 1_555
H17O C14O 1_555 1_555
H18O C14O 1_555 1_555
H19O C14O 1_555 1_555
C15O C1O 1_555 1_555
H20O C15O 1_555 1_555
H21O C15O 1_555 1_555
C16O N2O 1_555 1_555
H22O C16O 1_555 1_555
C17O C16O 1_555 1_555
C18O C17O 1_555 1_555
H23O C18O 1_555 1_555
C19O C18O 1_555 1_555
H24O C19O 1_555 1_555
C20O C19O 1_555 1_555
C21O C20O 1_555 1_555
H25O C21O 1_555 1_555
C22O C17O 1_555 1_555
H26O C22O 1_555 1_555
C23O C20O 1_555 1_555
C24O C23O 1_555 1_555
H27O C24O 1_555 1_555
C25O C24O 1_555 1_555
H28O C25O 1_555 1_555
C26O C25O 1_555 1_555
C27O C26O 1_555 1_555
H29O C27O 1_555 1_555
C28O C23O 1_555 1_555
H30O C28O 1_555 1_555
C29O C26O 1_555 1_555
C30O C29O 1_555 1_555
H31O C30O 1_555 1_555
C31O C30O 1_555 1_555
C32O C31O 1_555 1_555
H32O C32O 1_555 1_555
C33O C32O 1_555 1_555
C34O C29O 1_555 1_555
H33O C34O 1_555 1_555
C35O C33O 1_555 1_555
C36O C35O 1_555 1_555
H34O C36O 1_555 1_555
C37O C36O 1_555 1_555
H35O C37O 1_555 1_555
C38O C37O 1_555 1_555
C39O C38O 1_555 1_555
H36O C39O 1_555 1_555
C40O C35O 1_555 1_555
H37O C40O 1_555 1_555
C41O H38O 1_555 1_555
C42O C38O 1_555 1_555
C43O C42O 1_555 1_555
H39O C43O 1_555 1_555
C44O C31O 1_555 1_555
C45O C44O 1_555 1_555
H40O C45O 1_555 1_555
C46O C45O 1_555 1_555
H41O C46O 1_555 1_555
C47O C46O 1_555 1_555
C48O C47O 1_555 1_555
H42O C48O 1_555 1_555
C49O C44O 1_555 1_555
H43O C49O 1_555 1_555
C50O C47O 1_555 1_555
C51O C50O 1_555 1_555
H44O C51O 1_555 1_555
C52O C51O 1_555 1_555
H45O C52O 1_555 1_555
C53O C52O 1_555 1_555
C54O C53O 1_555 1_555
H46O C54O 1_555 1_555
C55O C50O 1_555 1_555
H47O C55O 1_555 1_555
C56O N3O 1_555 1_555
H48O C56O 1_555 1_555
C57O N1O 1_555 1_555
H49O C57O 1_555 1_555
C58O C41 1_555 1_555
H50O C58O 1_555 1_555
C59O C57O 1_555 1_555
C60O C43 1_555 1_555
H51O C60O 1_555 1_555
N1B C12B 1_555 1_555
N2B C15B 1_555 1_555
N3B C9O 1_555 1_555
C1B C2B 1_555 1_555
C2B C3B 1_555 1_555
C3B C4B 1_555 1_555
C4B C5B 1_555 1_555
C5B C6B 1_555 1_555
C6B C1B 1_555 1_555
C7B C6B 1_555 1_555
H1B C7B 1_555 1_555
H2B C7B 1_555 1_555
C8B C7B 1_555 1_555
H3B C8B 1_555 1_555
H4B C8B 1_555 1_555
H5B C8B 1_555 1_555
C9B N3M 1_555 1_555
H6B C9B 1_555 1_555
H7B C9B 1_555 1_555
C10B C4B 1_555 1_555
H8B C10B 1_555 1_555
H9B C10B 1_555 1_555
C11B C10B 1_555 1_555
H10B C11B 1_555 1_555
H11B C11B 1_555 1_555
H12B C11B 1_555 1_555
C12B C3B 1_555 1_555
H13B C12B 1_555 1_555
H14B C12B 1_555 1_555
C13B C2B 1_555 1_555
H15B C13B 1_555 1_555
H16B C13B 1_555 1_555
C14B C13B 1_555 1_555
H17B C14B 1_555 1_555
H18B C14B 1_555 1_555
H19B C14B 1_555 1_555
C15B C1B 1_555 1_555
H20B C15B 1_555 1_555
H21B C15B 1_555 1_555
C16B N2B 1_555 1_555
H22B C16B 1_555 1_555
C17B C16B 1_555 1_555
C18B C17B 1_555 1_555
H23B C18B 1_555 1_555
C19B C18B 1_555 1_555
H24B C19B 1_555 1_555
C20B C19B 1_555 1_555
C21B C20B 1_555 1_555
H25B C21B 1_555 1_555
C22B C17B 1_555 1_555
H26B C22B 1_555 1_555
C23B C20B 1_555 1_555
C24B C23B 1_555 1_555
H27B C24B 1_555 1_555
C25B C24B 1_555 1_555
H28B C25B 1_555 1_555
C26B C25B 1_555 1_555
C27B C26B 1_555 1_555
H29B C27B 1_555 1_555
C28B C23B 1_555 1_555
H30B C28B 1_555 1_555
C29B C26B 1_555 1_555
C30B C29B 1_555 1_555
H31B C30B 1_555 1_555
C31B C30B 1_555 1_555
C32B C31B 1_555 1_555
H32B C32B 1_555 1_555
C33B C32B 1_555 1_555
C34B C29B 1_555 1_555
H33B C34B 1_555 1_555
C35B C33B 1_555 1_555
C36B C35B 1_555 1_555
H34B C36B 1_555 1_555
C37B C36B 1_555 1_555
H35B C37B 1_555 1_555
C38B C37B 1_555 1_555
C39B C38B 1_555 1_555
H36B C39B 1_555 1_555
C40B C35B 1_555 1_555
H37B C40B 1_555 1_555
C41B C58M 1_555 1_555
H38B C41B 1_555 1_555
C42B C38B 1_555 1_555
C43B C60M 1_555 1_555
H39B C43B 1_555 1_555
C44B C31B 1_555 1_555
C45B C44B 1_555 1_555
H40B C45B 1_555 1_555
C46B C45B 1_555 1_555
H41B C46B 1_555 1_555
C47B C46B 1_555 1_555
C48B C47B 1_555 1_555
H42B C48B 1_555 1_555
C49B C44B 1_555 1_555
H43B C49B 1_555 1_555
C50B C47B 1_555 1_555
C51B C50B 1_555 1_555
H44B C51B 1_555 1_555
C52B C51B 1_555 1_555
H45B C52B 1_555 1_555
C53B C52B 1_555 1_555
C54B C53B 1_555 1_555
H46B C54B 1_555 1_555
C55B C50B 1_555 1_555
H47B C55B 1_555 1_555
C56B N3B 1_555 1_555
H48B C56B 1_555 1_555
C57B N1B 1_555 1_555
H49B C57B 1_555 1_555
C58B C41O 1_555 1_555
H50B C58B 1_555 1_555
C59B C57B 1_555 1_555
C60B C43O 1_555 1_555
H51B C60B 1_555 1_555
C21 C22 1_555 1_555
C27 C28 1_555 1_555
C33 C34 1_555 1_555
C39 C40 1_555 1_555
C41 C42 1_555 1_555
C48 C49 1_555 1_555
C54 C55 1_555 1_555
C58 C59 1_555 1_555
C5M C9M 1_555 1_555
C21M C22M 1_555 1_555
C27M C28M 1_555 1_555
C33M C34M 1_555 1_555
C39M C40M 1_555 1_555
C41M C42M 1_555 1_555
C42M C43M 1_555 1_555
C48M C49M 1_555 1_555
C54M C55M 1_555 1_555
C58M C59M 1_555 1_555
C21O C22O 1_555 1_555
C27O C28O 1_555 1_555
C33O C34O 1_555 1_555
C39O C40O 1_555 1_555
C41O C42O 1_555 1_555
C48O C49O 1_555 1_555
C53O C56O 1_555 1_555
C54O C55O 1_555 1_555
C58O C59O 1_555 1_555
C59O C60O 1_555 1_555
C5B C9B 1_555 1_555
C21B C22B 1_555 1_555
C27B C28B 1_555 1_555
C33B C34B 1_555 1_555
C39B C40B 1_555 1_555
C41B C42B 1_555 1_555
C42B C43B 1_555 1_555
C48B C49B 1_555 1_555
C53B C56B 1_555 1_555
C54B C55B 1_555 1_555
C58B C59B 1_555 1_555
C59B C60B 1_555 1_555

#END
