
#######################################################################
#
#                 Cambridge Crystallographic Data Centre
#                                CCDC 
#
#######################################################################
#
# If this CIF has been generated from an entry in the Cambridge 
# Structural Database, then it will include bibliographic, chemical, 
# crystal, experimental, refinement or atomic coordinate data resulting 
# from the CCDC's data processing and validation procedures.
#
#######################################################################

data_PIFMAV03
_chemical_formula_moiety         'C25 H23 B1 F2 N2'
_chemical_name_systematic        
{2-[(3,5-dimethyl-4-phenyl-2H-pyrrol-2-ylidene)(phenyl)methyl]-3,5-dimethyl-1H-pyrrolato}(difluoro)boron
_symmetry_cell_setting           monoclinic
_symmetry_space_group_name_H-M   'P 21/c'
_symmetry_Int_Tables_number      14
_space_group_name_Hall           '-P 2ybc'
loop_
_symmetry_equiv_pos_site_id
_symmetry_equiv_pos_as_xyz
1 x,y,z
2 -x,1/2+y,1/2-z
3 -x,-y,-z
4 x,1/2-y,1/2+z
_cell_length_a                   7.0667(14)
_cell_length_b                   15.950(4)
_cell_length_c                   19.556(4)
_cell_angle_alpha                90
_cell_angle_beta                 105.993(8)
_cell_angle_gamma                90
_cell_volume                     2118.92
_exptl_crystal_colour            red
_exptl_crystal_description       Block
_cell_formula_units_Z            4
loop_
_atom_site_label
_atom_site_type_symbol
_atom_site_fract_x
_atom_site_fract_y
_atom_site_fract_z
F1 F 0.1274(3) 0.35811(17) 0.07384(10)
F2 F 0.3144(4) 0.24220(16) 0.09323(12)
N1 N 0.2128(4) 0.29836(18) 0.19080(12)
N2 N 0.4617(4) 0.36955(18) 0.14373(14)
C1 C 0.5634(4) 0.4185(2) 0.33906(16)
C2 C 0.5502(5) 0.4014(2) 0.21176(17)
C3 C 0.3026(5) 0.3338(2) 0.25800(15)
C4 C 0.4676(5) 0.3845(2) 0.26752(15)
C5 C -0.0782(5) 0.1966(2) 0.29644(18)
C6 C 0.2030(4) 0.3016(2) 0.30624(15)
C7 C 0.0669(5) 0.2477(2) 0.19772(16)
C8 C 0.2391(5) 0.3233(2) 0.38340(16)
H1 H 0.1280 0.3063 0.3993
H2 H 0.2575 0.3828 0.3895
H3 H 0.3550 0.2948 0.4107
C9 C 0.0586(4) 0.2476(2) 0.26845(16)
C10 C 0.7251(5) 0.4436(2) 0.20958(19)
C11 C 0.6960(5) 0.3707(2) 0.38824(17)
H4 H 0.7253 0.3166 0.3766
C12 C -0.0111(6) 0.1499(3) 0.3576(2)
H5 H 0.1228 0.1494 0.3809
C13 C 0.7370(6) 0.4362(3) 0.1411(2)
H6 H 0.8370 0.4580 0.1239
C14 C 0.5773(6) 0.3913(3) 0.1018(2)
C15 C -0.2786(5) 0.1956(2) 0.26318(19)
H7 H -0.3285 0.2267 0.2219
C16 C 0.7853(6) 0.4025(4) 0.4545(2)
H8 H 0.8758 0.3700 0.4874
C17 C 0.6111(7) 0.5299(3) 0.4246(3)
H9 H 0.5814 0.5837 0.4368
C18 C 0.7423(7) 0.4813(5) 0.4723(3)
H10 H 0.8029 0.5022 0.5174
C19 C 0.5230(5) 0.4981(3) 0.3579(2)
H11 H 0.4343 0.5312 0.3249
C20 C -0.0563(5) 0.1991(3) 0.13561(17)
H12 H -0.1508 0.2358 0.1054
H13 H -0.1238 0.1548 0.1525
H14 H 0.0269 0.1754 0.1092
C21 C -0.4042(6) 0.1491(3) 0.2907(3)
H15 H -0.5382 0.1487 0.2675
C22 C 0.8734(5) 0.4888(3) 0.26721(19)
H16 H 0.9790 0.5082 0.2492
H17 H 0.9246 0.4513 0.3064
H18 H 0.8117 0.5358 0.2830
C23 C -0.1390(8) 0.1035(3) 0.3852(2)
H19 H -0.0909 0.0727 0.4267
C24 C 0.5281(7) 0.3683(3) 0.02423(19)
H20 H 0.4948 0.3099 0.0186
H21 H 0.6397 0.3792 0.0066
H22 H 0.4182 0.4012 -0.0020
C25 C -0.3348(8) 0.1033(3) 0.3514(3)
H23 H -0.4211 0.0722 0.3697
B1 B 0.2753(7) 0.3168(3) 0.1231(2)
loop_
_geom_bond_atom_site_label_1
_geom_bond_atom_site_label_2
_geom_bond_site_symmetry_1
_geom_bond_site_symmetry_2
F1 B1 1_555 1_555
F2 B1 1_555 1_555
N1 C3 1_555 1_555
N2 C2 1_555 1_555
C1 C4 1_555 1_555
C2 C4 1_555 1_555
C3 C4 1_555 1_555
C5 C9 1_555 1_555
C6 C3 1_555 1_555
C7 N1 1_555 1_555
C8 C6 1_555 1_555
H1 C8 1_555 1_555
H2 C8 1_555 1_555
H3 C8 1_555 1_555
C9 C6 1_555 1_555
C10 C2 1_555 1_555
C11 C1 1_555 1_555
H4 C11 1_555 1_555
C12 C5 1_555 1_555
H5 C12 1_555 1_555
C13 C10 1_555 1_555
H6 C13 1_555 1_555
C14 N2 1_555 1_555
C15 C5 1_555 1_555
H7 C15 1_555 1_555
C16 C11 1_555 1_555
H8 C16 1_555 1_555
C17 H9 1_555 1_555
C18 C16 1_555 1_555
H10 C18 1_555 1_555
C19 C1 1_555 1_555
H11 C19 1_555 1_555
C20 C7 1_555 1_555
H12 C20 1_555 1_555
H13 C20 1_555 1_555
H14 C20 1_555 1_555
C21 C15 1_555 1_555
H15 C21 1_555 1_555
C22 C10 1_555 1_555
H16 C22 1_555 1_555
H17 C22 1_555 1_555
H18 C22 1_555 1_555
C23 C12 1_555 1_555
H19 C23 1_555 1_555
C24 C14 1_555 1_555
H20 C24 1_555 1_555
H21 C24 1_555 1_555
H22 C24 1_555 1_555
C25 C21 1_555 1_555
H23 C25 1_555 1_555
B1 N1 1_555 1_555
N2 B1 1_555 1_555
C7 C9 1_555 1_555
C13 C14 1_555 1_555
C17 C18 1_555 1_555
C17 C19 1_555 1_555
C23 C25 1_555 1_555

#END
