
#######################################################################
#
#                 Cambridge Crystallographic Data Centre
#                                CCDC 
#
#######################################################################
#
# If this CIF has been generated from an entry in the Cambridge 
# Structural Database, then it will include bibliographic, chemical, 
# crystal, experimental, refinement or atomic coordinate data resulting 
# from the CCDC's data processing and validation procedures.
#
#######################################################################

data_PIFMAV01
_chemical_formula_moiety         'C25 H23 B1 F2 N2'
_chemical_name_systematic        
{2-[(3,5-dimethyl-2H-pyrrol-2-ylidene)(phenyl)methyl]-3,5-dimethyl-4-phenyl-1H-pyrrolato}(difluoro)boron
_symmetry_cell_setting           monoclinic
_symmetry_space_group_name_H-M   'P 21/c'
_symmetry_Int_Tables_number      14
_space_group_name_Hall           '-P 2ybc'
loop_
_symmetry_equiv_pos_site_id
_symmetry_equiv_pos_as_xyz
1 x,y,z
2 -x,1/2+y,1/2-z
3 -x,-y,-z
4 x,1/2-y,1/2+z
_cell_length_a                   7.0285(16)
_cell_length_b                   15.740(4)
_cell_length_c                   19.565(4)
_cell_angle_alpha                90
_cell_angle_beta                 106.019(9)
_cell_angle_gamma                90
_cell_volume                     2080.4
_exptl_crystal_colour            red
_exptl_crystal_description       Block
_cell_formula_units_Z            4
loop_
_atom_site_label
_atom_site_type_symbol
_atom_site_fract_x
_atom_site_fract_y
_atom_site_fract_z
F1 F 0.8707(3) 0.85951(17) 0.92558(11)
F2 F 0.6835(4) 0.74139(15) 0.90623(12)
N1 N 0.7849(4) 0.79916(18) 0.80868(13)
N2 N 0.5342(4) 0.87074(18) 0.85545(14)
C1 C 0.9428(5) 0.7471(2) 0.73127(17)
C2 C 0.6959(5) 0.8338(2) 0.74161(16)
C3 C 0.4309(5) 0.9184(2) 0.65958(17)
C4 C 0.5280(5) 0.8849(2) 0.73182(17)
C5 C 0.4443(5) 0.9027(2) 0.78724(17)
C6 C 1.0795(5) 0.6965(2) 0.70304(18)
C7 C 0.7947(5) 0.8016(2) 0.69307(17)
C8 C 0.9336(5) 0.7479(2) 0.80222(18)
C9 C 0.2671(5) 0.9449(2) 0.7892(2)
C10 C 0.2997(5) 0.8685(2) 0.61098(18)
H1 H 0.2713 0.8138 0.6234
C11 C 1.2819(5) 0.6942(2) 0.7371(2)
H2 H 1.3321 0.7243 0.7791
C12 C 0.4701(6) 0.9995(2) 0.6401(2)
H3 H 0.5578 1.0340 0.6726
C13 C 0.7571(5) 0.8229(2) 0.61589(16)
H4 H 0.6419 0.7930 0.5888
H5 H 0.8694 0.8064 0.6000
H6 H 0.7360 0.8829 0.6093
C14 C 1.0123(6) 0.6495(2) 0.6411(2)
H7 H 0.8776 0.6490 0.6180
C15 C 0.2557(6) 0.9373(3) 0.8581(2)
H8 H 0.1544 0.9587 0.8753
C16 C 1.4087(6) 0.6472(3) 0.7088(2)
H9 H 1.5431 0.6463 0.7322
C17 C 0.4201(6) 0.8925(2) 0.8980(2)
C18 C 0.1185(5) 0.9892(2) 0.7309(2)
H10 H 0.0719 0.9510 0.6916
H11 H 0.1788 1.0378 0.7157
H12 H 0.0092 1.0073 0.7478
C19 C 1.0578(6) 0.6992(3) 0.86434(18)
H13 H 0.9751 0.6769 0.8918
H14 H 1.1555 0.7362 0.8935
H15 H 1.1225 0.6532 0.8475
C20 C 0.2103(6) 0.8991(3) 0.5441(2)
H16 H 0.1205 0.8653 0.5117
C21 C 0.3805(7) 1.0295(3) 0.5728(2)
H17 H 0.4074 1.0842 0.5601
C22 C 0.2522(7) 0.9790(4) 0.5248(2)
H18 H 0.1934 0.9987 0.4790
C23 C 1.3411(7) 0.6024(3) 0.6475(3)
H19 H 1.4284 0.5717 0.6290
C24 C 1.1398(7) 0.6032(3) 0.6128(2)
H20 H 1.0912 0.5728 0.5708
C25 C 0.4687(7) 0.8701(3) 0.9750(2)
H21 H 0.5847 0.9006 1.0006
H22 H 0.4929 0.8102 0.9807
H23 H 0.3596 0.8851 0.9932
B1 B 0.7204(7) 0.8170(3) 0.8762(2)
loop_
_geom_bond_atom_site_label_1
_geom_bond_atom_site_label_2
_geom_bond_site_symmetry_1
_geom_bond_site_symmetry_2
F1 B1 1_555 1_555
F2 B1 1_555 1_555
N1 C2 1_555 1_555
N2 C5 1_555 1_555
C1 C6 1_555 1_555
C2 C4 1_555 1_555
C3 C4 1_555 1_555
C4 C5 1_555 1_555
C5 C9 1_555 1_555
C6 C11 1_555 1_555
C7 C1 1_555 1_555
C8 N1 1_555 1_555
C9 C15 1_555 1_555
C10 C3 1_555 1_555
H1 C10 1_555 1_555
C11 H2 1_555 1_555
C12 C3 1_555 1_555
H3 C12 1_555 1_555
C13 C7 1_555 1_555
H4 C13 1_555 1_555
H5 C13 1_555 1_555
H6 C13 1_555 1_555
C14 C6 1_555 1_555
H7 C14 1_555 1_555
C15 H8 1_555 1_555
C16 C11 1_555 1_555
H9 C16 1_555 1_555
C17 N2 1_555 1_555
C18 C9 1_555 1_555
H10 C18 1_555 1_555
H11 C18 1_555 1_555
H12 C18 1_555 1_555
C19 C8 1_555 1_555
H13 C19 1_555 1_555
H14 C19 1_555 1_555
H15 C19 1_555 1_555
C20 C10 1_555 1_555
H16 C20 1_555 1_555
C21 C12 1_555 1_555
H17 C21 1_555 1_555
C22 C20 1_555 1_555
H18 C22 1_555 1_555
C23 C16 1_555 1_555
H19 C23 1_555 1_555
C24 C14 1_555 1_555
H20 C24 1_555 1_555
C25 C17 1_555 1_555
H21 C25 1_555 1_555
H22 C25 1_555 1_555
H23 C25 1_555 1_555
B1 N1 1_555 1_555
N2 B1 1_555 1_555
C1 C8 1_555 1_555
C2 C7 1_555 1_555
C15 C17 1_555 1_555
C21 C22 1_555 1_555
C23 C24 1_555 1_555

#END
