
#######################################################################
#
#                 Cambridge Crystallographic Data Centre
#                                CCDC 
#
#######################################################################
#
# If this CIF has been generated from an entry in the Cambridge 
# Structural Database, then it will include bibliographic, chemical, 
# crystal, experimental, refinement or atomic coordinate data resulting 
# from the CCDC's data processing and validation procedures.
#
#######################################################################

data_PIFMAV
_chemical_formula_moiety         'C25 H23 B1 F2 N2'
_chemical_name_systematic        
{2-[(3,5-dimethyl-4-phenyl-2H-pyrrol-2-ylidene)(phenyl)methyl]-3,5-dimethyl-1H-pyrrolato}(difluoro)boron
_symmetry_cell_setting           monoclinic
_symmetry_space_group_name_H-M   'P 21/c'
_symmetry_Int_Tables_number      14
_space_group_name_Hall           '-P 2ybc'
loop_
_symmetry_equiv_pos_site_id
_symmetry_equiv_pos_as_xyz
1 x,y,z
2 -x,1/2+y,1/2-z
3 -x,-y,-z
4 x,1/2-y,1/2+z
_cell_length_a                   6.9797(4)
_cell_length_b                   15.2780(8)
_cell_length_c                   19.6333(11)
_cell_angle_alpha                90
_cell_angle_beta                 105.850(2)
_cell_angle_gamma                90
_cell_volume                     2014.01
_exptl_crystal_colour            red
_exptl_crystal_description       block
_cell_formula_units_Z            4
loop_
_atom_site_label
_atom_site_type_symbol
_atom_site_fract_x
_atom_site_fract_y
_atom_site_fract_z
F1 F 0.17464(16) 0.75934(7) 0.90344(6)
F2 F 0.36578(15) 0.63655(7) 0.92459(5)
N1 N 0.0248(2) 0.62477(9) 0.85284(7)
N2 N 0.2806(2) 0.69845(9) 0.80643(7)
C1 C 0.1886(3) 0.66375(11) 0.73938(9)
C2 C -0.0826(3) 0.58084(11) 0.65591(9)
C3 C -0.2051(3) 0.63793(12) 0.60801(9)
H1 H -0.2274 0.6955 0.6226
C4 C 0.2907(3) 0.69648(11) 0.69104(9)
C5 C 0.5823(3) 0.80320(11) 0.70203(9)
C6 C 0.9167(3) 0.85350(11) 0.70971(10)
H2 H 1.0542 0.8550 0.7344
C7 C 0.4309(3) 0.75082(11) 0.80087(9)
C8 C -0.2620(3) 0.55923(11) 0.85406(10)
H3 H -0.3681 0.5376 0.8710
C9 C -0.0662(3) 0.59367(11) 0.78452(9)
C10 C 0.2538(3) 0.67497(12) 0.61391(9)
H4 H 0.1423 0.7101 0.5861
H5 H 0.2214 0.6127 0.6064
H6 H 0.3735 0.6881 0.5989
C11 C 0.5568(3) 0.79899(12) 0.86315(9)
H7 H 0.4711 0.8301 0.8872
H8 H 0.6410 0.8412 0.8472
H9 H 0.6412 0.7574 0.8960
C12 C -0.2484(3) 0.55202(11) 0.78540(9)
C13 C -0.0532(3) 0.49647(11) 0.63392(10)
H10 H 0.0281 0.4565 0.6664
C14 C 0.5156(3) 0.84946(11) 0.63839(10)
H11 H 0.3779 0.8490 0.6138
C15 C 0.0180(3) 0.61159(10) 0.72870(9)
C16 C -0.0935(3) 0.60360(12) 0.89471(10)
C17 C 0.4403(2) 0.75199(11) 0.72985(9)
C18 C -0.2944(3) 0.61145(12) 0.53960(10)
H12 H -0.3790 0.6506 0.5074
C19 C 0.7850(3) 0.80683(11) 0.73740(10)
H13 H 0.8334 0.7769 0.7811
C20 C -0.1422(3) 0.47056(12) 0.56492(10)
H14 H -0.1211 0.4130 0.5501
C21 C 0.8486(3) 0.89789(12) 0.64614(10)
H15 H 0.9391 0.9294 0.6270
C22 C -0.2616(3) 0.52820(13) 0.51745(10)
H16 H -0.3208 0.5107 0.4699
C23 C 0.6477(3) 0.89601(12) 0.61069(10)
H17 H 0.6001 0.9267 0.5673
C24 C -0.0424(3) 0.62604(13) 0.97167(10)
H18 H 0.0738 0.5919 0.9973
H19 H -0.1557 0.6123 0.9903
H20 H -0.0118 0.6886 0.9779
C25 C -0.3993(3) 0.50806(12) 0.72621(10)
H21 H -0.3403 0.4557 0.7114
H22 H -0.4412 0.5485 0.6861
H23 H -0.5151 0.4913 0.7424
B1 B 0.2166(3) 0.68026(14) 0.87490(11)
loop_
_geom_bond_atom_site_label_1
_geom_bond_atom_site_label_2
_geom_bond_site_symmetry_1
_geom_bond_site_symmetry_2
F1 B1 1_555 1_555
F2 B1 1_555 1_555
N1 C9 1_555 1_555
N2 C1 1_555 1_555
C1 C4 1_555 1_555
C2 C3 1_555 1_555
C3 H1 1_555 1_555
C4 C10 1_555 1_555
C5 C14 1_555 1_555
C6 H2 1_555 1_555
C7 N2 1_555 1_555
C8 H3 1_555 1_555
C9 C12 1_555 1_555
C10 H4 1_555 1_555
H5 C10 1_555 1_555
H6 C10 1_555 1_555
C11 C7 1_555 1_555
H7 C11 1_555 1_555
H8 C11 1_555 1_555
H9 C11 1_555 1_555
C12 C8 1_555 1_555
C13 C2 1_555 1_555
H10 C13 1_555 1_555
C14 H11 1_555 1_555
C15 C1 1_555 1_555
C16 N1 1_555 1_555
C17 C4 1_555 1_555
C18 C3 1_555 1_555
H12 C18 1_555 1_555
C19 C5 1_555 1_555
H13 C19 1_555 1_555
C20 C13 1_555 1_555
H14 C20 1_555 1_555
C21 C6 1_555 1_555
H15 C21 1_555 1_555
C22 C18 1_555 1_555
H16 C22 1_555 1_555
C23 C14 1_555 1_555
H17 C23 1_555 1_555
C24 C16 1_555 1_555
H18 C24 1_555 1_555
H19 C24 1_555 1_555
H20 C24 1_555 1_555
C25 C12 1_555 1_555
H21 C25 1_555 1_555
H22 C25 1_555 1_555
H23 C25 1_555 1_555
B1 N1 1_555 1_555
N2 B1 1_555 1_555
C2 C15 1_555 1_555
C5 C17 1_555 1_555
C6 C19 1_555 1_555
C7 C17 1_555 1_555
C8 C16 1_555 1_555
C9 C15 1_555 1_555
C20 C22 1_555 1_555
C21 C23 1_555 1_555

#END
