
#######################################################################
#
#                 Cambridge Crystallographic Data Centre
#                                CCDC 
#
#######################################################################
#
# If this CIF has been generated from an entry in the Cambridge 
# Structural Database, then it will include bibliographic, chemical, 
# crystal, experimental, refinement or atomic coordinate data resulting 
# from the CCDC's data processing and validation procedures.
#
#######################################################################

data_PIFMOH
_chemical_formula_moiety         'C24 H24 O4'
_chemical_name_systematic        
rac-5,6'-Dimethyl-2,2'-(bi-1H-indene)-3,3'-diethyl-3,3'-dihydroxy-1,1'-dione
_symmetry_cell_setting           monoclinic
_symmetry_space_group_name_H-M   'P 21/c'
_symmetry_Int_Tables_number      14
_space_group_name_Hall           '-P 2ybc'
loop_
_symmetry_equiv_pos_site_id
_symmetry_equiv_pos_as_xyz
1 x,y,z
2 -x,1/2+y,1/2-z
3 -x,-y,-z
4 x,1/2-y,1/2+z
_cell_length_a                   9.613(4)
_cell_length_b                   7.581(3)
_cell_length_c                   14.978(5)
_cell_angle_alpha                90
_cell_angle_beta                 110.38(2)
_cell_angle_gamma                90
_cell_volume                     1023.21
_exptl_crystal_colour            yellow
_exptl_crystal_description       sheet
_chemical_melting_point          173-178deg.C
_cell_formula_units_Z            2
_exptl_crystal_recrystallization_method ethanol/acetone
loop_
_atom_site_label
_atom_site_type_symbol
_atom_site_fract_x
_atom_site_fract_y
_atom_site_fract_z
O1 O 0.2167(3) -0.1065(4) 0.4730(3)
H1 H 0.2650 -0.1947 0.4963
O2 O 0.5496(4) 0.3107(5) 0.4303(3)
C1 C 0.4466(4) 0.0606(6) 0.4918(3)
C2 C 0.3011(4) 0.0482(6) 0.5135(3)
C3 C 0.2130(5) 0.2027(7) 0.4582(4)
C4 C 0.2955(5) 0.3097(7) 0.4222(3)
C5 C 0.2357(6) 0.4617(7) 0.3688(4)
H2 H 0.2928 0.5335 0.3448
C6 C 0.4452(5) 0.2402(6) 0.4450(3)
C7 C 0.0649(5) 0.2437(8) 0.4431(5)
H3 H 0.0085 0.1741 0.4688
C8 C 0.0035(6) 0.3935(10) 0.3878(6)
C9 C 0.0883(7) 0.5004(8) 0.3536(5)
C10 C 0.3265(6) 0.0610(8) 0.6197(4)
H4 H 0.2310 0.0722 0.6278
H5 H 0.3716 -0.0480 0.6502
C11 C 0.4236(7) 0.2132(10) 0.6696(4)
H6 H 0.5216 0.1973 0.6676
H7 H 0.4286 0.2178 0.7347
H8 H 0.3825 0.3215 0.6382
C12 C 0.0020(12) 0.6519(12) 0.3023(7)
H9 H -0.0734 0.6119 0.2450
H10 H 0.0667 0.7329 0.2865
H11 H -0.0436 0.7102 0.3420
O1B O 0.7833(3) 0.1065(4) 0.5270(3)
H1B H 0.7350 0.1947 0.5037
O2B O 0.4504(4) -0.3107(5) 0.5697(3)
C1B C 0.5534(4) -0.0606(6) 0.5082(3)
C2B C 0.6989(4) -0.0482(6) 0.4865(3)
C3B C 0.7870(5) -0.2027(7) 0.5418(4)
C4B C 0.7045(5) -0.3097(7) 0.5778(3)
C5B C 0.7643(6) -0.4617(7) 0.6312(4)
H2B H 0.7072 -0.5335 0.6552
C6B C 0.5548(5) -0.2402(6) 0.5550(3)
C7B C 0.9351(5) -0.2437(8) 0.5569(5)
H3B H 0.9915 -0.1741 0.5312
C8B C 0.9965(6) -0.3935(10) 0.6122(6)
C9B C 0.9117(7) -0.5004(8) 0.6464(5)
C10B C 0.6735(6) -0.0610(8) 0.3803(4)
H4B H 0.7690 -0.0722 0.3722
H5B H 0.6284 0.0480 0.3498
C11B C 0.5764(7) -0.2132(10) 0.3304(4)
H6B H 0.4784 -0.1973 0.3324
H7B H 0.5714 -0.2178 0.2653
H8B H 0.6175 -0.3215 0.3618
C12B C 0.9980(12) -0.6519(12) 0.6977(7)
H9B H 1.0734 -0.6119 0.7550
H10B H 0.9333 -0.7329 0.7135
H11B H 1.0436 -0.7102 0.6580
C13? C -0.1585(10) 0.4505(18) 0.3417(10)
H12? H -0.1625 0.5669 0.3158
H13? H -0.2053 0.4508 0.3889
H14? H -0.2094 0.3696 0.2917
loop_
_geom_bond_atom_site_label_1
_geom_bond_atom_site_label_2
_geom_bond_site_symmetry_1
_geom_bond_site_symmetry_2
O1 H1 1_555 1_555
O2 C6 1_555 1_555
C1 C2 1_555 1_555
C2 O1 1_555 1_555
C3 C2 1_555 1_555
C4 C3 1_555 1_555
C5 C4 1_555 1_555
H2 C5 1_555 1_555
C6 C1 1_555 1_555
C7 C3 1_555 1_555
H3 C7 1_555 1_555
C8 C7 1_555 1_555
C9 C5 1_555 1_555
C10 C2 1_555 1_555
H4 C10 1_555 1_555
H5 C10 1_555 1_555
C11 C10 1_555 1_555
H6 C11 1_555 1_555
H7 C11 1_555 1_555
H8 C11 1_555 1_555
C12 C9 1_555 1_555
H9 C12 1_555 1_555
H10 C12 1_555 1_555
H11 C12 1_555 1_555
O1B H1B 1_555 1_555
O2B C6B 1_555 1_555
C1B C1 1_555 1_555
C2B O1B 1_555 1_555
C3B C2B 1_555 1_555
C4B C3B 1_555 1_555
C5B C4B 1_555 1_555
H2B C5B 1_555 1_555
C6B C1B 1_555 1_555
C7B C3B 1_555 1_555
H3B C7B 1_555 1_555
C8B C7B 1_555 1_555
C9B C5B 1_555 1_555
C10B C2B 1_555 1_555
H4B C10B 1_555 1_555
H5B C10B 1_555 1_555
C11B C10B 1_555 1_555
H6B C11B 1_555 1_555
H7B C11B 1_555 1_555
H8B C11B 1_555 1_555
C12B C9B 1_555 1_555
H9B C12B 1_555 1_555
H10B C12B 1_555 1_555
H11B C12B 1_555 1_555
C4 C6 1_555 1_555
C8 C9 1_555 1_555
C1B C2B 1_555 1_555
C4B C6B 1_555 1_555
C8B C9B 1_555 1_555

#END
