
#######################################################################
#
#                 Cambridge Crystallographic Data Centre
#                                CCDC 
#
#######################################################################
#
# If this CIF has been generated from an entry in the Cambridge 
# Structural Database, then it will include bibliographic, chemical, 
# crystal, experimental, refinement or atomic coordinate data resulting 
# from the CCDC's data processing and validation procedures.
#
#######################################################################

data_PIFVUY
_chemical_formula_moiety         'C48 H45 Br3 N6,2(C1 H2 Cl2)'
_chemical_name_systematic        
'9,25,38-tribromo-2,16,18,32,45,47-hexamethyl-5,13,21,29,34,42-hexaazaheptacyclo[15.15.11.1^3,31^.1^7,11^.1^15,19^.1^23,27^.1^36,40^]octatetraconta-1,3(45),5,7(48),8,10,12,15(47),16,18,21,23(46),24,26,28,31,34,36(44),37,39,41-henicosaene dichloromethane solvate'
_symmetry_cell_setting           hexagonal
_symmetry_space_group_name_H-M   'P -6'
_symmetry_Int_Tables_number      174
_space_group_name_Hall           'P -6'
loop_
_symmetry_equiv_pos_site_id
_symmetry_equiv_pos_as_xyz
1 x,y,z
2 -x+y,-x,-z
3 -y,x-y,z
4 x,y,-z
5 -x+y,-x,z
6 -y,x-y,-z
_cell_length_a                   16.1857(6)
_cell_length_b                   16.1857(6)
_cell_length_c                   16.6104(7)
_cell_angle_alpha                90
_cell_angle_beta                 90
_cell_angle_gamma                120
_cell_volume                     3768.54
_exptl_crystal_colour            colorless
_exptl_crystal_description       hexagonal
_cell_formula_units_Z            3
loop_
_atom_site_label
_atom_site_type_symbol
_atom_site_fract_x
_atom_site_fract_y
_atom_site_fract_z
Br1 Br 0.5269(3) 0.5337(3) 0.5000
N1 N 0.7503(10) 0.8112(11) 0.2833(9)
C1 C 0.8581(16) 1.0634(19) 0.2192(13)
H1 H 0.8518 1.0846 0.1654
H2 H 0.8802 1.1167 0.2571
H3 H 0.7960 1.0112 0.2368
C2 C 0.7896(11) 0.8436(11) 0.3510(10)
H4 H 0.8500 0.9004 0.3526
C3 C 0.7439(10) 0.7956(11) 0.4274(10)
C4 C 0.9025(13) 0.9331(14) 0.2134(9)
C5 C 0.7834(15) 0.8428(14) 0.5000
H5 H 0.8362 0.9061 0.5000
C6 C 0.6671(12) 0.7042(11) 0.4287(11)
H6 H 0.6405 0.6716 0.3796
C7 C 0.6293(16) 0.6606(18) 0.5000
C8 C 0.9312(13) 1.0281(14) 0.2163(9)
C9 C 0.8000(13) 0.8616(16) 0.2072(11)
H7 H 0.7928 0.8128 0.1675
H8 H 0.7665 0.8937 0.1852
Br1B Br 1.4663(3) 0.9932(4) 0.5000
N1B N 1.1888(11) 0.9391(15) 0.2833(9)
C1B C 0.9366(19) 0.7947(25) 0.2192(13)
H1B H 0.9154 0.7672 0.1654
H2B H 0.8833 0.7635 0.2571
H3B H 0.9888 0.7848 0.2368
C2B C 1.1564(11) 0.9460(16) 0.3510(10)
H4B H 1.0996 0.9496 0.3526
C3B C 1.2044(11) 0.9483(15) 0.4274(10)
C4B C 1.0669(14) 0.9694(19) 0.2134(9)
C5B C 1.1572(14) 0.9406(21) 0.5000
H5B H 1.0939 0.9301 0.5000
C6B C 1.2958(11) 0.9629(16) 0.4287(11)
H6B H 1.3284 0.9689 0.3796
C7B C 1.3394(18) 0.9687(24) 0.5000
C8B C 0.9719(14) 0.9031(19) 0.2163(9)
C9B C 1.1384(16) 0.9384(21) 0.2072(11)
H7B H 1.1872 0.9800 0.1675
H8B H 1.1063 0.8728 0.1852
N1C N 0.7503(10) 0.8112(11) 0.7167(9)
C1C C 0.8581(16) 1.0634(19) 0.7808(13)
H1C H 0.8518 1.0846 0.8346
H2C H 0.8802 1.1167 0.7429
H3C H 0.7960 1.0112 0.7632
C2C C 0.7896(11) 0.8436(11) 0.6490(10)
H4C H 0.8500 0.9004 0.6474
C3C C 0.7439(10) 0.7956(11) 0.5726(10)
C4C C 0.9025(13) 0.9331(14) 0.7866(9)
C6C C 0.6671(12) 0.7042(11) 0.5713(11)
H6C H 0.6405 0.6716 0.6204
C8C C 0.9312(13) 1.0281(14) 0.7837(9)
C9C C 0.8000(13) 0.8616(16) 0.7928(11)
H7C H 0.7928 0.8128 0.8325
H8C H 0.7665 0.8937 0.8148
Br1A Br 1.0068(4) 1.4731(3) 0.5000
N1D N 1.0609(15) 1.2497(10) 0.2833(9)
C1D C 1.2053(25) 1.1419(16) 0.2192(13)
H1D H 1.2328 1.1482 0.1654
H2D H 1.2365 1.1198 0.2571
H3D H 1.2152 1.2040 0.2368
C2D C 1.0540(16) 1.2104(11) 0.3510(10)
H4D H 1.0504 1.1500 0.3526
C3D C 1.0517(15) 1.2561(10) 0.4274(10)
C4D C 1.0306(19) 1.0975(13) 0.2134(9)
C5A C 1.0594(21) 1.2166(15) 0.5000
H5A H 1.0699 1.1638 0.5000
C6D C 1.0371(16) 1.3329(12) 0.4287(11)
H6D H 1.0311 1.3595 0.3796
C7A C 1.0313(24) 1.3707(16) 0.5000
C8D C 1.0969(19) 1.0688(13) 0.2163(9)
C9D C 1.0616(21) 1.2000(13) 0.2072(11)
H7D H 1.0200 1.2072 0.1675
H8D H 1.1272 1.2335 0.1852
N1E N 1.1888(11) 0.9391(15) 0.7167(9)
C1E C 0.9366(19) 0.7947(25) 0.7808(13)
H1E H 0.9154 0.7672 0.8346
H2E H 0.8833 0.7635 0.7429
H3E H 0.9888 0.7848 0.7632
C2E C 1.1564(11) 0.9460(16) 0.6490(10)
H4E H 1.0996 0.9496 0.6474
C3E C 1.2044(11) 0.9483(15) 0.5726(10)
C4E C 1.0669(14) 0.9694(19) 0.7866(9)
C6E C 1.2958(11) 0.9629(16) 0.5713(11)
H6E H 1.3284 0.9689 0.6204
C8E C 0.9719(14) 0.9031(19) 0.7837(9)
C9E C 1.1384(16) 0.9384(21) 0.7928(11)
H7E H 1.1872 0.9800 0.8325
H8E H 1.1063 0.8728 0.8148
N1A N 1.0609(15) 1.2497(10) 0.7167(9)
C1A C 1.2053(25) 1.1419(16) 0.7808(13)
H1A H 1.2328 1.1482 0.8346
H2A H 1.2365 1.1198 0.7429
H3A H 1.2152 1.2040 0.7632
C2A C 1.0540(16) 1.2104(11) 0.6490(10)
H4A H 1.0504 1.1500 0.6474
C3A C 1.0517(15) 1.2561(10) 0.5726(10)
C4A C 1.0306(19) 1.0975(13) 0.7866(9)
C6A C 1.0371(16) 1.3329(12) 0.5713(11)
H6A H 1.0311 1.3595 0.6204
C8A C 1.0969(19) 1.0688(13) 0.7837(9)
C9A C 1.0616(21) 1.2000(13) 0.7928(11)
H7A H 1.0200 1.2072 0.8325
H8A H 1.1272 1.2335 0.8148
Br2 Br 0.6526(4) 0.8000(3) 0.0000
N2 N 0.6841(9) 0.5658(9) 0.2158(7)
C10 C 0.6849(12) 0.5286(10) 0.1513(7)
H9 H 0.6877 0.4713 0.1510
C11 C 0.6834(16) 0.5212(12) 0.2942(8)
H10 H 0.6306 0.5172 0.3273
H11 H 0.7437 0.5638 0.3227
C12 C 0.6691(11) 0.6499(9) 0.0720(7)
H12 H 0.6632 0.6767 0.1210
C13 C 0.6650(19) 0.6888(16) 0.0000
C14 C 0.8593(13) 0.5054(15) 0.2870(10)
H13 H 0.8529 0.5590 0.2674
H14 H 0.9017 0.4955 0.2511
H15 H 0.8863 0.5195 0.3415
C15 C 0.6859(17) 0.5314(18) 0.0000
H16 H 0.6917 0.4758 0.0000
C16 C 0.6721(13) 0.4219(10) 0.2894(7)
C17 C 0.6816(10) 0.5733(10) 0.0733(7)
C18 C 0.7596(11) 0.4137(12) 0.2889(6)
Br2B Br 0.2000(3) -0.1474(5) 0.0000
N2B N 0.4342(9) 0.1183(13) 0.2158(7)
C10B C 0.4714(10) 0.1563(16) 0.1513(7)
H9B H 0.5287 0.2164 0.1510
C11B C 0.4788(12) 0.1622(20) 0.2942(8)
H10B H 0.4828 0.1134 0.3273
H11B H 0.4362 0.1799 0.3227
C12B C 0.3501(9) 0.0192(14) 0.0720(7)
H12B H 0.3233 -0.0135 0.1210
C13B C 0.3112(16) -0.0238(25) 0.0000
C14B C 0.4946(15) 0.3539(20) 0.2870(10)
H13B H 0.4410 0.2939 0.2674
H14B H 0.5045 0.4062 0.2511
H15B H 0.4805 0.3668 0.3415
C15B C 0.4686(18) 0.1545(25) 0.0000
H16B H 0.5242 0.2159 0.0000
C16B C 0.5781(10) 0.2502(16) 0.2894(7)
C17B C 0.4267(10) 0.1083(14) 0.0733(7)
C18B C 0.5863(12) 0.3459(16) 0.2889(6)
N2C N 0.6841(9) 0.5658(9) -0.2158(7)
C10C C 0.6849(12) 0.5286(10) -0.1513(7)
H9C H 0.6877 0.4713 -0.1510
C11C C 0.6834(16) 0.5212(12) -0.2942(8)
H10C H 0.6306 0.5172 -0.3273
H11C H 0.7437 0.5638 -0.3227
C12C C 0.6691(11) 0.6499(9) -0.0720(7)
H12C H 0.6632 0.6767 -0.1210
C14C C 0.8593(13) 0.5054(15) -0.2870(10)
H13C H 0.8529 0.5590 -0.2674
H14C H 0.9017 0.4955 -0.2511
H15C H 0.8863 0.5195 -0.3415
C16C C 0.6721(13) 0.4219(10) -0.2894(7)
C17C C 0.6816(10) 0.5733(10) -0.0733(7)
C18C C 0.7596(11) 0.4137(12) -0.2889(6)
Br2A Br 1.1474(5) 0.3474(4) 0.0000
N2D N 0.8817(13) 0.3159(9) 0.2158(7)
C10D C 0.8437(16) 0.3151(12) 0.1513(7)
H9D H 0.7836 0.3123 0.1510
C11D C 0.8378(20) 0.3166(16) 0.2942(8)
H10D H 0.8866 0.3694 0.3273
H11D H 0.8201 0.2563 0.3227
C12D C 0.9808(14) 0.3309(11) 0.0720(7)
H12D H 1.0135 0.3368 0.1210
C13A C 1.0238(25) 0.3350(19) 0.0000
C14D C 0.6461(20) 0.1407(13) 0.2870(10)
H13D H 0.7061 0.1471 0.2674
H14D H 0.5938 0.0983 0.2511
H15D H 0.6332 0.1137 0.3415
C15A C 0.8455(25) 0.3141(17) 0.0000
H16A H 0.7841 0.3083 0.0000
C16D C 0.7498(16) 0.3279(13) 0.2894(7)
C17D C 0.8917(14) 0.3184(10) 0.0733(7)
C18D C 0.6541(16) 0.2404(11) 0.2889(6)
N2E N 0.4342(9) 0.1183(13) -0.2158(7)
C10E C 0.4714(10) 0.1563(16) -0.1513(7)
H9E H 0.5287 0.2164 -0.1510
C11E C 0.4788(12) 0.1622(20) -0.2942(8)
H10E H 0.4828 0.1134 -0.3273
H11E H 0.4362 0.1799 -0.3227
C12E C 0.3501(9) 0.0192(14) -0.0720(7)
H12E H 0.3233 -0.0135 -0.1210
C14E C 0.4946(15) 0.3539(20) -0.2870(10)
H13E H 0.4410 0.2939 -0.2674
H14E H 0.5045 0.4062 -0.2511
H15E H 0.4805 0.3668 -0.3415
C16E C 0.5781(10) 0.2502(16) -0.2894(7)
C17E C 0.4267(10) 0.1083(14) -0.0733(7)
C18E C 0.5863(12) 0.3459(16) -0.2889(6)
N2A N 0.8817(13) 0.3159(9) -0.2158(7)
C10A C 0.8437(16) 0.3151(12) -0.1513(7)
H9A H 0.7836 0.3123 -0.1510
C11A C 0.8378(20) 0.3166(16) -0.2942(8)
H10A H 0.8866 0.3694 -0.3273
H11A H 0.8201 0.2563 -0.3227
C12A C 0.9808(14) 0.3309(11) -0.0720(7)
H12A H 1.0135 0.3368 -0.1210
C14A C 0.6461(20) 0.1407(13) -0.2870(10)
H13A H 0.7061 0.1471 -0.2674
H14A H 0.5938 0.0983 -0.2511
H15A H 0.6332 0.1137 -0.3415
C16A C 0.7498(16) 0.3279(13) -0.2894(7)
C17A C 0.8917(14) 0.3184(10) -0.0733(7)
C18A C 0.6541(16) 0.2404(11) -0.2889(6)
Br3 Br 0.8090(3) 1.1408(3) 0.5000
N3 N 0.5802(9) 0.8701(10) 0.2842(7)
C19 C 0.4859(11) 0.6200(13) 0.2189(9)
H17 H 0.5228 0.6387 0.1688
H18 H 0.4570 0.5510 0.2266
H19 H 0.5282 0.6535 0.2643
C20 C 0.7071(14) 1.0150(17) 0.5000
C21 C 0.5478(13) 0.8294(14) 0.5000
H20 H 0.4937 0.7669 0.5000
C22 C 0.6672(11) 0.9691(10) 0.4254(8)
H21 H 0.6932 1.0007 0.3758
C23 C 0.5333(11) 0.8208(13) 0.2095(8)
H22 H 0.5717 0.7947 0.1860
H23 H 0.5366 0.8695 0.1714
C24 C 0.4275(11) 0.7382(12) 0.2122(8)
C25 C 0.4063(11) 0.6464(13) 0.2141(7)
C26 C 0.5888(10) 0.8766(10) 0.4268(8)
C27 C 0.5470(12) 0.8312(11) 0.3510(8)
H24 H 0.4920 0.7694 0.3517
Br3B Br -0.1408(3) 0.6682(4) 0.5000
N3B N 0.1299(10) 0.7101(13) 0.2842(7)
C19B C 0.3800(13) 0.8659(17) 0.2189(9)
H17B H 0.3613 0.8841 0.1688
H18B H 0.4490 0.9060 0.2266
H19B H 0.3465 0.8747 0.2643
C20B C -0.0150(17) 0.6921(22) 0.5000
C21B C 0.1706(14) 0.7184(19) 0.5000
H20B H 0.2331 0.7268 0.5000
C22B C 0.0309(10) 0.6981(15) 0.4254(8)
H21B H -0.0007 0.6925 0.3758
C23B C 0.1792(13) 0.7125(17) 0.2095(8)
H22B H 0.2053 0.7770 0.1860
H23B H 0.1305 0.6671 0.1714
C24B C 0.2618(12) 0.6893(16) 0.2122(8)
C25B C 0.3536(13) 0.7599(17) 0.2141(7)
C26B C 0.1234(10) 0.7122(14) 0.4268(8)
C27B C 0.1688(11) 0.7158(16) 0.3510(8)
H24B H 0.2306 0.7226 0.3517
N3C N 0.5802(9) 0.8701(10) 0.7158(7)
C19C C 0.4859(11) 0.6200(13) 0.7811(9)
H17C H 0.5228 0.6387 0.8312
H18C H 0.4570 0.5510 0.7734
H19C H 0.5282 0.6535 0.7357
C22C C 0.6672(11) 0.9691(10) 0.5746(8)
H21C H 0.6932 1.0007 0.6242
C23C C 0.5333(11) 0.8208(13) 0.7905(8)
H22C H 0.5717 0.7947 0.8140
H23C H 0.5366 0.8695 0.8286
C24C C 0.4275(11) 0.7382(12) 0.7878(8)
C25C C 0.4063(11) 0.6464(13) 0.7859(7)
C26C C 0.5888(10) 0.8766(10) 0.5732(8)
C27C C 0.5470(12) 0.8312(11) 0.6490(8)
H24C H 0.4920 0.7694 0.6483
Br3A Br 0.3318(4) 0.1910(3) 0.5000
N3D N 0.2899(13) 0.4198(9) 0.2842(7)
C19D C 0.1341(17) 0.5141(11) 0.2189(9)
H17D H 0.1159 0.4772 0.1688
H18D H 0.0940 0.5430 0.2266
H19D H 0.1253 0.4718 0.2643
C20A C 0.3079(22) 0.2929(14) 0.5000
C21A C 0.2816(19) 0.4522(13) 0.5000
H20A H 0.2732 0.5063 0.5000
C22D C 0.3019(15) 0.3328(11) 0.4254(8)
H21D H 0.3075 0.3068 0.3758
C23D C 0.2875(17) 0.4667(11) 0.2095(8)
H22D H 0.2230 0.4283 0.1860
H23D H 0.3329 0.4634 0.1714
C24D C 0.3107(16) 0.5725(11) 0.2122(8)
C25D C 0.2401(17) 0.5937(11) 0.2141(7)
C26D C 0.2878(14) 0.4112(10) 0.4268(8)
C27D C 0.2842(16) 0.4530(12) 0.3510(8)
H24D H 0.2774 0.5080 0.3517
N3E N 0.1299(10) 0.7101(13) 0.7158(7)
C19E C 0.3800(13) 0.8659(17) 0.7811(9)
H17E H 0.3613 0.8841 0.8312
H18E H 0.4490 0.9060 0.7734
H19E H 0.3465 0.8747 0.7357
C22E C 0.0309(10) 0.6981(15) 0.5746(8)
H21E H -0.0007 0.6925 0.6242
C23E C 0.1792(13) 0.7125(17) 0.7905(8)
H22E H 0.2053 0.7770 0.8140
H23E H 0.1305 0.6671 0.8286
C24E C 0.2618(12) 0.6893(16) 0.7878(8)
C25E C 0.3536(13) 0.7599(17) 0.7859(7)
C26E C 0.1234(10) 0.7122(14) 0.5732(8)
C27E C 0.1688(11) 0.7158(16) 0.6490(8)
H24E H 0.2306 0.7226 0.6483
N3A N 0.2899(13) 0.4198(9) 0.7158(7)
C19A C 0.1341(17) 0.5141(11) 0.7811(9)
H17A H 0.1159 0.4772 0.8312
H18A H 0.0940 0.5430 0.7734
H19A H 0.1253 0.4718 0.7357
C22A C 0.3019(15) 0.3328(11) 0.5746(8)
H21A H 0.3075 0.3068 0.6242
C23A C 0.2875(17) 0.4667(11) 0.7905(8)
H22A H 0.2230 0.4283 0.8140
H23A H 0.3329 0.4634 0.8286
C24A C 0.3107(16) 0.5725(11) 0.7878(8)
C25A C 0.2401(17) 0.5937(11) 0.7859(7)
C26A C 0.2878(14) 0.4112(10) 0.5732(8)
C27A C 0.2842(16) 0.4530(12) 0.6490(8)
H24A H 0.2774 0.5080 0.6483
Cl1 Cl 0.6497(9) 1.0643(7) 0.0862(4)
C28 C 0.706(4) 1.054(6) 0.0000
H25 H 0.7736 1.1041 0.0000
H26 H 0.7024 0.9910 0.0000
Cl1C Cl 0.6497(9) 1.0643(7) -0.0862(4)
C29? C 0.3333 0.6667 0.0000
Cl2? Cl 0.2084(10) 0.618(2) 0.0000
Cl3? Cl 0.6109(16) 0.4006(14) 0.5000
C30? C 0.6667 0.3333 0.5000
Cl4? Cl 0.9247(18) 0.8748(10) 0.0000
C31? C 1.0000 1.0000 0.0000
loop_
_geom_bond_atom_site_label_1
_geom_bond_atom_site_label_2
_geom_bond_site_symmetry_1
_geom_bond_site_symmetry_2
Br1 C7 1_555 1_555
N1 C2 1_555 1_555
C1 H1 1_555 1_555
H2 C1 1_555 1_555
H3 C1 1_555 1_555
C2 H4 1_555 1_555
C3 C2 1_555 1_555
C4 C8 1_555 1_555
C5 C3 1_555 1_555
H5 C5 1_555 1_555
C6 C3 1_555 1_555
H6 C6 1_555 1_555
C7 C6 1_555 1_555
C8 C1 1_555 1_555
C9 N1 1_555 1_555
H7 C9 1_555 1_555
H8 C9 1_555 1_555
Br2 C13 1_555 1_555
N2 C10 1_555 1_555
C10 H9 1_555 1_555
C11 N2 1_555 1_555
H10 C11 1_555 1_555
H11 C11 1_555 1_555
C12 H12 1_555 1_555
C13 C12 1_555 1_555
C14 H13 1_555 1_555
H14 C14 1_555 1_555
H15 C14 1_555 1_555
C15 H16 1_555 1_555
C16 C11 1_555 1_555
C17 C10 1_555 1_555
C18 C14 1_555 1_555
Br3 C20 1_555 1_555
N3 C23 1_555 1_555
C19 H17 1_555 1_555
H18 C19 1_555 1_555
H19 C19 1_555 1_555
C20 C22 1_555 1_555
C21 H20 1_555 1_555
C22 H21 1_555 1_555
C23 H22 1_555 1_555
H23 C23 1_555 1_555
C24 C23 1_555 1_555
C25 C19 1_555 1_555
C26 C21 1_555 1_555
C27 N3 1_555 1_555
H24 C27 1_555 1_555
Cl1 C28 1_555 1_555
C28 H25 1_555 1_555
H26 C28 1_555 1_555
Br1B C7B 1_555 1_555
N1B C2B 1_555 1_555
C1B H1B 1_555 1_555
H2B C1B 1_555 1_555
H3B C1B 1_555 1_555
C2B H4B 1_555 1_555
C3B C2B 1_555 1_555
C4B C8B 1_555 1_555
C5B C3B 1_555 1_555
H5B C5B 1_555 1_555
C6B C3B 1_555 1_555
H6B C6B 1_555 1_555
C7B C6B 1_555 1_555
C8B C4 1_555 1_555
C9B N1B 1_555 1_555
H7B C9B 1_555 1_555
H8B C9B 1_555 1_555
N1C C2C 1_555 1_555
C1C H1C 1_555 1_555
H2C C1C 1_555 1_555
H3C C1C 1_555 1_555
C2C H4C 1_555 1_555
C3C C5 1_555 1_555
C4C C8C 1_555 1_555
C6C C7 1_555 1_555
H6C C6C 1_555 1_555
C8C C1C 1_555 1_555
C9C N1C 1_555 1_555
H7C C9C 1_555 1_555
H8C C9C 1_555 1_555
Br1A C7A 1_555 1_555
N1D C2D 1_555 1_555
C1D H1D 1_555 1_555
H2D C1D 1_555 1_555
H3D C1D 1_555 1_555
C2D H4D 1_555 1_555
C3D C2D 1_555 1_555
C4D C8 1_555 1_555
C5A C3D 1_555 1_555
H5A C5A 1_555 1_555
C6D C3D 1_555 1_555
H6D C6D 1_555 1_555
C7A C6D 1_555 1_555
C8D C4B 1_555 1_555
C9D N1D 1_555 1_555
H7D C9D 1_555 1_555
H8D C9D 1_555 1_555
N1E C2E 1_555 1_555
C1E H1E 1_555 1_555
H2E C1E 1_555 1_555
H3E C1E 1_555 1_555
C2E H4E 1_555 1_555
C3E C5B 1_555 1_555
C4E C8E 1_555 1_555
C6E C7B 1_555 1_555
H6E C6E 1_555 1_555
C8E C4C 1_555 1_555
C9E N1E 1_555 1_555
H7E C9E 1_555 1_555
H8E C9E 1_555 1_555
N1A C2A 1_555 1_555
C1A H1A 1_555 1_555
H2A C1A 1_555 1_555
H3A C1A 1_555 1_555
C2A H4A 1_555 1_555
C3A C5A 1_555 1_555
C4A C8C 1_555 1_555
C6A C7A 1_555 1_555
H6A C6A 1_555 1_555
C8A C4E 1_555 1_555
C9A N1A 1_555 1_555
H7A C9A 1_555 1_555
H8A C9A 1_555 1_555
Br2B C13B 1_555 1_555
N2B C10B 1_555 1_555
C10B H9B 1_555 1_555
C11B N2B 1_555 1_555
H10B C11B 1_555 1_555
H11B C11B 1_555 1_555
C12B H12B 1_555 1_555
C13B C12B 1_555 1_555
C14B H13B 1_555 1_555
H14B C14B 1_555 1_555
H15B C14B 1_555 1_555
C15B H16B 1_555 1_555
C16B C11B 1_555 1_555
C17B C10B 1_555 1_555
C18B C16 1_555 1_555
N2C C10C 1_555 1_555
C10C H9C 1_555 1_555
C11C N2C 1_555 1_555
H10C C11C 1_555 1_555
H11C C11C 1_555 1_555
C12C C13 1_555 1_555
H12C C12C 1_555 1_555
C14C H13C 1_555 1_555
H14C C14C 1_555 1_555
H15C C14C 1_555 1_555
C16C C11C 1_555 1_555
C17C C15 1_555 1_555
C18C C14C 1_555 1_555
Br2A C13A 1_555 1_555
N2D C10D 1_555 1_555
C10D H9D 1_555 1_555
C11D N2D 1_555 1_555
H10D C11D 1_555 1_555
H11D C11D 1_555 1_555
C12D H12D 1_555 1_555
C13A C12D 1_555 1_555
C14D H13D 1_555 1_555
H14D C14D 1_555 1_555
H15D C14D 1_555 1_555
C15A H16A 1_555 1_555
C16D C18 1_555 1_555
C17D C10D 1_555 1_555
C18D C16B 1_555 1_555
N2E C10E 1_555 1_555
C10E H9E 1_555 1_555
C11E N2E 1_555 1_555
H10E C11E 1_555 1_555
H11E C11E 1_555 1_555
C12E C13B 1_555 1_555
H12E C12E 1_555 1_555
C14E H13E 1_555 1_555
H14E C14E 1_555 1_555
H15E C14E 1_555 1_555
C16E C11E 1_555 1_555
C17E C15B 1_555 1_555
C18E C16C 1_555 1_555
N2A C10A 1_555 1_555
C10A H9A 1_555 1_555
C11A N2A 1_555 1_555
H10A C11A 1_555 1_555
H11A C11A 1_555 1_555
C12A C13A 1_555 1_555
H12A C12A 1_555 1_555
C14A H13A 1_555 1_555
H14A C14A 1_555 1_555
H15A C14A 1_555 1_555
C16A C18C 1_555 1_555
C17A C15A 1_555 1_555
C18A C16E 1_555 1_555
Br3B C20B 1_555 1_555
N3B C23B 1_555 1_555
C19B H17B 1_555 1_555
H18B C19B 1_555 1_555
H19B C19B 1_555 1_555
C20B C22B 1_555 1_555
C21B H20B 1_555 1_555
C22B H21B 1_555 1_555
C23B H22B 1_555 1_555
H23B C23B 1_555 1_555
C24B C23B 1_555 1_555
C25B C24 1_555 1_555
C26B C21B 1_555 1_555
C27B N3B 1_555 1_555
H24B C27B 1_555 1_555
N3C C23C 1_555 1_555
C19C H17C 1_555 1_555
H18C C19C 1_555 1_555
H19C C19C 1_555 1_555
C22C C20 1_555 1_555
H21C C22C 1_555 1_555
C23C H22C 1_555 1_555
H23C C23C 1_555 1_555
C24C C23C 1_555 1_555
C25C C19C 1_555 1_555
C26C C21 1_555 1_555
C27C N3C 1_555 1_555
H24C C27C 1_555 1_555
Br3A C20A 1_555 1_555
N3D C23D 1_555 1_555
C19D H17D 1_555 1_555
H18D C19D 1_555 1_555
H19D C19D 1_555 1_555
C20A C22D 1_555 1_555
C21A H20A 1_555 1_555
C22D H21D 1_555 1_555
C23D H22D 1_555 1_555
H23D C23D 1_555 1_555
C24D C25 1_555 1_555
C25D C24B 1_555 1_555
C26D C21A 1_555 1_555
C27D N3D 1_555 1_555
H24D C27D 1_555 1_555
N3E C23E 1_555 1_555
C19E H17E 1_555 1_555
H18E C19E 1_555 1_555
H19E C19E 1_555 1_555
C22E C20B 1_555 1_555
H21E C22E 1_555 1_555
C23E H22E 1_555 1_555
H23E C23E 1_555 1_555
C24E C23E 1_555 1_555
C25E C24C 1_555 1_555
C26E C21B 1_555 1_555
C27E N3E 1_555 1_555
H24E C27E 1_555 1_555
N3A C23A 1_555 1_555
C19A H17A 1_555 1_555
H18A C19A 1_555 1_555
H19A C19A 1_555 1_555
C22A C20A 1_555 1_555
H21A C22A 1_555 1_555
C23A H22A 1_555 1_555
H23A C23A 1_555 1_555
C24A C25C 1_555 1_555
C25A C24E 1_555 1_555
C26A C21A 1_555 1_555
C27A N3A 1_555 1_555
H24A C27A 1_555 1_555
Cl1C C28 1_555 1_555
C4 C9 1_555 1_555
C12 C17 1_555 1_555
C15 C17 1_555 1_555
C16 C18 1_555 1_555
C22 C26 1_555 1_555
C24 C25 1_555 1_555
C26 C27 1_555 1_555
C1B C8B 1_555 1_555
C4B C9B 1_555 1_555
C2C C3C 1_555 1_555
C3C C6C 1_555 1_555
C4C C9C 1_555 1_555
C1D C8D 1_555 1_555
C4D C8D 1_555 1_555
C4D C9D 1_555 1_555
C1E C8E 1_555 1_555
C2E C3E 1_555 1_555
C3E C6E 1_555 1_555
C4E C9E 1_555 1_555
C1A C8A 1_555 1_555
C2A C3A 1_555 1_555
C3A C6A 1_555 1_555
C4A C8A 1_555 1_555
C4A C9A 1_555 1_555
C12B C17B 1_555 1_555
C14B C18B 1_555 1_555
C15B C17B 1_555 1_555
C16B C18B 1_555 1_555
C10C C17C 1_555 1_555
C12C C17C 1_555 1_555
C16C C18C 1_555 1_555
C11D C16D 1_555 1_555
C12D C17D 1_555 1_555
C14D C18D 1_555 1_555
C15A C17D 1_555 1_555
C16D C18D 1_555 1_555
C10E C17E 1_555 1_555
C12E C17E 1_555 1_555
C14E C18E 1_555 1_555
C16E C18E 1_555 1_555
C10A C17A 1_555 1_555
C11A C16A 1_555 1_555
C12A C17A 1_555 1_555
C14A C18A 1_555 1_555
C16A C18A 1_555 1_555
C19B C25B 1_555 1_555
C22B C26B 1_555 1_555
C24B C25B 1_555 1_555
C26B C27B 1_555 1_555
C22C C26C 1_555 1_555
C24C C25C 1_555 1_555
C26C C27C 1_555 1_555
C19D C25D 1_555 1_555
C22D C26D 1_555 1_555
C23D C24D 1_555 1_555
C24D C25D 1_555 1_555
C26D C27D 1_555 1_555
C19E C25E 1_555 1_555
C22E C26E 1_555 1_555
C24E C25E 1_555 1_555
C26E C27E 1_555 1_555
C19A C25A 1_555 1_555
C22A C26A 1_555 1_555
C23A C24A 1_555 1_555
C24A C25A 1_555 1_555
C26A C27A 1_555 1_555

#END
