
#######################################################################
#
#                 Cambridge Crystallographic Data Centre
#                                CCDC 
#
#######################################################################
#
# If this CIF has been generated from an entry in the Cambridge 
# Structural Database, then it will include bibliographic, chemical, 
# crystal, experimental, refinement or atomic coordinate data resulting 
# from the CCDC's data processing and validation procedures.
#
#######################################################################

data_PIFVEI
_chemical_formula_moiety         
'C216 H240 N24 O24,2(C1 H1 Cl3),18.5(H2 O1),2(C4 H8 O1)'
_chemical_name_systematic        
'5,13,21,29,37,45,53,61,68,75,82,89(1,4)-dodecakis(2,5-dimethoxybenzena)-1,9,17,25,33,41,49,57(1,3,5)-octakis(2,4,6-trimethylbenzena)-3,7,11,15,19,23,27,31,35,39,43,47,51,55,59,63,66,70,73,77,80,84,87,91-tetracosa-azapentacyclo[47.15.7.7^9,25^.7^17,33^.7^41,57^]dononacontaphane-3,6,11,14,19,22,27,30,35,38,43,46,51,54,59,62,66,69,73,76,80,83,87,90-tetracosaene chloroform tetrahydrofuran solvate hydrate'
_symmetry_cell_setting           triclinic
_symmetry_space_group_name_H-M   'P -1'
_symmetry_Int_Tables_number      2
_space_group_name_Hall           '-P 1'
loop_
_symmetry_equiv_pos_site_id
_symmetry_equiv_pos_as_xyz
1 x,y,z
2 -x,-y,-z
_cell_length_a                   17.524(2)
_cell_length_b                   19.681(3)
_cell_length_c                   21.948(4)
_cell_angle_alpha                112.027(4)
_cell_angle_beta                 112.920(3)
_cell_angle_gamma                95.170(4)
_cell_volume                     6210.94
_exptl_crystal_colour            'light yellow'
_exptl_crystal_description       block
_cell_formula_units_Z            1
loop_
_atom_site_label
_atom_site_type_symbol
_atom_site_fract_x
_atom_site_fract_y
_atom_site_fract_z
Cl1 Cl 0.7781(8) 0.2714(9) 0.3882(6)
Cl2 Cl 0.6863(9) 0.1183(8) 0.2819(6)
Cl3 Cl 0.6723(11) 0.2354(9) 0.2368(8)
C1 C 0.6842(13) 0.2132(8) 0.3094(8)
H1 H 0.6339 0.2196 0.3198
O1 O 0.7072(17) 0.6677(18) 0.3214(15)
O2 O 0.738(2) 0.5807(17) 0.3654(17)
O3 O 0.8235(16) 0.6836(15) 0.4455(15)
O4 O 0.7596(17) 0.7628(16) 0.2706(15)
O5 O 0.4319(3) 0.5699(3) 0.4854(2)
O6 O 0.2762(3) 0.7964(3) 0.4619(3)
O7 O 0.3784(4) 0.2649(3) 0.4465(3)
O8 O 0.5930(5) 0.2768(3) 0.7153(3)
O9 O -0.0707(4) 0.1227(4) 0.0816(3)
O10 O 0.2260(5) 0.1205(4) 0.0474(4)
O11 O 0.7941(9) 0.5018(10) 0.4528(6)
O12 O 1.0158(10) 0.7471(6) 0.7018(8)
O13 O 0.4548(16) 0.6468(10) 0.0980(15)
O14 O 0.4821(8) 0.3611(5) 0.0155(7)
O15 O -0.0835(9) 0.0924(7) 0.4010(9)
O16 O 0.2147(7) 0.0276(6) 0.5559(7)
N1 N 0.1214(11) -0.0828(9) 0.3381(10)
N2 N 0.4837(4) 0.0924(4) 0.4449(4)
N3 N 0.1544(5) -0.0267(5) 0.1153(4)
N4 N 0.5241(5) 0.4660(4) 0.7174(3)
N5 N 0.4855(4) 0.7570(3) 0.6747(3)
N6 N 0.8187(5) 0.6416(5) 0.7156(4)
N7 N 0.1661(3) 0.5920(4) 0.2883(3)
N8 N 0.0022(5) 0.2695(5) 0.0159(4)
N9 N 1.0066(6) 0.5824(6) 0.4589(5)
N10 N 0.2383(4) 0.4924(5) 0.0202(4)
N11 N 0.0417(11) 0.1904(7) 0.6222(9)
N12 N 0.7016(5) 0.5275(6) 0.1393(4)
C2 C 0.0606(5) 0.4248(5) 0.0135(4)
C3 C 0.0180(5) 0.4050(5) 0.0474(4)
C4 C 0.0312(4) 0.4567(5) 0.1187(4)
C5 C 0.0851(4) 0.5307(5) 0.1515(4)
C6 C 0.1290(4) 0.5505(5) 0.1178(4)
C7 C 0.1155(5) 0.4968(5) 0.0471(4)
C8 C 0.0507(6) 0.3646(6) -0.0601(4)
H2 H 0.0458 0.3147 -0.0600
H3 H 0.1014 0.3784 -0.0664
H4 H -0.0012 0.3624 -0.1009
C9 C -0.0453(5) 0.3256(5) 0.0085(4)
H5 H -0.0848 0.3260 0.0308
H6 H -0.0804 0.3117 -0.0445
C10 C -0.0084(5) 0.4314(5) 0.1585(4)
H7 H -0.0640 0.4429 0.1481
H8 H 0.0300 0.4583 0.2118
H9 H -0.0171 0.3763 0.1417
C11 C 0.0925(4) 0.5886(5) 0.2239(4)
H10 H 0.0990 0.6396 0.2249
H11 H 0.0387 0.5751 0.2270
C12 C 0.1909(5) 0.6274(5) 0.1560(4)
H12 H 0.1611 0.6624 0.1407
H13 H 0.2383 0.6241 0.1429
H14 H 0.2139 0.6465 0.2097
C13 C 0.1611(5) 0.5202(6) 0.0084(5)
H15 H 0.1216 0.4981 -0.0453
H16 H 0.1777 0.5764 0.0284
C14 C 0.3294(3) -0.0233(3) 0.2535(3)
C15 C 0.2443(3) -0.0656(3) 0.2043(2)
C16 C 0.1956(3) -0.1013(3) 0.2265(3)
C17 C 0.2320(3) -0.0947(3) 0.2979(3)
C18 C 0.3171(3) -0.0523(3) 0.3471(2)
C19 C 0.3658(3) -0.0166(3) 0.3249(3)
C20 C 0.1782(7) -0.1333(6) 0.3205(5)
H17 H 0.2153 -0.1392 0.3646
H18 H 0.1422 -0.1845 0.2799
C21 C 0.1003(6) -0.1441(6) 0.1761(6)
H19 H 0.0771 -0.1273 0.1375
H20 H 0.0686 -0.1335 0.2053
H21 H 0.0940 -0.1990 0.1532
C22 C 0.2069(7) -0.0784(5) 0.1246(5)
H22 H 0.2541 -0.0689 0.1121
H23 H 0.1714 -0.1319 0.0911
C23 C 0.3822(6) 0.0200(5) 0.2314(5)
H24 H 0.4199 -0.0093 0.2173
H25 H 0.4172 0.0699 0.2732
H26 H 0.3432 0.0272 0.1894
C24 C 0.4609(5) 0.0223(5) 0.3760(5)
H27 H 0.4880 -0.0150 0.3902
H28 H 0.4870 0.0356 0.3478
C25 C 0.3557(7) -0.0451(6) 0.4260(5)
H29 H 0.3240 -0.0189 0.4514
H30 H 0.4164 -0.0157 0.4531
H31 H 0.3512 -0.0960 0.4238
C26 C 0.6048(5) 0.5985(4) 0.7793(4)
C27 C 0.5568(5) 0.6478(4) 0.7626(3)
C28 C 0.5939(4) 0.7095(4) 0.7562(3)
C29 C 0.6767(4) 0.7186(4) 0.7610(3)
C30 C 0.7237(5) 0.6683(5) 0.7766(4)
C31 C 0.6887(5) 0.6086(5) 0.7849(4)
C32 C 0.5670(6) 0.5347(5) 0.7893(4)
H32 H 0.6130 0.5245 0.8258
H33 H 0.5247 0.5487 0.8079
C33 C 0.4657(5) 0.6362(5) 0.7531(5)
H34 H 0.4363 0.5815 0.7273
H35 H 0.4346 0.6613 0.7241
H36 H 0.4671 0.6582 0.8018
C34 C 0.5467(5) 0.7689(4) 0.7488(4)
H37 H 0.5149 0.7746 0.7783
H38 H 0.5907 0.8181 0.7722
C35 C 0.7114(5) 0.7816(5) 0.7489(5)
H39 H 0.6637 0.7915 0.7143
H40 H 0.7513 0.7670 0.7283
H41 H 0.7419 0.8277 0.7961
C36 C 0.8153(5) 0.6813(6) 0.7870(4)
H42 H 0.8420 0.7367 0.8086
H43 H 0.8491 0.6625 0.8221
C37 C 0.7406(6) 0.5531(6) 0.8003(5)
H44 H 0.7721 0.5704 0.8538
H45 H 0.7817 0.5513 0.7800
H46 H 0.7013 0.5021 0.7770
C38 C 0.9677(3) 0.5748(4) 0.3372(3)
C39 C 0.8951(3) 0.5284(3) 0.2706(3)
C40 C 0.8557(3) 0.5572(4) 0.2209(2)
C41 C 0.8891(4) 0.6323(4) 0.2379(3)
C42 C 0.9618(4) 0.6788(3) 0.3045(4)
C43 C 1.0011(3) 0.6500(3) 0.3541(3)
C44 C 0.8456(9) 0.6643(8) 0.1850(7)
H47 H 0.7979 0.6237 0.1399
H48 H 0.8874 0.6849 0.1726
H49 H 0.8234 0.7051 0.2083
C45 C 0.7818(5) 0.5074(7) 0.1448(5)
H50 H 0.7952 0.5138 0.1072
H51 H 0.7744 0.4532 0.1349
C46 C 0.8539(7) 0.4485(6) 0.2553(6)
H52 H 0.8806 0.4124 0.2318
H53 H 0.7920 0.4338 0.2222
H54 H 0.8627 0.4478 0.3019
C47 C 1.0158(7) 0.5452(7) 0.3907(6)
H55 H 0.9922 0.4892 0.3684
H56 H 1.0775 0.5565 0.4026
C48 C 1.0778(7) 0.7007(7) 0.4277(6)
H57 H 1.0594 0.7163 0.4665
H58 H 1.1031 0.7460 0.4260
H59 H 1.1208 0.6727 0.4384
C49 C 0.9942(12) 0.7642(8) 0.3288(8)
H60 H 1.0579 0.7807 0.3559
H61 H 0.9763 0.7737 0.2847
C50 C 0.4784(4) 0.7029(4) 0.6161(4)
H62 H 0.5138 0.6694 0.6200
C51 C 0.4161(4) 0.6920(4) 0.5428(4)
C52 C 0.3910(4) 0.6250(4) 0.4789(4)
C53 C 0.3258(4) 0.6150(4) 0.4123(4)
H63 H 0.3082 0.5684 0.3692
C54 C 0.2861(4) 0.6717(4) 0.4077(4)
C55 C 0.3153(4) 0.7413(4) 0.4712(4)
C56 C 0.3775(4) 0.7497(4) 0.5372(4)
H64 H 0.3947 0.7961 0.5804
C57 C 0.2120(4) 0.6577(5) 0.3380(4)
H65 H 0.1983 0.7004 0.3304
C58 C 0.4129(5) 0.5041(4) 0.4183(4)
H66 H 0.4203 0.5206 0.3835
H67 H 0.3532 0.4737 0.3962
H68 H 0.4521 0.4732 0.4295
C59 C 0.2975(6) 0.8638(5) 0.5271(5)
H69 H 0.2640 0.8980 0.5142
H70 H 0.3592 0.8894 0.5508
H71 H 0.2839 0.8505 0.5612
C60 C 0.5444(7) 0.4051(5) 0.7164(5)
H72 H 0.5815 0.4051 0.7615
C61 C 0.5118(6) 0.3356(5) 0.6475(4)
C62 C 0.4574(5) 0.3329(5) 0.5803(4)
H73 H 0.4376 0.3762 0.5798
C63 C 0.4311(5) 0.2686(5) 0.5136(4)
C64 C 0.4626(5) 0.2067(4) 0.5134(4)
C65 C 0.5171(5) 0.2081(5) 0.5803(4)
H74 H 0.5381 0.1652 0.5802
C66 C 0.5411(6) 0.2715(5) 0.6473(5)
C67 C 0.4395(5) 0.1369(5) 0.4450(4)
H75 H 0.3899 0.1267 0.4007
C68 C 0.3438(7) 0.3267(5) 0.4467(5)
H76 H 0.3068 0.3168 0.3957
H77 H 0.3908 0.3734 0.4708
H78 H 0.3096 0.3331 0.4737
C69 C 0.6282(9) 0.2122(6) 0.7145(6)
H79 H 0.6599 0.2042 0.6853
H80 H 0.5810 0.1663 0.6924
H81 H 0.6674 0.2227 0.7653
C70 C 0.1714(7) 0.0140(6) 0.0882(5)
H82 H 0.2175 0.0102 0.0757
C71 C 0.1219(6) 0.0680(6) 0.0751(5)
C72 C 0.1501(6) 0.1197(6) 0.0529(5)
C73 C 0.1016(6) 0.1699(6) 0.0398(4)
H83 H 0.1194 0.2051 0.0246
C74 C 0.0275(6) 0.1687(5) 0.0489(4)
C75 C 0.0022(6) 0.1181(6) 0.0725(5)
C76 C 0.0480(6) 0.0681(6) 0.0847(4)
H84 H 0.0294 0.0332 0.0998
C77 C -0.0194(6) 0.2267(6) 0.0392(5)
H85 H -0.0660 0.2307 0.0510
C78 C 0.2652(7) 0.1851(7) 0.0410(7)
H86 H 0.2257 0.1864 -0.0045
H87 H 0.3195 0.1792 0.0394
H88 H 0.2767 0.2328 0.0838
C79 C -0.0927(8) 0.0776(7) 0.1142(6)
H89 H -0.1024 0.0236 0.0829
H90 H -0.1452 0.0856 0.1183
H91 H -0.0453 0.0931 0.1635
C80 C 0.6338(5) 0.4742(7) 0.1035(5)
H92 H 0.6363 0.4229 0.0841
C81 C 0.4672(4) 0.5814(3) 0.1018(4)
C82 C 0.3916(3) 0.5221(4) 0.0615(3)
C83 C 0.3952(3) 0.4468(3) 0.0359(3)
H93 H 0.3436 0.4063 0.0084
C84 C 0.4744(4) 0.4309(3) 0.0506(3)
C85 C 0.5499(3) 0.4902(4) 0.0910(3)
C86 C 0.5463(3) 0.5654(4) 0.1166(3)
H94 H 0.5980 0.6059 0.1441
C87 C 0.3075(6) 0.5434(7) 0.0481(5)
H95 H 0.3070 0.5951 0.0608
C88 C 0.538(2) 0.704(2) 0.133(2)
H96 H 0.5272 0.7513 0.1292
H97 H 0.5696 0.7157 0.1849
H98 H 0.5719 0.6849 0.1071
C89 C 0.4013(11) 0.3002(11) -0.0343(12)
H99 H 0.3608 0.3168 -0.0676
H100 H 0.3762 0.2887 -0.0052
H101 H 0.4127 0.2545 -0.0634
C90 C 0.9454(7) 0.5470(7) 0.4605(6)
H102 H 0.9090 0.4995 0.4197
C91 C 0.8530(4) 0.5454(3) 0.5235(2)
C92 C 0.8375(3) 0.5747(4) 0.5845(3)
H103 H 0.7858 0.5518 0.5823
C93 C 0.8977(4) 0.6377(4) 0.6488(2)
C94 C 0.9734(4) 0.6713(4) 0.6521(3)
C95 C 0.9888(3) 0.6420(4) 0.5910(4)
H104 H 1.0405 0.6649 0.5933
C96 C 0.9286(4) 0.5790(4) 0.5267(3)
C97 C 0.8828(6) 0.6693(7) 0.7142(5)
H105 H 0.9247 0.7130 0.7569
C98 C 1.1015(17) 0.7745(16) 0.7083(15)
H106 H 1.0963 0.8024 0.6788
H107 H 1.1230 0.7308 0.6901
H108 H 1.1418 0.8083 0.7602
C99 C 0.7176(13) 0.4610(15) 0.4505(14)
H109 H 0.6844 0.4168 0.4020
H110 H 0.6815 0.4953 0.4588
H111 H 0.7358 0.4438 0.4891
C100 C 0.1381(13) -0.0486(7) 0.4025(11)
H112 H 0.1842 -0.0601 0.4342
C101 C 0.1023(7) 0.0079(5) 0.4435(7)
C102 C 0.0279(7) 0.0236(5) 0.4043(6)
H113 H 0.0000 -0.0014 0.3518
C103 C -0.0055(6) 0.0758(6) 0.4420(7)
C104 C 0.0354(9) 0.1123(6) 0.5189(7)
C105 C 0.1098(8) 0.0967(7) 0.5581(6)
H114 H 0.1377 0.1216 0.6106
C106 C 0.1432(6) 0.0444(6) 0.5204(7)
C107 C -0.0148(13) 0.1504(17) 0.5562(11)
H115 H -0.0749 0.1455 0.5352
C108 C -0.1289(18) 0.0552(12) 0.3199(11)
H116 H -0.1042 0.0846 0.3013
H117 H -0.1902 0.0528 0.3031
H118 H -0.1226 0.0034 0.3012
C109 C 0.2644(14) 0.0616(11) 0.6366(8)
H119 H 0.3138 0.0407 0.6498
H120 H 0.2851 0.1170 0.6564
H121 H 0.2277 0.0497 0.6574
O5A O 0.5681(3) 0.4301(3) 0.5146(2)
O6A O 0.7238(3) 0.2036(3) 0.5381(3)
O7A O 0.6216(4) 0.7351(3) 0.5535(3)
O8A O 0.4070(5) 0.7232(3) 0.2847(3)
O9A O 1.0707(4) 0.8773(4) 0.9184(3)
O10A O 0.7740(5) 0.8795(4) 0.9526(4)
O11A O 0.2059(9) 0.4982(10) 0.5472(6)
O12A O -0.0158(10) 0.2529(6) 0.2982(8)
O13A O 0.5452(16) 0.3532(10) 0.9020(15)
O14A O 0.5179(8) 0.6389(5) 0.9845(7)
O15A O 1.0835(9) 0.9076(7) 0.5990(9)
O16A O 0.7853(7) 0.9724(6) 0.4441(7)
N1A N 0.8786(11) 1.0828(9) 0.6619(10)
N2A N 0.5163(4) 0.9076(4) 0.5551(4)
N3A N 0.8456(5) 1.0267(5) 0.8847(4)
N4A N 0.4759(5) 0.5340(4) 0.2826(3)
N5A N 0.5145(4) 0.2430(3) 0.3253(3)
N6A N 0.1813(5) 0.3584(5) 0.2844(4)
N7A N 0.8339(3) 0.4080(4) 0.7117(3)
N8A N 0.9978(5) 0.7305(5) 0.9841(4)
N9A N -0.0066(6) 0.4176(6) 0.5411(5)
N10A N 0.7617(4) 0.5076(5) 0.9798(4)
N11A N 0.9583(11) 0.8096(7) 0.3778(9)
N12A N 0.2984(5) 0.4725(6) 0.8607(4)
C2A C 0.9394(5) 0.5752(5) 0.9865(4)
C3A C 0.9820(5) 0.5950(5) 0.9526(4)
C4A C 0.9688(4) 0.5433(5) 0.8813(4)
C5A C 0.9149(4) 0.4693(5) 0.8485(4)
C6A C 0.8710(4) 0.4495(5) 0.8822(4)
C7A C 0.8845(5) 0.5032(5) 0.9529(4)
C8A C 0.9493(6) 0.6354(6) 1.0601(4)
H2A H 0.9542 0.6853 1.0600
H3A H 0.8986 0.6216 1.0664
H4A H 1.0012 0.6376 1.1009
C9A C 1.0453(5) 0.6744(5) 0.9915(4)
H5A H 1.0848 0.6740 0.9692
H6A H 1.0804 0.6883 1.0445
C10A C 1.0084(5) 0.5686(5) 0.8415(4)
H7A H 1.0640 0.5571 0.8519
H8A H 0.9700 0.5417 0.7882
H9A H 1.0171 0.6237 0.8583
C11A C 0.9075(4) 0.4114(5) 0.7761(4)
H10A H 0.9010 0.3604 0.7751
H11A H 0.9613 0.4249 0.7730
C12A C 0.8091(5) 0.3726(5) 0.8440(4)
H12A H 0.8389 0.3376 0.8593
H13A H 0.7617 0.3759 0.8571
H14A H 0.7861 0.3535 0.7903
C13A C 0.8389(5) 0.4798(6) 0.9916(5)
H15A H 0.8784 0.5019 1.0453
H16A H 0.8223 0.4236 0.9716
C14A C 0.6706(3) 1.0233(3) 0.7465(3)
C15A C 0.7557(3) 1.0656(3) 0.7957(2)
C16A C 0.8044(3) 1.1013(3) 0.7735(3)
C17A C 0.7680(3) 1.0947(3) 0.7021(3)
C18A C 0.6829(3) 1.0523(3) 0.6529(2)
C19A C 0.6342(3) 1.0166(3) 0.6751(3)
C20A C 0.8218(7) 1.1333(6) 0.6795(5)
H17A H 0.7847 1.1392 0.6354
H18A H 0.8578 1.1845 0.7201
C21A C 0.8997(6) 1.1441(6) 0.8239(6)
H19A H 0.9229 1.1273 0.8625
H20A H 0.9314 1.1335 0.7947
H21A H 0.9060 1.1990 0.8468
C22A C 0.7931(7) 1.0784(5) 0.8754(5)
H22A H 0.7459 1.0689 0.8879
H23A H 0.8286 1.1319 0.9089
C23A C 0.6178(6) 0.9800(5) 0.7686(5)
H24A H 0.5801 1.0093 0.7827
H25A H 0.5828 0.9301 0.7268
H26A H 0.6568 0.9728 0.8106
C24A C 0.5391(5) 0.9777(5) 0.6240(5)
H27A H 0.5120 1.0150 0.6098
H28A H 0.5130 0.9644 0.6522
C25A C 0.6443(7) 1.0451(6) 0.5740(5)
H29A H 0.6760 1.0189 0.5486
H30A H 0.5836 1.0157 0.5469
H31A H 0.6488 1.0960 0.5762
C26A C 0.3952(5) 0.4015(4) 0.2207(4)
C27A C 0.4432(5) 0.3522(4) 0.2374(3)
C28A C 0.4061(4) 0.2905(4) 0.2438(3)
C29A C 0.3233(4) 0.2814(4) 0.2390(3)
C30A C 0.2763(5) 0.3317(5) 0.2234(4)
C31A C 0.3113(5) 0.3914(5) 0.2151(4)
C32A C 0.4330(6) 0.4653(5) 0.2107(4)
H32A H 0.3870 0.4755 0.1742
H33A H 0.4753 0.4513 0.1921
C33A C 0.5343(5) 0.3638(5) 0.2469(5)
H34A H 0.5637 0.4185 0.2727
H35A H 0.5654 0.3387 0.2759
H36A H 0.5329 0.3418 0.1982
C34A C 0.4533(5) 0.2311(4) 0.2512(4)
H37A H 0.4851 0.2254 0.2217
H38A H 0.4093 0.1819 0.2278
C35A C 0.2886(5) 0.2184(5) 0.2511(5)
H39A H 0.3363 0.2085 0.2857
H40A H 0.2487 0.2330 0.2717
H41A H 0.2581 0.1723 0.2039
C36A C 0.1847(5) 0.3187(6) 0.2130(4)
H42A H 0.1580 0.2633 0.1914
H43A H 0.1509 0.3375 0.1779
C37A C 0.2594(6) 0.4469(6) 0.1997(5)
H44A H 0.2279 0.4296 0.1462
H45A H 0.2183 0.4487 0.2200
H46A H 0.2987 0.4979 0.2230
C38A C 0.0323(3) 0.4252(4) 0.6628(3)
C39A C 0.1049(3) 0.4716(3) 0.7294(3)
C40A C 0.1443(3) 0.4428(4) 0.7791(2)
C41A C 0.1109(4) 0.3677(4) 0.7621(3)
C42A C 0.0382(4) 0.3212(3) 0.6955(4)
C43A C -0.0011(3) 0.3500(3) 0.6459(3)
C44A C 0.1544(9) 0.3357(8) 0.8150(7)
H47A H 0.2021 0.3763 0.8601
H48A H 0.1126 0.3151 0.8274
H49A H 0.1766 0.2949 0.7917
C45A C 0.2182(5) 0.4926(7) 0.8552(5)
H50A H 0.2048 0.4862 0.8928
H51A H 0.2256 0.5468 0.8651
C46A C 0.1461(7) 0.5515(6) 0.7447(6)
H52A H 0.1194 0.5876 0.7682
H53A H 0.2080 0.5662 0.7778
H54A H 0.1373 0.5522 0.6981
C47A C -0.0158(7) 0.4548(7) 0.6093(6)
H55A H 0.0078 0.5108 0.6316
H56A H -0.0775 0.4435 0.5974
C48A C -0.0778(7) 0.2993(7) 0.5723(6)
H57A H -0.0594 0.2837 0.5335
H58A H -0.1031 0.2540 0.5740
H59A H -0.1208 0.3273 0.5616
C49A C 0.0058(12) 0.2358(8) 0.6712(8)
H60A H -0.0579 0.2193 0.6441
H61A H 0.0237 0.2263 0.7153
C50A C 0.5216(4) 0.2971(4) 0.3839(4)
H62A H 0.4862 0.3306 0.3800
C51A C 0.5839(4) 0.3080(4) 0.4572(4)
C52A C 0.6090(4) 0.3750(4) 0.5211(4)
C53A C 0.6742(4) 0.3850(4) 0.5877(4)
H63A H 0.6918 0.4316 0.6308
C54A C 0.7139(4) 0.3283(4) 0.5923(4)
C55A C 0.6847(4) 0.2587(4) 0.5288(4)
C56A C 0.6225(4) 0.2503(4) 0.4628(4)
H64A H 0.6053 0.2039 0.4196
C57A C 0.7880(4) 0.3423(5) 0.6620(4)
H65A H 0.8017 0.2996 0.6696
C58A C 0.5871(5) 0.4959(4) 0.5817(4)
H66A H 0.5797 0.4794 0.6165
H67A H 0.6468 0.5263 0.6038
H68A H 0.5479 0.5268 0.5705
C59A C 0.7025(6) 0.1362(5) 0.4729(5)
H69A H 0.7360 0.1020 0.4858
H70A H 0.6408 0.1106 0.4492
H71A H 0.7161 0.1495 0.4388
C60A C 0.4556(7) 0.5949(5) 0.2836(5)
H72A H 0.4185 0.5949 0.2385
C61A C 0.4882(6) 0.6644(5) 0.3525(4)
C62A C 0.5426(5) 0.6671(5) 0.4197(4)
H73A H 0.5624 0.6238 0.4202
C63A C 0.5689(5) 0.7314(5) 0.4864(4)
C64A C 0.5374(5) 0.7933(4) 0.4866(4)
C65A C 0.4829(5) 0.7919(5) 0.4197(4)
H74A H 0.4619 0.8348 0.4198
C66A C 0.4589(6) 0.7285(5) 0.3527(5)
C67A C 0.5605(5) 0.8631(5) 0.5550(4)
H75A H 0.6101 0.8733 0.5993
C68A C 0.6562(7) 0.6733(5) 0.5533(5)
H76A H 0.6932 0.6832 0.6043
H77A H 0.6092 0.6266 0.5292
H78A H 0.6904 0.6669 0.5263
C69A C 0.3718(9) 0.7878(6) 0.2855(6)
H79A H 0.3401 0.7958 0.3147
H80A H 0.4190 0.8337 0.3076
H81A H 0.3326 0.7773 0.2347
C70A C 0.8286(7) 0.9860(6) 0.9118(5)
H82A H 0.7825 0.9898 0.9243
C71A C 0.8781(6) 0.9320(6) 0.9249(5)
C72A C 0.8499(6) 0.8803(6) 0.9471(5)
C73A C 0.8984(6) 0.8301(6) 0.9602(4)
H83A H 0.8806 0.7949 0.9754
C74A C 0.9725(6) 0.8313(5) 0.9511(4)
C75A C 0.9978(6) 0.8819(6) 0.9275(5)
C76A C 0.9520(6) 0.9319(6) 0.9153(4)
H84A H 0.9706 0.9668 0.9002
C77A C 1.0194(6) 0.7733(6) 0.9608(5)
H85A H 1.0660 0.7693 0.9490
C78A C 0.7348(7) 0.8149(7) 0.9590(7)
H86A H 0.7743 0.8136 1.0045
H87A H 0.6805 0.8208 0.9606
H88A H 0.7233 0.7672 0.9162
C79A C 1.0927(8) 0.9224(7) 0.8858(6)
H89A H 1.1024 0.9764 0.9171
H90A H 1.1452 0.9144 0.8817
H91A H 1.0453 0.9069 0.8365
C80A C 0.3662(5) 0.5258(7) 0.8965(5)
H92A H 0.3637 0.5771 0.9159
C81A C 0.5328(4) 0.4186(3) 0.8982(4)
C82A C 0.6084(3) 0.4779(4) 0.9385(3)
C83A C 0.6048(3) 0.5532(3) 0.9641(3)
H93A H 0.6564 0.5937 0.9916
C84A C 0.5256(4) 0.5691(3) 0.9494(3)
C85A C 0.4501(3) 0.5098(4) 0.9090(3)
C86A C 0.4537(3) 0.4346(4) 0.8834(3)
H94A H 0.4020 0.3941 0.8559
C87A C 0.6925(6) 0.4566(7) 0.9519(5)
H95A H 0.6930 0.4049 0.9392
C88A C 0.462(2) 0.296(2) 0.867(2)
H96A H 0.4728 0.2487 0.8708
H97A H 0.4304 0.2843 0.8151
H98A H 0.4281 0.3151 0.8929
C89A C 0.5987(11) 0.6998(11) 1.0343(12)
H99A H 0.6392 0.6832 1.0676
H100A H 0.6238 0.7113 1.0052
H101A H 0.5873 0.7455 1.0634
C90A C 0.0546(7) 0.4530(7) 0.5395(6)
H102A H 0.0910 0.5005 0.5803
C91A C 0.1470(4) 0.4546(3) 0.4765(2)
C92A C 0.1625(3) 0.4253(4) 0.4155(3)
H103A H 0.2142 0.4482 0.4177
C93A C 0.1023(4) 0.3623(4) 0.3512(2)
C94A C 0.0266(4) 0.3287(4) 0.3479(3)
C95A C 0.0112(3) 0.3580(4) 0.4090(4)
H104A H -0.0405 0.3351 0.4067
C96A C 0.0714(4) 0.4210(4) 0.4733(3)
C97A C 0.1172(6) 0.3307(7) 0.2858(5)
H105A H 0.0753 0.2870 0.2431
C98A C -0.1015(17) 0.2255(16) 0.2917(15)
H106A H -0.0963 0.1976 0.3212
H107A H -0.1230 0.2692 0.3099
H108A H -0.1418 0.1917 0.2398
C99A C 0.2824(13) 0.5390(15) 0.5495(14)
H109A H 0.3156 0.5832 0.5980
H110A H 0.3185 0.5047 0.5412
H111A H 0.2642 0.5562 0.5109
C100A C 0.8619(13) 1.0486(7) 0.5975(11)
H112A H 0.8158 1.0601 0.5658
C101A C 0.8977(7) 0.9921(5) 0.5565(7)
C102A C 0.9721(7) 0.9764(5) 0.5957(6)
H113A H 1.0000 1.0014 0.6482
C103A C 1.0055(6) 0.9242(6) 0.5580(7)
C104A C 0.9646(9) 0.8877(6) 0.4811(7)
C105A C 0.8902(8) 0.9033(7) 0.4419(6)
H114A H 0.8623 0.8784 0.3894
C106A C 0.8568(6) 0.9556(6) 0.4796(7)
C107A C 1.0148(13) 0.8496(17) 0.4438(11)
H115A H 1.0749 0.8545 0.4648
C108A C 1.1289(18) 0.9448(12) 0.6801(11)
H116A H 1.1042 0.9154 0.6987
H117A H 1.1902 0.9472 0.6969
H118A H 1.1226 0.9966 0.6988
C109A C 0.7356(14) 0.9384(11) 0.3634(8)
H119A H 0.6862 0.9593 0.3502
H120A H 0.7149 0.8830 0.3436
H121A H 0.7723 0.9503 0.3426
O17 O 0.0963(18) 0.1762(16) 0.3491(17)
O18 O -0.1143(12) -0.1407(12) 0.1855(12)
C110 C -0.1131(14) -0.0875(14) 0.1553(15)
H122 H -0.1099 -0.1115 0.1082
H123 H -0.0628 -0.0422 0.1904
C111 C -0.1929(17) -0.0657(18) 0.143(2)
H124 H -0.2199 -0.0682 0.0930
H125 H -0.1798 -0.0123 0.1795
C112 C -0.2571(13) -0.1180(14) 0.1497(14)
H126 H -0.2827 -0.0889 0.1806
H127 H -0.3033 -0.1565 0.1010
C113 C -0.1957(15) -0.1508(17) 0.1861(17)
H128 H -0.1846 -0.1294 0.2384
H129 H -0.2229 -0.2062 0.1634
O19 O 0.384(2) 0.028(2) 0.0650(18)
O20 O 0.4297(14) 0.1020(13) -0.0036(12)
O21 O 0.3350(16) -0.0434(14) -0.0949(14)
O22 O 0.556(2) 0.166(2) -0.067(2)
O23 O 0.7793(11) 0.2283(10) 0.0749(10)
Cl4? Cl 0.7703(7) 0.2254(6) 0.3706(6)
Cl5? Cl 0.6356(6) 0.0844(6) 0.2708(5)
Cl6? Cl 0.6619(12) 0.1992(7) 0.2196(7)
C114? C 0.6691(11) 0.1813(9) 0.2940(8)
H130? H 0.6281 0.2055 0.3100
Cl7? Cl 0.6529(10) 0.5836(8) 0.3068(7)
Cl8? Cl 0.8190(9) 0.6476(8) 0.3952(9)
Cl9? Cl 0.7354(8) 0.7195(8) 0.3197(7)
O24? O 0.761(4) 0.713(3) 0.410(3)
C115? C 0.7423(11) 0.6287(10) 0.3079(11)
H131? H 0.7550 0.5991 0.2664
O25? O 0.482(3) 0.116(3) 0.749(3)
O26? O 0.412(3) 0.067(3) 0.728(3)
O27? O 0.3482(18) 0.0434(14) 0.6807(15)
O28? O 0.385(4) 0.089(4) 0.648(4)
O29? O 0.376(3) 0.114(2) 0.618(2)
O30? O 0.350(3) 0.139(2) 0.606(2)
O31? O 0.2202(19) 0.1342(17) 0.4199(16)
O32? O 1.0352(7) 0.7158(7) 0.7242(5)
O33? O 0.2051(13) 0.1051(11) 0.3340(12)
O34? O 0.8046(7) 0.4743(6) 0.4639(6)
O35? O 0.1677(18) 0.0881(14) 0.2788(15)
O36? O 0.100(2) 0.0675(17) 0.2701(16)
O37? O 0.4878(13) 0.3619(8) 0.0501(12)
O38? O 0.046(2) 0.110(2) 0.2943(19)
O39? O 0.096(3) 0.169(2) 0.292(3)
O40? O 0.4589(9) 0.6534(6) 0.1368(8)
O41? O 0.1447(8) 0.1041(12) 0.4147(8)
O42? O 0.0942(8) -0.0052(10) 0.5973(8)
N13? N 0.1674(11) -0.1034(10) 0.3874(7)
H132? H 0.1190 -0.1518 0.2793
H133? H 0.1973 -0.1795 0.3188
C116? C 0.5380(12) 0.7156(11) 0.1953(12)
H134? H 0.5404 0.7588 0.1834
H135? H 0.5888 0.6972 0.1980
H136? H 0.5372 0.7319 0.2430
C117? C 0.415(2) 0.2932(17) 0.015(2)
H137? H 0.3604 0.3066 -0.0011
H138? H 0.4196 0.2735 0.0508
H139? H 0.4166 0.2541 -0.0278
C118? C 1.1203(16) 0.7408(16) 0.7345(15)
H140? H 1.1170 0.7486 0.6921
H141? H 1.1507 0.7021 0.7387
H142? H 1.1516 0.7889 0.7797
C119? C 0.7321(11) 0.4269(11) 0.4608(11)
H143? H 0.6972 0.3864 0.4102
H144? H 0.6965 0.4586 0.4756
H145? H 0.7544 0.4040 0.4945
C120? C 0.166(2) -0.0354(13) 0.3954(15)
H146? H 0.1796 -0.0154 0.3664
C121? C 0.0949(7) 0.0935(8) 0.5601(7)
C122? C 0.1066(6) 0.0224(8) 0.5522(6)
C123? C 0.1305(8) -0.0195(7) 0.4992(7)
H147? H 0.1385 -0.0682 0.4938
C124? C 0.1427(8) 0.0098(7) 0.4541(7)
C125? C 0.1310(6) 0.0810(7) 0.4619(6)
C126? C 0.1071(7) 0.1228(7) 0.5150(7)
H148? H 0.0991 0.1715 0.5204
C127? C 0.0673(15) 0.1356(13) 0.6159(11)
H149? H 0.0703 0.1165 0.6504
C128? C 0.1403(14) 0.170(3) 0.404(2)
H150? H 0.1549 0.1653 0.3641
H151? H 0.0817 0.1752 0.3907
H152? H 0.1812 0.2145 0.4498
C129? C 0.1080(12) -0.0796(11) 0.5845(16)
H153? H 0.1038 -0.1052 0.5350
H154? H 0.0642 -0.1101 0.5882
H155? H 0.1654 -0.0739 0.6215
O43? O -0.1417(19) -0.1963(18) 0.1282(18)
O44? O 0.405(2) 0.055(2) -0.0283(14)
C130? C 0.4568(15) 0.0996(12) 0.0501(13)
H156? H 0.4476 0.1509 0.0669
H157? H 0.5189 0.1050 0.0644
C131? C 0.4265(16) 0.0561(11) 0.0806(10)
H158? H 0.3982 0.0862 0.1081
H159? H 0.4771 0.0496 0.1168
C132? C 0.3667(16) -0.0187(14) 0.0276(14)
H160? H 0.3175 -0.0296 0.0374
H161? H 0.3952 -0.0602 0.0237
C133? C 0.342(2) -0.002(2) -0.0369(15)
H162? H 0.3305 -0.0496 -0.0809
H163? H 0.2885 0.0135 -0.0463
O45? O 0.6391(8) 0.2603(7) 0.0835(8)
O46? O 0.618(2) 0.2408(18) 0.032(2)
O47? O 0.7359(18) 0.2954(16) 0.0259(18)
O48? O 0.6965(15) 0.2588(14) -0.0306(16)
O49? O 0.6874(10) 0.2219(10) -0.0858(11)
O50? O 0.612(3) 0.254(2) -0.025(2)
O51? O -0.209(2) -0.024(2) 0.199(2)
loop_
_geom_bond_atom_site_label_1
_geom_bond_atom_site_label_2
_geom_bond_site_symmetry_1
_geom_bond_site_symmetry_2
Cl1 C1 1_555 1_555
Cl2 C1 1_555 1_555
Cl3 C1 1_555 1_555
C1 H1 1_555 1_555
O5 C52 1_555 1_555
O6 C55 1_555 1_555
O7 C63 1_555 1_555
O8 C66 1_555 1_555
O9 C75 1_555 1_555
O10 C72 1_555 1_555
O11 C91 1_555 1_555
O12 C94 1_555 1_555
O13 C81 1_555 1_555
O14 C84 1_555 1_555
O15 C103 1_555 1_555
O16 C106 1_555 1_555
N1 C20 1_555 1_555
N2 C24 1_555 1_555
N3 C22 1_555 1_555
N4 C32 1_555 1_555
N5 C34 1_555 1_555
N6 C36 1_555 1_555
N7 C11 1_555 1_555
N8 C9 1_555 1_555
N9 C47 1_555 1_555
N10 C13 1_555 1_555
N11 C107 1_555 1_555
N12 C45 1_555 1_555
C2 C3 1_555 1_555
C3 C4 1_555 1_555
C4 C5 1_555 1_555
C5 C6 1_555 1_555
C6 C7 1_555 1_555
C7 C2 1_555 1_555
C8 C2 1_555 1_555
H2 C8 1_555 1_555
H3 C8 1_555 1_555
H4 C8 1_555 1_555
C9 C3 1_555 1_555
H5 C9 1_555 1_555
H6 C9 1_555 1_555
C10 C4 1_555 1_555
H7 C10 1_555 1_555
H8 C10 1_555 1_555
H9 C10 1_555 1_555
C11 C5 1_555 1_555
H10 C11 1_555 1_555
H11 C11 1_555 1_555
C12 C6 1_555 1_555
H12 C12 1_555 1_555
H13 C12 1_555 1_555
H14 C12 1_555 1_555
C13 C7 1_555 1_555
H15 C13 1_555 1_555
H16 C13 1_555 1_555
C14 C15 1_555 1_555
C15 C16 1_555 1_555
C16 C17 1_555 1_555
C17 C18 1_555 1_555
C18 C19 1_555 1_555
C19 C14 1_555 1_555
C20 C17 1_555 1_555
H17 C20 1_555 1_555
H18 C20 1_555 1_555
C21 C16 1_555 1_555
H19 C21 1_555 1_555
H20 C21 1_555 1_555
H21 C21 1_555 1_555
C22 C15 1_555 1_555
H22 C22 1_555 1_555
H23 C22 1_555 1_555
C23 C14 1_555 1_555
H24 C23 1_555 1_555
H25 C23 1_555 1_555
H26 C23 1_555 1_555
C24 C19 1_555 1_555
H27 C24 1_555 1_555
H28 C24 1_555 1_555
C25 C18 1_555 1_555
H29 C25 1_555 1_555
H30 C25 1_555 1_555
H31 C25 1_555 1_555
C26 C27 1_555 1_555
C27 C28 1_555 1_555
C28 C29 1_555 1_555
C29 C30 1_555 1_555
C30 C31 1_555 1_555
C31 C26 1_555 1_555
C32 C26 1_555 1_555
H32 C32 1_555 1_555
H33 C32 1_555 1_555
C33 C27 1_555 1_555
H34 C33 1_555 1_555
H35 C33 1_555 1_555
H36 C33 1_555 1_555
C34 C28 1_555 1_555
H37 C34 1_555 1_555
H38 C34 1_555 1_555
C35 C29 1_555 1_555
H39 C35 1_555 1_555
H40 C35 1_555 1_555
H41 C35 1_555 1_555
C36 C30 1_555 1_555
H42 C36 1_555 1_555
H43 C36 1_555 1_555
C37 C31 1_555 1_555
H44 C37 1_555 1_555
H45 C37 1_555 1_555
H46 C37 1_555 1_555
C38 C39 1_555 1_555
C39 C40 1_555 1_555
C40 C41 1_555 1_555
C41 C42 1_555 1_555
C42 C43 1_555 1_555
C43 C38 1_555 1_555
C44 C41 1_555 1_555
H47 C44 1_555 1_555
H48 C44 1_555 1_555
H49 C44 1_555 1_555
C45 C40 1_555 1_555
H50 C45 1_555 1_555
H51 C45 1_555 1_555
C46 C39 1_555 1_555
H52 C46 1_555 1_555
H53 C46 1_555 1_555
H54 C46 1_555 1_555
C47 C38 1_555 1_555
H55 C47 1_555 1_555
H56 C47 1_555 1_555
C48 C43 1_555 1_555
H57 C48 1_555 1_555
H58 C48 1_555 1_555
H59 C48 1_555 1_555
C49 C42 1_555 1_555
H60 C49 1_555 1_555
H61 C49 1_555 1_555
C50 N5 1_555 1_555
H62 C50 1_555 1_555
C51 C50 1_555 1_555
C52 C51 1_555 1_555
C53 C52 1_555 1_555
H63 C53 1_555 1_555
C54 C53 1_555 1_555
C55 C54 1_555 1_555
C56 C51 1_555 1_555
H64 C56 1_555 1_555
C57 N7 1_555 1_555
H65 C57 1_555 1_555
C58 O5 1_555 1_555
H66 C58 1_555 1_555
H67 C58 1_555 1_555
H68 C58 1_555 1_555
C59 O6 1_555 1_555
H69 C59 1_555 1_555
H70 C59 1_555 1_555
H71 C59 1_555 1_555
C60 N4 1_555 1_555
H72 C60 1_555 1_555
C61 C60 1_555 1_555
C62 C61 1_555 1_555
H73 C62 1_555 1_555
C63 C62 1_555 1_555
C64 C63 1_555 1_555
C65 C64 1_555 1_555
H74 C65 1_555 1_555
C66 C61 1_555 1_555
C67 N2 1_555 1_555
H75 C67 1_555 1_555
C68 O7 1_555 1_555
H76 C68 1_555 1_555
H77 C68 1_555 1_555
H78 C68 1_555 1_555
C69 O8 1_555 1_555
H79 C69 1_555 1_555
H80 C69 1_555 1_555
H81 C69 1_555 1_555
C70 N3 1_555 1_555
H82 C70 1_555 1_555
C71 C70 1_555 1_555
C72 C71 1_555 1_555
C73 C72 1_555 1_555
H83 C73 1_555 1_555
C74 C73 1_555 1_555
C75 C74 1_555 1_555
C76 C71 1_555 1_555
H84 C76 1_555 1_555
C77 N8 1_555 1_555
H85 C77 1_555 1_555
C78 O10 1_555 1_555
H86 C78 1_555 1_555
H87 C78 1_555 1_555
H88 C78 1_555 1_555
C79 O9 1_555 1_555
H89 C79 1_555 1_555
H90 C79 1_555 1_555
H91 C79 1_555 1_555
C80 N12 1_555 1_555
H92 C80 1_555 1_555
C81 C82 1_555 1_555
C82 C83 1_555 1_555
C83 H93 1_555 1_555
C84 C83 1_555 1_555
C85 C80 1_555 1_555
C86 C81 1_555 1_555
H94 C86 1_555 1_555
C87 N10 1_555 1_555
H95 C87 1_555 1_555
C88 O13 1_555 1_555
H96 C88 1_555 1_555
H97 C88 1_555 1_555
H98 C88 1_555 1_555
C89 O14 1_555 1_555
H99 C89 1_555 1_555
H100 C89 1_555 1_555
H101 C89 1_555 1_555
C90 N9 1_555 1_555
H102 C90 1_555 1_555
C91 C92 1_555 1_555
C92 H103 1_555 1_555
C93 C92 1_555 1_555
C94 C93 1_555 1_555
C95 C94 1_555 1_555
H104 C95 1_555 1_555
C96 C90 1_555 1_555
C97 N6 1_555 1_555
H105 C97 1_555 1_555
C98 O12 1_555 1_555
H106 C98 1_555 1_555
H107 C98 1_555 1_555
H108 C98 1_555 1_555
C99 O11 1_555 1_555
H109 C99 1_555 1_555
H110 C99 1_555 1_555
H111 C99 1_555 1_555
C100 N1 1_555 1_555
H112 C100 1_555 1_555
C101 C100 1_555 1_555
C102 C101 1_555 1_555
H113 C102 1_555 1_555
C103 C102 1_555 1_555
C104 C103 1_555 1_555
C105 C104 1_555 1_555
H114 C105 1_555 1_555
C106 C101 1_555 1_555
C107 C104 1_555 1_555
H115 C107 1_555 1_555
C108 O15 1_555 1_555
H116 C108 1_555 1_555
H117 C108 1_555 1_555
H118 C108 1_555 1_555
C109 O16 1_555 1_555
H119 C109 1_555 1_555
H120 C109 1_555 1_555
H121 C109 1_555 1_555
O18 C110 1_555 1_555
C110 H122 1_555 1_555
H123 C110 1_555 1_555
C111 C110 1_555 1_555
H124 C111 1_555 1_555
H125 C111 1_555 1_555
C112 C111 1_555 1_555
H126 C112 1_555 1_555
H127 C112 1_555 1_555
C113 O18 1_555 1_555
H128 C113 1_555 1_555
H129 C113 1_555 1_555
O5A C52A 1_555 1_555
O6A C55A 1_555 1_555
O7A C63A 1_555 1_555
O8A C66A 1_555 1_555
O9A C75A 1_555 1_555
O10A C72A 1_555 1_555
O11A C91A 1_555 1_555
O12A C94A 1_555 1_555
O13A C81A 1_555 1_555
O14A C84A 1_555 1_555
O15A C103A 1_555 1_555
O16A C106A 1_555 1_555
N1A C20A 1_555 1_555
N2A C24A 1_555 1_555
N3A C22A 1_555 1_555
N4A C32A 1_555 1_555
N5A C34A 1_555 1_555
N6A C36A 1_555 1_555
N7A C11A 1_555 1_555
N8A C9A 1_555 1_555
N9A C47A 1_555 1_555
N10A C13A 1_555 1_555
N11A C49 1_555 1_555
N12A C45A 1_555 1_555
C2A C3A 1_555 1_555
C3A C4A 1_555 1_555
C4A C5A 1_555 1_555
C5A C6A 1_555 1_555
C6A C7A 1_555 1_555
C7A C2A 1_555 1_555
C8A C2A 1_555 1_555
H2A C8A 1_555 1_555
H3A C8A 1_555 1_555
H4A C8A 1_555 1_555
C9A C3A 1_555 1_555
H5A C9A 1_555 1_555
H6A C9A 1_555 1_555
C10A C4A 1_555 1_555
H7A C10A 1_555 1_555
H8A C10A 1_555 1_555
H9A C10A 1_555 1_555
C11A C5A 1_555 1_555
H10A C11A 1_555 1_555
H11A C11A 1_555 1_555
C12A C6A 1_555 1_555
H12A C12A 1_555 1_555
H13A C12A 1_555 1_555
H14A C12A 1_555 1_555
C13A C7A 1_555 1_555
H15A C13A 1_555 1_555
H16A C13A 1_555 1_555
C14A C15A 1_555 1_555
C15A C16A 1_555 1_555
C16A C17A 1_555 1_555
C17A C18A 1_555 1_555
C18A C19A 1_555 1_555
C19A C14A 1_555 1_555
C20A C17A 1_555 1_555
H17A C20A 1_555 1_555
H18A C20A 1_555 1_555
C21A C16A 1_555 1_555
H19A C21A 1_555 1_555
H20A C21A 1_555 1_555
H21A C21A 1_555 1_555
C22A C15A 1_555 1_555
H22A C22A 1_555 1_555
H23A C22A 1_555 1_555
C23A C14A 1_555 1_555
H24A C23A 1_555 1_555
H25A C23A 1_555 1_555
H26A C23A 1_555 1_555
C24A C19A 1_555 1_555
H27A C24A 1_555 1_555
H28A C24A 1_555 1_555
C25A C18A 1_555 1_555
H29A C25A 1_555 1_555
H30A C25A 1_555 1_555
H31A C25A 1_555 1_555
C26A C27A 1_555 1_555
C27A C28A 1_555 1_555
C28A C29A 1_555 1_555
C29A C30A 1_555 1_555
C30A C31A 1_555 1_555
C31A C26A 1_555 1_555
C32A C26A 1_555 1_555
H32A C32A 1_555 1_555
H33A C32A 1_555 1_555
C33A C27A 1_555 1_555
H34A C33A 1_555 1_555
H35A C33A 1_555 1_555
H36A C33A 1_555 1_555
C34A C28A 1_555 1_555
H37A C34A 1_555 1_555
H38A C34A 1_555 1_555
C35A C29A 1_555 1_555
H39A C35A 1_555 1_555
H40A C35A 1_555 1_555
H41A C35A 1_555 1_555
C36A C30A 1_555 1_555
H42A C36A 1_555 1_555
H43A C36A 1_555 1_555
C37A C31A 1_555 1_555
H44A C37A 1_555 1_555
H45A C37A 1_555 1_555
H46A C37A 1_555 1_555
C38A C39A 1_555 1_555
C39A C40A 1_555 1_555
C40A C41A 1_555 1_555
C41A C42A 1_555 1_555
C42A C43A 1_555 1_555
C43A C38A 1_555 1_555
C44A C41A 1_555 1_555
H47A C44A 1_555 1_555
H48A C44A 1_555 1_555
H49A C44A 1_555 1_555
C45A C40A 1_555 1_555
H50A C45A 1_555 1_555
H51A C45A 1_555 1_555
C46A C39A 1_555 1_555
H52A C46A 1_555 1_555
H53A C46A 1_555 1_555
H54A C46A 1_555 1_555
C47A C38A 1_555 1_555
H55A C47A 1_555 1_555
H56A C47A 1_555 1_555
C48A C43A 1_555 1_555
H57A C48A 1_555 1_555
H58A C48A 1_555 1_555
H59A C48A 1_555 1_555
C49A N11 1_555 1_555
H60A C49A 1_555 1_555
H61A C49A 1_555 1_555
C50A N5A 1_555 1_555
H62A C50A 1_555 1_555
C51A C50A 1_555 1_555
C52A C51A 1_555 1_555
C53A C52A 1_555 1_555
H63A C53A 1_555 1_555
C54A C53A 1_555 1_555
C55A C54A 1_555 1_555
C56A C51A 1_555 1_555
H64A C56A 1_555 1_555
C57A N7A 1_555 1_555
H65A C57A 1_555 1_555
C58A O5A 1_555 1_555
H66A C58A 1_555 1_555
H67A C58A 1_555 1_555
H68A C58A 1_555 1_555
C59A O6A 1_555 1_555
H69A C59A 1_555 1_555
H70A C59A 1_555 1_555
H71A C59A 1_555 1_555
C60A N4A 1_555 1_555
H72A C60A 1_555 1_555
C61A C60A 1_555 1_555
C62A C61A 1_555 1_555
H73A C62A 1_555 1_555
C63A C62A 1_555 1_555
C64A C63A 1_555 1_555
C65A C64A 1_555 1_555
H74A C65A 1_555 1_555
C66A C61A 1_555 1_555
C67A N2A 1_555 1_555
H75A C67A 1_555 1_555
C68A O7A 1_555 1_555
H76A C68A 1_555 1_555
H77A C68A 1_555 1_555
H78A C68A 1_555 1_555
C69A O8A 1_555 1_555
H79A C69A 1_555 1_555
H80A C69A 1_555 1_555
H81A C69A 1_555 1_555
C70A N3A 1_555 1_555
H82A C70A 1_555 1_555
C71A C70A 1_555 1_555
C72A C71A 1_555 1_555
C73A C72A 1_555 1_555
H83A C73A 1_555 1_555
C74A C73A 1_555 1_555
C75A C74A 1_555 1_555
C76A C71A 1_555 1_555
H84A C76A 1_555 1_555
C77A N8A 1_555 1_555
H85A C77A 1_555 1_555
C78A O10A 1_555 1_555
H86A C78A 1_555 1_555
H87A C78A 1_555 1_555
H88A C78A 1_555 1_555
C79A O9A 1_555 1_555
H89A C79A 1_555 1_555
H90A C79A 1_555 1_555
H91A C79A 1_555 1_555
C80A N12A 1_555 1_555
H92A C80A 1_555 1_555
C81A C82A 1_555 1_555
C82A C83A 1_555 1_555
C83A H93A 1_555 1_555
C84A C83A 1_555 1_555
C85A C80A 1_555 1_555
C86A C81A 1_555 1_555
H94A C86A 1_555 1_555
C87A N10A 1_555 1_555
H95A C87A 1_555 1_555
C88A O13A 1_555 1_555
H96A C88A 1_555 1_555
H97A C88A 1_555 1_555
H98A C88A 1_555 1_555
C89A O14A 1_555 1_555
H99A C89A 1_555 1_555
H100A C89A 1_555 1_555
H101A C89A 1_555 1_555
C90A N9A 1_555 1_555
H102A C90A 1_555 1_555
C91A C92A 1_555 1_555
C92A H103A 1_555 1_555
C93A C92A 1_555 1_555
C94A C93A 1_555 1_555
C95A C94A 1_555 1_555
H104A C95A 1_555 1_555
C96A C90A 1_555 1_555
C97A N6A 1_555 1_555
H105A C97A 1_555 1_555
C98A O12A 1_555 1_555
H106A C98A 1_555 1_555
H107A C98A 1_555 1_555
H108A C98A 1_555 1_555
C99A O11A 1_555 1_555
H109A C99A 1_555 1_555
H110A C99A 1_555 1_555
H111A C99A 1_555 1_555
C100A N1A 1_555 1_555
H112A C100A 1_555 1_555
C101A C100A 1_555 1_555
C102A C101A 1_555 1_555
H113A C102A 1_555 1_555
C103A C102A 1_555 1_555
C104A C103A 1_555 1_555
C105A C104A 1_555 1_555
H114A C105A 1_555 1_555
C106A C101A 1_555 1_555
C107A N11A 1_555 1_555
H115A C107A 1_555 1_555
C108A O15A 1_555 1_555
H116A C108A 1_555 1_555
H117A C108A 1_555 1_555
H118A C108A 1_555 1_555
C109A O16A 1_555 1_555
H119A C109A 1_555 1_555
H120A C109A 1_555 1_555
H121A C109A 1_555 1_555
C54 C57 1_555 1_555
C55 C56 1_555 1_555
C64 C67 1_555 1_555
C65 C66 1_555 1_555
C74 C77 1_555 1_555
C75 C76 1_555 1_555
C82 C87 1_555 1_555
C84 C85 1_555 1_555
C85 C86 1_555 1_555
C91 C96 1_555 1_555
C93 C97 1_555 1_555
C95 C96 1_555 1_555
C105 C106 1_555 1_555
C112 C113 1_555 1_555
C42A C49A 1_555 1_555
C54A C57A 1_555 1_555
C55A C56A 1_555 1_555
C64A C67A 1_555 1_555
C65A C66A 1_555 1_555
C74A C77A 1_555 1_555
C75A C76A 1_555 1_555
C82A C87A 1_555 1_555
C84A C85A 1_555 1_555
C85A C86A 1_555 1_555
C91A C96A 1_555 1_555
C93A C97A 1_555 1_555
C95A C96A 1_555 1_555
C104A C107A 1_555 1_555
C105A C106A 1_555 1_555

#END
