
#######################################################################
#
#                 Cambridge Crystallographic Data Centre
#                                CCDC 
#
#######################################################################
#
# If this CIF has been generated from an entry in the Cambridge 
# Structural Database, then it will include bibliographic, chemical, 
# crystal, experimental, refinement or atomic coordinate data resulting 
# from the CCDC's data processing and validation procedures.
#
#######################################################################

data_PIFZAI
_chemical_compound_source        
'Isolated from Streptomyces griseus subsp. griseus HYS31 by bio-guided isolation.'
_chemical_name_common            'dolyemycin A hydrate'
_chemical_formula_moiety         'C73 H92 N14 O19,8.5(H2 O1)'
_chemical_name_systematic        
'{9-hydroxy-3-[hydroxy(4-methoxyphenyl)methyl]-15-(1-hydroxy-2-methylpropyl)-31-[hydroxy(phenyl)methyl]-6-[(1H-indol-3-yl)methyl]-18,22-dimethyl-12-(2-methylpropyl)-1,4,7,10,13,16,20,23,26,29,32-undecaoxo-19-({3-[3-(prop-1-en-1-yl)pyridin-2-yl]acryloyl}amino)hexatriacontahydropyrrolo[1,2-m][1,4,7,10,13,16,19,22,25,28,31]undecaazacyclotetratriacontin-25-yl}-acetic acid hydrate'
_chemical_properties_biological  
'Antiproliferative activity against human lung cancer A549 cells.'
_symmetry_cell_setting           orthorhombic
_symmetry_space_group_name_H-M   'P 21 21 21'
_symmetry_Int_Tables_number      19
_space_group_name_Hall           'P 2ac 2ab'
loop_
_symmetry_equiv_pos_site_id
_symmetry_equiv_pos_as_xyz
1 x,y,z
2 1/2-x,-y,1/2+z
3 1/2+x,1/2-y,-z
4 -x,1/2+y,1/2-z
_cell_length_a                   12.8498(4)
_cell_length_b                   21.1505(7)
_cell_length_c                   30.5807(9)
_cell_angle_alpha                90
_cell_angle_beta                 90
_cell_angle_gamma                90
_cell_volume                     8311.21
_exptl_crystal_colour            colorless
_exptl_crystal_description       block
_cell_formula_units_Z            4
loop_
_atom_site_label
_atom_site_type_symbol
_atom_site_fract_x
_atom_site_fract_y
_atom_site_fract_z
O1 O 0.4439(3) 0.4945(2) 0.52190(12)
H1 H 0.3803 0.5011 0.5265
O2 O 0.5088(4) 0.6378(2) 0.55717(13)
O3 O 0.2496(3) 0.5570(2) 0.51782(13)
O4 O 0.4393(3) 0.5456(2) 0.66907(13)
O5 O 0.6007(4) 0.5609(3) 0.82096(13)
O6 O 0.7862(4) 0.5755(3) 0.58678(14)
O7 O 0.5445(4) 0.6667(2) 0.72628(14)
O8 O -0.1164(4) 0.7167(2) 0.63468(14)
H2 H -0.1348 0.7370 0.6124
O9 O 0.0995(4) 0.6262(2) 0.66780(15)
O10 O 0.1320(4) 0.6931(2) 0.56220(16)
O11 O 0.3658(4) 0.7736(2) 0.76736(16)
O12 O 0.1475(4) 0.8564(2) 0.76747(17)
H3 H 0.1553 0.8941 0.7754
O13 O 0.1642(4) 0.6222(2) 0.77528(16)
O14 O 0.7504(4) 0.4600(3) 0.69954(18)
O15 O 0.4222(4) 0.7038(3) 0.43091(19)
O16 O 0.3010(5) 0.5827(3) 0.37109(14)
H4 H 0.2996 0.6224 0.3720
O17 O 0.4240(5) 0.3608(3) 0.77556(19)
H5 H 0.4283 0.3259 0.7872
O18 O 0.5486(7) 0.3965(3) 0.81671(18)
O19 O 0.4122(7) 0.3175(3) 0.4573(2)
N1 N 0.2631(3) 0.7352(2) 0.71438(14)
H6 H 0.2007 0.7219 0.7068
N2 N 0.6765(4) 0.5560(2) 0.69558(14)
H7 H 0.6267 0.5813 0.7048
N3 N -0.0394(4) 0.6626(2) 0.70458(15)
H8 H -0.0966 0.6854 0.7042
N4 N 0.5851(4) 0.5996(3) 0.49571(15)
N5 N 0.3174(4) 0.6228(3) 0.66801(15)
H9 H 0.2514 0.6333 0.6655
N6 N 0.3920(4) 0.6054(3) 0.45804(15)
H10 H 0.4198 0.5712 0.4695
N7 N 0.6236(4) 0.5486(2) 0.60642(14)
H11 H 0.5784 0.5439 0.6278
N8 N 0.5307(4) 0.5280(2) 0.75700(15)
H12 H 0.4792 0.5323 0.7383
N9 N 0.3970(4) 0.6268(3) 0.75505(15)
H13 H 0.3314 0.6161 0.7513
N10 N 0.1266(4) 0.6202(3) 0.48848(16)
H14 H 0.1129 0.6476 0.4676
N11 N -0.0137(4) 0.6503(3) 0.59100(16)
H15 H -0.0609 0.6203 0.5889
N12 N 0.0993(4) 0.7196(3) 0.76591(17)
H16 H 0.0481 0.7431 0.7559
N13 N -0.0785(5) 0.5163(3) 0.40046(18)
H17 H -0.0756 0.5103 0.3720
N14 N 0.1741(6) 0.4275(4) 0.5774(2)
C1 C 0.7199(5) 0.5672(3) 0.61579(18)
C2 C 0.0186(5) 0.6575(3) 0.6691(2)
C3 C -0.0171(5) 0.6923(3) 0.62833(19)
H18 H 0.0308 0.7275 0.6230
C4 C 0.2195(5) 0.5913(3) 0.48849(17)
C5 C 0.5587(5) 0.5967(3) 0.53827(18)
C6 C 0.4514(5) 0.6541(3) 0.72265(18)
C7 C -0.0972(5) 0.5007(4) 0.47196(19)
C8 C 0.3480(5) 0.5628(3) 0.66053(19)
C9 C 0.0591(5) 0.6554(3) 0.5593(2)
C10 C 0.4526(5) 0.6564(3) 0.45132(19)
C11 C 0.5341(5) 0.5661(3) 0.79240(18)
C12 C 0.6836(5) 0.4987(3) 0.7119(2)
C13 C 0.5321(5) 0.4221(3) 0.5705(2)
C14 C 0.0476(5) 0.6087(3) 0.52158(18)
H19 H 0.0559 0.5656 0.5329
C15 C 0.3941(5) 0.6695(3) 0.68026(18)
H20 H 0.4464 0.6702 0.6570
C16 C 0.5907(5) 0.5358(3) 0.56188(17)
H21 H 0.6484 0.5161 0.5459
C17 C 0.0931(5) 0.6571(3) 0.7631(2)
C18 C -0.0737(5) 0.5650(4) 0.46468(19)
C19 C 0.4966(5) 0.4894(3) 0.56251(17)
H22 H 0.4491 0.5019 0.5860
C20 C 0.5089(7) 0.3916(3) 0.7819(2)
C21 C 0.6463(5) 0.5519(3) 0.47096(19)
H23 H 0.6114 0.5113 0.4707
H24 H 0.7153 0.5469 0.4833
C22 C 0.6513(5) 0.5804(3) 0.42500(19)
H25 H 0.7166 0.5699 0.4109
H26 H 0.5944 0.5651 0.4071
C23 C 0.3477(5) 0.7366(3) 0.6829(2)
H27 H 0.4013 0.7662 0.6929
C24 C -0.0993(6) 0.4705(4) 0.4303(2)
C25 C 0.5620(5) 0.6555(3) 0.46920(19)
H28 H 0.5747 0.6939 0.4863
C26 C -0.0077(5) 0.6297(3) 0.74459(19)
H29 H 0.0053 0.5853 0.7371
C27 C -0.0631(5) 0.5720(4) 0.4204(2)
H30 H -0.0475 0.6098 0.4062
C28 C 0.2912(6) 0.4578(3) 0.6379(2)
H31 H 0.3503 0.4438 0.6526
C29 C 0.2895(6) 0.4917(4) 0.41962(19)
C30 C 0.2316(6) 0.4100(4) 0.6145(2)
C31 C 0.2704(5) 0.5202(4) 0.6409(2)
H32 H 0.2076 0.5362 0.6306
C32 C 0.2827(5) 0.7546(3) 0.7554(2)
C33 C 0.6084(6) 0.4801(3) 0.74871(19)
H33 H 0.6498 0.4757 0.7755
C34 C 0.7494(5) 0.5783(3) 0.66267(18)
H34 H 0.8160 0.5582 0.6679
H35 H 0.7590 0.6234 0.6668
C35 C 0.2561(5) 0.5581(4) 0.41004(19)
H36 H 0.1803 0.5582 0.4065
C36 C 0.1897(5) 0.7494(3) 0.7853(2)
H37 H 0.2109 0.7229 0.8101
C37 C 0.2840(5) 0.6051(3) 0.44715(17)
H38 H 0.2656 0.6476 0.4371
C38 C 0.0803(7) 0.8173(4) 0.8379(3)
H39 H 0.0142 0.8079 0.8233
C39 C 0.1661(6) 0.8153(3) 0.8037(2)
H40 H 0.2298 0.8302 0.8180
C40 C 0.4493(6) 0.6153(4) 0.79656(19)
H41 H 0.4816 0.6550 0.8060
C41 C -0.1205(6) 0.4648(4) 0.5092(2)
H42 H -0.1177 0.4832 0.5368
C42 C 0.5568(6) 0.4168(3) 0.7403(2)
H43 H 0.5032 0.4217 0.7182
H44 H 0.6080 0.3870 0.7295
C43 C -0.0605(5) 0.6144(3) 0.49903(19)
H45 H -0.1149 0.6100 0.5208
H46 H -0.0671 0.6560 0.4859
C44 C 0.5521(6) 0.4009(4) 0.6127(2)
H47 H 0.5409 0.4277 0.6364
C45 C 0.2664(8) 0.3882(5) 0.4545(3)
H48 H 0.2240 0.3595 0.4690
C46 C 0.6424(5) 0.6504(4) 0.4321(2)
H49 H 0.6181 0.6716 0.4059
H50 H 0.7087 0.6685 0.4408
C47 C 0.3671(8) 0.3739(4) 0.4442(3)
C48 C 0.5537(8) 0.3824(4) 0.5363(3)
H51 H 0.5432 0.3963 0.5078
C49 C 0.3907(7) 0.4708(4) 0.4086(2)
H52 H 0.4337 0.4976 0.3927
C50 C 0.2363(7) 0.3470(4) 0.6283(3)
C51 C -0.0955(6) 0.6313(4) 0.7782(2)
H53 H -0.1603 0.6201 0.7638
H54 H -0.1026 0.6741 0.7892
C52 C 0.3031(7) 0.7596(4) 0.6402(2)
H55 H 0.2457 0.7332 0.6319
H56 H 0.3558 0.7580 0.6180
H57 H 0.2794 0.8024 0.6435
C53 C 0.6077(8) 0.3014(4) 0.5851(3)
H58 H 0.6326 0.2607 0.5898
C54 C 0.2286(8) 0.4500(5) 0.4417(3)
H59 H 0.1608 0.4614 0.4489
C55 C 0.5883(8) 0.3404(4) 0.6197(3)
H60 H 0.5996 0.3261 0.6481
C56 C -0.0778(7) 0.5862(5) 0.8168(2)
H61 H -0.0071 0.5928 0.8279
C57 C 0.3733(7) 0.5947(6) 0.8319(2)
H62 H 0.3219 0.6271 0.8361
H63 H 0.4103 0.5879 0.8588
H64 H 0.3397 0.5562 0.8231
C58 C 0.4278(8) 0.4127(4) 0.4204(3)
H65 H 0.4942 0.4001 0.4120
C59 C -0.1473(9) 0.4030(5) 0.5049(3)
H66 H -0.1653 0.3791 0.5293
C60 C -0.1246(8) 0.4086(5) 0.4263(3)
H67 H -0.1260 0.3895 0.3989
C61 C 0.1316(8) 0.3187(6) 0.5663(4)
H68 H 0.1004 0.2873 0.5495
C62 C 0.1242(7) 0.3815(5) 0.5528(3)
H69 H 0.0867 0.3923 0.5278
C63 C 0.0980(9) 0.7668(6) 0.8729(3)
H70 H 0.0868 0.7257 0.8605
H71 H 0.0503 0.7733 0.8966
H72 H 0.1681 0.7697 0.8836
C64 C 0.5903(9) 0.3227(5) 0.5435(3)
H73 H 0.6036 0.2963 0.5198
C65 C 0.2941(9) 0.3294(5) 0.6700(4)
H74 H 0.2843 0.3557 0.6940
C66 C -0.1474(10) 0.3752(5) 0.4621(3)
H75 H -0.1638 0.3326 0.4592
C67 C 0.1841(9) 0.3021(5) 0.6041(3)
H76 H 0.1843 0.2601 0.6132
C68 C 0.3576(11) 0.2786(6) 0.4861(4)
H77 H 0.3010 0.2588 0.4708
H78 H 0.3308 0.3035 0.5098
H79 H 0.4034 0.2467 0.4974
C69 C 0.0733(11) 0.8829(6) 0.8566(4)
H80 H 0.1397 0.8949 0.8683
H81 H 0.0221 0.8837 0.8794
H82 H 0.0536 0.9120 0.8340
C70 C -0.1547(9) 0.6027(7) 0.8531(3)
H83 H -0.1441 0.6457 0.8622
H84 H -0.1439 0.5750 0.8776
H85 H -0.2245 0.5978 0.8425
C71 C 0.3566(10) 0.2806(6) 0.6755(4)
H86 H 0.3838 0.2753 0.7034
C72 C -0.0892(11) 0.5178(6) 0.8041(4)
H87 H -0.1498 0.5128 0.7860
H88 H -0.0965 0.4924 0.8299
H89 H -0.0287 0.5045 0.7881
C73 C 0.3886(12) 0.2336(6) 0.6427(5)
H90 H 0.3672 0.2474 0.6142
H91 H 0.3565 0.1937 0.6493
H92 H 0.4629 0.2289 0.6434
O20 O 0.1965(17) 0.8842(11) 0.6827(5)
H93 H 0.2481 0.8675 0.6957
H94 H 0.1424 0.8803 0.6985
O21 O 0.3349(5) 0.7185(3) 0.53135(18)
O22 O 0.5834(5) 0.7715(3) 0.57386(18)
H95 H 0.6017 0.7362 0.5862
H96 H 0.5702 0.7996 0.5939
O23 O 0.7448(5) 0.7114(3) 0.5386(2)
H97 H 0.7605 0.7409 0.5200
H98 H 0.7921 0.7098 0.5589
O24 O 0.2450(5) 0.7752(3) 0.2853(2)
O25 O 0.1727(5) 0.6856(3) 0.3470(2)
O26 O 0.3121(9) 0.5097(4) 0.2959(3)
H99 H 0.3098 0.4866 0.2724
H100 H 0.3318 0.5479 0.2890
O27 O 0.4131(8) 0.7012(5) 0.2563(3)
O28 O 0.3974(15) 0.5742(6) 0.2269(4)
H101 H 0.4288 0.5404 0.2362
H102 H 0.4223 0.6072 0.2404
O29 O 0.4942(14) 0.6516(8) 0.3335(6)
H103 H 0.5275 0.6725 0.3134
H104 H 0.4687 0.6171 0.3224
loop_
_geom_bond_atom_site_label_1
_geom_bond_atom_site_label_2
_geom_bond_site_symmetry_1
_geom_bond_site_symmetry_2
O1 H1 1_555 1_555
O2 C5 1_555 1_555
O3 C4 1_555 1_555
O4 C8 1_555 1_555
O5 C11 1_555 1_555
O6 C1 1_555 1_555
O7 C6 1_555 1_555
O8 H2 1_555 1_555
O9 C2 1_555 1_555
O10 C9 1_555 1_555
O11 C32 1_555 1_555
O12 H3 1_555 1_555
O13 C17 1_555 1_555
O14 C12 1_555 1_555
O15 C10 1_555 1_555
O16 H4 1_555 1_555
O17 H5 1_555 1_555
O18 C20 1_555 1_555
O19 C47 1_555 1_555
N1 H6 1_555 1_555
N2 H7 1_555 1_555
N3 H8 1_555 1_555
N4 C5 1_555 1_555
N5 H9 1_555 1_555
N6 H10 1_555 1_555
N7 H11 1_555 1_555
N8 H12 1_555 1_555
N9 H13 1_555 1_555
N10 H14 1_555 1_555
N11 H15 1_555 1_555
N12 H16 1_555 1_555
N13 H17 1_555 1_555
N14 C30 1_555 1_555
C1 N7 1_555 1_555
C2 N3 1_555 1_555
C3 O8 1_555 1_555
H18 C3 1_555 1_555
C4 N10 1_555 1_555
C5 C16 1_555 1_555
C6 N9 1_555 1_555
C7 C18 1_555 1_555
C8 N5 1_555 1_555
C9 N11 1_555 1_555
C10 N6 1_555 1_555
C11 N8 1_555 1_555
C12 N2 1_555 1_555
C13 C19 1_555 1_555
C14 N10 1_555 1_555
H19 C14 1_555 1_555
C15 N5 1_555 1_555
H20 C15 1_555 1_555
C16 N7 1_555 1_555
H21 C16 1_555 1_555
C17 N12 1_555 1_555
C18 C27 1_555 1_555
C19 O1 1_555 1_555
H22 C19 1_555 1_555
C20 O17 1_555 1_555
C21 N4 1_555 1_555
H23 C21 1_555 1_555
H24 C21 1_555 1_555
C22 C21 1_555 1_555
H25 C22 1_555 1_555
H26 C22 1_555 1_555
C23 N1 1_555 1_555
H27 C23 1_555 1_555
C24 N13 1_555 1_555
C25 N4 1_555 1_555
H28 C25 1_555 1_555
C26 N3 1_555 1_555
H29 C26 1_555 1_555
C27 N13 1_555 1_555
H30 C27 1_555 1_555
C28 H31 1_555 1_555
C29 C35 1_555 1_555
C30 C28 1_555 1_555
C31 C8 1_555 1_555
H32 C31 1_555 1_555
C32 N1 1_555 1_555
C33 N8 1_555 1_555
H33 C33 1_555 1_555
C34 N2 1_555 1_555
H34 C34 1_555 1_555
H35 C34 1_555 1_555
C35 O16 1_555 1_555
H36 C35 1_555 1_555
C36 N12 1_555 1_555
H37 C36 1_555 1_555
C37 N6 1_555 1_555
H38 C37 1_555 1_555
C38 H39 1_555 1_555
C39 O12 1_555 1_555
H40 C39 1_555 1_555
C40 N9 1_555 1_555
H41 C40 1_555 1_555
C41 C7 1_555 1_555
H42 C41 1_555 1_555
C42 C20 1_555 1_555
H43 C42 1_555 1_555
H44 C42 1_555 1_555
C43 C14 1_555 1_555
H45 C43 1_555 1_555
H46 C43 1_555 1_555
C44 C13 1_555 1_555
H47 C44 1_555 1_555
C45 H48 1_555 1_555
C46 C22 1_555 1_555
H49 C46 1_555 1_555
H50 C46 1_555 1_555
C47 C45 1_555 1_555
C48 C13 1_555 1_555
H51 C48 1_555 1_555
C49 C29 1_555 1_555
H52 C49 1_555 1_555
C50 C30 1_555 1_555
C51 C26 1_555 1_555
H53 C51 1_555 1_555
H54 C51 1_555 1_555
C52 C23 1_555 1_555
H55 C52 1_555 1_555
H56 C52 1_555 1_555
H57 C52 1_555 1_555
C53 H58 1_555 1_555
C54 C29 1_555 1_555
H59 C54 1_555 1_555
C55 C44 1_555 1_555
H60 C55 1_555 1_555
C56 C51 1_555 1_555
H61 C56 1_555 1_555
C57 C40 1_555 1_555
H62 C57 1_555 1_555
H63 C57 1_555 1_555
H64 C57 1_555 1_555
C58 C47 1_555 1_555
H65 C58 1_555 1_555
C59 C41 1_555 1_555
H66 C59 1_555 1_555
C60 C24 1_555 1_555
H67 C60 1_555 1_555
C61 H68 1_555 1_555
C62 N14 1_555 1_555
H69 C62 1_555 1_555
C63 C38 1_555 1_555
H70 C63 1_555 1_555
H71 C63 1_555 1_555
H72 C63 1_555 1_555
C64 C48 1_555 1_555
H73 C64 1_555 1_555
C65 C50 1_555 1_555
H74 C65 1_555 1_555
C66 C59 1_555 1_555
H75 C66 1_555 1_555
C67 C50 1_555 1_555
H76 C67 1_555 1_555
C68 O19 1_555 1_555
H77 C68 1_555 1_555
H78 C68 1_555 1_555
H79 C68 1_555 1_555
C69 C38 1_555 1_555
H80 C69 1_555 1_555
H81 C69 1_555 1_555
H82 C69 1_555 1_555
C70 C56 1_555 1_555
H83 C70 1_555 1_555
H84 C70 1_555 1_555
H85 C70 1_555 1_555
C71 C65 1_555 1_555
H86 C71 1_555 1_555
C72 C56 1_555 1_555
H87 C72 1_555 1_555
H88 C72 1_555 1_555
H89 C72 1_555 1_555
C73 C71 1_555 1_555
H90 C73 1_555 1_555
H91 C73 1_555 1_555
H92 C73 1_555 1_555
O20 H93 1_555 1_555
H94 O20 1_555 1_555
O22 H95 1_555 1_555
H96 O22 1_555 1_555
O23 H97 1_555 1_555
H98 O23 1_555 1_555
O26 H99 1_555 1_555
H100 O26 1_555 1_555
O28 H101 1_555 1_555
H102 O28 1_555 1_555
O29 H103 1_555 1_555
H104 O29 1_555 1_555
N11 C3 1_555 1_555
C1 C34 1_555 1_555
C2 C3 1_555 1_555
C4 C37 1_555 1_555
C6 C15 1_555 1_555
C7 C24 1_555 1_555
C9 C14 1_555 1_555
C10 C25 1_555 1_555
C11 C40 1_555 1_555
C12 C33 1_555 1_555
C15 C23 1_555 1_555
C16 C19 1_555 1_555
C17 C26 1_555 1_555
C18 C43 1_555 1_555
C25 C46 1_555 1_555
C28 C31 1_555 1_555
C32 C36 1_555 1_555
C33 C42 1_555 1_555
C35 C37 1_555 1_555
C36 C39 1_555 1_555
C38 C39 1_555 1_555
C45 C54 1_555 1_555
C49 C58 1_555 1_555
C53 C55 1_555 1_555
C53 C64 1_555 1_555
C60 C66 1_555 1_555
C61 C62 1_555 1_555
C61 C67 1_555 1_555

#END
