
#######################################################################
#
#                 Cambridge Crystallographic Data Centre
#                                CCDC 
#
#######################################################################
#
# If this CIF has been generated from an entry in the Cambridge 
# Structural Database, then it will include bibliographic, chemical, 
# crystal, experimental, refinement or atomic coordinate data resulting 
# from the CCDC's data processing and validation procedures.
#
#######################################################################

data_PIGBAJ
_chemical_formula_moiety         'C20 H20 B1 N3 O8'
_chemical_name_systematic        
(E)-2,4,6-trinitro-4'-(4,4,5,5-tetramethyl-1,3,2-dioxaborolan-2-yl)stilbene
_symmetry_cell_setting           triclinic
_symmetry_space_group_name_H-M   'P -1'
_symmetry_Int_Tables_number      2
_space_group_name_Hall           '-P 1'
loop_
_symmetry_equiv_pos_site_id
_symmetry_equiv_pos_as_xyz
1 x,y,z
2 -x,-y,-z
_cell_length_a                   7.0791(15)
_cell_length_b                   8.5022(19)
_cell_length_c                   18.497(4)
_cell_angle_alpha                79.652(4)
_cell_angle_beta                 79.306(4)
_cell_angle_gamma                79.706(4)
_cell_volume                     1063.93
_exptl_crystal_colour            colorless
_exptl_crystal_description       block
_chemical_melting_point          '181 deg.C'
_cell_formula_units_Z            2
_exptl_crystal_recrystallization_method 'n-hexane/ethyl acetate'
loop_
_atom_site_label
_atom_site_type_symbol
_atom_site_fract_x
_atom_site_fract_y
_atom_site_fract_z
C1 C 0.7430(3) 0.5850(3) -0.06870(11)
C2 C 0.7656(3) 0.5355(3) -0.13825(12)
N1 N 0.7900(4) 0.3629(3) -0.14459(12)
O1 O 0.9107(4) 0.2706(2) -0.11306(13)
O2 O 0.6878(4) 0.3231(3) -0.18187(14)
C3 C 0.7695(4) 0.6395(3) -0.20497(13)
H1 H 0.7803 0.6007 -0.2497
C4 C 0.7570(3) 0.8005(3) -0.20312(12)
N2 N 0.7656(4) 0.9126(3) -0.27408(13)
O3 O 0.7989(4) 0.8536(3) -0.33108(12)
O4 O 0.7378(5) 1.0550(3) -0.27159(12)
C5 C 0.7349(3) 0.8617(3) -0.13779(12)
H2 H 0.7267 0.9720 -0.1375
C6 C 0.7253(3) 0.7529(3) -0.07223(12)
N3 N 0.6863(3) 0.8267(2) -0.00417(11)
O5 O 0.8109(3) 0.8944(3) 0.00802(12)
O6 O 0.5287(3) 0.8200(2) 0.03491(10)
C7 C 0.7322(3) 0.4655(3) -0.00068(12)
H3 H 0.6984 0.3677 -0.0059
C8 C 0.7626(3) 0.4741(3) 0.06695(13)
H4 H 0.7915 0.5709 0.0756
C9 C 0.7534(3) 0.3389(3) 0.12923(12)
C10 C 0.7292(4) 0.3691(3) 0.20226(13)
H5 H 0.7188 0.4746 0.2115
C11 C 0.7204(4) 0.2431(3) 0.26118(13)
H6 H 0.7011 0.2658 0.3096
C12 C 0.7399(3) 0.0832(3) 0.24966(13)
C13 C 0.7651(4) 0.0549(3) 0.17627(13)
H7 H 0.7779 -0.0506 0.1669
C14 C 0.7715(3) 0.1797(3) 0.11740(13)
H8 H 0.7881 0.1570 0.0691
B1 B 0.7405(4) -0.0606(3) 0.31512(16)
O7 O 0.7895(3) -0.2172(2) 0.30441(9)
O8 O 0.6960(3) -0.0416(2) 0.38780(9)
C15 C 0.7552(9) -0.2000(8) 0.4301(3)
C16 C 0.9547(9) -0.2011(7) 0.4467(3)
H9 H 1.0460 -0.1979 0.4013
H10 H 0.9909 -0.2978 0.4800
H11 H 0.9551 -0.1083 0.4696
C17 C 0.6050(11) -0.2219(8) 0.5015(3)
H12 H 0.6421 -0.3239 0.5311
H13 H 0.4793 -0.2194 0.4885
H14 H 0.6001 -0.1361 0.5295
C18 C 0.7431(8) -0.3159(6) 0.3758(3)
C19 C 0.8984(10) -0.4670(6) 0.3781(3)
H15 H 0.8891 -0.5279 0.3402
H16 H 0.8781 -0.5326 0.4260
H17 H 1.0251 -0.4351 0.3694
C20 C 0.5481(8) -0.3625(6) 0.3788(3)
H18 H 0.4513 -0.2677 0.3787
H19 H 0.5187 -0.4370 0.4234
H20 H 0.5488 -0.4129 0.3363
C21? C 0.6807(16) -0.2035(19) 0.4328(7)
C22? C 0.737(2) -0.2047(16) 0.5061(5)
H21? H 0.8505 -0.1532 0.4992
H22? H 0.7648 -0.3144 0.5299
H23? H 0.6321 -0.1473 0.5366
C23? C 0.4662(9) -0.2323(10) 0.4430(6)
H24? H 0.3847 -0.1571 0.4727
H25? H 0.4556 -0.3407 0.4674
H26? H 0.4257 -0.2170 0.3951
C24? C 0.8129(9) -0.3142(10) 0.3807(4)
C25? C 1.0322(9) -0.3302(9) 0.3890(5)
H27? H 1.0573 -0.4068 0.4323
H28? H 1.0606 -0.2269 0.3941
H29? H 1.1128 -0.3667 0.3456
C26? C 0.765(2) -0.4773(12) 0.3837(8)
H30? H 0.6344 -0.4686 0.3742
H31? H 0.7757 -0.5382 0.4321
H32? H 0.8535 -0.5312 0.3467
loop_
_geom_bond_atom_site_label_1
_geom_bond_atom_site_label_2
_geom_bond_site_symmetry_1
_geom_bond_site_symmetry_2
C1 C2 1_555 1_555
C2 N1 1_555 1_555
N1 O1 1_555 1_555
O2 N1 1_555 1_555
C3 C2 1_555 1_555
H1 C3 1_555 1_555
C4 C3 1_555 1_555
N2 C4 1_555 1_555
O3 N2 1_555 1_555
O4 N2 1_555 1_555
C5 C4 1_555 1_555
H2 C5 1_555 1_555
C6 C1 1_555 1_555
N3 C6 1_555 1_555
O5 N3 1_555 1_555
O6 N3 1_555 1_555
C7 C1 1_555 1_555
H3 C7 1_555 1_555
C8 C7 1_555 1_555
H4 C8 1_555 1_555
C9 C8 1_555 1_555
C10 C9 1_555 1_555
H5 C10 1_555 1_555
C11 C10 1_555 1_555
H6 C11 1_555 1_555
C12 C11 1_555 1_555
C13 C12 1_555 1_555
H7 C13 1_555 1_555
C14 C9 1_555 1_555
H8 C14 1_555 1_555
B1 C12 1_555 1_555
O7 B1 1_555 1_555
O8 B1 1_555 1_555
C15 O8 1_555 1_555
C16 C15 1_555 1_555
H9 C16 1_555 1_555
H10 C16 1_555 1_555
H11 C16 1_555 1_555
C17 C15 1_555 1_555
H12 C17 1_555 1_555
H13 C17 1_555 1_555
H14 C17 1_555 1_555
C18 O7 1_555 1_555
C19 C18 1_555 1_555
H15 C19 1_555 1_555
H16 C19 1_555 1_555
H17 C19 1_555 1_555
C20 C18 1_555 1_555
H18 C20 1_555 1_555
H19 C20 1_555 1_555
H20 C20 1_555 1_555
C5 C6 1_555 1_555
C13 C14 1_555 1_555
C15 C18 1_555 1_555

#END
