
#######################################################################
#
#                 Cambridge Crystallographic Data Centre
#                                CCDC 
#
#######################################################################
#
# If this CIF has been generated from an entry in the Cambridge 
# Structural Database, then it will include bibliographic, chemical, 
# crystal, experimental, refinement or atomic coordinate data resulting 
# from the CCDC's data processing and validation procedures.
#
#######################################################################

data_PIGGOB
_chemical_formula_moiety         'C30 H28 N4'
_chemical_name_systematic        N,N,N',N'-Tetrabenzyl-N''-cyanoguanidine
_symmetry_cell_setting           monoclinic
_symmetry_space_group_name_H-M   'P 21/n'
_symmetry_Int_Tables_number      14
_space_group_name_Hall           '-P 2yn'
loop_
_symmetry_equiv_pos_site_id
_symmetry_equiv_pos_as_xyz
1 x,y,z
2 1/2-x,1/2+y,1/2-z
3 -x,-y,-z
4 1/2+x,1/2-y,1/2+z
_cell_length_a                   10.231(2)
_cell_length_b                   14.158(4)
_cell_length_c                   17.231(4)
_cell_angle_alpha                90
_cell_angle_beta                 95.27(4)
_cell_angle_gamma                90
_cell_volume                     2485.37
_exptl_crystal_colour            colorless
_chemical_melting_point          '159-160 deg.C'
_cell_formula_units_Z            4
loop_
_atom_site_label
_atom_site_type_symbol
_atom_site_fract_x
_atom_site_fract_y
_atom_site_fract_z
N1 N 0.1812 -0.1510 0.8381
N2 N 0.2904 0.0062 0.8405
N3 N 0.3790 0.1323 0.7842
N4 N 0.4426 -0.0173 0.7436
C1 C 0.2351 -0.0784 0.8368
C2 C 0.3706 0.0363 0.7904
C3 C 0.2744 0.1912 0.8143
C4 C 0.1363 0.1673 0.7782
C5 C 0.0323 0.1617 0.8249
C6 C -0.0944 0.1483 0.7920
C7 C -0.1176 0.1378 0.7136
C8 C -0.0182 0.1410 0.6662
C9 C 0.1117 0.1567 0.6983
C10 C 0.5043 0.1829 0.7740
C11 C 0.5561 0.2390 0.8463
C12 C 0.5574 0.3353 0.8441
C13 C 0.6062 0.3872 0.9076
C14 C 0.6575 0.3395 0.9722
C15 C 0.6579 0.2435 0.9766
C16 C 0.6074 0.1919 0.9126
C17 C 0.4739 0.0126 0.6652
C18 C 0.4236 -0.0578 0.6038
C19 C 0.2904 -0.0753 0.5894
C20 C 0.2445 -0.1384 0.5297
C21 C 0.3285 -0.1823 0.4866
C22 C 0.4582 -0.1646 0.5011
C23 C 0.5066 -0.1033 0.5584
C24 C 0.4987 -0.1078 0.7748
C25 C 0.6145 -0.0931 0.8345
C26 C 0.6000 -0.0831 0.9136
C27 C 0.7138 -0.0678 0.9660
C28 C 0.8315 -0.0655 0.9398
C29 C 0.8443 -0.0735 0.8658
C30 C 0.7383 -0.0891 0.8134
H1 H 0.2760 0.1809 0.8700
H2 H 0.2896 0.2569 0.8063
H3 H 0.0486 0.1708 0.8801
H4 H -0.1703 0.1445 0.8270
H5 H -0.2067 0.1275 0.6939
H6 H -0.0437 0.1325 0.6119
H7 H 0.1784 0.1643 0.6638
H8 H 0.5739 0.1343 0.7647
H9 H 0.5003 0.2223 0.7293
H10 H 0.5306 0.3679 0.7969
H11 H 0.6089 0.4532 0.9102
H12 H 0.6967 0.3691 1.0185
H13 H 0.6889 0.2065 1.0242
H14 H 0.6084 0.1205 0.9127
H15 H 0.4352 0.0736 0.6537
H16 H 0.5677 0.0198 0.6650
H17 H 0.2277 -0.0476 0.6214
H18 H 0.1525 -0.1481 0.5144
H19 H 0.3018 -0.2249 0.4438
H20 H 0.5176 -0.2002 0.4721
H21 H 0.6015 -0.0947 0.5674
H22 H 0.4336 -0.1418 0.7991
H23 H 0.5268 -0.1456 0.7330
H24 H 0.5154 -0.0897 0.9328
H25 H 0.7139 -0.0524 1.0189
H26 H 0.9075 -0.0588 0.9707
H27 H 0.9263 -0.0671 0.8433
H28 H 0.7491 -0.0991 0.7546
loop_
_geom_bond_atom_site_label_1
_geom_bond_atom_site_label_2
_geom_bond_site_symmetry_1
_geom_bond_site_symmetry_2
N1 C1 1_555 1_555
N2 C1 1_555 1_555
N3 C2 1_555 1_555
N4 C2 1_555 1_555
C2 N2 1_555 1_555
C3 N3 1_555 1_555
C4 C3 1_555 1_555
C5 C4 1_555 1_555
C6 C5 1_555 1_555
C7 C6 1_555 1_555
C8 C7 1_555 1_555
C9 C4 1_555 1_555
C10 N3 1_555 1_555
C11 C10 1_555 1_555
C12 C11 1_555 1_555
C13 C12 1_555 1_555
C14 C13 1_555 1_555
C15 C14 1_555 1_555
C16 C11 1_555 1_555
C17 N4 1_555 1_555
C18 C17 1_555 1_555
C19 C18 1_555 1_555
C20 C19 1_555 1_555
C21 C20 1_555 1_555
C22 C21 1_555 1_555
C23 C18 1_555 1_555
C24 N4 1_555 1_555
C25 C24 1_555 1_555
C26 C25 1_555 1_555
C27 C26 1_555 1_555
C28 C27 1_555 1_555
C29 C28 1_555 1_555
C30 C25 1_555 1_555
H1 C3 1_555 1_555
H2 C3 1_555 1_555
H3 C5 1_555 1_555
H4 C6 1_555 1_555
H5 C7 1_555 1_555
H6 C8 1_555 1_555
H7 C9 1_555 1_555
H8 C10 1_555 1_555
H9 C10 1_555 1_555
H10 C12 1_555 1_555
H11 C13 1_555 1_555
H12 C14 1_555 1_555
H13 C15 1_555 1_555
H14 C16 1_555 1_555
H15 C17 1_555 1_555
H16 C17 1_555 1_555
H17 C19 1_555 1_555
H18 C20 1_555 1_555
H19 C21 1_555 1_555
H20 C22 1_555 1_555
H21 C23 1_555 1_555
H22 C24 1_555 1_555
H23 C24 1_555 1_555
H24 C26 1_555 1_555
H25 C27 1_555 1_555
H26 C28 1_555 1_555
H27 C29 1_555 1_555
H28 C30 1_555 1_555
C8 C9 1_555 1_555
C15 C16 1_555 1_555
C22 C23 1_555 1_555
C29 C30 1_555 1_555

#END
