
#######################################################################
#
#                 Cambridge Crystallographic Data Centre
#                                CCDC 
#
#######################################################################
#
# If this CIF has been generated from an entry in the Cambridge 
# Structural Database, then it will include bibliographic, chemical, 
# crystal, experimental, refinement or atomic coordinate data resulting 
# from the CCDC's data processing and validation procedures.
#
#######################################################################

data_PIGJUN
_chemical_formula_moiety         'C35 H26 F3 N1 O1'
_chemical_name_systematic        
5-benzyl-1-methyl-7,7-diphenyl-3-(trifluoromethyl)-5,7-dihydro-6H-dibenzo[b,d]azepin-6-one
_symmetry_cell_setting           orthorhombic
_symmetry_space_group_name_H-M   'P 21 21 21'
_symmetry_Int_Tables_number      19
_space_group_name_Hall           'P 2ac 2ab'
loop_
_symmetry_equiv_pos_site_id
_symmetry_equiv_pos_as_xyz
1 x,y,z
2 1/2-x,-y,1/2+z
3 -x,1/2+y,1/2-z
4 1/2+x,1/2-y,-z
_cell_length_a                   9.72478(14)
_cell_length_b                   9.93769(13)
_cell_length_c                   27.6240(4)
_cell_angle_alpha                90
_cell_angle_beta                 90
_cell_angle_gamma                90
_cell_volume                     2669.63
_exptl_crystal_colour            colorless
_exptl_crystal_description       prism
_cell_formula_units_Z            4
loop_
_atom_site_label
_atom_site_type_symbol
_atom_site_fract_x
_atom_site_fract_y
_atom_site_fract_z
F1 F 0.83338(19) 0.66468(16) 0.30467(6)
F2 F 1.00972(16) 0.5390(2) 0.31353(6)
F3 F 0.9406(3) 0.6612(2) 0.37251(7)
O1 O 0.21647(15) 0.36594(16) 0.38412(5)
N1 N 0.44042(17) 0.42651(16) 0.38240(6)
C1 C 0.3363(2) 0.33421(19) 0.37730(6)
C2 C 0.37746(19) 0.18576(18) 0.36736(6)
C3 C 0.4297(2) 0.14801(19) 0.41835(6)
C4 C 0.3457(2) 0.0804(2) 0.45162(7)
H1 H 0.258(3) 0.046(3) 0.4427(9)
C5 C 0.3911(2) 0.0556(2) 0.49848(7)
H2 H 0.330(3) 0.011(3) 0.5207(9)
C6 C 0.5190(2) 0.1013(2) 0.51326(7)
H3 H 0.547(3) 0.089(3) 0.5460(10)
C7 C 0.6002(2) 0.1740(2) 0.48154(7)
H4 H 0.693(3) 0.214(3) 0.4916(9)
C8 C 0.5572(2) 0.19854(18) 0.43375(6)
C9 C 0.6430(2) 0.28652(18) 0.40270(6)
C10 C 0.7853(2) 0.2625(2) 0.39697(6)
C11 C 0.8664(2) 0.3575(2) 0.37330(6)
H5 H 0.964(3) 0.337(3) 0.3705(9)
C12 C 0.8066(2) 0.4725(2) 0.35420(7)
C13 C 0.6664(2) 0.4917(2) 0.35563(7)
H6 H 0.627(3) 0.566(3) 0.3417(10)
C14 C 0.5838(2) 0.39868(18) 0.37961(6)
C15 C 0.48543(19) 0.16728(18) 0.32687(6)
C16 C 0.5744(2) 0.05846(19) 0.32777(7)
H7 H 0.571(3) 0.000(3) 0.3555(9)
C17 C 0.6639(2) 0.0341(2) 0.28927(7)
H8 H 0.726(3) -0.038(3) 0.2896(9)
C18 C 0.6639(2) 0.1192(2) 0.24940(7)
H9 H 0.726(4) 0.107(3) 0.2234(11)
C19 C 0.5741(3) 0.2274(2) 0.24804(7)
H10 H 0.571(3) 0.290(3) 0.2224(11)
C20 C 0.4839(2) 0.2506(2) 0.28631(7)
H11 H 0.417(3) 0.327(3) 0.2844(9)
C21 C 0.2559(2) 0.1010(2) 0.34936(6)
C22 C 0.2573(2) -0.0383(2) 0.35613(8)
H12 H 0.325(4) -0.075(3) 0.3737(10)
C23 C 0.1575(3) -0.1203(2) 0.33560(8)
H13 H 0.161(3) -0.216(3) 0.3418(9)
C24 C 0.0547(3) -0.0647(3) 0.30736(9)
H14 H -0.014(4) -0.129(3) 0.2929(11)
C25 C 0.0526(2) 0.0733(3) 0.29973(8)
H15 H -0.013(3) 0.117(3) 0.2803(10)
C26 C 0.1533(2) 0.1556(2) 0.32004(7)
H16 H 0.154(3) 0.244(3) 0.3136(8)
C27 C 0.8546(2) 0.1369(2) 0.41502(8)
H17 H 0.790(4) 0.060(4) 0.4203(12)
H18 H 0.897(3) 0.154(3) 0.4467(11)
H19 H 0.928(5) 0.113(4) 0.3963(14)
C28 C 0.8963(3) 0.5835(3) 0.33591(8)
C29 C 0.4001(2) 0.5680(2) 0.39206(7)
H20 H 0.414(3) 0.619(3) 0.3619(9)
H21 H 0.300(3) 0.565(3) 0.3981(9)
C30 C 0.4760(2) 0.62669(19) 0.43457(7)
C31 C 0.4595(3) 0.5714(2) 0.48051(8)
H22 H 0.397(3) 0.499(3) 0.4855(10)
C32 C 0.5291(3) 0.6247(2) 0.51994(8)
H23 H 0.516(4) 0.586(3) 0.5521(11)
C33 C 0.6155(3) 0.7329(3) 0.51404(9)
H24 H 0.655(4) 0.774(4) 0.5439(13)
C34 C 0.6332(3) 0.7888(3) 0.46871(10)
H25 H 0.695(4) 0.867(4) 0.4641(13)
C35 C 0.5632(3) 0.7358(2) 0.42916(9)
H26 H 0.578(3) 0.773(3) 0.3964(10)
loop_
_geom_bond_atom_site_label_1
_geom_bond_atom_site_label_2
_geom_bond_site_symmetry_1
_geom_bond_site_symmetry_2
F1 C28 1_555 1_555
F2 C28 1_555 1_555
F3 C28 1_555 1_555
O1 C1 1_555 1_555
N1 C1 1_555 1_555
C1 C2 1_555 1_555
C2 C3 1_555 1_555
C3 C4 1_555 1_555
C4 H1 1_555 1_555
C5 C4 1_555 1_555
H2 C5 1_555 1_555
C6 C5 1_555 1_555
H3 C6 1_555 1_555
C7 C6 1_555 1_555
H4 C7 1_555 1_555
C8 C3 1_555 1_555
C9 C8 1_555 1_555
C10 C9 1_555 1_555
C11 C10 1_555 1_555
H5 C11 1_555 1_555
C12 C11 1_555 1_555
C13 C12 1_555 1_555
H6 C13 1_555 1_555
C14 N1 1_555 1_555
C15 C2 1_555 1_555
C16 C15 1_555 1_555
H7 C16 1_555 1_555
C17 C16 1_555 1_555
H8 C17 1_555 1_555
C18 C17 1_555 1_555
H9 C18 1_555 1_555
C19 C18 1_555 1_555
H10 C19 1_555 1_555
C20 C15 1_555 1_555
H11 C20 1_555 1_555
C21 C2 1_555 1_555
C22 C21 1_555 1_555
H12 C22 1_555 1_555
C23 C22 1_555 1_555
H13 C23 1_555 1_555
C24 C23 1_555 1_555
H14 C24 1_555 1_555
C25 C24 1_555 1_555
H15 C25 1_555 1_555
C26 C21 1_555 1_555
H16 C26 1_555 1_555
C27 C10 1_555 1_555
H17 C27 1_555 1_555
H18 C27 1_555 1_555
H19 C27 1_555 1_555
C28 C12 1_555 1_555
C29 N1 1_555 1_555
H20 C29 1_555 1_555
H21 C29 1_555 1_555
C30 C29 1_555 1_555
C31 C30 1_555 1_555
H22 C31 1_555 1_555
C32 C31 1_555 1_555
H23 C32 1_555 1_555
C33 C32 1_555 1_555
H24 C33 1_555 1_555
C34 C33 1_555 1_555
H25 C34 1_555 1_555
C35 C30 1_555 1_555
H26 C35 1_555 1_555
C7 C8 1_555 1_555
C9 C14 1_555 1_555
C13 C14 1_555 1_555
C19 C20 1_555 1_555
C25 C26 1_555 1_555
C34 C35 1_555 1_555

#END
