
#######################################################################
#
#                 Cambridge Crystallographic Data Centre
#                                CCDC 
#
#######################################################################
#
# If this CIF has been generated from an entry in the Cambridge 
# Structural Database, then it will include bibliographic, chemical, 
# crystal, experimental, refinement or atomic coordinate data resulting 
# from the CCDC's data processing and validation procedures.
#
#######################################################################

data_PIGKIA
_chemical_formula_moiety         'C22 H19 Cl1 O5'
_chemical_name_systematic        
'Ethyl 3-(4-chlorobenzoyl)-1-hydroxy-1,3a,4,9b-tetrahydrocyclopenta(c)chromene-1-carboxylate'
_symmetry_cell_setting           orthorhombic
_symmetry_space_group_name_H-M   'P b c a'
_symmetry_Int_Tables_number      61
_space_group_name_Hall           '-P 2ac 2ab'
loop_
_symmetry_equiv_pos_site_id
_symmetry_equiv_pos_as_xyz
1 x,y,z
2 1/2-x,-y,1/2+z
3 -x,1/2+y,1/2-z
4 1/2+x,1/2-y,-z
5 -x,-y,-z
6 1/2+x,y,1/2-z
7 x,1/2-y,1/2+z
8 1/2-x,1/2+y,z
_cell_length_a                   17.442(2)
_cell_length_b                   7.8090(10)
_cell_length_c                   28.315(3)
_cell_angle_alpha                90
_cell_angle_beta                 90
_cell_angle_gamma                90
_cell_volume                     3856.63
_exptl_crystal_colour            colorless
_exptl_crystal_description       prismatic
_cell_formula_units_Z            8
loop_
_atom_site_label
_atom_site_type_symbol
_atom_site_fract_x
_atom_site_fract_y
_atom_site_fract_z
Cl1 Cl 0.79157(8) -0.08297(18) 0.99113(4)
O1 O 1.02506(10) 0.0717(3) 0.74245(7)
H1 H 1.0617 0.0303 0.7284
O2 O 0.79228(16) 0.2147(3) 0.62917(9)
O3 O 0.70198(12) 0.0904(3) 0.76802(9)
O4 O 1.03868(11) -0.1683(3) 0.67802(8)
O5 O 0.91192(11) -0.1963(3) 0.66845(8)
C1 C 0.95576(15) 0.0217(4) 0.71971(10)
C2 C 0.89711(16) -0.0212(4) 0.75614(10)
H2 H 0.9040 -0.1065 0.7787
C3 C 0.83372(16) 0.0744(4) 0.75331(11)
C4 C 0.83493(16) 0.1876(4) 0.71036(11)
H3 H 0.8211 0.3050 0.7191
C5 C 0.91889(16) 0.1811(3) 0.69419(10)
H4 H 0.9439 0.2829 0.7074
C6 C 0.9288(2) 0.1911(4) 0.64137(11)
C7 C 0.8654(2) 0.2089(4) 0.61181(13)
C8 C 0.78196(19) 0.1236(5) 0.67221(13)
H5 H 0.7915 0.0028 0.6668
H6 H 0.7293 0.1360 0.6826
C9 C 1.0011(2) 0.1904(4) 0.62045(12)
H7 H 1.0444 0.1801 0.6395
C10 C 1.0100(3) 0.2044(5) 0.57237(15)
H8 H 1.0587 0.2014 0.5590
C11 C 0.9470(3) 0.2226(6) 0.54461(16)
H9 H 0.9528 0.2325 0.5121
C12 C 0.8755(3) 0.2266(5) 0.56375(16)
H10 H 0.8331 0.2413 0.5443
C13 C 0.76633(17) 0.0632(4) 0.78466(12)
C14 C 0.77451(16) 0.0252(4) 0.83588(11)
C15 C 0.71066(19) -0.0267(5) 0.86178(14)
H11 H 0.6637 -0.0401 0.8466
C16 C 0.7161(2) -0.0582(5) 0.90915(15)
H12 H 0.6730 -0.0925 0.9260
C17 C 0.7840(2) -0.0396(5) 0.93137(13)
C18 C 0.8478(2) 0.0124(5) 0.90742(12)
H13 H 0.8942 0.0257 0.9232
C19 C 0.84270(18) 0.0450(4) 0.85961(12)
H14 H 0.8860 0.0809 0.8432
C20 C 0.97392(17) -0.1245(4) 0.68678(11)
C21 C 0.9229(2) -0.3350(5) 0.63496(14)
H15 H 0.9684 -0.3995 0.6435
H16 H 0.8793 -0.4120 0.6364
C22 C 0.9311(4) -0.2705(7) 0.58731(18)
H17 H 0.9766 -0.2017 0.5853
H18 H 0.8872 -0.2022 0.5793
H19 H 0.9350 -0.3649 0.5657
loop_
_geom_bond_atom_site_label_1
_geom_bond_atom_site_label_2
_geom_bond_site_symmetry_1
_geom_bond_site_symmetry_2
Cl1 C17 1_555 1_555
O1 H1 1_555 1_555
O2 C7 1_555 1_555
O3 C13 1_555 1_555
O4 C20 1_555 1_555
O5 C20 1_555 1_555
C1 O1 1_555 1_555
C2 C1 1_555 1_555
H2 C2 1_555 1_555
C3 C2 1_555 1_555
C4 C3 1_555 1_555
H3 C4 1_555 1_555
C5 C1 1_555 1_555
H4 C5 1_555 1_555
C6 C5 1_555 1_555
C7 C6 1_555 1_555
C8 O2 1_555 1_555
H5 C8 1_555 1_555
H6 C8 1_555 1_555
C9 C6 1_555 1_555
H7 C9 1_555 1_555
C10 C9 1_555 1_555
H8 C10 1_555 1_555
C11 C10 1_555 1_555
H9 C11 1_555 1_555
C12 C7 1_555 1_555
H10 C12 1_555 1_555
C13 C3 1_555 1_555
C14 C13 1_555 1_555
C15 C14 1_555 1_555
H11 C15 1_555 1_555
C16 C15 1_555 1_555
H12 C16 1_555 1_555
C17 C16 1_555 1_555
C18 C17 1_555 1_555
H13 C18 1_555 1_555
C19 C14 1_555 1_555
H14 C19 1_555 1_555
C20 C1 1_555 1_555
C21 O5 1_555 1_555
H15 C21 1_555 1_555
H16 C21 1_555 1_555
C22 C21 1_555 1_555
H17 C22 1_555 1_555
H18 C22 1_555 1_555
H19 C22 1_555 1_555
C4 C5 1_555 1_555
C4 C8 1_555 1_555
C11 C12 1_555 1_555
C18 C19 1_555 1_555

#END
