
#######################################################################
#
#                 Cambridge Crystallographic Data Centre
#                                CCDC 
#
#######################################################################
#
# If this CIF has been generated from an entry in the Cambridge 
# Structural Database, then it will include bibliographic, chemical, 
# crystal, experimental, refinement or atomic coordinate data resulting 
# from the CCDC's data processing and validation procedures.
#
#######################################################################

data_PIGKAU
_chemical_formula_moiety         'C37 H26 Cl1 N1 O1'
_chemical_name_systematic        
7-[(4-chlorophenyl)methyl]-9,9-diphenyl-7,9-dihydro-8H-benzo[d]naphtho[2,1-b]azepin-8-one
_symmetry_cell_setting           monoclinic
_symmetry_space_group_name_H-M   'P 21'
_symmetry_Int_Tables_number      4
_space_group_name_Hall           'P 2yb'
loop_
_symmetry_equiv_pos_site_id
_symmetry_equiv_pos_as_xyz
1 x,y,z
2 -x,1/2+y,-z
_cell_length_a                   10.8182(2)
_cell_length_b                   8.28564(15)
_cell_length_c                   16.2214(3)
_cell_angle_alpha                90
_cell_angle_beta                 108.382(2)
_cell_angle_gamma                90
_cell_volume                     1379.83
_exptl_crystal_colour            colorless
_exptl_crystal_description       prism
_cell_formula_units_Z            2
loop_
_atom_site_label
_atom_site_type_symbol
_atom_site_fract_x
_atom_site_fract_y
_atom_site_fract_z
Cl1 Cl 0.98916(6) 0.00392(10) 0.58494(4)
O1 O 0.65369(15) 0.62342(19) 0.62987(10)
N1 N 0.51313(16) 0.4465(2) 0.65574(10)
C1 C 0.60061(19) 0.5720(2) 0.68047(12)
C2 C 0.63147(17) 0.6420(2) 0.77415(12)
C3 C 0.75284(18) 0.7502(2) 0.79008(12)
C4 C 0.8638(2) 0.6891(3) 0.77365(14)
H1 H 0.861(3) 0.583(4) 0.7516(18)
C5 C 0.9767(2) 0.7800(3) 0.79098(14)
H2 H 1.052(3) 0.731(4) 0.779(2)
C6 C 0.9812(2) 0.9345(3) 0.82448(14)
H3 H 1.061(3) 1.004(4) 0.8359(18)
C7 C 0.8725(2) 0.9959(3) 0.84137(13)
H4 H 0.878(3) 1.102(4) 0.8661(19)
C8 C 0.75930(19) 0.9039(3) 0.82452(13)
H5 H 0.682(3) 0.948(4) 0.8362(17)
C9 C 0.51459(18) 0.7446(2) 0.77722(12)
C10 C 0.4464(2) 0.8349(3) 0.70455(14)
H6 H 0.470(2) 0.824(3) 0.6539(17)
C11 C 0.3462(2) 0.9375(3) 0.70719(15)
H7 H 0.297(3) 0.996(4) 0.653(2)
C12 C 0.3129(2) 0.9518(3) 0.78275(16)
H8 H 0.243(3) 1.021(4) 0.7844(19)
C13 C 0.3799(2) 0.8629(3) 0.85497(15)
H9 H 0.358(3) 0.865(4) 0.910(2)
C14 C 0.4804(2) 0.7599(3) 0.85276(13)
H10 H 0.530(3) 0.693(3) 0.9038(18)
C15 C 0.66130(17) 0.5019(2) 0.84063(11)
C16 C 0.78225(19) 0.4901(3) 0.90558(12)
H11 H 0.846(3) 0.574(3) 0.9115(17)
C17 C 0.8119(2) 0.3617(3) 0.96348(13)
H12 H 0.893(3) 0.359(4) 1.0074(18)
C18 C 0.7216(2) 0.2403(3) 0.95729(13)
H13 H 0.743(3) 0.147(4) 0.9955(19)
C19 C 0.6002(2) 0.2518(3) 0.89508(13)
H14 H 0.535(3) 0.167(4) 0.8899(18)
C20 C 0.56723(18) 0.3839(2) 0.83793(12)
C21 C 0.43222(18) 0.3946(2) 0.77779(13)
C22 C 0.32314(19) 0.3782(2) 0.81009(14)
C23 C 0.3366(2) 0.3659(3) 0.89966(15)
H15 H 0.426(3) 0.373(4) 0.9452(18)
C24 C 0.2301(2) 0.3457(3) 0.92753(17)
H16 H 0.247(3) 0.336(4) 0.994(2)
C25 C 0.1042(2) 0.3388(3) 0.8671(2)
H17 H 0.028(3) 0.323(4) 0.886(2)
C26 C 0.0868(2) 0.3536(3) 0.78087(19)
H18 H 0.001(3) 0.352(4) 0.738(2)
C27 C 0.1946(2) 0.3757(3) 0.74980(16)
C28 C 0.1767(2) 0.3988(3) 0.66053(16)
H19 H 0.093(3) 0.400(4) 0.6204(18)
C29 C 0.2804(2) 0.4234(3) 0.63148(14)
H20 H 0.269(3) 0.440(4) 0.5693(19)
C30 C 0.40924(19) 0.4206(3) 0.69073(13)
C31 C 0.5038(2) 0.3737(3) 0.57060(13)
H21 H 0.486(2) 0.453(3) 0.5248(17)
H22 H 0.427(3) 0.297(4) 0.5562(19)
C32 C 0.6265(2) 0.2830(3) 0.57434(12)
C33 C 0.6562(2) 0.1391(3) 0.62008(13)
H23 H 0.598(3) 0.097(4) 0.653(2)
C34 C 0.7661(2) 0.0510(3) 0.62308(14)
H24 H 0.782(3) -0.049(4) 0.6524(18)
C35 C 0.8484(2) 0.1110(3) 0.58015(14)
C36 C 0.8222(2) 0.2532(3) 0.53409(15)
H25 H 0.875(3) 0.285(5) 0.504(2)
C37 C 0.7110(2) 0.3395(3) 0.53137(14)
H26 H 0.691(3) 0.438(4) 0.5014(19)
loop_
_geom_bond_atom_site_label_1
_geom_bond_atom_site_label_2
_geom_bond_site_symmetry_1
_geom_bond_site_symmetry_2
Cl1 C35 1_555 1_555
O1 C1 1_555 1_555
N1 C1 1_555 1_555
C1 C2 1_555 1_555
C2 C3 1_555 1_555
C3 C4 1_555 1_555
C4 H1 1_555 1_555
C5 C4 1_555 1_555
H2 C5 1_555 1_555
C6 C5 1_555 1_555
H3 C6 1_555 1_555
C7 C6 1_555 1_555
H4 C7 1_555 1_555
C8 C3 1_555 1_555
H5 C8 1_555 1_555
C9 C2 1_555 1_555
C10 C9 1_555 1_555
H6 C10 1_555 1_555
C11 C10 1_555 1_555
H7 C11 1_555 1_555
C12 C11 1_555 1_555
H8 C12 1_555 1_555
C13 C12 1_555 1_555
H9 C13 1_555 1_555
C14 C9 1_555 1_555
H10 C14 1_555 1_555
C15 C2 1_555 1_555
C16 C15 1_555 1_555
H11 C16 1_555 1_555
C17 C16 1_555 1_555
H12 C17 1_555 1_555
C18 C17 1_555 1_555
H13 C18 1_555 1_555
C19 C18 1_555 1_555
H14 C19 1_555 1_555
C20 C15 1_555 1_555
C21 C20 1_555 1_555
C22 C21 1_555 1_555
C23 C22 1_555 1_555
H15 C23 1_555 1_555
C24 C23 1_555 1_555
H16 C24 1_555 1_555
C25 C24 1_555 1_555
H17 C25 1_555 1_555
C26 C25 1_555 1_555
H18 C26 1_555 1_555
C27 C22 1_555 1_555
C28 C27 1_555 1_555
H19 C28 1_555 1_555
C29 C28 1_555 1_555
H20 C29 1_555 1_555
C30 N1 1_555 1_555
C31 N1 1_555 1_555
H21 C31 1_555 1_555
H22 C31 1_555 1_555
C32 C31 1_555 1_555
C33 C32 1_555 1_555
H23 C33 1_555 1_555
C34 C33 1_555 1_555
H24 C34 1_555 1_555
C35 C34 1_555 1_555
C36 C35 1_555 1_555
H25 C36 1_555 1_555
C37 C32 1_555 1_555
H26 C37 1_555 1_555
C7 C8 1_555 1_555
C13 C14 1_555 1_555
C19 C20 1_555 1_555
C21 C30 1_555 1_555
C26 C27 1_555 1_555
C29 C30 1_555 1_555
C36 C37 1_555 1_555

#END
