
#######################################################################
#
#                 Cambridge Crystallographic Data Centre
#                                CCDC 
#
#######################################################################
#
# If this CIF has been generated from an entry in the Cambridge 
# Structural Database, then it will include bibliographic, chemical, 
# crystal, experimental, refinement or atomic coordinate data resulting 
# from the CCDC's data processing and validation procedures.
#
#######################################################################

data_PIGQUT
_chemical_formula_moiety         'C20 H18 N3 O2 1+,2(H2 O1),Cl1 1-'
_chemical_name_systematic        
'4-(2-(6-Amino-1,3-dioxo-1H-benzo[de]isoquinolin-2(3H)-yl)ethyl)-1-methylpyridinium chloride dihydrate'
_symmetry_cell_setting           triclinic
_symmetry_space_group_name_H-M   'P -1'
_symmetry_Int_Tables_number      2
_space_group_name_Hall           '-P 1'
loop_
_symmetry_equiv_pos_site_id
_symmetry_equiv_pos_as_xyz
1 x,y,z
2 -x,-y,-z
_cell_length_a                   8.1105(16)
_cell_length_b                   8.8677(18)
_cell_length_c                   14.245(3)
_cell_angle_alpha                98.63(3)
_cell_angle_beta                 96.32(3)
_cell_angle_gamma                110.67(3)
_cell_volume                     932.881
_exptl_crystal_colour            colorless
_exptl_crystal_description       Block
_cell_formula_units_Z            2
loop_
_atom_site_label
_atom_site_type_symbol
_atom_site_fract_x
_atom_site_fract_y
_atom_site_fract_z
Cl1 Cl 0.73019(11) 0.78522(9) 0.40144(6)
O1 O 0.2906(3) -0.1706(3) 0.21463(16)
O2 O 0.6459(3) 0.3189(3) 0.15617(17)
N1 N -0.1246(4) -0.2228(4) -0.2040(2)
H1 H -0.2126 -0.3151 -0.2205
H2 H -0.1104 -0.1669 -0.2483
N2 N 0.4719(3) 0.0696(3) 0.18209(18)
N3 N 0.8930(3) 0.3829(3) 0.61964(18)
C1 C 0.3233(4) -0.0783(4) 0.1565(2)
C2 C 0.2123(4) -0.1142(4) 0.0622(2)
C3 C 0.0658(4) -0.2602(4) 0.0312(2)
H3 H 0.0397 -0.3383 0.0718
C4 C -0.0440(4) -0.2959(4) -0.0573(2)
H4 H -0.1431 -0.3979 -0.0765
C5 C -0.0107(4) -0.1839(4) -0.1185(2)
C6 C 0.1398(4) -0.0307(4) -0.0891(2)
C7 C 0.1813(4) 0.0913(4) -0.1465(2)
H5 H 0.1069 0.0727 -0.2068
C8 C 0.3280(4) 0.2360(4) -0.1156(2)
H6 H 0.3541 0.3156 -0.1553
C9 C 0.4390(4) 0.2678(4) -0.0269(2)
H7 H 0.5405 0.3678 -0.0069
C10 C 0.4008(4) 0.1533(4) 0.0316(2)
C11 C 0.2519(4) 0.0027(4) 0.0019(2)
C12 C 0.5170(4) 0.1904(4) 0.1261(2)
C13 C 0.5851(4) 0.1081(4) 0.2772(2)
H8 H 0.7108 0.1722 0.2731
H9 H 0.5804 0.0045 0.2970
C14 C 0.5220(4) 0.2073(4) 0.3530(2)
H10 H 0.5101 0.3025 0.3286
H11 H 0.4026 0.1372 0.3633
C15 C 0.6503(4) 0.2685(4) 0.4478(2)
C16 C 0.7253(4) 0.4351(4) 0.4909(2)
H12 H 0.6930 0.5120 0.4611
C17 C 0.8453(4) 0.4890(4) 0.5758(2)
H13 H 0.8954 0.6031 0.6042
C18 C 0.8215(4) 0.2203(4) 0.5806(2)
H14 H 0.8543 0.1458 0.6126
C19 C 0.7024(4) 0.1614(4) 0.4954(2)
H15 H 0.6547 0.0468 0.4684
C20 C 1.0255(4) 0.4433(4) 0.7101(2)
H16 H 1.1404 0.4406 0.6965
H17 H 0.9832 0.3727 0.7561
H18 H 1.0408 0.5565 0.7377
O3 O 0.3772(3) 0.5586(3) 0.25296(18)
H19 H 0.3444 0.6324 0.2348
H20 H 0.4916 0.6135 0.2995
O4 O 0.9459(3) 0.8954(3) 0.61396(18)
H21 H 0.8961 0.8592 0.5569
H22 H 1.0563 0.9877 0.6147
loop_
_geom_bond_atom_site_label_1
_geom_bond_atom_site_label_2
_geom_bond_site_symmetry_1
_geom_bond_site_symmetry_2
O1 C1 1_555 1_555
O2 C12 1_555 1_555
N1 H1 1_555 1_555
H2 N1 1_555 1_555
N2 C1 1_555 1_555
N3 C17 1_555 1_555
C1 C2 1_555 1_555
C2 C3 1_555 1_555
C3 H3 1_555 1_555
C4 C3 1_555 1_555
H4 C4 1_555 1_555
C5 N1 1_555 1_555
C6 C5 1_555 1_555
C7 C6 1_555 1_555
H5 C7 1_555 1_555
C8 C7 1_555 1_555
H6 C8 1_555 1_555
C9 C8 1_555 1_555
H7 C9 1_555 1_555
C10 C9 1_555 1_555
C11 C2 1_555 1_555
C12 N2 1_555 1_555
C13 N2 1_555 1_555
H8 C13 1_555 1_555
H9 C13 1_555 1_555
C14 C13 1_555 1_555
H10 C14 1_555 1_555
H11 C14 1_555 1_555
C15 C14 1_555 1_555
C16 C15 1_555 1_555
H12 C16 1_555 1_555
C17 C16 1_555 1_555
H13 C17 1_555 1_555
C18 N3 1_555 1_555
H14 C18 1_555 1_555
C19 C15 1_555 1_555
H15 C19 1_555 1_555
C20 N3 1_555 1_555
H16 C20 1_555 1_555
H17 C20 1_555 1_555
H18 C20 1_555 1_555
O3 H19 1_555 1_555
H20 O3 1_555 1_555
O4 H21 1_555 1_555
H22 O4 1_555 1_555
C4 C5 1_555 1_555
C6 C11 1_555 1_555
C10 C11 1_555 1_555
C10 C12 1_555 1_555
C18 C19 1_555 1_555

#END
