
#######################################################################
#
#                 Cambridge Crystallographic Data Centre
#                                CCDC 
#
#######################################################################
#
# If this CIF has been generated from an entry in the Cambridge 
# Structural Database, then it will include bibliographic, chemical, 
# crystal, experimental, refinement or atomic coordinate data resulting 
# from the CCDC's data processing and validation procedures.
#
#######################################################################

data_PIGSOQ
_chemical_formula_moiety         'C13 H14 Br1 N1'
_chemical_name_systematic        
4-bromo-5,6,7,8,9,10-hexahydrocyclohepta[b]indole
_symmetry_cell_setting           monoclinic
_symmetry_space_group_name_H-M   'P 21/c'
_symmetry_Int_Tables_number      14
_space_group_name_Hall           '-P 2ybc'
loop_
_symmetry_equiv_pos_site_id
_symmetry_equiv_pos_as_xyz
1 x,y,z
2 -x,1/2+y,1/2-z
3 -x,-y,-z
4 x,1/2-y,1/2+z
_cell_length_a                   8.7856(8)
_cell_length_b                   11.6453(10)
_cell_length_c                   10.6401(11)
_cell_angle_alpha                90
_cell_angle_beta                 90.470(4)
_cell_angle_gamma                90
_cell_volume                     1088.56
_exptl_crystal_colour            'light brown'
_exptl_crystal_description       PLATE
_cell_formula_units_Z            4
loop_
_atom_site_label
_atom_site_type_symbol
_atom_site_fract_x
_atom_site_fract_y
_atom_site_fract_z
Br1 Br 0.96279(3) 0.32770(3) 0.31675(3)
N1 N 0.6130(3) 0.2581(2) 0.3921(2)
H1 H 0.6501 0.3165 0.4350
C1 C 0.6877(3) 0.1986(3) 0.3002(3)
C2 C 0.8329(3) 0.2112(3) 0.2522(3)
C3 C 0.8811(3) 0.1398(3) 0.1573(3)
H2 H 0.9802 0.1483 0.1235
C4 C 0.7828(3) 0.0541(3) 0.1107(3)
H3 H 0.8168 0.0050 0.0453
C5 C 0.6387(3) 0.0399(3) 0.1577(3)
H4 H 0.5741 -0.0188 0.1256
C6 C 0.5883(3) 0.1126(3) 0.2532(3)
C7 C 0.4493(3) 0.1228(3) 0.3231(3)
C8 C 0.4679(3) 0.2107(3) 0.4062(3)
C9 C 0.3606(3) 0.2556(3) 0.5021(3)
H5 H 0.2721 0.2908 0.4587
H6 H 0.4122 0.3164 0.5514
C10 C 0.3037(3) 0.1625(2) 0.5920(3)
H7 H 0.2520 0.2003 0.6632
H8 H 0.3927 0.1206 0.6264
C11 C 0.1938(3) 0.0753(3) 0.5324(3)
H9 H 0.1489 0.0289 0.6007
H10 H 0.1097 0.1183 0.4916
C12 C 0.2604(3) -0.0065(3) 0.4361(3)
H11 H 0.1839 -0.0667 0.4174
H12 H 0.3500 -0.0448 0.4744
C13 C 0.3095(3) 0.0483(3) 0.3112(3)
H13 H 0.3297 -0.0135 0.2497
H14 H 0.2245 0.0954 0.2778
loop_
_geom_bond_atom_site_label_1
_geom_bond_atom_site_label_2
_geom_bond_site_symmetry_1
_geom_bond_site_symmetry_2
Br1 C2 1_555 1_555
N1 H1 1_555 1_555
C1 N1 1_555 1_555
C2 C1 1_555 1_555
C3 C2 1_555 1_555
H2 C3 1_555 1_555
C4 C3 1_555 1_555
H3 C4 1_555 1_555
C5 C4 1_555 1_555
H4 C5 1_555 1_555
C6 C1 1_555 1_555
C7 C6 1_555 1_555
C8 N1 1_555 1_555
C9 C8 1_555 1_555
H5 C9 1_555 1_555
H6 C9 1_555 1_555
C10 C9 1_555 1_555
H7 C10 1_555 1_555
H8 C10 1_555 1_555
C11 C10 1_555 1_555
H9 C11 1_555 1_555
H10 C11 1_555 1_555
C12 C11 1_555 1_555
H11 C12 1_555 1_555
H12 C12 1_555 1_555
C13 C7 1_555 1_555
H13 C13 1_555 1_555
H14 C13 1_555 1_555
C5 C6 1_555 1_555
C7 C8 1_555 1_555
C12 C13 1_555 1_555

#END
