
#######################################################################
#
#                 Cambridge Crystallographic Data Centre
#                                CCDC 
#
#######################################################################
#
# If this CIF has been generated from an entry in the Cambridge 
# Structural Database, then it will include bibliographic, chemical, 
# crystal, experimental, refinement or atomic coordinate data resulting 
# from the CCDC's data processing and validation procedures.
#
#######################################################################

data_PIGTEH
_chemical_formula_moiety         'C13 H14 Cl1 N1'
_chemical_name_systematic        
4-chloro-5,6,7,8,9,10-hexahydrocyclohepta[b]indole
_symmetry_cell_setting           monoclinic
_symmetry_space_group_name_H-M   'P 21/c'
_symmetry_Int_Tables_number      14
_space_group_name_Hall           '-P 2ybc'
loop_
_symmetry_equiv_pos_site_id
_symmetry_equiv_pos_as_xyz
1 x,y,z
2 -x,1/2+y,1/2-z
3 -x,-y,-z
4 x,1/2-y,1/2+z
_cell_length_a                   8.6883(15)
_cell_length_b                   11.7901(19)
_cell_length_c                   10.3129(17)
_cell_angle_alpha                90
_cell_angle_beta                 90.892(5)
_cell_angle_gamma                90
_cell_volume                     1056.28
_exptl_crystal_colour            colorless
_exptl_crystal_description       plate
_cell_formula_units_Z            4
loop_
_atom_site_label
_atom_site_type_symbol
_atom_site_fract_x
_atom_site_fract_y
_atom_site_fract_z
Cl1 Cl 1.45427(10) 0.31846(8) 0.81290(8)
N1 N 1.1109(3) 0.2571(2) 0.8904(2)
H1 H 1.1467 0.3155 0.9347
C1 C 1.1893(4) 0.1981(3) 0.7976(3)
C2 C 1.3378(4) 0.2122(3) 0.7503(3)
C3 C 1.3883(4) 0.1410(3) 0.6544(3)
H2 H 1.4889 0.1503 0.6211
C4 C 1.2930(4) 0.0550(3) 0.6053(3)
H3 H 1.3294 0.0064 0.5390
C5 C 1.1461(4) 0.0399(3) 0.6524(3)
H4 H 1.0824 -0.0193 0.6193
C6 C 1.0917(4) 0.1122(3) 0.7493(3)
C7 C 0.9490(4) 0.1214(3) 0.8181(3)
C8 C 0.9659(4) 0.2096(3) 0.9026(3)
C9 C 0.8538(4) 0.2538(3) 1.0000(3)
H5 H 0.7646 0.2876 0.9533
H6 H 0.9040 0.3146 1.0516
C10 C 0.7962(4) 0.1619(3) 1.0917(3)
H7 H 0.8865 0.1212 1.1285
H8 H 0.7430 0.1991 1.1645
C11 C 0.6874(4) 0.0755(3) 1.0305(3)
H9 H 0.6029 0.1171 0.9859
H10 H 0.6410 0.0305 1.1009
C12 C 0.7581(4) -0.0070(3) 0.9332(3)
H11 H 0.6816 -0.0669 0.9129
H12 H 0.8481 -0.0442 0.9752
C13 C 0.8102(4) 0.0461(3) 0.8052(3)
H13 H 0.8333 -0.0155 0.7433
H14 H 0.7239 0.0910 0.7679
loop_
_geom_bond_atom_site_label_1
_geom_bond_atom_site_label_2
_geom_bond_site_symmetry_1
_geom_bond_site_symmetry_2
Cl1 C2 1_555 1_555
N1 H1 1_555 1_555
C1 N1 1_555 1_555
C2 C1 1_555 1_555
C3 C2 1_555 1_555
H2 C3 1_555 1_555
C4 C3 1_555 1_555
H3 C4 1_555 1_555
C5 C4 1_555 1_555
H4 C5 1_555 1_555
C6 C1 1_555 1_555
C7 C6 1_555 1_555
C8 N1 1_555 1_555
C9 C8 1_555 1_555
H5 C9 1_555 1_555
H6 C9 1_555 1_555
C10 C9 1_555 1_555
H7 C10 1_555 1_555
H8 C10 1_555 1_555
C11 C10 1_555 1_555
H9 C11 1_555 1_555
H10 C11 1_555 1_555
C12 C11 1_555 1_555
H11 C12 1_555 1_555
H12 C12 1_555 1_555
C13 C7 1_555 1_555
H13 C13 1_555 1_555
H14 C13 1_555 1_555
C5 C6 1_555 1_555
C7 C8 1_555 1_555
C12 C13 1_555 1_555

#END
