
#######################################################################
#
#                 Cambridge Crystallographic Data Centre
#                                CCDC 
#
#######################################################################
#
# If this CIF has been generated from an entry in the Cambridge 
# Structural Database, then it will include bibliographic, chemical, 
# crystal, experimental, refinement or atomic coordinate data resulting 
# from the CCDC's data processing and validation procedures.
#
#######################################################################

data_PIGTIL
_chemical_formula_moiety         'C13 H14 Cl1 N1'
_chemical_name_systematic        
3-chloro-5,6,7,8,9,10-hexahydrocyclohepta[b]indole
_symmetry_cell_setting           monoclinic
_symmetry_space_group_name_H-M   'P 21/c'
_symmetry_Int_Tables_number      14
_space_group_name_Hall           '-P 2ybc'
loop_
_symmetry_equiv_pos_site_id
_symmetry_equiv_pos_as_xyz
1 x,y,z
2 -x,1/2+y,1/2-z
3 -x,-y,-z
4 x,1/2-y,1/2+z
_cell_length_a                   12.1278(11)
_cell_length_b                   8.1084(7)
_cell_length_c                   11.2668(10)
_cell_angle_alpha                90
_cell_angle_beta                 108.995(2)
_cell_angle_gamma                90
_cell_volume                     1047.61
_exptl_crystal_colour            colorless
_exptl_crystal_description       PLATE
_cell_formula_units_Z            4
loop_
_atom_site_label
_atom_site_type_symbol
_atom_site_fract_x
_atom_site_fract_y
_atom_site_fract_z
Cl1 Cl 0.14167(2) 0.11360(4) 0.54252(3)
N1 N 0.58708(8) 0.01534(12) 0.75259(9)
H1 H 0.5892 -0.0566 0.8118
C1 C 0.48762(10) 0.08207(14) 0.67010(11)
C2 C 0.37103(10) 0.05571(15) 0.65859(11)
H2 H 0.3487 -0.0170 0.7129
C3 C 0.28970(10) 0.14136(15) 0.56376(12)
C4 C 0.32036(11) 0.24875(15) 0.48210(12)
H3 H 0.2614 0.3041 0.4177
C5 C 0.43702(11) 0.27412(15) 0.49547(11)
H4 H 0.4583 0.3466 0.4403
C6 C 0.52293(10) 0.19179(14) 0.59103(11)
C7 C 0.64825(10) 0.18824(14) 0.63056(11)
C8 C 0.68402(10) 0.07884(15) 0.72836(11)
C9 C 0.80265(10) 0.01759(15) 0.80233(12)
H5 H 0.8257 -0.0684 0.7526
H6 H 0.7982 -0.0353 0.8798
C10 C 0.89796(10) 0.14886(16) 0.83913(12)
H7 H 0.9699 0.0983 0.8964
H8 H 0.8737 0.2368 0.8864
C11 C 0.92656(11) 0.22812(17) 0.72945(12)
H9 H 0.9350 0.1397 0.6725
H10 H 1.0028 0.2848 0.7627
C12 C 0.83606(11) 0.35218(16) 0.65310(12)
H11 H 0.8176 0.4292 0.7122
H12 H 0.8717 0.4177 0.6009
C13 C 0.72194(10) 0.27888(15) 0.56736(11)
H13 H 0.6746 0.3694 0.5169
H14 H 0.7406 0.2020 0.5083
loop_
_geom_bond_atom_site_label_1
_geom_bond_atom_site_label_2
_geom_bond_site_symmetry_1
_geom_bond_site_symmetry_2
Cl1 C3 1_555 1_555
N1 H1 1_555 1_555
C1 N1 1_555 1_555
C2 C1 1_555 1_555
H2 C2 1_555 1_555
C3 C2 1_555 1_555
C4 C3 1_555 1_555
H3 C4 1_555 1_555
C5 C4 1_555 1_555
H4 C5 1_555 1_555
C6 C1 1_555 1_555
C7 C6 1_555 1_555
C8 N1 1_555 1_555
C9 C8 1_555 1_555
H5 C9 1_555 1_555
H6 C9 1_555 1_555
C10 C9 1_555 1_555
H7 C10 1_555 1_555
H8 C10 1_555 1_555
C11 C10 1_555 1_555
H9 C11 1_555 1_555
H10 C11 1_555 1_555
C12 C11 1_555 1_555
H11 C12 1_555 1_555
H12 C12 1_555 1_555
C13 C7 1_555 1_555
H13 C13 1_555 1_555
H14 C13 1_555 1_555
C5 C6 1_555 1_555
C7 C8 1_555 1_555
C12 C13 1_555 1_555

#END
