
#######################################################################
#
#                 Cambridge Crystallographic Data Centre
#                                CCDC 
#
#######################################################################
#
# If this CIF has been generated from an entry in the Cambridge 
# Structural Database, then it will include bibliographic, chemical, 
# crystal, experimental, refinement or atomic coordinate data resulting 
# from the CCDC's data processing and validation procedures.
#
#######################################################################

data_PIGTUX
_chemical_formula_moiety         'C13 H14 F1 N1'
_chemical_name_systematic        
4-fluoro-5,6,7,8,9,10-hexahydrocyclohepta[b]indole
_symmetry_cell_setting           orthorhombic
_symmetry_space_group_name_H-M   'P b c n'
_symmetry_Int_Tables_number      60
_space_group_name_Hall           '-P 2n 2ab'
loop_
_symmetry_equiv_pos_site_id
_symmetry_equiv_pos_as_xyz
1 x,y,z
2 1/2-x,1/2-y,1/2+z
3 1/2+x,1/2-y,-z
4 -x,y,1/2-z
5 -x,-y,-z
6 1/2+x,1/2+y,1/2-z
7 1/2-x,1/2+y,z
8 x,-y,1/2+z
_cell_length_a                   11.9582(11)
_cell_length_b                   9.1060(9)
_cell_length_c                   18.7079(19)
_cell_angle_alpha                90
_cell_angle_beta                 90
_cell_angle_gamma                90
_cell_volume                     2037.13
_exptl_crystal_colour            colorless
_exptl_crystal_description       PLATE
_cell_formula_units_Z            8
loop_
_atom_site_label
_atom_site_type_symbol
_atom_site_fract_x
_atom_site_fract_y
_atom_site_fract_z
F1 F 0.28463(5) 0.30858(8) 0.30501(3)
N1 N 0.23030(7) 0.41777(9) 0.45027(4)
H1 H 0.2897 0.4673 0.4365
C1 C 0.17733(8) 0.31075(10) 0.41148(5)
C2 C 0.19801(8) 0.25362(11) 0.34380(5)
C3 C 0.13219(9) 0.14421(12) 0.31622(5)
H2 H 0.1466 0.1061 0.2699
C4 C 0.04295(9) 0.08880(12) 0.35735(5)
H3 H -0.0023 0.0125 0.3383
C5 C 0.01973(8) 0.14325(11) 0.42501(5)
H4 H -0.0407 0.1049 0.4522
C6 C 0.08717(8) 0.25624(10) 0.45273(5)
C7 C 0.08703(8) 0.33781(10) 0.51866(5)
C8 C 0.17466(8) 0.43510(10) 0.51498(5)
C9 C 0.21103(9) 0.55190(11) 0.56604(5)
H5 H 0.1589 0.6360 0.5622
H6 H 0.2861 0.5869 0.5517
C10 C 0.21568(9) 0.50240(13) 0.64409(5)
H7 H 0.2517 0.5809 0.6726
H8 H 0.2639 0.4143 0.6472
C11 C 0.10252(9) 0.46627(12) 0.67800(5)
H9 H 0.1120 0.4631 0.7305
H10 H 0.0498 0.5470 0.6670
C12 C 0.05007(8) 0.32152(11) 0.65371(5)
H11 H -0.0109 0.2960 0.6873
H12 H 0.1074 0.2434 0.6572
C13 C 0.00273(8) 0.32135(11) 0.57774(5)
H13 H -0.0383 0.2282 0.5703
H14 H -0.0521 0.4023 0.5737
loop_
_geom_bond_atom_site_label_1
_geom_bond_atom_site_label_2
_geom_bond_site_symmetry_1
_geom_bond_site_symmetry_2
F1 C2 1_555 1_555
N1 H1 1_555 1_555
C1 N1 1_555 1_555
C2 C1 1_555 1_555
C3 C2 1_555 1_555
H2 C3 1_555 1_555
C4 C3 1_555 1_555
H3 C4 1_555 1_555
C5 C4 1_555 1_555
H4 C5 1_555 1_555
C6 C1 1_555 1_555
C7 C6 1_555 1_555
C8 N1 1_555 1_555
C9 C8 1_555 1_555
H5 C9 1_555 1_555
H6 C9 1_555 1_555
C10 C9 1_555 1_555
H7 C10 1_555 1_555
H8 C10 1_555 1_555
C11 C10 1_555 1_555
H9 C11 1_555 1_555
H10 C11 1_555 1_555
C12 C11 1_555 1_555
H11 C12 1_555 1_555
H12 C12 1_555 1_555
C13 C7 1_555 1_555
H13 C13 1_555 1_555
H14 C13 1_555 1_555
C5 C6 1_555 1_555
C7 C8 1_555 1_555
C12 C13 1_555 1_555

#END
