
#######################################################################
#
#                 Cambridge Crystallographic Data Centre
#                                CCDC 
#
#######################################################################
#
# If this CIF has been generated from an entry in the Cambridge 
# Structural Database, then it will include bibliographic, chemical, 
# crystal, experimental, refinement or atomic coordinate data resulting 
# from the CCDC's data processing and validation procedures.
#
#######################################################################

data_PIGVOT
_chemical_formula_moiety         'C12 H12 Cl1 N1'
_chemical_name_systematic        8-chloro-2,3,4,9-tetrahydro-1H-carbazole
_symmetry_cell_setting           orthorhombic
_symmetry_space_group_name_H-M   'P b c a'
_symmetry_Int_Tables_number      61
_space_group_name_Hall           '-P 2ac 2ab'
loop_
_symmetry_equiv_pos_site_id
_symmetry_equiv_pos_as_xyz
1 x,y,z
2 1/2-x,-y,1/2+z
3 1/2+x,1/2-y,-z
4 -x,1/2+y,1/2-z
5 -x,-y,-z
6 1/2+x,y,1/2-z
7 1/2-x,1/2+y,z
8 x,1/2-y,1/2+z
_cell_length_a                   10.8001(9)
_cell_length_b                   8.8083(7)
_cell_length_c                   21.0408(17)
_cell_angle_alpha                90
_cell_angle_beta                 90
_cell_angle_gamma                90
_cell_volume                     2001.62
_exptl_crystal_colour            colorless
_exptl_crystal_description       PLATE
_cell_formula_units_Z            8
loop_
_atom_site_label
_atom_site_type_symbol
_atom_site_fract_x
_atom_site_fract_y
_atom_site_fract_z
Cl1 Cl 0.53903(3) 0.27846(4) -0.099488(15)
N1 N 0.50731(11) 0.27876(12) 0.04963(5)
H1 H 0.5652 0.3423 0.0370
C1 C 0.43544(12) 0.19005(14) 0.01101(6)
C2 C 0.43497(12) 0.17349(14) -0.05465(6)
C3 C 0.35264(13) 0.07467(15) -0.08275(6)
H2 H 0.3518 0.0630 -0.1276
C4 C 0.26995(13) -0.00876(15) -0.04497(7)
H3 H 0.2137 -0.0769 -0.0648
C5 C 0.26854(13) 0.00620(14) 0.02078(6)
H4 H 0.2120 -0.0509 0.0458
C6 C 0.35175(12) 0.10671(13) 0.04941(6)
C7 C 0.37829(12) 0.14969(14) 0.11396(6)
C8 C 0.47334(13) 0.25134(15) 0.11199(6)
C9 C 0.53643(14) 0.32084(17) 0.16798(6)
H5 H 0.5096 0.4276 0.1731
H6 H 0.6273 0.3195 0.1617
C10 C 0.50207(18) 0.2288(2) 0.22745(7)
H7 H 0.5481 0.1316 0.2272
H8 H 0.5270 0.2861 0.2659
C11 C 0.36387(18) 0.1963(2) 0.23031(7)
H9 H 0.3177 0.2934 0.2289
H10 H 0.3441 0.1454 0.2710
C12 C 0.32209(13) 0.09504(16) 0.17487(6)
H11 H 0.3479 -0.0111 0.1829
H12 H 0.2307 0.0973 0.1715
C13? C 0.4534(18) 0.2970(19) 0.2266(7)
H13? H 0.5009 0.3209 0.2655
H14? H 0.3819 0.3673 0.2244
C14? C 0.4076(19) 0.1380(19) 0.2300(7)
H15? H 0.3625 0.1238 0.2705
H16? H 0.4795 0.0683 0.2302
loop_
_geom_bond_atom_site_label_1
_geom_bond_atom_site_label_2
_geom_bond_site_symmetry_1
_geom_bond_site_symmetry_2
Cl1 C2 1_555 1_555
N1 H1 1_555 1_555
C1 N1 1_555 1_555
C2 C1 1_555 1_555
C3 C2 1_555 1_555
H2 C3 1_555 1_555
C4 C3 1_555 1_555
H3 C4 1_555 1_555
C5 C4 1_555 1_555
H4 C5 1_555 1_555
C6 C1 1_555 1_555
C7 C6 1_555 1_555
C8 N1 1_555 1_555
C9 C8 1_555 1_555
H5 C9 1_555 1_555
H6 C9 1_555 1_555
C10 C9 1_555 1_555
H7 C10 1_555 1_555
H8 C10 1_555 1_555
C11 C10 1_555 1_555
H9 C11 1_555 1_555
H10 C11 1_555 1_555
C12 C7 1_555 1_555
H11 C12 1_555 1_555
H12 C12 1_555 1_555
C5 C6 1_555 1_555
C7 C8 1_555 1_555
C11 C12 1_555 1_555

#END
