
#######################################################################
#
#                 Cambridge Crystallographic Data Centre
#                                CCDC 
#
#######################################################################
#
# If this CIF has been generated from an entry in the Cambridge 
# Structural Database, then it will include bibliographic, chemical, 
# crystal, experimental, refinement or atomic coordinate data resulting 
# from the CCDC's data processing and validation procedures.
#
#######################################################################

data_PIGVEJ
_chemical_formula_moiety         'C12 H12 Br1 N1'
_chemical_name_systematic        7-bromo-2,3,4,9-tetrahydro-1H-carbazole
_symmetry_cell_setting           orthorhombic
_symmetry_space_group_name_H-M   'P b c a'
_symmetry_Int_Tables_number      61
_space_group_name_Hall           '-P 2ac 2ab'
loop_
_symmetry_equiv_pos_site_id
_symmetry_equiv_pos_as_xyz
1 x,y,z
2 1/2-x,-y,1/2+z
3 1/2+x,1/2-y,-z
4 -x,1/2+y,1/2-z
5 -x,-y,-z
6 1/2+x,y,1/2-z
7 1/2-x,1/2+y,z
8 x,1/2-y,1/2+z
_cell_length_a                   10.1791(18)
_cell_length_b                   8.7625(15)
_cell_length_c                   22.946(4)
_cell_angle_alpha                90
_cell_angle_beta                 90
_cell_angle_gamma                90
_cell_volume                     2046.65
_exptl_crystal_colour            colorless
_exptl_crystal_description       PLATE
_cell_formula_units_Z            8
loop_
_atom_site_label
_atom_site_type_symbol
_atom_site_fract_x
_atom_site_fract_y
_atom_site_fract_z
Br1 Br 0.40172(4) 0.07303(4) 0.434652(14)
N1 N 0.5028(3) -0.0033(3) 0.20763(11)
H1 H 0.5676 -0.0697 0.2084
C1 C 0.4409(3) 0.0575(3) 0.25565(14)
C2 C 0.4613(3) 0.0318(3) 0.31469(14)
H2 H 0.5285 -0.0351 0.3279
C3 C 0.3805(3) 0.1071(3) 0.35342(14)
C4 C 0.2802(3) 0.2068(3) 0.33488(14)
H3 H 0.2269 0.2578 0.3627
C5 C 0.2597(3) 0.2301(4) 0.27601(13)
H4 H 0.1912 0.2957 0.2633
C6 C 0.3405(3) 0.1564(3) 0.23509(13)
C7 C 0.3462(3) 0.1542(3) 0.17284(13)
C8 C 0.4462(3) 0.0576(3) 0.15769(14)
C9 C 0.4895(4) 0.0220(4) 0.09732(14)
H5 H 0.4590 -0.0812 0.0861
H6 H 0.5866 0.0239 0.0951
C10 C 0.4312(4) 0.1419(4) 0.05575(15)
H7 H 0.4797 0.2391 0.0603
H8 H 0.4425 0.1070 0.0150
C11 C 0.2859(4) 0.1691(4) 0.06765(14)
H9 H 0.2377 0.0715 0.0637
H10 H 0.2506 0.2409 0.0382
C12 C 0.2624(3) 0.2348(4) 0.12895(14)
H11 H 0.2834 0.3451 0.1291
H12 H 0.1686 0.2229 0.1395
loop_
_geom_bond_atom_site_label_1
_geom_bond_atom_site_label_2
_geom_bond_site_symmetry_1
_geom_bond_site_symmetry_2
Br1 C3 1_555 1_555
N1 H1 1_555 1_555
C1 N1 1_555 1_555
C2 C1 1_555 1_555
H2 C2 1_555 1_555
C3 C2 1_555 1_555
C4 C3 1_555 1_555
H3 C4 1_555 1_555
C5 C4 1_555 1_555
H4 C5 1_555 1_555
C6 C1 1_555 1_555
C7 C6 1_555 1_555
C8 N1 1_555 1_555
C9 C8 1_555 1_555
H5 C9 1_555 1_555
H6 C9 1_555 1_555
C10 C9 1_555 1_555
H7 C10 1_555 1_555
H8 C10 1_555 1_555
C11 C10 1_555 1_555
H9 C11 1_555 1_555
H10 C11 1_555 1_555
C12 C7 1_555 1_555
H11 C12 1_555 1_555
H12 C12 1_555 1_555
C5 C6 1_555 1_555
C7 C8 1_555 1_555
C11 C12 1_555 1_555

#END
