
#######################################################################
#
#                 Cambridge Crystallographic Data Centre
#                                CCDC 
#
#######################################################################
#
# If this CIF has been generated from an entry in the Cambridge 
# Structural Database, then it will include bibliographic, chemical, 
# crystal, experimental, refinement or atomic coordinate data resulting 
# from the CCDC's data processing and validation procedures.
#
#######################################################################

data_PIGVOQ
_chemical_name_common            
(3S,6S,7R,8R)-3,6-bis(Diphenylphosphino)-hexahydrofuro(3,2-b)furan
_chemical_formula_moiety         'C30 H28 O2 P2'
_chemical_name_systematic        
1,4:3,6-Dianhydro-2,5-dideoxy-2,5-bis(diphenylphosphino)-L-iditol
_symmetry_cell_setting           orthorhombic
_symmetry_space_group_name_H-M   'P 21 21 21'
_symmetry_Int_Tables_number      19
_space_group_name_Hall           'P 2ac 2ab'
loop_
_symmetry_equiv_pos_site_id
_symmetry_equiv_pos_as_xyz
1 x,y,z
2 1/2-x,-y,1/2+z
3 1/2+x,1/2-y,-z
4 -x,1/2+y,1/2-z
_cell_length_a                   9.460(8)
_cell_length_b                   14.822(5)
_cell_length_c                   18.424(6)
_cell_angle_alpha                90
_cell_angle_beta                 90
_cell_angle_gamma                90
_cell_volume                     2583.34
_exptl_crystal_colour            colorless
_exptl_crystal_description       plate
_cell_formula_units_Z            4
loop_
_atom_site_label
_atom_site_type_symbol
_atom_site_fract_x
_atom_site_fract_y
_atom_site_fract_z
P1 P 0.0642(2) 0.6163(1) 0.41797(9)
P2 P -0.0141(2) 0.2436(1) 0.57375(8)
O1 O -0.0704(5) 0.4949(3) 0.5484(3)
O2 O 0.2612(4) 0.4441(3) 0.5527(3)
C1 C 0.0170(8) 0.5745(5) 0.5620(3)
C2 C 0.1286(7) 0.5704(4) 0.5046(3)
C3 C 0.1591(7) 0.4691(4) 0.5002(4)
C4 C 0.0217(7) 0.4256(4) 0.5229(3)
C5 C 0.0656(6) 0.3563(4) 0.5816(3)
C6 C 0.2249(6) 0.3538(4) 0.5738(4)
C7 C 0.0727(7) 0.7383(4) 0.4343(3)
C8 C -0.0227(7) 0.7906(5) 0.3927(3)
C9 C -0.0240(8) 0.8849(5) 0.3999(4)
C10 C 0.0645(9) 0.9229(5) 0.4490(4)
C11 C 0.1555(8) 0.8746(5) 0.4896(4)
C12 C 0.1600(7) 0.7816(4) 0.4820(4)
C13 C 0.2180(7) 0.5988(4) 0.3599(3)
C14 C 0.1969(8) 0.5595(5) 0.2936(4)
C15 C 0.3060(1) 0.5351(5) 0.2484(4)
C16 C 0.4388(9) 0.5503(5) 0.2703(4)
C17 C 0.4656(9) 0.5916(6) 0.3358(4)
C18 C 0.3559(8) 0.6146(6) 0.3790(3)
C19 C 0.0956(6) 0.1828(4) 0.6394(3)
C20 C 0.1817(8) 0.1146(5) 0.6167(4)
C21 C 0.2723(8) 0.0652(5) 0.6616(5)
C22 C 0.2727(8) 0.0873(5) 0.7314(5)
C23 C 0.1911(8) 0.1555(5) 0.7582(4)
C24 C 0.1035(8) 0.2015(5) 0.7120(4)
C25 C -0.1806(6) 0.2569(4) 0.6240(3)
C26 C -0.2580(7) 0.3347(5) 0.6225(4)
C27 C -0.3902(9) 0.3379(5) 0.6559(5)
C28 C -0.4458(7) 0.2638(5) 0.6892(4)
C29 C -0.3686(8) 0.1860(5) 0.6903(4)
C30 C -0.2398(7) 0.1816(4) 0.6574(4)
H1 H 0.186(6) 0.608(3) 0.511(3)
H2 H 0.218(6) 0.446(3) 0.455(3)
H3 H 0.039(5) 0.375(3) 0.490(3)
H4 H 0.032(6) 0.368(3) 0.622(3)
H5 H 0.042(6) 0.563(3) 0.600(3)
H6 H -0.069(6) 0.612(3) 0.528(3)
H7 H -0.097(6) 0.765(4) 0.357(3)
H8 H -0.089(6) 0.905(4) 0.359(3)
H9 H 0.040(7) 0.977(4) 0.447(3)
H10 H 0.235(6) 0.897(4) 0.514(3)
H11 H 0.245(6) 0.747(4) 0.522(3)
H12 H 0.102(6) 0.553(4) 0.277(3)
H13 H 0.312(6) 0.512(4) 0.195(3)
H14 H 0.485(8) 0.532(4) 0.250(3)
H15 H 0.565(6) 0.627(4) 0.351(3)
H16 H 0.352(6) 0.623(4) 0.432(3)
H17 H 0.164(6) 0.100(4) 0.592(3)
H18 H 0.354(6) 0.006(4) 0.629(3)
H19 H 0.355(7) 0.050(4) 0.754(3)
H20 H 0.187(6) 0.165(4) 0.807(3)
H21 H 0.054(6) 0.231(4) 0.725(3)
H22 H -0.210(6) 0.393(4) 0.605(3)
H23 H -0.448(6) 0.396(4) 0.660(3)
H24 H -0.563(6) 0.272(4) 0.708(3)
H25 H -0.392(6) 0.141(4) 0.721(3)
H26 H -0.162(6) 0.128(4) 0.662(3)
H27 H 0.281(6) 0.352(3) 0.625(3)
H28 H 0.306(6) 0.321(3) 0.529(3)
loop_
_geom_bond_atom_site_label_1
_geom_bond_atom_site_label_2
_geom_bond_site_symmetry_1
_geom_bond_site_symmetry_2
P1 C2 1_555 1_555
P2 C5 1_555 1_555
O1 C1 1_555 1_555
O2 C3 1_555 1_555
C1 C2 1_555 1_555
C2 C3 1_555 1_555
C3 C4 1_555 1_555
C4 O1 1_555 1_555
C5 C4 1_555 1_555
C6 O2 1_555 1_555
C7 P1 1_555 1_555
C8 C7 1_555 1_555
C9 C8 1_555 1_555
C10 C9 1_555 1_555
C11 C10 1_555 1_555
C12 C7 1_555 1_555
C13 P1 1_555 1_555
C14 C13 1_555 1_555
C15 C14 1_555 1_555
C16 C15 1_555 1_555
C17 C16 1_555 1_555
C18 C13 1_555 1_555
C19 P2 1_555 1_555
C20 C19 1_555 1_555
C21 C20 1_555 1_555
C22 C21 1_555 1_555
C23 C22 1_555 1_555
C24 C19 1_555 1_555
C25 P2 1_555 1_555
C26 C25 1_555 1_555
C27 C26 1_555 1_555
C28 C27 1_555 1_555
C29 C28 1_555 1_555
C30 C25 1_555 1_555
H1 C2 1_555 1_555
H2 C3 1_555 1_555
H3 C4 1_555 1_555
H4 C5 1_555 1_555
H5 C1 1_555 1_555
H6 C1 1_555 1_555
H7 C8 1_555 1_555
H8 C9 1_555 1_555
H9 C10 1_555 1_555
H10 C11 1_555 1_555
H11 C12 1_555 1_555
H12 C14 1_555 1_555
H13 C15 1_555 1_555
H14 C16 1_555 1_555
H15 C17 1_555 1_555
H16 C18 1_555 1_555
H17 C20 1_555 1_555
H18 C21 1_555 1_555
H19 C22 1_555 1_555
H20 C23 1_555 1_555
H21 C24 1_555 1_555
H22 C26 1_555 1_555
H23 C27 1_555 1_555
H24 C28 1_555 1_555
H25 C29 1_555 1_555
H26 C30 1_555 1_555
H27 C6 1_555 1_555
H28 C6 1_555 1_555
C5 C6 1_555 1_555
C11 C12 1_555 1_555
C17 C18 1_555 1_555
C23 C24 1_555 1_555
C29 C30 1_555 1_555

#END
