
#######################################################################
#
#                 Cambridge Crystallographic Data Centre
#                                CCDC 
#
#######################################################################
#
# If this CIF has been generated from an entry in the Cambridge 
# Structural Database, then it will include bibliographic, chemical, 
# crystal, experimental, refinement or atomic coordinate data resulting 
# from the CCDC's data processing and validation procedures.
#
#######################################################################

data_PIGWOS
_chemical_formula_moiety         'C13 H16 N2 O3 S1'
_chemical_name_systematic        
2-Isopropyl-3-(4-nitrobenzyl)-1,3-thiadiazolin-4-one
_symmetry_cell_setting           monoclinic
_symmetry_space_group_name_H-M   'P 21/n'
_symmetry_Int_Tables_number      14
_space_group_name_Hall           '-P 2yn'
loop_
_symmetry_equiv_pos_site_id
_symmetry_equiv_pos_as_xyz
1 x,y,z
2 1/2-x,1/2+y,1/2-z
3 -x,-y,-z
4 1/2+x,1/2-y,1/2+z
_cell_length_a                   9.7764(5)
_cell_length_b                   14.0489(7)
_cell_length_c                   10.8292(4)
_cell_angle_alpha                90.00
_cell_angle_beta                 115.079(3)
_cell_angle_gamma                90.00
_cell_volume                     1347.14
_cell_formula_units_Z            4
loop_
_atom_site_label
_atom_site_type_symbol
_atom_site_fract_x
_atom_site_fract_y
_atom_site_fract_z
S1 S 0.85287(7) 0.11994(4) 0.24576(5)
N1 N 1.1838(2) 0.48689(13) -0.05419(19)
N2 N 0.80143(18) 0.13022(11) -0.01113(15)
O1 O 0.83389(16) -0.02163(10) -0.06790(15)
O2 O 1.1358(2) 0.55716(12) -0.12682(18)
O3 O 1.31146(18) 0.48093(12) 0.03773(18)
C1 C 0.7805(2) 0.19068(13) 0.08882(18)
H1 H 0.8466 0.2479 0.1045
C2 C 0.8297(2) 0.03629(13) 0.0144(2)
C3 C 0.8569(3) 0.01117(15) 0.1589(2)
H2 H 0.783(3) -0.0339(19) 0.156(3)
H3 H 0.961(3) -0.0201(18) 0.205(3)
C4 C 0.7817(2) 0.17126(14) -0.14158(19)
H4 H 0.6759 0.1929 -0.1919
H5 H 0.8017 0.1220 -0.1971
C5 C 0.8871(2) 0.25439(13) -0.12078(18)
C6 C 1.0409(2) 0.24434(14) -0.03483(19)
H6 H 1.0784 0.1848 0.0077
C7 C 1.1385(2) 0.32025(14) -0.01140(19)
H7 H 1.2425 0.3142 0.0486
C8 C 1.0812(2) 0.40538(14) -0.07753(19)
C9 C 0.9308(2) 0.41695(14) -0.1648(2)
H8 H 0.8948 0.4757 -0.2106
C10 C 0.8333(2) 0.34081(14) -0.18415(19)
H9 H 0.7288 0.3481 -0.2414
C11 C 0.6175(2) 0.22499(15) 0.0414(2)
H10 H 0.5931 0.2650 -0.0416
C12 C 0.6039(3) 0.28849(16) 0.1496(2)
H11 H 0.5055 0.3204 0.1114
H12 H 0.6845 0.3363 0.1792
H13 H 0.6130 0.2496 0.2278
C13 C 0.5037(3) 0.14396(19) 0.0012(3)
H14 H 0.5275 0.1013 0.0793
H15 H 0.5083 0.1084 -0.0747
H16 H 0.4019 0.1700 -0.0267
loop_
_geom_bond_atom_site_label_1
_geom_bond_atom_site_label_2
_geom_bond_site_symmetry_1
_geom_bond_site_symmetry_2
S1 C1 1_555 1_555
N1 O2 1_555 1_555
N2 C1 1_555 1_555
O1 C2 1_555 1_555
O3 N1 1_555 1_555
C1 H1 1_555 1_555
C2 N2 1_555 1_555
C3 S1 1_555 1_555
H2 C3 1_555 1_555
H3 C3 1_555 1_555
C4 N2 1_555 1_555
H4 C4 1_555 1_555
H5 C4 1_555 1_555
C5 C4 1_555 1_555
C6 C5 1_555 1_555
H6 C6 1_555 1_555
C7 C6 1_555 1_555
H7 C7 1_555 1_555
C8 N1 1_555 1_555
C9 C8 1_555 1_555
H8 C9 1_555 1_555
C10 C5 1_555 1_555
H9 C10 1_555 1_555
C11 C1 1_555 1_555
H10 C11 1_555 1_555
C12 C11 1_555 1_555
H11 C12 1_555 1_555
H12 C12 1_555 1_555
H13 C12 1_555 1_555
C13 C11 1_555 1_555
H14 C13 1_555 1_555
H15 C13 1_555 1_555
H16 C13 1_555 1_555
C2 C3 1_555 1_555
C7 C8 1_555 1_555
C9 C10 1_555 1_555

#END
