
#######################################################################
#
#                 Cambridge Crystallographic Data Centre
#                                CCDC 
#
#######################################################################
#
# If this CIF has been generated from an entry in the Cambridge 
# Structural Database, then it will include bibliographic, chemical, 
# crystal, experimental, refinement or atomic coordinate data resulting 
# from the CCDC's data processing and validation procedures.
#
#######################################################################

data_PIGWOU01
_chemical_formula_moiety         'C12 H12 F1 N1'
_chemical_name_systematic        6-fluoro-2,3,4,9-tetrahydro-1H-carbazole
_symmetry_cell_setting           monoclinic
_symmetry_space_group_name_H-M   'P 21/n'
_symmetry_Int_Tables_number      14
_space_group_name_Hall           '-P 2yn'
loop_
_symmetry_equiv_pos_site_id
_symmetry_equiv_pos_as_xyz
1 x,y,z
2 1/2-x,1/2+y,1/2-z
3 -x,-y,-z
4 1/2+x,1/2-y,1/2+z
_cell_length_a                   10.5411(11)
_cell_length_b                   8.1081(8)
_cell_length_c                   21.980(2)
_cell_angle_alpha                90
_cell_angle_beta                 98.610(2)
_cell_angle_gamma                90
_cell_volume                     1857.42
_exptl_crystal_colour            colorless
_exptl_crystal_description       BLOCK
_cell_formula_units_Z            8
loop_
_atom_site_label
_atom_site_type_symbol
_atom_site_fract_x
_atom_site_fract_y
_atom_site_fract_z
F1 F 0.39217(6) 0.78959(9) 0.28255(3)
N1 N 0.67546(8) 0.50775(10) 0.12241(4)
H1 H 0.6580 0.4380 0.0916
C1 C 0.58881(9) 0.56572(12) 0.15850(4)
C2 C 0.65613(9) 0.67482(11) 0.20254(4)
C3 C 0.58971(9) 0.75204(12) 0.24570(4)
H2 H 0.6314 0.8258 0.2758
C4 C 0.46090(10) 0.71529(13) 0.24207(5)
C5 C 0.39396(9) 0.60707(13) 0.19925(5)
H3 H 0.3053 0.5862 0.1994
C6 C 0.45866(9) 0.53054(13) 0.15654(5)
H4 H 0.4157 0.4565 0.1269
C7 C 0.79439(9) 0.57705(12) 0.14245(4)
C8 C 0.78697(9) 0.67917(12) 0.19156(4)
C9 C 0.90030(9) 0.77037(13) 0.22503(5)
H5 H 0.9036 0.7554 0.2699
H6 H 0.8911 0.8897 0.2159
C10 C 1.02531(10) 0.70621(14) 0.20533(5)
H7 H 1.0949 0.7869 0.2178
H8 H 1.0498 0.6011 0.2269
C11 C 1.01177(10) 0.67816(14) 0.13575(5)
H9 H 1.0960 0.6456 0.1247
H10 H 0.9853 0.7825 0.1141
C12 C 0.91255(9) 0.54364(13) 0.11443(5)
H11 H 0.8917 0.5443 0.0690
H12 H 0.9477 0.4339 0.1275
F2 F 0.76893(7) 0.31287(9) -0.03683(3)
N2 N 0.50074(8) 0.01610(11) 0.12634(4)
H13 H 0.5217 -0.0502 0.1580
C13 C 0.58439(9) 0.08049(12) 0.09000(4)
C14 C 0.51152(9) 0.18020(12) 0.04424(4)
C15 C 0.57378(9) 0.26022(12) 0.00040(5)
H14 H 0.5279 0.3267 -0.0311
C16 C 0.70470(10) 0.23790(13) 0.00515(5)
C17 C 0.77749(10) 0.14366(13) 0.05069(5)
H15 H 0.8678 0.1351 0.0521
C18 C 0.71695(10) 0.06249(13) 0.09393(5)
H16 H 0.7643 -0.0032 0.1252
C19 C 0.37826(9) 0.07284(12) 0.10491(5)
C20 C 0.38102(9) 0.17420(12) 0.05534(5)
C21 C 0.26435(9) 0.26211(13) 0.02353(5)
H17 H 0.2329 0.2067 -0.0160
H18 H 0.2868 0.3773 0.0146
C22 C 0.15884(10) 0.26129(13) 0.06451(5)
H19 H 0.0769 0.2971 0.0400
H20 H 0.1811 0.3411 0.0985
C23 C 0.14129(10) 0.08955(14) 0.09146(5)
H21 H 0.1199 0.0096 0.0574
H22 H 0.0686 0.0925 0.1152
C24 C 0.26274(10) 0.03136(14) 0.13364(5)
H23 H 0.2684 0.0860 0.1742
H24 H 0.2586 -0.0893 0.1400
loop_
_geom_bond_atom_site_label_1
_geom_bond_atom_site_label_2
_geom_bond_site_symmetry_1
_geom_bond_site_symmetry_2
F1 C4 1_555 1_555
N1 H1 1_555 1_555
C1 N1 1_555 1_555
C2 C1 1_555 1_555
C3 C2 1_555 1_555
H2 C3 1_555 1_555
C4 C3 1_555 1_555
C5 C4 1_555 1_555
H3 C5 1_555 1_555
C6 C1 1_555 1_555
H4 C6 1_555 1_555
C7 N1 1_555 1_555
C8 C2 1_555 1_555
C9 C8 1_555 1_555
H5 C9 1_555 1_555
H6 C9 1_555 1_555
C10 C9 1_555 1_555
H7 C10 1_555 1_555
H8 C10 1_555 1_555
C11 C10 1_555 1_555
H9 C11 1_555 1_555
H10 C11 1_555 1_555
C12 C7 1_555 1_555
H11 C12 1_555 1_555
H12 C12 1_555 1_555
F2 C16 1_555 1_555
N2 H13 1_555 1_555
C13 N2 1_555 1_555
C14 C13 1_555 1_555
C15 C14 1_555 1_555
H14 C15 1_555 1_555
C16 C15 1_555 1_555
C17 C16 1_555 1_555
H15 C17 1_555 1_555
C18 C13 1_555 1_555
H16 C18 1_555 1_555
C19 N2 1_555 1_555
C20 C14 1_555 1_555
C21 C20 1_555 1_555
H17 C21 1_555 1_555
H18 C21 1_555 1_555
C22 C21 1_555 1_555
H19 C22 1_555 1_555
H20 C22 1_555 1_555
C23 C22 1_555 1_555
H21 C23 1_555 1_555
H22 C23 1_555 1_555
C24 C19 1_555 1_555
H23 C24 1_555 1_555
H24 C24 1_555 1_555
C5 C6 1_555 1_555
C7 C8 1_555 1_555
C11 C12 1_555 1_555
C17 C18 1_555 1_555
C19 C20 1_555 1_555
C23 C24 1_555 1_555

#END
