
#######################################################################
#
#                 Cambridge Crystallographic Data Centre
#                                CCDC 
#
#######################################################################
#
# If this CIF has been generated from an entry in the Cambridge 
# Structural Database, then it will include bibliographic, chemical, 
# crystal, experimental, refinement or atomic coordinate data resulting 
# from the CCDC's data processing and validation procedures.
#
#######################################################################

data_PIGWUY
_chemical_formula_moiety         'C40 H46 O2'
_chemical_name_systematic        
1,2-bis(3,5-Di-t-butyl-4-oxo-2,5-cyclohexadien-1-ylidene)-1,2-dihydroacenaphthylene
_symmetry_cell_setting           monoclinic
_symmetry_space_group_name_H-M   'P 21/c'
_symmetry_Int_Tables_number      14
_space_group_name_Hall           '-P 2ybc'
loop_
_symmetry_equiv_pos_site_id
_symmetry_equiv_pos_as_xyz
1 x,y,z
2 -x,1/2+y,1/2-z
3 -x,-y,-z
4 x,1/2-y,1/2+z
_cell_length_a                   21.040(9)
_cell_length_b                   13.717(6)
_cell_length_c                   24.053(10)
_cell_angle_alpha                90
_cell_angle_beta                 103.24(4)
_cell_angle_gamma                90
_cell_volume                     6757.31
_exptl_crystal_colour            black
_exptl_crystal_description       prism
_chemical_melting_point          '238-239 deg.C'
_cell_formula_units_Z            8
loop_
_atom_site_label
_atom_site_type_symbol
_atom_site_fract_x
_atom_site_fract_y
_atom_site_fract_z
O1 O 0.0924(2) 0.6537(2) 0.4914(1)
O2 O -0.1087(2) 0.6343(2) 0.1484(1)
C1 C 0.1030(2) 0.6037(3) 0.4516(2)
C2 C 0.1360(2) 0.5099(3) 0.4616(2)
C3 C 0.1477(2) 0.4571(3) 0.4176(2)
C4 C 0.1288(2) 0.4901(3) 0.3590(2)
C5 C 0.0974(2) 0.5839(3) 0.3502(1)
C6 C 0.0846(2) 0.6395(3) 0.3923(2)
C7 C -0.0580(2) 0.5931(3) 0.1708(2)
C8 C -0.0006(2) 0.5931(3) 0.1456(2)
C9 C 0.0549(2) 0.5494(3) 0.1737(2)
C10 C 0.0613(2) 0.5002(3) 0.2274(1)
C11 C 0.0049(2) 0.4978(3) 0.2515(2)
C12 C -0.0540(2) 0.5355(3) 0.2246(2)
C13 C 0.1455(2) 0.4369(3) 0.3150(2)
C14 C 0.2010(2) 0.3686(3) 0.3196(2)
C15 C 0.2440(2) 0.3223(3) 0.3640(2)
C16 C 0.2947(2) 0.2653(4) 0.3518(3)
C17 C 0.3032(2) 0.2527(3) 0.2975(3)
C18 C 0.2606(2) 0.2981(3) 0.2515(2)
C19 C 0.2610(2) 0.2884(4) 0.1935(3)
C20 C 0.2149(3) 0.3333(4) 0.1525(2)
C21 C 0.1663(2) 0.3939(3) 0.1662(2)
C22 C 0.1655(2) 0.4080(3) 0.2232(2)
C23 C 0.1201(2) 0.4560(3) 0.2534(2)
C24 C 0.2117(2) 0.3569(3) 0.2644(2)
C25 C 0.1558(3) 0.4714(4) 0.5235(2)
C26 C 0.0957(3) 0.4608(4) 0.5486(2)
C27 C 0.2053(3) 0.5405(4) 0.5599(2)
C28 C 0.1891(3) 0.3698(5) 0.5260(2)
C29 C 0.0556(2) 0.7421(3) 0.3812(2)
C30 C 0.0379(2) 0.7661(3) 0.3165(2)
C31 C -0.0071(2) 0.7518(3) 0.4022(2)
C32 C 0.1049(2) 0.8183(3) 0.4102(2)
C33 C -0.0036(2) 0.6516(4) 0.0903(2)
C34 C -0.0154(3) 0.7586(4) 0.1001(2)
C35 C -0.0577(2) 0.6107(4) 0.0429(2)
C36 C 0.0601(2) 0.6419(4) 0.0702(2)
C37 C -0.1153(2) 0.5212(3) 0.2470(2)
C38 C -0.1033(2) 0.4535(3) 0.2987(2)
C39 C -0.1388(2) 0.6202(3) 0.2650(2)
C40 C -0.1704(2) 0.4757(3) 0.2000(2)
H1 H 0.1693 0.3961 0.4254
H2 H 0.0850 0.6081 0.3123
H3 H 0.0917 0.5513 0.1571
H4 H 0.0088 0.4685 0.2879
H5 H 0.2394 0.3289 0.4022
H6 H 0.3243 0.2342 0.3824
H7 H 0.3380 0.2133 0.2911
H8 H 0.2939 0.2501 0.1827
H9 H 0.2154 0.3235 0.1135
H10 H 0.1348 0.4246 0.1368
H11 H 0.0661 0.4161 0.5262
H12 H 0.0751 0.5225 0.5484
H13 H 0.1086 0.4374 0.5867
H14 H 0.1864 0.6034 0.5599
H15 H 0.2172 0.5165 0.5980
H16 H 0.2430 0.5444 0.5446
H17 H 0.2006 0.3479 0.5645
H18 H 0.2274 0.3748 0.5115
H19 H 0.1598 0.3247 0.5036
H20 H 0.0759 0.7612 0.3017
H21 H 0.0211 0.8305 0.3111
H22 H 0.0059 0.7213 0.2972
H23 H -0.0387 0.7071 0.3821
H24 H -0.0234 0.8164 0.3956
H25 H 0.0016 0.7379 0.4419
H26 H 0.0861 0.8814 0.4036
H27 H 0.1168 0.8060 0.4501
H28 H 0.1427 0.8150 0.3949
H29 H 0.0199 0.7836 0.1285
H30 H -0.0549 0.7657 0.1124
H31 H -0.0184 0.7935 0.0655
H32 H -0.0984 0.6166 0.0535
H33 H -0.0593 0.6461 0.0087
H34 H -0.0492 0.5439 0.0370
H35 H 0.0565 0.6773 0.0357
H36 H 0.0681 0.5751 0.0639
H37 H 0.0952 0.6674 0.0986
H38 H -0.0706 0.4807 0.3286
H39 H -0.1426 0.4460 0.3113
H40 H -0.0892 0.3917 0.2884
H41 H -0.1059 0.6475 0.2947
H42 H -0.1775 0.6111 0.2783
H43 H -0.1473 0.6632 0.2332
H44 H -0.2087 0.4684 0.2142
H45 H -0.1794 0.5172 0.1675
H46 H -0.1568 0.4137 0.1895
O3 O 0.3812(2) 0.3096(3) 0.0147(1)
O4 O 0.6397(1) 0.3449(2) 0.3430(1)
C41 C 0.3739(2) 0.3526(4) 0.0576(2)
C42 C 0.3307(2) 0.4378(3) 0.0542(2)
C43 C 0.3262(2) 0.4844(3) 0.1028(2)
C44 C 0.3622(2) 0.4583(3) 0.1598(2)
C45 C 0.3986(2) 0.3666(3) 0.1617(2)
C46 C 0.4059(2) 0.3155(3) 0.1158(2)
C47 C 0.5827(2) 0.3703(3) 0.3230(2)
C48 C 0.5317(2) 0.3478(3) 0.3547(2)
C49 C 0.4712(2) 0.3865(3) 0.3351(2)
C50 C 0.4521(2) 0.4427(3) 0.2834(2)
C51 C 0.5021(2) 0.4565(3) 0.2513(2)
C52 C 0.5645(2) 0.4269(3) 0.2694(2)
C53 C 0.3566(2) 0.5078(3) 0.2078(2)
C54 C 0.3053(2) 0.5788(3) 0.2126(2)
C55 C 0.2625(2) 0.6408(4) 0.1773(2)
C56 C 0.2170(2) 0.6973(4) 0.1977(2)
C57 C 0.2145(2) 0.6936(4) 0.2538(3)
C58 C 0.2582(2) 0.6351(3) 0.2931(2)
C59 C 0.2639(2) 0.6299(4) 0.3527(3)
C60 C 0.3117(3) 0.5750(4) 0.3863(2)
C61 C 0.3565(2) 0.5191(3) 0.3627(2)
C62 C 0.3512(2) 0.5209(3) 0.3048(2)
C63 C 0.3905(2) 0.4824(3) 0.2662(2)
C64 C 0.3020(2) 0.5784(3) 0.2709(2)
C65 C 0.2918(3) 0.4699(4) -0.0042(2)
C66 C 0.2488(3) 0.5585(5) 0.0006(2)
C67 C 0.2468(3) 0.3844(5) -0.0303(2)
C68 C 0.3378(3) 0.4982(4) -0.0423(2)
C69 C 0.4439(2) 0.2192(3) 0.1209(2)
C70 C 0.4718(2) 0.1933(3) 0.1834(2)
C71 C 0.5015(3) 0.2288(4) 0.0920(2)
C72 C 0.3979(3) 0.1363(4) 0.0940(2)
C73 C 0.5464(2) 0.2801(3) 0.4052(2)
C74 C 0.4863(3) 0.2538(4) 0.4274(2)
C75 C 0.5969(3) 0.3271(4) 0.4540(2)
C76 C 0.5728(2) 0.1828(4) 0.3882(2)
C77 C 0.6175(2) 0.4490(3) 0.2368(2)
C78 C 0.5898(2) 0.5086(4) 0.1831(2)
C79 C 0.6458(2) 0.3540(4) 0.2188(2)
C80 C 0.6719(2) 0.5103(3) 0.2747(2)
H47 H 0.2972 0.5383 0.0993
H48 H 0.4186 0.3414 0.1983
H49 H 0.4395 0.3757 0.3569
H50 H 0.4901 0.4883 0.2153
H51 H 0.2638 0.6454 0.1382
H52 H 0.1877 0.7385 0.1722
H53 H 0.1826 0.7311 0.2666
H54 H 0.2341 0.6650 0.3695
H55 H 0.3153 0.5739 0.4264
H56 H 0.3894 0.4812 0.3868
H57 H 0.2756 0.6113 0.0176
H58 H 0.2192 0.5422 0.0237
H59 H 0.2250 0.5769 -0.0364
H60 H 0.2176 0.3701 -0.0066
H61 H 0.2227 0.4021 -0.0673
H62 H 0.2726 0.3286 -0.0330
H63 H 0.3129 0.5182 -0.0786
H64 H 0.3640 0.4437 -0.0469
H65 H 0.3651 0.5503 -0.0251
H66 H 0.4370 0.1837 0.2020
H67 H 0.4989 0.2448 0.2015
H68 H 0.4967 0.1351 0.1856
H69 H 0.5298 0.2791 0.1100
H70 H 0.5247 0.1689 0.0952
H71 H 0.4855 0.2442 0.0527
H72 H 0.4216 0.0769 0.0970
H73 H 0.3800 0.1506 0.0549
H74 H 0.3636 0.1303 0.1135
H75 H 0.4548 0.2235 0.3978
H76 H 0.4682 0.3113 0.4395
H77 H 0.4984 0.2101 0.4587
H78 H 0.5798 0.3861 0.4652
H79 H 0.6067 0.2836 0.4856
H80 H 0.6357 0.3405 0.4414
H81 H 0.5833 0.1413 0.4206
H82 H 0.6109 0.1945 0.3744
H83 H 0.5406 0.1526 0.3592
H84 H 0.5731 0.5685 0.1936
H85 H 0.5558 0.4730 0.1588
H86 H 0.6234 0.5215 0.1636
H87 H 0.6119 0.3177 0.1947
H88 H 0.6785 0.3690 0.1987
H89 H 0.6644 0.3167 0.2518
H90 H 0.7053 0.5226 0.2548
H91 H 0.6898 0.4757 0.3089
H92 H 0.6543 0.5705 0.2837
loop_
_geom_bond_atom_site_label_1
_geom_bond_atom_site_label_2
_geom_bond_site_symmetry_1
_geom_bond_site_symmetry_2
O1 C1 1_555 1_555
O2 C7 1_555 1_555
O3 C41 1_555 1_555
O4 C47 1_555 1_555
C1 C2 1_555 1_555
C2 C3 1_555 1_555
C3 C4 1_555 1_555
C4 C5 1_555 1_555
C5 C6 1_555 1_555
C6 C1 1_555 1_555
C7 C8 1_555 1_555
C8 C9 1_555 1_555
C9 C10 1_555 1_555
C10 C11 1_555 1_555
C11 C12 1_555 1_555
C12 C7 1_555 1_555
C13 C4 1_555 1_555
C14 C13 1_555 1_555
C15 C14 1_555 1_555
C16 C15 1_555 1_555
C17 C16 1_555 1_555
C18 C17 1_555 1_555
C19 C18 1_555 1_555
C20 C19 1_555 1_555
C21 C20 1_555 1_555
C22 C21 1_555 1_555
C23 C10 1_555 1_555
C24 C14 1_555 1_555
C25 C2 1_555 1_555
C26 C25 1_555 1_555
C27 C25 1_555 1_555
C28 C25 1_555 1_555
C29 C6 1_555 1_555
C30 C29 1_555 1_555
C31 C29 1_555 1_555
C32 C29 1_555 1_555
C33 C8 1_555 1_555
C34 C33 1_555 1_555
C35 C33 1_555 1_555
C36 C33 1_555 1_555
C37 C12 1_555 1_555
C38 C37 1_555 1_555
C39 C37 1_555 1_555
C40 C37 1_555 1_555
C41 C42 1_555 1_555
C42 C43 1_555 1_555
C43 C44 1_555 1_555
C44 C45 1_555 1_555
C45 C46 1_555 1_555
C46 C41 1_555 1_555
C47 C48 1_555 1_555
C48 C49 1_555 1_555
C49 C50 1_555 1_555
C50 C51 1_555 1_555
C51 C52 1_555 1_555
C52 C47 1_555 1_555
C53 C44 1_555 1_555
C54 C53 1_555 1_555
C55 C54 1_555 1_555
C56 C55 1_555 1_555
C57 C56 1_555 1_555
C58 C57 1_555 1_555
C59 C58 1_555 1_555
C60 C59 1_555 1_555
C61 C60 1_555 1_555
C62 C61 1_555 1_555
C63 C50 1_555 1_555
C64 C54 1_555 1_555
C65 C42 1_555 1_555
C66 C65 1_555 1_555
C67 C65 1_555 1_555
C68 C65 1_555 1_555
C69 C46 1_555 1_555
C70 C69 1_555 1_555
C71 C69 1_555 1_555
C72 C69 1_555 1_555
C73 C48 1_555 1_555
C74 C73 1_555 1_555
C75 C73 1_555 1_555
C76 C73 1_555 1_555
C77 C52 1_555 1_555
C78 C77 1_555 1_555
C79 C77 1_555 1_555
C80 C77 1_555 1_555
H1 C3 1_555 1_555
H2 C5 1_555 1_555
H3 C9 1_555 1_555
H4 C11 1_555 1_555
H5 C15 1_555 1_555
H6 C16 1_555 1_555
H7 C17 1_555 1_555
H8 C19 1_555 1_555
H9 C20 1_555 1_555
H10 C21 1_555 1_555
H11 C26 1_555 1_555
H12 C26 1_555 1_555
H13 C26 1_555 1_555
H14 C27 1_555 1_555
H15 C27 1_555 1_555
H16 C27 1_555 1_555
H17 C28 1_555 1_555
H18 C28 1_555 1_555
H19 C28 1_555 1_555
H20 C30 1_555 1_555
H21 C30 1_555 1_555
H22 C30 1_555 1_555
H23 C31 1_555 1_555
H24 C31 1_555 1_555
H25 C31 1_555 1_555
H26 C32 1_555 1_555
H27 C32 1_555 1_555
H28 C32 1_555 1_555
H29 C34 1_555 1_555
H30 C34 1_555 1_555
H31 C34 1_555 1_555
H32 C35 1_555 1_555
H33 C35 1_555 1_555
H34 C35 1_555 1_555
H35 C36 1_555 1_555
H36 C36 1_555 1_555
H37 C36 1_555 1_555
H38 C38 1_555 1_555
H39 C38 1_555 1_555
H40 C38 1_555 1_555
H41 C39 1_555 1_555
H42 C39 1_555 1_555
H43 C39 1_555 1_555
H44 C40 1_555 1_555
H45 C40 1_555 1_555
H46 C40 1_555 1_555
H47 C43 1_555 1_555
H48 C45 1_555 1_555
H49 C49 1_555 1_555
H50 C51 1_555 1_555
H51 C55 1_555 1_555
H52 C56 1_555 1_555
H53 C57 1_555 1_555
H54 C59 1_555 1_555
H55 C60 1_555 1_555
H56 C61 1_555 1_555
H57 C66 1_555 1_555
H58 C66 1_555 1_555
H59 C66 1_555 1_555
H60 C67 1_555 1_555
H61 C67 1_555 1_555
H62 C67 1_555 1_555
H63 C68 1_555 1_555
H64 C68 1_555 1_555
H65 C68 1_555 1_555
H66 C70 1_555 1_555
H67 C70 1_555 1_555
H68 C70 1_555 1_555
H69 C71 1_555 1_555
H70 C71 1_555 1_555
H71 C71 1_555 1_555
H72 C72 1_555 1_555
H73 C72 1_555 1_555
H74 C72 1_555 1_555
H75 C74 1_555 1_555
H76 C74 1_555 1_555
H77 C74 1_555 1_555
H78 C75 1_555 1_555
H79 C75 1_555 1_555
H80 C75 1_555 1_555
H81 C76 1_555 1_555
H82 C76 1_555 1_555
H83 C76 1_555 1_555
H84 C78 1_555 1_555
H85 C78 1_555 1_555
H86 C78 1_555 1_555
H87 C79 1_555 1_555
H88 C79 1_555 1_555
H89 C79 1_555 1_555
H90 C80 1_555 1_555
H91 C80 1_555 1_555
H92 C80 1_555 1_555
C13 C23 1_555 1_555
C18 C24 1_555 1_555
C22 C23 1_555 1_555
C22 C24 1_555 1_555
C53 C63 1_555 1_555
C58 C64 1_555 1_555
C62 C63 1_555 1_555
C62 C64 1_555 1_555

#END
