
#######################################################################
#
#                 Cambridge Crystallographic Data Centre
#                                CCDC 
#
#######################################################################
#
# If this CIF has been generated from an entry in the Cambridge 
# Structural Database, then it will include bibliographic, chemical, 
# crystal, experimental, refinement or atomic coordinate data resulting 
# from the CCDC's data processing and validation procedures.
#
#######################################################################

data_PIGWOU
_chemical_formula_moiety         'C12 H12 F1 N1'
_chemical_name_systematic        6-fluoro-2,3,4,9-tetrahydro-1H-carbazole
_symmetry_cell_setting           orthorhombic
_symmetry_space_group_name_H-M   'P 21 21 21'
_symmetry_Int_Tables_number      19
_space_group_name_Hall           'P 2ac 2ab'
loop_
_symmetry_equiv_pos_site_id
_symmetry_equiv_pos_as_xyz
1 x,y,z
2 1/2-x,-y,1/2+z
3 1/2+x,1/2-y,-z
4 -x,1/2+y,1/2-z
_cell_length_a                   6.0226(4)
_cell_length_b                   7.8459(6)
_cell_length_c                   20.1968(14)
_cell_angle_alpha                90
_cell_angle_beta                 90
_cell_angle_gamma                90
_cell_volume                     954.354
_exptl_crystal_colour            colorless
_exptl_crystal_description       PLATE
_cell_formula_units_Z            4
loop_
_atom_site_label
_atom_site_type_symbol
_atom_site_fract_x
_atom_site_fract_y
_atom_site_fract_z
F1 F 1.1922(2) -0.03453(15) 0.67274(5)
N1 N 0.7099(2) 0.10305(17) 0.45159(6)
H1 H 0.5858 0.1589 0.4440
C1 C 0.8067(2) 0.07927(17) 0.51272(7)
C2 C 1.0018(2) -0.01816(18) 0.50303(7)
C3 C 1.1358(3) -0.05919(19) 0.55774(7)
H2 H 1.2675 -0.1248 0.5531
C4 C 1.0668(3) 0.0003(2) 0.61808(7)
C5 C 0.8755(3) 0.09568(19) 0.62831(7)
H3 H 0.8373 0.1328 0.6716
C6 C 0.7407(3) 0.13636(18) 0.57505(7)
H4 H 0.6084 0.2007 0.5808
C7 C 0.8401(2) 0.02455(19) 0.40405(7)
C8 C 1.0182(2) -0.05175(17) 0.43326(7)
C9 C 1.1957(3) -0.14330(19) 0.39546(7)
H5 H 1.1733 -0.2680 0.3990
H6 H 1.3432 -0.1154 0.4142
C10 C 1.1855(6) -0.0872(6) 0.32062(14)
H7 H 1.2513 0.0279 0.3161
H8 H 1.2755 -0.1669 0.2938
C11 C 0.9466(7) -0.0841(6) 0.29359(19)
H9 H 0.9500 -0.0478 0.2467
H10 H 0.8849 -0.2010 0.2952
C12 C 0.7972(3) 0.0325(2) 0.33132(7)
H11 H 0.8196 0.1508 0.3157
H12 H 0.6407 0.0009 0.3226
C13? C 1.1315(8) -0.1739(8) 0.3265(2)
H13? H 1.0339 -0.2753 0.3244
H14? H 1.2661 -0.1984 0.3000
C14? C 1.0116(10) -0.0231(8) 0.2968(2)
H15? H 0.9758 -0.0505 0.2501
H16? H 1.1149 0.0750 0.2964
loop_
_geom_bond_atom_site_label_1
_geom_bond_atom_site_label_2
_geom_bond_site_symmetry_1
_geom_bond_site_symmetry_2
F1 C4 1_555 1_555
N1 H1 1_555 1_555
C1 N1 1_555 1_555
C2 C1 1_555 1_555
C3 C2 1_555 1_555
H2 C3 1_555 1_555
C4 C3 1_555 1_555
C5 C4 1_555 1_555
H3 C5 1_555 1_555
C6 C1 1_555 1_555
H4 C6 1_555 1_555
C7 N1 1_555 1_555
C8 C2 1_555 1_555
C9 C8 1_555 1_555
H5 C9 1_555 1_555
H6 C9 1_555 1_555
C10 C9 1_555 1_555
H7 C10 1_555 1_555
H8 C10 1_555 1_555
C11 C10 1_555 1_555
H9 C11 1_555 1_555
H10 C11 1_555 1_555
C12 C7 1_555 1_555
H11 C12 1_555 1_555
H12 C12 1_555 1_555
C5 C6 1_555 1_555
C7 C8 1_555 1_555
C11 C12 1_555 1_555

#END
