
#######################################################################
#
#                 Cambridge Crystallographic Data Centre
#                                CCDC 
#
#######################################################################
#
# If this CIF has been generated from an entry in the Cambridge 
# Structural Database, then it will include bibliographic, chemical, 
# crystal, experimental, refinement or atomic coordinate data resulting 
# from the CCDC's data processing and validation procedures.
#
#######################################################################

data_PIGWEK
_chemical_formula_moiety         'C12 H12 F1 N1'
_chemical_name_systematic        8-fluoro-2,3,4,9-tetrahydro-1H-carbazole
_symmetry_cell_setting           monoclinic
_symmetry_space_group_name_H-M   'C 2/c'
_symmetry_Int_Tables_number      15
_space_group_name_Hall           '-C 2yn'
loop_
_symmetry_equiv_pos_site_id
_symmetry_equiv_pos_as_xyz
1 x,y,z
2 -x,y,1/2-z
3 1/2+x,1/2+y,z
4 1/2-x,1/2+y,1/2-z
5 -x,-y,-z
6 x,-y,1/2+z
7 1/2-x,1/2-y,-z
8 1/2+x,1/2-y,1/2+z
_cell_length_a                   17.4633(7)
_cell_length_b                   11.1118(7)
_cell_length_c                   9.6718(4)
_cell_angle_alpha                90
_cell_angle_beta                 91.282(3)
_cell_angle_gamma                90
_cell_volume                     1876.33
_exptl_crystal_colour            colorless
_exptl_crystal_description       block
_cell_formula_units_Z            8
loop_
_atom_site_label
_atom_site_type_symbol
_atom_site_fract_x
_atom_site_fract_y
_atom_site_fract_z
F1 F 0.92018(4) -0.03548(6) 0.64383(7)
N1 N 0.76446(5) 0.02449(8) 0.53512(9)
H1 H 0.7814 -0.0323 0.4803
C1 C 0.80412(6) 0.07465(9) 0.64537(10)
C2 C 0.87599(6) 0.04999(9) 0.70323(10)
C3 C 0.90230(6) 0.11086(10) 0.81886(10)
H2 H 0.9510 0.0925 0.8591
C4 C 0.85603(6) 0.20070(10) 0.87665(10)
H3 H 0.8744 0.2436 0.9556
C5 C 0.78441(6) 0.22811(9) 0.82129(10)
H4 H 0.7541 0.2895 0.8612
C6 C 0.75718(6) 0.16404(9) 0.70545(10)
C7 C 0.68670(5) 0.16425(9) 0.62658(10)
C8 C 0.69312(5) 0.07894(9) 0.52536(10)
C9 C 0.63198(6) 0.04413(10) 0.42238(11)
H5 H 0.6119 -0.0366 0.4450
H6 H 0.6535 0.0409 0.3286
C10 C 0.56711(6) 0.13699(10) 0.42573(11)
H7 H 0.5824 0.2092 0.3731
H8 H 0.5208 0.1027 0.3797
C11 C 0.54768(6) 0.17423(10) 0.57342(11)
H9 H 0.5032 0.2296 0.5705
H10 H 0.5331 0.1020 0.6266
C12 C 0.61548(6) 0.23638(9) 0.64661(11)
H11 H 0.6222 0.3182 0.6083
H12 H 0.6054 0.2440 0.7466
loop_
_geom_bond_atom_site_label_1
_geom_bond_atom_site_label_2
_geom_bond_site_symmetry_1
_geom_bond_site_symmetry_2
F1 C2 1_555 1_555
N1 H1 1_555 1_555
C1 N1 1_555 1_555
C2 C1 1_555 1_555
C3 C2 1_555 1_555
H2 C3 1_555 1_555
C4 C3 1_555 1_555
H3 C4 1_555 1_555
C5 C4 1_555 1_555
H4 C5 1_555 1_555
C6 C1 1_555 1_555
C7 C6 1_555 1_555
C8 N1 1_555 1_555
C9 C8 1_555 1_555
H5 C9 1_555 1_555
H6 C9 1_555 1_555
C10 C9 1_555 1_555
H7 C10 1_555 1_555
H8 C10 1_555 1_555
C11 C10 1_555 1_555
H9 C11 1_555 1_555
H10 C11 1_555 1_555
C12 C7 1_555 1_555
H11 C12 1_555 1_555
H12 C12 1_555 1_555
C5 C6 1_555 1_555
C7 C8 1_555 1_555
C11 C12 1_555 1_555

#END
