
#######################################################################
#
#                 Cambridge Crystallographic Data Centre
#                                CCDC 
#
#######################################################################
#
# If this CIF has been generated from an entry in the Cambridge 
# Structural Database, then it will include bibliographic, chemical, 
# crystal, experimental, refinement or atomic coordinate data resulting 
# from the CCDC's data processing and validation procedures.
#
#######################################################################

data_PIGXOV
_chemical_formula_moiety         'C26 H36 N2 O2'
_chemical_name_systematic        
2,2'-[ethane-1,2-diylbis(azanylylidenemethylylidene)]bis(6-t-butyl-4-methylphenol)
_symmetry_cell_setting           monoclinic
_symmetry_space_group_name_H-M   'P 21/c'
_symmetry_Int_Tables_number      14
_space_group_name_Hall           '-P 2ybc'
loop_
_symmetry_equiv_pos_site_id
_symmetry_equiv_pos_as_xyz
1 x,y,z
2 -x,1/2+y,1/2-z
3 -x,-y,-z
4 x,1/2-y,1/2+z
_cell_length_a                   13.1124(14)
_cell_length_b                   9.8498(6)
_cell_length_c                   19.737(2)
_cell_angle_alpha                90
_cell_angle_beta                 106.892(8)
_cell_angle_gamma                90
_cell_volume                     2439.14
_exptl_crystal_colour            yellow
_exptl_crystal_description       prism
_cell_formula_units_Z            4
loop_
_atom_site_label
_atom_site_type_symbol
_atom_site_fract_x
_atom_site_fract_y
_atom_site_fract_z
O1 O 0.27128(13) 0.5225(2) 0.43358(8)
H1 H 0.317818 0.522865 0.471728
O2 O 0.62531(15) 0.62851(19) 0.83874(8)
H2 H 0.585817 0.616104 0.798592
N1 N 0.53204(16) 0.5008(2) 0.72285(9)
N2 N 0.42476(16) 0.6117(3) 0.53702(10)
C1 C 0.19861(18) 0.6627(3) 0.33295(11)
C2 C 0.27244(18) 0.6428(3) 0.39988(11)
C3 C 0.67949(18) 0.5121(3) 0.86304(11)
C4 C 0.79092(19) 0.2731(3) 0.91154(12)
C5 C 0.65923(18) 0.3954(3) 0.82115(11)
C6 C 0.80770(18) 0.3918(3) 0.95098(11)
H3 H 0.857788 0.389270 0.995358
C7 C 0.71588(18) 0.2780(3) 0.84646(12)
H4 H 0.702663 0.200207 0.818534
C8 C 0.34498(19) 0.7427(3) 0.43267(11)
C9 C 0.75602(18) 0.5135(3) 0.92966(11)
C10 C 0.2757(2) 0.8891(3) 0.33156(13)
C11 C 0.2038(2) 0.7877(3) 0.30179(12)
H5 H 0.155399 0.804515 0.257748
C12 C 0.11884(18) 0.5534(3) 0.29777(11)
C13 C 0.58540(19) 0.3967(3) 0.75008(12)
H6 H 0.576875 0.317491 0.723336
C14 C 0.3460(2) 0.8645(3) 0.39721(13)
H7 H 0.395372 0.930893 0.418406
C15 C 0.41689(19) 0.7228(3) 0.50344(13)
H8 H 0.459317 0.795248 0.525207
C16 C 0.4654(2) 0.4944(3) 0.64935(11)
H9 H 0.391091 0.506609 0.647218
H10 H 0.472985 0.406392 0.629273
C17 C 0.7823(2) 0.6408(3) 0.97503(12)
C18 C 0.49959(19) 0.6045(3) 0.60811(11)
H11 H 0.501335 0.690842 0.632017
H12 H 0.570685 0.585398 0.605029
C19 C 0.8536(2) 0.1455(3) 0.93857(13)
H13 H 0.925020 0.155427 0.935583
H14 H 0.820148 0.069495 0.910302
H15 H 0.855500 0.130448 0.986974
C20 C 0.1759(2) 0.4217(3) 0.28836(13)
H16 H 0.222839 0.439553 0.260045
H17 H 0.124098 0.354997 0.265238
H18 H 0.216478 0.388294 0.333906
C21 C 0.0501(2) 0.5962(3) 0.22335(12)
H19 H 0.013178 0.678918 0.226697
H20 H -0.000727 0.526084 0.203683
H21 H 0.095128 0.610219 0.193327
C22 C 0.6813(2) 0.6924(3) 0.99210(13)
H22 H 0.627269 0.712912 0.948806
H23 H 0.698222 0.772806 1.020652
H24 H 0.655724 0.623475 1.017463
C23 C 0.8677(2) 0.6151(3) 1.04592(12)
H25 H 0.842998 0.546575 1.071979
H26 H 0.881173 0.697577 1.072939
H27 H 0.932317 0.584927 1.037080
C24 C 0.0425(2) 0.5255(3) 0.34244(12)
H28 H 0.082538 0.494767 0.388681
H29 H -0.007901 0.456809 0.319794
H30 H 0.005134 0.607358 0.346710
C25 C 0.2773(2) 1.0227(3) 0.29409(14)
H31 H 0.228066 1.018772 0.247396
H32 H 0.347784 1.039513 0.290752
H33 H 0.256980 1.094689 0.320326
C26 C 0.8254(3) 0.7497(3) 0.93535(15)
H34 H 0.887777 0.715967 0.924753
H35 H 0.843630 0.829454 0.964332
H36 H 0.771985 0.772070 0.892066
loop_
_geom_bond_atom_site_label_1
_geom_bond_atom_site_label_2
_geom_bond_site_symmetry_1
_geom_bond_site_symmetry_2
O1 H1 1_555 1_555
O2 H2 1_555 1_555
N1 C13 1_555 1_555
N2 C15 1_555 1_555
C1 C2 1_555 1_555
C2 O1 1_555 1_555
C3 O2 1_555 1_555
C4 C6 1_555 1_555
C5 C3 1_555 1_555
C6 H3 1_555 1_555
C7 C4 1_555 1_555
H4 C7 1_555 1_555
C8 C2 1_555 1_555
C9 C3 1_555 1_555
C10 C11 1_555 1_555
C11 C1 1_555 1_555
H5 C11 1_555 1_555
C12 C1 1_555 1_555
C13 C5 1_555 1_555
H6 C13 1_555 1_555
C14 C8 1_555 1_555
H7 C14 1_555 1_555
C15 C8 1_555 1_555
H8 C15 1_555 1_555
C16 N1 1_555 1_555
H9 C16 1_555 1_555
H10 C16 1_555 1_555
C17 C9 1_555 1_555
C18 N2 1_555 1_555
H11 C18 1_555 1_555
H12 C18 1_555 1_555
C19 C4 1_555 1_555
H13 C19 1_555 1_555
H14 C19 1_555 1_555
H15 C19 1_555 1_555
C20 C12 1_555 1_555
H16 C20 1_555 1_555
H17 C20 1_555 1_555
H18 C20 1_555 1_555
C21 C12 1_555 1_555
H19 C21 1_555 1_555
H20 C21 1_555 1_555
H21 C21 1_555 1_555
C22 C17 1_555 1_555
H22 C22 1_555 1_555
H23 C22 1_555 1_555
H24 C22 1_555 1_555
C23 C17 1_555 1_555
H25 C23 1_555 1_555
H26 C23 1_555 1_555
H27 C23 1_555 1_555
C24 C12 1_555 1_555
H28 C24 1_555 1_555
H29 C24 1_555 1_555
H30 C24 1_555 1_555
C25 C10 1_555 1_555
H31 C25 1_555 1_555
H32 C25 1_555 1_555
H33 C25 1_555 1_555
C26 C17 1_555 1_555
H34 C26 1_555 1_555
H35 C26 1_555 1_555
H36 C26 1_555 1_555
C5 C7 1_555 1_555
C6 C9 1_555 1_555
C10 C14 1_555 1_555
C16 C18 1_555 1_555

#END
