
#######################################################################
#
#                 Cambridge Crystallographic Data Centre
#                                CCDC 
#
#######################################################################
#
# If this CIF has been generated from an entry in the Cambridge 
# Structural Database, then it will include bibliographic, chemical, 
# crystal, experimental, refinement or atomic coordinate data resulting 
# from the CCDC's data processing and validation procedures.
#
#######################################################################

data_PIHDUI
_chemical_formula_moiety         'C19 H19 N1 O3'
_chemical_name_systematic        
2-(2-hydroxy-4-phenylpentyl)-1H-isoindole-1,3(2H)-dione
_symmetry_cell_setting           triclinic
_symmetry_space_group_name_H-M   'P -1'
_symmetry_Int_Tables_number      2
_space_group_name_Hall           '-P 1'
loop_
_symmetry_equiv_pos_site_id
_symmetry_equiv_pos_as_xyz
1 x,y,z
2 -x,-y,-z
_cell_length_a                   5.81180(10)
_cell_length_b                   8.1390(2)
_cell_length_c                   16.9334(4)
_cell_angle_alpha                84.6866(18)
_cell_angle_beta                 87.1652(16)
_cell_angle_gamma                82.8993(18)
_cell_volume                     790.843
_exptl_crystal_colour            colorless
_exptl_crystal_description       plate
_cell_formula_units_Z            2
loop_
_atom_site_label
_atom_site_type_symbol
_atom_site_fract_x
_atom_site_fract_y
_atom_site_fract_z
C1 C 0.3589(4) 0.8792(3) 0.41652(13)
C2 C 0.4197(4) 0.7991(3) 0.49671(13)
C3 C 0.2961(4) 0.8027(3) 0.56837(14)
H1 H 0.1463 0.8635 0.5726
C4 C 0.4000(4) 0.7135(3) 0.63425(14)
H2 H 0.3181 0.7115 0.6842
C5 C 0.6206(5) 0.6278(3) 0.62802(14)
H3 H 0.688 0.5694 0.674
C6 C 0.7461(5) 0.6255(3) 0.55536(14)
H4 H 0.8976 0.5673 0.551
C7 C 0.6399(4) 0.7113(3) 0.49051(13)
C8 C 0.7231(4) 0.7314(3) 0.40555(13)
C9 C 0.5598(4) 0.8784(3) 0.28040(12)
H5 H 0.725 0.8771 0.2628
H6 H 0.4834 0.9936 0.2703
C10 C 0.4452(4) 0.7638(3) 0.23133(12)
H7 H 0.4961 0.6455 0.2504
C11 C 0.5075(4) 0.7906(3) 0.14289(12)
H8 H 0.4886 0.9115 0.1269
H9 H 0.3964 0.7398 0.113
C12 C 0.7542(4) 0.7182(3) 0.11917(13)
H10 H 0.8645 0.7677 0.1509
C13 C 0.7966(4) 0.5294(3) 0.13552(12)
C14 C 0.9931(4) 0.4568(3) 0.17387(14)
H11 H 1.0953 0.526 0.1924
C15 C 1.0450(4) 0.2856(3) 0.18598(15)
H12 H 1.1818 0.2392 0.2122
C16 C 0.8989(4) 0.1826(3) 0.16008(14)
H13 H 0.9346 0.0653 0.1678
C17 C 0.7000(4) 0.2524(3) 0.12285(16)
H14 H 0.597 0.1823 0.1055
C18 C 0.6480(4) 0.4240(3) 0.11035(14)
H15 H 0.5103 0.4699 0.0845
C19 C 0.8069(5) 0.7672(3) 0.03094(14)
H16 H 0.9668 0.7233 0.0168
H17 H 0.7879 0.8886 0.0212
H18 H 0.6997 0.7209 -0.0014
N1 N 0.5455(3) 0.8290(2) 0.36558(10)
O1 O 0.1883(3) 0.9689(3) 0.39616(11)
O2 O 0.9060(3) 0.6768(2) 0.37542(10)
O3 O 0.1998(3) 0.7939(2) 0.23891(9)
H19 H 0.1579 0.7832 0.2871
loop_
_geom_bond_atom_site_label_1
_geom_bond_atom_site_label_2
_geom_bond_site_symmetry_1
_geom_bond_site_symmetry_2
C1 C2 1_555 1_555
C2 C3 1_555 1_555
C3 H1 1_555 1_555
C4 C3 1_555 1_555
H2 C4 1_555 1_555
C5 C4 1_555 1_555
H3 C5 1_555 1_555
C6 C5 1_555 1_555
H4 C6 1_555 1_555
C7 C2 1_555 1_555
C8 C7 1_555 1_555
C9 H5 1_555 1_555
H6 C9 1_555 1_555
C10 C9 1_555 1_555
H7 C10 1_555 1_555
C11 C10 1_555 1_555
H8 C11 1_555 1_555
H9 C11 1_555 1_555
C12 C11 1_555 1_555
H10 C12 1_555 1_555
C13 C12 1_555 1_555
C14 C13 1_555 1_555
H11 C14 1_555 1_555
C15 C14 1_555 1_555
H12 C15 1_555 1_555
C16 C15 1_555 1_555
H13 C16 1_555 1_555
C17 C16 1_555 1_555
H14 C17 1_555 1_555
C18 C13 1_555 1_555
H15 C18 1_555 1_555
C19 C12 1_555 1_555
H16 C19 1_555 1_555
H17 C19 1_555 1_555
H18 C19 1_555 1_555
N1 C1 1_555 1_555
O1 C1 1_555 1_555
O2 C8 1_555 1_555
O3 C10 1_555 1_555
H19 O3 1_555 1_555
C6 C7 1_555 1_555
C8 N1 1_555 1_555
C9 N1 1_555 1_555
C17 C18 1_555 1_555

#END
