
#######################################################################
#
#                 Cambridge Crystallographic Data Centre
#                                CCDC 
#
#######################################################################
#
# If this CIF has been generated from an entry in the Cambridge 
# Structural Database, then it will include bibliographic, chemical, 
# crystal, experimental, refinement or atomic coordinate data resulting 
# from the CCDC's data processing and validation procedures.
#
#######################################################################

data_PIHGEU
_chemical_formula_moiety         'C33 H28 B1 N1'
_chemical_name_systematic        
6,6-Dimethyl-8-(triphenylvinyl)-6H-5\l^5^,6\l^5^-pyrido[1,2-b][2,1]benzazaborole
_symmetry_cell_setting           monoclinic
_symmetry_space_group_name_H-M   'P 21/c'
_symmetry_Int_Tables_number      14
_space_group_name_Hall           '-P 2ybc'
loop_
_symmetry_equiv_pos_site_id
_symmetry_equiv_pos_as_xyz
1 x,y,z
2 -x,1/2+y,1/2-z
3 -x,-y,-z
4 x,1/2-y,1/2+z
_cell_length_a                   12.734(2)
_cell_length_b                   11.0252(18)
_cell_length_c                   18.552(3)
_cell_angle_alpha                90
_cell_angle_beta                 97.165(3)
_cell_angle_gamma                90
_cell_volume                     2584.27
_exptl_crystal_colour            colorless
_exptl_crystal_description       block
_cell_formula_units_Z            4
loop_
_atom_site_label
_atom_site_type_symbol
_atom_site_fract_x
_atom_site_fract_y
_atom_site_fract_z
C1 C 0.15940(13) 0.38585(16) 0.28471(10)
C2 C 0.28306(13) 0.55026(16) 0.32057(10)
C3 C 0.20852(13) 0.46469(16) 0.33704(10)
H1 H 0.1913 0.4604 0.3842
C4 C 0.34373(14) 0.62739(16) 0.37798(10)
C5 C 0.45073(14) 0.63409(17) 0.38504(10)
C6 C 0.28000(14) 0.69837(17) 0.42591(10)
C7 C 0.25608(16) 0.48642(18) 0.19544(11)
H2 H 0.2700 0.4949 0.1477
C8 C 0.30328(15) 0.56154(18) 0.24911(11)
H3 H 0.3498 0.6212 0.2373
C9 C 0.18713(14) 0.39769(17) 0.21418(10)
C10 C 0.51241(14) 0.72434(17) 0.43343(11)
C11 C 0.51851(14) 0.55413(19) 0.34540(11)
C12 C 0.20828(17) 0.78496(19) 0.39672(13)
H4 H 0.1998 0.7990 0.3469
C13 C 0.51238(17) 0.84626(19) 0.41510(12)
H5 H 0.4682 0.8739 0.3747
C14 C 0.57915(17) 0.6865(2) 0.49385(12)
H6 H 0.5819 0.6047 0.5061
C15 C 0.64167(17) 0.8877(2) 0.51718(13)
H7 H 0.6849 0.9422 0.5453
C16 C 0.49930(17) 0.4305(2) 0.33783(13)
H8 H 0.4413 0.3972 0.3566
C17 C 0.64153(19) 0.7678(2) 0.53608(14)
H9 H 0.6837 0.7411 0.5776
C18 C 0.14913(19) 0.8508(2) 0.44053(16)
H10 H 0.1020 0.9094 0.4201
C19 C 0.1593(2) 0.8305(3) 0.51359(16)
H11 H 0.1190 0.8744 0.5430
C20 C 0.57782(18) 0.9274(2) 0.45657(14)
H12 H 0.5785 1.0088 0.4433
C21 C 0.5640(2) 0.3564(3) 0.30331(16)
H13 H 0.5491 0.2740 0.2985
C22 C 0.28944(19) 0.6802(2) 0.49963(13)
H14 H 0.3373 0.6229 0.5208
C23 C 0.60626(18) 0.5999(3) 0.31811(15)
H15 H 0.6221 0.6820 0.3230
C24 C 0.2290(2) 0.7455(3) 0.54280(15)
H16 H 0.2361 0.7310 0.5926
C25 C 0.6496(2) 0.4032(3) 0.27620(17)
H17 H 0.6933 0.3530 0.2528
C26 C 0.6711(2) 0.5240(3) 0.28341(19)
H18 H 0.7298 0.5560 0.2649
C27 C -0.04517(16) 0.3214(2) 0.29518(14)
H19 H -0.0931 0.2543 0.2867
H20 H -0.0654 0.3842 0.2603
H21 H -0.0476 0.3524 0.3433
C28 C 0.10986(19) 0.1649(2) 0.34036(13)
H22 H 0.1103 0.1900 0.3899
H23 H 0.1796 0.1391 0.3327
H24 H 0.0611 0.0988 0.3302
B1 B 0.07388(16) 0.2768(2) 0.28713(12)
C29 C 0.13705(14) 0.30391(17) 0.16621(11)
C30 C 0.02322(17) 0.13927(19) 0.16954(13)
H25 H -0.0198 0.0917 0.1951
C31 C 0.14843(18) 0.2793(2) 0.09431(12)
H26 H 0.1908 0.3280 0.0690
C32 C 0.0321(2) 0.1114(2) 0.09884(14)
H27 H -0.0047 0.0459 0.0765
C33 C 0.0958(2) 0.1814(2) 0.06128(13)
H28 H 0.1033 0.1625 0.0133
N1 N 0.07486(11) 0.23330(14) 0.20292(9)
loop_
_geom_bond_atom_site_label_1
_geom_bond_atom_site_label_2
_geom_bond_site_symmetry_1
_geom_bond_site_symmetry_2
C1 C3 1_555 1_555
C2 C3 1_555 1_555
C3 H1 1_555 1_555
C4 C2 1_555 1_555
C5 C4 1_555 1_555
C6 C4 1_555 1_555
C7 H2 1_555 1_555
C8 C2 1_555 1_555
H3 C8 1_555 1_555
C9 C1 1_555 1_555
C10 C5 1_555 1_555
C11 C5 1_555 1_555
C12 C6 1_555 1_555
H4 C12 1_555 1_555
C13 C10 1_555 1_555
H5 C13 1_555 1_555
C14 C10 1_555 1_555
H6 C14 1_555 1_555
C15 H7 1_555 1_555
C16 C11 1_555 1_555
H8 C16 1_555 1_555
C17 C14 1_555 1_555
H9 C17 1_555 1_555
C18 C12 1_555 1_555
H10 C18 1_555 1_555
C19 C18 1_555 1_555
H11 C19 1_555 1_555
C20 C13 1_555 1_555
H12 C20 1_555 1_555
C21 C16 1_555 1_555
H13 C21 1_555 1_555
C22 C6 1_555 1_555
H14 C22 1_555 1_555
C23 C11 1_555 1_555
H15 C23 1_555 1_555
C24 C19 1_555 1_555
H16 C24 1_555 1_555
C25 C21 1_555 1_555
H17 C25 1_555 1_555
C26 C23 1_555 1_555
H18 C26 1_555 1_555
C27 H19 1_555 1_555
H20 C27 1_555 1_555
H21 C27 1_555 1_555
C28 H22 1_555 1_555
H23 C28 1_555 1_555
H24 C28 1_555 1_555
B1 C1 1_555 1_555
C29 C9 1_555 1_555
C30 H25 1_555 1_555
C31 C29 1_555 1_555
H26 C31 1_555 1_555
C32 C30 1_555 1_555
H27 C32 1_555 1_555
C33 C31 1_555 1_555
H28 C33 1_555 1_555
N1 B1 1_555 1_555
C7 C8 1_555 1_555
C7 C9 1_555 1_555
C15 C17 1_555 1_555
C15 C20 1_555 1_555
C22 C24 1_555 1_555
C25 C26 1_555 1_555
C27 B1 1_555 1_555
C28 B1 1_555 1_555
C29 N1 1_555 1_555
C30 N1 1_555 1_555
C32 C33 1_555 1_555

#END
