
#######################################################################
#
#                 Cambridge Crystallographic Data Centre
#                                CCDC 
#
#######################################################################
#
# If this CIF has been generated from an entry in the Cambridge 
# Structural Database, then it will include bibliographic, chemical, 
# crystal, experimental, refinement or atomic coordinate data resulting 
# from the CCDC's data processing and validation procedures.
#
#######################################################################

data_PIHHEV
_chemical_formula_moiety         'C39 H36 B1 N3'
_chemical_name_systematic        
4,4',4''-(Boranetriyltris(3,5-dimethyl-4,1-phenylene))tripyridine
_symmetry_cell_setting           monoclinic
_symmetry_space_group_name_H-M   'P 21/n'
_symmetry_Int_Tables_number      14
_space_group_name_Hall           '-P 2yn'
loop_
_symmetry_equiv_pos_site_id
_symmetry_equiv_pos_as_xyz
1 x,y,z
2 1/2-x,1/2+y,1/2-z
3 -x,-y,-z
4 1/2+x,1/2-y,1/2+z
_cell_length_a                   12.3378(11)
_cell_length_b                   15.0201(13)
_cell_length_c                   18.1761(16)
_cell_angle_alpha                90
_cell_angle_beta                 109.641(4)
_cell_angle_gamma                90
_cell_volume                     3172.33
_exptl_crystal_colour            colorless
_exptl_crystal_description       cubic
_cell_formula_units_Z            4
loop_
_atom_site_label
_atom_site_type_symbol
_atom_site_fract_x
_atom_site_fract_y
_atom_site_fract_z
B1 B 0.5946(3) 0.6640(2) 0.20589(18)
N1 N 0.9045(2) 0.4934(2) -0.13615(16)
C1 C 0.6646(2) 0.62366(16) 0.15498(15)
C2 C 0.7506(2) 0.67528(17) 0.13783(17)
C3 C 0.7970(2) 0.64544(17) 0.08238(17)
H1 H 0.8520 0.6803 0.0714
C4 C 0.7641(2) 0.56526(17) 0.04275(16)
C5 C 0.6863(2) 0.51285(18) 0.06282(16)
H2 H 0.6662 0.4578 0.0386
C6 C 0.6367(2) 0.53927(16) 0.11807(16)
C7 C 0.8611(3) 0.5742(2) -0.1326(2)
H3 H 0.8620 0.6159 -0.1702
C8 C 0.8151(3) 0.5992(2) -0.07653(19)
H4 H 0.7870 0.6567 -0.0765
C9 C 0.8107(2) 0.53894(18) -0.02016(17)
C10 C 0.8536(3) 0.45471(18) -0.02402(18)
H5 H 0.8518 0.4111 0.0119
C11 C 0.8992(3) 0.4364(2) -0.08234(19)
H6 H 0.9284 0.3795 -0.0836
C12 C 0.5492(3) 0.47670(19) 0.13251(19)
H7 H 0.5295 0.4309 0.0934
H8 H 0.4813 0.5095 0.1300
H9 H 0.5815 0.4501 0.1833
C13 C 0.7989(3) 0.76057(19) 0.1813(2)
H10 H 0.8646 0.7792 0.1682
H11 H 0.8215 0.7502 0.2365
H12 H 0.7411 0.8062 0.1667
N2 N 0.4235(4) 0.27704(18) 0.5080(2)
C14 C 0.5671(2) 0.60614(16) 0.27022(16)
C15 C 0.6538(2) 0.55580(17) 0.32543(16)
C16 C 0.6250(2) 0.49543(18) 0.37368(16)
H13 H 0.6836 0.4641 0.4104
C17 C 0.5116(3) 0.48014(17) 0.36896(17)
C18 C 0.4274(3) 0.53222(18) 0.31693(17)
H14 H 0.3511 0.5243 0.3136
C19 C 0.4527(2) 0.59564(17) 0.26964(16)
C20 C 0.5238(4) 0.3186(2) 0.5319(2)
H15 H 0.5762 0.3027 0.5802
C21 C 0.5567(3) 0.3847(2) 0.4896(2)
H16 H 0.6288 0.4112 0.5099
C22 C 0.4818(3) 0.41060(17) 0.41735(19)
C23 C 0.3751(3) 0.3672(2) 0.3910(2)
H17 H 0.3212 0.3813 0.3427
C24 C 0.3511(4) 0.3026(2) 0.4381(3)
H18 H 0.2794 0.2751 0.4197
C25 C 0.7801(3) 0.5665(2) 0.3352(2)
H19 H 0.8258 0.5328 0.3797
H20 H 0.8009 0.6282 0.3430
H21 H 0.7934 0.5453 0.2892
C26 C 0.3537(3) 0.6501(2) 0.2172(2)
H22 H 0.2841 0.6342 0.2267
H23 H 0.3448 0.6385 0.1636
H24 H 0.3691 0.7123 0.2281
N3 N 0.3579(3) 1.21353(18) 0.0992(2)
C27 C 0.5454(2) 0.76183(16) 0.18595(16)
C28 C 0.4783(2) 0.78696(17) 0.10918(16)
C29 C 0.4389(3) 0.87410(18) 0.09373(17)
H25 H 0.3939 0.8893 0.0430
C30 C 0.4645(2) 0.93970(17) 0.15171(17)
C31 C 0.5302(2) 0.91422(17) 0.22705(17)
H26 H 0.5478 0.9565 0.2667
C32 C 0.5704(2) 0.82788(17) 0.24509(16)
C33 C 0.3712(3) 1.1583(2) 0.0456(2)
H27 H 0.3573 1.1804 -0.0045
C34 C 0.4044(3) 1.0702(2) 0.0593(2)
H28 H 0.4124 1.0354 0.0192
C35 C 0.4257(2) 1.03369(18) 0.13316(18)
C36 C 0.4119(3) 1.09115(19) 0.1897(2)
H29 H 0.4248 1.0711 0.2404
C37 C 0.3787(4) 1.1778(2) 0.1696(3)
H30 H 0.3702 1.2145 0.2085
C38 C 0.4401(3) 0.72033(18) 0.04227(17)
H31 H 0.3869 0.7485 -0.0029
H32 H 0.4032 0.6706 0.0573
H33 H 0.5059 0.6999 0.0303
C39 C 0.6445(3) 0.80815(19) 0.32869(17)
H34 H 0.6691 0.8631 0.3562
H35 H 0.7106 0.7743 0.3290
H36 H 0.6006 0.7746 0.3538
loop_
_geom_bond_atom_site_label_1
_geom_bond_atom_site_label_2
_geom_bond_site_symmetry_1
_geom_bond_site_symmetry_2
B1 C1 1_555 1_555
N1 C7 1_555 1_555
C1 C2 1_555 1_555
C2 C3 1_555 1_555
C3 H1 1_555 1_555
C4 C3 1_555 1_555
C5 C4 1_555 1_555
H2 C5 1_555 1_555
C6 C1 1_555 1_555
C7 H3 1_555 1_555
C8 C7 1_555 1_555
H4 C8 1_555 1_555
C9 C4 1_555 1_555
C10 C9 1_555 1_555
H5 C10 1_555 1_555
C11 N1 1_555 1_555
H6 C11 1_555 1_555
C12 C6 1_555 1_555
H7 C12 1_555 1_555
H8 C12 1_555 1_555
H9 C12 1_555 1_555
C13 C2 1_555 1_555
H10 C13 1_555 1_555
H11 C13 1_555 1_555
H12 C13 1_555 1_555
N2 C20 1_555 1_555
C14 B1 1_555 1_555
C15 C14 1_555 1_555
C16 C15 1_555 1_555
H13 C16 1_555 1_555
C17 C16 1_555 1_555
C18 C17 1_555 1_555
H14 C18 1_555 1_555
C19 C14 1_555 1_555
C20 H15 1_555 1_555
C21 C20 1_555 1_555
H16 C21 1_555 1_555
C22 C17 1_555 1_555
C23 C22 1_555 1_555
H17 C23 1_555 1_555
C24 N2 1_555 1_555
H18 C24 1_555 1_555
C25 C15 1_555 1_555
H19 C25 1_555 1_555
H20 C25 1_555 1_555
H21 C25 1_555 1_555
C26 C19 1_555 1_555
H22 C26 1_555 1_555
H23 C26 1_555 1_555
H24 C26 1_555 1_555
N3 C33 1_555 1_555
C27 B1 1_555 1_555
C28 C27 1_555 1_555
C29 C28 1_555 1_555
H25 C29 1_555 1_555
C30 C29 1_555 1_555
C31 C30 1_555 1_555
H26 C31 1_555 1_555
C32 C27 1_555 1_555
C33 H27 1_555 1_555
C34 C33 1_555 1_555
H28 C34 1_555 1_555
C35 C30 1_555 1_555
C36 C35 1_555 1_555
H29 C36 1_555 1_555
C37 N3 1_555 1_555
H30 C37 1_555 1_555
C38 C28 1_555 1_555
H31 C38 1_555 1_555
H32 C38 1_555 1_555
H33 C38 1_555 1_555
C39 C32 1_555 1_555
H34 C39 1_555 1_555
H35 C39 1_555 1_555
H36 C39 1_555 1_555
C5 C6 1_555 1_555
C8 C9 1_555 1_555
C10 C11 1_555 1_555
C18 C19 1_555 1_555
C21 C22 1_555 1_555
C23 C24 1_555 1_555
C31 C32 1_555 1_555
C34 C35 1_555 1_555
C36 C37 1_555 1_555

#END
