
#######################################################################
#
#                 Cambridge Crystallographic Data Centre
#                                CCDC 
#
#######################################################################
#
# If this CIF has been generated from an entry in the Cambridge 
# Structural Database, then it will include bibliographic, chemical, 
# crystal, experimental, refinement or atomic coordinate data resulting 
# from the CCDC's data processing and validation procedures.
#
#######################################################################

data_PIHHEW
_chemical_formula_moiety         'C27 H24 N2 O3 S1'
_chemical_name_systematic        
N-(6-ethoxy-1,3-benzothiazol-2-yl)-1-methyl-2-phenyl-1,7b-dihydrocyclobuta[b][1]benzofuran-2a(2H)-carboxamide
_symmetry_cell_setting           orthorhombic
_symmetry_space_group_name_H-M   'P 21 21 21'
_symmetry_Int_Tables_number      19
_space_group_name_Hall           'P 2ac 2ab'
loop_
_symmetry_equiv_pos_site_id
_symmetry_equiv_pos_as_xyz
1 x,y,z
2 1/2-x,-y,1/2+z
3 -x,1/2+y,1/2-z
4 1/2+x,1/2-y,-z
_cell_length_a                   7.50870(10)
_cell_length_b                   17.1244(2)
_cell_length_c                   18.0501(3)
_cell_angle_alpha                90
_cell_angle_beta                 90
_cell_angle_gamma                90
_cell_volume                     2320.92
_exptl_crystal_colour            colorless
_exptl_crystal_description       needle
_cell_formula_units_Z            4
loop_
_atom_site_label
_atom_site_type_symbol
_atom_site_fract_x
_atom_site_fract_y
_atom_site_fract_z
C1 C -0.1282(3) 0.71696(11) 0.28588(11)
H1 H 0.101(4) 0.6645(15) 0.3015(14)
N1 N 0.0382(2) 0.70765(9) 0.31391(9)
O1 O -0.2236(2) 0.77256(8) 0.30024(10)
C2 C -0.1847(3) 0.65589(11) 0.22974(11)
O2 O -0.06693(18) 0.58967(8) 0.23252(7)
C3 C -0.3873(3) 0.63685(11) 0.22683(14)
H2 H -0.454116 0.679725 0.252178
C4 C -0.3875(3) 0.65276(14) 0.14214(15)
H3 H -0.391791 0.602529 0.113945
C5 C -0.1917(3) 0.68352(13) 0.14728(13)
H4 H -0.178560 0.741151 0.140200
C6 C -0.0501(3) 0.63599(13) 0.11226(12)
C7 C 0.0136(3) 0.58272(11) 0.16372(10)
C8 C 0.1456(3) 0.52925(14) 0.14903(14)
H5 H 0.186121 0.493263 0.185353
C9 C 0.2164(4) 0.53103(18) 0.07754(17)
H6 H 0.308018 0.495254 0.064684
C10 C 0.1569(6) 0.5833(2) 0.02530(16)
H7 H 0.208140 0.583084 -0.022821
C11 C 0.0232(5) 0.63611(17) 0.04189(13)
H8 H -0.017640 0.671963 0.005498
C12 C -0.4563(3) 0.55993(11) 0.25419(12)
C13 C -0.5775(3) 0.55876(12) 0.31260(12)
H9 H -0.605316 0.605919 0.337800
C14 C -0.6580(3) 0.48978(14) 0.33440(12)
H10 H -0.741764 0.489841 0.373833
C15 C -0.6160(3) 0.42053(13) 0.29854(12)
H11 H -0.672615 0.373263 0.312851
C16 C -0.4911(4) 0.42026(11) 0.24166(11)
H12 H -0.459767 0.372641 0.218009
C17 C -0.4125(3) 0.48956(11) 0.21960(11)
H13 H -0.327755 0.489264 0.180505
C18 C -0.5284(4) 0.70856(16) 0.1140(2)
H14 H -0.510581 0.717678 0.060923
H15 H -0.519134 0.758219 0.140728
H16 H -0.646639 0.685935 0.122163
C19 C 0.1226(3) 0.76007(11) 0.36110(11)
S1 S 0.01247(6) 0.84338(3) 0.39390(3)
C20 C 0.2054(3) 0.86544(11) 0.44341(10)
C21 C 0.2344(3) 0.92945(12) 0.49030(11)
H17 H 0.144554 0.967478 0.498775
C22 C 0.4002(3) 0.93473(11) 0.52372(11)
C23 C 0.5329(3) 0.87815(11) 0.51065(10)
H18 H 0.645570 0.883315 0.534096
C24 C 0.5022(3) 0.81547(11) 0.46447(10)
H19 H 0.592398 0.777602 0.456006
C25 C 0.3356(3) 0.80867(11) 0.43027(11)
N2 N 0.2839(2) 0.74846(9) 0.38261(9)
O3 O 0.45109(19) 0.99387(8) 0.57021(8)
C26 C 0.3199(3) 1.05142(13) 0.58870(14)
H20 H 0.216967 1.026587 0.613575
H21 H 0.277019 1.077961 0.543354
C27 C 0.4083(3) 1.10960(15) 0.64008(17)
H22 H 0.321874 1.149731 0.654449
H23 H 0.508946 1.134206 0.614603
H24 H 0.451205 1.082520 0.684454
loop_
_geom_bond_atom_site_label_1
_geom_bond_atom_site_label_2
_geom_bond_site_symmetry_1
_geom_bond_site_symmetry_2
C1 N1 1_555 1_555
H1 N1 1_555 1_555
N1 C19 1_555 1_555
O1 C1 1_555 1_555
C2 C1 1_555 1_555
O2 C2 1_555 1_555
C3 C2 1_555 1_555
H2 C3 1_555 1_555
C4 C3 1_555 1_555
H3 C4 1_555 1_555
C5 C2 1_555 1_555
H4 C5 1_555 1_555
C6 C5 1_555 1_555
C7 O2 1_555 1_555
C8 C7 1_555 1_555
H5 C8 1_555 1_555
C9 C8 1_555 1_555
H6 C9 1_555 1_555
C10 C9 1_555 1_555
H7 C10 1_555 1_555
C11 C6 1_555 1_555
H8 C11 1_555 1_555
C12 C3 1_555 1_555
C13 C12 1_555 1_555
H9 C13 1_555 1_555
C14 C13 1_555 1_555
H10 C14 1_555 1_555
C15 C14 1_555 1_555
H11 C15 1_555 1_555
C16 C15 1_555 1_555
H12 C16 1_555 1_555
C17 C12 1_555 1_555
H13 C17 1_555 1_555
C18 C4 1_555 1_555
H14 C18 1_555 1_555
H15 C18 1_555 1_555
H16 C18 1_555 1_555
C19 S1 1_555 1_555
S1 C20 1_555 1_555
C20 C21 1_555 1_555
C21 H17 1_555 1_555
C22 C21 1_555 1_555
C23 C22 1_555 1_555
H18 C23 1_555 1_555
C24 C23 1_555 1_555
H19 C24 1_555 1_555
C25 C20 1_555 1_555
N2 C19 1_555 1_555
O3 C22 1_555 1_555
C26 O3 1_555 1_555
H20 C26 1_555 1_555
H21 C26 1_555 1_555
C27 C26 1_555 1_555
H22 C27 1_555 1_555
H23 C27 1_555 1_555
H24 C27 1_555 1_555
C4 C5 1_555 1_555
C6 C7 1_555 1_555
C10 C11 1_555 1_555
C16 C17 1_555 1_555
C24 C25 1_555 1_555
C25 N2 1_555 1_555

#END
