
#######################################################################
#
#                 Cambridge Crystallographic Data Centre
#                                CCDC 
#
#######################################################################
#
# If this CIF has been generated from an entry in the Cambridge 
# Structural Database, then it will include bibliographic, chemical, 
# crystal, experimental, refinement or atomic coordinate data resulting 
# from the CCDC's data processing and validation procedures.
#
#######################################################################

data_PIHHIA
_chemical_formula_moiety         'C27 H24 N2 O2 S2'
_chemical_name_systematic        
N-(6-ethoxy-1,3-benzothiazol-2-yl)-1-methyl-2-phenyl-1,7b-dihydrocyclobuta[b][1]benzothiophene-2a(2H)-carboxamide
_symmetry_cell_setting           orthorhombic
_symmetry_space_group_name_H-M   'P 21 21 21'
_symmetry_Int_Tables_number      19
_space_group_name_Hall           'P 2ac 2ab'
loop_
_symmetry_equiv_pos_site_id
_symmetry_equiv_pos_as_xyz
1 x,y,z
2 1/2-x,-y,1/2+z
3 -x,1/2+y,1/2-z
4 1/2+x,1/2-y,-z
_cell_length_a                   7.7046(3)
_cell_length_b                   16.6836(8)
_cell_length_c                   18.0948(7)
_cell_angle_alpha                90
_cell_angle_beta                 90
_cell_angle_gamma                90
_cell_volume                     2325.91
_exptl_crystal_colour            colorless
_exptl_crystal_description       needle
_cell_formula_units_Z            4
loop_
_atom_site_label
_atom_site_type_symbol
_atom_site_fract_x
_atom_site_fract_y
_atom_site_fract_z
C1 C 0.3741(6) 0.8018(2) 0.6995(2)
S1 S 0.46179(13) 0.95063(6) 0.76404(5)
O1 O 0.2724(4) 0.75186(18) 0.67688(17)
C2 C 0.3207(5) 0.8628(2) 0.7582(2)
C3 C 0.1200(5) 0.8768(2) 0.7642(2)
H1 H 0.060038 0.831805 0.738099
C4 C 0.1268(5) 0.8564(2) 0.8475(2)
H2 H 0.126141 0.906501 0.877866
C5 C 0.3151(5) 0.8243(2) 0.8380(2)
H3 H 0.319971 0.764459 0.836557
C6 C 0.4551(6) 0.8596(2) 0.8848(2)
C7 C 0.5381(5) 0.9260(2) 0.8534(2)
C8 C 0.6703(5) 0.9666(3) 0.8909(2)
H4 H 0.727630 1.011055 0.868955
C9 C 0.7154(6) 0.9401(3) 0.9610(3)
H5 H 0.803845 0.967190 0.987686
C10 C 0.6330(7) 0.8745(3) 0.9928(2)
H6 H 0.666007 0.857164 1.040853
C11 C 0.5031(6) 0.8341(2) 0.9550(2)
H7 H 0.447257 0.789302 0.977008
C12 C 0.0342(5) 0.9542(2) 0.7414(2)
C13 C 0.0588(5) 1.0253(2) 0.7812(2)
H8 H 0.139509 1.026855 0.820827
C14 C -0.0351(6) 1.0938(2) 0.7626(2)
H9 H -0.016874 1.142217 0.789162
C15 C -0.1541(6) 1.0915(3) 0.7059(2)
H10 H -0.220690 1.137880 0.694823
C16 C -0.1779(6) 1.0219(3) 0.6647(2)
H11 H -0.258388 1.020886 0.624910
C17 C -0.0822(5) 0.9538(3) 0.6825(2)
H12 H -0.096510 0.906422 0.654123
C18 C -0.0095(6) 0.7978(3) 0.8752(3)
H13 H 0.008440 0.787889 0.928021
H14 H 0.000592 0.747251 0.847978
H15 H -0.125392 0.820533 0.867451
N1 N 0.5444(5) 0.8024(2) 0.68050(19)
H16 H 0.610(7) 0.834(3) 0.697(2)
C19 C 0.6226(5) 0.7457(2) 0.6343(2)
S2 S 0.50661(13) 0.66409(6) 0.59899(5)
C20 C 0.6969(5) 0.6354(3) 0.5540(2)
C21 C 0.7204(6) 0.5694(2) 0.5069(2)
H17 H 0.628754 0.532935 0.496605
C22 C 0.8841(5) 0.5600(2) 0.4762(2)
C23 C 1.0195(6) 0.6137(2) 0.4924(2)
H18 H 1.130525 0.605239 0.470870
C24 C 0.9951(5) 0.6781(2) 0.5385(2)
H19 H 1.087617 0.713979 0.549065
C25 C 0.8304(5) 0.6897(2) 0.5695(2)
N2 N 0.7848(5) 0.7529(2) 0.61642(19)
O2 O 0.9287(4) 0.49852(17) 0.42910(15)
C26 C 0.8017(6) 0.4366(3) 0.4166(2)
H20 H 0.700570 0.458702 0.389631
H21 H 0.760788 0.414557 0.464275
C27 C 0.8878(6) 0.3716(3) 0.3713(3)
H22 H 0.803836 0.328902 0.361185
H23 H 0.986329 0.349602 0.398865
H24 H 0.929003 0.394316 0.324524
loop_
_geom_bond_atom_site_label_1
_geom_bond_atom_site_label_2
_geom_bond_site_symmetry_1
_geom_bond_site_symmetry_2
C1 O1 1_555 1_555
S1 C2 1_555 1_555
C2 C1 1_555 1_555
C3 C2 1_555 1_555
H1 C3 1_555 1_555
C4 C3 1_555 1_555
H2 C4 1_555 1_555
C5 C2 1_555 1_555
H3 C5 1_555 1_555
C6 C5 1_555 1_555
C7 S1 1_555 1_555
C8 C7 1_555 1_555
H4 C8 1_555 1_555
C9 C8 1_555 1_555
H5 C9 1_555 1_555
C10 C9 1_555 1_555
H6 C10 1_555 1_555
C11 C6 1_555 1_555
H7 C11 1_555 1_555
C12 C3 1_555 1_555
C13 C12 1_555 1_555
H8 C13 1_555 1_555
C14 C13 1_555 1_555
H9 C14 1_555 1_555
C15 C14 1_555 1_555
H10 C15 1_555 1_555
C16 C15 1_555 1_555
H11 C16 1_555 1_555
C17 C12 1_555 1_555
H12 C17 1_555 1_555
C18 C4 1_555 1_555
H13 C18 1_555 1_555
H14 C18 1_555 1_555
H15 C18 1_555 1_555
N1 C1 1_555 1_555
H16 N1 1_555 1_555
C19 N1 1_555 1_555
S2 C19 1_555 1_555
C20 S2 1_555 1_555
C21 C20 1_555 1_555
H17 C21 1_555 1_555
C22 C21 1_555 1_555
C23 C22 1_555 1_555
H18 C23 1_555 1_555
C24 C23 1_555 1_555
H19 C24 1_555 1_555
C25 C20 1_555 1_555
N2 C19 1_555 1_555
O2 C22 1_555 1_555
C26 O2 1_555 1_555
H20 C26 1_555 1_555
H21 C26 1_555 1_555
C27 C26 1_555 1_555
H22 C27 1_555 1_555
H23 C27 1_555 1_555
H24 C27 1_555 1_555
C4 C5 1_555 1_555
C6 C7 1_555 1_555
C10 C11 1_555 1_555
C16 C17 1_555 1_555
C24 C25 1_555 1_555
C25 N2 1_555 1_555

#END
