
#######################################################################
#
#                 Cambridge Crystallographic Data Centre
#                                CCDC 
#
#######################################################################
#
# If this CIF has been generated from an entry in the Cambridge 
# Structural Database, then it will include bibliographic, chemical, 
# crystal, experimental, refinement or atomic coordinate data resulting 
# from the CCDC's data processing and validation procedures.
#
#######################################################################

data_PIHHAS
_chemical_formula_moiety         'C30 H24 N2 O3 S1,C1 H4 O1'
_chemical_name_systematic        
'N-(6-ethoxy-1,3-benzothiazol-2-yl)-1-(naphthalen-2-yl)-1,7b-dihydrocyclobuta[b][1]benzofuran-2a(2H)-carboxamide methanol solvate'
_symmetry_cell_setting           monoclinic
_symmetry_space_group_name_H-M   'P 21'
_symmetry_Int_Tables_number      4
_space_group_name_Hall           'P 2yb'
loop_
_symmetry_equiv_pos_site_id
_symmetry_equiv_pos_as_xyz
1 x,y,z
2 -x,1/2+y,-z
_cell_length_a                   13.8211(15)
_cell_length_b                   5.2878(4)
_cell_length_c                   17.6973(18)
_cell_angle_alpha                90
_cell_angle_beta                 94.084(9)
_cell_angle_gamma                90
_cell_volume                     1290.09
_exptl_crystal_colour            colorless
_exptl_crystal_description       needle
_cell_formula_units_Z            2
loop_
_atom_site_label
_atom_site_type_symbol
_atom_site_fract_x
_atom_site_fract_y
_atom_site_fract_z
O1 O 0.3830(3) 1.2230(9) 0.2001(2)
S1 S 0.17162(12) 0.4388(4) 0.27075(9)
O2 O 0.3301(3) 0.7028(10) 0.3188(2)
O3 O -0.1347(3) -0.1138(9) 0.1887(2)
N1 N 0.2661(4) 0.8219(11) 0.2026(3)
H1 H 0.282(5) 0.929(15) 0.163(4)
N2 N 0.1334(4) 0.6383(11) 0.1366(3)
C1 C 0.3334(5) 0.8425(13) 0.2636(4)
C2 C 0.4088(5) 1.0390(12) 0.2592(3)
C3 C 0.4456(5) 1.1592(14) 0.3349(3)
H2 H 0.420356 1.075060 0.379482
H3 H 0.434447 1.343970 0.336837
C4 C 0.5535(5) 1.0873(14) 0.3225(3)
H4 H 0.592205 1.240788 0.311160
C5 C 0.5151(4) 0.9479(15) 0.2467(3)
H5 H 0.525292 0.760704 0.245468
C6 C 0.5372(5) 1.0893(13) 0.1765(3)
C7 C 0.4622(5) 1.2486(13) 0.1563(3)
C8 C 0.4637(5) 1.4230(15) 0.0994(3)
H6 H 0.411032 1.535090 0.087673
C9 C 0.5470(5) 1.4262(15) 0.0597(3)
H7 H 0.550937 1.543592 0.019410
C10 C 0.6249(5) 1.2643(15) 0.0768(4)
H8 H 0.680788 1.270663 0.048579
C11 C 0.6193(5) 1.0920(14) 0.1363(4)
H9 H 0.671168 0.978329 0.148822
C12 C 0.6078(5) 0.9220(15) 0.3820(3)
C13 C 0.5644(5) 0.7138(14) 0.4134(3)
H10 H 0.498166 0.678104 0.399518
C14 C 0.6154(5) 0.5585(14) 0.4641(3)
H11 H 0.585250 0.414204 0.484081
C15 C 0.7157(5) 0.6172(14) 0.4867(3)
C16 C 0.7693(5) 0.4597(16) 0.5392(3)
H12 H 0.740035 0.314317 0.559365
C17 C 0.8640(6) 0.5191(15) 0.5606(4)
H13 H 0.900721 0.412776 0.595180
C18 C 0.9068(5) 0.7358(16) 0.5319(4)
H14 H 0.971681 0.778798 0.548290
C19 C 0.8557(5) 0.8853(14) 0.4802(4)
H15 H 0.885691 1.029201 0.459852
C20 C 0.7572(5) 0.8259(14) 0.4569(4)
C21 C 0.7029(5) 0.9825(13) 0.4033(3)
H16 H 0.732178 1.126944 0.382552
C22 C 0.1928(5) 0.6463(13) 0.1962(3)
C23 C 0.0656(5) 0.4487(15) 0.1455(3)
C24 C -0.0113(5) 0.3813(14) 0.0922(3)
H17 H -0.019701 0.466564 0.044981
C25 C -0.0731(5) 0.1930(14) 0.1094(4)
H18 H -0.123736 0.146749 0.072892
C26 C -0.0652(5) 0.0647(14) 0.1787(4)
C27 C 0.0098(5) 0.1282(13) 0.2319(4)
H19 H 0.017685 0.042152 0.279024
C28 C 0.0721(5) 0.3184(13) 0.2146(3)
C29 C -0.1287(5) -0.2463(14) 0.2592(4)
H20 H -0.132849 -0.126114 0.301702
H21 H -0.066311 -0.338317 0.266147
C30 C -0.2127(5) -0.4304(15) 0.2570(4)
H22 H -0.211524 -0.522690 0.305033
H23 H -0.206967 -0.550362 0.215307
H24 H -0.273865 -0.337301 0.249120
O4 O 0.2355(3) 0.9937(10) 0.0534(3)
H25 H 0.187(5) 0.910(17) 0.062(4)
C31 C 0.2219(5) 1.2086(15) 0.0046(4)
H26 H 0.285050 1.285089 -0.003243
H27 H 0.180650 1.332923 0.027816
H28 H 0.190884 1.154958 -0.044321
loop_
_geom_bond_atom_site_label_1
_geom_bond_atom_site_label_2
_geom_bond_site_symmetry_1
_geom_bond_site_symmetry_2
O1 C2 1_555 1_555
S1 C22 1_555 1_555
O2 C1 1_555 1_555
O3 C26 1_555 1_555
N1 H1 1_555 1_555
N2 C22 1_555 1_555
C1 N1 1_555 1_555
C2 C1 1_555 1_555
C3 C2 1_555 1_555
H2 C3 1_555 1_555
H3 C3 1_555 1_555
C4 C3 1_555 1_555
H4 C4 1_555 1_555
C5 C2 1_555 1_555
H5 C5 1_555 1_555
C6 C5 1_555 1_555
C7 O1 1_555 1_555
C8 C7 1_555 1_555
H6 C8 1_555 1_555
C9 C8 1_555 1_555
H7 C9 1_555 1_555
C10 C9 1_555 1_555
H8 C10 1_555 1_555
C11 C6 1_555 1_555
H9 C11 1_555 1_555
C12 C4 1_555 1_555
C13 C12 1_555 1_555
H10 C13 1_555 1_555
C14 C13 1_555 1_555
H11 C14 1_555 1_555
C15 C14 1_555 1_555
C16 C15 1_555 1_555
H12 C16 1_555 1_555
C17 C16 1_555 1_555
H13 C17 1_555 1_555
C18 C17 1_555 1_555
H14 C18 1_555 1_555
C19 C18 1_555 1_555
H15 C19 1_555 1_555
C20 C15 1_555 1_555
C21 C12 1_555 1_555
H16 C21 1_555 1_555
C22 N1 1_555 1_555
C23 N2 1_555 1_555
C24 C23 1_555 1_555
H17 C24 1_555 1_555
C25 C24 1_555 1_555
H18 C25 1_555 1_555
C26 C25 1_555 1_555
C27 C26 1_555 1_555
H19 C27 1_555 1_555
C28 S1 1_555 1_555
C29 O3 1_555 1_555
H20 C29 1_555 1_555
H21 C29 1_555 1_555
C30 C29 1_555 1_555
H22 C30 1_555 1_555
H23 C30 1_555 1_555
H24 C30 1_555 1_555
O4 H25 1_555 1_555
C31 O4 1_555 1_555
H26 C31 1_555 1_555
H27 C31 1_555 1_555
H28 C31 1_555 1_555
C4 C5 1_555 1_555
C6 C7 1_555 1_555
C10 C11 1_555 1_555
C19 C20 1_555 1_555
C20 C21 1_555 1_555
C23 C28 1_555 1_555
C27 C28 1_555 1_555

#END
