
#######################################################################
#
#                 Cambridge Crystallographic Data Centre
#                                CCDC 
#
#######################################################################
#
# If this CIF has been generated from an entry in the Cambridge 
# Structural Database, then it will include bibliographic, chemical, 
# crystal, experimental, refinement or atomic coordinate data resulting 
# from the CCDC's data processing and validation procedures.
#
#######################################################################

data_PIHJOI01
_chemical_formula_moiety         'C26 H15 N1 O2 S1'
_chemical_name_systematic        
2-(10H-phenothiazin-10-yl)anthracene-9,10-dione
_symmetry_cell_setting           monoclinic
_symmetry_space_group_name_H-M   'P 21/c'
_symmetry_Int_Tables_number      14
_space_group_name_Hall           '-P 2ybc'
loop_
_symmetry_equiv_pos_site_id
_symmetry_equiv_pos_as_xyz
1 x,y,z
2 -x,1/2+y,1/2-z
3 -x,-y,-z
4 x,1/2-y,1/2+z
_cell_length_a                   18.570(4)
_cell_length_b                   11.940(2)
_cell_length_c                   8.7400(17)
_cell_angle_alpha                90
_cell_angle_beta                 99.35(3)
_cell_angle_gamma                90
_cell_volume                     1912.14
_exptl_crystal_colour            red
_exptl_crystal_description       plate
_cell_formula_units_Z            4
loop_
_atom_site_label
_atom_site_type_symbol
_atom_site_fract_x
_atom_site_fract_y
_atom_site_fract_z
S1 S 0.09113(8) 0.78511(11) -0.00079(15)
N1 N 0.1724(2) 0.9558(3) 0.2053(5)
C1 C 0.2069(2) 0.8470(4) 0.2183(5)
O1 O 0.3030(2) 1.4262(3) 0.0210(5)
O2 O 0.40031(19) 1.0065(3) -0.0347(5)
C2 C 0.2708(3) 0.8278(4) 0.3220(6)
H1 H 0.2928 0.8858 0.3834
C3 C 0.3011(3) 0.7231(4) 0.3333(6)
H2 H 0.3442 0.7108 0.4020
C4 C 0.2689(3) 0.6352(4) 0.2443(6)
H3 H 0.2905 0.5647 0.2521
C5 C 0.2042(3) 0.6532(4) 0.1433(6)
H4 H 0.1816 0.5939 0.0853
C6 C 0.1729(3) 0.7584(4) 0.1283(5)
C7 C 0.0518(3) 0.8778(4) 0.1197(5)
C8 C -0.0226(3) 0.8745(5) 0.1236(7)
H5 H -0.0519 0.8215 0.0654
C9 C -0.0524(3) 0.9487(6) 0.2125(8)
H6 H -0.1026 0.9486 0.2099
C10 C -0.0105(3) 1.0235(5) 0.3061(7)
H7 H -0.0322 1.0733 0.3667
C11 C 0.0645(3) 1.0249(4) 0.3102(6)
H8 H 0.0938 1.0718 0.3790
C12 C 0.0956(3) 0.9554(4) 0.2105(5)
C13 C 0.2088(3) 1.0485(4) 0.1543(5)
C14 C 0.1826(3) 1.1582(4) 0.1635(6)
H9 H 0.1395 1.1706 0.2023
C15 C 0.2203(3) 1.2480(4) 0.1153(6)
H10 H 0.2020 1.3200 0.1226
C16 C 0.2852(3) 1.2330(4) 0.0559(5)
C17 C 0.3249(3) 1.3306(4) 0.0079(6)
C18 C 0.3927(3) 1.3092(4) -0.0557(5)
C19 C 0.4331(3) 1.3985(5) -0.1034(7)
H11 H 0.4167 1.4716 -0.0963
C20 C 0.4967(3) 1.3791(5) -0.1604(8)
H12 H 0.5227 1.4389 -0.1921
C21 C 0.5219(4) 1.2718(5) -0.1707(7)
H13 H 0.5652 1.2593 -0.2085
C22 C 0.4834(3) 1.1824(5) -0.1254(7)
H14 H 0.5007 1.1100 -0.1336
C23 C 0.4193(3) 1.1994(4) -0.0681(5)
C24 C 0.3785(3) 1.1017(4) -0.0202(5)
C25 C 0.3107(2) 1.1235(4) 0.0454(5)
C26 C 0.2732(3) 1.0335(4) 0.0949(5)
H15 H 0.2915 0.9615 0.0883
loop_
_geom_bond_atom_site_label_1
_geom_bond_atom_site_label_2
_geom_bond_site_symmetry_1
_geom_bond_site_symmetry_2
S1 C6 1_555 1_555
N1 C1 1_555 1_555
C1 C2 1_555 1_555
O1 C17 1_555 1_555
O2 C24 1_555 1_555
C2 H1 1_555 1_555
C3 C2 1_555 1_555
H2 C3 1_555 1_555
C4 C3 1_555 1_555
H3 C4 1_555 1_555
C5 C4 1_555 1_555
H4 C5 1_555 1_555
C6 C1 1_555 1_555
C7 S1 1_555 1_555
C8 C7 1_555 1_555
H5 C8 1_555 1_555
C9 C8 1_555 1_555
H6 C9 1_555 1_555
C10 C9 1_555 1_555
H7 C10 1_555 1_555
C11 C10 1_555 1_555
H8 C11 1_555 1_555
C12 N1 1_555 1_555
C13 N1 1_555 1_555
C14 C13 1_555 1_555
H9 C14 1_555 1_555
C15 C14 1_555 1_555
H10 C15 1_555 1_555
C16 C15 1_555 1_555
C17 C16 1_555 1_555
C18 C17 1_555 1_555
C19 C18 1_555 1_555
H11 C19 1_555 1_555
C20 C19 1_555 1_555
H12 C20 1_555 1_555
C21 C20 1_555 1_555
H13 C21 1_555 1_555
C22 C21 1_555 1_555
H14 C22 1_555 1_555
C23 C18 1_555 1_555
C24 C23 1_555 1_555
C25 C16 1_555 1_555
C26 C13 1_555 1_555
H15 C26 1_555 1_555
C5 C6 1_555 1_555
C7 C12 1_555 1_555
C11 C12 1_555 1_555
C22 C23 1_555 1_555
C24 C25 1_555 1_555
C25 C26 1_555 1_555

#END
