
#######################################################################
#
#                 Cambridge Crystallographic Data Centre
#                                CCDC 
#
#######################################################################
#
# If this CIF has been generated from an entry in the Cambridge 
# Structural Database, then it will include bibliographic, chemical, 
# crystal, experimental, refinement or atomic coordinate data resulting 
# from the CCDC's data processing and validation procedures.
#
#######################################################################

data_PIHNAX
_chemical_formula_moiety         'C26 H20 F1 N1 O3 S1'
_chemical_name_systematic        
1'-(4-Fluorophenyl)-2'-(2-thienylcarbonyl)-1',2',5',6',7',7a'-hexahydrospiro[indene-2,3'-pyrrolizine]-1,3-dione
_symmetry_cell_setting           monoclinic
_symmetry_space_group_name_H-M   'P 21/c'
_symmetry_Int_Tables_number      14
_space_group_name_Hall           '-P 2ybc'
loop_
_symmetry_equiv_pos_site_id
_symmetry_equiv_pos_as_xyz
1 x,y,z
2 -x,1/2+y,1/2-z
3 -x,-y,-z
4 x,1/2-y,1/2+z
_cell_length_a                   8.6028(15)
_cell_length_b                   11.431(2)
_cell_length_c                   22.242(4)
_cell_angle_alpha                90
_cell_angle_beta                 95.918(9)
_cell_angle_gamma                90
_cell_volume                     2175.59
_exptl_crystal_colour            yellow
_exptl_crystal_description       Rod
_cell_formula_units_Z            4
loop_
_atom_site_label
_atom_site_type_symbol
_atom_site_fract_x
_atom_site_fract_y
_atom_site_fract_z
S1 S -0.22832(6) -0.09283(4) 0.20234(2)
F1 F -0.36478(16) 0.57833(9) 0.06090(7)
O1 O 0.35231(16) 0.10105(11) 0.21110(5)
O2 O 0.15272(15) -0.09287(9) 0.03175(5)
O3 O -0.01463(16) 0.11103(12) 0.21266(5)
N1 N 0.29985(14) 0.13063(11) 0.07360(6)
C1 C -0.1991(2) 0.43279(16) 0.03064(9)
H1 H -0.2449 0.4404 -0.0089
C2 C -0.0833(2) 0.35054(14) 0.04524(8)
H2 H -0.0523 0.3020 0.0151
C3 C -0.01253(18) 0.33902(13) 0.10385(7)
C4 C -0.0612(2) 0.41355(14) 0.14740(9)
H3 H -0.0151 0.4081 0.1870
C5 C -0.1772(3) 0.49590(16) 0.13304(10)
H4 H -0.2085 0.5460 0.1624
C6 C -0.2443(2) 0.50189(15) 0.07510(10)
C7 C 0.2055(2) -0.27594(15) 0.13275(9)
H5 H 0.1636 -0.3142 0.0979
C8 C 0.2510(3) -0.33704(18) 0.18508(10)
H6 H 0.2397 -0.4179 0.1854
C9 C 0.3130(2) -0.28100(19) 0.23694(9)
H7 H 0.3443 -0.3249 0.2713
C10 C 0.3294(2) -0.16161(17) 0.23888(8)
H8 H 0.3697 -0.1238 0.2741
C11 C 0.28370(17) -0.09882(14) 0.18631(7)
C12 C 0.22444(18) -0.15545(14) 0.13398(7)
C13 C 0.29258(17) 0.02898(14) 0.17586(7)
C14 C 0.19141(17) -0.07011(13) 0.08430(7)
C15 C -0.3285(2) -0.18337(15) 0.15246(9)
H9 H -0.3936 -0.2428 0.1636
C16 C -0.3039(2) -0.16008(15) 0.09437(9)
H10 H -0.3508 -0.2011 0.0612
C17 C -0.19948(18) -0.06707(14) 0.09019(7)
H11 H -0.1690 -0.0399 0.0538
C18 C -0.14684(17) -0.02015(13) 0.14535(6)
C19 C 0.05886(16) 0.12057(12) 0.11194(6)
H12 H -0.0024 0.1119 0.0725
C20 C 0.11332(18) 0.24881(13) 0.11982(7)
H13 H 0.1542 0.2603 0.1622
C21 C 0.21584(16) 0.05421(12) 0.11094(6)
C22 C 0.3990(2) 0.31740(18) 0.10745(11)
H14 H 0.3982 0.3984 0.0945
H15 H 0.4107 0.3145 0.1513
C23 C 0.5261(2) 0.24978(19) 0.08169(12)
H16 H 0.6239 0.2574 0.1073
H17 H 0.5409 0.2778 0.0415
C24 C 0.4714(2) 0.12402(17) 0.07942(9)
H18 H 0.5074 0.0838 0.0450
H19 H 0.5102 0.0829 0.1161
C25 C 0.25088(18) 0.25361(13) 0.08128(8)
H20 H 0.2152 0.2868 0.0416
C26 C -0.03662(18) 0.07440(13) 0.16109(7)
loop_
_geom_bond_atom_site_label_1
_geom_bond_atom_site_label_2
_geom_bond_site_symmetry_1
_geom_bond_site_symmetry_2
S1 C15 1_555 1_555
F1 C6 1_555 1_555
O1 C13 1_555 1_555
O2 C14 1_555 1_555
O3 C26 1_555 1_555
N1 C21 1_555 1_555
C1 H1 1_555 1_555
C2 C1 1_555 1_555
H2 C2 1_555 1_555
C3 C2 1_555 1_555
C4 C3 1_555 1_555
H3 C4 1_555 1_555
C5 C4 1_555 1_555
H4 C5 1_555 1_555
C6 C1 1_555 1_555
C7 H5 1_555 1_555
C8 C7 1_555 1_555
H6 C8 1_555 1_555
C9 C8 1_555 1_555
H7 C9 1_555 1_555
C10 C9 1_555 1_555
H8 C10 1_555 1_555
C11 C10 1_555 1_555
C12 C7 1_555 1_555
C13 C11 1_555 1_555
C14 C12 1_555 1_555
C15 H9 1_555 1_555
C16 C15 1_555 1_555
H10 C16 1_555 1_555
C17 C16 1_555 1_555
H11 C17 1_555 1_555
C18 S1 1_555 1_555
C19 H12 1_555 1_555
C20 C3 1_555 1_555
H13 C20 1_555 1_555
C21 C13 1_555 1_555
C22 H14 1_555 1_555
H15 C22 1_555 1_555
C23 C22 1_555 1_555
H16 C23 1_555 1_555
H17 C23 1_555 1_555
C24 N1 1_555 1_555
H18 C24 1_555 1_555
H19 C24 1_555 1_555
C25 N1 1_555 1_555
H20 C25 1_555 1_555
C26 C18 1_555 1_555
C5 C6 1_555 1_555
C11 C12 1_555 1_555
C14 C21 1_555 1_555
C17 C18 1_555 1_555
C19 C20 1_555 1_555
C19 C21 1_555 1_555
C19 C26 1_555 1_555
C20 C25 1_555 1_555
C22 C25 1_555 1_555
C23 C24 1_555 1_555

#END
