
#######################################################################
#
#                 Cambridge Crystallographic Data Centre
#                                CCDC 
#
#######################################################################
#
# If this CIF has been generated from an entry in the Cambridge 
# Structural Database, then it will include bibliographic, chemical, 
# crystal, experimental, refinement or atomic coordinate data resulting 
# from the CCDC's data processing and validation procedures.
#
#######################################################################

data_PIHROQ
_chemical_formula_moiety         'C12 H9 F2 N1 O1'
_chemical_name_systematic        4-(difluoromethyl)-6-phenylpyridin-2(1H)-one
_symmetry_cell_setting           monoclinic
_symmetry_space_group_name_H-M   'P 21/c'
_symmetry_Int_Tables_number      14
_space_group_name_Hall           '-P 2ybc'
loop_
_symmetry_equiv_pos_site_id
_symmetry_equiv_pos_as_xyz
1 x,y,z
2 -x,1/2+y,1/2-z
3 -x,-y,-z
4 x,1/2-y,1/2+z
_cell_length_a                   11.0081(10)
_cell_length_b                   7.3775(6)
_cell_length_c                   13.0570(11)
_cell_angle_alpha                90
_cell_angle_beta                 103.131(9)
_cell_angle_gamma                90
_cell_volume                     1032.66
_exptl_crystal_colour            colorless
_exptl_crystal_description       rhombohedral
_cell_formula_units_Z            4
loop_
_atom_site_label
_atom_site_type_symbol
_atom_site_fract_x
_atom_site_fract_y
_atom_site_fract_z
O1 O 0.34514(15) 0.4509(2) 0.45316(11)
N1 N 0.45241(16) 0.4103(2) 0.62195(12)
H1 H 0.52000(16) 0.4391(2) 0.60337(12)
F1 F 0.11537(15) 0.3954(3) 0.80006(14)
F2 F 0.02434(18) 0.2993(5) 0.65074(15)
C1 C 0.3441(2) 0.4123(3) 0.54606(16)
C2 C 0.4617(2) 0.3661(2) 0.72516(15)
C3 C 0.3560(2) 0.3232(3) 0.75683(16)
H2 H 0.3599(2) 0.2914(3) 0.82641(16)
C4 C 0.5867(2) 0.3650(3) 0.79633(16)
C5 C 0.2411(2) 0.3274(3) 0.68365(17)
C6 C 0.2340(2) 0.3698(3) 0.58155(17)
H3 H 0.1568(2) 0.3712(3) 0.53422(17)
C7 C 0.6923(2) 0.3185(3) 0.7617(2)
H4 H 0.6857(2) 0.2887(3) 0.6914(2)
C8 C 0.6000(3) 0.4094(3) 0.90175(18)
H5 H 0.5299(3) 0.4414(3) 0.92618(18)
C9 C 0.1272(3) 0.2825(4) 0.7233(2)
H6 H 0.1339(3) 0.1580(4) 0.7501(2)
C10 C 0.7144(3) 0.4070(4) 0.9703(2)
H7 H 0.7216(3) 0.4367(4) 1.0407(2)
C11 C 0.8181(3) 0.3608(4) 0.9348(3)
H8 H 0.8960(3) 0.3597(4) 0.9811(3)
C12 C 0.8075(3) 0.3161(4) 0.8310(3)
H9 H 0.8782(3) 0.2842(4) 0.8074(3)
loop_
_geom_bond_atom_site_label_1
_geom_bond_atom_site_label_2
_geom_bond_site_symmetry_1
_geom_bond_site_symmetry_2
O1 C1 1_555 1_555
N1 H1 1_555 1_555
F1 C9 1_555 1_555
F2 C9 1_555 1_555
C1 N1 1_555 1_555
C2 N1 1_555 1_555
C3 C2 1_555 1_555
H2 C3 1_555 1_555
C4 C2 1_555 1_555
C5 C3 1_555 1_555
C6 C1 1_555 1_555
H3 C6 1_555 1_555
C7 C4 1_555 1_555
H4 C7 1_555 1_555
C8 C4 1_555 1_555
H5 C8 1_555 1_555
C9 C5 1_555 1_555
H6 C9 1_555 1_555
C10 C8 1_555 1_555
H7 C10 1_555 1_555
C11 C10 1_555 1_555
H8 C11 1_555 1_555
C12 C7 1_555 1_555
H9 C12 1_555 1_555
C5 C6 1_555 1_555
C11 C12 1_555 1_555

#END
