
#######################################################################
#
#                 Cambridge Crystallographic Data Centre
#                                CCDC 
#
#######################################################################
#
# If this CIF has been generated from an entry in the Cambridge 
# Structural Database, then it will include bibliographic, chemical, 
# crystal, experimental, refinement or atomic coordinate data resulting 
# from the CCDC's data processing and validation procedures.
#
#######################################################################

data_PIHREE
_chemical_formula_moiety         'C14 H10 Cl2 N2 O2'
_chemical_name_systematic        N,N'-bis(2-Chlorobenzoyl)hydrazine
_symmetry_cell_setting           triclinic
_symmetry_space_group_name_H-M   'P -1'
_symmetry_Int_Tables_number      2
_space_group_name_Hall           '-P 1'
loop_
_symmetry_equiv_pos_site_id
_symmetry_equiv_pos_as_xyz
1 x,y,z
2 -x,-y,-z
_cell_length_a                   4.8124(8)
_cell_length_b                   6.1524(11)
_cell_length_c                   11.728(2)
_cell_angle_alpha                88.794(3)
_cell_angle_beta                 81.757(3)
_cell_angle_gamma                88.045(3)
_cell_volume                     343.407
_chemical_melting_point          '221-223 deg.C'
_cell_formula_units_Z            1
_exptl_crystal_recrystallization_method chloroform/methanol
loop_
_atom_site_label
_atom_site_type_symbol
_atom_site_fract_x
_atom_site_fract_y
_atom_site_fract_z
Cl1 Cl 0.54560(14) 0.82235(11) 0.85938(5)
O1 O 0.5849(3) 0.8600(3) 0.59792(14)
N1 N 1.0365(3) 0.9225(2) 0.53953(13)
C1 C 0.8307(4) 0.8208(3) 0.60611(16)
C2 C 0.9243(4) 0.6498(3) 0.68628(16)
C3 C 1.1330(4) 0.4973(3) 0.64661(19)
H1 H 1.2247 0.5093 0.5715
C4 C 1.2074(5) 0.3277(4) 0.7166(2)
H2 H 1.3487 0.2273 0.6892
C5 C 1.0680(6) 0.3095(4) 0.8286(3)
H3 H 1.1135 0.1942 0.8758
C6 C 0.8646(5) 0.4598(4) 0.8697(2)
H4 H 0.7740 0.4476 0.9450
C7 C 0.7933(4) 0.6297(3) 0.79955(18)
H5 H 1.201(3) 0.915(3) 0.5488(18)
Cl1A Cl 1.45440(14) 1.17765(11) 0.14062(5)
O1A O 1.4151(3) 1.1400(3) 0.40208(14)
N1A N 0.9635(3) 1.0775(2) 0.46047(13)
C1A C 1.1693(4) 1.1792(3) 0.39389(16)
C2A C 1.0757(4) 1.3502(3) 0.31372(16)
C3A C 0.8670(4) 1.5027(3) 0.35339(19)
H1A H 0.7753 1.4907 0.4285
C4A C 0.7926(5) 1.6723(4) 0.2834(2)
H2A H 0.6513 1.7727 0.3108
C5A C 0.9320(6) 1.6905(4) 0.1714(3)
H3A H 0.8865 1.8058 0.1242
C6A C 1.1354(5) 1.5402(4) 0.1303(2)
H4A H 1.2260 1.5524 0.0550
C7A C 1.2067(4) 1.3703(3) 0.20045(18)
H5A H 0.799(3) 1.085(3) 0.4512(18)
loop_
_geom_bond_atom_site_label_1
_geom_bond_atom_site_label_2
_geom_bond_site_symmetry_1
_geom_bond_site_symmetry_2
Cl1 C7 1_555 1_555
O1 C1 1_555 1_555
N1 C1 1_555 1_555
C1 C2 1_555 1_555
C2 C3 1_555 1_555
C3 H1 1_555 1_555
C4 C3 1_555 1_555
H2 C4 1_555 1_555
C5 C4 1_555 1_555
H3 C5 1_555 1_555
C6 C5 1_555 1_555
H4 C6 1_555 1_555
C7 C2 1_555 1_555
H5 N1 1_555 1_555
Cl1A C7A 1_555 1_555
O1A C1A 1_555 1_555
N1A N1 1_555 1_555
C1A N1A 1_555 1_555
C2A C1A 1_555 1_555
C3A C2A 1_555 1_555
H1A C3A 1_555 1_555
C4A C3A 1_555 1_555
H2A C4A 1_555 1_555
C5A C4A 1_555 1_555
H3A C5A 1_555 1_555
C6A C5A 1_555 1_555
H4A C6A 1_555 1_555
C7A C2A 1_555 1_555
H5A N1A 1_555 1_555
C6 C7 1_555 1_555
C6A C7A 1_555 1_555

#END
