
#######################################################################
#
#                 Cambridge Crystallographic Data Centre
#                                CCDC 
#
#######################################################################
#
# If this CIF has been generated from an entry in the Cambridge 
# Structural Database, then it will include bibliographic, chemical, 
# crystal, experimental, refinement or atomic coordinate data resulting 
# from the CCDC's data processing and validation procedures.
#
#######################################################################

data_PIHTAD
_chemical_formula_moiety         'C22 H19 N3 O2'
_chemical_name_systematic        
2-(1H-Indol-3-yl)-N'-((2-methoxy-1-naphthyl)methylene)acetohydrazide
_symmetry_cell_setting           monoclinic
_symmetry_space_group_name_H-M   'P 21/n'
_symmetry_Int_Tables_number      14
_space_group_name_Hall           '-P 2yn'
loop_
_symmetry_equiv_pos_site_id
_symmetry_equiv_pos_as_xyz
1 x,y,z
2 1/2-x,1/2+y,1/2-z
3 -x,-y,-z
4 1/2+x,1/2-y,1/2+z
_cell_length_a                   17.740(2)
_cell_length_b                   5.6207(13)
_cell_length_c                   18.573(3)
_cell_angle_alpha                90
_cell_angle_beta                 92.659(2)
_cell_angle_gamma                90
_cell_volume                     1849.94
_exptl_crystal_colour            colorless
_exptl_crystal_description       block
_cell_formula_units_Z            4
loop_
_atom_site_label
_atom_site_type_symbol
_atom_site_fract_x
_atom_site_fract_y
_atom_site_fract_z
N1 N 0.73009(17) 0.1443(4) -0.18020(14)
N2 N 0.59477(13) 0.3941(5) 0.01159(13)
N3 N 0.65438(12) 0.2615(4) 0.03933(12)
O1 O 0.55440(12) 0.7004(4) -0.05698(12)
O2 O 0.58958(12) -0.2339(4) 0.17104(11)
C1 C 0.71694(15) 0.4502(5) -0.10477(14)
C2 C 0.79000(16) 0.4611(5) -0.13374(14)
C3 C 0.85067(17) 0.6171(5) -0.12489(15)
H1 H 0.8484 0.7457 -0.0936
C4 C 0.91427(17) 0.5781(6) -0.16333(18)
H2 H 0.9550 0.6817 -0.1577
C5 C 0.9186(2) 0.3863(7) -0.21041(18)
H3 H 0.9618 0.3661 -0.2363
C6 C 0.8606(2) 0.2268(6) -0.21939(16)
H4 H 0.8638 0.0972 -0.2502
C7 C 0.79646(17) 0.2666(5) -0.18049(14)
C8 C 0.68263(17) 0.2550(5) -0.13464(15)
H5 H 0.6341 0.2041 -0.1255
C9 C 0.68739(15) 0.6226(5) -0.05175(15)
H6 H 0.6907 0.7820 -0.0714
H7 H 0.7193 0.6168 -0.0080
C10 C 0.60751(17) 0.5767(5) -0.03302(16)
C11 C 0.63721(16) 0.0870(5) 0.07936(15)
H8 H 0.5865 0.0620 0.0876
C12 C 0.69225(15) -0.0751(5) 0.11287(14)
C13 C 0.66490(17) -0.2477(6) 0.15832(15)
C14 C 0.7111(2) -0.4234(5) 0.19027(16)
H9 H 0.6912 -0.5359 0.2208
C15 C 0.7853(2) -0.4275(6) 0.17610(17)
H10 H 0.8157 -0.5464 0.1966
C16 C 0.81766(18) -0.2581(6) 0.13139(16)
C17 C 0.8951(2) -0.2658(7) 0.11766(19)
H11 H 0.9250 -0.3865 0.1380
C18 C 0.9271(2) -0.1005(8) 0.0753(2)
H12 H 0.9784 -0.1064 0.0673
C19 C 0.8821(2) 0.0777(6) 0.04381(19)
H13 H 0.9038 0.1908 0.0146
C20 C 0.80698(17) 0.0889(6) 0.05513(16)
H14 H 0.7782 0.2089 0.0330
C21 C 0.77160(16) -0.0776(5) 0.09977(14)
C22 C 0.5540(2) -0.4200(6) 0.20895(19)
H15 H 0.5634 -0.5694 0.1860
H16 H 0.5006 -0.3915 0.2086
H17 H 0.5741 -0.4244 0.2578
H18 H 0.5471(8) 0.354(5) 0.0207(14)
H19 H 0.7160(15) 0.012(3) -0.2035(13)
loop_
_geom_bond_atom_site_label_1
_geom_bond_atom_site_label_2
_geom_bond_site_symmetry_1
_geom_bond_site_symmetry_2
N1 C7 1_555 1_555
N2 N3 1_555 1_555
N3 C11 1_555 1_555
O1 C10 1_555 1_555
O2 C13 1_555 1_555
C1 C2 1_555 1_555
C2 C3 1_555 1_555
C3 H1 1_555 1_555
C4 C3 1_555 1_555
H2 C4 1_555 1_555
C5 C4 1_555 1_555
H3 C5 1_555 1_555
C6 C5 1_555 1_555
H4 C6 1_555 1_555
C7 C2 1_555 1_555
C8 N1 1_555 1_555
H5 C8 1_555 1_555
C9 C1 1_555 1_555
H6 C9 1_555 1_555
H7 C9 1_555 1_555
C10 N2 1_555 1_555
C11 H8 1_555 1_555
C12 C11 1_555 1_555
C13 C12 1_555 1_555
C14 C13 1_555 1_555
H9 C14 1_555 1_555
C15 C14 1_555 1_555
H10 C15 1_555 1_555
C16 C15 1_555 1_555
C17 C16 1_555 1_555
H11 C17 1_555 1_555
C18 C17 1_555 1_555
H12 C18 1_555 1_555
C19 C18 1_555 1_555
H13 C19 1_555 1_555
C20 C19 1_555 1_555
H14 C20 1_555 1_555
C21 C12 1_555 1_555
C22 O2 1_555 1_555
H15 C22 1_555 1_555
H16 C22 1_555 1_555
H17 C22 1_555 1_555
H18 N2 1_555 1_555
H19 N1 1_555 1_555
C1 C8 1_555 1_555
C6 C7 1_555 1_555
C9 C10 1_555 1_555
C16 C21 1_555 1_555
C20 C21 1_555 1_555

#END
