
#######################################################################
#
#                 Cambridge Crystallographic Data Centre
#                                CCDC 
#
#######################################################################
#
# If this CIF has been generated from an entry in the Cambridge 
# Structural Database, then it will include bibliographic, chemical, 
# crystal, experimental, refinement or atomic coordinate data resulting 
# from the CCDC's data processing and validation procedures.
#
#######################################################################

data_PIJDEU
_chemical_name_common            9-methoxyindenocorannulene
_chemical_formula_moiety         'C27 H14 O1'
_chemical_name_systematic        
9-methoxyacenaphtho[3,2,1,8-lmnoa]benzo[e]acephenanthrylene
_symmetry_cell_setting           monoclinic
_symmetry_space_group_name_H-M   'P 21'
_symmetry_Int_Tables_number      4
_space_group_name_Hall           'P 2yb'
loop_
_symmetry_equiv_pos_site_id
_symmetry_equiv_pos_as_xyz
1 x,y,z
2 -x,1/2+y,-z
_cell_length_a                   15.99930(15)
_cell_length_b                   3.87518(3)
_cell_length_c                   27.1099(2)
_cell_angle_alpha                90
_cell_angle_beta                 106.7778(10)
_cell_angle_gamma                90
_cell_volume                     1609.27
_exptl_crystal_colour            yellow
_exptl_crystal_description       plate
_cell_formula_units_Z            4
_exptl_crystal_recrystallization_method 
'Re-crystallisation from solvent: dichloromethane / hexane'
loop_
_atom_site_label
_atom_site_type_symbol
_atom_site_fract_x
_atom_site_fract_y
_atom_site_fract_z
O1 O 0.74697(9) 0.4359(4) 0.79746(5)
C1 C 0.76724(12) 1.2273(5) 1.04061(7)
C2 C 0.85498(12) 1.1989(5) 1.07151(7)
C3 C 0.85256(13) 1.1512(5) 1.12309(7)
C4 C 0.76326(12) 1.1425(5) 1.12295(7)
C5 C 0.71016(12) 1.1827(5) 1.07141(7)
C6 C 0.74408(12) 1.1082(5) 0.99165(7)
C7 C 0.80805(12) 0.9894(5) 0.96819(7)
C8 C 0.89435(12) 0.9621(5) 0.99811(7)
H1 H 0.937756 0.886579 0.982921
C9 C 0.91855(12) 1.0488(5) 1.05267(7)
C10 C 0.99250(12) 0.9157(5) 1.09226(7)
H2 H 1.042820 0.844830 1.083028
C11 C 0.99266(12) 0.8878(6) 1.14305(7)
H3 H 1.043717 0.806302 1.167874
C12 C 0.91734(13) 0.9790(5) 1.15950(7)
C13 C 0.89154(13) 0.8484(6) 1.20292(7)
H4 H 0.935177 0.766094 1.232304
C14 C 0.80519(14) 0.8400(6) 1.20281(8)
H5 H 0.791000 0.751230 1.232057
C15 C 0.73593(13) 0.9625(5) 1.15945(7)
C16 C 0.64554(13) 0.8548(6) 1.14295(8)
H6 H 0.619594 0.766297 1.167739
C17 C 0.59608(13) 0.8773(5) 1.09213(8)
H7 H 0.537474 0.797287 1.082873
C18 C 0.63002(12) 1.0178(5) 1.05250(7)
C19 C 0.60249(12) 0.9279(5) 0.99814(7)
H8 H 0.545286 0.841185 0.982932
C20 C 0.65922(11) 0.9678(5) 0.96831(7)
C21 C 0.66628(12) 0.8164(5) 0.91951(7)
C22 C 0.60506(12) 0.6647(5) 0.87866(7)
H9 H 0.545827 0.651245 0.878779
C23 C 0.62993(13) 0.5309(5) 0.83710(7)
H10 H 0.587753 0.424833 0.809169
C24 C 0.71646(13) 0.5531(5) 0.83671(7)
C25 C 0.77979(12) 0.7037(5) 0.87782(7)
H11 H 0.838799 0.717559 0.877288
C26 C 0.75556(12) 0.8316(5) 0.91913(7)
C27 C 0.68485(14) 0.2838(6) 0.75424(8)
H12 H 0.714061 0.214794 0.728605
H13 H 0.638895 0.451679 0.738913
H14 H 0.658936 0.080291 0.765526
O2 O 0.80702(9) -0.0832(4) 0.68767(5)
C28 C 0.71913(12) 0.7363(5) 0.43977(7)
C29 C 0.62773(13) 0.7188(5) 0.41698(7)
C30 C 0.61403(13) 0.6779(5) 0.36318(7)
C31 C 0.69729(13) 0.6576(5) 0.35370(7)
C32 C 0.76284(13) 0.6864(5) 0.40172(7)
C33 C 0.75466(12) 0.6088(5) 0.48773(7)
C34 C 0.70095(12) 0.4915(5) 0.51853(7)
C35 C 0.61119(12) 0.4783(5) 0.49659(7)
H15 H 0.574671 0.405488 0.516710
C36 C 0.57255(12) 0.5753(5) 0.44287(7)
C37 C 0.49040(12) 0.4556(6) 0.40918(7)
H16 H 0.445384 0.390920 0.423770
C38 C 0.47494(12) 0.4317(6) 0.35640(7)
H17 H 0.419220 0.357395 0.335780
C39 C 0.54109(13) 0.5166(6) 0.33180(7)
C40 C 0.55087(13) 0.3862(6) 0.28355(7)
H18 H 0.500462 0.312934 0.257446
C41 C 0.63130(14) 0.3658(6) 0.27457(7)
H19 H 0.634912 0.277697 0.242545
C42 C 0.71019(13) 0.4752(6) 0.31268(7)
C43 C 0.79848(14) 0.3535(6) 0.32043(8)
H20 H 0.814227 0.260090 0.291960
C44 C 0.86051(13) 0.3685(6) 0.36772(8)
H21 H 0.917230 0.280272 0.370920
C45 C 0.84236(12) 0.5139(5) 0.41268(7)
C46 C 0.88435(12) 0.4202(5) 0.46611(7)
H22 H 0.941947 0.329261 0.475849
C47 C 0.84013(12) 0.4639(5) 0.50273(7)
C48 C 0.84780(12) 0.3107(5) 0.55417(7)
C49 C 0.91724(13) 0.1643(6) 0.59046(7)
H23 H 0.972776 0.153483 0.584402
C50 C 0.90654(13) 0.0315(6) 0.63616(7)
H24 H 0.954837 -0.066059 0.661382
C51 C 0.82456(13) 0.0429(5) 0.64459(7)
C52 C 0.75298(13) 0.1912(6) 0.60826(7)
H25 H 0.697470 0.198547 0.614398
C53 C 0.76388(12) 0.3261(5) 0.56355(7)
C54 C 0.87733(14) -0.2268(6) 0.72730(8)
H26 H 0.901977 -0.423441 0.713541
H27 H 0.855769 -0.304438 0.755805
H28 H 0.922584 -0.051220 0.739815
loop_
_geom_bond_atom_site_label_1
_geom_bond_atom_site_label_2
_geom_bond_site_symmetry_1
_geom_bond_site_symmetry_2
O1 C24 1_555 1_555
C1 C2 1_555 1_555
C2 C3 1_555 1_555
C3 C4 1_555 1_555
C4 C5 1_555 1_555
C5 C1 1_555 1_555
C6 C1 1_555 1_555
C7 C6 1_555 1_555
C8 C7 1_555 1_555
H1 C8 1_555 1_555
C9 C2 1_555 1_555
C10 C9 1_555 1_555
H2 C10 1_555 1_555
C11 C10 1_555 1_555
H3 C11 1_555 1_555
C12 C3 1_555 1_555
C13 C12 1_555 1_555
H4 C13 1_555 1_555
C14 C13 1_555 1_555
H5 C14 1_555 1_555
C15 C4 1_555 1_555
C16 C15 1_555 1_555
H6 C16 1_555 1_555
C17 C16 1_555 1_555
H7 C17 1_555 1_555
C18 C5 1_555 1_555
C19 C18 1_555 1_555
H8 C19 1_555 1_555
C20 C6 1_555 1_555
C21 C20 1_555 1_555
C22 C21 1_555 1_555
H9 C22 1_555 1_555
C23 C22 1_555 1_555
H10 C23 1_555 1_555
C24 C23 1_555 1_555
C25 C24 1_555 1_555
H11 C25 1_555 1_555
C26 C7 1_555 1_555
C27 O1 1_555 1_555
H12 C27 1_555 1_555
H13 C27 1_555 1_555
H14 C27 1_555 1_555
O2 C51 1_555 1_555
C28 C29 1_555 1_555
C29 C30 1_555 1_555
C30 C31 1_555 1_555
C31 C32 1_555 1_555
C32 C28 1_555 1_555
C33 C28 1_555 1_555
C34 C33 1_555 1_555
C35 C34 1_555 1_555
H15 C35 1_555 1_555
C36 C29 1_555 1_555
C37 C36 1_555 1_555
H16 C37 1_555 1_555
C38 C37 1_555 1_555
H17 C38 1_555 1_555
C39 C30 1_555 1_555
C40 C39 1_555 1_555
H18 C40 1_555 1_555
C41 C40 1_555 1_555
H19 C41 1_555 1_555
C42 C31 1_555 1_555
C43 C42 1_555 1_555
H20 C43 1_555 1_555
C44 C43 1_555 1_555
H21 C44 1_555 1_555
C45 C32 1_555 1_555
C46 C45 1_555 1_555
H22 C46 1_555 1_555
C47 C33 1_555 1_555
C48 C47 1_555 1_555
C49 C48 1_555 1_555
H23 C49 1_555 1_555
C50 C49 1_555 1_555
H24 C50 1_555 1_555
C51 C50 1_555 1_555
C52 C51 1_555 1_555
H25 C52 1_555 1_555
C53 C34 1_555 1_555
C54 O2 1_555 1_555
H26 C54 1_555 1_555
H27 C54 1_555 1_555
H28 C54 1_555 1_555
C8 C9 1_555 1_555
C11 C12 1_555 1_555
C14 C15 1_555 1_555
C17 C18 1_555 1_555
C19 C20 1_555 1_555
C21 C26 1_555 1_555
C25 C26 1_555 1_555
C35 C36 1_555 1_555
C38 C39 1_555 1_555
C41 C42 1_555 1_555
C44 C45 1_555 1_555
C46 C47 1_555 1_555
C48 C53 1_555 1_555
C52 C53 1_555 1_555

#END
