
#######################################################################
#
#                 Cambridge Crystallographic Data Centre
#                                CCDC 
#
#######################################################################
#
# If this CIF has been generated from an entry in the Cambridge 
# Structural Database, then it will include bibliographic, chemical, 
# crystal, experimental, refinement or atomic coordinate data resulting 
# from the CCDC's data processing and validation procedures.
#
#######################################################################

data_PIJDOE
_chemical_formula_moiety         'C14 H10 Br1 N1 O2'
_chemical_name_systematic        N-(4-bromo-2-formylphenyl)benzamide
_symmetry_cell_setting           orthorhombic
_symmetry_space_group_name_H-M   'P 21 21 21'
_symmetry_Int_Tables_number      19
_space_group_name_Hall           'P 2ac 2ab'
loop_
_symmetry_equiv_pos_site_id
_symmetry_equiv_pos_as_xyz
1 x,y,z
2 1/2-x,-y,1/2+z
3 -x,1/2+y,1/2-z
4 1/2+x,1/2-y,-z
_cell_length_a                   3.87870(10)
_cell_length_b                   13.3741(4)
_cell_length_c                   26.3417(7)
_cell_angle_alpha                90
_cell_angle_beta                 90
_cell_angle_gamma                90
_cell_volume                     1366.45
_exptl_crystal_colour            colorless
_exptl_crystal_description       block
_cell_formula_units_Z            4
loop_
_atom_site_label
_atom_site_type_symbol
_atom_site_fract_x
_atom_site_fract_y
_atom_site_fract_z
Br1 Br -0.1433(3) 0.48047(9) 0.08288(3)
O1 O 0.209(2) 0.3544(5) 0.3128(3)
C1 C 0.024(2) 0.5041(7) 0.1499(3)
O2 O 0.520(2) 0.7139(5) 0.2987(2)
C2 C 0.183(3) 0.5927(7) 0.1614(3)
H1 H 0.2080 0.6427 0.1361
C3 C 0.309(2) 0.6095(7) 0.2102(3)
H2 H 0.4158 0.6715 0.2182
N1 N 0.409(2) 0.5467(5) 0.2967(3)
C4 C 0.279(2) 0.5359(6) 0.2473(3)
C5 C 0.123(2) 0.4434(7) 0.2348(3)
C6 C -0.007(2) 0.4273(8) 0.1855(3)
H3 H -0.1142 0.3657 0.1767
C7 C 0.088(3) 0.3586(7) 0.2697(4)
H4 H -0.0379 0.3022 0.2581
C8 C 0.530(2) 0.6311(6) 0.3190(3)
C9 C 0.683(2) 0.6175(6) 0.3712(3)
C10 C 0.752(3) 0.5250(8) 0.3934(3)
H5 H 0.6963 0.4648 0.3761
C11 C 0.902(3) 0.5218(9) 0.4407(4)
H6 H 0.9494 0.4587 0.4558
C12 C 0.985(3) 0.6081(9) 0.4668(3)
H7 H 1.0901 0.6045 0.4993
C13 C 0.913(3) 0.6997(8) 0.4450(3)
H8 H 0.9693 0.7592 0.4628
C14 C 0.763(2) 0.7060(7) 0.3978(3)
H9 H 0.7125 0.7694 0.3833
H10 H 0.41(2) 0.481(6) 0.317(3)
loop_
_geom_bond_atom_site_label_1
_geom_bond_atom_site_label_2
_geom_bond_site_symmetry_1
_geom_bond_site_symmetry_2
Br1 C1 1_555 1_555
O1 C7 1_555 1_555
C1 C2 1_555 1_555
O2 C8 1_555 1_555
C2 H1 1_555 1_555
C3 C2 1_555 1_555
H2 C3 1_555 1_555
N1 C4 1_555 1_555
C4 C3 1_555 1_555
C5 C4 1_555 1_555
C6 C1 1_555 1_555
H3 C6 1_555 1_555
C7 C5 1_555 1_555
H4 C7 1_555 1_555
C8 N1 1_555 1_555
C9 C8 1_555 1_555
C10 C9 1_555 1_555
H5 C10 1_555 1_555
C11 C10 1_555 1_555
H6 C11 1_555 1_555
C12 C11 1_555 1_555
H7 C12 1_555 1_555
C13 C12 1_555 1_555
H8 C13 1_555 1_555
C14 C9 1_555 1_555
H9 C14 1_555 1_555
H10 N1 1_555 1_555
C5 C6 1_555 1_555
C13 C14 1_555 1_555

#END
