
#######################################################################
#
#                 Cambridge Crystallographic Data Centre
#                                CCDC 
#
#######################################################################
#
# If this CIF has been generated from an entry in the Cambridge 
# Structural Database, then it will include bibliographic, chemical, 
# crystal, experimental, refinement or atomic coordinate data resulting 
# from the CCDC's data processing and validation procedures.
#
#######################################################################

data_PIJFIA
_chemical_formula_moiety         'C16 H14 N2 O3'
_chemical_name_systematic        
2-[(1-methyl-1H-indol-3-yl)methyl]-4-nitrophenol
_symmetry_cell_setting           monoclinic
_symmetry_space_group_name_H-M   'P 21/c'
_symmetry_Int_Tables_number      14
_space_group_name_Hall           '-P 2ybc'
loop_
_symmetry_equiv_pos_site_id
_symmetry_equiv_pos_as_xyz
1 x,y,z
2 -x,1/2+y,1/2-z
3 -x,-y,-z
4 x,1/2-y,1/2+z
_cell_length_a                   8.7385(7)
_cell_length_b                   15.7052(11)
_cell_length_c                   20.2708(16)
_cell_angle_alpha                90
_cell_angle_beta                 101.856(8)
_cell_angle_gamma                90
_cell_volume                     2722.61
_exptl_crystal_colour            'dark yellow'
_exptl_crystal_description       block
_cell_formula_units_Z            8
loop_
_atom_site_label
_atom_site_type_symbol
_atom_site_fract_x
_atom_site_fract_y
_atom_site_fract_z
O1 O 0.13964(16) 0.88862(7) 0.16497(6)
H1 H 0.1063 0.9277 0.1849
O2 O 0.0729(3) 0.51219(9) 0.24852(8)
O3 O -0.06639(19) 0.57147(11) 0.31175(8)
N1 N 0.23316(16) 0.54898(8) 0.00043(7)
N2 N 0.0143(2) 0.57570(10) 0.26867(7)
C1 C 0.09846(18) 0.58589(10) -0.03402(8)
C2 C -0.0047(2) 0.55823(11) -0.09205(8)
H2 H 0.0108 0.5069 -0.1126
C3 C -0.1303(2) 0.60983(12) -0.11768(9)
H3 H -0.2019 0.5925 -0.1558
C4 C -0.1526(2) 0.68846(12) -0.08723(9)
H4 H -0.2377 0.7224 -0.1060
C5 C -0.04969(19) 0.71564(11) -0.02990(8)
H5 H -0.0647 0.7677 -0.0103
C6 C 0.07779(18) 0.66373(10) -0.00173(8)
C7 C 0.20625(18) 0.67207(10) 0.05445(8)
C8 C 0.29712(19) 0.60148(10) 0.05369(8)
H6 H 0.3892 0.5903 0.0847
C9 C 0.2941(2) 0.46772(11) -0.01647(10)
H7 H 0.3293 0.4729 -0.0582
H8 H 0.2133 0.4254 -0.0212
H9 H 0.3801 0.4511 0.0187
C10 C 0.2341(2) 0.74575(10) 0.10238(8)
H10 H 0.2003 0.7975 0.0776
H11 H 0.3455 0.7506 0.1202
C11 C 0.15054(18) 0.73911(10) 0.16107(8)
C12 C 0.11990(19) 0.66164(10) 0.18768(8)
H12 H 0.1509 0.6115 0.1698
C13 C 0.0427(2) 0.65818(10) 0.24124(8)
C14 C -0.00609(19) 0.73092(11) 0.26930(8)
H13 H -0.0598 0.7273 0.3043
C15 C 0.0265(2) 0.80857(10) 0.24430(9)
H14 H -0.0039 0.8583 0.2629
C16 C 0.10510(19) 0.81315(10) 0.19098(8)
O4 O 0.37917(16) 0.90603(7) 0.33319(7)
H15 H 0.3929 0.9452 0.3083
O5 O 0.63877(18) 0.60042(9) 0.19383(7)
O6 O 0.5517(2) 0.53460(8) 0.27043(9)
N3 N 0.30353(16) 0.56760(8) 0.50545(7)
N4 N 0.57768(18) 0.60088(9) 0.24312(8)
C17 C 0.44583(19) 0.59844(10) 0.53792(8)
C18 C 0.5511(2) 0.56780(10) 0.59413(8)
H16 H 0.5308 0.5180 0.6157
C19 C 0.6861(2) 0.61373(12) 0.61672(8)
H17 H 0.7589 0.5939 0.6536
C20 C 0.7164(2) 0.68993(12) 0.58518(9)
H18 H 0.8074 0.7203 0.6020
C21 C 0.61219(19) 0.72000(10) 0.52949(8)
H19 H 0.6329 0.7703 0.5087
C22 C 0.47516(18) 0.67423(10) 0.50453(8)
C23 C 0.34406(19) 0.68776(10) 0.45051(8)
C24 C 0.24295(19) 0.62158(10) 0.45305(8)
H20 H 0.1472 0.6142 0.4236
C25 C 0.2279(2) 0.49218(11) 0.52548(10)
H21 H 0.3012 0.4459 0.5330
H22 H 0.1405 0.4770 0.4904
H23 H 0.1919 0.5038 0.5662
C26 C 0.32205(19) 0.76271(10) 0.40355(8)
H24 H 0.3563 0.8136 0.4296
H25 H 0.2112 0.7690 0.3848
C27 C 0.40813(18) 0.75768(10) 0.34570(7)
C28 C 0.43421(19) 0.83262(10) 0.31171(8)
C29 C 0.5132(2) 0.83098(10) 0.25851(8)
H26 H 0.5314 0.8815 0.2375
C30 C 0.56419(19) 0.75507(10) 0.23697(8)
H27 H 0.6175 0.7535 0.2017
C31 C 0.53415(19) 0.68102(10) 0.26911(8)
C32 C 0.45826(19) 0.68177(10) 0.32326(8)
H28 H 0.4414 0.6310 0.3443
loop_
_geom_bond_atom_site_label_1
_geom_bond_atom_site_label_2
_geom_bond_site_symmetry_1
_geom_bond_site_symmetry_2
O1 H1 1_555 1_555
O2 N2 1_555 1_555
O3 N2 1_555 1_555
N1 C1 1_555 1_555
N2 C13 1_555 1_555
C1 C2 1_555 1_555
C2 H2 1_555 1_555
C3 C2 1_555 1_555
H3 C3 1_555 1_555
C4 C3 1_555 1_555
H4 C4 1_555 1_555
C5 C4 1_555 1_555
H5 C5 1_555 1_555
C6 C1 1_555 1_555
C7 C6 1_555 1_555
C8 N1 1_555 1_555
H6 C8 1_555 1_555
C9 N1 1_555 1_555
H7 C9 1_555 1_555
H8 C9 1_555 1_555
H9 C9 1_555 1_555
C10 C7 1_555 1_555
H10 C10 1_555 1_555
H11 C10 1_555 1_555
C11 C10 1_555 1_555
C12 C11 1_555 1_555
H12 C12 1_555 1_555
C13 C12 1_555 1_555
C14 C13 1_555 1_555
H13 C14 1_555 1_555
C15 C14 1_555 1_555
H14 C15 1_555 1_555
C16 O1 1_555 1_555
O4 H15 1_555 1_555
O5 N4 1_555 1_555
O6 N4 1_555 1_555
N3 C17 1_555 1_555
N4 C31 1_555 1_555
C17 C18 1_555 1_555
C18 H16 1_555 1_555
C19 C18 1_555 1_555
H17 C19 1_555 1_555
C20 C19 1_555 1_555
H18 C20 1_555 1_555
C21 C20 1_555 1_555
H19 C21 1_555 1_555
C22 C17 1_555 1_555
C23 C22 1_555 1_555
C24 N3 1_555 1_555
H20 C24 1_555 1_555
C25 N3 1_555 1_555
H21 C25 1_555 1_555
H22 C25 1_555 1_555
H23 C25 1_555 1_555
C26 C23 1_555 1_555
H24 C26 1_555 1_555
H25 C26 1_555 1_555
C27 C26 1_555 1_555
C28 O4 1_555 1_555
C29 C28 1_555 1_555
H26 C29 1_555 1_555
C30 C29 1_555 1_555
H27 C30 1_555 1_555
C31 C30 1_555 1_555
C32 C27 1_555 1_555
H28 C32 1_555 1_555
C5 C6 1_555 1_555
C7 C8 1_555 1_555
C11 C16 1_555 1_555
C15 C16 1_555 1_555
C21 C22 1_555 1_555
C23 C24 1_555 1_555
C27 C28 1_555 1_555
C31 C32 1_555 1_555

#END
