
#######################################################################
#
#                 Cambridge Crystallographic Data Centre
#                                CCDC 
#
#######################################################################
#
# If this CIF has been generated from an entry in the Cambridge 
# Structural Database, then it will include bibliographic, chemical, 
# crystal, experimental, refinement or atomic coordinate data resulting 
# from the CCDC's data processing and validation procedures.
#
#######################################################################

data_PIJGAQ
_chemical_formula_moiety         'C62 H96 O6 Si4'
_chemical_name_systematic        
anti-5,9,14,19-tetrakis(Tri-isopropylsilylethynyl)-7,16-diethoxytricyclo(11.5.0.04^10^)octadeca-2,11-diyne-1(18),4,9,13-tetraene
_symmetry_cell_setting           triclinic
_symmetry_space_group_name_H-M   'P -1'
_symmetry_Int_Tables_number      2
_space_group_name_Hall           '-P 1'
loop_
_symmetry_equiv_pos_site_id
_symmetry_equiv_pos_as_xyz
1 x,y,z
2 -x,-y,-z
_cell_length_a                   9.3737(10)
_cell_length_b                   11.402(3)
_cell_length_c                   15.399(4)
_cell_angle_alpha                97.42(2)
_cell_angle_beta                 92.19(2)
_cell_angle_gamma                95.00(2)
_cell_volume                     1623.8
_cell_formula_units_Z            1
_exptl_crystal_recrystallization_method pentane/chloroform
loop_
_atom_site_label
_atom_site_type_symbol
_atom_site_fract_x
_atom_site_fract_y
_atom_site_fract_z
Si1 Si 0.8553(1) -0.3510(1) 1.3360(1)
Si2 Si 1.5234(1) -0.0610(1) 0.7473(1)
C1 C 1.1387(3) -0.3844(2) 0.9891(2)
O1 O 1.2496(2) -0.3197(2) 0.9500(1)
C2 C 1.2265(3) -0.2070(2) 0.9350(2)
C3 C 1.1293(3) -0.1367(2) 0.9720(2)
C4 C 1.0326(2) -0.1591(2) 1.0449(2)
C5 C 1.0403(3) -0.2486(2) 1.0942(2)
O2 O 1.1321(2) -0.3359(2) 1.0775(1)
O3 O 1.1723(2) -0.4987(2) 0.9854(1)
C6 C 1.3051(4) -0.5164(3) 1.0295(3)
C7 C 1.3211(5) -0.6403(4) 1.0264(4)
C8 C 0.9370(3) -0.0687(2) 1.0632(2)
C9 C 1.1134(3) -0.0237(2) 0.9435(2)
C10 C 0.9620(3) -0.2645(2) 1.1695(2)
C11 C 0.9102(3) -0.2920(2) 1.2351(2)
C12 C 0.9615(5) -0.4789(4) 1.3455(3)
C13 C 0.9219(7) -0.5722(5) 1.2701(5)
C14 C 1.1231(6) -0.4424(6) 1.3547(6)
C15 C 0.6558(4) -0.3829(4) 1.3294(3)
C16 C 0.5991(7) -0.4373(7) 1.4089(4)
C17 C 0.5921(5) -0.4514(6) 1.2434(4)
C18 C 0.9112(6) -0.2210(5) 1.4347(3)
C19 C 0.9245(10) -0.2670(8) 1.5216(4)
C20 C 1.0308(12) -0.1392(8) 1.4168(5)
C21 C 1.3226(3) -0.1653(2) 0.8737(2)
C22 C 1.4049(3) -0.1293(3) 0.8234(2)
C23 C 1.5530(9) 0.1000(4) 0.7888(6)
C24 C 1.6463(5) 0.1729(4) 0.7360(4)
C25 C 1.5009(10) 0.1492(6) 0.8633(6)
C26 C 1.6857(5) -0.1396(5) 0.7412(5)
C27 C 1.6692(18) -0.2727(13) 0.7352(11)
C28 C 1.7878(21) -0.1150(18) 0.7952(12)
C29 C 1.4238(13) -0.0800(9) 0.6420(5)
C42 C 1.4477(42) -0.0337(35) 0.5642(25)
C43 C 1.3598(31) -0.1883(26) 0.6037(17)
C8A C 1.0630(3) 0.0687(2) 0.9368(2)
C4A C 0.9674(2) 0.1591(2) 0.9551(2)
C3A C 0.8707(3) 0.1367(2) 1.0280(2)
C2A C 0.7735(3) 0.2070(2) 1.0650(2)
O1A O 0.7504(2) 0.3197(2) 1.0500(1)
C1A C 0.8613(3) 0.3844(2) 1.0109(2)
O2A O 0.8679(2) 0.3359(2) 0.9225(1)
C5A C 0.9597(3) 0.2486(2) 0.9058(2)
C10A C 1.0380(3) 0.2645(2) 0.8305(2)
C11A C 1.0898(3) 0.2920(2) 0.7649(2)
Si1A Si 1.1447(1) 0.3510(1) 0.6640(1)
C12A C 1.0385(5) 0.4789(4) 0.6545(3)
C13A C 1.0781(7) 0.5722(5) 0.7299(5)
C14A C 0.8769(6) 0.4424(6) 0.6453(6)
C15A C 1.3442(4) 0.3829(4) 0.6706(3)
C16A C 1.4009(7) 0.4373(7) 0.5911(4)
C17A C 1.4079(5) 0.4514(6) 0.7566(4)
C18A C 1.0888(6) 0.2210(5) 0.5653(3)
C19A C 1.0755(10) 0.2670(8) 0.4784(4)
C20A C 0.9692(12) 0.1392(8) 0.5832(5)
O3A O 0.8277(2) 0.4987(2) 1.0146(1)
C6A C 0.6949(4) 0.5164(3) 0.9705(3)
C7A C 0.6789(5) 0.6403(4) 0.9736(4)
C21A C 0.6774(3) 0.1653(2) 1.1263(2)
C22A C 0.5951(3) 0.1293(3) 1.1766(2)
Si2A Si 0.4766(1) 0.0610(1) 1.2527(1)
C23A C 0.4470(9) -0.1000(4) 1.2112(6)
C24A C 0.3537(5) -0.1729(4) 1.2640(4)
C25A C 0.4991(10) -0.1492(6) 1.1367(6)
C26A C 0.3143(5) 0.1396(5) 1.2588(5)
C27A C 0.3308(18) 0.2727(13) 1.2648(11)
C28A C 0.2122(21) 0.1150(18) 1.2048(12)
C29A C 0.5762(13) 0.0800(9) 1.3580(5)
C42A C 0.5523(42) 0.0337(35) 1.4358(25)
C43A C 0.6402(31) 0.1883(26) 1.3963(17)
C9A C 0.8866(3) 0.0237(2) 1.0565(2)
C30? C 1.4429(35) -0.2047(24) 0.6025(18)
C31? C 1.2398(23) -0.0410(20) 0.6658(14)
C32? C 0.9023(34) -0.6280(28) 1.3511(21)
C33? C 1.0247(29) -0.5557(22) 1.2324(16)
C34? C 0.9516(23) -0.3202(20) 1.4208(13)
C35? C 0.8333(28) -0.1232(31) 1.4307(17)
C36? C 1.7558(27) -0.1421(24) 0.8445(17)
C37? C 1.8482(18) -0.0703(15) 0.7399(12)
C38? C 1.6378(18) -0.2700(15) 0.6980(11)
C39? C 1.8140(43) -0.0911(33) 0.6946(26)
C40? C 1.5443(35) -0.1155(29) 0.5556(20)
C41? C 1.3099(43) -0.0142(32) 0.6414(23)
loop_
_geom_bond_atom_site_label_1
_geom_bond_atom_site_label_2
_geom_bond_site_symmetry_1
_geom_bond_site_symmetry_2
Si1 C11 1_555 1_555
Si2 C22 1_555 1_555
C1 O1 1_555 1_555
O1 C2 1_555 1_555
C2 C3 1_555 1_555
C3 C4 1_555 1_555
C4 C5 1_555 1_555
C5 O2 1_555 1_555
O2 C1 1_555 1_555
O3 C1 1_555 1_555
C6 O3 1_555 1_555
C7 C6 1_555 1_555
C8 C4 1_555 1_555
C9 C3 1_555 1_555
C10 C5 1_555 1_555
C11 C10 1_555 1_555
C12 Si1 1_555 1_555
C13 C12 1_555 1_555
C14 C12 1_555 1_555
C15 Si1 1_555 1_555
C16 C15 1_555 1_555
C17 C15 1_555 1_555
C18 Si1 1_555 1_555
C19 C18 1_555 1_555
C20 C18 1_555 1_555
C21 C2 1_555 1_555
C22 C21 1_555 1_555
C23 Si2 1_555 1_555
C24 C23 1_555 1_555
C25 C23 1_555 1_555
C26 Si2 1_555 1_555
C27 C26 1_555 1_555
C28 C26 1_555 1_555
C29 Si2 1_555 1_555
C42 C29 1_555 1_555
C43 C29 1_555 1_555
C8A C9 1_555 1_555
C4A C8A 1_555 1_555
C3A C4A 1_555 1_555
C2A C3A 1_555 1_555
O1A C2A 1_555 1_555
C1A O1A 1_555 1_555
O2A C1A 1_555 1_555
C5A C4A 1_555 1_555
C10A C5A 1_555 1_555
C11A C10A 1_555 1_555
Si1A C11A 1_555 1_555
C12A Si1A 1_555 1_555
C13A C12A 1_555 1_555
C14A C12A 1_555 1_555
C15A Si1A 1_555 1_555
C16A C15A 1_555 1_555
C17A C15A 1_555 1_555
C18A Si1A 1_555 1_555
C19A C18A 1_555 1_555
C20A C18A 1_555 1_555
O3A C1A 1_555 1_555
C6A O3A 1_555 1_555
C7A C6A 1_555 1_555
C21A C2A 1_555 1_555
C22A C21A 1_555 1_555
Si2A C22A 1_555 1_555
C23A Si2A 1_555 1_555
C24A C23A 1_555 1_555
C25A C23A 1_555 1_555
C26A Si2A 1_555 1_555
C27A C26A 1_555 1_555
C28A C26A 1_555 1_555
C29A Si2A 1_555 1_555
C42A C29A 1_555 1_555
C43A C29A 1_555 1_555
C9A C8 1_555 1_555
C3A C9A 1_555 1_555
O2A C5A 1_555 1_555

#END
