
#######################################################################
#
#                 Cambridge Crystallographic Data Centre
#                                CCDC 
#
#######################################################################
#
# If this CIF has been generated from an entry in the Cambridge 
# Structural Database, then it will include bibliographic, chemical, 
# crystal, experimental, refinement or atomic coordinate data resulting 
# from the CCDC's data processing and validation procedures.
#
#######################################################################

data_PIJGUN
_chemical_formula_moiety         'C58 H72 N2 O4 S6 Se1'
_chemical_name_systematic        
4,10,14,17-tetrakis[(2-ethylhexyl)oxy]bisthieno[2'',3'':5',6'][1]benzothieno[2',3':4,5]thieno[3,2-e:2',3'-g][2,1,3]benzoselenadiazole
_symmetry_cell_setting           triclinic
_symmetry_space_group_name_H-M   'P -1'
_symmetry_Int_Tables_number      2
_space_group_name_Hall           '-P 1'
loop_
_symmetry_equiv_pos_site_id
_symmetry_equiv_pos_as_xyz
1 x,y,z
2 -x,-y,-z
_cell_length_a                   8.8440(4)
_cell_length_b                   17.4970(10)
_cell_length_c                   19.8513(11)
_cell_angle_alpha                114.7600(10)
_cell_angle_beta                 94.7480(10)
_cell_angle_gamma                90.8860(10)
_cell_volume                     2775.62
_exptl_crystal_colour            red
_exptl_crystal_description       needle
_cell_formula_units_Z            2
loop_
_atom_site_label
_atom_site_type_symbol
_atom_site_fract_x
_atom_site_fract_y
_atom_site_fract_z
Se1 Se 0.36394(9) 0.73167(4) 0.47870(4)
S1 S 0.5883(2) 0.08547(14) 0.08100(12)
S2 S 0.55108(18) 0.47001(11) 0.27768(8)
S3 S 0.36892(17) 0.32937(10) 0.38173(8)
S4 S 0.16311(17) 0.40901(10) 0.53730(8)
S5 S 0.06530(17) 0.66193(11) 0.65671(8)
S6 S -0.2219(2) 0.44088(17) 0.79587(12)
O1 O 0.6411(5) 0.3844(4) 0.1133(2)
O2 O 0.4843(6) 0.1689(3) 0.2428(3)
O3 O -0.0391(6) 0.3774(3) 0.6530(3)
O4 O -0.1271(5) 0.7233(3) 0.7939(2)
N1 N 0.4271(6) 0.6309(3) 0.4178(3)
N2 N 0.2628(6) 0.6910(3) 0.5327(3)
C1 C 0.6425(9) 0.1138(6) 0.0127(4)
H1 H 0.661549 0.073317 -0.035332
C2 C 0.6559(8) 0.1970(6) 0.0321(4)
H2 H 0.685157 0.222490 0.000975
C3 C 0.6180(7) 0.2428(6) 0.1097(4)
C4 C 0.5784(8) 0.1903(5) 0.1424(4)
C5 C 0.5334(7) 0.2215(5) 0.2136(4)
C6 C 0.5261(7) 0.3088(4) 0.2517(3)
C7 C 0.5713(7) 0.3636(4) 0.2203(3)
C8 C 0.6157(7) 0.3323(5) 0.1487(4)
C9 C 0.4649(6) 0.3565(4) 0.3218(3)
C10 C 0.4704(6) 0.4407(4) 0.3411(3)
C11 C 0.3951(6) 0.4877(4) 0.4059(3)
C12 C 0.3346(6) 0.4339(4) 0.4332(3)
C13 C 0.2485(6) 0.4669(4) 0.4969(3)
C14 C 0.2231(6) 0.5533(4) 0.5311(3)
C15 C 0.2826(6) 0.6088(4) 0.5040(3)
C16 C 0.3716(6) 0.5759(4) 0.4403(3)
C17 C 0.1328(6) 0.5705(4) 0.5922(3)
C18 C 0.0922(6) 0.4998(4) 0.6021(3)
C19 C 0.0045(7) 0.5162(4) 0.6639(3)
C20 C -0.0175(6) 0.6044(4) 0.6993(3)
C21 C -0.0999(7) 0.6390(5) 0.7621(3)
C22 C -0.1581(7) 0.5834(5) 0.7890(4)
C23 C -0.1378(7) 0.4948(5) 0.7522(4)
C24 C -0.0558(7) 0.4619(4) 0.6895(4)
C25 C -0.2421(8) 0.6033(6) 0.8532(4)
H3 H -0.267349 0.658590 0.885025
C26 C -0.2796(9) 0.5346(7) 0.8623(4)
H4 H -0.334075 0.536592 0.902192
C27 C 0.7839(9) 0.4310(7) 0.1336(5)
H5 H 0.867715 0.392438 0.127523
H6 H 0.790877 0.472546 0.186380
C28 C 0.9352(17) 0.3660(9) -0.0120(8)
H7 H 1.018793 0.393439 0.027055
H8 H 0.967725 0.358421 -0.060348
H9 H 0.906855 0.310969 -0.013477
C29 C 0.8056(16) 0.4182(9) 0.0038(8)
H10 H 0.712031 0.380775 -0.014446
H11 H 0.806989 0.452442 -0.025214
C30 C 0.7959(13) 0.4759(7) 0.0830(6)
H12 H 0.894192 0.510486 0.100313
C31 C 0.6806(16) 0.5330(8) 0.0805(8)
H13 H 0.707819 0.557223 0.045819
H14 H 0.582627 0.499983 0.059606
C32 C 0.659(2) 0.6007(10) 0.1507(8)
H15 H 0.627103 0.578957 0.186248
H16 H 0.754217 0.636523 0.172572
C33 C 0.552(2) 0.6828(11) 0.0771(14)
H17 H 0.459596 0.711728 0.074429
H18 H 0.640505 0.723118 0.092053
H19 H 0.563471 0.637281 0.028038
C34 C 0.543(3) 0.6468(13) 0.1331(13)
H20 H 0.525607 0.694546 0.180657
H21 H 0.449276 0.609492 0.117226
C35 C 0.6053(11) 0.1426(6) 0.2791(6)
H22 H 0.656512 0.192844 0.320857
H23 H 0.680916 0.115814 0.243336
C36 C 0.516(3) -0.0380(14) 0.1989(12)
H24 H 0.564872 -0.005245 0.176114
H25 H 0.444709 -0.081188 0.161467
H26 H 0.594081 -0.065247 0.217935
C37 C 0.433(2) 0.0191(11) 0.2615(10)
H27 H 0.348254 0.044220 0.243544
H28 H 0.392930 -0.010811 0.289593
C38 C 0.5550(16) 0.0840(9) 0.3076(8)
H29 H 0.499216 0.121525 0.350090
C39 C 0.6850(17) 0.0619(10) 0.3480(8)
H30 H 0.745341 0.018657 0.312584
H31 H 0.752445 0.112283 0.379012
C40 C 0.6089(19) 0.0284(12) 0.3952(8)
H32 H 0.536636 0.068460 0.425058
H33 H 0.553450 -0.026415 0.364140
C41 C 0.736(2) 0.0182(12) 0.4446(7)
H34 H 0.815291 0.064169 0.457302
H35 H 0.783105 -0.035970 0.417321
C42 C 0.6839(11) 0.0197(17) 0.5147(9)
H36 H 0.770521 0.012918 0.545504
H37 H 0.639468 0.073721 0.542348
H38 H 0.607296 -0.026375 0.502384
C43 C 0.0852(11) 0.3476(6) 0.6844(5)
H39 H 0.078004 0.364433 0.738200
H40 H 0.183254 0.370716 0.678133
C44 C 0.360(3) 0.2277(16) 0.6375(14)
H41 H 0.436201 0.203278 0.660233
H42 H 0.353087 0.196726 0.583117
H43 H 0.389616 0.286997 0.651635
C45 C 0.209(3) 0.2216(13) 0.6642(13)
H44 H 0.186822 0.161135 0.651401
H45 H 0.223023 0.250596 0.719304
C46 C 0.0722(14) 0.2515(8) 0.6416(8)
H46 H 0.065521 0.235586 0.586759
C47 C -0.0573(17) 0.2134(9) 0.6589(8)
H47 H -0.083502 0.159046 0.615174
H48 H -0.142937 0.249736 0.660510
C48 C -0.060(2) 0.1958(13) 0.7241(8)
H49 H -0.005438 0.143384 0.712227
H50 H 0.005802 0.241224 0.764083
C49 C -0.192(2) 0.1858(18) 0.7590(10)
H51 H -0.233501 0.127562 0.727194
H52 H -0.266429 0.223132 0.750060
C50 C -0.210(3) 0.1972(16) 0.8391(9)
H53 H -0.316491 0.185104 0.843421
H54 H -0.145809 0.158424 0.850868
H55 H -0.179215 0.255383 0.874067
C51 C -0.0110(11) 0.7733(6) 0.8510(5)
H56 H 0.084010 0.776482 0.828985
H57 H 0.010367 0.748287 0.887044
C52 C -0.020(2) 0.9121(13) 0.7934(11)
H58 H 0.087907 0.919695 0.812628
H59 H -0.048823 0.960564 0.783637
H60 H -0.035623 0.860513 0.747046
C53 C -0.1116(18) 0.9054(10) 0.8480(9)
H61 H -0.126522 0.963833 0.883966
H62 H -0.212616 0.881315 0.821343
C54 C -0.0717(15) 0.8613(9) 0.8899(8)
H63 H 0.022281 0.894600 0.920181
C55 C -0.1645(19) 0.8699(10) 0.9456(8)
H64 H -0.191262 0.929613 0.966726
H65 H -0.259714 0.836362 0.919364
C56 C -0.131(2) 0.8513(12) 1.0065(9)
H66 H -0.051739 0.894751 1.038974
H67 H -0.079103 0.797554 0.986578
C57 C -0.234(3) 0.842(2) 1.0577(16)
H68 H -0.300931 0.790864 1.030413
H69 H -0.299192 0.891204 1.074348
C58 C -0.150(3) 0.8374(16) 1.1269(16)
H70 H -0.224103 0.831587 1.158698
H71 H -0.086796 0.788447 1.110997
H72 H -0.085056 0.888856 1.154962
loop_
_geom_bond_atom_site_label_1
_geom_bond_atom_site_label_2
_geom_bond_site_symmetry_1
_geom_bond_site_symmetry_2
Se1 N1 1_555 1_555
S1 C1 1_555 1_555
S2 C7 1_555 1_555
S3 C9 1_555 1_555
S4 C13 1_555 1_555
S5 C17 1_555 1_555
S6 C23 1_555 1_555
O1 C8 1_555 1_555
O2 C5 1_555 1_555
O3 C24 1_555 1_555
O4 C21 1_555 1_555
N1 C16 1_555 1_555
N2 Se1 1_555 1_555
C1 H1 1_555 1_555
C2 C1 1_555 1_555
H2 C2 1_555 1_555
C3 C2 1_555 1_555
C4 S1 1_555 1_555
C5 C4 1_555 1_555
C6 C5 1_555 1_555
C7 C6 1_555 1_555
C8 C3 1_555 1_555
C9 C6 1_555 1_555
C10 S2 1_555 1_555
C11 C10 1_555 1_555
C12 S3 1_555 1_555
C13 C12 1_555 1_555
C14 C13 1_555 1_555
C15 N2 1_555 1_555
C16 C11 1_555 1_555
C17 C14 1_555 1_555
C18 S4 1_555 1_555
C19 C18 1_555 1_555
C20 S5 1_555 1_555
C21 C20 1_555 1_555
C22 C21 1_555 1_555
C23 C22 1_555 1_555
C24 C19 1_555 1_555
C25 C22 1_555 1_555
H3 C25 1_555 1_555
C26 S6 1_555 1_555
H4 C26 1_555 1_555
C27 O1 1_555 1_555
H5 C27 1_555 1_555
H6 C27 1_555 1_555
C28 H7 1_555 1_555
H8 C28 1_555 1_555
H9 C28 1_555 1_555
C29 C28 1_555 1_555
H10 C29 1_555 1_555
H11 C29 1_555 1_555
C30 C27 1_555 1_555
H12 C30 1_555 1_555
C31 C30 1_555 1_555
H13 C31 1_555 1_555
H14 C31 1_555 1_555
C32 C31 1_555 1_555
H15 C32 1_555 1_555
H16 C32 1_555 1_555
C33 H17 1_555 1_555
H18 C33 1_555 1_555
H19 C33 1_555 1_555
C34 C32 1_555 1_555
H20 C34 1_555 1_555
H21 C34 1_555 1_555
C35 O2 1_555 1_555
H22 C35 1_555 1_555
H23 C35 1_555 1_555
C36 H24 1_555 1_555
H25 C36 1_555 1_555
H26 C36 1_555 1_555
C37 C36 1_555 1_555
H27 C37 1_555 1_555
H28 C37 1_555 1_555
C38 C35 1_555 1_555
H29 C38 1_555 1_555
C39 C38 1_555 1_555
H30 C39 1_555 1_555
H31 C39 1_555 1_555
C40 C39 1_555 1_555
H32 C40 1_555 1_555
H33 C40 1_555 1_555
C41 C40 1_555 1_555
H34 C41 1_555 1_555
H35 C41 1_555 1_555
C42 C41 1_555 1_555
H36 C42 1_555 1_555
H37 C42 1_555 1_555
H38 C42 1_555 1_555
C43 O3 1_555 1_555
H39 C43 1_555 1_555
H40 C43 1_555 1_555
C44 H41 1_555 1_555
H42 C44 1_555 1_555
H43 C44 1_555 1_555
C45 C44 1_555 1_555
H44 C45 1_555 1_555
H45 C45 1_555 1_555
C46 C43 1_555 1_555
H46 C46 1_555 1_555
C47 C46 1_555 1_555
H47 C47 1_555 1_555
H48 C47 1_555 1_555
C48 C47 1_555 1_555
H49 C48 1_555 1_555
H50 C48 1_555 1_555
C49 C48 1_555 1_555
H51 C49 1_555 1_555
H52 C49 1_555 1_555
C50 C49 1_555 1_555
H53 C50 1_555 1_555
H54 C50 1_555 1_555
H55 C50 1_555 1_555
C51 O4 1_555 1_555
H56 C51 1_555 1_555
H57 C51 1_555 1_555
C52 H58 1_555 1_555
H59 C52 1_555 1_555
H60 C52 1_555 1_555
C53 C52 1_555 1_555
H61 C53 1_555 1_555
H62 C53 1_555 1_555
C54 C51 1_555 1_555
H63 C54 1_555 1_555
C55 C54 1_555 1_555
H64 C55 1_555 1_555
H65 C55 1_555 1_555
C56 C55 1_555 1_555
H66 C56 1_555 1_555
H67 C56 1_555 1_555
C57 C56 1_555 1_555
H68 C57 1_555 1_555
H69 C57 1_555 1_555
C58 C57 1_555 1_555
H70 C58 1_555 1_555
H71 C58 1_555 1_555
H72 C58 1_555 1_555
C3 C4 1_555 1_555
C7 C8 1_555 1_555
C9 C10 1_555 1_555
C11 C12 1_555 1_555
C14 C15 1_555 1_555
C15 C16 1_555 1_555
C17 C18 1_555 1_555
C19 C20 1_555 1_555
C23 C24 1_555 1_555
C25 C26 1_555 1_555
C29 C30 1_555 1_555
C33 C34 1_555 1_555
C37 C38 1_555 1_555
C45 C46 1_555 1_555
C53 C54 1_555 1_555

#END
