
#######################################################################
#
#                 Cambridge Crystallographic Data Centre
#                                CCDC 
#
#######################################################################
#
# If this CIF has been generated from an entry in the Cambridge 
# Structural Database, then it will include bibliographic, chemical, 
# crystal, experimental, refinement or atomic coordinate data resulting 
# from the CCDC's data processing and validation procedures.
#
#######################################################################

data_PIJKAW
_chemical_formula_moiety         'C12 H16 Cl1 F8 N4 O4 P3'
_chemical_name_systematic        
17-Chloro-3,3,4,4,12,12,13,13-octafluoro-17-(pyrrolidin-1-yl)-1,6,10,15-tetraoxa-8,16,18-triaza-7\l^5^,9\l^5^,17\l^5^-triphosphadispiro[6.1.6.3]octadeca-7(18),8,16-triene
_symmetry_cell_setting           orthorhombic
_symmetry_space_group_name_H-M   'C m c 21'
_symmetry_Int_Tables_number      36
_space_group_name_Hall           'C 2n -2'
loop_
_symmetry_equiv_pos_site_id
_symmetry_equiv_pos_as_xyz
1 x,y,z
2 -x,-y,1/2+z
3 x,-y,1/2+z
4 -x,y,z
5 1/2+x,1/2+y,z
6 1/2-x,1/2-y,1/2+z
7 1/2+x,1/2-y,1/2+z
8 1/2-x,1/2+y,z
_cell_length_a                   20.1599(10)
_cell_length_b                   11.7656(6)
_cell_length_c                   8.7964(5)
_cell_angle_alpha                90
_cell_angle_beta                 90
_cell_angle_gamma                90
_cell_volume                     2086.45
_exptl_crystal_colour            colorless
_exptl_crystal_description       plate
_cell_formula_units_Z            4
loop_
_atom_site_label
_atom_site_type_symbol
_atom_site_fract_x
_atom_site_fract_y
_atom_site_fract_z
C1 C 0.32313(18) 0.3044(3) 0.0739(5)
H1 H 0.3106 0.3856 0.0693
H2 H 0.3099 0.2743 0.1746
C2 C 0.28800(19) 0.2399(4) -0.0492(5)
C3 C 0.2924(2) 0.1094(4) -0.0412(5)
C4 C 0.3617(2) 0.0597(4) -0.0248(5)
H3 H 0.3603 -0.0239 -0.0376
H4 H 0.3915 0.0918 -0.1033
C5 C 0.4400(2) 0.3824(4) 0.5967(5)
H5 H 0.4090 0.4261 0.5320
H6 H 0.4169 0.3142 0.6359
C6 C 0.4646(3) 0.4525(8) 0.7218(10)
H7 H 0.4481 0.5313 0.7103
H8 H 0.4481 0.4222 0.8197
N1 N 0.5000 0.1850(4) 0.0591(6)
N2 N 0.43235(15) 0.2200(3) 0.3215(4)
N3 N 0.5000 0.3500(4) 0.5101(5)
F1 F 0.31260(13) 0.2711(2) -0.1881(3)
F2 F 0.22297(11) 0.2698(2) -0.0499(3)
F3 F 0.25367(11) 0.0764(2) 0.0765(3)
F4 F 0.26478(13) 0.0653(2) -0.1695(3)
P1 P 0.43196(4) 0.19687(8) 0.14557(13)
P2 P 0.5000 0.23338(11) 0.41213(16)
Cl1 Cl 0.5000 0.10720(12) 0.57319(19)
O1 O 0.39320(12) 0.2930(2) 0.0549(3)
O2 O 0.38542(11) 0.0882(2) 0.1241(3)
C1C C 0.67687(18) 0.3044(3) 0.0739(5)
H1C H 0.6894 0.3856 0.0693
H2C H 0.6901 0.2743 0.1746
C2C C 0.71200(19) 0.2399(4) -0.0492(5)
C3C C 0.7076(2) 0.1094(4) -0.0412(5)
C4C C 0.6383(2) 0.0597(4) -0.0248(5)
H3C H 0.6397 -0.0239 -0.0376
H4C H 0.6085 0.0918 -0.1033
C5C C 0.5600(2) 0.3824(4) 0.5967(5)
H5C H 0.5910 0.4261 0.5320
H6C H 0.5831 0.3142 0.6359
C6C C 0.5354(3) 0.4525(8) 0.7218(10)
H7C H 0.5519 0.5313 0.7103
H8C H 0.5519 0.4222 0.8197
N2C N 0.56765(15) 0.2200(3) 0.3215(4)
F1C F 0.68740(13) 0.2711(2) -0.1881(3)
F2C F 0.77703(11) 0.2698(2) -0.0499(3)
F3C F 0.74633(11) 0.0764(2) 0.0765(3)
F4C F 0.73522(13) 0.0653(2) -0.1695(3)
P1C P 0.56804(4) 0.19687(8) 0.14557(13)
O1C O 0.60680(12) 0.2930(2) 0.0549(3)
O2C O 0.61458(11) 0.0882(2) 0.1241(3)
loop_
_geom_bond_atom_site_label_1
_geom_bond_atom_site_label_2
_geom_bond_site_symmetry_1
_geom_bond_site_symmetry_2
C1 H1 1_555 1_555
H2 C1 1_555 1_555
C2 C1 1_555 1_555
C3 C2 1_555 1_555
C4 C3 1_555 1_555
H3 C4 1_555 1_555
H4 C4 1_555 1_555
C5 H5 1_555 1_555
H6 C5 1_555 1_555
C6 C5 1_555 1_555
H7 C6 1_555 1_555
H8 C6 1_555 1_555
N1 P1 1_555 1_555
N2 P1 1_555 1_555
N3 C5 1_555 1_555
F1 C2 1_555 1_555
F2 C2 1_555 1_555
F3 C3 1_555 1_555
F4 C3 1_555 1_555
P1 O1 1_555 1_555
P2 N2 1_555 1_555
Cl1 P2 1_555 1_555
O1 C1 1_555 1_555
O2 C4 1_555 1_555
C1C H1C 1_555 1_555
H2C C1C 1_555 1_555
C2C C1C 1_555 1_555
C3C C2C 1_555 1_555
C4C C3C 1_555 1_555
H3C C4C 1_555 1_555
H4C C4C 1_555 1_555
C5C N3 1_555 1_555
H5C C5C 1_555 1_555
H6C C5C 1_555 1_555
C6C C6 1_555 1_555
H7C C6C 1_555 1_555
H8C C6C 1_555 1_555
N2C P2 1_555 1_555
F1C C2C 1_555 1_555
F2C C2C 1_555 1_555
F3C C3C 1_555 1_555
F4C C3C 1_555 1_555
P1C N1 1_555 1_555
O1C C1C 1_555 1_555
O2C C4C 1_555 1_555
N3 P2 1_555 1_555
P1 O2 1_555 1_555
C5C C6C 1_555 1_555
N2C P1C 1_555 1_555
P1C O1C 1_555 1_555
P1C O2C 1_555 1_555

#END
