
#######################################################################
#
#                 Cambridge Crystallographic Data Centre
#                                CCDC 
#
#######################################################################
#
# If this CIF has been generated from an entry in the Cambridge 
# Structural Database, then it will include bibliographic, chemical, 
# crystal, experimental, refinement or atomic coordinate data resulting 
# from the CCDC's data processing and validation procedures.
#
#######################################################################

data_PIJMAY
_chemical_formula_moiety         'C28 H44 Ca1 O2'
_chemical_name_systematic        
(\h^5^,\h^5^-1,2-bis(2,3,4,5-tetramethylcyclopentadienyl)ethane)-bis(tetrahydrofuran)-calcium
_symmetry_cell_setting           orthorhombic
_symmetry_space_group_name_H-M   'I b a m'
_symmetry_Int_Tables_number      72
_space_group_name_Hall           '-I 2 2c'
loop_
_symmetry_equiv_pos_site_id
_symmetry_equiv_pos_as_xyz
1 x,y,z
2 -x,-y,z
3 x,-y,1/2-z
4 -x,y,1/2-z
5 1/2+x,1/2+y,1/2+z
6 1/2-x,1/2-y,1/2+z
7 1/2+x,1/2-y,-z
8 1/2-x,1/2+y,-z
9 -x,-y,-z
10 x,y,-z
11 -x,y,1/2+z
12 x,-y,1/2+z
13 1/2-x,1/2-y,1/2-z
14 1/2+x,1/2+y,1/2-z
15 1/2-x,1/2+y,z
16 1/2+x,1/2-y,z
_cell_length_a                   16.1497(3)
_cell_length_b                   22.1737(4)
_cell_length_c                   14.2704(2)
_cell_angle_alpha                90
_cell_angle_beta                 90
_cell_angle_gamma                90
_cell_volume                     5110.21
_exptl_crystal_colour            colorless
_exptl_crystal_description       prism
_cell_formula_units_Z            8
loop_
_atom_site_label
_atom_site_type_symbol
_atom_site_fract_x
_atom_site_fract_y
_atom_site_fract_z
C1 C 0.55047(11) 0.07903(8) 0.38802(14)
H1 H 0.5027 0.0948 0.3521
H2 H 0.5303 0.0455 0.4278
C2 C 0.58351(9) 0.12840(7) 0.45018(12)
C3 C 0.61335(10) 0.18538(7) 0.41979(12)
C4 C 0.63175(15) 0.22020(10) 0.5000
C5 C 0.61348(13) 0.20881(9) 0.32087(14)
H3 H 0.5699 0.2392 0.3138
H4 H 0.6032 0.1754 0.2774
H5 H 0.6674 0.2270 0.3070
C6 C 0.65275(19) 0.28622(12) 0.5000
C7 C 0.6175(2) 0.05365(17) 0.3169(3)
C8 C 0.67744(19) -0.03408(13) 0.5000
H6 H 0.6723 -0.0146 0.5613
H7 H 0.6222 -0.0415 0.4741
H8 H 0.7067 -0.0725 0.5070
C9 C 0.86785(17) -0.02271(12) 0.5000
H9 H 0.9242 -0.0063 0.4997
H10 H 0.8468 -0.0235 0.5644
H11 H 0.8685 -0.0638 0.4747
C10 C 0.88906(15) 0.29588(9) 0.44737(9)
H12 H 0.9379 0.3173 0.4219
H13 H 0.8380 0.3144 0.4219
Ca1 Ca 0.74248(3) 0.122773(19) 0.5000
O1 O 0.84535(12) 0.19960(8) 0.5000
C11 C 0.7040(2) 0.04703(14) 0.3557(2)
C12 C 0.72603(19) 0.00698(13) 0.4337(2)
C13 C 0.81345(19) 0.01588(13) 0.4413(2)
C14 C 0.8444(2) 0.05773(15) 0.3770(2)
C15 C 0.7750(3) 0.07736(16) 0.3205(4)
C16 C 0.9341(2) 0.07432(19) 0.3629(3)
H14 H 0.9381 0.1070 0.3168
H15 H 0.9578 0.0877 0.4226
H16 H 0.9647 0.0391 0.3401
C17 C 0.7813(3) 0.1180(2) 0.2388(4)
H17 H 0.8376 0.1164 0.2134
H18 H 0.7418 0.1052 0.1905
H19 H 0.7685 0.1593 0.2582
H20 H 0.590(3) 0.018(2) 0.296(4)
H21 H 0.620(3) 0.080(2) 0.255(4)
C18 C 0.8928(4) 0.22946(13) 0.4268(3)
H22 H 0.8685 0.2208 0.3645
H23 H 0.9508 0.2152 0.4272
C1I C 0.55047(11) 0.07903(8) 0.61198(14)
H1I H 0.5027 0.0948 0.6479
H2I H 0.5303 0.0455 0.5722
C2I C 0.58351(9) 0.12840(7) 0.54982(12)
C3I C 0.61335(10) 0.18538(7) 0.58021(12)
C5I C 0.61348(13) 0.20881(9) 0.67913(14)
H3I H 0.5699 0.2392 0.6862
H4I H 0.6032 0.1754 0.7226
H5I H 0.6674 0.2270 0.6930
C7I C 0.6175(2) 0.05365(17) 0.6831(3)
H6I H 0.6723 -0.0146 0.4387
H7I H 0.6222 -0.0415 0.5259
H8I H 0.7067 -0.0725 0.4930
H10I H 0.8468 -0.0235 0.4356
H11I H 0.8685 -0.0638 0.5253
C11I C 0.7040(2) 0.04703(14) 0.6443(2)
C12I C 0.72603(19) 0.00698(13) 0.5663(2)
C13I C 0.81345(19) 0.01588(13) 0.5587(2)
C14I C 0.8444(2) 0.05773(15) 0.6230(2)
C15I C 0.7750(3) 0.07736(16) 0.6795(4)
C16I C 0.9341(2) 0.07432(19) 0.6371(3)
H14I H 0.9381 0.1070 0.6832
H15I H 0.9578 0.0877 0.5774
H16I H 0.9647 0.0391 0.6599
C17I C 0.7813(3) 0.1180(2) 0.7612(4)
H17I H 0.8376 0.1164 0.7866
H18I H 0.7418 0.1052 0.8095
H19I H 0.7685 0.1593 0.7418
H20I H 0.590(3) 0.018(2) 0.704(4)
H21I H 0.620(3) 0.080(2) 0.745(4)
C10I C 0.88906(15) 0.29588(9) 0.55263(9)
H12I H 0.9379 0.3173 0.5781
H13I H 0.8380 0.3144 0.5781
C18I C 0.8928(4) 0.22946(13) 0.5732(3)
H22I H 0.8685 0.2208 0.6355
H23I H 0.9508 0.2152 0.5728
C19? C 0.55047(11) 0.07903(8) 0.38802(14)
H24? H 0.5340 0.0445 0.4266
H25? H 0.5936 0.0665 0.3438
H26? H 0.5023 0.0940 0.3532
H27? H 0.8544 0.3293 0.4233
H28? H 0.9461 0.3011 0.4233
C20? C 0.8893(3) 0.0907(2) 0.3321(3)
H29? H 0.9114 0.0493 0.3388
H30? H 0.9224 0.1183 0.3718
C21? C 0.8915(2) 0.1106(2) 0.2303(3)
H31? H 0.9203 0.0804 0.1909
H32? H 0.9200 0.1500 0.2238
C22? C 0.8001(3) 0.1159(3) 0.2026(4)
H33? H 0.7817 0.1585 0.2030
H34? H 0.7902 0.0986 0.1397
C23? C 0.7563(3) 0.0801(2) 0.2768(4)
H35? H 0.6983 0.0936 0.2843
H36? H 0.7570 0.0365 0.2622
O2? O 0.8037(2) 0.09293(13) 0.35768(18)
C24? C 0.8546(4) 0.23631(16) 0.4161(2)
H37? H 0.8003 0.2420 0.3851
H38? H 0.8927 0.2166 0.3713
H39? H 0.6049 0.3094 0.4780
H40? H 0.6671 0.2989 0.5637
H41? H 0.6999 0.2934 0.4583
loop_
_geom_bond_atom_site_label_1
_geom_bond_atom_site_label_2
_geom_bond_site_symmetry_1
_geom_bond_site_symmetry_2
C1 H1 1_555 1_555
H2 C1 1_555 1_555
C2 C1 1_555 1_555
C3 C2 1_555 1_555
C4 C3 1_555 1_555
C5 C3 1_555 1_555
H3 C5 1_555 1_555
H4 C5 1_555 1_555
H5 C5 1_555 1_555
C6 C4 1_555 1_555
C7 C1 1_555 1_555
C8 H6 1_555 1_555
H6 C12I 1_555 1_555
H7 C8 1_555 1_555
H8 C8 1_555 1_555
C9 H9 1_555 1_555
H10 C9 1_555 1_555
H11 C9 1_555 1_555
C10 H12 1_555 1_555
H13 C10 1_555 1_555
Ca1 C2 1_555 1_555
O1 Ca1 1_555 1_555
C11 C7 1_555 1_555
C12 C8 1_555 1_555
C13 C9 1_555 1_555
C14 Ca1 1_555 1_555
C15 Ca1 1_555 1_555
C16 C14 1_555 1_555
H14 C16 1_555 1_555
H15 C16 1_555 1_555
H16 C16 1_555 1_555
C17 C15 1_555 1_555
H17 C17 1_555 1_555
H18 C17 1_555 1_555
H19 C17 1_555 1_555
H20 C7 1_555 1_555
H21 C7 1_555 1_555
C18 C10 1_555 1_555
H22 C18 1_555 1_555
H23 C18 1_555 1_555
C1I H1I 1_555 1_555
H2I C1I 1_555 1_555
C2I C2 1_555 1_555
C3I C4 1_555 1_555
C5I C3I 1_555 1_555
H3I C5I 1_555 1_555
H4I C5I 1_555 1_555
H5I C5I 1_555 1_555
C7I C1I 1_555 1_555
H6I C8 1_555 1_555
H7I C8 1_555 1_555
H8I C8 1_555 1_555
H10I C9 1_555 1_555
H11I C9 1_555 1_555
C11I Ca1 1_555 1_555
C12I C8 1_555 1_555
C13I C9 1_555 1_555
C14I Ca1 1_555 1_555
C15I Ca1 1_555 1_555
C16I C14I 1_555 1_555
H14I C16I 1_555 1_555
H15I C16I 1_555 1_555
H16I C16I 1_555 1_555
C17I C15I 1_555 1_555
H17I C17I 1_555 1_555
H18I C17I 1_555 1_555
H19I C17I 1_555 1_555
H20I C7I 1_555 1_555
H21I C7I 1_555 1_555
C10I C10 1_555 1_555
H12I C10I 1_555 1_555
H13I C10I 1_555 1_555
C18I O1 1_555 1_555
H22I C18I 1_555 1_555
H23I C18I 1_555 1_555
C3 Ca1 1_555 1_555
C4 Ca1 1_555 1_555
H10 C13I 1_555 1_555
Ca1 C11 1_555 1_555
Ca1 C12 1_555 1_555
Ca1 C13 1_555 1_555
Ca1 C2I 1_555 1_555
Ca1 C3I 1_555 1_555
Ca1 C12I 1_555 1_555
Ca1 C13I 1_555 1_555
O1 C18 1_555 1_555
C11 C12 1_555 1_555
C11 C15 1_555 1_555
C12 C13 1_555 1_555
C12 H6I 1_555 1_555
C13 C14 1_555 1_555
C13 H10I 1_555 1_555
C13 C13I 1_555 1_555
C14 C15 1_555 1_555
C1I C2I 1_555 1_555
C2I C3I 1_555 1_555
C7I C11I 1_555 1_555
C11I C12I 1_555 1_555
C11I C15I 1_555 1_555
C12I C13I 1_555 1_555
C13I C14I 1_555 1_555
C14I C15I 1_555 1_555
C10I C18I 1_555 1_555

#END
