
#######################################################################
#
#                 Cambridge Crystallographic Data Centre
#                                CCDC 
#
#######################################################################
#
# If this CIF has been generated from an entry in the Cambridge 
# Structural Database, then it will include bibliographic, chemical, 
# crystal, experimental, refinement or atomic coordinate data resulting 
# from the CCDC's data processing and validation procedures.
#
#######################################################################

data_PIJXUE
_chemical_formula_moiety         'C38 H54 Li2 N4 O2'
_chemical_name_systematic        
bis(\m-2-(adamantyliminomethyl)pyrrolyl)-bis(tetrahydrofuran)-di-lithium
_symmetry_cell_setting           monoclinic
_symmetry_space_group_name_H-M   'P 21/c'
_symmetry_Int_Tables_number      14
_space_group_name_Hall           '-P 2ybc'
loop_
_symmetry_equiv_pos_site_id
_symmetry_equiv_pos_as_xyz
1 x,y,z
2 -x,1/2+y,1/2-z
3 -x,-y,-z
4 x,1/2-y,1/2+z
_cell_length_a                   11.4708(4)
_cell_length_b                   10.5272(3)
_cell_length_c                   14.4429(4)
_cell_angle_alpha                90
_cell_angle_beta                 105.612(3)
_cell_angle_gamma                90
_cell_volume                     1679.71
_exptl_crystal_colour            colorless
_exptl_crystal_description       block
_cell_formula_units_Z            2
loop_
_atom_site_label
_atom_site_type_symbol
_atom_site_fract_x
_atom_site_fract_y
_atom_site_fract_z
C1 C 0.0856(2) 0.3282(2) 0.28699(15)
H1 H 0.1104 0.2932 0.3514
H2 H 0.1163 0.2746 0.2442
C2 C -0.07292(17) 0.4685(2) 0.20067(14)
H3 H -0.1207 0.4574 0.1347
H4 H -0.1158 0.5256 0.2327
C3 C -0.0519(2) 0.3415(2) 0.25198(16)
H5 H -0.0867 0.2730 0.2084
H6 H -0.0876 0.3406 0.3057
C4 C 0.12860(18) 0.4630(2) 0.28527(13)
H7 H 0.1271 0.5072 0.3439
H8 H 0.2104 0.4652 0.2783
Li1 Li 0.0717(3) 0.5444(3) 0.0776(2)
N1 N 0.07279(12) 0.36112(13) 0.01357(10)
C5 C -0.48298(15) 0.11817(16) -0.12755(13)
H9 H -0.5014 0.0274 -0.1368
C6 C -0.37299(15) 0.33042(16) -0.00359(12)
H10 H -0.3399 0.2864 0.0568
H11 H -0.3545 0.4201 0.0067
C7 C 0.19410(15) 0.33816(17) 0.04140(12)
C8 C -0.36907(15) 0.34780(17) -0.17527(12)
H12 H -0.3502 0.4376 -0.1676
H13 H -0.3338 0.3147 -0.2243
C9 C -0.34521(15) 0.13620(16) -0.09443(13)
H14 H -0.3088 0.1014 -0.1423
H15 H -0.3125 0.0909 -0.0346
C10 C 0.22056(15) 0.21323(17) 0.06962(12)
H16 H 0.2969 0.1768 0.0913
C11 C -0.10778(15) 0.22537(16) -0.00610(12)
C12 C -0.51081(15) 0.31209(17) -0.03582(13)
H17 H -0.5468 0.3457 0.0135
C13 C -0.53990(16) 0.17021(17) -0.05079(13)
H18 H -0.5081 0.1248 0.0092
H19 H -0.6269 0.1580 -0.0710
C14 C 0.02068(14) 0.24578(15) 0.02425(11)
C15 C -0.56305(15) 0.38208(18) -0.13047(15)
H20 H -0.5460 0.4722 -0.1216
H21 H -0.6502 0.3709 -0.1508
C16 C -0.50693(16) 0.33005(17) -0.20748(13)
H22 H -0.5403 0.3755 -0.2680
C17 C -0.53553(16) 0.18800(18) -0.22222(13)
H23 H -0.6225 0.1754 -0.2432
H24 H -0.5006 0.1546 -0.2714
O1 O 0.04483(11) 0.51958(12) 0.20332(8)
N2 N -0.18375(12) 0.30959(13) -0.05071(10)
C18 C -0.31408(14) 0.27869(15) -0.07979(12)
C19 C 0.10900(15) 0.15320(16) 0.05884(12)
H25 H 0.0961 0.0687 0.0720
H26 H -0.1311(17) 0.1407(19) 0.0099(14)
H27 H 0.2502(18) 0.405(2) 0.0406(14)
C1B C -0.0856(2) 0.6718(2) -0.28699(15)
H1B H -0.1104 0.7068 -0.3514
H2B H -0.1163 0.7254 -0.2442
C2B C 0.07292(17) 0.5315(2) -0.20067(14)
H3B H 0.1207 0.5426 -0.1347
H4B H 0.1158 0.4744 -0.2327
C3B C 0.0519(2) 0.6585(2) -0.25198(16)
H5B H 0.0867 0.7270 -0.2084
H6B H 0.0876 0.6594 -0.3057
C4B C -0.12860(18) 0.5370(2) -0.28527(13)
H7B H -0.1271 0.4928 -0.3439
H8B H -0.2104 0.5348 -0.2783
Li1B Li -0.0717(3) 0.4556(3) -0.0776(2)
N1B N -0.07279(12) 0.63888(13) -0.01357(10)
C5B C 0.48298(15) 0.88183(16) 0.12755(13)
H9B H 0.5014 0.9726 0.1368
C6B C 0.37299(15) 0.66958(16) 0.00359(12)
H10B H 0.3399 0.7136 -0.0568
H11B H 0.3545 0.5799 -0.0067
C7B C -0.19410(15) 0.66184(17) -0.04140(12)
C8B C 0.36907(15) 0.65220(17) 0.17527(12)
H12B H 0.3502 0.5624 0.1676
H13B H 0.3338 0.6853 0.2243
C9B C 0.34521(15) 0.86380(16) 0.09443(13)
H14B H 0.3088 0.8986 0.1423
H15B H 0.3125 0.9091 0.0346
C10B C -0.22056(15) 0.78677(17) -0.06962(12)
H16B H -0.2969 0.8232 -0.0913
C11B C 0.10778(15) 0.77463(16) 0.00610(12)
C12B C 0.51081(15) 0.68791(17) 0.03582(13)
H17B H 0.5468 0.6543 -0.0135
C13B C 0.53990(16) 0.82979(17) 0.05079(13)
H18B H 0.5081 0.8752 -0.0092
H19B H 0.6269 0.8420 0.0710
C14B C -0.02068(14) 0.75422(15) -0.02425(11)
C15B C 0.56305(15) 0.61792(18) 0.13047(15)
H20B H 0.5460 0.5278 0.1216
H21B H 0.6502 0.6291 0.1508
C16B C 0.50693(16) 0.66995(17) 0.20748(13)
H22B H 0.5403 0.6245 0.2680
C17B C 0.53553(16) 0.81200(18) 0.22222(13)
H23B H 0.6225 0.8246 0.2432
H24B H 0.5006 0.8454 0.2714
O1B O -0.04483(11) 0.48042(12) -0.20332(8)
N2B N 0.18375(12) 0.69041(13) 0.05071(10)
C18B C 0.31408(14) 0.72131(15) 0.07979(12)
C19B C -0.10900(15) 0.84680(16) -0.05884(12)
H25B H -0.0961 0.9313 -0.0720
H26B H 0.1311(17) 0.8593(19) -0.0099(14)
H27B H -0.2502(18) 0.595(2) -0.0406(14)
loop_
_geom_bond_atom_site_label_1
_geom_bond_atom_site_label_2
_geom_bond_site_symmetry_1
_geom_bond_site_symmetry_2
C1 H1 1_555 1_555
H2 C1 1_555 1_555
C2 H3 1_555 1_555
H4 C2 1_555 1_555
C3 C1 1_555 1_555
H5 C3 1_555 1_555
H6 C3 1_555 1_555
C4 C1 1_555 1_555
H7 C4 1_555 1_555
H8 C4 1_555 1_555
Li1 N1 1_555 1_555
N1 C7 1_555 1_555
C5 H9 1_555 1_555
C6 H10 1_555 1_555
H11 C6 1_555 1_555
C7 C10 1_555 1_555
C8 H12 1_555 1_555
H13 C8 1_555 1_555
C9 C5 1_555 1_555
H14 C9 1_555 1_555
H15 C9 1_555 1_555
C10 H16 1_555 1_555
C11 C14 1_555 1_555
C12 C6 1_555 1_555
H17 C12 1_555 1_555
C13 C5 1_555 1_555
H18 C13 1_555 1_555
H19 C13 1_555 1_555
C14 N1 1_555 1_555
C15 C12 1_555 1_555
H20 C15 1_555 1_555
H21 C15 1_555 1_555
C16 C8 1_555 1_555
H22 C16 1_555 1_555
C17 C5 1_555 1_555
H23 C17 1_555 1_555
H24 C17 1_555 1_555
O1 C2 1_555 1_555
N2 C11 1_555 1_555
C18 C6 1_555 1_555
C19 C10 1_555 1_555
H25 C19 1_555 1_555
H26 C11 1_555 1_555
H27 C7 1_555 1_555
C1B H1B 1_555 1_555
H2B C1B 1_555 1_555
C2B H3B 1_555 1_555
H4B C2B 1_555 1_555
C3B C1B 1_555 1_555
H5B C3B 1_555 1_555
H6B C3B 1_555 1_555
C4B C1B 1_555 1_555
H7B C4B 1_555 1_555
H8B C4B 1_555 1_555
Li1B N1 1_555 1_555
N1B Li1 1_555 1_555
C5B H9B 1_555 1_555
C6B H10B 1_555 1_555
H11B C6B 1_555 1_555
C7B N1B 1_555 1_555
C8B H12B 1_555 1_555
H13B C8B 1_555 1_555
C9B C5B 1_555 1_555
H14B C9B 1_555 1_555
H15B C9B 1_555 1_555
C10B C7B 1_555 1_555
H16B C10B 1_555 1_555
C11B C14B 1_555 1_555
C12B C6B 1_555 1_555
H17B C12B 1_555 1_555
C13B C5B 1_555 1_555
H18B C13B 1_555 1_555
H19B C13B 1_555 1_555
C14B N1B 1_555 1_555
C15B C12B 1_555 1_555
H20B C15B 1_555 1_555
H21B C15B 1_555 1_555
C16B C8B 1_555 1_555
H22B C16B 1_555 1_555
C17B C5B 1_555 1_555
H23B C17B 1_555 1_555
H24B C17B 1_555 1_555
O1B C2B 1_555 1_555
N2B Li1 1_555 1_555
C18B C6B 1_555 1_555
C19B C10B 1_555 1_555
H25B C19B 1_555 1_555
H26B C11B 1_555 1_555
H27B C7B 1_555 1_555
C2 C3 1_555 1_555
C4 O1 1_555 1_555
Li1 O1 1_555 1_555
C8 C18 1_555 1_555
C9 C18 1_555 1_555
C12 C13 1_555 1_555
C14 C19 1_555 1_555
C15 C16 1_555 1_555
C16 C17 1_555 1_555
N2 C18 1_555 1_555
N2 Li1B 1_555 1_555
C2B C3B 1_555 1_555
C4B O1B 1_555 1_555
Li1B N1B 1_555 1_555
Li1B O1B 1_555 1_555
C8B C18B 1_555 1_555
C9B C18B 1_555 1_555
C11B N2B 1_555 1_555
C12B C13B 1_555 1_555
C14B C19B 1_555 1_555
C15B C16B 1_555 1_555
C16B C17B 1_555 1_555
N2B C18B 1_555 1_555

#END
