
#######################################################################
#
#                 Cambridge Crystallographic Data Centre
#                                CCDC 
#
#######################################################################
#
# If this CIF has been generated from an entry in the Cambridge 
# Structural Database, then it will include bibliographic, chemical, 
# crystal, experimental, refinement or atomic coordinate data resulting 
# from the CCDC's data processing and validation procedures.
#
#######################################################################

data_PIJYEP
_chemical_formula_moiety         'C38 H54 Mg1 N4 O2,2(C4 H8 O1)'
_chemical_name_systematic        
'bis(tetrahydrofuran)-bis[2-(adamantyliminomethyl)pyrrolyl]-magnesium tetrahydrofuran solvate'
_symmetry_cell_setting           monoclinic
_symmetry_space_group_name_H-M   'P 21/c'
_symmetry_Int_Tables_number      14
_space_group_name_Hall           '-P 2ybc'
loop_
_symmetry_equiv_pos_site_id
_symmetry_equiv_pos_as_xyz
1 x,y,z
2 -x,1/2+y,1/2-z
3 -x,-y,-z
4 x,1/2-y,1/2+z
_cell_length_a                   11.1013(4)
_cell_length_b                   37.9808(18)
_cell_length_c                   10.1334(3)
_cell_angle_alpha                90
_cell_angle_beta                 94.099(3)
_cell_angle_gamma                90
_cell_volume                     4261.68
_exptl_crystal_colour            colorless
_exptl_crystal_description       needle
_cell_formula_units_Z            4
loop_
_atom_site_label
_atom_site_type_symbol
_atom_site_fract_x
_atom_site_fract_y
_atom_site_fract_z
Mg1 Mg 0.65148(8) 0.10592(2) 0.92168(8)
O1 O 0.51960(19) 0.13877(6) 1.01147(19)
O2 O 0.67334(18) 0.08234(5) 1.11735(18)
N1 N 0.5076(2) 0.07151(6) 0.8526(2)
N2 N 0.5974(2) 0.12981(6) 0.7210(2)
N3 N 0.7975(2) 0.14023(6) 0.9831(2)
N4 N 0.8133(2) 0.07408(6) 0.8644(2)
C1 C 0.4403(3) 0.04344(7) 0.8835(3)
H1 H 0.4514 0.0310 0.9625
C2 C 0.3523(3) 0.03526(8) 0.7833(3)
H2 H 0.2962 0.0171 0.7831
C3 C 0.3656(3) 0.05995(8) 0.6831(3)
H3 H 0.3200 0.0615 0.6027
C4 C 0.4610(3) 0.08174(7) 0.7280(3)
C5 C 0.5096(2) 0.11158(7) 0.6651(3)
H4 H 0.4773 0.1181 0.5814
C6 C 0.6419(3) 0.16142(7) 0.6544(2)
C7 C 0.7777(3) 0.15718(7) 0.6422(3)
H5 H 0.7921 0.1373 0.5853
H6 H 0.8176 0.1525 0.7287
C8 C 0.5801(3) 0.16880(7) 0.5159(3)
H7 H 0.5916 0.1489 0.4583
H8 H 0.4941 0.1720 0.5225
C9 C 0.8308(3) 0.19080(8) 0.5842(3)
H9 H 0.9178 0.1878 0.5776
C10 C 0.8087(3) 0.22201(8) 0.6745(3)
H10 H 0.8478 0.2178 0.7618
H11 H 0.8430 0.2432 0.6390
C11 C 0.6735(3) 0.22691(8) 0.6846(3)
H12 H 0.6596 0.2470 0.7424
C12 C 0.6119(3) 0.23383(8) 0.5467(3)
H13 H 0.6446 0.2551 0.5097
H14 H 0.5259 0.2371 0.5529
C13 C 0.6342(3) 0.20218(7) 0.4570(3)
H15 H 0.5949 0.2065 0.3687
C14 C 0.7694(3) 0.19758(8) 0.4461(3)
H16 H 0.8027 0.2186 0.4085
H17 H 0.7839 0.1779 0.3883
C15 C 0.6193(3) 0.19347(7) 0.7425(3)
H18 H 0.5332 0.1966 0.7484
H19 H 0.6559 0.1894 0.8310
C16 C 0.8257(3) 0.17141(8) 1.0420(3)
H20 H 0.7695 0.1868 1.0736
C17 C 0.9493(4) 0.17742(10) 1.0492(4)
H21 H 0.9896 0.1971 1.0843
C18 C 1.0007(3) 0.14816(10) 0.9936(4)
H22 H 1.0824 0.1442 0.9846
C19 C 0.9056(3) 0.12593(8) 0.9539(3)
C20 C 0.9098(3) 0.09196(8) 0.8933(3)
H23 H 0.9840 0.0826 0.8745
C21 C 0.8209(3) 0.03840(7) 0.8069(2)
C22 C 0.9483(3) 0.02661(8) 0.7747(3)
H24 H 0.9800 0.0428 0.7119
H25 H 1.0018 0.0270 0.8547
C23 C 0.9441(3) -0.01074(9) 0.7161(3)
H26 H 1.0256 -0.0179 0.6962
C24 C 0.8955(3) -0.03645(8) 0.8164(3)
H27 H 0.8932 -0.0601 0.7801
H28 H 0.9484 -0.0366 0.8969
C25 C 0.7687(3) -0.02514(8) 0.8475(3)
H29 H 0.7374 -0.0416 0.9111
C26 C 0.6856(3) -0.02512(8) 0.7205(3)
H30 H 0.6806 -0.0487 0.6840
H31 H 0.6051 -0.0179 0.7403
C27 C 0.7343(3) 0.00007(8) 0.6195(3)
H32 H 0.6809 -0.0002 0.5382
C28 C 0.7730(3) 0.01211(7) 0.9066(3)
H33 H 0.8253 0.0123 0.9875
H34 H 0.6927 0.0191 0.9282
C29 C 0.7382(3) 0.03744(8) 0.6788(3)
H35 H 0.7678 0.0539 0.6153
H36 H 0.6573 0.0446 0.6974
C30 C 0.8609(3) -0.01125(9) 0.5888(3)
H37 H 0.8918 0.0046 0.5243
H38 H 0.8584 -0.0348 0.5515
C31 C 0.5375(3) 0.15785(9) 1.1339(3)
H39 H 0.5550 0.1824 1.1174
H40 H 0.6040 0.1479 1.1891
C32 C 0.4232(4) 0.15433(15) 1.1984(4)
H41 H 0.4080 0.1750 1.2506
H42 H 0.4248 0.1338 1.2553
C33 C 0.3288(4) 0.1505(2) 1.0846(4)
H43 H 0.2738 0.1314 1.1015
H44 H 0.2825 0.1720 1.0723
C34 C 0.3938(3) 0.14287(11) 0.9671(3)
H45 H 0.3632 0.1215 0.9247
H46 H 0.3839 0.1621 0.9041
C35 C 0.7851(3) 0.08064(10) 1.1997(3)
H47 H 0.8260 0.1032 1.2006
H48 H 0.8382 0.0630 1.1662
C36 C 0.7534(3) 0.07121(13) 1.3349(3)
H49 H 0.7813 0.0893 1.3975
H50 H 0.7908 0.0490 1.3621
C37 C 0.6189(3) 0.06814(9) 1.3305(3)
H51 H 0.5830 0.0891 1.3656
H52 H 0.5946 0.0478 1.3802
C38 C 0.5831(3) 0.06389(8) 1.1837(3)
H53 H 0.5815 0.0392 1.1591
H54 H 0.5039 0.0739 1.1617
O3 O 0.2477(3) 0.14080(12) 0.4763(4)
C39 C 0.1600(6) 0.12896(16) 0.3888(6)
H55 H 0.1904 0.1088 0.3425
H56 H 0.1408 0.1472 0.3238
C40 C 0.0485(5) 0.11861(16) 0.4488(7)
H57 H 0.0225 0.0952 0.4213
H58 H -0.0164 0.1352 0.4278
C41 C 0.0912(6) 0.11969(17) 0.5963(7)
H59 H 0.0281 0.1279 0.6501
H60 H 0.1198 0.0969 0.6282
C42 C 0.1937(6) 0.14620(17) 0.5928(5)
H61 H 0.1626 0.1700 0.5961
H62 H 0.2517 0.1427 0.6679
O4 O 0.3242(6) 0.2525(2) 0.3261(10)
C43 C 0.2444(8) 0.2292(2) 0.3806(14)
H63 H 0.2708 0.2250 0.4726
H64 H 0.2462 0.2069 0.3342
C44 C 0.1239(6) 0.2422(2) 0.3728(8)
H65 H 0.0997 0.2494 0.4589
H66 H 0.0672 0.2249 0.3352
C45 C 0.1336(7) 0.2717(2) 0.2867(9)
H67 H 0.0919 0.2918 0.3209
H68 H 0.0967 0.2661 0.1995
C46 C 0.2585(6) 0.27974(16) 0.2785(8)
H69 H 0.2749 0.2841 0.1871
H70 H 0.2794 0.3008 0.3294
loop_
_geom_bond_atom_site_label_1
_geom_bond_atom_site_label_2
_geom_bond_site_symmetry_1
_geom_bond_site_symmetry_2
Mg1 O1 1_555 1_555
O1 C31 1_555 1_555
O2 Mg1 1_555 1_555
N1 Mg1 1_555 1_555
N2 Mg1 1_555 1_555
N3 Mg1 1_555 1_555
N4 Mg1 1_555 1_555
C1 N1 1_555 1_555
H1 C1 1_555 1_555
C2 C1 1_555 1_555
H2 C2 1_555 1_555
C3 C2 1_555 1_555
H3 C3 1_555 1_555
C4 N1 1_555 1_555
C5 N2 1_555 1_555
H4 C5 1_555 1_555
C6 N2 1_555 1_555
C7 C6 1_555 1_555
H5 C7 1_555 1_555
H6 C7 1_555 1_555
C8 C6 1_555 1_555
H7 C8 1_555 1_555
H8 C8 1_555 1_555
C9 C7 1_555 1_555
H9 C9 1_555 1_555
C10 C9 1_555 1_555
H10 C10 1_555 1_555
H11 C10 1_555 1_555
C11 C10 1_555 1_555
H12 C11 1_555 1_555
C12 C11 1_555 1_555
H13 C12 1_555 1_555
H14 C12 1_555 1_555
C13 C8 1_555 1_555
H15 C13 1_555 1_555
C14 C9 1_555 1_555
H16 C14 1_555 1_555
H17 C14 1_555 1_555
C15 C6 1_555 1_555
H18 C15 1_555 1_555
H19 C15 1_555 1_555
C16 N3 1_555 1_555
H20 C16 1_555 1_555
C17 C16 1_555 1_555
H21 C17 1_555 1_555
C18 C17 1_555 1_555
H22 C18 1_555 1_555
C19 N3 1_555 1_555
C20 N4 1_555 1_555
H23 C20 1_555 1_555
C21 N4 1_555 1_555
C22 C21 1_555 1_555
H24 C22 1_555 1_555
H25 C22 1_555 1_555
C23 C22 1_555 1_555
H26 C23 1_555 1_555
C24 C23 1_555 1_555
H27 C24 1_555 1_555
H28 C24 1_555 1_555
C25 C24 1_555 1_555
H29 C25 1_555 1_555
C26 C25 1_555 1_555
H30 C26 1_555 1_555
H31 C26 1_555 1_555
C27 C26 1_555 1_555
H32 C27 1_555 1_555
C28 C21 1_555 1_555
H33 C28 1_555 1_555
H34 C28 1_555 1_555
C29 C21 1_555 1_555
H35 C29 1_555 1_555
H36 C29 1_555 1_555
C30 C23 1_555 1_555
H37 C30 1_555 1_555
H38 C30 1_555 1_555
C31 H39 1_555 1_555
H40 C31 1_555 1_555
C32 C31 1_555 1_555
H41 C32 1_555 1_555
H42 C32 1_555 1_555
C33 C32 1_555 1_555
H43 C33 1_555 1_555
H44 C33 1_555 1_555
C34 O1 1_555 1_555
H45 C34 1_555 1_555
H46 C34 1_555 1_555
C35 O2 1_555 1_555
H47 C35 1_555 1_555
H48 C35 1_555 1_555
C36 C35 1_555 1_555
H49 C36 1_555 1_555
H50 C36 1_555 1_555
C37 C36 1_555 1_555
H51 C37 1_555 1_555
H52 C37 1_555 1_555
C38 O2 1_555 1_555
H53 C38 1_555 1_555
H54 C38 1_555 1_555
O3 C39 1_555 1_555
C39 H55 1_555 1_555
H56 C39 1_555 1_555
C40 C39 1_555 1_555
H57 C40 1_555 1_555
H58 C40 1_555 1_555
C41 C40 1_555 1_555
H59 C41 1_555 1_555
H60 C41 1_555 1_555
C42 O3 1_555 1_555
H61 C42 1_555 1_555
H62 C42 1_555 1_555
O4 C43 1_555 1_555
C43 H63 1_555 1_555
H64 C43 1_555 1_555
C44 C43 1_555 1_555
H65 C44 1_555 1_555
H66 C44 1_555 1_555
C45 C44 1_555 1_555
H67 C45 1_555 1_555
H68 C45 1_555 1_555
C46 O4 1_555 1_555
H69 C46 1_555 1_555
H70 C46 1_555 1_555
C3 C4 1_555 1_555
C4 C5 1_555 1_555
C11 C15 1_555 1_555
C12 C13 1_555 1_555
C13 C14 1_555 1_555
C18 C19 1_555 1_555
C19 C20 1_555 1_555
C25 C28 1_555 1_555
C27 C29 1_555 1_555
C27 C30 1_555 1_555
C33 C34 1_555 1_555
C37 C38 1_555 1_555
C41 C42 1_555 1_555
C45 C46 1_555 1_555

#END
