
#######################################################################
#
#                 Cambridge Crystallographic Data Centre
#                                CCDC 
#
#######################################################################
#
# If this CIF has been generated from an entry in the Cambridge 
# Structural Database, then it will include bibliographic, chemical, 
# crystal, experimental, refinement or atomic coordinate data resulting 
# from the CCDC's data processing and validation procedures.
#
#######################################################################

data_PIKCIW
_chemical_formula_moiety         'C60 H40 Li4 N4 O4'
_chemical_name_systematic        
tetrakis(\m~3~-2-Phenyl-8-quinolinolato)-tetra-lithium
_symmetry_cell_setting           monoclinic
_symmetry_space_group_name_H-M   'P 21/c'
_symmetry_Int_Tables_number      14
_space_group_name_Hall           '-P 2ybc'
loop_
_symmetry_equiv_pos_site_id
_symmetry_equiv_pos_as_xyz
1 x,y,z
2 -x,1/2+y,1/2-z
3 -x,-y,-z
4 x,1/2-y,1/2+z
_cell_length_a                   10.4418(3)
_cell_length_b                   24.1247(8)
_cell_length_c                   19.5231(5)
_cell_angle_alpha                90
_cell_angle_beta                 94.1850(10)
_cell_angle_gamma                90
_cell_volume                     4904.86
_exptl_crystal_colour            green
_exptl_crystal_description       plate
_cell_formula_units_Z            4
_exptl_crystal_recrystallization_method sublimation
loop_
_atom_site_label
_atom_site_type_symbol
_atom_site_fract_x
_atom_site_fract_y
_atom_site_fract_z
C1 C -0.1336(4) 0.7903(2) 0.0405(2)
O1 O 0.3437(3) 0.79822(10) 0.12553(15)
O2 O 0.2281(3) 0.70548(11) 0.04740(16)
O3 O 0.0878(3) 0.80525(10) 0.07129(15)
O4 O 0.1514(3) 0.72581(10) 0.18112(16)
N1 N 0.4936(3) 0.71133(17) 0.16951(17)
N2 N 0.3179(3) 0.76751(16) -0.05428(19)
N3 N -0.1135(3) 0.73469(17) 0.05000(17)
N4 N 0.1019(3) 0.81987(16) 0.24894(19)
C2 C 0.5450(4) 0.7632(2) 0.1725(2)
C3 C 0.4638(5) 0.8087(2) 0.1486(2)
C4 C 0.5149(5) 0.8616(2) 0.1524(2)
H1 H 0.4647 0.8917 0.1374
C5 C 0.6435(6) 0.8703(3) 0.1792(3)
H2 H 0.6753 0.9063 0.1818
C6 C 0.7203(5) 0.8286(3) 0.2007(3)
H3 H 0.8046 0.8357 0.2171
C7 C 0.6734(5) 0.7735(3) 0.1986(3)
C8 C 0.7462(5) 0.7271(3) 0.2197(3)
H4 H 0.8312 0.7317 0.2365
C9 C 0.6955(6) 0.6760(3) 0.2163(3)
H5 H 0.7451 0.6457 0.2310
C10 C 0.5671(5) 0.6683(2) 0.1902(2)
C11 C 0.5080(6) 0.6135(2) 0.1866(3)
C12 C 0.5802(7) 0.5669(3) 0.1764(4)
H6 H 0.6676 0.5707 0.1712
C13 C 0.5278(11) 0.5161(3) 0.1738(5)
H7 H 0.5802 0.4858 0.1663
C14 C 0.4002(11) 0.5071(3) 0.1816(4)
H8 H 0.3655 0.4716 0.1789
C15 C 0.3241(6) 0.5533(3) 0.1939(3)
H9 H 0.2375 0.5491 0.2008
C16 C 0.3795(6) 0.6054(2) 0.1957(3)
H10 H 0.3284 0.6360 0.2032
C17 C 0.3264(4) 0.7107(2) -0.0580(3)
C18 C 0.2798(4) 0.6794(2) -0.0037(3)
C19 C 0.2959(5) 0.6229(2) -0.0052(3)
H11 H 0.2679 0.6017 0.0305
C20 C 0.3534(5) 0.5965(2) -0.0590(3)
H12 H 0.3639 0.5583 -0.0579
C21 C 0.3943(5) 0.6259(2) -0.1129(3)
H13 H 0.4300 0.6078 -0.1491
C22 C 0.3814(5) 0.6842(2) -0.1129(3)
C23 C 0.4249(5) 0.7176(2) -0.1649(3)
H14 H 0.4608 0.7016 -0.2024
C24 C 0.4146(5) 0.7738(2) -0.1606(3)
H15 H 0.4426 0.7960 -0.1955
C25 C 0.3620(4) 0.7982(2) -0.1040(3)
C26 C 0.3585(5) 0.8592(2) -0.0954(3)
C27 C 0.4448(6) 0.8929(3) -0.1239(3)
H16 H 0.5060 0.8773 -0.1504
C28 C 0.4439(7) 0.9498(3) -0.1144(4)
H17 H 0.5041 0.9716 -0.1347
C29 C 0.3579(8) 0.9738(3) -0.0767(4)
H18 H 0.3593 1.0118 -0.0690
C30 C 0.2668(7) 0.9407(3) -0.0493(3)
H19 H 0.2040 0.9569 -0.0244
C31 C 0.2677(6) 0.8842(2) -0.0582(3)
H20 H 0.2060 0.8626 -0.0388
C32 C -0.0255(5) 0.8271(2) 0.0515(2)
C33 C -0.0432(5) 0.8823(2) 0.0408(3)
H21 H 0.0260 0.9064 0.0480
C34 C -0.1649(7) 0.9034(2) 0.0190(3)
H22 H -0.1750 0.9414 0.0127
C35 C -0.2687(6) 0.8693(3) 0.0069(3)
H23 H -0.3476 0.8840 -0.0091
C36 C -0.2559(5) 0.8125(3) 0.0186(3)
C37 C -0.3565(5) 0.7747(3) 0.0081(3)
H24 H -0.4388 0.7874 -0.0050
C38 C -0.3350(5) 0.7198(3) 0.0169(3)
H25 H -0.4027 0.6949 0.0097
C39 C -0.2111(5) 0.7000(2) 0.0368(2)
C40 C -0.1824(5) 0.6400(2) 0.0438(3)
C41 C -0.2465(6) 0.6015(3) -0.0003(3)
H26 H -0.3086 0.6132 -0.0337
C42 C -0.2158(9) 0.5461(3) 0.0068(5)
H27 H -0.2590 0.5207 -0.0224
C43 C -0.1257(9) 0.5270(3) 0.0543(5)
H28 H -0.1059 0.4894 0.0570
C44 C -0.0639(6) 0.5644(3) 0.0987(4)
H29 H -0.0032 0.5519 0.1324
C45 C -0.0914(5) 0.6203(3) 0.0933(3)
H30 H -0.0485 0.6451 0.1234
C46 C 0.0769(4) 0.7706(2) 0.2794(3)
C47 C 0.1031(4) 0.72103(19) 0.2420(3)
C48 C 0.0742(4) 0.67065(19) 0.2710(3)
H31 H 0.0905 0.6378 0.2482
C49 C 0.0202(5) 0.6691(2) 0.3347(3)
H32 H 0.0006 0.6348 0.3530
C50 C -0.0045(5) 0.7154(3) 0.3708(3)
H33 H -0.0390 0.7127 0.4133
C51 C 0.0224(4) 0.7672(2) 0.3434(3)
C52 C -0.0031(5) 0.8168(3) 0.3756(3)
H34 H -0.0360 0.8163 0.4186
C53 C 0.0193(5) 0.8658(2) 0.3453(3)
H35 H 0.0002 0.8990 0.3665
C54 C 0.0723(4) 0.8658(2) 0.2809(3)
C55 C 0.0925(6) 0.9187(2) 0.2440(3)
C56 C 0.2011(6) 0.9262(2) 0.2092(3)
H36 H 0.2638 0.8987 0.2114
C57 C 0.2198(8) 0.9741(3) 0.1703(4)
H37 H 0.2938 0.9778 0.1469
C58 C 0.1314(11) 1.0145(3) 0.1669(5)
H38 H 0.1442 1.0469 0.1424
C59 C 0.0213(10) 1.0072(3) 0.2006(4)
H39 H -0.0416 1.0346 0.1971
C60 C 0.0010(7) 0.9599(3) 0.2400(4)
H40 H -0.0733 0.9564 0.2632
Li1 Li 0.3098(7) 0.7176(3) 0.1358(4)
Li2 Li 0.2510(6) 0.7878(3) 0.0362(4)
Li3 Li 0.0705(7) 0.7245(3) 0.0849(4)
Li4 Li 0.1770(7) 0.8067(3) 0.1598(4)
loop_
_geom_bond_atom_site_label_1
_geom_bond_atom_site_label_2
_geom_bond_site_symmetry_1
_geom_bond_site_symmetry_2
C1 N3 1_555 1_555
O1 C3 1_555 1_555
O2 C18 1_555 1_555
O3 C32 1_555 1_555
O4 C47 1_555 1_555
N1 C2 1_555 1_555
N2 C17 1_555 1_555
N3 C39 1_555 1_555
N4 C46 1_555 1_555
C2 C3 1_555 1_555
C3 C4 1_555 1_555
C4 H1 1_555 1_555
C5 C4 1_555 1_555
H2 C5 1_555 1_555
C6 C5 1_555 1_555
H3 C6 1_555 1_555
C7 C2 1_555 1_555
C8 C7 1_555 1_555
H4 C8 1_555 1_555
C9 C8 1_555 1_555
H5 C9 1_555 1_555
C10 N1 1_555 1_555
C11 C10 1_555 1_555
C12 C11 1_555 1_555
H6 C12 1_555 1_555
C13 C12 1_555 1_555
H7 C13 1_555 1_555
C14 C13 1_555 1_555
H8 C14 1_555 1_555
C15 C14 1_555 1_555
H9 C15 1_555 1_555
C16 C11 1_555 1_555
H10 C16 1_555 1_555
C17 C18 1_555 1_555
C18 C19 1_555 1_555
C19 H11 1_555 1_555
C20 C19 1_555 1_555
H12 C20 1_555 1_555
C21 C20 1_555 1_555
H13 C21 1_555 1_555
C22 C17 1_555 1_555
C23 C22 1_555 1_555
H14 C23 1_555 1_555
C24 C23 1_555 1_555
H15 C24 1_555 1_555
C25 N2 1_555 1_555
C26 C25 1_555 1_555
C27 C26 1_555 1_555
H16 C27 1_555 1_555
C28 C27 1_555 1_555
H17 C28 1_555 1_555
C29 C28 1_555 1_555
H18 C29 1_555 1_555
C30 C29 1_555 1_555
H19 C30 1_555 1_555
C31 C26 1_555 1_555
H20 C31 1_555 1_555
C32 C1 1_555 1_555
C33 C32 1_555 1_555
H21 C33 1_555 1_555
C34 C33 1_555 1_555
H22 C34 1_555 1_555
C35 C34 1_555 1_555
H23 C35 1_555 1_555
C36 C1 1_555 1_555
C37 C36 1_555 1_555
H24 C37 1_555 1_555
C38 C37 1_555 1_555
H25 C38 1_555 1_555
C39 C38 1_555 1_555
C40 C39 1_555 1_555
C41 C40 1_555 1_555
H26 C41 1_555 1_555
C42 C41 1_555 1_555
H27 C42 1_555 1_555
C43 C42 1_555 1_555
H28 C43 1_555 1_555
C44 C43 1_555 1_555
H29 C44 1_555 1_555
C45 C40 1_555 1_555
H30 C45 1_555 1_555
C46 C47 1_555 1_555
C47 C48 1_555 1_555
C48 H31 1_555 1_555
C49 C48 1_555 1_555
H32 C49 1_555 1_555
C50 C49 1_555 1_555
H33 C50 1_555 1_555
C51 C46 1_555 1_555
C52 C51 1_555 1_555
H34 C52 1_555 1_555
C53 C52 1_555 1_555
H35 C53 1_555 1_555
C54 N4 1_555 1_555
C55 C54 1_555 1_555
C56 C55 1_555 1_555
H36 C56 1_555 1_555
C57 C56 1_555 1_555
H37 C57 1_555 1_555
C58 C57 1_555 1_555
H38 C58 1_555 1_555
C59 C58 1_555 1_555
H39 C59 1_555 1_555
C60 C55 1_555 1_555
H40 C60 1_555 1_555
Li1 O1 1_555 1_555
Li2 O1 1_555 1_555
Li3 O2 1_555 1_555
Li4 O1 1_555 1_555
O2 Li1 1_555 1_555
O2 Li2 1_555 1_555
O3 Li2 1_555 1_555
O3 Li3 1_555 1_555
O3 Li4 1_555 1_555
O4 Li1 1_555 1_555
O4 Li3 1_555 1_555
O4 Li4 1_555 1_555
N1 Li1 1_555 1_555
N2 Li2 1_555 1_555
N3 Li3 1_555 1_555
N4 Li4 1_555 1_555
C6 C7 1_555 1_555
C9 C10 1_555 1_555
C15 C16 1_555 1_555
C21 C22 1_555 1_555
C24 C25 1_555 1_555
C30 C31 1_555 1_555
C35 C36 1_555 1_555
C44 C45 1_555 1_555
C50 C51 1_555 1_555
C53 C54 1_555 1_555
C59 C60 1_555 1_555

#END
