
#######################################################################
#
#                 Cambridge Crystallographic Data Centre
#                                CCDC 
#
#######################################################################
#
# If this CIF has been generated from an entry in the Cambridge 
# Structural Database, then it will include bibliographic, chemical, 
# crystal, experimental, refinement or atomic coordinate data resulting 
# from the CCDC's data processing and validation procedures.
#
#######################################################################

data_PIKCES
_chemical_formula_moiety         'C60 H48 Li6 N6 O6'
_chemical_name_systematic        
hexakis(\m~3~-2-Methyl-8-quinolinolato)-hexa-lithium
_symmetry_cell_setting           triclinic
_symmetry_space_group_name_H-M   'P -1'
_symmetry_Int_Tables_number      2
_space_group_name_Hall           '-P 1'
loop_
_symmetry_equiv_pos_site_id
_symmetry_equiv_pos_as_xyz
1 x,y,z
2 -x,-y,-z
_cell_length_a                   9.6894(7)
_cell_length_b                   12.8165(7)
_cell_length_c                   12.9557(10)
_cell_angle_alpha                119.336(3)
_cell_angle_beta                 98.094(3)
_cell_angle_gamma                100.313(3)
_cell_volume                     1330.04
_exptl_crystal_colour            colorless
_exptl_crystal_description       plate
_cell_formula_units_Z            1
_exptl_crystal_recrystallization_method sublimation
loop_
_atom_site_label
_atom_site_type_symbol
_atom_site_fract_x
_atom_site_fract_y
_atom_site_fract_z
O1 O 0.3768(3) 0.5962(2) 0.6355(2)
O2 O 0.3602(2) 0.3070(2) 0.4212(2)
O3 O 0.6061(2) 0.4740(2) 0.6415(2)
N1 N 0.5723(4) 0.7636(3) 0.8549(3)
N2 N 0.5387(4) 0.1630(3) 0.4150(3)
N3 N 0.3977(4) 0.3882(3) 0.7233(3)
C1 C 0.4269(5) 0.7514(4) 0.8484(4)
C2 C 0.3266(5) 0.6623(4) 0.7309(4)
C3 C 0.1808(5) 0.6509(4) 0.7225(5)
H1 H 0.1133 0.5948 0.6469
C4 C 0.1316(6) 0.7214(5) 0.8246(6)
H2 H 0.0322 0.7103 0.8159
C5 C 0.2274(7) 0.8067(5) 0.9373(5)
H3 H 0.1932 0.8530 1.0044
C6 C 0.3758(6) 0.8234(4) 0.9505(5)
C7 C 0.4834(7) 0.9108(4) 1.0619(4)
H4 H 0.4556 0.9595 1.1323
C8 C 0.6260(6) 0.9241(4) 1.0670(4)
H5 H 0.6962 0.9841 1.1398
C9 C 0.6681(5) 0.8472(4) 0.9622(5)
C10 C 0.8259(5) 0.8584(4) 0.9658(4)
H6 H 0.8478 0.7857 0.9595
H7 H 0.8851 0.9315 1.0418
H8 H 0.8455 0.8651 0.8984
C11 C 0.3905(5) 0.1096(4) 0.3766(3)
C12 C 0.2989(5) 0.1868(4) 0.3806(3)
C13 C 0.1496(5) 0.1331(4) 0.3412(4)
H9 H 0.0875 0.1808 0.3417
C14 C 0.0918(5) 0.0070(5) 0.3006(4)
H10 H -0.0088 -0.0267 0.2758
C15 C 0.1753(6) -0.0670(4) 0.2961(4)
H11 H 0.1327 -0.1505 0.2678
C16 C 0.3284(5) -0.0180(4) 0.3343(3)
C17 C 0.4266(6) -0.0869(4) 0.3343(4)
H12 H 0.3908 -0.1706 0.3084
C18 C 0.5711(6) -0.0335(4) 0.3713(4)
H13 H 0.6347 -0.0801 0.3703
C19 C 0.6255(5) 0.0935(4) 0.4115(4)
C20 C 0.7861(5) 0.1573(4) 0.4541(4)
H14 H 0.8077 0.2071 0.4190
H15 H 0.8381 0.0955 0.4284
H16 H 0.8153 0.2099 0.5421
C21 C 0.5410(5) 0.4088(3) 0.7765(4)
C22 C 0.6466(5) 0.4509(3) 0.7295(4)
C23 C 0.7900(5) 0.4660(4) 0.7778(4)
H17 H 0.8616 0.4921 0.7478
C24 C 0.8297(6) 0.4427(4) 0.8708(4)
H18 H 0.9273 0.4530 0.9009
C25 C 0.7305(6) 0.4058(4) 0.9179(4)
H19 H 0.7601 0.3932 0.9813
C26 C 0.5827(6) 0.3865(3) 0.8715(4)
C27 C 0.4688(7) 0.3459(4) 0.9115(4)
H20 H 0.4905 0.3325 0.9755
C28 C 0.3276(6) 0.3260(4) 0.8584(5)
H21 H 0.2534 0.2976 0.8848
C29 C 0.2943(6) 0.3485(4) 0.7629(4)
C30 C 0.1394(5) 0.3253(4) 0.7019(5)
H22 H 0.1364 0.3689 0.6592
H23 H 0.0865 0.3548 0.7628
H24 H 0.0961 0.2373 0.6444
Li1 Li 0.3863(6) 0.4323(5) 0.5902(6)
Li2 Li 0.4173(6) 0.6495(5) 0.5265(5)
Li3 Li 0.5970(6) 0.6403(5) 0.6880(6)
O1A O 0.6232(3) 0.4038(2) 0.3645(2)
O2A O 0.6398(2) 0.6930(2) 0.5788(2)
O3A O 0.3939(2) 0.5260(2) 0.3585(2)
N1A N 0.4277(4) 0.2364(3) 0.1451(3)
N2A N 0.4613(4) 0.8370(3) 0.5850(3)
N3A N 0.6023(4) 0.6118(3) 0.2767(3)
C1A C 0.5731(5) 0.2486(4) 0.1516(4)
C2A C 0.6734(5) 0.3377(4) 0.2691(4)
C3A C 0.8192(5) 0.3491(4) 0.2775(5)
H1A H 0.8867 0.4052 0.3531
C4A C 0.8684(6) 0.2786(5) 0.1754(6)
H2A H 0.9678 0.2897 0.1841
C5A C 0.7726(7) 0.1933(5) 0.0627(5)
H3A H 0.8068 0.1470 -0.0044
C6A C 0.6242(6) 0.1766(4) 0.0495(5)
C7A C 0.5166(7) 0.0892(4) -0.0619(4)
H4A H 0.5444 0.0405 -0.1323
C8A C 0.3740(6) 0.0759(4) -0.0670(4)
H5A H 0.3038 0.0159 -0.1398
C9A C 0.3319(5) 0.1528(4) 0.0378(5)
C10A C 0.1741(5) 0.1416(4) 0.0342(4)
H6A H 0.1522 0.2143 0.0405
H7A H 0.1149 0.0685 -0.0418
H8A H 0.1545 0.1349 0.1016
C11A C 0.6095(5) 0.8904(4) 0.6234(3)
C12A C 0.7011(5) 0.8132(4) 0.6194(3)
C13A C 0.8504(5) 0.8669(4) 0.6588(4)
H9A H 0.9125 0.8192 0.6583
C14A C 0.9082(5) 0.9930(5) 0.6994(4)
H10A H 1.0088 1.0267 0.7242
C15A C 0.8247(6) 1.0670(4) 0.7039(4)
H11A H 0.8673 1.1505 0.7322
C16A C 0.6716(5) 1.0180(4) 0.6657(3)
C17A C 0.5734(6) 1.0869(4) 0.6657(4)
H12A H 0.6092 1.1706 0.6916
C18A C 0.4289(6) 1.0335(4) 0.6287(4)
H13A H 0.3653 1.0801 0.6297
C19A C 0.3745(5) 0.9065(4) 0.5885(4)
C20A C 0.2139(5) 0.8427(4) 0.5459(4)
H14A H 0.1923 0.7929 0.5810
H15A H 0.1619 0.9045 0.5716
H16A H 0.1847 0.7901 0.4579
C21A C 0.4590(5) 0.5912(3) 0.2235(4)
C22A C 0.3534(5) 0.5491(3) 0.2705(4)
C23A C 0.2100(5) 0.5340(4) 0.2222(4)
H17A H 0.1384 0.5079 0.2522
C24A C 0.1703(6) 0.5573(4) 0.1292(4)
H18A H 0.0727 0.5470 0.0991
C25A C 0.2695(6) 0.5942(4) 0.0821(4)
H19A H 0.2399 0.6068 0.0187
C26A C 0.4173(6) 0.6135(3) 0.1285(4)
C27A C 0.5312(7) 0.6541(4) 0.0885(4)
H20A H 0.5095 0.6675 0.0245
C28A C 0.6724(6) 0.6740(4) 0.1416(5)
H21A H 0.7466 0.7024 0.1152
C29A C 0.7057(6) 0.6515(4) 0.2371(4)
C30A C 0.8606(5) 0.6747(4) 0.2981(5)
H22A H 0.8636 0.6311 0.3408
H23A H 0.9135 0.6452 0.2372
H24A H 0.9039 0.7627 0.3556
Li1A Li 0.6137(6) 0.5677(5) 0.4098(6)
Li2A Li 0.5827(6) 0.3505(5) 0.4735(5)
Li3A Li 0.4030(6) 0.3597(5) 0.3120(6)
loop_
_geom_bond_atom_site_label_1
_geom_bond_atom_site_label_2
_geom_bond_site_symmetry_1
_geom_bond_site_symmetry_2
O1 C2 1_555 1_555
O2 C12 1_555 1_555
O3 C22 1_555 1_555
N1 C1 1_555 1_555
N2 C11 1_555 1_555
N3 C21 1_555 1_555
C1 C2 1_555 1_555
C2 C3 1_555 1_555
C3 H1 1_555 1_555
C4 C3 1_555 1_555
H2 C4 1_555 1_555
C5 C4 1_555 1_555
H3 C5 1_555 1_555
C6 C1 1_555 1_555
C7 C6 1_555 1_555
H4 C7 1_555 1_555
C8 C7 1_555 1_555
H5 C8 1_555 1_555
C9 N1 1_555 1_555
C10 C9 1_555 1_555
H6 C10 1_555 1_555
H7 C10 1_555 1_555
H8 C10 1_555 1_555
C11 C12 1_555 1_555
C12 C13 1_555 1_555
C13 H9 1_555 1_555
C14 C13 1_555 1_555
H10 C14 1_555 1_555
C15 C14 1_555 1_555
H11 C15 1_555 1_555
C16 C11 1_555 1_555
C17 C16 1_555 1_555
H12 C17 1_555 1_555
C18 C17 1_555 1_555
H13 C18 1_555 1_555
C19 N2 1_555 1_555
C20 C19 1_555 1_555
H14 C20 1_555 1_555
H15 C20 1_555 1_555
H16 C20 1_555 1_555
C21 C22 1_555 1_555
C22 C23 1_555 1_555
C23 H17 1_555 1_555
C24 C23 1_555 1_555
H18 C24 1_555 1_555
C25 C24 1_555 1_555
H19 C25 1_555 1_555
C26 C21 1_555 1_555
C27 C26 1_555 1_555
H20 C27 1_555 1_555
C28 C27 1_555 1_555
H21 C28 1_555 1_555
C29 N3 1_555 1_555
C30 C29 1_555 1_555
H22 C30 1_555 1_555
H23 C30 1_555 1_555
H24 C30 1_555 1_555
Li1 O1 1_555 1_555
Li2 O1 1_555 1_555
Li3 O1 1_555 1_555
O1A C2A 1_555 1_555
O2A Li2 1_555 1_555
O3A Li2 1_555 1_555
N1A C1A 1_555 1_555
N2A Li2 1_555 1_555
N3A C21A 1_555 1_555
C1A C2A 1_555 1_555
C2A C3A 1_555 1_555
C3A H1A 1_555 1_555
C4A C3A 1_555 1_555
H2A C4A 1_555 1_555
C5A C4A 1_555 1_555
H3A C5A 1_555 1_555
C6A C1A 1_555 1_555
C7A C6A 1_555 1_555
H4A C7A 1_555 1_555
C8A C7A 1_555 1_555
H5A C8A 1_555 1_555
C9A N1A 1_555 1_555
C10A C9A 1_555 1_555
H6A C10A 1_555 1_555
H7A C10A 1_555 1_555
H8A C10A 1_555 1_555
C11A N2A 1_555 1_555
C12A O2A 1_555 1_555
C13A C12A 1_555 1_555
H9A C13A 1_555 1_555
C14A C13A 1_555 1_555
H10A C14A 1_555 1_555
C15A C14A 1_555 1_555
H11A C15A 1_555 1_555
C16A C11A 1_555 1_555
C17A C16A 1_555 1_555
H12A C17A 1_555 1_555
C18A C17A 1_555 1_555
H13A C18A 1_555 1_555
C19A N2A 1_555 1_555
C20A C19A 1_555 1_555
H14A C20A 1_555 1_555
H15A C20A 1_555 1_555
H16A C20A 1_555 1_555
C21A C22A 1_555 1_555
C22A O3A 1_555 1_555
C23A C22A 1_555 1_555
H17A C23A 1_555 1_555
C24A C23A 1_555 1_555
H18A C24A 1_555 1_555
C25A C24A 1_555 1_555
H19A C25A 1_555 1_555
C26A C21A 1_555 1_555
C27A C26A 1_555 1_555
H20A C27A 1_555 1_555
C28A C27A 1_555 1_555
H21A C28A 1_555 1_555
C29A N3A 1_555 1_555
C30A C29A 1_555 1_555
H22A C30A 1_555 1_555
H23A C30A 1_555 1_555
H24A C30A 1_555 1_555
Li1A O1A 1_555 1_555
Li2A O2 1_555 1_555
Li3A O2 1_555 1_555
O2 Li1 1_555 1_555
O3 Li1 1_555 1_555
O3 Li3 1_555 1_555
O3 Li2A 1_555 1_555
N1 Li3 1_555 1_555
N2 Li2A 1_555 1_555
N3 Li1 1_555 1_555
C5 C6 1_555 1_555
C8 C9 1_555 1_555
C15 C16 1_555 1_555
C18 C19 1_555 1_555
C25 C26 1_555 1_555
C28 C29 1_555 1_555
Li3 O2A 1_555 1_555
O1A Li2A 1_555 1_555
O1A Li3A 1_555 1_555
O2A Li1A 1_555 1_555
O3A Li1A 1_555 1_555
O3A Li3A 1_555 1_555
N1A Li3A 1_555 1_555
N3A Li1A 1_555 1_555
C5A C6A 1_555 1_555
C8A C9A 1_555 1_555
C11A C12A 1_555 1_555
C15A C16A 1_555 1_555
C18A C19A 1_555 1_555
C25A C26A 1_555 1_555
C28A C29A 1_555 1_555

#END
