
#######################################################################
#
#                 Cambridge Crystallographic Data Centre
#                                CCDC 
#
#######################################################################
#
# If this CIF has been generated from an entry in the Cambridge 
# Structural Database, then it will include bibliographic, chemical, 
# crystal, experimental, refinement or atomic coordinate data resulting 
# from the CCDC's data processing and validation procedures.
#
#######################################################################

data_PIKDOC01
_chemical_formula_moiety         'C8 H20 N1 1+,Cl1 O4 1-'
_chemical_name_systematic        'Tetraethylammonium perchlorate'
_symmetry_cell_setting           monoclinic
_symmetry_space_group_name_H-M   'C c'
_symmetry_Int_Tables_number      9
_space_group_name_Hall           'C -2yc'
loop_
_symmetry_equiv_pos_site_id
_symmetry_equiv_pos_as_xyz
1 x,y,z
2 x,-y,1/2+z
3 1/2+x,1/2+y,z
4 1/2+x,1/2-y,1/2+z
_cell_length_a                   12.514(5)
_cell_length_b                   7.433(4)
_cell_length_c                   13.956(6)
_cell_angle_alpha                90
_cell_angle_beta                 114.86(3)
_cell_angle_gamma                90
_cell_volume                     1177.85
_exptl_crystal_colour            colorless
_cell_formula_units_Z            4
loop_
_atom_site_label
_atom_site_type_symbol
_atom_site_fract_x
_atom_site_fract_y
_atom_site_fract_z
Cl1 Cl 0.5364(2) 0.1269(1) 0.3694(2)
O1 O 0.5470(4) 0.0104(6) 0.4535(3)
O2 O 0.5828(7) 0.297(1) 0.4009(6)
O3 O 0.4121(7) 0.148(1) 0.3011(6)
O4 O 0.5778(5) 0.0405(8) 0.3011(4)
N1 N 0.9060(3) 0.1206(5) 0.1181(3)
C1 C 1.0298(4) 0.1220(6) 0.2058(3)
C2 C 0.8954(4) -0.0075(6) 0.0297(3)
C3 C 0.8222(4) 0.0585(6) 0.1641(3)
C4 C 0.8764(4) 0.3094(5) 0.0726(3)
C5 C 1.1259(5) 0.1669(9) 0.1707(5)
C6 C 0.9356(7) -0.2004(8) 0.0641(5)
C7 C 0.8156(6) 0.180(1) 0.2473(5)
C8 C 0.7517(5) 0.3345(9) -0.0102(5)
H1 H 1.0465(4) -0.0002(6) 0.2389(3)
H2 H 1.0333(4) 0.2132(6) 0.2597(3)
H3 H 0.9456(4) 0.0413(6) -0.0043(3)
H4 H 0.8112(4) -0.0090(6) -0.0229(3)
H5 H 0.8479(4) -0.0634(6) 0.1958(3)
H6 H 0.7420(4) 0.0499(6) 0.1046(3)
H7 H 0.9309(4) 0.3399(5) 0.0393(3)
H8 H 0.8895(4) 0.3950(5) 0.1318(3)
H9 H 1.2049(5) 0.1648(9) 0.2321(5)
H10 H 1.1242(5) 0.0760(9) 0.1172(5)
H11 H 1.1110(5) 0.2894(9) 0.1380(5)
H12 H 0.9257(7) -0.2731(8) 0.0006(5)
H13 H 1.0201(7) -0.2024(8) 0.1160(5)
H14 H 0.8857(7) -0.2527(8) 0.0974(5)
H15 H 0.7578(6) 0.129(1) 0.2722(5)
H16 H 0.8947(6) 0.190(1) 0.3082(5)
H17 H 0.7889(6) 0.303(1) 0.2170(5)
H18 H 0.7396(5) 0.4615(9) -0.0362(5)
H19 H 0.7372(5) 0.2510(9) -0.0706(5)
H20 H 0.6957(5) 0.3061(9) 0.0219(5)
O5? O 0.6427(8) 0.243(1) 0.4213(8)
O6? O 0.437(1) 0.245(2) 0.348(1)
loop_
_geom_bond_atom_site_label_1
_geom_bond_atom_site_label_2
_geom_bond_site_symmetry_1
_geom_bond_site_symmetry_2
Cl1 O1 1_555 1_555
O2 Cl1 1_555 1_555
O3 Cl1 1_555 1_555
O4 Cl1 1_555 1_555
N1 C1 1_555 1_555
C1 C5 1_555 1_555
C2 N1 1_555 1_555
C3 N1 1_555 1_555
C4 N1 1_555 1_555
C5 H9 1_555 1_555
C6 C2 1_555 1_555
C7 C3 1_555 1_555
C8 C4 1_555 1_555
H1 C1 1_555 1_555
H2 C1 1_555 1_555
H3 C2 1_555 1_555
H4 C2 1_555 1_555
H5 C3 1_555 1_555
H6 C3 1_555 1_555
H7 C4 1_555 1_555
H8 C4 1_555 1_555
H10 C5 1_555 1_555
H11 C5 1_555 1_555
H12 C6 1_555 1_555
H13 C6 1_555 1_555
H14 C6 1_555 1_555
H15 C7 1_555 1_555
H16 C7 1_555 1_555
H17 C7 1_555 1_555
H18 C8 1_555 1_555
H19 C8 1_555 1_555
H20 C8 1_555 1_555

#END
