
#######################################################################
#
#                 Cambridge Crystallographic Data Centre
#                                CCDC 
#
#######################################################################
#
# If this CIF has been generated from an entry in the Cambridge 
# Structural Database, then it will include bibliographic, chemical, 
# crystal, experimental, refinement or atomic coordinate data resulting 
# from the CCDC's data processing and validation procedures.
#
#######################################################################

data_PIKMOM
_chemical_formula_moiety         'C14 H17 Cl1 N4 S1'
_chemical_name_systematic        
5-(4-Chlorophenyl)-4-(bis(dimethylamino)methylene)-2,4-dihydro-pyrazol-3-thione
_symmetry_cell_setting           monoclinic
_symmetry_space_group_name_H-M   'P 21/n'
_symmetry_Int_Tables_number      14
_space_group_name_Hall           '-P 2yn'
loop_
_symmetry_equiv_pos_site_id
_symmetry_equiv_pos_as_xyz
1 x,y,z
2 1/2-x,1/2+y,1/2-z
3 -x,-y,-z
4 1/2+x,1/2-y,1/2+z
_cell_length_a                   11.702(3)
_cell_length_b                   11.299(3)
_cell_length_c                   12.911(2)
_cell_angle_alpha                90
_cell_angle_beta                 115.311(15)
_cell_angle_gamma                90
_cell_volume                     1543.22
_exptl_crystal_colour            yellow
_exptl_crystal_description       block
_chemical_melting_point          306deg.C
_cell_formula_units_Z            4
loop_
_atom_site_label
_atom_site_type_symbol
_atom_site_fract_x
_atom_site_fract_y
_atom_site_fract_z
S1 S 0.46827(6) 0.80604(6) 0.01085(7)
Cl1 Cl 1.37906(8) 0.68309(12) 0.26991(10)
N1 N 0.6716(2) 0.93145(18) 0.0260(2)
H1 H 0.6259 0.9940 0.0017
C1 C 0.8326(2) 0.8186(2) 0.0840(2)
N2 N 0.7980(2) 0.92998(19) 0.0527(2)
C2 C 0.7292(2) 0.7494(2) 0.0787(2)
N3 N 0.6755(2) 0.58547(18) 0.16776(19)
C3 C 0.6241(2) 0.8275(2) 0.0406(2)
C4 C 0.7253(2) 0.6237(2) 0.0992(2)
N4 N 0.7727(2) 0.54646(19) 0.0492(2)
C5 C 0.6116(3) 0.4708(2) 0.1533(3)
H2 H 0.5831 0.4608 0.2123
H3 H 0.6695 0.4084 0.1584
H4 H 0.5404 0.4681 0.0796
C6 C 0.6657(3) 0.6626(2) 0.2544(2)
H8 H 0.6277 0.6198 0.2959
H9 H 0.6144 0.7300 0.2178
H10 H 0.7485 0.6886 0.3066
C7 C 0.8310(4) 0.4341(3) 0.1030(4)
H14 H 0.8588 0.3920 0.0533
H15 H 0.7702 0.3870 0.1162
H16 H 0.9021 0.4496 0.1747
C8 C 0.7858(4) 0.5761(3) -0.0548(3)
H20 H 0.8213 0.5099 -0.0776
H21 H 0.8406 0.6434 -0.0408
H22 H 0.7042 0.5946 -0.1147
C9 C 0.9669(3) 0.7842(2) 0.1279(2)
C10 C 1.0181(3) 0.7008(3) 0.2146(2)
H26 H 0.9669 0.6662 0.2448
C11 C 1.1444(3) 0.6680(3) 0.2571(3)
H27 H 1.1775 0.6107 0.3140
C12 C 1.2194(3) 0.7220(3) 0.2133(3)
C13 C 1.1729(3) 0.8055(3) 0.1288(3)
H28 H 1.2256 0.8413 0.1008
C14 C 1.0463(3) 0.8361(3) 0.0855(3)
H29 H 1.0138 0.8921 0.0272
H5? H 0.6122 0.4307 0.0879
H6? H 0.5258 0.4831 0.1418
H7? H 0.6549 0.4234 0.2206
H11? H 0.6994 0.7392 0.2509
H12? H 0.7127 0.6289 0.3290
H13? H 0.5785 0.6703 0.2402
H17? H 0.8286 0.4271 0.1762
H18? H 0.9172 0.4321 0.1133
H19? H 0.7853 0.3695 0.0548
H23? H 0.7561 0.6553 -0.0778
H24? H 0.7368 0.5219 -0.1146
H25? H 0.8731 0.5707 -0.0406
loop_
_geom_bond_atom_site_label_1
_geom_bond_atom_site_label_2
_geom_bond_site_symmetry_1
_geom_bond_site_symmetry_2
S1 C3 1_555 1_555
Cl1 C12 1_555 1_555
N1 H1 1_555 1_555
C1 N2 1_555 1_555
N2 N1 1_555 1_555
C2 C1 1_555 1_555
N3 C4 1_555 1_555
C3 N1 1_555 1_555
C4 C2 1_555 1_555
N4 C4 1_555 1_555
C5 N3 1_555 1_555
H2 C5 1_555 1_555
H3 C5 1_555 1_555
H4 C5 1_555 1_555
C6 N3 1_555 1_555
H8 C6 1_555 1_555
H9 C6 1_555 1_555
H10 C6 1_555 1_555
C7 N4 1_555 1_555
H14 C7 1_555 1_555
H15 C7 1_555 1_555
H16 C7 1_555 1_555
C8 N4 1_555 1_555
H20 C8 1_555 1_555
H21 C8 1_555 1_555
H22 C8 1_555 1_555
C9 C1 1_555 1_555
C10 C9 1_555 1_555
H26 C10 1_555 1_555
C11 C10 1_555 1_555
H27 C11 1_555 1_555
C12 C11 1_555 1_555
C13 C12 1_555 1_555
H28 C13 1_555 1_555
C14 C9 1_555 1_555
H29 C14 1_555 1_555
C2 C3 1_555 1_555
C13 C14 1_555 1_555

#END
