
#######################################################################
#
#                 Cambridge Crystallographic Data Centre
#                                CCDC 
#
#######################################################################
#
# If this CIF has been generated from an entry in the Cambridge 
# Structural Database, then it will include bibliographic, chemical, 
# crystal, experimental, refinement or atomic coordinate data resulting 
# from the CCDC's data processing and validation procedures.
#
#######################################################################

data_PILFEX
_chemical_formula_moiety         'C17 H8 O9 2-,C6 H14 N2 2+'
_chemical_name_systematic        
"1,4-Diazoniabicyclo[2.2.2]octane 4,4'-carbonylbis(2-carboxybenzoate)"
_symmetry_cell_setting           triclinic
_symmetry_space_group_name_H-M   'P -1'
_symmetry_Int_Tables_number      2
_space_group_name_Hall           '-P 1'
loop_
_symmetry_equiv_pos_site_id
_symmetry_equiv_pos_as_xyz
1 x,y,z
2 -x,-y,-z
_cell_length_a                   9.2221(13)
_cell_length_b                   9.2270(12)
_cell_length_c                   13.1191(17)
_cell_angle_alpha                74.471(2)
_cell_angle_beta                 74.445(2)
_cell_angle_gamma                81.796(2)
_cell_volume                     1033.16
_exptl_crystal_colour            colorless
_exptl_crystal_description       block
_cell_formula_units_Z            2
loop_
_atom_site_label
_atom_site_type_symbol
_atom_site_fract_x
_atom_site_fract_y
_atom_site_fract_z
C1 C 0.5884(3) 0.3471(3) -0.1446(2)
C2 C 0.6023(3) 0.2328(3) -0.0424(2)
C3 C 0.7370(3) 0.1437(3) -0.0411(2)
C4 C 0.8658(3) 0.1378(3) -0.1400(2)
C5 C 0.7628(2) 0.0538(3) 0.0579(2)
H1 H 0.8577 -0.0012 0.0596
C6 C 0.6501(2) 0.0450(2) 0.15354(15)
H2 H 0.6672 -0.0179 0.2202
C7 C 0.51228(19) 0.1281(2) 0.15169(14)
C8 C 0.4872(2) 0.2202(3) 0.05417(19)
H3 H 0.3920 0.2747 0.0527
C9 C 0.3805(3) 0.1190(3) 0.2499(2)
C10 C 0.3715(2) -0.0128(2) 0.34878(14)
C11 C 0.4556(2) -0.1501(2) 0.34699(15)
H4 H 0.5189 -0.1670 0.2804
C12 C 0.4470(3) -0.2626(2) 0.44267(19)
H5 H 0.5044 -0.3564 0.4415
C13 C 0.3544(3) -0.2378(3) 0.54014(16)
C14 C 0.2703(3) -0.1005(4) 0.54193(14)
C15 C 0.2789(3) 0.0120(3) 0.44625(17)
H6 H 0.2215 0.1058 0.4475
C16 C 0.3619(3) -0.3665(3) 0.6397(2)
C17 C 0.1530(3) -0.0883(3) 0.6446(2)
O1 O 0.4578(2) 0.4194(3) -0.14085(18)
H7 H 0.4650 0.4980 -0.1916
O2 O 0.6925(3) 0.3760(3) -0.2209(2)
O3 O 0.9780(2) 0.2093(2) -0.15264(16)
O4 O 0.8574(2) 0.0572(3) -0.19921(17)
O5 O 0.2792(2) 0.2203(2) 0.24994(17)
O6 O 0.2908(2) -0.4782(2) 0.65258(17)
O7 O 0.4429(3) -0.3566(2) 0.69914(17)
O8 O 0.1245(3) -0.1924(3) 0.7209(2)
O9 O 0.0803(3) 0.0424(2) 0.64051(18)
H8 H 0.0112 0.0391 0.6976
C18? C 0.7364(8) 0.1204(8) -0.0367(3)
C19? C 0.6068(8) 0.2129(8) -0.0505(3)
C20? C 0.4762(7) 0.1983(6) 0.0332(2)
H9? H 0.3876 0.2615 0.0237
C21? C 0.4751(5) 0.0911(5) 0.13062(17)
H10? H 0.3859 0.0811 0.1878
C22? C 0.6047(5) -0.0014(5) 0.1444(2)
C23? C 0.7354(6) 0.0132(7) 0.0607(3)
H11? H 0.8239 -0.0501 0.0702
C24? C 0.613(2) -0.114(2) 0.2492(15)
C25? C 0.5049(15) -0.0987(15) 0.3573(10)
C26? C 0.4112(16) 0.0296(14) 0.3729(11)
H12? H 0.4210 0.1201 0.3169
C27? C 0.3031(17) 0.025(2) 0.4704(13)
H13? H 0.2391 0.1132 0.4810
C28? C 0.289(2) -0.107(3) 0.5524(11)
C29? C 0.383(2) -0.235(2) 0.5368(13)
C30? C 0.4906(19) -0.2310(14) 0.4393(14)
H14? H 0.5546 -0.3187 0.4287
O10? O 0.7117(15) -0.2159(14) 0.2501(10)
C31? C 1.0906(8) 0.4421(7) 0.1026(5)
H15? H 1.1944 0.4488 0.1079
H16? H 1.0252 0.4120 0.1770
C32? C 0.8567(6) 0.5816(7) 0.0737(5)
H17? H 0.7974 0.6728 0.0424
H18? H 0.8253 0.5620 0.1542
C33? C 1.0883(8) 0.6367(8) -0.0648(5)
H19? H 1.1992 0.6244 -0.0745
H20? H 1.0596 0.7431 -0.0977
C34? C 1.0391(7) 0.5312(7) -0.1199(5)
H21? H 0.9645 0.5883 -0.1607
H22? H 1.1280 0.5002 -0.1735
C35? C 1.0885(7) 0.3306(6) 0.0347(5)
H23? H 1.0473 0.2359 0.0832
H24? H 1.1924 0.3062 -0.0057
C36? C 0.8314(7) 0.4454(7) 0.0357(5)
H25? H 0.7427 0.4684 0.0036
H26? H 0.8126 0.3567 0.0984
N1? N 1.0242(19) 0.603(2) 0.0337(12)
H27? H 1.0417 0.6783 0.0633
N2? N 0.980(2) 0.410(2) -0.0535(13)
H28? H 0.9646 0.3427 -0.0904
C37? C 0.1696(6) 0.4122(7) 0.4650(5)
H29? H 0.2641 0.4529 0.4158
H30? H 0.1943 0.3082 0.5049
C38? C -0.0317(7) 0.4613(7) 0.6193(4)
H31? H -0.0864 0.5428 0.6541
H32? H -0.0065 0.3757 0.6774
C39? C 0.0565(6) 0.6682(6) 0.4624(5)
H33? H 0.0335 0.7535 0.4981
H34? H 0.1426 0.6919 0.3982
C40? C -0.0816(7) 0.6444(7) 0.4266(5)
H35? H -0.0679 0.6837 0.3469
H36? H -0.1739 0.6962 0.4642
C41? C 0.0578(7) 0.4093(8) 0.3975(5)
H37? H 0.0876 0.4751 0.3232
H38? H 0.0529 0.3055 0.3916
C42? C -0.1355(8) 0.4103(8) 0.5647(5)
H39? H -0.1281 0.2988 0.5798
H40? H -0.2416 0.4455 0.5931
N3? N 0.100(2) 0.5126(16) 0.5481(14)
H41? H 0.1691 0.5265 0.5840
N4? N -0.0931(19) 0.4681(16) 0.4600(12)
H42? H -0.1665 0.4495 0.4293
loop_
_geom_bond_atom_site_label_1
_geom_bond_atom_site_label_2
_geom_bond_site_symmetry_1
_geom_bond_site_symmetry_2
C1 C2 1_555 1_555
C2 C3 1_555 1_555
C3 C4 1_555 1_555
C4 O3 1_555 1_555
C5 C3 1_555 1_555
H1 C5 1_555 1_555
C6 C5 1_555 1_555
H2 C6 1_555 1_555
C7 C6 1_555 1_555
C8 C2 1_555 1_555
H3 C8 1_555 1_555
C9 C7 1_555 1_555
C10 C9 1_555 1_555
C11 C10 1_555 1_555
H4 C11 1_555 1_555
C12 C11 1_555 1_555
H5 C12 1_555 1_555
C13 C12 1_555 1_555
C14 C13 1_555 1_555
C15 C10 1_555 1_555
H6 C15 1_555 1_555
C16 C13 1_555 1_555
C17 C14 1_555 1_555
O1 C1 1_555 1_555
H7 O1 1_555 1_555
O2 C1 1_555 1_555
O4 C4 1_555 1_555
O5 C9 1_555 1_555
O6 C16 1_555 1_555
O7 C16 1_555 1_555
O8 C17 1_555 1_555
O9 C17 1_555 1_555
H8 O9 1_555 1_555
C7 C8 1_555 1_555
C14 C15 1_555 1_555

#END
