
#######################################################################
#
#                 Cambridge Crystallographic Data Centre
#                                CCDC 
#
#######################################################################
#
# If this CIF has been generated from an entry in the Cambridge 
# Structural Database, then it will include bibliographic, chemical, 
# crystal, experimental, refinement or atomic coordinate data resulting 
# from the CCDC's data processing and validation procedures.
#
#######################################################################

data_PILGEX
_chemical_formula_moiety         'C15 H13 N3 O4'
_chemical_name_systematic        
4-methoxy-N-((1E)-(2-nitrophenyl)methylene)benzhydrazide
_symmetry_cell_setting           orthorhombic
_symmetry_space_group_name_H-M   'P c a 21'
_symmetry_Int_Tables_number      29
_space_group_name_Hall           'P 2c -2ac'
loop_
_symmetry_equiv_pos_site_id
_symmetry_equiv_pos_as_xyz
1 x,y,z
2 -x,-y,1/2+z
3 1/2+x,-y,z
4 1/2-x,y,1/2+z
_cell_length_a                   27.3272(15)
_cell_length_b                   4.8389(3)
_cell_length_c                   21.6639(12)
_cell_angle_alpha                90
_cell_angle_beta                 90
_cell_angle_gamma                90
_cell_volume                     2864.7
_exptl_crystal_colour            yellow
_exptl_crystal_description       block
_cell_formula_units_Z            8
_exptl_crystal_recrystallization_method DMF
loop_
_atom_site_label
_atom_site_type_symbol
_atom_site_fract_x
_atom_site_fract_y
_atom_site_fract_z
O1 O 0.95758(9) 0.5777(5) 0.99874(14)
O2 O 0.79909(9) 0.1002(6) 0.81382(13)
O3 O 1.07001(10) -0.5271(7) 1.21363(14)
O4 O 1.01349(9) -0.3168(7) 1.16428(15)
N1 N 0.98150(9) 0.1336(5) 0.99582(14)
H1 H 0.9759 -0.0309 0.9826
N2 N 1.02079(9) 0.1816(6) 1.03432(13)
N3 N 1.05595(10) -0.3480(6) 1.17783(14)
C1 C 0.75747(14) 0.2779(11) 0.8092(2)
H3 H 0.7403 0.2803 0.8478
H4 H 0.7361 0.2112 0.7773
H5 H 0.7681 0.4617 0.7991
C2 C 0.83484(13) 0.1711(8) 0.85484(17)
C3 C 0.87762(14) 0.0170(8) 0.85072(19)
H6 H 0.8807 -0.1200 0.8209
C4 C 0.91548(14) 0.0688(7) 0.89123(17)
H7 H 0.9440 -0.0352 0.8886
C5 C 0.91161(11) 0.2735(6) 0.93575(15)
C6 C 0.86918(12) 0.4255(7) 0.93821(17)
H8 H 0.8663 0.5661 0.9673
C7 C 0.83074(13) 0.3740(8) 0.89850(17)
H9 H 0.8021 0.4771 0.9014
C8 C 0.95202(11) 0.3410(6) 0.97897(15)
C9 C 1.03790(11) -0.0312(7) 1.06142(15)
H10 H 1.0226 -0.2017 1.0573
C10 C 1.08216(11) -0.0030(6) 1.09922(14)
C11 C 1.09264(11) -0.1602(7) 1.15167(15)
C12 C 1.13661(12) -0.1393(8) 1.18240(17)
H11 H 1.1428 -0.2501 1.2166
C13 C 1.17137(13) 0.0459(9) 1.16240(19)
H12 H 1.2010 0.0622 1.1831
C14 C 1.16188(13) 0.2054(8) 1.11180(19)
H13 H 1.1851 0.3327 1.0985
C15 C 1.11838(12) 0.1803(7) 1.08016(17)
H14 H 1.1131 0.2883 1.0453
O5 O 0.22355(8) 1.3185(4) -0.03675(13)
O6 O 0.04707(8) 0.7561(6) -0.17868(12)
O7 O 0.32068(10) 0.2884(7) 0.22193(14)
O8 O 0.26593(11) 0.4585(7) 0.16330(14)
N4 N 0.23202(9) 0.8791(5) -0.00297(12)
H2 H 0.2224 0.7104 -0.0057
N5 N 0.27059(9) 0.9449(5) 0.03510(12)
N6 N 0.30788(11) 0.4463(6) 0.18136(13)
C16 C 0.01518(13) 0.5396(9) -0.1618(2)
H15 H 0.0332 0.3696 -0.1594
H16 H -0.0102 0.5224 -0.1922
H17 H 0.0009 0.5794 -0.1223
C17 C 0.08517(11) 0.8199(7) -0.14052(16)
C18 C 0.09396(11) 0.7002(7) -0.08400(16)
H18 H 0.0729 0.5661 -0.0686
C19 C 0.13441(10) 0.7810(7) -0.05040(15)
H19 H 0.1406 0.6972 -0.0126
C20 C 0.16590(11) 0.9834(6) -0.07158(14)
C21 C 0.15563(12) 1.1059(7) -0.12792(15)
H20 H 0.1758 1.2463 -0.1425
C22 C 0.11605(12) 1.0229(8) -0.16261(16)
H21 H 0.1101 1.1035 -0.2009
C23 C 0.20924(10) 1.0772(6) -0.03599(15)
C24 C 0.28988(11) 0.7390(7) 0.06273(16)
H22 H 0.2768 0.5626 0.0583
C25 C 0.33316(11) 0.7859(6) 0.10178(14)
C26 C 0.34331(11) 0.6392(6) 0.15542(15)
C27 C 0.38649(12) 0.6755(8) 0.18840(16)
H23 H 0.3927 0.5705 0.2235
C28 C 0.41980(13) 0.8683(8) 0.16846(19)
H24 H 0.4490 0.8939 0.1898
C29 C 0.40985(12) 1.0226(8) 0.11709(18)
H25 H 0.4319 1.1580 0.1046
C30 C 0.36755(11) 0.9796(7) 0.08357(16)
H26 H 0.3620 1.0829 0.0480
loop_
_geom_bond_atom_site_label_1
_geom_bond_atom_site_label_2
_geom_bond_site_symmetry_1
_geom_bond_site_symmetry_2
O1 C8 1_555 1_555
O2 C1 1_555 1_555
O3 N3 1_555 1_555
O4 N3 1_555 1_555
O5 C23 1_555 1_555
O6 C16 1_555 1_555
O7 N6 1_555 1_555
O8 N6 1_555 1_555
N1 H1 1_555 1_555
N2 N1 1_555 1_555
N3 C11 1_555 1_555
N4 H2 1_555 1_555
N5 N4 1_555 1_555
N6 C26 1_555 1_555
C1 H3 1_555 1_555
H4 C1 1_555 1_555
H5 C1 1_555 1_555
C2 O2 1_555 1_555
C3 C2 1_555 1_555
H6 C3 1_555 1_555
C4 C3 1_555 1_555
H7 C4 1_555 1_555
C5 C4 1_555 1_555
C6 C5 1_555 1_555
H8 C6 1_555 1_555
C7 C2 1_555 1_555
H9 C7 1_555 1_555
C8 N1 1_555 1_555
C9 N2 1_555 1_555
H10 C9 1_555 1_555
C10 C9 1_555 1_555
C11 C10 1_555 1_555
C12 C11 1_555 1_555
H11 C12 1_555 1_555
C13 C12 1_555 1_555
H12 C13 1_555 1_555
C14 C13 1_555 1_555
H13 C14 1_555 1_555
C15 C10 1_555 1_555
H14 C15 1_555 1_555
C16 H15 1_555 1_555
H16 C16 1_555 1_555
H17 C16 1_555 1_555
C17 O6 1_555 1_555
C18 C17 1_555 1_555
H18 C18 1_555 1_555
C19 C18 1_555 1_555
H19 C19 1_555 1_555
C20 C19 1_555 1_555
C21 C20 1_555 1_555
H20 C21 1_555 1_555
C22 C17 1_555 1_555
H21 C22 1_555 1_555
C23 N4 1_555 1_555
C24 N5 1_555 1_555
H22 C24 1_555 1_555
C25 C24 1_555 1_555
C26 C25 1_555 1_555
C27 C26 1_555 1_555
H23 C27 1_555 1_555
C28 C27 1_555 1_555
H24 C28 1_555 1_555
C29 C28 1_555 1_555
H25 C29 1_555 1_555
C30 C25 1_555 1_555
H26 C30 1_555 1_555
C5 C8 1_555 1_555
C6 C7 1_555 1_555
C14 C15 1_555 1_555
C20 C23 1_555 1_555
C21 C22 1_555 1_555
C29 C30 1_555 1_555

#END
