
#######################################################################
#
#                 Cambridge Crystallographic Data Centre
#                                CCDC 
#
#######################################################################
#
# If this CIF has been generated from an entry in the Cambridge 
# Structural Database, then it will include bibliographic, chemical, 
# crystal, experimental, refinement or atomic coordinate data resulting 
# from the CCDC's data processing and validation procedures.
#
#######################################################################

data_PILHUO
_chemical_formula_moiety         'C21 H16 Cl1 N3 O4'
_chemical_name_systematic        
(E)-N'-(4-(4-Chlorobenzoyloxy)-3-methoxybenzylidene)isonicotinohydrazide
_symmetry_cell_setting           monoclinic
_symmetry_space_group_name_H-M   'P 21/c'
_symmetry_Int_Tables_number      14
_space_group_name_Hall           '-P 2ybc'
loop_
_symmetry_equiv_pos_site_id
_symmetry_equiv_pos_as_xyz
1 x,y,z
2 -x,1/2+y,1/2-z
3 -x,-y,-z
4 x,1/2-y,1/2+z
_cell_length_a                   21.746(6)
_cell_length_b                   12.011(3)
_cell_length_c                   7.700(2)
_cell_angle_alpha                90
_cell_angle_beta                 99.472(5)
_cell_angle_gamma                90
_cell_volume                     1983.75
_exptl_crystal_colour            colorless
_exptl_crystal_description       block
_cell_formula_units_Z            4
_exptl_crystal_recrystallization_method acetonitrile
loop_
_atom_site_label
_atom_site_type_symbol
_atom_site_fract_x
_atom_site_fract_y
_atom_site_fract_z
Cl1 Cl 0.37851(3) 0.67006(8) 0.39409(12)
O1 O 0.68083(8) 0.62360(17) 0.3371(3)
O2 O 0.64129(6) 0.47384(13) 0.1858(2)
O3 O 0.68737(7) 0.56737(15) -0.0796(2)
O4 O 1.00413(7) 0.13543(13) 0.31364(19)
N1 N 0.90937(7) 0.26639(15) 0.1402(2)
N2 N 0.96127(7) 0.23334(15) 0.0708(2)
H1 H 0.9660 0.2559 -0.0322
N3 N 1.14908(10) 0.0721(2) -0.1253(4)
C1 C 0.56095(11) 0.6848(2) 0.3981(3)
H2 H 0.5937 0.7319 0.4420
C2 C 0.50132(12) 0.7084(2) 0.4265(3)
H3 H 0.4938 0.7707 0.4914
C3 C 0.45322(11) 0.6391(2) 0.3581(3)
C4 C 0.46278(10) 0.5459(2) 0.2630(3)
H4 H 0.4296 0.5002 0.2167
C5 C 0.52281(10) 0.5215(2) 0.2373(3)
H5 H 0.5302 0.4580 0.1748
C6 C 0.57183(9) 0.59036(19) 0.3037(3)
C7 C 0.63702(10) 0.5675(2) 0.2801(3)
C8 C 0.70153(9) 0.44466(19) 0.1576(3)
C9 C 0.73453(10) 0.3666(2) 0.2639(3)
H6 H 0.7181 0.3364 0.3577
C10 C 0.79233(10) 0.3328(2) 0.2315(3)
H7 H 0.8149 0.2798 0.3036
C11 C 0.81639(9) 0.37765(19) 0.0923(3)
C12 C 0.78249(9) 0.45669(18) -0.0154(3)
H8 H 0.7987 0.4866 -0.1097
C13 C 0.72453(9) 0.49122(19) 0.0170(3)
C14 C 0.70980(14) 0.6149(3) -0.2264(4)
H9 H 0.7477 0.6548 -0.1863
H10 H 0.6791 0.6651 -0.2865
H11 H 0.7177 0.5568 -0.3055
C15 C 0.87629(9) 0.33998(18) 0.0491(3)
H12 H 0.8905 0.3708 -0.0477
C16 C 1.00436(9) 0.16643(18) 0.1624(3)
C17 C 1.05475(9) 0.13263(18) 0.0612(3)
C18 C 1.11589(10) 0.1288(2) 0.1437(4)
H13 H 1.1266 0.1456 0.2627
C19 C 1.16111(12) 0.0994(3) 0.0448(5)
H14 H 1.2024 0.0985 0.1006
C20 C 1.08999(12) 0.0745(2) -0.2004(4)
H15 H 1.0804 0.0555 -0.3189
C21 C 1.04152(10) 0.10353(19) -0.1141(3)
H16 H 1.0006 0.1034 -0.1733
loop_
_geom_bond_atom_site_label_1
_geom_bond_atom_site_label_2
_geom_bond_site_symmetry_1
_geom_bond_site_symmetry_2
Cl1 C3 1_555 1_555
O1 C7 1_555 1_555
O2 C7 1_555 1_555
O3 C13 1_555 1_555
O4 C16 1_555 1_555
N1 N2 1_555 1_555
N2 H1 1_555 1_555
N3 C19 1_555 1_555
C1 H2 1_555 1_555
C2 C1 1_555 1_555
H3 C2 1_555 1_555
C3 C2 1_555 1_555
C4 C3 1_555 1_555
H4 C4 1_555 1_555
C5 C4 1_555 1_555
H5 C5 1_555 1_555
C6 C1 1_555 1_555
C7 C6 1_555 1_555
C8 O2 1_555 1_555
C9 C8 1_555 1_555
H6 C9 1_555 1_555
C10 C9 1_555 1_555
H7 C10 1_555 1_555
C11 C10 1_555 1_555
C12 C11 1_555 1_555
H8 C12 1_555 1_555
C13 C8 1_555 1_555
C14 O3 1_555 1_555
H9 C14 1_555 1_555
H10 C14 1_555 1_555
H11 C14 1_555 1_555
C15 N1 1_555 1_555
H12 C15 1_555 1_555
C16 N2 1_555 1_555
C17 C16 1_555 1_555
C18 C17 1_555 1_555
H13 C18 1_555 1_555
C19 C18 1_555 1_555
H14 C19 1_555 1_555
C20 N3 1_555 1_555
H15 C20 1_555 1_555
C21 C17 1_555 1_555
H16 C21 1_555 1_555
C5 C6 1_555 1_555
C11 C15 1_555 1_555
C12 C13 1_555 1_555
C20 C21 1_555 1_555

#END
