
#######################################################################
#
#                 Cambridge Crystallographic Data Centre
#                                CCDC 
#
#######################################################################
#
# If this CIF has been generated from an entry in the Cambridge 
# Structural Database, then it will include bibliographic, chemical, 
# crystal, experimental, refinement or atomic coordinate data resulting 
# from the CCDC's data processing and validation procedures.
#
#######################################################################

data_PILJOK
_chemical_compound_source        'roots and rhizomes of Ligularia macrophylla'
_chemical_name_common            2-Hydroxyplatyphyllid
_chemical_formula_moiety         'C14 H14 O3'
_chemical_name_systematic        
4-hydroxy-3-(1-methylethylidene)-6,7,8,8a-tetrahydro-1-oxaacenaphthylen-2-one
_symmetry_cell_setting           orthorhombic
_symmetry_space_group_name_H-M   'P 21 21 21'
_symmetry_Int_Tables_number      19
_space_group_name_Hall           'P 2ac 2ab'
loop_
_symmetry_equiv_pos_site_id
_symmetry_equiv_pos_as_xyz
1 x,y,z
2 1/2-x,-y,1/2+z
3 -x,1/2+y,1/2-z
4 1/2+x,1/2-y,-z
_cell_length_a                   7.678(4)
_cell_length_b                   8.063(4)
_cell_length_c                   19.580(10)
_cell_angle_alpha                90
_cell_angle_beta                 90
_cell_angle_gamma                90
_cell_volume                     1212.15
_exptl_crystal_colour            colorless
_exptl_crystal_description       prism
_cell_formula_units_Z            4
_exptl_crystal_recrystallization_method 'petroleum ether/acetone'
loop_
_atom_site_label
_atom_site_type_symbol
_atom_site_fract_x
_atom_site_fract_y
_atom_site_fract_z
O1 O 0.7457(5) 0.0823(4) 0.12179(15)
H1 H 0.755(9) -0.014(3) 0.107(2)
O2 O 0.7573(5) 0.7554(3) 0.08791(15)
O3 O 0.7270(5) 0.7191(3) -0.02453(15)
C1 C 0.7226(7) 0.1556(5) 0.0023(2)
H2 H 0.7286 0.0443 -0.0099
C2 C 0.7309(6) 0.1984(5) 0.0717(2)
C3 C 0.7310(7) 0.3637(5) 0.0914(2)
H3 H 0.7431 0.3943 0.1370
C4 C 0.7123(6) 0.4803(5) 0.0405(2)
C5 C 0.6906(5) 0.4361(5) -0.0268(2)
C6 C 0.6778(6) 0.5828(6) -0.0707(2)
H4 H 0.5557 0.5975 -0.0839
C7 C 0.7851(6) 0.5607(6) -0.1347(2)
H5 H 0.9060 0.5393 -0.1213
C8 C 0.7099(8) 0.4001(6) -0.1669(2)
H6 H 0.5875 0.4185 -0.1767
H7 H 0.7682 0.3815 -0.2102
C9 C 0.7256(9) 0.2425(6) -0.1243(2)
H8 H 0.6370 0.1644 -0.1389
H9 H 0.8384 0.1924 -0.1328
C10 C 0.7059(6) 0.2734(5) -0.0480(2)
C11 C 0.7834(8) 0.7051(7) -0.1837(2)
C12 C 0.6172(10) 0.7755(10) -0.2038(4)
H10 H 0.5517 0.8041 -0.1638
H11 H 0.5534 0.6958 -0.2303
H12 H 0.6367 0.8733 -0.2308
C13 C 0.9324(6) 0.7596(4) -0.21134(18)
H13 H 0.9303 0.8436 -0.2439
H14 H 1.0380 0.7133 -0.1980
C14 C 0.7347(6) 0.6635(4) 0.04079(18)
loop_
_geom_bond_atom_site_label_1
_geom_bond_atom_site_label_2
_geom_bond_site_symmetry_1
_geom_bond_site_symmetry_2
O1 H1 1_555 1_555
O2 C14 1_555 1_555
O3 C6 1_555 1_555
C1 H2 1_555 1_555
C2 O1 1_555 1_555
C3 C2 1_555 1_555
H3 C3 1_555 1_555
C4 C3 1_555 1_555
C5 C4 1_555 1_555
C6 C5 1_555 1_555
H4 C6 1_555 1_555
C7 C6 1_555 1_555
H5 C7 1_555 1_555
C8 C7 1_555 1_555
H6 C8 1_555 1_555
H7 C8 1_555 1_555
C9 C8 1_555 1_555
H8 C9 1_555 1_555
H9 C9 1_555 1_555
C10 C1 1_555 1_555
C11 C7 1_555 1_555
C12 C11 1_555 1_555
H10 C12 1_555 1_555
H11 C12 1_555 1_555
H12 C12 1_555 1_555
C13 C11 1_555 1_555
H13 C13 1_555 1_555
H14 C13 1_555 1_555
C14 O3 1_555 1_555
C1 C2 1_555 1_555
C4 C14 1_555 1_555
C5 C10 1_555 1_555
C9 C10 1_555 1_555

#END
