
#######################################################################
#
#                 Cambridge Crystallographic Data Centre
#                                CCDC 
#
#######################################################################
#
# If this CIF has been generated from an entry in the Cambridge 
# Structural Database, then it will include bibliographic, chemical, 
# crystal, experimental, refinement or atomic coordinate data resulting 
# from the CCDC's data processing and validation procedures.
#
#######################################################################

data_PILJEA
_chemical_formula_moiety         'C25 H20 N1 O1 P1'
_chemical_name_systematic        N-(2-(Diphenylphosphino)phenyl)benzamide
_symmetry_cell_setting           monoclinic
_symmetry_space_group_name_H-M   'P 21/n'
_symmetry_Int_Tables_number      14
_space_group_name_Hall           '-P 2yn'
loop_
_symmetry_equiv_pos_site_id
_symmetry_equiv_pos_as_xyz
1 x,y,z
2 1/2-x,1/2+y,1/2-z
3 -x,-y,-z
4 1/2+x,1/2-y,1/2+z
_cell_length_a                   9.936(5)
_cell_length_b                   10.819(4)
_cell_length_c                   19.038(11)
_cell_angle_alpha                90
_cell_angle_beta                 93.49(2)
_cell_angle_gamma                90
_cell_volume                     2042.74
_exptl_crystal_colour            colorless
_exptl_crystal_description       needle
_chemical_melting_point          '377-379 K'
_cell_formula_units_Z            4
loop_
_atom_site_label
_atom_site_type_symbol
_atom_site_fract_x
_atom_site_fract_y
_atom_site_fract_z
P1 P 0.18732(6) 0.27331(6) 0.03471(3)
N1 N 0.0906(2) 0.43689(17) -0.08083(10)
H1 H 0.1580 0.4486 -0.0510
O1 O 0.0171(2) 0.47614(19) -0.19282(10)
C1 C 0.2309(3) 0.5556(2) -0.15335(14)
C2 C 0.3507(3) 0.5288(3) -0.11613(17)
H2 H 0.3546 0.4631 -0.0846
C3 C 0.4651(3) 0.5985(3) -0.1250(2)
H3 H 0.5457 0.5793 -0.0999
C4 C 0.4590(5) 0.6954(4) -0.1709(3)
H4 H 0.5353 0.7433 -0.1765
C5 C 0.3424(5) 0.7225(3) -0.2085(2)
H5 H 0.3399 0.7883 -0.2399
C6 C 0.2267(3) 0.6534(3) -0.20064(15)
H6 H 0.1473 0.6723 -0.2268
C7 C 0.1032(3) 0.4862(2) -0.14497(14)
C8 C -0.0174(2) 0.36881(19) -0.05563(12)
C9 C -0.1477(3) 0.3825(2) -0.08339(14)
H7 H -0.1663 0.4346 -0.1216
C10 C -0.2506(3) 0.3187(2) -0.05418(15)
H8 H -0.3385 0.3279 -0.0730
C11 C -0.2251(3) 0.2416(2) 0.00228(14)
H9 H -0.2953 0.2000 0.0222
C12 C -0.0945(2) 0.2267(2) 0.02899(13)
H10 H -0.0773 0.1740 0.0671
C13 C 0.0125(2) 0.28804(19) 0.00078(12)
C14 C 0.1732(2) 0.1743(2) 0.11078(12)
C15 C 0.1525(3) 0.2295(3) 0.17442(14)
H11 H 0.1461 0.3151 0.1769
C16 C 0.1410(4) 0.1604(4) 0.23404(16)
H12 H 0.1239 0.1989 0.2762
C17 C 0.1549(4) 0.0342(4) 0.23152(19)
H13 H 0.1508 -0.0127 0.2723
C18 C 0.1746(4) -0.0215(3) 0.16908(19)
H14 H 0.1815 -0.1072 0.1672
C19 C 0.1845(3) 0.0459(2) 0.10894(14)
H15 H 0.1987 0.0061 0.0667
C20 C 0.2567(2) 0.1730(2) -0.03078(12)
C21 C 0.3957(3) 0.1668(3) -0.03155(16)
H16 H 0.4488 0.2108 0.0017
C22 C 0.4562(3) 0.0962(3) -0.08090(18)
H17 H 0.5497 0.0920 -0.0803
C23 C 0.3801(3) 0.0328(2) -0.13041(16)
H18 H 0.4213 -0.0140 -0.1640
C24 C 0.2432(3) 0.0381(3) -0.13059(15)
H19 H 0.1911 -0.0056 -0.1644
C25 C 0.1812(3) 0.1074(2) -0.08124(14)
H20 H 0.0876 0.1100 -0.0819
loop_
_geom_bond_atom_site_label_1
_geom_bond_atom_site_label_2
_geom_bond_site_symmetry_1
_geom_bond_site_symmetry_2
P1 C13 1_555 1_555
N1 H1 1_555 1_555
O1 C7 1_555 1_555
C1 C2 1_555 1_555
C2 H2 1_555 1_555
C3 C2 1_555 1_555
H3 C3 1_555 1_555
C4 C3 1_555 1_555
H4 C4 1_555 1_555
C5 C4 1_555 1_555
H5 C5 1_555 1_555
C6 C1 1_555 1_555
H6 C6 1_555 1_555
C7 N1 1_555 1_555
C8 N1 1_555 1_555
C9 C8 1_555 1_555
H7 C9 1_555 1_555
C10 C9 1_555 1_555
H8 C10 1_555 1_555
C11 C10 1_555 1_555
H9 C11 1_555 1_555
C12 C11 1_555 1_555
H10 C12 1_555 1_555
C13 C8 1_555 1_555
C14 P1 1_555 1_555
C15 C14 1_555 1_555
H11 C15 1_555 1_555
C16 C15 1_555 1_555
H12 C16 1_555 1_555
C17 C16 1_555 1_555
H13 C17 1_555 1_555
C18 C17 1_555 1_555
H14 C18 1_555 1_555
C19 C14 1_555 1_555
H15 C19 1_555 1_555
C20 P1 1_555 1_555
C21 C20 1_555 1_555
H16 C21 1_555 1_555
C22 C21 1_555 1_555
H17 C22 1_555 1_555
C23 C22 1_555 1_555
H18 C23 1_555 1_555
C24 C23 1_555 1_555
H19 C24 1_555 1_555
C25 C20 1_555 1_555
H20 C25 1_555 1_555
C1 C7 1_555 1_555
C5 C6 1_555 1_555
C12 C13 1_555 1_555
C18 C19 1_555 1_555
C24 C25 1_555 1_555

#END
