
#######################################################################
#
#                 Cambridge Crystallographic Data Centre
#                                CCDC 
#
#######################################################################
#
# If this CIF has been generated from an entry in the Cambridge 
# Structural Database, then it will include bibliographic, chemical, 
# crystal, experimental, refinement or atomic coordinate data resulting 
# from the CCDC's data processing and validation procedures.
#
#######################################################################

data_PILKOL
_chemical_formula_moiety         'C14 H14 O3'
_chemical_name_systematic        2'-(2-Hydroxyethoxy)-1,1'-biphenyl-2-ol
_symmetry_cell_setting           triclinic
_symmetry_space_group_name_H-M   'P -1'
_symmetry_Int_Tables_number      2
_space_group_name_Hall           '-P 1'
loop_
_symmetry_equiv_pos_site_id
_symmetry_equiv_pos_as_xyz
1 x,y,z
2 -x,-y,-z
_cell_length_a                   7.2804(15)
_cell_length_b                   12.8846(18)
_cell_length_c                   14.106(2)
_cell_angle_alpha                108.870(3)
_cell_angle_beta                 101.160(2)
_cell_angle_gamma                99.516(2)
_cell_volume                     1190.82
_exptl_crystal_colour            colorless
_exptl_crystal_description       block
_cell_formula_units_Z            4
_exptl_crystal_recrystallization_method ethanol
loop_
_atom_site_label
_atom_site_type_symbol
_atom_site_fract_x
_atom_site_fract_y
_atom_site_fract_z
O1 O 0.0453(3) 0.04937(14) 0.14343(14)
H1 H 0.0755 0.0910 0.1127
O2 O 0.2256(2) 0.27719(12) 0.22548(12)
O3 O 0.1344(2) 0.15170(13) 0.00340(12)
H2 H 0.0992 0.0844 -0.0338
C1 C 0.0777(4) 0.1153(2) 0.25096(19)
H5 H 0.2016 0.1127 0.2895
H6 H -0.0217 0.0834 0.2776
C2 C 0.0755(4) 0.2349(2) 0.2665(2)
H7 H -0.0491 0.2389 0.2302
H8 H 0.0998 0.2793 0.3398
C3 C 0.2114(3) 0.36991(18) 0.19976(17)
C4 C 0.1180(4) 0.4490(2) 0.24718(19)
H9 H 0.0594 0.4395 0.2978
C5 C 0.1116(4) 0.5422(2) 0.2196(2)
H10 H 0.0474 0.5949 0.2510
C6 C 0.1997(5) 0.5569(2) 0.1459(2)
H11 H 0.1954 0.6196 0.1272
C7 C 0.2950(4) 0.4788(2) 0.0994(2)
H12 H 0.3545 0.4900 0.0496
C8 C 0.3046(3) 0.38399(18) 0.12474(17)
C9 C 0.4140(3) 0.30379(19) 0.07534(17)
C10 C 0.6086(4) 0.3426(2) 0.08374(19)
H13 H 0.6697 0.4182 0.1229
C11 C 0.7144(4) 0.2715(3) 0.0352(2)
H14 H 0.8441 0.2995 0.0413
C12 C 0.6259(4) 0.1602(2) -0.0215(2)
H15 H 0.6958 0.1120 -0.0540
C13 C 0.4345(4) 0.1191(2) -0.03062(18)
H16 H 0.3757 0.0429 -0.0685
C14 C 0.3284(3) 0.19018(19) 0.01615(17)
O4 O 0.7641(3) 0.52204(15) 0.45876(17)
H3 H 0.8674 0.5627 0.4634
O5 O 0.7889(3) 0.74097(15) 0.46791(14)
O6 O 1.1385(2) 0.64946(13) 0.49509(13)
H4 H 1.1735 0.6069 0.5234
C15 C 0.6137(5) 0.5472(3) 0.3989(3)
H17 H 0.4921 0.4983 0.3930
H18 H 0.6307 0.5317 0.3296
C16 C 0.6050(4) 0.6646(3) 0.4432(3)
H19 H 0.5120 0.6807 0.3940
H20 H 0.5612 0.6762 0.5057
C17 C 0.8592(5) 0.7621(2) 0.3902(2)
C18 C 0.7459(6) 0.7352(2) 0.2908(2)
H21 H 0.6161 0.6977 0.2717
C19 C 0.8302(8) 0.7657(3) 0.2196(3)
H22 H 0.7558 0.7468 0.1522
C20 C 1.0166(8) 0.8217(3) 0.2467(3)
H23 H 1.0695 0.8424 0.1986
C21 C 1.1299(6) 0.8487(2) 0.3464(3)
H24 H 1.2583 0.8883 0.3648
C22 C 1.0549(4) 0.8175(2) 0.4192(2)
C23 C 1.1798(4) 0.84402(19) 0.52450(19)
C24 C 1.2675(4) 0.9555(2) 0.5899(2)
H25 H 1.2429 1.0138 0.5680
C25 C 1.3902(4) 0.9814(3) 0.6867(3)
H26 H 1.4473 1.0566 0.7292
C26 C 1.4279(4) 0.8967(3) 0.7198(2)
H27 H 1.5103 0.9144 0.7851
C27 C 1.3445(4) 0.7853(2) 0.6571(2)
H28 H 1.3703 0.7277 0.6798
C28 C 1.2219(3) 0.75958(19) 0.56005(19)
loop_
_geom_bond_atom_site_label_1
_geom_bond_atom_site_label_2
_geom_bond_site_symmetry_1
_geom_bond_site_symmetry_2
O1 H1 1_555 1_555
O2 C2 1_555 1_555
O3 H2 1_555 1_555
O4 H3 1_555 1_555
O5 C16 1_555 1_555
O6 H4 1_555 1_555
C1 O1 1_555 1_555
H5 C1 1_555 1_555
H6 C1 1_555 1_555
C2 C1 1_555 1_555
H7 C2 1_555 1_555
H8 C2 1_555 1_555
C3 O2 1_555 1_555
C4 C3 1_555 1_555
H9 C4 1_555 1_555
C5 C4 1_555 1_555
H10 C5 1_555 1_555
C6 C5 1_555 1_555
H11 C6 1_555 1_555
C7 C6 1_555 1_555
H12 C7 1_555 1_555
C8 C3 1_555 1_555
C9 C8 1_555 1_555
C10 C9 1_555 1_555
H13 C10 1_555 1_555
C11 C10 1_555 1_555
H14 C11 1_555 1_555
C12 C11 1_555 1_555
H15 C12 1_555 1_555
C13 C12 1_555 1_555
H16 C13 1_555 1_555
C14 O3 1_555 1_555
C15 O4 1_555 1_555
H17 C15 1_555 1_555
H18 C15 1_555 1_555
C16 C15 1_555 1_555
H19 C16 1_555 1_555
H20 C16 1_555 1_555
C17 O5 1_555 1_555
C18 C17 1_555 1_555
H21 C18 1_555 1_555
C19 C18 1_555 1_555
H22 C19 1_555 1_555
C20 C19 1_555 1_555
H23 C20 1_555 1_555
C21 C20 1_555 1_555
H24 C21 1_555 1_555
C22 C17 1_555 1_555
C23 C22 1_555 1_555
C24 C23 1_555 1_555
H25 C24 1_555 1_555
C25 C24 1_555 1_555
H26 C25 1_555 1_555
C26 C25 1_555 1_555
H27 C26 1_555 1_555
C27 C26 1_555 1_555
H28 C27 1_555 1_555
C28 O6 1_555 1_555
C7 C8 1_555 1_555
C9 C14 1_555 1_555
C13 C14 1_555 1_555
C21 C22 1_555 1_555
C23 C28 1_555 1_555
C27 C28 1_555 1_555

#END
