
#######################################################################
#
#                 Cambridge Crystallographic Data Centre
#                                CCDC 
#
#######################################################################
#
# If this CIF has been generated from an entry in the Cambridge 
# Structural Database, then it will include bibliographic, chemical, 
# crystal, experimental, refinement or atomic coordinate data resulting 
# from the CCDC's data processing and validation procedures.
#
#######################################################################

data_PILKAX01
_chemical_formula_moiety         'C25 H20 N1 P1'
_chemical_name_systematic        N-(Benzylidene)-2-(diphenylphosphino)aniline
_symmetry_cell_setting           monoclinic
_symmetry_space_group_name_H-M   'P c'
_symmetry_Int_Tables_number      7
_space_group_name_Hall           'P -2yc'
loop_
_symmetry_equiv_pos_site_id
_symmetry_equiv_pos_as_xyz
1 x,y,z
2 x,-y,1/2+z
_cell_length_a                   15.108(3)
_cell_length_b                   13.258(3)
_cell_length_c                   20.346(4)
_cell_angle_alpha                90
_cell_angle_beta                 98.395(3)
_cell_angle_gamma                90
_cell_volume                     4031.67
_exptl_crystal_colour            colorless
_exptl_crystal_description       block
_chemical_melting_point          '108-110 deg.C'
_cell_formula_units_Z            8
loop_
_atom_site_label
_atom_site_type_symbol
_atom_site_fract_x
_atom_site_fract_y
_atom_site_fract_z
P1 P 0.98945(4) 0.50091(5) 0.63090(3)
N1 N 1.00963(12) 0.65863(15) 0.53239(9)
C1 C 1.00768(14) 0.44252(17) 0.71387(11)
C2 C 1.06925(15) 0.36055(17) 0.72202(13)
H1 H 1.0981 0.3389 0.6872
C3 C 1.08476(17) 0.3140(2) 0.78388(13)
H2 H 1.1231 0.2589 0.7896
C4 C 1.04688(19) 0.3454(2) 0.83500(15)
H3 H 1.0589 0.3112 0.8752
C5 C 0.9914(2) 0.4257(2) 0.83041(13)
H4 H 0.9674 0.4481 0.8673
C6 C 0.97017(16) 0.4754(2) 0.76796(13)
H5 H 0.9311 0.5299 0.7637
C7 C 0.89192(13) 0.58180(16) 0.63905(11)
C8 C 0.89539(16) 0.67964(19) 0.66150(14)
H6 H 0.9508 0.7099 0.6740
C9 C 0.8202(2) 0.7332(2) 0.66590(16)
H7 H 0.8235 0.7972 0.6847
C10 C 0.73660(16) 0.6894(2) 0.64120(14)
H8 H 0.6846 0.7267 0.6419
C11 C 0.73076(16) 0.5974(2) 0.61735(16)
H9 H 0.6748 0.5697 0.6027
C12 C 0.80828(15) 0.5399(2) 0.61366(14)
H10 H 0.8043 0.4759 0.5949
C13 C 1.08128(13) 0.59395(17) 0.63416(12)
C14 C 1.15507(14) 0.58852(18) 0.68723(12)
H11 H 1.1531 0.5455 0.7231
C15 C 1.23003(15) 0.6494(2) 0.68377(12)
H12 H 1.2792 0.6461 0.7170
C16 C 1.23051(15) 0.71194(19) 0.63272(12)
H13 H 1.2811 0.7515 0.6315
C17 C 1.15941(14) 0.72166(19) 0.58088(12)
H14 H 1.1612 0.7672 0.5464
C18 C 1.08517(13) 0.65914(16) 0.58359(10)
C19 C 0.97990(13) 0.74393(18) 0.51033(12)
H15 H 1.0067 0.8031 0.5280
C20 C 0.90269(16) 0.74850(19) 0.45661(12)
C21 C 0.89337(17) 0.8375(2) 0.42315(16)
H16 H 0.9316 0.8907 0.4372
C22 C 0.82971(18) 0.8502(3) 0.36990(18)
H17 H 0.8244 0.9115 0.3474
C23 C 0.77024(17) 0.7683(3) 0.34827(14)
H18 H 0.7291 0.7727 0.3096
C24 C 0.77681(17) 0.6826(3) 0.38746(14)
H19 H 0.7334 0.6326 0.3799
C25 C 0.84860(18) 0.67143(19) 0.43821(15)
H20 H 0.8588 0.6095 0.4594
P2 P 0.98923(4) 0.99919(5) 0.13087(3)
N2 N 1.00977(12) 0.84309(14) 0.03330(9)
C26 C 1.00791(14) 1.05805(16) 0.21390(12)
C27 C 1.06985(15) 1.13937(17) 0.22252(12)
H21 H 1.0997 1.1597 0.1879
C28 C 1.08498(15) 1.18776(18) 0.28349(11)
H22 H 1.1199 1.2458 0.2881
C29 C 1.05108(19) 1.1532(2) 0.33458(14)
H23 H 1.0685 1.1814 0.3763
C30 C 0.99082(18) 1.0767(2) 0.32747(13)
H24 H 0.9620 1.0596 0.3633
C31 C 0.97017(17) 1.0215(2) 0.26695(13)
H25 H 0.9337 0.9647 0.2635
C32 C 0.89087(14) 0.92023(17) 0.13729(12)
C33 C 0.80733(15) 0.9592(2) 0.11308(14)
H26 H 0.8014 1.0239 0.0954
C34 C 0.73072(16) 0.8975(3) 0.11596(15)
H27 H 0.6744 0.9212 0.0979
C35 C 0.73804(19) 0.8094(3) 0.14314(15)
H28 H 0.6868 0.7728 0.1478
C36 C 0.82185(18) 0.7685(2) 0.16557(15)
H29 H 0.8264 0.7039 0.1836
C37 C 0.89624(13) 0.8224(2) 0.16121(14)
H30 H 0.9521 0.7934 0.1744
C38 C 1.08398(13) 0.90940(16) 0.13626(11)
C39 C 1.15598(14) 0.91119(18) 0.18976(12)
H31 H 1.1537 0.9520 0.2266
C40 C 1.22897(15) 0.85103(17) 0.18553(13)
H32 H 1.2779 0.8536 0.2190
C41 C 1.23076(13) 0.78827(18) 0.13351(13)
H33 H 1.2815 0.7491 0.1323
C42 C 1.15908(14) 0.77944(18) 0.08093(12)
H34 H 1.1607 0.7351 0.0457
C43 C 1.08439(14) 0.84278(19) 0.08533(12)
C44 C 0.98193(15) 0.75606(19) 0.01042(13)
H35 H 1.0102 0.6981 0.0286
C45 C 0.90714(14) 0.7465(2) -0.04335(13)
C46 C 0.85169(16) 0.8231(2) -0.05982(13)
H36 H 0.8628 0.8820 -0.0351
C47 C 0.77655(19) 0.8244(2) -0.11167(16)
H37 H 0.7372 0.8786 -0.1184
C48 C 0.7672(2) 0.7404(3) -0.15021(18)
H38 H 0.7249 0.7391 -0.1883
C49 C 0.82191(19) 0.6544(2) -0.13273(14)
H39 H 0.8116 0.5949 -0.1568
C50 C 0.88779(17) 0.6594(2) -0.08185(14)
H40 H 0.9228 0.6023 -0.0713
P3 P 0.39919(4) 0.75113(5) 0.47903(3)
N3 N 0.37609(12) 0.91052(14) 0.57603(10)
C51 C 0.49507(16) 0.8289(2) 0.47355(12)
C52 C 0.57956(15) 0.7940(2) 0.49603(13)
H41 H 0.5863 0.7304 0.5153
C53 C 0.65436(15) 0.8504(3) 0.49084(16)
H42 H 0.7109 0.8235 0.5045
C54 C 0.6457(2) 0.9494(2) 0.46482(17)
H43 H 0.6961 0.9895 0.4646
C55 C 0.56726(16) 0.9838(2) 0.44135(15)
H44 H 0.5613 1.0482 0.4230
C56 C 0.49044(14) 0.9232(2) 0.44366(13)
H45 H 0.4349 0.9475 0.4244
C57 C 0.37877(15) 0.69507(17) 0.39634(14)
C58 C 0.41706(18) 0.7219(2) 0.34022(15)
H46 H 0.4588 0.7740 0.3444
C59 C 0.3970(2) 0.6764(3) 0.27983(15)
H47 H 0.4215 0.6997 0.2433
C60 C 0.33889(16) 0.59412(19) 0.27404(15)
H48 H 0.3261 0.5595 0.2340
C61 C 0.29947(18) 0.5640(2) 0.33046(14)
H49 H 0.2592 0.5106 0.3276
C62 C 0.32225(17) 0.6159(2) 0.38968(12)
H50 H 0.2973 0.5951 0.4266
C63 C 0.30477(15) 0.83798(17) 0.47210(12)
C64 C 0.23508(15) 0.83861(17) 0.42264(12)
H51 H 0.2368 0.7958 0.3867
C65 C 0.16094(17) 0.9000(2) 0.42274(13)
H52 H 0.1142 0.8969 0.3875
C66 C 0.15581(15) 0.96639(19) 0.47537(14)
H53 H 0.1065 1.0082 0.4762
C67 C 0.22683(15) 0.96710(19) 0.52579(12)
H54 H 0.2236 1.0083 0.5624
C68 C 0.30190(15) 0.91044(18) 0.52489(12)
C69 C 0.40829(16) 0.9939(2) 0.59670(13)
H55 H 0.3843 1.0531 0.5770
C70 C 0.48401(16) 0.99998(19) 0.65213(13)
C71 C 0.54204(17) 0.9180(2) 0.66851(14)
H56 H 0.5387 0.8585 0.6441
C72 C 0.6051(2) 0.9340(3) 0.72478(19)
H57 H 0.6416 0.8802 0.7407
C73 C 0.6167(3) 1.0249(3) 0.7583(2)
H58 H 0.6635 1.0326 0.7931
C74 C 0.5627(2) 1.0995(3) 0.74133(17)
H59 H 0.5684 1.1590 0.7658
C75 C 0.49359(19) 1.0904(3) 0.68459(17)
H60 H 0.4566 1.1447 0.6705
P4 P 0.39897(4) 0.25129(5) 0.47867(3)
N4 N 0.37578(11) 0.40951(14) 0.57561(9)
C76 C 0.49518(14) 0.3332(2) 0.47302(12)
C77 C 0.49194(19) 0.42849(19) 0.44320(14)
H61 H 0.4373 0.4548 0.4237
C78 C 0.57014(16) 0.4843(2) 0.44257(16)
H62 H 0.5669 0.5497 0.4259
C79 C 0.65148(14) 0.4431(2) 0.46646(15)
H63 H 0.7037 0.4797 0.4652
C80 C 0.6556(2) 0.3427(3) 0.49359(19)
H64 H 0.7102 0.3126 0.5092
C81 C 0.57929(17) 0.2941(2) 0.49578(15)
H65 H 0.5824 0.2295 0.5138
C82 C 0.37646(14) 0.19122(19) 0.39661(11)
C83 C 0.32268(15) 0.11031(17) 0.38536(13)
H66 H 0.3002 0.0826 0.4215
C84 C 0.2985(2) 0.0655(2) 0.32438(14)
H67 H 0.2542 0.0163 0.3183
C85 C 0.3423(2) 0.0960(2) 0.27189(13)
H68 H 0.3332 0.0626 0.2313
C86 C 0.39844(19) 0.1757(2) 0.28203(15)
H69 H 0.4252 0.2001 0.2469
C87 C 0.41658(19) 0.22064(18) 0.34200(14)
H70 H 0.4575 0.2734 0.3472
C88 C 0.30647(14) 0.33927(17) 0.47004(10)
C89 C 0.23137(15) 0.3403(2) 0.42238(13)
H71 H 0.2294 0.2952 0.3872
C90 C 0.15891(14) 0.4036(2) 0.42344(15)
H72 H 0.1132 0.4045 0.3874
C91 C 0.15329(16) 0.4668(2) 0.47809(12)
H73 H 0.1033 0.5061 0.4817
C92 C 0.22754(15) 0.46567(18) 0.52564(13)
H74 H 0.2267 0.5084 0.5618
C93 C 0.30301(15) 0.40809(18) 0.52542(12)
C94 C 0.40753(17) 0.4916(2) 0.59819(13)
H75 H 0.3810 0.5500 0.5792
C95 C 0.48197(14) 0.5043(2) 0.65125(13)
C96 C 0.49549(18) 0.5928(2) 0.68709(16)
H76 H 0.4594 0.6487 0.6754
C97 C 0.56413(18) 0.5974(3) 0.74129(18)
H77 H 0.5719 0.6561 0.7665
C98 C 0.6163(2) 0.5225(3) 0.75665(17)
H78 H 0.6641 0.5298 0.7907
C99 C 0.6037(2) 0.4304(3) 0.72401(19)
H79 H 0.6386 0.3751 0.7394
C100 C 0.5399(2) 0.4212(2) 0.66931(15)
H80 H 0.5346 0.3621 0.6445
loop_
_geom_bond_atom_site_label_1
_geom_bond_atom_site_label_2
_geom_bond_site_symmetry_1
_geom_bond_site_symmetry_2
P1 C1 1_555 1_555
P2 C26 1_555 1_555
P3 C51 1_555 1_555
P4 C76 1_555 1_555
N1 C18 1_555 1_555
N2 C43 1_555 1_555
N3 C68 1_555 1_555
N4 C93 1_555 1_555
C1 C2 1_555 1_555
C2 H1 1_555 1_555
C3 C2 1_555 1_555
H2 C3 1_555 1_555
C4 C3 1_555 1_555
H3 C4 1_555 1_555
C5 C4 1_555 1_555
H4 C5 1_555 1_555
C6 C1 1_555 1_555
H5 C6 1_555 1_555
C7 P1 1_555 1_555
C8 C7 1_555 1_555
H6 C8 1_555 1_555
C9 C8 1_555 1_555
H7 C9 1_555 1_555
C10 C9 1_555 1_555
H8 C10 1_555 1_555
C11 C10 1_555 1_555
H9 C11 1_555 1_555
C12 C7 1_555 1_555
H10 C12 1_555 1_555
C13 P1 1_555 1_555
C14 C13 1_555 1_555
H11 C14 1_555 1_555
C15 C14 1_555 1_555
H12 C15 1_555 1_555
C16 C15 1_555 1_555
H13 C16 1_555 1_555
C17 C16 1_555 1_555
H14 C17 1_555 1_555
C18 C13 1_555 1_555
C19 N1 1_555 1_555
H15 C19 1_555 1_555
C20 C19 1_555 1_555
C21 C20 1_555 1_555
H16 C21 1_555 1_555
C22 C21 1_555 1_555
H17 C22 1_555 1_555
C23 C22 1_555 1_555
H18 C23 1_555 1_555
C24 C23 1_555 1_555
H19 C24 1_555 1_555
C25 C20 1_555 1_555
H20 C25 1_555 1_555
C26 C27 1_555 1_555
C27 H21 1_555 1_555
C28 C27 1_555 1_555
H22 C28 1_555 1_555
C29 C28 1_555 1_555
H23 C29 1_555 1_555
C30 C29 1_555 1_555
H24 C30 1_555 1_555
C31 C26 1_555 1_555
H25 C31 1_555 1_555
C32 P2 1_555 1_555
C33 C32 1_555 1_555
H26 C33 1_555 1_555
C34 C33 1_555 1_555
H27 C34 1_555 1_555
C35 C34 1_555 1_555
H28 C35 1_555 1_555
C36 C35 1_555 1_555
H29 C36 1_555 1_555
C37 C32 1_555 1_555
H30 C37 1_555 1_555
C38 P2 1_555 1_555
C39 C38 1_555 1_555
H31 C39 1_555 1_555
C40 C39 1_555 1_555
H32 C40 1_555 1_555
C41 C40 1_555 1_555
H33 C41 1_555 1_555
C42 C41 1_555 1_555
H34 C42 1_555 1_555
C43 C38 1_555 1_555
C44 N2 1_555 1_555
H35 C44 1_555 1_555
C45 C44 1_555 1_555
C46 C45 1_555 1_555
H36 C46 1_555 1_555
C47 C46 1_555 1_555
H37 C47 1_555 1_555
C48 C47 1_555 1_555
H38 C48 1_555 1_555
C49 C48 1_555 1_555
H39 C49 1_555 1_555
C50 C45 1_555 1_555
H40 C50 1_555 1_555
C51 C52 1_555 1_555
C52 H41 1_555 1_555
C53 C52 1_555 1_555
H42 C53 1_555 1_555
C54 C53 1_555 1_555
H43 C54 1_555 1_555
C55 C54 1_555 1_555
H44 C55 1_555 1_555
C56 C51 1_555 1_555
H45 C56 1_555 1_555
C57 P3 1_555 1_555
C58 C57 1_555 1_555
H46 C58 1_555 1_555
C59 C58 1_555 1_555
H47 C59 1_555 1_555
C60 C59 1_555 1_555
H48 C60 1_555 1_555
C61 C60 1_555 1_555
H49 C61 1_555 1_555
C62 C57 1_555 1_555
H50 C62 1_555 1_555
C63 P3 1_555 1_555
C64 C63 1_555 1_555
H51 C64 1_555 1_555
C65 C64 1_555 1_555
H52 C65 1_555 1_555
C66 C65 1_555 1_555
H53 C66 1_555 1_555
C67 C66 1_555 1_555
H54 C67 1_555 1_555
C68 C63 1_555 1_555
C69 N3 1_555 1_555
H55 C69 1_555 1_555
C70 C69 1_555 1_555
C71 C70 1_555 1_555
H56 C71 1_555 1_555
C72 C71 1_555 1_555
H57 C72 1_555 1_555
C73 C72 1_555 1_555
H58 C73 1_555 1_555
C74 C73 1_555 1_555
H59 C74 1_555 1_555
C75 C70 1_555 1_555
H60 C75 1_555 1_555
C76 C77 1_555 1_555
C77 H61 1_555 1_555
C78 C77 1_555 1_555
H62 C78 1_555 1_555
C79 C78 1_555 1_555
H63 C79 1_555 1_555
C80 C79 1_555 1_555
H64 C80 1_555 1_555
C81 C76 1_555 1_555
H65 C81 1_555 1_555
C82 P4 1_555 1_555
C83 C82 1_555 1_555
H66 C83 1_555 1_555
C84 C83 1_555 1_555
H67 C84 1_555 1_555
C85 C84 1_555 1_555
H68 C85 1_555 1_555
C86 C85 1_555 1_555
H69 C86 1_555 1_555
C87 C82 1_555 1_555
H70 C87 1_555 1_555
C88 P4 1_555 1_555
C89 C88 1_555 1_555
H71 C89 1_555 1_555
C90 C89 1_555 1_555
H72 C90 1_555 1_555
C91 C90 1_555 1_555
H73 C91 1_555 1_555
C92 C91 1_555 1_555
H74 C92 1_555 1_555
C93 C88 1_555 1_555
C94 N4 1_555 1_555
H75 C94 1_555 1_555
C95 C94 1_555 1_555
C96 C95 1_555 1_555
H76 C96 1_555 1_555
C97 C96 1_555 1_555
H77 C97 1_555 1_555
C98 C97 1_555 1_555
H78 C98 1_555 1_555
C99 C98 1_555 1_555
H79 C99 1_555 1_555
C100 C95 1_555 1_555
H80 C100 1_555 1_555
C5 C6 1_555 1_555
C11 C12 1_555 1_555
C17 C18 1_555 1_555
C24 C25 1_555 1_555
C30 C31 1_555 1_555
C36 C37 1_555 1_555
C42 C43 1_555 1_555
C49 C50 1_555 1_555
C55 C56 1_555 1_555
C61 C62 1_555 1_555
C67 C68 1_555 1_555
C74 C75 1_555 1_555
C80 C81 1_555 1_555
C86 C87 1_555 1_555
C92 C93 1_555 1_555
C99 C100 1_555 1_555

#END
