
#######################################################################
#
#                 Cambridge Crystallographic Data Centre
#                                CCDC 
#
#######################################################################
#
# If this CIF has been generated from an entry in the Cambridge 
# Structural Database, then it will include bibliographic, chemical, 
# crystal, experimental, refinement or atomic coordinate data resulting 
# from the CCDC's data processing and validation procedures.
#
#######################################################################

data_PILTOW
_chemical_formula_moiety         'C10 H13 N1 O3,C4 H9 N3 S1'
_chemical_name_systematic        
'ethyl 5-formyl-3,4-dimethyl-1H-pyrrole-2-carboxylate 2-(propan-2-ylidene)hydrazine-1-carbothioamide'
_symmetry_cell_setting           triclinic
_symmetry_space_group_name_H-M   'P -1'
_symmetry_Int_Tables_number      2
_space_group_name_Hall           '-P 1'
loop_
_symmetry_equiv_pos_site_id
_symmetry_equiv_pos_as_xyz
1 x,y,z
2 -x,-y,-z
_cell_length_a                   6.9906(9)
_cell_length_b                   8.0075(11)
_cell_length_c                   16.057(2)
_cell_angle_alpha                81.822(2)
_cell_angle_beta                 89.151(2)
_cell_angle_gamma                70.735(2)
_cell_volume                     839.37
_exptl_crystal_colour            colorless
_exptl_crystal_description       block
_cell_formula_units_Z            2
loop_
_atom_site_label
_atom_site_type_symbol
_atom_site_fract_x
_atom_site_fract_y
_atom_site_fract_z
O1 O 0.6332(3) 0.72001(19) -0.14989(9)
O2 O 1.0119(3) -0.0173(2) 0.11150(10)
N1 N 0.8341(3) 0.3153(2) -0.00592(10)
H1 H 0.866051 0.228980 -0.035393
C1 C 0.8624(3) 0.2976(3) 0.07912(12)
O3 O 0.7242(3) 0.4375(2) -0.17547(10)
C2 C 0.7474(3) 0.4913(2) -0.03652(12)
C3 C 0.6252(4) 0.7886(3) 0.02710(15)
H2 H 0.729003 0.837939 0.037466
H3 H 0.525566 0.813641 0.069515
H4 H 0.561693 0.841346 -0.027313
C4 C 0.7901(3) 0.4678(3) 0.10292(12)
C5 C 0.7020(3) 0.5434(3) -0.12715(13)
C6 C 0.7177(3) 0.5904(3) 0.02966(12)
C7 C 0.9512(4) 0.1308(3) 0.13234(13)
H5 H 0.963968 0.136369 0.189369
C8 C 0.7889(4) 0.5149(3) 0.19010(14)
H6 H 0.854398 0.408651 0.228885
H7 H 0.651507 0.567555 0.205952
H8 H 0.860194 0.598555 0.191259
C9 C 0.5835(5) 0.7851(3) -0.23865(15)
H9 H 0.482558 0.739195 -0.258090
H10 H 0.703533 0.746150 -0.271503
C10 C 0.5027(5) 0.9842(4) -0.24833(17)
H11 H 0.379470 1.021278 -0.218333
H12 H 0.475701 1.031844 -0.306908
H13 H 0.600834 1.027718 -0.225975
N2 N 0.8688(3) 0.2703(2) -0.44204(10)
H14 H 0.889395 0.232314 -0.489961
N3 N 0.7759(3) 0.4510(2) -0.43706(11)
C11 C 0.9257(3) 0.1561(3) -0.36944(12)
N4 N 0.8885(3) 0.2275(3) -0.29905(11)
H15 H 0.830903 0.341024 -0.301183
H16 H 0.921847 0.160435 -0.251145
C12 C 0.7206(3) 0.5610(3) -0.50505(13)
C13 C 0.6217(4) 0.7537(3) -0.49573(16)
H17 H 0.607477 0.765180 -0.437065
H18 H 0.490327 0.798036 -0.523586
H19 H 0.703962 0.821470 -0.520562
S1 S 1.03937(12) -0.06446(8) -0.37095(4)
C14 C 0.7457(4) 0.5155(3) -0.59216(14)
H20 H 0.886266 0.453851 -0.600452
H21 H 0.699340 0.623267 -0.631883
H22 H 0.667730 0.440024 -0.600338
loop_
_geom_bond_atom_site_label_1
_geom_bond_atom_site_label_2
_geom_bond_site_symmetry_1
_geom_bond_site_symmetry_2
O1 C5 1_555 1_555
O2 C7 1_555 1_555
N1 H1 1_555 1_555
C1 N1 1_555 1_555
O3 C5 1_555 1_555
C2 N1 1_555 1_555
C3 H2 1_555 1_555
H3 C3 1_555 1_555
H4 C3 1_555 1_555
C4 C1 1_555 1_555
C5 C2 1_555 1_555
C6 C2 1_555 1_555
C7 C1 1_555 1_555
H5 C7 1_555 1_555
C8 C4 1_555 1_555
H6 C8 1_555 1_555
H7 C8 1_555 1_555
H8 C8 1_555 1_555
C9 O1 1_555 1_555
H9 C9 1_555 1_555
H10 C9 1_555 1_555
C10 C9 1_555 1_555
H11 C10 1_555 1_555
H12 C10 1_555 1_555
H13 C10 1_555 1_555
N2 H14 1_555 1_555
N3 N2 1_555 1_555
C11 N2 1_555 1_555
N4 C11 1_555 1_555
H15 N4 1_555 1_555
H16 N4 1_555 1_555
C12 N3 1_555 1_555
C13 C12 1_555 1_555
H17 C13 1_555 1_555
H18 C13 1_555 1_555
H19 C13 1_555 1_555
S1 C11 1_555 1_555
C14 C12 1_555 1_555
H20 C14 1_555 1_555
H21 C14 1_555 1_555
H22 C14 1_555 1_555
C3 C6 1_555 1_555
C4 C6 1_555 1_555

#END
