
#######################################################################
#
#                 Cambridge Crystallographic Data Centre
#                                CCDC 
#
#######################################################################
#
# If this CIF has been generated from an entry in the Cambridge 
# Structural Database, then it will include bibliographic, chemical, 
# crystal, experimental, refinement or atomic coordinate data resulting 
# from the CCDC's data processing and validation procedures.
#
#######################################################################

data_PILVAK
_chemical_formula_moiety         'C10 H4 O8 2-,C6 H14 N4 2+'
_chemical_name_systematic        
'1,3,5,7-tetraazaadamantane-1,3-diium 2,5-dicarboxyterephthalate'
_symmetry_cell_setting           monoclinic
_symmetry_space_group_name_H-M   'C 2/m'
_symmetry_Int_Tables_number      12
_space_group_name_Hall           '-C 2y'
loop_
_symmetry_equiv_pos_site_id
_symmetry_equiv_pos_as_xyz
1 x,y,z
2 -x,y,-z
3 1/2+x,1/2+y,z
4 1/2-x,1/2+y,-z
5 -x,-y,-z
6 x,-y,z
7 1/2-x,1/2-y,-z
8 1/2+x,1/2-y,z
_cell_length_a                   14.517(4)
_cell_length_b                   18.006(7)
_cell_length_c                   6.916(3)
_cell_angle_alpha                90
_cell_angle_beta                 116.97(3)
_cell_angle_gamma                90
_cell_volume                     1611.19
_exptl_crystal_colour            colorless
_exptl_crystal_description       Block
_cell_formula_units_Z            4
loop_
_atom_site_label
_atom_site_type_symbol
_atom_site_fract_x
_atom_site_fract_y
_atom_site_fract_z
O1 O 0.8488(6) 0.0628(4) 1.0003(8)
C1 C 0.80234(18) 0.09111(12) 0.8080(3)
C2 C 0.75693(14) 0.03864(10) 0.6152(3)
C3 C 0.71038(14) 0.07486(10) 0.4163(3)
H1 H 0.7098 0.1265 0.4167
C4 C 0.66478(13) 0.03908(10) 0.2172(3)
C5 C 0.62023(15) 0.09157(11) 0.0252(3)
O2 O 0.77891(14) 0.15570(9) 0.7872(2)
O3 O 0.62778(12) 0.15884(8) 0.0596(2)
O4 O 0.57607(12) 0.06621(9) -0.1684(2)
O1E O 0.8488(6) -0.0628(4) 1.0003(8)
C1E C 0.80234(18) -0.09111(12) 0.8080(3)
C2E C 0.75693(14) -0.03864(10) 0.6152(3)
C3E C 0.71038(14) -0.07486(10) 0.4163(3)
H1E H 0.7098 -0.1265 0.4167
C4E C 0.66478(13) -0.03908(10) 0.2172(3)
C5E C 0.62023(15) -0.09157(11) 0.0252(3)
O2E O 0.77891(14) -0.15570(9) 0.7872(2)
O3E O 0.62778(12) -0.15884(8) 0.0596(2)
O4E O 0.57607(12) -0.06621(9) -0.1684(2)
C6 C 0.5000 0.38010(16) 0.5000
H2 H 0.4656 0.4122 0.3765
C7 C 0.36991(16) 0.28844(13) 0.3321(3)
H3 H 0.3436 0.3207 0.2061
H4 H 0.3162 0.2572 0.3561
C8 C 0.47141(18) 0.28868(13) 0.7120(3)
H5 H 0.5069 0.3216 0.8423
H6 H 0.4214 0.2583 0.7378
C9 C 0.5000 0.19030(15) 0.5000
H7 H 0.4499 0.1606 0.5217
N1 N 0.42276(13) 0.33437(10) 0.5225(3)
N2 N 0.55084(13) 0.23931(9) 0.6922(2)
H8 H 0.5821 0.2104 0.8100
H2A H 0.5344 0.4122 0.6235
C7A C 0.63009(16) 0.28844(13) 0.6679(3)
H3A H 0.6564 0.3207 0.7939
H4A H 0.6838 0.2572 0.6439
C8A C 0.52859(18) 0.28868(13) 0.2880(3)
H5A H 0.4931 0.3216 0.1577
H6A H 0.5786 0.2583 0.2622
H7A H 0.5501 0.1606 0.4783
N1A N 0.57724(13) 0.33437(10) 0.4775(3)
N2A N 0.44916(13) 0.23931(9) 0.3078(2)
H8A H 0.4179 0.2104 0.1900
O5? O 0.8873(6) 0.0694(3) 0.9735(9)
H9? H 0.579(3) 0.014(3) -0.176(6)
H10? H 0.874(3) 0.0239(9) 0.976(9)
loop_
_geom_bond_atom_site_label_1
_geom_bond_atom_site_label_2
_geom_bond_site_symmetry_1
_geom_bond_site_symmetry_2
O1 C1 1_555 1_555
C1 C2 1_555 1_555
C2 C3 1_555 1_555
C3 H1 1_555 1_555
C4 C3 1_555 1_555
C5 C4 1_555 1_555
O2 C1 1_555 1_555
O3 C5 1_555 1_555
O4 C5 1_555 1_555
C6 H2 1_555 1_555
C7 H3 1_555 1_555
H4 C7 1_555 1_555
C8 H5 1_555 1_555
H6 C8 1_555 1_555
C9 H7 1_555 1_555
N1 C6 1_555 1_555
N2 C8 1_555 1_555
H8 N2 1_555 1_555
O1E C1E 1_555 1_555
C1E C2E 1_555 1_555
C2E C2 1_555 1_555
C3E C2E 1_555 1_555
H1E C3E 1_555 1_555
C4E C4 1_555 1_555
C5E C4E 1_555 1_555
O2E C1E 1_555 1_555
O3E C5E 1_555 1_555
O4E C5E 1_555 1_555
H2A C6 1_555 1_555
C7A N2 1_555 1_555
H3A C7A 1_555 1_555
H4A C7A 1_555 1_555
C8A H5A 1_555 1_555
H6A C8A 1_555 1_555
H7A C9 1_555 1_555
N1A C6 1_555 1_555
N2A C7 1_555 1_555
H8A N2A 1_555 1_555
C7 N1 1_555 1_555
C8 N1 1_555 1_555
C9 N2 1_555 1_555
C9 N2A 1_555 1_555
C3E C4E 1_555 1_555
C7A N1A 1_555 1_555
C8A N1A 1_555 1_555
C8A N2A 1_555 1_555

#END
