
#######################################################################
#
#                 Cambridge Crystallographic Data Centre
#                                CCDC 
#
#######################################################################
#
# If this CIF has been generated from an entry in the Cambridge 
# Structural Database, then it will include bibliographic, chemical, 
# crystal, experimental, refinement or atomic coordinate data resulting 
# from the CCDC's data processing and validation procedures.
#
#######################################################################

data_PILWUE
_chemical_formula_moiety         'C12 H24 O6,C10 H14 N1 O3 1+,F6 P1 1-'
_chemical_name_systematic        
'4-(2-Ethoxy-2-oxoethoxy)anilinium hexafluorophosphate 1,4,7,10,13,16-hexaoxacyclooctadecane'
_symmetry_cell_setting           monoclinic
_symmetry_space_group_name_H-M   'P 21/c'
_symmetry_Int_Tables_number      14
_space_group_name_Hall           '-P 2ybc'
loop_
_symmetry_equiv_pos_site_id
_symmetry_equiv_pos_as_xyz
1 x,y,z
2 -x,1/2+y,1/2-z
3 -x,-y,-z
4 x,1/2-y,1/2+z
_cell_length_a                   12.540(8)
_cell_length_b                   14.585(8)
_cell_length_c                   16.573(9)
_cell_angle_alpha                90
_cell_angle_beta                 108.100(12)
_cell_angle_gamma                90
_cell_volume                     2881.14
_cell_formula_units_Z            4
loop_
_atom_site_label
_atom_site_type_symbol
_atom_site_fract_x
_atom_site_fract_y
_atom_site_fract_z
O1 O 0.14729(17) 0.10117(14) 0.20252(13)
N1 N -0.19862(19) 0.14039(16) 0.34814(15)
H1 H -0.1841 0.1868 0.3848
H2 H -0.2068 0.0891 0.3746
H3 H -0.2615 0.1519 0.3062
O2 O 0.3209(2) 0.07074(16) 0.35025(15)
C1 C -0.0225(2) 0.05191(19) 0.21946(18)
H4 H -0.0246 0.0058 0.1802
O3 O 0.41302(18) 0.19420(16) 0.32504(16)
C2 C -0.1050(2) 0.12952(18) 0.31306(17)
C3 C 0.0737(2) 0.18020(18) 0.30388(18)
H5 H 0.1353 0.2192 0.3213
C4 C 0.0687(2) 0.11278(18) 0.24381(18)
C5 C -0.0144(2) 0.18893(18) 0.33793(18)
H6 H -0.0124 0.2347 0.3774
C6 C -0.1092(2) 0.06072(18) 0.25400(18)
H7 H -0.1700 0.0208 0.2378
C7 C 0.2414(2) 0.1614(2) 0.2239(2)
H8 H 0.2160 0.2236 0.2277
H9 H 0.2762 0.1597 0.1792
C8 C 0.3275(2) 0.1355(2) 0.3074(2)
C9 C 0.5035(3) 0.1741(3) 0.4048(3)
H10 H 0.4730 0.1704 0.4518
H11 H 0.5388 0.1161 0.4002
C10 C 0.5856(3) 0.2487(3) 0.4190(3)
H12 H 0.6455 0.2375 0.4705
H13 H 0.5498 0.3058 0.4236
H14 H 0.6153 0.2517 0.3722
O4 O -0.17963(19) 0.00510(14) 0.47538(13)
O5 O -0.35974(19) -0.01905(15) 0.32339(15)
O6 O -0.38342(19) 0.11633(18) 0.19997(15)
O7 O -0.1576(2) 0.32569(14) 0.41301(15)
O8 O -0.12180(18) 0.18758(14) 0.53319(14)
O9 O -0.3155(2) 0.29908(18) 0.25086(16)
C11 C -0.4066(3) -0.0401(3) 0.2350(2)
H15 H -0.4603 -0.0898 0.2274
H16 H -0.3477 -0.0594 0.2122
C12 C -0.1392(3) 0.0308(2) 0.5630(2)
H17 H -0.1007 -0.0206 0.5967
H18 H -0.2018 0.0477 0.5826
C13 C -0.1219(4) 0.3464(2) 0.5023(3)
H19 H -0.1867 0.3554 0.5215
H20 H -0.0778 0.4023 0.5129
C14 C -0.0605(3) 0.1099(2) 0.5738(2)
H21 H -0.0254 0.1225 0.6337
H22 H -0.0020 0.0955 0.5488
C15 C -0.2982(3) -0.0944(2) 0.3707(3)
H23 H -0.2343 -0.1084 0.3516
H24 H -0.3456 -0.1483 0.3624
C16 C -0.2591(3) -0.0686(2) 0.4624(2)
H25 H -0.3226 -0.0496 0.4800
H26 H -0.2243 -0.1211 0.4963
C17 C -0.0532(3) 0.2686(2) 0.5488(2)
H27 H 0.0114 0.2594 0.5294
H28 H -0.0266 0.2817 0.6092
C18 C -0.4636(3) 0.0439(3) 0.1894(2)
H29 H -0.4970 0.0305 0.1295
H30 H -0.5228 0.0626 0.2121
C19 C -0.2145(4) 0.4002(2) 0.3616(3)
H31 H -0.1684 0.4549 0.3746
H32 H -0.2844 0.4127 0.3730
C20 C -0.3434(4) 0.2695(3) 0.1650(3)
H33 H -0.2773 0.2454 0.1537
H34 H -0.3718 0.3206 0.1269
C21 C -0.4310(4) 0.1964(3) 0.1510(3)
H35 H -0.4936 0.2187 0.1682
H36 H -0.4588 0.1808 0.0912
C22 C -0.2375(4) 0.3745(3) 0.2699(3)
H37 H -0.2690 0.4265 0.2338
H38 H -0.1682 0.3569 0.2596
F1 F -0.2615(3) -0.00953(16) 0.06387(17)
P1 P -0.25714(7) -0.11527(6) 0.04316(5)
F2 F -0.2992(2) -0.09514(18) -0.05634(13)
F3 F -0.2141(2) -0.13332(16) 0.14364(13)
F4 F -0.3823(2) -0.1203(3) 0.04276(18)
F5 F -0.1318(2) -0.1025(4) 0.0449(2)
F6 F -0.2466(6) -0.2181(2) 0.0251(2)
loop_
_geom_bond_atom_site_label_1
_geom_bond_atom_site_label_2
_geom_bond_site_symmetry_1
_geom_bond_site_symmetry_2
O1 C4 1_555 1_555
N1 H1 1_555 1_555
H2 N1 1_555 1_555
H3 N1 1_555 1_555
O2 C8 1_555 1_555
C1 H4 1_555 1_555
O3 C8 1_555 1_555
C2 N1 1_555 1_555
C3 H5 1_555 1_555
C4 C1 1_555 1_555
C5 C2 1_555 1_555
H6 C5 1_555 1_555
C6 C1 1_555 1_555
H7 C6 1_555 1_555
C7 O1 1_555 1_555
H8 C7 1_555 1_555
H9 C7 1_555 1_555
C8 C7 1_555 1_555
C9 O3 1_555 1_555
H10 C9 1_555 1_555
H11 C9 1_555 1_555
C10 C9 1_555 1_555
H12 C10 1_555 1_555
H13 C10 1_555 1_555
H14 C10 1_555 1_555
O4 C12 1_555 1_555
O5 C11 1_555 1_555
O6 C18 1_555 1_555
O7 C13 1_555 1_555
O8 C14 1_555 1_555
O9 C20 1_555 1_555
C11 H15 1_555 1_555
H16 C11 1_555 1_555
C12 H17 1_555 1_555
H18 C12 1_555 1_555
C13 H19 1_555 1_555
H20 C13 1_555 1_555
C14 C12 1_555 1_555
H21 C14 1_555 1_555
H22 C14 1_555 1_555
C15 O5 1_555 1_555
H23 C15 1_555 1_555
H24 C15 1_555 1_555
C16 O4 1_555 1_555
H25 C16 1_555 1_555
H26 C16 1_555 1_555
C17 O8 1_555 1_555
H27 C17 1_555 1_555
H28 C17 1_555 1_555
C18 C11 1_555 1_555
H29 C18 1_555 1_555
H30 C18 1_555 1_555
C19 O7 1_555 1_555
H31 C19 1_555 1_555
H32 C19 1_555 1_555
C20 H33 1_555 1_555
H34 C20 1_555 1_555
C21 O6 1_555 1_555
H35 C21 1_555 1_555
H36 C21 1_555 1_555
C22 O9 1_555 1_555
H37 C22 1_555 1_555
H38 C22 1_555 1_555
F1 P1 1_555 1_555
P1 F2 1_555 1_555
F3 P1 1_555 1_555
F4 P1 1_555 1_555
F5 P1 1_555 1_555
F6 P1 1_555 1_555
C2 C6 1_555 1_555
C3 C4 1_555 1_555
C3 C5 1_555 1_555
C13 C17 1_555 1_555
C15 C16 1_555 1_555
C19 C22 1_555 1_555
C20 C21 1_555 1_555

#END
