
#######################################################################
#
#                 Cambridge Crystallographic Data Centre
#                                CCDC 
#
#######################################################################
#
# If this CIF has been generated from an entry in the Cambridge 
# Structural Database, then it will include bibliographic, chemical, 
# crystal, experimental, refinement or atomic coordinate data resulting 
# from the CCDC's data processing and validation procedures.
#
#######################################################################

data_PILWAL
_chemical_formula_moiety         'C13 H22 N4 2+,2(F6 P1 1-)'
_chemical_name_systematic        
"1,1'-(pentane-1,5-diyl)bis(3-methyl-1H-imidazol-3-ium) bis(hexafluorophosphate)"
_symmetry_cell_setting           monoclinic
_symmetry_space_group_name_H-M   'P 21/c'
_symmetry_Int_Tables_number      14
_space_group_name_Hall           '-P 2ybc'
loop_
_symmetry_equiv_pos_site_id
_symmetry_equiv_pos_as_xyz
1 x,y,z
2 -x,1/2+y,1/2-z
3 -x,-y,-z
4 x,1/2-y,1/2+z
_cell_length_a                   12.9171(13)
_cell_length_b                   13.3953(13)
_cell_length_c                   12.5808(12)
_cell_angle_alpha                90
_cell_angle_beta                 97.7660(10)
_cell_angle_gamma                90
_cell_volume                     2156.87
_exptl_crystal_colour            colorless
_exptl_crystal_description       block
_cell_formula_units_Z            4
loop_
_atom_site_label
_atom_site_type_symbol
_atom_site_fract_x
_atom_site_fract_y
_atom_site_fract_z
C1 C -0.0707(3) 0.2384(2) 0.4278(3)
H1 H -0.041181 0.186915 0.392340
C2 C -0.1801(3) 0.3470(3) 0.4727(3)
H2 H -0.240510 0.384554 0.473694
C3 C -0.0921(3) 0.3568(3) 0.5389(3)
H3 H -0.079358 0.402278 0.595040
C4 C -0.2423(3) 0.2406(4) 0.3117(3)
H4 H -0.248121 0.291045 0.257087
H5 H -0.309208 0.230400 0.335190
H6 H -0.219075 0.179265 0.283233
C5 C 0.0838(3) 0.2752(3) 0.5611(3)
H7 H 0.105875 0.207134 0.550145
H8 H 0.086822 0.285836 0.637739
C6 C 0.1583(3) 0.3466(3) 0.5171(3)
H9 H 0.129306 0.413406 0.516620
H10 H 0.223874 0.347000 0.564912
C7 C 0.1801(3) 0.3216(3) 0.4062(3)
H11 H 0.114245 0.317584 0.359115
H12 H 0.212818 0.256411 0.407454
C8 C 0.2501(3) 0.3968(3) 0.3602(3)
H13 H 0.213024 0.459562 0.347692
H14 H 0.311672 0.408674 0.411869
C9 C 0.2822(4) 0.3611(3) 0.2589(4)
H15 H 0.318817 0.298191 0.272298
H16 H 0.220072 0.348424 0.208327
C10 C 0.4486(3) 0.4454(2) 0.2431(3)
H17 H 0.486480 0.415782 0.302964
C11 C 0.4081(4) 0.5357(3) 0.1021(3)
H18 H 0.412862 0.580438 0.046474
C12 C 0.3230(4) 0.4863(3) 0.1200(3)
H19 H 0.257583 0.489575 0.078931
C13 C 0.5941(4) 0.5428(4) 0.1882(4)
H20 H 0.632832 0.499230 0.147563
H21 H 0.624474 0.541794 0.262166
H22 H 0.596154 0.609555 0.160811
N1 N -0.1664(2) 0.2727(2) 0.4032(2)
N2 N -0.02379(19) 0.28810(19) 0.5099(2)
N3 N 0.3493(2) 0.4298(2) 0.2098(2)
N4 N 0.4863(2) 0.5092(2) 0.1792(2)
F1 F 0.4346(2) 0.2733(2) 0.0285(3)
F2 F 0.61817(18) 0.13149(18) 0.1215(2)
F3 F 0.5080(2) 0.2244(2) 0.1927(2)
F4 F 0.44853(19) 0.11101(19) 0.0688(2)
F5 F 0.6052(2) 0.2914(2) 0.0786(2)
F6 F 0.5471(2) 0.1799(3) -0.04392(19)
P1 P 0.52608(7) 0.20209(6) 0.07292(7)
F7? F 0.0548(10) 0.6326(6) 0.8133(8)
F8? F 0.0027(13) 0.4322(12) 0.7749(6)
F9? F 0.1056(12) 0.5216(16) 0.9296(7)
F10? F -0.0001(12) 0.5584(13) 0.8789(12)
F11? F 0.1527(12) 0.476(2) 0.7517(12)
F12? F 0.0396(11) 0.590(3) 0.733(3)
F13? F 0.1675(11) 0.5845(8) 0.8689(11)
F14? F 0.0986(13) 0.4094(5) 0.8066(12)
F15? F 0.1122(9) 0.4474(10) 0.9202(10)
F16? F -0.0404(5) 0.4992(14) 0.8311(12)
F17? F 0.1830(7) 0.5365(10) 0.7795(16)
F18? F 0.0365(11) 0.5282(6) 0.6908(5)
P2? P 0.07664(8) 0.51739(8) 0.81503(8)
loop_
_geom_bond_atom_site_label_1
_geom_bond_atom_site_label_2
_geom_bond_site_symmetry_1
_geom_bond_site_symmetry_2
C1 H1 1_555 1_555
C2 H2 1_555 1_555
C3 C2 1_555 1_555
H3 C3 1_555 1_555
C4 H4 1_555 1_555
H5 C4 1_555 1_555
H6 C4 1_555 1_555
C5 H7 1_555 1_555
H8 C5 1_555 1_555
C6 C5 1_555 1_555
H9 C6 1_555 1_555
H10 C6 1_555 1_555
C7 C6 1_555 1_555
H11 C7 1_555 1_555
H12 C7 1_555 1_555
C8 C7 1_555 1_555
H13 C8 1_555 1_555
H14 C8 1_555 1_555
C9 C8 1_555 1_555
H15 C9 1_555 1_555
H16 C9 1_555 1_555
C10 H17 1_555 1_555
C11 H18 1_555 1_555
C12 C11 1_555 1_555
H19 C12 1_555 1_555
C13 H20 1_555 1_555
H21 C13 1_555 1_555
H22 C13 1_555 1_555
N1 C1 1_555 1_555
N2 C1 1_555 1_555
N3 C9 1_555 1_555
N4 C10 1_555 1_555
F1 P1 1_555 1_555
F2 P1 1_555 1_555
F3 P1 1_555 1_555
F4 P1 1_555 1_555
F5 P1 1_555 1_555
F6 P1 1_555 1_555
C2 N1 1_555 1_555
C3 N2 1_555 1_555
C4 N1 1_555 1_555
C5 N2 1_555 1_555
C10 N3 1_555 1_555
C11 N4 1_555 1_555
C12 N3 1_555 1_555
C13 N4 1_555 1_555

#END
