
#######################################################################
#
#                 Cambridge Crystallographic Data Centre
#                                CCDC 
#
#######################################################################
#
# If this CIF has been generated from an entry in the Cambridge 
# Structural Database, then it will include bibliographic, chemical, 
# crystal, experimental, refinement or atomic coordinate data resulting 
# from the CCDC's data processing and validation procedures.
#
#######################################################################

data_PILYAL
_chemical_formula_moiety         'C28 H30 N2 O4 S1'
_chemical_name_systematic        
'syn-Ethyl 2-(3,3-dimethyl-1-(p-tosyl)aziridin-2-yl)-2-(diphenylmethyleneamino)acetate'
_symmetry_cell_setting           monoclinic
_symmetry_space_group_name_H-M   'P 21/c'
_symmetry_Int_Tables_number      14
_space_group_name_Hall           '-P 2ybc'
loop_
_symmetry_equiv_pos_site_id
_symmetry_equiv_pos_as_xyz
1 x,y,z
2 -x,1/2+y,1/2-z
3 -x,-y,-z
4 x,1/2-y,1/2+z
_cell_length_a                   17.3631(9)
_cell_length_b                   8.6187(3)
_cell_length_c                   19.3747(10)
_cell_angle_alpha                90
_cell_angle_beta                 116.673(2)
_cell_angle_gamma                90
_cell_volume                     2590.83
_exptl_crystal_colour            colorless
_exptl_crystal_description       block
_cell_formula_units_Z            4
loop_
_atom_site_label
_atom_site_type_symbol
_atom_site_fract_x
_atom_site_fract_y
_atom_site_fract_z
S1 S 0.70045(5) -0.04399(9) -0.13104(4)
O1 O 0.72375(16) 0.5042(3) 0.08738(14)
O2 O 0.61564(14) 0.4729(2) -0.03170(12)
O3 O 0.72710(15) 0.0688(3) -0.17058(12)
O4 O 0.63718(14) -0.1575(3) -0.17538(13)
N1 N 0.80142(15) 0.2410(3) 0.06020(13)
N2 N 0.66430(15) 0.0385(3) -0.07371(13)
C1 C 0.6859(2) 0.4270(3) 0.03122(18)
C2 C 0.70772(18) 0.2585(3) 0.02277(15)
H1 H 0.6829 0.1895 0.0492
C3 C 0.67362(18) 0.2089(3) -0.06007(15)
H2 H 0.6984 0.2659 -0.0904
C4 C 0.58609(19) 0.1426(3) -0.10682(17)
C5 C 0.83665(17) 0.1541(3) 0.12021(15)
C6 C 0.93190(18) 0.1334(3) 0.15620(15)
C7 C 0.98160(18) 0.2204(3) 0.12992(16)
H3 H 0.9543 0.2929 0.0892
C8 C 1.07004(19) 0.2019(3) 0.16265(17)
H4 H 1.1032 0.2624 0.1448
C9 C 1.1103(2) 0.0952(3) 0.22142(18)
H5 H 1.1710 0.0816 0.2434
C10 C 1.0626(2) 0.0090(4) 0.24808(19)
H6 H 1.0904 -0.0633 0.2889
C11 C 0.9738(2) 0.0275(3) 0.21531(17)
H7 H 0.9412 -0.0332 0.2337
C12 C 0.78865(17) 0.0738(3) 0.15787(15)
C13 C 0.76184(19) -0.0798(3) 0.13998(17)
H8 H 0.7739 -0.1349 0.1035
C14 C 0.7179(2) -0.1520(3) 0.17511(19)
H9 H 0.6997 -0.2565 0.1625
C15 C 0.7002(2) -0.0740(4) 0.22832(18)
H10 H 0.6706 -0.1247 0.2530
C16 C 0.7257(2) 0.0784(4) 0.24545(19)
H11 H 0.7130 0.1328 0.2817
C17 C 0.7695(2) 0.1532(3) 0.21072(17)
H12 H 0.7865 0.2584 0.2229
C18 C 0.79325(18) -0.1384(3) -0.06296(16)
C19 C 0.7917(2) -0.2969(3) -0.05078(19)
H13 H 0.7402 -0.3548 -0.0779
C20 C 0.8665(2) -0.3693(4) 0.0017(2)
H14 H 0.8659 -0.4778 0.0099
C21 C 0.9425(2) -0.2864(3) 0.04247(17)
C22 C 0.94115(19) -0.1269(3) 0.03006(17)
H15 H 0.9920 -0.0679 0.0582
C23 C 0.86771(19) -0.0533(3) -0.02217(17)
H16 H 0.8681 0.0554 -0.0302
C24 C 1.0247(2) -0.3638(4) 0.0988(2)
H17 H 1.0713 -0.2871 0.1189
H18 H 1.0398 -0.4469 0.0725
H19 H 1.0165 -0.4077 0.1417
C25 C 0.5827(2) 0.6276(4) -0.0279(2)
H20 H 0.6240 0.7084 -0.0265
H21 H 0.5741 0.6376 0.0190
C26 C 0.4991(3) 0.6453(4) -0.0986(2)
H22 H 0.5094 0.6442 -0.1444
H23 H 0.4723 0.7439 -0.0962
H24 H 0.4608 0.5594 -0.1016
C27 C 0.5406(2) 0.1770(4) -0.19213(18)
H25 H 0.5026 0.2667 -0.2013
H26 H 0.5064 0.0867 -0.2198
H27 H 0.5833 0.2000 -0.2108
C28 C 0.52615(19) 0.1116(4) -0.07119(19)
H28 H 0.5596 0.0749 -0.0181
H29 H 0.4840 0.0322 -0.1014
H30 H 0.4959 0.2074 -0.0710
loop_
_geom_bond_atom_site_label_1
_geom_bond_atom_site_label_2
_geom_bond_site_symmetry_1
_geom_bond_site_symmetry_2
S1 O3 1_555 1_555
O1 C1 1_555 1_555
O2 C1 1_555 1_555
O4 S1 1_555 1_555
N1 C2 1_555 1_555
N2 S1 1_555 1_555
C1 C2 1_555 1_555
C2 H1 1_555 1_555
C3 N2 1_555 1_555
H2 C3 1_555 1_555
C4 N2 1_555 1_555
C5 N1 1_555 1_555
C6 C5 1_555 1_555
C7 C6 1_555 1_555
H3 C7 1_555 1_555
C8 C7 1_555 1_555
H4 C8 1_555 1_555
C9 C8 1_555 1_555
H5 C9 1_555 1_555
C10 C9 1_555 1_555
H6 C10 1_555 1_555
C11 C6 1_555 1_555
H7 C11 1_555 1_555
C12 C5 1_555 1_555
C13 C12 1_555 1_555
H8 C13 1_555 1_555
C14 C13 1_555 1_555
H9 C14 1_555 1_555
C15 C14 1_555 1_555
H10 C15 1_555 1_555
C16 C15 1_555 1_555
H11 C16 1_555 1_555
C17 C12 1_555 1_555
H12 C17 1_555 1_555
C18 S1 1_555 1_555
C19 C18 1_555 1_555
H13 C19 1_555 1_555
C20 C19 1_555 1_555
H14 C20 1_555 1_555
C21 C20 1_555 1_555
C22 C21 1_555 1_555
H15 C22 1_555 1_555
C23 C18 1_555 1_555
H16 C23 1_555 1_555
C24 C21 1_555 1_555
H17 C24 1_555 1_555
H18 C24 1_555 1_555
H19 C24 1_555 1_555
C25 O2 1_555 1_555
H20 C25 1_555 1_555
H21 C25 1_555 1_555
C26 C25 1_555 1_555
H22 C26 1_555 1_555
H23 C26 1_555 1_555
H24 C26 1_555 1_555
C27 C4 1_555 1_555
H25 C27 1_555 1_555
H26 C27 1_555 1_555
H27 C27 1_555 1_555
C28 C4 1_555 1_555
H28 C28 1_555 1_555
H29 C28 1_555 1_555
H30 C28 1_555 1_555
C2 C3 1_555 1_555
C3 C4 1_555 1_555
C10 C11 1_555 1_555
C16 C17 1_555 1_555
C22 C23 1_555 1_555

#END
