
#######################################################################
#
#                 Cambridge Crystallographic Data Centre
#                                CCDC 
#
#######################################################################
#
# If this CIF has been generated from an entry in the Cambridge 
# Structural Database, then it will include bibliographic, chemical, 
# crystal, experimental, refinement or atomic coordinate data resulting 
# from the CCDC's data processing and validation procedures.
#
#######################################################################

data_PIMCEV
_chemical_compound_source        
'root tissue of Reevesia formosana Sprague (Sterculiaceae)'
_chemical_name_common            'Reevesioside A'
_chemical_formula_moiety         'C30 H42 O9'
_chemical_name_systematic        
5,14-Dihydroxy-3-((6-methyltetrahydro-4H-[1,3]dioxolo[4,5-c]pyran-4-yl)oxy)-19-oxocard-20(22)-enolide
_chemical_properties_biological  'cytotoxic activity'
_symmetry_cell_setting           monoclinic
_symmetry_space_group_name_H-M   'P 21'
_symmetry_Int_Tables_number      4
_space_group_name_Hall           'P 2yb'
loop_
_symmetry_equiv_pos_site_id
_symmetry_equiv_pos_as_xyz
1 x,y,z
2 -x,1/2+y,-z
_cell_length_a                   10.2223(4)
_cell_length_b                   12.9376(4)
_cell_length_c                   10.7199(4)
_cell_angle_alpha                90
_cell_angle_beta                 109.984(2)
_cell_angle_gamma                90
_cell_volume                     1332.36
_exptl_crystal_colour            colorless
_exptl_crystal_description       needle
_cell_formula_units_Z            2
loop_
_atom_site_label
_atom_site_type_symbol
_atom_site_fract_x
_atom_site_fract_y
_atom_site_fract_z
O1 O 0.78531(10) 0.20816(9) 0.77623(10)
H1 H 0.7882 0.2262 0.7039
O2 O 0.42143(10) 0.19204(9) 1.14774(10)
H2 H 0.4889 0.2274 1.1890
O3 O 0.54933(13) 0.00573(9) 0.70398(12)
O4 O 0.13923(11) 0.06366(9) 1.32321(10)
O5 O -0.04838(12) -0.03925(10) 1.26057(12)
O6 O 0.66589(11) 0.24526(9) 0.34981(10)
O7 O 1.03250(12) 0.29387(10) 0.37559(11)
O8 O 0.84540(11) 0.39629(9) 0.29289(10)
O9 O 0.71699(10) 0.32722(9) 0.55460(10)
C1 C 0.49030(15) 0.19579(13) 0.58440(14)
H3 H 0.5590 0.1613 0.5552
H4 H 0.4034 0.1583 0.5476
C2 C 0.46973(15) 0.30492(12) 0.52926(14)
H5 H 0.3938 0.3375 0.5494
H6 H 0.4448 0.3024 0.4335
C3 C 0.60159(15) 0.36908(13) 0.58827(15)
H7 H 0.5838 0.4406 0.5568
C4 C 0.64936(16) 0.36701(12) 0.73843(15)
H8 H 0.5812 0.4032 0.7667
H9 H 0.7364 0.4046 0.7730
C5 C 0.67047(15) 0.25866(12) 0.79993(15)
C6 C 0.71385(15) 0.26638(13) 0.95060(14)
H10 H 0.7851 0.3191 0.9816
H11 H 0.7547 0.2011 0.9892
C7 C 0.59439(15) 0.29232(13) 1.00005(14)
H12 H 0.6278 0.2912 1.0963
H13 H 0.5605 0.3614 0.9713
C8 C 0.47575(15) 0.21509(13) 0.94693(14)
H14 H 0.5161 0.1461 0.9707
C9 C 0.42012(15) 0.22088(12) 0.79346(14)
H15 H 0.3968 0.2934 0.7696
C10 C 0.53791(15) 0.19015(12) 0.73725(14)
C11 C 0.28606(14) 0.15824(12) 0.73215(14)
H16 H 0.2461 0.1742 0.6383
H17 H 0.3082 0.0851 0.7407
C12 C 0.17905(15) 0.18150(13) 0.79898(14)
H18 H 0.0973 0.1390 0.7585
H19 H 0.1509 0.2533 0.7832
C13 C 0.23398(14) 0.16153(12) 0.94925(14)
C14 C 0.36535(15) 0.22817(12) 1.01326(14)
C15 C 0.30776(16) 0.33695(13) 1.01375(15)
H20 H 0.2827 0.3684 0.9266
H21 H 0.3750 0.3807 1.0777
C16 C 0.17817(17) 0.31931(13) 1.05352(16)
H22 H 0.1062 0.3690 1.0094
H23 H 0.2018 0.3271 1.1487
C17 C 0.12665(15) 0.20796(13) 1.01049(14)
H24 H 0.0365 0.2133 0.9388
C18 C 0.25979(16) 0.04671(13) 0.97524(15)
H25 H 0.1728 0.0103 0.9431
H26 H 0.3026 0.0351 1.0689
H27 H 0.3203 0.0221 0.9301
C19 C 0.58262(15) 0.07903(13) 0.77685(15)
H28 H 0.6400 0.0671 0.8639
C20 C 0.10609(15) 0.14266(12) 1.11811(15)
C21 C 0.20130(16) 0.13841(13) 1.26032(14)
H29 H 0.2940 0.1168 1.2659
H30 H 0.2075 0.2056 1.3022
C22 C 0.00250(16) 0.07672(13) 1.10529(15)
H31 H -0.0714 0.0648 1.0270
C23 C 0.02139(16) 0.02582(13) 1.23138(16)
C24 C 0.70823(15) 0.33843(13) 0.42057(14)
H32 H 0.6399 0.3923 0.3789
C25 C 0.85066(16) 0.37452(13) 0.42535(14)
H33 H 0.8782 0.4365 0.4808
C26 C 0.96378(16) 0.29079(14) 0.47316(15)
H34 H 1.0294 0.3080 0.5614
C27 C 0.90369(16) 0.18396(13) 0.47348(14)
H35 H 0.8844 0.1743 0.5552
H36 H 0.9720 0.1327 0.4710
C28 C 0.77065(16) 0.16707(13) 0.35619(15)
H37 H 0.7932 0.1710 0.2745
C29 C 0.70437(18) 0.06337(15) 0.35990(18)
H38 H 0.6864 0.0566 0.4417
H39 H 0.7662 0.0093 0.3537
H40 H 0.6184 0.0583 0.2866
C30 C 0.98320(17) 0.38287(15) 0.29819(17)
H41 H 1.0391 0.4425 0.3386
H42 H 0.9869 0.3737 0.2097
loop_
_geom_bond_atom_site_label_1
_geom_bond_atom_site_label_2
_geom_bond_site_symmetry_1
_geom_bond_site_symmetry_2
O1 H1 1_555 1_555
O2 H2 1_555 1_555
O3 C19 1_555 1_555
O4 C21 1_555 1_555
O5 C23 1_555 1_555
O6 C24 1_555 1_555
O7 C26 1_555 1_555
O8 C25 1_555 1_555
O9 C3 1_555 1_555
C1 H3 1_555 1_555
H4 C1 1_555 1_555
C2 C1 1_555 1_555
H5 C2 1_555 1_555
H6 C2 1_555 1_555
C3 C2 1_555 1_555
H7 C3 1_555 1_555
C4 C3 1_555 1_555
H8 C4 1_555 1_555
H9 C4 1_555 1_555
C5 O1 1_555 1_555
C6 C5 1_555 1_555
H10 C6 1_555 1_555
H11 C6 1_555 1_555
C7 C6 1_555 1_555
H12 C7 1_555 1_555
H13 C7 1_555 1_555
C8 C7 1_555 1_555
H14 C8 1_555 1_555
C9 C8 1_555 1_555
H15 C9 1_555 1_555
C10 C1 1_555 1_555
C11 C9 1_555 1_555
H16 C11 1_555 1_555
H17 C11 1_555 1_555
C12 C11 1_555 1_555
H18 C12 1_555 1_555
H19 C12 1_555 1_555
C13 C12 1_555 1_555
C14 O2 1_555 1_555
C15 C14 1_555 1_555
H20 C15 1_555 1_555
H21 C15 1_555 1_555
C16 C15 1_555 1_555
H22 C16 1_555 1_555
H23 C16 1_555 1_555
C17 C13 1_555 1_555
H24 C17 1_555 1_555
C18 C13 1_555 1_555
H25 C18 1_555 1_555
H26 C18 1_555 1_555
H27 C18 1_555 1_555
C19 C10 1_555 1_555
H28 C19 1_555 1_555
C20 C17 1_555 1_555
C21 C20 1_555 1_555
H29 C21 1_555 1_555
H30 C21 1_555 1_555
C22 C20 1_555 1_555
H31 C22 1_555 1_555
C23 O4 1_555 1_555
C24 O9 1_555 1_555
H32 C24 1_555 1_555
C25 C24 1_555 1_555
H33 C25 1_555 1_555
C26 C25 1_555 1_555
H34 C26 1_555 1_555
C27 C26 1_555 1_555
H35 C27 1_555 1_555
H36 C27 1_555 1_555
C28 O6 1_555 1_555
H37 C28 1_555 1_555
C29 C28 1_555 1_555
H38 C29 1_555 1_555
H39 C29 1_555 1_555
H40 C29 1_555 1_555
C30 O7 1_555 1_555
H41 C30 1_555 1_555
H42 C30 1_555 1_555
O8 C30 1_555 1_555
C4 C5 1_555 1_555
C5 C10 1_555 1_555
C8 C14 1_555 1_555
C9 C10 1_555 1_555
C13 C14 1_555 1_555
C16 C17 1_555 1_555
C22 C23 1_555 1_555
C27 C28 1_555 1_555

#END
