
#######################################################################
#
#                 Cambridge Crystallographic Data Centre
#                                CCDC 
#
#######################################################################
#
# If this CIF has been generated from an entry in the Cambridge 
# Structural Database, then it will include bibliographic, chemical, 
# crystal, experimental, refinement or atomic coordinate data resulting 
# from the CCDC's data processing and validation procedures.
#
#######################################################################

data_PIMDAT
_chemical_name_common            2-carboxybenzaldehyde-2-phenylacetohydrazone
_chemical_formula_moiety         'C16 H14 N2 O3'
_chemical_name_systematic        
'2-{[2-(phenylacetyl)hydrazinylidene]methyl}benzoic acid'
_symmetry_cell_setting           triclinic
_symmetry_space_group_name_H-M   'P -1'
_symmetry_Int_Tables_number      2
_space_group_name_Hall           '-P 1'
loop_
_symmetry_equiv_pos_site_id
_symmetry_equiv_pos_as_xyz
1 x,y,z
2 -x,-y,-z
_cell_length_a                   7.7698(16)
_cell_length_b                   8.3020(17)
_cell_length_c                   12.197(2)
_cell_angle_alpha                92.94(3)
_cell_angle_beta                 107.03(3)
_cell_angle_gamma                110.41(3)
_cell_volume                     694.631
_exptl_crystal_colour            yellow
_exptl_crystal_description       block
_cell_formula_units_Z            2
loop_
_atom_site_label
_atom_site_type_symbol
_atom_site_fract_x
_atom_site_fract_y
_atom_site_fract_z
N1 N 0.0770(2) -0.1613(2) -0.22481(13)
N2 N -0.1027(2) -0.2628(2) -0.22069(14)
H1 H -0.1268 -0.2502 -0.1570
C1 C 0.4035(3) 0.2771(2) 0.04399(16)
C2 C 0.4892(2) 0.2221(2) -0.03860(15)
C3 C 0.6775(3) 0.3255(3) -0.03187(18)
H2 H 0.7480 0.4250 0.0249
C4 C 0.7614(3) 0.2827(3) -0.1083(2)
H3 H 0.8874 0.3529 -0.1032
C5 C 0.6571(3) 0.1351(3) -0.1922(2)
H4 H 0.7124 0.1067 -0.2446
C6 C 0.4716(3) 0.0295(3) -0.19910(17)
H5 H 0.4048 -0.0713 -0.2549
C7 C 0.3818(3) 0.0703(2) -0.12436(15)
C8 C 0.1859(3) -0.0482(2) -0.13280(15)
H6 H 0.1404 -0.0413 -0.0709
C9 C -0.2434(3) -0.3814(3) -0.31167(16)
C10 C -0.1956(3) -0.4234(3) -0.41802(16)
H7 H -0.0847 -0.3263 -0.4223
H8 H -0.3054 -0.4418 -0.4874
C11 C -0.1491(2) -0.5858(2) -0.41227(15)
C12 C 0.0233(3) -0.5814(3) -0.33352(17)
H9 H 0.1109 -0.4774 -0.2846
C13 C 0.0663(3) -0.7282(3) -0.32671(19)
H10 H 0.1820 -0.7231 -0.2729
C14 C -0.0608(3) -0.8830(3) -0.39907(19)
H11 H -0.0314 -0.9824 -0.3945
C15 C -0.2321(3) -0.8896(3) -0.47846(19)
H12 H -0.3183 -0.9936 -0.5279
C16 C -0.2760(3) -0.7420(3) -0.48466(16)
H13 H -0.3922 -0.7477 -0.5381
O1 O 0.53628(18) 0.38260(19) 0.13923(12)
H14 H 0.4824 0.4090 0.1818
O2 O 0.22998(18) 0.23251(19) 0.02573(12)
O3 O -0.40693(19) -0.45740(19) -0.30428(12)
loop_
_geom_bond_atom_site_label_1
_geom_bond_atom_site_label_2
_geom_bond_site_symmetry_1
_geom_bond_site_symmetry_2
N1 N2 1_555 1_555
N2 H1 1_555 1_555
C1 C2 1_555 1_555
C2 C3 1_555 1_555
C3 H2 1_555 1_555
C4 C3 1_555 1_555
H3 C4 1_555 1_555
C5 C4 1_555 1_555
H4 C5 1_555 1_555
C6 C5 1_555 1_555
H5 C6 1_555 1_555
C7 C2 1_555 1_555
C8 N1 1_555 1_555
H6 C8 1_555 1_555
C9 N2 1_555 1_555
C10 C9 1_555 1_555
H7 C10 1_555 1_555
H8 C10 1_555 1_555
C11 C10 1_555 1_555
C12 C11 1_555 1_555
H9 C12 1_555 1_555
C13 C12 1_555 1_555
H10 C13 1_555 1_555
C14 C13 1_555 1_555
H11 C14 1_555 1_555
C15 C14 1_555 1_555
H12 C15 1_555 1_555
C16 C11 1_555 1_555
H13 C16 1_555 1_555
O1 C1 1_555 1_555
H14 O1 1_555 1_555
O2 C1 1_555 1_555
O3 C9 1_555 1_555
C6 C7 1_555 1_555
C7 C8 1_555 1_555
C15 C16 1_555 1_555

#END
