
#######################################################################
#
#                 Cambridge Crystallographic Data Centre
#                                CCDC 
#
#######################################################################
#
# If this CIF has been generated from an entry in the Cambridge 
# Structural Database, then it will include bibliographic, chemical, 
# crystal, experimental, refinement or atomic coordinate data resulting 
# from the CCDC's data processing and validation procedures.
#
#######################################################################

data_PIMDIY
_chemical_compound_source        'Boenninghausenia Albiflora'
_chemical_name_common            Angenomalin
_chemical_formula_moiety         'C14 H12 O3'
_chemical_name_systematic        
(8,9-Dihydro-8-(1-methylethenyl)-2H-furo(2,3-h)-1-benzopyran-2-one)
_symmetry_cell_setting           orthorhombic
_symmetry_space_group_name_H-M   'P 21 21 21'
_symmetry_Int_Tables_number      19
_space_group_name_Hall           'P 2ac 2ab'
loop_
_symmetry_equiv_pos_site_id
_symmetry_equiv_pos_as_xyz
1 x,y,z
2 1/2+x,1/2-y,-z
3 -x,1/2+y,1/2-z
4 1/2-x,-y,1/2+z
_cell_length_a                   5.210(1)
_cell_length_b                   10.407(1)
_cell_length_c                   20.478(2)
_cell_angle_alpha                90
_cell_angle_beta                 90
_cell_angle_gamma                90
_cell_volume                     1110.33
_cell_formula_units_Z            4
loop_
_atom_site_label
_atom_site_type_symbol
_atom_site_fract_x
_atom_site_fract_y
_atom_site_fract_z
O1 O 0.6550(3) 0.3877(1) 0.9061(1)
O2 O 0.9809(4) 0.5122(2) 0.9338(1)
C1 C 0.8048(5) 0.4968(2) 0.8969(1)
C2 C 0.7328(5) 0.5796(2) 0.8426(1)
C3 C 0.5462(6) 0.5477(2) 0.8010(1)
C4 C 0.1953(5) 0.3947(2) 0.7695(1)
C5 C 0.0513(5) 0.2874(2) 0.7826(1)
O3 O -0.0134(3) 0.1095(2) 0.8574(1)
C6 C 0.0872(4) 0.0728(2) 0.9226(1)
C7 C 0.3347(6) 0.1519(3) 0.9324(1)
C8 C 0.3989(4) 0.4329(2) 0.8099(1)
C9 C 0.1146(4) 0.2161(2) 0.8378(1)
C10 C 0.3178(5) 0.2486(2) 0.8785(1)
C11 C 0.4588(4) 0.3563(2) 0.8646(1)
C12 C 0.1109(5) -0.07082 0.9247(1)
C13 C -0.0341(6) -0.1363(3) 0.9652(2)
C14 C 0.3006(7) -0.1319(4) 0.8804(2)
H1 H 0.830(6) 0.661(2) 0.838(1)
H2 H 0.494(7) 0.591(3) 0.761(1)
H3 H 0.177(7) 0.440(3) 0.728(1)
H4 H -0.090(7) 0.265(3) 0.756(1)
H5 H -0.057(14) 0.082(8) 0.943(4)
H6 H 0.478(7) 0.104(4) 0.924(1)
H7 H 0.371(6) 0.185(2) 0.971(1)
H8 H -0.024(7) -0.241(4) 0.964(1)
H9 H -0.175(9) -0.090(4) 0.989(2)
H10 H 0.295(9) -0.090(4) 0.826(2)
H11 H 0.282(6) -0.226(3) 0.878(1)
H12 H 0.498(7) -0.125(4) 0.892(1)
loop_
_geom_bond_atom_site_label_1
_geom_bond_atom_site_label_2
_geom_bond_site_symmetry_1
_geom_bond_site_symmetry_2
O1 C1 1_555 1_555
O2 C1 1_555 1_555
C1 C2 1_555 1_555
C2 C3 1_555 1_555
C3 C8 1_555 1_555
C4 C5 1_555 1_555
C5 C9 1_555 1_555
O3 C6 1_555 1_555
C6 C7 1_555 1_555
C7 C10 1_555 1_555
C8 C4 1_555 1_555
C9 O3 1_555 1_555
C10 C9 1_555 1_555
C11 O1 1_555 1_555
C12 C6 1_555 1_555
C13 C12 1_555 1_555
C14 C12 1_555 1_555
H1 C2 1_555 1_555
H2 C3 1_555 1_555
H3 C4 1_555 1_555
H4 C5 1_555 1_555
H5 C6 1_555 1_555
H6 C7 1_555 1_555
H7 C7 1_555 1_555
H8 C13 1_555 1_555
H9 C13 1_555 1_555
H10 C14 1_555 1_555
H11 C14 1_555 1_555
H12 C14 1_555 1_555
C8 C11 1_555 1_555
C10 C11 1_555 1_555

#END
