
#######################################################################
#
#                 Cambridge Crystallographic Data Centre
#                                CCDC 
#
#######################################################################
#
# If this CIF has been generated from an entry in the Cambridge 
# Structural Database, then it will include bibliographic, chemical, 
# crystal, experimental, refinement or atomic coordinate data resulting 
# from the CCDC's data processing and validation procedures.
#
#######################################################################

data_PIMELA14
_chemical_formula_moiety         'C7 H12 O4'
_chemical_name_systematic        'Pimelic acid'
_symmetry_cell_setting           monoclinic
_symmetry_space_group_name_H-M   'C 2/c'
_symmetry_Int_Tables_number      15
_space_group_name_Hall           '-C 2yn'
loop_
_symmetry_equiv_pos_site_id
_symmetry_equiv_pos_as_xyz
1 x,y,z
2 -x,y,1/2-z
3 1/2+x,1/2+y,z
4 1/2-x,1/2+y,1/2-z
5 -x,-y,-z
6 x,-y,1/2+z
7 1/2-x,1/2-y,-z
8 1/2+x,1/2-y,1/2+z
_cell_length_a                   17.7023(8)
_cell_length_b                   4.7139(2)
_cell_length_c                   9.6336(4)
_cell_angle_alpha                90
_cell_angle_beta                 106.831(2)
_cell_angle_gamma                90
_cell_volume                     769.457
_exptl_crystal_colour            white
_exptl_crystal_description       tabular
_cell_formula_units_Z            4
_exptl_crystal_recrystallization_method ethanol
loop_
_atom_site_label
_atom_site_type_symbol
_atom_site_fract_x
_atom_site_fract_y
_atom_site_fract_z
O1 O 0.75758(4) 1.04845(17) 0.38756(8)
O2 O 0.83576(4) 0.67344(16) 0.46854(8)
C1 C 0.82172(6) 0.8953(2) 0.39994(10)
C2 C 0.87672(6) 1.0305(2) 0.32690(11)
H1 H 0.9037 1.1906 0.3878
H2 H 0.8448 1.1107 0.2333
C3 C 0.93930(6) 0.8373(2) 0.29766(11)
H3 H 0.9140 0.6993 0.2208
H4 H 0.9660 0.7300 0.3867
C4 C 1.0000 1.0126(3) 0.2500
H5 H 1.0283 1.1367 0.3314
H6 H 0.7291(8) 0.973(3) 0.4409(15)
H5A H 0.9717 1.1367 0.1686
O1A O 1.24242(4) 1.04845(17) 0.11244(8)
O2A O 1.16424(4) 0.67344(16) 0.03146(8)
C1A C 1.17828(6) 0.8953(2) 0.10006(10)
C2A C 1.12328(6) 1.0305(2) 0.17310(11)
H1A H 1.0963 1.1906 0.1122
H2A H 1.1552 1.1107 0.2667
C3A C 1.06070(6) 0.8373(2) 0.20234(11)
H3A H 1.0860 0.6993 0.2792
H4A H 1.0340 0.7300 0.1133
H6A H 1.2709(8) 0.973(3) 0.0591(15)
H7? H 1.0283 1.1367 0.3314
loop_
_geom_bond_atom_site_label_1
_geom_bond_atom_site_label_2
_geom_bond_site_symmetry_1
_geom_bond_site_symmetry_2
O1 C1 1_555 1_555
O2 C1 1_555 1_555
C1 C2 1_555 1_555
C2 H1 1_555 1_555
H2 C2 1_555 1_555
C3 C2 1_555 1_555
H3 C3 1_555 1_555
H4 C3 1_555 1_555
C4 C3 1_555 1_555
H5 C4 1_555 1_555
H6 O1 1_555 1_555
H5A C4 1_555 1_555
O1A C1A 1_555 1_555
O2A C1A 1_555 1_555
C1A C2A 1_555 1_555
C2A H1A 1_555 1_555
H2A C2A 1_555 1_555
C3A C4 1_555 1_555
H3A C3A 1_555 1_555
H4A C3A 1_555 1_555
H6A O1A 1_555 1_555
C2A C3A 1_555 1_555

#END
