
#######################################################################
#
#                 Cambridge Crystallographic Data Centre
#                                CCDC 
#
#######################################################################
#
# If this CIF has been generated from an entry in the Cambridge 
# Structural Database, then it will include bibliographic, chemical, 
# crystal, experimental, refinement or atomic coordinate data resulting 
# from the CCDC's data processing and validation procedures.
#
#######################################################################

data_PIMGEZ01
_chemical_name_common            
N,N'-bis(3-(Heptaisobutyloctasilsesquioxanyl)propyl)perylene-3,4:9,10-bis(dicarboxamide)
_chemical_formula_moiety         'C86 H146 N2 O28 Si16'
_chemical_name_systematic        
"N,N'-bis(3-(3,5,7,9,11,13,15-Heptaisobutylpentacyclo[9.5.1.1^3, 9^.1^5,15^.1^7, 13^]octasiloxan-1-yl)propyl)isoquinolino[4',5',6':6,5,10]anthra[2,1,9-def]isoquinoline-1,3,8,10(2H,9H)-tetrone"
_symmetry_cell_setting           triclinic
_symmetry_space_group_name_H-M   'P -1'
_symmetry_Int_Tables_number      2
_space_group_name_Hall           '-P 1'
loop_
_symmetry_equiv_pos_site_id
_symmetry_equiv_pos_as_xyz
1 x,y,z
2 -x,-y,-z
_cell_length_a                   11.3824(2)
_cell_length_b                   21.8344(4)
_cell_length_c                   23.7734(5)
_cell_angle_alpha                86.5313(16)
_cell_angle_beta                 81.6042(18)
_cell_angle_gamma                83.2088(17)
_cell_volume                     5798.4
_exptl_crystal_colour            red
_exptl_crystal_description       needle-like
_cell_formula_units_Z            2
loop_
_atom_site_label
_atom_site_type_symbol
_atom_site_fract_x
_atom_site_fract_y
_atom_site_fract_z
Si1 Si 0.3100(3) 0.16878(15) 0.73856(15)
Si2 Si 0.0594(2) 0.15585(11) 0.80472(11)
Si3 Si 1.77329(14) 0.29515(8) 0.07018(8)
Si4 Si 0.1553(3) 0.21943(12) 0.58036(11)
Si5 Si -0.04436(17) 0.27608(11) 0.74385(10)
Si6 Si 1.82249(13) 0.38919(8) 0.15736(7)
Si7 Si 2.18594(15) 0.29749(9) 0.15526(8)
Si8 Si 1.93811(17) 0.28082(10) 0.22742(8)
Si9 Si 2.06572(12) 0.40684(7) 0.08637(6)
Si10 Si 0.2601(3) 0.09581(14) 0.63994(17)
Si11 Si 1.89143(17) 0.18845(9) 0.14048(10)
Si12 Si 2.01701(14) 0.31467(7) -0.00105(7)
Si13 Si -0.0974(3) 0.20257(14) 0.64645(14)
Si14 Si 0.20734(17) 0.28966(11) 0.67949(9)
O1 O 1.2760(4) 0.4773(3) 0.19831(18)
Si15 Si 2.14025(18) 0.20688(9) 0.06831(10)
Si16 Si 0.0035(2) 0.08093(10) 0.70760(14)
O2 O 2.0753(4) 0.2868(2) 0.20454(19)
O3 O 0.0198(5) 0.1130(2) 0.7685(2)
O4 O 1.7998(4) 0.22956(19) 0.1044(2)
O5 O 0.2006(6) 0.1539(3) 0.7855(3)
O6 O 2.2013(4) 0.2416(2) 0.1129(2)
O7 O 1.9395(3) 0.41926(19) 0.12627(18)
N1 N 0.5769(4) 0.4097(3) 0.5950(2)
N2 N 1.3936(4) 0.4650(2) 0.26852(19)
O8 O 0.0766(4) 0.3028(3) 0.7143(2)
O9 O 1.8593(4) 0.3429(2) 0.20950(19)
O10 O 1.8805(3) 0.30193(17) 0.01806(17)
C1 C 1.2841(5) 0.4675(3) 0.2479(2)
O11 O 1.7734(3) 0.34980(19) 0.11255(18)
O12 O 1.5096(3) 0.4511(3) 0.33803(19)
O13 O 0.2262(7) 0.1551(3) 0.5943(3)
O14 O 0.6926(4) 0.4004(3) 0.66512(18)
O15 O 0.0047(6) 0.2136(3) 0.5985(2)
O16 O 0.4623(4) 0.4230(3) 0.5247(2)
O17 O 2.0436(3) 0.37340(17) 0.03043(16)
O18 O -0.0087(5) 0.2206(3) 0.7882(3)
O19 O 2.1018(4) 0.2574(2) 0.01842(19)
O20 O 1.8979(4) 0.2248(2) 0.1981(2)
O21 O 2.1529(3) 0.36023(17) 0.12036(18)
C2 C 0.4675(5) 0.4088(3) 0.6372(3)
H1 H 0.4872 0.4161 0.6744
H2 H 0.4093 0.4424 0.6274
C3 C 1.1044(4) 0.4268(3) 0.4474(2)
C4 C 0.6864(5) 0.4054(3) 0.6147(2)
O22 O 0.2798(5) 0.2359(3) 0.7110(3)
O23 O -0.0939(5) 0.2479(2) 0.6961(3)
C5 C 0.7581(5) 0.4398(4) 0.3986(3)
H3 H 0.7482 0.4467 0.3605
C6 C 1.3041(4) 0.4416(3) 0.3666(2)
O24 O -0.0754(6) 0.1301(3) 0.6690(3)
O25 O 0.1970(5) 0.2685(3) 0.6170(2)
C7 C 1.4108(4) 0.4526(3) 0.3239(2)
C8 C 1.4972(5) 0.4822(3) 0.2280(3)
H4 H 1.5368 0.5115 0.2455
H5 H 1.4683 0.5028 0.1946
O26 O 2.0215(4) 0.1820(2) 0.1034(2)
C9 C 0.8697(4) 0.4354(3) 0.4139(2)
C10 C 1.0893(4) 0.4373(2) 0.3900(2)
O27 O 0.3181(7) 0.1213(3) 0.6948(4)
C11 C 0.9763(4) 0.4417(3) 0.3711(2)
C12 C 1.1919(4) 0.4456(2) 0.3482(2)
C13 C 0.9990(4) 0.4183(2) 0.4907(2)
C14 C 0.5605(5) 0.4188(3) 0.5384(3)
C15 C 1.1786(5) 0.4568(3) 0.2912(2)
C16 C 0.6696(4) 0.4232(3) 0.4952(2)
C17 C 1.2169(4) 0.4233(3) 0.4631(2)
H6 H 1.2271 0.4160 0.5011
O28 O 0.1332(7) 0.0694(3) 0.6667(3)
C18 C 0.6572(5) 0.4340(4) 0.4403(3)
H7 H 0.5814 0.4377 0.4294
C19 C 1.6258(7) 0.3023(4) 0.0443(4)
H8 H 1.5657 0.3031 0.0778
H9 H 1.6159 0.3426 0.0250
C20 C 2.0409(7) 0.3311(4) -0.0786(3)
H10 H 2.0294 0.2943 -0.0971
H11 H 1.9796 0.3633 -0.0878
C21 C -0.1477(7) 0.3358(4) 0.7788(4)
H12 H -0.1019 0.3598 0.7988
H13 H -0.1785 0.3630 0.7493
C22 C 2.3214(4) 0.30092(19) 0.1896(2)
H14 H 2.3743 0.3252 0.1642
H15 H 2.2967 0.3238 0.2238
C23 C 1.3164(4) 0.4307(3) 0.4217(3)
H16 H 1.3921 0.4280 0.4327
C24 C 1.7054(5) 0.4513(3) 0.1826(3)
H17 H 1.7351 0.4742 0.2102
H18 H 1.6908 0.4795 0.1506
C25 C 0.8854(4) 0.4244(2) 0.4719(2)
C26 C 0.4126(5) 0.3502(3) 0.6406(3)
H19 H 0.4618 0.3179 0.6589
H20 H 0.4075 0.3378 0.6026
C27 C 1.5865(5) 0.4289(3) 0.2097(3)
H21 H 1.5558 0.4058 0.1825
H22 H 1.5995 0.4014 0.2425
C28 C 0.7945(4) 0.4083(3) 0.5711(2)
C29 C 0.7822(4) 0.4175(3) 0.5135(2)
C30 C 1.0070(5) 0.4080(3) 0.5478(2)
H23 H 1.0817 0.4046 0.5598
C31 C 0.2872(5) 0.3588(4) 0.6749(3)
H24 H 0.2403 0.3928 0.6574
H25 H 0.2938 0.3700 0.7130
C32 C 2.1303(5) 0.4821(3) 0.0673(3)
H26 H 2.0714 0.5109 0.0511
H27 H 2.1458 0.4992 0.1019
C33 C 2.2416(10) 0.1435(5) 0.0345(5)
H28 H 2.1982 0.1248 0.0091
H29 H 2.3066 0.1617 0.0109
C34 C 0.9684(5) 0.4520(4) 0.3140(2)
H30 H 0.8941 0.4535 0.3018
C35 C 0.9047(5) 0.4025(3) 0.5885(2)
H31 H 0.9124 0.3949 0.6268
C36 C 1.0690(5) 0.4603(4) 0.2736(2)
H32 H 1.0610 0.4680 0.2354
C37 C 2.2457(5) 0.4766(3) 0.0253(3)
H33 H 2.2293 0.4543 -0.0067
C38 C 2.1633(7) 0.3511(4) -0.1042(3)
H34 H 2.1907 0.3763 -0.0770
C39 C 1.9217(3) 0.2695(4) 0.3078(2)
H35 H 1.9951 0.2471 0.3177
H36 H 1.9141 0.3099 0.3237
C40 C -0.2540(5) 0.3189(3) 0.8206(3)
H37 H -0.2248 0.2888 0.8490
C41 C 1.4769(8) 0.2778(6) -0.0130(5)
H38 H 1.4157 0.2582 0.0112
H39 H 1.4809 0.2652 -0.0513
H40 H 1.4584 0.3218 -0.0120
C42 C 1.5956(7) 0.2592(4) 0.0077(4)
H41 H 1.6523 0.2651 -0.0269
C43 C 1.8469(3) 0.1077(3) 0.1516(3)
H42 H 1.8730 0.0866 0.1164
H43 H 1.8909 0.0864 0.1803
C44 C -0.2485(4) 0.22308(18) 0.61570(19)
H44 H -0.3066 0.2414 0.6457
H45 H -0.2362 0.2549 0.5858
C45 C 2.1562(12) 0.3887(5) -0.1595(4)
H46 H 2.1081 0.3701 -0.1822
H47 H 2.2352 0.3900 -0.1800
H48 H 2.1210 0.4300 -0.1515
C46 C 2.2513(8) 0.2953(7) -0.1149(5)
H49 H 2.2404 0.2659 -0.0834
H50 H 2.3309 0.3070 -0.1192
H51 H 2.2391 0.2771 -0.1491
C47 C 0.4550(5) 0.1667(2) 0.7685(2)
H52 H 0.5168 0.1785 0.7386
H53 H 0.4456 0.1964 0.7980
C48 C 0.1720(4) 0.2443(5) 0.5046(2)
H54 H 0.0949 0.2440 0.4918
H55 H 0.1892 0.2870 0.5020
C49 C 2.4719(3) 0.2664(3) 0.2467(2)
H56 H 2.5408 0.2817 0.2247
H57 H 2.4969 0.2339 0.2728
H58 H 2.4250 0.2993 0.2676
C50 C -0.0603(5) 0.0041(2) 0.71620(18)
H59 H 0.0054 -0.0281 0.7191
H60 H -0.1128 0.0033 0.7522
C51 C 2.2731(8) 0.5364(4) 0.0026(5)
H61 H 2.2002 0.5624 -0.0011
H62 H 2.3206 0.5325 -0.0341
H63 H 2.3168 0.5544 0.0278
C52 C 2.3452(8) 0.4436(5) 0.0447(5)
H64 H 2.3426 0.4497 0.0846
H65 H 2.4165 0.4579 0.0241
H66 H 2.3452 0.4005 0.0390
C53 C 0.4936(4) 0.1018(3) 0.7934(2)
H67 H 0.4768 0.0656 0.7748
C54 C 1.8166(4) 0.2353(3) 0.33738(19)
H68 H 1.8106 0.1937 0.3257
C55 C 2.3060(4) 0.2110(2) 0.2500(2)
H69 H 2.2647 0.2413 0.2756
H70 H 2.3474 0.1786 0.2711
H71 H 2.2495 0.1940 0.2308
C56 C 2.3957(4) 0.2411(2) 0.2063(2)
H72 H 2.4382 0.2158 0.1754
C57 C 1.8302(6) 0.2438(5) 0.40026(15)
H73 H 1.9002 0.2187 0.4097
H74 H 1.7610 0.2317 0.4246
H75 H 1.8376 0.2864 0.4055
C58 C 2.2942(10) 0.0944(5) 0.0693(2)
H76 H 2.3587 0.1162 0.0788
C59 C -0.1307(5) -0.0132(2) 0.6694(2)
H77 H -0.2000 0.0148 0.6604
C60 C -0.3336(6) 0.2874(4) 0.7869(4)
H78 H -0.4075 0.3132 0.7853
H79 H -0.3496 0.2484 0.8054
H80 H -0.2934 0.2810 0.7490
C61 C 2.2495(12) 0.0746(5) 0.1307(3)
H81 H 2.2036 0.1090 0.1497
H82 H 2.3165 0.0604 0.1502
H83 H 2.2002 0.0417 0.1309
C62 C -0.3229(11) 0.3706(6) 0.8502(7)
H84 H -0.2712 0.4012 0.8543
H85 H -0.3582 0.3564 0.8871
H86 H -0.3847 0.3882 0.8287
C63 C 1.7122(4) 0.2853(4) 0.3310(3)
H87 H 1.7193 0.3200 0.3527
H88 H 1.6381 0.2689 0.3445
H89 H 1.7139 0.2983 0.2916
C64 C -0.3058(4) 0.1716(2) 0.5913(2)
H90 H -0.3425 0.1408 0.6177
C65 C 2.3710(17) 0.0443(7) 0.0377(8)
H91 H 2.3256 0.0265 0.0132
H92 H 2.3991 0.0131 0.0643
H93 H 2.4380 0.0610 0.0153
C66 C -0.3847(4) 0.2120(3) 0.5524(2)
H94 H -0.4471 0.2365 0.5754
H95 H -0.4195 0.1859 0.5298
H96 H -0.3366 0.2387 0.5278
C67 C 1.6137(15) 0.1996(6) 0.0182(7)
H97 H 1.6871 0.1833 -0.0038
H98 H 1.5487 0.1803 0.0081
H99 H 1.6188 0.1915 0.0580
C68 C 0.4386(5) 0.1112(4) 0.85646(17)
H100 H 0.4776 0.1418 0.8718
H101 H 0.4495 0.0729 0.8781
H102 H 0.3548 0.1248 0.8584
C69 C 0.6246(3) 0.1096(4) 0.7989(3)
H103 H 0.6512 0.1421 0.7728
H104 H 0.6740 0.0717 0.7901
H105 H 0.6298 0.1198 0.8370
C70 C -0.1492(6) -0.08030(19) 0.6914(3)
H106 H -0.0728 -0.1040 0.6924
H107 H -0.1928 -0.0987 0.6665
H108 H -0.1934 -0.0797 0.7291
C71 C -0.2011(4) 0.1492(3) 0.5455(2)
H109 H -0.1816 0.1831 0.5195
H110 H -0.2239 0.1170 0.5251
H111 H -0.1327 0.1338 0.5636
C72 C -0.0249(6) -0.0278(4) 0.62185(18)
H112 H -0.0516 -0.0193 0.5854
H113 H 0.0055 -0.0706 0.6254
H114 H 0.0371 -0.0026 0.6252
C73 C 0.0382(3) 0.12921(19) 0.8848(6)
H115 H 0.1160 0.1130 0.8947
H116 H 0.0113 0.1655 0.9068
C74 C -0.1662(3) 0.1200(4) 0.8914(3)
H117 H -0.2378 0.1085 0.9141
H118 H -0.1726 0.1174 0.8519
H119 H -0.1555 0.1615 0.8989
C75 C -0.0584(7) 0.0955(6) 0.96843(18)
H120 H -0.0876 0.1385 0.9710
H121 H 0.0212 0.0889 0.9781
H122 H -0.1096 0.0715 0.9943
C76 C -0.0573(4) 0.07561(19) 0.9067(2)
H123 H -0.0417 0.0325 0.8957
C77 C 1.7130(5) 0.1003(2) 0.1697(2)
H124 H 1.6540 0.1235 0.1480
C78 C 0.3482(5) 0.03605(18) 0.5958(3)
H125 H 0.3055 0.0299 0.5645
H126 H 0.4232 0.0511 0.5796
C79 C 0.5044(3) -0.0200(3) 0.6379(3)
H127 H 0.5514 -0.0086 0.6027
H128 H 0.5399 -0.0585 0.6529
H129 H 0.5015 0.0114 0.6647
C80 C 0.2664(4) 0.2084(3) 0.4617(2)
H130 H 0.2682 0.1634 0.4613
C81 C 0.2456(6) 0.2480(5) 0.40700(16)
H131 H 0.1859 0.2319 0.3892
H132 H 0.3189 0.2467 0.3812
H133 H 0.2190 0.2899 0.4167
C82 C 1.7205(6) 0.02923(15) 0.1741(3)
H134 H 1.7976 0.0125 0.1833
H135 H 1.7091 0.0143 0.1383
H136 H 1.6595 0.0167 0.2033
C83 C 0.4075(8) -0.0678(2) 0.5745(2)
H137 H 0.3832 -0.0449 0.5416
H138 H 0.3666 -0.1042 0.5813
H139 H 0.4922 -0.0796 0.5681
C84 C 0.3784(3) 0.2360(5) 0.4748(3)
H140 H 0.3798 0.2770 0.4577
H141 H 0.4491 0.2106 0.4595
H142 H 0.3757 0.2377 0.5152
C85 C 1.7059(7) 0.1118(3) 0.23407(17)
H143 H 1.7297 0.0738 0.2540
H144 H 1.6254 0.1267 0.2491
H145 H 1.7582 0.1418 0.2389
C86 C 0.3761(5) -0.0272(2) 0.6269(2)
H146 H 0.3183 -0.0403 0.6588
loop_
_geom_bond_atom_site_label_1
_geom_bond_atom_site_label_2
_geom_bond_site_symmetry_1
_geom_bond_site_symmetry_2
Si1 O5 1_555 1_555
Si2 O3 1_555 1_555
Si3 O4 1_555 1_555
Si4 O13 1_555 1_555
Si5 O8 1_555 1_555
Si6 O7 1_555 1_555
Si7 O2 1_555 1_555
Si8 O2 1_555 1_555
Si9 O7 1_555 1_555
Si10 O13 1_555 1_555
Si11 O4 1_555 1_555
Si12 O10 1_555 1_555
Si13 O15 1_555 1_555
Si14 O8 1_555 1_555
O1 C1 1_555 1_555
Si15 O6 1_555 1_555
Si16 O3 1_555 1_555
O5 Si2 1_555 1_555
O6 Si7 1_555 1_555
N1 C2 1_555 1_555
N2 C1 1_555 1_555
O9 Si6 1_555 1_555
O10 Si3 1_555 1_555
C1 C15 1_555 1_555
O11 Si3 1_555 1_555
O12 C7 1_555 1_555
O14 C4 1_555 1_555
O15 Si4 1_555 1_555
O16 C14 1_555 1_555
O17 Si9 1_555 1_555
O18 Si2 1_555 1_555
O19 Si12 1_555 1_555
O20 Si8 1_555 1_555
O21 Si7 1_555 1_555
C2 H1 1_555 1_555
H2 C2 1_555 1_555
C3 C10 1_555 1_555
C4 N1 1_555 1_555
O22 Si1 1_555 1_555
O23 Si5 1_555 1_555
C5 H3 1_555 1_555
C6 C7 1_555 1_555
O24 Si13 1_555 1_555
O25 Si4 1_555 1_555
C7 N2 1_555 1_555
C8 N2 1_555 1_555
H4 C8 1_555 1_555
H5 C8 1_555 1_555
O26 Si11 1_555 1_555
C9 C5 1_555 1_555
C10 C11 1_555 1_555
O27 Si1 1_555 1_555
C11 C9 1_555 1_555
C12 C6 1_555 1_555
C13 C3 1_555 1_555
C14 N1 1_555 1_555
C15 C12 1_555 1_555
C16 C14 1_555 1_555
C17 C3 1_555 1_555
H6 C17 1_555 1_555
O28 Si10 1_555 1_555
C18 C5 1_555 1_555
H7 C18 1_555 1_555
C19 Si3 1_555 1_555
H8 C19 1_555 1_555
H9 C19 1_555 1_555
C20 Si12 1_555 1_555
H10 C20 1_555 1_555
H11 C20 1_555 1_555
C21 Si5 1_555 1_555
H12 C21 1_555 1_555
H13 C21 1_555 1_555
C22 Si7 1_555 1_555
H14 C22 1_555 1_555
H15 C22 1_555 1_555
C23 C6 1_555 1_555
H16 C23 1_555 1_555
C24 Si6 1_555 1_555
H17 C24 1_555 1_555
H18 C24 1_555 1_555
C25 C9 1_555 1_555
C26 C2 1_555 1_555
H19 C26 1_555 1_555
H20 C26 1_555 1_555
C27 C8 1_555 1_555
H21 C27 1_555 1_555
H22 C27 1_555 1_555
C28 C4 1_555 1_555
C29 C16 1_555 1_555
C30 C13 1_555 1_555
H23 C30 1_555 1_555
C31 Si14 1_555 1_555
H24 C31 1_555 1_555
H25 C31 1_555 1_555
C32 Si9 1_555 1_555
H26 C32 1_555 1_555
H27 C32 1_555 1_555
C33 Si15 1_555 1_555
H28 C33 1_555 1_555
H29 C33 1_555 1_555
C34 C11 1_555 1_555
H30 C34 1_555 1_555
C35 C28 1_555 1_555
H31 C35 1_555 1_555
C36 C15 1_555 1_555
H32 C36 1_555 1_555
C37 C32 1_555 1_555
H33 C37 1_555 1_555
C38 C20 1_555 1_555
H34 C38 1_555 1_555
C39 Si8 1_555 1_555
H35 C39 1_555 1_555
H36 C39 1_555 1_555
C40 C21 1_555 1_555
H37 C40 1_555 1_555
C41 H38 1_555 1_555
H39 C41 1_555 1_555
H40 C41 1_555 1_555
C42 C19 1_555 1_555
H41 C42 1_555 1_555
C43 Si11 1_555 1_555
H42 C43 1_555 1_555
H43 C43 1_555 1_555
C44 Si13 1_555 1_555
H44 C44 1_555 1_555
H45 C44 1_555 1_555
C45 C38 1_555 1_555
H46 C45 1_555 1_555
H47 C45 1_555 1_555
H48 C45 1_555 1_555
C46 C38 1_555 1_555
H49 C46 1_555 1_555
H50 C46 1_555 1_555
H51 C46 1_555 1_555
C47 Si1 1_555 1_555
H52 C47 1_555 1_555
H53 C47 1_555 1_555
C48 Si4 1_555 1_555
H54 C48 1_555 1_555
H55 C48 1_555 1_555
C49 H56 1_555 1_555
H57 C49 1_555 1_555
H58 C49 1_555 1_555
C50 Si16 1_555 1_555
H59 C50 1_555 1_555
H60 C50 1_555 1_555
C51 C37 1_555 1_555
H61 C51 1_555 1_555
H62 C51 1_555 1_555
H63 C51 1_555 1_555
C52 C37 1_555 1_555
H64 C52 1_555 1_555
H65 C52 1_555 1_555
H66 C52 1_555 1_555
C53 C47 1_555 1_555
H67 C53 1_555 1_555
C54 C39 1_555 1_555
H68 C54 1_555 1_555
C55 H69 1_555 1_555
H70 C55 1_555 1_555
H71 C55 1_555 1_555
C56 C22 1_555 1_555
H72 C56 1_555 1_555
C57 C54 1_555 1_555
H73 C57 1_555 1_555
H74 C57 1_555 1_555
H75 C57 1_555 1_555
C58 C33 1_555 1_555
H76 C58 1_555 1_555
C59 C50 1_555 1_555
H77 C59 1_555 1_555
C60 C40 1_555 1_555
H78 C60 1_555 1_555
H79 C60 1_555 1_555
H80 C60 1_555 1_555
C61 C58 1_555 1_555
H81 C61 1_555 1_555
H82 C61 1_555 1_555
H83 C61 1_555 1_555
C62 C40 1_555 1_555
H84 C62 1_555 1_555
H85 C62 1_555 1_555
H86 C62 1_555 1_555
C63 C54 1_555 1_555
H87 C63 1_555 1_555
H88 C63 1_555 1_555
H89 C63 1_555 1_555
C64 C44 1_555 1_555
H90 C64 1_555 1_555
C65 C58 1_555 1_555
H91 C65 1_555 1_555
H92 C65 1_555 1_555
H93 C65 1_555 1_555
C66 C64 1_555 1_555
H94 C66 1_555 1_555
H95 C66 1_555 1_555
H96 C66 1_555 1_555
C67 C42 1_555 1_555
H97 C67 1_555 1_555
H98 C67 1_555 1_555
H99 C67 1_555 1_555
C68 C53 1_555 1_555
H100 C68 1_555 1_555
H101 C68 1_555 1_555
H102 C68 1_555 1_555
C69 C53 1_555 1_555
H103 C69 1_555 1_555
H104 C69 1_555 1_555
H105 C69 1_555 1_555
C70 C59 1_555 1_555
H106 C70 1_555 1_555
H107 C70 1_555 1_555
H108 C70 1_555 1_555
C71 C64 1_555 1_555
H109 C71 1_555 1_555
H110 C71 1_555 1_555
H111 C71 1_555 1_555
C72 C59 1_555 1_555
H112 C72 1_555 1_555
H113 C72 1_555 1_555
H114 C72 1_555 1_555
C73 Si2 1_555 1_555
H115 C73 1_555 1_555
H116 C73 1_555 1_555
C74 H117 1_555 1_555
H118 C74 1_555 1_555
H119 C74 1_555 1_555
C75 H120 1_555 1_555
H121 C75 1_555 1_555
H122 C75 1_555 1_555
C76 C73 1_555 1_555
H123 C76 1_555 1_555
C77 C43 1_555 1_555
H124 C77 1_555 1_555
C78 Si10 1_555 1_555
H125 C78 1_555 1_555
H126 C78 1_555 1_555
C79 H127 1_555 1_555
H128 C79 1_555 1_555
H129 C79 1_555 1_555
C80 C48 1_555 1_555
H130 C80 1_555 1_555
C81 C80 1_555 1_555
H131 C81 1_555 1_555
H132 C81 1_555 1_555
H133 C81 1_555 1_555
C82 C77 1_555 1_555
H134 C82 1_555 1_555
H135 C82 1_555 1_555
H136 C82 1_555 1_555
C83 H137 1_555 1_555
H138 C83 1_555 1_555
H139 C83 1_555 1_555
C84 C80 1_555 1_555
H140 C84 1_555 1_555
H141 C84 1_555 1_555
H142 C84 1_555 1_555
C85 C77 1_555 1_555
H143 C85 1_555 1_555
H144 C85 1_555 1_555
H145 C85 1_555 1_555
C86 C78 1_555 1_555
H146 C86 1_555 1_555
Si5 O18 1_555 1_555
Si6 O11 1_555 1_555
Si8 O9 1_555 1_555
Si9 O21 1_555 1_555
Si10 O27 1_555 1_555
Si11 O20 1_555 1_555
Si12 O17 1_555 1_555
Si13 O23 1_555 1_555
Si14 O22 1_555 1_555
Si14 O25 1_555 1_555
Si15 O19 1_555 1_555
Si15 O26 1_555 1_555
Si16 O24 1_555 1_555
Si16 O28 1_555 1_555
C10 C12 1_555 1_555
C13 C25 1_555 1_555
C16 C18 1_555 1_555
C17 C23 1_555 1_555
C24 C27 1_555 1_555
C25 C29 1_555 1_555
C26 C31 1_555 1_555
C28 C29 1_555 1_555
C30 C35 1_555 1_555
C34 C36 1_555 1_555
C41 C42 1_555 1_555
C49 C56 1_555 1_555
C55 C56 1_555 1_555
C74 C76 1_555 1_555
C75 C76 1_555 1_555
C79 C86 1_555 1_555
C83 C86 1_555 1_555

#END
