
#######################################################################
#
#                 Cambridge Crystallographic Data Centre
#                                CCDC 
#
#######################################################################
#
# If this CIF has been generated from an entry in the Cambridge 
# Structural Database, then it will include bibliographic, chemical, 
# crystal, experimental, refinement or atomic coordinate data resulting 
# from the CCDC's data processing and validation procedures.
#
#######################################################################

data_PIMRUA
_chemical_name_common            
11,12-bis(perfluorobutyl)-dibenz[a,c]phenazine
_chemical_formula_moiety         'C28 H10 F18 N2'
_chemical_name_systematic        
11,12-bis(nonafluorobutyl)dibenzo[a,c]phenazine
_symmetry_cell_setting           orthorhombic
_symmetry_space_group_name_H-M   'P b c a'
_symmetry_Int_Tables_number      61
_space_group_name_Hall           '-P 2ac 2ab'
loop_
_symmetry_equiv_pos_site_id
_symmetry_equiv_pos_as_xyz
1 x,y,z
2 1/2-x,-y,1/2+z
3 1/2+x,1/2-y,-z
4 -x,1/2+y,1/2-z
5 -x,-y,-z
6 1/2+x,y,1/2-z
7 1/2-x,1/2+y,z
8 x,1/2-y,1/2+z
_cell_length_a                   7.3069(11)
_cell_length_b                   17.986(3)
_cell_length_c                   39.263(6)
_cell_angle_alpha                90
_cell_angle_beta                 90
_cell_angle_gamma                90
_cell_volume                     5160.02
_exptl_crystal_colour            yellow
_exptl_crystal_description       Needle
_cell_formula_units_Z            8
loop_
_atom_site_label
_atom_site_type_symbol
_atom_site_fract_x
_atom_site_fract_y
_atom_site_fract_z
F1 F 0.6320(4) 0.09899(18) 0.06004(8)
F2 F 0.3819(4) -0.03345(18) 0.14306(8)
F3 F 0.3758(4) 0.02781(17) 0.09550(8)
F4 F 0.7537(4) -0.01693(17) 0.08719(8)
F5 F 1.0258(4) 0.08095(19) 0.08031(8)
F6 F 0.9027(5) 0.0559(2) 0.01820(8)
F7 F 1.0332(5) 0.20005(19) 0.07236(8)
F8 F 0.6879(5) 0.21508(18) 0.06939(7)
F9 F 0.7309(4) -0.06413(17) 0.13781(7)
F10 F 1.1592(5) 0.1135(2) -0.02133(8)
F11 F 0.1607(6) -0.0682(2) 0.05998(10)
F12 F 0.8567(6) 0.1726(2) 0.00890(9)
F13 F 0.4579(6) -0.1587(2) 0.11498(12)
F14 F 0.5091(6) -0.1090(3) 0.06576(13)
N1 N 0.8253(6) 0.2590(3) 0.18764(12)
F15 F 1.2674(6) 0.0829(3) 0.02664(10)
F16 F 0.1032(5) -0.0996(2) 0.11042(10)
F17 F 0.1825(5) -0.1824(2) 0.07417(12)
C1 C 0.7750(7) 0.1884(3) 0.23904(14)
C2 C 0.8313(7) 0.2503(3) 0.29459(14)
N2 N 0.7264(6) 0.1273(3) 0.22231(12)
F18 F 1.2216(8) 0.1972(3) 0.01446(12)
C3 C 0.7284(7) 0.1309(3) 0.18785(15)
C4 C 0.8941(7) 0.3192(3) 0.24057(14)
C5 C 0.7726(7) 0.1878(3) 0.27639(14)
C6 C 0.8299(7) 0.2548(3) 0.22131(15)
C7 C 0.9564(8) 0.3826(3) 0.22332(15)
H1 H 0.9561 0.3835 0.1996
C8 C 0.9581(8) 0.3802(3) 0.29358(15)
H2 H 0.9589 0.3804 0.3173
C9 C 1.0178(8) 0.4433(3) 0.24098(16)
H3 H 1.0593 0.4851 0.2294
C10 C 0.8958(8) 0.3171(3) 0.27653(14)
C11 C 0.7100(8) 0.1247(3) 0.29359(14)
H4 H 0.6708 0.0836 0.2812
C12 C 0.6642(8) -0.0093(3) 0.11688(15)
C13 C 1.0177(8) 0.4417(3) 0.27653(15)
H5 H 1.0586 0.4829 0.2887
C14 C 0.4583(8) -0.0286(3) 0.11162(14)
C15 C 0.7691(7) 0.1976(3) 0.13469(15)
H6 H 0.7923 0.2420 0.1234
C16 C 0.7318(7) 0.1351(3) 0.11598(14)
C17 C 0.6900(7) 0.0664(3) 0.16829(15)
H7 H 0.6592 0.0227 0.1796
C18 C 0.7656(8) 0.1840(4) 0.34659(15)
H8 H 0.7638 0.1827 0.3703
C19 C 0.7438(8) 0.1452(3) 0.07764(15)
C20 C 0.2131(10) -0.1140(4) 0.08368(17)
C21 C 0.6967(7) 0.0662(3) 0.13338(14)
C22 C 0.7057(8) 0.1229(3) 0.32854(15)
H9 H 0.6629 0.0810 0.3399
C23 C 0.8275(8) 0.2461(3) 0.33043(14)
H10 H 0.8679 0.2863 0.3432
C24 C 0.7734(7) 0.1965(3) 0.17063(14)
C25 C 0.9421(8) 0.1376(3) 0.06417(14)
C26 C 0.9624(9) 0.1246(3) 0.02524(15)
C27 C 1.1588(10) 0.1305(4) 0.01163(16)
C28 C 0.4139(9) -0.1009(4) 0.09302(19)
loop_
_geom_bond_atom_site_label_1
_geom_bond_atom_site_label_2
_geom_bond_site_symmetry_1
_geom_bond_site_symmetry_2
F1 C19 1_555 1_555
F2 C14 1_555 1_555
F3 C14 1_555 1_555
F4 C12 1_555 1_555
F5 C25 1_555 1_555
F6 C26 1_555 1_555
F7 C25 1_555 1_555
F8 C19 1_555 1_555
F9 C12 1_555 1_555
F10 C27 1_555 1_555
F11 C20 1_555 1_555
F12 C26 1_555 1_555
F13 C28 1_555 1_555
F14 C28 1_555 1_555
N1 C6 1_555 1_555
F15 C27 1_555 1_555
F16 C20 1_555 1_555
F17 C20 1_555 1_555
C1 N2 1_555 1_555
C2 C5 1_555 1_555
N2 C3 1_555 1_555
F18 C27 1_555 1_555
C3 C17 1_555 1_555
C4 C6 1_555 1_555
C5 C1 1_555 1_555
C6 C1 1_555 1_555
C7 C4 1_555 1_555
H1 C7 1_555 1_555
C8 H2 1_555 1_555
C9 C7 1_555 1_555
H3 C9 1_555 1_555
C10 C2 1_555 1_555
C11 C5 1_555 1_555
H4 C11 1_555 1_555
C12 C14 1_555 1_555
C13 C8 1_555 1_555
H5 C13 1_555 1_555
C14 C28 1_555 1_555
C15 H6 1_555 1_555
C16 C15 1_555 1_555
C17 H7 1_555 1_555
C18 H8 1_555 1_555
C19 C16 1_555 1_555
C20 C28 1_555 1_555
C21 C12 1_555 1_555
C22 C11 1_555 1_555
H9 C22 1_555 1_555
C23 C2 1_555 1_555
H10 C23 1_555 1_555
C24 N1 1_555 1_555
C25 C19 1_555 1_555
C26 C25 1_555 1_555
C27 C26 1_555 1_555
C3 C24 1_555 1_555
C4 C10 1_555 1_555
C8 C10 1_555 1_555
C9 C13 1_555 1_555
C15 C24 1_555 1_555
C16 C21 1_555 1_555
C17 C21 1_555 1_555
C18 C22 1_555 1_555
C18 C23 1_555 1_555

#END
