
#######################################################################
#
#                 Cambridge Crystallographic Data Centre
#                                CCDC 
#
#######################################################################
#
# If this CIF has been generated from an entry in the Cambridge 
# Structural Database, then it will include bibliographic, chemical, 
# crystal, experimental, refinement or atomic coordinate data resulting 
# from the CCDC's data processing and validation procedures.
#
#######################################################################

data_PIMSOW
_chemical_formula_moiety         'C23 H15 N3 O2,H2 O1'
_chemical_name_systematic        
'6-hydroxy-6-(1H-indol-3-yl)indolo[2,1-b]quinazolin-12(6H)-one monohydrate'
_symmetry_cell_setting           monoclinic
_symmetry_space_group_name_H-M   'P 21/c'
_symmetry_Int_Tables_number      14
_space_group_name_Hall           '-P 2ybc'
loop_
_symmetry_equiv_pos_site_id
_symmetry_equiv_pos_as_xyz
1 x,y,z
2 -x,1/2+y,1/2-z
3 -x,-y,-z
4 x,1/2-y,1/2+z
_cell_length_a                   10.7906(6)
_cell_length_b                   10.2626(5)
_cell_length_c                   17.5715(9)
_cell_angle_alpha                90
_cell_angle_beta                 102.945(3)
_cell_angle_gamma                90
_cell_volume                     1896.41
_exptl_crystal_colour            colorless
_exptl_crystal_description       block
_cell_formula_units_Z            4
loop_
_atom_site_label
_atom_site_type_symbol
_atom_site_fract_x
_atom_site_fract_y
_atom_site_fract_z
O1 O 0.61209(10) -0.05367(10) 0.06165(6)
N1 N 0.68396(10) 0.15518(11) 0.05902(7)
O2 O 0.66096(10) 0.46141(10) 0.00407(7)
H1 H 0.6022 0.4181 -0.0213
N2 N 0.81911(12) 0.22594(12) -0.02226(7)
C1 C 0.75326(13) 0.24779(13) 0.02853(8)
C2 C 0.67614(14) 0.02558(13) 0.03483(8)
C3 C 0.75108(14) -0.00213(13) -0.02272(8)
C4 C 0.82021(14) 0.09744(14) -0.04852(8)
C5 C 0.73642(13) 0.38174(14) 0.06392(8)
C6 C 0.86024(14) 0.45053(13) 0.09246(8)
C7 C 0.96079(14) 0.41634(14) 0.15782(8)
N3 N 1.02425(13) 0.58423(13) 0.09327(8)
H2 H 1.0688 0.6465 0.0803
C8 C 0.63045(13) 0.21351(14) 0.11846(8)
C9 C 0.97747(16) 0.32220(16) 0.21673(9)
H3 H 0.9115 0.2659 0.2204
C10 C 0.90366(16) 0.55159(14) 0.05528(9)
H4 H 0.8577 0.5924 0.0105
C11 C 1.06316(16) 0.50155(15) 0.15565(9)
C12 C 0.55916(16) 0.15551(17) 0.16515(10)
H5 H 0.5344 0.0687 0.1587
C13 C 0.75649(17) -0.12836(15) -0.05187(9)
H6 H 0.7104 -0.1949 -0.0353
C14 C 0.66523(14) 0.34343(14) 0.12571(9)
C15 C 0.89432(19) 0.06823(17) -0.10216(10)
H7 H 0.9413 0.1336 -0.1192
C16 C 0.63275(19) 0.41825(18) 0.18325(12)
H8 H 0.6567 0.5053 0.1895
C17 C 0.8979(2) -0.05565(18) -0.12955(12)
H9 H 0.9472 -0.0740 -0.1654
C18 C 1.09244(18) 0.31387(19) 0.26914(10)
H10 H 1.1045 0.2502 0.3078
C19 C 1.17860(18) 0.4940(2) 0.20912(11)
H11 H 1.2448 0.5509 0.2070
C20 C 0.8291(2) -0.15458(17) -0.10461(11)
H12 H 0.8323 -0.2387 -0.1237
C21 C 0.5263(2) 0.23258(19) 0.22204(13)
H13 H 0.4779 0.1970 0.2545
C22 C 1.19155(19) 0.3991(2) 0.26551(11)
H14 H 1.2682 0.3915 0.3021
C23 C 0.5635(2) 0.3606(2) 0.23168(13)
H15 H 0.5418 0.4094 0.2714
O3 O 0.44709(13) 0.32111(11) -0.06721(9)
H16 H 0.4033 0.3688 -0.0436
H17 H 0.4316 0.2414 -0.0601
loop_
_geom_bond_atom_site_label_1
_geom_bond_atom_site_label_2
_geom_bond_site_symmetry_1
_geom_bond_site_symmetry_2
O1 C2 1_555 1_555
N1 C1 1_555 1_555
O2 H1 1_555 1_555
N2 C1 1_555 1_555
C1 C5 1_555 1_555
C2 N1 1_555 1_555
C3 C2 1_555 1_555
C4 N2 1_555 1_555
C5 O2 1_555 1_555
C6 C5 1_555 1_555
C7 C6 1_555 1_555
N3 H2 1_555 1_555
C8 N1 1_555 1_555
C9 C7 1_555 1_555
H3 C9 1_555 1_555
C10 C6 1_555 1_555
H4 C10 1_555 1_555
C11 C7 1_555 1_555
C12 C8 1_555 1_555
H5 C12 1_555 1_555
C13 C3 1_555 1_555
H6 C13 1_555 1_555
C14 C5 1_555 1_555
C15 C4 1_555 1_555
H7 C15 1_555 1_555
C16 C14 1_555 1_555
H8 C16 1_555 1_555
C17 C15 1_555 1_555
H9 C17 1_555 1_555
C18 C9 1_555 1_555
H10 C18 1_555 1_555
C19 C11 1_555 1_555
H11 C19 1_555 1_555
C20 C13 1_555 1_555
H12 C20 1_555 1_555
C21 C12 1_555 1_555
H13 C21 1_555 1_555
C22 C18 1_555 1_555
H14 C22 1_555 1_555
C23 C16 1_555 1_555
H15 C23 1_555 1_555
O3 H16 1_555 1_555
H17 O3 1_555 1_555
C3 C4 1_555 1_555
N3 C10 1_555 1_555
N3 C11 1_555 1_555
C8 C14 1_555 1_555
C17 C20 1_555 1_555
C19 C22 1_555 1_555
C21 C23 1_555 1_555

#END
