
#######################################################################
#
#                 Cambridge Crystallographic Data Centre
#                                CCDC 
#
#######################################################################
#
# If this CIF has been generated from an entry in the Cambridge 
# Structural Database, then it will include bibliographic, chemical, 
# crystal, experimental, refinement or atomic coordinate data resulting 
# from the CCDC's data processing and validation procedures.
#
#######################################################################

data_PIMSOV
_chemical_name_common            
"9,10-bis(perfluorobutyl)-dithieno[2,3-a: 3',2'-c]phenazine"
_chemical_formula_moiety         'C24 H6 F18 N2 S2'
_chemical_name_systematic        
9,10-bis(nonafluorobutyl)bisthieno[2,3-a:3',2'-c]phenazine
_symmetry_cell_setting           triclinic
_symmetry_space_group_name_H-M   'P -1'
_symmetry_Int_Tables_number      2
_space_group_name_Hall           '-P 1'
loop_
_symmetry_equiv_pos_site_id
_symmetry_equiv_pos_as_xyz
1 x,y,z
2 -x,-y,-z
_cell_length_a                   6.7136(6)
_cell_length_b                   9.5424(9)
_cell_length_c                   19.8914(18)
_cell_angle_alpha                81.8180(10)
_cell_angle_beta                 85.3460(10)
_cell_angle_gamma                82.0850(10)
_cell_volume                     1246.87
_exptl_crystal_colour            yellow
_exptl_crystal_description       Needle
_cell_formula_units_Z            2
loop_
_atom_site_label
_atom_site_type_symbol
_atom_site_fract_x
_atom_site_fract_y
_atom_site_fract_z
S1 S 0.70716(18) 0.64697(14) 0.62029(6)
S2 S 0.75644(19) 0.13049(13) 0.45998(7)
F1 F 0.8841(4) 0.8389(3) 0.13779(13)
F2 F 0.9306(4) 0.6084(3) 0.15566(13)
F3 F 0.4561(4) 0.8094(3) 0.16633(14)
F4 F 1.0919(4) 0.9581(3) 0.21747(15)
F5 F 0.5491(4) 0.5841(3) 0.16322(14)
F6 F 0.6298(4) 1.0861(3) 0.29230(13)
F7 F 0.6436(4) 1.0206(3) 0.19273(14)
F8 F 0.9986(5) 1.0989(3) 0.29297(18)
F9 F 0.7860(5) 1.2844(3) 0.18854(17)
F10 F 0.9197(5) 1.1267(4) 0.10528(17)
N1 N 0.7492(5) 0.6775(4) 0.46142(19)
F11 F 0.2548(6) 0.8135(6) 0.0521(2)
N2 N 0.7811(5) 0.4360(4) 0.38921(19)
C1 C 0.7501(6) 0.5450(5) 0.4936(2)
C2 C 0.7610(7) 0.8469(5) 0.2839(2)
C3 C 0.7796(6) 0.5702(5) 0.3571(2)
F12 F 1.0828(9) 1.3441(4) 0.0977(2)
C4 C 0.7326(7) 0.5181(5) 0.5667(2)
C5 C 0.7873(7) 0.7235(5) 0.2481(2)
C6 C 0.7428(7) 1.0005(5) 0.2508(2)
F13 F 0.6327(7) 0.8728(6) 0.0412(2)
C7 C 0.7308(6) 0.3820(5) 0.6027(2)
C8 C 0.7429(7) 0.2611(5) 0.5657(2)
C9 C 0.7569(7) 0.2848(5) 0.4950(2)
F14 F 1.2667(7) 1.1544(4) 0.1320(2)
C10 C 0.6010(8) 0.7155(6) 0.1412(2)
C11 C 0.7540(7) 0.8276(5) 0.3537(2)
H1 H 0.7430 0.9072 0.3764
C12 C 0.8037(7) 0.7251(5) 0.1716(2)
C13 C 0.7388(7) 0.0344(5) 0.5392(3)
H2 H 0.7345 -0.0636 0.5464
C14 C 0.7640(6) 0.4232(5) 0.4568(2)
C15 C 0.7953(7) 0.5912(5) 0.2850(2)
H3 H 0.8117 0.5118 0.2619
C16 C 0.7629(6) 0.6905(5) 0.3922(2)
C17 C 0.7099(7) 0.3854(6) 0.6739(2)
H4 H 0.7071 0.3045 0.7059
F15 F 0.3497(8) 0.5933(7) 0.0533(2)
F16 F 0.7462(6) 0.6511(6) 0.03800(17)
C18 C 0.9463(8) 1.0611(6) 0.2350(3)
C19 C 0.7319(7) 0.1146(5) 0.5902(3)
H5 H 0.7212 0.0783 0.6361
C20 C 0.6946(7) 0.5196(6) 0.6900(2)
H6 H 0.6788 0.5408 0.7345
F17 F 0.4250(6) 0.7365(7) -0.03327(18)
C21 C 0.5997(9) 0.7386(9) 0.0635(3)
C22 C 0.9501(10) 1.1894(7) 0.1772(5)
C23 C 1.110(2) 1.2361(10) 0.1474(7)
C24 C 0.4065(11) 0.7174(11) 0.0325(3)
F18 F 1.1298(10) 1.3021(5) 0.2141(2)
loop_
_geom_bond_atom_site_label_1
_geom_bond_atom_site_label_2
_geom_bond_site_symmetry_1
_geom_bond_site_symmetry_2
S1 C4 1_555 1_555
S2 C9 1_555 1_555
F1 C12 1_555 1_555
F2 C12 1_555 1_555
F3 C10 1_555 1_555
F4 C18 1_555 1_555
F5 C10 1_555 1_555
F6 C6 1_555 1_555
F7 C6 1_555 1_555
F8 C18 1_555 1_555
F9 C22 1_555 1_555
F10 C22 1_555 1_555
N1 C1 1_555 1_555
F11 C24 1_555 1_555
N2 C3 1_555 1_555
C1 C4 1_555 1_555
C2 C5 1_555 1_555
C3 C15 1_555 1_555
F12 C23 1_555 1_555
C4 C7 1_555 1_555
C5 C12 1_555 1_555
C6 C2 1_555 1_555
F13 C21 1_555 1_555
C7 C8 1_555 1_555
C8 C9 1_555 1_555
C9 C14 1_555 1_555
F14 C23 1_555 1_555
C10 C12 1_555 1_555
C11 C2 1_555 1_555
H1 C11 1_555 1_555
C13 S2 1_555 1_555
H2 C13 1_555 1_555
C14 N2 1_555 1_555
C15 C5 1_555 1_555
H3 C15 1_555 1_555
C16 N1 1_555 1_555
C17 C7 1_555 1_555
H4 C17 1_555 1_555
F15 C24 1_555 1_555
F16 C21 1_555 1_555
C18 C6 1_555 1_555
C19 C8 1_555 1_555
H5 C19 1_555 1_555
C20 S1 1_555 1_555
H6 C20 1_555 1_555
F17 C24 1_555 1_555
C21 C10 1_555 1_555
C22 C18 1_555 1_555
C23 C22 1_555 1_555
C24 C21 1_555 1_555
F18 C23 1_555 1_555
C1 C14 1_555 1_555
C3 C16 1_555 1_555
C11 C16 1_555 1_555
C13 C19 1_555 1_555
C17 C20 1_555 1_555

#END
