
#######################################################################
#
#                 Cambridge Crystallographic Data Centre
#                                CCDC 
#
#######################################################################
#
# If this CIF has been generated from an entry in the Cambridge 
# Structural Database, then it will include bibliographic, chemical, 
# crystal, experimental, refinement or atomic coordinate data resulting 
# from the CCDC's data processing and validation procedures.
#
#######################################################################

data_PIMWIU
_chemical_formula_moiety         'C24 H19 N3 O3'
_chemical_name_systematic        
2-{4-[(1-phenyl-1H-1,2,3-triazol-4-yl)methoxy]phenyl}-2,3-dihydro-4H-1-benzopyran-4-one
_symmetry_cell_setting           monoclinic
_symmetry_space_group_name_H-M   'P 21/c'
_symmetry_Int_Tables_number      14
_space_group_name_Hall           '-P 2ybc'
loop_
_symmetry_equiv_pos_site_id
_symmetry_equiv_pos_as_xyz
1 x,y,z
2 -x,1/2+y,1/2-z
3 -x,-y,-z
4 x,1/2-y,1/2+z
_cell_length_a                   8.8992(13)
_cell_length_b                   5.0901(8)
_cell_length_c                   43.147(6)
_cell_angle_alpha                90
_cell_angle_beta                 91.730(11)
_cell_angle_gamma                90
_cell_volume                     1953.57
_exptl_crystal_colour            colorless
_exptl_crystal_description       plank
_cell_formula_units_Z            4
loop_
_atom_site_label
_atom_site_type_symbol
_atom_site_fract_x
_atom_site_fract_y
_atom_site_fract_z
O1 O 0.2544(3) 0.3200(5) 0.59104(6)
O2 O 0.5534(3) 0.8140(6) 0.63558(7)
O3 O 0.2250(3) 0.4875(7) 0.44674(7)
N1 N 0.1593(4) 0.5797(6) 0.34679(8)
N2 N 0.0805(4) 0.3628(7) 0.35506(8)
N3 N 0.0657(4) 0.3727(7) 0.38526(8)
C1 C 0.2702(4) 0.3144(8) 0.62261(9)
C2 C 0.3676(4) 0.4835(8) 0.63901(9)
C3 C 0.1957(4) 0.7239(8) 0.37198(10)
H1 H 0.2499 0.8801 0.3727
C4 C 0.4607(4) 0.6732(8) 0.62240(10)
C5 C 0.1889(4) 0.6284(8) 0.31489(9)
C6 C 0.1367(4) 0.5936(8) 0.39603(10)
C7 C 0.1864(4) 0.1268(7) 0.63802(10)
H2 H 0.1234 0.0121 0.6270
C8 C 0.1984(5) 0.1143(9) 0.66968(11)
H3 H 0.1418 -0.0092 0.6801
C9 C 0.4381(5) 0.6727(9) 0.58779(10)
H4 H 0.4518 0.8498 0.5801
H5 H 0.5141 0.5621 0.5788
C10 C 0.1332(5) 0.6674(9) 0.42911(10)
H6 H 0.1707 0.8450 0.4319
H7 H 0.0307 0.6613 0.4361
C11 C 0.3769(5) 0.4637(9) 0.67112(10)
H8 H 0.4408 0.5754 0.6823
C12 C 0.2926(6) 0.2807(9) 0.68664(11)
H9 H 0.2991 0.2694 0.7082
C13 C 0.2332(5) 0.5192(10) 0.47855(10)
C14 C 0.2881(5) 0.8190(9) 0.30690(11)
H10 H 0.3357 0.9203 0.3222
C15 C 0.2499(6) 0.7131(10) 0.25352(11)
H11 H 0.2731 0.7379 0.2328
C16 C 0.2649(6) 0.5524(10) 0.54276(12)
C17 C 0.2859(6) 0.5760(10) 0.57745(11)
H12 H 0.2111 0.7008 0.5848
C18 C 0.1183(6) 0.4798(10) 0.29217(11)
H13 H 0.0513 0.3482 0.2975
C19 C 0.3183(6) 0.8621(10) 0.27602(12)
H14 H 0.3854 0.9932 0.2706
C20 C 0.1475(6) 0.5275(10) 0.26134(12)
H15 H 0.0968 0.4323 0.2459
C21 C 0.1764(6) 0.7201(11) 0.52670(12)
H16 H 0.1254 0.8505 0.5372
C22 C 0.1595(6) 0.7034(11) 0.49491(12)
H17 H 0.0961 0.8211 0.4845
C23 C 0.3207(7) 0.3394(11) 0.49406(13)
H18 H 0.3681 0.2052 0.4835
C24 C 0.3377(7) 0.3621(11) 0.52683(13)
H19 H 0.3999 0.2446 0.5376
loop_
_geom_bond_atom_site_label_1
_geom_bond_atom_site_label_2
_geom_bond_site_symmetry_1
_geom_bond_site_symmetry_2
O1 C1 1_555 1_555
O2 C4 1_555 1_555
O3 C10 1_555 1_555
N1 N2 1_555 1_555
N2 N3 1_555 1_555
N3 C6 1_555 1_555
C1 C2 1_555 1_555
C2 C4 1_555 1_555
C3 N1 1_555 1_555
H1 C3 1_555 1_555
C4 C9 1_555 1_555
C5 N1 1_555 1_555
C6 C3 1_555 1_555
C7 C1 1_555 1_555
H2 C7 1_555 1_555
C8 C7 1_555 1_555
H3 C8 1_555 1_555
C9 H4 1_555 1_555
H5 C9 1_555 1_555
C10 C6 1_555 1_555
H6 C10 1_555 1_555
H7 C10 1_555 1_555
C11 C2 1_555 1_555
H8 C11 1_555 1_555
C12 C8 1_555 1_555
H9 C12 1_555 1_555
C13 O3 1_555 1_555
C14 C5 1_555 1_555
H10 C14 1_555 1_555
C15 H11 1_555 1_555
C16 C17 1_555 1_555
C17 O1 1_555 1_555
H12 C17 1_555 1_555
C18 C5 1_555 1_555
H13 C18 1_555 1_555
C19 C14 1_555 1_555
H14 C19 1_555 1_555
C20 C15 1_555 1_555
H15 C20 1_555 1_555
C21 C16 1_555 1_555
H16 C21 1_555 1_555
C22 C13 1_555 1_555
H17 C22 1_555 1_555
C23 C13 1_555 1_555
H18 C23 1_555 1_555
C24 C16 1_555 1_555
H19 C24 1_555 1_555
C9 C17 1_555 1_555
C11 C12 1_555 1_555
C15 C19 1_555 1_555
C18 C20 1_555 1_555
C21 C22 1_555 1_555
C23 C24 1_555 1_555

#END
