
#######################################################################
#
#                 Cambridge Crystallographic Data Centre
#                                CCDC 
#
#######################################################################
#
# If this CIF has been generated from an entry in the Cambridge 
# Structural Database, then it will include bibliographic, chemical, 
# crystal, experimental, refinement or atomic coordinate data resulting 
# from the CCDC's data processing and validation procedures.
#
#######################################################################

data_PIMWEQ
_chemical_formula_moiety         'C24 H18 N4 O5'
_chemical_name_systematic        
2-(2-{[1-(4-nitrophenyl)-1H-1,2,3-triazol-4-yl]methoxy}phenyl)-2,3-dihydro-4H-1-benzopyran-4-one
_symmetry_cell_setting           triclinic
_symmetry_space_group_name_H-M   'P -1'
_symmetry_Int_Tables_number      2
_space_group_name_Hall           '-P 1'
loop_
_symmetry_equiv_pos_site_id
_symmetry_equiv_pos_as_xyz
1 x,y,z
2 -x,-y,-z
_cell_length_a                   10.6360(8)
_cell_length_b                   10.6484(11)
_cell_length_c                   10.8135(9)
_cell_angle_alpha                73.377(8)
_cell_angle_beta                 75.078(7)
_cell_angle_gamma                63.401(9)
_cell_volume                     1037.27
_exptl_crystal_colour            'light white'
_exptl_crystal_description       block
_cell_formula_units_Z            2
loop_
_atom_site_label
_atom_site_type_symbol
_atom_site_fract_x
_atom_site_fract_y
_atom_site_fract_z
O1 O 0.3190(2) 0.5195(2) 0.88017(18)
O2 O 0.1160(2) 0.4674(2) 0.7966(2)
O3 O 0.5402(2) 0.6159(2) 0.5236(2)
N1 N 0.3824(3) 0.0748(2) 0.7136(2)
O4 O 0.9884(3) -0.3554(3) 0.5064(3)
N2 N 0.2876(3) 0.0138(3) 0.7493(3)
N3 N 0.9513(3) -0.2311(3) 0.5125(3)
O5 O 1.0305(3) -0.1693(3) 0.4770(3)
C1 C 0.4616(3) 0.4452(3) 0.8550(3)
N4 N 0.1634(3) 0.1130(3) 0.7836(3)
C2 C 0.5430(3) 0.4707(3) 0.7348(3)
C3 C 0.0284(3) 0.5967(3) 0.8292(3)
C4 C 0.5272(3) -0.0030(3) 0.6658(3)
C5 C -0.1163(3) 0.6394(3) 0.8715(3)
H1 H -0.1600 0.5782 0.8798
C6 C 0.1777(3) 0.2374(3) 0.7692(3)
C7 C 0.4736(3) 0.5798(3) 0.6266(3)
C8 C 0.6898(3) 0.3873(4) 0.7177(3)
H2 H 0.7452 0.4039 0.6380
C9 C 0.3158(3) 0.2145(3) 0.7250(3)
H3 H 0.3565 0.2803 0.7064
C10 C 0.5262(4) 0.3385(4) 0.9563(3)
H4 H 0.4721 0.3223 1.0369
C11 C 0.5690(3) -0.1396(3) 0.6445(3)
H5 H 0.5033 -0.1803 0.6640
C12 C 0.8026(3) -0.1518(3) 0.5663(3)
C13 C 0.7081(3) -0.2147(3) 0.5943(3)
H6 H 0.7373 -0.3063 0.5797
C14 C 0.0554(3) 0.3707(3) 0.8009(3)
H7 H -0.0095 0.4104 0.7376
H8 H 0.0038 0.3512 0.8871
C15 C 0.7632(3) -0.0178(3) 0.5878(3)
H9 H 0.8293 0.0225 0.5679
C16 C 0.6241(3) 0.0570(3) 0.6392(3)
H10 H 0.5962 0.1476 0.6558
C17 C -0.1952(3) 0.7743(4) 0.9015(3)
H11 H -0.2924 0.8035 0.9307
C18 C 0.0951(3) 0.6878(4) 0.8201(3)
C19 C 0.7523(4) 0.2815(4) 0.8176(4)
H12 H 0.8497 0.2260 0.8055
C20 C 0.6700(4) 0.2574(4) 0.9365(4)
H13 H 0.7127 0.1853 1.0040
C21 C -0.1315(4) 0.8652(4) 0.8884(3)
H14 H -0.1860 0.9566 0.9062
C22 C 0.0127(4) 0.8218(4) 0.8491(3)
H15 H 0.0552 0.8838 0.8419
C23 C 0.3141(4) 0.6348(5) 0.6509(3)
H16 H 0.2751 0.7303 0.5984
H17 H 0.2863 0.5737 0.6223
C24 C 0.2534(4) 0.6404(4) 0.7841(3)
H18 H 0.2709 0.7167 0.8004
loop_
_geom_bond_atom_site_label_1
_geom_bond_atom_site_label_2
_geom_bond_site_symmetry_1
_geom_bond_site_symmetry_2
O1 C1 1_555 1_555
O2 C3 1_555 1_555
O3 C7 1_555 1_555
N1 N2 1_555 1_555
O4 N3 1_555 1_555
N2 N4 1_555 1_555
N3 O5 1_555 1_555
C1 C2 1_555 1_555
N4 C6 1_555 1_555
C2 C7 1_555 1_555
C3 C5 1_555 1_555
C4 N1 1_555 1_555
C5 H1 1_555 1_555
C6 C9 1_555 1_555
C7 C23 1_555 1_555
C8 C2 1_555 1_555
H2 C8 1_555 1_555
C9 N1 1_555 1_555
H3 C9 1_555 1_555
C10 C1 1_555 1_555
H4 C10 1_555 1_555
C11 C4 1_555 1_555
H5 C11 1_555 1_555
C12 N3 1_555 1_555
C13 C11 1_555 1_555
H6 C13 1_555 1_555
C14 O2 1_555 1_555
H7 C14 1_555 1_555
H8 C14 1_555 1_555
C15 C12 1_555 1_555
H9 C15 1_555 1_555
C16 C4 1_555 1_555
H10 C16 1_555 1_555
C17 C5 1_555 1_555
H11 C17 1_555 1_555
C18 C3 1_555 1_555
C19 C8 1_555 1_555
H12 C19 1_555 1_555
C20 C10 1_555 1_555
H13 C20 1_555 1_555
C21 C17 1_555 1_555
H14 C21 1_555 1_555
C22 C18 1_555 1_555
H15 C22 1_555 1_555
C23 H16 1_555 1_555
H17 C23 1_555 1_555
C24 O1 1_555 1_555
H18 C24 1_555 1_555
C6 C14 1_555 1_555
C12 C13 1_555 1_555
C15 C16 1_555 1_555
C18 C24 1_555 1_555
C19 C20 1_555 1_555
C21 C22 1_555 1_555
C23 C24 1_555 1_555

#END
