
#######################################################################
#
#                 Cambridge Crystallographic Data Centre
#                                CCDC 
#
#######################################################################
#
# If this CIF has been generated from an entry in the Cambridge 
# Structural Database, then it will include bibliographic, chemical, 
# crystal, experimental, refinement or atomic coordinate data resulting 
# from the CCDC's data processing and validation procedures.
#
#######################################################################

data_PINBEW
_chemical_formula_moiety         'C17 H23 N1 O3'
_chemical_name_systematic        
'methyl 2-t-butyl-10-methyl-1,5-dihydro-1,4-methano-3,2-benzoxazepine-4(2H)-carboxylate'
_symmetry_cell_setting           triclinic
_symmetry_space_group_name_H-M   'P -1'
_symmetry_Int_Tables_number      2
_space_group_name_Hall           '-P 1'
loop_
_symmetry_equiv_pos_site_id
_symmetry_equiv_pos_as_xyz
1 x,y,z
2 -x,-y,-z
_cell_length_a                   6.8061(7)
_cell_length_b                   8.1772(9)
_cell_length_c                   15.3194(17)
_cell_angle_alpha                88.110(9)
_cell_angle_beta                 77.577(6)
_cell_angle_gamma                73.199(6)
_cell_volume                     796.706
_exptl_crystal_colour            colorless
_exptl_crystal_description       block
_cell_formula_units_Z            2
loop_
_atom_site_label
_atom_site_type_symbol
_atom_site_fract_x
_atom_site_fract_y
_atom_site_fract_z
C1 C 0.1604(2) 1.0071(2) 0.24592(10)
C2 C -0.0538(3) 1.0652(2) 0.28350(11)
H1 H -0.1283 0.9866 0.3019
C3 C -0.1572(3) 1.2384(3) 0.29385(12)
H2 H -0.3004 1.2757 0.3190
C4 C -0.0474(3) 1.3555(3) 0.26671(14)
H3 H -0.1156 1.4719 0.2748
C5 C 0.1644(3) 1.2992(2) 0.22734(13)
H4 H 0.2373 1.3789 0.2088
C6 C 0.2705(3) 1.1259(2) 0.21499(11)
C7 C 0.4982(3) 1.0667(2) 0.16545(12)
H5 H 0.5805 1.1214 0.1924
H6 H 0.5086 1.1006 0.1037
C8 C 0.5876(2) 0.8722(2) 0.16818(10)
C9 C 0.4316(2) 0.7854(2) 0.14452(10)
H7 H 0.3634 0.8502 0.0988
C10 C 0.2770(2) 0.8182(2) 0.23540(10)
H8 H 0.1780 0.7503 0.2397
O1 O 0.59853(17) 0.82893(15) 0.25870(7)
C11 C 0.5228(3) 0.5985(2) 0.11481(12)
H9 H 0.5875 0.5350 0.1601
H10 H 0.6261 0.5881 0.0600
H11 H 0.4126 0.5542 0.1054
C12 C 0.8071(3) 0.8033(2) 0.11061(10)
C13 C 1.0104(3) 0.7868(3) -0.03587(13)
H12 H 1.1224 0.8011 -0.0108
H13 H 1.0082 0.8464 -0.0909
H14 H 1.0323 0.6674 -0.0473
C14 C 0.3668(3) 0.7843(2) 0.39241(10)
C15 C 0.5587(3) 0.6841(3) 0.42867(12)
H15 H 0.5963 0.5658 0.4107
H16 H 0.5256 0.6946 0.4928
H17 H 0.6744 0.7291 0.4053
C16 C 0.1863(3) 0.7075(3) 0.42551(13)
H18 H 0.0652 0.7722 0.4040
H19 H 0.1531 0.7106 0.4897
H20 H 0.2267 0.5912 0.4037
C17 C 0.3076(3) 0.9712(3) 0.42346(12)
H21 H 0.4158 1.0207 0.3947
H22 H 0.2927 0.9776 0.4871
H23 H 0.1771 1.0327 0.4081
N1 N 0.4277(2) 0.74946(17) 0.29372(8)
O2 O 0.9554(2) 0.71071(19) 0.13425(9)
O3 O 0.81196(19) 0.85534(17) 0.02656(8)
loop_
_geom_bond_atom_site_label_1
_geom_bond_atom_site_label_2
_geom_bond_site_symmetry_1
_geom_bond_site_symmetry_2
C1 C2 1_555 1_555
C2 H1 1_555 1_555
C3 C2 1_555 1_555
H2 C3 1_555 1_555
C4 C3 1_555 1_555
H3 C4 1_555 1_555
C5 C4 1_555 1_555
H4 C5 1_555 1_555
C6 C1 1_555 1_555
C7 C6 1_555 1_555
H5 C7 1_555 1_555
H6 C7 1_555 1_555
C8 C7 1_555 1_555
C9 C8 1_555 1_555
H7 C9 1_555 1_555
C10 C1 1_555 1_555
H8 C10 1_555 1_555
O1 C8 1_555 1_555
C11 C9 1_555 1_555
H9 C11 1_555 1_555
H10 C11 1_555 1_555
H11 C11 1_555 1_555
C12 C8 1_555 1_555
C13 H12 1_555 1_555
H13 C13 1_555 1_555
H14 C13 1_555 1_555
C14 C15 1_555 1_555
C15 H15 1_555 1_555
H16 C15 1_555 1_555
H17 C15 1_555 1_555
C16 C14 1_555 1_555
H18 C16 1_555 1_555
H19 C16 1_555 1_555
H20 C16 1_555 1_555
C17 C14 1_555 1_555
H21 C17 1_555 1_555
H22 C17 1_555 1_555
H23 C17 1_555 1_555
N1 C10 1_555 1_555
O2 C12 1_555 1_555
O3 C12 1_555 1_555
C5 C6 1_555 1_555
C9 C10 1_555 1_555
O1 N1 1_555 1_555
C13 O3 1_555 1_555
C14 N1 1_555 1_555

#END
