
#######################################################################
#
#                 Cambridge Crystallographic Data Centre
#                                CCDC 
#
#######################################################################
#
# If this CIF has been generated from an entry in the Cambridge 
# Structural Database, then it will include bibliographic, chemical, 
# crystal, experimental, refinement or atomic coordinate data resulting 
# from the CCDC's data processing and validation procedures.
#
#######################################################################

data_PINBAS
_chemical_formula_moiety         'C16 H20 N2 O5'
_chemical_name_systematic        
'methyl 2-t-butyl-7-nitro-1,5-dihydro-1,4-methano-3,2-benzoxazepine-4(2H)-carboxylate'
_symmetry_cell_setting           triclinic
_symmetry_space_group_name_H-M   'P -1'
_symmetry_Int_Tables_number      2
_space_group_name_Hall           '-P 1'
loop_
_symmetry_equiv_pos_site_id
_symmetry_equiv_pos_as_xyz
1 x,y,z
2 -x,-y,-z
_cell_length_a                   6.5869(3)
_cell_length_b                   11.3778(6)
_cell_length_c                   12.1067(6)
_cell_angle_alpha                63.399(3)
_cell_angle_beta                 80.889(3)
_cell_angle_gamma                82.271(3)
_cell_volume                     798.97
_exptl_crystal_colour            colorless
_exptl_crystal_description       block
_cell_formula_units_Z            2
loop_
_atom_site_label
_atom_site_type_symbol
_atom_site_fract_x
_atom_site_fract_y
_atom_site_fract_z
C1 C -0.1413(2) 1.29217(14) 0.03501(12)
C2 C -0.3186(2) 1.24695(15) 0.11302(13)
H1 H -0.4380 1.3024 0.1070
C3 C -0.3138(2) 1.11688(14) 0.20049(12)
H2 H -0.4308 1.0845 0.2552
C4 C -0.13572(17) 1.03350(12) 0.20770(10)
C5 C 0.04150(18) 1.08155(12) 0.12581(10)
C6 C 0.0385(2) 1.21316(13) 0.04000(11)
H3 H 0.1559 1.2475 -0.0133
C7 C 0.23332(18) 0.99084(12) 0.12743(11)
H4 H 0.3508 1.0281 0.1359
H5 H 0.2594 0.9844 0.0491
C8 C 0.21113(17) 0.85358(12) 0.23367(11)
C9 C 0.00055(18) 0.80736(13) 0.24331(12)
H6 H -0.0069 0.7137 0.2961
H7 H -0.0406 0.8290 0.1625
C10 C -0.12403(17) 0.89151(12) 0.30394(11)
H8 H -0.2614 0.8601 0.3405
O1 O 0.21394(12) 0.85765(9) 0.35070(7)
C11 C 0.39509(19) 0.76049(13) 0.22380(12)
C12 C -0.0434(2) 0.77828(12) 0.52852(11)
C13 C -0.2481(3) 0.82437(16) 0.58064(14)
H9 H -0.2382 0.9106 0.5744
H10 H -0.2793 0.7639 0.6662
H11 H -0.3555 0.8276 0.5340
C14 C 0.1252(3) 0.77768(14) 0.60140(12)
H12 H 0.2554 0.7496 0.5692
H13 H 0.0951 0.7182 0.6874
H14 H 0.1317 0.8649 0.5936
C15 C -0.0523(3) 0.64008(13) 0.53898(14)
H15 H -0.1635 0.6398 0.4965
H16 H -0.0744 0.5787 0.6250
H17 H 0.0754 0.6149 0.5019
N1 N -0.1420(3) 1.43019(14) -0.06070(14)
N2 N -0.00006(14) 0.88377(9) 0.39898(8)
O2 O 0.028(3) 1.4769(15) -0.1164(14)
O3 O -0.2797(12) 1.5089(7) -0.0485(7)
O4 O 0.5571(8) 0.7997(7) 0.1712(6)
O5 O 0.3886(11) 0.6433(6) 0.3209(5)
C16 C 0.5523(16) 0.5473(8) 0.3176(9)
H18 H 0.6828 0.5829 0.3047
H19 H 0.5411 0.5256 0.2509
H20 H 0.5423 0.4693 0.3950
O6? O -0.004(3) 1.4612(14) -0.1380(13)
O7? O -0.3145(14) 1.4868(7) -0.0888(6)
O8? O 0.5243(10) 0.7855(7) 0.1381(6)
O9? O 0.3589(10) 0.6361(6) 0.2787(5)
C17? C 0.5298(17) 0.5392(11) 0.2796(11)
H21? H 0.5810 0.5551 0.1957
H22? H 0.4822 0.4521 0.3236
H23? H 0.6382 0.5467 0.3200
loop_
_geom_bond_atom_site_label_1
_geom_bond_atom_site_label_2
_geom_bond_site_symmetry_1
_geom_bond_site_symmetry_2
C1 C2 1_555 1_555
C2 H1 1_555 1_555
C3 C2 1_555 1_555
H2 C3 1_555 1_555
C4 C3 1_555 1_555
C5 C4 1_555 1_555
C6 C1 1_555 1_555
H3 C6 1_555 1_555
C7 C5 1_555 1_555
H4 C7 1_555 1_555
H5 C7 1_555 1_555
C8 C7 1_555 1_555
C9 C8 1_555 1_555
H6 C9 1_555 1_555
H7 C9 1_555 1_555
C10 C4 1_555 1_555
H8 C10 1_555 1_555
O1 C8 1_555 1_555
C11 C8 1_555 1_555
C12 C13 1_555 1_555
C13 H9 1_555 1_555
H10 C13 1_555 1_555
H11 C13 1_555 1_555
C14 C12 1_555 1_555
H12 C14 1_555 1_555
H13 C14 1_555 1_555
H14 C14 1_555 1_555
C15 C12 1_555 1_555
H15 C15 1_555 1_555
H16 C15 1_555 1_555
H17 C15 1_555 1_555
N1 C1 1_555 1_555
N2 C10 1_555 1_555
O2 N1 1_555 1_555
O3 N1 1_555 1_555
O4 C11 1_555 1_555
O5 C11 1_555 1_555
C16 O5 1_555 1_555
H18 C16 1_555 1_555
H19 C16 1_555 1_555
H20 C16 1_555 1_555
C5 C6 1_555 1_555
C9 C10 1_555 1_555
O1 N2 1_555 1_555
C12 N2 1_555 1_555

#END
