
#######################################################################
#
#                 Cambridge Crystallographic Data Centre
#                                CCDC 
#
#######################################################################
#
# If this CIF has been generated from an entry in the Cambridge 
# Structural Database, then it will include bibliographic, chemical, 
# crystal, experimental, refinement or atomic coordinate data resulting 
# from the CCDC's data processing and validation procedures.
#
#######################################################################

data_PINBOF
_chemical_formula_moiety         'C16 H24 Br1 N1 O3'
_chemical_name_systematic        4-Bromo-N-(1,3-dihydroxynonan-2-yl)benzamide
_symmetry_cell_setting           orthorhombic
_symmetry_space_group_name_H-M   'P 21 21 21'
_symmetry_Int_Tables_number      19
_space_group_name_Hall           'P 2ac 2ab'
loop_
_symmetry_equiv_pos_site_id
_symmetry_equiv_pos_as_xyz
1 x,y,z
2 1/2-x,-y,1/2+z
3 1/2+x,1/2-y,-z
4 -x,1/2+y,1/2-z
_cell_length_a                   5.2245(5)
_cell_length_b                   9.7109(6)
_cell_length_c                   33.3816(17)
_cell_angle_alpha                90
_cell_angle_beta                 90
_cell_angle_gamma                90
_cell_volume                     1693.6
_cell_formula_units_Z            4
loop_
_atom_site_label
_atom_site_type_symbol
_atom_site_fract_x
_atom_site_fract_y
_atom_site_fract_z
Br1 Br 0.32170(15) -0.15258(6) 0.468078(15)
O1 O 0.5589(7) 0.3153(3) 0.31960(9)
O2 O 0.1437(6) 0.4870(3) 0.22619(8)
O3 O 0.5067(7) 0.0682(3) 0.21728(9)
N1 N 0.2867(7) 0.1771(3) 0.28500(9)
C1 C 0.4157(9) 0.2138(4) 0.31815(12)
C2 C 0.3012(8) 0.2596(4) 0.24820(11)
H1 H 0.4637 0.3100 0.2483
C3 C 0.2990(8) 0.1640(4) 0.21184(11)
H2 H 0.1371 0.1131 0.2114
C4 C 0.3295(10) 0.2414(4) 0.17260(11)
H3 H 0.4865 0.2946 0.1737
H4 H 0.1886 0.3058 0.1699
C5 C 0.3371(9) 0.1498(5) 0.13554(11)
H5 H 0.3796 0.2063 0.1125
H6 H 0.4730 0.0828 0.1388
C6 C 0.0903(9) 0.0739(5) 0.12682(13)
H7 H -0.0502 0.1392 0.1269
H8 H 0.0593 0.0076 0.1480
C7 C 0.0942(9) -0.0007(5) 0.08692(13)
H9 H 0.1275 0.0659 0.0659
H10 H 0.2350 -0.0659 0.0870
C8 C -0.1493(11) -0.0772(6) 0.07690(16)
H11 H -0.1876 -0.1404 0.0986
H12 H -0.2886 -0.0114 0.0754
C9 C -0.1397(14) -0.1573(7) 0.03823(16)
H13 H -0.3015 -0.2016 0.0338
H14 H -0.0072 -0.2256 0.0398
H15 H -0.1043 -0.0956 0.0164
C10 C 0.0837(8) 0.3644(4) 0.24794(12)
H16 H -0.0668 0.3222 0.2362
H17 H 0.0422 0.3889 0.2754
C11 C 0.3851(8) 0.1228(4) 0.35403(11)
C12 C 0.1851(9) 0.0309(4) 0.35867(12)
H18 H 0.0620 0.0234 0.3387
C13 C 0.1655(11) -0.0502(4) 0.39272(12)
H19 H 0.0300 -0.1115 0.3957
C14 C 0.3492(10) -0.0386(4) 0.42204(12)
C15 C 0.5496(10) 0.0522(5) 0.41842(14)
H20 H 0.6730 0.0587 0.4384
C16 C 0.5647(9) 0.1331(5) 0.38477(12)
H21 H 0.6977 0.1963 0.3824
H22 H 0.275(6) 0.526(5) 0.2359(14)
H23 H 0.477(11) 0.003(4) 0.2010(13)
loop_
_geom_bond_atom_site_label_1
_geom_bond_atom_site_label_2
_geom_bond_site_symmetry_1
_geom_bond_site_symmetry_2
Br1 C14 1_555 1_555
O1 C1 1_555 1_555
O2 C10 1_555 1_555
O3 C3 1_555 1_555
N1 C1 1_555 1_555
C1 C11 1_555 1_555
C2 N1 1_555 1_555
H1 C2 1_555 1_555
C3 C2 1_555 1_555
H2 C3 1_555 1_555
C4 C3 1_555 1_555
H3 C4 1_555 1_555
H4 C4 1_555 1_555
C5 C4 1_555 1_555
H5 C5 1_555 1_555
H6 C5 1_555 1_555
C6 C5 1_555 1_555
H7 C6 1_555 1_555
H8 C6 1_555 1_555
C7 C6 1_555 1_555
H9 C7 1_555 1_555
H10 C7 1_555 1_555
C8 C7 1_555 1_555
H11 C8 1_555 1_555
H12 C8 1_555 1_555
C9 C8 1_555 1_555
H13 C9 1_555 1_555
H14 C9 1_555 1_555
H15 C9 1_555 1_555
C10 C2 1_555 1_555
H16 C10 1_555 1_555
H17 C10 1_555 1_555
C11 C12 1_555 1_555
C12 H18 1_555 1_555
C13 C12 1_555 1_555
H19 C13 1_555 1_555
C14 C13 1_555 1_555
C15 C14 1_555 1_555
H20 C15 1_555 1_555
C16 C11 1_555 1_555
H21 C16 1_555 1_555
H22 O2 1_555 1_555
H23 O3 1_555 1_555
C15 C16 1_555 1_555

#END
