
#######################################################################
#
#                 Cambridge Crystallographic Data Centre
#                                CCDC 
#
#######################################################################
#
# If this CIF has been generated from an entry in the Cambridge 
# Structural Database, then it will include bibliographic, chemical, 
# crystal, experimental, refinement or atomic coordinate data resulting 
# from the CCDC's data processing and validation procedures.
#
#######################################################################

data_PINBIN10
_chemical_formula_moiety         'C34 H24 Br1 N3'
_chemical_name_systematic        
2-Phenyl-2-(2-phenyl-3-indolyl)-3-(p-bromophenyl)iminoindoline
_symmetry_cell_setting           triclinic
_symmetry_space_group_name_H-M   'P -1'
_symmetry_Int_Tables_number      2
_space_group_name_Hall           '-P 1'
loop_
_symmetry_equiv_pos_site_id
_symmetry_equiv_pos_as_xyz
1 x,y,z
2 -x,-y,-z
_cell_length_a                   12.31
_cell_length_b                   8.99
_cell_length_c                   14.41
_cell_angle_alpha                63.1
_cell_angle_beta                 68.1
_cell_angle_gamma                75.5
_cell_volume                     1313.09
_cell_formula_units_Z            2
loop_
_atom_site_label
_atom_site_type_symbol
_atom_site_fract_x
_atom_site_fract_y
_atom_site_fract_z
Br44 Br 0.03090 0.32500 0.12520
C12 C 0.72280 -0.03930 0.15020
C13 C 0.72350 0.11420 0.15240
C14 C 0.79820 0.24020 0.05710
C15 C 0.86880 0.20980 -0.03080
C16 C 0.86640 0.05450 -0.02850
C17 C 0.79390 -0.06890 0.05790
C18 C 0.64700 -0.20150 0.35890
C19 C 0.56080 -0.22780 0.45700
C2 C 0.63520 -0.17220 0.25050
C21 C 0.73290 -0.25120 0.48480
C22 C 0.81800 -0.28410 0.53750
C23 C 0.93390 -0.27320 0.46140
C24 C 0.95990 -0.23410 0.35270
C25 C 0.87610 -0.20570 0.30580
C26 C 0.75590 -0.21440 0.37580
C3 C 0.51530 -0.11430 0.23680
C31 C 0.36310 0.08080 0.22190
C32 C 0.25340 0.05270 0.30140
C33 C 0.15460 0.12460 0.27540
C34 C 0.16580 0.22890 0.16350
C35 C 0.27480 0.26380 0.08270
C36 C 0.37400 0.19040 0.10900
C37 C 0.43230 -0.24540 0.49900
C38 C 0.37860 -0.34560 0.47920
C39 C 0.25690 -0.36530 0.52350
C4 C 0.48170 -0.23300 0.20550
C40 C 0.18940 -0.29060 0.59150
C41 C 0.24200 -0.19010 0.61750
C42 C 0.36150 -0.16690 0.57030
C5 C 0.38690 -0.23740 0.17650
C6 C 0.37620 -0.37950 0.16380
C7 C 0.45780 -0.50440 0.17370
C8 C 0.55640 -0.49980 0.19860
C9 C 0.56690 -0.36080 0.21560
N1 N 0.65590 -0.33570 0.24260
N20 N 0.61340 -0.25750 0.53640
N27 N 0.46530 0.01580 0.24800
loop_
_geom_bond_atom_site_label_1
_geom_bond_atom_site_label_2
_geom_bond_site_symmetry_1
_geom_bond_site_symmetry_2
Br44 C34 1_555 1_555
C12 C13 1_555 1_555
C13 C14 1_555 1_555
C14 C15 1_555 1_555
C15 C16 1_555 1_555
C16 C17 1_555 1_555
C17 C12 1_555 1_555
C18 C19 1_555 1_555
C19 C37 1_555 1_555
C2 C12 1_555 1_555
C21 C22 1_555 1_555
C22 C23 1_555 1_555
C23 C24 1_555 1_555
C24 C25 1_555 1_555
C25 C26 1_555 1_555
C26 C18 1_555 1_555
C3 C2 1_555 1_555
C31 C32 1_555 1_555
C32 C33 1_555 1_555
C33 C34 1_555 1_555
C34 C35 1_555 1_555
C35 C36 1_555 1_555
C36 C31 1_555 1_555
C37 C38 1_555 1_555
C38 C39 1_555 1_555
C39 C40 1_555 1_555
C4 C3 1_555 1_555
C40 C41 1_555 1_555
C41 C42 1_555 1_555
C42 C37 1_555 1_555
C5 C4 1_555 1_555
C6 C5 1_555 1_555
C7 C6 1_555 1_555
C8 C7 1_555 1_555
C9 C4 1_555 1_555
N1 C2 1_555 1_555
N20 C19 1_555 1_555
N27 C3 1_555 1_555
C18 C2 1_555 1_555
C21 C26 1_555 1_555
C21 N20 1_555 1_555
C31 N27 1_555 1_555
C8 C9 1_555 1_555
C9 N1 1_555 1_555

#END
