
#######################################################################
#
#                 Cambridge Crystallographic Data Centre
#                                CCDC 
#
#######################################################################
#
# If this CIF has been generated from an entry in the Cambridge 
# Structural Database, then it will include bibliographic, chemical, 
# crystal, experimental, refinement or atomic coordinate data resulting 
# from the CCDC's data processing and validation procedures.
#
#######################################################################

data_PINCOO
_chemical_formula_moiety         'C99 H178 Ba5 O22'
_chemical_name_systematic        
(\m^5^-Hydroxy)-tetrakis(\m~3~-2,2,6,6-tetramethyl-3,5-heptanedione)-tris(\m~2~-aqua)-pentakis(2,2,6,6-tetramethyl-3,5-heptanedione-O,O')-penta-barium
_symmetry_cell_setting           monoclinic
_symmetry_space_group_name_H-M   'I 2/a'
_symmetry_Int_Tables_number      15
_space_group_name_Hall           '-I 2ya'
loop_
_symmetry_equiv_pos_site_id
_symmetry_equiv_pos_as_xyz
1 x,y,z
2 1/2+x,1/2+y,1/2+z
3 1/2-x,y,-z
4 -x,1/2+y,1/2-z
5 -x,-y,-z
6 1/2-x,1/2-y,1/2-z
7 1/2+x,-y,z
8 x,1/2-y,1/2+z
_cell_length_a                   24.365(9)
_cell_length_b                   21.174(10)
_cell_length_c                   48.486(16)
_cell_angle_alpha                90
_cell_angle_beta                 100.98(3)
_cell_angle_gamma                90
_cell_volume                     24556.2
_exptl_crystal_colour            colorless
_cell_formula_units_Z            8
loop_
_atom_site_label
_atom_site_type_symbol
_atom_site_fract_x
_atom_site_fract_y
_atom_site_fract_z
Ba1 Ba 0.0875(1) 0.3984(1) 0.1282(1)
Ba2 Ba -0.0189(1) 0.2727(1) 0.1608(1)
Ba3 Ba 0.0761(1) 0.1227(1) 0.1408(1)
Ba4 Ba 0.1777(1) 0.2505(1) 0.1021(1)
Ba5 Ba 0.0014(1) 0.2557(1) 0.0753(1)
O1 O 0.0663(3) 0.2597(4) 0.1261(2)
O2 O 0.0780(4) 0.3443(5) 0.1858(2)
O3 O 0.0788(4) 0.1965(5) 0.1924(2)
O4 O 0.1046(4) 0.1367(4) 0.0883(2)
O5 O 0.0940(4) 0.4642(5) 0.1768(2)
O6 O 0.0945(5) 0.5203(5) 0.1232(2)
O7 O 0.0067(5) 0.2703(6) 0.2168(2)
O8 O -0.1040(4) 0.2779(5) 0.1856(2)
O9 O 0.0929(4) 0.0030(4) 0.1406(2)
O10 O 0.0931(4) 0.0709(4) 0.1911(2)
O11 O 0.2823(4) 0.2465(5) 0.1002(2)
O12 O 0.2067(4) 0.1462(5) 0.0788(2)
O13 O -0.0583(5) 0.2310(5) 0.0260(2)
O14 O -0.0018(4) 0.1348(4) 0.0634(2)
O15 O -0.0223(4) 0.3865(4) 0.1364(2)
O16 O 0.0026(4) 0.3794(4) 0.0818(2)
O17 O -0.0751(4) 0.2403(5) 0.1073(2)
O18 O -0.0268(4) 0.1469(5) 0.1455(2)
O19 O 0.1786(4) 0.3190(4) 0.1498(2)
O20 O 0.1745(4) 0.1817(4) 0.1489(2)
O21 O 0.1515(4) 0.3749(5) 0.0880(2)
O22 O 0.0953(4) 0.2706(5) 0.0568(2)
C1 C 0.1113(5) 0.5341(5) 0.2164(2)
C2 C 0.1032(6) 0.5226(8) 0.1844(2)
C3 C 0.1071(8) 0.5713(8) 0.1659(4)
C4 C 0.1008(8) 0.5715(7) 0.1379(4)
C5 C 0.0978(6) 0.6345(6) 0.1217(3)
C6 C 0.0582(9) 0.6804(9) 0.1332(5)
C7 C 0.1568(7) 0.6639(10) 0.1256(5)
C8 C 0.0755(10) 0.6224(11) 0.0902(3)
C9 C 0.1016(10) 0.4717(7) 0.2313(3)
C10 C 0.0690(9) 0.5842(9) 0.2223(3)
C11 C 0.1714(6) 0.5577(12) 0.2275(4)
C15 C 0.0195(5) 0.2737(5) 0.2670(2)
C16 C -0.0185(7) 0.2749(7) 0.2376(2)
C17 C -0.0743(10) 0.2771(10) 0.2354(4)
C18 C -0.1134(4) 0.2798(7) 0.2112(3)
C19 C -0.1769(4) 0.2852(5) 0.2104(3)
C20 C -0.1876(7) 0.2946(10) 0.2405(3)
C21 C -0.2004(6) 0.3422(8) 0.1920(4)
C22 C -0.2062(7) 0.2242(8) 0.1978(5)
C23 C 0.0634(8) 0.3269(10) 0.2690(4)
C24 C -0.0164(8) 0.2836(12) 0.2897(3)
C25 C 0.0495(9) 0.2092(8) 0.2716(4)
C29 C 0.1174(9) -0.1035(9) 0.1447(4)
C30 C 0.1072(7) -0.0423(8) 0.1578(4)
C31 C 0.1100(7) -0.0374(7) 0.1862(3)
C32 C 0.1036(6) 0.0154(7) 0.2011(3)
C33 C 0.1072(8) 0.0122(9) 0.2333(3)
C34 C 0.0682(9) -0.0378(9) 0.2405(3)
C35 C 0.1659(8) -0.0079(8) 0.2478(4)
C36 C 0.0959(8) 0.0731(8) 0.2473(3)
C37 C 0.1414(15) -0.1514(11) 0.1635(5)
C38 C 0.1525(15) -0.0940(12) 0.1254(8)
C39 C 0.0674(13) -0.1275(11) 0.1280(7)
C40 C 0.3779(4) 0.2362(6) 0.1001(2)
C41 C 0.3182(4) 0.2086(8) 0.0938(3)
C42 C 0.3038(9) 0.1475(10) 0.0808(4)
C43 C 0.2502(7) 0.1201(6) 0.0752(3)
C44 C 0.2423(5) 0.0531(5) 0.0624(2)
C45 C 0.1964(10) 0.0546(10) 0.0357(4)
C46 C 0.2248(14) 0.0074(8) 0.0841(4)
C47 C 0.2978(7) 0.0304(10) 0.0549(6)
C51 C 0.4000(6) 0.2359(11) 0.1322(2)
C52 C 0.3768(7) 0.3047(6) 0.0891(4)
C53 C 0.4167(6) 0.1958(8) 0.0855(3)
C54 C -0.1140(5) 0.1988(6) -0.0166(2)
C55 C -0.0775(6) 0.1834(10) 0.0123(3)
C56 C -0.0663(8) 0.1180(10) 0.0203(4)
C57 C -0.0322(7) 0.0965(9) 0.0456(3)
C58 C -0.0283(8) 0.0271(9) 0.0526(4)
C59 C -0.0421(9) 0.0193(9) 0.0815(3)
C60 C -0.0662(9) -0.0139(8) 0.0308(3)
C61 C 0.0303(9) 0.0068(9) 0.0537(5)
C62 C -0.1271(12) 0.2702(7) -0.0184(5)
C63 C -0.1692(8) 0.1611(13) -0.0203(5)
C64 C -0.0823(10) 0.1803(15) -0.0401(3)
C68 C -0.0460(5) 0.4482(6) 0.0457(2)
C69 C -0.0311(7) 0.4269(7) 0.0767(2)
C70 C -0.0539(6) 0.4545(7) 0.0991(3)
C71 C -0.0506(7) 0.4333(8) 0.1264(3)
C72 C -0.0812(7) 0.4703(8) 0.1468(3)
C73 C -0.1434(7) 0.4711(12) 0.1342(5)
C74 C -0.0708(8) 0.4439(10) 0.1747(4)
C75 C -0.0608(9) 0.5404(10) 0.1479(5)
C76 C -0.0910(10) 0.4036(10) 0.0294(3)
C77 C -0.0688(12) 0.5164(7) 0.0443(4)
C78 C 0.0068(8) 0.4457(14) 0.0325(4)
C82 C -0.1746(5) 0.2406(7) 0.0904(3)
C83 C -0.1213(6) 0.2125(8) 0.1087(3)
C84 C -0.1220(7) 0.1615(8) 0.1278(3)
C85 C -0.0772(8) 0.1307(7) 0.1447(3)
C86 C -0.0884(7) 0.0777(8) 0.1635(4)
C87 C -0.0577(9) 0.0193(8) 0.1574(4)
C88 C -0.1488(8) 0.0604(10) 0.1630(4)
C89 C -0.0634(9) 0.0975(9) 0.1942(4)
C90 C -0.1636(15) 0.2903(18) 0.0722(8)
C91 C -0.2221(17) 0.2484(19) 0.1028(8)
C92 C -0.1894(15) 0.1810(17) 0.0684(7)
C96 C 0.2554(8) 0.3649(8) 0.1824(3)
C97 C 0.2240(7) 0.3079(8) 0.1672(3)
C98 C 0.2446(6) 0.2466(8) 0.1734(3)
C99 C 0.2200(7) 0.1892(7) 0.1653(3)
C100 C 0.2527(7) 0.1290(8) 0.1768(3)
C101 C 0.2555(12) 0.1267(11) 0.2083(5)
C102 C 0.3104(7) 0.1329(9) 0.1702(4)
C103 C 0.2224(8) 0.0714(8) 0.1637(4)
C104 C 0.3153(7) 0.3647(8) 0.1769(4)
C105 C 0.2538(9) 0.3580(9) 0.2143(3)
C106 C 0.2287(7) 0.4261(8) 0.1728(4)
C107 C 0.2039(10) 0.4436(11) 0.0628(4)
C108 C 0.1708(7) 0.3854(9) 0.0658(3)
C109 C 0.1614(8) 0.3439(10) 0.0443(4)
C110 C 0.1221(8) 0.2915(9) 0.0386(3)
C111 C 0.1108(8) 0.2573(10) 0.0091(3)
C112 C 0.1689(9) 0.2495(10) -0.0005(4)
C113 C 0.0747(9) 0.3004(11) -0.0111(3)
C114 C 0.0852(9) 0.1926(11) 0.0120(4)
C115 C 0.1810(15) 0.4858(13) 0.0412(6)
C116 C 0.2177(11) 0.4770(13) 0.0903(5)
C117 C 0.2580(12) 0.4287(17) 0.0542(9)
H1 H 0.1139 0.6125 0.1742
H2 H 0.0216 0.6620 0.1306
H3 H 0.0717 0.6882 0.1528
H4 H 0.0565 0.7195 0.1230
H5 H 0.1817 0.6354 0.1188
H6 H 0.1551 0.7030 0.1155
H7 H 0.1703 0.6717 0.1453
H8 H 0.1004 0.5939 0.0833
H9 H 0.0388 0.6040 0.0876
H10 H 0.0737 0.6615 0.0800
H11 H -0.0887 0.2785 0.2526
H12 H -0.2270 0.2982 0.2403
H13 H -0.1729 0.2590 0.2518
H14 H -0.1691 0.3324 0.2484
H15 H -0.2398 0.3458 0.1918
H16 H -0.1819 0.3800 0.1999
H17 H -0.1943 0.3366 0.1732
H18 H -0.2456 0.2277 0.1975
H19 H -0.2001 0.2185 0.1790
H20 H -0.1915 0.1885 0.2091
H21 H 0.1170 -0.0763 0.1964
H22 H 0.0701 -0.0405 0.2604
H23 H 0.0311 -0.0258 0.2315
H24 H 0.0773 -0.0781 0.2335
H25 H 0.1923 0.0231 0.2439
H26 H 0.1686 -0.0117 0.2677
H27 H 0.1740 -0.0479 0.2401
H28 H 0.1217 0.1049 0.2436
H29 H 0.0585 0.0859 0.2393
H30 H 0.0994 0.0679 0.2672
H31 H 0.1488 -0.1890 0.1537
H32 H 0.1752 -0.1374 0.1755
H33 H 0.1137 -0.1603 0.1746
H34 H 0.1611 -0.1330 0.1171
H35 H 0.1336 -0.0663 0.1110
H36 H 0.1865 -0.0744 0.1348
H37 H 0.0711 -0.1670 0.1188
H38 H 0.0425 -0.1325 0.1409
H39 H 0.0527 -0.0963 0.1142
H40 H 0.3337 0.1234 0.0757
H41 H 0.4373 0.2527 0.1360
H42 H 0.3763 0.2611 0.1415
H43 H 0.4005 0.1932 0.1389
H44 H 0.4141 0.3216 0.0929
H45 H 0.3627 0.3053 0.0692
H46 H 0.3532 0.3300 0.0984
H47 H 0.4540 0.2126 0.0893
H48 H 0.4172 0.1532 0.0922
H49 H 0.4026 0.1964 0.0656
H50 H -0.0845 0.0871 0.0072
H51 H -0.0176 0.0439 0.0953
H52 H -0.0799 0.0333 0.0805
H53 H -0.0392 -0.0244 0.0868
H54 H -0.0558 -0.0088 0.0128
H55 H -0.0632 -0.0577 0.0361
H56 H -0.1040 0.0001 0.0298
H57 H 0.0559 0.0307 0.0673
H58 H 0.0334 -0.0372 0.0585
H59 H 0.0390 0.0129 0.0354
H60 H -0.0739 0.4934 0.0946
H61 H -0.1580 0.4289 0.1333
H62 H -0.1628 0.4968 0.1455
H63 H -0.1486 0.4884 0.1156
H64 H -0.0840 0.4011 0.1736
H65 H -0.0313 0.4444 0.1821
H66 H -0.0899 0.4679 0.1867
H67 H -0.0217 0.5417 0.1559
H68 H -0.0668 0.5570 0.1291
H69 H -0.0811 0.5653 0.1591
H70 H -0.1587 0.1470 0.1292
H71 H -0.0736 0.0065 0.1385
H72 H -0.0190 0.0295 0.1585
H73 H -0.0611 -0.0144 0.1701
H74 H -0.1674 0.0458 0.1448
H75 H -0.1505 0.0282 0.1767
H76 H -0.1669 0.0979 0.1679
H77 H -0.0837 0.1340 0.1984
H78 H -0.0668 0.0644 0.2073
H79 H -0.0247 0.1083 0.1956
H80 H 0.2810 0.2441 0.1852
H81 H 0.2761 0.0900 0.2159
H82 H 0.2740 0.1639 0.2167
H83 H 0.2184 0.1248 0.2122
H84 H 0.3310 0.0958 0.1772
H85 H 0.3070 0.1348 0.1501
H86 H 0.3297 0.1698 0.1785
H87 H 0.2428 0.0341 0.1706
H88 H 0.1858 0.0700 0.1683
H89 H 0.2190 0.0736 0.1436
H90 H 0.3150 0.3696 0.1572
H91 H 0.3370 0.3981 0.1871
H92 H 0.3316 0.3247 0.1832
H93 H 0.2155 0.3601 0.2165
H94 H 0.2694 0.3179 0.2210
H95 H 0.2747 0.3913 0.2249
H96 H 0.2297 0.4323 0.1533
H97 H 0.1905 0.4248 0.1752
H98 H 0.2478 0.4602 0.1836
H99 H 0.1828 0.3521 0.0300
H100 H 0.1644 0.2289 -0.0184
H101 H 0.1853 0.2904 -0.0016
H102 H 0.1928 0.2245 0.0133
H103 H 0.0388 0.3050 -0.0059
H104 H 0.0932 0.3406 -0.0098
H105 H 0.0697 0.2852 -0.0301
H106 H 0.0494 0.1981 0.0172
H107 H 0.0806 0.1700 -0.0054
H108 H 0.1094 0.1693 0.0264
H109 H 0.1467 0.5013 0.0457
H110 H 0.2058 0.5205 0.0401
H111 H 0.1732 0.4642 0.0235
H112 H 0.2351 0.4504 0.1055
H113 H 0.2416 0.5125 0.0888
H114 H 0.1825 0.4919 0.0938
H115 H 0.2811 0.3993 0.0663
H116 H 0.2464 0.4102 0.0360
H117 H 0.2789 0.4665 0.0526
C12? C 0.1564(13) 0.4885(15) 0.2319(3)
C13? C 0.0556(7) 0.5222(19) 0.2262(4)
C14? C 0.1302(17) 0.6029(8) 0.2230(4)
C26? C 0.0792(7) 0.2537(21) 0.2642(4)
C27? C 0.0213(16) 0.3401(8) 0.2803(5)
C28? C -0.0039(13) 0.2259(17) 0.2859(4)
C48? C 0.2641(14) 0.0515(10) 0.0346(4)
C49? C 0.1796(6) 0.0357(11) 0.0568(7)
C50? C 0.2754(13) 0.0052(8) 0.0832(5)
C65? C -0.1621(10) 0.2434(15) -0.0126(4)
C66? C -0.1387(14) 0.1370(8) -0.0308(5)
C67? C -0.0778(9) 0.2313(18) -0.0354(5)
C79? C -0.0356(14) 0.3931(9) 0.0265(3)
C80? C -0.1082(7) 0.4675(17) 0.0387(4)
C81? C -0.0092(13) 0.5051(11) 0.0411(4)
C93? C -0.1712(11) 0.2339(17) 0.0590(2)
C94? C -0.1793(11) 0.3112(7) 0.0976(7)
C95? C -0.2265(6) 0.2049(13) 0.0962(6)
loop_
_geom_bond_atom_site_label_1
_geom_bond_atom_site_label_2
_geom_bond_site_symmetry_1
_geom_bond_site_symmetry_2
Ba1 O1 1_555 1_555
Ba2 O1 1_555 1_555
Ba3 O1 1_555 1_555
Ba4 O1 1_555 1_555
Ba5 O1 1_555 1_555
O2 Ba1 1_555 1_555
O3 Ba2 1_555 1_555
O4 Ba3 1_555 1_555
O5 Ba1 1_555 1_555
O6 Ba1 1_555 1_555
O7 Ba2 1_555 1_555
O8 Ba2 1_555 1_555
O9 Ba3 1_555 1_555
O10 Ba3 1_555 1_555
O11 Ba4 1_555 1_555
O12 Ba4 1_555 1_555
O13 Ba5 1_555 1_555
O14 Ba5 1_555 1_555
O15 Ba1 1_555 1_555
O16 Ba1 1_555 1_555
O17 Ba2 1_555 1_555
O18 Ba2 1_555 1_555
O19 Ba1 1_555 1_555
O20 Ba3 1_555 1_555
O21 Ba1 1_555 1_555
O22 Ba4 1_555 1_555
C1 C2 1_555 1_555
C2 O5 1_555 1_555
C3 C2 1_555 1_555
C4 O6 1_555 1_555
C5 C4 1_555 1_555
C6 C5 1_555 1_555
C7 C5 1_555 1_555
C8 C5 1_555 1_555
C9 C1 1_555 1_555
C10 C1 1_555 1_555
C11 C1 1_555 1_555
C15 C16 1_555 1_555
C16 O7 1_555 1_555
C17 C16 1_555 1_555
C18 O8 1_555 1_555
C19 C18 1_555 1_555
C20 C19 1_555 1_555
C21 C19 1_555 1_555
C22 C19 1_555 1_555
C23 C15 1_555 1_555
C24 C15 1_555 1_555
C25 C15 1_555 1_555
C29 C30 1_555 1_555
C30 O9 1_555 1_555
C31 C30 1_555 1_555
C32 O10 1_555 1_555
C33 C32 1_555 1_555
C34 C33 1_555 1_555
C35 C33 1_555 1_555
C36 C33 1_555 1_555
C37 C29 1_555 1_555
C38 C29 1_555 1_555
C39 C29 1_555 1_555
C40 C41 1_555 1_555
C41 O11 1_555 1_555
C42 C41 1_555 1_555
C43 O12 1_555 1_555
C44 C43 1_555 1_555
C45 C44 1_555 1_555
C46 C44 1_555 1_555
C47 C44 1_555 1_555
C51 C40 1_555 1_555
C52 C40 1_555 1_555
C53 C40 1_555 1_555
C54 C55 1_555 1_555
C55 O13 1_555 1_555
C56 C55 1_555 1_555
C57 O14 1_555 1_555
C58 C57 1_555 1_555
C59 C58 1_555 1_555
C60 C58 1_555 1_555
C61 C58 1_555 1_555
C62 C54 1_555 1_555
C63 C54 1_555 1_555
C64 C54 1_555 1_555
C68 C69 1_555 1_555
C69 O16 1_555 1_555
C70 C69 1_555 1_555
C71 O15 1_555 1_555
C72 C71 1_555 1_555
C73 C72 1_555 1_555
C74 C72 1_555 1_555
C75 C72 1_555 1_555
C76 C68 1_555 1_555
C77 C68 1_555 1_555
C78 C68 1_555 1_555
C82 C83 1_555 1_555
C83 O17 1_555 1_555
C84 C83 1_555 1_555
C85 O18 1_555 1_555
C86 C85 1_555 1_555
C87 C86 1_555 1_555
C88 C86 1_555 1_555
C89 C86 1_555 1_555
C90 C82 1_555 1_555
C91 C82 1_555 1_555
C92 C82 1_555 1_555
C96 C97 1_555 1_555
C97 O19 1_555 1_555
C98 C97 1_555 1_555
C99 O20 1_555 1_555
C100 C99 1_555 1_555
C101 C100 1_555 1_555
C102 C100 1_555 1_555
C103 C100 1_555 1_555
C104 C96 1_555 1_555
C105 C96 1_555 1_555
C106 C96 1_555 1_555
C107 C108 1_555 1_555
C108 O21 1_555 1_555
C109 C108 1_555 1_555
C110 O22 1_555 1_555
C111 C110 1_555 1_555
C112 C111 1_555 1_555
C113 C111 1_555 1_555
C114 C111 1_555 1_555
C115 C107 1_555 1_555
C116 C107 1_555 1_555
C117 C107 1_555 1_555
H1 C3 1_555 1_555
H2 C6 1_555 1_555
H3 C6 1_555 1_555
H4 C6 1_555 1_555
H5 C7 1_555 1_555
H6 C7 1_555 1_555
H7 C7 1_555 1_555
H8 C8 1_555 1_555
H9 C8 1_555 1_555
H10 C8 1_555 1_555
H11 C17 1_555 1_555
H12 C20 1_555 1_555
H13 C20 1_555 1_555
H14 C20 1_555 1_555
H15 C21 1_555 1_555
H16 C21 1_555 1_555
H17 C21 1_555 1_555
H18 C22 1_555 1_555
H19 C22 1_555 1_555
H20 C22 1_555 1_555
H21 C31 1_555 1_555
H22 C34 1_555 1_555
H23 C34 1_555 1_555
H24 C34 1_555 1_555
H25 C35 1_555 1_555
H26 C35 1_555 1_555
H27 C35 1_555 1_555
H28 C36 1_555 1_555
H29 C36 1_555 1_555
H30 C36 1_555 1_555
H31 C37 1_555 1_555
H32 C37 1_555 1_555
H33 C37 1_555 1_555
H34 C38 1_555 1_555
H35 C38 1_555 1_555
H36 C38 1_555 1_555
H37 C39 1_555 1_555
H38 C39 1_555 1_555
H39 C39 1_555 1_555
H40 C42 1_555 1_555
H41 C51 1_555 1_555
H42 C51 1_555 1_555
H43 C51 1_555 1_555
H44 C52 1_555 1_555
H45 C52 1_555 1_555
H46 C52 1_555 1_555
H47 C53 1_555 1_555
H48 C53 1_555 1_555
H49 C53 1_555 1_555
H50 C56 1_555 1_555
H51 C59 1_555 1_555
H52 C59 1_555 1_555
H53 C59 1_555 1_555
H54 C60 1_555 1_555
H55 C60 1_555 1_555
H56 C60 1_555 1_555
H57 C61 1_555 1_555
H58 C61 1_555 1_555
H59 C61 1_555 1_555
H60 C70 1_555 1_555
H61 C73 1_555 1_555
H62 C73 1_555 1_555
H63 C73 1_555 1_555
H64 C74 1_555 1_555
H65 C74 1_555 1_555
H66 C74 1_555 1_555
H67 C75 1_555 1_555
H68 C75 1_555 1_555
H69 C75 1_555 1_555
H70 C84 1_555 1_555
H71 C87 1_555 1_555
H72 C87 1_555 1_555
H73 C87 1_555 1_555
H74 C88 1_555 1_555
H75 C88 1_555 1_555
H76 C88 1_555 1_555
H77 C89 1_555 1_555
H78 C89 1_555 1_555
H79 C89 1_555 1_555
H80 C98 1_555 1_555
H81 C101 1_555 1_555
H82 C101 1_555 1_555
H83 C101 1_555 1_555
H84 C102 1_555 1_555
H85 C102 1_555 1_555
H86 C102 1_555 1_555
H87 C103 1_555 1_555
H88 C103 1_555 1_555
H89 C103 1_555 1_555
H90 C104 1_555 1_555
H91 C104 1_555 1_555
H92 C104 1_555 1_555
H93 C105 1_555 1_555
H94 C105 1_555 1_555
H95 C105 1_555 1_555
H96 C106 1_555 1_555
H97 C106 1_555 1_555
H98 C106 1_555 1_555
H99 C109 1_555 1_555
H100 C112 1_555 1_555
H101 C112 1_555 1_555
H102 C112 1_555 1_555
H103 C113 1_555 1_555
H104 C113 1_555 1_555
H105 C113 1_555 1_555
H106 C114 1_555 1_555
H107 C114 1_555 1_555
H108 C114 1_555 1_555
H109 C115 1_555 1_555
H110 C115 1_555 1_555
H111 C115 1_555 1_555
H112 C116 1_555 1_555
H113 C116 1_555 1_555
H114 C116 1_555 1_555
H115 C117 1_555 1_555
H116 C117 1_555 1_555
H117 C117 1_555 1_555
Ba2 O2 1_555 1_555
Ba2 O15 1_555 1_555
Ba3 O3 1_555 1_555
Ba3 O18 1_555 1_555
Ba4 O4 1_555 1_555
Ba4 O19 1_555 1_555
Ba4 O20 1_555 1_555
Ba4 O21 1_555 1_555
Ba5 O16 1_555 1_555
Ba5 O17 1_555 1_555
Ba5 O22 1_555 1_555
C3 C4 1_555 1_555
C17 C18 1_555 1_555
C31 C32 1_555 1_555
C42 C43 1_555 1_555
C56 C57 1_555 1_555
C70 C71 1_555 1_555
C84 C85 1_555 1_555
C98 C99 1_555 1_555
C109 C110 1_555 1_555

#END
