
#######################################################################
#
#                 Cambridge Crystallographic Data Centre
#                                CCDC 
#
#######################################################################
#
# If this CIF has been generated from an entry in the Cambridge 
# Structural Database, then it will include bibliographic, chemical, 
# crystal, experimental, refinement or atomic coordinate data resulting 
# from the CCDC's data processing and validation procedures.
#
#######################################################################

data_PINCOG
_chemical_formula_moiety         'C16 H10 Cl1 F3 O1'
_chemical_name_systematic        
1-(4-Chlorobenzylidene)-3-(trifluoromethyl)-1,3-dihydro-2-benzofuran
_symmetry_cell_setting           monoclinic
_symmetry_space_group_name_H-M   'P 21/c'
_symmetry_Int_Tables_number      14
_space_group_name_Hall           '-P 2ybc'
loop_
_symmetry_equiv_pos_site_id
_symmetry_equiv_pos_as_xyz
1 x,y,z
2 -x,1/2+y,1/2-z
3 -x,-y,-z
4 x,1/2-y,1/2+z
_cell_length_a                   5.4917(9)
_cell_length_b                   15.793(3)
_cell_length_c                   16.148(3)
_cell_angle_alpha                90
_cell_angle_beta                 108.605(5)
_cell_angle_gamma                90
_cell_volume                     1327.33
_exptl_crystal_colour            colorless
_exptl_crystal_description       Prism
_cell_formula_units_Z            4
loop_
_atom_site_label
_atom_site_type_symbol
_atom_site_fract_x
_atom_site_fract_y
_atom_site_fract_z
Cl1 Cl -0.31658(9) 0.64091(3) -0.08549(3)
F1 F 0.9319(3) 0.40837(8) 0.33177(8)
F2 F 0.9253(3) 0.36120(7) 0.20596(8)
F3 F 1.2828(3) 0.36344(8) 0.31319(9)
O1 O 0.8841(3) 0.53438(9) 0.20399(9)
C1 C 1.0726(4) 0.61273(13) 0.32857(13)
C2 C 1.1293(4) 0.67194(13) 0.39582(13)
H1 H 1.0117 0.7138 0.3974
C3 C 1.3664(4) 0.66676(14) 0.46052(13)
H2 H 1.4074 0.7055 0.5063
C4 C 1.5442(4) 0.60465(14) 0.45814(13)
H3 H 1.7035 0.6031 0.5015
C5 C 1.4850(4) 0.54482(13) 0.39114(13)
H4 H 1.6019 0.5029 0.3893
C6 C 1.2478(4) 0.54975(12) 0.32777(13)
C7 C 1.1254(4) 0.49480(13) 0.24946(12)
H5 H 1.2345 0.4918 0.2119
C8 C 0.8474(4) 0.60410(12) 0.25145(12)
C9 C 0.6365(4) 0.65278(12) 0.22599(13)
H6 H 0.6342 0.6971 0.2637
C10 C 0.4106(4) 0.64714(12) 0.14865(13)
C11 C 0.2019(4) 0.70012(13) 0.14354(13)
H7 H 0.2129 0.7373 0.1892
C12 C -0.0207(4) 0.69867(13) 0.07229(13)
H8 H -0.1577 0.7341 0.0703
C13 C -0.0356(4) 0.64381(12) 0.00429(13)
C14 C 0.1677(4) 0.59099(13) 0.00620(13)
H9 H 0.1560 0.5549 -0.0404
C15 C 0.3882(4) 0.59235(13) 0.07787(13)
H10 H 0.5238 0.5565 0.0793
C16 C 1.0652(4) 0.40627(13) 0.27488(13)
loop_
_geom_bond_atom_site_label_1
_geom_bond_atom_site_label_2
_geom_bond_site_symmetry_1
_geom_bond_site_symmetry_2
Cl1 C13 1_555 1_555
F1 C16 1_555 1_555
F2 C16 1_555 1_555
F3 C16 1_555 1_555
O1 C7 1_555 1_555
C1 C2 1_555 1_555
C2 H1 1_555 1_555
C3 C2 1_555 1_555
H2 C3 1_555 1_555
C4 C3 1_555 1_555
H3 C4 1_555 1_555
C5 C4 1_555 1_555
H4 C5 1_555 1_555
C6 C1 1_555 1_555
C7 C6 1_555 1_555
H5 C7 1_555 1_555
C8 O1 1_555 1_555
C9 C8 1_555 1_555
H6 C9 1_555 1_555
C10 C9 1_555 1_555
C11 C10 1_555 1_555
H7 C11 1_555 1_555
C12 C11 1_555 1_555
H8 C12 1_555 1_555
C13 C12 1_555 1_555
C14 C13 1_555 1_555
H9 C14 1_555 1_555
C15 C10 1_555 1_555
H10 C15 1_555 1_555
C16 C7 1_555 1_555
C1 C8 1_555 1_555
C5 C6 1_555 1_555
C14 C15 1_555 1_555

#END
