
#######################################################################
#
#                 Cambridge Crystallographic Data Centre
#                                CCDC 
#
#######################################################################
#
# If this CIF has been generated from an entry in the Cambridge 
# Structural Database, then it will include bibliographic, chemical, 
# crystal, experimental, refinement or atomic coordinate data resulting 
# from the CCDC's data processing and validation procedures.
#
#######################################################################

data_PINDOI
_chemical_formula_moiety         'C23 H21 Br1 N2 O5'
_chemical_name_systematic        
10-(4-bromophenyl)-3,3-dimethyl-7-(4-nitrophenyl)-7-azaspiro[4.5]decane-1,6,8-trione
_symmetry_cell_setting           orthorhombic
_symmetry_space_group_name_H-M   'P 21 21 21'
_symmetry_Int_Tables_number      19
_space_group_name_Hall           'P 2ac 2ab'
loop_
_symmetry_equiv_pos_site_id
_symmetry_equiv_pos_as_xyz
1 x,y,z
2 1/2+x,1/2-y,-z
3 -x,1/2+y,1/2-z
4 1/2-x,-y,1/2+z
_cell_length_a                   6.473(3)
_cell_length_b                   13.862(6)
_cell_length_c                   24.362(11)
_cell_angle_alpha                90
_cell_angle_beta                 90
_cell_angle_gamma                90
_cell_volume                     2185.97
_exptl_crystal_colour            colorless
_exptl_crystal_description       block
_cell_formula_units_Z            4
loop_
_atom_site_label
_atom_site_type_symbol
_atom_site_fract_x
_atom_site_fract_y
_atom_site_fract_z
Br1 Br 0.13397(8) 0.61221(4) 0.15224(2)
O1 O 0.2894(6) 0.4723(3) 0.52729(12)
O2 O -0.0680(4) 0.5176(2) 0.44404(14)
O3 O 0.6828(5) 0.7358(2) 0.49379(12)
C1 C 0.2683(5) 0.6147(3) 0.34213(13)
N1 N 0.5040(4) 0.5971(2) 0.50903(11)
C2 C 0.1853(6) 0.6142(3) 0.22874(14)
C3 C 0.0258(6) 0.6102(4) 0.26599(17)
H1 H -0.1102 0.6069 0.2538
C4 C 0.0686(6) 0.6110(4) 0.32188(16)
H2 H -0.0408 0.6090 0.3466
C5 C 0.3109(5) 0.6179(3) 0.40378(13)
H3 H 0.2030 0.6576 0.4207
C6 C 0.5187(6) 0.6658(3) 0.41600(15)
H4 H 0.6262 0.6301 0.3971
H5 H 0.5168 0.7305 0.4009
C7 C 0.5745(5) 0.6722(3) 0.47526(14)
C8 C 0.5726(5) 0.5987(3) 0.56562(14)
C9 C 0.4474(8) 0.6365(3) 0.60566(17)
H6 H 0.3165 0.6593 0.5967
C10 C 0.5163(11) 0.6408(3) 0.65965(19)
H7 H 0.4330 0.6656 0.6874
C11 C 0.7127(10) 0.6071(4) 0.67065(19)
N2 N 0.7852(16) 0.6124(4) 0.7282(3)
O4 O 0.9769(17) 0.5982(6) 0.7341(3)
C12 C 0.4251(6) 0.6184(4) 0.30281(15)
H8 H 0.5618 0.6207 0.3145
C13 C 0.3842(7) 0.6187(4) 0.24711(15)
H9 H 0.4926 0.6220 0.2221
C14 C 0.3604(6) 0.5264(3) 0.49347(14)
C15 C 0.3053(5) 0.5168(3) 0.43228(14)
C16 C 0.0852(5) 0.4735(3) 0.43106(14)
C17 C 0.0921(7) 0.3731(3) 0.4081(3)
H10 H 0.0263 0.3717 0.3723
H11 H 0.0179 0.3293 0.4321
C18 C 0.3141(7) 0.3414(3) 0.40299(18)
C19 C 0.3647(11) 0.2873(4) 0.3505(3)
H12 H 0.3024 0.2245 0.3516
H13 H 0.5118 0.2808 0.3471
H14 H 0.3119 0.3225 0.3196
C20 C 0.4404(5) 0.4374(3) 0.40581(17)
H15 H 0.5645 0.4278 0.4275
H16 H 0.4812 0.4570 0.3691
C21 C 0.3729(12) 0.2746(5) 0.4510(3)
H17 H 0.3405 0.3058 0.4851
H18 H 0.5182 0.2610 0.4496
H19 H 0.2966 0.2154 0.4482
O5 O 0.6727(17) 0.6316(5) 0.7641(2)
C22 C 0.8363(9) 0.5689(4) 0.6316(2)
H20 H 0.9666 0.5456 0.6408
C23 C 0.7679(7) 0.5645(4) 0.5776(2)
H21 H 0.8516 0.5391 0.5502
loop_
_geom_bond_atom_site_label_1
_geom_bond_atom_site_label_2
_geom_bond_site_symmetry_1
_geom_bond_site_symmetry_2
Br1 C2 1_555 1_555
O1 C14 1_555 1_555
O2 C16 1_555 1_555
O3 C7 1_555 1_555
C1 C4 1_555 1_555
N1 C7 1_555 1_555
C2 C3 1_555 1_555
C3 H1 1_555 1_555
C4 C3 1_555 1_555
H2 C4 1_555 1_555
C5 C1 1_555 1_555
H3 C5 1_555 1_555
C6 C5 1_555 1_555
H4 C6 1_555 1_555
H5 C6 1_555 1_555
C7 C6 1_555 1_555
C8 N1 1_555 1_555
C9 C8 1_555 1_555
H6 C9 1_555 1_555
C10 C9 1_555 1_555
H7 C10 1_555 1_555
C11 C10 1_555 1_555
N2 C11 1_555 1_555
O4 N2 1_555 1_555
C12 C1 1_555 1_555
H8 C12 1_555 1_555
C13 C2 1_555 1_555
H9 C13 1_555 1_555
C14 N1 1_555 1_555
C15 C5 1_555 1_555
C16 C15 1_555 1_555
C17 C16 1_555 1_555
H10 C17 1_555 1_555
H11 C17 1_555 1_555
C18 C17 1_555 1_555
C19 C18 1_555 1_555
H12 C19 1_555 1_555
H13 C19 1_555 1_555
H14 C19 1_555 1_555
C20 C15 1_555 1_555
H15 C20 1_555 1_555
H16 C20 1_555 1_555
C21 C18 1_555 1_555
H17 C21 1_555 1_555
H18 C21 1_555 1_555
H19 C21 1_555 1_555
O5 N2 1_555 1_555
C22 C11 1_555 1_555
H20 C22 1_555 1_555
C23 C8 1_555 1_555
H21 C23 1_555 1_555
C12 C13 1_555 1_555
C14 C15 1_555 1_555
C18 C20 1_555 1_555
C22 C23 1_555 1_555

#END
