
#######################################################################
#
#                 Cambridge Crystallographic Data Centre
#                                CCDC 
#
#######################################################################
#
# If this CIF has been generated from an entry in the Cambridge 
# Structural Database, then it will include bibliographic, chemical, 
# crystal, experimental, refinement or atomic coordinate data resulting 
# from the CCDC's data processing and validation procedures.
#
#######################################################################

data_PINDAU
_chemical_formula_moiety         'C50 H56 Si2'
_chemical_name_systematic        
'[dibenzo[a,j]perylene-8,16-diylbis(ethyne-2,1-diyl)]bis[tris(propan-2-yl)silane]'
_symmetry_cell_setting           orthorhombic
_symmetry_space_group_name_H-M   'P 21 21 21'
_symmetry_Int_Tables_number      19
_space_group_name_Hall           'P 2ac 2ab'
loop_
_symmetry_equiv_pos_site_id
_symmetry_equiv_pos_as_xyz
1 x,y,z
2 1/2-x,-y,1/2+z
3 -x,1/2+y,1/2-z
4 1/2+x,1/2-y,-z
_cell_length_a                   15.3445(8)
_cell_length_b                   21.0152(8)
_cell_length_c                   26.1370(10)
_cell_angle_alpha                90
_cell_angle_beta                 90
_cell_angle_gamma                90
_cell_volume                     8428.34
_exptl_crystal_colour            black
_exptl_crystal_description       needle
_cell_formula_units_Z            8
loop_
_atom_site_label
_atom_site_type_symbol
_atom_site_fract_x
_atom_site_fract_y
_atom_site_fract_z
Si1 Si 0.46558(15) 0.60762(8) 0.38248(8)
C1 C 0.4796(5) 0.4010(3) 0.4237(3)
Si2 Si 0.45376(15) -0.11184(8) 0.59062(8)
C2 C 0.5081(4) 0.3580(3) 0.3861(2)
C3 C 0.5304(5) 0.3783(3) 0.3355(3)
H1 H 0.520131 0.421301 0.325974
C4 C 0.5660(5) 0.3380(3) 0.3006(3)
H2 H 0.578462 0.352460 0.266952
C5 C 0.5845(5) 0.2741(3) 0.3145(3)
H3 H 0.613882 0.246810 0.291274
C6 C 0.5601(5) 0.2523(3) 0.3612(2)
H4 H 0.570953 0.208973 0.369390
C7 C 0.5188(4) 0.2916(3) 0.3983(2)
C8 C 0.4940(4) 0.2706(3) 0.4479(2)
C9 C 0.4785(5) 0.2029(3) 0.4609(2)
C10 C 0.4563(4) 0.1581(3) 0.4242(3)
H5 H 0.449739 0.170890 0.389590
C11 C 0.4434(5) 0.0934(3) 0.4377(3)
H6 H 0.428317 0.063499 0.411969
C12 C 0.4521(5) 0.0738(3) 0.4868(2)
H7 H 0.444201 0.030082 0.494861
C13 C 0.4728(5) 0.1173(3) 0.5261(2)
C14 C 0.4832(5) 0.0985(3) 0.5774(3)
C15 C 0.5117(5) 0.1423(3) 0.6145(2)
C16 C 0.5358(5) 0.1221(3) 0.6651(3)
H8 H 0.528138 0.078865 0.674539
C17 C 0.5691(5) 0.1634(3) 0.6994(3)
H9 H 0.583548 0.149120 0.732836
C18 C 0.5825(5) 0.2274(3) 0.6860(3)
H10 H 0.608422 0.255618 0.709982
C19 C 0.5590(5) 0.2492(3) 0.6394(2)
H11 H 0.568656 0.292617 0.631154
C20 C 0.5200(4) 0.2086(3) 0.6025(2)
C21 C 0.4944(4) 0.2294(3) 0.5530(2)
C22 C 0.4768(5) 0.2966(3) 0.5398(2)
C23 C 0.4538(5) 0.3407(3) 0.5758(3)
H12 H 0.448674 0.327795 0.610523
C24 C 0.4375(5) 0.4050(3) 0.5631(3)
H13 H 0.420445 0.434308 0.588917
C25 C 0.4464(5) 0.4246(3) 0.5141(3)
H14 H 0.437399 0.468179 0.506163
C26 C 0.4687(5) 0.3818(3) 0.4743(2)
C27 C 0.4808(4) 0.3153(3) 0.4872(2)
C28 C 0.4829(5) 0.1839(3) 0.5136(2)
C29 C 0.4689(5) 0.4673(3) 0.4104(3)
C30 C 0.4640(5) 0.5231(3) 0.4004(3)
C31 C 0.4964(6) 0.6086(4) 0.3129(3)
H15 H 0.454659 0.579042 0.295631
C32 C 0.4855(7) 0.6723(4) 0.2861(4)
H16 H 0.426294 0.688229 0.291738
H17 H 0.495662 0.666918 0.249349
H18 H 0.527698 0.702784 0.299981
C33 C 0.5889(6) 0.5802(4) 0.3030(3)
H19 H 0.633181 0.608628 0.317426
H20 H 0.598343 0.575777 0.266114
H21 H 0.593253 0.538318 0.319339
C34 C 0.3544(6) 0.6423(4) 0.3914(3)
H22 H 0.358455 0.688819 0.383554
C35 C 0.2875(6) 0.6130(5) 0.3536(3)
H23 H 0.309224 0.617314 0.318546
H24 H 0.231655 0.635214 0.356861
H25 H 0.279416 0.567778 0.361632
C36 C 0.3226(7) 0.6360(5) 0.4469(3)
H26 H 0.316452 0.590898 0.455549
H27 H 0.266097 0.657287 0.450481
H28 H 0.364972 0.655892 0.469927
C37 C 0.5509(6) 0.6484(3) 0.4230(3)
H29 H 0.608623 0.635855 0.408453
C38 C 0.5458(8) 0.7215(4) 0.4189(4)
H30 H 0.550022 0.734109 0.382848
H31 H 0.594019 0.740547 0.438120
H32 H 0.490255 0.736297 0.432995
C39 C 0.5517(6) 0.6277(4) 0.4790(3)
H33 H 0.498301 0.642424 0.495818
H34 H 0.602457 0.646305 0.496190
H35 H 0.554948 0.581235 0.480904
C40 C 0.4718(5) 0.0318(3) 0.5897(3)
C41 C 0.4634(5) -0.0243(3) 0.5969(3)
C42 C 0.4359(5) -0.1494(3) 0.6551(3)
H36 H 0.433215 -0.196385 0.649460
C43 C 0.3489(6) -0.1301(4) 0.6796(3)
H37 H 0.345876 -0.083619 0.682236
H38 H 0.344583 -0.148816 0.713865
H39 H 0.300687 -0.145510 0.658387
C44 C 0.5125(6) -0.1374(4) 0.6908(3)
H40 H 0.565546 -0.155530 0.675816
H41 H 0.501154 -0.157434 0.723956
H42 H 0.520202 -0.091465 0.695487
C45 C 0.3609(6) -0.1276(3) 0.5453(3)
H43 H 0.385734 -0.121756 0.510194
C46 C 0.2862(6) -0.0802(4) 0.5491(4)
H44 H 0.258760 -0.083826 0.582879
H45 H 0.243012 -0.089397 0.522519
H46 H 0.308715 -0.036980 0.544537
C47 C 0.3276(6) -0.1964(4) 0.5467(3)
H47 H 0.375678 -0.225614 0.539223
H48 H 0.281498 -0.201861 0.521137
H49 H 0.304163 -0.205723 0.580821
C48 C 0.5610(5) -0.1380(3) 0.5620(3)
H50 H 0.607804 -0.121020 0.584836
C49 C 0.5773(6) -0.1099(4) 0.5090(3)
H51 H 0.538518 -0.130290 0.484160
H52 H 0.638086 -0.117427 0.499164
H53 H 0.565900 -0.064068 0.509762
C50 C 0.5725(7) -0.2105(4) 0.5606(4)
H54 H 0.568287 -0.227539 0.595438
H55 H 0.629789 -0.220880 0.546279
H56 H 0.526841 -0.229408 0.539272
Si3 Si 0.67553(15) 0.57907(8) 0.66305(7)
C51 C 0.7275(4) 0.3873(3) 0.5945(3)
C52 C 0.7556(4) 0.3372(3) 0.6262(2)
Si4 Si 0.69395(14) -0.05834(8) 0.31370(8)
C53 C 0.7759(5) 0.3469(3) 0.6787(3)
H57 H 0.764267 0.387093 0.693851
C54 C 0.8113(5) 0.3002(3) 0.7077(2)
H58 H 0.822313 0.307549 0.742957
C55 C 0.8322(5) 0.2405(3) 0.6856(3)
H59 H 0.861718 0.209078 0.705197
C56 C 0.8095(4) 0.2284(3) 0.6359(2)
H60 H 0.822433 0.187866 0.621663
C57 C 0.7675(4) 0.2742(3) 0.6053(2)
C58 C 0.7443(4) 0.2630(3) 0.5532(2)
C59 C 0.7304(4) 0.1995(3) 0.5317(2)
C60 C 0.7087(5) 0.1474(3) 0.5614(2)
H61 H 0.702835 0.152777 0.597355
C61 C 0.6949(5) 0.0867(3) 0.5403(2)
H62 H 0.680774 0.051949 0.562011
C62 C 0.7019(5) 0.0776(3) 0.4889(3)
H63 H 0.693468 0.036217 0.475126
C63 C 0.7215(4) 0.1290(3) 0.4555(2)
C64 C 0.7291(4) 0.1214(3) 0.4023(2)
C65 C 0.7573(4) 0.1717(3) 0.3706(2)
C66 C 0.7794(5) 0.1627(3) 0.3183(2)
H64 H 0.768230 0.122663 0.302784
C67 C 0.8159(5) 0.2095(3) 0.2900(2)
H65 H 0.828815 0.202318 0.254938
C68 C 0.8348(5) 0.2693(3) 0.3125(3)
H66 H 0.863977 0.301158 0.293314
C69 C 0.8111(5) 0.2807(3) 0.3617(3)
H67 H 0.823002 0.321311 0.375996
C70 C 0.7689(4) 0.2341(3) 0.3926(2)
C71 C 0.7444(4) 0.2443(3) 0.4445(2)
C72 C 0.7280(5) 0.3077(3) 0.4659(2)
C73 C 0.7055(4) 0.3593(3) 0.4358(3)
H68 H 0.701270 0.353880 0.399758
C74 C 0.6886(5) 0.4197(3) 0.4570(3)
H69 H 0.671466 0.453892 0.435489
C75 C 0.6968(5) 0.4289(3) 0.5080(3)
H70 H 0.687448 0.470183 0.521728
C76 C 0.7191(5) 0.3783(3) 0.5416(2)
C77 C 0.7304(4) 0.3153(3) 0.5206(2)
C78 C 0.7320(4) 0.1916(3) 0.4770(2)
C79 C 0.7120(5) 0.4497(3) 0.6169(3)
C80 C 0.6996(5) 0.5016(3) 0.6340(3)
C81 C 0.6535(5) 0.5644(3) 0.7326(3)
H71 H 0.632514 0.605373 0.747596
C82 C 0.7351(6) 0.5447(4) 0.7626(3)
H72 H 0.757131 0.504260 0.749190
H73 H 0.720259 0.539778 0.798837
H74 H 0.779925 0.577589 0.758865
C83 C 0.5807(6) 0.5153(3) 0.7401(3)
H75 H 0.528027 0.529760 0.722391
H76 H 0.568448 0.510553 0.776680
H77 H 0.599208 0.474281 0.725963
C84 C 0.7748(5) 0.6304(3) 0.6536(3)
H78 H 0.825247 0.607157 0.668938
C85 C 0.7684(6) 0.6951(3) 0.6808(3)
H79 H 0.720896 0.719967 0.665811
H80 H 0.823472 0.718164 0.676781
H81 H 0.756892 0.688243 0.717306
C86 C 0.7952(6) 0.6397(4) 0.5967(3)
H82 H 0.804684 0.598187 0.580546
H83 H 0.847897 0.665721 0.593068
H84 H 0.746198 0.661233 0.579984
C87 C 0.5761(5) 0.6137(3) 0.6293(3)
H85 H 0.598323 0.637694 0.598924
C88 C 0.5281(6) 0.6623(3) 0.6631(3)
H86 H 0.503693 0.640614 0.693069
H87 H 0.480928 0.682079 0.643483
H88 H 0.569134 0.695178 0.674410
C89 C 0.5134(6) 0.5641(4) 0.6090(3)
H89 H 0.545200 0.533615 0.587615
H90 H 0.468098 0.584882 0.588545
H91 H 0.486320 0.541556 0.637748
C90 C 0.7138(4) 0.0600(3) 0.3790(2)
C91 C 0.7040(5) 0.0108(3) 0.3569(2)
C92 C 0.7284(5) -0.0269(3) 0.2490(3)
H92 H 0.692929 0.012400 0.243330
C93 C 0.8242(5) -0.0050(3) 0.2481(3)
H93 H 0.835766 0.022163 0.277784
H94 H 0.835376 0.018949 0.216610
H95 H 0.862525 -0.042335 0.249273
C94 C 0.7085(6) -0.0707(3) 0.2034(3)
H96 H 0.743074 -0.109697 0.206313
H97 H 0.723303 -0.048750 0.171487
H98 H 0.646340 -0.081474 0.203347
C95 C 0.7697(5) -0.1222(3) 0.3386(3)
H99 H 0.829635 -0.108710 0.328137
C96 C 0.7724(6) -0.1282(4) 0.3969(3)
H100 H 0.779676 -0.085980 0.412179
H101 H 0.821417 -0.155453 0.406867
H102 H 0.717810 -0.147164 0.409062
C97 C 0.7554(6) -0.1880(3) 0.3138(3)
H103 H 0.698485 -0.204729 0.324118
H104 H 0.801364 -0.217180 0.325018
H105 H 0.757319 -0.183761 0.276455
C98 C 0.5758(5) -0.0832(4) 0.3122(3)
H106 H 0.570252 -0.120384 0.288577
C99 C 0.5429(6) -0.1036(4) 0.3650(3)
H107 H 0.580020 -0.137809 0.378247
H108 H 0.482794 -0.118894 0.362135
H109 H 0.544967 -0.067207 0.388394
C100 C 0.5184(6) -0.0289(3) 0.2912(3)
H110 H 0.524428 0.008686 0.313147
H111 H 0.457319 -0.042512 0.290739
H112 H 0.536959 -0.018255 0.256352
loop_
_geom_bond_atom_site_label_1
_geom_bond_atom_site_label_2
_geom_bond_site_symmetry_1
_geom_bond_site_symmetry_2
Si1 C30 1_555 1_555
C1 C2 1_555 1_555
Si2 C41 1_555 1_555
C2 C3 1_555 1_555
C3 H1 1_555 1_555
C4 C3 1_555 1_555
H2 C4 1_555 1_555
C5 C4 1_555 1_555
H3 C5 1_555 1_555
C6 C5 1_555 1_555
H4 C6 1_555 1_555
C7 C2 1_555 1_555
C8 C7 1_555 1_555
C9 C8 1_555 1_555
C10 C9 1_555 1_555
H5 C10 1_555 1_555
C11 C10 1_555 1_555
H6 C11 1_555 1_555
C12 C11 1_555 1_555
H7 C12 1_555 1_555
C13 C12 1_555 1_555
C14 C13 1_555 1_555
C15 C14 1_555 1_555
C16 C15 1_555 1_555
H8 C16 1_555 1_555
C17 C16 1_555 1_555
H9 C17 1_555 1_555
C18 C17 1_555 1_555
H10 C18 1_555 1_555
C19 C18 1_555 1_555
H11 C19 1_555 1_555
C20 C15 1_555 1_555
C21 C20 1_555 1_555
C22 C21 1_555 1_555
C23 C22 1_555 1_555
H12 C23 1_555 1_555
C24 C23 1_555 1_555
H13 C24 1_555 1_555
C25 C24 1_555 1_555
H14 C25 1_555 1_555
C26 C1 1_555 1_555
C27 C8 1_555 1_555
C28 C9 1_555 1_555
C29 C1 1_555 1_555
C30 C29 1_555 1_555
C31 Si1 1_555 1_555
H15 C31 1_555 1_555
C32 C31 1_555 1_555
H16 C32 1_555 1_555
H17 C32 1_555 1_555
H18 C32 1_555 1_555
C33 C31 1_555 1_555
H19 C33 1_555 1_555
H20 C33 1_555 1_555
H21 C33 1_555 1_555
C34 Si1 1_555 1_555
H22 C34 1_555 1_555
C35 C34 1_555 1_555
H23 C35 1_555 1_555
H24 C35 1_555 1_555
H25 C35 1_555 1_555
C36 C34 1_555 1_555
H26 C36 1_555 1_555
H27 C36 1_555 1_555
H28 C36 1_555 1_555
C37 Si1 1_555 1_555
H29 C37 1_555 1_555
C38 C37 1_555 1_555
H30 C38 1_555 1_555
H31 C38 1_555 1_555
H32 C38 1_555 1_555
C39 C37 1_555 1_555
H33 C39 1_555 1_555
H34 C39 1_555 1_555
H35 C39 1_555 1_555
C40 C14 1_555 1_555
C41 C40 1_555 1_555
C42 Si2 1_555 1_555
H36 C42 1_555 1_555
C43 C42 1_555 1_555
H37 C43 1_555 1_555
H38 C43 1_555 1_555
H39 C43 1_555 1_555
C44 C42 1_555 1_555
H40 C44 1_555 1_555
H41 C44 1_555 1_555
H42 C44 1_555 1_555
C45 Si2 1_555 1_555
H43 C45 1_555 1_555
C46 C45 1_555 1_555
H44 C46 1_555 1_555
H45 C46 1_555 1_555
H46 C46 1_555 1_555
C47 C45 1_555 1_555
H47 C47 1_555 1_555
H48 C47 1_555 1_555
H49 C47 1_555 1_555
C48 Si2 1_555 1_555
H50 C48 1_555 1_555
C49 C48 1_555 1_555
H51 C49 1_555 1_555
H52 C49 1_555 1_555
H53 C49 1_555 1_555
C50 C48 1_555 1_555
H54 C50 1_555 1_555
H55 C50 1_555 1_555
H56 C50 1_555 1_555
Si3 C80 1_555 1_555
C51 C52 1_555 1_555
C52 C53 1_555 1_555
Si4 C91 1_555 1_555
C53 H57 1_555 1_555
C54 C53 1_555 1_555
H58 C54 1_555 1_555
C55 C54 1_555 1_555
H59 C55 1_555 1_555
C56 C55 1_555 1_555
H60 C56 1_555 1_555
C57 C52 1_555 1_555
C58 C57 1_555 1_555
C59 C58 1_555 1_555
C60 C59 1_555 1_555
H61 C60 1_555 1_555
C61 C60 1_555 1_555
H62 C61 1_555 1_555
C62 C61 1_555 1_555
H63 C62 1_555 1_555
C63 C62 1_555 1_555
C64 C63 1_555 1_555
C65 C64 1_555 1_555
C66 C65 1_555 1_555
H64 C66 1_555 1_555
C67 C66 1_555 1_555
H65 C67 1_555 1_555
C68 C67 1_555 1_555
H66 C68 1_555 1_555
C69 C68 1_555 1_555
H67 C69 1_555 1_555
C70 C65 1_555 1_555
C71 C70 1_555 1_555
C72 C71 1_555 1_555
C73 C72 1_555 1_555
H68 C73 1_555 1_555
C74 C73 1_555 1_555
H69 C74 1_555 1_555
C75 C74 1_555 1_555
H70 C75 1_555 1_555
C76 C51 1_555 1_555
C77 C58 1_555 1_555
C78 C59 1_555 1_555
C79 C51 1_555 1_555
C80 C79 1_555 1_555
C81 Si3 1_555 1_555
H71 C81 1_555 1_555
C82 C81 1_555 1_555
H72 C82 1_555 1_555
H73 C82 1_555 1_555
H74 C82 1_555 1_555
C83 C81 1_555 1_555
H75 C83 1_555 1_555
H76 C83 1_555 1_555
H77 C83 1_555 1_555
C84 Si3 1_555 1_555
H78 C84 1_555 1_555
C85 C84 1_555 1_555
H79 C85 1_555 1_555
H80 C85 1_555 1_555
H81 C85 1_555 1_555
C86 C84 1_555 1_555
H82 C86 1_555 1_555
H83 C86 1_555 1_555
H84 C86 1_555 1_555
C87 Si3 1_555 1_555
H85 C87 1_555 1_555
C88 C87 1_555 1_555
H86 C88 1_555 1_555
H87 C88 1_555 1_555
H88 C88 1_555 1_555
C89 C87 1_555 1_555
H89 C89 1_555 1_555
H90 C89 1_555 1_555
H91 C89 1_555 1_555
C90 C64 1_555 1_555
C91 C90 1_555 1_555
C92 Si4 1_555 1_555
H92 C92 1_555 1_555
C93 C92 1_555 1_555
H93 C93 1_555 1_555
H94 C93 1_555 1_555
H95 C93 1_555 1_555
C94 C92 1_555 1_555
H96 C94 1_555 1_555
H97 C94 1_555 1_555
H98 C94 1_555 1_555
C95 Si4 1_555 1_555
H99 C95 1_555 1_555
C96 C95 1_555 1_555
H100 C96 1_555 1_555
H101 C96 1_555 1_555
H102 C96 1_555 1_555
C97 C95 1_555 1_555
H103 C97 1_555 1_555
H104 C97 1_555 1_555
H105 C97 1_555 1_555
C98 Si4 1_555 1_555
H106 C98 1_555 1_555
C99 C98 1_555 1_555
H107 C99 1_555 1_555
H108 C99 1_555 1_555
H109 C99 1_555 1_555
C100 C98 1_555 1_555
H110 C100 1_555 1_555
H111 C100 1_555 1_555
H112 C100 1_555 1_555
C6 C7 1_555 1_555
C13 C28 1_555 1_555
C19 C20 1_555 1_555
C21 C28 1_555 1_555
C22 C27 1_555 1_555
C25 C26 1_555 1_555
C26 C27 1_555 1_555
C56 C57 1_555 1_555
C63 C78 1_555 1_555
C69 C70 1_555 1_555
C71 C78 1_555 1_555
C72 C77 1_555 1_555
C75 C76 1_555 1_555
C76 C77 1_555 1_555

#END
