
#######################################################################
#
#                 Cambridge Crystallographic Data Centre
#                                CCDC 
#
#######################################################################
#
# If this CIF has been generated from an entry in the Cambridge 
# Structural Database, then it will include bibliographic, chemical, 
# crystal, experimental, refinement or atomic coordinate data resulting 
# from the CCDC's data processing and validation procedures.
#
#######################################################################

data_PINDIC
_chemical_formula_moiety         'C58 H60 Si2'
_chemical_name_systematic        
'[dibenzo[fg,uv]naphtho[2,3-c]pentaphene-9,19-diylbis(ethyne-2,1-diyl)]bis[tris(propan-2-yl)silane]'
_symmetry_cell_setting           tetragonal
_symmetry_space_group_name_H-M   'P 42/n'
_symmetry_Int_Tables_number      86
_space_group_name_Hall           '-P 4bc'
loop_
_symmetry_equiv_pos_site_id
_symmetry_equiv_pos_as_xyz
1 x,y,z
2 1/2-x,1/2-y,z
3 -y,1/2+x,1/2+z
4 1/2+y,-x,1/2+z
5 -x,-y,-z
6 1/2+x,1/2+y,-z
7 y,1/2-x,1/2-z
8 1/2-y,x,1/2-z
_cell_length_a                   24.7486(4)
_cell_length_b                   24.7486(4)
_cell_length_c                   7.7477(3)
_cell_angle_alpha                90
_cell_angle_beta                 90
_cell_angle_gamma                90
_cell_volume                     4745.41
_exptl_crystal_colour            black
_exptl_crystal_description       needle
_cell_formula_units_Z            4
loop_
_atom_site_label
_atom_site_type_symbol
_atom_site_fract_x
_atom_site_fract_y
_atom_site_fract_z
Si1 Si 0.06134(5) 0.77057(5) 0.21582(16)
C1 C -0.09936(14) 0.74112(15) 0.4599(5)
C2 C -0.10997(14) 0.68885(15) 0.5266(5)
C3 C -0.06822(15) 0.65194(16) 0.5587(5)
H1 H -0.032278 0.661306 0.527776
C4 C -0.07792(15) 0.60226(15) 0.6343(5)
C5 C -0.03515(18) 0.5654(2) 0.6746(7)
H2 H 0.000848 0.574201 0.642603
C6 C -0.04494(19) 0.5183(2) 0.7571(7)
H3 H -0.016099 0.493987 0.779352
C7 C -0.09798(18) 0.50518(18) 0.8104(6)
H4 H -0.104514 0.472418 0.870797
C8 C -0.13967(18) 0.53928(16) 0.7756(5)
H5 H -0.175043 0.530006 0.812870
C9 C -0.13148(15) 0.58854(15) 0.6846(5)
C10 C -0.17355(15) 0.62376(15) 0.6444(5)
H6 H -0.209478 0.613655 0.673188
C11 C -0.16482(14) 0.67310(14) 0.5639(4)
C12 C -0.20781(13) 0.71056(14) 0.5193(4)
C13 C -0.26343(14) 0.69402(14) 0.4900(4)
C14 C -0.27723(14) 0.64192(14) 0.4418(5)
H7 H -0.249935 0.614968 0.436874
C15 C -0.33078(15) 0.62804(16) 0.3999(5)
H8 H -0.338977 0.591906 0.367843
C16 C -0.19510(14) 0.76512(15) 0.4914(4)
C17 C -0.14001(13) 0.78055(15) 0.4546(4)
C18 C -0.12906(15) 0.83465(15) 0.4046(5)
H9 H -0.093292 0.844817 0.374128
C19 C -0.04655(15) 0.75294(15) 0.3934(5)
C20 C -0.00234(16) 0.76024(16) 0.3298(5)
C21 C 0.11668(19) 0.7565(3) 0.3774(7)
H10 H 0.111108 0.717811 0.409636
C22 C 0.17313(18) 0.7577(3) 0.3022(8)
H11 H 0.173921 0.736528 0.195350
H12 H 0.198625 0.742212 0.385372
H13 H 0.183393 0.795143 0.277158
C23 C 0.1125(2) 0.7851(3) 0.5397(8)
H14 H 0.115956 0.824022 0.519236
H15 H 0.141340 0.773101 0.617383
H16 H 0.077301 0.777535 0.592506
C24 C 0.0574(3) 0.8390(3) 0.1166(11)
H17 H 0.032534 0.830924 0.018183
C25 C 0.0271(3) 0.8808(2) 0.1996(9)
H18 H -0.007313 0.866086 0.240717
H19 H 0.020198 0.910031 0.117276
H20 H 0.047770 0.894873 0.297731
C26 C 0.1062(2) 0.8569(3) 0.0178(9)
H21 H 0.135190 0.866285 0.098635
H22 H 0.097052 0.888666 -0.052073
H23 H 0.118327 0.827630 -0.057946
C27 C 0.06454(18) 0.7175(2) 0.0447(6)
H24 H 0.100211 0.721129 -0.014840
C28 C 0.0613(2) 0.6601(2) 0.1196(8)
H25 H 0.090586 0.654783 0.202877
H26 H 0.064697 0.633672 0.026016
H27 H 0.026410 0.655218 0.177579
C29 C 0.0203(2) 0.7229(3) -0.0924(7)
H28 H -0.014888 0.715012 -0.040493
H29 H 0.027334 0.697328 -0.186384
H30 H 0.020285 0.759816 -0.138266
Si1A Si -0.56134(5) 0.72943(5) 0.21582(16)
C1A C -0.40064(14) 0.75888(15) 0.4599(5)
C2A C -0.39003(14) 0.81115(15) 0.5266(5)
C3A C -0.43178(15) 0.84806(16) 0.5587(5)
H1A H -0.467722 0.838694 0.527776
C4A C -0.42208(15) 0.89774(15) 0.6343(5)
C5A C -0.46485(18) 0.9346(2) 0.6746(7)
H2A H -0.500848 0.925799 0.642603
C6A C -0.45506(19) 0.9817(2) 0.7571(7)
H3A H -0.483901 1.006013 0.779352
C7A C -0.40202(18) 0.99482(18) 0.8104(6)
H4A H -0.395486 1.027582 0.870797
C8A C -0.36033(18) 0.96072(16) 0.7756(5)
H5A H -0.324957 0.969994 0.812870
C9A C -0.36852(15) 0.91146(15) 0.6846(5)
C10A C -0.32645(15) 0.87624(15) 0.6444(5)
H6A H -0.290522 0.886345 0.673188
C11A C -0.33518(14) 0.82690(14) 0.5639(4)
C12A C -0.29219(13) 0.78944(14) 0.5193(4)
C13A C -0.23657(14) 0.80598(14) 0.4900(4)
C14A C -0.22277(14) 0.85808(14) 0.4418(5)
H7A H -0.250065 0.885032 0.436874
C15A C -0.16922(15) 0.87196(16) 0.3999(5)
H8A H -0.161023 0.908094 0.367843
C16A C -0.30490(14) 0.73488(15) 0.4914(4)
C17A C -0.35999(13) 0.71945(15) 0.4546(4)
C18A C -0.37094(15) 0.66535(15) 0.4046(5)
H9A H -0.406708 0.655183 0.374128
C19A C -0.45345(15) 0.74706(15) 0.3934(5)
C20A C -0.49766(16) 0.73976(16) 0.3298(5)
C21A C -0.61668(19) 0.7435(3) 0.3774(7)
H10A H -0.611108 0.782189 0.409636
C22A C -0.67313(18) 0.7423(3) 0.3022(8)
H11A H -0.673921 0.763472 0.195350
H12A H -0.698625 0.757788 0.385372
H13A H -0.683393 0.704857 0.277158
C23A C -0.6125(2) 0.7149(3) 0.5397(8)
H14A H -0.615956 0.675978 0.519236
H15A H -0.641340 0.726899 0.617383
H16A H -0.577301 0.722465 0.592506
C24A C -0.5574(3) 0.6610(3) 0.1166(11)
H17A H -0.532534 0.669076 0.018183
C25A C -0.5271(3) 0.6192(2) 0.1996(9)
H18A H -0.492687 0.633914 0.240717
H19A H -0.520198 0.589969 0.117276
H20A H -0.547770 0.605127 0.297731
C26A C -0.6062(2) 0.6431(3) 0.0178(9)
H21A H -0.635190 0.633715 0.098635
H22A H -0.597052 0.611334 -0.052073
H23A H -0.618327 0.672370 -0.057946
C27A C -0.56454(18) 0.7825(2) 0.0447(6)
H24A H -0.600211 0.778871 -0.014840
C28A C -0.5613(2) 0.8399(2) 0.1196(8)
H25A H -0.590586 0.845217 0.202877
H26A H -0.564697 0.866328 0.026016
H27A H -0.526410 0.844782 0.177579
C29A C -0.5203(2) 0.7771(3) -0.0924(7)
H28A H -0.485112 0.784988 -0.040493
H29A H -0.527334 0.802672 -0.186384
H30A H -0.520285 0.740184 -0.138266
loop_
_geom_bond_atom_site_label_1
_geom_bond_atom_site_label_2
_geom_bond_site_symmetry_1
_geom_bond_site_symmetry_2
Si1 C20 1_555 1_555
C1 C2 1_555 1_555
C2 C3 1_555 1_555
C3 H1 1_555 1_555
C4 C3 1_555 1_555
C5 C4 1_555 1_555
H2 C5 1_555 1_555
C6 C5 1_555 1_555
H3 C6 1_555 1_555
C7 C6 1_555 1_555
H4 C7 1_555 1_555
C8 C7 1_555 1_555
H5 C8 1_555 1_555
C9 C4 1_555 1_555
C10 C9 1_555 1_555
H6 C10 1_555 1_555
C11 C2 1_555 1_555
C12 C11 1_555 1_555
C13 C12 1_555 1_555
C14 C13 1_555 1_555
H7 C14 1_555 1_555
C15 C14 1_555 1_555
H8 C15 1_555 1_555
C16 C12 1_555 1_555
C17 C1 1_555 1_555
C18 C17 1_555 1_555
H9 C18 1_555 1_555
C19 C1 1_555 1_555
C20 C19 1_555 1_555
C21 Si1 1_555 1_555
H10 C21 1_555 1_555
C22 C21 1_555 1_555
H11 C22 1_555 1_555
H12 C22 1_555 1_555
H13 C22 1_555 1_555
C23 C21 1_555 1_555
H14 C23 1_555 1_555
H15 C23 1_555 1_555
H16 C23 1_555 1_555
C24 Si1 1_555 1_555
H17 C24 1_555 1_555
C25 C24 1_555 1_555
H18 C25 1_555 1_555
H19 C25 1_555 1_555
H20 C25 1_555 1_555
C26 C24 1_555 1_555
H21 C26 1_555 1_555
H22 C26 1_555 1_555
H23 C26 1_555 1_555
C27 Si1 1_555 1_555
H24 C27 1_555 1_555
C28 C27 1_555 1_555
H25 C28 1_555 1_555
H26 C28 1_555 1_555
H27 C28 1_555 1_555
C29 C27 1_555 1_555
H28 C29 1_555 1_555
H29 C29 1_555 1_555
H30 C29 1_555 1_555
Si1A C20A 1_555 1_555
C1A C2A 1_555 1_555
C2A C3A 1_555 1_555
C3A H1A 1_555 1_555
C4A C3A 1_555 1_555
C5A C4A 1_555 1_555
H2A C5A 1_555 1_555
C6A C5A 1_555 1_555
H3A C6A 1_555 1_555
C7A C6A 1_555 1_555
H4A C7A 1_555 1_555
C8A C7A 1_555 1_555
H5A C8A 1_555 1_555
C9A C4A 1_555 1_555
C10A C9A 1_555 1_555
H6A C10A 1_555 1_555
C11A C2A 1_555 1_555
C12A C11A 1_555 1_555
C13A C16 1_555 1_555
C14A C13A 1_555 1_555
H7A C14A 1_555 1_555
C15A C18 1_555 1_555
H8A C15A 1_555 1_555
C16A C13 1_555 1_555
C17A C1A 1_555 1_555
C18A C15 1_555 1_555
H9A C18A 1_555 1_555
C19A C1A 1_555 1_555
C20A C19A 1_555 1_555
C21A Si1A 1_555 1_555
H10A C21A 1_555 1_555
C22A C21A 1_555 1_555
H11A C22A 1_555 1_555
H12A C22A 1_555 1_555
H13A C22A 1_555 1_555
C23A C21A 1_555 1_555
H14A C23A 1_555 1_555
H15A C23A 1_555 1_555
H16A C23A 1_555 1_555
C24A Si1A 1_555 1_555
H17A C24A 1_555 1_555
C25A C24A 1_555 1_555
H18A C25A 1_555 1_555
H19A C25A 1_555 1_555
H20A C25A 1_555 1_555
C26A C24A 1_555 1_555
H21A C26A 1_555 1_555
H22A C26A 1_555 1_555
H23A C26A 1_555 1_555
C27A Si1A 1_555 1_555
H24A C27A 1_555 1_555
C28A C27A 1_555 1_555
H25A C28A 1_555 1_555
H26A C28A 1_555 1_555
H27A C28A 1_555 1_555
C29A C27A 1_555 1_555
H28A C29A 1_555 1_555
H29A C29A 1_555 1_555
H30A C29A 1_555 1_555
C8 C9 1_555 1_555
C10 C11 1_555 1_555
C16 C17 1_555 1_555
C8A C9A 1_555 1_555
C10A C11A 1_555 1_555
C12A C13A 1_555 1_555
C12A C16A 1_555 1_555
C14A C15A 1_555 1_555
C16A C17A 1_555 1_555
C17A C18A 1_555 1_555

#END
