
#######################################################################
#
#                 Cambridge Crystallographic Data Centre
#                                CCDC 
#
#######################################################################
#
# If this CIF has been generated from an entry in the Cambridge 
# Structural Database, then it will include bibliographic, chemical, 
# crystal, experimental, refinement or atomic coordinate data resulting 
# from the CCDC's data processing and validation procedures.
#
#######################################################################

data_PINHEB
_chemical_name_common            
'2,8,14,20-Tetrahexyl-4,10,16,22-tetrakis(2-hydroxybenzylidenehydrazinocarbonylmethoxy)-6,12,18,24-tetramethoxyresorcinarene N,N-dimethylformamide solvate hemihydrate'
_chemical_formula_moiety         'C92 H112 N8 O16,C3 H7 N1 O1,0.5(H2 O1)'
_chemical_name_systematic        
"2,2',2'',2'''-((2,8,14,20-Tetrahexyl-6,12,18,24-tetramethoxypentacyclo[19.3.1.1^3,7^.1^9,13^.1^15,19^]octacosa-1(25),3(28),4,6,9(27),10,12,15(26),16,18,21,23-dodecaene-4,10,16,22-tetrayl)tetrakis(oxy))tetrakis(N'-(2-hydroxybenzylidene)acetohydrazide) N,N-dimethylformamide solvate hemihydrate"
_symmetry_cell_setting           triclinic
_symmetry_space_group_name_H-M   'P -1'
_symmetry_Int_Tables_number      2
_space_group_name_Hall           '-P 1'
loop_
_symmetry_equiv_pos_site_id
_symmetry_equiv_pos_as_xyz
1 x,y,z
2 -x,-y,-z
_cell_length_a                   15.347(2)
_cell_length_b                   17.364(3)
_cell_length_c                   18.227(2)
_cell_angle_alpha                80.938(1)
_cell_angle_beta                 73.619(3)
_cell_angle_gamma                77.970(2)
_cell_volume                     4532.42
_chemical_melting_point          '238-240 deg.C'
_cell_formula_units_Z            2
loop_
_atom_site_label
_atom_site_type_symbol
_atom_site_fract_x
_atom_site_fract_y
_atom_site_fract_z
O1 O 0.85995(10) 1.36871(9) 0.30903(8)
H1 H 0.8248 1.3266 0.3215
O2 O 0.89513(11) 1.10107(9) 0.51225(9)
O3 O 0.93140(10) 1.00191(8) 0.34980(8)
O4 O 0.88381(11) 0.73056(9) 0.37007(9)
O5 O 0.62223(11) 0.47315(9) 0.59437(8)
H2 H 0.6674 0.5074 0.5781
O6 O 0.54308(12) 0.70997(10) 0.60717(9)
O7 O 0.58895(10) 0.83154(8) 0.43813(8)
O8 O 0.64280(10) 1.10126(9) 0.42342(9)
O9 O 0.32837(11) 1.57712(9) 0.22070(8)
H3 H 0.3703 1.5482 0.1803
O10 O 0.60441(10) 1.49198(8) 0.19231(8)
O11 O 0.66888(10) 1.28478(8) 0.23746(8)
O12 O 0.99848(10) 1.17144(9) 0.16679(9)
O13 O 1.15618(11) 0.36005(9) -0.00188(9)
H4 H 1.1144 0.4071 -0.0128
O14 O 0.88855(10) 0.42618(9) 0.10698(9)
O15 O 0.83469(10) 0.60017(8) 0.20469(8)
O16 O 0.51207(10) 0.71334(9) 0.28246(8)
N1 N 0.87243(13) 1.22696(11) 0.38785(10)
N2 N 0.89092(13) 1.14665(11) 0.38316(11)
H5 H 0.9008 1.1316 0.3383
N3 N 0.61200(13) 0.59893(11) 0.50542(10)
N4 N 0.60991(13) 0.67804(11) 0.48714(11)
H6 H 0.6279 0.6947 0.4393
N5 N 0.43505(13) 1.44280(11) 0.23930(11)
N6 N 0.51955(13) 1.39152(11) 0.23405(10)
H7 H 0.5208 1.3414 0.2458
N7 N 1.05861(12) 0.46127(10) 0.09557(10)
N8 N 0.97779(12) 0.50384(10) 0.13118(9)
H8 H 0.9785 0.5460 0.1500
C1 C 0.86267(14) 1.39334(13) 0.37081(12)
C2 C 0.85933(16) 1.47412(13) 0.36766(13)
H9 H 0.8558 1.5068 0.3226
C3 C 0.86126(16) 1.50591(14) 0.43216(14)
H10 H 0.8603 1.5600 0.4299
C4 C 0.86462(15) 1.45850(14) 0.49937(14)
H11 H 0.8652 1.4805 0.5425
C5 C 0.86711(16) 1.37694(13) 0.50300(13)
H12 H 0.8696 1.3445 0.5484
C6 C 0.86581(16) 1.34529(13) 0.43899(12)
C7 C 0.87951(16) 1.26126(13) 0.44141(13)
H13 H 0.8943 1.2305 0.4843
C8 C 0.89720(16) 1.08453(13) 0.44670(13)
C9 C 0.90644(16) 1.00253(13) 0.43339(12)
H14 H 0.8488 0.9833 0.4566
H15 H 0.9541 0.9693 0.4551
C10 C 0.92360(15) 0.93708(13) 0.32015(12)
C11 C 0.93386(14) 0.94409(12) 0.24124(11)
C12 C 0.91941(16) 0.87928(13) 0.21146(12)
H16 H 0.9188 0.8850 0.1600
C13 C 0.90645(14) 0.80939(11) 0.25299(12)
C14 C 0.89633(15) 0.80357(13) 0.33117(12)
C15 C 0.90494(15) 0.86681(12) 0.36681(12)
H17 H 0.8985 0.8623 0.4195
C16 C 0.88834(16) 0.71807(14) 0.45111(12)
H18 H 0.9341 0.7453 0.4567
H19 H 0.9045 0.6625 0.4659
H20 H 0.8294 0.7383 0.4834
C17 C 0.88784(14) 0.74282(13) 0.22124(12)
H21 H 0.9169 0.6951 0.2477
C18 C 0.93693(15) 0.73775(14) 0.13482(12)
H22 H 0.9213 0.6939 0.1170
H23 H 0.9171 0.7862 0.1048
C19 C 1.04044(14) 0.72562(14) 0.12485(12)
H24 H 1.0556 0.7635 0.1511
H25 H 1.0630 0.6726 0.1455
C20 C 1.08234(16) 0.73804(14) 0.03935(12)
H26 H 1.0532 0.7887 0.0187
H27 H 1.0708 0.6969 0.0147
C21 C 1.18734(16) 0.73615(14) 0.02100(14)
H28 H 1.2042 0.7729 -0.0245
H29 H 1.1993 0.7565 0.0631
C22 C 1.25153(18) 0.65807(14) 0.00750(16)
H30 H 1.2460 0.6393 -0.0381
H31 H 1.2338 0.6192 0.0509
C23 C 1.35321(16) 0.66647(15) -0.00297(13)
H32 H 1.3812 0.6797 -0.0564
H33 H 1.3864 0.6173 0.0151
H34 H 1.3548 0.7076 0.0260
C24 C 0.62181(16) 0.43731(14) 0.53643(13)
C25 C 0.62198(17) 0.35612(14) 0.54859(13)
H35 H 0.6238 0.3289 0.5965
C26 C 0.61945(17) 0.31505(15) 0.48924(13)
H36 H 0.6208 0.2606 0.4969
C27 C 0.61490(15) 0.35701(13) 0.41928(13)
H37 H 0.6122 0.3306 0.3796
C28 C 0.61429(15) 0.43766(14) 0.40702(13)
H38 H 0.6116 0.4645 0.3591
C29 C 0.61759(15) 0.47891(13) 0.46451(12)
C30 C 0.61303(16) 0.56344(13) 0.44933(13)
H39 H 0.6110 0.5904 0.4014
C31 C 0.58367(18) 0.73189(13) 0.53951(13)
C32 C 0.59809(16) 0.81436(12) 0.51728(12)
H40 H 0.5520 0.8496 0.5507
H41 H 0.6589 0.8199 0.5195
C33 C 0.59594(15) 0.90722(12) 0.40238(12)
C34 C 0.57948(16) 0.92404(13) 0.32826(12)
C35 C 0.58594(15) 0.99772(13) 0.29085(12)
H42 H 0.5743 1.0092 0.2426
C36 C 0.60871(15) 1.05530(12) 0.32092(12)
C37 C 0.62542(15) 1.03824(12) 0.39514(12)
C38 C 0.61829(15) 0.96428(12) 0.43486(12)
H43 H 0.6286 0.9530 0.4836
C39 C 0.65332(15) 1.08327(12) 0.50294(12)
H44 H 0.6517 1.1316 0.5230
H45 H 0.7112 1.0490 0.5028
H46 H 0.6039 1.0576 0.5346
C40 C 0.62540(15) 1.13323(13) 0.28044(13)
H47 H 0.6028 1.1680 0.3218
C41 C 0.56310(17) 1.16656(16) 0.22807(15)
H48 H 0.5903 1.1417 0.1809
H49 H 0.5675 1.2222 0.2151
C42 C 0.46148(16) 1.16202(15) 0.24988(14)
H50 H 0.4539 1.1071 0.2644
H51 H 0.4304 1.1909 0.2942
C43 C 0.41763(15) 1.19541(14) 0.18573(13)
H52 H 0.4333 1.2474 0.1661
H53 H 0.3512 1.2018 0.2055
C44 C 0.44871(18) 1.14182(15) 0.11818(13)
H54 H 0.5156 1.1322 0.1022
H55 H 0.4296 1.0911 0.1382
C45 C 0.41399(17) 1.17205(15) 0.04830(14)
H56 H 0.4142 1.2286 0.0384
H57 H 0.4576 1.1477 0.0049
C46 C 0.32075(17) 1.15881(14) 0.05052(13)
H58 H 0.3019 1.1197 0.0924
H59 H 0.3223 1.1406 0.0030
H60 H 0.2778 1.2075 0.0576
C47 C 0.25771(16) 1.54063(13) 0.25137(13)
C48 C 0.16803(16) 1.58201(15) 0.26457(13)
H61 H 0.1583 1.6360 0.2490
C49 C 0.09296(16) 1.54587(14) 0.29990(13)
H62 H 0.0334 1.5747 0.3075
C50 C 0.10805(16) 1.46480(14) 0.32415(13)
H63 H 0.0580 1.4396 0.3485
C51 C 0.19725(16) 1.42141(14) 0.31218(13)
H64 H 0.2065 1.3673 0.3277
C52 C 0.27272(15) 1.45932(13) 0.27686(12)
C53 C 0.36207(15) 1.41207(13) 0.26671(12)
H65 H 0.3676 1.3577 0.2803
C54 C 0.60094(15) 1.42090(12) 0.21116(12)
C55 C 0.68523(16) 1.36363(13) 0.21216(15)
H66 H 0.7263 1.3649 0.1608
H67 H 0.7160 1.3792 0.2458
C56 C 0.74312(15) 1.22403(12) 0.22609(12)
C57 C 0.72145(15) 1.14854(12) 0.24469(12)
C58 C 0.79145(15) 1.08209(12) 0.23563(13)
H68 H 0.7766 1.0316 0.2483
C59 C 0.88297(14) 1.09139(12) 0.20777(11)
C60 C 0.90485(15) 1.16821(12) 0.18932(12)
C61 C 0.83481(15) 1.23382(13) 0.19770(13)
H69 H 0.8492 1.2845 0.1843
C62 C 1.01946(16) 1.25123(14) 0.14118(13)
H70 H 1.0837 1.2479 0.1150
H71 H 1.0057 1.2803 0.1849
H72 H 0.9828 1.2779 0.1068
C63 C 0.95642(15) 1.02054(12) 0.19892(12)
H73 H 1.0076 1.0320 0.2153
C64 C 0.98990(17) 1.01264(14) 0.11389(12)
H74 H 0.9380 1.0236 0.0912
H75 H 1.0218 0.9591 0.1054
C65 C 1.05530(18) 1.07150(15) 0.07674(15)
H76 H 1.0587 1.0813 0.0222
H77 H 1.0297 1.1213 0.0987
C66 C 1.14953(18) 1.04480(17) 0.08653(15)
H78 H 1.1464 1.0292 0.1406
H79 H 1.1837 1.0883 0.0696
C67 C 1.20228(19) 0.97237(15) 0.03892(14)
H80 H 1.2583 0.9486 0.0544
H81 H 1.1636 0.9324 0.0481
C68 C 1.22454(19) 1.00245(15) -0.04238(14)
H82 H 1.2681 1.0387 -0.0542
H83 H 1.1698 1.0280 -0.0590
C69 C 1.2667(2) 0.92629(16) -0.07634(15)
H84 H 1.3293 0.9115 -0.0728
H85 H 1.2655 0.9327 -0.1294
H86 H 1.2323 0.8857 -0.0487
C70 C 1.22846(15) 0.37894(13) 0.01034(12)
C71 C 1.31589(16) 0.34441(14) -0.03072(13)
H87 H 1.3216 0.3072 -0.0641
C72 C 1.39248(16) 0.36550(15) -0.02155(13)
H88 H 1.4501 0.3409 -0.0480
C73 C 1.38791(16) 0.42206(14) 0.02553(12)
H89 H 1.4410 0.4370 0.0295
C74 C 1.30082(15) 0.45600(13) 0.06681(12)
H90 H 1.2957 0.4932 0.1001
C75 C 1.22175(15) 0.43510(13) 0.05898(13)
C76 C 1.13414(15) 0.47758(13) 0.09978(12)
H91 H 1.1330 0.5171 0.1293
C77 C 0.89741(15) 0.48252(12) 0.13793(13)
C78 C 0.81297(15) 0.53535(12) 0.17670(13)
H92 H 0.7756 0.5562 0.1407
H93 H 0.7771 0.5048 0.2194
C79 C 0.76597(14) 0.66229(11) 0.22380(12)
C80 C 0.78934(15) 0.73167(12) 0.23418(13)
C81 C 0.71876(14) 0.79515(12) 0.26070(11)
H94 H 0.7339 0.8419 0.2683
C82 C 0.62620(15) 0.78776(12) 0.27553(12)
C83 C 0.60531(15) 0.71611(13) 0.26511(13)
C84 C 0.67452(15) 0.65388(13) 0.23971(13)
H95 H 0.6597 0.6065 0.2333
C85 C 0.47943(15) 0.65340(13) 0.25386(13)
H96 H 0.4866 0.6654 0.1995
H97 H 0.4155 0.6532 0.2793
H98 H 0.5148 0.6022 0.2640
C86 C 0.55445(14) 0.85802(13) 0.29781(12)
H99 H 0.5096 0.8365 0.3420
C87 C 0.49922(15) 0.88855(14) 0.23814(13)
H100 H 0.5346 0.9218 0.1977
H101 H 0.4944 0.8434 0.2152
C88 C 0.40264(15) 0.93523(12) 0.26505(12)
H102 H 0.4021 0.9718 0.3003
H103 H 0.3826 0.9654 0.2214
C89 C 0.33954(16) 0.87799(14) 0.30435(13)
H104 H 0.2943 0.9021 0.3471
H105 H 0.3754 0.8317 0.3258
C90 C 0.28839(17) 0.85042(14) 0.25637(14)
H106 H 0.3319 0.8389 0.2076
H107 H 0.2419 0.8946 0.2454
C91 C 0.24086(17) 0.77892(15) 0.28798(14)
H108 H 0.2561 0.7426 0.2491
H109 H 0.2617 0.7512 0.3321
C92 C 0.13799(16) 0.80692(14) 0.31122(14)
H110 H 0.1173 0.8058 0.3662
H111 H 0.1076 0.7727 0.2942
H112 H 0.1236 0.8600 0.2881
O17 O 0.23822(11) 0.10422(9) 0.44662(8)
N9 N 0.16633(13) 0.13396(11) 0.33589(11)
C93 C 0.13290(16) 0.09658(15) 0.28143(13)
H113 H 0.1850 0.0707 0.2452
H114 H 0.0970 0.1369 0.2543
H115 H 0.0956 0.0584 0.3102
C94 C 0.15391(16) 0.22248(13) 0.32186(13)
H116 H 0.1619 0.2432 0.3649
H117 H 0.0931 0.2433 0.3156
H118 H 0.1988 0.2376 0.2761
C95 C 0.19572(16) 0.09282(14) 0.40092(14)
H119 H 0.1785 0.0432 0.4131
O18 O 0.4393(2) 0.9787(2) 0.01728(18)
H120 H 0.4439 0.9932 -0.0302
H121 H 0.4896 0.9799 0.0276
loop_
_geom_bond_atom_site_label_1
_geom_bond_atom_site_label_2
_geom_bond_site_symmetry_1
_geom_bond_site_symmetry_2
O1 H1 1_555 1_555
O2 C8 1_555 1_555
O3 C9 1_555 1_555
O4 C14 1_555 1_555
O5 H2 1_555 1_555
O6 C31 1_555 1_555
O7 C32 1_555 1_555
O8 C37 1_555 1_555
O9 H3 1_555 1_555
O10 C54 1_555 1_555
O11 C55 1_555 1_555
O12 C60 1_555 1_555
O13 H4 1_555 1_555
O14 C77 1_555 1_555
O15 C78 1_555 1_555
O16 C83 1_555 1_555
N1 N2 1_555 1_555
N2 H5 1_555 1_555
N3 N4 1_555 1_555
N4 H6 1_555 1_555
N5 N6 1_555 1_555
N6 H7 1_555 1_555
N7 N8 1_555 1_555
N8 H8 1_555 1_555
C1 O1 1_555 1_555
C2 C1 1_555 1_555
H9 C2 1_555 1_555
C3 C2 1_555 1_555
H10 C3 1_555 1_555
C4 C3 1_555 1_555
H11 C4 1_555 1_555
C5 C4 1_555 1_555
H12 C5 1_555 1_555
C6 C1 1_555 1_555
C7 N1 1_555 1_555
H13 C7 1_555 1_555
C8 N2 1_555 1_555
C9 C8 1_555 1_555
H14 C9 1_555 1_555
H15 C9 1_555 1_555
C10 O3 1_555 1_555
C11 C10 1_555 1_555
C12 C11 1_555 1_555
H16 C12 1_555 1_555
C13 C12 1_555 1_555
C14 C13 1_555 1_555
C15 C10 1_555 1_555
H17 C15 1_555 1_555
C16 O4 1_555 1_555
H18 C16 1_555 1_555
H19 C16 1_555 1_555
H20 C16 1_555 1_555
C17 C13 1_555 1_555
H21 C17 1_555 1_555
C18 C17 1_555 1_555
H22 C18 1_555 1_555
H23 C18 1_555 1_555
C19 C18 1_555 1_555
H24 C19 1_555 1_555
H25 C19 1_555 1_555
C20 C19 1_555 1_555
H26 C20 1_555 1_555
H27 C20 1_555 1_555
C21 C20 1_555 1_555
H28 C21 1_555 1_555
H29 C21 1_555 1_555
C22 C21 1_555 1_555
H30 C22 1_555 1_555
H31 C22 1_555 1_555
C23 C22 1_555 1_555
H32 C23 1_555 1_555
H33 C23 1_555 1_555
H34 C23 1_555 1_555
C24 O5 1_555 1_555
C25 C24 1_555 1_555
H35 C25 1_555 1_555
C26 C25 1_555 1_555
H36 C26 1_555 1_555
C27 C26 1_555 1_555
H37 C27 1_555 1_555
C28 C27 1_555 1_555
H38 C28 1_555 1_555
C29 C24 1_555 1_555
C30 N3 1_555 1_555
H39 C30 1_555 1_555
C31 N4 1_555 1_555
C32 C31 1_555 1_555
H40 C32 1_555 1_555
H41 C32 1_555 1_555
C33 O7 1_555 1_555
C34 C33 1_555 1_555
C35 C34 1_555 1_555
H42 C35 1_555 1_555
C36 C35 1_555 1_555
C37 C36 1_555 1_555
C38 C33 1_555 1_555
H43 C38 1_555 1_555
C39 O8 1_555 1_555
H44 C39 1_555 1_555
H45 C39 1_555 1_555
H46 C39 1_555 1_555
C40 C36 1_555 1_555
H47 C40 1_555 1_555
C41 C40 1_555 1_555
H48 C41 1_555 1_555
H49 C41 1_555 1_555
C42 C41 1_555 1_555
H50 C42 1_555 1_555
H51 C42 1_555 1_555
C43 C42 1_555 1_555
H52 C43 1_555 1_555
H53 C43 1_555 1_555
C44 C43 1_555 1_555
H54 C44 1_555 1_555
H55 C44 1_555 1_555
C45 C44 1_555 1_555
H56 C45 1_555 1_555
H57 C45 1_555 1_555
C46 C45 1_555 1_555
H58 C46 1_555 1_555
H59 C46 1_555 1_555
H60 C46 1_555 1_555
C47 O9 1_555 1_555
C48 C47 1_555 1_555
H61 C48 1_555 1_555
C49 C48 1_555 1_555
H62 C49 1_555 1_555
C50 C49 1_555 1_555
H63 C50 1_555 1_555
C51 C50 1_555 1_555
H64 C51 1_555 1_555
C52 C47 1_555 1_555
C53 N5 1_555 1_555
H65 C53 1_555 1_555
C54 N6 1_555 1_555
C55 C54 1_555 1_555
H66 C55 1_555 1_555
H67 C55 1_555 1_555
C56 O11 1_555 1_555
C57 C40 1_555 1_555
C58 C57 1_555 1_555
H68 C58 1_555 1_555
C59 C58 1_555 1_555
C60 C59 1_555 1_555
C61 C56 1_555 1_555
H69 C61 1_555 1_555
C62 O12 1_555 1_555
H70 C62 1_555 1_555
H71 C62 1_555 1_555
H72 C62 1_555 1_555
C63 C11 1_555 1_555
H73 C63 1_555 1_555
C64 C63 1_555 1_555
H74 C64 1_555 1_555
H75 C64 1_555 1_555
C65 C64 1_555 1_555
H76 C65 1_555 1_555
H77 C65 1_555 1_555
C66 C65 1_555 1_555
H78 C66 1_555 1_555
H79 C66 1_555 1_555
C67 C66 1_555 1_555
H80 C67 1_555 1_555
H81 C67 1_555 1_555
C68 C67 1_555 1_555
H82 C68 1_555 1_555
H83 C68 1_555 1_555
C69 C68 1_555 1_555
H84 C69 1_555 1_555
H85 C69 1_555 1_555
H86 C69 1_555 1_555
C70 O13 1_555 1_555
C71 C70 1_555 1_555
H87 C71 1_555 1_555
C72 C71 1_555 1_555
H88 C72 1_555 1_555
C73 C72 1_555 1_555
H89 C73 1_555 1_555
C74 C73 1_555 1_555
H90 C74 1_555 1_555
C75 C70 1_555 1_555
C76 N7 1_555 1_555
H91 C76 1_555 1_555
C77 N8 1_555 1_555
C78 C77 1_555 1_555
H92 C78 1_555 1_555
H93 C78 1_555 1_555
C79 O15 1_555 1_555
C80 C17 1_555 1_555
C81 C80 1_555 1_555
H94 C81 1_555 1_555
C82 C81 1_555 1_555
C83 C82 1_555 1_555
C84 C79 1_555 1_555
H95 C84 1_555 1_555
C85 O16 1_555 1_555
H96 C85 1_555 1_555
H97 C85 1_555 1_555
H98 C85 1_555 1_555
C86 C34 1_555 1_555
H99 C86 1_555 1_555
C87 C86 1_555 1_555
H100 C87 1_555 1_555
H101 C87 1_555 1_555
C88 C87 1_555 1_555
H102 C88 1_555 1_555
H103 C88 1_555 1_555
C89 C88 1_555 1_555
H104 C89 1_555 1_555
H105 C89 1_555 1_555
C90 C89 1_555 1_555
H106 C90 1_555 1_555
H107 C90 1_555 1_555
C91 C90 1_555 1_555
H108 C91 1_555 1_555
H109 C91 1_555 1_555
C92 C91 1_555 1_555
H110 C92 1_555 1_555
H111 C92 1_555 1_555
H112 C92 1_555 1_555
O17 C95 1_555 1_555
N9 C93 1_555 1_555
C93 H113 1_555 1_555
H114 C93 1_555 1_555
H115 C93 1_555 1_555
C94 N9 1_555 1_555
H116 C94 1_555 1_555
H117 C94 1_555 1_555
H118 C94 1_555 1_555
C95 N9 1_555 1_555
H119 C95 1_555 1_555
O18 H120 1_555 1_555
H121 O18 1_555 1_555
C5 C6 1_555 1_555
C6 C7 1_555 1_555
C14 C15 1_555 1_555
C28 C29 1_555 1_555
C29 C30 1_555 1_555
C37 C38 1_555 1_555
C51 C52 1_555 1_555
C52 C53 1_555 1_555
C56 C57 1_555 1_555
C59 C63 1_555 1_555
C60 C61 1_555 1_555
C74 C75 1_555 1_555
C75 C76 1_555 1_555
C79 C80 1_555 1_555
C82 C86 1_555 1_555
C83 C84 1_555 1_555

#END
