
#######################################################################
#
#                 Cambridge Crystallographic Data Centre
#                                CCDC 
#
#######################################################################
#
# If this CIF has been generated from an entry in the Cambridge 
# Structural Database, then it will include bibliographic, chemical, 
# crystal, experimental, refinement or atomic coordinate data resulting 
# from the CCDC's data processing and validation procedures.
#
#######################################################################

data_PINHOL
_chemical_name_common            
'2,8,14,20-Tetraethyl-4,10,16,22-tetramethoxycarbonylmethoxy-6,12,18,24-tetramethoxyresorcinarene chloroform solvate'
_chemical_formula_moiety         'C52 H64 O16,C1 H1 Cl3'
_chemical_name_systematic        
"Tetramethyl 2,2',2'',2'''-((2,8,14,20-tetraethyl-6,12,18,24-tetramethoxypentacyclo[19.3.1.1^3,7^.1^9,13^.1^15,19^]octacosa-1(25),3(28),4,6,9(27),10,12,15(26),16,18,21,23-dodecaene-4,10,16,22-tetrayl)tetrakis(oxy))tetraacetate chloroform solvate"
_symmetry_cell_setting           triclinic
_symmetry_space_group_name_H-M   'P -1'
_symmetry_Int_Tables_number      2
_space_group_name_Hall           '-P 1'
loop_
_symmetry_equiv_pos_site_id
_symmetry_equiv_pos_as_xyz
1 x,y,z
2 -x,-y,-z
_cell_length_a                   12.010(2)
_cell_length_b                   13.647(2)
_cell_length_c                   17.536(3)
_cell_angle_alpha                82.391(3)
_cell_angle_beta                 70.322(2)
_cell_angle_gamma                86.720(3)
_cell_volume                     2682.23
_exptl_crystal_colour            colorless
_exptl_crystal_description       block
_chemical_melting_point          '248-251 deg.C'
_cell_formula_units_Z            2
loop_
_atom_site_label
_atom_site_type_symbol
_atom_site_fract_x
_atom_site_fract_y
_atom_site_fract_z
O1 O 0.0151(4) 0.6246(3) 0.3042(2)
O2 O -0.0957(3) 0.8420(3) 0.4362(2)
O3 O 0.5629(3) 0.5872(3) 0.0603(2)
O4 O 0.3202(3) 0.7536(3) -0.1949(2)
O5 O 0.7008(3) 0.7378(3) -0.1545(2)
O6 O 0.1797(4) 0.5793(3) 0.0175(2)
O7 O 0.3913(4) 0.6440(3) 0.3421(2)
C1 C 0.0606(5) 0.7610(4) 0.2028(3)
C2 C 0.4046(4) 0.7810(4) -0.0193(3)
H1 H 0.3676 0.7938 0.0343
C3 C 0.6016(5) 0.7865(4) 0.0050(3)
H2 H 0.6738 0.7466 -0.0139
C4 C 0.1987(4) 0.7769(4) -0.0334(3)
H3 H 0.1705 0.7321 -0.0621
C5 C 0.4501(5) 0.7800(4) 0.2374(3)
O8 O 0.2877(4) 0.8694(4) 0.4667(2)
C6 C 0.1022(4) 0.5976(4) 0.1623(3)
H4 H 0.1021 0.5295 0.1767
C7 C 0.1438(4) 0.6359(4) 0.0809(3)
C8 C 0.5018(4) 0.8119(4) 0.1548(3)
H5 H 0.5118 0.8794 0.1389
C9 C 0.4361(5) 0.6800(4) 0.2591(3)
C10 C 0.0046(5) 0.8289(4) 0.2685(3)
H6 H -0.0693 0.7977 0.3042
C11 C 0.1089(4) 0.7972(4) 0.1199(3)
H7 H 0.1131 0.8653 0.1057
C12 C 0.5394(4) 0.7492(4) 0.0947(3)
C13 C 0.5234(4) 0.6472(4) 0.1202(3)
O9 O 0.1669(4) 0.3465(3) -0.0417(2)
C14 C 0.1508(4) 0.7372(4) 0.0577(3)
C15 C 0.0607(5) 0.6596(4) 0.2224(3)
C16 C 0.0793(5) 0.8386(4) 0.3229(3)
C17 C 0.2008(5) 0.8432(4) 0.2916(3)
H8 H 0.2371 0.8393 0.2362
C18 C 0.4069(5) 0.8508(4) 0.3027(3)
H9 H 0.4353 0.8232 0.3474
C19 C 0.3919(5) 0.7583(4) -0.1480(3)
C20 C 0.5145(4) 0.7500(4) -0.1796(3)
H10 H 0.5520 0.7424 -0.2343
O10 O 0.9272(3) 0.7079(3) -0.1956(2)
C21 C 0.5799(4) 0.7532(4) -0.1283(3)
C22 C 0.3333(4) 0.7714(4) -0.0665(3)
C23 C 0.4713(4) 0.6132(4) 0.2021(3)
H11 H 0.4600 0.5459 0.2187
C24 C 0.0929(5) 0.8563(4) 0.4548(3)
H12 H 0.0556 0.8602 0.5102
O11 O -0.3470(4) 0.8453(4) 0.6078(3)
C25 C 0.2726(5) 0.8533(4) 0.3379(3)
C26 C 0.2165(5) 0.8596(4) 0.4218(3)
C27 C 0.5277(4) 0.7726(4) -0.0475(3)
C28 C 0.0265(5) 0.8473(4) 0.4059(3)
O12 O 0.9579(4) 0.7587(5) -0.3265(3)
C29 C -0.2835(5) 0.8580(5) 0.5393(3)
O13 O 0.1551(4) 0.4821(3) 0.4480(3)
C30 C 0.8919(5) 0.7387(5) -0.2583(3)
C31 C -0.1540(5) 0.8699(5) 0.5154(3)
H13 H -0.1368 0.9383 0.5160
H14 H -0.1247 0.8293 0.5544
C32 C 0.7597(5) 0.7437(5) -0.2387(3)
H15 H 0.7381 0.8053 -0.2651
H16 H 0.7351 0.6898 -0.2601
C33 C 0.1629(5) 0.4445(4) -0.0474(4)
C34 C 0.1530(4) 0.8804(4) -0.0553(3)
H17 H 0.1939 0.9023 -0.1124
H18 H 0.1711 0.9261 -0.0233
O14 O -0.3216(4) 0.8642(4) 0.4770(3)
O15 O 0.1649(5) 0.4968(3) -0.1073(3)
C35 C 0.1529(5) 0.4763(4) 0.0331(3)
H19 H 0.0735 0.4655 0.0714
H20 H 0.2083 0.4393 0.0556
C36 C 0.6397(5) 0.8954(4) -0.0066(3)
H21 H 0.5691 0.9363 0.0112
H22 H 0.6852 0.9014 0.0289
C37 C 0.2719(6) 0.6120(5) 0.3724(4)
H23 H 0.2348 0.6332 0.3316
H24 H 0.2297 0.6435 0.4207
C38 C -0.0068(7) 0.5216(5) 0.3244(4)
H25 H -0.0560 0.5023 0.2958
H26 H -0.0460 0.5073 0.3821
H27 H 0.0669 0.4857 0.3089
C39 C 0.0176(5) 0.8833(5) -0.0395(4)
H28 H -0.0016 0.8352 -0.0682
H29 H -0.0055 0.9480 -0.0584
H30 H -0.0238 0.8687 0.0179
C40 C -0.0299(5) 0.9315(4) 0.2335(3)
H31 H 0.0424 0.9649 0.1996
H32 H -0.0740 0.9211 0.1980
C41 C 1.0542(5) 0.7014(6) -0.2106(5)
H33 H 1.0901 0.6583 -0.2516
H34 H 1.0686 0.6756 -0.1611
H35 H 1.0877 0.7660 -0.2291
C42 C 0.2610(6) 0.5023(5) 0.3935(4)
C43 C 0.5420(6) 0.4831(5) 0.0856(4)
H36 H 0.5779 0.4608 0.1263
H37 H 0.5758 0.4472 0.0394
H38 H 0.4584 0.4719 0.1080
C44 C 0.3773(6) 0.7433(8) -0.2782(4)
H39 H 0.4240 0.8007 -0.3046
H40 H 0.3191 0.7366 -0.3035
H41 H 0.4276 0.6856 -0.2831
C45 C 0.2386(7) 0.8502(7) 0.5515(4)
H42 H 0.1893 0.9050 0.5724
H43 H 0.3008 0.8408 0.5747
H44 H 0.1920 0.7915 0.5655
C46 C 0.4562(5) 0.9559(4) 0.2750(3)
H45 H 0.4374 0.9827 0.2267
H46 H 0.4169 0.9972 0.3175
O16 O 0.3352(6) 0.4454(4) 0.3670(4)
C47 C 0.1789(6) 0.3024(5) -0.1159(4)
H47 H 0.1188 0.3292 -0.1379
H48 H 0.1703 0.2321 -0.1031
H49 H 0.2555 0.3171 -0.1555
C48 C 0.7124(6) 0.9365(5) -0.0930(4)
H50 H 0.7865 0.9013 -0.1095
H51 H 0.7266 1.0054 -0.0947
H52 H 0.6699 0.9287 -0.1294
C49 C -0.4485(6) 0.8562(7) 0.4965(5)
H53 H -0.4708 0.7882 0.5136
H54 H -0.4696 0.8798 0.4491
H55 H -0.4888 0.8951 0.5397
C50 C 0.5896(7) 0.9611(6) 0.2560(5)
H56 H 0.6074 0.9493 0.3059
H57 H 0.6167 1.0255 0.2289
H58 H 0.6286 0.9118 0.2214
C51 C -0.0993(8) 0.9982(6) 0.2907(5)
H59 H -0.1643 0.9631 0.3310
H60 H -0.1290 1.0523 0.2617
H61 H -0.0502 1.0232 0.3169
C52 C 0.1256(7) 0.3799(5) 0.4717(5)
H62 H 0.1365 0.3481 0.4240
H63 H 0.0446 0.3743 0.5065
H64 H 0.1759 0.3486 0.5006
Cl1 Cl 0.6978(3) 0.4999(3) 0.27955(18)
Cl2 Cl 0.6403(4) 0.4298(3) 0.4465(2)
Cl3 Cl 0.6734(4) 0.6381(4) 0.3884(3)
C53 C 0.6262(9) 0.5220(8) 0.3738(5)
H65 H 0.5420 0.5287 0.3800
loop_
_geom_bond_atom_site_label_1
_geom_bond_atom_site_label_2
_geom_bond_site_symmetry_1
_geom_bond_site_symmetry_2
O1 C15 1_555 1_555
O2 C28 1_555 1_555
O3 C13 1_555 1_555
O4 C19 1_555 1_555
O5 C21 1_555 1_555
O6 C7 1_555 1_555
O7 C9 1_555 1_555
C1 C10 1_555 1_555
C2 H1 1_555 1_555
C3 H2 1_555 1_555
C4 H3 1_555 1_555
C5 C8 1_555 1_555
O8 C26 1_555 1_555
C6 H4 1_555 1_555
C7 C6 1_555 1_555
C8 H5 1_555 1_555
C9 C5 1_555 1_555
C10 H6 1_555 1_555
C11 C1 1_555 1_555
H7 C11 1_555 1_555
C12 C3 1_555 1_555
C13 C12 1_555 1_555
O9 C33 1_555 1_555
C14 C4 1_555 1_555
C15 C1 1_555 1_555
C16 C10 1_555 1_555
C17 C16 1_555 1_555
H8 C17 1_555 1_555
C18 C5 1_555 1_555
H9 C18 1_555 1_555
C19 C20 1_555 1_555
C20 H10 1_555 1_555
O10 C30 1_555 1_555
C21 C20 1_555 1_555
C22 C2 1_555 1_555
C23 C9 1_555 1_555
H11 C23 1_555 1_555
C24 H12 1_555 1_555
O11 C29 1_555 1_555
C25 C17 1_555 1_555
C26 C24 1_555 1_555
C27 C2 1_555 1_555
C28 C16 1_555 1_555
O12 C30 1_555 1_555
C29 C31 1_555 1_555
O13 C42 1_555 1_555
C30 C32 1_555 1_555
C31 O2 1_555 1_555
H13 C31 1_555 1_555
H14 C31 1_555 1_555
C32 O5 1_555 1_555
H15 C32 1_555 1_555
H16 C32 1_555 1_555
C33 O15 1_555 1_555
C34 C4 1_555 1_555
H17 C34 1_555 1_555
H18 C34 1_555 1_555
O14 C29 1_555 1_555
C35 O6 1_555 1_555
H19 C35 1_555 1_555
H20 C35 1_555 1_555
C36 C3 1_555 1_555
H21 C36 1_555 1_555
H22 C36 1_555 1_555
C37 O7 1_555 1_555
H23 C37 1_555 1_555
H24 C37 1_555 1_555
C38 O1 1_555 1_555
H25 C38 1_555 1_555
H26 C38 1_555 1_555
H27 C38 1_555 1_555
C39 C34 1_555 1_555
H28 C39 1_555 1_555
H29 C39 1_555 1_555
H30 C39 1_555 1_555
C40 C10 1_555 1_555
H31 C40 1_555 1_555
H32 C40 1_555 1_555
C41 O10 1_555 1_555
H33 C41 1_555 1_555
H34 C41 1_555 1_555
H35 C41 1_555 1_555
C42 C37 1_555 1_555
C43 O3 1_555 1_555
H36 C43 1_555 1_555
H37 C43 1_555 1_555
H38 C43 1_555 1_555
C44 O4 1_555 1_555
H39 C44 1_555 1_555
H40 C44 1_555 1_555
H41 C44 1_555 1_555
C45 O8 1_555 1_555
H42 C45 1_555 1_555
H43 C45 1_555 1_555
H44 C45 1_555 1_555
C46 C18 1_555 1_555
H45 C46 1_555 1_555
H46 C46 1_555 1_555
O16 C42 1_555 1_555
C47 O9 1_555 1_555
H47 C47 1_555 1_555
H48 C47 1_555 1_555
H49 C47 1_555 1_555
C48 C36 1_555 1_555
H50 C48 1_555 1_555
H51 C48 1_555 1_555
H52 C48 1_555 1_555
C49 O14 1_555 1_555
H53 C49 1_555 1_555
H54 C49 1_555 1_555
H55 C49 1_555 1_555
C50 C46 1_555 1_555
H56 C50 1_555 1_555
H57 C50 1_555 1_555
H58 C50 1_555 1_555
C51 C40 1_555 1_555
H59 C51 1_555 1_555
H60 C51 1_555 1_555
H61 C51 1_555 1_555
C52 O13 1_555 1_555
H62 C52 1_555 1_555
H63 C52 1_555 1_555
H64 C52 1_555 1_555
Cl1 C53 1_555 1_555
Cl2 C53 1_555 1_555
Cl3 C53 1_555 1_555
C53 H65 1_555 1_555
C3 C27 1_555 1_555
C4 C22 1_555 1_555
C6 C15 1_555 1_555
C7 C14 1_555 1_555
C8 C12 1_555 1_555
C11 C14 1_555 1_555
C13 C23 1_555 1_555
C18 C25 1_555 1_555
C19 C22 1_555 1_555
C21 C27 1_555 1_555
C24 C28 1_555 1_555
C25 C26 1_555 1_555
C33 C35 1_555 1_555

#END
