
#######################################################################
#
#                 Cambridge Crystallographic Data Centre
#                                CCDC 
#
#######################################################################
#
# If this CIF has been generated from an entry in the Cambridge 
# Structural Database, then it will include bibliographic, chemical, 
# crystal, experimental, refinement or atomic coordinate data resulting 
# from the CCDC's data processing and validation procedures.
#
#######################################################################

data_PINJON
_chemical_name_common            
'2,8,14,20-tetrakis(n-Pentyl)-4,10,16,22-tetramethoxy-6,12,18,24-tetrakis((2-hydrazinyl-2-oxoethyl)oxidanyl)calix(4)arene unknown solvate'
_chemical_formula_moiety         'C60 H88 N8 O12'
_chemical_name_systematic        
"2,2',2'',2'''-((6,12,18,24-Tetramethoxy-2,8,14,20-tetrapentylpentacyclo[19.3.1.1^3,7^.1^9,13^.1^15,19^]octacosa-1(25),3(28),4,6,9(27),10,12,15(26),16,18,21,23-dodecaene-4,10,16,22-tetrayl)tetrakis(oxy))tetraacetohydrazide unknown solvate"
_symmetry_cell_setting           triclinic
_symmetry_space_group_name_H-M   'P -1'
_symmetry_Int_Tables_number      2
_space_group_name_Hall           '-P 1'
loop_
_symmetry_equiv_pos_site_id
_symmetry_equiv_pos_as_xyz
1 x,y,z
2 -x,-y,-z
_cell_length_a                   9.692(3)
_cell_length_b                   17.449(4)
_cell_length_c                   19.277(5)
_cell_angle_alpha                103.600(3)
_cell_angle_beta                 97.495(4)
_cell_angle_gamma                92.278(4)
_cell_volume                     3133.16
_cell_formula_units_Z            2
loop_
_atom_site_label
_atom_site_type_symbol
_atom_site_fract_x
_atom_site_fract_y
_atom_site_fract_z
C1 C 0.6198(14) 0.7246(7) 0.5750(7)
H1 H 0.7168 0.7409 0.5788
H2 H 0.5902 0.7396 0.6216
H3 H 0.5658 0.7495 0.5423
C2 C 0.6008(11) 0.6449(6) 0.5499(5)
H4 H 0.5065 0.6341 0.5242
H5 H 0.6018 0.6235 0.5921
C3 C 0.6838(9) 0.5995(5) 0.5065(4)
H6 H 0.6753 0.5463 0.5134
H7 H 0.7798 0.6198 0.5238
C4 C 0.6585(6) 0.5934(3) 0.4271(3)
H8 H 0.7388 0.5722 0.4061
H9 H 0.6503 0.6461 0.4193
C5 C 0.5287(5) 0.5419(3) 0.3881(3)
H10 H 0.4476 0.5679 0.4036
H11 H 0.5296 0.4924 0.4028
C6 C 0.5122(5) 0.5232(3) 0.3058(2)
H12 H 0.5990 0.5011 0.2922
C7 C 0.3963(5) 0.4581(3) 0.2736(2)
C8 C 0.4249(5) 0.3791(3) 0.2532(3)
C9 C 0.5947(6) 0.2833(3) 0.2521(4)
H13 H 0.5463 0.2599 0.2833
H14 H 0.6934 0.2809 0.2644
H15 H 0.5660 0.2548 0.2029
C10 C 0.3176(5) 0.3196(3) 0.2263(3)
H16 H 0.3382 0.2671 0.2122
C11 C 0.1822(5) 0.3389(3) 0.2209(3)
C12 C 0.1026(7) 0.2020(3) 0.1842(4)
H17 H 0.1483 0.1943 0.2297
H18 H 0.1676 0.1906 0.1496
C13 C -0.0228(8) 0.1452(4) 0.1587(5)
C14 C 0.1466(5) 0.4162(3) 0.2390(3)
C15 C 0.2572(5) 0.4743(3) 0.2657(2)
H19 H 0.2359 0.5267 0.2789
C16 C -0.1561(9) 0.3634(5) 0.5261(4)
H20 H -0.1111 0.4134 0.5532
H21 H -0.1350 0.3238 0.5523
H22 H -0.2552 0.3673 0.5187
C17 C -0.1032(7) 0.3403(4) 0.4527(4)
H23 H -0.0070 0.3272 0.4603
H24 H -0.1578 0.2933 0.4234
C18 C -0.1114(6) 0.4039(4) 0.4124(3)
H25 H -0.0641 0.4521 0.4436
H26 H -0.2087 0.4137 0.4013
C19 C -0.0490(6) 0.3856(3) 0.3430(3)
H27 H -0.0962 0.3376 0.3113
H28 H 0.0487 0.3763 0.3536
C20 C -0.0606(5) 0.4526(3) 0.3041(3)
H29 H -0.0118 0.5000 0.3360
H30 H -0.1583 0.4628 0.2956
C21 C -0.0034(5) 0.4381(3) 0.2320(3)
H31 H -0.0591 0.3925 0.1996
C22 C -0.0183(5) 0.5064(3) 0.1957(3)
C23 C 0.0235(5) 0.5012(3) 0.1289(3)
C24 C 0.1982(6) 0.4295(3) 0.0702(3)
H32 H 0.2028 0.4663 0.0404
H33 H 0.2134 0.3776 0.0432
H34 H 0.2687 0.4453 0.1117
C25 C 0.0206(5) 0.5647(3) 0.0971(3)
H35 H 0.0484 0.5595 0.0520
C26 C -0.0236(5) 0.6356(3) 0.1327(3)
C27 C 0.0896(7) 0.7169(3) 0.0714(3)
H36 H 0.0964 0.6745 0.0295
H37 H 0.1716 0.7182 0.1065
C28 C 0.0889(9) 0.7938(4) 0.0494(4)
C29 C -0.0679(5) 0.6452(3) 0.2004(3)
C30 C -0.0642(5) 0.5797(3) 0.2295(3)
H38 H -0.0939 0.5845 0.2742
C31 C -0.1553(12) 0.9079(6) 0.5618(5)
H39 H -0.2281 0.8759 0.5730
H40 H -0.1609 0.9622 0.5861
H41 H -0.0663 0.8907 0.5774
C32 C -0.1721(9) 0.9000(4) 0.4823(4)
H42 H -0.2622 0.9180 0.4675
H43 H -0.1012 0.9350 0.4722
C33 C -0.1626(9) 0.8206(4) 0.4384(4)
H44 H -0.2343 0.7861 0.4484
H45 H -0.0732 0.8026 0.4541
C34 C -0.1769(7) 0.8100(3) 0.3580(3)
H46 H -0.1152 0.8498 0.3478
H47 H -0.2717 0.8195 0.3407
C35 C -0.1440(6) 0.7284(3) 0.3156(3)
H48 H -0.0671 0.7100 0.3434
H49 H -0.2246 0.6915 0.3102
C36 C -0.1056(5) 0.7272(3) 0.2407(3)
H50 H -0.1868 0.7418 0.2119
C37 C 0.0132(5) 0.7884(3) 0.2472(3)
C38 C -0.0071(6) 0.8610(3) 0.2307(3)
C39 C -0.1907(7) 0.9478(4) 0.2191(5)
H51 H -0.1723 0.9689 0.2703
H52 H -0.2895 0.9439 0.2034
H53 H -0.1451 0.9822 0.1955
C40 C 0.1039(6) 0.9188(3) 0.2420(3)
H54 H 0.0893 0.9668 0.2301
C41 C 0.2343(6) 0.9038(3) 0.2710(3)
C42 C 0.3377(7) 1.0346(3) 0.2728(4)
H55 H 0.3993 1.0720 0.3104
H56 H 0.2428 1.0486 0.2772
C43 C 0.3704(7) 1.0425(4) 0.2018(4)
C44 C 0.2612(5) 0.8313(3) 0.2868(3)
C45 C 0.1475(5) 0.7760(3) 0.2744(3)
H57 H 0.1629 0.7275 0.2850
C46 C 0.2775(11) 0.8797(7) 0.6311(5)
H58 H 0.2812 0.9354 0.6526
H59 H 0.3583 0.8579 0.6511
H60 H 0.1948 0.8544 0.6408
C47 C 0.2742(10) 0.8656(5) 0.5464(5)
H61 H 0.2752 0.8094 0.5254
H62 H 0.1877 0.8831 0.5260
C48 C 0.3858(9) 0.9052(5) 0.5277(4)
H63 H 0.4717 0.8832 0.5430
H64 H 0.3915 0.9605 0.5531
C49 C 0.3728(7) 0.8991(3) 0.4455(3)
H65 H 0.2796 0.9114 0.4285
H66 H 0.4385 0.9381 0.4371
C50 C 0.4002(6) 0.8179(3) 0.4027(3)
H67 H 0.3289 0.7798 0.4077
H68 H 0.4895 0.8036 0.4231
C51 C 0.4018(5) 0.8124(3) 0.3218(3)
H69 H 0.4712 0.8531 0.3182
C52 C 0.4440(5) 0.7338(3) 0.2812(3)
C53 C 0.4767(5) 0.7249(3) 0.2110(3)
C54 C 0.5154(8) 0.7846(4) 0.1153(4)
H70 H 0.6119 0.7734 0.1182
H71 H 0.5040 0.8335 0.1014
H72 H 0.4602 0.7427 0.0800
C55 C 0.5150(5) 0.6532(3) 0.1719(3)
H73 H 0.5343 0.6480 0.1251
C56 C 0.5240(5) 0.5895(3) 0.2035(3)
C57 C 0.6045(6) 0.5097(3) 0.0992(3)
H74 H 0.6801 0.5487 0.1013
H75 H 0.5255 0.5195 0.0668
C58 C 0.6493(6) 0.4287(3) 0.0710(3)
C59 C 0.4943(5) 0.5945(3) 0.2731(3)
C60 C 0.4529(5) 0.6663(3) 0.3096(3)
H76 H 0.4295 0.6701 0.3555
N1 N -0.1423(6) 0.1733(3) 0.1479(3)
H77 H -0.1477 0.2237 0.1583
N2 N -0.2662(7) 0.1228(4) 0.1192(5)
H78 H -0.2619 0.0723 0.1086
H79 H -0.3450 0.1428 0.1124
N3 N -0.0264(8) 0.8314(3) 0.0568(3)
H80 H -0.0946 0.8104 0.0720
N4 N -0.0387(10) 0.9053(4) 0.0399(5)
H81 H 0.0292 0.9266 0.0246
H82 H -0.1141 0.9292 0.0448
N5 N 0.3869(8) 0.9765(4) 0.1542(4)
H83 H 0.3796 0.9323 0.1663
N6 N 0.4158(12) 0.9759(5) 0.0848(6)
H84 H 0.4235 1.0195 0.0717
H85 H 0.4259 0.9318 0.0552
N7 N 0.6631(5) 0.3813(3) 0.1151(2)
H86 H 0.6377 0.3962 0.1570
N8 N 0.7178(8) 0.3074(3) 0.0962(3)
H87 H 0.7437 0.2916 0.0545
H88 H 0.7254 0.2779 0.1263
O1 O 0.5628(3) 0.36385(19) 0.2607(2)
O2 O 0.0712(4) 0.28081(18) 0.1937(2)
O3 O -0.0081(7) 0.0735(3) 0.1468(6)
O4 O 0.0634(4) 0.42855(19) 0.09309(19)
O5 O -0.0292(4) 0.70042(19) 0.10112(18)
O6 O 0.1856(8) 0.8181(3) 0.0236(4)
O7 O -0.1396(4) 0.8720(2) 0.2014(2)
O8 O 0.3515(4) 0.9571(2) 0.2844(3)
O9 O 0.3839(7) 1.1083(3) 0.1891(4)
O10 O 0.4712(4) 0.7906(2) 0.1832(2)
O11 O 0.5670(3) 0.51726(18) 0.16875(17)
O12 O 0.6768(5) 0.4092(3) 0.0082(2)
loop_
_geom_bond_atom_site_label_1
_geom_bond_atom_site_label_2
_geom_bond_site_symmetry_1
_geom_bond_site_symmetry_2
C1 H1 1_555 1_555
H2 C1 1_555 1_555
H3 C1 1_555 1_555
C2 C1 1_555 1_555
H4 C2 1_555 1_555
H5 C2 1_555 1_555
C3 C2 1_555 1_555
H6 C3 1_555 1_555
H7 C3 1_555 1_555
C4 C3 1_555 1_555
H8 C4 1_555 1_555
H9 C4 1_555 1_555
C5 C4 1_555 1_555
H10 C5 1_555 1_555
H11 C5 1_555 1_555
C6 C5 1_555 1_555
H12 C6 1_555 1_555
C7 C6 1_555 1_555
C8 C7 1_555 1_555
C9 H13 1_555 1_555
H14 C9 1_555 1_555
H15 C9 1_555 1_555
C10 C8 1_555 1_555
H16 C10 1_555 1_555
C11 C10 1_555 1_555
C12 H17 1_555 1_555
H18 C12 1_555 1_555
C13 C12 1_555 1_555
C14 C11 1_555 1_555
C15 C7 1_555 1_555
H19 C15 1_555 1_555
C16 H20 1_555 1_555
H21 C16 1_555 1_555
H22 C16 1_555 1_555
C17 C16 1_555 1_555
H23 C17 1_555 1_555
H24 C17 1_555 1_555
C18 C17 1_555 1_555
H25 C18 1_555 1_555
H26 C18 1_555 1_555
C19 C18 1_555 1_555
H27 C19 1_555 1_555
H28 C19 1_555 1_555
C20 C19 1_555 1_555
H29 C20 1_555 1_555
H30 C20 1_555 1_555
C21 C14 1_555 1_555
H31 C21 1_555 1_555
C22 C21 1_555 1_555
C23 C22 1_555 1_555
C24 H32 1_555 1_555
H33 C24 1_555 1_555
H34 C24 1_555 1_555
C25 C23 1_555 1_555
H35 C25 1_555 1_555
C26 C25 1_555 1_555
C27 H36 1_555 1_555
H37 C27 1_555 1_555
C28 C27 1_555 1_555
C29 C26 1_555 1_555
C30 C22 1_555 1_555
H38 C30 1_555 1_555
C31 H39 1_555 1_555
H40 C31 1_555 1_555
H41 C31 1_555 1_555
C32 C31 1_555 1_555
H42 C32 1_555 1_555
H43 C32 1_555 1_555
C33 C32 1_555 1_555
H44 C33 1_555 1_555
H45 C33 1_555 1_555
C34 C33 1_555 1_555
H46 C34 1_555 1_555
H47 C34 1_555 1_555
C35 C34 1_555 1_555
H48 C35 1_555 1_555
H49 C35 1_555 1_555
C36 C29 1_555 1_555
H50 C36 1_555 1_555
C37 C36 1_555 1_555
C38 C37 1_555 1_555
C39 H51 1_555 1_555
H52 C39 1_555 1_555
H53 C39 1_555 1_555
C40 C38 1_555 1_555
H54 C40 1_555 1_555
C41 C40 1_555 1_555
C42 H55 1_555 1_555
H56 C42 1_555 1_555
C43 C42 1_555 1_555
C44 C41 1_555 1_555
C45 C37 1_555 1_555
H57 C45 1_555 1_555
C46 H58 1_555 1_555
H59 C46 1_555 1_555
H60 C46 1_555 1_555
C47 C46 1_555 1_555
H61 C47 1_555 1_555
H62 C47 1_555 1_555
C48 C47 1_555 1_555
H63 C48 1_555 1_555
H64 C48 1_555 1_555
C49 C48 1_555 1_555
H65 C49 1_555 1_555
H66 C49 1_555 1_555
C50 C49 1_555 1_555
H67 C50 1_555 1_555
H68 C50 1_555 1_555
C51 C44 1_555 1_555
H69 C51 1_555 1_555
C52 C51 1_555 1_555
C53 C52 1_555 1_555
C54 H70 1_555 1_555
H71 C54 1_555 1_555
H72 C54 1_555 1_555
C55 C53 1_555 1_555
H73 C55 1_555 1_555
C56 C55 1_555 1_555
C57 H74 1_555 1_555
H75 C57 1_555 1_555
C58 C57 1_555 1_555
C59 C6 1_555 1_555
C60 C52 1_555 1_555
H76 C60 1_555 1_555
N1 C13 1_555 1_555
H77 N1 1_555 1_555
N2 N1 1_555 1_555
H78 N2 1_555 1_555
H79 N2 1_555 1_555
N3 C28 1_555 1_555
H80 N3 1_555 1_555
N4 N3 1_555 1_555
H81 N4 1_555 1_555
H82 N4 1_555 1_555
N5 C43 1_555 1_555
H83 N5 1_555 1_555
N6 N5 1_555 1_555
H84 N6 1_555 1_555
H85 N6 1_555 1_555
N7 C58 1_555 1_555
H86 N7 1_555 1_555
N8 N7 1_555 1_555
H87 N8 1_555 1_555
H88 N8 1_555 1_555
O1 C8 1_555 1_555
O2 C11 1_555 1_555
O3 C13 1_555 1_555
O4 C23 1_555 1_555
O5 C26 1_555 1_555
O6 C28 1_555 1_555
O7 C38 1_555 1_555
O8 C41 1_555 1_555
O9 C43 1_555 1_555
O10 C53 1_555 1_555
O11 C56 1_555 1_555
O12 C58 1_555 1_555
C9 O1 1_555 1_555
C12 O2 1_555 1_555
C14 C15 1_555 1_555
C20 C21 1_555 1_555
C24 O4 1_555 1_555
C27 O5 1_555 1_555
C29 C30 1_555 1_555
C35 C36 1_555 1_555
C39 O7 1_555 1_555
C42 O8 1_555 1_555
C44 C45 1_555 1_555
C50 C51 1_555 1_555
C54 O10 1_555 1_555
C56 C59 1_555 1_555
C57 O11 1_555 1_555
C59 C60 1_555 1_555

#END
