
#######################################################################
#
#                 Cambridge Crystallographic Data Centre
#                                CCDC 
#
#######################################################################
#
# If this CIF has been generated from an entry in the Cambridge 
# Structural Database, then it will include bibliographic, chemical, 
# crystal, experimental, refinement or atomic coordinate data resulting 
# from the CCDC's data processing and validation procedures.
#
#######################################################################

data_PINKAA
_chemical_name_common            
2,8,14,20-tetrakis(n-Heptyl)-4,10,16,22-tetramethoxy-6,12,18,24-tetrakis((2-hydrazinyl-2-oxoethyl)oxidanyl)calix(4)arene
_chemical_formula_moiety         'C68 H104 N8 O12'
_chemical_name_systematic        
2,2',2'',2'''-((2,8,14,20-Tetraheptyl-6,12,18,24-tetramethoxypentacyclo[19.3.1.1^3,7^.1^9,13^.1^15,19^]octacosa-1(25),3(28),4,6,9(27),10,12,15(26),16,18,21,23-dodecaene-4,10,16,22-tetrayl)tetrakis(oxy))tetraacetohydrazide
_symmetry_cell_setting           triclinic
_symmetry_space_group_name_H-M   'P -1'
_symmetry_Int_Tables_number      2
_space_group_name_Hall           '-P 1'
loop_
_symmetry_equiv_pos_site_id
_symmetry_equiv_pos_as_xyz
1 x,y,z
2 -x,-y,-z
_cell_length_a                   9.703(2)
_cell_length_b                   17.440(4)
_cell_length_c                   21.669(5)
_cell_angle_alpha                101.879(3)
_cell_angle_beta                 96.624(4)
_cell_angle_gamma                92.916(4)
_cell_volume                     3553.84
_cell_formula_units_Z            2
loop_
_atom_site_label
_atom_site_type_symbol
_atom_site_fract_x
_atom_site_fract_y
_atom_site_fract_z
C1 C 0.8894(7) -0.0524(4) 0.2405(3)
C2 C 0.9172(8) -0.1304(4) 0.2215(4)
C3 C 1.0891(10) -0.2251(5) 0.2211(5)
H1 H 1.0668 -0.2455 0.2570
H2 H 1.1868 -0.2273 0.2183
H3 H 1.0372 -0.2561 0.1829
C4 C 0.8125(8) -0.1891(4) 0.1972(4)
H4 H 0.8343 -0.2406 0.1833
C5 C 0.6750(8) -0.1710(4) 0.1935(4)
C6 C 0.5959(9) -0.3069(4) 0.1599(5)
H5 H 0.6439 -0.3166 0.1990
H6 H 0.6582 -0.3165 0.1277
C7 C 0.4709(11) -0.3616(5) 0.1397(5)
C8 C 0.6378(8) -0.0931(4) 0.2106(4)
C9 C 0.7468(7) -0.0361(4) 0.2329(3)
H7 H 0.7256 0.0160 0.2436
C10 C 0.4886(7) -0.0711(4) 0.2050(4)
H8 H 0.4332 -0.1157 0.1764
C11 C 0.4306(8) -0.0597(4) 0.2681(4)
H9 H 0.4745 -0.0111 0.2950
H10 H 0.3320 -0.0529 0.2603
C12 C 0.4480(9) -0.1244(5) 0.3050(4)
H11 H 0.4037 -0.1735 0.2792
H12 H 0.5462 -0.1311 0.3147
C13 C 0.3838(11) -0.1044(6) 0.3661(5)
H13 H 0.4106 -0.0496 0.3853
H14 H 0.2835 -0.1093 0.3551
C14 C 0.4176(12) -0.1499(8) 0.4140(6)
H15 H 0.5176 -0.1533 0.4198
H16 H 0.3746 -0.2028 0.3984
C15 C 0.3681(13) -0.1142(8) 0.4826(6)
H17 H 0.4102 -0.0610 0.4973
H18 H 0.2681 -0.1110 0.4762
C16 C 0.3967(14) -0.1523(9) 0.5277(7)
H19 H 0.4970 -0.1516 0.5369
H20 H 0.3612 -0.2067 0.5120
C17 C 0.3395(15) -0.1216(9) 0.5887(7)
H21 H 0.4012 -0.0791 0.6142
H22 H 0.3313 -0.1630 0.6116
H23 H 0.2495 -0.1031 0.5795
C18 C 0.4765(7) -0.0015(4) 0.1726(4)
C19 C 0.5205(8) -0.0042(4) 0.1147(4)
C20 C 0.6941(9) -0.0741(5) 0.0630(4)
H24 H 0.6988 -0.0406 0.0332
H25 H 0.7135 -0.1263 0.0435
H26 H 0.7614 -0.0543 0.0997
C21 C 0.5229(8) 0.0612(4) 0.0855(4)
H27 H 0.5540 0.0583 0.0462
C22 C 0.4764(8) 0.1299(4) 0.1185(4)
C23 C 0.5949(9) 0.2163(4) 0.0655(4)
H28 H 0.6092 0.1747 0.0301
H29 H 0.6737 0.2204 0.0982
C24 C 0.5886(11) 0.2910(5) 0.0442(5)
C25 C 0.4283(7) 0.1372(4) 0.1773(4)
C26 C 0.4289(7) 0.0699(4) 0.2023(4)
H30 H 0.3956 0.0723 0.2412
C27 C 0.3890(8) 0.2169(4) 0.2127(4)
H31 H 0.3081 0.2322 0.1878
C28 C 0.3521(8) 0.2149(4) 0.2799(4)
H32 H 0.2710 0.1784 0.2757
H33 H 0.4286 0.1948 0.3031
C29 C 0.3227(10) 0.2925(5) 0.3181(4)
H34 H 0.2297 0.3048 0.3035
H35 H 0.3881 0.3331 0.3114
C30 C 0.3343(12) 0.2931(6) 0.3924(5)
H36 H 0.2541 0.2621 0.3997
H37 H 0.4163 0.2668 0.4038
C31 C 0.3423(14) 0.3684(7) 0.4346(6)
H38 H 0.2611 0.3952 0.4231
H39 H 0.4237 0.3991 0.4284
C32 C 0.3505(14) 0.3660(7) 0.5051(6)
H40 H 0.2680 0.3342 0.5086
H41 H 0.4286 0.3354 0.5133
C33 C 0.3631(17) 0.4320(8) 0.5594(7)
H42 H 0.4403 0.4662 0.5534
H43 H 0.2804 0.4599 0.5529
C34 C 0.3797(17) 0.4318(10) 0.6199(7)
H44 H 0.2904 0.4247 0.6338
H45 H 0.4259 0.4810 0.6432
H46 H 0.4349 0.3897 0.6272
C35 C 0.5088(8) 0.2792(4) 0.2193(4)
C36 C 0.4902(9) 0.3522(4) 0.2051(4)
C37 C 0.3097(11) 0.4392(6) 0.1990(6)
H47 H 0.3215 0.4539 0.2446
H48 H 0.2128 0.4375 0.1831
H49 H 0.3612 0.4770 0.1824
C38 C 0.6010(9) 0.4085(4) 0.2144(4)
H50 H 0.5869 0.4567 0.2035
C39 C 0.7307(9) 0.3941(4) 0.2393(4)
C40 C 0.8372(10) 0.5249(5) 0.2408(5)
H51 H 0.9024 0.5602 0.2728
H52 H 0.7443 0.5404 0.2469
C41 C 0.8656(10) 0.5338(6) 0.1786(6)
C42 C 0.7584(8) 0.3208(4) 0.2548(4)
C43 C 0.6437(8) 0.2654(4) 0.2430(4)
H53 H 0.6581 0.2160 0.2516
C44 C 0.8970(8) 0.3020(4) 0.2836(2)
H54 H 0.9660 0.3433 0.2799
C45 C 0.8988(10) 0.3028(3) 0.3549(3)
H55 H 0.8276 0.2647 0.3606
H56 H 0.9884 0.2884 0.3719
C46 C 0.8720(10) 0.3853(3) 0.3910(3)
H57 H 0.9164 0.4249 0.3726
H58 H 0.7728 0.3915 0.3870
C47 C 0.9302(8) 0.3967(5) 0.4616(3)
H59 H 0.9477 0.4523 0.4804
H60 H 1.0177 0.3724 0.4655
C48 C 0.8253(12) 0.3593(6) 0.4971(3)
H61 H 0.8351 0.3032 0.4910
H62 H 0.7313 0.3669 0.4801
C49 C 0.8519(14) 0.3974(6) 0.5685(3)
H63 H 0.9502 0.3987 0.5837
H64 H 0.8251 0.4510 0.5753
C50 C 0.7672(17) 0.3500(8) 0.6059(4)
H65 H 0.7972 0.2971 0.6007
H66 H 0.6693 0.3466 0.5894
C51 C 0.7883(17) 0.3904(9) 0.6769(4)
H67 H 0.8623 0.3678 0.6987
H68 H 0.7040 0.3830 0.6949
H69 H 0.8118 0.4456 0.6813
C52 C 0.9386(7) 0.2233(4) 0.2458(4)
C53 C 0.9726(8) 0.2170(4) 0.1857(4)
C54 C 1.0199(11) 0.2800(5) 0.1009(5)
H70 H 1.1178 0.2730 0.1043
H71 H 1.0030 0.3279 0.0870
H72 H 0.9704 0.2365 0.0707
C55 C 1.0129(7) 0.1455(4) 0.1509(4)
H73 H 1.0340 0.1418 0.1097
C56 C 1.0206(7) 0.0815(4) 0.1790(3)
C57 C 1.1025(8) 0.0055(4) 0.0859(3)
H74 H 1.1785 0.0446 0.0878
H75 H 1.0249 0.0161 0.0572
C58 C 1.1469(8) -0.0740(5) 0.0619(4)
C59 C 0.9879(7) 0.0839(4) 0.2398(3)
C60 C 0.9451(7) 0.1556(4) 0.2731(4)
H76 H 0.9206 0.1585 0.3137
C61 C 1.0020(7) 0.0114(4) 0.2693(3)
H77 H 1.0893 -0.0100 0.2580
C62 C 1.0142(9) 0.0265(5) 0.3417(4)
H78 H 0.9319 0.0508 0.3552
H79 H 1.0158 -0.0236 0.3545
C63 C 1.1404(10) 0.0777(5) 0.3756(4)
H80 H 1.1326 0.1296 0.3664
H81 H 1.2213 0.0567 0.3578
C64 C 1.1667(15) 0.0869(8) 0.4463(6)
H82 H 1.1631 0.0348 0.4556
H83 H 1.2607 0.1104 0.4605
C65 C 1.0804(15) 0.1298(8) 0.4814(6)
H84 H 0.9852 0.1081 0.4670
H85 H 1.0873 0.1832 0.4751
C66 C 1.1177(18) 0.1306(10) 0.5578(7)
H86 H 1.0386 0.1103 0.5747
H87 H 1.1964 0.1002 0.5655
C67 C 1.1491(19) 0.2085(10) 0.5832(8)
H88 H 1.2227 0.2252 0.5611
H89 H 1.0681 0.2349 0.5709
C68 C 1.1881(19) 0.2391(10) 0.6451(8)
H90 H 1.1659 0.2012 0.6696
H91 H 1.1397 0.2853 0.6579
H92 H 1.2866 0.2529 0.6523
N1 N 0.3508(9) -0.3340(4) 0.1300(4)
H93 H 0.3460 -0.2839 0.1381
N2 N 0.2292(10) -0.3821(5) 0.1071(6)
H94 H 0.2320 -0.4323 0.0988
H95 H 0.1513 -0.3616 0.1013
N3 N 0.4713(10) 0.3269(4) 0.0504(4)
H96 H 0.4027 0.3045 0.0635
N4 N 0.4590(13) 0.4028(5) 0.0353(6)
H97 H 0.5275 0.4253 0.0222
H98 H 0.3832 0.4257 0.0394
N5 N 0.8891(12) 0.4696(5) 0.1376(5)
H99 H 0.8929 0.4259 0.1500
N6 N 0.9081(17) 0.4708(7) 0.0736(8)
H100 H 0.9046 0.5141 0.0605
H101 H 0.9232 0.4282 0.0481
N7 N 1.1588(8) -0.1227(4) 0.1020(3)
H102 H 1.1347 -0.1082 0.1393
N8 N 1.2096(11) -0.1972(4) 0.0848(4)
H103 H 1.2341 -0.2124 0.0476
H104 H 1.2162 -0.2275 0.1116
O1 O 1.0540(5) -0.1458(3) 0.2288(3)
O2 O 0.5639(5) -0.2282(3) 0.1697(3)
O3 O 0.4812(9) -0.4327(4) 0.1273(7)
O4 O 0.5600(6) -0.0757(3) 0.0817(2)
O5 O 0.4722(6) 0.1964(3) 0.0898(2)
O6 O 0.6866(10) 0.3180(4) 0.0206(4)
O7 O 0.3596(6) 0.3633(3) 0.1795(3)
O8 O 0.8472(6) 0.4474(3) 0.2502(3)
O9 O 0.8775(10) 0.6012(4) 0.1643(5)
O10 O 0.9722(6) 0.2840(3) 0.1627(3)
O11 O 1.0614(5) 0.0102(2) 0.1488(2)
O12 O 1.1777(7) -0.0911(3) 0.0065(3)
loop_
_geom_bond_atom_site_label_1
_geom_bond_atom_site_label_2
_geom_bond_site_symmetry_1
_geom_bond_site_symmetry_2
C1 C2 1_555 1_555
C2 C4 1_555 1_555
C3 H1 1_555 1_555
H2 C3 1_555 1_555
H3 C3 1_555 1_555
C4 H4 1_555 1_555
C5 C4 1_555 1_555
C6 H5 1_555 1_555
H6 C6 1_555 1_555
C7 C6 1_555 1_555
C8 C5 1_555 1_555
C9 C1 1_555 1_555
H7 C9 1_555 1_555
C10 C8 1_555 1_555
H8 C10 1_555 1_555
C11 C10 1_555 1_555
H9 C11 1_555 1_555
H10 C11 1_555 1_555
C12 C11 1_555 1_555
H11 C12 1_555 1_555
H12 C12 1_555 1_555
C13 C12 1_555 1_555
H13 C13 1_555 1_555
H14 C13 1_555 1_555
C14 C13 1_555 1_555
H15 C14 1_555 1_555
H16 C14 1_555 1_555
C15 C14 1_555 1_555
H17 C15 1_555 1_555
H18 C15 1_555 1_555
C16 C15 1_555 1_555
H19 C16 1_555 1_555
H20 C16 1_555 1_555
C17 C16 1_555 1_555
H21 C17 1_555 1_555
H22 C17 1_555 1_555
H23 C17 1_555 1_555
C18 C10 1_555 1_555
C19 C18 1_555 1_555
C20 H24 1_555 1_555
H25 C20 1_555 1_555
H26 C20 1_555 1_555
C21 C19 1_555 1_555
H27 C21 1_555 1_555
C22 C21 1_555 1_555
C23 H28 1_555 1_555
H29 C23 1_555 1_555
C24 C23 1_555 1_555
C25 C22 1_555 1_555
C26 C18 1_555 1_555
H30 C26 1_555 1_555
C27 C25 1_555 1_555
H31 C27 1_555 1_555
C28 C27 1_555 1_555
H32 C28 1_555 1_555
H33 C28 1_555 1_555
C29 C28 1_555 1_555
H34 C29 1_555 1_555
H35 C29 1_555 1_555
C30 C29 1_555 1_555
H36 C30 1_555 1_555
H37 C30 1_555 1_555
C31 C30 1_555 1_555
H38 C31 1_555 1_555
H39 C31 1_555 1_555
C32 C31 1_555 1_555
H40 C32 1_555 1_555
H41 C32 1_555 1_555
C33 C32 1_555 1_555
H42 C33 1_555 1_555
H43 C33 1_555 1_555
C34 C33 1_555 1_555
H44 C34 1_555 1_555
H45 C34 1_555 1_555
H46 C34 1_555 1_555
C35 C27 1_555 1_555
C36 C35 1_555 1_555
C37 H47 1_555 1_555
H48 C37 1_555 1_555
H49 C37 1_555 1_555
C38 C36 1_555 1_555
H50 C38 1_555 1_555
C39 C38 1_555 1_555
C40 H51 1_555 1_555
H52 C40 1_555 1_555
C41 C40 1_555 1_555
C42 C39 1_555 1_555
C43 C35 1_555 1_555
H53 C43 1_555 1_555
C44 C42 1_555 1_555
H54 C44 1_555 1_555
C45 C44 1_555 1_555
H55 C45 1_555 1_555
H56 C45 1_555 1_555
C46 C45 1_555 1_555
H57 C46 1_555 1_555
H58 C46 1_555 1_555
C47 C46 1_555 1_555
H59 C47 1_555 1_555
H60 C47 1_555 1_555
C48 C47 1_555 1_555
H61 C48 1_555 1_555
H62 C48 1_555 1_555
C49 C48 1_555 1_555
H63 C49 1_555 1_555
H64 C49 1_555 1_555
C50 C49 1_555 1_555
H65 C50 1_555 1_555
H66 C50 1_555 1_555
C51 C50 1_555 1_555
H67 C51 1_555 1_555
H68 C51 1_555 1_555
H69 C51 1_555 1_555
C52 C44 1_555 1_555
C53 C52 1_555 1_555
C54 H70 1_555 1_555
H71 C54 1_555 1_555
H72 C54 1_555 1_555
C55 C53 1_555 1_555
H73 C55 1_555 1_555
C56 C55 1_555 1_555
C57 H74 1_555 1_555
H75 C57 1_555 1_555
C58 C57 1_555 1_555
C59 C56 1_555 1_555
C60 C52 1_555 1_555
H76 C60 1_555 1_555
C61 C1 1_555 1_555
H77 C61 1_555 1_555
C62 C61 1_555 1_555
H78 C62 1_555 1_555
H79 C62 1_555 1_555
C63 C62 1_555 1_555
H80 C63 1_555 1_555
H81 C63 1_555 1_555
C64 C63 1_555 1_555
H82 C64 1_555 1_555
H83 C64 1_555 1_555
C65 C64 1_555 1_555
H84 C65 1_555 1_555
H85 C65 1_555 1_555
C66 C65 1_555 1_555
H86 C66 1_555 1_555
H87 C66 1_555 1_555
C67 C66 1_555 1_555
H88 C67 1_555 1_555
H89 C67 1_555 1_555
C68 C67 1_555 1_555
H90 C68 1_555 1_555
H91 C68 1_555 1_555
H92 C68 1_555 1_555
N1 C7 1_555 1_555
H93 N1 1_555 1_555
N2 N1 1_555 1_555
H94 N2 1_555 1_555
H95 N2 1_555 1_555
N3 C24 1_555 1_555
H96 N3 1_555 1_555
N4 N3 1_555 1_555
H97 N4 1_555 1_555
H98 N4 1_555 1_555
N5 C41 1_555 1_555
H99 N5 1_555 1_555
N6 N5 1_555 1_555
H100 N6 1_555 1_555
H101 N6 1_555 1_555
N7 C58 1_555 1_555
H102 N7 1_555 1_555
N8 N7 1_555 1_555
H103 N8 1_555 1_555
H104 N8 1_555 1_555
O1 C2 1_555 1_555
O2 C5 1_555 1_555
O3 C7 1_555 1_555
O4 C19 1_555 1_555
O5 C22 1_555 1_555
O6 C24 1_555 1_555
O7 C36 1_555 1_555
O8 C39 1_555 1_555
O9 C41 1_555 1_555
O10 C53 1_555 1_555
O11 C56 1_555 1_555
O12 C58 1_555 1_555
C3 O1 1_555 1_555
C6 O2 1_555 1_555
C8 C9 1_555 1_555
C20 O4 1_555 1_555
C23 O5 1_555 1_555
C25 C26 1_555 1_555
C37 O7 1_555 1_555
C40 O8 1_555 1_555
C42 C43 1_555 1_555
C54 O10 1_555 1_555
C57 O11 1_555 1_555
C59 C60 1_555 1_555
C59 C61 1_555 1_555

#END
