
#######################################################################
#
#                 Cambridge Crystallographic Data Centre
#                                CCDC 
#
#######################################################################
#
# If this CIF has been generated from an entry in the Cambridge 
# Structural Database, then it will include bibliographic, chemical, 
# crystal, experimental, refinement or atomic coordinate data resulting 
# from the CCDC's data processing and validation procedures.
#
#######################################################################

data_PINMEE
_chemical_formula_moiety         'C12 H20 O6'
_chemical_name_systematic        (+-)-1,2:4,5-Di-O-isopropylidene-myo-inositol
_symmetry_cell_setting           monoclinic
_symmetry_space_group_name_H-M   'C 2/c'
_symmetry_Int_Tables_number      15
_space_group_name_Hall           '-C 2yn'
loop_
_symmetry_equiv_pos_site_id
_symmetry_equiv_pos_as_xyz
1 x,y,z
2 1/2+x,1/2+y,z
3 -x,y,1/2-z
4 1/2-x,1/2+y,1/2-z
5 -x,-y,-z
6 1/2-x,1/2-y,-z
7 x,-y,1/2+z
8 1/2+x,1/2-y,1/2+z
_cell_length_a                   22.587(3)
_cell_length_b                   5.4204(3)
_cell_length_c                   22.174(4)
_cell_angle_alpha                90
_cell_angle_beta                 110.406(7)
_cell_angle_gamma                90
_cell_volume                     2544.41
_exptl_crystal_colour            colorless
_chemical_melting_point          '168.5 deg.C'
_cell_formula_units_Z            8
loop_
_atom_site_label
_atom_site_type_symbol
_atom_site_fract_x
_atom_site_fract_y
_atom_site_fract_z
O1 O 0.87460(5) 0.5554(2) 0.41753(5)
O2 O 0.91888(5) 0.9148(2) 0.39973(5)
O3 O 0.99256(5) 1.0358(3) 0.32846(5)
O4 O 0.89883(5) 0.9031(2) 0.19901(5)
O5 O 0.81158(5) 0.6574(2) 0.18572(5)
O6 O 0.80124(5) 0.3163(2) 0.28454(5)
C1 C 0.89295(7) 0.5206(3) 0.36219(7)
C2 C 0.94372(7) 0.7194(3) 0.37260(7)
C3 C 0.95730(7) 0.8134(3) 0.31370(7)
C4 C 0.89479(6) 0.8457(3) 0.26078(7)
C5 C 0.85925(7) 0.6070(3) 0.24701(7)
C6 C 0.83483(7) 0.5431(3) 0.29973(7)
C7 C 0.89086(7) 0.8027(3) 0.44141(7)
C8 C 0.93756(9) 0.7866(4) 0.50957(8)
C9 C 0.83253(8) 0.9484(4) 0.43666(8)
C10 C 0.84165(7) 0.8078(3) 0.15107(7)
C11 C 0.79760(9) 1.0142(4) 0.1201(1)
C12 C 0.86110(9) 0.6536(4) 0.10465(8)
H1 H 0.9098(6) 0.356(3) 0.3647(7)
H2 H 0.9824(6) 0.659(3) 0.4052(6)
H3 H 0.9814(7) 0.678(3) 0.3013(7)
H4 H 0.8697(6) 0.977(3) 0.2713(6)
H5 H 0.8866(6) 0.473(3) 0.2431(6)
H6 H 0.8071(6) 0.679(3) 0.3040(7)
H7 H 1.0235(9) 1.017(4) 0.3175(9)
H8 H 0.7738(9) 0.298(4) 0.3028(9)
H9 H 0.9764(8) 0.704(4) 0.5092(8)
H10 H 0.9465(8) 0.955(4) 0.5265(8)
H11 H 0.9180(8) 0.695(4) 0.5361(8)
H12 H 0.8441(8) 1.118(4) 0.4525(8)
H13 H 0.8128(8) 0.867(4) 0.4669(8)
H14 H 0.8031(8) 0.954(4) 0.3917(8)
H15 H 0.7909(9) 1.122(4) 0.1546(9)
H16 H 0.7576(9) 0.945(4) 0.0917(9)
H17 H 0.8154(9) 1.111(4) 0.0938(9)
H18 H 0.8871(8) 0.519(4) 0.1274(8)
H19 H 0.8851(9) 0.756(4) 0.0837(9)
H20 H 0.8255(8) 0.589(4) 0.0716(8)
loop_
_geom_bond_atom_site_label_1
_geom_bond_atom_site_label_2
_geom_bond_site_symmetry_1
_geom_bond_site_symmetry_2
O1 C1 1_555 1_555
O2 C2 1_555 1_555
O3 C3 1_555 1_555
O4 C4 1_555 1_555
O5 C5 1_555 1_555
O6 C6 1_555 1_555
C1 C2 1_555 1_555
C2 C3 1_555 1_555
C3 C4 1_555 1_555
C4 C5 1_555 1_555
C5 C6 1_555 1_555
C6 C1 1_555 1_555
C7 O1 1_555 1_555
C8 C7 1_555 1_555
C9 C7 1_555 1_555
C10 O4 1_555 1_555
C11 C10 1_555 1_555
C12 C10 1_555 1_555
H1 C1 1_555 1_555
H2 C2 1_555 1_555
H3 C3 1_555 1_555
H4 C4 1_555 1_555
H5 C5 1_555 1_555
H6 C6 1_555 1_555
H7 O3 1_555 1_555
H8 O6 1_555 1_555
H9 C8 1_555 1_555
H10 C8 1_555 1_555
H11 C8 1_555 1_555
H12 C9 1_555 1_555
H13 C9 1_555 1_555
H14 C9 1_555 1_555
H15 C11 1_555 1_555
H16 C11 1_555 1_555
H17 C11 1_555 1_555
H18 C12 1_555 1_555
H19 C12 1_555 1_555
H20 C12 1_555 1_555
O2 C7 1_555 1_555
O5 C10 1_555 1_555

#END
