
#######################################################################
#
#                 Cambridge Crystallographic Data Centre
#                                CCDC 
#
#######################################################################
#
# If this CIF has been generated from an entry in the Cambridge 
# Structural Database, then it will include bibliographic, chemical, 
# crystal, experimental, refinement or atomic coordinate data resulting 
# from the CCDC's data processing and validation procedures.
#
#######################################################################

data_PINNOP02
_chemical_name_common            4,5-Diazafluoren-9-one
_chemical_formula_moiety         'C11 H6 N2 O1'
_chemical_name_systematic        
5H-Pyrido[3',2':4,5]cyclopenta[1,2-b]pyridin-5-one
_symmetry_cell_setting           monoclinic
_symmetry_space_group_name_H-M   'P 21/c'
_symmetry_Int_Tables_number      14
_space_group_name_Hall           '-P 2ybc'
loop_
_symmetry_equiv_pos_site_id
_symmetry_equiv_pos_as_xyz
1 x,y,z
2 -x,1/2+y,1/2-z
3 -x,-y,-z
4 x,1/2-y,1/2+z
_cell_length_a                   9.8958(9)
_cell_length_b                   12.3746(12)
_cell_length_c                   6.6687(6)
_cell_angle_alpha                90
_cell_angle_beta                 99.509(2)
_cell_angle_gamma                90
_cell_volume                     805.405
_exptl_crystal_colour            yellow
_exptl_crystal_description       block
_cell_formula_units_Z            4
loop_
_atom_site_label
_atom_site_type_symbol
_atom_site_fract_x
_atom_site_fract_y
_atom_site_fract_z
C1 C 0.51680(11) 0.79743(9) 0.12624(15)
H1 H 0.4523(15) 0.8568(13) 0.098(2)
C2 C 0.47533(11) 0.68949(9) 0.12924(16)
H2 H 0.3789(17) 0.6706(12) 0.109(2)
C3 C 0.57321(11) 0.60843(8) 0.16704(15)
H3 H 0.5427(15) 0.5336(12) 0.173(2)
N1 N 0.70986(9) 0.62466(7) 0.19928(13)
C4 C 0.74684(10) 0.72799(8) 0.19748(14)
C5 C 0.88908(10) 0.77037(8) 0.23133(14)
N2 N 1.00258(9) 0.71153(7) 0.26735(13)
C6 C 1.11965(10) 0.76943(8) 0.29339(16)
H4 H 1.2033(15) 0.7269(12) 0.322(2)
C7 C 1.12557(10) 0.88192(9) 0.28403(16)
H5 H 1.2174(17) 0.9164(12) 0.303(2)
C8 C 1.00481(10) 0.94228(9) 0.24624(15)
C9 C 0.88428(10) 0.88371(8) 0.21963(15)
H6 H 1.0072(14) 1.0187(13) 0.237(2)
C10 C 0.73802(11) 0.91855(8) 0.17676(15)
O1 O 0.69332(8) 1.00996(6) 0.15723(12)
C11 C 0.65620(11) 0.81580(8) 0.16393(15)
loop_
_geom_bond_atom_site_label_1
_geom_bond_atom_site_label_2
_geom_bond_site_symmetry_1
_geom_bond_site_symmetry_2
C1 H1 1_555 1_555
C2 C1 1_555 1_555
H2 C2 1_555 1_555
C3 C2 1_555 1_555
H3 C3 1_555 1_555
N1 C3 1_555 1_555
C4 N1 1_555 1_555
C5 C4 1_555 1_555
N2 C5 1_555 1_555
C6 N2 1_555 1_555
H4 C6 1_555 1_555
C7 C6 1_555 1_555
H5 C7 1_555 1_555
C8 C7 1_555 1_555
C9 C5 1_555 1_555
H6 C8 1_555 1_555
C10 C9 1_555 1_555
O1 C10 1_555 1_555
C11 C1 1_555 1_555
C4 C11 1_555 1_555
C8 C9 1_555 1_555
C10 C11 1_555 1_555

#END
