
#######################################################################
#
#                 Cambridge Crystallographic Data Centre
#                                CCDC 
#
#######################################################################
#
# If this CIF has been generated from an entry in the Cambridge 
# Structural Database, then it will include bibliographic, chemical, 
# crystal, experimental, refinement or atomic coordinate data resulting 
# from the CCDC's data processing and validation procedures.
#
#######################################################################

data_PINOLH
_chemical_name_common            
'2,3-Dimethyl-2,3-butanediol hexahydrate clathrate'
_chemical_formula_moiety         'C6 H14 O2,6(H2 O1)'
_chemical_name_systematic        'Pinacol hexahydrate clathrate'
_symmetry_cell_setting           tetragonal
_symmetry_space_group_name_H-M   'P 42/m n m'
_symmetry_Int_Tables_number      136
_space_group_name_Hall           '-P 4n 2n'
loop_
_symmetry_equiv_pos_site_id
_symmetry_equiv_pos_as_xyz
1 x,y,z
2 1/2-y,1/2+x,1/2+z
3 1/2+x,1/2-y,1/2-z
4 -x,-y,z
5 y,x,-z
6 1/2+y,1/2-x,1/2+z
7 1/2-x,1/2+y,1/2-z
8 -y,-x,-z
9 -x,-y,-z
10 1/2+y,1/2-x,1/2-z
11 1/2-x,1/2+y,1/2+z
12 x,y,-z
13 -y,-x,z
14 1/2-y,1/2+x,1/2-z
15 1/2+x,1/2-y,1/2+z
16 y,x,z
_cell_length_a                   6.398(3)
_cell_length_b                   6.398(3)
_cell_length_c                   15.926(8)
_cell_angle_alpha                90
_cell_angle_beta                 90
_cell_angle_gamma                90
_cell_volume                     651.921
_chemical_melting_point          45deg.C
_cell_formula_units_Z            2
loop_
_atom_site_label
_atom_site_type_symbol
_atom_site_fract_x
_atom_site_fract_y
_atom_site_fract_z
C1 C 0.3838(7) 0.5254(8) 0.5000
C2 C 0.3339(20) 0.6598(17) 0.4227(5)
O1 O 0.2683(6) 0.3321(6) 0.5000
H1 H 0.172 0.634 0.421
H2 H 0.354 0.790 0.411
H3 H 0.377 0.584 0.369
H4 H 0.233 0.296 0.450
C1C C 0.6162(7) 0.4746(8) 0.5000
C1G C 0.4746(8) 0.6162(7) 0.5000
C1D C 0.5254(8) 0.3838(7) 0.5000
C2C C 0.6661(20) 0.3402(17) 0.4227(5)
C2D C 0.6598(17) 0.3339(20) 0.5773(5)
C2H C 0.6661(20) 0.3402(17) 0.5773(5)
C2O C 0.6598(17) 0.3339(20) 0.4227(5)
O1C O 0.7317(6) 0.6679(6) 0.5000
C2G C 0.3402(17) 0.6661(20) 0.5773(5)
C2K C 0.3339(20) 0.6598(17) 0.5773(5)
C2L C 0.3402(17) 0.6661(20) 0.4227(5)
O1D O 0.3321(6) 0.2683(6) 0.5000
H4D H 0.296 0.233 0.550
H4K H 0.233 0.296 0.550
H4O H 0.296 0.233 0.450
H1L H 0.366 0.828 0.421
H2L H 0.210 0.646 0.411
H3L H 0.416 0.623 0.369
O1G O 0.6679(6) 0.7317(6) 0.5000
H4C H 0.767 0.704 0.450
H4G H 0.704 0.767 0.550
H4H H 0.767 0.704 0.550
H4L H 0.704 0.767 0.450
H1G H 0.366 0.828 0.579
H1K H 0.172 0.634 0.579
H2G H 0.210 0.646 0.589
H2K H 0.354 0.790 0.589
H3G H 0.416 0.623 0.631
H3K H 0.377 0.584 0.631
H1O H 0.634 0.172 0.421
H1C H 0.828 0.366 0.421
H2O H 0.790 0.354 0.411
H2C H 0.646 0.210 0.411
H3O H 0.584 0.377 0.369
H3C H 0.623 0.416 0.369
H1H H 0.828 0.366 0.579
H1D H 0.634 0.172 0.579
H2H H 0.646 0.210 0.589
H2D H 0.790 0.354 0.589
H3H H 0.623 0.416 0.631
H3D H 0.584 0.377 0.631
O2 O 0.1556(4) 0.1556(5) 0.3414(1)
H5 H 0.208 0.208 0.397
H7 H 0.265 0.121 0.315
H7O H 0.121 0.265 0.315
O3 O 0.0000 0.5000 0.2500
H8 H 0.057 0.395 0.278
H8C H -0.057 0.605 0.278
H8I H -0.105 0.443 0.222
H8M H 0.105 0.557 0.222
H6? H 0.045 0.045 0.341
loop_
_geom_bond_atom_site_label_1
_geom_bond_atom_site_label_2
_geom_bond_site_symmetry_1
_geom_bond_site_symmetry_2
C1 C2 1_555 1_555
C2 H1 1_555 1_555
O1 C1 1_555 1_555
O2 H5 1_555 1_555
O3 H8 1_555 1_555
H1 C2L 1_555 1_555
H2 C2 1_555 1_555
H3 C2 1_555 1_555
H4 O1 1_555 1_555
H7 O2 1_555 1_555
C1C C1 1_555 1_555
C1G C1 1_555 1_555
C1D C1 1_555 1_555
C2C C1C 1_555 1_555
C2D C1C 1_555 1_555
C2H C1C 1_555 1_555
C2O C1C 1_555 1_555
O1C C1C 1_555 1_555
C2G C1 1_555 1_555
C2K C1 1_555 1_555
C2L C1 1_555 1_555
O1D C1 1_555 1_555
H4D O1 1_555 1_555
H4K O1 1_555 1_555
H4O O1 1_555 1_555
H1L C2 1_555 1_555
H2L C2 1_555 1_555
H3L C2 1_555 1_555
O1G C1C 1_555 1_555
H4C O1C 1_555 1_555
H4G O1C 1_555 1_555
H4H O1C 1_555 1_555
H4L O1C 1_555 1_555
H1G C2G 1_555 1_555
H1K C2G 1_555 1_555
H2G C2G 1_555 1_555
H2K C2G 1_555 1_555
H3G C2G 1_555 1_555
H3K C2G 1_555 1_555
H1O C2C 1_555 1_555
H1C C2C 1_555 1_555
H2O C2C 1_555 1_555
H2C C2C 1_555 1_555
H3O C2C 1_555 1_555
H3C C2C 1_555 1_555
H1H C2D 1_555 1_555
H1D C2D 1_555 1_555
H2H C2D 1_555 1_555
H2D C2D 1_555 1_555
H3H C2D 1_555 1_555
H3D C2D 1_555 1_555
H7O O2 1_555 1_555
H8C O3 1_555 1_555
H8I O3 1_555 1_555
H8M O3 1_555 1_555
C2 C1G 1_555 1_555
C2 C2L 1_555 1_555
O1 C1D 1_555 1_555
O1 O1D 1_555 1_555
H1 H2L 1_555 1_555
H2 C2L 1_555 1_555
H2 H1L 1_555 1_555
H3 C2L 1_555 1_555
H3 H3L 1_555 1_555
H4 O1D 1_555 1_555
H4 H4O 1_555 1_555
C1C C1G 1_555 1_555
C1C C1D 1_555 1_555
C1G C1D 1_555 1_555
C1G C2G 1_555 1_555
C1G C2L 1_555 1_555
C1G O1G 1_555 1_555
C1G O1C 1_555 1_555
C1G C2K 1_555 1_555
C1D C2D 1_555 1_555
C1D C2O 1_555 1_555
C1D O1D 1_555 1_555
C1D C2C 1_555 1_555
C1D C2H 1_555 1_555
C2C C2O 1_555 1_555
C2D C2H 1_555 1_555
C2H H1H 1_555 1_555
C2H H2H 1_555 1_555
C2H H3H 1_555 1_555
C2H H1D 1_555 1_555
C2H H2D 1_555 1_555
C2H H3D 1_555 1_555
C2O H1O 1_555 1_555
C2O H2O 1_555 1_555
C2O H3O 1_555 1_555
C2O H1C 1_555 1_555
C2O H2C 1_555 1_555
C2O H3C 1_555 1_555
O1C O1G 1_555 1_555
C2G C2K 1_555 1_555
C2K H1K 1_555 1_555
C2K H2K 1_555 1_555
C2K H3K 1_555 1_555
C2K H1G 1_555 1_555
C2K H2G 1_555 1_555
C2K H3G 1_555 1_555
C2L H1L 1_555 1_555
C2L H2L 1_555 1_555
C2L H3L 1_555 1_555
O1D H4D 1_555 1_555
O1D H4O 1_555 1_555
O1D H4K 1_555 1_555
H4D H4K 1_555 1_555
O1G H4G 1_555 1_555
O1G H4L 1_555 1_555
O1G H4C 1_555 1_555
O1G H4H 1_555 1_555
H4C H4L 1_555 1_555
H4G H4H 1_555 1_555
H1G H2K 1_555 1_555
H1K H2G 1_555 1_555
H3G H3K 1_555 1_555
H1O H2C 1_555 1_555
H1C H2O 1_555 1_555
H3O H3C 1_555 1_555
H1H H2D 1_555 1_555
H1D H2H 1_555 1_555
H3H H3D 1_555 1_555

#END
