
#######################################################################
#
#                 Cambridge Crystallographic Data Centre
#                                CCDC 
#
#######################################################################
#
# If this CIF has been generated from an entry in the Cambridge 
# Structural Database, then it will include bibliographic, chemical, 
# crystal, experimental, refinement or atomic coordinate data resulting 
# from the CCDC's data processing and validation procedures.
#
#######################################################################

data_PINSEN
_chemical_formula_moiety         'C19 H21 Br1 N4 O6'
_chemical_name_systematic        
't-butyl {5-bromo-1-methyl-3-[(3-methyl-4-nitro-1,2-oxazol-5-yl)methyl]-2-oxo-2,3-dihydro-1H-indol-3-yl}carbamate'
_symmetry_cell_setting           monoclinic
_symmetry_space_group_name_H-M   'P 21/n'
_symmetry_Int_Tables_number      14
_space_group_name_Hall           '-P 2yn'
loop_
_symmetry_equiv_pos_site_id
_symmetry_equiv_pos_as_xyz
1 x,y,z
2 1/2-x,1/2+y,1/2-z
3 -x,-y,-z
4 1/2+x,1/2-y,1/2+z
_cell_length_a                   12.391(4)
_cell_length_b                   9.664(4)
_cell_length_c                   19.857(7)
_cell_angle_alpha                90
_cell_angle_beta                 107.030(5)
_cell_angle_gamma                90
_cell_volume                     2273.55
_exptl_crystal_colour            white
_exptl_crystal_description       block
_cell_formula_units_Z            4
loop_
_atom_site_label
_atom_site_type_symbol
_atom_site_fract_x
_atom_site_fract_y
_atom_site_fract_z
Br1 Br 0.47369(4) 0.60205(4) 1.12134(2)
C1 C 0.3299(2) 0.9235(3) 0.94535(13)
C2 C 0.3628(2) 0.9678(3) 1.01429(14)
H1 H 0.3562 1.0601 1.0258
C3 C 0.4060(3) 0.8690(3) 1.06590(15)
H2 H 0.4282 0.8951 1.1130
C4 C 0.4164(2) 0.7332(3) 1.04843(14)
C5 C 0.3856(2) 0.6890(3) 0.97876(13)
H3 H 0.3948 0.5974 0.9671
C6 C 0.3408(2) 0.7868(3) 0.92762(12)
C7 C 0.2916(2) 0.7708(3) 0.84872(12)
C8 C 0.2640(2) 0.9230(3) 0.82584(13)
C9 C 0.2609(3) 1.1511(3) 0.88309(16)
H4 H 0.2187 1.1786 0.8363
H5 H 0.3313 1.2001 0.8970
H6 H 0.2184 1.1722 0.9152
C10 C 0.1808(2) 0.6860(3) 0.82969(14)
H7 H 0.1420 0.6969 0.7799
H8 H 0.1986 0.5887 0.8385
C11 C 0.1050(2) 0.7307(3) 0.87120(14)
C12 C 0.0828(2) 0.6893(3) 0.93048(15)
C13 C 0.0092(3) 0.7885(4) 0.94574(17)
C14 C -0.0444(4) 0.7987(4) 1.0041(2)
H9 H -0.0860 0.8837 0.9997
H10 H 0.0132 0.7970 1.0486
H11 H -0.0947 0.7220 1.0014
C15 C 0.4578(2) 0.7756(3) 0.80929(14)
C16 C 0.6138(3) 0.7579(4) 0.75732(18)
C17 C 0.6426(3) 0.6413(5) 0.7143(2)
H12 H 0.6579 0.5585 0.7422
H13 H 0.7081 0.6662 0.7005
H14 H 0.5801 0.6256 0.6731
C18 C 0.5853(4) 0.8898(4) 0.7151(2)
H15 H 0.5205 0.8747 0.6752
H16 H 0.6482 0.9169 0.6991
H17 H 0.5691 0.9616 0.7441
C19 C 0.7053(3) 0.7764(5) 0.8256(2)
H18 H 0.6870 0.8533 0.8509
H19 H 0.7757 0.7939 0.8162
H20 H 0.7116 0.6940 0.8534
N1 N 0.28261(18) 1.0026(2) 0.88426(10)
N2 N -0.0134(2) 0.8841(3) 0.89805(17)
N3 N 0.1294(3) 0.5700(3) 0.97168(17)
N4 N 0.36429(18) 0.7082(2) 0.81267(10)
H21 H 0.3482 0.6283 0.7934
O1 O 0.22659(16) 0.96147(19) 0.76489(9)
O2 O 0.04710(17) 0.8478(2) 0.84972(11)
O3 O 0.1195(3) 0.5631(3) 1.03096(15)
O4 O 0.1753(2) 0.4817(3) 0.94594(14)
O5 O 0.48730(18) 0.8858(2) 0.83711(12)
O6 O 0.51113(15) 0.7025(2) 0.77106(10)
loop_
_geom_bond_atom_site_label_1
_geom_bond_atom_site_label_2
_geom_bond_site_symmetry_1
_geom_bond_site_symmetry_2
Br1 C4 1_555 1_555
C1 C2 1_555 1_555
C2 H1 1_555 1_555
C3 C2 1_555 1_555
H2 C3 1_555 1_555
C4 C3 1_555 1_555
C5 C4 1_555 1_555
H3 C5 1_555 1_555
C6 C1 1_555 1_555
C7 C6 1_555 1_555
C8 C7 1_555 1_555
C9 H4 1_555 1_555
H5 C9 1_555 1_555
H6 C9 1_555 1_555
C10 C7 1_555 1_555
H7 C10 1_555 1_555
H8 C10 1_555 1_555
C11 C10 1_555 1_555
C12 C11 1_555 1_555
C13 C12 1_555 1_555
C14 C13 1_555 1_555
H9 C14 1_555 1_555
H10 C14 1_555 1_555
H11 C14 1_555 1_555
C15 N4 1_555 1_555
C16 C17 1_555 1_555
C17 H12 1_555 1_555
H13 C17 1_555 1_555
H14 C17 1_555 1_555
C18 C16 1_555 1_555
H15 C18 1_555 1_555
H16 C18 1_555 1_555
H17 C18 1_555 1_555
C19 C16 1_555 1_555
H18 C19 1_555 1_555
H19 C19 1_555 1_555
H20 C19 1_555 1_555
N1 C1 1_555 1_555
N2 C13 1_555 1_555
N3 C12 1_555 1_555
N4 C7 1_555 1_555
H21 N4 1_555 1_555
O1 C8 1_555 1_555
O2 C11 1_555 1_555
O3 N3 1_555 1_555
O4 N3 1_555 1_555
O5 C15 1_555 1_555
O6 C15 1_555 1_555
C5 C6 1_555 1_555
C8 N1 1_555 1_555
C9 N1 1_555 1_555
C16 O6 1_555 1_555
N2 O2 1_555 1_555

#END
