
#######################################################################
#
#                 Cambridge Crystallographic Data Centre
#                                CCDC 
#
#######################################################################
#
# If this CIF has been generated from an entry in the Cambridge 
# Structural Database, then it will include bibliographic, chemical, 
# crystal, experimental, refinement or atomic coordinate data resulting 
# from the CCDC's data processing and validation procedures.
#
#######################################################################

data_PIPGIH
_chemical_formula_moiety         'C56 H43 N3 O4,0.64(C1 H2 Cl2),0.36(C1 H4 O1)'
_chemical_name_systematic        
'(9-hexyl-9H-carbazole-3,6-diyl)bis{[4-(10H-phenoxazin-10-yl)phenyl]methanone} dichloromethane methanol solvate'
_symmetry_cell_setting           monoclinic
_symmetry_space_group_name_H-M   'P 21/c'
_symmetry_Int_Tables_number      14
_space_group_name_Hall           '-P 2ybc'
loop_
_symmetry_equiv_pos_site_id
_symmetry_equiv_pos_as_xyz
1 x,y,z
2 -x,1/2+y,1/2-z
3 -x,-y,-z
4 x,1/2-y,1/2+z
_cell_length_a                   7.1750(6)
_cell_length_b                   18.3221(16)
_cell_length_c                   33.824(3)
_cell_angle_alpha                90
_cell_angle_beta                 91.414(2)
_cell_angle_gamma                90
_cell_volume                     4445.19
_exptl_crystal_description       needle
_cell_formula_units_Z            4
loop_
_atom_site_label
_atom_site_type_symbol
_atom_site_fract_x
_atom_site_fract_y
_atom_site_fract_z
C57 C 0.390(2) 0.4942(7) 0.1850(5)
H44 H 0.3308 0.5033 0.1588
H45 H 0.5005 0.5264 0.1879
Cl1 Cl 0.2264(7) 0.5139(3) 0.22363(14)
Cl2 Cl 0.4602(5) 0.4011(2) 0.18877(12)
C1 C 0.1973(5) 0.8318(2) 0.22409(10)
C2 C 0.0485(5) 0.8559(2) 0.24662(10)
H1 H 0.0347 0.9060 0.2533
C3 C -0.0777(5) 0.8040(2) 0.25878(10)
H2 H -0.1790 0.8192 0.2744
C4 C -0.0626(5) 0.7299(2) 0.24911(10)
C5 C 0.0842(5) 0.7072(2) 0.22563(10)
H3 H 0.0944 0.6574 0.2182
C6 C 0.2143(5) 0.7572(2) 0.21330(10)
C7 C 0.3849(5) 0.7515(2) 0.19159(10)
C8 C 0.4799(5) 0.6931(2) 0.17559(9)
H4 H 0.4293 0.6452 0.1769
C9 C 0.6499(5) 0.7048(2) 0.15765(10)
C10 C 0.7223(5) 0.7764(2) 0.15610(10)
H5 H 0.8379 0.7842 0.1437
C11 C 0.6309(5) 0.8352(2) 0.17195(10)
H6 H 0.6821 0.8830 0.1708
C12 C 0.4612(5) 0.8225(2) 0.18971(10)
C13 C 0.3789(5) 0.9497(2) 0.21229(11)
H7 H 0.5135 0.9586 0.2174
H8 H 0.3101 0.9694 0.2350
C14 C 0.3167(5) 0.9897(2) 0.17462(11)
H9 H 0.3671 1.0400 0.1754
H10 H 0.3697 0.9646 0.1515
C15 C 0.1055(6) 0.9932(3) 0.16918(13)
H11 H 0.0539 1.0224 0.1910
H12 H 0.0542 0.9432 0.1711
C16 C 0.0406(8) 1.0268(3) 0.12961(16)
H13 H -0.0973 1.0297 0.1290
H14 H 0.0894 1.0772 0.1280
C17 C 0.1021(7) 0.9846(4) 0.09369(14)
H15 H 0.0458 1.0072 0.0696
H16 H 0.2392 0.9884 0.0918
C18 C 0.0486(8) 0.9053(3) 0.09472(15)
H17 H 0.1090 0.8819 0.1177
H18 H 0.0889 0.8813 0.0705
H19 H -0.0870 0.9010 0.0966
C19 C -0.2006(5) 0.6742(2) 0.26112(10)
C20 C -0.3344(5) 0.6897(2) 0.29353(10)
C21 C -0.2782(5) 0.7223(2) 0.32922(10)
H20 H -0.1543 0.7399 0.3327
C22 C -0.4044(5) 0.7290(2) 0.35975(11)
H21 H -0.3659 0.7506 0.3841
C23 C -0.5846(5) 0.7045(2) 0.35455(11)
C24 C -0.6430(5) 0.6727(2) 0.31927(11)
H22 H -0.7681 0.6566 0.3157
C25 C -0.5159(5) 0.6648(2) 0.28895(10)
H23 H -0.5544 0.6419 0.2649
C26 C -0.9325(5) 0.7854(2) 0.42209(10)
C27 C -1.0435(5) 0.8460(2) 0.42589(12)
H24 H -1.1134 0.8528 0.4491
C28 C -1.0530(6) 0.8973(2) 0.39574(12)
H25 H -1.1288 0.9395 0.3983
C29 C -0.9526(6) 0.8868(2) 0.36238(12)
H26 H -0.9592 0.9218 0.3417
C30 C -0.8411(5) 0.8254(2) 0.35846(11)
H27 H -0.7733 0.8187 0.3350
C31 C -0.8274(5) 0.7740(2) 0.38823(10)
C32 C -0.7119(5) 0.6608(2) 0.41710(10)
C33 C -0.6074(5) 0.5974(2) 0.41645(10)
H28 H -0.5295 0.5878 0.3947
C34 C -0.6156(5) 0.5476(2) 0.44737(11)
H29 H -0.5439 0.5041 0.4465
C35 C -0.7271(6) 0.5609(2) 0.47943(11)
H30 H -0.7326 0.5268 0.5005
C36 C -0.8299(5) 0.6243(2) 0.48030(10)
H31 H -0.9069 0.6340 0.5022
C37 C -0.8223(5) 0.6739(2) 0.44975(10)
C38 C 0.7538(5) 0.6404(2) 0.14348(10)
C39 C 0.9084(5) 0.6483(2) 0.11474(10)
C40 C 0.8921(5) 0.6937(2) 0.08206(10)
H32 H 0.7860 0.7243 0.0787
C41 C 1.0307(5) 0.6942(2) 0.05439(10)
H33 H 1.0172 0.7235 0.0313
C42 C 1.1889(5) 0.65218(19) 0.06032(10)
C43 C 1.2072(5) 0.6074(2) 0.09306(10)
H34 H 1.3168 0.5790 0.0971
C44 C 1.0646(5) 0.6041(2) 0.11986(10)
H35 H 1.0736 0.5717 0.1417
C45 C 1.5398(5) 0.7375(2) -0.00360(10)
C46 C 1.6454(5) 0.7997(2) -0.00603(11)
H36 H 1.7153 0.8086 -0.0290
C47 C 1.6509(5) 0.8496(2) 0.02487(12)
H37 H 1.7252 0.8924 0.0233
C48 C 1.5468(5) 0.8363(2) 0.05800(11)
H38 H 1.5479 0.8706 0.0791
C49 C 1.4412(5) 0.7735(2) 0.06069(10)
H39 H 1.3715 0.7649 0.0838
C50 C 1.4356(5) 0.7227(2) 0.03004(10)
C51 C 1.3389(5) 0.6074(2) -0.00009(10)
C52 C 1.2469(5) 0.5411(2) 0.00013(11)
H40 H 1.1791 0.5271 0.0227
C53 C 1.2528(5) 0.4949(2) -0.03234(11)
H41 H 1.1905 0.4491 -0.0317
C54 C 1.3487(5) 0.5150(2) -0.06549(11)
H42 H 1.3497 0.4840 -0.0880
C55 C 1.4432(5) 0.5806(2) -0.06563(11)
H43 H 1.5119 0.5943 -0.0881
C56 C 1.4385(5) 0.6259(2) -0.03353(10)
N1 N 0.3456(4) 0.87078(16) 0.20920(9)
N2 N -0.7144(4) 0.71206(17) 0.38606(9)
N3 N 1.3368(4) 0.65685(16) 0.03235(8)
O1 O -0.2061(4) 0.61373(16) 0.24567(8)
O2 O -0.9250(4) 0.73731(15) 0.45362(7)
O3 O 0.7132(4) 0.57858(15) 0.15476(8)
O4 O 1.5360(4) 0.69148(15) -0.03613(7)
C58? C 0.434(2) 0.4849(8) 0.1918(7)
H46? H 0.4190 0.4924 0.1629
H47? H 0.5367 0.5167 0.2015
Cl3? Cl 0.2239(8) 0.5108(3) 0.21510(17)
Cl4? Cl 0.4935(7) 0.3924(3) 0.20115(17)
O5? O 0.4306(15) 0.5086(6) 0.2018(3)
H48? H 0.5118 0.5352 0.1909
C59? C 0.421(2) 0.4428(11) 0.1790(4)
H49? H 0.3297 0.4116 0.1906
H50? H 0.3810 0.4556 0.1526
H51? H 0.5383 0.4178 0.1783
loop_
_geom_bond_atom_site_label_1
_geom_bond_atom_site_label_2
_geom_bond_site_symmetry_1
_geom_bond_site_symmetry_2
C1 C2 1_555 1_555
C2 H1 1_555 1_555
C3 C2 1_555 1_555
H2 C3 1_555 1_555
C4 C3 1_555 1_555
C5 C4 1_555 1_555
H3 C5 1_555 1_555
C6 C1 1_555 1_555
C7 C6 1_555 1_555
C8 C7 1_555 1_555
H4 C8 1_555 1_555
C9 C8 1_555 1_555
C10 C9 1_555 1_555
H5 C10 1_555 1_555
C11 C10 1_555 1_555
H6 C11 1_555 1_555
C12 C7 1_555 1_555
C13 H7 1_555 1_555
H8 C13 1_555 1_555
C14 C13 1_555 1_555
H9 C14 1_555 1_555
H10 C14 1_555 1_555
C15 C14 1_555 1_555
H11 C15 1_555 1_555
H12 C15 1_555 1_555
C16 C15 1_555 1_555
H13 C16 1_555 1_555
H14 C16 1_555 1_555
C17 C16 1_555 1_555
H15 C17 1_555 1_555
H16 C17 1_555 1_555
C18 C17 1_555 1_555
H17 C18 1_555 1_555
H18 C18 1_555 1_555
H19 C18 1_555 1_555
C19 C4 1_555 1_555
C20 C19 1_555 1_555
C21 C20 1_555 1_555
H20 C21 1_555 1_555
C22 C21 1_555 1_555
H21 C22 1_555 1_555
C23 C22 1_555 1_555
C24 C23 1_555 1_555
H22 C24 1_555 1_555
C25 C20 1_555 1_555
H23 C25 1_555 1_555
C26 C27 1_555 1_555
C27 H24 1_555 1_555
C28 C27 1_555 1_555
H25 C28 1_555 1_555
C29 C28 1_555 1_555
H26 C29 1_555 1_555
C30 C29 1_555 1_555
H27 C30 1_555 1_555
C31 C26 1_555 1_555
C32 C33 1_555 1_555
C33 H28 1_555 1_555
C34 C33 1_555 1_555
H29 C34 1_555 1_555
C35 C34 1_555 1_555
H30 C35 1_555 1_555
C36 C35 1_555 1_555
H31 C36 1_555 1_555
C37 C32 1_555 1_555
C38 C9 1_555 1_555
C39 C38 1_555 1_555
C40 C39 1_555 1_555
H32 C40 1_555 1_555
C41 C40 1_555 1_555
H33 C41 1_555 1_555
C42 C41 1_555 1_555
C43 C42 1_555 1_555
H34 C43 1_555 1_555
C44 C39 1_555 1_555
H35 C44 1_555 1_555
C45 C46 1_555 1_555
C46 H36 1_555 1_555
C47 C46 1_555 1_555
H37 C47 1_555 1_555
C48 C47 1_555 1_555
H38 C48 1_555 1_555
C49 C48 1_555 1_555
H39 C49 1_555 1_555
C50 C45 1_555 1_555
C51 C52 1_555 1_555
C52 H40 1_555 1_555
C53 C52 1_555 1_555
H41 C53 1_555 1_555
C54 C53 1_555 1_555
H42 C54 1_555 1_555
C55 C54 1_555 1_555
H43 C55 1_555 1_555
C56 C51 1_555 1_555
N1 C1 1_555 1_555
N2 C23 1_555 1_555
N3 C42 1_555 1_555
O1 C19 1_555 1_555
O2 C26 1_555 1_555
O3 C38 1_555 1_555
O4 C45 1_555 1_555
C57 H44 1_555 1_555
H45 C57 1_555 1_555
Cl1 C57 1_555 1_555
Cl2 C57 1_555 1_555
C5 C6 1_555 1_555
C11 C12 1_555 1_555
C12 N1 1_555 1_555
C13 N1 1_555 1_555
C24 C25 1_555 1_555
C30 C31 1_555 1_555
C31 N2 1_555 1_555
C32 N2 1_555 1_555
C36 C37 1_555 1_555
C37 O2 1_555 1_555
C43 C44 1_555 1_555
C49 C50 1_555 1_555
C50 N3 1_555 1_555
C51 N3 1_555 1_555
C55 C56 1_555 1_555
C56 O4 1_555 1_555

#END
