
#######################################################################
#
#                 Cambridge Crystallographic Data Centre
#                                CCDC 
#
#######################################################################
#
# If this CIF has been generated from an entry in the Cambridge 
# Structural Database, then it will include bibliographic, chemical, 
# crystal, experimental, refinement or atomic coordinate data resulting 
# from the CCDC's data processing and validation procedures.
#
#######################################################################

data_PIPLIM
_chemical_formula_moiety         'C4 H12 N1 O3 1+,C5 H3 O3 1-'
_chemical_name_systematic        
'1,3-dihydroxy-2-(hydroxymethyl)propan-2-aminium furan-2-carboxylate'
_symmetry_cell_setting           triclinic
_symmetry_space_group_name_H-M   'P -1'
_symmetry_Int_Tables_number      2
_space_group_name_Hall           '-P 1'
loop_
_symmetry_equiv_pos_site_id
_symmetry_equiv_pos_as_xyz
1 x,y,z
2 -x,-y,-z
_cell_length_a                   6.2209(5)
_cell_length_b                   9.1951(7)
_cell_length_c                   10.5407(9)
_cell_angle_alpha                70.7120(10)
_cell_angle_beta                 73.4800(10)
_cell_angle_gamma                77.279(2)
_cell_volume                     540.273
_exptl_crystal_colour            colorless
_exptl_crystal_description       BLOCK
_cell_formula_units_Z            2
loop_
_atom_site_label
_atom_site_type_symbol
_atom_site_fract_x
_atom_site_fract_y
_atom_site_fract_z
N1 N 0.8513(4) 0.7950(3) 0.5841(2)
H1 H 0.8044 0.7774 0.5189
H2 H 1.0009 0.7927 0.5596
H3 H 0.7857 0.8881 0.5944
O1 O 0.4121(4) 0.8211(3) 0.7409(2)
H4 H 0.3831 0.8590 0.6645
O2 O 1.1516(4) 0.5268(3) 0.6579(4)
H5 H 1.2225 0.4432 0.6483
O3 O 0.8091(5) 0.5988(3) 0.9571(3)
H6 H 0.9260 0.5641 0.9848
C1 C 0.5338(5) 0.6701(4) 0.7506(4)
H7 H 0.4999 0.6281 0.6864
H8 H 0.4856 0.6027 0.8431
C2 C 0.9158(6) 0.5165(4) 0.6987(4)
H9 H 0.8829 0.4342 0.7843
H10 H 0.8690 0.4925 0.6284
C3 C 0.8550(6) 0.7152(4) 0.8283(3)
H11 H 1.0150 0.7251 0.8007
H12 H 0.7703 0.8147 0.8375
C4 C 0.7883(5) 0.6716(3) 0.7184(3)
O4 O 0.1325(4) 0.8866(3) 0.2841(2)
O5 O 0.6455(3) 0.7517(2) 0.3969(2)
O6 O 0.3164(3) 0.8774(2) 0.4885(2)
C5 C 0.4470(5) 0.8172(3) 0.3970(3)
C6 C 0.3583(5) 0.8313(3) 0.2770(3)
C7 C 0.4544(6) 0.8071(4) 0.1535(4)
H13 H 0.6054 0.7691 0.1232
C8 C 0.2843(7) 0.8497(4) 0.0771(4)
H14 H 0.3016 0.8461 -0.0124
C9 C 0.0947(7) 0.8960(4) 0.1601(4)
H15 H -0.0449 0.9302 0.1366
loop_
_geom_bond_atom_site_label_1
_geom_bond_atom_site_label_2
_geom_bond_site_symmetry_1
_geom_bond_site_symmetry_2
N1 H1 1_555 1_555
H2 N1 1_555 1_555
H3 N1 1_555 1_555
O1 H4 1_555 1_555
O2 H5 1_555 1_555
O3 H6 1_555 1_555
C1 O1 1_555 1_555
H7 C1 1_555 1_555
H8 C1 1_555 1_555
C2 O2 1_555 1_555
H9 C2 1_555 1_555
H10 C2 1_555 1_555
C3 O3 1_555 1_555
H11 C3 1_555 1_555
H12 C3 1_555 1_555
C4 N1 1_555 1_555
O4 C6 1_555 1_555
O5 C5 1_555 1_555
O6 C5 1_555 1_555
C5 C6 1_555 1_555
C6 C7 1_555 1_555
C7 H13 1_555 1_555
C8 C7 1_555 1_555
H14 C8 1_555 1_555
C9 O4 1_555 1_555
H15 C9 1_555 1_555
C1 C4 1_555 1_555
C2 C4 1_555 1_555
C3 C4 1_555 1_555
C8 C9 1_555 1_555

#END
