
#######################################################################
#
#                 Cambridge Crystallographic Data Centre
#                                CCDC 
#
#######################################################################
#
# If this CIF has been generated from an entry in the Cambridge 
# Structural Database, then it will include bibliographic, chemical, 
# crystal, experimental, refinement or atomic coordinate data resulting 
# from the CCDC's data processing and validation procedures.
#
#######################################################################

data_PIPLOS
_chemical_formula_moiety         'C4 H12 N1 O3 1+,C6 H4 N1 O2 1-'
_chemical_name_systematic        
'1,3-dihydroxy-2-(hydroxymethyl)propan-2-aminium pyridine-4-carboxylate'
_symmetry_cell_setting           orthorhombic
_symmetry_space_group_name_H-M   'P 21 21 21'
_symmetry_Int_Tables_number      19
_space_group_name_Hall           'P 2ac 2ab'
loop_
_symmetry_equiv_pos_site_id
_symmetry_equiv_pos_as_xyz
1 x,y,z
2 1/2-x,-y,1/2+z
3 -x,1/2+y,1/2-z
4 1/2+x,1/2-y,-z
_cell_length_a                   6.1060(5)
_cell_length_b                   7.9175(6)
_cell_length_c                   23.741(2)
_cell_angle_alpha                90
_cell_angle_beta                 90
_cell_angle_gamma                90
_cell_volume                     1147.74
_exptl_crystal_colour            colorless
_exptl_crystal_description       block
_cell_formula_units_Z            4
loop_
_atom_site_label
_atom_site_type_symbol
_atom_site_fract_x
_atom_site_fract_y
_atom_site_fract_z
N1 N 0.4583(3) 0.32370(19) 0.59021(6)
H1 H 0.3961 0.3453 0.6233
H2 H 0.5763 0.2596 0.5954
H3 H 0.3634 0.2696 0.5682
O1 O 0.6128(2) 0.31421(16) 0.47993(5)
H4 H 0.5269 0.3517 0.4565
O2 O 0.7879(3) 0.5063(2) 0.63923(6)
H5 H 0.9076 0.5089 0.6236
O3 O 0.1597(3) 0.5963(2) 0.58243(7)
H6 H 0.1589 0.6954 0.5925
C1 C 0.5244(3) 0.4870(2) 0.56266(7)
C2 C 0.6859(3) 0.4472(2) 0.51526(7)
H7 H 0.7078 0.5479 0.4927
H8 H 0.8259 0.4163 0.5316
C3 C 0.6351(4) 0.5968(3) 0.60712(8)
H9 H 0.7086 0.6903 0.5887
H10 H 0.5243 0.6434 0.6319
C4 C 0.3202(3) 0.5732(3) 0.54008(9)
H11 H 0.3600 0.6823 0.5245
H12 H 0.2589 0.5055 0.5099
N2 N 0.3099(3) 0.3723(2) 0.70476(7)
O4 O 0.1762(3) 0.5857(2) 0.90039(5)
O5 O -0.1047(3) 0.41491(19) 0.88592(6)
C5 C 0.0710(4) 0.4806(2) 0.87155(8)
C6 C 0.1140(4) 0.3225(3) 0.72222(9)
H13 H 0.0246 0.2658 0.6967
C7 C 0.0347(4) 0.3495(3) 0.77579(8)
H14 H -0.1026 0.3092 0.7861
C8 C 0.1611(3) 0.4368(2) 0.81375(7)
C9 C 0.3661(4) 0.4876(3) 0.79652(8)
H15 H 0.4584 0.5443 0.8213
C10 C 0.4332(4) 0.4539(3) 0.74237(9)
H16 H 0.5718 0.4899 0.7314
loop_
_geom_bond_atom_site_label_1
_geom_bond_atom_site_label_2
_geom_bond_site_symmetry_1
_geom_bond_site_symmetry_2
N1 H1 1_555 1_555
H2 N1 1_555 1_555
H3 N1 1_555 1_555
O1 H4 1_555 1_555
O2 H5 1_555 1_555
O3 H6 1_555 1_555
C1 N1 1_555 1_555
C2 O1 1_555 1_555
H7 C2 1_555 1_555
H8 C2 1_555 1_555
C3 O2 1_555 1_555
H9 C3 1_555 1_555
H10 C3 1_555 1_555
C4 O3 1_555 1_555
H11 C4 1_555 1_555
H12 C4 1_555 1_555
N2 C6 1_555 1_555
O4 C5 1_555 1_555
O5 C5 1_555 1_555
C5 C8 1_555 1_555
C6 H13 1_555 1_555
C7 C6 1_555 1_555
H14 C7 1_555 1_555
C8 C7 1_555 1_555
C9 C8 1_555 1_555
H15 C9 1_555 1_555
C10 N2 1_555 1_555
H16 C10 1_555 1_555
C1 C2 1_555 1_555
C1 C3 1_555 1_555
C1 C4 1_555 1_555
C9 C10 1_555 1_555

#END
