
#######################################################################
#
#                 Cambridge Crystallographic Data Centre
#                                CCDC 
#
#######################################################################
#
# If this CIF has been generated from an entry in the Cambridge 
# Structural Database, then it will include bibliographic, chemical, 
# crystal, experimental, refinement or atomic coordinate data resulting 
# from the CCDC's data processing and validation procedures.
#
#######################################################################

data_PIPMEJ
_chemical_formula_moiety         'C4 H12 N1 O3 1+,C8 H6 Cl1 O3 1-'
_chemical_name_systematic        
'1,3-dihydroxy-2-(hydroxymethyl)propan-2-aminium (4-chlorophenoxy)acetate'
_symmetry_cell_setting           monoclinic
_symmetry_space_group_name_H-M   'P 21/n'
_symmetry_Int_Tables_number      14
_space_group_name_Hall           '-P 2yn'
loop_
_symmetry_equiv_pos_site_id
_symmetry_equiv_pos_as_xyz
1 x,y,z
2 1/2-x,1/2+y,1/2-z
3 -x,-y,-z
4 1/2+x,1/2-y,1/2+z
_cell_length_a                   8.6089(8)
_cell_length_b                   6.1053(4)
_cell_length_c                   26.688(2)
_cell_angle_alpha                90
_cell_angle_beta                 95.7210(10)
_cell_angle_gamma                90
_cell_volume                     1395.73
_exptl_crystal_colour            colorless
_exptl_crystal_description       block
_cell_formula_units_Z            4
loop_
_atom_site_label
_atom_site_type_symbol
_atom_site_fract_x
_atom_site_fract_y
_atom_site_fract_z
Cl1 Cl 0.38056(9) 0.81485(13) 0.55021(3)
O1 O 0.07220(19) -0.1271(3) 0.32558(6)
O2 O -0.12093(19) -0.2545(3) 0.36631(6)
O3 O 0.1373(2) 0.1886(3) 0.39508(6)
C1 C -0.0098(3) -0.1285(4) 0.36159(9)
C2 C 0.0267(3) 0.0273(4) 0.40536(9)
H1 H -0.0688 0.0988 0.4129
H2 H 0.0669 -0.0556 0.4348
C3 C 0.1863(3) 0.3305(4) 0.43355(9)
C4 C 0.2625(3) 0.5146(4) 0.41948(9)
H3 H 0.2737 0.5398 0.3857
C5 C 0.3224(3) 0.6624(4) 0.45543(10)
H4 H 0.3749 0.7864 0.4459
C6 C 0.3047(3) 0.6264(4) 0.50498(9)
C7 C 0.2276(3) 0.4468(5) 0.51937(10)
H5 H 0.2148 0.4244 0.5532
C8 C 0.1680(3) 0.2974(5) 0.48352(10)
H6 H 0.1154 0.1739 0.4933
N1 N 0.50255(19) 0.9851(3) 0.75915(6)
H7 H 0.5165 0.8663 0.7784
H8 H 0.4147 1.0521 0.7655
H9 H 0.5828 1.0758 0.7659
O4 O 0.40158(18) 1.2913(2) 0.68209(6)
H10 H 0.3178 1.2674 0.6656
O5 O 0.77038(15) 0.8262(2) 0.71972(6)
H11 H 0.8093 0.9117 0.7008
O6 O 0.30135(17) 0.6481(2) 0.72632(6)
H12 H 0.3472 0.5354 0.7199
C9 C 0.4917(2) 0.9201(3) 0.70495(7)
C10 C 0.5089(3) 1.1237(3) 0.67301(8)
H13 H 0.6142 1.1801 0.6799
H14 H 0.4939 1.0833 0.6377
C11 C 0.6223(2) 0.7579(3) 0.69732(8)
H15 H 0.5970 0.6175 0.7115
H16 H 0.6278 0.7373 0.6615
C12 C 0.3328(2) 0.8130(3) 0.69171(8)
H17 H 0.2522 0.9243 0.6910
H18 H 0.3295 0.7497 0.6583
loop_
_geom_bond_atom_site_label_1
_geom_bond_atom_site_label_2
_geom_bond_site_symmetry_1
_geom_bond_site_symmetry_2
Cl1 C6 1_555 1_555
O1 C1 1_555 1_555
O2 C1 1_555 1_555
O3 C2 1_555 1_555
C1 C2 1_555 1_555
C2 H1 1_555 1_555
H2 C2 1_555 1_555
C3 O3 1_555 1_555
C4 C3 1_555 1_555
H3 C4 1_555 1_555
C5 C4 1_555 1_555
H4 C5 1_555 1_555
C6 C5 1_555 1_555
C7 C6 1_555 1_555
H5 C7 1_555 1_555
C8 C3 1_555 1_555
H6 C8 1_555 1_555
N1 H7 1_555 1_555
H8 N1 1_555 1_555
H9 N1 1_555 1_555
O4 H10 1_555 1_555
O5 H11 1_555 1_555
O6 H12 1_555 1_555
C9 N1 1_555 1_555
C10 O4 1_555 1_555
H13 C10 1_555 1_555
H14 C10 1_555 1_555
C11 O5 1_555 1_555
H15 C11 1_555 1_555
H16 C11 1_555 1_555
C12 O6 1_555 1_555
H17 C12 1_555 1_555
H18 C12 1_555 1_555
C7 C8 1_555 1_555
C9 C10 1_555 1_555
C9 C11 1_555 1_555
C9 C12 1_555 1_555

#END
