
#######################################################################
#
#                 Cambridge Crystallographic Data Centre
#                                CCDC 
#
#######################################################################
#
# If this CIF has been generated from an entry in the Cambridge 
# Structural Database, then it will include bibliographic, chemical, 
# crystal, experimental, refinement or atomic coordinate data resulting 
# from the CCDC's data processing and validation procedures.
#
#######################################################################

data_PIPMIN
_chemical_formula_moiety         'C8 H11 O4 1-,C4 H12 N1 O3 1+'
_chemical_name_systematic        
'1,3-dihydroxy-2-(hydroxymethyl)propan-2-aminium 4-carboxycyclohexane-1-carboxylate'
_symmetry_cell_setting           monoclinic
_symmetry_space_group_name_H-M   'P 21/c'
_symmetry_Int_Tables_number      14
_space_group_name_Hall           '-P 2ybc'
loop_
_symmetry_equiv_pos_site_id
_symmetry_equiv_pos_as_xyz
1 x,y,z
2 -x,1/2+y,1/2-z
3 -x,-y,-z
4 x,1/2-y,1/2+z
_cell_length_a                   15.5401(14)
_cell_length_b                   7.9720(6)
_cell_length_c                   12.6439(11)
_cell_angle_alpha                90
_cell_angle_beta                 105.047(2)
_cell_angle_gamma                90
_cell_volume                     1512.69
_exptl_crystal_colour            colorless
_exptl_crystal_description       BLOCK
_cell_formula_units_Z            4
loop_
_atom_site_label
_atom_site_type_symbol
_atom_site_fract_x
_atom_site_fract_y
_atom_site_fract_z
N1 N -0.0046(3) 0.9805(6) 0.3292(4)
H1 H -0.0235 0.9101 0.3730
H2 H -0.0263 0.9490 0.2599
H3 H -0.0233 1.0838 0.3381
O1 O 0.0729(6) 1.1371(11) 0.1843(7)
H4 H 0.0980 1.0813 0.1467
O2 O 0.0881(6) 1.1489(10) 0.5202(7)
H5 H 0.1275 1.2194 0.5395
O3 O 0.0763(6) 0.6702(10) 0.3585(7)
H6 H 0.1076 0.6357 0.4170
C1 C 0.1293(5) 1.1320(8) 0.3076(6)
H7 H 0.1923 1.1233 0.3119
H8 H 0.1194 1.2329 0.3458
C2 C 0.1286(5) 0.9849(8) 0.4819(6)
H9 H 0.1931 0.9881 0.5057
H10 H 0.1081 0.8864 0.5134
C3 C 0.1263(5) 0.8135(8) 0.3144(6)
H11 H 0.1903 0.7987 0.3405
H12 H 0.1101 0.8136 0.2350
C4 C 0.0976(4) 0.9781(7) 0.3580(5)
O7 O 0.2377(3) 1.1727(6) 0.0497(5)
O8 O 0.1734(3) 0.9334(6) 0.0683(4)
O9 O 0.3494(4) 0.4872(6) -0.0431(5)
O10 O 0.3681(3) 0.3857(6) 0.1266(4)
H22 H 0.3344 0.3129 0.0934
C5 C 0.2423(4) 1.0172(8) 0.0756(5)
C6 C 0.3841(4) 0.4980(8) 0.0552(6)
C7 C 0.3337(4) 0.9360(8) 0.1106(6)
H23 H 0.3764 1.0218 0.1470
C8 C 0.3376(4) 0.7908(8) 0.1915(6)
H24 H 0.2904 0.7115 0.1609
H25 H 0.3279 0.8341 0.2592
C9 C 0.4288(5) 0.6993(8) 0.2165(6)
H26 H 0.4756 0.7755 0.2536
H27 H 0.4282 0.6049 0.2647
C10 C 0.4481(4) 0.6370(8) 0.1104(6)
H28 H 0.5082 0.5889 0.1300
C11 C 0.4488(4) 0.7834(9) 0.0329(6)
H29 H 0.4598 0.7413 -0.0344
H30 H 0.4969 0.8595 0.0663
C12 C 0.3603(4) 0.8784(9) 0.0064(6)
H31 H 0.3139 0.8066 -0.0366
H32 H 0.3649 0.9759 -0.0377
O4? O 0.0946(6) 1.2872(10) 0.3581(7)
H13? H 0.1307 1.3131 0.4154
O5? O 0.0797(6) 0.8435(10) 0.5292(7)
H14? H 0.1111 0.7593 0.5406
O6? O 0.0805(6) 0.8075(11) 0.1941(7)
H15? H 0.1133 0.8477 0.1594
H16? H 0.1062 1.1312 0.2286
H17? H 0.1938 1.1348 0.3247
H18? H 0.1926 0.9697 0.5067
H19? H 0.1142 1.0940 0.5068
H20? H 0.1905 0.8102 0.3262
H21? H 0.1083 0.7181 0.3512
loop_
_geom_bond_atom_site_label_1
_geom_bond_atom_site_label_2
_geom_bond_site_symmetry_1
_geom_bond_site_symmetry_2
N1 H1 1_555 1_555
H2 N1 1_555 1_555
H3 N1 1_555 1_555
O1 H4 1_555 1_555
O2 H5 1_555 1_555
O3 H6 1_555 1_555
C1 O1 1_555 1_555
H7 C1 1_555 1_555
H8 C1 1_555 1_555
C2 O2 1_555 1_555
H9 C2 1_555 1_555
H10 C2 1_555 1_555
C3 O3 1_555 1_555
H11 C3 1_555 1_555
H12 C3 1_555 1_555
C4 N1 1_555 1_555
O7 C5 1_555 1_555
O8 C5 1_555 1_555
O9 C6 1_555 1_555
O10 H22 1_555 1_555
C5 C7 1_555 1_555
C6 O10 1_555 1_555
C7 H23 1_555 1_555
C8 C7 1_555 1_555
H24 C8 1_555 1_555
H25 C8 1_555 1_555
C9 C8 1_555 1_555
H26 C9 1_555 1_555
H27 C9 1_555 1_555
C10 C6 1_555 1_555
H28 C10 1_555 1_555
C11 C10 1_555 1_555
H29 C11 1_555 1_555
H30 C11 1_555 1_555
C12 C7 1_555 1_555
H31 C12 1_555 1_555
H32 C12 1_555 1_555
C1 C4 1_555 1_555
C2 C4 1_555 1_555
C3 C4 1_555 1_555
C9 C10 1_555 1_555
C11 C12 1_555 1_555

#END
