
#######################################################################
#
#                 Cambridge Crystallographic Data Centre
#                                CCDC 
#
#######################################################################
#
# If this CIF has been generated from an entry in the Cambridge 
# Structural Database, then it will include bibliographic, chemical, 
# crystal, experimental, refinement or atomic coordinate data resulting 
# from the CCDC's data processing and validation procedures.
#
#######################################################################

data_PIPPAI
_chemical_formula_moiety         'C18 H15 N3 O2'
_chemical_name_systematic        
1-benzyl-3-(3-hydroxy-1H-pyrazol-1-yl)-1,3-dihydro-2H-indol-2-one
_symmetry_cell_setting           monoclinic
_symmetry_space_group_name_H-M   'P 21/c'
_symmetry_Int_Tables_number      14
_space_group_name_Hall           '-P 2ybc'
loop_
_symmetry_equiv_pos_site_id
_symmetry_equiv_pos_as_xyz
1 x,y,z
2 -x,1/2+y,1/2-z
3 -x,-y,-z
4 x,1/2-y,1/2+z
_cell_length_a                   15.0273(18)
_cell_length_b                   12.7723(18)
_cell_length_c                   7.9562(11)
_cell_angle_alpha                90
_cell_angle_beta                 98.510(13)
_cell_angle_gamma                90
_cell_volume                     1510.25
_exptl_crystal_colour            colorless
_exptl_crystal_description       block
_cell_formula_units_Z            4
loop_
_atom_site_label
_atom_site_type_symbol
_atom_site_fract_x
_atom_site_fract_y
_atom_site_fract_z
O1 O -0.1015(3) 0.4027(3) -0.0023(5)
O2 O 0.2514(3) 0.3425(3) 0.0010(6)
N1 N 0.1049(3) 0.3333(4) 0.2130(6)
N2 N 0.2838(3) 0.4903(4) 0.1632(6)
C1 C 0.0587(4) 0.2500(4) 0.2529(7)
H1 H 0.081910 0.194119 0.320591
N3 N 0.0509(3) 0.4035(4) 0.1135(6)
C2 C 0.2585(4) 0.5319(5) 0.3144(7)
C3 C -0.0298(4) 0.3578(5) 0.0935(7)
C4 C 0.2471(4) 0.3938(5) 0.1274(7)
C5 C 0.2780(4) 0.6287(5) 0.3861(7)
H2 H 0.312383 0.677303 0.336961
C6 C 0.1967(4) 0.3631(5) 0.2759(7)
H3 H 0.227789 0.304305 0.338343
C7 C 0.2065(4) 0.4591(5) 0.3862(7)
C8 C 0.4270(4) 0.5801(5) 0.1299(7)
C9 C 0.1735(4) 0.4819(5) 0.5345(8)
H4 H 0.139353 0.433181 0.583969
C10 C -0.0286(4) 0.2608(5) 0.1773(8)
H5 H -0.076246 0.214718 0.180484
C11 C 0.2439(4) 0.6505(5) 0.5355(8)
H6 H 0.256287 0.715056 0.587724
C12 C 0.1924(4) 0.5795(5) 0.6085(8)
H7 H 0.170189 0.596881 0.707890
C13 C 0.3331(4) 0.5474(5) 0.0491(8)
H8 H 0.299267 0.609470 0.009347
H9 H 0.337973 0.503865 -0.049050
C14 C 0.5504(4) 0.7035(5) 0.1514(9)
H10 H 0.574402 0.765616 0.116885
C15 C 0.4644(4) 0.6722(5) 0.0822(9)
H11 H 0.430876 0.714612 0.001308
C16 C 0.6002(4) 0.6404(5) 0.2733(8)
H12 H 0.657976 0.660282 0.321121
C17 C 0.4784(4) 0.5177(5) 0.2505(8)
H13 H 0.455382 0.454491 0.282938
C18 C 0.5641(4) 0.5492(6) 0.3227(8)
H14 H 0.597221 0.507844 0.405592
H15 H -0.079(6) 0.464(8) -0.058(12)
loop_
_geom_bond_atom_site_label_1
_geom_bond_atom_site_label_2
_geom_bond_site_symmetry_1
_geom_bond_site_symmetry_2
O1 C3 1_555 1_555
O2 C4 1_555 1_555
N1 C1 1_555 1_555
N2 C2 1_555 1_555
C1 H1 1_555 1_555
N3 N1 1_555 1_555
C2 C5 1_555 1_555
C3 N3 1_555 1_555
C4 N2 1_555 1_555
C5 H2 1_555 1_555
C6 N1 1_555 1_555
H3 C6 1_555 1_555
C7 C2 1_555 1_555
C8 C13 1_555 1_555
C9 C7 1_555 1_555
H4 C9 1_555 1_555
C10 C1 1_555 1_555
H5 C10 1_555 1_555
C11 C5 1_555 1_555
H6 C11 1_555 1_555
C12 C9 1_555 1_555
H7 C12 1_555 1_555
C13 N2 1_555 1_555
H8 C13 1_555 1_555
H9 C13 1_555 1_555
C14 H10 1_555 1_555
C15 C8 1_555 1_555
H11 C15 1_555 1_555
C16 C14 1_555 1_555
H12 C16 1_555 1_555
C17 C8 1_555 1_555
H13 C17 1_555 1_555
C18 C16 1_555 1_555
H14 C18 1_555 1_555
H15 O1 1_555 1_555
C3 C10 1_555 1_555
C4 C6 1_555 1_555
C6 C7 1_555 1_555
C11 C12 1_555 1_555
C14 C15 1_555 1_555
C17 C18 1_555 1_555

#END
