
#######################################################################
#
#                 Cambridge Crystallographic Data Centre
#                                CCDC 
#
#######################################################################
#
# If this CIF has been generated from an entry in the Cambridge 
# Structural Database, then it will include bibliographic, chemical, 
# crystal, experimental, refinement or atomic coordinate data resulting 
# from the CCDC's data processing and validation procedures.
#
#######################################################################

data_PIPTCZ
_chemical_formula_moiety         'C6 H13 N3 S1'
_chemical_name_systematic        Piperidino-thiosemicarbazide
_symmetry_cell_setting           monoclinic
_symmetry_space_group_name_H-M   'P 21/c'
_symmetry_Int_Tables_number      14
_space_group_name_Hall           '-P 2ybc'
loop_
_symmetry_equiv_pos_site_id
_symmetry_equiv_pos_as_xyz
1 x,y,z
2 -x,1/2+y,1/2-z
3 -x,-y,-z
4 x,1/2-y,1/2+z
_cell_length_a                   14.68(4)
_cell_length_b                   4.59(2)
_cell_length_c                   12.92(4)
_cell_angle_alpha                90
_cell_angle_beta                 109.4(2)
_cell_angle_gamma                90
_cell_volume                     821.137
_cell_formula_units_Z            4
loop_
_atom_site_label
_atom_site_type_symbol
_atom_site_fract_x
_atom_site_fract_y
_atom_site_fract_z
C1 C 0.14800 0.06000 0.15100
C2 C 0.22600 -0.17400 0.32300
C3 C 0.33100 -0.04600 0.39600
C4 C 0.41400 -0.18100 0.35900
C5 C 0.38600 -0.09600 0.23000
C6 C 0.28600 -0.22800 0.16700
N1 N 0.21400 -0.10400 0.21400
N2 N 0.07600 0.16400 0.20100
N3 N -0.00200 0.33400 0.14100
S1 S 0.14000 0.18500 0.02600
loop_
_geom_bond_atom_site_label_1
_geom_bond_atom_site_label_2
_geom_bond_site_symmetry_1
_geom_bond_site_symmetry_2
C1 N1 1_555 1_555
C2 C3 1_555 1_555
C3 C4 1_555 1_555
C4 C5 1_555 1_555
C5 C6 1_555 1_555
C6 N1 1_555 1_555
N1 C2 1_555 1_555
N2 C1 1_555 1_555
N3 N2 1_555 1_555
S1 C1 1_555 1_555

#END
