
#######################################################################
#
#                 Cambridge Crystallographic Data Centre
#                                CCDC 
#
#######################################################################
#
# If this CIF has been generated from an entry in the Cambridge 
# Structural Database, then it will include bibliographic, chemical, 
# crystal, experimental, refinement or atomic coordinate data resulting 
# from the CCDC's data processing and validation procedures.
#
#######################################################################

data_PIPTAJ
_chemical_name_common            
"(+-)-N,N'-bis(6-Methylpyridin-2-yl) (7)helicene-2,17-dicarboxamide chloroform solvate"
_chemical_formula_moiety         'C44 H30 N4 O2,2(C1 H1 Cl3)'
_chemical_name_systematic        
"(+-)-N,N'-bis(6-Methylpyridin-2-yl)dinaphtho(2,1-c:1',2'-g)-phenanthrene-2,17-dicarboxamide chloroform solvate"
_symmetry_cell_setting           monoclinic
_symmetry_space_group_name_H-M   'P 21/a'
_symmetry_Int_Tables_number      14
_space_group_name_Hall           '-P 2yab'
loop_
_symmetry_equiv_pos_site_id
_symmetry_equiv_pos_as_xyz
1 x,y,z
2 1/2-x,1/2+y,-z
3 -x,-y,-z
4 1/2+x,1/2-y,z
_cell_length_a                   14.746(2)
_cell_length_b                   16.240(2)
_cell_length_c                   31.583(4)
_cell_angle_alpha                90
_cell_angle_beta                 99.343(4)
_cell_angle_gamma                90
_cell_volume                     7463.01
_exptl_crystal_colour            yellow
_cell_formula_units_Z            8
loop_
_atom_site_label
_atom_site_type_symbol
_atom_site_fract_x
_atom_site_fract_y
_atom_site_fract_z
Cl1 Cl 0.38800(44) 0.11776(37) 0.09358(20)
Cl2 Cl 0.39076(52) 0.00157(39) 0.02479(19)
Cl3 Cl 0.23441(46) 0.01552(57) 0.06648(20)
C1 C 0.3540(14) 0.0206(12) 0.0728(6)
C2 C 1.0213(17) -0.1098(14) 0.0683(7)
H1 H 0.9597 -0.1241 0.0516
H2 H 1.0388 -0.1513 0.0915
H3 H 1.0681 -0.1098 0.0486
C3 C 0.9829(15) -0.0253(13) 0.0742(7)
C4 C 0.9169(16) 0.0111(15) 0.0443(7)
H4 H 0.8893 -0.0185 0.0175
C5 C 0.8911(17) 0.0862(17) 0.0531(8)
H5 H 0.8443 0.1139 0.0313
C6 C 0.9263(14) 0.1300(13) 0.0909(6)
H6 H 0.9057 0.1864 0.0978
C7 C 0.9916(11) 0.0859(11) 0.1171(5)
N1 N 1.0203(9) 0.0107(9) 0.1116(4)
N2 N 1.0302(8) 0.1137(8) 0.1580(4)
C8 C 1.0224(11) 0.1898(11) 0.1769(5)
O1 O 0.9852(7) 0.2489(7) 0.1561(3)
C9 C 1.0627(10) 0.1992(9) 0.2238(4)
C10 C 1.0918(10) 0.2772(10) 0.2393(5)
H7 H 1.0957 0.3245 0.2194
C11 C 1.1152(10) 0.2857(10) 0.2823(5)
H8 H 1.1368 0.3411 0.2935
C12 C 1.1102(10) 0.2232(9) 0.3121(5)
C13 C 1.0911(9) 0.1425(9) 0.2957(4)
C14 C 1.0610(9) 0.1314(9) 0.2511(4)
H9 H 1.0388 0.0765 0.2394
C15 C 1.1184(11) 0.2362(11) 0.3572(5)
H10 H 1.1385 0.2909 0.3699
C16 C 1.0982(10) 0.1746(10) 0.3827(5)
H11 H 1.0935 0.1868 0.4133
C17 C 1.0840(10) 0.0934(10) 0.3676(5)
C18 C 1.0911(9) 0.0735(9) 0.3257(4)
C19 C 1.0957(10) -0.0134(9) 0.3134(5)
C20 C 1.0583(11) -0.0727(10) 0.3402(5)
C21 C 1.0437(11) -0.0485(11) 0.3808(5)
H12 H 1.0202 -0.0897 0.3999
C22 C 1.0600(11) 0.0285(11) 0.3950(5)
H13 H 1.0556 0.0415 0.4255
C23 C 1.0422(10) -0.1517(10) 0.3233(5)
H14 H 1.0226 -0.1949 0.3425
C24 C 1.0520(10) -0.1747(10) 0.2837(5)
H15 H 1.0269 -0.2287 0.2719
C25 C 1.0979(10) -0.1212(10) 0.2581(5)
C26 C 1.1308(10) -0.0419(9) 0.2758(4)
C27 C 1.1152(11) -0.1404(10) 0.2159(5)
H16 H 1.0949 -0.1951 0.2033
C28 C 1.1584(10) -0.0889(10) 0.1927(5)
H17 H 1.1583 -0.1006 0.1616
C29 C 1.2036(10) -0.0174(9) 0.2116(5)
C30 C 1.1987(10) 0.0017(9) 0.2542(4)
C31 C 1.2523(10) 0.0344(9) 0.1879(5)
H18 H 1.2542 0.0219 0.1570
C32 C 1.2974(10) 0.1016(9) 0.2063(5)
H19 H 1.3234 0.1430 0.1882
C33 C 1.3074(10) 0.1142(9) 0.2517(4)
C34 C 1.2624(9) 0.0626(8) 0.2779(4)
C35 C 1.3682(10) 0.1749(9) 0.2722(4)
H20 H 1.3957 0.2163 0.2545
C36 C 1.3891(9) 0.1776(9) 0.3164(4)
H21 H 1.4312 0.2212 0.3307
C37 C 1.3506(10) 0.1195(9) 0.3412(4)
C38 C 1.2893(9) 0.0624(8) 0.3220(4)
H22 H 1.2638 0.0201 0.3399
C39 C 1.3872(10) 0.1087(10) 0.3873(5)
N3 N 1.4158(8) 0.1791(7) 0.4099(4)
O2 O 1.3872(7) 0.0413(7) 0.4056(3)
C40 C 1.4603(11) 0.1856(11) 0.4540(5)
N4 N 1.4663(9) 0.2657(8) 0.4651(4)
C41 C 1.5108(13) 0.2783(13) 0.5091(6)
C42 C 1.5331(13) 0.2147(13) 0.5339(6)
H23 H 1.5579 0.2274 0.5645
C43 C 1.5279(14) 0.1368(14) 0.5236(7)
H24 H 1.5495 0.0921 0.5446
C44 C 1.4871(12) 0.1218(13) 0.4799(6)
H25 H 1.4797 0.0641 0.4688
C45 C 1.5096(14) 0.3709(13) 0.5166(6)
H26 H 1.5499 0.3602 0.5447
H27 H 1.4468 0.3865 0.5218
H28 H 1.5362 0.4169 0.5015
H59 H 0.9834 0.0959 0.1755
C46 C 0.8317(14) -0.2841(15) 0.0684(7)
H29 H 0.8524 -0.2959 0.0405
H30 H 0.8400 -0.3344 0.0869
H31 H 0.8690 -0.2380 0.0833
C47 C 0.7388(15) -0.2399(12) 0.0661(7)
C48 C 0.6813(14) -0.2264(12) 0.0273(6)
H32 H 0.6981 -0.2424 -0.0010
C49 C 0.6025(14) -0.1905(12) 0.0307(6)
H33 H 0.5564 -0.1839 0.0040
C50 C 0.5794(13) -0.1625(10) 0.0685(6)
H34 H 0.5205 -0.1324 0.0692
C51 C 0.6428(12) -0.1762(10) 0.1062(5)
N5 N 0.7199(10) -0.2156(9) 0.1046(5)
N6 N 0.6357(9) -0.1508(8) 0.1471(4)
C52 C 0.5640(13) -0.1103(11) 0.1593(5)
O3 O 0.4912(8) -0.0931(7) 0.1348(4)
C53 C 0.5753(10) -0.0838(9) 0.2044(5)
C54 C 0.5243(10) -0.0119(9) 0.2148(5)
H35 H 0.4874 0.0211 0.1913
C55 C 0.5266(10) 0.0093(9) 0.2554(5)
H36 H 0.4934 0.0606 0.2613
C56 C 0.5724(11) -0.0349(9) 0.2907(5)
C57 C 0.6306(10) -0.1046(9) 0.2808(4)
C58 C 0.6261(9) -0.1254(8) 0.2378(4)
H37 H 0.6629 -0.1738 0.2308
C59 C 0.5615(10) -0.0195(10) 0.3331(5)
H38 H 0.5283 0.0314 0.3398
C60 C 0.5947(11) -0.0697(10) 0.3648(5)
H39 H 0.5785 -0.0606 0.3940
C61 C 0.6528(11) -0.1374(10) 0.3580(5)
C62 C 0.6805(10) -0.1488(8) 0.3179(4)
C63 C 0.7556(10) -0.2087(9) 0.3131(4)
C64 C 0.7725(10) -0.2683(10) 0.3471(5)
C65 C 0.7381(11) -0.2590(10) 0.3849(5)
H40 H 0.7528 -0.3018 0.4078
C66 C 0.6855(11) -0.1938(10) 0.3919(5)
H41 H 0.6688 -0.1854 0.4210
C67 C 0.8230(11) -0.3405(10) 0.3405(5)
H42 H 0.8373 -0.3819 0.3641
C68 C 0.8513(11) -0.3532(10) 0.3041(5)
H43 H 0.8785 -0.4079 0.2987
C69 C 0.8436(11) -0.2923(11) 0.2710(5)
C70 C 0.8061(10) -0.2115(9) 0.2785(5)
C71 C 0.8757(10) -0.3044(10) 0.2304(5)
H44 H 0.8996 -0.3599 0.2241
C72 C 0.8737(10) -0.2463(10) 0.2014(5)
H45 H 0.8854 -0.2604 0.1719
C73 C 0.8552(10) -0.1604(9) 0.2119(5)
C74 C 0.8272(10) -0.1452(9) 0.2510(5)
C75 C 0.8633(11) -0.0997(11) 0.1816(5)
H46 H 0.8783 -0.1153 0.1529
C76 C 0.8507(10) -0.0188(10) 0.1912(5)
H47 H 0.8545 0.0249 0.1693
C77 C 0.8321(10) 0.0036(10) 0.2335(5)
C78 C 0.8277(9) -0.0590(9) 0.2652(4)
C79 C 0.8279(10) 0.0888(9) 0.2447(5)
H48 H 0.8285 0.1323 0.2223
C80 C 0.8240(9) 0.1105(10) 0.2864(5)
H49 H 0.8191 0.1701 0.2936
C81 C 0.8263(9) 0.0521(9) 0.3189(4)
C82 C 0.8281(9) -0.0309(9) 0.3080(4)
H50 H 0.8304 -0.0728 0.3313
C83 C 0.8207(11) 0.0813(11) 0.3612(5)
N7 N 0.8041(8) 0.0270(7) 0.3914(4)
O4 O 0.8335(7) 0.1551(7) 0.3704(3)
C84 C 0.7866(11) 0.0385(11) 0.4336(5)
N8 N 0.7793(9) -0.0317(8) 0.4529(4)
C85 C 0.7581(12) -0.0290(12) 0.4936(6)
C86 C 0.7459(13) 0.0414(13) 0.5132(6)
H51 H 0.7294 0.0412 0.5427
C87 C 0.7553(14) 0.1130(14) 0.4927(7)
H52 H 0.7466 0.1655 0.5080
C88 C 0.7774(11) 0.1175(12) 0.4510(6)
H53 H 0.7854 0.1702 0.4357
C89 C 0.7524(13) -0.1133(12) 0.5132(6)
H54 H 0.7386 -0.0906 0.5409
H55 H 0.8101 -0.1467 0.5189
H56 H 0.7004 -0.1490 0.4998
H58 H 0.6524 -0.1773 0.1825
H61 H 0.8130 -0.0332 0.3857
C90 C 1.1286(15) -0.6741(15) 0.1056(7)
Cl4 Cl 1.1307(7) -0.7166(7) 0.0549(3)
Cl5 Cl 1.2238(6) -0.7168(6) 0.1399(3)
Cl6 Cl 1.1535(8) -0.5657(7) 0.0998(4)
Cl7? Cl 1.2016(37) -0.7531(33) 0.1150(16)
Cl8? Cl 1.1641(23) -0.5847(21) 0.1363(11)
Cl9? Cl 1.1307(17) -0.6408(19) 0.0543(8)
H57? H 0.4033 -0.0352 0.0980
H60? H 0.9034 0.2606 0.3805
loop_
_geom_bond_atom_site_label_1
_geom_bond_atom_site_label_2
_geom_bond_site_symmetry_1
_geom_bond_site_symmetry_2
Cl1 C1 1_555 1_555
Cl2 C1 1_555 1_555
Cl3 C1 1_555 1_555
C2 H1 1_555 1_555
H2 C2 1_555 1_555
H3 C2 1_555 1_555
C3 C2 1_555 1_555
C4 C3 1_555 1_555
H4 C4 1_555 1_555
C5 C4 1_555 1_555
H5 C5 1_555 1_555
C6 C5 1_555 1_555
H6 C6 1_555 1_555
C7 C6 1_555 1_555
N1 C3 1_555 1_555
N2 C7 1_555 1_555
C8 N2 1_555 1_555
O1 C8 1_555 1_555
C9 C8 1_555 1_555
C10 C9 1_555 1_555
H7 C10 1_555 1_555
C11 C10 1_555 1_555
H8 C11 1_555 1_555
C12 C11 1_555 1_555
C13 C12 1_555 1_555
C14 C9 1_555 1_555
H9 C14 1_555 1_555
C15 C12 1_555 1_555
H10 C15 1_555 1_555
C16 C15 1_555 1_555
H11 C16 1_555 1_555
C17 C16 1_555 1_555
C18 C13 1_555 1_555
C19 C18 1_555 1_555
C20 C19 1_555 1_555
C21 C20 1_555 1_555
H12 C21 1_555 1_555
C22 C17 1_555 1_555
H13 C22 1_555 1_555
C23 C20 1_555 1_555
H14 C23 1_555 1_555
C24 C23 1_555 1_555
H15 C24 1_555 1_555
C25 C24 1_555 1_555
C26 C19 1_555 1_555
C27 C25 1_555 1_555
H16 C27 1_555 1_555
C28 C27 1_555 1_555
H17 C28 1_555 1_555
C29 C28 1_555 1_555
C30 C26 1_555 1_555
C31 C29 1_555 1_555
H18 C31 1_555 1_555
C32 C31 1_555 1_555
H19 C32 1_555 1_555
C33 C32 1_555 1_555
C34 C30 1_555 1_555
C35 C33 1_555 1_555
H20 C35 1_555 1_555
C36 C35 1_555 1_555
H21 C36 1_555 1_555
C37 C36 1_555 1_555
C38 C34 1_555 1_555
H22 C38 1_555 1_555
C39 C37 1_555 1_555
N3 C39 1_555 1_555
O2 C39 1_555 1_555
C40 N3 1_555 1_555
N4 C40 1_555 1_555
C41 N4 1_555 1_555
C42 C41 1_555 1_555
H23 C42 1_555 1_555
C43 C42 1_555 1_555
H24 C43 1_555 1_555
C44 C40 1_555 1_555
H25 C44 1_555 1_555
C45 C41 1_555 1_555
H26 C45 1_555 1_555
H27 C45 1_555 1_555
H28 C45 1_555 1_555
C46 H29 1_555 1_555
H30 C46 1_555 1_555
H31 C46 1_555 1_555
C47 C46 1_555 1_555
C48 C47 1_555 1_555
H32 C48 1_555 1_555
C49 C48 1_555 1_555
H33 C49 1_555 1_555
C50 C49 1_555 1_555
H34 C50 1_555 1_555
C51 C50 1_555 1_555
N5 C47 1_555 1_555
N6 C51 1_555 1_555
C52 N6 1_555 1_555
O3 C52 1_555 1_555
C53 C52 1_555 1_555
C54 C53 1_555 1_555
H35 C54 1_555 1_555
C55 C54 1_555 1_555
H36 C55 1_555 1_555
C56 C55 1_555 1_555
C57 C56 1_555 1_555
C58 C53 1_555 1_555
H37 C58 1_555 1_555
C59 C56 1_555 1_555
H38 C59 1_555 1_555
C60 C59 1_555 1_555
H39 C60 1_555 1_555
C61 C60 1_555 1_555
C62 C57 1_555 1_555
C63 C62 1_555 1_555
C64 C63 1_555 1_555
C65 C64 1_555 1_555
H40 C65 1_555 1_555
C66 C61 1_555 1_555
H41 C66 1_555 1_555
C67 C64 1_555 1_555
H42 C67 1_555 1_555
C68 C67 1_555 1_555
H43 C68 1_555 1_555
C69 C68 1_555 1_555
C70 C63 1_555 1_555
C71 C69 1_555 1_555
H44 C71 1_555 1_555
C72 C71 1_555 1_555
H45 C72 1_555 1_555
C73 C72 1_555 1_555
C74 C70 1_555 1_555
C75 C73 1_555 1_555
H46 C75 1_555 1_555
C76 C75 1_555 1_555
H47 C76 1_555 1_555
C77 C76 1_555 1_555
C78 C74 1_555 1_555
C79 C77 1_555 1_555
H48 C79 1_555 1_555
C80 C79 1_555 1_555
H49 C80 1_555 1_555
C81 C80 1_555 1_555
C82 C78 1_555 1_555
H50 C82 1_555 1_555
C83 C81 1_555 1_555
N7 C83 1_555 1_555
O4 C83 1_555 1_555
C84 N7 1_555 1_555
N8 C84 1_555 1_555
C85 N8 1_555 1_555
C86 C85 1_555 1_555
H51 C86 1_555 1_555
C87 C86 1_555 1_555
H52 C87 1_555 1_555
C88 C84 1_555 1_555
H53 C88 1_555 1_555
C89 C85 1_555 1_555
H54 C89 1_555 1_555
H55 C89 1_555 1_555
H56 C89 1_555 1_555
C90 Cl4 1_555 1_555
Cl5 C90 1_555 1_555
Cl6 C90 1_555 1_555
H58 N6 1_555 1_555
H59 N2 1_555 1_555
H61 N7 1_555 1_555
C7 N1 1_555 1_555
C13 C14 1_555 1_555
C17 C18 1_555 1_555
C21 C22 1_555 1_555
C25 C26 1_555 1_555
C29 C30 1_555 1_555
C33 C34 1_555 1_555
C37 C38 1_555 1_555
C43 C44 1_555 1_555
C51 N5 1_555 1_555
C57 C58 1_555 1_555
C61 C62 1_555 1_555
C65 C66 1_555 1_555
C69 C70 1_555 1_555
C73 C74 1_555 1_555
C77 C78 1_555 1_555
C81 C82 1_555 1_555
C87 C88 1_555 1_555

#END
