
#######################################################################
#
#                 Cambridge Crystallographic Data Centre
#                                CCDC 
#
#######################################################################
#
# If this CIF has been generated from an entry in the Cambridge 
# Structural Database, then it will include bibliographic, chemical, 
# crystal, experimental, refinement or atomic coordinate data resulting 
# from the CCDC's data processing and validation procedures.
#
#######################################################################

data_PIQCIE
_chemical_formula_moiety         'C15 H15 N1 O2'
_chemical_name_systematic        
2-methyl-1,7,8,12b-tetrahydro-1,5-epoxyazepino[2,1-a]isoquinolin-4(5H)-one
_symmetry_cell_setting           monoclinic
_symmetry_space_group_name_H-M   'P 21/c'
_symmetry_Int_Tables_number      14
_space_group_name_Hall           '-P 2ybc'
loop_
_symmetry_equiv_pos_site_id
_symmetry_equiv_pos_as_xyz
1 x,y,z
2 -x,1/2+y,1/2-z
3 -x,-y,-z
4 x,1/2-y,1/2+z
_cell_length_a                   13.7556(11)
_cell_length_b                   7.2866(5)
_cell_length_c                   12.0511(10)
_cell_angle_alpha                90
_cell_angle_beta                 103.518(3)
_cell_angle_gamma                90
_cell_volume                     1174.44
_exptl_crystal_colour            colorless
_exptl_crystal_description       block
_cell_formula_units_Z            4
loop_
_atom_site_label
_atom_site_type_symbol
_atom_site_fract_x
_atom_site_fract_y
_atom_site_fract_z
O1 O 0.09878(6) 0.84009(12) 0.73039(7)
O2 O 0.28442(6) 0.55300(11) 0.67581(6)
N1 N 0.20628(7) 0.74705(13) 0.52850(8)
C1 C 0.26042(8) 0.89425(15) 0.48578(10)
H1 H 0.256571 1.007378 0.530056
H2 H 0.227198 0.919374 0.405096
C2 C 0.37003(9) 0.84859(16) 0.49371(10)
H3 H 0.401534 0.948435 0.458740
H4 H 0.405968 0.837600 0.574815
C3 C 0.37751(8) 0.67048(16) 0.43254(9)
C4 C 0.45644(8) 0.63730(16) 0.38035(10)
H5 H 0.507119 0.727460 0.384986
C5 C 0.46217(9) 0.47537(17) 0.32195(10)
H6 H 0.516894 0.454030 0.287985
C6 C 0.38715(9) 0.34399(16) 0.31336(10)
H7 H 0.390289 0.232776 0.273195
C7 C 0.30784(8) 0.37654(16) 0.36380(10)
H8 H 0.256240 0.287655 0.356828
C8 C 0.30274(8) 0.53795(15) 0.42466(9)
C9 C 0.21514(8) 0.56279(15) 0.48016(9)
H9 H 0.151526 0.531927 0.423769
C10 C 0.22546(8) 0.44001(15) 0.58762(9)
H10 H 0.261106 0.323064 0.579228
C11 C 0.12379(8) 0.40175(16) 0.61161(9)
C12 C 0.07421(9) 0.22418(17) 0.56982(11)
H11 H 0.075604 0.206558 0.489586
H12 H 0.004694 0.226503 0.576950
H13 H 0.109804 0.123002 0.615509
C13 C 0.08356(8) 0.53132(17) 0.66580(10)
H14 H 0.022935 0.508165 0.688254
C14 C 0.13373(8) 0.70887(16) 0.69016(9)
C15 C 0.23259(8) 0.72403(16) 0.65306(9)
H15 H 0.274178 0.828463 0.691865
loop_
_geom_bond_atom_site_label_1
_geom_bond_atom_site_label_2
_geom_bond_site_symmetry_1
_geom_bond_site_symmetry_2
O1 C14 1_555 1_555
O2 C10 1_555 1_555
N1 C1 1_555 1_555
C1 H1 1_555 1_555
H2 C1 1_555 1_555
C2 C1 1_555 1_555
H3 C2 1_555 1_555
H4 C2 1_555 1_555
C3 C2 1_555 1_555
C4 C3 1_555 1_555
H5 C4 1_555 1_555
C5 C4 1_555 1_555
H6 C5 1_555 1_555
C6 C5 1_555 1_555
H7 C6 1_555 1_555
C7 C6 1_555 1_555
H8 C7 1_555 1_555
C8 C3 1_555 1_555
C9 N1 1_555 1_555
H9 C9 1_555 1_555
C10 C9 1_555 1_555
H10 C10 1_555 1_555
C11 C10 1_555 1_555
C12 C11 1_555 1_555
H11 C12 1_555 1_555
H12 C12 1_555 1_555
H13 C12 1_555 1_555
C13 C11 1_555 1_555
H14 C13 1_555 1_555
C14 C13 1_555 1_555
C15 O2 1_555 1_555
H15 C15 1_555 1_555
N1 C15 1_555 1_555
C7 C8 1_555 1_555
C8 C9 1_555 1_555
C14 C15 1_555 1_555

#END
