
#######################################################################
#
#                 Cambridge Crystallographic Data Centre
#                                CCDC 
#
#######################################################################
#
# If this CIF has been generated from an entry in the Cambridge 
# Structural Database, then it will include bibliographic, chemical, 
# crystal, experimental, refinement or atomic coordinate data resulting 
# from the CCDC's data processing and validation procedures.
#
#######################################################################

data_PIQCOK
_chemical_formula_moiety         'C15 H15 N1 O2'
_chemical_name_systematic        
3-methyl-1,7,8,12b-tetrahydro-1,5-epoxyazepino[2,1-a]isoquinolin-4(5H)-one
_symmetry_cell_setting           monoclinic
_symmetry_space_group_name_H-M   'P 21/c'
_symmetry_Int_Tables_number      14
_space_group_name_Hall           '-P 2ybc'
loop_
_symmetry_equiv_pos_site_id
_symmetry_equiv_pos_as_xyz
1 x,y,z
2 -x,1/2+y,1/2-z
3 -x,-y,-z
4 x,1/2-y,1/2+z
_cell_length_a                   10.1468(5)
_cell_length_b                   10.0039(5)
_cell_length_c                   11.7467(10)
_cell_angle_alpha                90
_cell_angle_beta                 95.755(4)
_cell_angle_gamma                90
_cell_volume                     1186.37
_exptl_crystal_colour            colorless
_exptl_crystal_description       block
_cell_formula_units_Z            4
loop_
_atom_site_label
_atom_site_type_symbol
_atom_site_fract_x
_atom_site_fract_y
_atom_site_fract_z
O1 O 0.69341(9) 0.84374(10) 0.56640(8)
O2 O 0.50195(8) 0.79043(8) 0.30994(7)
N1 N 0.42278(9) 0.69192(10) 0.46917(8)
C1 C 0.64632(11) 0.77733(12) 0.48524(10)
C2 C 0.50472(11) 0.80098(12) 0.43114(10)
H1 H 0.470880 0.889954 0.453884
C3 C 0.29708(11) 0.73834(12) 0.50823(10)
H2 H 0.316163 0.806170 0.569015
H3 H 0.252178 0.662053 0.541660
C4 C 0.20447(11) 0.79878(12) 0.41125(10)
H4 H 0.120442 0.826532 0.440423
H5 H 0.246084 0.878744 0.380416
C5 C 0.17700(11) 0.69609(11) 0.31806(9)
C6 C 0.05598(11) 0.69215(12) 0.24950(10)
H6 H -0.008473 0.759209 0.258418
C7 C 0.02843(11) 0.59234(12) 0.16891(10)
H7 H -0.054177 0.591043 0.123040
C8 C 0.12269(11) 0.49389(12) 0.15559(10)
H8 H 0.104893 0.425493 0.100076
C9 C 0.24264(11) 0.49591(11) 0.22358(9)
H9 H 0.305995 0.427561 0.215363
C10 C 0.27123(10) 0.59722(11) 0.30388(9)
C11 C 0.40674(10) 0.59632(11) 0.37204(9)
H10 H 0.429193 0.503802 0.399805
C12 C 0.51416(11) 0.64790(12) 0.29727(10)
H11 H 0.494192 0.620071 0.215593
C13 C 0.65052(11) 0.60326(12) 0.34484(10)
H12 H 0.690612 0.529490 0.310812
C14 C 0.71621(11) 0.66546(12) 0.43403(10)
C15 C 0.85267(11) 0.62784(13) 0.48620(11)
H13 H 0.911595 0.705308 0.484777
H14 H 0.886940 0.554558 0.442280
H15 H 0.848351 0.599142 0.565503
loop_
_geom_bond_atom_site_label_1
_geom_bond_atom_site_label_2
_geom_bond_site_symmetry_1
_geom_bond_site_symmetry_2
O1 C1 1_555 1_555
O2 C2 1_555 1_555
N1 C2 1_555 1_555
C1 C2 1_555 1_555
C2 H1 1_555 1_555
C3 N1 1_555 1_555
H2 C3 1_555 1_555
H3 C3 1_555 1_555
C4 C3 1_555 1_555
H4 C4 1_555 1_555
H5 C4 1_555 1_555
C5 C4 1_555 1_555
C6 C5 1_555 1_555
H6 C6 1_555 1_555
C7 C6 1_555 1_555
H7 C7 1_555 1_555
C8 C7 1_555 1_555
H8 C8 1_555 1_555
C9 C8 1_555 1_555
H9 C9 1_555 1_555
C10 C5 1_555 1_555
C11 N1 1_555 1_555
H10 C11 1_555 1_555
C12 O2 1_555 1_555
H11 C12 1_555 1_555
C13 C12 1_555 1_555
H12 C13 1_555 1_555
C14 C1 1_555 1_555
C15 C14 1_555 1_555
H13 C15 1_555 1_555
H14 C15 1_555 1_555
H15 C15 1_555 1_555
C9 C10 1_555 1_555
C10 C11 1_555 1_555
C11 C12 1_555 1_555
C13 C14 1_555 1_555

#END
