
#######################################################################
#
#                 Cambridge Crystallographic Data Centre
#                                CCDC 
#
#######################################################################
#
# If this CIF has been generated from an entry in the Cambridge 
# Structural Database, then it will include bibliographic, chemical, 
# crystal, experimental, refinement or atomic coordinate data resulting 
# from the CCDC's data processing and validation procedures.
#
#######################################################################

data_PIQDAX
_chemical_formula_moiety         'C24 H22 N2 O4 S1,0.44(C1 H1 Cl3)'
_chemical_name_systematic        
"5-methyl-13-[(4-methylphenyl)sulfonyl]-7,8,13,13b-tetrahydro-1H-1,5-epoxyazepino[1',2':1,2]pyrido[3,4-b]indol-4(5H)-one chloroform solvate"
_symmetry_cell_setting           triclinic
_symmetry_space_group_name_H-M   'P -1'
_symmetry_Int_Tables_number      2
_space_group_name_Hall           '-P 1'
loop_
_symmetry_equiv_pos_site_id
_symmetry_equiv_pos_as_xyz
1 x,y,z
2 -x,-y,-z
_cell_length_a                   8.9873(7)
_cell_length_b                   13.2262(10)
_cell_length_c                   19.8052(18)
_cell_angle_alpha                103.848(6)
_cell_angle_beta                 102.311(10)
_cell_angle_gamma                94.386(7)
_cell_volume                     2212.95
_exptl_crystal_colour            colorless
_exptl_crystal_description       block
_cell_formula_units_Z            4
loop_
_atom_site_label
_atom_site_type_symbol
_atom_site_fract_x
_atom_site_fract_y
_atom_site_fract_z
S1 S 0.29827(5) 0.63339(3) 0.80565(2)
O1 O 0.43805(16) 0.14942(12) 0.58271(8)
O2 O 0.17540(13) 0.25158(9) 0.67993(6)
O3 O 0.29216(14) 0.59380(10) 0.73108(6)
O4 O 0.19135(15) 0.70089(10) 0.82808(7)
N1 N 0.43386(16) 0.29407(11) 0.73581(7)
N2 N 0.27129(16) 0.52777(11) 0.83623(7)
C1 C 0.3618(2) 0.21274(14) 0.60886(9)
C2 C 0.32057(19) 0.21263(14) 0.68130(9)
C3 C 0.51268(19) 0.27214(14) 0.80273(9)
H1 H 0.610352 0.320453 0.822563
H2 H 0.538961 0.199640 0.791328
C4 C 0.4214(2) 0.28311(14) 0.86099(9)
H3 H 0.336803 0.224170 0.847331
H4 H 0.489572 0.281601 0.907062
C5 C 0.35788(18) 0.38518(13) 0.86852(9)
C6 C 0.30732(18) 0.44752(13) 0.92757(9)
C7 C 0.2978(2) 0.43377(15) 0.99449(9)
H5 H 0.330706 0.373839 1.008702
C8 C 0.2396(2) 0.50881(16) 1.03951(10)
H6 H 0.232817 0.500363 1.085106
C9 C 0.1908(2) 0.59688(16) 1.01882(10)
H7 H 0.151575 0.647510 1.050809
C10 C 0.1982(2) 0.61234(15) 0.95249(10)
H8 H 0.164900 0.672388 0.938567
C11 C 0.25635(18) 0.53633(13) 0.90752(8)
C12 C 0.33849(18) 0.43422(13) 0.81543(8)
C13 C 0.36625(18) 0.39346(13) 0.74243(8)
H9 H 0.434419 0.447471 0.731311
C14 C 0.21284(19) 0.36014(13) 0.68320(9)
H10 H 0.130746 0.402073 0.696771
C15 C 0.2412(2) 0.37028(14) 0.61272(9)
H11 H 0.210412 0.427408 0.594229
C16 C 0.3102(2) 0.29741(15) 0.57699(9)
H12 H 0.325930 0.300010 0.531467
C17 C 0.3087(2) 0.10394(15) 0.69197(11)
H13 H 0.281722 0.106117 0.737650
H14 H 0.407649 0.077289 0.692478
H15 H 0.229104 0.057459 0.652757
C18 C 0.48603(19) 0.69324(12) 0.85042(8)
C19 C 0.6089(2) 0.66154(13) 0.82204(9)
H16 H 0.591489 0.607956 0.778531
C20 C 0.7565(2) 0.70869(13) 0.85770(9)
H17 H 0.840746 0.687229 0.838466
C21 C 0.7832(2) 0.78755(13) 0.92171(9)
C22 C 0.6582(2) 0.81873(14) 0.94890(9)
H18 H 0.675177 0.872699 0.992190
C23 C 0.5096(2) 0.77219(14) 0.91372(9)
H19 H 0.425002 0.793901 0.932583
C24 C 0.9436(2) 0.83843(15) 0.96035(10)
H20 H 0.992751 0.794146 0.989340
H21 H 0.939945 0.907498 0.991549
H22 H 1.002838 0.846892 0.925394
S2 S 0.02820(4) -0.00031(3) 0.20580(2)
O5 O 0.24363(15) 0.50823(10) 0.48523(6)
O6 O 0.20055(12) 0.36530(8) 0.30935(6)
O7 O -0.04400(13) 0.05324(9) 0.25923(7)
O8 O -0.04597(13) -0.01843(9) 0.13158(7)
N3 N 0.31714(15) 0.28606(10) 0.39530(7)
N4 N 0.19759(15) 0.07158(10) 0.21968(7)
C25 C 0.19206(19) 0.43681(13) 0.43134(8)
C26 C 0.29334(18) 0.38904(12) 0.38107(8)
C27 C 0.47211(18) 0.25724(13) 0.41474(8)
H23 H 0.466712 0.199449 0.438342
H24 H 0.538934 0.318310 0.450153
C28 C 0.54761(18) 0.22240(13) 0.35168(8)
H25 H 0.587532 0.284756 0.338251
H26 H 0.634887 0.184417 0.365822
C29 C 0.43077(18) 0.15198(12) 0.28917(8)
C30 C 0.45371(18) 0.08494(12) 0.22404(8)
C31 C 0.58479(18) 0.06483(13) 0.19843(9)
H27 H 0.683538 0.099357 0.225615
C32 C 0.5676(2) -0.00645(14) 0.13266(10)
H28 H 0.655594 -0.020920 0.114493
C33 C 0.4221(2) -0.05760(14) 0.09246(9)
H29 H 0.413637 -0.107001 0.047788
C34 C 0.28987(19) -0.03786(13) 0.11633(9)
H30 H 0.191203 -0.072297 0.088986
C35 C 0.30911(18) 0.03476(12) 0.18220(8)
C36 C 0.27901(17) 0.14259(12) 0.28630(8)
C37 C 0.20349(17) 0.20605(12) 0.33978(8)
H31 H 0.146890 0.159572 0.361726
C38 C 0.09518(17) 0.27615(12) 0.30576(8)
H32 H 0.040348 0.239686 0.255203
C39 C -0.01547(18) 0.30854(13) 0.35136(9)
H33 H -0.117778 0.273500 0.337900
C40 C 0.03089(19) 0.38692(14) 0.41096(9)
H34 H -0.038476 0.410080 0.439663
C41 C 0.43442(19) 0.46389(13) 0.38871(9)
H35 H 0.490229 0.433652 0.352919
H36 H 0.500980 0.475975 0.436807
H37 H 0.403918 0.530763 0.381360
C42 C 0.07358(18) -0.12086(12) 0.22140(9)
C43 C 0.17225(19) -0.12211(14) 0.28585(9)
H38 H 0.215700 -0.058307 0.321050
C44 C 0.2059(2) -0.21765(14) 0.29778(9)
H39 H 0.274581 -0.219157 0.341142
C45 C 0.14027(19) -0.31188(14) 0.24686(10)
C46 C 0.04219(19) -0.30825(13) 0.18315(10)
H40 H -0.003136 -0.372033 0.148328
C47 C 0.00920(18) -0.21324(13) 0.16942(9)
H41 H -0.056198 -0.211535 0.125280
C48 C 0.1779(2) -0.41528(15) 0.26053(12)
H42 H 0.115231 -0.473003 0.221665
H43 H 0.155889 -0.420103 0.306124
H44 H 0.286997 -0.420044 0.262684
Cl1 Cl 0.00824(7) 0.88162(4) 0.53647(3)
Cl2 Cl 0.27293(6) 0.93342(4) 0.48483(3)
Cl3 Cl 0.15318(6) 0.71580(4) 0.46334(3)
C49 C 0.1060(2) 0.84426(15) 0.46816(10)
H45 H 0.037248 0.844841 0.421391
loop_
_geom_bond_atom_site_label_1
_geom_bond_atom_site_label_2
_geom_bond_site_symmetry_1
_geom_bond_site_symmetry_2
S1 O3 1_555 1_555
O1 C1 1_555 1_555
O2 C2 1_555 1_555
O4 S1 1_555 1_555
N1 C2 1_555 1_555
N2 S1 1_555 1_555
C1 C2 1_555 1_555
C2 C17 1_555 1_555
C3 N1 1_555 1_555
H1 C3 1_555 1_555
H2 C3 1_555 1_555
C4 C3 1_555 1_555
H3 C4 1_555 1_555
H4 C4 1_555 1_555
C5 C4 1_555 1_555
C6 C5 1_555 1_555
C7 C6 1_555 1_555
H5 C7 1_555 1_555
C8 C7 1_555 1_555
H6 C8 1_555 1_555
C9 C8 1_555 1_555
H7 C9 1_555 1_555
C10 C9 1_555 1_555
H8 C10 1_555 1_555
C11 N2 1_555 1_555
C12 N2 1_555 1_555
C13 N1 1_555 1_555
H9 C13 1_555 1_555
C14 O2 1_555 1_555
H10 C14 1_555 1_555
C15 C14 1_555 1_555
H11 C15 1_555 1_555
C16 C1 1_555 1_555
H12 C16 1_555 1_555
C17 H13 1_555 1_555
H14 C17 1_555 1_555
H15 C17 1_555 1_555
C18 S1 1_555 1_555
C19 C18 1_555 1_555
H16 C19 1_555 1_555
C20 C19 1_555 1_555
H17 C20 1_555 1_555
C21 C20 1_555 1_555
C22 C21 1_555 1_555
H18 C22 1_555 1_555
C23 C18 1_555 1_555
H19 C23 1_555 1_555
C24 C21 1_555 1_555
H20 C24 1_555 1_555
H21 C24 1_555 1_555
H22 C24 1_555 1_555
S2 O7 1_555 1_555
O5 C25 1_555 1_555
O6 C26 1_555 1_555
O8 S2 1_555 1_555
N3 C26 1_555 1_555
N4 S2 1_555 1_555
C25 C26 1_555 1_555
C26 C41 1_555 1_555
C27 N3 1_555 1_555
H23 C27 1_555 1_555
H24 C27 1_555 1_555
C28 C27 1_555 1_555
H25 C28 1_555 1_555
H26 C28 1_555 1_555
C29 C28 1_555 1_555
C30 C29 1_555 1_555
C31 C30 1_555 1_555
H27 C31 1_555 1_555
C32 C31 1_555 1_555
H28 C32 1_555 1_555
C33 C32 1_555 1_555
H29 C33 1_555 1_555
C34 C33 1_555 1_555
H30 C34 1_555 1_555
C35 N4 1_555 1_555
C36 N4 1_555 1_555
C37 N3 1_555 1_555
H31 C37 1_555 1_555
C38 O6 1_555 1_555
H32 C38 1_555 1_555
C39 C38 1_555 1_555
H33 C39 1_555 1_555
C40 C25 1_555 1_555
H34 C40 1_555 1_555
C41 H35 1_555 1_555
H36 C41 1_555 1_555
H37 C41 1_555 1_555
C42 S2 1_555 1_555
C43 C42 1_555 1_555
H38 C43 1_555 1_555
C44 C43 1_555 1_555
H39 C44 1_555 1_555
C45 C44 1_555 1_555
C46 C45 1_555 1_555
H40 C46 1_555 1_555
C47 C42 1_555 1_555
H41 C47 1_555 1_555
C48 C45 1_555 1_555
H42 C48 1_555 1_555
H43 C48 1_555 1_555
H44 C48 1_555 1_555
Cl1 C49 1_555 1_555
Cl2 C49 1_555 1_555
Cl3 C49 1_555 1_555
C49 H45 1_555 1_555
C5 C12 1_555 1_555
C6 C11 1_555 1_555
C10 C11 1_555 1_555
C12 C13 1_555 1_555
C13 C14 1_555 1_555
C15 C16 1_555 1_555
C22 C23 1_555 1_555
C29 C36 1_555 1_555
C30 C35 1_555 1_555
C34 C35 1_555 1_555
C36 C37 1_555 1_555
C37 C38 1_555 1_555
C39 C40 1_555 1_555
C46 C47 1_555 1_555

#END
