
#######################################################################
#
#                 Cambridge Crystallographic Data Centre
#                                CCDC 
#
#######################################################################
#
# If this CIF has been generated from an entry in the Cambridge 
# Structural Database, then it will include bibliographic, chemical, 
# crystal, experimental, refinement or atomic coordinate data resulting 
# from the CCDC's data processing and validation procedures.
#
#######################################################################

data_PIQDEB
_chemical_formula_moiety         'C24 H22 N2 O4 S1'
_chemical_name_systematic        
2-methyl-13-[(4-methylphenyl)sulfonyl]-7,8,13,13b-tetrahydro-1H-1,5-epoxyazepino[1',2':1,2]pyrido[3,4-b]indol-4(5H)-one
_symmetry_cell_setting           orthorhombic
_symmetry_space_group_name_H-M   'P b c n'
_symmetry_Int_Tables_number      60
_space_group_name_Hall           '-P 2n 2ab'
loop_
_symmetry_equiv_pos_site_id
_symmetry_equiv_pos_as_xyz
1 x,y,z
2 1/2-x,1/2-y,1/2+z
3 -x,y,1/2-z
4 1/2+x,1/2-y,-z
5 -x,-y,-z
6 1/2+x,1/2+y,1/2-z
7 x,-y,1/2+z
8 1/2-x,1/2+y,z
_cell_length_a                   24.3770(12)
_cell_length_b                   8.6910(5)
_cell_length_c                   19.1687(13)
_cell_angle_alpha                90
_cell_angle_beta                 90
_cell_angle_gamma                90
_cell_volume                     4061.09
_exptl_crystal_colour            colorless
_exptl_crystal_description       plate
_cell_formula_units_Z            8
loop_
_atom_site_label
_atom_site_type_symbol
_atom_site_fract_x
_atom_site_fract_y
_atom_site_fract_z
S1 S 0.36232(2) 0.60033(3) 0.57733(2)
O1 O 0.63505(5) 0.25002(14) 0.67809(8)
O2 O 0.54050(4) 0.36665(11) 0.55521(5)
O3 O 0.40382(4) 0.65966(11) 0.62283(6)
O4 O 0.34482(4) 0.68790(11) 0.51848(5)
N1 N 0.50319(5) 0.25823(12) 0.65522(6)
N2 N 0.38712(4) 0.43316(12) 0.54750(6)
C1 C 0.59835(6) 0.32985(18) 0.65436(8)
C2 C 0.55215(6) 0.26244(16) 0.61021(7)
H1 H 0.561710 0.157891 0.592132
C3 C 0.47533(6) 0.10928(15) 0.65967(7)
H2 H 0.445906 0.115884 0.695136
H3 H 0.501943 0.030584 0.675447
C4 C 0.45029(6) 0.05774(15) 0.59028(7)
H4 H 0.479650 0.029556 0.556972
H5 H 0.426521 -0.033219 0.597574
C5 C 0.41725(5) 0.18894(15) 0.56207(7)
C6 C 0.37464(5) 0.18751(15) 0.50982(7)
C7 C 0.35106(6) 0.06943(16) 0.47011(7)
H6 H 0.363537 -0.033696 0.474394
C8 C 0.30918(6) 0.10681(17) 0.42453(7)
H7 H 0.293207 0.028591 0.396498
C9 C 0.28993(6) 0.25816(18) 0.41902(7)
H8 H 0.260521 0.279994 0.388048
C10 C 0.31279(6) 0.37717(16) 0.45773(7)
H9 H 0.299734 0.479810 0.453867
C11 C 0.35566(5) 0.33916(15) 0.50240(7)
C12 C 0.42382(5) 0.33571(15) 0.58467(7)
C13 C 0.46867(5) 0.38936(14) 0.63301(7)
H10 H 0.453659 0.447377 0.673819
C14 C 0.51127(5) 0.48571(15) 0.59179(7)
H11 H 0.492834 0.557702 0.558528
C15 C 0.54978(6) 0.57108(16) 0.64003(7)
C16 C 0.59226(6) 0.49556(17) 0.66767(8)
H12 H 0.618301 0.548451 0.695673
C17 C 0.53728(6) 0.73705(17) 0.65332(9)
H13 H 0.540268 0.794842 0.609583
H14 H 0.563440 0.778293 0.687335
H15 H 0.499936 0.746732 0.671739
C18 C 0.30435(5) 0.54560(15) 0.62614(7)
C19 C 0.31156(6) 0.45291(17) 0.68458(7)
H16 H 0.347310 0.421993 0.698483
C20 C 0.26609(6) 0.40627(17) 0.72224(7)
H17 H 0.270844 0.343755 0.762440
C21 C 0.21335(6) 0.44974(16) 0.70201(7)
C22 C 0.20764(6) 0.54280(19) 0.64349(8)
H18 H 0.171960 0.574259 0.629585
C23 C 0.25255(6) 0.59108(17) 0.60479(8)
H19 H 0.247889 0.653798 0.564631
C24 C 0.16357(6) 0.39800(18) 0.74206(8)
H20 H 0.173129 0.309083 0.771056
H21 H 0.134474 0.369097 0.709306
H22 H 0.150689 0.482118 0.771907
loop_
_geom_bond_atom_site_label_1
_geom_bond_atom_site_label_2
_geom_bond_site_symmetry_1
_geom_bond_site_symmetry_2
S1 O3 1_555 1_555
O1 C1 1_555 1_555
O2 C2 1_555 1_555
O4 S1 1_555 1_555
N1 C2 1_555 1_555
N2 S1 1_555 1_555
C1 C2 1_555 1_555
C2 H1 1_555 1_555
C3 N1 1_555 1_555
H2 C3 1_555 1_555
H3 C3 1_555 1_555
C4 C3 1_555 1_555
H4 C4 1_555 1_555
H5 C4 1_555 1_555
C5 C4 1_555 1_555
C6 C5 1_555 1_555
C7 C6 1_555 1_555
H6 C7 1_555 1_555
C8 C7 1_555 1_555
H7 C8 1_555 1_555
C9 C8 1_555 1_555
H8 C9 1_555 1_555
C10 C9 1_555 1_555
H9 C10 1_555 1_555
C11 N2 1_555 1_555
C12 N2 1_555 1_555
C13 N1 1_555 1_555
H10 C13 1_555 1_555
C14 O2 1_555 1_555
H11 C14 1_555 1_555
C15 C14 1_555 1_555
C16 C1 1_555 1_555
H12 C16 1_555 1_555
C17 C15 1_555 1_555
H13 C17 1_555 1_555
H14 C17 1_555 1_555
H15 C17 1_555 1_555
C18 S1 1_555 1_555
C19 C18 1_555 1_555
H16 C19 1_555 1_555
C20 C19 1_555 1_555
H17 C20 1_555 1_555
C21 C20 1_555 1_555
C22 C21 1_555 1_555
H18 C22 1_555 1_555
C23 C18 1_555 1_555
H19 C23 1_555 1_555
C24 C21 1_555 1_555
H20 C24 1_555 1_555
H21 C24 1_555 1_555
H22 C24 1_555 1_555
C5 C12 1_555 1_555
C6 C11 1_555 1_555
C10 C11 1_555 1_555
C12 C13 1_555 1_555
C13 C14 1_555 1_555
C15 C16 1_555 1_555
C22 C23 1_555 1_555

#END
