
#######################################################################
#
#                 Cambridge Crystallographic Data Centre
#                                CCDC 
#
#######################################################################
#
# If this CIF has been generated from an entry in the Cambridge 
# Structural Database, then it will include bibliographic, chemical, 
# crystal, experimental, refinement or atomic coordinate data resulting 
# from the CCDC's data processing and validation procedures.
#
#######################################################################

data_PIQDIF
_chemical_formula_moiety         'C30 H28 N2 O5 S1,0.5(C4 H8 O2)'
_chemical_name_systematic        
"13-[(4-methylphenyl)sulfonyl]-2,3,4,5,7,8,13,13b-octahydro-1H-1,5-epoxyazepino[1',2':1,2]pyrido[3,4-b]indol-4-yl benzoate ethyl acetate solvate"
_symmetry_cell_setting           monoclinic
_symmetry_space_group_name_H-M   'C 2/c'
_symmetry_Int_Tables_number      15
_space_group_name_Hall           '-C 2yn'
loop_
_symmetry_equiv_pos_site_id
_symmetry_equiv_pos_as_xyz
1 x,y,z
2 -x,y,1/2-z
3 1/2+x,1/2+y,z
4 1/2-x,1/2+y,1/2-z
5 -x,-y,-z
6 x,-y,1/2+z
7 1/2-x,1/2-y,-z
8 1/2+x,1/2-y,1/2+z
_cell_length_a                   30.424(8)
_cell_length_b                   11.883(3)
_cell_length_c                   16.280(5)
_cell_angle_alpha                90
_cell_angle_beta                 107.570(12)
_cell_angle_gamma                90
_cell_volume                     5611.11
_exptl_crystal_colour            colorless
_exptl_crystal_description       plate
_cell_formula_units_Z            8
loop_
_atom_site_label
_atom_site_type_symbol
_atom_site_fract_x
_atom_site_fract_y
_atom_site_fract_z
S1 S 0.43073(2) 0.02354(2) 0.68814(2)
O1 O 0.36226(3) 0.58965(7) 0.99173(5)
O2 O 0.35189(3) 0.52270(7) 0.85790(5)
O3 O 0.33694(3) 0.22149(7) 0.84908(5)
O4 O 0.45247(3) 0.08098(8) 0.76711(5)
O5 O 0.43630(3) -0.09480(7) 0.68112(6)
N1 N 0.34953(3) 0.33810(7) 0.74410(5)
N2 N 0.37420(3) 0.04556(8) 0.66942(6)
C1 C 0.30669(4) 0.92012(10) 0.79331(7)
H1 H 0.296412 0.990582 0.766918
C2 C 0.30365(4) 0.82423(10) 0.74263(7)
H2 H 0.291101 0.829308 0.681773
C3 C 0.31892(4) 0.72132(9) 0.78098(7)
H3 H 0.317226 0.656119 0.746395
C4 C 0.33686(3) 0.71381(9) 0.87084(6)
C5 C 0.33953(3) 0.80986(9) 0.92129(7)
H4 H 0.351456 0.804818 0.982237
C6 C 0.32477(4) 0.91287(9) 0.88253(7)
H5 H 0.327008 0.978454 0.916924
C7 C 0.35180(3) 0.60462(9) 0.91474(6)
C8 C 0.36121(4) 0.40931(9) 0.89016(7)
H6 H 0.351746 0.399697 0.943466
C9 C 0.33190(4) 0.33445(9) 0.81807(6)
H7 H 0.298822 0.358097 0.801122
C10 C 0.31406(4) 0.35707(9) 0.66152(6)
H8 H 0.329220 0.372069 0.616697
H9 H 0.295958 0.424650 0.666285
C11 C 0.28129(3) 0.25705(9) 0.63342(6)
H10 H 0.262718 0.246954 0.673418
H11 H 0.260087 0.269635 0.574699
C12 C 0.31039(3) 0.15582(8) 0.63475(6)
C13 C 0.29934(3) 0.05351(9) 0.58571(6)
C14 C 0.25847(4) 0.01339(9) 0.52791(7)
H12 H 0.230809 0.055921 0.515742
C15 C 0.25921(4) -0.08991(10) 0.48871(7)
H13 H 0.231768 -0.118323 0.449030
C16 C 0.29994(4) -0.15277(9) 0.50698(7)
H14 H 0.299700 -0.222536 0.478347
C17 C 0.34065(4) -0.11600(9) 0.56574(7)
H15 H 0.368057 -0.159621 0.578421
C18 C 0.33972(3) -0.01235(9) 0.60546(6)
C19 C 0.35517(3) 0.15063(8) 0.68394(6)
C20 C 0.37854(3) 0.23591(8) 0.75081(6)
H16 H 0.409745 0.255536 0.746580
C21 C 0.38165(3) 0.19257(9) 0.84235(6)
H17 H 0.386369 0.109224 0.846119
C22 C 0.41843(4) 0.25197(10) 0.91377(7)
H18 H 0.449277 0.232911 0.909183
H19 H 0.416891 0.225122 0.970401
C23 C 0.41192(4) 0.38028(10) 0.90838(7)
H20 H 0.430034 0.415126 0.963435
H21 H 0.423300 0.410646 0.861925
C24 C 0.44321(3) 0.09120(9) 0.60196(7)
C25 C 0.45205(4) 0.20594(10) 0.60596(7)
H22 H 0.453133 0.247724 0.656285
C26 C 0.45926(4) 0.25842(11) 0.53502(8)
H23 H 0.464912 0.337148 0.536940
C27 C 0.45843(4) 0.19832(11) 0.46084(7)
C28 C 0.45047(4) 0.08314(11) 0.45931(7)
H24 H 0.450423 0.040777 0.409790
C29 C 0.44258(4) 0.02899(10) 0.52920(7)
H25 H 0.436818 -0.049689 0.527324
C30 C 0.46645(5) 0.25668(15) 0.38449(9)
H26 H 0.471816 0.337028 0.397139
H27 H 0.439302 0.247171 0.334011
H28 H 0.493452 0.223814 0.372629
O6? O 0.48499(9) 0.39572(18) 0.76897(18)
O7? O 0.51800(6) 0.56241(16) 0.76426(12)
C31? C 0.4390(4) 0.5445(6) 0.6877(8)
H29? H 0.413971 0.529848 0.712606
H30? H 0.430980 0.512683 0.629530
H31? H 0.443618 0.625821 0.684994
C32? C 0.48241(10) 0.4911(2) 0.74278(17)
C33? C 0.5614(3) 0.5195(6) 0.8199(6)
H32? H 0.573227 0.459738 0.789767
H33? H 0.556884 0.486753 0.872677
C34? C 0.59500(11) 0.6139(3) 0.8430(2)
H34? H 0.624463 0.586088 0.880977
H35? H 0.583050 0.672625 0.872754
H36? H 0.599606 0.645113 0.790497
loop_
_geom_bond_atom_site_label_1
_geom_bond_atom_site_label_2
_geom_bond_site_symmetry_1
_geom_bond_site_symmetry_2
S1 O4 1_555 1_555
O1 C7 1_555 1_555
O2 C7 1_555 1_555
O3 C9 1_555 1_555
O5 S1 1_555 1_555
N1 C9 1_555 1_555
N2 S1 1_555 1_555
C1 H1 1_555 1_555
C2 C1 1_555 1_555
H2 C2 1_555 1_555
C3 C2 1_555 1_555
H3 C3 1_555 1_555
C4 C3 1_555 1_555
C5 C4 1_555 1_555
H4 C5 1_555 1_555
C6 C1 1_555 1_555
H5 C6 1_555 1_555
C7 C4 1_555 1_555
C8 O2 1_555 1_555
H6 C8 1_555 1_555
C9 C8 1_555 1_555
H7 C9 1_555 1_555
C10 N1 1_555 1_555
H8 C10 1_555 1_555
H9 C10 1_555 1_555
C11 C10 1_555 1_555
H10 C11 1_555 1_555
H11 C11 1_555 1_555
C12 C11 1_555 1_555
C13 C12 1_555 1_555
C14 C13 1_555 1_555
H12 C14 1_555 1_555
C15 C14 1_555 1_555
H13 C15 1_555 1_555
C16 C15 1_555 1_555
H14 C16 1_555 1_555
C17 C16 1_555 1_555
H15 C17 1_555 1_555
C18 N2 1_555 1_555
C19 N2 1_555 1_555
C20 N1 1_555 1_555
H16 C20 1_555 1_555
C21 O3 1_555 1_555
H17 C21 1_555 1_555
C22 C21 1_555 1_555
H18 C22 1_555 1_555
H19 C22 1_555 1_555
C23 C8 1_555 1_555
H20 C23 1_555 1_555
H21 C23 1_555 1_555
C24 S1 1_555 1_555
C25 C24 1_555 1_555
H22 C25 1_555 1_555
C26 C25 1_555 1_555
H23 C26 1_555 1_555
C27 C26 1_555 1_555
C28 C27 1_555 1_555
H24 C28 1_555 1_555
C29 C24 1_555 1_555
H25 C29 1_555 1_555
C30 C27 1_555 1_555
H26 C30 1_555 1_555
H27 C30 1_555 1_555
H28 C30 1_555 1_555
C5 C6 1_555 1_555
C12 C19 1_555 1_555
C13 C18 1_555 1_555
C17 C18 1_555 1_555
C19 C20 1_555 1_555
C20 C21 1_555 1_555
C22 C23 1_555 1_555
C28 C29 1_555 1_555

#END
