
#######################################################################
#
#                 Cambridge Crystallographic Data Centre
#                                CCDC 
#
#######################################################################
#
# If this CIF has been generated from an entry in the Cambridge 
# Structural Database, then it will include bibliographic, chemical, 
# crystal, experimental, refinement or atomic coordinate data resulting 
# from the CCDC's data processing and validation procedures.
#
#######################################################################

data_PIRBAV
_chemical_formula_moiety         'C21 H15 F6 N1 O1 S1'
_chemical_name_systematic        
4-(2-(1,2-Dimethyl-1H-indol-3-yl)-3,3,4,4,5,5-hexafluorocyclopent-1-en-1-yl)-5-methylthiophene-2-carbaldehyde
_symmetry_cell_setting           orthorhombic
_symmetry_space_group_name_H-M   'P 21 21 21'
_symmetry_Int_Tables_number      19
_space_group_name_Hall           'P 2ac 2ab'
loop_
_symmetry_equiv_pos_site_id
_symmetry_equiv_pos_as_xyz
1 x,y,z
2 1/2-x,-y,1/2+z
3 -x,1/2+y,1/2-z
4 1/2+x,1/2-y,-z
_cell_length_a                   6.1941(13)
_cell_length_b                   16.118(4)
_cell_length_c                   18.814(4)
_cell_angle_alpha                90
_cell_angle_beta                 90
_cell_angle_gamma                90
_cell_volume                     1878.32
_exptl_crystal_colour            colorless
_exptl_crystal_description       Prism
_cell_formula_units_Z            4
loop_
_atom_site_label
_atom_site_type_symbol
_atom_site_fract_x
_atom_site_fract_y
_atom_site_fract_z
S1 S 0.41897(9) 0.31978(3) -0.04628(3)
F1 F 0.29683(19) 0.67406(7) 0.18780(5)
F2 F 0.54960(17) 0.67920(7) 0.10765(6)
F3 F -0.00589(17) 0.68652(7) 0.09489(6)
F4 F 0.24682(19) 0.75555(6) 0.04091(6)
F5 F -0.0040(2) 0.60280(7) -0.01928(7)
F6 F 0.3251(2) 0.63527(7) -0.04559(6)
O1 O 0.1023(3) 0.25215(9) -0.15847(7)
N1 N 0.3859(3) 0.39877(10) 0.25214(8)
C1 C 0.0956(3) 0.39372(12) 0.16165(10)
H1 H -0.0056 0.3797 0.1998
H2 H 0.1346 0.3432 0.1356
H3 H 0.0277 0.4333 0.1291
C2 C 0.2920(3) 0.43117(11) 0.19250(9)
C3 C 0.4055(3) 0.50101(11) 0.17169(9)
C4 C 0.5820(3) 0.51176(11) 0.22107(9)
C5 C 0.7560(3) 0.56633(12) 0.22682(9)
H4 H 0.7728 0.6104 0.1938
C6 C 0.9031(4) 0.55551(13) 0.28090(10)
H5 H 1.0201 0.5932 0.2854
C7 C 0.8839(4) 0.48999(14) 0.32954(10)
H6 H 0.9879 0.4840 0.3663
C8 C 0.7160(4) 0.43429(13) 0.32463(10)
H7 H 0.7033 0.3893 0.3570
C9 C 0.5645(3) 0.44616(12) 0.27019(9)
C10 C 0.3145(4) 0.32484(13) 0.28928(10)
H8 H 0.3439 0.2759 0.2599
H9 H 0.1591 0.3287 0.2985
H10 H 0.3922 0.3200 0.3345
C11 C 0.3458(3) 0.55499(11) 0.11267(9)
C12 C 0.3493(3) 0.64744(11) 0.12187(10)
C13 C 0.1931(3) 0.68040(12) 0.06617(9)
C14 C 0.1958(4) 0.61236(12) 0.00935(10)
C15 C 0.2768(3) 0.53652(10) 0.04596(9)
C16 C 0.2853(3) 0.45772(10) 0.00631(9)
C17 C 0.1317(3) 0.43344(11) -0.04568(9)
H11 H 0.0069 0.4652 -0.0569
C18 C 0.1808(3) 0.36006(11) -0.07798(10)
C19 C 0.4537(3) 0.40200(11) 0.01057(9)
C20 C 0.6560(3) 0.40688(12) 0.05341(10)
H12 H 0.6278 0.3867 0.1017
H13 H 0.7053 0.4646 0.0555
H14 H 0.7677 0.3725 0.0312
C21 C 0.0554(4) 0.31873(13) -0.13242(10)
H15 H -0.0719 0.3454 -0.1489
loop_
_geom_bond_atom_site_label_1
_geom_bond_atom_site_label_2
_geom_bond_site_symmetry_1
_geom_bond_site_symmetry_2
S1 C18 1_555 1_555
F1 C12 1_555 1_555
F2 C12 1_555 1_555
F3 C13 1_555 1_555
F4 C13 1_555 1_555
F5 C14 1_555 1_555
F6 C14 1_555 1_555
O1 C21 1_555 1_555
N1 C2 1_555 1_555
C1 H1 1_555 1_555
H2 C1 1_555 1_555
H3 C1 1_555 1_555
C2 C1 1_555 1_555
C3 C2 1_555 1_555
C4 C3 1_555 1_555
C5 C4 1_555 1_555
H4 C5 1_555 1_555
C6 C5 1_555 1_555
H5 C6 1_555 1_555
C7 C6 1_555 1_555
H6 C7 1_555 1_555
C8 C7 1_555 1_555
H7 C8 1_555 1_555
C9 N1 1_555 1_555
C10 N1 1_555 1_555
H8 C10 1_555 1_555
H9 C10 1_555 1_555
H10 C10 1_555 1_555
C11 C3 1_555 1_555
C12 C11 1_555 1_555
C13 C12 1_555 1_555
C14 C13 1_555 1_555
C15 C11 1_555 1_555
C16 C15 1_555 1_555
C17 C16 1_555 1_555
H11 C17 1_555 1_555
C18 C17 1_555 1_555
C19 S1 1_555 1_555
C20 C19 1_555 1_555
H12 C20 1_555 1_555
H13 C20 1_555 1_555
H14 C20 1_555 1_555
C21 C18 1_555 1_555
H15 C21 1_555 1_555
C4 C9 1_555 1_555
C8 C9 1_555 1_555
C14 C15 1_555 1_555
C16 C19 1_555 1_555

#END
