
#######################################################################
#
#                 Cambridge Crystallographic Data Centre
#                                CCDC 
#
#######################################################################
#
# If this CIF has been generated from an entry in the Cambridge 
# Structural Database, then it will include bibliographic, chemical, 
# crystal, experimental, refinement or atomic coordinate data resulting 
# from the CCDC's data processing and validation procedures.
#
#######################################################################

data_PIRHIK
_chemical_formula_moiety         'C12 H17 N1 O1'
_chemical_name_systematic        3-[1-(pyridin-4-yl)cyclobutyl]propan-1-ol
_symmetry_cell_setting           orthorhombic
_symmetry_space_group_name_H-M   'P n a 21'
_symmetry_Int_Tables_number      33
_space_group_name_Hall           'P 2c -2n'
loop_
_symmetry_equiv_pos_site_id
_symmetry_equiv_pos_as_xyz
1 x,y,z
2 -x,-y,1/2+z
3 1/2+x,1/2-y,z
4 1/2-x,1/2+y,1/2+z
_cell_length_a                   23.352(3)
_cell_length_b                   9.3649(12)
_cell_length_c                   10.0416(13)
_cell_angle_alpha                90
_cell_angle_beta                 90
_cell_angle_gamma                90
_cell_volume                     2195.99
_exptl_crystal_colour            colorless
_exptl_crystal_description       block
_chemical_melting_point          '343 K'
_cell_formula_units_Z            8
_exptl_crystal_recrystallization_method 
'Re-crystallisation from solvent: ethyl acetate/Hexane'
loop_
_atom_site_label
_atom_site_type_symbol
_atom_site_fract_x
_atom_site_fract_y
_atom_site_fract_z
C1 C 0.46127(8) 0.2963(2) 0.0913(2)
C2 C 0.39901(8) 0.28172(19) 0.0532(2)
C3 C 0.35612(10) 0.2665(3) 0.1477(2)
H1 H 0.365283 0.264018 0.239798
C4 C 0.29992(11) 0.2549(3) 0.1062(3)
H2 H 0.271296 0.244676 0.172740
N1 N 0.28311(9) 0.2569(2) -0.0194(3)
C5 C 0.32438(11) 0.2703(3) -0.1101(3)
H3 H 0.313700 0.271616 -0.201409
C6 C 0.38181(10) 0.2823(2) -0.0791(2)
H4 H 0.409439 0.290880 -0.148064
C7 C 0.49526(10) 0.4158(3) 0.0182(3)
H5 H 0.523704 0.379471 -0.046588
H6 H 0.470710 0.490191 -0.022386
C8 C 0.52126(12) 0.4593(3) 0.1532(3)
H7 H 0.560456 0.422128 0.167804
H8 H 0.519450 0.563120 0.171045
C9 C 0.47479(10) 0.3733(3) 0.2244(3)
H9 H 0.442804 0.432359 0.258387
H10 H 0.489706 0.309170 0.294641
C10 C 0.49226(8) 0.1514(2) 0.0776(2)
H11 H 0.488615 0.118264 -0.015604
H12 H 0.533507 0.165917 0.095918
C11 C 0.46992(9) 0.0350(2) 0.1695(2)
H13 H 0.468315 0.072456 0.261631
H14 H 0.430437 0.009579 0.142548
C12 C 0.50650(10) -0.0979(3) 0.1676(2)
H15 H 0.546000 -0.073302 0.195134
H16 H 0.491114 -0.167867 0.232281
O1 O 0.50768(8) -0.1600(2) 0.03958(19)
H17 H 0.540574 -0.192362 0.024265
C13 C 0.18990(9) 0.2576(2) 0.4628(2)
C14 C 0.25394(9) 0.2502(2) 0.4816(2)
C15 C 0.28341(10) 0.1218(3) 0.4773(3)
H18 H 0.263409 0.035339 0.460370
C16 C 0.34211(12) 0.1198(3) 0.4978(3)
H19 H 0.361114 0.030095 0.495426
N2 N 0.37343(9) 0.2359(3) 0.5206(3)
C17 C 0.34529(11) 0.3591(3) 0.5257(3)
H20 H 0.366495 0.443461 0.543633
C18 C 0.28672(10) 0.3713(3) 0.5062(2)
H21 H 0.268968 0.462520 0.509655
C19 C 0.16487(13) 0.3965(3) 0.4053(4)
H22 H 0.1919(11) 0.436(4) 0.351(3)
H23 H 0.1504(13) 0.467(3) 0.459(3)
C20 C 0.12672(14) 0.3065(4) 0.3124(4)
H24 H 0.086682 0.297003 0.343636
H25 H 0.128065 0.336933 0.218062
C21 C 0.16362(12) 0.1781(3) 0.3427(3)
H26 H 0.191668 0.155762 0.271754
H27 H 0.141474 0.092079 0.367790
C22 C 0.15820(12) 0.1985(4) 0.5875(3)
H28 H 0.116426 0.208461 0.573433
H29 H 0.166738 0.095394 0.596031
C23 C 0.17396(13) 0.2718(4) 0.7165(3)
H30 H 0.215556 0.260189 0.732229
H31 H 0.165988 0.375237 0.708161
C24 C 0.1418(4) 0.2139(10) 0.8345(10)
H32 H 0.101128 0.242521 0.825527
H33 H 0.143111 0.108336 0.830222
O2 O 0.1605(2) 0.2553(6) 0.9587(4)
H34 H 0.196361 0.249585 0.961960
C25? C 0.1659(5) 0.2979(18) 0.6021(18)
H35? H 0.181(7) 0.375(11) 0.643(16)
H36? H 0.129(2) 0.327(17) 0.595(18)
C26? C 0.1732(7) 0.166(2) 0.6920(19)
H37? H 0.155516 0.083476 0.646776
H38? H 0.214632 0.146276 0.700804
C27? C 0.1482(13) 0.178(3) 0.828(4)
H39? H 0.106100 0.180747 0.817859
H40? H 0.157309 0.087420 0.875208
O3? O 0.1627(10) 0.285(3) 0.910(3)
H41? H 0.192771 0.263486 0.951788
loop_
_geom_bond_atom_site_label_1
_geom_bond_atom_site_label_2
_geom_bond_site_symmetry_1
_geom_bond_site_symmetry_2
C1 C2 1_555 1_555
C2 C3 1_555 1_555
C3 H1 1_555 1_555
C4 C3 1_555 1_555
H2 C4 1_555 1_555
N1 C4 1_555 1_555
C5 N1 1_555 1_555
H3 C5 1_555 1_555
C6 C2 1_555 1_555
H4 C6 1_555 1_555
C7 C1 1_555 1_555
H5 C7 1_555 1_555
H6 C7 1_555 1_555
C8 C7 1_555 1_555
H7 C8 1_555 1_555
H8 C8 1_555 1_555
C9 C1 1_555 1_555
H9 C9 1_555 1_555
H10 C9 1_555 1_555
C10 C1 1_555 1_555
H11 C10 1_555 1_555
H12 C10 1_555 1_555
C11 C10 1_555 1_555
H13 C11 1_555 1_555
H14 C11 1_555 1_555
C12 C11 1_555 1_555
H15 C12 1_555 1_555
H16 C12 1_555 1_555
O1 C12 1_555 1_555
H17 O1 1_555 1_555
C13 C14 1_555 1_555
C14 C15 1_555 1_555
C15 H18 1_555 1_555
C16 C15 1_555 1_555
H19 C16 1_555 1_555
N2 C16 1_555 1_555
C17 N2 1_555 1_555
H20 C17 1_555 1_555
C18 C14 1_555 1_555
H21 C18 1_555 1_555
C19 C13 1_555 1_555
H22 C19 1_555 1_555
H23 C19 1_555 1_555
C20 C19 1_555 1_555
H24 C20 1_555 1_555
H25 C20 1_555 1_555
C21 C13 1_555 1_555
H26 C21 1_555 1_555
H27 C21 1_555 1_555
C22 C13 1_555 1_555
H28 C22 1_555 1_555
H29 C22 1_555 1_555
C23 C22 1_555 1_555
H30 C23 1_555 1_555
H31 C23 1_555 1_555
C24 C23 1_555 1_555
H32 C24 1_555 1_555
H33 C24 1_555 1_555
O2 C24 1_555 1_555
H34 O2 1_555 1_555
C5 C6 1_555 1_555
C8 C9 1_555 1_555
C17 C18 1_555 1_555
C20 C21 1_555 1_555

#END
