
#######################################################################
#
#                 Cambridge Crystallographic Data Centre
#                                CCDC 
#
#######################################################################
#
# If this CIF has been generated from an entry in the Cambridge 
# Structural Database, then it will include bibliographic, chemical, 
# crystal, experimental, refinement or atomic coordinate data resulting 
# from the CCDC's data processing and validation procedures.
#
#######################################################################

data_PIRLIO
_chemical_formula_moiety         'C75 H61 N3 O1'
_chemical_name_systematic        
2-({1,3-bis[2,6-bis(diphenylmethyl)-4-methylphenyl]-1,3-dihydro-2H-imidazol-2-ylidene}amino)phenol
_symmetry_cell_setting           monoclinic
_symmetry_space_group_name_H-M   'P 21/c'
_symmetry_Int_Tables_number      14
_space_group_name_Hall           '-P 2ybc'
loop_
_symmetry_equiv_pos_site_id
_symmetry_equiv_pos_as_xyz
1 x,y,z
2 -x,1/2+y,1/2-z
3 -x,-y,-z
4 x,1/2-y,1/2+z
_cell_length_a                   11.5520(4)
_cell_length_b                   20.5550(7)
_cell_length_c                   25.5810(8)
_cell_angle_alpha                90
_cell_angle_beta                 109.383(3)
_cell_angle_gamma                90
_cell_volume                     5729.96
_exptl_crystal_colour            colorless
_exptl_crystal_description       prism
_cell_formula_units_Z            4
loop_
_atom_site_label
_atom_site_type_symbol
_atom_site_fract_x
_atom_site_fract_y
_atom_site_fract_z
C1 C 0.2829(3) 0.29687(15) 0.24580(11)
C2 C 0.1208(3) 0.24209(17) 0.25652(11)
H1 H 0.0431 0.2336 0.2603
C3 C 0.2060(3) 0.19795(16) 0.25814(11)
H2 H 0.2000 0.1524 0.2633
C4 C 0.1032(3) 0.36365(15) 0.24165(13)
C5 C 0.1146(3) 0.40181(15) 0.28794(12)
C6 C 0.0554(3) 0.46105(16) 0.28019(13)
H3 H 0.0614 0.4871 0.3117
C7 C -0.0121(3) 0.48376(16) 0.22833(14)
C8 C -0.0203(3) 0.44575(16) 0.18244(13)
H4 H -0.0650 0.4615 0.1465
C9 C 0.0356(3) 0.38507(16) 0.18794(12)
C10 C -0.0784(4) 0.54871(17) 0.22121(15)
H5 H -0.0587 0.5745 0.1931
H6 H -0.0521 0.5722 0.2565
H7 H -0.1671 0.5412 0.2094
C11 C 0.1919(3) 0.37757(16) 0.34585(12)
H8 H 0.2563 0.3486 0.3403
C12 C 0.2600(4) 0.43375(16) 0.38187(13)
C13 C 0.3580(4) 0.46267(19) 0.37126(15)
H9 H 0.3817 0.4474 0.3412
C14 C 0.4219(4) 0.51323(19) 0.40352(17)
H10 H 0.4892 0.5324 0.3957
C15 C 0.3887(5) 0.5360(2) 0.44688(17)
H11 H 0.4326 0.5710 0.4688
C16 C 0.2930(5) 0.5084(2) 0.45860(16)
H12 H 0.2704 0.5241 0.4888
C17 C 0.2283(4) 0.45721(19) 0.42625(15)
H13 H 0.1617 0.4381 0.4346
C18 C 0.1192(4) 0.33571(17) 0.37291(13)
C19 C 0.1852(4) 0.2984(2) 0.41831(16)
H14 H 0.2723 0.3000 0.4310
C20 C 0.1265(6) 0.2592(2) 0.44507(19)
H15 H 0.1732 0.2338 0.4759
C21 C 0.0029(7) 0.2567(3) 0.4278(2)
H16 H -0.0374 0.2296 0.4465
C22 C -0.0651(5) 0.2936(3) 0.3830(2)
H17 H -0.1522 0.2919 0.3707
C23 C -0.0055(4) 0.3332(2) 0.35598(16)
H18 H -0.0523 0.3589 0.3253
C24 C 0.0263(3) 0.34036(16) 0.13880(12)
H19 H 0.1108 0.3229 0.1454
C25 C -0.0115(4) 0.37397(17) 0.08230(15)
C26 C -0.1307(5) 0.3916(2) 0.05411(15)
H20 H -0.1919 0.3841 0.0707
C27 C -0.1643(7) 0.4202(2) 0.0016(2)
H21 H -0.2464 0.4337 -0.0168
C28 C -0.0769(11) 0.4280(4) -0.0220(3)
H22 H -0.0996 0.4467 -0.0580
C29 C 0.0390(10) 0.4109(3) 0.0024(3)
H23 H 0.0976 0.4166 -0.0159
C30 C 0.0742(6) 0.3840(2) 0.0566(2)
H24 H 0.1575 0.3728 0.0752
C31 C -0.0538(3) 0.28226(17) 0.13758(12)
C32 C -0.0232(4) 0.22188(19) 0.12193(12)
H25 H 0.0483 0.2177 0.1117
C33 C -0.0946(5) 0.1674(2) 0.12089(15)
H26 H -0.0714 0.1264 0.1104
C34 C -0.1985(6) 0.1727(2) 0.13497(16)
H27 H -0.2475 0.1355 0.1344
C35 C -0.2314(4) 0.2322(2) 0.14991(15)
H28 H -0.3042 0.2361 0.1592
C36 C -0.1594(4) 0.28655(19) 0.15152(13)
H29 H -0.1828 0.3273 0.1624
C37 C 0.4192(3) 0.19804(14) 0.25524(11)
C38 C 0.4394(3) 0.17734(14) 0.20705(11)
C39 C 0.5526(3) 0.14975(15) 0.21282(12)
H30 H 0.5687 0.1356 0.1806
C40 C 0.6438(3) 0.14212(16) 0.26435(14)
C41 C 0.6172(3) 0.16138(15) 0.31095(13)
H31 H 0.6785 0.1564 0.3462
C42 C 0.5047(3) 0.18771(14) 0.30823(11)
C43 C 0.7667(4) 0.1131(2) 0.26999(15)
H32 H 0.8254 0.1481 0.2714
H33 H 0.7590 0.0850 0.2381
H34 H 0.7958 0.0874 0.3041
C44 C 0.3412(3) 0.18366(16) 0.15026(11)
H35 H 0.2766 0.2127 0.1556
C45 C 0.3905(3) 0.21891(17) 0.10947(12)
C46 C 0.3933(4) 0.2858(2) 0.11029(14)
H36 H 0.3625 0.3085 0.1353
C47 C 0.4396(5) 0.3208(2) 0.07574(18)
H37 H 0.4409 0.3670 0.0771
C48 C 0.4840(4) 0.2886(3) 0.03933(17)
H38 H 0.5166 0.3124 0.0156
C49 C 0.4808(4) 0.2219(2) 0.03741(15)
H39 H 0.5109 0.1995 0.0121
C50 C 0.4341(3) 0.18732(18) 0.07215(13)
H40 H 0.4319 0.1411 0.0704
C51 C 0.2776(3) 0.11908(19) 0.12922(13)
C52 C 0.1871(4) 0.1174(2) 0.07729(15)
H41 H 0.1703 0.1554 0.0548
C53 C 0.1213(4) 0.0610(3) 0.05803(18)
H42 H 0.0592 0.0607 0.0227
C54 C 0.1450(5) 0.0057(3) 0.0895(2)
H43 H 0.1000 -0.0329 0.0759
C55 C 0.2333(5) 0.0063(2) 0.1404(2)
H44 H 0.2505 -0.0320 0.1624
C56 C 0.2980(4) 0.0630(2) 0.15987(15)
H45 H 0.3586 0.0630 0.1957
C57 C 0.4730(3) 0.20402(16) 0.36007(11)
H46 H 0.3968 0.2310 0.3469
C58 C 0.5692(3) 0.24711(17) 0.40002(12)
C59 C 0.6622(3) 0.22392(18) 0.44561(13)
H47 H 0.6687 0.1785 0.4526
C60 C 0.7453(4) 0.2653(2) 0.48098(14)
H48 H 0.8074 0.2483 0.5125
C61 C 0.7394(4) 0.3301(2) 0.47119(15)
H49 H 0.7982 0.3584 0.4953
C62 C 0.6478(4) 0.35512(19) 0.42615(15)
H50 H 0.6429 0.4006 0.4191
C63 C 0.5636(4) 0.31341(18) 0.39154(14)
H51 H 0.4997 0.3308 0.3609
C64 C 0.4382(4) 0.1436(2) 0.38575(12)
C65 C 0.5038(5) 0.0873(2) 0.39385(16)
H52 H 0.5744 0.0841 0.3828
C66 C 0.4659(7) 0.0338(3) 0.4188(2)
H53 H 0.5123 -0.0053 0.4248
C67 C 0.3653(10) 0.0372(4) 0.4341(3)
H54 H 0.3399 0.0008 0.4504
C68 C 0.3022(8) 0.0922(4) 0.4261(3)
H55 H 0.2322 0.0949 0.4377
C69 C 0.3349(5) 0.1455(3) 0.40164(16)
H56 H 0.2862 0.1838 0.3956
C70 C 0.4549(3) 0.36443(16) 0.23667(12)
C71 C 0.5637(4) 0.32935(18) 0.25082(13)
H57 H 0.5662 0.2865 0.2650
C72 C 0.6684(4) 0.3559(2) 0.24456(16)
H58 H 0.7421 0.3313 0.2548
C73 C 0.6667(5) 0.4166(3) 0.22396(18)
H59 H 0.7385 0.4337 0.2187
C74 C 0.5625(5) 0.4535(2) 0.21058(19)
H60 H 0.5621 0.4966 0.1971
C75 C 0.4584(4) 0.42735(19) 0.21688(16)
N1 N 0.3400(3) 0.34858(13) 0.23988(10)
N2 N 0.1647(2) 0.30235(13) 0.24834(9)
N3 N 0.3066(2) 0.23071(12) 0.25092(8)
O1 O 0.3533(3) 0.46309(15) 0.20309(17)
H61 H 0.2970 0.4406 0.2079
loop_
_geom_bond_atom_site_label_1
_geom_bond_atom_site_label_2
_geom_bond_site_symmetry_1
_geom_bond_site_symmetry_2
C1 N1 1_555 1_555
C2 H1 1_555 1_555
C3 C2 1_555 1_555
H2 C3 1_555 1_555
C4 C5 1_555 1_555
C5 C6 1_555 1_555
C6 H3 1_555 1_555
C7 C6 1_555 1_555
C8 C7 1_555 1_555
H4 C8 1_555 1_555
C9 C4 1_555 1_555
C10 C7 1_555 1_555
H5 C10 1_555 1_555
H6 C10 1_555 1_555
H7 C10 1_555 1_555
C11 C5 1_555 1_555
H8 C11 1_555 1_555
C12 C11 1_555 1_555
C13 C12 1_555 1_555
H9 C13 1_555 1_555
C14 C13 1_555 1_555
H10 C14 1_555 1_555
C15 C14 1_555 1_555
H11 C15 1_555 1_555
C16 C15 1_555 1_555
H12 C16 1_555 1_555
C17 C12 1_555 1_555
H13 C17 1_555 1_555
C18 C11 1_555 1_555
C19 C18 1_555 1_555
H14 C19 1_555 1_555
C20 C19 1_555 1_555
H15 C20 1_555 1_555
C21 C20 1_555 1_555
H16 C21 1_555 1_555
C22 C21 1_555 1_555
H17 C22 1_555 1_555
C23 C18 1_555 1_555
H18 C23 1_555 1_555
C24 C9 1_555 1_555
H19 C24 1_555 1_555
C25 C24 1_555 1_555
C26 C25 1_555 1_555
H20 C26 1_555 1_555
C27 C26 1_555 1_555
H21 C27 1_555 1_555
C28 C27 1_555 1_555
H22 C28 1_555 1_555
C29 C28 1_555 1_555
H23 C29 1_555 1_555
C30 C25 1_555 1_555
H24 C30 1_555 1_555
C31 C24 1_555 1_555
C32 C31 1_555 1_555
H25 C32 1_555 1_555
C33 C32 1_555 1_555
H26 C33 1_555 1_555
C34 C33 1_555 1_555
H27 C34 1_555 1_555
C35 C34 1_555 1_555
H28 C35 1_555 1_555
C36 C31 1_555 1_555
H29 C36 1_555 1_555
C37 C38 1_555 1_555
C38 C39 1_555 1_555
C39 H30 1_555 1_555
C40 C39 1_555 1_555
C41 C40 1_555 1_555
H31 C41 1_555 1_555
C42 C37 1_555 1_555
C43 C40 1_555 1_555
H32 C43 1_555 1_555
H33 C43 1_555 1_555
H34 C43 1_555 1_555
C44 C38 1_555 1_555
H35 C44 1_555 1_555
C45 C44 1_555 1_555
C46 C45 1_555 1_555
H36 C46 1_555 1_555
C47 C46 1_555 1_555
H37 C47 1_555 1_555
C48 C47 1_555 1_555
H38 C48 1_555 1_555
C49 C48 1_555 1_555
H39 C49 1_555 1_555
C50 C45 1_555 1_555
H40 C50 1_555 1_555
C51 C44 1_555 1_555
C52 C51 1_555 1_555
H41 C52 1_555 1_555
C53 C52 1_555 1_555
H42 C53 1_555 1_555
C54 C53 1_555 1_555
H43 C54 1_555 1_555
C55 C54 1_555 1_555
H44 C55 1_555 1_555
C56 C51 1_555 1_555
H45 C56 1_555 1_555
C57 C42 1_555 1_555
H46 C57 1_555 1_555
C58 C57 1_555 1_555
C59 C58 1_555 1_555
H47 C59 1_555 1_555
C60 C59 1_555 1_555
H48 C60 1_555 1_555
C61 C60 1_555 1_555
H49 C61 1_555 1_555
C62 C61 1_555 1_555
H50 C62 1_555 1_555
C63 C58 1_555 1_555
H51 C63 1_555 1_555
C64 C57 1_555 1_555
C65 C64 1_555 1_555
H52 C65 1_555 1_555
C66 C65 1_555 1_555
H53 C66 1_555 1_555
C67 C66 1_555 1_555
H54 C67 1_555 1_555
C68 C67 1_555 1_555
H55 C68 1_555 1_555
C69 C64 1_555 1_555
H56 C69 1_555 1_555
C70 C71 1_555 1_555
C71 H57 1_555 1_555
C72 C71 1_555 1_555
H58 C72 1_555 1_555
C73 C72 1_555 1_555
H59 C73 1_555 1_555
C74 C73 1_555 1_555
H60 C74 1_555 1_555
C75 C70 1_555 1_555
N1 C70 1_555 1_555
N2 C1 1_555 1_555
N3 C1 1_555 1_555
O1 C75 1_555 1_555
H61 O1 1_555 1_555
C2 N2 1_555 1_555
C3 N3 1_555 1_555
C4 N2 1_555 1_555
C8 C9 1_555 1_555
C16 C17 1_555 1_555
C22 C23 1_555 1_555
C29 C30 1_555 1_555
C35 C36 1_555 1_555
C37 N3 1_555 1_555
C41 C42 1_555 1_555
C49 C50 1_555 1_555
C55 C56 1_555 1_555
C62 C63 1_555 1_555
C68 C69 1_555 1_555
C74 C75 1_555 1_555

#END
