
#######################################################################
#
#                 Cambridge Crystallographic Data Centre
#                                CCDC 
#
#######################################################################
#
# If this CIF has been generated from an entry in the Cambridge 
# Structural Database, then it will include bibliographic, chemical, 
# crystal, experimental, refinement or atomic coordinate data resulting 
# from the CCDC's data processing and validation procedures.
#
#######################################################################

data_PIRLEK
_chemical_formula_moiety         'C33 H41 N3 O1'
_chemical_name_systematic        
2-({1,3-bis[2,6-bis(propan-2-yl)phenyl]-1,3-dihydro-2H-imidazol-2-ylidene}amino)phenol
_symmetry_cell_setting           monoclinic
_symmetry_space_group_name_H-M   'P 21/c'
_symmetry_Int_Tables_number      14
_space_group_name_Hall           '-P 2ybc'
loop_
_symmetry_equiv_pos_site_id
_symmetry_equiv_pos_as_xyz
1 x,y,z
2 -x,1/2+y,1/2-z
3 -x,-y,-z
4 x,1/2-y,1/2+z
_cell_length_a                   11.753(7)
_cell_length_b                   14.505(6)
_cell_length_c                   18.589(18)
_cell_angle_alpha                90
_cell_angle_beta                 111.62(4)
_cell_angle_gamma                90
_cell_volume                     2946.06
_exptl_crystal_colour            colorless
_exptl_crystal_description       block
_cell_formula_units_Z            4
loop_
_atom_site_label
_atom_site_type_symbol
_atom_site_fract_x
_atom_site_fract_y
_atom_site_fract_z
C1 C 0.4682(2) 0.15862(19) 0.27665(15)
C2 C 0.5750(3) 0.02757(19) 0.27805(17)
H1 H 0.6410 -0.0129 0.2827
C3 C 0.4583(3) 0.0035(2) 0.26015(17)
H2 H 0.4265 -0.0574 0.2503
C4 C 0.2584(3) 0.08523(18) 0.23196(17)
C5 C 0.2031(3) 0.09882(19) 0.28647(18)
C6 C 0.0758(3) 0.0999(2) 0.2578(2)
H3 H 0.0345 0.1103 0.2924
C7 C 0.0090(3) 0.0864(3) 0.1811(3)
H4 H -0.0778 0.0869 0.1633
C8 C 0.0654(3) 0.0720(3) 0.1292(2)
H5 H 0.0173 0.0619 0.0761
C9 C 0.1928(3) 0.0723(2) 0.15362(19)
C10 C 0.2773(3) 0.1093(2) 0.37149(18)
H6 H 0.3517 0.1461 0.3764
C11 C 0.2102(3) 0.1606(3) 0.4158(2)
H7 H 0.1851 0.2215 0.3926
H8 H 0.2648 0.1678 0.4700
H9 H 0.1377 0.1254 0.4132
C12 C 0.3209(4) 0.0151(3) 0.4078(2)
H10 H 0.2498 -0.0238 0.4021
H11 H 0.3704 0.0227 0.4629
H12 H 0.3703 -0.0143 0.3818
C13 C 0.2528(3) 0.0590(2) 0.09465(19)
H13 H 0.3401 0.0789 0.1194
C14 C 0.1932(5) 0.1186(3) 0.0221(2)
H14 H 0.1097 0.0967 -0.0063
H15 H 0.2412 0.1142 -0.0111
H16 H 0.1905 0.1830 0.0375
C15 C 0.2526(4) -0.0421(3) 0.0719(2)
H17 H 0.2976 -0.0787 0.1179
H18 H 0.2920 -0.0482 0.0340
H19 H 0.1680 -0.0643 0.0491
C16 C 0.6841(2) 0.17966(19) 0.29004(17)
C17 C 0.6810(3) 0.2167(2) 0.21985(17)
C18 C 0.7796(3) 0.2720(3) 0.2235(2)
H20 H 0.7811 0.2990 0.1773
C19 C 0.8747(3) 0.2886(3) 0.2920(2)
H21 H 0.9408 0.3268 0.2926
C20 C 0.8749(3) 0.2508(2) 0.3588(2)
H22 H 0.9416 0.2628 0.4058
C21 C 0.7791(3) 0.1948(2) 0.36001(17)
C22 C 0.5801(3) 0.1944(2) 0.14398(18)
H23 H 0.5107 0.1679 0.1561
C23 C 0.5319(4) 0.2792(3) 0.0939(2)
H24 H 0.5049 0.3250 0.1230
H25 H 0.4627 0.2617 0.0472
H26 H 0.5970 0.3057 0.0792
C24 C 0.6203(4) 0.1215(3) 0.0995(2)
H27 H 0.6894 0.1449 0.0874
H28 H 0.5520 0.1069 0.0513
H29 H 0.6453 0.0656 0.1311
C25 C 0.8056(5) 0.2196(3) 0.4991(2)
H30 H 0.8841 0.2503 0.5085
H31 H 0.8085 0.1879 0.5463
H32 H 0.7400 0.2656 0.4844
C26 C 0.7814(3) 0.1501(2) 0.43434(17)
H33 H 0.6994 0.1217 0.4241
C27 C 0.8757(4) 0.0751(3) 0.4594(2)
H34 H 0.8578 0.0287 0.4184
H35 H 0.8741 0.0461 0.5067
H36 H 0.9570 0.1014 0.4696
C28 C 0.3415(3) 0.29139(18) 0.26270(17)
C29 C 0.2590(3) 0.2940(2) 0.18794(19)
H37 H 0.2749 0.2602 0.1489
C30 C 0.1523(3) 0.3458(3) 0.1687(2)
H38 H 0.0955 0.3469 0.1167
C31 C 0.1288(3) 0.3953(3) 0.2247(3)
H39 H 0.0553 0.4299 0.2117
C32 C 0.2111(3) 0.3947(2) 0.2988(2)
H40 H 0.1950 0.4290 0.3376
C33 C 0.3177(3) 0.3443(2) 0.31789(19)
N1 N 0.4552(2) 0.24623(15) 0.28715(14)
N2 N 0.5826(2) 0.12233(15) 0.28857(13)
N3 N 0.3901(2) 0.08418(15) 0.25830(13)
O1 O 0.4016(2) 0.34634(18) 0.39128(13)
H41 H 0.4659 0.3198 0.3927
loop_
_geom_bond_atom_site_label_1
_geom_bond_atom_site_label_2
_geom_bond_site_symmetry_1
_geom_bond_site_symmetry_2
C1 N1 1_555 1_555
C2 H1 1_555 1_555
C3 C2 1_555 1_555
H2 C3 1_555 1_555
C4 C5 1_555 1_555
C5 C6 1_555 1_555
C6 H3 1_555 1_555
C7 C6 1_555 1_555
H4 C7 1_555 1_555
C8 C7 1_555 1_555
H5 C8 1_555 1_555
C9 C4 1_555 1_555
C10 C5 1_555 1_555
H6 C10 1_555 1_555
C11 C10 1_555 1_555
H7 C11 1_555 1_555
H8 C11 1_555 1_555
H9 C11 1_555 1_555
C12 C10 1_555 1_555
H10 C12 1_555 1_555
H11 C12 1_555 1_555
H12 C12 1_555 1_555
C13 C9 1_555 1_555
H13 C13 1_555 1_555
C14 C13 1_555 1_555
H14 C14 1_555 1_555
H15 C14 1_555 1_555
H16 C14 1_555 1_555
C15 C13 1_555 1_555
H17 C15 1_555 1_555
H18 C15 1_555 1_555
H19 C15 1_555 1_555
C16 C17 1_555 1_555
C17 C18 1_555 1_555
C18 H20 1_555 1_555
C19 C18 1_555 1_555
H21 C19 1_555 1_555
C20 C19 1_555 1_555
H22 C20 1_555 1_555
C21 C16 1_555 1_555
C22 C17 1_555 1_555
H23 C22 1_555 1_555
C23 C22 1_555 1_555
H24 C23 1_555 1_555
H25 C23 1_555 1_555
H26 C23 1_555 1_555
C24 C22 1_555 1_555
H27 C24 1_555 1_555
H28 C24 1_555 1_555
H29 C24 1_555 1_555
C25 H30 1_555 1_555
H31 C25 1_555 1_555
H32 C25 1_555 1_555
C26 C21 1_555 1_555
H33 C26 1_555 1_555
C27 C26 1_555 1_555
H34 C27 1_555 1_555
H35 C27 1_555 1_555
H36 C27 1_555 1_555
C28 C29 1_555 1_555
C29 H37 1_555 1_555
C30 C29 1_555 1_555
H38 C30 1_555 1_555
C31 C30 1_555 1_555
H39 C31 1_555 1_555
C32 C31 1_555 1_555
H40 C32 1_555 1_555
C33 C28 1_555 1_555
N1 C28 1_555 1_555
N2 C1 1_555 1_555
N3 C1 1_555 1_555
O1 C33 1_555 1_555
H41 O1 1_555 1_555
C2 N2 1_555 1_555
C3 N3 1_555 1_555
C4 N3 1_555 1_555
C8 C9 1_555 1_555
C16 N2 1_555 1_555
C20 C21 1_555 1_555
C25 C26 1_555 1_555
C32 C33 1_555 1_555

#END
