
#######################################################################
#
#                 Cambridge Crystallographic Data Centre
#                                CCDC 
#
#######################################################################
#
# If this CIF has been generated from an entry in the Cambridge 
# Structural Database, then it will include bibliographic, chemical, 
# crystal, experimental, refinement or atomic coordinate data resulting 
# from the CCDC's data processing and validation procedures.
#
#######################################################################

data_PIRLAG
_chemical_formula_moiety         'C27 H29 N3 O1'
_chemical_name_systematic        
2-{[1,3-bis(2,4,6-trimethylphenyl)-1,3-dihydro-2H-imidazol-2-ylidene]amino}phenol
_symmetry_cell_setting           triclinic
_symmetry_space_group_name_H-M   'P -1'
_symmetry_Int_Tables_number      2
_space_group_name_Hall           '-P 1'
loop_
_symmetry_equiv_pos_site_id
_symmetry_equiv_pos_as_xyz
1 x,y,z
2 -x,-y,-z
_cell_length_a                   8.9840(17)
_cell_length_b                   9.3110(14)
_cell_length_c                   16.205(2)
_cell_angle_alpha                99.051(6)
_cell_angle_beta                 99.906(6)
_cell_angle_gamma                112.237(4)
_cell_volume                     1198.69
_exptl_crystal_colour            colorless
_exptl_crystal_description       block
_cell_formula_units_Z            2
loop_
_atom_site_label
_atom_site_type_symbol
_atom_site_fract_x
_atom_site_fract_y
_atom_site_fract_z
C1 C 0.2516(4) -0.1135(3) 0.19416(17)
C2 C 0.2787(5) 0.1359(4) 0.1862(2)
H1 H 0.2874 0.2420 0.2020
C3 C 0.2845(5) 0.0639(4) 0.1102(2)
H2 H 0.2980 0.1092 0.0620
C4 C 0.2620(4) 0.0753(3) 0.32875(17)
C5 C 0.1233(4) 0.0905(3) 0.34958(18)
C6 C 0.1319(4) 0.1399(3) 0.43587(19)
H3 H 0.0380 0.1488 0.4514
C7 C 0.2719(4) 0.1767(3) 0.50026(19)
C8 C 0.4074(4) 0.1602(4) 0.47675(19)
H4 H 0.5040 0.1834 0.5206
C9 C 0.4056(4) 0.1110(3) 0.39095(18)
C10 C 0.5567(4) 0.0999(5) 0.3673(2)
H5 H 0.6480 0.1383 0.4194
H6 H 0.5899 0.1658 0.3264
H7 H 0.5303 -0.0117 0.3405
C11 C -0.0308(4) 0.0547(4) 0.2806(2)
H8 H -0.0062 0.1354 0.2468
H9 H -0.1196 0.0568 0.3077
H10 H -0.0667 -0.0515 0.2424
C12 C 0.2799(5) 0.2373(5) 0.5938(2)
H11 H 0.3515 0.2029 0.6308
H12 H 0.1678 0.1938 0.6029
H13 H 0.3254 0.3544 0.6083
C13 C 0.2724(4) -0.2029(3) 0.04469(18)
C14 C 0.4208(4) -0.2180(4) 0.04529(19)
C15 C 0.4214(4) -0.3285(4) -0.0229(2)
H14 H 0.5202 -0.3436 -0.0228
C16 C 0.2833(5) -0.4169(4) -0.0908(2)
C17 C 0.1398(5) -0.3959(4) -0.0894(2)
H15 H 0.0446 -0.4549 -0.1365
C18 C 0.1297(4) -0.2915(4) -0.02167(19)
C19 C -0.0307(5) -0.2755(5) -0.0208(2)
H16 H -0.0516 -0.2773 0.0365
H17 H -0.1223 -0.3646 -0.0642
H18 H -0.0225 -0.1741 -0.0342
C20 C 0.5756(4) -0.1156(5) 0.1163(2)
H19 H 0.6010 -0.0024 0.1197
H20 H 0.6688 -0.1379 0.1039
H21 H 0.5578 -0.1397 0.1714
C21 C 0.2898(6) -0.5317(5) -0.1665(3)
H22 H 0.4044 -0.5202 -0.1606
H23 H 0.2509 -0.5072 -0.2206
H24 H 0.2182 -0.6418 -0.1670
C22 C 0.2120(4) -0.3070(3) 0.28345(17)
C23 C 0.2737(4) -0.4226(3) 0.29296(18)
C24 C 0.2540(4) -0.5000(4) 0.3579(2)
H25 H 0.3007 -0.5751 0.3637
C25 C 0.1660(5) -0.4692(4) 0.4151(2)
H26 H 0.1521 -0.5224 0.4605
C26 C 0.0989(5) -0.3612(4) 0.4056(2)
H27 H 0.0370 -0.3407 0.4443
C27 C 0.1200(4) -0.2814(4) 0.3404(2)
H28 H 0.0710 -0.2082 0.3344
N1 N 0.2406(3) -0.2472(3) 0.21120(14)
N2 N 0.2575(3) 0.0284(3) 0.23908(14)
N3 N 0.2677(3) -0.0886(3) 0.11359(14)
O1 O 0.3559(3) -0.4568(3) 0.23439(14)
H29 H 0.3573 -0.4012 0.1982
loop_
_geom_bond_atom_site_label_1
_geom_bond_atom_site_label_2
_geom_bond_site_symmetry_1
_geom_bond_site_symmetry_2
C1 N1 1_555 1_555
C2 H1 1_555 1_555
C3 C2 1_555 1_555
H2 C3 1_555 1_555
C4 C5 1_555 1_555
C5 C6 1_555 1_555
C6 H3 1_555 1_555
C7 C6 1_555 1_555
C8 C7 1_555 1_555
H4 C8 1_555 1_555
C9 C4 1_555 1_555
C10 C9 1_555 1_555
H5 C10 1_555 1_555
H6 C10 1_555 1_555
H7 C10 1_555 1_555
C11 C5 1_555 1_555
H8 C11 1_555 1_555
H9 C11 1_555 1_555
H10 C11 1_555 1_555
C12 C7 1_555 1_555
H11 C12 1_555 1_555
H12 C12 1_555 1_555
H13 C12 1_555 1_555
C13 C14 1_555 1_555
C14 C15 1_555 1_555
C15 H14 1_555 1_555
C16 C15 1_555 1_555
C17 C16 1_555 1_555
H15 C17 1_555 1_555
C18 C13 1_555 1_555
C19 C18 1_555 1_555
H16 C19 1_555 1_555
H17 C19 1_555 1_555
H18 C19 1_555 1_555
C20 C14 1_555 1_555
H19 C20 1_555 1_555
H20 C20 1_555 1_555
H21 C20 1_555 1_555
C21 C16 1_555 1_555
H22 C21 1_555 1_555
H23 C21 1_555 1_555
H24 C21 1_555 1_555
C22 C23 1_555 1_555
C23 C24 1_555 1_555
C24 H25 1_555 1_555
C25 C24 1_555 1_555
H26 C25 1_555 1_555
C26 C25 1_555 1_555
H27 C26 1_555 1_555
C27 C22 1_555 1_555
H28 C27 1_555 1_555
N1 C22 1_555 1_555
N2 C1 1_555 1_555
N3 C1 1_555 1_555
O1 C23 1_555 1_555
H29 O1 1_555 1_555
C2 N2 1_555 1_555
C3 N3 1_555 1_555
C4 N2 1_555 1_555
C8 C9 1_555 1_555
C13 N3 1_555 1_555
C17 C18 1_555 1_555
C26 C27 1_555 1_555

#END
