
#######################################################################
#
#                 Cambridge Crystallographic Data Centre
#                                CCDC 
#
#######################################################################
#
# If this CIF has been generated from an entry in the Cambridge 
# Structural Database, then it will include bibliographic, chemical, 
# crystal, experimental, refinement or atomic coordinate data resulting 
# from the CCDC's data processing and validation procedures.
#
#######################################################################

data_PIRMUB
_chemical_formula_moiety         'C19 H18 F2 O2'
_chemical_name_systematic        
'ethyl difluoro(1-phenyl-2,3-dihydro-1H-inden-2-yl)acetate'
_symmetry_cell_setting           monoclinic
_symmetry_space_group_name_H-M   'P 21/n'
_symmetry_Int_Tables_number      14
_space_group_name_Hall           '-P 2yn'
loop_
_symmetry_equiv_pos_site_id
_symmetry_equiv_pos_as_xyz
1 x,y,z
2 1/2-x,1/2+y,1/2-z
3 -x,-y,-z
4 1/2+x,1/2-y,1/2+z
_cell_length_a                   5.9800(3)
_cell_length_b                   20.6800(12)
_cell_length_c                   12.7700(8)
_cell_angle_alpha                90
_cell_angle_beta                 95.544(2)
_cell_angle_gamma                90
_cell_volume                     1571.83
_exptl_crystal_colour            colorless
_exptl_crystal_description       block
_cell_formula_units_Z            4
loop_
_atom_site_label
_atom_site_type_symbol
_atom_site_fract_x
_atom_site_fract_y
_atom_site_fract_z
F1 F 0.75527(13) 0.68097(4) 0.02160(6)
F2 F 0.98821(13) 0.60218(4) 0.06562(6)
O1 O 0.88411(15) 0.74284(4) 0.20569(7)
O2 O 1.20097(15) 0.68414(5) 0.20030(8)
C1 C 0.9234(2) 0.69392(7) 0.54358(10)
H1 H 0.957478 0.719735 0.604575
C2 C 1.0825(2) 0.65193(7) 0.51017(11)
H2 H 1.226091 0.648764 0.548732
C3 C 1.0331(2) 0.61427(7) 0.42027(10)
H3 H 1.143390 0.585561 0.398209
C4 C 0.8236(2) 0.61837(6) 0.36253(10)
C5 C 0.7704(2) 0.57727(6) 0.26493(10)
H4 H 0.910154 0.554175 0.249095
C6 C 0.6748(2) 0.61514(6) 0.16468(10)
H5 H 0.574217 0.649956 0.187606
C7 C 0.8531(2) 0.64693(6) 0.10676(10)
C8 C 1.0047(2) 0.69357(6) 0.17583(10)
C9 C 1.0006(2) 0.78637(7) 0.28384(11)
H6 H 1.129536 0.807349 0.254443
H7 H 1.057350 0.761844 0.347504
C10 C 0.8334(3) 0.83631(7) 0.31094(12)
H8 H 0.781616 0.861007 0.247717
H9 H 0.904504 0.865650 0.364488
H10 H 0.704982 0.814870 0.338307
C11 C 0.5271(2) 0.56636(7) 0.09803(10)
H11 H 0.399405 0.588193 0.057362
H12 H 0.615608 0.542452 0.049032
C12 C 0.4470(2) 0.52197(6) 0.18072(10)
C13 C 0.5860(2) 0.52759(6) 0.27467(10)
C14 C 0.7130(2) 0.69787(7) 0.48672(10)
H13 H 0.602884 0.726501 0.509120
C15 C 0.6633(2) 0.66023(6) 0.39757(10)
H14 H 0.518600 0.662946 0.359935
C16 C 0.5472(2) 0.49078(6) 0.36194(11)
H15 H 0.643912 0.494153 0.425254
C17 C 0.3643(2) 0.44881(7) 0.35522(11)
H16 H 0.334883 0.423638 0.414588
C18 C 0.2245(2) 0.44356(7) 0.26202(12)
H17 H 0.099592 0.414980 0.258493
C19 C 0.2654(2) 0.47974(7) 0.17371(11)
H18 H 0.170834 0.475596 0.109882
loop_
_geom_bond_atom_site_label_1
_geom_bond_atom_site_label_2
_geom_bond_site_symmetry_1
_geom_bond_site_symmetry_2
F1 C7 1_555 1_555
F2 C7 1_555 1_555
O1 C8 1_555 1_555
O2 C8 1_555 1_555
C1 H1 1_555 1_555
C2 C1 1_555 1_555
H2 C2 1_555 1_555
C3 C2 1_555 1_555
H3 C3 1_555 1_555
C4 C3 1_555 1_555
C5 C4 1_555 1_555
H4 C5 1_555 1_555
C6 C5 1_555 1_555
H5 C6 1_555 1_555
C7 C6 1_555 1_555
C8 C7 1_555 1_555
C9 O1 1_555 1_555
H6 C9 1_555 1_555
H7 C9 1_555 1_555
C10 C9 1_555 1_555
H8 C10 1_555 1_555
H9 C10 1_555 1_555
H10 C10 1_555 1_555
C11 C6 1_555 1_555
H11 C11 1_555 1_555
H12 C11 1_555 1_555
C12 C11 1_555 1_555
C13 C5 1_555 1_555
C14 C1 1_555 1_555
H13 C14 1_555 1_555
C15 C4 1_555 1_555
H14 C15 1_555 1_555
C16 C13 1_555 1_555
H15 C16 1_555 1_555
C17 C16 1_555 1_555
H16 C17 1_555 1_555
C18 C17 1_555 1_555
H17 C18 1_555 1_555
C19 C12 1_555 1_555
H18 C19 1_555 1_555
C12 C13 1_555 1_555
C14 C15 1_555 1_555
C18 C19 1_555 1_555

#END
