
#######################################################################
#
#                 Cambridge Crystallographic Data Centre
#                                CCDC 
#
#######################################################################
#
# If this CIF has been generated from an entry in the Cambridge 
# Structural Database, then it will include bibliographic, chemical, 
# crystal, experimental, refinement or atomic coordinate data resulting 
# from the CCDC's data processing and validation procedures.
#
#######################################################################

data_PIRROX
_chemical_formula_moiety         'C72 H94 Si4'
_chemical_name_systematic        
E,E-1,16-Diphenyl-5,6,11,12-tetrakis((tri-isopropyl-silyl)ethynyl)hexadeca-5,11-diene-1,3,7,9,13,15-hexayne
_symmetry_cell_setting           triclinic
_symmetry_space_group_name_H-M   'P -1'
_symmetry_Int_Tables_number      2
_space_group_name_Hall           '-P 1'
loop_
_symmetry_equiv_pos_site_id
_symmetry_equiv_pos_as_xyz
1 x,y,z
2 -x,-y,-z
_cell_length_a                   12.021(6)
_cell_length_b                   12.249(7)
_cell_length_c                   13.597(5)
_cell_angle_alpha                105.07(4)
_cell_angle_beta                 109.46(3)
_cell_angle_gamma                101.53(4)
_cell_volume                     1730.2
_exptl_crystal_colour            orange-yellow
_chemical_melting_point          '180 deg.C (dec)'
_cell_formula_units_Z            1
loop_
_atom_site_label
_atom_site_type_symbol
_atom_site_fract_x
_atom_site_fract_y
_atom_site_fract_z
Si1 Si 0.1775(3) 0.4028(3) 0.3513(3)
Si2 Si 0.4169(3) 0.0545(3) -0.2396(3)
C1 C 0.3038(10) 0.1223(10) -0.0734(10)
C2 C 0.2782(10) 0.3186(10) 0.1789(9)
C3 C 0.3455(10) 0.0912(10) -0.1397(9)
C4 C 0.9022(15) 0.7392(15) 0.2235(12)
C5 C 0.0547(12) 0.0328(13) 0.0024(10)
C6 C 0.1507(15) 0.0928(13) 0.0086(10)
C7 C 0.4344(15) 0.3506(13) 0.1027(11)
C8 C 0.6354(14) 0.4883(12) 0.1185(10)
C9 C 0.0286(14) 0.2889(16) 0.3038(13)
C10 C 0.5289(14) 0.4139(13) 0.1112(10)
C11 C 0.2436(11) 0.3539(10) 0.2487(9)
C12 C 0.5643(11) 0.1795(12) -0.1856(10)
C13 C 0.8940(14) 0.5993(12) 0.0621(10)
C14 C 0.1486(16) 0.5472(15) 0.3400(16)
C15 C 0.5343(15) -0.1206(13) -0.2947(12)
C16 C 0.3059(14) 0.0477(16) -0.3761(11)
C17 C 0.3587(12) 0.0312(12) -0.4656(9)
C18 C 0.7305(14) 0.5519(13) 0.1271(11)
C19 C 0.2867(14) 0.4171(17) 0.4884(10)
C20 C 1.0080(16) 0.8141(15) 0.2285(14)
C21 C 0.9994(16) 0.6730(18) 0.0685(14)
C22 C 0.2607(13) 0.1673(14) 0.0112(10)
C23 C 0.4448(19) -0.0866(15) -0.2463(15)
C24 C 0.8429(13) 0.6306(14) 0.1385(13)
C25 C 0.2378(1) 0.4216(16) 0.5753(10)
C26 C 0.1786(12) -0.0068(16) -0.4149(11)
C27 C 0.0891(15) 0.5937(13) 0.4166(13)
C28 C 1.0557(14) 0.7820(17) 0.1571(18)
C29 C 0.3787(15) 0.3649(17) 0.5019(12)
C30 C 0.2569(16) 0.6342(13) 0.3565(15)
C31 C 0.5402(14) 0.2973(12) -0.1841(12)
C32 C 0.6539(11) 0.1926(13) -0.0703(10)
C33 C -0.0620(13) 0.2683(16) 0.1915(13)
C34 C 0.0432(16) 0.1643(15) 0.3013(13)
C35 C 0.3218(13) 0.2751(14) 0.0934(12)
C36 C 0.3782(19) -0.1739(16) -0.2283(18)
H1 H 0.8673 0.7635 0.2764
H2 H -0.0088 0.3113 0.3550
H3 H 0.6048 0.1614 -0.2350
H4 H 0.8515 0.5217 0.0052
H5 H 0.0899 0.5260 0.2646
H6 H 0.4491 -0.1943 -0.2928
H7 H 0.4995 -0.1247 -0.3707
H8 H 0.6113 -0.0565 -0.2542
H9 H 0.3097 0.1298 -0.3599
H10 H 0.2990 0.0297 -0.5340
H11 H 0.3760 -0.0432 -0.4774
H12 H 0.3384 0.4983 0.5155
H13 H 1.0508 0.8900 0.2878
H14 H 1.0317 0.6515 0.0131
H15 H 0.5000 -0.0617 -0.1692
H16 H 0.2985 0.4313 0.6466
H17 H 0.2032 0.4860 0.5829
H18 H 0.1727 0.3473 0.5476
H19 H 0.1387 0.0019 -0.4851
H20 H 0.1636 -0.0899 -0.4256
H21 H 0.1458 0.0282 -0.3637
H22 H 0.0759 0.6663 0.4085
H23 H 0.0105 0.5353 0.3939
H24 H 0.1398 0.6088 0.4931
H25 H 1.1311 0.8347 0.1644
H26 H 0.4312 0.3847 0.5790
H27 H 0.3348 0.2811 0.4691
H28 H 0.4288 0.3856 0.4632
H29 H 0.2335 0.7032 0.3496
H30 H 0.3222 0.6551 0.4287
H31 H 0.2856 0.6050 0.2999
H32 H 0.6161 0.3617 -0.1555
H33 H 0.4909 0.2876 -0.2595
H34 H 0.4947 0.3148 -0.1390
H35 H 0.7295 0.2566 -0.0439
H36 H 0.6143 0.2077 -0.0197
H37 H 0.6726 0.1192 -0.0748
H38 H -0.1391 0.2058 0.1646
H39 H -0.0777 0.3432 0.1995
H40 H -0.0242 0.2533 0.1394
H41 H -0.0352 0.1041 0.2756
H42 H 0.0847 0.1408 0.2540
H43 H 0.0938 0.1738 0.3764
H44 H 0.4099 -0.2396 -0.2260
H45 H 0.3560 -0.1499 -0.1662
H46 H 0.3061 -0.1976 -0.2966
C5A C -0.0547(12) -0.0328(13) -0.0024(10)
C6A C -0.1507(15) -0.0928(13) -0.0086(10)
C22A C -0.2607(13) -0.1673(14) -0.0112(10)
C1A C -0.3038(10) -0.1223(10) 0.0734(10)
C35A C -0.3218(13) -0.2751(14) -0.0934(12)
C3A C -0.3455(10) -0.0912(10) 0.1397(9)
C2A C -0.2782(10) -0.3186(10) -0.1789(9)
C7A C -0.4344(15) -0.3506(13) -0.1027(11)
Si2A Si -0.4169(3) -0.0545(3) 0.2396(3)
C11A C -0.2436(11) -0.3539(10) -0.2487(9)
C10A C -0.5289(14) -0.4139(13) -0.1112(10)
C12A C -0.5643(11) -0.1795(12) 0.1856(10)
C16A C -0.3059(14) -0.0477(16) 0.3761(11)
C23A C -0.4448(19) 0.0866(15) 0.2463(15)
Si1A Si -0.1775(3) -0.4028(3) -0.3513(3)
C8A C -0.6354(14) -0.4883(12) -0.1185(10)
C31A C -0.5402(14) -0.2973(12) 0.1841(12)
C32A C -0.6539(11) -0.1926(13) 0.0703(10)
H3A H -0.6048 -0.1614 0.2350
C17A C -0.3587(12) -0.0312(12) 0.4656(9)
C26A C -0.1786(12) 0.0068(16) 0.4149(11)
H9A H -0.3097 -0.1298 0.3599
C15A C -0.5343(15) 0.1206(13) 0.2947(12)
C36A C -0.3782(19) 0.1739(16) 0.2283(18)
H15A H -0.5000 0.0617 0.1692
C9A C -0.0286(14) -0.2889(16) -0.3038(13)
C14A C -0.1486(16) -0.5472(15) -0.3400(16)
C19A C -0.2867(14) -0.4171(17) -0.4884(10)
C18A C -0.7305(14) -0.5519(13) -0.1271(11)
H32A H -0.6161 -0.3617 0.1555
H33A H -0.4909 -0.2876 0.2595
H34A H -0.4947 -0.3148 0.1390
H35A H -0.7295 -0.2566 0.0439
H36A H -0.6143 -0.2077 0.0197
H37A H -0.6726 -0.1192 0.0748
H10A H -0.2990 -0.0297 0.5340
H11A H -0.3760 0.0432 0.4774
H19A H -0.1387 -0.0019 0.4851
H20A H -0.1636 0.0899 0.4256
H21A H -0.1458 -0.0282 0.3637
H6A H -0.4491 0.1943 0.2928
H7A H -0.4995 0.1247 0.3707
H8A H -0.6113 0.0565 0.2542
H44A H -0.4099 0.2396 0.2260
H45A H -0.3560 0.1499 0.1662
H46A H -0.3061 0.1976 0.2966
C33A C 0.0620(13) -0.2683(16) -0.1915(13)
C34A C -0.0432(16) -0.1643(15) -0.3013(13)
H2A H 0.0088 -0.3113 -0.3550
C27A C -0.0891(15) -0.5937(13) -0.4166(13)
C30A C -0.2569(16) -0.6342(13) -0.3565(15)
H5A H -0.0899 -0.5260 -0.2646
C25A C -0.2378(1) -0.4216(16) -0.5753(10)
C29A C -0.3787(15) -0.3649(17) -0.5019(12)
H12A H -0.3384 -0.4983 -0.5155
C24A C -0.8429(13) -0.6306(14) -0.1385(13)
H38A H 0.1391 -0.2058 -0.1646
H39A H 0.0777 -0.3432 -0.1995
H40A H 0.0242 -0.2533 -0.1394
H41A H 0.0352 -0.1041 -0.2756
H42A H -0.0847 -0.1408 -0.2540
H43A H -0.0938 -0.1738 -0.3764
H22A H -0.0759 -0.6663 -0.4085
H23A H -0.0105 -0.5353 -0.3939
H24A H -0.1398 -0.6088 -0.4931
H29A H -0.2335 -0.7032 -0.3496
H30A H -0.3222 -0.6551 -0.4287
H31A H -0.2856 -0.6050 -0.2999
H16A H -0.2985 -0.4313 -0.6466
H17A H -0.2032 -0.4860 -0.5829
H18A H -0.1727 -0.3473 -0.5476
H26A H -0.4312 -0.3847 -0.5790
H27A H -0.3348 -0.2811 -0.4691
H28A H -0.4288 -0.3856 -0.4632
C4A C -0.9022(15) -0.7392(15) -0.2235(12)
C13A C -0.8940(14) -0.5993(12) -0.0621(10)
C20A C -1.0080(16) -0.8141(15) -0.2285(14)
H1A H -0.8673 -0.7635 -0.2764
C21A C -0.9994(16) -0.6730(18) -0.0685(14)
H4A H -0.8515 -0.5217 -0.0052
C28A C -1.0557(14) -0.7820(17) -0.1571(18)
H13A H -1.0508 -0.8900 -0.2878
H14A H -1.0317 -0.6515 -0.0131
H25A H -1.1311 -0.8347 -0.1644
loop_
_geom_bond_atom_site_label_1
_geom_bond_atom_site_label_2
_geom_bond_site_symmetry_1
_geom_bond_site_symmetry_2
Si1 C9 1_555 1_555
Si2 C3 1_555 1_555
C1 C3 1_555 1_555
C2 C11 1_555 1_555
C4 C20 1_555 1_555
C5 C6 1_555 1_555
C6 C22 1_555 1_555
C7 C10 1_555 1_555
C8 C10 1_555 1_555
C9 C33 1_555 1_555
C11 Si1 1_555 1_555
C12 Si2 1_555 1_555
C13 C21 1_555 1_555
C14 Si1 1_555 1_555
C15 C23 1_555 1_555
C16 Si2 1_555 1_555
C17 C16 1_555 1_555
C18 C8 1_555 1_555
C19 Si1 1_555 1_555
C20 C28 1_555 1_555
C21 C28 1_555 1_555
C22 C1 1_555 1_555
C23 Si2 1_555 1_555
C24 C4 1_555 1_555
C25 C19 1_555 1_555
C26 C16 1_555 1_555
C27 C14 1_555 1_555
C28 H25 1_555 1_555
C29 C19 1_555 1_555
C30 C14 1_555 1_555
C31 C12 1_555 1_555
C32 C12 1_555 1_555
C33 H38 1_555 1_555
C34 C9 1_555 1_555
C35 C2 1_555 1_555
C36 C23 1_555 1_555
H1 C4 1_555 1_555
H2 C9 1_555 1_555
H3 C12 1_555 1_555
H4 C13 1_555 1_555
H5 C14 1_555 1_555
H6 C15 1_555 1_555
H7 C15 1_555 1_555
H8 C15 1_555 1_555
H9 C16 1_555 1_555
H10 C17 1_555 1_555
H11 C17 1_555 1_555
H12 C19 1_555 1_555
H13 C20 1_555 1_555
H14 C21 1_555 1_555
H15 C23 1_555 1_555
H16 C25 1_555 1_555
H17 C25 1_555 1_555
H18 C25 1_555 1_555
H19 C26 1_555 1_555
H20 C26 1_555 1_555
H21 C26 1_555 1_555
H22 C27 1_555 1_555
H23 C27 1_555 1_555
H24 C27 1_555 1_555
H26 C29 1_555 1_555
H27 C29 1_555 1_555
H28 C29 1_555 1_555
H29 C30 1_555 1_555
H30 C30 1_555 1_555
H31 C30 1_555 1_555
H32 C31 1_555 1_555
H33 C31 1_555 1_555
H34 C31 1_555 1_555
H35 C32 1_555 1_555
H36 C32 1_555 1_555
H37 C32 1_555 1_555
H39 C33 1_555 1_555
H40 C33 1_555 1_555
H41 C34 1_555 1_555
H42 C34 1_555 1_555
H43 C34 1_555 1_555
H44 C36 1_555 1_555
H45 C36 1_555 1_555
H46 C36 1_555 1_555
C5A C5 1_555 1_555
C6A C5A 1_555 1_555
C22A C6A 1_555 1_555
C1A C22A 1_555 1_555
C35A C22A 1_555 1_555
C3A C1A 1_555 1_555
C2A C35A 1_555 1_555
C7A C35A 1_555 1_555
Si2A C3A 1_555 1_555
C11A C2A 1_555 1_555
C10A C7A 1_555 1_555
C12A Si2A 1_555 1_555
C16A Si2A 1_555 1_555
C23A Si2A 1_555 1_555
Si1A C11A 1_555 1_555
C8A C10A 1_555 1_555
C31A C12A 1_555 1_555
C32A C12A 1_555 1_555
H3A C12A 1_555 1_555
C17A C16A 1_555 1_555
C26A C16A 1_555 1_555
H9A C16A 1_555 1_555
C15A C23A 1_555 1_555
C36A C23A 1_555 1_555
H15A C23A 1_555 1_555
C9A Si1A 1_555 1_555
C14A Si1A 1_555 1_555
C19A Si1A 1_555 1_555
C18A C8A 1_555 1_555
H32A C31A 1_555 1_555
H33A C31A 1_555 1_555
H34A C31A 1_555 1_555
H35A C32A 1_555 1_555
H36A C32A 1_555 1_555
H37A C32A 1_555 1_555
H10A C17A 1_555 1_555
H11A C17A 1_555 1_555
H19A C26A 1_555 1_555
H20A C26A 1_555 1_555
H21A C26A 1_555 1_555
H6A C15A 1_555 1_555
H7A C15A 1_555 1_555
H8A C15A 1_555 1_555
H44A C36A 1_555 1_555
H45A C36A 1_555 1_555
H46A C36A 1_555 1_555
C33A C9A 1_555 1_555
C34A C9A 1_555 1_555
H2A C9A 1_555 1_555
C27A C14A 1_555 1_555
C30A C14A 1_555 1_555
H5A C14A 1_555 1_555
C25A C19A 1_555 1_555
C29A C19A 1_555 1_555
H12A C19A 1_555 1_555
C24A C18A 1_555 1_555
H38A C33A 1_555 1_555
H39A C33A 1_555 1_555
H40A C33A 1_555 1_555
H41A C34A 1_555 1_555
H42A C34A 1_555 1_555
H43A C34A 1_555 1_555
H22A C27A 1_555 1_555
H23A C27A 1_555 1_555
H24A C27A 1_555 1_555
H29A C30A 1_555 1_555
H30A C30A 1_555 1_555
H31A C30A 1_555 1_555
H16A C25A 1_555 1_555
H17A C25A 1_555 1_555
H18A C25A 1_555 1_555
H26A C29A 1_555 1_555
H27A C29A 1_555 1_555
H28A C29A 1_555 1_555
C4A C24A 1_555 1_555
C13A C24A 1_555 1_555
C20A C4A 1_555 1_555
H1A C4A 1_555 1_555
C21A C13A 1_555 1_555
H4A C13A 1_555 1_555
C28A C20A 1_555 1_555
H13A C20A 1_555 1_555
H14A C21A 1_555 1_555
H25A C28A 1_555 1_555
C7 C35 1_555 1_555
C13 C24 1_555 1_555
C18 C24 1_555 1_555
C22 C35 1_555 1_555
C21A C28A 1_555 1_555

#END
