
#######################################################################
#
#                 Cambridge Crystallographic Data Centre
#                                CCDC 
#
#######################################################################
#
# If this CIF has been generated from an entry in the Cambridge 
# Structural Database, then it will include bibliographic, chemical, 
# crystal, experimental, refinement or atomic coordinate data resulting 
# from the CCDC's data processing and validation procedures.
#
#######################################################################

data_PIRWUL
_chemical_formula_moiety         'C16 H34 N4 P1 1+,C15 H19 B1 F3 1-'
_chemical_name_systematic        
'(t-butylamino)tris(pyrrolidin-1-yl)phosphonium (cyclo-octane-1,5-diyl)(hydrido)[4-(trifluoromethyl)phenyl]borate'
_symmetry_cell_setting           orthorhombic
_symmetry_space_group_name_H-M   'P n a 21'
_symmetry_Int_Tables_number      33
_space_group_name_Hall           'P 2c -2n'
loop_
_symmetry_equiv_pos_site_id
_symmetry_equiv_pos_as_xyz
1 x,y,z
2 -x,-y,1/2+z
3 1/2+x,1/2-y,z
4 1/2-x,1/2+y,1/2+z
_cell_length_a                   16.716(2)
_cell_length_b                   11.0552(14)
_cell_length_c                   16.935(2)
_cell_angle_alpha                90
_cell_angle_beta                 90
_cell_angle_gamma                90
_cell_volume                     3129.57
_exptl_crystal_colour            colorless
_exptl_crystal_description       prism
_cell_formula_units_Z            4
loop_
_atom_site_label
_atom_site_type_symbol
_atom_site_fract_x
_atom_site_fract_y
_atom_site_fract_z
P1 P 0.46429(3) 0.53828(5) 0.40521(3)
N1 N 0.37559(11) 0.53394(16) 0.36505(11)
N2 N 0.52167(11) 0.43679(17) 0.36505(11)
N3 N 0.50830(11) 0.66668(16) 0.38747(11)
N4 N 0.44396(12) 0.52060(17) 0.49784(11)
H1 H 0.3928 0.5277 0.5091
C1 C 0.30656(13) 0.4581(2) 0.38926(14)
H2 H 0.2811 0.4905 0.4376
H3 H 0.3235 0.3736 0.3991
C2 C 0.24999(16) 0.4651(3) 0.31933(17)
H4 H 0.2579 0.3954 0.2835
H5 H 0.1936 0.4661 0.3372
C3 C 0.2711(2) 0.5818(4) 0.2785(2)
H6 H 0.2459 0.6519 0.3051
H7 H 0.2543 0.5805 0.2224
C4 C 0.36215(14) 0.5864(2) 0.28582(14)
H8 H 0.3883 0.5374 0.2442
H9 H 0.3822 0.6706 0.2829
C5 C 0.49071(15) 0.3116(2) 0.35516(15)
H10 H 0.4492 0.3084 0.3135
H11 H 0.4678 0.2809 0.4052
C6 C 0.56448(15) 0.2385(2) 0.33121(17)
H12 H 0.5614 0.1549 0.3519
H13 H 0.57 0.2354 0.273
C7 C 0.63397(15) 0.3068(2) 0.36838(16)
H14 H 0.685 0.288 0.3414
H15 H 0.6392 0.2876 0.4252
C8 C 0.61005(13) 0.4383(2) 0.35591(14)
H16 H 0.6353 0.4914 0.3959
H17 H 0.6255 0.4665 0.3026
C9 C 0.55815(15) 0.6972(2) 0.31828(15)
H18 H 0.546 0.6429 0.2734
H19 H 0.6157 0.6902 0.3312
C10 C 0.53641(17) 0.8267(2) 0.29869(18)
H20 H 0.5826 0.8701 0.2756
H21 H 0.4911 0.8298 0.2611
C11 C 0.5134(2) 0.8803(3) 0.37708(18)
H22 H 0.4769 0.95 0.3698
H23 H 0.5613 0.9077 0.4063
C12 C 0.47133(16) 0.7782(2) 0.42117(16)
H24 H 0.4811 0.7838 0.4787
H25 H 0.4129 0.7798 0.4114
C13 C 0.49516(14) 0.4946(2) 0.56774(13)
C14 C 0.46938(14) 0.5827(2) 0.63279(15)
H26 H 0.4784 0.666 0.615
H27 H 0.5008 0.5675 0.6806
H28 H 0.4124 0.5711 0.6444
C15 C 0.47922(16) 0.3642(2) 0.59349(15)
H29 H 0.4938 0.3089 0.5506
H30 H 0.4223 0.3545 0.606
H31 H 0.5113 0.3456 0.6404
C16 C 0.58344(15) 0.5128(3) 0.54969(15)
H32 H 0.6016 0.4499 0.5131
H33 H 0.6143 0.5078 0.5988
H34 H 0.5913 0.5925 0.5256
C18 C 0.23083(15) 0.5470(2) 0.68658(14)
H41 H 0.2794 0.5773 0.7149
C19 C 0.22657(16) 0.4091(2) 0.69774(16)
H42 H 0.2155 0.3922 0.7541
H43 H 0.2798 0.3746 0.6853
C20 C 0.16330(16) 0.3426(2) 0.64742(16)
H44 H 0.1769 0.2555 0.6461
H45 H 0.1107 0.3506 0.6737
C21 C 0.15555(15) 0.3880(2) 0.56243(15)
H46 H 0.1038 0.3595 0.5409
H47 H 0.1986 0.3507 0.5305
C22 C 0.16001(14) 0.5263(2) 0.55205(13)
H48 H 0.163 0.5438 0.4942
C23 C 0.08738(15) 0.5941(2) 0.58540(16)
H49 H 0.0905 0.6796 0.5684
H50 H 0.0383 0.5591 0.5619
C24 C 0.07915(16) 0.5909(3) 0.67525(16)
H51 H 0.0583 0.5106 0.6911
H52 H 0.0393 0.6523 0.6915
C25 C 0.15733(17) 0.6146(3) 0.71953(15)
H53 H 0.15 0.5911 0.7755
H54 H 0.1685 0.7026 0.7183
C26 C 0.26450(13) 0.7149(2) 0.57133(14)
C27 C 0.30456(14) 0.7914(2) 0.62434(15)
H55 H 0.3157 0.7621 0.6759
C28 C 0.32875(16) 0.9081(2) 0.60492(17)
H56 H 0.356 0.9565 0.6427
C29 C 0.31288(15) 0.9536(2) 0.53004(17)
C30 C 0.27400(15) 0.8820(2) 0.47554(16)
H57 H 0.2636 0.9119 0.424
C31 C 0.25001(14) 0.7656(2) 0.49638(15)
H58 H 0.2226 0.7182 0.4582
C32 C 0.33871(17) 1.0795(2) 0.5101(2)
F1 F 0.2997(4) 1.1264(6) 0.4470(5)
F2 F 0.3265(4) 1.1591(6) 0.5704(4)
F3 F 0.4163(4) 1.0893(8) 0.4928(4)
B1 B 0.24192(15) 0.5757(2) 0.59251(15)
H59 H 0.2867 0.5238 0.5729
H35? H 0.2327 0.3829 0.3037
H36? H 0.2019 0.5127 0.3335
C17? C 0.2937(18) 0.525(3) 0.2521(17)
H37? H 0.3113 0.4637 0.2132
H38? H 0.2582 0.5836 0.2251
H39? H 0.3515 0.6743 0.29
H40? H 0.4099 0.5744 0.2522
F4? F 0.2820(12) 1.1457(16) 0.4902(17)
F5? F 0.3796(14) 1.1303(17) 0.5795(12)
F6? F 0.3985(14) 1.080(2) 0.4561(14)
F7? F 0.3266(8) 1.1049(13) 0.4301(8)
F8? F 0.2985(8) 1.1602(12) 0.5481(9)
F9? F 0.4155(10) 1.0953(18) 0.5205(8)
loop_
_geom_bond_atom_site_label_1
_geom_bond_atom_site_label_2
_geom_bond_site_symmetry_1
_geom_bond_site_symmetry_2
P1 N1 1_555 1_555
N1 C1 1_555 1_555
N2 P1 1_555 1_555
N3 P1 1_555 1_555
N4 P1 1_555 1_555
H1 N4 1_555 1_555
C1 H2 1_555 1_555
H3 C1 1_555 1_555
C2 C1 1_555 1_555
H4 C2 1_555 1_555
H5 C2 1_555 1_555
C3 C2 1_555 1_555
H6 C3 1_555 1_555
H7 C3 1_555 1_555
C4 N1 1_555 1_555
H8 C4 1_555 1_555
H9 C4 1_555 1_555
C5 N2 1_555 1_555
H10 C5 1_555 1_555
H11 C5 1_555 1_555
C6 C5 1_555 1_555
H12 C6 1_555 1_555
H13 C6 1_555 1_555
C7 C6 1_555 1_555
H14 C7 1_555 1_555
H15 C7 1_555 1_555
C8 N2 1_555 1_555
H16 C8 1_555 1_555
H17 C8 1_555 1_555
C9 N3 1_555 1_555
H18 C9 1_555 1_555
H19 C9 1_555 1_555
C10 C9 1_555 1_555
H20 C10 1_555 1_555
H21 C10 1_555 1_555
C11 C10 1_555 1_555
H22 C11 1_555 1_555
H23 C11 1_555 1_555
C12 N3 1_555 1_555
H24 C12 1_555 1_555
H25 C12 1_555 1_555
C13 N4 1_555 1_555
C14 C13 1_555 1_555
H26 C14 1_555 1_555
H27 C14 1_555 1_555
H28 C14 1_555 1_555
C15 C13 1_555 1_555
H29 C15 1_555 1_555
H30 C15 1_555 1_555
H31 C15 1_555 1_555
C16 C13 1_555 1_555
H32 C16 1_555 1_555
H33 C16 1_555 1_555
H34 C16 1_555 1_555
C18 H41 1_555 1_555
C19 C18 1_555 1_555
H42 C19 1_555 1_555
H43 C19 1_555 1_555
C20 C19 1_555 1_555
H44 C20 1_555 1_555
H45 C20 1_555 1_555
C21 C20 1_555 1_555
H46 C21 1_555 1_555
H47 C21 1_555 1_555
C22 C21 1_555 1_555
H48 C22 1_555 1_555
C23 C22 1_555 1_555
H49 C23 1_555 1_555
H50 C23 1_555 1_555
C24 C23 1_555 1_555
H51 C24 1_555 1_555
H52 C24 1_555 1_555
C25 C18 1_555 1_555
H53 C25 1_555 1_555
H54 C25 1_555 1_555
C26 C27 1_555 1_555
C27 H55 1_555 1_555
C28 C27 1_555 1_555
H56 C28 1_555 1_555
C29 C28 1_555 1_555
C30 C29 1_555 1_555
H57 C30 1_555 1_555
C31 C26 1_555 1_555
H58 C31 1_555 1_555
C32 C29 1_555 1_555
F1 C32 1_555 1_555
F2 C32 1_555 1_555
F3 C32 1_555 1_555
B1 C18 1_555 1_555
H59 B1 1_555 1_555
C3 C4 1_555 1_555
C7 C8 1_555 1_555
C11 C12 1_555 1_555
C22 B1 1_555 1_555
C24 C25 1_555 1_555
C26 B1 1_555 1_555
C30 C31 1_555 1_555

#END
