
#######################################################################
#
#                 Cambridge Crystallographic Data Centre
#                                CCDC 
#
#######################################################################
#
# If this CIF has been generated from an entry in the Cambridge 
# Structural Database, then it will include bibliographic, chemical, 
# crystal, experimental, refinement or atomic coordinate data resulting 
# from the CCDC's data processing and validation procedures.
#
#######################################################################

data_PIRWIZ
_chemical_formula_moiety         'C12 H17 F2 N1 O5'
_chemical_name_systematic        
'2-[(butanoylamino)methylidene]-5-ethoxy-4,4-difluoro-5-oxopentanoic acid'
_symmetry_cell_setting           triclinic
_symmetry_space_group_name_H-M   'P -1'
_symmetry_Int_Tables_number      2
_space_group_name_Hall           '-P 1'
loop_
_symmetry_equiv_pos_site_id
_symmetry_equiv_pos_as_xyz
1 x,y,z
2 -x,-y,-z
_cell_length_a                   5.3680(6)
_cell_length_b                   8.8589(9)
_cell_length_c                   15.7536(14)
_cell_angle_alpha                74.167(8)
_cell_angle_beta                 81.776(9)
_cell_angle_gamma                84.811(9)
_cell_volume                     712.281
_exptl_crystal_colour            colorless
_exptl_crystal_description       block
_cell_formula_units_Z            2
loop_
_atom_site_label
_atom_site_type_symbol
_atom_site_fract_x
_atom_site_fract_y
_atom_site_fract_z
F1 F 0.1004(5) 0.4979(2) 0.79574(15)
F2 F 0.3818(4) 0.3215(3) 0.77044(15)
O1 O 0.5083(4) 0.0471(3) 1.10802(16)
O2 O -0.2485(4) 0.3975(2) 1.03999(13)
O3 O -0.3808(4) 0.4188(3) 0.90909(13)
H1 H -0.5045 0.4619 0.9315
O4 O 0.0067(11) 0.5107(5) 0.6390(3)
O5 O 0.0320(8) 0.2513(4) 0.66584(19)
N1 N 0.1604(4) 0.2066(3) 1.07905(15)
H2 H 0.0461 0.2671 1.0990
C1 C 0.5200(12) 0.1808(8) 1.3528(3)
H3 H 0.4266 0.2796 1.3490
H4 H 0.6834 0.1868 1.3693
H5 H 0.4313 0.0994 1.3968
C2 C 0.5496(8) 0.1437(7) 1.2631(3)
H6 H 0.6754 0.2096 1.2232
H7 H 0.6122 0.0353 1.2706
C3 C 0.3152(7) 0.1672(5) 1.2210(2)
H8 H 0.2516 0.2753 1.2142
H9 H 0.1901 0.1004 1.2607
C4 C 0.3432(5) 0.1329(3) 1.13243(19)
C5 C 0.1527(5) 0.1881(3) 0.99657(18)
H10 H 0.2766 0.1213 0.9764
C6 C -0.0193(5) 0.2584(3) 0.94136(18)
C7 C -0.2232(5) 0.3636(3) 0.96790(17)
C8 C -0.0056(5) 0.2306(3) 0.85072(19)
H11 H -0.1755 0.2263 0.8376
H12 H 0.0812 0.1294 0.8516
C9 C 0.1287(6) 0.3557(4) 0.7772(2)
C10 C 0.0528(9) 0.3835(5) 0.6854(3)
C11 C -0.0174(17) 0.2561(11) 0.5745(4)
H13 H 0.0670 0.3425 0.5316
H14 H 0.0476 0.1591 0.5601
C12 C -0.265(2) 0.2746(14) 0.5706(6)
H15 H -0.3004 0.2566 0.5163
H16 H -0.3217 0.3797 0.5724
H17 H -0.3499 0.2010 0.6203
loop_
_geom_bond_atom_site_label_1
_geom_bond_atom_site_label_2
_geom_bond_site_symmetry_1
_geom_bond_site_symmetry_2
F1 C9 1_555 1_555
F2 C9 1_555 1_555
O1 C4 1_555 1_555
O2 C7 1_555 1_555
O3 H1 1_555 1_555
O4 C10 1_555 1_555
O5 C10 1_555 1_555
N1 H2 1_555 1_555
C1 H3 1_555 1_555
H4 C1 1_555 1_555
H5 C1 1_555 1_555
C2 C1 1_555 1_555
H6 C2 1_555 1_555
H7 C2 1_555 1_555
C3 C2 1_555 1_555
H8 C3 1_555 1_555
H9 C3 1_555 1_555
C4 N1 1_555 1_555
C5 N1 1_555 1_555
H10 C5 1_555 1_555
C6 C5 1_555 1_555
C7 O3 1_555 1_555
C8 C6 1_555 1_555
H11 C8 1_555 1_555
H12 C8 1_555 1_555
C9 C8 1_555 1_555
C10 C9 1_555 1_555
C11 O5 1_555 1_555
H13 C11 1_555 1_555
H14 C11 1_555 1_555
C12 C11 1_555 1_555
H15 C12 1_555 1_555
H16 C12 1_555 1_555
H17 C12 1_555 1_555
C3 C4 1_555 1_555
C6 C7 1_555 1_555

#END
