
#######################################################################
#
#                 Cambridge Crystallographic Data Centre
#                                CCDC 
#
#######################################################################
#
# If this CIF has been generated from an entry in the Cambridge 
# Structural Database, then it will include bibliographic, chemical, 
# crystal, experimental, refinement or atomic coordinate data resulting 
# from the CCDC's data processing and validation procedures.
#
#######################################################################

data_PITHIJ
_chemical_formula_moiety         'C16 H38 N4 P2 S2'
_chemical_name_systematic        
cis((1,3-Di-t-butyl)-2,4-bis(t-butylamino)-2,4-dithio)-1,3,2,4-diazadiphosphetidine
_symmetry_cell_setting           monoclinic
_symmetry_space_group_name_H-M   'P 21/n'
_symmetry_Int_Tables_number      14
_space_group_name_Hall           '-P 2yn'
loop_
_symmetry_equiv_pos_site_id
_symmetry_equiv_pos_as_xyz
1 x,y,z
2 1/2-x,1/2+y,1/2-z
3 -x,-y,-z
4 1/2+x,1/2-y,1/2+z
_cell_length_a                   10.728(2)
_cell_length_b                   15.503(3)
_cell_length_c                   14.652(2)
_cell_angle_alpha                90
_cell_angle_beta                 103.700(10)
_cell_angle_gamma                90
_cell_volume                     2367.53
_exptl_crystal_colour            white
_chemical_melting_point          '165-167 deg.C'
_cell_formula_units_Z            4
loop_
_atom_site_label
_atom_site_type_symbol
_atom_site_fract_x
_atom_site_fract_y
_atom_site_fract_z
S1 S 0.5740(1) 0.3468(1) 0.0689(1)
S2 S 0.2762(1) 0.1827(1) 0.2147(1)
P1 P 0.3901(1) 0.3336(1) 0.0271(1)
P2 P 0.2397(1) 0.2505(1) 0.1021(1)
N1 N 0.3238(3) 0.2353(2) 0.0190(2)
N2 N 0.2980(3) 0.3516(2) 0.1037(2)
N3 N 0.3426(3) 0.3870(2) -0.0708(2)
N4 N 0.0874(3) 0.2519(2) 0.0497(3)
C1 C 0.3708(4) 0.1518(2) -0.0137(3)
C2 C 0.3122(4) 0.4204(2) 0.1776(3)
C3 C 0.2176(4) 0.4015(3) -0.1384(3)
C4 C -0.0328(4) 0.2166(3) 0.0677(3)
C5 C 0.4211(5) 0.1705(3) -0.1017(3)
C6 C 0.2599(4) 0.0904(3) -0.0387(3)
C7 C 0.4804(5) 0.1166(3) 0.0629(3)
C8 C 0.1904(5) 0.4244(3) 0.2108(3)
C9 C 0.3406(5) 0.5059(2) 0.1352(3)
C10 C 0.4265(4) 0.3979(3) 0.2605(3)
C11 C 0.1564(4) 0.3186(3) -0.1808(3)
C12 C 0.2466(5) 0.4566(3) -0.2186(3)
C13 C 0.1276(5) 0.4523(4) -0.0910(4)
C14 C -0.1396(4) 0.2499(4) -0.0121(4)
C15 C -0.0567(5) 0.2498(4) 0.1596(4)
C16 C -0.0303(5) 0.1191(3) 0.0664(4)
H1 H 0.4046(41) 0.4067(29) -0.0886(31)
H2 H 0.0739(45) 0.2747(30) 0.0060(34)
H3 H 0.4556 0.1134 -0.1300
H4 H 0.4964 0.2182 -0.0866
H5 H 0.3396 0.1961 -0.1522
H6 H 0.2903 0.0324 -0.0677
H7 H 0.1788 0.1178 -0.0883
H8 H 0.2326 0.0753 0.0257
H9 H 0.5183 0.0622 0.0324
H10 H 0.4323 0.0942 0.1153
H11 H 0.5580 0.1591 0.0953
H12 H 0.1965 0.4717 0.2656
H13 H 0.1702 0.3619 0.2363
H14 H 0.1146 0.4419 0.1511
H15 H 0.3637 0.5548 0.1890
H16 H 0.2551 0.5245 0.0838
H17 H 0.4192 0.4992 0.1015
H18 H 0.4435 0.4455 0.3157
H19 H 0.5120 0.3903 0.2345
H20 H 0.4022 0.3371 0.2876
H21 H 0.1404 0.2758 -0.1267
H22 H 0.2103 0.2854 -0.2236
H23 H 0.0653 0.3390 -0.2241
H24 H 0.1491 0.4615 -0.2597
H25 H 0.3032 0.4211 -0.2577
H26 H 0.2863 0.5203 -0.2033
H27 H 0.0435 0.4610 -0.1475
H28 H 0.1649 0.5145 -0.0648
H29 H 0.1023 0.4162 -0.0351
H30 H -0.2334 0.2287 -0.0069
H31 H -0.1237 0.2312 -0.0793
H32 H -0.1337 0.3192 -0.0054
H33 H 0.0240 0.2266 0.2126
H34 H -0.1445 0.2247 0.1730
H35 H -0.0588 0.3194 0.1614
H36 H -0.1230 0.0940 0.0696
H37 H 0.0425 0.0924 0.1230
H38 H -0.0101 0.1017 0.0001
loop_
_geom_bond_atom_site_label_1
_geom_bond_atom_site_label_2
_geom_bond_site_symmetry_1
_geom_bond_site_symmetry_2
S1 P1 1_555 1_555
S2 P2 1_555 1_555
P1 N1 1_555 1_555
P2 N1 1_555 1_555
N1 C1 1_555 1_555
N2 P1 1_555 1_555
N3 P1 1_555 1_555
N4 P2 1_555 1_555
C1 C5 1_555 1_555
C2 N2 1_555 1_555
C3 N3 1_555 1_555
C4 N4 1_555 1_555
C5 H3 1_555 1_555
C6 C1 1_555 1_555
C7 C1 1_555 1_555
C8 C2 1_555 1_555
C9 C2 1_555 1_555
C10 C2 1_555 1_555
C11 C3 1_555 1_555
C12 C3 1_555 1_555
C13 C3 1_555 1_555
C14 C4 1_555 1_555
C15 C4 1_555 1_555
C16 C4 1_555 1_555
H1 N3 1_555 1_555
H2 N4 1_555 1_555
H4 C5 1_555 1_555
H5 C5 1_555 1_555
H6 C6 1_555 1_555
H7 C6 1_555 1_555
H8 C6 1_555 1_555
H9 C7 1_555 1_555
H10 C7 1_555 1_555
H11 C7 1_555 1_555
H12 C8 1_555 1_555
H13 C8 1_555 1_555
H14 C8 1_555 1_555
H15 C9 1_555 1_555
H16 C9 1_555 1_555
H17 C9 1_555 1_555
H18 C10 1_555 1_555
H19 C10 1_555 1_555
H20 C10 1_555 1_555
H21 C11 1_555 1_555
H22 C11 1_555 1_555
H23 C11 1_555 1_555
H24 C12 1_555 1_555
H25 C12 1_555 1_555
H26 C12 1_555 1_555
H27 C13 1_555 1_555
H28 C13 1_555 1_555
H29 C13 1_555 1_555
H30 C14 1_555 1_555
H31 C14 1_555 1_555
H32 C14 1_555 1_555
H33 C15 1_555 1_555
H34 C15 1_555 1_555
H35 C15 1_555 1_555
H36 C16 1_555 1_555
H37 C16 1_555 1_555
H38 C16 1_555 1_555
P2 N2 1_555 1_555

#END
