
#######################################################################
#
#                 Cambridge Crystallographic Data Centre
#                                CCDC 
#
#######################################################################
#
# If this CIF has been generated from an entry in the Cambridge 
# Structural Database, then it will include bibliographic, chemical, 
# crystal, experimental, refinement or atomic coordinate data resulting 
# from the CCDC's data processing and validation procedures.
#
#######################################################################

data_PITHEF
_chemical_formula_moiety         'C8 H22 N4 P2 S2'
_chemical_name_systematic        
trans-(1,3-Diethyl-2,4-bis(ethylamino)-2,4-dithio)-1,3,2,4-diazadiphosphetidine
_symmetry_cell_setting           orthorhombic
_symmetry_space_group_name_H-M   'P b c n'
_symmetry_Int_Tables_number      60
_space_group_name_Hall           '-P 2n 2ab'
loop_
_symmetry_equiv_pos_site_id
_symmetry_equiv_pos_as_xyz
1 x,y,z
2 1/2-x,1/2+y,z
3 x,-y,1/2+z
4 1/2-x,1/2-y,1/2+z
5 -x,-y,-z
6 1/2+x,1/2-y,-z
7 -x,y,1/2-z
8 1/2+x,1/2+y,1/2-z
_cell_length_a                   12.558(2)
_cell_length_b                   8.8890(10)
_cell_length_c                   14.432(2)
_cell_angle_alpha                90
_cell_angle_beta                 90
_cell_angle_gamma                90
_cell_volume                     1611.02
_exptl_crystal_colour            colorless
_chemical_melting_point          '174-176 deg.C'
_cell_formula_units_Z            4
loop_
_atom_site_label
_atom_site_type_symbol
_atom_site_fract_x
_atom_site_fract_y
_atom_site_fract_z
S1 S 0.1037(1) 0.2003(2) 0.1315(1)
P1 P 0.0003(1) 0.0672(1) 0.0764(1)
N1 N -0.0413(3) 0.0970(3) -0.0321(2)
N2 N -0.1011(3) 0.0460(5) 0.1450(3)
C1 C -0.1206(4) 0.2056(6) -0.0671(4)
C3 C -0.0638(29) 0.3476(22) -0.0947(26)
C5 C -0.1961(33) -0.0476(69) 0.0962(28)
C6 C -0.2949(14) -0.0185(24) 0.1456(15)
H1 H -0.1026 0.1002 0.1967
H2 H -0.1664 0.2343 -0.0177
H3 H -0.1629 0.1558 -0.1135
H4 H -0.1281 0.4034 -0.1282
H5 H -0.0310 0.3899 -0.0605
H6 H -0.0275 0.3105 -0.1575
H7 H -0.1682 -0.1579 0.1478
H8 H -0.1984 -0.0655 0.0613
H9 H -0.3331 -0.1054 0.1448
H10 H -0.2787 -0.0262 0.2296
H11 H -0.3094 0.0677 0.1416
N1D N 0.0413(3) -0.0970(3) 0.0321(2)
P1D P -0.0003(1) -0.0672(1) -0.0764(1)
C1D C 0.1206(4) -0.2056(6) 0.0671(4)
S1D S -0.1037(1) -0.2003(2) -0.1315(1)
N2D N 0.1011(3) -0.0460(5) -0.1450(3)
C3D C 0.0638(29) -0.3476(22) 0.0947(26)
H2D H 0.1664 -0.2343 0.0177
H3D H 0.1629 -0.1558 0.1135
C5D C 0.1961(33) 0.0476(69) -0.0962(28)
H1D H 0.1026 -0.1002 -0.1967
H4D H 0.1281 -0.4034 0.1282
H5D H 0.0310 -0.3899 0.0605
H6D H 0.0275 -0.3105 0.1575
C6D C 0.2949(14) 0.0185(24) -0.1456(15)
H7D H 0.1682 0.1579 -0.1478
H8D H 0.1984 0.0655 -0.0613
H9D H 0.3331 0.1054 -0.1448
H10D H 0.2787 0.0262 -0.2296
H11D H 0.3094 -0.0677 -0.1416
C2? C -0.0781(31) 0.3259(40) -0.1238(29)
C4? C -0.1847(12) -0.0672(15) 0.1345(9)
C7? C -0.2742(19) -0.0371(31) 0.1852(13)
loop_
_geom_bond_atom_site_label_1
_geom_bond_atom_site_label_2
_geom_bond_site_symmetry_1
_geom_bond_site_symmetry_2
S1 P1 1_555 1_555
P1 N1 1_555 1_555
N1 C1 1_555 1_555
N2 P1 1_555 1_555
C1 C3 1_555 1_555
C3 H4 1_555 1_555
C5 N2 1_555 1_555
C6 C5 1_555 1_555
H1 N2 1_555 1_555
H2 C1 1_555 1_555
H3 C1 1_555 1_555
H5 C3 1_555 1_555
H6 C3 1_555 1_555
H7 C5 1_555 1_555
H8 C5 1_555 1_555
H9 C6 1_555 1_555
H10 C6 1_555 1_555
H11 C6 1_555 1_555
N1D P1 1_555 1_555
P1D N1 1_555 1_555
C1D N1D 1_555 1_555
S1D P1D 1_555 1_555
N2D P1D 1_555 1_555
C3D C1D 1_555 1_555
H2D C1D 1_555 1_555
H3D C1D 1_555 1_555
C5D N2D 1_555 1_555
H1D N2D 1_555 1_555
H4D C3D 1_555 1_555
H5D C3D 1_555 1_555
H6D C3D 1_555 1_555
C6D C5D 1_555 1_555
H7D C5D 1_555 1_555
H8D C5D 1_555 1_555
H9D C6D 1_555 1_555
H10D C6D 1_555 1_555
H11D C6D 1_555 1_555
N1D P1D 1_555 1_555

#END
