
#######################################################################
#
#                 Cambridge Crystallographic Data Centre
#                                CCDC 
#
#######################################################################
#
# If this CIF has been generated from an entry in the Cambridge 
# Structural Database, then it will include bibliographic, chemical, 
# crystal, experimental, refinement or atomic coordinate data resulting 
# from the CCDC's data processing and validation procedures.
#
#######################################################################

data_PITJAD
_chemical_formula_moiety         'C21 H33 N3 P2'
_chemical_name_systematic        
meso-(Isopropyl-bis((isopropylamino-phenyl)phosphino))amine
_symmetry_cell_setting           orthorhombic
_symmetry_space_group_name_H-M   'P b c a'
_symmetry_Int_Tables_number      61
_space_group_name_Hall           '-P 2ac 2ab'
loop_
_symmetry_equiv_pos_site_id
_symmetry_equiv_pos_as_xyz
1 x,y,z
2 1/2-x,1/2+y,z
3 x,1/2-y,1/2+z
4 1/2-x,-y,1/2+z
5 -x,-y,-z
6 1/2+x,1/2-y,-z
7 -x,1/2+y,1/2-z
8 1/2+x,y,1/2-z
_cell_length_a                   10.616(5)
_cell_length_b                   16.340(7)
_cell_length_c                   26.813(18)
_cell_angle_alpha                90
_cell_angle_beta                 90
_cell_angle_gamma                90
_cell_volume                     4651.13
_chemical_melting_point          '101-103 deg.C'
_cell_formula_units_Z            8
loop_
_atom_site_label
_atom_site_type_symbol
_atom_site_fract_x
_atom_site_fract_y
_atom_site_fract_z
P1 P -0.5342(2) 0.9430(1) 0.1209(1)
P2 P -0.4211(2) 0.7822(1) 0.1481(1)
N1 N -0.4670(6) 1.0146(4) 0.0857(3)
N2 N -0.4760(5) 0.8496(3) 0.1037(2)
N3 N -0.5405(7) 0.7606(4) 0.1852(3)
C1 C -0.4728(7) 0.8234(4) 0.0505(2)
C2 C -0.5338(8) 0.7408(5) 0.0420(3)
C3 C -0.3387(7) 0.8241(5) 0.0310(3)
C4 C -0.6916(6) 0.9402(4) 0.0929(2)
C5 C -0.7652(7) 0.8714(5) 0.0993(2)
C6 C -0.8908(7) 0.8698(5) 0.0845(3)
C7 C -0.9441(8) 0.9363(7) 0.0635(3)
C8 C -0.8754(9) 1.0057(6) 0.0574(3)
C9 C -0.7491(8) 1.0080(5) 0.0720(2)
C10 C -0.3738(8) 1.0724(4) 0.1040(3)
C11 C -0.2597(8) 1.0760(5) 0.0725(4)
C12 C -0.4312(9) 1.1560(5) 0.1080(4)
C13 C -0.3247(6) 0.8532(4) 0.1853(3)
C14 C -0.3437(7) 0.8683(5) 0.2355(3)
C15 C -0.2644(10) 0.9180(6) 0.2618(3)
C16 C -0.1627(10) 0.9518(6) 0.2397(4)
C17 C -0.1389(8) 0.9351(6) 0.1907(4)
C18 C -0.2201(7) 0.8882(5) 0.1635(3)
C19 C -0.5859(9) 0.6788(6) 0.1943(4)
C20 C -0.5818(13) 0.6586(7) 0.2491(5)
C21 C -0.7128(12) 0.6663(7) 0.1809(5)
H1 H -0.4759(57) 1.0132(35) 0.0574(22)
H2 H -0.5715(45) 0.7947(28) 0.1978(18)
H3 H -0.5170 0.8632 0.0309
H4 H -0.5278 0.7265 0.0074
H5 H -0.4927 0.6998 0.0618
H6 H -0.6209 0.7443 0.0515
H7 H -0.3362 0.8062 -0.0031
H8 H -0.3035 0.8780 0.0334
H9 H -0.2907 0.7871 0.0513
H10 H -0.7277 0.8226 0.1125
H11 H -0.9426 0.8223 0.0892
H12 H -1.0320 0.9381 0.0551
H13 H -0.9115 1.0511 0.0397
H14 H -0.7027 1.0581 0.0684
H15 H -0.3507 1.0565 0.1372
H16 H -0.2190 1.0236 0.0712
H17 H -0.2864 1.0915 0.0397
H18 H -0.2017 1.1161 0.0851
H19 H -0.5046 1.1589 0.1288
H20 H -0.3691 1.1940 0.1198
H21 H -0.4538 1.1694 0.0743
H22 H -0.4112 0.8436 0.2539
H23 H -0.2784 0.9314 0.2962
H24 H -0.1054 0.9856 0.2582
H25 H -0.0740 0.9638 0.1729
H26 H -0.2011 0.8741 0.1296
H27 H -0.5273 0.6423 0.1786
H28 H -0.4993 0.6654 0.2631
H29 H -0.6382 0.6979 0.2635
H30 H -0.6117 0.6043 0.2561
H31 H -0.7142 0.6738 0.1453
H32 H -0.7410 0.6121 0.1888
H33 H -0.7676 0.7057 0.1963
loop_
_geom_bond_atom_site_label_1
_geom_bond_atom_site_label_2
_geom_bond_site_symmetry_1
_geom_bond_site_symmetry_2
P1 N1 1_555 1_555
P2 N2 1_555 1_555
N1 C10 1_555 1_555
N2 P1 1_555 1_555
N3 P2 1_555 1_555
C1 N2 1_555 1_555
C2 C1 1_555 1_555
C3 C1 1_555 1_555
C4 P1 1_555 1_555
C5 C4 1_555 1_555
C6 C5 1_555 1_555
C7 C6 1_555 1_555
C8 C7 1_555 1_555
C9 C4 1_555 1_555
C10 C11 1_555 1_555
C11 H16 1_555 1_555
C12 C10 1_555 1_555
C13 P2 1_555 1_555
C14 C13 1_555 1_555
C15 C14 1_555 1_555
C16 C15 1_555 1_555
C17 C16 1_555 1_555
C18 C13 1_555 1_555
C19 N3 1_555 1_555
C20 C19 1_555 1_555
C21 C19 1_555 1_555
H1 N1 1_555 1_555
H2 N3 1_555 1_555
H3 C1 1_555 1_555
H4 C2 1_555 1_555
H5 C2 1_555 1_555
H6 C2 1_555 1_555
H7 C3 1_555 1_555
H8 C3 1_555 1_555
H9 C3 1_555 1_555
H10 C5 1_555 1_555
H11 C6 1_555 1_555
H12 C7 1_555 1_555
H13 C8 1_555 1_555
H14 C9 1_555 1_555
H15 C10 1_555 1_555
H17 C11 1_555 1_555
H18 C11 1_555 1_555
H19 C12 1_555 1_555
H20 C12 1_555 1_555
H21 C12 1_555 1_555
H22 C14 1_555 1_555
H23 C15 1_555 1_555
H24 C16 1_555 1_555
H25 C17 1_555 1_555
H26 C18 1_555 1_555
H27 C19 1_555 1_555
H28 C20 1_555 1_555
H29 C20 1_555 1_555
H30 C20 1_555 1_555
H31 C21 1_555 1_555
H32 C21 1_555 1_555
H33 C21 1_555 1_555
C8 C9 1_555 1_555
C17 C18 1_555 1_555

#END
