
#######################################################################
#
#                 Cambridge Crystallographic Data Centre
#                                CCDC 
#
#######################################################################
#
# If this CIF has been generated from an entry in the Cambridge 
# Structural Database, then it will include bibliographic, chemical, 
# crystal, experimental, refinement or atomic coordinate data resulting 
# from the CCDC's data processing and validation procedures.
#
#######################################################################

data_PITTIV
_chemical_formula_moiety         'C13 H14 N1 O1 1+,F6 P1 1-'
_chemical_name_systematic        
'4-Methyl-(4-methoxyphenyl)pyridinium hexafluorophosphate'
_symmetry_cell_setting           monoclinic
_symmetry_space_group_name_H-M   'P 21/n'
_symmetry_Int_Tables_number      14
_space_group_name_Hall           '-P 2yn'
loop_
_symmetry_equiv_pos_site_id
_symmetry_equiv_pos_as_xyz
1 x,y,z
2 1/2-x,1/2+y,1/2-z
3 -x,-y,-z
4 1/2+x,1/2-y,1/2+z
_cell_length_a                   6.514(2)
_cell_length_b                   23.026(6)
_cell_length_c                   10.299(3)
_cell_angle_alpha                90
_cell_angle_beta                 103.46(2)
_cell_angle_gamma                90
_cell_volume                     1502.33
_chemical_melting_point          '230-232 deg.C'
_cell_formula_units_Z            4
loop_
_atom_site_label
_atom_site_type_symbol
_atom_site_fract_x
_atom_site_fract_y
_atom_site_fract_z
P1 P 0.1919(5) 0.8400(1) 0.9084(3)
F1 F -0.0246(14) 0.8162(5) 0.8332(8)
F2 F 0.1870(20) 0.8765(6) 0.7876(9)
F3 F 0.4160(15) 0.8600(5) 0.9785(9)
F4 F 0.2013(18) 0.7996(6) 1.0231(9)
F5 F 0.1151(29) 0.8853(8) 0.9714(17)
F6 F 0.2830(24) 0.7920(8) 0.8432(14)
C1 C 0.7790(18) 1.2292(5) 0.4949(12)
N1 N 0.6158(13) 1.1922(4) 0.5278(9)
C2 C 0.4603(18) 1.1703(5) 0.4316(10)
C3 C 0.3045(15) 1.1362(5) 0.4581(9)
C4 C 0.2972(15) 1.1251(4) 0.5892(9)
C5 C 0.4593(17) 1.1477(4) 0.6874(9)
C6 C 0.6162(17) 1.1809(5) 0.6544(11)
C7 C 0.1256(14) 1.0903(4) 0.6217(8)
C8 C -0.0508(16) 1.0752(4) 0.5251(9)
C9 C -0.2155(16) 1.0432(4) 0.5558(10)
C10 C -0.0254(19) 1.0397(5) 0.7820(11)
C11 C 0.1329(15) 1.0724(5) 0.7511(10)
O1 O -0.3689(11) 0.9951(3) 0.7056(7)
C12 C -0.3662(19) 0.9757(5) 0.8386(12)
C13 C -0.2007(16) 1.0256(4) 0.6862(10)
loop_
_geom_bond_atom_site_label_1
_geom_bond_atom_site_label_2
_geom_bond_site_symmetry_1
_geom_bond_site_symmetry_2
P1 F1 1_555 1_555
F2 P1 1_555 1_555
F3 P1 1_555 1_555
F4 P1 1_555 1_555
F5 P1 1_555 1_555
F6 P1 1_555 1_555
C1 N1 1_555 1_555
N1 C2 1_555 1_555
C2 C3 1_555 1_555
C3 C4 1_555 1_555
C4 C5 1_555 1_555
C5 C6 1_555 1_555
C6 N1 1_555 1_555
C7 C4 1_555 1_555
C8 C7 1_555 1_555
C9 C8 1_555 1_555
C10 C11 1_555 1_555
C11 C7 1_555 1_555
O1 C12 1_555 1_555
C13 C9 1_555 1_555
C10 C13 1_555 1_555
O1 C13 1_555 1_555

#END
