
#######################################################################
#
#                 Cambridge Crystallographic Data Centre
#                                CCDC 
#
#######################################################################
#
# If this CIF has been generated from an entry in the Cambridge 
# Structural Database, then it will include bibliographic, chemical, 
# crystal, experimental, refinement or atomic coordinate data resulting 
# from the CCDC's data processing and validation procedures.
#
#######################################################################

data_PIVJAI
_chemical_formula_moiety         'C17 H20 F2 N3 O3 1+,C8 H4 F1 O4 1-'
_chemical_name_systematic        
'4-(3-carboxy-1-ethyl-6,8-difluoro-4-oxo-1,4-dihydroquinolin-7-yl)-2-methylpiperazin-1-ium 3-carboxy-5-fluorobenzoate'
_symmetry_cell_setting           monoclinic
_symmetry_space_group_name_H-M   'P 21/n'
_symmetry_Int_Tables_number      14
_space_group_name_Hall           '-P 2yn'
loop_
_symmetry_equiv_pos_site_id
_symmetry_equiv_pos_as_xyz
1 x,y,z
2 1/2-x,1/2+y,1/2-z
3 -x,-y,-z
4 1/2+x,1/2-y,1/2+z
_cell_length_a                   10.4324(12)
_cell_length_b                   16.5656(19)
_cell_length_c                   14.0448(17)
_cell_angle_alpha                90
_cell_angle_beta                 100.707(3)
_cell_angle_gamma                90
_cell_volume                     2384.95
_exptl_crystal_colour            colorless
_exptl_crystal_description       block
_cell_formula_units_Z            4
loop_
_atom_site_label
_atom_site_type_symbol
_atom_site_fract_x
_atom_site_fract_y
_atom_site_fract_z
C1 C 0.2703(2) 0.12846(10) 0.77391(12)
H1 H 0.1793 0.1429 0.7531
H2 H 0.3232 0.1710 0.7536
C2 C 0.21645(19) -0.01366(11) 0.75432(12)
H3 H 0.2383 -0.0636 0.7249
H4 H 0.1251 -0.0021 0.7299
C3 C 0.23908(19) -0.02326(11) 0.86352(12)
H5 H 0.1800 -0.0637 0.8804
H6 H 0.3277 -0.0416 0.8868
C4 C 0.30073(19) 0.12083(11) 0.88315(12)
H7 H 0.3925 0.1055 0.9030
C5 C 0.2784(4) 0.1988(2) 0.9320(2)
H8 H 0.2890 0.1903 1.0006
H9 H 0.1915 0.2177 0.9074
H10 H 0.3403 0.2383 0.9191
C6 C 0.32692(16) 0.05742(10) 0.63571(11)
C7 C 0.25702(16) 0.02250(11) 0.55222(12)
C8 C 0.29167(16) 0.02851(11) 0.46031(11)
C9 C 0.39760(17) 0.07840(11) 0.45220(12)
C10 C 0.46920(18) 0.11506(11) 0.53468(13)
H11 H 0.5396 0.1481 0.5295
C11 C 0.43600(17) 0.10242(11) 0.62229(12)
C12 C 0.4354(2) 0.09342(13) 0.35878(13)
C13 C 0.3573(2) 0.05467(14) 0.27828(13)
C14 C 0.2580(2) 0.00583(15) 0.29119(13)
H12 H 0.2103 -0.0191 0.2366
C15 C 0.3820(3) 0.06630(18) 0.17808(15)
C16 C 0.12118(19) -0.07161(18) 0.37829(15)
H13 H 0.0763 -0.0816 0.3124
H14 H 0.0576 -0.0514 0.4148
C17 C 0.1759(2) -0.14920(18) 0.4221(2)
H15 H 0.2399 -0.1692 0.3869
H16 H 0.1070 -0.1880 0.4192
H17 H 0.2161 -0.1403 0.4885
F1 F 0.14586(10) -0.01682(8) 0.56051(8)
F2 F 0.51182(11) 0.13417(7) 0.70199(8)
N1 N 0.21749(14) 0.05481(9) 0.91112(10)
H18 H 0.2354 0.0485 0.9751
H19 H 0.1339 0.0688 0.8945
N2 N 0.29693(15) 0.05198(8) 0.72827(10)
N3 N 0.22256(15) -0.00954(12) 0.37700(10)
O1 O 0.52996(17) 0.13801(11) 0.35126(11)
O2 O 0.4753(2) 0.11777(15) 0.16934(12)
H20 H 0.5061 0.1367 0.2226
O3 O 0.3194(2) 0.03032(14) 0.10876(11)
C19 C 0.15025(16) 0.22254(10) 0.33449(12)
C20 C 0.25938(16) 0.27147(10) 0.33760(12)
H25 H 0.2883 0.2841 0.2806
C21 C 0.32544(16) 0.30154(10) 0.42577(11)
C22 C 0.28309(17) 0.28192(11) 0.51078(12)
H26 H 0.3271 0.3008 0.5703
C23 C 0.17472(17) 0.23394(12) 0.50507(12)
C24 C 0.10696(17) 0.20350(11) 0.41930(12)
H27 H 0.0340 0.1710 0.4182
C25 C 0.07378(18) 0.18979(11) 0.24192(13)
C26 C 0.44349(18) 0.35535(11) 0.43029(12)
F3 F 0.13353(12) 0.21463(9) 0.58853(8)
O4 O -0.03217(17) 0.16034(13) 0.23770(11)
O5 O 0.13137(13) 0.19749(9) 0.16727(9)
H28 H 0.0852 0.1778 0.1192
O6 O 0.46630(13) 0.38375(9) 0.35255(9)
O7 O 0.51218(16) 0.36907(10) 0.51142(10)
H21? H 0.2728 0.1712 0.9098
C18? C 0.4401(7) 0.1112(5) 0.9223(4)
H22? H 0.4858 0.1593 0.9101
H23? H 0.4734 0.0660 0.8917
H24? H 0.4525 0.1020 0.9909
loop_
_geom_bond_atom_site_label_1
_geom_bond_atom_site_label_2
_geom_bond_site_symmetry_1
_geom_bond_site_symmetry_2
C1 H1 1_555 1_555
H2 C1 1_555 1_555
C2 H3 1_555 1_555
H4 C2 1_555 1_555
C3 C2 1_555 1_555
H5 C3 1_555 1_555
H6 C3 1_555 1_555
C4 C1 1_555 1_555
H7 C4 1_555 1_555
C5 C4 1_555 1_555
H8 C5 1_555 1_555
H9 C5 1_555 1_555
H10 C5 1_555 1_555
C6 C7 1_555 1_555
C7 C8 1_555 1_555
C8 C9 1_555 1_555
C9 C10 1_555 1_555
C10 H11 1_555 1_555
C11 C6 1_555 1_555
C12 C9 1_555 1_555
C13 C12 1_555 1_555
C14 C13 1_555 1_555
H12 C14 1_555 1_555
C15 C13 1_555 1_555
C16 H13 1_555 1_555
H14 C16 1_555 1_555
C17 C16 1_555 1_555
H15 C17 1_555 1_555
H16 C17 1_555 1_555
H17 C17 1_555 1_555
F1 C7 1_555 1_555
F2 C11 1_555 1_555
N1 C3 1_555 1_555
H18 N1 1_555 1_555
H19 N1 1_555 1_555
N2 C1 1_555 1_555
N3 C8 1_555 1_555
O1 C12 1_555 1_555
O2 C15 1_555 1_555
H20 O2 1_555 1_555
O3 C15 1_555 1_555
C19 C20 1_555 1_555
C20 H25 1_555 1_555
C21 C20 1_555 1_555
C22 C21 1_555 1_555
H26 C22 1_555 1_555
C23 C22 1_555 1_555
C24 C19 1_555 1_555
H27 C24 1_555 1_555
C25 C19 1_555 1_555
C26 C21 1_555 1_555
F3 C23 1_555 1_555
O4 C25 1_555 1_555
O5 C25 1_555 1_555
H28 O5 1_555 1_555
O6 C26 1_555 1_555
O7 C26 1_555 1_555
C2 N2 1_555 1_555
C4 N1 1_555 1_555
C6 N2 1_555 1_555
C10 C11 1_555 1_555
C14 N3 1_555 1_555
C16 N3 1_555 1_555
C23 C24 1_555 1_555

#END
