
#######################################################################
#
#                 Cambridge Crystallographic Data Centre
#                                CCDC 
#
#######################################################################
#
# If this CIF has been generated from an entry in the Cambridge 
# Structural Database, then it will include bibliographic, chemical, 
# crystal, experimental, refinement or atomic coordinate data resulting 
# from the CCDC's data processing and validation procedures.
#
#######################################################################

data_PIVKUD
_chemical_formula_moiety         'C26 H26 N2 O5'
_chemical_name_systematic        
'benzyl 3-phenyl-5-(3,4,5-trimethoxyphenyl)-4,5-dihydro-1H-pyrazole-1-carboxylate'
_symmetry_cell_setting           monoclinic
_symmetry_space_group_name_H-M   'P 21/c'
_symmetry_Int_Tables_number      14
_space_group_name_Hall           '-P 2ybc'
loop_
_symmetry_equiv_pos_site_id
_symmetry_equiv_pos_as_xyz
1 x,y,z
2 -x,1/2+y,1/2-z
3 -x,-y,-z
4 x,1/2-y,1/2+z
_cell_length_a                   9.950(3)
_cell_length_b                   20.330(6)
_cell_length_c                   12.604(5)
_cell_angle_alpha                90
_cell_angle_beta                 110.622(4)
_cell_angle_gamma                90
_cell_volume                     2386.22
_exptl_crystal_colour            colorless
_exptl_crystal_description       block
_cell_formula_units_Z            4
loop_
_atom_site_label
_atom_site_type_symbol
_atom_site_fract_x
_atom_site_fract_y
_atom_site_fract_z
C1 C 0.40608(18) 0.63947(8) 0.20574(14)
C2 C 0.4468(2) 0.60467(9) 0.11501(15)
H1 H 0.4938 0.6355 0.0795
C3 C 0.3201(2) 0.57077(10) 0.02398(15)
H2 H 0.2290 0.5849 0.0281
H3 H 0.3209 0.5795 -0.0515
C4 C 0.3474(2) 0.49923(9) 0.05416(15)
C5 C 0.2461(2) 0.44551(12) 0.00371(17)
C6 C 0.1104(3) 0.45902(17) -0.0736(2)
H4 H 0.0829 0.5024 -0.0934
C7 C 0.0163(4) 0.4086(3) -0.1211(3)
H5 H -0.0740 0.4187 -0.1732
C8 C 0.0503(6) 0.3458(3) -0.0950(4)
H6 H -0.0153 0.3125 -0.1280
C9 C 0.1856(5) 0.33087(18) -0.0176(3)
H7 H 0.2110 0.2873 0.0018
C10 C 0.2830(3) 0.38090(14) 0.0310(2)
H8 H 0.3737 0.3706 0.0822
C11 C 0.6753(2) 0.54773(9) 0.24121(15)
C12 C 0.8572(2) 0.61992(14) 0.3509(2)
H9 H 0.8991 0.6606 0.3369
H10 H 0.9199 0.5842 0.3472
C13 C 0.8499(2) 0.62221(11) 0.46761(19)
C14 C 0.9664(3) 0.60322(14) 0.5594(2)
H11 H 1.0476 0.5873 0.5475
C15 C 0.9663(4) 0.60707(18) 0.6666(3)
H12 H 1.0472 0.5944 0.7273
C16 C 0.8485(4) 0.6294(2) 0.6856(3)
H13 H 0.8479 0.6324 0.7590
C17 C 0.7307(3) 0.64754(19) 0.5955(3)
H14 H 0.6487 0.6620 0.6078
C18 C 0.7317(3) 0.64468(13) 0.4867(2)
H15 H 0.6514 0.6581 0.4261
C19 C 0.3693(2) 0.60386(9) 0.28514(14)
H16 H 0.3726 0.5581 0.2848
C20 C 0.3275(2) 0.63646(9) 0.36528(14)
C21 C 0.3248(2) 0.70467(9) 0.36688(14)
C22 C 0.3624(2) 0.74024(8) 0.28737(14)
C23 C 0.4026(2) 0.70717(9) 0.20633(15)
H17 H 0.4270 0.7308 0.1526
C24 C 0.3755(3) 0.84525(10) 0.2083(2)
H18 H 0.4697 0.8383 0.2057
H19 H 0.3635 0.8909 0.2221
H20 H 0.3047 0.8325 0.1373
C25 C 0.1503(3) 0.75911(14) 0.4189(3)
H21 H 0.1282 0.7871 0.3536
H22 H 0.1384 0.7832 0.4804
H23 H 0.0868 0.7219 0.4011
C26 C 0.2937(4) 0.53740(12) 0.4534(3)
H24 H 0.2259 0.5186 0.3858
H25 H 0.2712 0.5234 0.5179
H26 H 0.3888 0.5231 0.4617
N1 N 0.47143(16) 0.48755(7) 0.12874(12)
N2 N 0.54149(15) 0.54711(7) 0.16117(12)
O1 O 0.74562(15) 0.50060(7) 0.28449(12)
O2 O 0.71895(15) 0.61089(7) 0.26333(11)
O3 O 0.28666(18) 0.60626(7) 0.44584(12)
O4 O 0.29283(16) 0.73730(7) 0.45028(11)
O5 O 0.35859(17) 0.80675(6) 0.29707(11)
loop_
_geom_bond_atom_site_label_1
_geom_bond_atom_site_label_2
_geom_bond_site_symmetry_1
_geom_bond_site_symmetry_2
C1 C2 1_555 1_555
C2 H1 1_555 1_555
C3 C2 1_555 1_555
H2 C3 1_555 1_555
H3 C3 1_555 1_555
C4 C3 1_555 1_555
C5 C4 1_555 1_555
C6 C5 1_555 1_555
H4 C6 1_555 1_555
C7 C6 1_555 1_555
H5 C7 1_555 1_555
C8 C7 1_555 1_555
H6 C8 1_555 1_555
C9 C8 1_555 1_555
H7 C9 1_555 1_555
C10 C5 1_555 1_555
H8 C10 1_555 1_555
C11 N2 1_555 1_555
C12 H9 1_555 1_555
H10 C12 1_555 1_555
C13 C12 1_555 1_555
C14 C13 1_555 1_555
H11 C14 1_555 1_555
C15 C14 1_555 1_555
H12 C15 1_555 1_555
C16 C15 1_555 1_555
H13 C16 1_555 1_555
C17 C16 1_555 1_555
H14 C17 1_555 1_555
C18 C13 1_555 1_555
H15 C18 1_555 1_555
C19 C1 1_555 1_555
H16 C19 1_555 1_555
C20 C19 1_555 1_555
C21 C20 1_555 1_555
C22 C21 1_555 1_555
C23 C1 1_555 1_555
H17 C23 1_555 1_555
C24 H18 1_555 1_555
H19 C24 1_555 1_555
H20 C24 1_555 1_555
C25 H21 1_555 1_555
H22 C25 1_555 1_555
H23 C25 1_555 1_555
C26 H24 1_555 1_555
H25 C26 1_555 1_555
H26 C26 1_555 1_555
N1 C4 1_555 1_555
N2 C2 1_555 1_555
O1 C11 1_555 1_555
O2 C11 1_555 1_555
O3 C20 1_555 1_555
O4 C21 1_555 1_555
O5 C22 1_555 1_555
C9 C10 1_555 1_555
C12 O2 1_555 1_555
C17 C18 1_555 1_555
C22 C23 1_555 1_555
C24 O5 1_555 1_555
C25 O4 1_555 1_555
C26 O3 1_555 1_555
N1 N2 1_555 1_555

#END
