
#######################################################################
#
#                 Cambridge Crystallographic Data Centre
#                                CCDC 
#
#######################################################################
#
# If this CIF has been generated from an entry in the Cambridge 
# Structural Database, then it will include bibliographic, chemical, 
# crystal, experimental, refinement or atomic coordinate data resulting 
# from the CCDC's data processing and validation procedures.
#
#######################################################################

data_PIVPUI
_chemical_formula_moiety         'C16 H18 Br1 N1 O3'
_chemical_name_systematic        
'ethyl 1-(benzenecarbonyl)-3-(bromomethylidene)-2-methylprolinate'
_symmetry_cell_setting           orthorhombic
_symmetry_space_group_name_H-M   'P 21 21 21'
_symmetry_Int_Tables_number      19
_space_group_name_Hall           'P 2ac 2ab'
loop_
_symmetry_equiv_pos_site_id
_symmetry_equiv_pos_as_xyz
1 x,y,z
2 1/2+x,1/2-y,-z
3 -x,1/2+y,1/2-z
4 1/2-x,-y,1/2+z
_cell_length_a                   7.27280(10)
_cell_length_b                   9.2844(2)
_cell_length_c                   24.0663(4)
_cell_angle_alpha                90
_cell_angle_beta                 90
_cell_angle_gamma                90
_cell_volume                     1625.04
_exptl_crystal_colour            'metallic light colorless'
_exptl_crystal_description       irregular
_cell_formula_units_Z            4
loop_
_atom_site_label
_atom_site_type_symbol
_atom_site_fract_x
_atom_site_fract_y
_atom_site_fract_z
Br1 Br 0.45038(5) 0.12637(4) 0.260783(12)
O1 O 0.1688(2) 0.51157(17) 0.33995(6)
O2 O -0.01996(18) 0.37699(19) 0.43679(6)
O3 O 0.0327(3) 0.3088(2) 0.31024(7)
N1 N 0.2879(2) 0.37195(18) 0.43144(6)
C1 C 0.4731(3) 0.3187(2) 0.35451(8)
C2 C 0.4773(3) 0.4135(2) 0.44600(8)
H1 H 0.4794(3) 0.5038(2) 0.46628(8)
H2 H 0.5365(3) 0.3396(2) 0.46817(8)
C3 C 0.1420(2) 0.3695(3) 0.33903(8)
C4 C 0.1298(3) 0.4086(2) 0.45691(8)
C5 C 0.2424(3) 0.4477(2) 0.55537(9)
H3 H 0.3214(3) 0.3695(2) 0.55192(9)
C6 C 0.2804(3) 0.2945(2) 0.37763(8)
C7 C 0.1369(3) 0.4914(2) 0.51039(9)
C8 C 0.5533(3) 0.2599(2) 0.31075(8)
H4 H 0.6741(3) 0.2877(2) 0.30388(8)
C9 C 0.5689(3) 0.4288(2) 0.39012(9)
H5 H 0.6995(3) 0.4085(2) 0.39268(9)
H6 H 0.5520(3) 0.5250(2) 0.37533(9)
C10 C 0.0177(4) 0.6080(2) 0.51597(11)
H7 H -0.0551(4) 0.6369(2) 0.48623(11)
C11 C 0.2309(3) 0.1375(2) 0.38710(10)
H8 H 0.3241(15) 0.0925(6) 0.4094(7)
H9 H 0.1147(14) 0.1317(2) 0.4059(8)
H10 H 0.222(3) 0.0890(6) 0.35197(10)
C12 C 0.0501(4) 0.6005(3) 0.30584(11)
H11 H 0.0770(4) 0.5855(3) 0.26679(11)
H12 H -0.0778(4) 0.5763(3) 0.31242(11)
C13 C 0.2302(4) 0.5207(3) 0.60535(11)
H13 H 0.2999(4) 0.4907(3) 0.63560(11)
C14 C 0.1144(5) 0.6385(3) 0.61046(13)
H14 H 0.1087(5) 0.6889(3) 0.64382(13)
C15 C 0.0086(5) 0.6806(3) 0.56639(13)
H15 H -0.0704(5) 0.7588(3) 0.57021(13)
C16 C 0.0862(6) 0.7533(3) 0.32157(13)
H16 H 0.013(3) 0.8159(4) 0.2989(9)
H17 H 0.055(4) 0.7675(9) 0.3600(4)
H18 H 0.2140(10) 0.7749(10) 0.3160(12)
loop_
_geom_bond_atom_site_label_1
_geom_bond_atom_site_label_2
_geom_bond_site_symmetry_1
_geom_bond_site_symmetry_2
Br1 C8 1_555 1_555
O1 C3 1_555 1_555
O2 C4 1_555 1_555
O3 C3 1_555 1_555
N1 C2 1_555 1_555
C1 C6 1_555 1_555
C2 H1 1_555 1_555
H2 C2 1_555 1_555
C3 C6 1_555 1_555
C4 N1 1_555 1_555
C5 H3 1_555 1_555
C6 N1 1_555 1_555
C7 C4 1_555 1_555
C8 C1 1_555 1_555
H4 C8 1_555 1_555
C9 C1 1_555 1_555
H5 C9 1_555 1_555
H6 C9 1_555 1_555
C10 C7 1_555 1_555
H7 C10 1_555 1_555
C11 C6 1_555 1_555
H8 C11 1_555 1_555
H9 C11 1_555 1_555
H10 C11 1_555 1_555
C12 O1 1_555 1_555
H11 C12 1_555 1_555
H12 C12 1_555 1_555
C13 C5 1_555 1_555
H13 C13 1_555 1_555
C14 C13 1_555 1_555
H14 C14 1_555 1_555
C15 C10 1_555 1_555
H15 C15 1_555 1_555
C16 C12 1_555 1_555
H16 C16 1_555 1_555
H17 C16 1_555 1_555
H18 C16 1_555 1_555
C2 C9 1_555 1_555
C5 C7 1_555 1_555
C14 C15 1_555 1_555

#END
