
#######################################################################
#
#                 Cambridge Crystallographic Data Centre
#                                CCDC 
#
#######################################################################
#
# If this CIF has been generated from an entry in the Cambridge 
# Structural Database, then it will include bibliographic, chemical, 
# crystal, experimental, refinement or atomic coordinate data resulting 
# from the CCDC's data processing and validation procedures.
#
#######################################################################

data_PIVROD
_chemical_formula_moiety         'C42 H40 N6 O4'
_chemical_name_systematic        
"2,2''-diamino-3',9'-bis(diethylamino)dispiro[isoindole-1,12'-chromeno[3,2-b]xanthene-14',1''-isoindole]-3,3''(2H,2''H)-dione unknown solvate"
_symmetry_cell_setting           monoclinic
_symmetry_space_group_name_H-M   'P 21/n'
_symmetry_Int_Tables_number      14
_space_group_name_Hall           '-P 2yn'
loop_
_symmetry_equiv_pos_site_id
_symmetry_equiv_pos_as_xyz
1 x,y,z
2 1/2-x,1/2+y,1/2-z
3 -x,-y,-z
4 1/2+x,1/2-y,1/2+z
_cell_length_a                   20.534(4)
_cell_length_b                   11.363(2)
_cell_length_c                   21.140(5)
_cell_angle_alpha                90
_cell_angle_beta                 97.541(4)
_cell_angle_gamma                90
_cell_volume                     4889.89
_cell_formula_units_Z            4
loop_
_atom_site_label
_atom_site_type_symbol
_atom_site_fract_x
_atom_site_fract_y
_atom_site_fract_z
O1 O 0.1935(1) 0.3495(2) 0.3132(1)
O2 O 0.4572(1) 0.6595(3) 0.3228(2)
O3 O 0.5031(1) 0.5496(3) 0.5710(1)
O4 O 0.2280(1) 0.2687(3) 0.5317(1)
N1 N 0.1075(2) 0.5036(3) 0.1107(2)
N2 N 0.3562(2) 0.5743(3) 0.3276(2)
N3 N 0.3260(2) 0.6691(3) 0.3556(2)
H1 H 0.3479 0.7324 0.3658
H2 H 0.2858 0.6636 0.3625
N4 N 0.4573(1) 0.3174(3) 0.5396(2)
H3 H 0.4989 0.3257 0.5394
H4 H 0.4391 0.2504 0.5303
N5 N 0.4194(1) 0.4129(3) 0.5548(2)
N6 N 0.2725(2) 0.0487(4) 0.7233(2)
C1 C 0.2049(2) 0.4219(3) 0.2627(2)
C2 C 0.1524(2) 0.4285(3) 0.2140(2)
H5 H 0.1136 0.3886 0.2179
C3 C 0.1577(2) 0.4944(3) 0.1596(2)
C4 C 0.2174(2) 0.5549(3) 0.1575(2)
H6 H 0.2227 0.6009 0.1221
C5 C 0.2682(2) 0.5468(3) 0.2072(2)
H7 H 0.3068 0.5878 0.2042
C6 C 0.2636(2) 0.4793(3) 0.2618(2)
C7 C 0.3205(2) 0.4621(3) 0.3129(2)
C8 C 0.2977(2) 0.4121(3) 0.3726(2)
C9 C 0.3339(2) 0.4197(3) 0.4322(2)
H8 H 0.3749 0.4557 0.4354
C10 C 0.3132(2) 0.3770(3) 0.4874(2)
C11 C 0.3486(2) 0.4022(3) 0.5526(2)
C12 C 0.3295(2) 0.3092(3) 0.5988(2)
C13 C 0.3689(2) 0.2802(4) 0.6554(2)
H9 H 0.4092 0.3179 0.6650
C14 C 0.3505(2) 0.1970(4) 0.6979(2)
H10 H 0.3775 0.1822 0.7360
C15 C 0.2911(2) 0.1354(4) 0.6834(2)
C16 C 0.2516(2) 0.1642(4) 0.6269(2)
H11 H 0.2116 0.1262 0.6163
C17 C 0.2713(2) 0.2486(4) 0.5867(2)
C18 C 0.2530(2) 0.3174(3) 0.4805(2)
C19 C 0.2146(2) 0.3092(3) 0.4223(2)
H12 H 0.1744 0.2704 0.4189
C20 C 0.2358(2) 0.3585(3) 0.3693(2)
C21 C 0.0490(2) 0.4327(4) 0.1090(2)
H13 H 0.0609 0.3576 0.1292
H14 H 0.0319 0.4172 0.0648
C22 C -0.0052(2) 0.4879(6) 0.1418(3)
H15 H -0.0428 0.4369 0.1374
H16 H -0.0173 0.5626 0.1225
H17 H 0.0102 0.4992 0.1863
C23 C 0.1106(3) 0.5837(4) 0.0577(2)
H18 H 0.1354 0.6529 0.0732
H19 H 0.0664 0.6090 0.0416
C24 C 0.1417(3) 0.5306(6) 0.0040(3)
H20 H 0.1427 0.5879 -0.0293
H21 H 0.1166 0.4635 -0.0126
H22 H 0.1858 0.5064 0.0194
C25 C 0.3751(2) 0.3905(3) 0.2894(2)
C26 C 0.3722(2) 0.2770(4) 0.2672(2)
H23 H 0.3341 0.2323 0.2656
C27 C 0.4292(3) 0.2321(5) 0.2472(3)
H24 H 0.4297 0.1544 0.2334
C28 C 0.4847(3) 0.2993(6) 0.2474(3)
H25 H 0.5214 0.2673 0.2323
C29 C 0.4871(2) 0.4138(5) 0.2696(2)
H26 H 0.5251 0.4588 0.2710
C30 C 0.4308(2) 0.4585(4) 0.2896(2)
C31 C 0.4197(2) 0.5746(4) 0.3148(2)
C32 C 0.4445(2) 0.5210(4) 0.5699(2)
C33 C 0.3890(2) 0.5948(4) 0.5817(2)
C34 C 0.3869(3) 0.7119(5) 0.5986(2)
H27 H 0.4249 0.7571 0.6051
C35 C 0.3267(4) 0.7594(5) 0.6056(3)
H28 H 0.3241 0.8381 0.6170
C36 C 0.2689(3) 0.6916(5) 0.5957(3)
H29 H 0.2287 0.7263 0.6001
C37 C 0.2712(2) 0.5745(4) 0.5796(2)
H30 H 0.2333 0.5288 0.5738
C38 C 0.3315(2) 0.5273(4) 0.5724(2)
C39 C 0.3128(2) 0.0131(5) 0.7811(2)
H31 H 0.2849 -0.0185 0.8107
H32 H 0.3353 0.0815 0.8009
C40 C 0.3630(3) -0.0787(6) 0.7688(4)
H33 H 0.3910 -0.0955 0.8078
H34 H 0.3891 -0.0495 0.7377
H35 H 0.3409 -0.1493 0.7531
C41 C 0.2129(3) -0.0248(6) 0.7045(3)
H36 H 0.2065 -0.0362 0.6586
H37 H 0.2184 -0.1013 0.7248
C42 C 0.1577(3) 0.0337(6) 0.7239(3)
H38 H 0.1195 -0.0154 0.7149
H39 H 0.1505 0.1065 0.7010
H40 H 0.1657 0.0494 0.7688
loop_
_geom_bond_atom_site_label_1
_geom_bond_atom_site_label_2
_geom_bond_site_symmetry_1
_geom_bond_site_symmetry_2
O1 C1 1_555 1_555
O2 C31 1_555 1_555
O3 C32 1_555 1_555
O4 C17 1_555 1_555
N1 C3 1_555 1_555
N2 N3 1_555 1_555
N3 H1 1_555 1_555
H2 N3 1_555 1_555
N4 H3 1_555 1_555
H4 N4 1_555 1_555
N5 N4 1_555 1_555
N6 C15 1_555 1_555
C1 C2 1_555 1_555
C2 H5 1_555 1_555
C3 C2 1_555 1_555
C4 C3 1_555 1_555
H6 C4 1_555 1_555
C5 C4 1_555 1_555
H7 C5 1_555 1_555
C6 C1 1_555 1_555
C7 N2 1_555 1_555
C8 C7 1_555 1_555
C9 C8 1_555 1_555
H8 C9 1_555 1_555
C10 C9 1_555 1_555
C11 N5 1_555 1_555
C12 C11 1_555 1_555
C13 C12 1_555 1_555
H9 C13 1_555 1_555
C14 C13 1_555 1_555
H10 C14 1_555 1_555
C15 C14 1_555 1_555
C16 C15 1_555 1_555
H11 C16 1_555 1_555
C17 C12 1_555 1_555
C18 O4 1_555 1_555
C19 C18 1_555 1_555
H12 C19 1_555 1_555
C20 O1 1_555 1_555
C21 N1 1_555 1_555
H13 C21 1_555 1_555
H14 C21 1_555 1_555
C22 C21 1_555 1_555
H15 C22 1_555 1_555
H16 C22 1_555 1_555
H17 C22 1_555 1_555
C23 N1 1_555 1_555
H18 C23 1_555 1_555
H19 C23 1_555 1_555
C24 C23 1_555 1_555
H20 C24 1_555 1_555
H21 C24 1_555 1_555
H22 C24 1_555 1_555
C25 C7 1_555 1_555
C26 C25 1_555 1_555
H23 C26 1_555 1_555
C27 C26 1_555 1_555
H24 C27 1_555 1_555
C28 C27 1_555 1_555
H25 C28 1_555 1_555
C29 C28 1_555 1_555
H26 C29 1_555 1_555
C30 C25 1_555 1_555
C31 N2 1_555 1_555
C32 N5 1_555 1_555
C33 C32 1_555 1_555
C34 C33 1_555 1_555
H27 C34 1_555 1_555
C35 C34 1_555 1_555
H28 C35 1_555 1_555
C36 C35 1_555 1_555
H29 C36 1_555 1_555
C37 C36 1_555 1_555
H30 C37 1_555 1_555
C38 C11 1_555 1_555
C39 N6 1_555 1_555
H31 C39 1_555 1_555
H32 C39 1_555 1_555
C40 C39 1_555 1_555
H33 C40 1_555 1_555
H34 C40 1_555 1_555
H35 C40 1_555 1_555
C41 N6 1_555 1_555
H36 C41 1_555 1_555
H37 C41 1_555 1_555
C42 C41 1_555 1_555
H38 C42 1_555 1_555
H39 C42 1_555 1_555
H40 C42 1_555 1_555
C5 C6 1_555 1_555
C6 C7 1_555 1_555
C8 C20 1_555 1_555
C10 C11 1_555 1_555
C10 C18 1_555 1_555
C16 C17 1_555 1_555
C19 C20 1_555 1_555
C29 C30 1_555 1_555
C30 C31 1_555 1_555
C33 C38 1_555 1_555
C37 C38 1_555 1_555

#END
