
#######################################################################
#
#                 Cambridge Crystallographic Data Centre
#                                CCDC 
#
#######################################################################
#
# If this CIF has been generated from an entry in the Cambridge 
# Structural Database, then it will include bibliographic, chemical, 
# crystal, experimental, refinement or atomic coordinate data resulting 
# from the CCDC's data processing and validation procedures.
#
#######################################################################

data_PIVRAP
_chemical_formula_moiety         'C42 H40 N6 O4,C4 H10 O1'
_chemical_name_systematic        
"2,2''-diamino-3',9'-bis(diethylamino)dispiro[isoindole-1,12'-chromeno[3,2-b]xanthene-14',1''-isoindole]-3,3''(2H,2''H)-dione diethyl ether solvate"
_symmetry_cell_setting           triclinic
_symmetry_space_group_name_H-M   'P -1'
_symmetry_Int_Tables_number      2
_space_group_name_Hall           '-P 1'
loop_
_symmetry_equiv_pos_site_id
_symmetry_equiv_pos_as_xyz
1 x,y,z
2 -x,-y,-z
_cell_length_a                   8.9410(8)
_cell_length_b                   14.7110(13)
_cell_length_c                   17.4371(16)
_cell_angle_alpha                73.616(1)
_cell_angle_beta                 89.426(1)
_cell_angle_gamma                78.606(1)
_cell_volume                     2154.47
_exptl_crystal_colour            'light pink'
_exptl_crystal_description       plate
_cell_formula_units_Z            2
loop_
_atom_site_label
_atom_site_type_symbol
_atom_site_fract_x
_atom_site_fract_y
_atom_site_fract_z
O1 O 0.7089(3) 0.32349(16) 0.25247(15)
O2 O 0.3590(3) 0.4044(2) 0.54721(17)
O3 O 0.1839(3) 0.7354(2) 0.38781(17)
O4 O 0.5498(3) 0.64430(16) 0.09737(14)
N1 N 0.4947(3) 0.3662(2) 0.44440(16)
N2 N 0.6376(4) 0.3830(4) 0.4608(2)
N3 N 0.4584(5) 0.7380(4) 0.3001(3)
N4 N 0.3185(4) 0.7220(2) 0.27740(17)
N5 N 0.4235(4) 0.9595(2) -0.0845(2)
C1 C 0.6907(4) 0.2438(2) 0.3141(2)
C2 C 0.7926(4) 0.1592(2) 0.3156(2)
H1 H 0.8681 0.1605 0.2784
C3 C 0.7839(5) 0.0729(3) 0.3715(3)
C4 C 0.6686(6) 0.0756(3) 0.4268(3)
H2 H 0.6582 0.0190 0.4652
C5 C 0.5719(5) 0.1609(3) 0.4248(3)
H3 H 0.4979 0.1605 0.4626
C6 C 0.5791(4) 0.2482(2) 0.3687(2)
C7 C 0.4740(4) 0.3412(2) 0.36957(19)
C8 C 0.4977(4) 0.4231(2) 0.29795(19)
C9 C 0.4048(4) 0.5137(2) 0.2831(2)
H4 H 0.3300 0.5233 0.3191
C10 C 0.4165(4) 0.5907(2) 0.21817(19)
C11 C 0.3085(4) 0.6875(2) 0.2056(2)
C12 C 0.3422(4) 0.7594(2) 0.1303(2)
C13 C 0.2601(4) 0.8534(3) 0.1056(2)
H5 H 0.1852 0.8732 0.1383
C14 C 0.2831(5) 0.9189(3) 0.0357(2)
H6 H 0.2229 0.9810 0.0217
C15 C 0.3966(5) 0.8938(3) -0.0156(2)
C16 C 0.4823(4) 0.7987(3) 0.0091(2)
H7 H 0.5580 0.7784 -0.0229
C17 C 0.4553(4) 0.7352(2) 0.0804(2)
C18 C 0.5285(4) 0.5746(2) 0.1650(2)
C19 C 0.6256(4) 0.4848(2) 0.1783(2)
H8 H 0.7015 0.4751 0.1429
C20 C 0.6087(4) 0.4101(2) 0.2444(2)
N6 N 0.8810(5) -0.0129(2) 0.3727(3)
C21 C 1.0094(6) -0.0158(3) 0.3212(3)
H9 H 1.0356 -0.0796 0.3132
H10 H 0.9788 0.0306 0.2694
C22 C 1.1430(9) 0.0052(6) 0.3526(7)
H11 H 1.2264 -0.0041 0.3187
H12 H 1.1698 -0.0373 0.4056
H13 H 1.1219 0.0711 0.3545
C23 C 0.8497(8) -0.1070(4) 0.4234(4)
H14 H 0.8263 -0.1022 0.4767
H15 H 0.9400 -0.1575 0.4280
C24 C 0.7125(9) -0.1343(4) 0.3861(4)
H16 H 0.6995 -0.1973 0.4170
H17 H 0.7329 -0.1349 0.3320
H18 H 0.6211 -0.0876 0.3863
C25 C 0.3050(4) 0.3353(2) 0.3737(2)
C26 C 0.2159(5) 0.3118(3) 0.3205(3)
H19 H 0.2580 0.2922 0.2774
C27 C 0.0639(6) 0.3185(4) 0.3338(4)
H20 H 0.0014 0.3033 0.2989
C28 C 0.0019(6) 0.3470(5) 0.3968(4)
H21 H -0.1025 0.3517 0.4033
C29 C 0.0878(5) 0.3688(4) 0.4512(3)
H22 H 0.0445 0.3874 0.4946
C30 C 0.2444(4) 0.3619(3) 0.4383(2)
C31 C 0.3654(4) 0.3809(2) 0.4846(2)
C32 C 0.1926(5) 0.7175(3) 0.3230(2)
C33 C 0.0804(4) 0.6889(2) 0.2785(2)
C34 C -0.0663(5) 0.6743(3) 0.2972(3)
H23 H -0.1080 0.6820 0.3446
C35 C -0.1482(6) 0.6478(4) 0.2428(4)
H24 H -0.2465 0.6375 0.2538
C36 C -0.0861(5) 0.6369(4) 0.1732(3)
H25 H -0.1439 0.6209 0.1367
C37 C 0.0616(5) 0.6491(3) 0.1562(3)
H26 H 0.1041 0.6397 0.1094
C38 C 0.1437(4) 0.6750(2) 0.2092(2)
C39 C 0.3325(6) 1.0602(3) -0.1087(3)
H27 H 0.3184 1.0839 -0.0621
H28 H 0.3886 1.1014 -0.1465
C40 C 0.1824(7) 1.0665(5) -0.1455(4)
H29 H 0.1292 1.1328 -0.1620
H30 H 0.1242 1.0287 -0.1073
H31 H 0.1957 1.0421 -0.1913
C41 C 0.5431(6) 0.9329(4) -0.1367(3)
H32 H 0.5767 0.9907 -0.1673
H33 H 0.6300 0.8899 -0.1040
C42 C 0.4936(9) 0.8863(5) -0.1909(4)
H34 H 0.5760 0.8707 -0.2236
H35 H 0.4089 0.9289 -0.2243
H36 H 0.4627 0.8280 -0.1610
H37 H 0.677(6) 0.347(4) 0.503(3)
H38 H 0.622(6) 0.445(4) 0.464(3)
H39 H 0.506(7) 0.685(5) 0.345(4)
H40 H 0.437(6) 0.794(4) 0.310(3)
O5 O 0.1398(10) 0.3085(6) 0.0838(5)
C43 C 0.1444(13) 0.4016(8) 0.0884(7)
H41 H 0.1116 0.4069 0.1404
H42 H 0.0726 0.4486 0.0482
C44 C 0.2938(13) 0.4251(7) 0.0766(7)
H43 H 0.2833 0.4929 0.0502
H44 H 0.3502 0.3883 0.0444
H45 H 0.3473 0.4096 0.1276
C45 C -0.0186(14) 0.2981(10) 0.0888(9)
H46 H -0.0826 0.3470 0.0462
H47 H -0.0580 0.3022 0.1400
C46 C -0.0090(13) 0.2001(8) 0.0797(7)
H48 H -0.1101 0.1885 0.0753
H49 H 0.0457 0.1527 0.1255
H50 H 0.0438 0.1954 0.0323
loop_
_geom_bond_atom_site_label_1
_geom_bond_atom_site_label_2
_geom_bond_site_symmetry_1
_geom_bond_site_symmetry_2
O1 C1 1_555 1_555
O2 C31 1_555 1_555
O3 C32 1_555 1_555
O4 C17 1_555 1_555
N1 N2 1_555 1_555
N2 H37 1_555 1_555
N3 N4 1_555 1_555
N4 C11 1_555 1_555
N5 C15 1_555 1_555
C1 C2 1_555 1_555
C2 H1 1_555 1_555
C3 C2 1_555 1_555
C4 C3 1_555 1_555
H2 C4 1_555 1_555
C5 C4 1_555 1_555
H3 C5 1_555 1_555
C6 C1 1_555 1_555
C7 N1 1_555 1_555
C8 C7 1_555 1_555
C9 C8 1_555 1_555
H4 C9 1_555 1_555
C10 C9 1_555 1_555
C11 C10 1_555 1_555
C12 C11 1_555 1_555
C13 C12 1_555 1_555
H5 C13 1_555 1_555
C14 C13 1_555 1_555
H6 C14 1_555 1_555
C15 C14 1_555 1_555
C16 C15 1_555 1_555
H7 C16 1_555 1_555
C17 C12 1_555 1_555
C18 O4 1_555 1_555
C19 C18 1_555 1_555
H8 C19 1_555 1_555
C20 O1 1_555 1_555
N6 C3 1_555 1_555
C21 N6 1_555 1_555
H9 C21 1_555 1_555
H10 C21 1_555 1_555
C22 C21 1_555 1_555
H11 C22 1_555 1_555
H12 C22 1_555 1_555
H13 C22 1_555 1_555
C23 N6 1_555 1_555
H14 C23 1_555 1_555
H15 C23 1_555 1_555
C24 C23 1_555 1_555
H16 C24 1_555 1_555
H17 C24 1_555 1_555
H18 C24 1_555 1_555
C25 C7 1_555 1_555
C26 C25 1_555 1_555
H19 C26 1_555 1_555
C27 C26 1_555 1_555
H20 C27 1_555 1_555
C28 C27 1_555 1_555
H21 C28 1_555 1_555
C29 C28 1_555 1_555
H22 C29 1_555 1_555
C30 C25 1_555 1_555
C31 N1 1_555 1_555
C32 N4 1_555 1_555
C33 C32 1_555 1_555
C34 C33 1_555 1_555
H23 C34 1_555 1_555
C35 C34 1_555 1_555
H24 C35 1_555 1_555
C36 C35 1_555 1_555
H25 C36 1_555 1_555
C37 C36 1_555 1_555
H26 C37 1_555 1_555
C38 C11 1_555 1_555
C39 N5 1_555 1_555
H27 C39 1_555 1_555
H28 C39 1_555 1_555
C40 C39 1_555 1_555
H29 C40 1_555 1_555
H30 C40 1_555 1_555
H31 C40 1_555 1_555
C41 N5 1_555 1_555
H32 C41 1_555 1_555
H33 C41 1_555 1_555
C42 C41 1_555 1_555
H34 C42 1_555 1_555
H35 C42 1_555 1_555
H36 C42 1_555 1_555
H38 N2 1_555 1_555
H39 N3 1_555 1_555
H40 N3 1_555 1_555
O5 C43 1_555 1_555
C43 H41 1_555 1_555
H42 C43 1_555 1_555
C44 C43 1_555 1_555
H43 C44 1_555 1_555
H44 C44 1_555 1_555
H45 C44 1_555 1_555
C45 O5 1_555 1_555
H46 C45 1_555 1_555
H47 C45 1_555 1_555
C46 C45 1_555 1_555
H48 C46 1_555 1_555
H49 C46 1_555 1_555
H50 C46 1_555 1_555
C5 C6 1_555 1_555
C6 C7 1_555 1_555
C8 C20 1_555 1_555
C10 C18 1_555 1_555
C16 C17 1_555 1_555
C19 C20 1_555 1_555
C29 C30 1_555 1_555
C30 C31 1_555 1_555
C33 C38 1_555 1_555
C37 C38 1_555 1_555

#END
