
#######################################################################
#
#                 Cambridge Crystallographic Data Centre
#                                CCDC 
#
#######################################################################
#
# If this CIF has been generated from an entry in the Cambridge 
# Structural Database, then it will include bibliographic, chemical, 
# crystal, experimental, refinement or atomic coordinate data resulting 
# from the CCDC's data processing and validation procedures.
#
#######################################################################

data_PIVZUQ
_chemical_formula_moiety         'C20 H19 N1 O4'
_chemical_name_systematic        
13-Acetoxy-8-methoxy-6,11,12,13-tetrahydrodibenzo(b,g)oxonin-12-carbonitrile
_symmetry_cell_setting           monoclinic
_symmetry_space_group_name_H-M   'P 21/n'
_symmetry_Int_Tables_number      14
_space_group_name_Hall           '-P 2yn'
loop_
_symmetry_equiv_pos_site_id
_symmetry_equiv_pos_as_xyz
1 x,y,z
2 1/2-x,1/2+y,1/2-z
3 -x,-y,-z
4 1/2+x,1/2-y,1/2+z
_cell_length_a                   8.186(5)
_cell_length_b                   7.703(5)
_cell_length_c                   26.301(5)
_cell_angle_alpha                90
_cell_angle_beta                 98.586(5)
_cell_angle_gamma                90
_cell_volume                     1639.87
_exptl_crystal_colour            colorless
_exptl_crystal_description       plate
_chemical_melting_point          '216 deg.C'
_cell_formula_units_Z            4
loop_
_atom_site_label
_atom_site_type_symbol
_atom_site_fract_x
_atom_site_fract_y
_atom_site_fract_z
O1 O 0.36377(16) 0.27821(19) 0.37084(4)
O2 O 0.46197(16) 0.62215(17) 0.08904(5)
O3 O 0.60514(16) 0.80883(17) 0.14447(5)
O4 O 0.72017(15) 0.31066(17) 0.19913(4)
C1 C 0.6829(2) 0.3741(3) 0.06123(7)
H1 H 0.6197 0.4387 0.0356
C2 C 0.8100(2) 0.2724(3) 0.04902(7)
H2 H 0.8346 0.2719 0.0156
C3 C 0.9011(2) 0.1707(3) 0.08653(7)
H3 H 0.9835 0.0981 0.0779
C4 C 0.8698(2) 0.1769(3) 0.13681(7)
H4 H 0.9309 0.1091 0.1621
C5 C 0.7463(2) 0.2853(3) 0.14905(7)
C6 C 0.6751(2) 0.1611(3) 0.22790(7)
H5 H 0.7608 0.1371 0.2567
H6 H 0.6611 0.0593 0.2059
C7 C 0.5154(2) 0.2048(2) 0.24685(7)
C8 C 0.5159(2) 0.2173(3) 0.29972(7)
H7 H 0.6124 0.1938 0.3221
C9 C 0.3743(2) 0.2643(3) 0.31923(7)
C10 C 0.2309(2) 0.3026(3) 0.28554(7)
H8 H 0.1357 0.3365 0.2982
C11 C 0.2309(2) 0.2899(3) 0.23344(7)
H9 H 0.1347 0.3160 0.2112
C12 C 0.3707(2) 0.2390(2) 0.21290(7)
C13 C 0.3576(2) 0.2080(3) 0.15550(6)
H10 H 0.2620 0.1351 0.1447
H11 H 0.4545 0.1440 0.1491
C14 C 0.3423(2) 0.3735(3) 0.12159(7)
H12 H 0.2571 0.4476 0.1328
C15 C 0.5028(2) 0.4811(2) 0.12533(7)
H13 H 0.5308 0.5282 0.1602
C16 C 0.6478(2) 0.3813(3) 0.11126(7)
C17 C 0.4998(2) 0.2124(3) 0.40579(7)
H14 H 0.5196 0.0937 0.3974
H15 H 0.4747 0.2188 0.4402
H16 H 0.5965 0.2803 0.4032
C18 C 0.2868(2) 0.3259(3) 0.06752(8)
C19 C 0.5277(2) 0.7796(3) 0.10296(7)
C20 C 0.4894(3) 0.9052(3) 0.05972(7)
H17 H 0.5458 1.0127 0.0687
H18 H 0.3724 0.9256 0.0532
H19 H 0.5252 0.8582 0.0294
N1 N 0.2448(2) 0.2853(2) 0.02578(6)
loop_
_geom_bond_atom_site_label_1
_geom_bond_atom_site_label_2
_geom_bond_site_symmetry_1
_geom_bond_site_symmetry_2
O1 C9 1_555 1_555
O2 C15 1_555 1_555
O3 C19 1_555 1_555
O4 C5 1_555 1_555
C1 H1 1_555 1_555
C2 C1 1_555 1_555
H2 C2 1_555 1_555
C3 C2 1_555 1_555
H3 C3 1_555 1_555
C4 C3 1_555 1_555
H4 C4 1_555 1_555
C5 C4 1_555 1_555
C6 O4 1_555 1_555
H5 C6 1_555 1_555
H6 C6 1_555 1_555
C7 C6 1_555 1_555
C8 C7 1_555 1_555
H7 C8 1_555 1_555
C9 C8 1_555 1_555
C10 C9 1_555 1_555
H8 C10 1_555 1_555
C11 C10 1_555 1_555
H9 C11 1_555 1_555
C12 C7 1_555 1_555
C13 C12 1_555 1_555
H10 C13 1_555 1_555
H11 C13 1_555 1_555
C14 C13 1_555 1_555
H12 C14 1_555 1_555
C15 C14 1_555 1_555
H13 C15 1_555 1_555
C16 C1 1_555 1_555
C17 O1 1_555 1_555
H14 C17 1_555 1_555
H15 C17 1_555 1_555
H16 C17 1_555 1_555
C18 C14 1_555 1_555
C19 O2 1_555 1_555
C20 C19 1_555 1_555
H17 C20 1_555 1_555
H18 C20 1_555 1_555
H19 C20 1_555 1_555
N1 C18 1_555 1_555
C5 C16 1_555 1_555
C11 C12 1_555 1_555
C15 C16 1_555 1_555

#END
