
#######################################################################
#
#                 Cambridge Crystallographic Data Centre
#                                CCDC 
#
#######################################################################
#
# If this CIF has been generated from an entry in the Cambridge 
# Structural Database, then it will include bibliographic, chemical, 
# crystal, experimental, refinement or atomic coordinate data resulting 
# from the CCDC's data processing and validation procedures.
#
#######################################################################

data_PIVZID
_chemical_formula_moiety         'C11 H16 O3 S1'
_chemical_name_systematic        
'Methyl cis-3-hydroxy-4a,5,6,7,8,8a-hexahydro-4H-thiochromene-2-carboxylate'
_symmetry_cell_setting           orthorhombic
_symmetry_space_group_name_H-M   'P c a 21'
_symmetry_Int_Tables_number      29
_space_group_name_Hall           'P 2c -2ac'
loop_
_symmetry_equiv_pos_site_id
_symmetry_equiv_pos_as_xyz
1 x,y,z
2 1/2-x,y,1/2+z
3 1/2+x,-y,z
4 -x,-y,1/2+z
_cell_length_a                   11.942(9)
_cell_length_b                   5.399(1)
_cell_length_c                   17.503(6)
_cell_angle_alpha                90
_cell_angle_beta                 90
_cell_angle_gamma                90
_cell_volume                     1128.5
_exptl_crystal_colour            colorless
_chemical_melting_point          '70-71 deg.C'
_cell_formula_units_Z            4
loop_
_atom_site_label
_atom_site_type_symbol
_atom_site_fract_x
_atom_site_fract_y
_atom_site_fract_z
S1 S 0.8366(1) 0.2843(3) 0.3525(3)
O1 O 0.7488(4) 0.5029(9) 0.4849(3)
O2 O 0.8237(5) 0.268(1) 0.5761(3)
O3 O 0.9669(5) -0.059(1) 0.5357(3)
C1 C 0.8699(5) 0.191(1) 0.4466(4)
C2 C 0.9458(5) 0.011(1) 0.4643(4)
C3 C 1.0130(6) -0.130(1) 0.4085(5)
C4 C 1.0216(5) -0.016(1) 0.3306(5)
C5 C 1.1027(5) 0.204(1) 0.3226(5)
C6 C 1.1125(7) 0.288(2) 0.2414(6)
C7 C 1.0033(7) 0.352(2) 0.2062(5)
C8 C 0.9143(6) 0.140(2) 0.2161(5)
C9 C 0.9069(5) 0.045(1) 0.2969(4)
C10 C 0.8136(5) 0.317(1) 0.5095(4)
C11 C 0.6861(8) 0.638(2) 0.5427(6)
loop_
_geom_bond_atom_site_label_1
_geom_bond_atom_site_label_2
_geom_bond_site_symmetry_1
_geom_bond_site_symmetry_2
S1 C1 1_555 1_555
O1 C10 1_555 1_555
O2 C10 1_555 1_555
O3 C2 1_555 1_555
C1 C2 1_555 1_555
C2 C3 1_555 1_555
C3 C4 1_555 1_555
C4 C5 1_555 1_555
C5 C6 1_555 1_555
C6 C7 1_555 1_555
C7 C8 1_555 1_555
C8 C9 1_555 1_555
C9 S1 1_555 1_555
C10 C1 1_555 1_555
C11 O1 1_555 1_555
C4 C9 1_555 1_555

#END
