
#######################################################################
#
#                 Cambridge Crystallographic Data Centre
#                                CCDC 
#
#######################################################################
#
# If this CIF has been generated from an entry in the Cambridge 
# Structural Database, then it will include bibliographic, chemical, 
# crystal, experimental, refinement or atomic coordinate data resulting 
# from the CCDC's data processing and validation procedures.
#
#######################################################################

data_PIWBIH
_chemical_compound_source        'Rhizoma Alismatis'
_chemical_formula_moiety         'C32 H52 O6'
_chemical_name_systematic        'Alisol A 24-acetate'
_chemical_properties_biological  
'parent plant is used as a diuretic, hypolipidemic, anti-inflammatory and for antidiabetic purposes'
_symmetry_cell_setting           monoclinic
_symmetry_space_group_name_H-M   'C 2'
_symmetry_Int_Tables_number      5
_space_group_name_Hall           'C 2y'
loop_
_symmetry_equiv_pos_site_id
_symmetry_equiv_pos_as_xyz
1 x,y,z
2 -x,y,-z
3 1/2+x,1/2+y,z
4 1/2-x,1/2+y,-z
_cell_length_a                   34.329(2)
_cell_length_b                   7.550(1)
_cell_length_c                   27.653(2)
_cell_angle_alpha                90
_cell_angle_beta                 120.21(3)
_cell_angle_gamma                90
_cell_volume                     6193.81
_exptl_crystal_colour            colorless
_exptl_crystal_description       prism
_cell_formula_units_Z            8
_exptl_crystal_recrystallization_method 'ethyl acetate'
loop_
_atom_site_label
_atom_site_type_symbol
_atom_site_fract_x
_atom_site_fract_y
_atom_site_fract_z
O1 O 0.3324(4) -0.311(2) 0.0757(5)
O2 O 0.1421(3) -0.075(2) 0.0035(4)
H1 H 0.1144 -0.0742 -0.0149
O3 O 0.0075(4) 0.0819(13) 0.0528(4)
H2 H -0.0109 0.0071 0.0497
O4 O -0.0540(2) 0.2551(10) 0.0816(3)
O5 O -0.0471(4) 0.4520(14) 0.1458(5)
O6 O -0.0474(2) -0.1161(11) 0.0744(3)
H3 H -0.0358 -0.0827 0.0564
C1 C 0.2443(5) -0.011(3) 0.0503(6)
H7 H 0.2204 -0.0416 0.0131
H8 H 0.2428 0.1159 0.0550
C2 C 0.2879(6) -0.053(3) 0.0549(7)
H9 H 0.3062 0.0537 0.0673
H10 H 0.2823 -0.0791 0.0176
C3 C 0.3152(4) -0.199(3) 0.0920(6)
C4 C 0.3226(4) -0.202(2) 0.1500(5)
C5 C 0.2821(3) -0.0993(17) 0.1496(4)
H11 H 0.2907 0.0260 0.1540
C6 C 0.2744(4) -0.141(2) 0.1990(5)
H12 H 0.2556 -0.2452 0.1907
H13 H 0.3030 -0.1633 0.2328
C7 C 0.2526(4) 0.011(2) 0.2066(4)
H14 H 0.2752 0.1023 0.2252
H15 H 0.2419 -0.0230 0.2318
C8 C 0.2122(3) 0.0926(15) 0.1529(4)
C9 C 0.1983(3) -0.0358(15) 0.1035(3)
H16 H 0.1861 -0.1397 0.1126
C10 C 0.2361(4) -0.1095(14) 0.0943(4)
C11 C 0.1569(4) 0.0439(19) 0.0489(4)
H17 H 0.1664 0.1545 0.0393
C12 C 0.1176(4) 0.0822(16) 0.0565(3)
H18 H 0.1036 -0.0290 0.0569
H19 H 0.0955 0.1502 0.0247
C13 C 0.1296(3) 0.1828(15) 0.1094(3)
C14 C 0.1698(3) 0.1131(18) 0.1629(3)
C15 C 0.1775(4) 0.258(3) 0.2048(6)
H20 H 0.2031 0.3308 0.2116
H21 H 0.1834 0.2071 0.2401
C16 C 0.1340(5) 0.370(2) 0.1789(5)
H22 H 0.1169 0.3458 0.1973
H23 H 0.1412 0.4958 0.1826
C17 C 0.1072(4) 0.317(2) 0.1170(6)
C18 C 0.1554(4) -0.072(3) 0.1749(6)
H24 H 0.1800 -0.1213 0.2084
H25 H 0.1477 -0.1499 0.1440
H26 H 0.1298 -0.0569 0.1797
C19 C 0.2246(4) -0.311(2) 0.0781(6)
H27 H 0.1964 -0.3198 0.0437
H28 H 0.2225 -0.3714 0.1072
H29 H 0.2480 -0.3637 0.0735
C20 C 0.0649(4) 0.4027(15) 0.0763(5)
H30 H 0.0546 0.3460 0.0399
C21 C 0.0692(6) 0.600(2) 0.0691(7)
H31 H 0.0925 0.6195 0.0601
H32 H 0.0768 0.6604 0.1032
H33 H 0.0411 0.6445 0.0393
C22 C 0.0282(4) 0.3751(16) 0.0917(5)
H34 H 0.0366 0.4393 0.1260
H35 H 0.0002 0.4253 0.0624
C23 C 0.0203(3) 0.1801(15) 0.0999(4)
H36 H 0.0492 0.1324 0.1291
C24 C -0.0143(3) 0.1579(14) 0.1213(4)
H37 H -0.0017 0.2153 0.1579
C25 C -0.0264(3) -0.0318(15) 0.1266(4)
C26 C 0.0163(4) -0.1427(18) 0.1646(5)
H38 H 0.0076 -0.2620 0.1668
H39 H 0.0318 -0.0917 0.2013
H40 H 0.0358 -0.1430 0.1490
C27 C -0.0586(4) -0.0358(19) 0.1478(5)
H41 H -0.0664 -0.1563 0.1500
H42 H -0.0852 0.0291 0.1227
H43 H -0.0447 0.0171 0.1843
C28 C 0.3671(5) -0.105(4) 0.1864(6)
H44 H 0.3912 -0.1682 0.1860
H45 H 0.3728 -0.0978 0.2241
H46 H 0.3652 0.0126 0.1721
C29 C 0.3262(6) -0.397(3) 0.1673(9)
H47 H 0.3501 -0.4529 0.1644
H48 H 0.2983 -0.4564 0.1431
H49 H 0.3326 -0.4044 0.2052
C30 C 0.2249(5) 0.2709(17) 0.1408(6)
H50 H 0.2494 0.2574 0.1336
H51 H 0.2340 0.3474 0.1724
H52 H 0.1994 0.3215 0.1085
C31 C -0.0658(3) 0.4003(15) 0.0995(5)
C32 C -0.1035(5) 0.490(2) 0.0540(7)
H53 H -0.1147 0.5787 0.0687
H54 H -0.1269 0.4056 0.0326
H55 H -0.0939 0.5447 0.0304
O7 O 0.2745(3) 0.8125(17) 0.4323(4)
O8 O 0.1324(5) 0.609(2) 0.4886(4)
H4 H 0.1186 0.6065 0.5056
O9 O -0.0313(3) 0.4413(14) 0.4465(4)
H5 H -0.0449 0.5175 0.4533
O10 O -0.1168(3) 0.2766(11) 0.4232(3)
O11 O -0.1651(3) 0.0871(17) 0.3585(5)
O12 O -0.1014(3) 0.6452(11) 0.4340(3)
H6 H -0.0758 0.6043 0.4493
C33 C 0.1992(6) 0.527(3) 0.4484(5)
H56 H 0.2043 0.5612 0.4850
H57 H 0.1921 0.4021 0.4434
C34 C 0.2415(5) 0.558(3) 0.4465(7)
H58 H 0.2663 0.5723 0.4846
H59 H 0.2476 0.4535 0.4311
C35 C 0.2409(5) 0.711(2) 0.4142(5)
C36 C 0.2008(4) 0.721(2) 0.3519(5)
C37 C 0.1620(3) 0.6188(16) 0.3488(3)
H60 H 0.1679 0.4939 0.3453
C38 C 0.1159(4) 0.659(2) 0.2990(4)
H61 H 0.1036 0.7645 0.3065
H62 H 0.1185 0.6815 0.2662
C39 C 0.0851(4) 0.504(2) 0.2885(4)
H63 H 0.0933 0.4097 0.2713
H64 H 0.0545 0.5394 0.2618
C40 C 0.0861(3) 0.4297(15) 0.3407(4)
C41 C 0.1121(4) 0.5590(16) 0.3925(4)
H65 H 0.0926 0.6635 0.3832
C42 C 0.1585(4) 0.6321(15) 0.4032(4)
C43 C 0.1141(5) 0.481(2) 0.4448(4)
H66 H 0.1319 0.3714 0.4565
C44 C 0.0638(5) 0.447(2) 0.4345(5)
H67 H 0.0657 0.3800 0.4656
H68 H 0.0496 0.5597 0.4327
C45 C 0.0357(3) 0.3460(14) 0.3807(4)
C46 C 0.0357(4) 0.4078(18) 0.3290(4)
C47 C 0.0094(5) 0.258(3) 0.2868(5)
H69 H -0.0120 0.3074 0.2505
H70 H 0.0299 0.1807 0.2823
C48 C -0.0146(4) 0.159(3) 0.3115(5)
H71 H -0.0461 0.1927 0.2932
H72 H -0.0126 0.0323 0.3077
C49 C 0.0097(3) 0.2127(15) 0.3727(5)
C50 C 0.0076(6) 0.577(3) 0.3101(6)
H73 H 0.0086 0.6265 0.2788
H74 H 0.0195 0.6603 0.3403
H75 H -0.0231 0.5492 0.2992
C51 C 0.1627(5) 0.8215(19) 0.4234(6)
H76 H 0.1376 0.8894 0.3961
H77 H 0.1903 0.8718 0.4287
H78 H 0.1629 0.8231 0.4582
C52 C 0.0006(4) 0.1231(16) 0.4158(5)
H79 H 0.0205 0.1788 0.4521
C53 C 0.0091(6) -0.0671(18) 0.4226(7)
H80 H 0.0016 -0.1119 0.4494
H81 H 0.0403 -0.0895 0.4356
H82 H -0.0091 -0.1252 0.3873
C54 C -0.0480(4) 0.1559(17) 0.4016(5)
H83 H -0.0680 0.0948 0.3669
H84 H -0.0521 0.1025 0.4307
C55 C -0.0627(3) 0.3476(14) 0.3954(4)
H85 H -0.0601 0.3989 0.3646
C56 C -0.1111(3) 0.3727(13) 0.3821(3)
H86 H -0.1308 0.3177 0.3457
C57 C -0.1278(3) 0.5664(17) 0.3794(4)
C58 C -0.1765(4) 0.571(2) 0.3634(4)
H87 H -0.1860 0.6917 0.3615
H88 H -0.1804 0.5084 0.3910
H89 H -0.1944 0.5155 0.3276
C59 C -0.1175(5) 0.668(2) 0.3400(6)
H90 H -0.1276 0.7879 0.3370
H91 H -0.1327 0.6130 0.3037
H92 H -0.0855 0.6665 0.3542
C60 C 0.2177(4) 0.624(3) 0.3154(6)
H93 H 0.2215 0.5001 0.3241
H94 H 0.2461 0.6738 0.3232
H95 H 0.1960 0.6398 0.2764
C61 C 0.1931(5) 0.915(2) 0.3337(6)
H96 H 0.1682 0.9231 0.2961
H97 H 0.2198 0.9611 0.3353
H98 H 0.1865 0.9815 0.3583
C62 C 0.1092(5) 0.2459(18) 0.3564(6)
H99 H 0.0928 0.1649 0.3260
H100 H 0.1096 0.2023 0.3893
H101 H 0.1396 0.2566 0.3637
C63 C -0.1441(3) 0.1281(16) 0.4067(5)
C64 C -0.1400(5) 0.050(3) 0.4594(9)
H102 H -0.1572 -0.0571 0.4504
H103 H -0.1512 0.1335 0.4757
H104 H -0.1089 0.0250 0.4855
loop_
_geom_bond_atom_site_label_1
_geom_bond_atom_site_label_2
_geom_bond_site_symmetry_1
_geom_bond_site_symmetry_2
O1 C3 1_555 1_555
O2 H1 1_555 1_555
O3 H2 1_555 1_555
O4 C24 1_555 1_555
O5 C31 1_555 1_555
O6 H3 1_555 1_555
O7 C35 1_555 1_555
O8 H4 1_555 1_555
O9 H5 1_555 1_555
O10 C56 1_555 1_555
O11 C63 1_555 1_555
O12 H6 1_555 1_555
C1 H7 1_555 1_555
H8 C1 1_555 1_555
C2 C1 1_555 1_555
H9 C2 1_555 1_555
H10 C2 1_555 1_555
C3 C2 1_555 1_555
C4 C3 1_555 1_555
C5 C4 1_555 1_555
H11 C5 1_555 1_555
C6 C5 1_555 1_555
H12 C6 1_555 1_555
H13 C6 1_555 1_555
C7 C6 1_555 1_555
H14 C7 1_555 1_555
H15 C7 1_555 1_555
C8 C7 1_555 1_555
C9 C8 1_555 1_555
H16 C9 1_555 1_555
C10 C1 1_555 1_555
C11 O2 1_555 1_555
H17 C11 1_555 1_555
C12 C11 1_555 1_555
H18 C12 1_555 1_555
H19 C12 1_555 1_555
C13 C12 1_555 1_555
C14 C8 1_555 1_555
C15 C14 1_555 1_555
H20 C15 1_555 1_555
H21 C15 1_555 1_555
C16 C15 1_555 1_555
H22 C16 1_555 1_555
H23 C16 1_555 1_555
C17 C13 1_555 1_555
C18 C14 1_555 1_555
H24 C18 1_555 1_555
H25 C18 1_555 1_555
H26 C18 1_555 1_555
C19 C10 1_555 1_555
H27 C19 1_555 1_555
H28 C19 1_555 1_555
H29 C19 1_555 1_555
C20 C17 1_555 1_555
H30 C20 1_555 1_555
C21 C20 1_555 1_555
H31 C21 1_555 1_555
H32 C21 1_555 1_555
H33 C21 1_555 1_555
C22 C20 1_555 1_555
H34 C22 1_555 1_555
H35 C22 1_555 1_555
C23 O3 1_555 1_555
H36 C23 1_555 1_555
C24 C23 1_555 1_555
H37 C24 1_555 1_555
C25 O6 1_555 1_555
C26 C25 1_555 1_555
H38 C26 1_555 1_555
H39 C26 1_555 1_555
H40 C26 1_555 1_555
C27 C25 1_555 1_555
H41 C27 1_555 1_555
H42 C27 1_555 1_555
H43 C27 1_555 1_555
C28 C4 1_555 1_555
H44 C28 1_555 1_555
H45 C28 1_555 1_555
H46 C28 1_555 1_555
C29 C4 1_555 1_555
H47 C29 1_555 1_555
H48 C29 1_555 1_555
H49 C29 1_555 1_555
C30 C8 1_555 1_555
H50 C30 1_555 1_555
H51 C30 1_555 1_555
H52 C30 1_555 1_555
C31 O4 1_555 1_555
C32 C31 1_555 1_555
H53 C32 1_555 1_555
H54 C32 1_555 1_555
H55 C32 1_555 1_555
C33 H56 1_555 1_555
H57 C33 1_555 1_555
C34 C33 1_555 1_555
H58 C34 1_555 1_555
H59 C34 1_555 1_555
C35 C34 1_555 1_555
C36 C35 1_555 1_555
C37 C36 1_555 1_555
H60 C37 1_555 1_555
C38 C37 1_555 1_555
H61 C38 1_555 1_555
H62 C38 1_555 1_555
C39 C38 1_555 1_555
H63 C39 1_555 1_555
H64 C39 1_555 1_555
C40 C39 1_555 1_555
C41 C40 1_555 1_555
H65 C41 1_555 1_555
C42 C33 1_555 1_555
C43 O8 1_555 1_555
H66 C43 1_555 1_555
C44 C43 1_555 1_555
H67 C44 1_555 1_555
H68 C44 1_555 1_555
C45 C44 1_555 1_555
C46 C40 1_555 1_555
C47 C46 1_555 1_555
H69 C47 1_555 1_555
H70 C47 1_555 1_555
C48 C47 1_555 1_555
H71 C48 1_555 1_555
H72 C48 1_555 1_555
C49 C45 1_555 1_555
C50 C46 1_555 1_555
H73 C50 1_555 1_555
H74 C50 1_555 1_555
H75 C50 1_555 1_555
C51 C42 1_555 1_555
H76 C51 1_555 1_555
H77 C51 1_555 1_555
H78 C51 1_555 1_555
C52 C49 1_555 1_555
H79 C52 1_555 1_555
C53 C52 1_555 1_555
H80 C53 1_555 1_555
H81 C53 1_555 1_555
H82 C53 1_555 1_555
C54 C52 1_555 1_555
H83 C54 1_555 1_555
H84 C54 1_555 1_555
C55 O9 1_555 1_555
H85 C55 1_555 1_555
C56 C55 1_555 1_555
H86 C56 1_555 1_555
C57 O12 1_555 1_555
C58 C57 1_555 1_555
H87 C58 1_555 1_555
H88 C58 1_555 1_555
H89 C58 1_555 1_555
C59 C57 1_555 1_555
H90 C59 1_555 1_555
H91 C59 1_555 1_555
H92 C59 1_555 1_555
C60 C36 1_555 1_555
H93 C60 1_555 1_555
H94 C60 1_555 1_555
H95 C60 1_555 1_555
C61 C36 1_555 1_555
H96 C61 1_555 1_555
H97 C61 1_555 1_555
H98 C61 1_555 1_555
C62 C40 1_555 1_555
H99 C62 1_555 1_555
H100 C62 1_555 1_555
H101 C62 1_555 1_555
C63 O10 1_555 1_555
C64 C63 1_555 1_555
H102 C64 1_555 1_555
H103 C64 1_555 1_555
H104 C64 1_555 1_555
C5 C10 1_555 1_555
C9 C10 1_555 1_555
C9 C11 1_555 1_555
C13 C14 1_555 1_555
C16 C17 1_555 1_555
C22 C23 1_555 1_555
C24 C25 1_555 1_555
C37 C42 1_555 1_555
C41 C42 1_555 1_555
C41 C43 1_555 1_555
C45 C46 1_555 1_555
C48 C49 1_555 1_555
C54 C55 1_555 1_555
C56 C57 1_555 1_555

#END
