
#######################################################################
#
#                 Cambridge Crystallographic Data Centre
#                                CCDC 
#
#######################################################################
#
# If this CIF has been generated from an entry in the Cambridge 
# Structural Database, then it will include bibliographic, chemical, 
# crystal, experimental, refinement or atomic coordinate data resulting 
# from the CCDC's data processing and validation procedures.
#
#######################################################################

data_PIWDAB
_chemical_name_common            3',5-Dihydroxy-4',7-dimethoxyflavone
_chemical_formula_moiety         'C17 H14 O6'
_chemical_name_systematic        Pilloin
_symmetry_cell_setting           monoclinic
_symmetry_space_group_name_H-M   'P 21/n'
_symmetry_Int_Tables_number      14
_space_group_name_Hall           '-P 2yn'
loop_
_symmetry_equiv_pos_site_id
_symmetry_equiv_pos_as_xyz
1 x,y,z
2 1/2-x,1/2+y,1/2-z
3 -x,-y,-z
4 1/2+x,1/2-y,1/2+z
_cell_length_a                   7.336(3)
_cell_length_b                   14.257(5)
_cell_length_c                   13.298(5)
_cell_angle_alpha                90
_cell_angle_beta                 93.516(5)
_cell_angle_gamma                90
_cell_volume                     1388.21
_exptl_crystal_colour            yellow
_exptl_crystal_description       needle
_chemical_melting_point          '513-515 K'
_cell_formula_units_Z            4
_exptl_crystal_recrystallization_method 'ethyl acetate'
loop_
_atom_site_label
_atom_site_type_symbol
_atom_site_fract_x
_atom_site_fract_y
_atom_site_fract_z
C1 C 0.7716(3) 1.05358(17) -0.00834(17)
C2 C 0.8207(3) 1.13921(18) -0.03949(18)
H1 H 0.8141 1.1521 -0.1082
C3 C 0.8827(3) 1.21098(18) 0.02919(19)
C4 C 0.8894(3) 1.18566(18) 0.13466(17)
C5 C 0.9502(3) 1.24721(19) 0.21322(19)
C6 C 0.9442(4) 1.22095(19) 0.3121(2)
H2 H 0.9862 1.2615 0.3631
C7 C 0.8748(3) 1.13324(19) 0.33589(18)
C8 C 0.8150(3) 1.07034(18) 0.26154(17)
H3 H 0.7684 1.0119 0.2777
C9 C 0.8273(3) 1.09784(17) 0.16236(17)
C10 C 0.7149(3) 0.97255(17) -0.07066(17)
C11 C 0.6968(3) 0.98000(17) -0.17592(17)
H4 H 0.7185 1.0374 -0.2063
C12 C 0.6480(3) 0.90432(17) -0.23460(17)
C13 C 0.6095(3) 0.81869(17) -0.18897(17)
C14 C 0.6276(3) 0.81024(18) -0.08604(18)
H5 H 0.6039 0.7531 -0.0557
C15 C 0.6809(3) 0.88667(17) -0.02738(18)
H6 H 0.6941 0.8802 0.0423
C16 C 0.7742(4) 1.0321(2) 0.4658(2)
H7 H 0.6533 1.0311 0.4337
H8 H 0.7667 1.0319 0.5376
H9 H 0.8402 0.9777 0.4458
C17 C 0.4928(4) 0.66371(18) -0.2135(2)
H10 H 0.5934 0.6327 -0.1779
H11 H 0.4441 0.6240 -0.2669
H12 H 0.3995 0.6767 -0.1679
O1 O 0.7726(2) 1.03237(11) 0.09151(11)
O2 O 0.9277(3) 1.29219(12) 0.00155(13)
O3 O 1.0116(3) 1.33381(13) 0.18989(14)
H13 H 1.0027 1.3410 0.1286
O4 O 0.8673(3) 1.11510(14) 0.43612(12)
O5 O 0.6356(3) 0.91459(12) -0.33707(11)
H14 H 0.6096 0.8640 -0.3636
O6 O 0.5541(2) 0.74926(12) -0.25471(12)
loop_
_geom_bond_atom_site_label_1
_geom_bond_atom_site_label_2
_geom_bond_site_symmetry_1
_geom_bond_site_symmetry_2
C1 C2 1_555 1_555
C2 H1 1_555 1_555
C3 C2 1_555 1_555
C4 C3 1_555 1_555
C5 C4 1_555 1_555
C6 C5 1_555 1_555
H2 C6 1_555 1_555
C7 C6 1_555 1_555
C8 C7 1_555 1_555
H3 C8 1_555 1_555
C9 C4 1_555 1_555
C10 C1 1_555 1_555
C11 C10 1_555 1_555
H4 C11 1_555 1_555
C12 C11 1_555 1_555
C13 C12 1_555 1_555
C14 C13 1_555 1_555
H5 C14 1_555 1_555
C15 C10 1_555 1_555
H6 C15 1_555 1_555
C16 H7 1_555 1_555
H8 C16 1_555 1_555
H9 C16 1_555 1_555
C17 H10 1_555 1_555
H11 C17 1_555 1_555
H12 C17 1_555 1_555
O1 C1 1_555 1_555
O2 C3 1_555 1_555
O3 C5 1_555 1_555
H13 O3 1_555 1_555
O4 C7 1_555 1_555
O5 C12 1_555 1_555
H14 O5 1_555 1_555
O6 C13 1_555 1_555
C8 C9 1_555 1_555
C9 O1 1_555 1_555
C14 C15 1_555 1_555
C16 O4 1_555 1_555
C17 O6 1_555 1_555

#END
