
#######################################################################
#
#                 Cambridge Crystallographic Data Centre
#                                CCDC 
#
#######################################################################
#
# If this CIF has been generated from an entry in the Cambridge 
# Structural Database, then it will include bibliographic, chemical, 
# crystal, experimental, refinement or atomic coordinate data resulting 
# from the CCDC's data processing and validation procedures.
#
#######################################################################

data_PIWLEM02
_chemical_name_common            'Cholic acid isopropyl acetate clathrate'
_chemical_formula_moiety         'C24 H40 O5,C5 H10 O2'
_chemical_name_systematic        
'3,7,12-Trihydroxycholan-24-oic acid isopropyl acetate clathrate'
_symmetry_cell_setting           monoclinic
_symmetry_space_group_name_H-M   'P 21'
_symmetry_Int_Tables_number      4
_space_group_name_Hall           'P 2yb'
loop_
_symmetry_equiv_pos_site_id
_symmetry_equiv_pos_as_xyz
1 x,y,z
2 -x,1/2+y,-z
_cell_length_a                   11.8627(3)
_cell_length_b                   7.9815(2)
_cell_length_c                   15.2486(4)
_cell_angle_alpha                90
_cell_angle_beta                 106.2841(11)
_cell_angle_gamma                90
_cell_volume                     1385.85
_exptl_crystal_colour            colorless
_cell_formula_units_Z            2
loop_
_atom_site_label
_atom_site_type_symbol
_atom_site_fract_x
_atom_site_fract_y
_atom_site_fract_z
O1 O 0.50692(10) 0.78901 -0.19867(8)
O2 O 0.48139(13) 0.5245(2) -0.15940(9)
O3 O 0.62700(9) 0.77535(19) 0.28261(7)
O4 O 0.63595(9) 0.23392(18) 0.36643(6)
O5 O 0.46897(9) 0.45827(19) 0.59867(7)
C1 C 0.51640(7) 0.66627(17) -0.13860(6)
C2 C 0.57596(7) 0.71822(17) -0.04187(5)
C3 C 0.70943(7) 0.69543(17) -0.01905(5)
C4 C 0.77590(7) 0.73340(17) 0.08143(5)
C5 C 0.73452(7) 0.61709(16) 0.14671(5)
C6 C 0.79506(6) 0.62709(16) 0.25161(5)
C7 C 0.75300(7) 0.76561(16) 0.30593(5)
C8 C 0.79682(7) 0.73162(16) 0.40914(5)
C9 C 0.76082(7) 0.55987(16) 0.43850(5)
C10 C 0.80004(7) 0.42014(16) 0.38303(5)
C11 C 0.76102(7) 0.24586(16) 0.40466(5)
C12 C 0.80055(7) 0.21317(16) 0.50766(5)
C13 C 0.76629(6) 0.35102(16) 0.56573(5)
C14 C 0.63466(7) 0.34115(16) 0.55779(5)
C15 C 0.59442(7) 0.46985(16) 0.61547(5)
C16 C 0.62511(7) 0.64407(16) 0.58933(5)
C17 C 0.75660(7) 0.65727(16) 0.59929(5)
C18 C 0.80557(6) 0.52840(16) 0.54352(5)
C19 C 0.94006(7) 0.54237(17) 0.57789(6)
C20 C 0.75399(6) 0.45824(16) 0.28163(5)
C21 C 0.77863(8) 0.33125(16) 0.21462(5)
C22 C 0.74917(8) 0.42881(16) 0.12361(5)
C23 C 0.92878(7) 0.63652(17) 0.26911(6)
C24 C 0.76721(9) 0.91983(17) 0.10209(6)
H1 H 0.460609 0.755149 -0.260212
H2 H 0.599845 0.867354 0.238932
H3 H 0.584503 0.187897 0.401023
H4 H 0.45717 0.363994 0.636625
H5 H 0.542402 0.644256 0.004827
H6 H 0.556181 0.848449 -0.032783
H7 H 0.742876 0.777121 -0.062665
H8 H 0.728053 0.567682 -0.034472
H9 H 0.867773 0.706081 0.089934
H10 H 0.641631 0.639506 0.136176
H11 H 0.787769 0.884901 0.291807
H12 H 0.762894 0.828281 0.444666
H13 H 0.891726 0.740338 0.430729
H14 H 0.66577 0.557172 0.419758
H15 H 0.895082 0.42123 0.401225
H16 H 0.802578 0.153979 0.371677
H17 H 0.895099 0.198576 0.529153
H18 H 0.762553 0.095838 0.520996
H19 H 0.812762 0.324632 0.636279
H20 H 0.585632 0.359371 0.486985
H21 H 0.614149 0.217095 0.577674
H22 H 0.637615 0.447218 0.687053
H23 H 0.600229 0.736184 0.632623
H24 H 0.576216 0.669876 0.51926
H25 H 0.80361 0.643 0.670833
H26 H 0.774925 0.781976 0.578874
H27 H 0.965826 0.672152 0.575814
H28 H 0.979406 0.468206 0.534762
H29 H 0.970169 0.496995 0.647506
H30 H 0.659385 0.466741 0.266755
H31 H 0.722897 0.222062 0.209232
H32 H 0.869708 0.292165 0.235081
H33 H 0.668651 0.382131 0.077203
H34 H 0.819279 0.415441 0.091424
H35 H 0.953596 0.762581 0.255891
H36 H 0.956232 0.549449 0.224634
H37 H 0.971358 0.604248 0.33962
H38 H 0.792634 0.993505 0.051095
H39 H 0.825269 0.948061 0.169029
H40 H 0.677647 0.949911 0.100538
O6 O 0.83166(13) 0.2958(2) 0.82608(9)
O7 O 0.92770(15) 0.3392(3) 0.97425(11)
C25 C 0.93034(10) 0.5543(2) 0.86336(7)
C26 C 0.89843(9) 0.3867(2) 0.89573(8)
C27 C 0.78382(10) 0.13848(19) 0.84866(7)
C28 C 0.67318(12) 0.1753(2) 0.87604(10)
C29 C 0.76146(13) 0.0297(2) 0.76425(9)
H41 H 0.987357 0.621168 0.920584
H42 H 0.850731 0.625678 0.835333
H43 H 0.974845 0.534019 0.811203
H44 H 0.847153 0.078442 0.905142
H45 H 0.693347 0.251869 0.93709
H46 H 0.633415 0.058727 0.888386
H47 H 0.611671 0.240855 0.820724
H48 H 0.697085 0.090564 0.708776
H49 H 0.727397 -0.090369 0.778048
H50 H 0.842722 0.011911 0.746254
loop_
_geom_bond_atom_site_label_1
_geom_bond_atom_site_label_2
_geom_bond_site_symmetry_1
_geom_bond_site_symmetry_2
O1 C1 1_555 1_555
O2 C1 1_555 1_555
O3 C7 1_555 1_555
O4 C11 1_555 1_555
O5 C15 1_555 1_555
C1 C2 1_555 1_555
C2 C3 1_555 1_555
C3 C4 1_555 1_555
C4 C5 1_555 1_555
C5 C6 1_555 1_555
C6 C7 1_555 1_555
C7 C8 1_555 1_555
C8 C9 1_555 1_555
C9 C10 1_555 1_555
C10 C11 1_555 1_555
C11 C12 1_555 1_555
C12 C13 1_555 1_555
C13 C14 1_555 1_555
C14 C15 1_555 1_555
C15 C16 1_555 1_555
C16 C17 1_555 1_555
C17 C18 1_555 1_555
C18 C9 1_555 1_555
C19 C18 1_555 1_555
C20 C6 1_555 1_555
C21 C20 1_555 1_555
C22 C5 1_555 1_555
C23 C6 1_555 1_555
C24 C4 1_555 1_555
H1 O1 1_555 1_555
H2 O3 1_555 1_555
H3 O4 1_555 1_555
H4 O5 1_555 1_555
H5 C2 1_555 1_555
H6 C2 1_555 1_555
H7 C3 1_555 1_555
H8 C3 1_555 1_555
H9 C4 1_555 1_555
H10 C5 1_555 1_555
H11 C7 1_555 1_555
H12 C8 1_555 1_555
H13 C8 1_555 1_555
H14 C9 1_555 1_555
H15 C10 1_555 1_555
H16 C11 1_555 1_555
H17 C12 1_555 1_555
H18 C12 1_555 1_555
H19 C13 1_555 1_555
H20 C14 1_555 1_555
H21 C14 1_555 1_555
H22 C15 1_555 1_555
H23 C16 1_555 1_555
H24 C16 1_555 1_555
H25 C17 1_555 1_555
H26 C17 1_555 1_555
H27 C19 1_555 1_555
H28 C19 1_555 1_555
H29 C19 1_555 1_555
H30 C20 1_555 1_555
H31 C21 1_555 1_555
H32 C21 1_555 1_555
H33 C22 1_555 1_555
H34 C22 1_555 1_555
H35 C23 1_555 1_555
H36 C23 1_555 1_555
H37 C23 1_555 1_555
H38 C24 1_555 1_555
H39 C24 1_555 1_555
H40 C24 1_555 1_555
O6 C26 1_555 1_555
O7 C26 1_555 1_555
C25 C26 1_555 1_555
C27 O6 1_555 1_555
C28 C27 1_555 1_555
C29 C27 1_555 1_555
H41 C25 1_555 1_555
H42 C25 1_555 1_555
H43 C25 1_555 1_555
H44 C27 1_555 1_555
H45 C28 1_555 1_555
H46 C28 1_555 1_555
H47 C28 1_555 1_555
H48 C29 1_555 1_555
H49 C29 1_555 1_555
H50 C29 1_555 1_555
C10 C20 1_555 1_555
C13 C18 1_555 1_555
C21 C22 1_555 1_555

#END
