
#######################################################################
#
#                 Cambridge Crystallographic Data Centre
#                                CCDC 
#
#######################################################################
#
# If this CIF has been generated from an entry in the Cambridge 
# Structural Database, then it will include bibliographic, chemical, 
# crystal, experimental, refinement or atomic coordinate data resulting 
# from the CCDC's data processing and validation procedures.
#
#######################################################################

data_PIWLIS
_chemical_name_common            
'(19S)-19-Hydroxymethylepitriptolide methanol solvate'
_chemical_formula_moiety         'C22 H28 O8,C1 H4 O1'
_chemical_name_systematic        
'6-Hydroxy-3,3-bis(hydroxymethyl)-6a-isopropyl-8b-methyl-3b,4,4a,6,6a,7a,7b,8b,9,10-decahydrotrisoxireno[6,7:8a,9:4b,5]phenanthro[1,2-c]furan-1(3H)-one methanol solvate'
_symmetry_cell_setting           orthorhombic
_symmetry_space_group_name_H-M   'P 21 21 21'
_symmetry_Int_Tables_number      19
_space_group_name_Hall           'P 2ac 2ab'
loop_
_symmetry_equiv_pos_site_id
_symmetry_equiv_pos_as_xyz
1 x,y,z
2 1/2+x,1/2-y,-z
3 -x,1/2+y,1/2-z
4 1/2-x,-y,1/2+z
_cell_length_a                   6.48240(10)
_cell_length_b                   13.0150(2)
_cell_length_c                   25.7566(5)
_cell_angle_alpha                90
_cell_angle_beta                 90
_cell_angle_gamma                90
_cell_volume                     2173.04
_exptl_crystal_colour            colorless
_exptl_crystal_description       block
_chemical_melting_point          '252-254 deg.C'
_cell_formula_units_Z            4
loop_
_atom_site_label
_atom_site_type_symbol
_atom_site_fract_x
_atom_site_fract_y
_atom_site_fract_z
O1 O 0.76325(15) 0.42100(7) 0.75261(4)
H1 H 0.836(3) 0.4679(14) 0.7559(7)
O2 O 0.06316(14) 0.55578(7) 0.76471(4)
H2 H 0.075(3) 0.6180(14) 0.7694(7)
O3 O 0.51190(14) 0.61894(7) 0.76070(3)
O4 O 0.59965(16) 0.73347(7) 0.82235(4)
O5 O 0.01334(14) 0.22582(7) 0.87800(4)
O6 O 0.36940(16) 0.25856(7) 0.97273(3)
O7 O 0.59535(16) 0.08059(7) 0.88316(3)
O8 O 0.10877(17) 0.01966(7) 0.87999(4)
H3 H -0.013(3) 0.0470(15) 0.8803(8)
C1 C 0.3111(2) -0.09856(11) 0.97756(6)
H4 H 0.3473 -0.0590 1.0077
H5 H 0.3248 -0.1704 0.9853
H6 H 0.1710 -0.0840 0.9679
C2 C 0.4554(2) -0.07027(10) 0.93245(5)
H7 H 0.4079 -0.1081 0.9018
C3 C 0.4411(2) 0.04404(10) 0.91964(5)
C4 C 0.2257(2) 0.08742(10) 0.91147(5)
H8 H 0.1586 0.0901 0.9455
C5 C 0.2240(2) 0.19591(10) 0.88956(5)
C6 C 0.1618(2) 0.21692(10) 0.83555(5)
H9 H 0.1464 0.1568 0.8130
C7 C 0.2163(2) 0.31683(9) 0.80887(5)
H10 H 0.0939 0.3596 0.8069
H11 H 0.2607 0.3023 0.7737
C8 C 0.3878(2) 0.37644(9) 0.83716(4)
H12 H 0.5146 0.3365 0.8325
C9 C 0.43131(18) 0.48189(9) 0.81570(5)
C10 C 0.43367(19) 0.51326(9) 0.75903(5)
C11 C 0.5803(2) 0.44911(10) 0.72580(5)
H13 H 0.5096 0.3873 0.7146
H14 H 0.6172 0.4880 0.6950
C12 C 0.2228(2) 0.51831(10) 0.73225(5)
H15 H 0.2336 0.5624 0.7020
H16 H 0.1861 0.4501 0.7203
C13 C 0.54128(19) 0.64867(9) 0.81088(5)
C14 C 0.4923(2) 0.56098(9) 0.84481(5)
C15 C 0.3587(2) 0.27301(9) 0.91676(4)
C16 C 0.5462(2) 0.23063(9) 0.94094(4)
H17 H 0.6646 0.2774 0.9428
C17 C 0.5971(2) 0.11905(9) 0.93630(5)
H18 H 0.7071 0.0932 0.9589
C18 C 0.6744(3) -0.10611(11) 0.94411(6)
H19 H 0.7184 -0.0782 0.9768
H20 H 0.7653 -0.0830 0.9171
H21 H 0.6774 -0.1798 0.9458
C19 C 0.3514(2) 0.38415(9) 0.89688(4)
C20 C 0.1434(2) 0.43402(10) 0.91073(5)
H22 H 0.1315 0.4397 0.9478
H23 H 0.0329 0.3923 0.8976
H24 H 0.1358 0.5012 0.8954
C21 C 0.5274(2) 0.44874(10) 0.92084(5)
H25 H 0.5156 0.4473 0.9584
H26 H 0.6590 0.4184 0.9115
C22 C 0.5218(2) 0.56076(10) 0.90216(5)
H27 H 0.4093 0.5972 0.9189
H28 H 0.6500 0.5950 0.9110
O9 O 0.08638(18) 0.74803(8) 0.79250(4)
H29 H 0.144(3) 0.8013(16) 0.7797(8)
C23 C 0.0737(3) 0.76222(12) 0.84700(6)
H30 H -0.0136 0.7103 0.8617
H31 H 0.0171 0.8288 0.8543
H32 H 0.2092 0.7572 0.8619
loop_
_geom_bond_atom_site_label_1
_geom_bond_atom_site_label_2
_geom_bond_site_symmetry_1
_geom_bond_site_symmetry_2
O1 H1 1_555 1_555
O2 H2 1_555 1_555
O3 C10 1_555 1_555
O4 C13 1_555 1_555
O5 C5 1_555 1_555
O6 C15 1_555 1_555
O7 C3 1_555 1_555
O8 H3 1_555 1_555
C1 H4 1_555 1_555
H5 C1 1_555 1_555
H6 C1 1_555 1_555
C2 C1 1_555 1_555
H7 C2 1_555 1_555
C3 C2 1_555 1_555
C4 O8 1_555 1_555
H8 C4 1_555 1_555
C5 C4 1_555 1_555
C6 O5 1_555 1_555
H9 C6 1_555 1_555
C7 C6 1_555 1_555
H10 C7 1_555 1_555
H11 C7 1_555 1_555
C8 C7 1_555 1_555
H12 C8 1_555 1_555
C9 C8 1_555 1_555
C10 C9 1_555 1_555
C11 O1 1_555 1_555
H13 C11 1_555 1_555
H14 C11 1_555 1_555
C12 O2 1_555 1_555
H15 C12 1_555 1_555
H16 C12 1_555 1_555
C13 O3 1_555 1_555
C14 C9 1_555 1_555
C15 C5 1_555 1_555
C16 O6 1_555 1_555
H17 C16 1_555 1_555
C17 O7 1_555 1_555
H18 C17 1_555 1_555
C18 C2 1_555 1_555
H19 C18 1_555 1_555
H20 C18 1_555 1_555
H21 C18 1_555 1_555
C19 C8 1_555 1_555
C20 C19 1_555 1_555
H22 C20 1_555 1_555
H23 C20 1_555 1_555
H24 C20 1_555 1_555
C21 C19 1_555 1_555
H25 C21 1_555 1_555
H26 C21 1_555 1_555
C22 C14 1_555 1_555
H27 C22 1_555 1_555
H28 C22 1_555 1_555
O9 H29 1_555 1_555
C23 O9 1_555 1_555
H30 C23 1_555 1_555
H31 C23 1_555 1_555
H32 C23 1_555 1_555
C3 C4 1_555 1_555
C3 C17 1_555 1_555
C5 C6 1_555 1_555
C10 C11 1_555 1_555
C10 C12 1_555 1_555
C13 C14 1_555 1_555
C15 C16 1_555 1_555
C15 C19 1_555 1_555
C16 C17 1_555 1_555
C21 C22 1_555 1_555

#END
