
#######################################################################
#
#                 Cambridge Crystallographic Data Centre
#                                CCDC 
#
#######################################################################
#
# If this CIF has been generated from an entry in the Cambridge 
# Structural Database, then it will include bibliographic, chemical, 
# crystal, experimental, refinement or atomic coordinate data resulting 
# from the CCDC's data processing and validation procedures.
#
#######################################################################

data_PIWMAL
_chemical_formula_moiety         'C20 H24 O6'
_chemical_name_systematic        
'Methyl 1a-isopropyl-8a-methyl-2-oxo-1a,2,3a,4,4a,7,8,8a,9a,9b-decahydrobisoxireno[10,10a:4,4a]phenanthro[2,3-b]oxirene-6-carboxylate'
_symmetry_cell_setting           monoclinic
_symmetry_space_group_name_H-M   'P 21'
_symmetry_Int_Tables_number      4
_space_group_name_Hall           'P 2yb'
loop_
_symmetry_equiv_pos_site_id
_symmetry_equiv_pos_as_xyz
1 x,y,z
2 -x,1/2+y,-z
_cell_length_a                   7.0292(8)
_cell_length_b                   9.7567(11)
_cell_length_c                   13.7324(15)
_cell_angle_alpha                90
_cell_angle_beta                 102.356(2)
_cell_angle_gamma                90
_cell_volume                     919.978
_exptl_crystal_colour            colorless
_exptl_crystal_description       prismatic
_cell_formula_units_Z            2
loop_
_atom_site_label
_atom_site_type_symbol
_atom_site_fract_x
_atom_site_fract_y
_atom_site_fract_z
O1 O 0.56268(15) 0.11552(13) 0.99520(9)
O2 O 0.16376(16) 0.01077(12) 1.04581(9)
O3 O 0.2266(2) 0.32649(14) 1.18057(10)
O4 O -0.2515(3) 0.2564(2) 0.54499(12)
O5 O -0.0336(2) 0.4249(2) 0.56797(11)
O6 O 0.66754(17) 0.17654(17) 1.18911(10)
C1 C -0.0851(2) 0.15706(19) 0.85876(13)
H1 H -0.1373 0.0736 0.8813
H2 H -0.1334 0.2339 0.8912
C2 C -0.1555(2) 0.1703(2) 0.74578(13)
H3 H -0.1384 0.0833 0.7145
H4 H -0.2933 0.1921 0.7304
C3 C -0.0455(2) 0.2800(2) 0.70403(13)
C4 C 0.1141(2) 0.33733(18) 0.75746(13)
H5 H 0.1713 0.4077 0.7282
C5 C 0.2086(2) 0.29663(16) 0.86172(12)
H6 H 0.1670 0.3631 0.9065
C6 C 0.4298(2) 0.3060(2) 0.87908(14)
H7 H 0.4744 0.2502 0.8299
H8 H 0.4665 0.4002 0.8698
C7 C 0.5284(2) 0.25952(19) 0.98102(13)
H9 H 0.6306 0.3200 1.0174
C8 C 0.4210(2) 0.17856(17) 1.04281(12)
C9 C 0.2132(2) 0.13784(15) 1.00130(12)
C10 C 0.1390(2) 0.15373(15) 0.88887(11)
C11 C 0.0819(2) 0.13791(19) 1.07105(12)
H10 H -0.0563 0.1521 1.0410
C12 C 0.1477(2) 0.1905(2) 1.17410(13)
H11 H 0.0631 0.1693 1.2203
C13 C 0.3536(2) 0.21335(17) 1.21967(13)
C14 C 0.4963(2) 0.18784(17) 1.15461(12)
C15 C 0.4337(3) 0.2068(2) 1.33107(13)
H12 H 0.5571 0.2573 1.3456
C16 C 0.2985(4) 0.2725(3) 1.39060(17)
H13 H 0.3582 0.2697 1.4603
H14 H 0.1776 0.2231 1.3791
H15 H 0.2743 0.3660 1.3700
C17 C 0.4768(4) 0.0597(2) 1.36185(16)
H16 H 0.3593 0.0067 1.3448
H17 H 0.5270 0.0554 1.4325
H18 H 0.5715 0.0234 1.3278
C18 C -0.1219(3) 0.3170(2) 0.59823(14)
C19 C -0.1026(5) 0.4663(3) 0.46617(17)
H19 H -0.2336 0.4997 0.4573
H20 H -0.0998 0.3892 0.4230
H21 H -0.0203 0.5376 0.4501
C20 C 0.2151(3) 0.03611(19) 0.83291(14)
H22 H 0.1467 -0.0468 0.8411
H23 H 0.3519 0.0235 0.8594
H24 H 0.1942 0.0583 0.7633
loop_
_geom_bond_atom_site_label_1
_geom_bond_atom_site_label_2
_geom_bond_site_symmetry_1
_geom_bond_site_symmetry_2
O1 C7 1_555 1_555
O2 C9 1_555 1_555
O3 C12 1_555 1_555
O4 C18 1_555 1_555
O5 C18 1_555 1_555
O6 C14 1_555 1_555
C1 H1 1_555 1_555
H2 C1 1_555 1_555
C2 C1 1_555 1_555
H3 C2 1_555 1_555
H4 C2 1_555 1_555
C3 C2 1_555 1_555
C4 C3 1_555 1_555
H5 C4 1_555 1_555
C5 C4 1_555 1_555
H6 C5 1_555 1_555
C6 C5 1_555 1_555
H7 C6 1_555 1_555
H8 C6 1_555 1_555
C7 C6 1_555 1_555
H9 C7 1_555 1_555
C8 O1 1_555 1_555
C9 C8 1_555 1_555
C10 C1 1_555 1_555
C11 O2 1_555 1_555
H10 C11 1_555 1_555
C12 C11 1_555 1_555
H11 C12 1_555 1_555
C13 O3 1_555 1_555
C14 C8 1_555 1_555
C15 C13 1_555 1_555
H12 C15 1_555 1_555
C16 C15 1_555 1_555
H13 C16 1_555 1_555
H14 C16 1_555 1_555
H15 C16 1_555 1_555
C17 C15 1_555 1_555
H16 C17 1_555 1_555
H17 C17 1_555 1_555
H18 C17 1_555 1_555
C18 C3 1_555 1_555
C19 O5 1_555 1_555
H19 C19 1_555 1_555
H20 C19 1_555 1_555
H21 C19 1_555 1_555
C20 C10 1_555 1_555
H22 C20 1_555 1_555
H23 C20 1_555 1_555
H24 C20 1_555 1_555
C5 C10 1_555 1_555
C7 C8 1_555 1_555
C9 C10 1_555 1_555
C9 C11 1_555 1_555
C12 C13 1_555 1_555
C13 C14 1_555 1_555

#END
