
#######################################################################
#
#                 Cambridge Crystallographic Data Centre
#                                CCDC 
#
#######################################################################
#
# If this CIF has been generated from an entry in the Cambridge 
# Structural Database, then it will include bibliographic, chemical, 
# crystal, experimental, refinement or atomic coordinate data resulting 
# from the CCDC's data processing and validation procedures.
#
#######################################################################

data_PIWMUD
_chemical_formula_moiety         'C12 H16 O6 2-,2(Na1 1+),4(H2 O1)'
_chemical_name_systematic        
'Disodium cis,cis-1,3,5-trimethyl-1,3,5-cyclohexane-tricarboxylate tetrahydrate'
_symmetry_cell_setting           monoclinic
_symmetry_space_group_name_H-M   'C 2/c'
_symmetry_Int_Tables_number      15
_space_group_name_Hall           '-C 2yn'
loop_
_symmetry_equiv_pos_site_id
_symmetry_equiv_pos_as_xyz
1 x,y,z
2 1/2+x,1/2+y,z
3 -x,y,1/2-z
4 1/2-x,1/2+y,1/2-z
5 -x,-y,-z
6 1/2-x,1/2-y,-z
7 x,-y,1/2+z
8 1/2+x,1/2-y,1/2+z
_cell_length_a                   29.89(1)
_cell_length_b                   8.07(1)
_cell_length_c                   14.64(1)
_cell_angle_alpha                90
_cell_angle_beta                 106.52(4)
_cell_angle_gamma                90
_cell_volume                     3385.58
_cell_formula_units_Z            8
loop_
_atom_site_label
_atom_site_type_symbol
_atom_site_fract_x
_atom_site_fract_y
_atom_site_fract_z
Na1 Na 0.9341(6) 0.3845(22) 0.4635(12)
Na2 Na 0.9632(5) 0.0741(19) 0.6387(11)
O1 O 0.9732(8) 0.3806(36) 0.3363(16)
O2 O 1.0098(7) 0.2537(26) 0.5614(16)
O3 O 0.9391(8) 0.3224(34) 0.7229(18)
O4 O 0.9570(9) -0.0465(29) 0.7903(19)
C1 C 0.8622(20) 0.7225(66) 0.5813(38)
C2 C 0.8387(16) 0.9122(67) 0.5709(34)
C3 C 0.8389(20) 1.0216(61) 0.4774(36)
C4 C 0.8081(17) 0.8917(69) 0.3972(36)
C5 C 0.8278(22) 0.7244(84) 0.3739(53)
C6 C 0.8312(18) 0.6559(68) 0.4729(36)
C7 C 0.9078(22) 0.7179(81) 0.5734(46)
O5 O 0.9315(11) 0.5764(41) 0.5848(23)
O6 O 0.9329(10) 0.8264(37) 0.5449(19)
C8 C 0.8476(16) 0.6467(68) 0.6554(36)
C9 C 0.8693(17) 1.0881(71) 0.4416(39)
O7 O 0.8916(12) 1.1894(47) 0.5159(25)
O8 O 0.8844(13) 1.0939(51) 0.3745(29)
C10 C 0.7994(15) 1.1369(59) 0.4816(36)
C11 C 0.8633(22) 0.6876(89) 0.3378(43)
O9 O 0.8898(13) 0.5779(50) 0.3687(29)
O10 O 0.8779(13) 0.8182(50) 0.3000(29)
C12 C 0.7871(15) 0.6272(69) 0.3049(34)
H1 H 0.858(2) 0.982(7) 0.633(3)
H2 H 0.803(2) 0.899(7) 0.571(3)
H3 H 0.798(2) 0.960(7) 0.331(4)
H4 H 0.778(2) 0.862(7) 0.419(4)
H5 H 0.796(2) 0.655(7) 0.477(4)
H6 H 0.843(2) 0.530(7) 0.470(4)
H7 H 0.861(2) 0.522(7) 0.667(4)
H8 H 0.810(2) 0.643(7) 0.636(4)
H9 H 0.860(2) 0.718(7) 0.720(4)
H10 H 0.793(2) 1.225(6) 0.424(4)
H11 H 0.809(2) 1.203(6) 0.549(4)
H12 H 0.768(2) 1.065(6) 0.476(4)
H13 H 0.755(1) 0.645(7) 0.325(3)
H14 H 0.796(1) 0.497(7) 0.308(3)
H15 H 0.782(1) 0.672(7) 0.233(3)
loop_
_geom_bond_atom_site_label_1
_geom_bond_atom_site_label_2
_geom_bond_site_symmetry_1
_geom_bond_site_symmetry_2
C1 C2 1_555 1_555
C2 C3 1_555 1_555
C3 C4 1_555 1_555
C4 C5 1_555 1_555
C5 C6 1_555 1_555
C6 C1 1_555 1_555
C7 C1 1_555 1_555
O5 C7 1_555 1_555
O6 C7 1_555 1_555
C8 C1 1_555 1_555
C9 C3 1_555 1_555
O7 C9 1_555 1_555
O8 C9 1_555 1_555
C10 C3 1_555 1_555
C11 C5 1_555 1_555
O9 C11 1_555 1_555
O10 C11 1_555 1_555
C12 C5 1_555 1_555
H1 C2 1_555 1_555
H2 C2 1_555 1_555
H3 C4 1_555 1_555
H4 C4 1_555 1_555
H5 C6 1_555 1_555
H6 C6 1_555 1_555
H7 C8 1_555 1_555
H8 C8 1_555 1_555
H9 C8 1_555 1_555
H10 C10 1_555 1_555
H11 C10 1_555 1_555
H12 C10 1_555 1_555
H13 C12 1_555 1_555
H14 C12 1_555 1_555
H15 C12 1_555 1_555

#END
