
#######################################################################
#
#                 Cambridge Crystallographic Data Centre
#                                CCDC 
#
#######################################################################
#
# If this CIF has been generated from an entry in the Cambridge 
# Structural Database, then it will include bibliographic, chemical, 
# crystal, experimental, refinement or atomic coordinate data resulting 
# from the CCDC's data processing and validation procedures.
#
#######################################################################

data_PIWMIR
_chemical_formula_moiety         'C39 H65 Br1 N4 O6'
_chemical_name_systematic        
'p-Bromobenzoyl-tris(D-\a-methyl-leucyl)-D-alphamethyl-leucine t-butyl ester'
_symmetry_cell_setting           trigonal
_symmetry_space_group_name_H-M   'P 32'
_symmetry_Int_Tables_number      145
_space_group_name_Hall           'P 32'
loop_
_symmetry_equiv_pos_site_id
_symmetry_equiv_pos_as_xyz
1 x,y,z
2 -y,x-y,2/3+z
3 -x+y,-x,1/3+z
_cell_length_a                   19.583(3)
_cell_length_b                   19.583(3)
_cell_length_c                   30.459(4)
_cell_angle_alpha                90
_cell_angle_beta                 90
_cell_angle_gamma                120
_cell_volume                     10115.9
_exptl_crystal_colour            colorless
_chemical_melting_point          '220-222 deg.C'
_cell_formula_units_Z            9
loop_
_atom_site_label
_atom_site_type_symbol
_atom_site_fract_x
_atom_site_fract_y
_atom_site_fract_z
Br1 Br 0.6769(2) 0.8761(3) 0.979
C1 C 0.588(1) 0.848(1) 1.0122(8)
C2 C 0.517(1) 0.8249(9) 0.9939(6)
C3 C 0.4510(8) 0.8019(8) 1.0193(6)
C4 C 0.451(1) 0.7974(9) 1.0653(5)
C5 C 0.527(1) 0.824(2) 1.0809(8)
C6 C 0.5956(9) 0.848(1) 1.058(1)
C7 C 0.3818(9) 0.7682(9) 1.0916(5)
O1 O 0.3916(6) 0.7835(6) 1.1320(4)
N1 N 0.3123(7) 0.7169(7) 1.0753(4)
C8 C 0.2404(9) 0.686(1) 1.1007(6)
C9 C 0.1745(9) 0.624(1) 1.0723(6)
C10 C 0.225(1) 0.748(1) 1.1186(7)
C11 C 0.226(2) 0.808(2) 1.092(1)
C12 C 0.227(3) 0.877(2) 1.115(1)
C13 C 0.162(5) 0.783(6) 1.060(3)
C15 C 0.2477(8) 0.6382(8) 1.1422(7)
O2 O 0.2128(6) 0.6315(7) 1.1766(3)
N2 N 0.2937(6) 0.6064(7) 1.1349(3)
C16 C 0.3079(9) 0.559(1) 1.1669(5)
C17 C 0.371(1) 0.546(1) 1.1448(6)
C18 C 0.234(1) 0.482(1) 1.1787(9)
C19 C 0.191(2) 0.426(1) 1.1428(8)
C20 C 0.106(2) 0.404(3) 1.144(2)
C21 C 0.204(3) 0.356(2) 1.143(1)
C22 C 0.3483(9) 0.611(1) 1.2082(6)
O3 O 0.3510(7) 0.5732(7) 1.2412(4)
N3 N 0.3753(6) 0.6877(7) 1.2075(4)
C23 C 0.4070(9) 0.7342(9) 1.2458(6)
C24 C 0.420(1) 0.816(1) 1.2338(5)
C25 C 0.482(1) 0.736(1) 1.2643(5)
C26 C 0.546(1) 0.766(2) 1.232(1)
C27 C 0.604(3) 0.739(3) 1.246(2)
C28 C 0.604(3) 0.854(2) 1.239(2)
C30 C 0.346(1) 0.7070(9) 1.2841(5)
O4 O 0.3657(6) 0.7215(6) 1.3225(3)
N4 N 0.2703(9) 0.6707(8) 1.2716(4)
C31 C 0.203(1) 0.648(1) 1.3016(6)
C32 C 0.193(1) 0.585(1) 1.3351(7)
C33 C 0.1293(9) 0.6194(9) 1.2707(5)
C34 C 0.048(1) 0.581(2) 1.2932(9)
C35 C -0.013(1) 0.544(1) 1.2571(9)
C36 C 0.032(1) 0.637(2) 1.3161(9)
C37 C 0.224(1) 0.724(1) 1.3271(8)
O5 O 0.2171(9) 0.7281(9) 1.3656(5)
O6 O 0.2320(7) 0.7785(8) 1.2992(4)
C38 C 0.245(2) 0.859(1) 1.309(1)
C39 C 0.264(2) 0.898(1) 1.266(1)
C40 C 0.322(2) 0.899(2) 1.334(1)
C41 C 0.185(2) 0.860(2) 1.335(1)
H1 H 0.512(1) 0.8237(9) 0.9586(6)
H2 H 0.3960(8) 0.7861(8) 1.0031(6)
H3 H 0.533(1) 0.828(2) 1.1161(8)
H4 H 0.6509(9) 0.864(1) 1.074(1)
H5 H 0.3088(7) 0.6974(7) 1.0418(4)
H6 H 0.1193(9) 0.599(1) 1.0898(6)
H7 H 0.1878(9) 0.578(1) 1.0647(6)
H8 H 0.1698(9) 0.651(1) 1.0421(6)
H9 H 0.268(1) 0.777(1) 1.1443(7)
H10 H 0.167(1) 0.716(1) 1.1329(7)
H11 H 0.3216(6) 0.6155(7) 1.1031(3)
H12 H 0.385(1) 0.511(1) 1.1664(6)
H13 H 0.423(1) 0.602(1) 1.1385(6)
H14 H 0.348(1) 0.514(1) 1.1142(6)
H15 H 0.194(1) 0.496(1) 1.1950(9)
H16 H 0.252(1) 0.451(1) 1.2013(9)
H17 H 0.3735(6) 0.7156(7) 1.1773(4)
H18 H 0.445(1) 0.855(1) 1.2616(5)
H19 H 0.365(1) 0.811(1) 1.2245(5)
H20 H 0.461(1) 0.839(1) 1.2066(5)
H21 H 0.468(1) 0.678(1) 1.2743(5)
H22 H 0.503(1) 0.775(1) 1.2924(5)
H23 H 0.2579(9) 0.6570(8) 1.2372(4)
H24 H 0.179(1) 0.530(1) 1.3184(7)
H25 H 0.146(1) 0.574(1) 1.3573(7)
H26 H 0.247(1) 0.605(1) 1.3533(7)
H27 H 0.1289(9) 0.5765(9) 1.2483(5)
H28 H 0.1366(9) 0.6699(9) 1.2524(5)
H29 H 0.275(2) 0.958(1) 1.269(1)
H30 H 0.214(2) 0.866(1) 1.244(1)
H31 H 0.315(2) 0.900(1) 1.252(1)
H32 H 0.336(2) 0.958(2) 1.343(1)
H33 H 0.368(2) 0.902(2) 1.314(1)
H34 H 0.316(2) 0.866(2) 1.364(1)
H35 H 0.130(2) 0.832(2) 1.317(1)
H36 H 0.201(2) 0.920(2) 1.342(1)
H37 H 0.177(2) 0.828(2) 1.366(1)
Br2 Br 0.3559(2) 0.0107(2) 1.611
C42 C 0.426(1) 0.109(2) 1.5737(8)
C43 C 0.459(1) 0.175(2) 1.5946(6)
C44 C 0.502(1) 0.236(1) 1.5685(6)
C45 C 0.5156(8) 0.228(1) 1.5254(6)
C46 C 0.477(1) 0.157(1) 1.5070(7)
C47 C 0.440(2) 0.093(2) 1.5323(7)
C48 C 0.5631(8) 0.300(1) 1.4941(4)
O7 O 0.5486(6) 0.2881(7) 1.4541(4)
N5 N 0.6189(7) 0.3676(8) 1.5096(4)
C49 C 0.662(1) 0.4381(9) 1.4812(5)
C50 C 0.7297(9) 0.4978(8) 1.5090(5)
C51 C 0.610(1) 0.467(1) 1.4606(6)
C52 C 0.562(3) 0.487(3) 1.491(1)
C53 C 0.516(3) 0.516(3) 1.462(1)
C54 C 0.540(3) 0.482(4) 1.537(2)
C55 C 0.7013(8) 0.412(1) 1.4448(4)
O8 O 0.7095(6) 0.4460(7) 1.4075(3)
N6 N 0.7281(6) 0.3655(7) 1.4516(4)
C56 C 0.7665(7) 0.3418(9) 1.4208(7)
C57 C 0.7793(9) 0.283(1) 1.4425(6)
C58 C 0.849(1) 0.414(1) 1.4086(6)
C59 C 0.909(1) 0.462(1) 1.4432(8)
C60 C 0.941(2) 0.549(1) 1.4394(9)
C61 C 0.979(2) 0.448(2) 1.444(2)
C62 C 0.7173(8) 0.304(1) 1.3789(5)
O9 O 0.7548(6) 0.2987(8) 1.3475(4)
N7 N 0.6433(7) 0.2793(7) 1.3807(4)
C63 C 0.5928(8) 0.2447(9) 1.3420(5)
C64 C 0.5132(9) 0.2350(9) 1.3511(5)
C65 C 0.584(1) 0.1643(9) 1.3261(6)
C66 C 0.544(2) 0.093(1) 1.3528(7)
C67 C 0.546(2) 0.026(1) 1.3266(9)
C68 C 0.568(3) 0.091(1) 1.3965(8)
C69 C 0.6236(8) 0.309(1) 1.3050(5)
O10 O 0.6043(6) 0.2848(6) 1.2667(4)
N8 N 0.6622(8) 0.3821(9) 1.3145(4)
C70 C 0.686(1) 0.445(1) 1.2832(6)
C71 C 0.7454(9) 0.448(1) 1.2527(7)
C72 C 0.716(1) 0.5220(9) 1.3119(6)
C73 C 0.735(3) 0.595(2) 1.289(1)
C74 C 0.735(5) 0.652(2) 1.321(1)
C75 C 0.735(3) 0.619(2) 1.246(2)
C76 C 0.6129(9) 0.4333(9) 1.2565(7)
O11 O 0.6098(8) 0.4375(8) 1.2181(5)
O12 O 0.5549(7) 0.4193(7) 1.2850(4)
C77 C 0.482(2) 0.413(2) 1.271(1)
C78 C 0.437(2) 0.395(2) 1.312(1)
C79 C 0.436(1) 0.344(2) 1.2407(9)
C80 C 0.495(2) 0.492(1) 1.254(1)
H38 H 0.454(1) 0.181(2) 1.6296(6)
H39 H 0.528(1) 0.295(1) 1.5817(6)
H40 H 0.476(1) 0.151(1) 1.4717(7)
H41 H 0.422(2) 0.035(2) 1.5210(7)
H42 H 0.6337(7) 0.3721(8) 1.5441(4)
H43 H 0.7646(9) 0.5511(8) 1.4904(5)
H44 H 0.7663(9) 0.4738(8) 1.5191(5)
H45 H 0.7058(9) 0.5109(8) 1.5376(5)
H46 H 0.570(1) 0.420(1) 1.4389(6)
H47 H 0.648(1) 0.519(1) 1.4417(6)
H48 H 0.7212(6) 0.3421(7) 1.4844(4)
H49 H 0.8079(9) 0.262(1) 1.4203(6)
H50 H 0.7233(9) 0.234(1) 1.4527(6)
H51 H 0.8162(9) 0.309(1) 1.4709(6)
H52 H 0.836(1) 0.456(1) 1.3922(6)
H53 H 0.876(1) 0.393(1) 1.3857(6)
H54 H 0.6177(7) 0.2835(7) 1.4113(4)
H55 H 0.4848(9) 0.1915(9) 1.3766(5)
H56 H 0.4777(9) 0.2157(9) 1.3217(5)
H57 H 0.5197(9) 0.2905(9) 1.3618(5)
H58 H 0.642(1) 0.1748(9) 1.3200(6)
H59 H 0.551(1) 0.1505(9) 1.2955(6)
H60 H 0.6782(8) 0.3988(9) 1.3484(4)
H61 H 0.7611(9) 0.495(1) 1.2294(7)
H62 H 0.7213(9) 0.393(1) 1.2354(7)
H63 H 0.7972(9) 0.458(1) 1.2706(7)
H64 H 0.769(1) 0.5321(9) 1.3284(6)
H65 H 0.670(1) 0.5102(9) 1.3360(6)
H66 H 0.380(2) 0.388(2) 1.306(1)
H67 H 0.469(2) 0.443(2) 1.335(1)
H68 H 0.430(2) 0.341(2) 1.326(1)
H69 H 0.467(1) 0.355(2) 1.2099(9)
H70 H 0.379(1) 0.337(2) 1.2349(9)
H71 H 0.430(1) 0.291(2) 1.2552(9)
H72 H 0.527(2) 0.506(1) 1.223(1)
H73 H 0.528(2) 0.538(1) 1.277(1)
H74 H 0.438(2) 0.488(1) 1.248(1)
Br3 Br 1.3432(2) 1.3009(2) 0.808
C81 C 1.2514(9) 1.243(1) 0.8433(6)
C82 C 1.2645(9) 1.239(1) 0.887(1)
C83 C 1.200(1) 1.194(1) 0.9145(6)
C84 C 1.1270(9) 1.1564(8) 0.8990(5)
C85 C 1.1181(9) 1.165(1) 0.8532(7)
C86 C 1.1826(9) 1.2009(9) 0.8287(5)
C87 C 1.059(1) 1.108(1) 0.9287(5)
O13 O 1.0674(6) 1.1229(6) 0.9679(4)
N9 N 0.9930(6) 1.0469(7) 0.9121(4)
C88 C 0.9218(7) 1.0015(9) 0.9401(5)
C89 C 0.8620(8) 0.936(1) 0.9101(6)
C90 C 0.897(1) 1.051(1) 0.9613(6)
C91 C 0.896(2) 1.116(2) 0.9380(9)
C92 C 0.874(2) 1.168(2) 0.965(1)
C93 C 0.848(3) 1.095(4) 0.899(1)
C94 C 0.9394(7) 0.9565(9) 0.9765(5)
O14 O 0.8998(6) 0.9341(6) 1.0084(3)
N10 N 1.0002(8) 0.9471(6) 0.9680(3)
C95 C 1.0288(9) 0.914(1) 0.9977(5)
C96 C 1.111(1) 0.928(1) 0.9850(6)
C97 C 0.983(1) 0.825(1) 1.0084(8)
C98 C 0.964(2) 0.770(1) 0.971(1)
C99 C 1.0489(8) 0.9505(8) 1.0442(6)
O15 O 1.0550(7) 0.9210(6) 1.0762(4)
N11 N 1.0565(6) 1.0231(7) 1.0471(3)
C100 C 1.068(1) 1.067(1) 1.0874(5)
C101 C 1.057(1) 1.1366(9) 1.0778(6)
C102 C 1.148(1) 1.094(1) 1.1116(6)
C103 C 1.218(1) 1.121(1) 1.0814(8)
C104 C 1.289(1) 1.127(2) 1.105(1)
C105 C 1.245(2) 1.202(2) 1.065(2)
C106 C 1.0014(9) 1.0219(9) 1.1244(7)
O16 O 1.0132(7) 1.0354(7) 1.1628(3)
N12 N 0.9308(9) 0.9643(8) 1.1071(4)
C107 C 0.8567(9) 0.926(1) 1.1306(8)
C108 C 0.864(2) 0.896(2) 1.1747(9)
C109 C 0.796(1) 0.865(1) 1.1047(7)
C110 C 0.801(2) 0.792(2) 1.097(1)
C111 C 0.756(3) 0.756(3) 1.055(1)
C112 C 0.776(3) 0.731(2) 1.134(1)
C113 C 0.828(3) 0.974(2) 1.142(2)
O17 O 0.801(4) 0.977(2) 1.177(2)
O18 O 0.846(1) 1.037(1) 1.1195(7)
C114 C 0.831(3) 1.117(3) 1.114(3)
C115 C 0.900(3) 0.692(2) 0.987(2)
C116 C 1.022(4) 0.747(5) 0.961(3)
C118 C 0.897(5) 1.185(4) 1.094(2)
C119 C 0.751(4) 1.069(4) 1.098(2)
C120 C 0.798(6) 1.099(6) 1.160(3)
H75 H 1.3238(9) 1.269(1) 0.900(1)
H76 H 1.209(1) 1.193(1) 0.9494(6)
H77 H 1.0602(9) 1.143(1) 0.8390(7)
H78 H 1.1757(9) 1.1960(9) 0.7935(5)
H79 H 0.9915(6) 1.0308(7) 0.8781(4)
H80 H 0.8084(8) 0.899(1) 0.9282(6)
H81 H 0.8864(8) 0.900(1) 0.8990(6)
H82 H 0.8492(8) 0.961(1) 0.8822(6)
H83 H 0.936(1) 1.078(1) 0.9891(6)
H84 H 0.837(1) 1.013(1) 0.9727(6)
H85 H 1.0286(8) 0.9655(6) 0.9364(3)
H86 H 1.109(1) 0.905(1) 0.9525(6)
H87 H 1.129(1) 0.898(1) 1.0081(6)
H88 H 1.153(1) 0.990(1) 0.9856(6)
H89 H 0.928(1) 0.812(1) 1.0231(8)
H90 H 1.018(1) 0.813(1) 1.0320(8)
H91 H 1.0539(6) 1.0504(7) 1.0168(3)
H92 H 1.098(1) 1.1733(9) 1.0530(6)
H93 H 1.066(1) 1.1706(9) 1.1074(6)
H94 H 0.997(1) 1.1151(9) 1.0662(6)
H95 H 1.142(1) 1.045(1) 1.1306(6)
H96 H 1.159(1) 1.142(1) 1.1333(6)
H97 H 0.9308(9) 0.9462(8) 1.0736(4)
H98 H 0.889(2) 0.858(2) 1.1705(9)
H99 H 0.807(2) 0.863(2) 1.1903(9)
H100 H 0.903(2) 0.945(2) 1.1949(9)
H101 H 0.740(1) 0.847(1) 1.1204(7)
H102 H 0.797(1) 0.890(1) 1.0729(7)
C14? C 0.257(4) 0.845(4) 1.051(2)
C29? C 0.574(4) 0.733(4) 1.199(2)
C117? C 0.894(4) 0.757(4) 0.946(2)
loop_
_geom_bond_atom_site_label_1
_geom_bond_atom_site_label_2
_geom_bond_site_symmetry_1
_geom_bond_site_symmetry_2
Br1 C1 1_555 1_555
C1 C2 1_555 1_555
C2 C3 1_555 1_555
C3 C4 1_555 1_555
C4 C5 1_555 1_555
C5 C6 1_555 1_555
C6 C1 1_555 1_555
C7 C4 1_555 1_555
O1 C7 1_555 1_555
N1 C7 1_555 1_555
C8 N1 1_555 1_555
C9 C8 1_555 1_555
C10 C8 1_555 1_555
C11 C10 1_555 1_555
C12 C11 1_555 1_555
C13 C11 1_555 1_555
C15 C8 1_555 1_555
O2 C15 1_555 1_555
N2 C15 1_555 1_555
C16 N2 1_555 1_555
C17 C16 1_555 1_555
C18 C16 1_555 1_555
C19 C18 1_555 1_555
C20 C19 1_555 1_555
C21 C19 1_555 1_555
C22 C16 1_555 1_555
O3 C22 1_555 1_555
N3 C22 1_555 1_555
C23 N3 1_555 1_555
C24 C23 1_555 1_555
C25 C23 1_555 1_555
C26 C25 1_555 1_555
C27 C26 1_555 1_555
C28 C26 1_555 1_555
C30 C23 1_555 1_555
O4 C30 1_555 1_555
N4 C30 1_555 1_555
C31 N4 1_555 1_555
C32 C31 1_555 1_555
C33 C31 1_555 1_555
C34 C33 1_555 1_555
C35 C34 1_555 1_555
C36 C34 1_555 1_555
C37 C31 1_555 1_555
O5 C37 1_555 1_555
O6 C37 1_555 1_555
C38 O6 1_555 1_555
C39 C38 1_555 1_555
C40 C38 1_555 1_555
C41 C38 1_555 1_555
Br2 C42 1_555 1_555
C42 C43 1_555 1_555
C43 C44 1_555 1_555
C44 C45 1_555 1_555
C45 C46 1_555 1_555
C46 C47 1_555 1_555
C47 C42 1_555 1_555
C48 C45 1_555 1_555
O7 C48 1_555 1_555
N5 C48 1_555 1_555
C49 N5 1_555 1_555
C50 C49 1_555 1_555
C51 C49 1_555 1_555
C52 C51 1_555 1_555
C53 C52 1_555 1_555
C54 C52 1_555 1_555
C55 C49 1_555 1_555
O8 C55 1_555 1_555
N6 C55 1_555 1_555
C56 N6 1_555 1_555
C57 C56 1_555 1_555
C58 C56 1_555 1_555
C59 C58 1_555 1_555
C60 C59 1_555 1_555
C61 C59 1_555 1_555
C62 C56 1_555 1_555
O9 C62 1_555 1_555
N7 C62 1_555 1_555
C63 N7 1_555 1_555
C64 C63 1_555 1_555
C65 C63 1_555 1_555
C66 C65 1_555 1_555
C67 C66 1_555 1_555
C68 C66 1_555 1_555
C69 C63 1_555 1_555
O10 C69 1_555 1_555
N8 C69 1_555 1_555
C70 N8 1_555 1_555
C71 C70 1_555 1_555
C72 C70 1_555 1_555
C73 C72 1_555 1_555
C74 C73 1_555 1_555
C75 C73 1_555 1_555
C76 C70 1_555 1_555
O11 C76 1_555 1_555
O12 C76 1_555 1_555
C77 O12 1_555 1_555
C78 C77 1_555 1_555
C79 C77 1_555 1_555
C80 C77 1_555 1_555
Br3 C81 1_555 1_555
C81 C82 1_555 1_555
C82 C83 1_555 1_555
C83 C84 1_555 1_555
C84 C85 1_555 1_555
C85 C86 1_555 1_555
C86 C81 1_555 1_555
C87 C84 1_555 1_555
O13 C87 1_555 1_555
N9 C87 1_555 1_555
C88 N9 1_555 1_555
C89 C88 1_555 1_555
C90 C88 1_555 1_555
C91 C90 1_555 1_555
C92 C91 1_555 1_555
C93 C91 1_555 1_555
C94 C88 1_555 1_555
O14 C94 1_555 1_555
N10 C94 1_555 1_555
C95 N10 1_555 1_555
C96 C95 1_555 1_555
C97 C95 1_555 1_555
C98 C97 1_555 1_555
C99 C95 1_555 1_555
O15 C99 1_555 1_555
N11 C99 1_555 1_555
C100 N11 1_555 1_555
C101 C100 1_555 1_555
C102 C100 1_555 1_555
C103 C102 1_555 1_555
C104 C103 1_555 1_555
C105 C103 1_555 1_555
C106 C100 1_555 1_555
O16 C106 1_555 1_555
N12 C106 1_555 1_555
C107 N12 1_555 1_555
C108 C107 1_555 1_555
C109 C107 1_555 1_555
C110 C109 1_555 1_555
C111 C110 1_555 1_555
C112 C110 1_555 1_555
C113 C107 1_555 1_555
O17 C113 1_555 1_555
O18 C113 1_555 1_555
C114 O18 1_555 1_555
C115 C98 1_555 1_555
C116 C98 1_555 1_555
C118 C114 1_555 1_555
C119 C114 1_555 1_555
C120 C114 1_555 1_555
H1 C2 1_555 1_555
H2 C3 1_555 1_555
H3 C5 1_555 1_555
H4 C6 1_555 1_555
H5 N1 1_555 1_555
H6 C9 1_555 1_555
H7 C9 1_555 1_555
H8 C9 1_555 1_555
H9 C10 1_555 1_555
H10 C10 1_555 1_555
H11 N2 1_555 1_555
H12 C17 1_555 1_555
H13 C17 1_555 1_555
H14 C17 1_555 1_555
H15 C18 1_555 1_555
H16 C18 1_555 1_555
H17 N3 1_555 1_555
H18 C24 1_555 1_555
H19 C24 1_555 1_555
H20 C24 1_555 1_555
H21 C25 1_555 1_555
H22 C25 1_555 1_555
H23 N4 1_555 1_555
H24 C32 1_555 1_555
H25 C32 1_555 1_555
H26 C32 1_555 1_555
H27 C33 1_555 1_555
H28 C33 1_555 1_555
H29 C39 1_555 1_555
H30 C39 1_555 1_555
H31 C39 1_555 1_555
H32 C40 1_555 1_555
H33 C40 1_555 1_555
H34 C40 1_555 1_555
H35 C41 1_555 1_555
H36 C41 1_555 1_555
H37 C41 1_555 1_555
H38 C43 1_555 1_555
H39 C44 1_555 1_555
H40 C46 1_555 1_555
H41 C47 1_555 1_555
H42 N5 1_555 1_555
H43 C50 1_555 1_555
H44 C50 1_555 1_555
H45 C50 1_555 1_555
H46 C51 1_555 1_555
H47 C51 1_555 1_555
H48 N6 1_555 1_555
H49 C57 1_555 1_555
H50 C57 1_555 1_555
H51 C57 1_555 1_555
H52 C58 1_555 1_555
H53 C58 1_555 1_555
H54 N7 1_555 1_555
H55 C64 1_555 1_555
H56 C64 1_555 1_555
H57 C64 1_555 1_555
H58 C65 1_555 1_555
H59 C65 1_555 1_555
H60 N8 1_555 1_555
H61 C71 1_555 1_555
H62 C71 1_555 1_555
H63 C71 1_555 1_555
H64 C72 1_555 1_555
H65 C72 1_555 1_555
H66 C78 1_555 1_555
H67 C78 1_555 1_555
H68 C78 1_555 1_555
H69 C79 1_555 1_555
H70 C79 1_555 1_555
H71 C79 1_555 1_555
H72 C80 1_555 1_555
H73 C80 1_555 1_555
H74 C80 1_555 1_555
H75 C82 1_555 1_555
H76 C83 1_555 1_555
H77 C85 1_555 1_555
H78 C86 1_555 1_555
H79 N9 1_555 1_555
H80 C89 1_555 1_555
H81 C89 1_555 1_555
H82 C89 1_555 1_555
H83 C90 1_555 1_555
H84 C90 1_555 1_555
H85 N10 1_555 1_555
H86 C96 1_555 1_555
H87 C96 1_555 1_555
H88 C96 1_555 1_555
H89 C97 1_555 1_555
H90 C97 1_555 1_555
H91 N11 1_555 1_555
H92 C101 1_555 1_555
H93 C101 1_555 1_555
H94 C101 1_555 1_555
H95 C102 1_555 1_555
H96 C102 1_555 1_555
H97 N12 1_555 1_555
H98 C108 1_555 1_555
H99 C108 1_555 1_555
H100 C108 1_555 1_555
H101 C109 1_555 1_555
H102 C109 1_555 1_555

#END
