
#######################################################################
#
#                 Cambridge Crystallographic Data Centre
#                                CCDC 
#
#######################################################################
#
# If this CIF has been generated from an entry in the Cambridge 
# Structural Database, then it will include bibliographic, chemical, 
# crystal, experimental, refinement or atomic coordinate data resulting 
# from the CCDC's data processing and validation procedures.
#
#######################################################################

data_PIWNEO
_chemical_formula_moiety         'C54 H60 N6'
_chemical_name_systematic        
2,4,6,8,10,12-hexakis(2-Methylbenzyl)-2,4,6,8,10,12-hexa-azaisowurtzitane
_symmetry_cell_setting           monoclinic
_symmetry_space_group_name_H-M   'C 2/c'
_symmetry_Int_Tables_number      15
_space_group_name_Hall           '-C 2yn'
loop_
_symmetry_equiv_pos_site_id
_symmetry_equiv_pos_as_xyz
1 x,y,z
2 1/2+x,1/2+y,z
3 -x,y,1/2-z
4 1/2-x,1/2+y,1/2-z
5 -x,-y,-z
6 1/2-x,1/2-y,-z
7 x,-y,1/2+z
8 1/2+x,1/2-y,1/2+z
_cell_length_a                   16.996(4)
_cell_length_b                   14.201(3)
_cell_length_c                   19.845(5)
_cell_angle_alpha                90
_cell_angle_beta                 103.11(2)
_cell_angle_gamma                90
_cell_volume                     4664.95
_exptl_crystal_colour            colorless
_cell_formula_units_Z            4
loop_
_atom_site_label
_atom_site_type_symbol
_atom_site_fract_x
_atom_site_fract_y
_atom_site_fract_z
N1 N 0.5746(2) 0.6607(2) 0.3281(1)
N2 N 0.5903(2) 0.6588(2) 0.2174(1)
N3 N 0.5034(2) 0.5142(2) 0.1867(1)
C1 C 0.5473(2) 0.7098(3) 0.2619(2)
C2 C 0.5759(2) 0.5601(3) 0.2281(2)
C3 C 0.5697(2) 0.5598(2) 0.3060(2)
C4 C 0.6591(2) 0.6882(3) 0.3622(2)
C5 C 0.6633(2) 0.7839(3) 0.3946(2)
C6 C 0.6443(3) 0.7983(4) 0.4585(2)
C7 C 0.6504(4) 0.8896(6) 0.4843(4)
C8 C 0.6723(7) 0.9623(7) 0.4502(7)
C9 C 0.6929(6) 0.9486(6) 0.3867(5)
C10 C 0.6870(3) 0.8592(4) 0.3587(3)
C11 C 0.6213(3) 0.7196(5) 0.4993(2)
C12 C 0.5923(2) 0.6935(3) 0.1484(2)
C13 C 0.6315(2) 0.7896(3) 0.1534(2)
C14 C 0.7165(3) 0.7980(3) 0.1724(2)
C15 C 0.7512(4) 0.8843(5) 0.1761(3)
C16 C 0.7040(5) 0.9627(5) 0.1637(3)
C17 C 0.6203(5) 0.9588(4) 0.1456(3)
C18 C 0.5839(3) 0.8672(3) 0.1388(2)
C19 C 0.7714(3) 0.7138(4) 0.1887(2)
C20 C 0.5069(2) 0.4917(3) 0.1152(2)
C21 C 0.4582(2) 0.4056(3) 0.0887(2)
C22 C 0.4821(3) 0.3165(3) 0.1145(2)
C23 C 0.4356(4) 0.2389(3) 0.0843(3)
C24 C 0.3696(4) 0.2508(5) 0.0317(3)
C25 C 0.3446(3) 0.3383(5) 0.0070(2)
C26 C 0.3890(3) 0.4152(3) 0.0352(2)
C27 C 0.5555(3) 0.3011(3) 0.1706(2)
H1 H 0.5597(17) 0.7767(23) 0.2665(14)
H2 H 0.6276(19) 0.5193(21) 0.2225(14)
H3 H 0.6140(18) 0.5255(20) 0.3361(15)
H4 H 0.6916 0.6871 0.3285
H5 H 0.6808 0.6430 0.3976
H6 H 0.6385 0.9012 0.5286
H7 H 0.6752 1.0245 0.4696
H8 H 0.7095 1.0009 0.3626
H9 H 0.7004 0.8482 0.3149
H10 H 0.6101 0.7425 0.5417
H11 H 0.5744 0.6882 0.4727
H12 H 0.6657 0.6761 0.5096
H13 H 0.5381 0.6976 0.1210
H14 H 0.6220 0.6501 0.1265
H15 H 0.8089 0.8907 0.1868
H16 H 0.7288 1.0238 0.1685
H17 H 0.5875 1.0144 0.1366
H18 H 0.5262 0.8607 0.1249
H19 H 0.8267 0.7340 0.2003
H20 H 0.7593 0.6803 0.2272
H21 H 0.7629 0.6731 0.1491
H22 H 0.5621 0.4815 0.1130
H23 H 0.4865 0.5441 0.0860
H24 H 0.4510 0.1769 0.1016
H25 H 0.3400 0.1967 0.0106
H26 H 0.2964 0.3457 -0.0288
H27 H 0.3727 0.4770 0.0180
H28 H 0.5798 0.3609 0.1851
H29 H 0.5405 0.2708 0.2091
H30 H 0.5934 0.2623 0.1541
C1B C 0.4527(2) 0.7098(3) 0.2381(2)
C3B C 0.4303(2) 0.5598(2) 0.1940(2)
N3B N 0.4966(2) 0.5142(2) 0.3133(1)
N1B N 0.4254(2) 0.6607(2) 0.1719(1)
N2B N 0.4097(2) 0.6588(2) 0.2826(1)
H1B H 0.4403(17) 0.7767(23) 0.2335(14)
C2B C 0.4241(2) 0.5601(3) 0.2719(2)
H3B H 0.3860(18) 0.5255(20) 0.1639(15)
C20B C 0.4931(2) 0.4917(3) 0.3848(2)
C4B C 0.3409(2) 0.6882(3) 0.1378(2)
C12B C 0.4077(2) 0.6935(3) 0.3516(2)
H2B H 0.3724(19) 0.5193(21) 0.2775(14)
C21B C 0.5418(2) 0.4056(3) 0.4113(2)
H22B H 0.4379 0.4815 0.3870
H23B H 0.5135 0.5441 0.4140
C5B C 0.3367(2) 0.7839(3) 0.1054(2)
H4B H 0.3084 0.6871 0.1715
H5B H 0.3192 0.6430 0.1024
C13B C 0.3685(2) 0.7896(3) 0.3466(2)
H13B H 0.4619 0.6976 0.3790
H14B H 0.3780 0.6501 0.3735
C22B C 0.5179(3) 0.3165(3) 0.3855(2)
C26B C 0.6110(3) 0.4152(3) 0.4648(2)
C6B C 0.3557(3) 0.7983(4) 0.0415(2)
C10B C 0.3130(3) 0.8592(4) 0.1413(3)
C14B C 0.2835(3) 0.7980(3) 0.3276(2)
C18B C 0.4161(3) 0.8672(3) 0.3612(2)
C23B C 0.5644(4) 0.2389(3) 0.4157(3)
C27B C 0.4445(3) 0.3011(3) 0.3294(2)
C25B C 0.6554(3) 0.3383(5) 0.4930(2)
H27B H 0.6273 0.4770 0.4820
C7B C 0.3496(4) 0.8896(6) 0.0157(4)
C11B C 0.3787(3) 0.7196(5) 0.0007(2)
C9B C 0.3071(6) 0.9486(6) 0.1133(5)
H9B H 0.2996 0.8482 0.1851
C15B C 0.2488(4) 0.8843(5) 0.3239(3)
C19B C 0.2286(3) 0.7138(4) 0.3113(2)
C17B C 0.3797(5) 0.9588(4) 0.3544(3)
H18B H 0.4738 0.8607 0.3751
C24B C 0.6304(4) 0.2508(5) 0.4683(3)
H24B H 0.5490 0.1769 0.3984
H28B H 0.4202 0.3609 0.3149
H29B H 0.4595 0.2708 0.2909
H30B H 0.4066 0.2623 0.3459
H26B H 0.7036 0.3457 0.5288
C8B C 0.3277(7) 0.9623(7) 0.0498(7)
H6B H 0.3615 0.9012 -0.0286
H10B H 0.3899 0.7425 -0.0417
H11B H 0.4256 0.6882 0.0273
H12B H 0.3343 0.6761 -0.0096
H8B H 0.2905 1.0009 0.1374
C16B C 0.2960(5) 0.9627(5) 0.3363(3)
H15B H 0.1911 0.8907 0.3132
H19B H 0.1733 0.7340 0.2997
H20B H 0.2407 0.6803 0.2728
H21B H 0.2371 0.6731 0.3509
H17B H 0.4125 1.0144 0.3634
H25B H 0.6600 0.1967 0.4894
H7B H 0.3248 1.0245 0.0304
H16B H 0.2712 1.0238 0.3315
loop_
_geom_bond_atom_site_label_1
_geom_bond_atom_site_label_2
_geom_bond_site_symmetry_1
_geom_bond_site_symmetry_2
N1 C1 1_555 1_555
N2 C1 1_555 1_555
N3 C2 1_555 1_555
C1 H1 1_555 1_555
C2 N2 1_555 1_555
C3 N1 1_555 1_555
C4 N1 1_555 1_555
C5 C4 1_555 1_555
C6 C5 1_555 1_555
C7 C6 1_555 1_555
C8 C7 1_555 1_555
C9 C8 1_555 1_555
C10 C5 1_555 1_555
C11 C6 1_555 1_555
C12 N2 1_555 1_555
C13 C12 1_555 1_555
C14 C13 1_555 1_555
C15 C14 1_555 1_555
C16 C15 1_555 1_555
C17 C16 1_555 1_555
C18 C13 1_555 1_555
C19 C14 1_555 1_555
C20 N3 1_555 1_555
C21 C20 1_555 1_555
C22 C21 1_555 1_555
C23 C22 1_555 1_555
C24 C23 1_555 1_555
C25 C24 1_555 1_555
C26 C21 1_555 1_555
C27 C22 1_555 1_555
H2 C2 1_555 1_555
H3 C3 1_555 1_555
H4 C4 1_555 1_555
H5 C4 1_555 1_555
H6 C7 1_555 1_555
H7 C8 1_555 1_555
H8 C9 1_555 1_555
H9 C10 1_555 1_555
H10 C11 1_555 1_555
H11 C11 1_555 1_555
H12 C11 1_555 1_555
H13 C12 1_555 1_555
H14 C12 1_555 1_555
H15 C15 1_555 1_555
H16 C16 1_555 1_555
H17 C17 1_555 1_555
H18 C18 1_555 1_555
H19 C19 1_555 1_555
H20 C19 1_555 1_555
H21 C19 1_555 1_555
H22 C20 1_555 1_555
H23 C20 1_555 1_555
H24 C23 1_555 1_555
H25 C24 1_555 1_555
H26 C25 1_555 1_555
H27 C26 1_555 1_555
H28 C27 1_555 1_555
H29 C27 1_555 1_555
H30 C27 1_555 1_555
C1B C1 1_555 1_555
C3B N3 1_555 1_555
N3B C3 1_555 1_555
N1B C1B 1_555 1_555
N2B C1B 1_555 1_555
H1B C1B 1_555 1_555
C2B C3B 1_555 1_555
H3B C3B 1_555 1_555
C20B N3B 1_555 1_555
C4B N1B 1_555 1_555
C12B N2B 1_555 1_555
H2B C2B 1_555 1_555
C21B C20B 1_555 1_555
H22B C20B 1_555 1_555
H23B C20B 1_555 1_555
C5B C4B 1_555 1_555
H4B C4B 1_555 1_555
H5B C4B 1_555 1_555
C13B C12B 1_555 1_555
H13B C12B 1_555 1_555
H14B C12B 1_555 1_555
C22B C21B 1_555 1_555
C26B C21B 1_555 1_555
C6B C5B 1_555 1_555
C10B C5B 1_555 1_555
C14B C13B 1_555 1_555
C18B C13B 1_555 1_555
C23B C22B 1_555 1_555
C27B C22B 1_555 1_555
C25B C26B 1_555 1_555
H27B C26B 1_555 1_555
C7B C6B 1_555 1_555
C11B C6B 1_555 1_555
C9B C10B 1_555 1_555
H9B C10B 1_555 1_555
C15B C14B 1_555 1_555
C19B C14B 1_555 1_555
C17B C18B 1_555 1_555
H18B C18B 1_555 1_555
C24B C23B 1_555 1_555
H24B C23B 1_555 1_555
H28B C27B 1_555 1_555
H29B C27B 1_555 1_555
H30B C27B 1_555 1_555
H26B C25B 1_555 1_555
C8B C7B 1_555 1_555
H6B C7B 1_555 1_555
H10B C11B 1_555 1_555
H11B C11B 1_555 1_555
H12B C11B 1_555 1_555
H8B C9B 1_555 1_555
C16B C15B 1_555 1_555
H15B C15B 1_555 1_555
H19B C19B 1_555 1_555
H20B C19B 1_555 1_555
H21B C19B 1_555 1_555
H17B C17B 1_555 1_555
H25B C24B 1_555 1_555
H7B C8B 1_555 1_555
H16B C16B 1_555 1_555
C2 C3 1_555 1_555
C9 C10 1_555 1_555
C17 C18 1_555 1_555
C25 C26 1_555 1_555
C3B N1B 1_555 1_555
N3B C2B 1_555 1_555
N2B C2B 1_555 1_555
C25B C24B 1_555 1_555
C9B C8B 1_555 1_555
C17B C16B 1_555 1_555

#END
