
#######################################################################
#
#                 Cambridge Crystallographic Data Centre
#                                CCDC 
#
#######################################################################
#
# If this CIF has been generated from an entry in the Cambridge 
# Structural Database, then it will include bibliographic, chemical, 
# crystal, experimental, refinement or atomic coordinate data resulting 
# from the CCDC's data processing and validation procedures.
#
#######################################################################

data_PIWNAK
_chemical_formula_moiety         'C16 H18 N4'
_chemical_name_systematic        
"2,2'-Bi(1,2,3,4-tetrahydroquinazoline) unknown solvate"
_symmetry_cell_setting           rhombohedral
_symmetry_space_group_name_H-M   'R -3'
_symmetry_Int_Tables_number      148
_space_group_name_Hall           '-R 3'
loop_
_symmetry_equiv_pos_site_id
_symmetry_equiv_pos_as_xyz
1 x,y,z
2 1/3+x,2/3+y,2/3+z
3 2/3+x,1/3+y,1/3+z
4 -y,x-y,z
5 -x+y,-x,z
6 1/3-y,2/3+x-y,2/3+z
7 1/3-x+y,2/3-x,2/3+z
8 2/3-y,1/3+x-y,1/3+z
9 2/3-x+y,1/3-x,1/3+z
10 -x,-y,-z
11 2/3-x,1/3-y,1/3-z
12 1/3-x,2/3-y,2/3-z
13 y,-x+y,-z
14 x-y,x,-z
15 2/3+y,1/3-x+y,1/3-z
16 2/3+x-y,1/3+x,1/3-z
17 1/3+y,2/3-x+y,2/3-z
18 1/3+x-y,2/3+x,2/3-z
_cell_length_a                   39.027(19)
_cell_length_b                   39.027(19)
_cell_length_c                   4.965(3)
_cell_angle_alpha                90
_cell_angle_beta                 90
_cell_angle_gamma                120
_cell_volume                     6549.08
_exptl_crystal_colour            colorless
_chemical_melting_point          '180-182 deg.C'
_cell_formula_units_Z            18
loop_
_atom_site_label
_atom_site_type_symbol
_atom_site_fract_x
_atom_site_fract_y
_atom_site_fract_z
N1 N 0.5627(1) 0.0508(1) 0.7159(9)
C1 C 0.5900(1) 0.0833(2) 0.8938(9)
N2 N 0.6253(1) 0.1107(1) 0.7475(9)
C2 C 0.6468(2) 0.0907(2) 0.6561(12)
C3 C 0.6357(2) 0.0351(2) 0.3440(12)
C4 C 0.6112(2) 0.0003(2) 0.2049(13)
C5 C 0.5709(2) -0.0181(2) 0.2411(14)
C6 C 0.5548(2) -0.0020(2) 0.4142(13)
C7 C 0.5793(2) 0.0329(2) 0.5562(10)
C8 C 0.6204(2) 0.0517(2) 0.5189(10)
N3 N 0.5959(1) 0.1360(1) 1.1785(9)
C9 C 0.5688(2) 0.1041(2) 1.0013(10)
N4 N 0.5331(1) 0.0767(1) 1.1473(11)
C10 C 0.5126(2) 0.0979(2) 1.2334(13)
C11 C 0.5251(2) 0.1534(2) 1.5602(13)
C12 C 0.5497(3) 0.1878(3) 1.6932(15)
C13 C 0.5900(3) 0.2061(2) 1.6453(15)
C14 C 0.6056(2) 0.1901(2) 1.4668(13)
C15 C 0.5803(2) 0.1547(2) 1.3346(11)
C16 C 0.5395(2) 0.1360(2) 1.3771(11)
H1 H 0.5422 0.0327 0.7976
H2 H 0.5975 0.0728 1.0433
H3 H 0.6178 0.1209 0.6143
H4 H 0.6585 0.0859 0.8112
H5 H 0.6678 0.1077 0.5363
H6 H 0.6639 0.0480 0.3229
H7 H 0.6227 -0.0105 0.0854
H8 H 0.5539 -0.0418 0.1419
H9 H 0.5267 -0.0150 0.4413
H10 H 0.6160 0.1512 1.0980
H11 H 0.5615 0.1148 0.8526
H12 H 0.5395 0.0686 1.2786
H13 H 0.5019 0.1034 1.0761
H14 H 0.4909 0.0811 1.3495
H15 H 0.4971 0.1406 1.5907
H16 H 0.5389 0.1981 1.8231
H17 H 0.6069 0.2310 1.7312
H18 H 0.6337 0.2027 1.4381
C17? C 0.0000 0.0000 0.1707
C18? C 0.0000 0.0000 0.5000
loop_
_geom_bond_atom_site_label_1
_geom_bond_atom_site_label_2
_geom_bond_site_symmetry_1
_geom_bond_site_symmetry_2
N1 C1 1_555 1_555
C1 N2 1_555 1_555
N2 C2 1_555 1_555
C2 C8 1_555 1_555
C3 C4 1_555 1_555
C4 C5 1_555 1_555
C5 C6 1_555 1_555
C6 C7 1_555 1_555
C7 N1 1_555 1_555
C8 C3 1_555 1_555
N3 C9 1_555 1_555
C9 C1 1_555 1_555
N4 C9 1_555 1_555
C10 N4 1_555 1_555
C11 C12 1_555 1_555
C12 C13 1_555 1_555
C13 C14 1_555 1_555
C14 C15 1_555 1_555
C15 N3 1_555 1_555
C16 C10 1_555 1_555
H1 N1 1_555 1_555
H2 C1 1_555 1_555
H3 N2 1_555 1_555
H4 C2 1_555 1_555
H5 C2 1_555 1_555
H6 C3 1_555 1_555
H7 C4 1_555 1_555
H8 C5 1_555 1_555
H9 C6 1_555 1_555
H10 N3 1_555 1_555
H11 C9 1_555 1_555
H12 N4 1_555 1_555
H13 C10 1_555 1_555
H14 C10 1_555 1_555
H15 C11 1_555 1_555
H16 C12 1_555 1_555
H17 C13 1_555 1_555
H18 C14 1_555 1_555
C7 C8 1_555 1_555
C11 C16 1_555 1_555
C15 C16 1_555 1_555

#END
