
#######################################################################
#
#                 Cambridge Crystallographic Data Centre
#                                CCDC 
#
#######################################################################
#
# If this CIF has been generated from an entry in the Cambridge 
# Structural Database, then it will include bibliographic, chemical, 
# crystal, experimental, refinement or atomic coordinate data resulting 
# from the CCDC's data processing and validation procedures.
#
#######################################################################

data_PIWSIA
_chemical_formula_moiety         'C50 H60 B2 N2 S4 Si4,2(C4 H8 O1)'
_chemical_name_systematic        
"1,1'-[7,14-diphenyl-2,5,9,12-tetrakis(trimethylsilyl)-7,14-dihydro-7\l^5^,14\l^5^-[1,6]diborecino[3,2-b:4,5-b':8,7-b'':9,10-b''']tetrakisthiene-7,14-diyl]bis(1\l^5^-pyridine) tetrahydrofuran solvate"
_symmetry_cell_setting           monoclinic
_symmetry_space_group_name_H-M   'C 2/c'
_symmetry_Int_Tables_number      15
_space_group_name_Hall           '-C 2yn'
loop_
_symmetry_equiv_pos_site_id
_symmetry_equiv_pos_as_xyz
1 x,y,z
2 -x,y,1/2-z
3 1/2+x,1/2+y,z
4 1/2-x,1/2+y,1/2-z
5 -x,-y,-z
6 x,-y,1/2+z
7 1/2-x,1/2-y,-z
8 1/2+x,1/2-y,1/2+z
_cell_length_a                   24.857(17)
_cell_length_b                   13.292(9)
_cell_length_c                   20.455(14)
_cell_angle_alpha                90
_cell_angle_beta                 113.359(12)
_cell_angle_gamma                90
_cell_volume                     6204.4
_exptl_crystal_colour            yellow
_exptl_crystal_description       block
_cell_formula_units_Z            4
loop_
_atom_site_label
_atom_site_type_symbol
_atom_site_fract_x
_atom_site_fract_y
_atom_site_fract_z
C1 C 0.41834(13) 0.4679(2) 0.04504(15)
S1 S 0.40995(3) 0.65736(5) 0.25443(4)
S2 S 0.35709(3) 0.40029(6) 0.24197(4)
Si1 Si 0.28031(4) 0.22245(7) 0.14734(4)
Si2 Si 0.45495(4) 0.84840(6) 0.35304(5)
B1 B 0.46317(16) 0.4468(2) 0.12738(18)
C2 C 0.44450(13) 0.5402(2) 0.27437(15)
C3 C 0.49321(13) 0.5419(2) 0.33767(15)
C4 C 0.50027(13) 0.6411(2) 0.36786(15)
H1 H 0.5316 0.6566 0.4118
C5 C 0.45990(13) 0.7125(2) 0.33063(16)
C6 C 0.41487(13) 0.4556(2) 0.22644(15)
C7 C 0.42158(13) 0.4129(2) 0.16848(15)
C8 C 0.37885(13) 0.3346(2) 0.13936(15)
H2 H 0.3767 0.2970 0.0989
C9 C 0.34124(13) 0.3161(2) 0.17224(15)
C10 C 0.26095(16) 0.1994(3) 0.22557(18)
H3 H 0.2932 0.1640 0.2627
H4 H 0.2254 0.1583 0.2107
H5 H 0.2541 0.2639 0.2442
C11 C 0.21597(15) 0.2747(3) 0.07243(18)
H6 H 0.1865 0.2219 0.0525
H7 H 0.2283 0.2998 0.0355
H8 H 0.1992 0.3301 0.0898
C12 C 0.30823(17) 0.1049(3) 0.1206(2)
H9 H 0.3381 0.0737 0.1629
H10 H 0.3255 0.1218 0.0865
H11 H 0.2757 0.0577 0.0986
N1 N 0.50537(10) 0.34985(17) 0.12767(12)
C13 C 0.54149(13) 0.3576(2) 0.09228(15)
H12 H 0.5417 0.4184 0.0680
C14 C 0.57777(14) 0.2799(2) 0.09047(16)
H13 H 0.6012 0.2866 0.0636
C15 C 0.57991(15) 0.1922(2) 0.12800(17)
H14 H 0.6050 0.1383 0.1279
C16 C 0.54449(15) 0.1852(2) 0.16574(17)
H15 H 0.5455 0.1265 0.1927
C17 C 0.50776(14) 0.2636(2) 0.16406(16)
H16 H 0.4831 0.2569 0.1894
C18 C 0.41750(14) 0.4189(2) -0.01606(15)
H17 H 0.4464 0.3694 -0.0111
C19 C 0.37590(14) 0.4404(2) -0.08365(16)
H18 H 0.3770 0.4063 -0.1239
C20 C 0.33293(14) 0.5112(2) -0.09249(16)
H19 H 0.3047 0.5264 -0.1388
C21 C 0.33119(15) 0.5604(2) -0.03284(17)
H20 H 0.3014 0.6083 -0.0381
C22 C 0.37339(13) 0.5385(2) 0.03389(16)
H21 H 0.3720 0.5727 0.0740
C23 C 0.38790(16) 0.9047(3) 0.28424(19)
H22 H 0.3910 0.9032 0.2379
H23 H 0.3839 0.9745 0.2971
H24 H 0.3535 0.8661 0.2814
C24 C 0.52273(17) 0.9145(3) 0.3567(2)
H25 H 0.5574 0.8756 0.3863
H26 H 0.5246 0.9816 0.3773
H27 H 0.5216 0.9207 0.3084
C25 C 0.45103(18) 0.8593(3) 0.44175(19)
H28 H 0.4155 0.8258 0.4404
H29 H 0.4500 0.9305 0.4537
H30 H 0.4855 0.8272 0.4779
C1A C 0.58166(13) 0.4679(2) 0.45496(15)
S1A S 0.59005(3) 0.65736(5) 0.24557(4)
S2A S 0.64291(3) 0.40029(6) 0.25803(4)
Si1A Si 0.71969(4) 0.22245(7) 0.35266(4)
Si2A Si 0.54505(4) 0.84840(6) 0.14696(5)
B1A B 0.53683(16) 0.4468(2) 0.37262(18)
C2A C 0.55550(13) 0.5402(2) 0.22563(15)
C3A C 0.50679(13) 0.5419(2) 0.16233(15)
C4A C 0.49973(13) 0.6411(2) 0.13214(15)
H1A H 0.4684 0.6566 0.0882
C5A C 0.54010(13) 0.7125(2) 0.16937(16)
C6A C 0.58513(13) 0.4556(2) 0.27356(15)
C7A C 0.57842(13) 0.4129(2) 0.33152(15)
C8A C 0.62115(13) 0.3346(2) 0.36064(15)
H2A H 0.6233 0.2970 0.4011
C9A C 0.65876(13) 0.3161(2) 0.32776(15)
C10A C 0.73905(16) 0.1994(3) 0.27443(18)
H3A H 0.7068 0.1640 0.2373
H4A H 0.7746 0.1583 0.2893
H5A H 0.7459 0.2639 0.2558
C11A C 0.78403(15) 0.2747(3) 0.42757(18)
H6A H 0.8135 0.2219 0.4475
H7A H 0.7717 0.2998 0.4645
H8A H 0.8008 0.3301 0.4102
C12A C 0.69177(17) 0.1049(3) 0.3794(2)
H9A H 0.6619 0.0737 0.3371
H10A H 0.6745 0.1218 0.4135
H11A H 0.7243 0.0577 0.4014
N1A N 0.49463(10) 0.34985(17) 0.37233(12)
C13A C 0.45851(13) 0.3576(2) 0.40772(15)
H12A H 0.4583 0.4184 0.4320
C14A C 0.42223(14) 0.2799(2) 0.40953(16)
H13A H 0.3988 0.2866 0.4364
C15A C 0.42009(15) 0.1922(2) 0.37200(17)
H14A H 0.3950 0.1383 0.3721
C16A C 0.45551(15) 0.1852(2) 0.33426(17)
H15A H 0.4545 0.1265 0.3073
C17A C 0.49224(14) 0.2636(2) 0.33594(16)
H16A H 0.5169 0.2569 0.3106
C18A C 0.58250(14) 0.4189(2) 0.51606(15)
H17A H 0.5536 0.3694 0.5111
C19A C 0.62410(14) 0.4404(2) 0.58365(16)
H18A H 0.6230 0.4063 0.6239
C20A C 0.66707(14) 0.5112(2) 0.59249(16)
H19A H 0.6953 0.5264 0.6388
C21A C 0.66881(15) 0.5604(2) 0.53284(17)
H20A H 0.6986 0.6083 0.5381
C22A C 0.62661(13) 0.5385(2) 0.46611(16)
H21A H 0.6280 0.5727 0.4260
C23A C 0.61210(16) 0.9047(3) 0.21576(19)
H22A H 0.6090 0.9032 0.2621
H23A H 0.6161 0.9745 0.2029
H24A H 0.6465 0.8661 0.2186
C24A C 0.47727(17) 0.9145(3) 0.1433(2)
H25A H 0.4426 0.8756 0.1137
H26A H 0.4754 0.9816 0.1227
H27A H 0.4784 0.9207 0.1916
C25A C 0.54897(18) 0.8593(3) 0.05825(19)
H28A H 0.5845 0.8258 0.0596
H29A H 0.5500 0.9305 0.0463
H30A H 0.5145 0.8272 0.0221
O1 O 0.17961(13) 0.5403(2) 0.09817(15)
C26 C 0.18193(19) 0.6432(3) 0.0038(2)
H31 H 0.1574 0.7044 -0.0109
H32 H 0.1931 0.6219 -0.0355
C27 C 0.2372(2) 0.6621(3) 0.0733(2)
H33 H 0.2726 0.6719 0.0633
H34 H 0.2319 0.7209 0.0998
C28 C 0.23994(19) 0.5652(3) 0.1128(2)
H35 H 0.2586 0.5115 0.0955
H36 H 0.2626 0.5744 0.1645
C29 C 0.1499(2) 0.5594(3) 0.0243(2)
H37 H 0.1090 0.5797 0.0134
H38 H 0.1493 0.4977 -0.0032
loop_
_geom_bond_atom_site_label_1
_geom_bond_atom_site_label_2
_geom_bond_site_symmetry_1
_geom_bond_site_symmetry_2
C1 B1 1_555 1_555
S1 C2 1_555 1_555
S2 C6 1_555 1_555
Si1 C9 1_555 1_555
Si2 C5 1_555 1_555
B1 C7 1_555 1_555
C2 C3 1_555 1_555
C3 C4 1_555 1_555
C4 H1 1_555 1_555
C5 S1 1_555 1_555
C6 C2 1_555 1_555
C7 C6 1_555 1_555
C8 C7 1_555 1_555
H2 C8 1_555 1_555
C9 S2 1_555 1_555
C10 Si1 1_555 1_555
H3 C10 1_555 1_555
H4 C10 1_555 1_555
H5 C10 1_555 1_555
C11 Si1 1_555 1_555
H6 C11 1_555 1_555
H7 C11 1_555 1_555
H8 C11 1_555 1_555
C12 Si1 1_555 1_555
H9 C12 1_555 1_555
H10 C12 1_555 1_555
H11 C12 1_555 1_555
N1 B1 1_555 1_555
C13 N1 1_555 1_555
H12 C13 1_555 1_555
C14 C13 1_555 1_555
H13 C14 1_555 1_555
C15 C14 1_555 1_555
H14 C15 1_555 1_555
C16 C15 1_555 1_555
H15 C16 1_555 1_555
C17 N1 1_555 1_555
H16 C17 1_555 1_555
C18 C1 1_555 1_555
H17 C18 1_555 1_555
C19 C18 1_555 1_555
H18 C19 1_555 1_555
C20 C19 1_555 1_555
H19 C20 1_555 1_555
C21 C20 1_555 1_555
H20 C21 1_555 1_555
C22 C1 1_555 1_555
H21 C22 1_555 1_555
C23 Si2 1_555 1_555
H22 C23 1_555 1_555
H23 C23 1_555 1_555
H24 C23 1_555 1_555
C24 Si2 1_555 1_555
H25 C24 1_555 1_555
H26 C24 1_555 1_555
H27 C24 1_555 1_555
C25 Si2 1_555 1_555
H28 C25 1_555 1_555
H29 C25 1_555 1_555
H30 C25 1_555 1_555
O1 C28 1_555 1_555
C26 H31 1_555 1_555
H32 C26 1_555 1_555
C27 C26 1_555 1_555
H33 C27 1_555 1_555
H34 C27 1_555 1_555
C28 C27 1_555 1_555
H35 C28 1_555 1_555
H36 C28 1_555 1_555
C29 O1 1_555 1_555
H37 C29 1_555 1_555
H38 C29 1_555 1_555
C1A B1A 1_555 1_555
S1A C2A 1_555 1_555
S2A C6A 1_555 1_555
Si1A C9A 1_555 1_555
Si2A C5A 1_555 1_555
B1A C3 1_555 1_555
C2A C3A 1_555 1_555
C3A B1 1_555 1_555
C4A C3A 1_555 1_555
H1A C4A 1_555 1_555
C5A S1A 1_555 1_555
C6A C2A 1_555 1_555
C7A B1A 1_555 1_555
C8A C7A 1_555 1_555
H2A C8A 1_555 1_555
C9A S2A 1_555 1_555
C10A Si1A 1_555 1_555
H3A C10A 1_555 1_555
H4A C10A 1_555 1_555
H5A C10A 1_555 1_555
C11A Si1A 1_555 1_555
H6A C11A 1_555 1_555
H7A C11A 1_555 1_555
H8A C11A 1_555 1_555
C12A Si1A 1_555 1_555
H9A C12A 1_555 1_555
H10A C12A 1_555 1_555
H11A C12A 1_555 1_555
N1A B1A 1_555 1_555
C13A N1A 1_555 1_555
H12A C13A 1_555 1_555
C14A C13A 1_555 1_555
H13A C14A 1_555 1_555
C15A C14A 1_555 1_555
H14A C15A 1_555 1_555
C16A C15A 1_555 1_555
H15A C16A 1_555 1_555
C17A N1A 1_555 1_555
H16A C17A 1_555 1_555
C18A C1A 1_555 1_555
H17A C18A 1_555 1_555
C19A C18A 1_555 1_555
H18A C19A 1_555 1_555
C20A C19A 1_555 1_555
H19A C20A 1_555 1_555
C21A C20A 1_555 1_555
H20A C21A 1_555 1_555
C22A C1A 1_555 1_555
H21A C22A 1_555 1_555
C23A Si2A 1_555 1_555
H22A C23A 1_555 1_555
H23A C23A 1_555 1_555
H24A C23A 1_555 1_555
C24A Si2A 1_555 1_555
H25A C24A 1_555 1_555
H26A C24A 1_555 1_555
H27A C24A 1_555 1_555
C25A Si2A 1_555 1_555
H28A C25A 1_555 1_555
H29A C25A 1_555 1_555
H30A C25A 1_555 1_555
C4 C5 1_555 1_555
C8 C9 1_555 1_555
C16 C17 1_555 1_555
C21 C22 1_555 1_555
C26 C29 1_555 1_555
C4A C5A 1_555 1_555
C6A C7A 1_555 1_555
C8A C9A 1_555 1_555
C16A C17A 1_555 1_555
C21A C22A 1_555 1_555

#END
