
#######################################################################
#
#                 Cambridge Crystallographic Data Centre
#                                CCDC 
#
#######################################################################
#
# If this CIF has been generated from an entry in the Cambridge 
# Structural Database, then it will include bibliographic, chemical, 
# crystal, experimental, refinement or atomic coordinate data resulting 
# from the CCDC's data processing and validation procedures.
#
#######################################################################

data_PIWSOG
_chemical_formula_moiety         'C50 H60 B2 N2 S4 Si4,C5 H12'
_chemical_name_systematic        
"1-[4-{3'-[diphenyl(1\l^5^-pyridin-1-yl)-\l^5^-boranyl]-5,5'-bis(trimethylsilyl)[2,2'-bithiophen]-3-yl}-2,6-bis(trimethylsilyl)-4H-4\l^5^-borolo[3,2-b:4,5-b']bisthiophen-4-yl]-1\l^5^-pyridine n-pentane solvate"
_symmetry_cell_setting           monoclinic
_symmetry_space_group_name_H-M   'P 21/c'
_symmetry_Int_Tables_number      14
_space_group_name_Hall           '-P 2ybc'
loop_
_symmetry_equiv_pos_site_id
_symmetry_equiv_pos_as_xyz
1 x,y,z
2 -x,1/2+y,1/2-z
3 -x,-y,-z
4 x,1/2-y,1/2+z
_cell_length_a                   14.6929(4)
_cell_length_b                   32.2934(9)
_cell_length_c                   13.3418(3)
_cell_angle_alpha                90
_cell_angle_beta                 95.499(2)
_cell_angle_gamma                90
_cell_volume                     6301.33
_exptl_crystal_colour            yellow
_exptl_crystal_description       block
_cell_formula_units_Z            4
loop_
_atom_site_label
_atom_site_type_symbol
_atom_site_fract_x
_atom_site_fract_y
_atom_site_fract_z
Si1 Si 0.26546(9) 0.25075(4) 0.98113(10)
Si2 Si -0.30890(8) 0.10865(4) 1.06707(10)
Si3 Si 0.33391(8) 0.09135(5) 0.78853(11)
Si4 Si -0.32127(10) 0.03373(5) 0.56242(11)
S1 S 0.07877(7) 0.20247(3) 0.95324(7)
S2 S -0.10214(7) 0.13387(3) 1.09538(7)
S3 S 0.14526(7) 0.05597(4) 0.69374(9)
S4 S -0.10703(7) 0.03372(3) 0.60663(8)
N1 N 0.1326(2) 0.06196(9) 1.1037(2)
N2 N -0.0544(2) 0.17735(9) 0.7444(2)
B1 B 0.1461(3) 0.10672(13) 1.1621(3)
B2 B -0.0477(3) 0.13102(13) 0.7926(3)
C1 C 0.2649(4) 0.25550(17) 0.8417(4)
H1 H 0.2857 0.2300 0.8147
H2 H 0.3048 0.2776 0.8261
H3 H 0.2040 0.2613 0.8126
C2 C 0.2244(4) 0.29983(15) 1.0320(4)
H4 H 0.1636 0.3054 1.0023
H5 H 0.2643 0.3220 1.0164
H6 H 0.2242 0.2976 1.1037
C3 C 0.3807(4) 0.23841(19) 1.0432(5)
H7 H 0.3750 0.2268 1.1086
H8 H 0.4166 0.2633 1.0501
H9 H 0.4101 0.2187 1.0031
C4 C 0.1877(3) 0.20715(11) 1.0091(3)
C5 C 0.2051(3) 0.17465(12) 1.0732(3)
H10 H 0.2616 0.1717 1.1103
C6 C 0.1330(3) 0.14506(11) 1.0812(3)
C7 C 0.0582(2) 0.15690(10) 1.0169(3)
C8 C -0.0341(2) 0.14001(10) 0.9962(3)
C9 C -0.0835(2) 0.13160(10) 0.9045(3)
C10 C -0.1747(3) 0.12093(11) 0.9206(3)
H11 H -0.2173 0.1142 0.8670
C11 C -0.1978(3) 0.12095(11) 1.0169(3)
C12 C -0.3755(4) 0.0757(2) 0.9735(5)
H12 H -0.4239 0.0623 1.0046
H13 H -0.3361 0.0551 0.9488
H14 H -0.4010 0.0925 0.9185
C13 C -0.3718(4) 0.1567(2) 1.0869(6)
H15 H -0.3325 0.1757 1.1256
H16 H -0.4240 0.1506 1.1225
H17 H -0.3919 0.1689 1.0229
C14 C -0.2871(4) 0.0810(2) 1.1873(5)
H18 H -0.2558 0.0991 1.2364
H19 H -0.2499 0.0571 1.1781
H20 H -0.3441 0.0725 1.2102
C15 C 0.2518(3) 0.10508(12) 1.2111(3)
C16 C 0.3210(3) 0.09113(16) 1.1547(4)
H21 H 0.3051 0.0809 1.0902
C17 C 0.4123(4) 0.0919(2) 1.1913(5)
H22 H 0.4563 0.0820 1.1517
C18 C 0.3726(5) 0.1210(2) 1.3430(5)
H23 H 0.3895 0.1312 1.4073
C19 C 0.4382(4) 0.1072(2) 1.2853(6)
H24 H 0.4997 0.1083 1.3096
C20 C 0.2805(4) 0.11979(16) 1.3068(4)
H25 H 0.2371 0.1291 1.3478
C21 C 0.0739(3) 0.11000(14) 1.2468(3)
C22 C 0.0232(3) 0.07736(17) 1.2817(4)
H26 H 0.0288 0.0511 1.2544
C23 C -0.0353(4) 0.0832(2) 1.3559(5)
H27 H -0.0683 0.0608 1.3770
C24 C -0.0453(5) 0.1206(3) 1.3980(5)
H28 H -0.0843 0.1240 1.4483
C25 C 0.0026(5) 0.1531(2) 1.3656(4)
H29 H -0.0038 0.1791 1.3940
C26 C 0.0614(3) 0.14801(16) 1.2902(3)
H30 H 0.0929 0.1709 1.2688
C27 C 0.1549(3) 0.02711(13) 1.1565(3)
H31 H 0.1740 0.0294 1.2248
C28 C 0.1505(3) -0.01137(14) 1.1138(4)
H32 H 0.1652 -0.0348 1.1527
C29 C 0.1242(3) -0.01493(14) 1.0138(4)
H33 H 0.1212 -0.0408 0.9833
C30 C 0.1023(3) 0.01986(13) 0.9584(3)
H34 H 0.0847 0.0179 0.8897
C31 C 0.1068(3) 0.05791(12) 1.0058(3)
H35 H 0.0912 0.0815 0.9680
C32 C -0.1077(3) 0.20652(14) 0.7779(4)
H36 H -0.1427 0.2003 0.8304
C33 C -0.1125(4) 0.24586(16) 0.7368(5)
H37 H -0.1504 0.2658 0.7612
C34 C -0.0617(5) 0.25504(18) 0.6610(5)
H38 H -0.0648 0.2811 0.6312
C35 C -0.0069(5) 0.2258(2) 0.6298(6)
H39 H 0.0305 0.2319 0.5794
C36 C -0.0050(4) 0.18687(16) 0.6713(4)
H40 H 0.0324 0.1668 0.6467
C37 C -0.2124(3) 0.05682(13) 0.6183(3)
C38 C -0.1999(3) 0.09129(12) 0.6781(3)
H41 H -0.2483 0.1080 0.6932
C39 C -0.1079(2) 0.09988(11) 0.7155(2)
C40 C -0.0512(3) 0.07062(11) 0.6807(2)
C41 C 0.0439(3) 0.07808(12) 0.7173(3)
C42 C 0.0542(2) 0.11196(11) 0.7801(3)
C43 C 0.1479(3) 0.11919(12) 0.8084(3)
H42 H 0.1682 0.1409 0.8506
C44 C 0.2072(3) 0.09200(13) 0.7693(3)
C45 C 0.3709(4) 0.13208(18) 0.8818(4)
H43 H 0.3402 0.1282 0.9415
H44 H 0.3558 0.1588 0.8536
H45 H 0.4358 0.1303 0.8986
C46 C 0.3723(4) 0.0398(2) 0.8337(7)
H46 H 0.3494 0.0344 0.8974
H47 H 0.4380 0.0390 0.8415
H48 H 0.3498 0.0192 0.7858
C47 C 0.3814(4) 0.1030(3) 0.6676(5)
H49 H 0.4449 0.0955 0.6725
H50 H 0.3751 0.1320 0.6533
H51 H 0.3487 0.0874 0.6144
C48 C -0.3012(6) -0.0143(4) 0.5067(10)
H52 H -0.2411 -0.0239 0.5302
H53 H -0.3058 -0.0113 0.4349
H54 H -0.3458 -0.0340 0.5247
C49 C -0.3912(5) 0.0185(3) 0.6615(6)
H55 H -0.4545 0.0188 0.6359
H56 H -0.3816 0.0376 0.7168
H57 H -0.3744 -0.0089 0.6843
C50 C -0.3927(7) 0.0740(3) 0.5021(9)
H58 H -0.3822 0.0758 0.4323
H59 H -0.3780 0.1000 0.5344
H60 H -0.4558 0.0675 0.5076
C51 C 0.5777(16) 0.2681(7) 0.2934(17)
H61 H 0.5281 0.2751 0.3335
H62 H 0.5509 0.2488 0.2433
C52 C 0.6482(15) 0.2077(9) 0.423(2)
H63 H 0.6254 0.1843 0.3828
H64 H 0.6052 0.2114 0.4734
C53 C 0.7287(14) 0.1918(6) 0.4799(15)
H65 H 0.7536 0.1697 0.4432
H66 H 0.7130 0.1817 0.5436
H67 H 0.7732 0.2136 0.4908
C54 C 0.6311(15) 0.2413(7) 0.3595(17)
H68 H 0.6787 0.2357 0.3157
H69 H 0.6579 0.2624 0.4050
C55 C 0.5840(12) 0.3061(6) 0.2329(13)
H70 H 0.6272 0.3248 0.2674
H71 H 0.5251 0.3192 0.2235
H72 H 0.6039 0.2991 0.1686
loop_
_geom_bond_atom_site_label_1
_geom_bond_atom_site_label_2
_geom_bond_site_symmetry_1
_geom_bond_site_symmetry_2
Si1 C1 1_555 1_555
Si2 C11 1_555 1_555
Si3 C44 1_555 1_555
Si4 C37 1_555 1_555
S1 C4 1_555 1_555
S2 C8 1_555 1_555
S3 C41 1_555 1_555
S4 C37 1_555 1_555
N1 B1 1_555 1_555
N2 B2 1_555 1_555
B1 C6 1_555 1_555
B2 C9 1_555 1_555
C1 H1 1_555 1_555
H2 C1 1_555 1_555
H3 C1 1_555 1_555
C2 Si1 1_555 1_555
H4 C2 1_555 1_555
H5 C2 1_555 1_555
H6 C2 1_555 1_555
C3 Si1 1_555 1_555
H7 C3 1_555 1_555
H8 C3 1_555 1_555
H9 C3 1_555 1_555
C4 Si1 1_555 1_555
C5 C4 1_555 1_555
H10 C5 1_555 1_555
C6 C5 1_555 1_555
C7 S1 1_555 1_555
C8 C7 1_555 1_555
C9 C8 1_555 1_555
C10 C9 1_555 1_555
H11 C10 1_555 1_555
C11 S2 1_555 1_555
C12 Si2 1_555 1_555
H12 C12 1_555 1_555
H13 C12 1_555 1_555
H14 C12 1_555 1_555
C13 Si2 1_555 1_555
H15 C13 1_555 1_555
H16 C13 1_555 1_555
H17 C13 1_555 1_555
C14 Si2 1_555 1_555
H18 C14 1_555 1_555
H19 C14 1_555 1_555
H20 C14 1_555 1_555
C15 B1 1_555 1_555
C16 C15 1_555 1_555
H21 C16 1_555 1_555
C17 C16 1_555 1_555
H22 C17 1_555 1_555
C18 H23 1_555 1_555
C19 C17 1_555 1_555
H24 C19 1_555 1_555
C20 C15 1_555 1_555
H25 C20 1_555 1_555
C21 B1 1_555 1_555
C22 C21 1_555 1_555
H26 C22 1_555 1_555
C23 C22 1_555 1_555
H27 C23 1_555 1_555
C24 C23 1_555 1_555
H28 C24 1_555 1_555
C25 C24 1_555 1_555
H29 C25 1_555 1_555
C26 C21 1_555 1_555
H30 C26 1_555 1_555
C27 N1 1_555 1_555
H31 C27 1_555 1_555
C28 C27 1_555 1_555
H32 C28 1_555 1_555
C29 C28 1_555 1_555
H33 C29 1_555 1_555
C30 C29 1_555 1_555
H34 C30 1_555 1_555
C31 N1 1_555 1_555
H35 C31 1_555 1_555
C32 N2 1_555 1_555
H36 C32 1_555 1_555
C33 C32 1_555 1_555
H37 C33 1_555 1_555
C34 C33 1_555 1_555
H38 C34 1_555 1_555
C35 C34 1_555 1_555
H39 C35 1_555 1_555
C36 N2 1_555 1_555
H40 C36 1_555 1_555
C37 C38 1_555 1_555
C38 H41 1_555 1_555
C39 B2 1_555 1_555
C40 S4 1_555 1_555
C41 C40 1_555 1_555
C42 B2 1_555 1_555
C43 C42 1_555 1_555
H42 C43 1_555 1_555
C44 S3 1_555 1_555
C45 Si3 1_555 1_555
H43 C45 1_555 1_555
H44 C45 1_555 1_555
H45 C45 1_555 1_555
C46 Si3 1_555 1_555
H46 C46 1_555 1_555
H47 C46 1_555 1_555
H48 C46 1_555 1_555
C47 Si3 1_555 1_555
H49 C47 1_555 1_555
H50 C47 1_555 1_555
H51 C47 1_555 1_555
C48 Si4 1_555 1_555
H52 C48 1_555 1_555
H53 C48 1_555 1_555
H54 C48 1_555 1_555
C49 Si4 1_555 1_555
H55 C49 1_555 1_555
H56 C49 1_555 1_555
H57 C49 1_555 1_555
C50 Si4 1_555 1_555
H58 C50 1_555 1_555
H59 C50 1_555 1_555
H60 C50 1_555 1_555
C51 H61 1_555 1_555
H62 C51 1_555 1_555
C52 H63 1_555 1_555
H64 C52 1_555 1_555
C53 C52 1_555 1_555
H65 C53 1_555 1_555
H66 C53 1_555 1_555
H67 C53 1_555 1_555
C54 C51 1_555 1_555
H68 C54 1_555 1_555
H69 C54 1_555 1_555
C55 C51 1_555 1_555
H70 C55 1_555 1_555
H71 C55 1_555 1_555
H72 C55 1_555 1_555
C6 C7 1_555 1_555
C10 C11 1_555 1_555
C18 C19 1_555 1_555
C18 C20 1_555 1_555
C25 C26 1_555 1_555
C30 C31 1_555 1_555
C35 C36 1_555 1_555
C38 C39 1_555 1_555
C39 C40 1_555 1_555
C41 C42 1_555 1_555
C43 C44 1_555 1_555
C52 C54 1_555 1_555

#END
