
#######################################################################
#
#                 Cambridge Crystallographic Data Centre
#                                CCDC 
#
#######################################################################
#
# If this CIF has been generated from an entry in the Cambridge 
# Structural Database, then it will include bibliographic, chemical, 
# crystal, experimental, refinement or atomic coordinate data resulting 
# from the CCDC's data processing and validation procedures.
#
#######################################################################

data_PIWSUM
_chemical_formula_moiety         'C22 H21 B1 O1'
_chemical_name_systematic        
(biphenyl-2,2'-diyl)-phenyl-(tetrahydrofuran)-boron
_symmetry_cell_setting           rhombohedral
_symmetry_space_group_name_H-M   'R -3'
_symmetry_Int_Tables_number      148
_space_group_name_Hall           '-R 3'
loop_
_symmetry_equiv_pos_site_id
_symmetry_equiv_pos_as_xyz
1 x,y,z
2 -y,x-y,z
3 -x+y,-x,z
4 2/3+x,1/3+y,1/3+z
5 2/3-y,1/3+x-y,1/3+z
6 2/3-x+y,1/3-x,1/3+z
7 1/3+x,2/3+y,2/3+z
8 1/3-y,2/3+x-y,2/3+z
9 1/3-x+y,2/3-x,2/3+z
10 -x,-y,-z
11 y,-x+y,-z
12 x-y,x,-z
13 1/3-x,2/3-y,2/3-z
14 1/3+y,2/3-x+y,2/3-z
15 1/3+x-y,2/3+x,2/3-z
16 2/3-x,1/3-y,1/3-z
17 2/3+y,1/3-x+y,1/3-z
18 2/3+x-y,1/3+x,1/3-z
_cell_length_a                   20.095(5)
_cell_length_b                   20.095(5)
_cell_length_c                   22.551(6)
_cell_angle_alpha                90
_cell_angle_beta                 90
_cell_angle_gamma                120
_cell_volume                     7886.28
_exptl_crystal_colour            colorless
_exptl_crystal_description       block
_cell_formula_units_Z            18
loop_
_atom_site_label
_atom_site_type_symbol
_atom_site_fract_x
_atom_site_fract_y
_atom_site_fract_z
O1 O 1.02488(6) 0.68001(6) 1.05244(5)
B1 B 0.98924(10) 0.65844(10) 0.98614(8)
C1 C 1.03003(10) 0.62118(9) 1.08842(7)
H1 H 1.0150 0.5743 1.0647
H2 H 0.9963 0.6072 1.1237
C2 C 1.11363(10) 0.65863(10) 1.10673(9)
H3 H 1.1446 0.6506 1.0764
H4 H 1.1193 0.6384 1.1453
C3 C 1.13708(10) 0.74359(10) 1.11152(8)
H5 H 1.1189 0.7543 1.1492
H6 H 1.1935 0.7770 1.1088
C4 C 1.09742(9) 0.75499(9) 1.05895(7)
H7 H 1.0864 0.7971 1.0664
H8 H 1.1295 0.7672 1.0228
C5 C 1.04643(9) 0.65027(9) 0.93966(7)
C6 C 1.07385(9) 0.59873(9) 0.93514(7)
H9 H 1.0627 0.5622 0.9658
C7 C 1.11735(9) 0.60013(9) 0.88623(8)
H10 H 1.1359 0.5650 0.8840
C8 C 1.13341(9) 0.65305(10) 0.84089(7)
H11 H 1.1622 0.6534 0.8074
C9 C 1.10738(9) 0.70561(9) 0.84439(7)
H12 H 1.1187 0.7419 0.8135
C10 C 1.06455(8) 0.70449(9) 0.89351(7)
C11 C 1.03196(8) 0.75529(9) 0.90598(7)
C12 C 1.04006(9) 0.81750(9) 0.87268(7)
H13 H 1.0678 0.8308 0.8364
C13 C 1.00704(9) 0.85984(9) 0.89323(8)
H14 H 1.0130 0.9027 0.8711
C14 C 0.96542(9) 0.83963(9) 0.94600(7)
H15 H 0.9430 0.8687 0.9597
C15 C 0.95651(9) 0.77672(9) 0.97887(7)
H16 H 0.9275 0.7630 1.0146
C16 C 0.98973(8) 0.73388(9) 0.95981(7)
C17 C 0.90450(9) 0.58392(9) 0.99254(7)
C18 C 0.87540(9) 0.52374(9) 0.95107(8)
H17 H 0.9082 0.5243 0.9205
C19 C 0.79956(10) 0.46308(10) 0.95351(8)
H18 H 0.7811 0.4239 0.9242
C20 C 0.75126(9) 0.45997(9) 0.99855(8)
H19 H 0.6999 0.4184 1.0005
C21 C 0.77840(9) 0.51803(9) 1.04082(8)
H20 H 0.7459 0.5161 1.0721
C22 C 0.85345(9) 0.57898(9) 1.03705(7)
H21 H 0.8708 0.6188 1.0657
loop_
_geom_bond_atom_site_label_1
_geom_bond_atom_site_label_2
_geom_bond_site_symmetry_1
_geom_bond_site_symmetry_2
O1 B1 1_555 1_555
B1 C5 1_555 1_555
C1 O1 1_555 1_555
H1 C1 1_555 1_555
H2 C1 1_555 1_555
C2 C1 1_555 1_555
H3 C2 1_555 1_555
H4 C2 1_555 1_555
C3 C2 1_555 1_555
H5 C3 1_555 1_555
H6 C3 1_555 1_555
C4 O1 1_555 1_555
H7 C4 1_555 1_555
H8 C4 1_555 1_555
C5 C6 1_555 1_555
C6 H9 1_555 1_555
C7 C6 1_555 1_555
H10 C7 1_555 1_555
C8 C7 1_555 1_555
H11 C8 1_555 1_555
C9 C8 1_555 1_555
H12 C9 1_555 1_555
C10 C5 1_555 1_555
C11 C10 1_555 1_555
C12 C11 1_555 1_555
H13 C12 1_555 1_555
C13 C12 1_555 1_555
H14 C13 1_555 1_555
C14 C13 1_555 1_555
H15 C14 1_555 1_555
C15 C14 1_555 1_555
H16 C15 1_555 1_555
C16 B1 1_555 1_555
C17 B1 1_555 1_555
C18 C17 1_555 1_555
H17 C18 1_555 1_555
C19 C18 1_555 1_555
H18 C19 1_555 1_555
C20 C19 1_555 1_555
H19 C20 1_555 1_555
C21 C20 1_555 1_555
H20 C21 1_555 1_555
C22 C17 1_555 1_555
H21 C22 1_555 1_555
C3 C4 1_555 1_555
C9 C10 1_555 1_555
C11 C16 1_555 1_555
C15 C16 1_555 1_555
C21 C22 1_555 1_555

#END
