
#######################################################################
#
#                 Cambridge Crystallographic Data Centre
#                                CCDC 
#
#######################################################################
#
# If this CIF has been generated from an entry in the Cambridge 
# Structural Database, then it will include bibliographic, chemical, 
# crystal, experimental, refinement or atomic coordinate data resulting 
# from the CCDC's data processing and validation procedures.
#
#######################################################################

data_PIWSEW
_chemical_formula_moiety         'C52 H64 B2 N2 S4 Si4,C4 H8 O1'
_chemical_name_systematic        
"1,1'-[7,14-diphenyl-2,5,9,12-tetrakis(trimethylsilyl)-7,14-dihydro-7\l^5^,14\l^5^-[1,6]diborecino[3,2-b:4,5-b':8,7-b'':9,10-b''']tetrakisthiene-7,14-diyl]bis(4-methyl-1\l^5^-pyridine) tetrahydrofuran solvate"
_symmetry_cell_setting           monoclinic
_symmetry_space_group_name_H-M   'P 21/n'
_symmetry_Int_Tables_number      14
_space_group_name_Hall           '-P 2yn'
loop_
_symmetry_equiv_pos_site_id
_symmetry_equiv_pos_as_xyz
1 x,y,z
2 1/2-x,1/2+y,1/2-z
3 -x,-y,-z
4 1/2+x,1/2-y,1/2+z
_cell_length_a                   19.396(3)
_cell_length_b                   14.409(2)
_cell_length_c                   23.013(4)
_cell_angle_alpha                90
_cell_angle_beta                 112.663(2)
_cell_angle_gamma                90
_cell_volume                     5935
_exptl_crystal_colour            colorless
_exptl_crystal_description       block
_cell_formula_units_Z            4
loop_
_atom_site_label
_atom_site_type_symbol
_atom_site_fract_x
_atom_site_fract_y
_atom_site_fract_z
N1 N 0.40641(10) 0.37102(13) 0.06243(9)
N2 N 0.40448(11) 0.30113(13) 0.29387(9)
C1 C 0.44066(13) 0.35451(17) 0.02237(11)
H1 H 0.4778 0.3951 0.0219
C2 C 0.54633(13) 0.25183(16) 0.35237(11)
C3 C 0.50632(13) 0.42392(17) 0.30080(10)
C4 C 0.55050(13) 0.37941(16) 0.18277(10)
C5 C 0.49075(13) 0.25940(16) 0.23243(10)
C6 C 0.52613(15) 0.18581(18) 0.38732(11)
H2 H 0.4765 0.1825 0.3829
C7 C 0.46175(13) 0.49081(16) 0.26106(11)
C8 C 0.39003(13) 0.48256(16) 0.20707(11)
C9 C 0.29274(13) 0.47633(17) 0.11063(11)
H3 H 0.2707 0.4720 0.0670
C10 C 0.33806(14) 0.23059(18) 0.02700(12)
H4 H 0.3041 0.1880 0.0309
C11 C 0.62225(14) 0.25328(17) 0.36226(11)
H5 H 0.6386 0.2958 0.3399
C12 C 0.51685(13) 0.45701(16) 0.14871(10)
C13 C 0.56773(14) 0.46787(17) 0.34969(11)
H6 H 0.6040 0.4336 0.3809
C14 C 0.35721(13) 0.30737(17) 0.06539(11)
H7 H 0.3353 0.3156 0.0945
C15 C 0.37248(13) 0.47232(16) 0.14346(11)
C16 C 0.57202(13) 0.52714(17) 0.15683(11)
H8 H 0.5596 0.5848 0.1374
C17 C 0.57051(14) 0.56302(18) 0.34833(11)
C18 C 0.41652(14) 0.64384(17) 0.08527(12)
H9 H 0.4338 0.6486 0.1289
C19 C 0.36888(15) 0.21616(18) -0.01728(12)
C20 C 0.48695(14) 0.11924(17) 0.17550(11)
C21 C 0.40019(15) 0.72448(19) 0.04964(13)
H10 H 0.4066 0.7819 0.0695
C22 C 0.64413(14) 0.50491(17) 0.19483(11)
C23 C 0.34554(14) 0.26856(17) 0.24441(12)
H11 H 0.3520 0.2543 0.2074
C24 C 0.27660(15) 0.25563(18) 0.24653(14)
H12 H 0.2376 0.2327 0.2114
C25 C 0.51910(12) 0.28925(16) 0.18946(10)
C26 C 0.37978(14) 0.55389(18) -0.00799(11)
H13 H 0.3714 0.4969 -0.0285
C27 C 0.47303(13) 0.16234(17) 0.22274(11)
H14 H 0.4529 0.1302 0.2476
C28 C 0.25068(13) 0.48666(17) 0.14600(11)
C29 C 0.37440(16) 0.7198(2) -0.01546(14)
H15 H 0.3643 0.7738 -0.0395
C30 C 0.10965(15) 0.56988(19) 0.05436(12)
H16 H 0.1254 0.6316 0.0694
H17 H 0.0561 0.5669 0.0370
H18 H 0.1280 0.5543 0.0224
C31 C 0.36117(17) -0.0171(2) 0.12065(15)
H19 H 0.3474 -0.0079 0.1561
H20 H 0.3476 -0.0787 0.1044
H21 H 0.3356 0.0273 0.0884
C32 C 0.42253(15) 0.27964(18) -0.01786(12)
H22 H 0.4464 0.2715 -0.0457
C33 C 0.57718(16) 0.1250(2) 0.42831(13)
H23 H 0.5612 0.0813 0.4502
B1 B 0.42794(15) 0.46588(19) 0.10563(12)
C34 C 0.40790(13) 0.55533(17) 0.05794(11)
C35 C 0.39252(15) 0.32528(18) 0.34574(12)
H24 H 0.4316 0.3510 0.3796
C36 C 0.36398(16) 0.6343(2) -0.04382(13)
H25 H 0.3461 0.6302 -0.0875
C37 C 0.65118(16) 0.1288(2) 0.43683(13)
H26 H 0.6856 0.0882 0.4644
C38 C 0.12458(16) 0.5193(2) 0.18966(13)
H27 H 0.1489 0.4774 0.2239
H28 H 0.0715 0.5163 0.1781
H29 H 0.1416 0.5814 0.2025
C39 C 0.67366(15) 0.19426(19) 0.40366(12)
H30 H 0.7237 0.1983 0.4094
C40 C 0.26451(16) 0.27644(19) 0.30062(15)
C41 C 0.70953(17) 0.6927(2) 0.19384(14)
H31 H 0.6826 0.6953 0.1491
H32 H 0.7546 0.7285 0.2052
H33 H 0.6791 0.7178 0.2145
B2 B 0.48906(16) 0.31280(19) 0.29403(12)
C42 C 0.10929(16) 0.36802(19) 0.09580(14)
H34 H 0.1261 0.3455 0.0642
H35 H 0.0557 0.3704 0.0788
H36 H 0.1264 0.3271 0.1315
C43 C 0.32445(16) 0.31328(19) 0.35043(14)
H37 H 0.3186 0.3300 0.3873
C44 C 0.72313(17) 0.5849(2) 0.45323(14)
H38 H 0.7110 0.5374 0.4769
H39 H 0.7576 0.6280 0.4816
H40 H 0.7456 0.5571 0.4268
C45 C 0.19022(19) 0.2591(2) 0.3052(2)
H41 H 0.1950 0.2090 0.3340
H42 H 0.1539 0.2430 0.2644
H43 H 0.1744 0.3141 0.3201
C46 C 0.7838(2) 0.5610(3) 0.30562(15)
H44 H 0.7531 0.5857 0.3262
H45 H 0.8296 0.5956 0.3184
H46 H 0.7947 0.4970 0.3171
C47 C 0.5117(2) -0.0872(2) 0.20855(16)
H47 H 0.5647 -0.0824 0.2201
H48 H 0.4954 -0.1486 0.1934
H49 H 0.4999 -0.0747 0.2447
C48 C 0.79237(18) 0.5155(2) 0.18043(18)
H50 H 0.7992 0.4509 0.1914
H51 H 0.8401 0.5457 0.1947
H52 H 0.7682 0.5216 0.1355
C49 C 0.6566(2) 0.7436(2) 0.35868(16)
H53 H 0.6791 0.7191 0.3313
H54 H 0.6902 0.7869 0.3875
H55 H 0.6108 0.7746 0.3340
C50 C 0.4915(2) -0.0157(2) 0.07750(17)
H56 H 0.4679 0.0315 0.0468
H57 H 0.4762 -0.0758 0.0589
H58 H 0.5448 -0.0101 0.0915
C51 C 0.34391(19) 0.1361(2) -0.06250(15)
H59 H 0.3723 0.1353 -0.0886
H60 H 0.2918 0.1429 -0.0884
H61 H 0.3516 0.0790 -0.0393
C52 C 0.5941(2) 0.6969(3) 0.45645(18)
H62 H 0.5511 0.7331 0.4321
H63 H 0.6299 0.7356 0.4874
H64 H 0.5792 0.6475 0.4771
S1 S 0.52548(3) 0.19931(4) 0.14107(3)
S2 S 0.64564(3) 0.39326(4) 0.22205(3)
S3 S 0.31036(3) 0.49657(4) 0.22396(3)
Si1 Si 0.14742(4) 0.48624(5) 0.12078(3)
S4 S 0.49509(4) 0.60207(4) 0.28402(3)
Si2 Si 0.46354(4) -0.00164(5) 0.14578(3)
Si3 Si 0.73329(4) 0.57033(6) 0.21855(4)
Si4 Si 0.63670(4) 0.64715(5) 0.40352(4)
O1 O 0.20237(14) 0.14541(16) 0.08858(11)
C53 C 0.15509(19) 0.1498(2) 0.02424(15)
H65 H 0.1742 0.1105 -0.0004
H66 H 0.1523 0.2130 0.0089
C54 C 0.0798(2) 0.1173(3) 0.01857(17)
H67 H 0.0568 0.0790 -0.0185
H68 H 0.0472 0.1694 0.0165
C55 C 0.0959(2) 0.0619(4) 0.0778(2)
H69 H 0.0659 0.0839 0.1003
H70 H 0.0852 -0.0033 0.0680
C56 C 0.1735(3) 0.0753(3) 0.11462(19)
H71 H 0.1802 0.0920 0.1573
H72 H 0.2003 0.0179 0.1163
loop_
_geom_bond_atom_site_label_1
_geom_bond_atom_site_label_2
_geom_bond_site_symmetry_1
_geom_bond_site_symmetry_2
N1 C1 1_555 1_555
N2 C23 1_555 1_555
C1 H1 1_555 1_555
C2 C6 1_555 1_555
C3 C7 1_555 1_555
C4 C12 1_555 1_555
C5 C25 1_555 1_555
C6 H2 1_555 1_555
C7 C8 1_555 1_555
C8 C15 1_555 1_555
C9 H3 1_555 1_555
C10 H4 1_555 1_555
C11 C2 1_555 1_555
H5 C11 1_555 1_555
C12 C16 1_555 1_555
C13 C3 1_555 1_555
H6 C13 1_555 1_555
C14 N1 1_555 1_555
H7 C14 1_555 1_555
C15 C9 1_555 1_555
C16 H8 1_555 1_555
C17 C13 1_555 1_555
C18 H9 1_555 1_555
C19 C10 1_555 1_555
C20 C27 1_555 1_555
C21 C18 1_555 1_555
H10 C21 1_555 1_555
C22 C16 1_555 1_555
C23 H11 1_555 1_555
C24 C23 1_555 1_555
H12 C24 1_555 1_555
C25 C4 1_555 1_555
C26 H13 1_555 1_555
C27 C5 1_555 1_555
H14 C27 1_555 1_555
C28 C9 1_555 1_555
C29 C21 1_555 1_555
H15 C29 1_555 1_555
C30 H16 1_555 1_555
H17 C30 1_555 1_555
H18 C30 1_555 1_555
C31 H19 1_555 1_555
H20 C31 1_555 1_555
H21 C31 1_555 1_555
C32 C1 1_555 1_555
H22 C32 1_555 1_555
C33 C6 1_555 1_555
H23 C33 1_555 1_555
B1 N1 1_555 1_555
C34 C18 1_555 1_555
C35 N2 1_555 1_555
H24 C35 1_555 1_555
C36 C26 1_555 1_555
H25 C36 1_555 1_555
C37 C33 1_555 1_555
H26 C37 1_555 1_555
C38 H27 1_555 1_555
H28 C38 1_555 1_555
H29 C38 1_555 1_555
C39 C11 1_555 1_555
H30 C39 1_555 1_555
C40 C24 1_555 1_555
C41 H31 1_555 1_555
H32 C41 1_555 1_555
H33 C41 1_555 1_555
B2 N2 1_555 1_555
C42 H34 1_555 1_555
H35 C42 1_555 1_555
H36 C42 1_555 1_555
C43 C35 1_555 1_555
H37 C43 1_555 1_555
C44 H38 1_555 1_555
H39 C44 1_555 1_555
H40 C44 1_555 1_555
C45 C40 1_555 1_555
H41 C45 1_555 1_555
H42 C45 1_555 1_555
H43 C45 1_555 1_555
C46 H44 1_555 1_555
H45 C46 1_555 1_555
H46 C46 1_555 1_555
C47 H47 1_555 1_555
H48 C47 1_555 1_555
H49 C47 1_555 1_555
C48 H50 1_555 1_555
H51 C48 1_555 1_555
H52 C48 1_555 1_555
C49 H53 1_555 1_555
H54 C49 1_555 1_555
H55 C49 1_555 1_555
C50 H56 1_555 1_555
H57 C50 1_555 1_555
H58 C50 1_555 1_555
C51 C19 1_555 1_555
H59 C51 1_555 1_555
H60 C51 1_555 1_555
H61 C51 1_555 1_555
C52 H62 1_555 1_555
H63 C52 1_555 1_555
H64 C52 1_555 1_555
S1 C20 1_555 1_555
S2 C4 1_555 1_555
S3 C8 1_555 1_555
Si1 C28 1_555 1_555
S4 C7 1_555 1_555
Si2 C20 1_555 1_555
Si3 C22 1_555 1_555
Si4 C17 1_555 1_555
O1 C53 1_555 1_555
C53 H65 1_555 1_555
H66 C53 1_555 1_555
C54 C53 1_555 1_555
H67 C54 1_555 1_555
H68 C54 1_555 1_555
C55 C54 1_555 1_555
H69 C55 1_555 1_555
H70 C55 1_555 1_555
C56 O1 1_555 1_555
H71 C56 1_555 1_555
H72 C56 1_555 1_555
C2 B2 1_555 1_555
C3 B2 1_555 1_555
C5 B2 1_555 1_555
C10 C14 1_555 1_555
C12 B1 1_555 1_555
C15 B1 1_555 1_555
C17 S4 1_555 1_555
C19 C32 1_555 1_555
C22 S2 1_555 1_555
C25 S1 1_555 1_555
C26 C34 1_555 1_555
C28 S3 1_555 1_555
C29 C36 1_555 1_555
C30 Si1 1_555 1_555
C31 Si2 1_555 1_555
B1 C34 1_555 1_555
C37 C39 1_555 1_555
C38 Si1 1_555 1_555
C40 C43 1_555 1_555
C41 Si3 1_555 1_555
C42 Si1 1_555 1_555
C44 Si4 1_555 1_555
C46 Si3 1_555 1_555
C47 Si2 1_555 1_555
C48 Si3 1_555 1_555
C49 Si4 1_555 1_555
C50 Si2 1_555 1_555
C52 Si4 1_555 1_555
C55 C56 1_555 1_555

#END
