
#######################################################################
#
#                 Cambridge Crystallographic Data Centre
#                                CCDC 
#
#######################################################################
#
# If this CIF has been generated from an entry in the Cambridge 
# Structural Database, then it will include bibliographic, chemical, 
# crystal, experimental, refinement or atomic coordinate data resulting 
# from the CCDC's data processing and validation procedures.
#
#######################################################################

data_PIWTUL
_chemical_formula_moiety         'C14 H18 N1 O1 1+,C20 H17 O8 1-,C2 H3 N1'
_chemical_name_systematic        
'(3aS,6aR)-2-Benzyl-4-oxo-octahydrocyclopenta[c]pyrrolium L-2,3-bis((4-methylbenzoyl)oxy)succinate acetonitrile solvate'
_symmetry_cell_setting           monoclinic
_symmetry_space_group_name_H-M   'P 21'
_symmetry_Int_Tables_number      4
_space_group_name_Hall           'P 2yb'
loop_
_symmetry_equiv_pos_site_id
_symmetry_equiv_pos_as_xyz
1 x,y,z
2 -x,1/2+y,-z
_cell_length_a                   7.7815(5)
_cell_length_b                   16.5558(10)
_cell_length_c                   13.4054(9)
_cell_angle_alpha                90
_cell_angle_beta                 104.019(4)
_cell_angle_gamma                90
_cell_volume                     1675.57
_cell_formula_units_Z            2
_exptl_crystal_recrystallization_method isopropanol
loop_
_atom_site_label
_atom_site_type_symbol
_atom_site_fract_x
_atom_site_fract_y
_atom_site_fract_z
O1 O -0.4517(2) 1.19969(12) 0.50153(17)
N1 N 0.0827(3) 1.24183(14) 0.59656(19)
C1 C -0.3228(4) 1.17771(17) 0.4713(2)
C2 C -0.3074(4) 1.1750(2) 0.3619(3)
C3 C -0.1090(4) 1.18205(18) 0.3708(2)
C4 C -0.0216(4) 1.13858(17) 0.4725(2)
C5 C 0.1463(3) 1.17790(17) 0.5338(2)
C6 C -0.0699(4) 1.20332(18) 0.6296(2)
C7 C -0.1539(4) 1.14698(17) 0.5417(2)
C8 C 0.2308(4) 1.26966(19) 0.6831(2)
C9 C 0.1815(3) 1.33569(18) 0.7483(2)
C10 C 0.1842(6) 1.3198(2) 0.8483(3)
C11 C 0.1487(7) 1.3802(2) 0.9118(3)
C12 C 0.1098(5) 1.4569(2) 0.8750(3)
C13 C 0.1062(4) 1.4726(2) 0.7748(3)
C14 C 0.1415(4) 1.41295(19) 0.7116(3)
H1 H -0.0004 1.0804 0.4596
H2 H 0.035(4) 1.2864(19) 0.552(2)
H3 H -0.1752 1.0929 0.5697
H4 H -0.3722 1.2205 0.3217
H5 H -0.3544 1.1236 0.3285
H6 H -0.0722 1.2394 0.3733
H7 H -0.0763 1.1556 0.3118
H8 H 0.2226 1.1380 0.5789
H9 H 0.2138 1.2024 0.4877
H10 H 0.2107 1.2668 0.8748
H11 H 0.1514 1.3684 0.9816
H12 H 0.0858 1.4984 0.9186
H13 H 0.0788 1.5255 0.7484
H14 H 0.1384 1.4250 0.6419
H15 H 0.3289 1.2892 0.6542
H16 H 0.2754 1.2228 0.7278
H17 H -0.1558 1.2447 0.6399
H18 H -0.0276 1.1728 0.6943
O2 O 0.4267(3) 0.87069(11) 0.32852(15)
O3 O 0.4491(2) 0.95887(10) 0.45930(12)
O4 O 0.4741(2) 0.97770(10) 0.67152(13)
O5 O 0.4550(3) 0.91834(12) 0.81972(16)
O6 O 0.7939(3) 0.94715(11) 0.53320(15)
O7 O 0.7742(2) 0.84663(13) 0.64019(18)
O8 O 0.1545(2) 0.84614(11) 0.51521(14)
O9 O 0.1211(2) 0.95718(11) 0.60384(14)
C15 C 0.4128(3) 0.93861(16) 0.3586(2)
C16 C 0.5077(3) 0.89495(15) 0.5323(2)
C17 C 0.4129(3) 0.90407(16) 0.6175(2)
C18 C 0.4898(4) 0.97717(17) 0.7742(2)
C19 C 0.3567(3) 1.00938(16) 0.29170(19)
C20 C 0.3069(3) 1.08147(16) 0.3295(2)
C21 C 0.2593(3) 1.14759(17) 0.2654(2)
C22 C 0.2572(4) 1.14237(19) 0.1623(2)
C23 C 0.3055(5) 1.0700(2) 0.1250(2)
C24 C 0.3552(4) 1.00397(19) 0.1888(2)
C25 C 0.2101(6) 1.2158(2) 0.0938(3)
C26 C 0.7074(3) 0.89485(16) 0.5738(2)
C27 C 0.2113(3) 0.90287(16) 0.5749(2)
C28 C 0.5541(4) 1.05518(17) 0.8232(2)
C29 C 0.5771(5) 1.0622(2) 0.9280(2)
C30 C 0.6290(5) 1.1346(2) 0.9773(3)
C31 C 0.6600(4) 1.20177(19) 0.9227(3)
C32 C 0.6409(4) 1.19385(17) 0.8181(2)
C33 C 0.5895(3) 1.12182(16) 0.7680(2)
C34 C 0.7096(6) 1.2823(2) 0.9759(3)
H19 H 0.4720 0.8422 0.4970
H20 H 0.4468 0.8578 0.6662
H21 H 0.3055 1.0855 0.4000
H22 H 0.2279 1.1969 0.2926
H23 H 0.3045 1.0656 0.0542
H24 H 0.3883 0.9549 0.1618
H25 H 0.3171 1.2368 0.0765
H26 H 0.1593 1.2575 0.1299
H27 H 0.1234 1.2005 0.0305
H28 H 0.5571 1.0166 0.9669
H29 H 0.6436 1.1383 1.0496
H30 H 0.6638 1.2391 0.7797
H31 H 0.5782 1.1177 0.6960
H32 H 0.6026 1.3150 0.9704
H33 H 0.7917 1.3109 0.9432
H34 H 0.7667 1.2732 1.0486
H35 H 0.932(5) 0.945(2) 0.561(3)
N2 N 0.1078(5) 1.0946(2) 0.8429(3)
C35 C 0.0750(5) 1.0288(3) 0.8413(3)
C36 C 0.0340(6) 0.9422(2) 0.8409(3)
H36 H -0.0524 0.9327 0.8821
H37 H 0.1426 0.9119 0.8704
H38 H -0.0157 0.9242 0.7702
loop_
_geom_bond_atom_site_label_1
_geom_bond_atom_site_label_2
_geom_bond_site_symmetry_1
_geom_bond_site_symmetry_2
O1 C1 1_555 1_555
N1 C5 1_555 1_555
C1 C2 1_555 1_555
C2 C3 1_555 1_555
C3 C4 1_555 1_555
C4 C5 1_555 1_555
C5 H8 1_555 1_555
C6 N1 1_555 1_555
C7 C1 1_555 1_555
C8 N1 1_555 1_555
C9 C8 1_555 1_555
C10 C9 1_555 1_555
C11 C10 1_555 1_555
C12 C11 1_555 1_555
C13 C12 1_555 1_555
C14 C9 1_555 1_555
H1 C4 1_555 1_555
H2 N1 1_555 1_555
H3 C7 1_555 1_555
H4 C2 1_555 1_555
H5 C2 1_555 1_555
H6 C3 1_555 1_555
H7 C3 1_555 1_555
H9 C5 1_555 1_555
H10 C10 1_555 1_555
H11 C11 1_555 1_555
H12 C12 1_555 1_555
H13 C13 1_555 1_555
H14 C14 1_555 1_555
H15 C8 1_555 1_555
H16 C8 1_555 1_555
H17 C6 1_555 1_555
H18 C6 1_555 1_555
O2 C15 1_555 1_555
O3 C15 1_555 1_555
O4 C17 1_555 1_555
O5 C18 1_555 1_555
O6 C26 1_555 1_555
O7 C26 1_555 1_555
O8 C27 1_555 1_555
O9 C27 1_555 1_555
C15 C19 1_555 1_555
C16 O3 1_555 1_555
C17 C16 1_555 1_555
C18 O4 1_555 1_555
C19 C20 1_555 1_555
C20 C21 1_555 1_555
C21 C22 1_555 1_555
C22 C23 1_555 1_555
C23 C24 1_555 1_555
C24 C19 1_555 1_555
C25 C22 1_555 1_555
C26 C16 1_555 1_555
C27 C17 1_555 1_555
C28 C18 1_555 1_555
C29 C28 1_555 1_555
C30 C29 1_555 1_555
C31 C30 1_555 1_555
C32 C31 1_555 1_555
C33 C28 1_555 1_555
C34 C31 1_555 1_555
H19 C16 1_555 1_555
H20 C17 1_555 1_555
H21 C20 1_555 1_555
H22 C21 1_555 1_555
H23 C23 1_555 1_555
H24 C24 1_555 1_555
H25 C25 1_555 1_555
H26 C25 1_555 1_555
H27 C25 1_555 1_555
H28 C29 1_555 1_555
H29 C30 1_555 1_555
H30 C32 1_555 1_555
H31 C33 1_555 1_555
H32 C34 1_555 1_555
H33 C34 1_555 1_555
H34 C34 1_555 1_555
H35 O6 1_555 1_555
N2 C35 1_555 1_555
C35 C36 1_555 1_555
C36 H36 1_555 1_555
H37 C36 1_555 1_555
H38 C36 1_555 1_555
C4 C7 1_555 1_555
C6 C7 1_555 1_555
C13 C14 1_555 1_555
C32 C33 1_555 1_555

#END
