
#######################################################################
#
#                 Cambridge Crystallographic Data Centre
#                                CCDC 
#
#######################################################################
#
# If this CIF has been generated from an entry in the Cambridge 
# Structural Database, then it will include bibliographic, chemical, 
# crystal, experimental, refinement or atomic coordinate data resulting 
# from the CCDC's data processing and validation procedures.
#
#######################################################################

data_PIWVOI
_chemical_formula_moiety         'C13 H14 F1 N1 O2'
_chemical_name_systematic        
2-t-Butyl-4-fluoro-3-phenyl-1,2-oxazol-5(2H)-one
_symmetry_cell_setting           monoclinic
_symmetry_space_group_name_H-M   'P 21/c'
_symmetry_Int_Tables_number      14
_space_group_name_Hall           '-P 2ybc'
loop_
_symmetry_equiv_pos_site_id
_symmetry_equiv_pos_as_xyz
1 x,y,z
2 -x,1/2+y,1/2-z
3 -x,-y,-z
4 x,1/2-y,1/2+z
_cell_length_a                   10.7313(2)
_cell_length_b                   14.2388(3)
_cell_length_c                   16.8595(3)
_cell_angle_alpha                90
_cell_angle_beta                 113.6430(10)
_cell_angle_gamma                90
_cell_volume                     2359.91
_exptl_crystal_colour            colorless
_exptl_crystal_description       prism
_cell_formula_units_Z            8
loop_
_atom_site_label
_atom_site_type_symbol
_atom_site_fract_x
_atom_site_fract_y
_atom_site_fract_z
C1 C -0.13876(14) 0.67105(10) 0.65405(9)
H1 H -0.0884 0.6229 0.6898
C2 C -0.27936(14) 0.67161(11) 0.62418(9)
H2 H -0.3235 0.6234 0.6398
C3 C -0.35485(14) 0.74368(11) 0.57111(9)
H3 H -0.449 0.7443 0.5523
C4 C -0.29001(15) 0.81475(11) 0.54612(9)
H4 H -0.3407 0.8624 0.5097
C5 C -0.14966(14) 0.81468(10) 0.57542(9)
H5 H -0.1061 0.8624 0.5586
C6 C -0.07340(14) 0.74352(10) 0.62994(9)
C7 C 0.07556(14) 0.74368(9) 0.65776(9)
C8 C 0.14367(14) 0.74292(10) 0.60617(9)
C9 C 0.28696(14) 0.73664(10) 0.65545(9)
C10 C 0.17438(14) 0.80431(10) 0.81327(9)
C11 C 0.29245(15) 0.77394(12) 0.89628(9)
H6 H 0.2791 0.71 0.9093
H7 H 0.2963 0.8138 0.9431
H8 H 0.3761 0.7789 0.8886
C12 C 0.04151(14) 0.79590(11) 0.82560(9)
H9 H -0.0326 0.8173 0.7743
H10 H 0.0467 0.8337 0.874
H11 H 0.0268 0.7315 0.8363
C13 C 0.19313(15) 0.90357(10) 0.78685(10)
H12 H 0.2703 0.9054 0.7717
H13 H 0.2078 0.9456 0.8343
H14 H 0.1131 0.9224 0.7379
F1 F 0.08882(8) 0.74053(6) 0.51902(5)
N1 N 0.16905(11) 0.73538(8) 0.74383(7)
O1 O 0.38384(10) 0.73015(7) 0.63612(7)
O2 O 0.30181(9) 0.73635(7) 0.74030(6)
C14 C 0.61300(14) 0.59584(10) 0.79819(9)
H15 H 0.5619 0.6393 0.7567
C15 C 0.75366(14) 0.60106(10) 0.83391(9)
H16 H 0.7969 0.6481 0.8161
C16 C 0.83061(14) 0.53667(10) 0.89610(9)
H17 H 0.9251 0.5401 0.9192
C17 C 0.76667(14) 0.46751(10) 0.92356(9)
H18 H 0.8181 0.4252 0.9661
C18 C 0.62588(14) 0.46115(10) 0.88781(9)
H19 H 0.5831 0.4141 0.906
C19 C 0.54839(13) 0.52500(10) 0.82474(9)
C20 C 0.39892(13) 0.52067(9) 0.79469(9)
C21 C 0.33083(14) 0.52370(10) 0.84605(9)
C22 C 0.18753(15) 0.52434(10) 0.79686(9)
C23 C 0.30809(14) 0.45326(10) 0.64115(9)
C24 C 0.17673(15) 0.46697(12) 0.56063(10)
H20 H 0.1007 0.447 0.5727
H21 H 0.1805 0.4304 0.5138
H22 H 0.1664 0.5322 0.5447
C25 C 0.42770(15) 0.47960(12) 0.61851(10)
H23 H 0.4206 0.5445 0.6019
H24 H 0.4264 0.4413 0.5713
H25 H 0.5114 0.4696 0.668
C26 C 0.32030(17) 0.35324(11) 0.67491(11)
H26 H 0.4064 0.3455 0.7229
H27 H 0.314 0.3101 0.6297
H28 H 0.2482 0.3409 0.6935
F2 F 0.38489(8) 0.53518(6) 0.93233(5)
N2 N 0.30537(11) 0.52237(8) 0.70828(7)
O3 O 0.08998(10) 0.53117(7) 0.81554(7)
O4 O 0.17274(9) 0.51723(7) 0.71190(6)
loop_
_geom_bond_atom_site_label_1
_geom_bond_atom_site_label_2
_geom_bond_site_symmetry_1
_geom_bond_site_symmetry_2
C1 H1 1_555 1_555
C2 C1 1_555 1_555
H2 C2 1_555 1_555
C3 C2 1_555 1_555
H3 C3 1_555 1_555
C4 C3 1_555 1_555
H4 C4 1_555 1_555
C5 C4 1_555 1_555
H5 C5 1_555 1_555
C6 C1 1_555 1_555
C7 C6 1_555 1_555
C8 C7 1_555 1_555
C9 C8 1_555 1_555
C10 C11 1_555 1_555
C11 H6 1_555 1_555
H7 C11 1_555 1_555
H8 C11 1_555 1_555
C12 C10 1_555 1_555
H9 C12 1_555 1_555
H10 C12 1_555 1_555
H11 C12 1_555 1_555
C13 C10 1_555 1_555
H12 C13 1_555 1_555
H13 C13 1_555 1_555
H14 C13 1_555 1_555
F1 C8 1_555 1_555
N1 C7 1_555 1_555
O1 C9 1_555 1_555
O2 C9 1_555 1_555
C14 H15 1_555 1_555
C15 C14 1_555 1_555
H16 C15 1_555 1_555
C16 C15 1_555 1_555
H17 C16 1_555 1_555
C17 C16 1_555 1_555
H18 C17 1_555 1_555
C18 C17 1_555 1_555
H19 C18 1_555 1_555
C19 C14 1_555 1_555
C20 C19 1_555 1_555
C21 C20 1_555 1_555
C22 C21 1_555 1_555
C23 C24 1_555 1_555
C24 H20 1_555 1_555
H21 C24 1_555 1_555
H22 C24 1_555 1_555
C25 C23 1_555 1_555
H23 C25 1_555 1_555
H24 C25 1_555 1_555
H25 C25 1_555 1_555
C26 C23 1_555 1_555
H26 C26 1_555 1_555
H27 C26 1_555 1_555
H28 C26 1_555 1_555
F2 C21 1_555 1_555
N2 C20 1_555 1_555
O3 C22 1_555 1_555
O4 C22 1_555 1_555
C5 C6 1_555 1_555
C10 N1 1_555 1_555
N1 O2 1_555 1_555
C18 C19 1_555 1_555
C23 N2 1_555 1_555
N2 O4 1_555 1_555

#END
