
#######################################################################
#
#                 Cambridge Crystallographic Data Centre
#                                CCDC 
#
#######################################################################
#
# If this CIF has been generated from an entry in the Cambridge 
# Structural Database, then it will include bibliographic, chemical, 
# crystal, experimental, refinement or atomic coordinate data resulting 
# from the CCDC's data processing and validation procedures.
#
#######################################################################

data_PIWVUO
_chemical_formula_moiety         'C13 H15 Br1 F1 N1 O2'
_chemical_name_systematic        
4-Bromo-2-t-butyl-4-fluoro-3-phenyl-1,2-oxazolidin-5-one
_symmetry_cell_setting           monoclinic
_symmetry_space_group_name_H-M   'P 21/n'
_symmetry_Int_Tables_number      14
_space_group_name_Hall           '-P 2yn'
loop_
_symmetry_equiv_pos_site_id
_symmetry_equiv_pos_as_xyz
1 x,y,z
2 1/2-x,1/2+y,1/2-z
3 -x,-y,-z
4 1/2+x,1/2-y,1/2+z
_cell_length_a                   7.7327(3)
_cell_length_b                   10.8508(4)
_cell_length_c                   16.2661(6)
_cell_angle_alpha                90
_cell_angle_beta                 100.0940(10)
_cell_angle_gamma                90
_cell_volume                     1343.7
_exptl_crystal_colour            colorless
_exptl_crystal_description       prism
_cell_formula_units_Z            4
loop_
_atom_site_label
_atom_site_type_symbol
_atom_site_fract_x
_atom_site_fract_y
_atom_site_fract_z
Br1 Br -0.252317(15) 0.297409(11) -0.080286(7)
C1 C -0.12809(15) 0.15522(11) 0.05856(7)
C2 C -0.08428(15) 0.17615(10) -0.02762(7)
C3 C 0.10682(15) 0.21762(10) -0.00929(7)
H1 H 0.183 0.1432 0.0039
C4 C 0.16944(15) 0.28848(10) -0.07826(7)
C5 C 0.25394(16) 0.22377(11) -0.13404(8)
H2 H 0.2744 0.1378 -0.1269
C6 C 0.30815(17) 0.28550(12) -0.20017(8)
H3 H 0.365 0.2412 -0.2382
C7 C 0.27976(17) 0.41120(13) -0.21091(8)
H4 H 0.3175 0.453 -0.2559
C8 C 0.19579(16) 0.47544(12) -0.15532(8)
H5 H 0.1761 0.5615 -0.1625
C9 C 0.14048(16) 0.41476(11) -0.08931(7)
H6 H 0.0829 0.4593 -0.0517
C10 C 0.28035(16) 0.28447(11) 0.13104(8)
C11 C 0.42484(17) 0.33614(14) 0.08770(9)
H7 H 0.443 0.2806 0.0425
H8 H 0.5342 0.3433 0.1282
H9 H 0.39 0.4177 0.0646
C12 C 0.25513(18) 0.36997(13) 0.20286(8)
H10 H 0.2193 0.4518 0.1806
H11 H 0.3659 0.3767 0.2425
H12 H 0.1641 0.3362 0.2314
C13 C 0.33012(19) 0.15478(13) 0.16377(9)
H13 H 0.2338 0.12 0.1883
H14 H 0.4366 0.1589 0.2064
H15 H 0.3518 0.1024 0.1176
F1 F -0.10616(10) 0.07183(7) -0.07505(4)
N1 N 0.11124(13) 0.29006(9) 0.06876(6)
O1 O -0.01858(11) 0.22506(8) 0.11261(5)
O2 O -0.23942(12) 0.09029(9) 0.07823(6)
loop_
_geom_bond_atom_site_label_1
_geom_bond_atom_site_label_2
_geom_bond_site_symmetry_1
_geom_bond_site_symmetry_2
Br1 C2 1_555 1_555
C1 C2 1_555 1_555
C2 C3 1_555 1_555
C3 H1 1_555 1_555
C4 C3 1_555 1_555
C5 C4 1_555 1_555
H2 C5 1_555 1_555
C6 C5 1_555 1_555
H3 C6 1_555 1_555
C7 C6 1_555 1_555
H4 C7 1_555 1_555
C8 C7 1_555 1_555
H5 C8 1_555 1_555
C9 C4 1_555 1_555
H6 C9 1_555 1_555
C10 C11 1_555 1_555
C11 H7 1_555 1_555
H8 C11 1_555 1_555
H9 C11 1_555 1_555
C12 C10 1_555 1_555
H10 C12 1_555 1_555
H11 C12 1_555 1_555
H12 C12 1_555 1_555
C13 C10 1_555 1_555
H13 C13 1_555 1_555
H14 C13 1_555 1_555
H15 C13 1_555 1_555
F1 C2 1_555 1_555
N1 C3 1_555 1_555
O1 C1 1_555 1_555
O2 C1 1_555 1_555
C8 C9 1_555 1_555
C10 N1 1_555 1_555
N1 O1 1_555 1_555

#END
