
#######################################################################
#
#                 Cambridge Crystallographic Data Centre
#                                CCDC 
#
#######################################################################
#
# If this CIF has been generated from an entry in the Cambridge 
# Structural Database, then it will include bibliographic, chemical, 
# crystal, experimental, refinement or atomic coordinate data resulting 
# from the CCDC's data processing and validation procedures.
#
#######################################################################

data_PIWVUM
_chemical_formula_moiety         'C27 H32 N2 O5'
_chemical_name_systematic        
(4RS,5RS)-1,3-bis((3SR,2RS)-3-Phenyl-3-hydroxy-2-methylpropionyl)-trans-4,5-tetramethyleneimidazolidin-2-one
_symmetry_cell_setting           orthorhombic
_symmetry_space_group_name_H-M   'P c a b'
_symmetry_Int_Tables_number      61
_space_group_name_Hall           '-P 2bc 2ac'
loop_
_symmetry_equiv_pos_site_id
_symmetry_equiv_pos_as_xyz
1 x,y,z
2 1/2-x,y,1/2+z
3 1/2+x,1/2-y,z
4 -x,1/2-y,1/2+z
5 -x,-y,-z
6 1/2+x,-y,1/2-z
7 1/2-x,1/2+y,-z
8 x,1/2+y,1/2-z
_cell_length_a                   11.7861(7)
_cell_length_b                   18.181(1)
_cell_length_c                   23.692(1)
_cell_angle_alpha                90
_cell_angle_beta                 90
_cell_angle_gamma                90
_cell_volume                     5076.79
_exptl_crystal_colour            colorless
_chemical_melting_point          '162-164 deg.C'
_cell_formula_units_Z            8
loop_
_atom_site_label
_atom_site_type_symbol
_atom_site_fract_x
_atom_site_fract_y
_atom_site_fract_z
O1 O 0.0902(2) -0.04447(9) 0.36588(8)
O2 O -0.1128(2) 0.0985(1) 0.45150(8)
O3 O -0.1850(3) -0.0226(1) 0.51169(9)
O4 O 0.3085(2) 0.0771(1) 0.27093(8)
O5 O 0.4921(2) -0.0150(1) 0.2625(1)
N1 N 0.0124(2) 0.0714(1) 0.38378(7)
N2 N 0.1831(2) 0.0641(1) 0.34146(8)
C1 C 0.0643(2) 0.1456(1) 0.38667(9)
C2 C 0.1476(2) 0.1422(1) 0.33844(9)
C3 C 0.2354(2) 0.2015(1) 0.3464(1)
C4 C 0.1717(3) 0.2750(1) 0.3440(1)
C5 C 0.0722(3) 0.2791(1) 0.3850(1)
C6 C -0.0088(2) 0.2133(1) 0.3802(1)
C7 C 0.0948(2) 0.0218(1) 0.36358(9)
C8 C -0.0788(2) 0.0531(1) 0.4175(1)
C9 C -0.1389(2) -0.0195(1) 0.4109(1)
C10 C -0.1333(3) -0.0605(2) 0.4673(1)
C11 C -0.1806(2) -0.1376(2) 0.4640(1)
C12 C -0.2876(3) -0.1551(2) 0.4838(1)
C13 C -0.3264(4) -0.2281(3) 0.4801(2)
C14 C -0.2591(5) -0.2809(2) 0.4566(2)
C15 C -0.1545(4) -0.2634(2) 0.4372(2)
C16 C -0.1146(3) -0.1920(2) 0.4410(1)
C17 C -0.2629(3) -0.0045(2) 0.3926(2)
C18 C 0.2715(2) 0.0375(1) 0.3081(1)
C19 C 0.3261(2) -0.0346(1) 0.3240(1)
C20 C 0.4006(2) -0.0632(1) 0.2754(1)
C21 C 0.4493(2) -0.1382(1) 0.28862(9)
C22 C 0.3843(2) -0.2005(1) 0.2801(1)
C23 C 0.4286(3) -0.2697(2) 0.2922(1)
C24 C 0.5365(3) -0.2763(2) 0.3130(1)
C25 C 0.6013(3) -0.2151(2) 0.3217(1)
C26 C 0.5582(2) -0.1458(2) 0.3091(1)
C27 C 0.3929(3) -0.0227(2) 0.3789(1)
H1 H -0.264(3) 0.010(2) 0.4940(7)
H2 H 0.462(1) 0.036(2) 0.257(2)
H3 H 0.0935(2) 0.1523(1) 0.42595(9)
H4 H 0.1196(2) 0.1526(1) 0.29939(9)
H5 H 0.2737(2) 0.1958(1) 0.3838(1)
H6 H 0.2934(2) 0.1989(1) 0.3156(1)
H7 H 0.2260(3) 0.3155(1) 0.3533(1)
H8 H 0.1423(3) 0.2820(1) 0.3048(1)
H9 H 0.1027(3) 0.2809(1) 0.4244(1)
H10 H 0.0285(3) 0.3252(1) 0.3771(1)
H11 H -0.0677(2) 0.2153(1) 0.4105(1)
H12 H -0.0468(2) 0.2131(1) 0.3424(1)
H13 H -0.1013(2) -0.0509(1) 0.3817(1)
H14 H -0.0524(3) -0.0610(2) 0.4800(1)
H15 H -0.3369(3) -0.1158(2) 0.5002(1)
H16 H -0.4034(4) -0.2410(3) 0.4947(2)
H17 H -0.2886(5) -0.3323(2) 0.4539(2)
H18 H -0.1063(4) -0.3032(2) 0.4206(2)
H19 H -0.0370(3) -0.1797(2) 0.4267(1)
H20 H -0.3037(3) -0.0523(2) 0.3880(2)
H21 H -0.3024(3) 0.0259(2) 0.4218(2)
H22 H -0.2626(3) 0.0225(2) 0.3559(2)
H23 H 0.2673(2) -0.0733(1) 0.3304(1)
H24 H 0.3535(2) -0.0635(1) 0.2403(1)
H25 H 0.3053(2) -0.1958(1) 0.2652(1)
H26 H 0.3817(3) -0.3147(2) 0.2856(1)
H27 H 0.5678(3) -0.3261(2) 0.3218(1)
H28 H 0.6799(3) -0.2202(2) 0.3371(1)
H29 H 0.6063(2) -0.1012(2) 0.3150(1)
H30 H 0.4298(3) -0.0699(2) 0.3904(1)
H31 H 0.3396(3) -0.0063(2) 0.4092(1)
H32 H 0.4524(3) 0.0158(2) 0.3730(1)
loop_
_geom_bond_atom_site_label_1
_geom_bond_atom_site_label_2
_geom_bond_site_symmetry_1
_geom_bond_site_symmetry_2
O1 C7 1_555 1_555
O2 C8 1_555 1_555
O3 C10 1_555 1_555
O4 C18 1_555 1_555
O5 C20 1_555 1_555
N1 C1 1_555 1_555
N2 C2 1_555 1_555
C1 C2 1_555 1_555
C2 C3 1_555 1_555
C3 C4 1_555 1_555
C4 C5 1_555 1_555
C5 C6 1_555 1_555
C6 C1 1_555 1_555
C7 N1 1_555 1_555
C8 N1 1_555 1_555
C9 C8 1_555 1_555
C10 C9 1_555 1_555
C11 C10 1_555 1_555
C12 C11 1_555 1_555
C13 C12 1_555 1_555
C14 C13 1_555 1_555
C15 C14 1_555 1_555
C16 C11 1_555 1_555
C17 C9 1_555 1_555
C18 N2 1_555 1_555
C19 C18 1_555 1_555
C20 C19 1_555 1_555
C21 C20 1_555 1_555
C22 C21 1_555 1_555
C23 C22 1_555 1_555
C24 C23 1_555 1_555
C25 C24 1_555 1_555
C26 C21 1_555 1_555
C27 C19 1_555 1_555
H1 O3 1_555 1_555
H2 O5 1_555 1_555
H3 C1 1_555 1_555
H4 C2 1_555 1_555
H5 C3 1_555 1_555
H6 C3 1_555 1_555
H7 C4 1_555 1_555
H8 C4 1_555 1_555
H9 C5 1_555 1_555
H10 C5 1_555 1_555
H11 C6 1_555 1_555
H12 C6 1_555 1_555
H13 C9 1_555 1_555
H14 C10 1_555 1_555
H15 C12 1_555 1_555
H16 C13 1_555 1_555
H17 C14 1_555 1_555
H18 C15 1_555 1_555
H19 C16 1_555 1_555
H20 C17 1_555 1_555
H21 C17 1_555 1_555
H22 C17 1_555 1_555
H23 C19 1_555 1_555
H24 C20 1_555 1_555
H25 C22 1_555 1_555
H26 C23 1_555 1_555
H27 C24 1_555 1_555
H28 C25 1_555 1_555
H29 C26 1_555 1_555
H30 C27 1_555 1_555
H31 C27 1_555 1_555
H32 C27 1_555 1_555
N2 C7 1_555 1_555
C15 C16 1_555 1_555
C25 C26 1_555 1_555

#END
