
#######################################################################
#
#                 Cambridge Crystallographic Data Centre
#                                CCDC 
#
#######################################################################
#
# If this CIF has been generated from an entry in the Cambridge 
# Structural Database, then it will include bibliographic, chemical, 
# crystal, experimental, refinement or atomic coordinate data resulting 
# from the CCDC's data processing and validation procedures.
#
#######################################################################

data_PIWWAU
_chemical_formula_moiety         'C24 H18 N4 O5 S1,C3 H6 O1'
_chemical_name_systematic        
'trans-2-Amino-5-(benzoyl)-1-((4-nitrophenyl)sulfonyl)-4-phenyl-4,5-dihydro-1H-pyrrole-3-carbonitrile acetone solvate'
_chemical_properties_biological  
'Some antiproliferative effect (as a 1:2 cis:trans ratio of isomers) against two cancer cell lines, HeLa and MCF7/AZ, as models for human cervical and breast adenocarcinoma, respectively'
_symmetry_cell_setting           monoclinic
_symmetry_space_group_name_H-M   'P 21/n'
_symmetry_Int_Tables_number      14
_space_group_name_Hall           '-P 2yn'
loop_
_symmetry_equiv_pos_site_id
_symmetry_equiv_pos_as_xyz
1 x,y,z
2 1/2-x,1/2+y,1/2-z
3 -x,-y,-z
4 1/2+x,1/2-y,1/2+z
_cell_length_a                   18.786(4)
_cell_length_b                   6.0535(13)
_cell_length_c                   23.396(5)
_cell_angle_alpha                90
_cell_angle_beta                 94.056(3)
_cell_angle_gamma                90
_cell_volume                     2653.95
_exptl_crystal_colour            colorless
_exptl_crystal_description       needle
_chemical_melting_point          '194 deg.C'
_cell_formula_units_Z            4
loop_
_atom_site_label
_atom_site_type_symbol
_atom_site_fract_x
_atom_site_fract_y
_atom_site_fract_z
S1 S 0.45505(3) 0.58781(8) 0.08041(2)
O1 O 0.16176(9) 0.9844(3) -0.05558(8)
O2 O 0.23282(9) 1.2630(3) -0.06551(8)
O3 O 0.43522(8) 0.3608(2) 0.08574(6)
O4 O 0.52309(7) 0.6463(2) 0.06130(6)
O5 O 0.58370(8) 0.6542(2) 0.19963(6)
N1 N 0.21998(10) 1.0746(3) -0.04919(8)
N2 N 0.45276(9) 0.6985(3) 0.14499(7)
N3 N 0.34131(10) 0.5437(3) 0.16751(8)
H1 H 0.3021 0.5490 0.1859
H2 H 0.3490 0.4314 0.1449
N4 N 0.29044(12) 0.9882(4) 0.27328(10)
C1 C 0.27928(11) 0.9488(3) -0.02030(9)
C2 C 0.34623(11) 1.0470(3) -0.01353(9)
H3 H 0.3542 1.1897 -0.0287
C3 C 0.40089(11) 0.9321(3) 0.01584(8)
H4 H 0.4472 0.9948 0.0212
C4 C 0.38704(10) 0.7228(3) 0.03748(8)
C5 C 0.32004(11) 0.6242(4) 0.02942(9)
H5 H 0.3119 0.4809 0.0442
C6 C 0.26556(11) 0.7384(4) -0.00051(9)
H6 H 0.2197 0.6738 -0.0074
C7 C 0.38961(10) 0.7076(4) 0.17398(9)
C8 C 0.38847(11) 0.8938(4) 0.20633(9)
C9 C 0.33465(12) 0.9449(4) 0.24321(10)
C10 C 0.45767(11) 1.0206(3) 0.20680(9)
H7 H 0.4473 1.1767 0.1950
C11 C 0.49615(10) 0.9002(3) 0.15810(8)
H8 H 0.4958 0.9968 0.1234
C12 C 0.49878(11) 1.0197(3) 0.26539(9)
C13 C 0.53743(12) 1.2045(4) 0.28407(10)
H9 H 0.5373 1.3327 0.2607
C14 C 0.57640(13) 1.2030(4) 0.33693(11)
H10 H 0.6026 1.3304 0.3495
C15 C 0.57715(13) 1.0179(4) 0.37102(10)
H11 H 0.6041 1.0172 0.4069
C16 C 0.53839(13) 0.8313(4) 0.35292(10)
H12 H 0.5386 0.7033 0.3764
C17 C 0.49959(12) 0.8338(4) 0.30042(9)
H13 H 0.4731 0.7067 0.2881
C18 C 0.57302(11) 0.8334(3) 0.17711(8)
C19 C 0.63131(11) 0.9928(3) 0.16979(9)
C20 C 0.62009(12) 1.1994(4) 0.14362(9)
H14 H 0.5733 1.2414 0.1296
C21 C 0.67711(13) 1.3440(4) 0.13798(11)
H15 H 0.6692 1.4828 0.1197
C22 C 0.74479(13) 1.2847(4) 0.15897(12)
H16 H 0.7835 1.3833 0.1552
C23 C 0.75681(12) 1.0807(5) 0.18572(12)
H17 H 0.8035 1.0418 0.2007
C24 C 0.70066(12) 0.9348(4) 0.19042(10)
H18 H 0.7092 0.7945 0.2077
loop_
_geom_bond_atom_site_label_1
_geom_bond_atom_site_label_2
_geom_bond_site_symmetry_1
_geom_bond_site_symmetry_2
S1 O3 1_555 1_555
O1 N1 1_555 1_555
O2 N1 1_555 1_555
O4 S1 1_555 1_555
O5 C18 1_555 1_555
N1 C1 1_555 1_555
N2 S1 1_555 1_555
N3 H1 1_555 1_555
H2 N3 1_555 1_555
N4 C9 1_555 1_555
C1 C2 1_555 1_555
C2 H3 1_555 1_555
C3 C2 1_555 1_555
H4 C3 1_555 1_555
C4 S1 1_555 1_555
C5 C4 1_555 1_555
H5 C5 1_555 1_555
C6 C1 1_555 1_555
H6 C6 1_555 1_555
C7 N2 1_555 1_555
C8 C7 1_555 1_555
C9 C8 1_555 1_555
C10 C8 1_555 1_555
H7 C10 1_555 1_555
C11 N2 1_555 1_555
H8 C11 1_555 1_555
C12 C10 1_555 1_555
C13 C12 1_555 1_555
H9 C13 1_555 1_555
C14 C13 1_555 1_555
H10 C14 1_555 1_555
C15 C14 1_555 1_555
H11 C15 1_555 1_555
C16 C15 1_555 1_555
H12 C16 1_555 1_555
C17 C12 1_555 1_555
H13 C17 1_555 1_555
C18 C11 1_555 1_555
C19 C18 1_555 1_555
C20 C19 1_555 1_555
H14 C20 1_555 1_555
C21 C20 1_555 1_555
H15 C21 1_555 1_555
C22 C21 1_555 1_555
H16 C22 1_555 1_555
C23 C22 1_555 1_555
H17 C23 1_555 1_555
C24 C19 1_555 1_555
H18 C24 1_555 1_555
N3 C7 1_555 1_555
C3 C4 1_555 1_555
C5 C6 1_555 1_555
C10 C11 1_555 1_555
C16 C17 1_555 1_555
C23 C24 1_555 1_555

#END
