
#######################################################################
#
#                 Cambridge Crystallographic Data Centre
#                                CCDC 
#
#######################################################################
#
# If this CIF has been generated from an entry in the Cambridge 
# Structural Database, then it will include bibliographic, chemical, 
# crystal, experimental, refinement or atomic coordinate data resulting 
# from the CCDC's data processing and validation procedures.
#
#######################################################################

data_PIWYEA
_chemical_formula_moiety         'C30 H34 Cl1 N1 O4'
_chemical_name_systematic        
5,5-Dimethyl-2-((4-chlorophenyl)(3-hydroxy-5,5-dimethyl-2-cyclohexen-1-on-2-yl)methyl)-3-(4-methoxyphenylamino)-2-cyclohexene-1-one
_symmetry_cell_setting           monoclinic
_symmetry_space_group_name_H-M   'P 21/c'
_symmetry_Int_Tables_number      14
_space_group_name_Hall           '-P 2ybc'
loop_
_symmetry_equiv_pos_site_id
_symmetry_equiv_pos_as_xyz
1 x,y,z
2 -x,1/2+y,1/2-z
3 -x,-y,-z
4 x,1/2-y,1/2+z
_cell_length_a                   9.4193(13)
_cell_length_b                   26.915(4)
_cell_length_c                   21.188(3)
_cell_angle_alpha                90
_cell_angle_beta                 101.906(3)
_cell_angle_gamma                90
_cell_volume                     5256.03
_chemical_melting_point          '175-177 deg.C'
_cell_formula_units_Z            8
loop_
_atom_site_label
_atom_site_type_symbol
_atom_site_fract_x
_atom_site_fract_y
_atom_site_fract_z
Cl1 Cl 0.85483(11) 0.81353(4) 0.55507(5)
O1 O 0.4561(2) 0.58824(9) 0.72191(12)
O2 O 1.0233(2) 0.63393(8) 0.74779(11)
O3 O 0.3391(3) 0.36198(11) 0.54280(14)
O7 O 0.8704(2) 0.68183(9) 0.81261(12)
H1 H 0.9081 0.6679 0.7858
N1 N 0.6337(3) 0.52849(11) 0.65964(15)
H2 H 0.578(3) 0.5524(12) 0.6665(17)
C1 C 0.7146(3) 0.62927(11) 0.69589(16)
H5 H 0.6273 0.6178 0.6658
C2 C 0.7573(3) 0.67691(12) 0.66364(16)
C3 C 0.8396(4) 0.67465(14) 0.61682(18)
H6 H 0.8755 0.6441 0.6070
C4 C 0.8701(4) 0.71622(15) 0.58425(18)
H7 H 0.9270 0.7136 0.5534
C5 C 0.8171(4) 0.76072(13) 0.59731(17)
C6 C 0.7360(4) 0.76510(13) 0.64325(18)
H8 H 0.7011 0.7960 0.6525
C7 C 0.7057(3) 0.72303(13) 0.67628(17)
H9 H 0.6497 0.7261 0.7074
C8 C 0.6626(3) 0.63773(11) 0.75795(16)
C9 C 0.7376(3) 0.66444(12) 0.80869(17)
C10 C 0.6745(4) 0.67955(12) 0.86530(17)
H10 H 0.6330 0.7125 0.8572
H11 H 0.7525 0.6817 0.9031
C11 C 0.5588(4) 0.64494(13) 0.88031(17)
C12 C 0.4806(4) 0.66984(14) 0.92849(18)
H12 H 0.5492 0.6769 0.9677
H13 H 0.4069 0.6480 0.9376
H14 H 0.4368 0.7002 0.9104
C13 C 0.6278(4) 0.59659(13) 0.90995(19)
H15 H 0.6724 0.5797 0.8792
H16 H 0.5543 0.5757 0.9214
H17 H 0.6999 0.6040 0.9479
C14 C 0.4524(3) 0.63458(13) 0.81720(17)
H18 H 0.3850 0.6090 0.8247
H19 H 0.3967 0.6645 0.8040
C15 C 0.5223(3) 0.61811(12) 0.76300(17)
C16 C 0.8233(3) 0.58624(12) 0.69627(15)
C17 C 0.9743(3) 0.59393(13) 0.72039(16)
C18 C 1.0812(3) 0.55391(13) 0.71484(18)
H20 H 1.1032 0.5359 0.7553
H21 H 1.1703 0.5695 0.7088
C19 C 1.0332(4) 0.51688(13) 0.66080(19)
C20 C 1.0270(4) 0.54108(15) 0.5948(2)
H22 H 0.9573 0.5676 0.5888
H23 H 0.9991 0.5167 0.5615
H24 H 1.1209 0.5541 0.5928
C21 C 1.1367(4) 0.47262(14) 0.6685(2)
H25 H 1.2332 0.4841 0.6685
H26 H 1.1065 0.4499 0.6333
H27 H 1.1354 0.4560 0.7084
C22 C 0.8809(3) 0.49860(13) 0.66621(18)
H28 H 0.8399 0.4796 0.6278
H29 H 0.8906 0.4764 0.7029
C23 C 0.7767(3) 0.53964(12) 0.67393(16)
C24 C 0.5646(4) 0.48417(14) 0.63092(19)
C25 C 0.4569(4) 0.48865(15) 0.5756(2)
H30 H 0.4345 0.5197 0.5570
C26 C 0.3828(4) 0.44710(17) 0.5481(2)
H31 H 0.3093 0.4505 0.5116
C27 C 0.4166(4) 0.40075(15) 0.5742(2)
C28 C 0.5205(4) 0.39652(14) 0.62880(19)
H32 H 0.5436 0.3653 0.6469
C29 C 0.5922(4) 0.43780(14) 0.65763(18)
H33 H 0.6605 0.4342 0.6959
C30 C 0.3896(4) 0.31330(16) 0.5631(2)
H34 H 0.4908 0.3106 0.5621
H35 H 0.3358 0.2891 0.5346
H36 H 0.3763 0.3075 0.6062
Cl2 Cl 0.62016(12) 0.13390(4) 0.94397(5)
O4 O 1.0540(2) 0.35870(9) 0.78905(12)
O5 O 0.4851(2) 0.31524(8) 0.76375(11)
O6 O 1.1748(3) 0.58557(10) 0.96885(14)
O8 O 0.6332(2) 0.26890(9) 0.69584(12)
H3 H 0.5965 0.2822 0.7234
N2 N 0.8788(3) 0.42023(11) 0.84892(15)
H4 H 0.934(3) 0.4007(13) 0.8390(17)
C31 C 0.7931(3) 0.31935(12) 0.81451(15)
H37 H 0.8808 0.3301 0.8449
C32 C 0.7471(3) 0.27144(12) 0.84543(16)
C33 C 0.6760(4) 0.27464(14) 0.89655(18)
H38 H 0.6519 0.3058 0.9102
C34 C 0.6401(4) 0.23290(15) 0.92765(19)
H39 H 0.5943 0.2360 0.9624
C35 C 0.6725(4) 0.18700(14) 0.90700(19)
C36 C 0.7443(4) 0.18237(14) 0.8579(2)
H40 H 0.7681 0.1510 0.8448
C37 C 0.7821(4) 0.22452(13) 0.82738(18)
H41 H 0.8320 0.2210 0.7941
C38 C 0.8447(3) 0.31075(11) 0.75228(16)
C39 C 0.7682(3) 0.28618(12) 0.70019(17)
C40 C 0.8260(3) 0.27365(13) 0.64148(17)
H42 H 0.7465 0.2744 0.6042
H43 H 0.8636 0.2400 0.6458
C41 C 0.9451(4) 0.30816(13) 0.62906(17)
C42 C 1.0144(4) 0.28523(16) 0.57695(19)
H44 H 1.0597 0.2543 0.5922
H45 H 1.0861 0.3076 0.5669
H46 H 0.9411 0.2794 0.5389
C43 C 0.8819(4) 0.35907(14) 0.6056(2)
H47 H 0.8091 0.3549 0.5670
H48 H 0.9578 0.3801 0.5969
H49 H 0.8390 0.3740 0.6384
C44 C 1.0547(3) 0.31406(13) 0.69238(17)
H50 H 1.1045 0.2827 0.7032
H51 H 1.1266 0.3385 0.6867
C45 C 0.9869(3) 0.32987(13) 0.74756(17)
C46 C 0.6876(3) 0.36245(12) 0.81438(15)
C47 C 0.5356(3) 0.35519(13) 0.79030(16)
C48 C 0.4299(3) 0.39624(12) 0.79491(17)
H52 H 0.3401 0.3815 0.8014
H53 H 0.4086 0.4138 0.7540
C49 C 0.4806(3) 0.43372(13) 0.84818(17)
C50 C 0.4813(4) 0.41007(14) 0.91439(18)
H54 H 0.3854 0.3988 0.9159
H55 H 0.5121 0.4343 0.9477
H56 H 0.5470 0.3824 0.9209
C51 C 0.3788(4) 0.47854(13) 0.83975(19)
H57 H 0.3847 0.4957 0.8006
H58 H 0.4067 0.5006 0.8757
H59 H 0.2810 0.4675 0.8376
C52 C 0.6326(3) 0.45075(12) 0.84315(17)
H60 H 0.6241 0.4731 0.8067
H61 H 0.6741 0.4694 0.8817
C53 C 0.7355(3) 0.40952(12) 0.83530(16)
C54 C 0.9498(4) 0.46446(13) 0.87684(18)
C55 C 0.9152(4) 0.51155(14) 0.85330(18)
H62 H 0.8416 0.5159 0.8170
C56 C 0.9886(4) 0.55256(14) 0.88303(18)
H63 H 0.9627 0.5842 0.8671
C57 C 1.0988(4) 0.54696(14) 0.93562(19)
C58 C 1.1396(4) 0.49974(15) 0.95750(18)
H64 H 1.2178 0.4956 0.9919
C59 C 1.0661(4) 0.45866(14) 0.92908(18)
H65 H 1.0939 0.4271 0.9446
C60 C 1.1167(4) 0.63396(15) 0.9556(2)
H66 H 1.1262 0.6438 0.9131
H67 H 1.1686 0.6569 0.9867
H68 H 1.0160 0.6339 0.9579
loop_
_geom_bond_atom_site_label_1
_geom_bond_atom_site_label_2
_geom_bond_site_symmetry_1
_geom_bond_site_symmetry_2
Cl1 C5 1_555 1_555
Cl2 C35 1_555 1_555
O1 C15 1_555 1_555
O2 C17 1_555 1_555
O3 C27 1_555 1_555
O4 C45 1_555 1_555
O5 C47 1_555 1_555
O6 C57 1_555 1_555
O7 H1 1_555 1_555
N1 H2 1_555 1_555
O8 H3 1_555 1_555
N2 H4 1_555 1_555
C1 H5 1_555 1_555
C2 C1 1_555 1_555
C3 C2 1_555 1_555
H6 C3 1_555 1_555
C4 C3 1_555 1_555
H7 C4 1_555 1_555
C5 C4 1_555 1_555
C6 C5 1_555 1_555
H8 C6 1_555 1_555
C7 C2 1_555 1_555
H9 C7 1_555 1_555
C8 C1 1_555 1_555
C9 O7 1_555 1_555
C10 C9 1_555 1_555
H10 C10 1_555 1_555
H11 C10 1_555 1_555
C11 C10 1_555 1_555
C12 C11 1_555 1_555
H12 C12 1_555 1_555
H13 C12 1_555 1_555
H14 C12 1_555 1_555
C13 C11 1_555 1_555
H15 C13 1_555 1_555
H16 C13 1_555 1_555
H17 C13 1_555 1_555
C14 C11 1_555 1_555
H18 C14 1_555 1_555
H19 C14 1_555 1_555
C15 C8 1_555 1_555
C16 C1 1_555 1_555
C17 C16 1_555 1_555
C18 C17 1_555 1_555
H20 C18 1_555 1_555
H21 C18 1_555 1_555
C19 C18 1_555 1_555
C20 C19 1_555 1_555
H22 C20 1_555 1_555
H23 C20 1_555 1_555
H24 C20 1_555 1_555
C21 C19 1_555 1_555
H25 C21 1_555 1_555
H26 C21 1_555 1_555
H27 C21 1_555 1_555
C22 C19 1_555 1_555
H28 C22 1_555 1_555
H29 C22 1_555 1_555
C23 N1 1_555 1_555
C24 N1 1_555 1_555
C25 C24 1_555 1_555
H30 C25 1_555 1_555
C26 C25 1_555 1_555
H31 C26 1_555 1_555
C27 C26 1_555 1_555
C28 C27 1_555 1_555
H32 C28 1_555 1_555
C29 C24 1_555 1_555
H33 C29 1_555 1_555
C30 O3 1_555 1_555
H34 C30 1_555 1_555
H35 C30 1_555 1_555
H36 C30 1_555 1_555
C31 H37 1_555 1_555
C32 C31 1_555 1_555
C33 C32 1_555 1_555
H38 C33 1_555 1_555
C34 C33 1_555 1_555
H39 C34 1_555 1_555
C35 C34 1_555 1_555
C36 C35 1_555 1_555
H40 C36 1_555 1_555
C37 C32 1_555 1_555
H41 C37 1_555 1_555
C38 C31 1_555 1_555
C39 O8 1_555 1_555
C40 C39 1_555 1_555
H42 C40 1_555 1_555
H43 C40 1_555 1_555
C41 C40 1_555 1_555
C42 C41 1_555 1_555
H44 C42 1_555 1_555
H45 C42 1_555 1_555
H46 C42 1_555 1_555
C43 C41 1_555 1_555
H47 C43 1_555 1_555
H48 C43 1_555 1_555
H49 C43 1_555 1_555
C44 C41 1_555 1_555
H50 C44 1_555 1_555
H51 C44 1_555 1_555
C45 C38 1_555 1_555
C46 C31 1_555 1_555
C47 C46 1_555 1_555
C48 C47 1_555 1_555
H52 C48 1_555 1_555
H53 C48 1_555 1_555
C49 C48 1_555 1_555
C50 C49 1_555 1_555
H54 C50 1_555 1_555
H55 C50 1_555 1_555
H56 C50 1_555 1_555
C51 C49 1_555 1_555
H57 C51 1_555 1_555
H58 C51 1_555 1_555
H59 C51 1_555 1_555
C52 C49 1_555 1_555
H60 C52 1_555 1_555
H61 C52 1_555 1_555
C53 N2 1_555 1_555
C54 N2 1_555 1_555
C55 C54 1_555 1_555
H62 C55 1_555 1_555
C56 C55 1_555 1_555
H63 C56 1_555 1_555
C57 C56 1_555 1_555
C58 C57 1_555 1_555
H64 C58 1_555 1_555
C59 C54 1_555 1_555
H65 C59 1_555 1_555
C60 O6 1_555 1_555
H66 C60 1_555 1_555
H67 C60 1_555 1_555
H68 C60 1_555 1_555
C6 C7 1_555 1_555
C8 C9 1_555 1_555
C14 C15 1_555 1_555
C16 C23 1_555 1_555
C22 C23 1_555 1_555
C28 C29 1_555 1_555
C36 C37 1_555 1_555
C38 C39 1_555 1_555
C44 C45 1_555 1_555
C46 C53 1_555 1_555
C52 C53 1_555 1_555
C58 C59 1_555 1_555

#END
