
#######################################################################
#
#                 Cambridge Crystallographic Data Centre
#                                CCDC 
#
#######################################################################
#
# If this CIF has been generated from an entry in the Cambridge 
# Structural Database, then it will include bibliographic, chemical, 
# crystal, experimental, refinement or atomic coordinate data resulting 
# from the CCDC's data processing and validation procedures.
#
#######################################################################

data_PIXCEG
_chemical_formula_moiety         'C18 H18 O4'
_chemical_name_systematic        '1,4-Phenylene bis(hexa-2,4-dienoate)'
_symmetry_cell_setting           monoclinic
_symmetry_space_group_name_H-M   'P 21/c'
_symmetry_Int_Tables_number      14
_space_group_name_Hall           '-P 2ybc'
loop_
_symmetry_equiv_pos_site_id
_symmetry_equiv_pos_as_xyz
1 x,y,z
2 -x,1/2+y,1/2-z
3 -x,-y,-z
4 x,1/2-y,1/2+z
_cell_length_a                   5.6003(3)
_cell_length_b                   8.1769(4)
_cell_length_c                   17.0907(9)
_cell_angle_alpha                90
_cell_angle_beta                 94.409(3)
_cell_angle_gamma                90
_cell_volume                     780.32
_exptl_crystal_colour            colorless
_exptl_crystal_description       Block
_cell_formula_units_Z            2
loop_
_atom_site_label
_atom_site_type_symbol
_atom_site_fract_x
_atom_site_fract_y
_atom_site_fract_z
O1 O 0.71331(16) 0.54252(10) 0.86211(5)
O2 O 0.55109(15) 0.28976(10) 0.86551(5)
C1 C -0.2700(2) 0.41485(18) 0.56593(7)
H1 H -0.2141 0.5160 0.5455
H2 H -0.4297 0.4291 0.5816
H3 H -0.2700 0.3319 0.5262
C2 C -0.1087(2) 0.36437(16) 0.63518(7)
H4 H -0.1459 0.2681 0.6605
C3 C 0.0846(2) 0.44624(15) 0.66365(6)
H5 H 0.1244 0.5425 0.6388
C4 C 0.2356(2) 0.39286(14) 0.73132(6)
H6 H 0.2001 0.2934 0.7541
C5 C 0.4231(2) 0.47753(15) 0.76314(6)
H7 H 0.4656 0.5749 0.7398
C6 C 0.5631(2) 0.42069(13) 0.83397(6)
C7 C 0.8549(2) 0.51434(14) 0.93238(6)
C8 C 1.0490(2) 0.41082(15) 0.93395(7)
H8 H 1.0809 0.3514 0.8895
C9 C 1.1967(2) 0.39611(15) 1.00267(7)
H9 H 1.3286 0.3268 1.0049
O1B O 1.28669(16) 0.45748(10) 1.13789(5)
O2B O 1.44891(15) 0.71024(10) 1.13449(5)
C1B C 2.2700(2) 0.58515(18) 1.43407(7)
H1B H 2.2141 0.4840 1.4545
H2B H 2.4297 0.5709 1.4184
H3B H 2.2700 0.6681 1.4738
C2B C 2.1087(2) 0.63563(16) 1.36482(7)
H4B H 2.1459 0.7319 1.3395
C3B C 1.9154(2) 0.55376(15) 1.33635(6)
H5B H 1.8756 0.4575 1.3612
C4B C 1.7644(2) 0.60714(14) 1.26868(6)
H6B H 1.7999 0.7066 1.2459
C5B C 1.5769(2) 0.52247(15) 1.23686(6)
H7B H 1.5344 0.4251 1.2602
C6B C 1.4369(2) 0.57931(13) 1.16603(6)
C7B C 1.1451(2) 0.48566(14) 1.06762(6)
C8B C 0.9510(2) 0.58918(15) 1.06605(7)
H8B H 0.9191 0.6486 1.1105
C9B C 0.8033(2) 0.60389(15) 0.99733(7)
H9B H 0.6714 0.6732 0.9951
loop_
_geom_bond_atom_site_label_1
_geom_bond_atom_site_label_2
_geom_bond_site_symmetry_1
_geom_bond_site_symmetry_2
O1 C6 1_555 1_555
O2 C6 1_555 1_555
C1 H1 1_555 1_555
H2 C1 1_555 1_555
H3 C1 1_555 1_555
C2 C1 1_555 1_555
H4 C2 1_555 1_555
C3 C2 1_555 1_555
H5 C3 1_555 1_555
C4 C3 1_555 1_555
H6 C4 1_555 1_555
C5 C4 1_555 1_555
H7 C5 1_555 1_555
C6 C5 1_555 1_555
C7 O1 1_555 1_555
C8 C7 1_555 1_555
H8 C8 1_555 1_555
C9 C8 1_555 1_555
H9 C9 1_555 1_555
O1B C6B 1_555 1_555
O2B C6B 1_555 1_555
C1B H1B 1_555 1_555
H2B C1B 1_555 1_555
H3B C1B 1_555 1_555
C2B C1B 1_555 1_555
H4B C2B 1_555 1_555
C3B C2B 1_555 1_555
H5B C3B 1_555 1_555
C4B C3B 1_555 1_555
H6B C4B 1_555 1_555
C5B C4B 1_555 1_555
H7B C5B 1_555 1_555
C6B C5B 1_555 1_555
C7B C9 1_555 1_555
C8B C7B 1_555 1_555
H8B C8B 1_555 1_555
C9B C7 1_555 1_555
H9B C9B 1_555 1_555
O1B C7B 1_555 1_555
C8B C9B 1_555 1_555

#END
