
#######################################################################
#
#                 Cambridge Crystallographic Data Centre
#                                CCDC 
#
#######################################################################
#
# If this CIF has been generated from an entry in the Cambridge 
# Structural Database, then it will include bibliographic, chemical, 
# crystal, experimental, refinement or atomic coordinate data resulting 
# from the CCDC's data processing and validation procedures.
#
#######################################################################

data_PIXCIK
_chemical_formula_moiety         'C22 H26 O4'
_chemical_name_systematic        '1,4-Phenylene bis(octa-2,4-dienoate)'
_symmetry_cell_setting           triclinic
_symmetry_space_group_name_H-M   'P -1'
_symmetry_Int_Tables_number      2
_space_group_name_Hall           '-P 1'
loop_
_symmetry_equiv_pos_site_id
_symmetry_equiv_pos_as_xyz
1 x,y,z
2 -x,-y,-z
_cell_length_a                   5.4869(3)
_cell_length_b                   8.0395(4)
_cell_length_c                   12.2631(8)
_cell_angle_alpha                71.633(4)
_cell_angle_beta                 89.640(3)
_cell_angle_gamma                74.810(3)
_cell_volume                     493.734
_exptl_crystal_colour            colorless
_exptl_crystal_description       Plate
_cell_formula_units_Z            1
loop_
_atom_site_label
_atom_site_type_symbol
_atom_site_fract_x
_atom_site_fract_y
_atom_site_fract_z
O1 O 0.14854(16) -0.22618(10) 0.83650(6)
O2 O 0.27980(15) -0.12102(11) 0.96932(6)
C1 C 0.8520(3) 0.80109(17) 0.57823(11)
H1 H 1.0243 0.7669 0.6100
H2 H 0.7677 0.9209 0.5799
H3 H 0.8497 0.8009 0.5000
C2 C 0.7165(2) 0.66582(15) 0.64918(10)
H4 H 0.5386 0.7077 0.6215
H5 H 0.7278 0.6616 0.7290
C3 C 0.8275(2) 0.47414(15) 0.64308(10)
H6 H 0.7921 0.4745 0.5656
H7 H 1.0100 0.4398 0.6589
C4 C 0.7221(2) 0.33629(14) 0.72669(9)
H8 H 0.7580 0.3156 0.8046
C5 C 0.5809(2) 0.23981(14) 0.70008(9)
H9 H 0.5461 0.2541 0.6230
C6 C 0.48095(19) 0.11362(13) 0.78831(9)
H10 H 0.5185 0.1036 0.8644
C7 C 0.3397(2) 0.00993(14) 0.77106(9)
H11 H 0.2948 0.0161 0.6966
C8 C 0.25629(19) -0.11374(13) 0.87076(8)
C9 C 0.07478(19) -0.36220(13) 0.92270(8)
C10 C 0.1837(2) -0.53987(14) 0.92679(9)
H12 H 0.3068 -0.5651 0.8774
C11 C -0.1081(2) -0.31926(14) 0.99485(9)
H13 H -0.1791 -0.1989 0.9911
O1A O -0.14854(16) -0.77382(10) 1.16350(6)
O2A O -0.27980(15) -0.87898(11) 1.03068(6)
C1A C -0.8520(3) -1.80109(17) 1.42177(11)
H1A H -1.0243 -1.7669 1.3900
H2A H -0.7677 -1.9209 1.4201
H3A H -0.8497 -1.8009 1.5000
C2A C -0.7165(2) -1.66582(15) 1.35082(10)
H4A H -0.5386 -1.7077 1.3785
H5A H -0.7278 -1.6616 1.2710
C3A C -0.8275(2) -1.47414(15) 1.35692(10)
H6A H -0.7921 -1.4745 1.4344
H7A H -1.0100 -1.4398 1.3411
C4A C -0.7221(2) -1.33629(14) 1.27331(9)
H8A H -0.7580 -1.3156 1.1954
C5A C -0.5809(2) -1.23981(14) 1.29992(9)
H9A H -0.5461 -1.2541 1.3770
C6A C -0.48095(19) -1.11362(13) 1.21169(9)
H10A H -0.5185 -1.1036 1.1356
C7A C -0.3397(2) -1.00993(14) 1.22894(9)
H11A H -0.2948 -1.0161 1.3034
C8A C -0.25629(19) -0.88626(13) 1.12924(8)
C9A C -0.07478(19) -0.63780(13) 1.07730(8)
C10A C -0.1837(2) -0.46013(14) 1.07321(9)
H12A H -0.3068 -0.4349 1.1226
C11A C 0.1081(2) -0.68074(14) 1.00515(9)
H13A H 0.1791 -0.8011 1.0089
loop_
_geom_bond_atom_site_label_1
_geom_bond_atom_site_label_2
_geom_bond_site_symmetry_1
_geom_bond_site_symmetry_2
O1 C8 1_555 1_555
O2 C8 1_555 1_555
C1 H1 1_555 1_555
H2 C1 1_555 1_555
H3 C1 1_555 1_555
C2 C1 1_555 1_555
H4 C2 1_555 1_555
H5 C2 1_555 1_555
C3 C2 1_555 1_555
H6 C3 1_555 1_555
H7 C3 1_555 1_555
C4 C3 1_555 1_555
H8 C4 1_555 1_555
C5 C4 1_555 1_555
H9 C5 1_555 1_555
C6 C5 1_555 1_555
H10 C6 1_555 1_555
C7 C6 1_555 1_555
H11 C7 1_555 1_555
C8 C7 1_555 1_555
C9 O1 1_555 1_555
C10 C9 1_555 1_555
H12 C10 1_555 1_555
C11 C9 1_555 1_555
H13 C11 1_555 1_555
O1A C8A 1_555 1_555
O2A C8A 1_555 1_555
C1A H1A 1_555 1_555
H2A C1A 1_555 1_555
H3A C1A 1_555 1_555
C2A C1A 1_555 1_555
H4A C2A 1_555 1_555
H5A C2A 1_555 1_555
C3A C2A 1_555 1_555
H6A C3A 1_555 1_555
H7A C3A 1_555 1_555
C4A C3A 1_555 1_555
H8A C4A 1_555 1_555
C5A C4A 1_555 1_555
H9A C5A 1_555 1_555
C6A C5A 1_555 1_555
H10A C6A 1_555 1_555
C7A C6A 1_555 1_555
H11A C7A 1_555 1_555
C8A C7A 1_555 1_555
C9A O1A 1_555 1_555
C10A C11 1_555 1_555
H12A C10A 1_555 1_555
C11A C10 1_555 1_555
H13A C11A 1_555 1_555
C9A C10A 1_555 1_555
C9A C11A 1_555 1_555

#END
