
#######################################################################
#
#                 Cambridge Crystallographic Data Centre
#                                CCDC 
#
#######################################################################
#
# If this CIF has been generated from an entry in the Cambridge 
# Structural Database, then it will include bibliographic, chemical, 
# crystal, experimental, refinement or atomic coordinate data resulting 
# from the CCDC's data processing and validation procedures.
#
#######################################################################

data_PIXFIO
_chemical_formula_moiety         'C13 H18 Cl1 N1 O2 S1'
_chemical_name_systematic        
N-(2-chlorocyclohexyl)-4-methylbenzene-1-sulfonamide
_symmetry_cell_setting           triclinic
_symmetry_space_group_name_H-M   'P -1'
_symmetry_Int_Tables_number      2
_space_group_name_Hall           '-P 1'
loop_
_symmetry_equiv_pos_site_id
_symmetry_equiv_pos_as_xyz
1 x,y,z
2 -x,-y,-z
_cell_length_a                   6.8952(14)
_cell_length_b                   9.4411(19)
_cell_length_c                   11.614(2)
_cell_angle_alpha                73.820(10)
_cell_angle_beta                 77.731(10)
_cell_angle_gamma                87.910(10)
_cell_volume                     709.313
_cell_formula_units_Z            2
loop_
_atom_site_label
_atom_site_type_symbol
_atom_site_fract_x
_atom_site_fract_y
_atom_site_fract_z
S1 S 0.28757(16) 0.46003(13) 0.37924(11)
Cl1 Cl 0.6363(3) 0.9272(2) 0.1478(2)
O1 O 0.4972(5) 0.4539(4) 0.3456(3)
O2 O 0.1847(5) 0.3726(4) 0.4972(3)
N1 N 0.2299(6) 0.6286(4) 0.3730(4)
H1 H 0.1467 0.6474 0.4332
C1 C 0.1883(6) 0.4095(5) 0.2677(4)
C2 C -0.0133(7) 0.3859(6) 0.2871(5)
H2 H -0.0971 0.4007 0.3566
C3 C 0.3127(7) 0.3906(6) 0.1629(5)
H3 H 0.4488 0.4078 0.1490
C4 C -0.0898(8) 0.3404(6) 0.2031(5)
H4 H -0.2259 0.3237 0.2168
C5 C 0.0331(8) 0.3186(6) 0.0975(5)
C6 C 0.3167(7) 0.7508(6) 0.2664(5)
H5 H 0.3541 0.7140 0.1939
C7 C 0.2316(8) 0.3458(6) 0.0792(5)
H6 H 0.3150 0.3339 0.0084
C8 C 0.1669(9) 0.8730(7) 0.2434(6)
H7 H 0.2181 0.9448 0.1656
H8 H 0.0440 0.8311 0.2377
C9 C -0.0562(11) 0.2675(8) 0.0075(6)
H9 H -0.0227 0.3376 -0.0719
H10 H -0.1980 0.2594 0.0347
H11 H -0.0048 0.1730 0.0025
C10 C 0.1241(11) 0.9501(7) 0.3442(6)
H12 H 0.0364 1.0314 0.3228
H13 H 0.0569 0.8814 0.4200
C11 C 0.5021(9) 0.8058(7) 0.2935(6)
H14 H 0.5848 0.7214 0.3204
C12 C 0.4567(12) 0.8855(8) 0.3894(7)
H15 H 0.5789 0.9280 0.3955
H16 H 0.4035 0.8157 0.4679
C13 C 0.3093(13) 1.0071(8) 0.3631(8)
H17 H 0.2776 1.0503 0.4312
H18 H 0.3688 1.0838 0.2903
loop_
_geom_bond_atom_site_label_1
_geom_bond_atom_site_label_2
_geom_bond_site_symmetry_1
_geom_bond_site_symmetry_2
S1 O1 1_555 1_555
Cl1 C11 1_555 1_555
O2 S1 1_555 1_555
N1 S1 1_555 1_555
H1 N1 1_555 1_555
C1 S1 1_555 1_555
C2 C1 1_555 1_555
H2 C2 1_555 1_555
C3 C1 1_555 1_555
H3 C3 1_555 1_555
C4 C2 1_555 1_555
H4 C4 1_555 1_555
C5 C4 1_555 1_555
C6 N1 1_555 1_555
H5 C6 1_555 1_555
C7 C3 1_555 1_555
H6 C7 1_555 1_555
C8 C6 1_555 1_555
H7 C8 1_555 1_555
H8 C8 1_555 1_555
C9 C5 1_555 1_555
H9 C9 1_555 1_555
H10 C9 1_555 1_555
H11 C9 1_555 1_555
C10 C8 1_555 1_555
H12 C10 1_555 1_555
H13 C10 1_555 1_555
C11 C6 1_555 1_555
H14 C11 1_555 1_555
C12 C11 1_555 1_555
H15 C12 1_555 1_555
H16 C12 1_555 1_555
C13 C10 1_555 1_555
H17 C13 1_555 1_555
H18 C13 1_555 1_555
C5 C7 1_555 1_555
C12 C13 1_555 1_555

#END
