
#######################################################################
#
#                 Cambridge Crystallographic Data Centre
#                                CCDC 
#
#######################################################################
#
# If this CIF has been generated from an entry in the Cambridge 
# Structural Database, then it will include bibliographic, chemical, 
# crystal, experimental, refinement or atomic coordinate data resulting 
# from the CCDC's data processing and validation procedures.
#
#######################################################################

data_PIXPUJ
_chemical_formula_moiety         'C38 H24 S2'
_chemical_name_systematic        
2,2'-(6,12-Diphenyltetracene-5,11-diyl)dithiophene
_symmetry_cell_setting           monoclinic
_symmetry_space_group_name_H-M   'P 21/c'
_symmetry_Int_Tables_number      14
_space_group_name_Hall           '-P 2ybc'
loop_
_symmetry_equiv_pos_site_id
_symmetry_equiv_pos_as_xyz
1 x,y,z
2 -x,1/2+y,1/2-z
3 -x,-y,-z
4 x,1/2-y,1/2+z
_cell_length_a                   10.173(2)
_cell_length_b                   8.9148(18)
_cell_length_c                   14.751(3)
_cell_angle_alpha                90
_cell_angle_beta                 95.17(3)
_cell_angle_gamma                90
_cell_volume                     1332.33
_exptl_crystal_colour            yellow
_exptl_crystal_description       block
_cell_formula_units_Z            2
loop_
_atom_site_label
_atom_site_type_symbol
_atom_site_fract_x
_atom_site_fract_y
_atom_site_fract_z
S1 S 0.60891(8) 0.14776(10) 0.43950(6)
C1 C 0.6753(4) 0.0376(5) 0.2923(3)
H1 H 0.7206 -0.0164 0.2491
C2 C 0.5110(3) 0.1803(3) 0.3425(2)
H2 H 0.4321 0.2378 0.3400
C3 C 0.5576(3) 0.1154(3) 0.2690(2)
H3 H 0.5157 0.1219 0.2090
C4 C 0.7205(2) 0.0462(3) 0.38425(15)
C5 C 0.8301(2) -0.0311(3) 0.43934(14)
C6 C 0.9551(2) 0.0371(2) 0.46491(14)
C7 C 0.9958(2) 0.1730(2) 0.42486(15)
C8 C 1.1141(2) 0.2435(3) 0.45787(15)
C9 C 1.2008(2) 0.1725(3) 0.52662(15)
C10 C 1.3220(2) 0.2480(3) 0.55727(16)
H4 H 1.3812 0.2020 0.6025
C11 C 1.3534(2) 0.3829(3) 0.52301(17)
H5 H 1.4328 0.4315 0.5455
C12 C 1.2684(2) 0.4526(3) 0.45359(16)
H6 H 1.2917 0.5467 0.4295
C13 C 1.1541(2) 0.3849(3) 0.42176(16)
H7 H 1.0991 0.4318 0.3745
C14 C 0.9248(2) 0.2423(3) 0.34106(15)
C15 C 0.9599(2) 0.1976(3) 0.25465(16)
H8 H 1.0237 0.1209 0.2498
C16 C 0.9010(3) 0.2659(3) 0.17711(17)
H9 H 0.9249 0.2358 0.1190
C17 C 0.8084(3) 0.3767(3) 0.18304(18)
H10 H 0.7669 0.4210 0.1293
C18 C 0.7758(2) 0.4234(3) 0.26719(19)
H11 H 0.7124 0.5008 0.2712
C19 C 0.8344(2) 0.3588(3) 0.34559(17)
H12 H 0.8130 0.3941 0.4032
S1B S 1.39109(8) -0.14776(10) 0.56050(6)
C1B C 1.3247(4) -0.0376(5) 0.7077(3)
H1B H 1.2794 0.0164 0.7509
C2B C 1.4890(3) -0.1803(3) 0.6575(2)
H2B H 1.5679 -0.2378 0.6600
C3B C 1.4424(3) -0.1154(3) 0.7310(2)
H3B H 1.4843 -0.1219 0.7910
C4B C 1.2795(2) -0.0462(3) 0.61575(15)
C5B C 1.1699(2) 0.0311(3) 0.56066(14)
C6B C 1.0449(2) -0.0371(2) 0.53509(14)
C7B C 1.0042(2) -0.1730(2) 0.57514(15)
C8B C 0.8859(2) -0.2435(3) 0.54213(15)
C9B C 0.7992(2) -0.1725(3) 0.47338(15)
C10B C 0.6780(2) -0.2480(3) 0.44273(16)
H4B H 0.6188 -0.2020 0.3975
C11B C 0.6466(2) -0.3829(3) 0.47699(17)
H5B H 0.5672 -0.4315 0.4545
C12B C 0.7316(2) -0.4526(3) 0.54641(16)
H6B H 0.7083 -0.5467 0.5705
C13B C 0.8459(2) -0.3849(3) 0.57824(16)
H7B H 0.9009 -0.4318 0.6255
C14B C 1.0752(2) -0.2423(3) 0.65894(15)
C15B C 1.0401(2) -0.1976(3) 0.74535(16)
H8B H 0.9763 -0.1209 0.7502
C16B C 1.0990(3) -0.2659(3) 0.82289(17)
H9B H 1.0751 -0.2358 0.8810
C17B C 1.1916(3) -0.3767(3) 0.81696(18)
H10B H 1.2331 -0.4210 0.8707
C18B C 1.2242(2) -0.4234(3) 0.73281(19)
H11B H 1.2876 -0.5008 0.7288
C19B C 1.1656(2) -0.3588(3) 0.65441(17)
H12B H 1.1870 -0.3941 0.5968
S2? S 0.6930(7) 0.0138(9) 0.2742(5)
C20? C 0.6062(19) 0.119(4) 0.4066(10)
H13? H 0.5919 0.1266 0.4692
loop_
_geom_bond_atom_site_label_1
_geom_bond_atom_site_label_2
_geom_bond_site_symmetry_1
_geom_bond_site_symmetry_2
S1 C2 1_555 1_555
C1 H1 1_555 1_555
C2 H2 1_555 1_555
C3 C1 1_555 1_555
H3 C3 1_555 1_555
C4 S1 1_555 1_555
C5 C4 1_555 1_555
C6 C5 1_555 1_555
C7 C6 1_555 1_555
C8 C7 1_555 1_555
C9 C8 1_555 1_555
C10 C9 1_555 1_555
H4 C10 1_555 1_555
C11 C10 1_555 1_555
H5 C11 1_555 1_555
C12 C11 1_555 1_555
H6 C12 1_555 1_555
C13 C8 1_555 1_555
H7 C13 1_555 1_555
C14 C7 1_555 1_555
C15 C14 1_555 1_555
H8 C15 1_555 1_555
C16 C15 1_555 1_555
H9 C16 1_555 1_555
C17 C16 1_555 1_555
H10 C17 1_555 1_555
C18 C17 1_555 1_555
H11 C18 1_555 1_555
C19 C14 1_555 1_555
H12 C19 1_555 1_555
S1B C2B 1_555 1_555
C1B H1B 1_555 1_555
C2B H2B 1_555 1_555
C3B C1B 1_555 1_555
H3B C3B 1_555 1_555
C4B S1B 1_555 1_555
C5B C9 1_555 1_555
C6B C6 1_555 1_555
C7B C6B 1_555 1_555
C8B C7B 1_555 1_555
C9B C5 1_555 1_555
C10B C9B 1_555 1_555
H4B C10B 1_555 1_555
C11B C10B 1_555 1_555
H5B C11B 1_555 1_555
C12B C11B 1_555 1_555
H6B C12B 1_555 1_555
C13B C8B 1_555 1_555
H7B C13B 1_555 1_555
C14B C7B 1_555 1_555
C15B C14B 1_555 1_555
H8B C15B 1_555 1_555
C16B C15B 1_555 1_555
H9B C16B 1_555 1_555
C17B C16B 1_555 1_555
H10B C17B 1_555 1_555
C18B C17B 1_555 1_555
H11B C18B 1_555 1_555
C19B C14B 1_555 1_555
H12B C19B 1_555 1_555
C1 C4 1_555 1_555
C2 C3 1_555 1_555
C12 C13 1_555 1_555
C18 C19 1_555 1_555
C1B C4B 1_555 1_555
C2B C3B 1_555 1_555
C4B C5B 1_555 1_555
C5B C6B 1_555 1_555
C8B C9B 1_555 1_555
C12B C13B 1_555 1_555
C18B C19B 1_555 1_555

#END
