
#######################################################################
#
#                 Cambridge Crystallographic Data Centre
#                                CCDC 
#
#######################################################################
#
# If this CIF has been generated from an entry in the Cambridge 
# Structural Database, then it will include bibliographic, chemical, 
# crystal, experimental, refinement or atomic coordinate data resulting 
# from the CCDC's data processing and validation procedures.
#
#######################################################################

data_PIXPES
_chemical_formula_moiety         'C14 H14 I2 O2 Te1,0.5(I2)'
_chemical_name_systematic        
'Di-iodo-bis(4-methoxyphenyl)-tellurium(iv) hemikis(di-iodine)'
_symmetry_cell_setting           triclinic
_symmetry_space_group_name_H-M   'P -1'
_symmetry_Int_Tables_number      2
_space_group_name_Hall           '-P 1'
loop_
_symmetry_equiv_pos_site_id
_symmetry_equiv_pos_as_xyz
1 x,y,z
2 -x,-y,-z
_cell_length_a                   11.158(5)
_cell_length_b                   13.552(5)
_cell_length_c                   14.284(5)
_cell_angle_alpha                63.933(5)
_cell_angle_beta                 85.830(5)
_cell_angle_gamma                77.065(5)
_cell_volume                     1890.18
_exptl_crystal_colour            'dark red'
_exptl_crystal_description       needle
_cell_formula_units_Z            4
loop_
_atom_site_label
_atom_site_type_symbol
_atom_site_fract_x
_atom_site_fract_y
_atom_site_fract_z
Te1 Te 0.79370(2) 0.63876(2) 0.52231(2)
I1 I 0.68413(3) 0.52236(2) 0.43436(2)
I2 I 0.92731(3) 0.74207(3) 0.61678(2)
C2 C 0.6930(4) 0.7993(3) 0.4156(3)
C3 C 0.6605(4) 0.6133(3) 0.6411(3)
C4 C 0.5564(4) 1.0040(3) 0.2761(3)
C7 C 0.6191(4) 0.9253(3) 0.2416(3)
H2 H 0.6154 0.9423 0.1712
C8 C 0.6369(4) 0.8781(4) 0.4505(3)
H3 H 0.6453 0.8624 0.5203
C9 C 0.5677(4) 0.9811(4) 0.3812(3)
H4 H 0.5293 1.0343 0.4045
O1 O 0.4881(3) 1.0993(3) 0.2028(2)
O2 O 0.4122(3) 0.5264(3) 0.8780(3)
C10 C 0.7008(4) 0.5575(3) 0.7455(3)
H5 H 0.7843 0.5375 0.7627
C11 C 0.6863(4) 0.8233(4) 0.3099(3)
H6 H 0.7267 0.7708 0.2865
C12 C 0.6149(4) 0.5324(3) 0.8232(4)
H7 H 0.6407 0.4974 0.8929
C13 C 0.4888(4) 0.5598(4) 0.7966(4)
C21 C 0.5366(4) 0.6428(4) 0.6145(3)
H14 H 0.5109 0.6795 0.5447
C23 C 0.4504(4) 0.6176(4) 0.6921(4)
H15 H 0.3670 0.6395 0.6742
C25 C 0.4225(5) 1.1818(4) 0.2357(4)
H17 H 0.3779 1.2451 0.1772
H18 H 0.4797 1.2061 0.2637
H19 H 0.3659 1.1495 0.2884
C27 C 0.2837(4) 0.5498(5) 0.8546(5)
H23 H 0.2402 0.5221 0.9183
H24 H 0.2705 0.5135 0.8129
H25 H 0.2540 0.6295 0.8169
Te2 Te 0.13640(2) 0.78440(2) 0.38326(2)
I3 I 0.02104(3) 0.64189(2) 0.31587(2)
I4 I 0.25324(3) 0.90519(3) 0.45453(3)
C1 C 0.2662(4) 0.8029(4) 0.2644(3)
C5 C -0.0579(4) 0.9969(4) 0.3414(4)
H1 H -0.0371 0.9799 0.4095
C6 C 0.0012(4) 0.9289(3) 0.2944(3)
O3 O -0.2705(3) 1.2093(3) 0.1381(3)
C14 C -0.1804(4) 1.1153(4) 0.1845(4)
C15 C 0.4438(4) 0.7196(3) 0.1982(3)
H8 H 0.5004 0.6563 0.2013
C16 C 0.2753(4) 0.9105(4) 0.1896(3)
H9 H 0.2195 0.9739 0.1871
C17 C -0.0309(4) 0.9537(4) 0.1933(3)
H10 H 0.0085 0.9076 0.1626
C18 C -0.1476(4) 1.0897(4) 0.2854(4)
H11 H -0.1869 1.1360 0.3160
C19 C 0.3474(4) 0.7092(4) 0.2685(3)
H12 H 0.3389 0.6384 0.3180
C20 C 0.3684(4) 0.9201(3) 0.1203(4)
H13 H 0.3754 0.9909 0.0696
O4 O 0.5431(3) 0.8466(3) 0.0526(3)
C22 C 0.4526(4) 0.8256(4) 0.1245(3)
C24 C -0.1214(4) 1.0470(4) 0.1382(4)
H16 H -0.1428 1.0640 0.0703
C26 C 0.6333(4) 0.7536(4) 0.0545(4)
H20 H 0.6909 0.7797 0.0006
H21 H 0.5942 0.7033 0.0431
H22 H 0.6759 0.7147 0.1210
C28 C -0.3176(5) 1.2328(5) 0.0388(4)
H26 H -0.3799 1.3009 0.0144
H27 H -0.3526 1.1717 0.0448
H28 H -0.2522 1.2415 -0.0097
I5 I 0.98623(3) 0.67218(3) 0.07236(3)
I6 I 0.94123(3) 0.69378(3) -0.12273(3)
loop_
_geom_bond_atom_site_label_1
_geom_bond_atom_site_label_2
_geom_bond_site_symmetry_1
_geom_bond_site_symmetry_2
Te1 I1 1_555 1_555
Te2 I3 1_555 1_555
I2 Te1 1_555 1_555
I4 Te2 1_555 1_555
C1 Te2 1_555 1_555
C2 Te1 1_555 1_555
C3 Te1 1_555 1_555
I5 I6 1_555 1_555
C4 C7 1_555 1_555
C5 H1 1_555 1_555
C6 Te2 1_555 1_555
C7 H2 1_555 1_555
C8 C2 1_555 1_555
H3 C8 1_555 1_555
C9 C4 1_555 1_555
H4 C9 1_555 1_555
O1 C4 1_555 1_555
O2 C13 1_555 1_555
C10 C3 1_555 1_555
H5 C10 1_555 1_555
C11 C2 1_555 1_555
H6 C11 1_555 1_555
C12 C10 1_555 1_555
H7 C12 1_555 1_555
C13 C12 1_555 1_555
O3 C14 1_555 1_555
C14 C18 1_555 1_555
C15 H8 1_555 1_555
C16 C1 1_555 1_555
H9 C16 1_555 1_555
C17 C6 1_555 1_555
H10 C17 1_555 1_555
C18 C5 1_555 1_555
H11 C18 1_555 1_555
C19 C1 1_555 1_555
H12 C19 1_555 1_555
C20 C16 1_555 1_555
H13 C20 1_555 1_555
O4 C22 1_555 1_555
C21 C3 1_555 1_555
H14 C21 1_555 1_555
C22 C15 1_555 1_555
C23 C13 1_555 1_555
H15 C23 1_555 1_555
C24 C14 1_555 1_555
H16 C24 1_555 1_555
C25 O1 1_555 1_555
H17 C25 1_555 1_555
H18 C25 1_555 1_555
H19 C25 1_555 1_555
C26 O4 1_555 1_555
H20 C26 1_555 1_555
H21 C26 1_555 1_555
H22 C26 1_555 1_555
C27 O2 1_555 1_555
H23 C27 1_555 1_555
H24 C27 1_555 1_555
H25 C27 1_555 1_555
C28 O3 1_555 1_555
H26 C28 1_555 1_555
H27 C28 1_555 1_555
H28 C28 1_555 1_555
C5 C6 1_555 1_555
C7 C11 1_555 1_555
C8 C9 1_555 1_555
C15 C19 1_555 1_555
C17 C24 1_555 1_555
C20 C22 1_555 1_555
C21 C23 1_555 1_555

#END
