
#######################################################################
#
#                 Cambridge Crystallographic Data Centre
#                                CCDC 
#
#######################################################################
#
# If this CIF has been generated from an entry in the Cambridge 
# Structural Database, then it will include bibliographic, chemical, 
# crystal, experimental, refinement or atomic coordinate data resulting 
# from the CCDC's data processing and validation procedures.
#
#######################################################################

data_PIXRIZ
_chemical_formula_moiety         
'C55 H60 N12 O10,1.083(C7 H8),0.667(C1 H1 Cl3),0.167(H2 O1)'
_chemical_name_systematic        
"5,5'-(propane-1,3-diylbis(oxy))bis(N,N'-bis(6-(butyrylamino)pyridin-2-yl)isophthalamide) chloroform toluene solvate hydrate"
_symmetry_cell_setting           monoclinic
_symmetry_space_group_name_H-M   'P 21/n'
_symmetry_Int_Tables_number      14
_space_group_name_Hall           '-P 2yn'
loop_
_symmetry_equiv_pos_site_id
_symmetry_equiv_pos_as_xyz
1 x,y,z
2 1/2-x,1/2+y,1/2-z
3 -x,-y,-z
4 1/2+x,1/2-y,1/2+z
_cell_length_a                   23.557(3)
_cell_length_b                   36.472(4)
_cell_length_c                   55.603(4)
_cell_angle_alpha                90
_cell_angle_beta                 94.870(10)
_cell_angle_gamma                90
_cell_volume                     47600
_exptl_crystal_colour            colorless
_exptl_crystal_description       rod
_cell_formula_units_Z            24
loop_
_atom_site_label
_atom_site_type_symbol
_atom_site_fract_x
_atom_site_fract_y
_atom_site_fract_z
C56 C 0.5574(9) 0.0506(6) 0.0712(5)
C57 C 0.5929(6) 0.0268(3) 0.0511(2)
C58 C 0.5566(5) 0.0238(3) 0.02666(18)
C59 C 0.4936(5) 0.0160(2) 0.02918(14)
C60 C 0.4272(4) -0.03621(16) 0.03631(12)
C61 C 0.3733(4) -0.02051(17) 0.03046(12)
C62 C 0.3259(3) -0.04149(17) 0.03414(11)
C63 C 0.3326(3) -0.07633(14) 0.04380(10)
C64 C 0.3879(3) -0.08934(13) 0.04929(9)
C65 C 0.3658(2) -0.14339(12) 0.07363(9)
C66 C 0.3928(2) -0.17657(12) 0.08580(8)
C67 C 0.3696(2) -0.18730(12) 0.10732(8)
C68 C 0.3950(2) -0.21504(12) 0.12060(8)
C69 C 0.4423(2) -0.23481(12) 0.11337(8)
C70 C 0.4631(2) -0.22491(13) 0.09123(9)
C71 C 0.4390(2) -0.19564(12) 0.07711(9)
C72 C 0.5111(2) -0.24632(12) 0.08141(8)
C73 C 0.5983(2) -0.28146(13) 0.09437(10)
C74 C 0.6185(2) -0.28857(15) 0.07214(10)
C75 C 0.6694(2) -0.30956(16) 0.07272(11)
C76 C 0.6972(2) -0.32177(17) 0.09401(11)
C77 C 0.6731(2) -0.31338(15) 0.11504(11)
C78 C 0.7369(2) -0.34731(16) 0.14546(13)
C79 C 0.7455(3) -0.3538(2) 0.17200(15)
C80 C 0.7189(3) -0.3899(3) 0.17896(17)
C81 C 0.7210(4) -0.3936(3) 0.20762(16)
C82 C 0.3287(2) -0.20804(13) 0.15075(9)
C83 C 0.3271(2) -0.21851(13) 0.17729(9)
C84 C 0.3109(2) -0.25825(12) 0.18152(9)
C85 C 0.2233(2) -0.29212(12) 0.18124(8)
C86 C 0.1653(2) -0.29447(12) 0.17263(8)
C87 C 0.1341(2) -0.32553(12) 0.17847(8)
C88 C 0.1585(2) -0.35303(12) 0.19350(9)
C89 C 0.2157(2) -0.34907(12) 0.20224(8)
C90 C 0.2490(2) -0.31933(11) 0.19547(9)
C91 C 0.2471(2) -0.37551(13) 0.21962(9)
C92 C 0.2318(2) -0.42520(12) 0.24887(9)
C93 C 0.2884(2) -0.43642(14) 0.25295(10)
C94 C 0.2995(2) -0.46458(14) 0.26968(10)
C95 C 0.2557(2) -0.48072(15) 0.28125(10)
C96 C 0.2008(2) -0.46708(13) 0.27607(9)
C97 C 0.1456(3) -0.50849(15) 0.30124(11)
C98 C 0.0871(3) -0.51518(16) 0.30830(12)
C99 C 0.0592(4) -0.5452(2) 0.29228(16)
C100 C 0.0015(4) -0.5570(3) 0.3002(3)
C101 C 0.0742(2) -0.33095(13) 0.16883(9)
C102 C -0.0152(2) -0.29594(13) 0.15558(9)
C103 C -0.0526(2) -0.32542(15) 0.15087(9)
C104 C -0.1092(2) -0.31570(18) 0.14380(12)
C105 C -0.1258(3) -0.27951(19) 0.14171(15)
C106 C -0.0842(2) -0.25292(19) 0.14625(14)
C107 C -0.1405(4) -0.1955(3) 0.1400(4)
C108 C -0.1338(4) -0.1551(3) 0.1330(4)
C109 C -0.1822(6) -0.1365(3) 0.1265(4)
C110 C -0.1762(12) -0.0976(7) 0.1251(7)
N13 N 0.4825(3) -0.01959(14) 0.03293(10)
N14 N 0.4347(2) -0.07050(12) 0.04541(9)
N15 N 0.40116(19) -0.12427(10) 0.05945(8)
N16 N 0.54878(16) -0.26133(10) 0.09855(7)
N17 N 0.62440(17) -0.29256(11) 0.11547(8)
N18 N 0.69270(19) -0.32379(13) 0.13845(9)
N19 N 0.21275(18) -0.39809(10) 0.23199(7)
N20 N 0.18817(18) -0.43977(10) 0.25980(7)
N21 N 0.1515(2) -0.47848(11) 0.28661(8)
N22 N 0.04347(17) -0.29908(11) 0.16374(7)
N23 N -0.02931(18) -0.26094(13) 0.15315(9)
N24 N -0.0914(2) -0.21475(15) 0.14316(14)
O11 O 0.4537(3) 0.03910(13) 0.02551(10)
O12 O 0.31787(15) -0.13351(9) 0.07778(7)
O13 O 0.51460(14) -0.24869(9) 0.05979(6)
O14 O 0.76903(17) -0.36032(11) 0.13077(9)
O15 O 0.37803(13) -0.22640(8) 0.14247(6)
O16 O 0.24977(13) -0.26099(8) 0.17431(6)
O17 O 0.29943(14) -0.37490(9) 0.22293(7)
O18 O 0.1859(2) -0.52833(12) 0.30769(9)
O19 O 0.05351(14) -0.36181(8) 0.16554(6)
O20 O -0.1879(3) -0.2109(2) 0.1389(4)
C111 C 1.0409(3) 0.0817(2) -0.07272(15)
C112 C 0.9845(3) 0.06146(18) -0.06743(13)
C113 C 0.9654(3) 0.03613(16) -0.08911(11)
C114 C 0.9107(3) 0.01786(15) -0.08367(10)
C115 C 0.8043(3) 0.02259(13) -0.09232(10)
C116 C 0.7877(3) -0.00703(15) -0.07907(11)
C117 C 0.7277(3) -0.01256(16) -0.07948(12)
C118 C 0.6882(3) 0.01082(14) -0.09187(11)
C119 C 0.7122(2) 0.03980(13) -0.10430(10)
C120 C 0.6225(3) 0.07063(14) -0.11812(10)
C121 C 0.5970(2) 0.09855(14) -0.13586(10)
C122 C 0.6197(3) 0.10534(14) -0.15735(9)
C123 C 0.5929(3) 0.13044(15) -0.17287(9)
C124 C 0.5420(2) 0.14877(14) -0.16838(9)
C125 C 0.5200(2) 0.14030(13) -0.14618(9)
C126 C 0.5465(2) 0.11552(13) -0.12989(9)
C127 C 0.4651(2) 0.15999(13) -0.14075(9)
C128 C 0.4024(2) 0.17560(14) -0.10864(10)
C129 C 0.3526(3) 0.18471(16) -0.12330(11)
C130 C 0.3082(3) 0.19958(16) -0.11183(11)
C131 C 0.3133(3) 0.20614(16) -0.08690(13)
C132 C 0.3645(2) 0.19543(16) -0.07471(10)
C133 C 0.3397(3) 0.2076(4) -0.03335(15)
C134 C 0.3681(4) 0.2116(4) -0.00739(17)
C135 C 0.3984(6) 0.2512(3) -0.0065(2)
C136 C 0.4318(7) 0.2588(5) 0.0179(3)
C137 C 0.5893(3) 0.15058(16) -0.21375(12)
C138 C 0.6300(2) 0.14540(13) -0.23524(9)
C139 C 0.6830(3) 0.17022(16) -0.23314(12)
C140 C 0.7048(3) 0.23269(15) -0.24095(11)
C141 C 0.7639(3) 0.22894(13) -0.23359(10)
C142 C 0.7994(2) 0.25947(13) -0.23968(10)
C143 C 0.7764(3) 0.28961(14) -0.25157(9)
C144 C 0.7175(3) 0.29156(15) -0.25711(10)
C145 C 0.6818(3) 0.26347(14) -0.25219(10)
C146 C 0.6947(3) 0.32546(15) -0.27040(10)
C147 C 0.6076(2) 0.36291(14) -0.27919(9)
C148 C 0.6276(3) 0.38714(17) -0.29566(10)
C149 C 0.5902(3) 0.41420(16) -0.30445(11)
C150 C 0.5362(3) 0.41720(16) -0.29703(10)
C151 C 0.5197(3) 0.39206(15) -0.28030(10)
C152 C 0.4216(3) 0.41467(17) -0.27542(14)
C153 C 0.3677(4) 0.4022(2) -0.2642(2)
C154 C 0.3132(7) 0.4262(5) -0.2758(5)
C155 C 0.2514(12) 0.4104(7) -0.2754(5)
C156 C 0.8607(3) 0.25564(12) -0.23257(9)
C157 C 0.9525(3) 0.29103(13) -0.22518(10)
C158 C 0.9914(3) 0.26130(16) -0.22502(11)
C159 C 1.0472(3) 0.26905(16) -0.21794(12)
C160 C 1.0659(3) 0.30445(16) -0.21151(11)
C161 C 1.0233(2) 0.33217(13) -0.21263(10)
C162 C 1.0853(3) 0.38569(17) -0.20127(11)
C163 C 1.0792(3) 0.42514(17) -0.19446(14)
C164 C 1.1385(3) 0.4443(2) -0.1904(2)
C165 C 1.1316(4) 0.4845(2) -0.1847(2)
N25 N 0.8614(2) 0.03264(12) -0.09518(8)
N26 N 0.7679(2) 0.04541(11) -0.10477(8)
N27 N 0.6792(2) 0.06462(11) -0.11922(8)
N28 N 0.4518(2) 0.15962(12) -0.11768(8)
N29 N 0.40845(18) 0.18010(12) -0.08483(8)
N30 N 0.3779(2) 0.20079(14) -0.04947(9)
N31 N 0.6376(2) 0.33349(13) -0.26857(8)
N32 N 0.5545(2) 0.36504(12) -0.27147(8)
N33 N 0.4665(2) 0.39032(13) -0.27083(9)
N34 N 0.8936(2) 0.28736(11) -0.23157(8)
N35 N 0.96831(18) 0.32542(11) -0.21953(8)
N36 N 1.03373(18) 0.36842(12) -0.20553(8)
O21 O 0.9092(2) -0.00841(10) -0.06918(7)
O22 O 0.59144(18) 0.05608(10) -0.10402(7)
O23 O 0.43392(18) 0.17457(10) -0.15672(7)
O24 O 0.2893(3) 0.2132(5) -0.03816(13)
O25 O 0.62153(19) 0.13494(11) -0.19411(8)
O26 O 0.66298(19) 0.20569(11) -0.23658(7)
O27 O 0.72770(18) 0.34417(12) -0.28196(8)
O28 O 0.4243(2) 0.44225(10) -0.28688(8)
O29 O 0.8846(2) 0.22614(9) -0.22710(7)
O30 O 1.13119(17) 0.37005(12) -0.20361(9)
C166 C 0.3023(5) 0.0768(2) 0.1503(2)
C167 C 0.2419(4) 0.06073(18) 0.15959(13)
C168 C 0.2342(3) 0.02269(18) 0.14950(13)
C169 C 0.1830(3) 0.00462(15) 0.15868(11)
C170 C 0.1294(2) -0.05441(14) 0.15683(9)
C171 C 0.1034(3) -0.05193(16) 0.17837(10)
C172 C 0.0612(3) -0.07684(17) 0.18191(10)
C173 C 0.0438(3) -0.10374(16) 0.16465(11)
C174 C 0.0741(2) -0.10349(14) 0.14387(9)
C175 C 0.0368(2) -0.16102(15) 0.12491(10)
C176 C 0.0353(2) -0.18324(14) 0.10285(11)
C177 C 0.0210(2) -0.22011(14) 0.10552(11)
C178 C 0.0178(2) -0.24261(13) 0.08552(10)
C179 C 0.0300(2) -0.22998(14) 0.06240(10)
C180 C 0.0443(2) -0.19257(14) 0.06006(10)
C181 C 0.0457(2) -0.16961(14) 0.08000(10)
C182 C 0.0563(2) -0.17443(14) 0.03688(10)
C183 C 0.0876(2) -0.18506(14) -0.00350(10)
C184 C 0.0731(3) -0.15075(16) -0.01333(11)
C185 C 0.0885(3) -0.14325(16) -0.03623(12)
C186 C 0.1174(3) -0.16926(16) -0.04983(12)
C187 C 0.1301(3) -0.20306(15) -0.03767(11)
C188 C 0.1819(3) -0.23301(18) -0.06933(12)
C189 C 0.2111(5) -0.2693(2) -0.07557(14)
C190 C 0.2837(6) -0.2594(3) -0.0683(2)
C191 C 0.3166(6) -0.2952(4) -0.0710(2)
C192 C -0.0093(2) -0.30247(15) 0.07007(10)
C193 C -0.0384(2) -0.33698(14) 0.08021(10)
C194 C -0.0002(2) -0.35939(15) 0.09890(10)
C195 C 0.0734(2) -0.40403(12) 0.09705(9)
C196 C 0.0683(2) -0.41601(12) 0.12042(9)
C197 C 0.0997(2) -0.44748(12) 0.12855(9)
C198 C 0.1359(2) -0.46555(12) 0.11369(8)
C199 C 0.1413(2) -0.45119(13) 0.09026(9)
C200 C 0.1105(2) -0.42085(13) 0.08222(9)
C201 C 0.1771(2) -0.46897(13) 0.07288(9)
C202 C 0.2633(2) -0.50722(13) 0.06891(9)
C203 C 0.2567(3) -0.51378(16) 0.04421(10)
C204 C 0.3026(3) -0.53147(17) 0.03437(10)
C205 C 0.3516(2) -0.54238(15) 0.04875(10)
C206 C 0.3524(2) -0.53404(13) 0.07309(9)
C207 C 0.4476(3) -0.56069(16) 0.08614(11)
C208 C 0.4940(3) -0.55956(17) 0.10708(11)
C209 C 0.5272(3) -0.5223(2) 0.10628(15)
C210 C 0.5762(4) -0.5210(2) 0.12766(16)
C211 C 0.0940(2) -0.46460(13) 0.15241(9)
C212 C 0.0658(2) -0.45249(13) 0.19332(9)
C213 C 0.0521(2) -0.48855(13) 0.19970(10)
C214 C 0.0394(2) -0.49486(14) 0.22312(10)
C215 C 0.0402(2) -0.46627(14) 0.24019(11)
C216 C 0.0564(2) -0.43193(13) 0.23181(10)
C217 C 0.0621(3) -0.39902(14) 0.27108(9)
C218 C 0.0686(4) -0.36051(17) 0.28103(13)
C219 C 0.1285(4) -0.3561(2) 0.29216(19)
C220 C 0.1385(5) -0.3173(2) 0.3051(2)
N37 N 0.1743(2) -0.03197(12) 0.15157(8)
N38 N 0.11484(18) -0.07959(11) 0.13947(8)
N39 N 0.06456(18) -0.12841(11) 0.12427(8)
N40 N 0.07473(19) -0.19705(11) 0.01938(8)
N41 N 0.1141(2) -0.21084(12) -0.01561(8)
N42 N 0.1588(2) -0.23239(13) -0.04773(8)
N43 N 0.22235(17) -0.48969(10) 0.08216(7)
N44 N 0.30869(17) -0.51778(10) 0.08314(7)
N45 N 0.39917(18) -0.54111(11) 0.08962(8)
N46 N 0.07666(17) -0.44131(11) 0.17038(7)
N47 N 0.06844(17) -0.42453(10) 0.20955(7)
N48 N 0.05893(19) -0.39994(11) 0.24662(8)
O31 O 0.1482(2) 0.01994(12) 0.17095(9)
O32 O 0.01208(16) -0.17170(10) 0.14262(7)
O33 O 0.04860(19) -0.14152(9) 0.03423(7)
O34 O 0.1798(2) -0.20791(11) -0.08401(7)
O35 O 0.00090(17) -0.27805(10) 0.09002(7)
O36 O 0.04426(15) -0.37501(9) 0.08627(7)
O37 O 0.16608(15) -0.46426(9) 0.05084(6)
O38 O 0.4534(2) -0.57751(14) 0.06731(8)
O39 O 0.10330(16) -0.49727(9) 0.15581(6)
O40 O 0.05868(18) -0.42602(10) 0.28421(7)
C221 C 1.0533(4) -0.0177(2) -0.13470(14)
Cl1 Cl 0.98190(13) -0.01765(7) -0.14547(4)
Cl2 Cl 1.09463(16) -0.04204(8) -0.15361(5)
Cl3 Cl 1.07855(15) 0.02772(8) -0.13125(5)
C222 C 0.8404(3) 0.4953(2) 0.03047(12)
Cl4 Cl 0.83223(10) 0.46175(5) 0.00911(3)
Cl5 Cl 0.83297(13) 0.47333(7) 0.05957(4)
Cl6 Cl 0.79699(17) 0.53039(11) 0.02451(9)
C223 C -0.1487(6) 0.4800(4) 0.2663(3)
Cl7 Cl -0.0924(2) 0.50129(14) 0.25581(10)
Cl8 Cl -0.1644(3) 0.49896(15) 0.29402(12)
Cl9 Cl -0.2126(4) 0.4868(3) 0.24537(17)
C224 C 0.5523(4) -0.6469(2) 0.27613(17)
Cl10 Cl 0.4834(2) -0.65755(8) 0.28243(8)
Cl11 Cl 0.5705(3) -0.67222(9) 0.25275(9)
Cl12 Cl 0.5736(4) -0.66716(15) 0.30291(13)
C225 C 0.8190(7) 0.0057(4) 0.0660(2)
C226 C 0.8680(5) 0.0361(3) 0.07287(15)
C227 C 0.8556(5) 0.0666(3) 0.08776(18)
C228 C 0.8955(6) 0.0899(3) 0.09385(16)
C229 C 0.9529(5) 0.0866(2) 0.08798(14)
C230 C 0.9619(5) 0.0551(2) 0.07317(13)
C231 C 0.9205(5) 0.0312(3) 0.06555(14)
C232 C 0.0712(6) 0.4105(3) 0.1672(2)
C233 C 0.0305(5) 0.4132(2) 0.1858(2)
C234 C 0.0429(4) 0.4026(2) 0.20936(17)
C235 C 0.0038(5) 0.4058(2) 0.22648(19)
C236 C -0.0511(5) 0.4181(2) 0.2213(2)
C237 C -0.0658(5) 0.4273(3) 0.1987(3)
C238 C -0.0294(7) 0.4271(2) 0.1789(2)
C1 C 0.0596(11) -0.2126(4) 0.3174(3)
C2 C 0.0783(9) -0.1751(3) 0.3051(2)
C3 C 0.1056(4) -0.18365(19) 0.28266(13)
C4 C 0.1314(4) -0.15012(16) 0.27202(12)
C5 C 0.1726(3) -0.13250(14) 0.23357(10)
C6 C 0.2028(3) -0.10035(13) 0.24095(10)
C7 C 0.2297(2) -0.08186(13) 0.22428(10)
C8 C 0.2293(2) -0.09445(13) 0.20040(9)
C9 C 0.1981(2) -0.12641(12) 0.19488(9)
C10 C 0.2150(2) -0.13250(12) 0.15162(9)
C11 C 0.2009(2) -0.15642(12) 0.12981(9)
C12 C 0.1874(2) -0.19341(12) 0.13232(9)
C13 C 0.1793(2) -0.21493(12) 0.11154(9)
C14 C 0.18433(19) -0.20046(12) 0.08884(9)
C15 C 0.1948(2) -0.16166(12) 0.08672(9)
C16 C 0.2041(2) -0.13985(13) 0.10720(9)
C17 C 0.1942(2) -0.14846(12) 0.06124(9)
C18 C 0.1788(2) -0.09294(13) 0.03572(10)
C19 C 0.1953(2) -0.10741(15) 0.01413(10)
C20 C 0.1873(3) -0.08514(16) -0.00637(11)
C21 C 0.1654(3) -0.05053(16) -0.00517(12)
C22 C 0.1521(3) -0.03878(15) 0.01770(10)
C23 C 0.1150(4) 0.02302(18) 0.00568(12)
C24 C 0.0949(4) 0.05937(18) 0.01781(13)
C25 C 0.0479(3) 0.07886(17) 0.00104(13)
C26 C -0.0076(4) 0.05815(18) -0.00020(14)
C27 C 0.1613(2) -0.27439(12) 0.09446(9)
C28 C 0.1314(2) -0.30985(13) 0.10199(10)
C29 C 0.1688(2) -0.33520(12) 0.11847(9)
C30 C 0.23764(18) -0.38247(11) 0.11287(8)
C31 C 0.22858(19) -0.39782(11) 0.13483(9)
C32 C 0.2601(2) -0.42967(12) 0.14259(8)
C33 C 0.3024(2) -0.44337(12) 0.12873(8)
C34 C 0.31117(19) -0.42645(11) 0.10695(8)
C35 C 0.2778(2) -0.39673(12) 0.09852(8)
C36 C 0.35845(19) -0.44023(12) 0.09317(9)
C37 C 0.3858(2) -0.44907(12) 0.05121(8)
C38 C 0.4380(2) -0.46770(13) 0.05625(10)
C39 C 0.4659(2) -0.47922(14) 0.03608(9)
C40 C 0.4417(2) -0.47267(15) 0.01312(10)
C41 C 0.3891(2) -0.45393(14) 0.01031(9)
C42 C 0.3723(3) -0.4534(2) -0.03459(11)
C43 C 0.3304(3) -0.4373(3) -0.05382(11)
C44 C 0.3524(7) -0.4345(6) -0.0763(3)
C45 C 0.3097(11) -0.4159(8) -0.0960(3)
C46 C 0.2413(2) -0.44683(13) 0.16519(9)
C47 C 0.2331(2) -0.50684(12) 0.18551(8)
C48 C 0.2081(2) -0.49427(14) 0.20635(9)
C49 C 0.1902(2) -0.52076(13) 0.22153(9)
C50 C 0.1957(2) -0.55793(14) 0.21649(9)
C51 C 0.2212(2) -0.56676(13) 0.19564(9)
C52 C 0.2128(4) -0.63449(15) 0.19808(11)
C53 C 0.2312(5) -0.66883(16) 0.18450(13)
C54 C 0.2299(4) -0.70289(14) 0.20012(12)
C55 C 0.2469(5) -0.73691(18) 0.18584(15)
N1 N 0.1448(3) -0.15583(12) 0.24875(9)
N2 N 0.1704(2) -0.14496(10) 0.21076(8)
N3 N 0.19172(17) -0.14329(10) 0.17189(7)
N4 N 0.18557(18) -0.11142(10) 0.05804(7)
N5 N 0.1585(2) -0.05906(11) 0.03767(8)
N6 N 0.1288(3) -0.00364(12) 0.02236(9)
N7 N 0.35058(17) -0.43560(10) 0.06876(7)
N8 N 0.36230(17) -0.44196(10) 0.02928(7)
N9 N 0.3599(2) -0.44328(13) -0.01139(8)
N10 N 0.25356(17) -0.48357(10) 0.16781(7)
N11 N 0.24008(18) -0.54211(10) 0.18031(7)
N12 N 0.2306(2) -0.60300(11) 0.18767(8)
O1 O 0.1427(3) -0.12211(11) 0.28314(8)
O2 O 0.24666(15) -0.10553(9) 0.15043(6)
O3 O 0.19734(16) -0.16979(8) 0.04471(6)
O4 O 0.1164(3) 0.02035(13) -0.01588(8)
O5 O 0.16661(14) -0.25080(8) 0.11561(6)
O6 O 0.20777(13) -0.35267(8) 0.10326(5)
O7 O 0.40165(14) -0.45461(8) 0.10362(6)
O8 O 0.4105(2) -0.47534(17) -0.03870(8)
O9 O 0.21389(15) -0.42894(8) 0.17891(6)
O10 O 0.1865(2) -0.63601(10) 0.21591(7)
C239? C 0.1808(10) 0.3833(5) 0.0386(3)
C240? C 0.2407(12) 0.3753(6) 0.0432(4)
C241? C 0.2729(17) 0.3420(11) 0.0515(6)
C242? C 0.224(7) 0.337(4) 0.084(3)
C243? C 0.1966(15) 0.3210(4) 0.0589(3)
C244? C 0.1448(8) 0.3520(5) 0.0449(2)
C245? C 0.1944(11) 0.1767(4) 0.1515(3)
C246? C 0.1633(15) 0.1437(5) 0.1354(3)
C247? C 0.1164(13) 0.1296(12) 0.1396(8)
C248? C 0.1111(12) 0.0930(6) 0.1178(7)
C249? C 0.1343(16) 0.0882(7) 0.1059(3)
C250? C 0.2054(11) 0.1325(6) 0.1161(4)
C251? C 0.2053(10) 0.1038(4) 0.0884(7)
C252? C 0.8294(4) 0.7295(3) 0.0833(2)
C253? C 0.8174(4) 0.7118(5) 0.0582(4)
C254? C 0.8163(4) 0.6716(3) 0.0524(2)
C255? C 0.8146(6) 0.6608(8) 0.0267(5)
C256? C 0.7996(13) 0.704(2) 0.0173(11)
C257? C 0.8505(12) 0.7427(7) 0.0384(5)
C258? C 0.5292(7) -0.0816(4) 0.0892(2)
C259? C 0.5599(14) -0.0547(5) 0.1127(8)
C260? C 0.6306(6) -0.0945(6) 0.1830(4)
C261? C 0.6689(11) -0.1105(3) 0.1852(2)
C262? C 0.697(2) -0.0825(9) 0.1583(6)
C263? C 0.4295(4) -0.3481(2) -0.09038(16)
C264? C 0.4987(3) -0.3953(2) -0.01274(11)
C265? C 0.5719(9) -0.4010(6) -0.0029(2)
C266? C 0.6663(13) -0.3745(6) 0.0118(4)
C267? C 0.6832(8) -0.4032(4) 0.0253(3)
C268? C 0.6450(6) -0.4337(7) 0.0240(4)
C269? C 0.6048(9) -0.4346(4) 0.0127(3)
C270? C 0.5903(12) -0.3532(9) -0.0117(6)
C271? C 0.5590(15) 0.2310(6) 0.0979(7)
C272? C 0.5800(15) 0.2083(12) 0.0775(3)
C273? C 0.5930(9) 0.1692(8) 0.0809(4)
C274? C 0.5509(19) 0.1526(13) 0.1054(12)
C275? C 0.5268(15) 0.1913(17) 0.1154(5)
C276? C 1.0010(14) 0.1586(9) 0.1290(6)
C277? C 0.973(2) 0.1329(8) 0.1479(4)
C278? C 0.9271(15) 0.1395(5) 0.1635(4)
C279? C 0.8863(10) 0.1691(8) 0.1607(6)
C280? C 0.9063(11) 0.1940(5) 0.1362(4)
C281? C 0.9545(13) 0.1874(6) 0.1203(5)
C282? C 0.4292(7) -0.2305(6) 0.3116(3)
C283? C 0.4575(5) -0.2589(3) 0.32872(18)
C284? C 0.4740(4) -0.2883(2) 0.31283(12)
C285? C 0.5267(3) -0.27987(16) 0.29997(11)
C286? C 0.5719(2) -0.29761(14) 0.26249(10)
C287? C 0.6169(2) -0.27272(15) 0.26434(10)
C288? C 0.6521(3) -0.27237(16) 0.24528(11)
C289? C 0.6407(2) -0.29445(15) 0.22510(11)
C290? C 0.5937(2) -0.31814(14) 0.22556(9)
C291? C 0.5842(2) -0.33805(12) 0.18347(9)
C292? C 0.5578(2) -0.36552(13) 0.16619(9)
C293? C 0.5551(2) -0.35722(13) 0.14181(9)
C294? C 0.53484(19) -0.38305(13) 0.12485(8)
C295? C 0.5130(2) -0.41663(13) 0.13193(9)
C296? C 0.5142(2) -0.42470(13) 0.15637(9)
C297? C 0.5371(2) -0.39994(12) 0.17369(9)
C298? C 0.4946(2) -0.46062(14) 0.16633(9)
C299? C 0.4313(2) -0.51344(13) 0.15833(9)
C300? C 0.4526(3) -0.53494(13) 0.17746(10)
C301? C 0.4226(3) -0.56773(15) 0.18109(10)
C302? C 0.3753(2) -0.57849(14) 0.16617(10)
C303? C 0.3596(2) -0.55482(13) 0.14693(9)
C304? C 0.2766(2) -0.59114(14) 0.12853(10)
C305? C 0.2298(3) -0.5892(2) 0.10804(14)
C306? C 0.1698(4) -0.5711(2) 0.12161(15)
C307? C 0.1240(4) -0.5662(3) 0.1049(2)
C308? C 0.5243(2) -0.39930(13) 0.08275(9)
C309? C 0.5466(2) -0.38396(15) 0.05977(10)
C310? C 0.5174(2) -0.34942(14) 0.04928(10)
C311? C 0.4260(2) -0.33697(13) 0.02670(9)
C312? C 0.4433(2) -0.30106(13) 0.02155(9)
C313? C 0.4055(2) -0.28035(13) 0.00598(9)
C314? C 0.3538(2) -0.29473(13) -0.00400(9)
C315? C 0.3384(2) -0.33063(13) 0.00252(9)
C316? C 0.3750(2) -0.35120(13) 0.01799(8)
C317? C 0.2843(2) -0.34846(13) -0.00768(9)
C318? C 0.1857(2) -0.33589(13) -0.02554(10)
C319? C 0.1716(3) -0.37082(16) -0.03366(12)
C320? C 0.1138(3) -0.37701(19) -0.04202(15)
C321? C 0.0736(3) -0.34939(18) -0.04187(14)
C322? C 0.0937(3) -0.31507(15) -0.03339(11)
C323? C 0.0001(3) -0.2818(2) -0.03915(18)
C324? C -0.0243(3) -0.2442(3) -0.0354(2)
C325? C -0.0476(11) -0.2494(5) -0.0102(4)
C326? C -0.0611(11) -0.2202(12) -0.0016(5)
C327? C 0.4192(2) -0.24192(14) -0.00234(9)
C328? C 0.4771(2) -0.18667(14) 0.00770(9)
C329? C 0.4677(3) -0.16926(16) -0.01440(11)
C330? C 0.4897(3) -0.13384(16) -0.01624(12)
C331? C 0.5204(3) -0.11671(17) 0.00350(11)
C332? C 0.5269(3) -0.13638(14) 0.02463(10)
C333? C 0.5783(5) -0.0912(2) 0.05077(16)
C334? C 0.6009(11) -0.0825(4) 0.0779(2)
N49? N 0.5311(2) -0.30090(12) 0.27988(8)
N50? N 0.56042(18) -0.32030(11) 0.24370(8)
N51? N 0.57588(18) -0.34246(11) 0.20690(7)
N52? N 0.45430(17) -0.47975(10) 0.15172(7)
N53? N 0.38631(18) -0.52300(9) 0.14315(7)
N54? N 0.31308(19) -0.56137(11) 0.12987(8)
N55? N 0.24076(17) -0.32551(10) -0.01611(7)
N56? N 0.14840(19) -0.30820(11) -0.02580(8)
N57? N 0.0579(2) -0.28459(14) -0.03153(10)
N58? N 0.45894(18) -0.22301(11) 0.01217(7)
N59? N 0.50660(19) -0.17151(11) 0.02694(7)
N60? N 0.5560(3) -0.12465(13) 0.04616(9)
O41? O 0.5613(2) -0.25610(12) 0.30659(8)
O42? O 0.61276(16) -0.31273(9) 0.17596(6)
O43? O 0.51495(18) -0.47108(10) 0.18561(7)
O44? O 0.27933(17) -0.61619(9) 0.14302(6)
O45? O 0.53753(14) -0.37213(8) 0.10167(6)
O46? O 0.45930(14) -0.36073(8) 0.04129(6)
O47? O 0.27913(14) -0.38179(8) -0.00781(6)
O48? O -0.0246(3) -0.30558(19) -0.05035(16)
O49? O 0.39530(18) -0.23016(10) -0.02101(7)
O50? O 0.5799(3) -0.06656(12) 0.03594(9)
C335? C 0.6625(16) -0.5666(10) 0.2854(7)
C336? C 0.6197(6) -0.5640(4) 0.3048(2)
C337? C 0.5887(4) -0.53075(18) 0.29570(15)
C338? C 0.5377(3) -0.53753(14) 0.27808(10)
C339? C 0.4639(3) -0.50258(14) 0.25285(10)
C340? C 0.4250(2) -0.53099(14) 0.24602(10)
C341? C 0.3808(2) -0.52288(14) 0.22886(11)
C342? C 0.3736(2) -0.48782(13) 0.21835(10)
C343? C 0.4147(2) -0.46187(13) 0.22656(9)
C344? C 0.3902(2) -0.41345(13) 0.19667(9)
C345? C 0.4045(2) -0.37417(13) 0.19032(9)
C346? C 0.3992(2) -0.36642(12) 0.16578(9)
C347? C 0.41619(19) -0.33187(12) 0.15810(8)
C348? C 0.43494(19) -0.30485(12) 0.17468(9)
C349? C 0.4375(2) -0.31262(12) 0.19938(9)
C350? C 0.4229(2) -0.34774(12) 0.20767(8)
C351? C 0.4532(2) -0.28446(13) 0.21780(9)
C352? C 0.5090(2) -0.22608(12) 0.22449(9)
C353? C 0.4992(2) -0.21996(14) 0.24824(9)
C354? C 0.5272(3) -0.18927(15) 0.25900(10)
C355? C 0.5609(3) -0.16678(15) 0.24645(10)
C356? C 0.5649(3) -0.17544(14) 0.22250(10)
C357? C 0.6226(4) -0.1220(2) 0.21057(15)
C358? C 0.3934(2) -0.34813(12) 0.11668(8)
C359? C 0.4113(2) -0.33519(13) 0.09238(9)
C360? C 0.3767(2) -0.30304(13) 0.08145(9)
C361? C 0.2340(2) -0.30981(12) 0.04981(8)
C362? C 0.1961(2) -0.28914(12) 0.03434(8)
C363? C 0.2129(2) -0.25573(13) 0.02491(9)
C364? C 0.2684(2) -0.24264(12) 0.03172(9)
C365? C 0.3057(2) -0.26183(12) 0.04835(8)
C366? C 0.2940(2) -0.20876(12) 0.02163(9)
C367? C 0.2889(2) -0.16819(13) -0.01384(9)
C368? C 0.3254(3) -0.14030(14) -0.00383(11)
C369? C 0.3381(3) -0.11204(15) -0.01991(11)
C370? C 0.3158(3) -0.11283(17) -0.04404(11)
C371? C 0.2810(3) -0.14202(16) -0.05191(10)
C372? C 0.2657(4) -0.1267(2) -0.09534(12)
C373? C 0.2335(4) -0.1406(2) -0.11844(13)
C374? C 0.2783(9) -0.1509(8) -0.1358(3)
C375? C 0.3034(13) -0.1915(7) -0.1320(5)
C376? C 0.1360(2) -0.30116(13) 0.02809(9)
C377? C 0.0751(2) -0.35693(14) 0.02326(9)
C378? C 0.0222(2) -0.34090(15) 0.01613(10)
C379? C -0.0248(2) -0.36356(15) 0.01264(10)
C380? C -0.0199(2) -0.40164(16) 0.01601(10)
C381? C 0.0366(2) -0.41471(14) 0.02300(10)
C382? C 0.2880(2) -0.29599(12) 0.05685(8)
C383? C 0.0135(2) -0.48109(15) 0.02865(10)
C384? C 0.0443(3) -0.51591(16) 0.03645(13)
C385? C 0.0037(3) -0.54674(19) 0.04171(17)
C386? C 0.0343(6) -0.5785(3) 0.0502(4)
N61? N 0.5104(2) -0.50613(12) 0.26990(8)
N62? N 0.45889(19) -0.46876(10) 0.24317(7)
N63? N 0.41541(17) -0.42533(10) 0.21864(7)
N64? N 0.48624(17) -0.25634(10) 0.21062(7)
N65? N 0.54017(18) -0.20467(11) 0.21107(7)
N66? N 0.5936(3) -0.15402(14) 0.20571(10)
N67? N 0.26928(18) -0.19742(10) -0.00010(7)
N68? N 0.2669(2) -0.16918(11) -0.03688(8)
N69? N 0.2551(3) -0.14777(15) -0.07526(9)
N70? N 0.12741(18) -0.33832(11) 0.02798(7)
N71? N 0.08223(17) -0.39321(11) 0.02640(7)
N72? N 0.0499(2) -0.45141(12) 0.02854(8)
O51? O 0.51997(17) -0.56819(10) 0.27174(7)
O52? O 0.36269(16) -0.43289(9) 0.18229(6)
O53? O 0.43571(16) -0.28664(9) 0.23801(6)
O54? O 0.6284(3) -0.10715(15) 0.23006(10)
O55? O 0.41489(13) -0.32116(8) 0.13460(5)
O56? O 0.32086(13) -0.31753(8) 0.07222(6)
O57? O 0.33620(16) -0.19452(9) 0.03213(6)
O58? O 0.2953(3) -0.09912(15) -0.09449(9)
O59? O 0.09687(15) -0.27838(9) 0.02430(7)
O60? O -0.03802(17) -0.47869(11) 0.02259(8)
loop_
_geom_bond_atom_site_label_1
_geom_bond_atom_site_label_2
_geom_bond_site_symmetry_1
_geom_bond_site_symmetry_2
C1 C2 1_555 1_555
C2 C3 1_555 1_555
C3 C4 1_555 1_555
C4 N1 1_555 1_555
C5 C6 1_555 1_555
C6 C7 1_555 1_555
C7 C8 1_555 1_555
C8 C9 1_555 1_555
C9 N2 1_555 1_555
C10 C11 1_555 1_555
C11 C12 1_555 1_555
C12 C13 1_555 1_555
C13 C14 1_555 1_555
C14 C15 1_555 1_555
C15 C16 1_555 1_555
C16 C11 1_555 1_555
C17 C15 1_555 1_555
C18 C19 1_555 1_555
C19 C20 1_555 1_555
C20 C21 1_555 1_555
C21 C22 1_555 1_555
C22 N5 1_555 1_555
C23 C24 1_555 1_555
C24 C25 1_555 1_555
C25 C26 1_555 1_555
C27 C28 1_555 1_555
C28 C29 1_555 1_555
C29 O6 1_555 1_555
C30 C31 1_555 1_555
C31 C32 1_555 1_555
C32 C33 1_555 1_555
C33 C34 1_555 1_555
C34 C35 1_555 1_555
C35 C30 1_555 1_555
C36 C34 1_555 1_555
C37 C38 1_555 1_555
C38 C39 1_555 1_555
C39 C40 1_555 1_555
C40 C41 1_555 1_555
C41 N8 1_555 1_555
C42 C43 1_555 1_555
C43 C44 1_555 1_555
C44 C45 1_555 1_555
C46 C32 1_555 1_555
C47 C48 1_555 1_555
C48 C49 1_555 1_555
C49 C50 1_555 1_555
C50 C51 1_555 1_555
C51 N11 1_555 1_555
C52 C53 1_555 1_555
C53 C54 1_555 1_555
C54 C55 1_555 1_555
N1 C5 1_555 1_555
N2 C5 1_555 1_555
N3 C9 1_555 1_555
N4 C17 1_555 1_555
N5 C18 1_555 1_555
N6 C22 1_555 1_555
N7 C36 1_555 1_555
N8 C37 1_555 1_555
N9 C41 1_555 1_555
N10 C46 1_555 1_555
N11 C47 1_555 1_555
N12 C51 1_555 1_555
O1 C4 1_555 1_555
O2 C10 1_555 1_555
O3 C17 1_555 1_555
O4 C23 1_555 1_555
O5 C13 1_555 1_555
O6 C30 1_555 1_555
O7 C36 1_555 1_555
O8 C42 1_555 1_555
O9 C46 1_555 1_555
O10 C52 1_555 1_555
C56 C57 1_555 1_555
C57 C58 1_555 1_555
C58 C59 1_555 1_555
C59 N13 1_555 1_555
C60 C61 1_555 1_555
C61 C62 1_555 1_555
C62 C63 1_555 1_555
C63 C64 1_555 1_555
C64 N14 1_555 1_555
C65 C66 1_555 1_555
C66 C67 1_555 1_555
C67 C68 1_555 1_555
C68 C69 1_555 1_555
C69 C70 1_555 1_555
C70 C71 1_555 1_555
C71 C66 1_555 1_555
C72 C70 1_555 1_555
C73 C74 1_555 1_555
C74 C75 1_555 1_555
C75 C76 1_555 1_555
C76 C77 1_555 1_555
C77 N17 1_555 1_555
C78 C79 1_555 1_555
C79 C80 1_555 1_555
C80 C81 1_555 1_555
C82 C83 1_555 1_555
C83 C84 1_555 1_555
C84 O16 1_555 1_555
C85 C86 1_555 1_555
C86 C87 1_555 1_555
C87 C88 1_555 1_555
C88 C89 1_555 1_555
C89 C90 1_555 1_555
C90 C85 1_555 1_555
C91 C89 1_555 1_555
C92 C93 1_555 1_555
C93 C94 1_555 1_555
C94 C95 1_555 1_555
C95 C96 1_555 1_555
C96 N20 1_555 1_555
C97 C98 1_555 1_555
C98 C99 1_555 1_555
C99 C100 1_555 1_555
C101 C87 1_555 1_555
C102 C103 1_555 1_555
C103 C104 1_555 1_555
C104 C105 1_555 1_555
C105 C106 1_555 1_555
C106 N23 1_555 1_555
C107 C108 1_555 1_555
C108 C109 1_555 1_555
C109 C110 1_555 1_555
N13 C60 1_555 1_555
N14 C60 1_555 1_555
N15 C64 1_555 1_555
N16 C72 1_555 1_555
N17 C73 1_555 1_555
N18 C77 1_555 1_555
N19 C91 1_555 1_555
N20 C92 1_555 1_555
N21 C96 1_555 1_555
N22 C101 1_555 1_555
N23 C102 1_555 1_555
N24 C106 1_555 1_555
O11 C59 1_555 1_555
O12 C65 1_555 1_555
O13 C72 1_555 1_555
O14 C78 1_555 1_555
O15 C68 1_555 1_555
O16 C85 1_555 1_555
O17 C91 1_555 1_555
O18 C97 1_555 1_555
O19 C101 1_555 1_555
O20 C107 1_555 1_555
C111 C112 1_555 1_555
C112 C113 1_555 1_555
C113 C114 1_555 1_555
C114 N25 1_555 1_555
C115 C116 1_555 1_555
C116 C117 1_555 1_555
C117 C118 1_555 1_555
C118 C119 1_555 1_555
C119 N26 1_555 1_555
C120 C121 1_555 1_555
C121 C122 1_555 1_555
C122 C123 1_555 1_555
C123 C124 1_555 1_555
C124 C125 1_555 1_555
C125 C126 1_555 1_555
C126 C121 1_555 1_555
C127 C125 1_555 1_555
C128 C129 1_555 1_555
C129 C130 1_555 1_555
C130 C131 1_555 1_555
C131 C132 1_555 1_555
C132 N29 1_555 1_555
C133 C134 1_555 1_555
C134 C135 1_555 1_555
C135 C136 1_555 1_555
C137 C138 1_555 1_555
C138 C139 1_555 1_555
C139 O26 1_555 1_555
C140 C141 1_555 1_555
C141 C142 1_555 1_555
C142 C143 1_555 1_555
C143 C144 1_555 1_555
C144 C145 1_555 1_555
C145 C140 1_555 1_555
C146 C144 1_555 1_555
C147 C148 1_555 1_555
C148 C149 1_555 1_555
C149 C150 1_555 1_555
C150 C151 1_555 1_555
C151 N32 1_555 1_555
C152 C153 1_555 1_555
C153 C154 1_555 1_555
C154 C155 1_555 1_555
C156 C142 1_555 1_555
C157 C158 1_555 1_555
C158 C159 1_555 1_555
C159 C160 1_555 1_555
C160 C161 1_555 1_555
C161 N35 1_555 1_555
C162 C163 1_555 1_555
C163 C164 1_555 1_555
C164 C165 1_555 1_555
N25 C115 1_555 1_555
N26 C115 1_555 1_555
N27 C119 1_555 1_555
N28 C127 1_555 1_555
N29 C128 1_555 1_555
N30 C132 1_555 1_555
N31 C146 1_555 1_555
N32 C147 1_555 1_555
N33 C151 1_555 1_555
N34 C156 1_555 1_555
N35 C157 1_555 1_555
N36 C161 1_555 1_555
O21 C114 1_555 1_555
O22 C120 1_555 1_555
O23 C127 1_555 1_555
O24 C133 1_555 1_555
O25 C123 1_555 1_555
O26 C140 1_555 1_555
O27 C146 1_555 1_555
O28 C152 1_555 1_555
O29 C156 1_555 1_555
O30 C162 1_555 1_555
C166 C167 1_555 1_555
C167 C168 1_555 1_555
C168 C169 1_555 1_555
C169 N37 1_555 1_555
C170 C171 1_555 1_555
C171 C172 1_555 1_555
C172 C173 1_555 1_555
C173 C174 1_555 1_555
C174 N38 1_555 1_555
C175 C176 1_555 1_555
C176 C177 1_555 1_555
C177 C178 1_555 1_555
C178 C179 1_555 1_555
C179 C180 1_555 1_555
C180 C181 1_555 1_555
C181 C176 1_555 1_555
C182 C180 1_555 1_555
C183 C184 1_555 1_555
C184 C185 1_555 1_555
C185 C186 1_555 1_555
C186 C187 1_555 1_555
C187 N41 1_555 1_555
C188 C189 1_555 1_555
C189 C190 1_555 1_555
C190 C191 1_555 1_555
C192 C193 1_555 1_555
C193 C194 1_555 1_555
C194 O36 1_555 1_555
C195 C196 1_555 1_555
C196 C197 1_555 1_555
C197 C198 1_555 1_555
C198 C199 1_555 1_555
C199 C200 1_555 1_555
C200 C195 1_555 1_555
C201 C199 1_555 1_555
C202 C203 1_555 1_555
C203 C204 1_555 1_555
C204 C205 1_555 1_555
C205 C206 1_555 1_555
C206 N44 1_555 1_555
C207 C208 1_555 1_555
C208 C209 1_555 1_555
C209 C210 1_555 1_555
C211 C197 1_555 1_555
C212 C213 1_555 1_555
C213 C214 1_555 1_555
C214 C215 1_555 1_555
C215 C216 1_555 1_555
C216 N47 1_555 1_555
C217 C218 1_555 1_555
C218 C219 1_555 1_555
C219 C220 1_555 1_555
N37 C170 1_555 1_555
N38 C170 1_555 1_555
N39 C174 1_555 1_555
N40 C182 1_555 1_555
N41 C183 1_555 1_555
N42 C187 1_555 1_555
N43 C201 1_555 1_555
N44 C202 1_555 1_555
N45 C206 1_555 1_555
N46 C211 1_555 1_555
N47 C212 1_555 1_555
N48 C216 1_555 1_555
O31 C169 1_555 1_555
O32 C175 1_555 1_555
O33 C182 1_555 1_555
O34 C188 1_555 1_555
O35 C178 1_555 1_555
O36 C195 1_555 1_555
O37 C201 1_555 1_555
O38 C207 1_555 1_555
O39 C211 1_555 1_555
O40 C217 1_555 1_555
C221 Cl1 1_555 1_555
Cl2 C221 1_555 1_555
Cl3 C221 1_555 1_555
C222 Cl4 1_555 1_555
Cl5 C222 1_555 1_555
Cl6 C222 1_555 1_555
C223 Cl7 1_555 1_555
Cl8 C223 1_555 1_555
Cl9 C223 1_555 1_555
C224 Cl10 1_555 1_555
Cl11 C224 1_555 1_555
Cl12 C224 1_555 1_555
C225 C226 1_555 1_555
C226 C227 1_555 1_555
C227 C228 1_555 1_555
C228 C229 1_555 1_555
C229 C230 1_555 1_555
C230 C231 1_555 1_555
C231 C226 1_555 1_555
C232 C233 1_555 1_555
C233 C234 1_555 1_555
C234 C235 1_555 1_555
C235 C236 1_555 1_555
C236 C237 1_555 1_555
C237 C238 1_555 1_555
C238 C233 1_555 1_555
C10 N3 1_555 1_555
C18 N4 1_555 1_555
C23 N6 1_555 1_555
C27 O5 1_555 1_555
C37 N7 1_555 1_555
C42 N9 1_555 1_555
C47 N10 1_555 1_555
C52 N12 1_555 1_555
C65 N15 1_555 1_555
C73 N16 1_555 1_555
C78 N18 1_555 1_555
C82 O15 1_555 1_555
C92 N19 1_555 1_555
C97 N21 1_555 1_555
C102 N22 1_555 1_555
C107 N24 1_555 1_555
C120 N27 1_555 1_555
C128 N28 1_555 1_555
C133 N30 1_555 1_555
C137 O25 1_555 1_555
C147 N31 1_555 1_555
C152 N33 1_555 1_555
C157 N34 1_555 1_555
C162 N36 1_555 1_555
C175 N39 1_555 1_555
C183 N40 1_555 1_555
C188 N42 1_555 1_555
C192 O35 1_555 1_555
C202 N43 1_555 1_555
C207 N45 1_555 1_555
C212 N46 1_555 1_555
C217 N48 1_555 1_555

#END
