
#######################################################################
#
#                 Cambridge Crystallographic Data Centre
#                                CCDC 
#
#######################################################################
#
# If this CIF has been generated from an entry in the Cambridge 
# Structural Database, then it will include bibliographic, chemical, 
# crystal, experimental, refinement or atomic coordinate data resulting 
# from the CCDC's data processing and validation procedures.
#
#######################################################################

data_PIXVEA
_chemical_formula_moiety         'C26 H18 Cl2 N4 O2'
_chemical_name_systematic        
'6-amino-3-(4-(benzyloxy)phenyl)-4-(3,4-dichlorophenyl)-2,4-dihydropyrano[2,3-c]pyrazole-5-carbonitrile unknown solvate'
_symmetry_cell_setting           triclinic
_symmetry_space_group_name_H-M   'P 1'
_symmetry_Int_Tables_number      1
_space_group_name_Hall           'P 1'
loop_
_symmetry_equiv_pos_site_id
_symmetry_equiv_pos_as_xyz
1 x,y,z
_cell_length_a                   9.83220(10)
_cell_length_b                   14.0707(2)
_cell_length_c                   20.5954(3)
_cell_angle_alpha                99.5840(10)
_cell_angle_beta                 93.5800(10)
_cell_angle_gamma                105.8710(10)
_cell_volume                     2684.85
_exptl_crystal_description       plate
_cell_formula_units_Z            4
loop_
_atom_site_label
_atom_site_type_symbol
_atom_site_fract_x
_atom_site_fract_y
_atom_site_fract_z
C1 C 1.6403(3) 1.8925(3) 1.76253(16)
C2 C 1.5595(3) 1.8212(3) 1.71070(17)
C3 C 1.6159(4) 1.7585(3) 1.65793(16)
H1 H 1.5718 1.6858 1.6590
C4 C 1.7738(4) 1.7833(2) 1.67686(16)
C5 C 1.8425(4) 1.8536(3) 1.73275(17)
C6 C 1.8837(4) 1.7494(3) 1.64999(17)
C7 C 1.4127(4) 1.8079(3) 1.70766(17)
C8 C 1.5713(4) 1.7774(2) 1.59022(16)
C9 C 1.6464(4) 1.8630(3) 1.56754(18)
H2 H 1.7310 1.9069 1.5929
C10 C 1.5985(4) 1.8845(3) 1.50854(18)
C11 C 1.4742(4) 1.8217(3) 1.47150(17)
C12 C 1.3991(4) 1.7378(3) 1.49363(19)
H3 H 1.3137 1.6948 1.4685
C13 C 1.4473(4) 1.7153(3) 1.55260(18)
H4 H 1.3947 1.6570 1.5672
C14 C 1.8862(4) 1.6736(3) 1.59240(17)
C15 C 1.7604(4) 1.6090(3) 1.55712(17)
H5 H 1.6721 1.6167 1.5696
C16 C 1.7605(4) 1.5333(3) 1.50386(18)
H6 H 1.6733 1.4915 1.4797
C17 C 1.8875(4) 1.5198(3) 1.48655(18)
C18 C 2.0153(4) 1.5850(3) 1.52035(19)
H7 H 2.1033 1.5777 1.5072
C19 C 2.0142(4) 1.6602(3) 1.57292(18)
H8 H 2.1018 1.7032 1.5960
C20 C 1.7714(5) 1.3751(3) 1.4032(2)
H9 H 1.7210 1.4074 1.3744
H10 H 1.7081 1.3498 1.4359
C21 C 1.8109(5) 1.2906(3) 1.3625(2)
C22 C 1.7854(6) 1.2710(4) 1.2942(2)
H11 H 1.7433 1.3124 1.2726
C23 C 1.8207(8) 1.1915(4) 1.2568(3)
H12 H 1.8013 1.1782 1.2099
C24 C 1.8830(7) 1.1324(4) 1.2870(3)
H13 H 1.9106 1.0799 1.2610
C25 C 1.9063(9) 1.1490(5) 1.3562(3)
H14 H 1.9467 1.1067 1.3777
C26 C 1.8691(7) 1.2288(4) 1.3930(3)
H15 H 1.8843 1.2407 1.4400
N1 N 2.0027(3) 1.8007(2) 1.69121(14)
H16 H 2.0921 1.7963 1.6910
N2 N 1.9804(3) 1.8659(2) 1.74376(14)
N3 N 1.5924(3) 1.9533(2) 1.80707(16)
H17 H 1.6616 2.0016 1.8430
H18 H 1.4873 1.9388 1.7985
N4 N 1.2921(4) 1.7970(3) 1.70627(18)
O1 O 1.7826(2) 1.90995(19) 1.77650(12)
O2 O 1.9013(3) 1.4462(2) 1.43655(13)
Cl1 Cl 1.69487(12) 1.99046(8) 1.48192(6)
Cl2 Cl 1.40929(11) 1.84789(8) 1.39857(5)
C27 C 2.0162(4) 1.6155(3) 1.76735(17)
C28 C 2.0284(4) 1.5496(3) 1.71272(17)
C29 C 1.9054(4) 1.4710(3) 1.66810(18)
H19 H 1.9113 1.4828 1.6217
C30 C 1.7704(4) 1.4890(3) 1.69038(17)
C31 C 1.7711(4) 1.5605(3) 1.74622(17)
C32 C 1.6282(4) 1.4572(3) 1.66364(18)
C33 C 2.1682(4) 1.5501(3) 1.69852(18)
C34 C 1.9195(4) 1.3662(3) 1.6695(2)
C35 C 1.9771(4) 1.3187(3) 1.6179(2)
H20 H 2.0062 1.3508 1.5819
C36 C 1.9524(5) 1.1766(3) 1.6725(3)
C37 C 1.8808(5) 1.3174(3) 1.7220(2)
H21 H 1.8421 1.3487 1.7579
C38 C 1.5541(4) 1.3859(3) 1.60337(18)
C39 C 1.6057(4) 1.3075(3) 1.5763(2)
H22 H 1.6898 1.3001 1.5974
C40 C 1.5369(4) 1.2392(3) 1.5187(2)
H23 H 1.5746 1.1863 1.5011
C41 C 1.4164(4) 1.2482(3) 1.48768(18)
C42 C 1.3630(4) 1.3275(3) 1.5136(2)
H24 H 1.2796 1.3351 1.4918
C43 C 1.4306(4) 1.3942(3) 1.5703(2)
H25 H 1.3927 1.4473 1.5874
C44 C 1.3904(5) 1.0997(3) 1.4066(2)
H26 H 1.3989 1.0613 1.4421
H27 H 1.4856 1.1242 1.3920
C45 C 1.2879(5) 1.0330(3) 1.3494(2)
C46 C 1.3358(6) 1.0099(4) 1.2888(2)
H28 H 1.4323 1.0395 1.2830
C47 C 1.2446(7) 0.9440(4) 1.2365(2)
H29 H 1.2791 0.9284 1.1952
C48 C 1.1066(7) 0.9017(4) 1.2439(3)
H30 H 1.0443 0.8572 1.2076
C49 C 1.0564(6) 0.9232(4) 1.3042(3)
H31 H 0.9598 0.8930 1.3096
C50 C 1.1474(6) 0.9890(4) 1.3569(3)
H32 H 1.1128 1.0037 1.3984
N5 N 1.5591(3) 1.5091(2) 1.70392(15)
H33 H 1.4670 1.5092 1.7019
N6 N 1.6461(3) 1.5746(2) 1.75615(15)
N7 N 2.1242(3) 1.6820(2) 1.80934(15)
H34 H 2.2178 1.7046 1.7931
H35 H 2.0965 1.7263 1.8457
N8 N 2.2799(4) 1.5469(3) 1.68634(18)
O3 O 1.8889(3) 1.6192(2) 1.78849(12)
O4 O 1.3393(3) 1.1841(2) 1.43182(13)
Cl3 Cl 2.05818(19) 1.16231(12) 1.55645(10)
C51 C 1.9914(5) 1.2221(3) 1.6200(3)
C52 C 1.8985(5) 1.2248(4) 1.7221(3)
H36 H 1.8719 1.1930 1.7584
Cl4 Cl 1.97291(16) 1.05848(9) 1.67505(10)
C53 C 0.6904(4) 0.7917(3) 0.90255(17)
C54 C 0.6806(4) 0.8663(3) 0.95223(17)
C55 C 0.7995(4) 0.9271(3) 1.00707(17)
H38 H 0.8130 1.0003 1.0076
C56 C 0.9333(4) 0.9024(3) 0.98838(17)
C57 C 0.9308(4) 0.8295(3) 0.93312(18)
C58 C 1.0776(4) 0.9392(3) 1.01294(18)
C59 C 0.5472(4) 0.8834(3) 0.95418(18)
C60 C 0.7561(4) 0.9047(3) 1.07354(18)
C61 C 0.7773(4) 0.8220(3) 1.09702(19)
H39 H 0.8262 0.7811 1.0725
C62 C 0.7282(4) 0.7984(3) 1.1555(2)
C63 C 0.6577(5) 0.8576(4) 1.1919(2)
C64 C 0.6357(5) 0.9401(4) 1.1694(2)
H40 H 0.5876 0.9810 1.1945
C65 C 0.6834(4) 0.9633(3) 1.1102(2)
H41 H 0.6665 1.0194 1.0947
C66 C 1.1588(4) 1.0172(3) 1.06905(18)
C67 C 1.0938(4) 1.0685(3) 1.11516(19)
H42 H 0.9930 1.0528 1.1105
C68 C 1.1724(4) 1.1422(3) 1.16810(19)
H43 H 1.1253 1.1764 1.1988
C69 C 1.3196(4) 1.1653(3) 1.1758(2)
C70 C 1.3865(4) 1.1158(3) 1.1285(2)
H44 H 1.4874 1.1323 1.1326
C71 C 1.3081(4) 1.0442(3) 1.0767(2)
H45 H 1.3556 1.0120 1.0451
C72 C 1.3528(5) 1.2661(3) 1.2857(2)
H46 H 1.4184 1.2683 1.3248
H47 H 1.2601 1.2174 1.2884
C73 C 1.3326(5) 1.3687(3) 1.28770(19)
C74 C 1.3987(5) 1.4321(4) 1.2473(3)
H48 H 1.4513 1.4091 1.2141
C75 C 1.3878(6) 1.5303(4) 1.2554(4)
H49 H 1.4315 1.5735 1.2271
C76 C 1.3140(7) 1.5646(4) 1.3045(4)
H50 H 1.3096 1.6321 1.3110
C77 C 1.2477(7) 1.5015(5) 1.3433(3)
H51 H 1.1950 1.5249 1.3764
C78 C 1.2555(6) 1.4038(4) 1.3356(2)
H52 H 1.2079 1.3605 1.3631
N9 N 1.1452(3) 0.8862(2) 0.97169(16)
H53 H 1.2344 0.8820 0.9776
N10 N 1.0574(3) 0.8189(2) 0.92147(16)
N11 N 0.5840(3) 0.7306(2) 0.85815(15)
H54 H 0.5942 0.6755 0.8232
H55 H 0.4820 0.7224 0.8621
N12 N 0.4370(4) 0.8979(3) 0.95448(18)
O5 O 0.8145(2) 0.77046(19) 0.89104(12)
O6 O 1.4092(3) 1.2320(2) 1.22657(14)
Cl6 Cl 0.75357(14) 0.69284(10) 1.18093(6)
Cl7 Cl 0.60004(16) 0.83244(13) 1.26650(6)
C79 C 1.1416(4) 1.0810(3) 0.88931(19)
C80 C 1.2197(4) 1.1516(3) 0.94199(18)
C81 C 1.1640(4) 1.2188(3) 0.99290(17)
H56 H 1.1820 1.2019 1.0373
C82 C 1.0053(4) 1.1906(3) 0.97458(17)
C83 C 0.9389(4) 1.1196(3) 0.91838(18)
C84 C 0.8931(4) 1.2200(3) 1.00203(17)
C85 C 1.3668(4) 1.1595(3) 0.94999(19)
C86 C 1.2419(4) 1.3286(3) 0.99630(17)
C87 C 1.2107(4) 1.3812(3) 0.9486(2)
H57 H 1.1359 1.3489 0.9139
C88 C 1.2882(5) 1.4806(3) 0.9513(2)
C89 C 1.3973(5) 1.5296(3) 1.0009(2)
C90 C 1.4281(5) 1.4785(3) 1.0488(2)
H58 H 1.5023 1.5113 1.0838
C91 C 1.3505(4) 1.3791(3) 1.0459(2)
H59 H 1.3731 1.3447 1.0791
C92 C 0.8840(4) 1.2907(3) 1.06125(18)
C93 C 0.9953(4) 1.3340(3) 1.11089(19)
H60 H 1.0817 1.3167 1.1069
C94 C 0.9860(4) 1.4018(3) 1.1664(2)
H61 H 1.0649 1.4307 1.1995
C95 C 0.8599(4) 1.4270(3) 1.17297(19)
C96 C 0.7459(5) 1.3831(4) 1.1243(2)
H62 H 0.6587 1.3989 1.1291
C97 C 0.7572(5) 1.3171(4) 1.0690(2)
H63 H 0.6784 1.2890 1.0357
C98 C 0.9465(5) 1.5421(4) 1.2744(2)
H64 H 1.0307 1.5779 1.2549
H65 H 0.9730 1.4911 1.2963
C99 C 0.9043(5) 1.6165(3) 1.3254(2)
C100 C 1.0081(6) 1.6903(4) 1.3668(3)
H66 H 1.1055 1.6969 1.3619
C101 C 0.9720(7) 1.7542(4) 1.4151(3)
H67 H 1.0457 1.8049 1.4436
C102 C 0.8363(7) 1.7486(4) 1.4242(2)
H68 H 0.8152 1.7950 1.4584
C103 C 0.7260(7) 1.6742(5) 1.3831(3)
H69 H 0.6293 1.6692 1.3886
C104 C 0.7625(6) 1.6062(4) 1.3329(2)
H70 H 0.6901 1.5542 1.3046
N13 N 0.7738(3) 1.1662(2) 0.96030(16)
H71 H 0.6904 1.1793 0.9633
N14 N 0.7989(3) 1.1034(2) 0.90779(17)
N15 N 1.1902(3) 1.0201(3) 0.84578(18)
H72 H 1.2894 1.0154 0.8515
H73 H 1.1213 0.9750 0.8082
N16 N 1.4849(4) 1.1641(3) 0.9550(2)
O7 O 1.0006(3) 1.0652(2) 0.87429(13)
O8 O 0.8346(3) 1.4940(2) 1.22400(15)
Cl8 Cl 1.24308(17) 1.54447(11) 0.89249(8)
Cl9 Cl 1.49520(16) 1.65243(9) 1.00532(8)
Cl5? Cl 1.8558(6) 1.1682(4) 1.7803(3)
H37? H 2.0285 1.1883 1.5846
loop_
_geom_bond_atom_site_label_1
_geom_bond_atom_site_label_2
_geom_bond_site_symmetry_1
_geom_bond_site_symmetry_2
C1 C2 1_555 1_555
C2 C3 1_555 1_555
C3 H1 1_555 1_555
C4 C3 1_555 1_555
C5 C4 1_555 1_555
C6 C4 1_555 1_555
C7 C2 1_555 1_555
C8 C3 1_555 1_555
C9 C8 1_555 1_555
H2 C9 1_555 1_555
C10 C9 1_555 1_555
C11 C10 1_555 1_555
C12 C11 1_555 1_555
H3 C12 1_555 1_555
C13 C8 1_555 1_555
H4 C13 1_555 1_555
C14 C6 1_555 1_555
C15 C14 1_555 1_555
H5 C15 1_555 1_555
C16 C15 1_555 1_555
H6 C16 1_555 1_555
C17 C16 1_555 1_555
C18 C17 1_555 1_555
H7 C18 1_555 1_555
C19 C14 1_555 1_555
H8 C19 1_555 1_555
C20 H9 1_555 1_555
H10 C20 1_555 1_555
C21 C20 1_555 1_555
C22 C21 1_555 1_555
H11 C22 1_555 1_555
C23 C22 1_555 1_555
H12 C23 1_555 1_555
C24 C23 1_555 1_555
H13 C24 1_555 1_555
C25 C24 1_555 1_555
H14 C25 1_555 1_555
C26 C21 1_555 1_555
H15 C26 1_555 1_555
N1 C6 1_555 1_555
H16 N1 1_555 1_555
N2 C5 1_555 1_555
N3 C1 1_555 1_555
H17 N3 1_555 1_555
H18 N3 1_555 1_555
N4 C7 1_555 1_555
O1 C1 1_555 1_555
O2 C17 1_555 1_555
Cl1 C10 1_555 1_555
Cl2 C11 1_555 1_555
C27 C28 1_555 1_555
C28 C29 1_555 1_555
C29 H19 1_555 1_555
C30 C29 1_555 1_555
C31 C30 1_555 1_555
C32 C30 1_555 1_555
C33 C28 1_555 1_555
C34 C29 1_555 1_555
C35 C34 1_555 1_555
H20 C35 1_555 1_555
C36 C51 1_555 1_555
C37 C34 1_555 1_555
H21 C37 1_555 1_555
C38 C32 1_555 1_555
C39 C38 1_555 1_555
H22 C39 1_555 1_555
C40 C39 1_555 1_555
H23 C40 1_555 1_555
C41 C40 1_555 1_555
C42 C41 1_555 1_555
H24 C42 1_555 1_555
C43 C38 1_555 1_555
H25 C43 1_555 1_555
C44 H26 1_555 1_555
H27 C44 1_555 1_555
C45 C44 1_555 1_555
C46 C45 1_555 1_555
H28 C46 1_555 1_555
C47 C46 1_555 1_555
H29 C47 1_555 1_555
C48 C47 1_555 1_555
H30 C48 1_555 1_555
C49 C48 1_555 1_555
H31 C49 1_555 1_555
C50 C45 1_555 1_555
H32 C50 1_555 1_555
N5 C32 1_555 1_555
H33 N5 1_555 1_555
N6 C31 1_555 1_555
N7 C27 1_555 1_555
H34 N7 1_555 1_555
H35 N7 1_555 1_555
N8 C33 1_555 1_555
O3 C27 1_555 1_555
O4 C41 1_555 1_555
Cl3 C51 1_555 1_555
C51 C35 1_555 1_555
C52 C36 1_555 1_555
H36 C52 1_555 1_555
Cl4 C36 1_555 1_555
C53 C54 1_555 1_555
C54 C55 1_555 1_555
C55 H38 1_555 1_555
C56 C55 1_555 1_555
C57 C56 1_555 1_555
C58 C56 1_555 1_555
C59 C54 1_555 1_555
C60 C55 1_555 1_555
C61 C60 1_555 1_555
H39 C61 1_555 1_555
C62 C61 1_555 1_555
C63 C62 1_555 1_555
C64 C63 1_555 1_555
H40 C64 1_555 1_555
C65 C60 1_555 1_555
H41 C65 1_555 1_555
C66 C58 1_555 1_555
C67 C66 1_555 1_555
H42 C67 1_555 1_555
C68 C67 1_555 1_555
H43 C68 1_555 1_555
C69 C68 1_555 1_555
C70 C69 1_555 1_555
H44 C70 1_555 1_555
C71 C66 1_555 1_555
H45 C71 1_555 1_555
C72 H46 1_555 1_555
H47 C72 1_555 1_555
C73 C72 1_555 1_555
C74 C73 1_555 1_555
H48 C74 1_555 1_555
C75 C74 1_555 1_555
H49 C75 1_555 1_555
C76 C75 1_555 1_555
H50 C76 1_555 1_555
C77 C76 1_555 1_555
H51 C77 1_555 1_555
C78 C73 1_555 1_555
H52 C78 1_555 1_555
N9 C58 1_555 1_555
H53 N9 1_555 1_555
N10 C57 1_555 1_555
N11 C53 1_555 1_555
H54 N11 1_555 1_555
H55 N11 1_555 1_555
N12 C59 1_555 1_555
O5 C53 1_555 1_555
O6 C69 1_555 1_555
Cl6 C62 1_555 1_555
Cl7 C63 1_555 1_555
C79 C80 1_555 1_555
C80 C81 1_555 1_555
C81 H56 1_555 1_555
C82 C81 1_555 1_555
C83 C82 1_555 1_555
C84 C82 1_555 1_555
C85 C80 1_555 1_555
C86 C81 1_555 1_555
C87 C86 1_555 1_555
H57 C87 1_555 1_555
C88 C87 1_555 1_555
C89 C88 1_555 1_555
C90 C89 1_555 1_555
H58 C90 1_555 1_555
C91 C86 1_555 1_555
H59 C91 1_555 1_555
C92 C84 1_555 1_555
C93 C92 1_555 1_555
H60 C93 1_555 1_555
C94 C93 1_555 1_555
H61 C94 1_555 1_555
C95 C94 1_555 1_555
C96 C95 1_555 1_555
H62 C96 1_555 1_555
C97 C92 1_555 1_555
H63 C97 1_555 1_555
C98 H64 1_555 1_555
H65 C98 1_555 1_555
C99 C98 1_555 1_555
C100 C99 1_555 1_555
H66 C100 1_555 1_555
C101 C100 1_555 1_555
H67 C101 1_555 1_555
C102 C101 1_555 1_555
H68 C102 1_555 1_555
C103 C102 1_555 1_555
H69 C103 1_555 1_555
C104 C99 1_555 1_555
H70 C104 1_555 1_555
N13 C84 1_555 1_555
H71 N13 1_555 1_555
N14 C83 1_555 1_555
N15 C79 1_555 1_555
H72 N15 1_555 1_555
H73 N15 1_555 1_555
N16 C85 1_555 1_555
O7 C79 1_555 1_555
O8 C95 1_555 1_555
Cl8 C88 1_555 1_555
Cl9 C89 1_555 1_555
C5 O1 1_555 1_555
C12 C13 1_555 1_555
C18 C19 1_555 1_555
C20 O2 1_555 1_555
C25 C26 1_555 1_555
N1 N2 1_555 1_555
C31 O3 1_555 1_555
C37 C52 1_555 1_555
C42 C43 1_555 1_555
C44 O4 1_555 1_555
C49 C50 1_555 1_555
N5 N6 1_555 1_555
C57 O5 1_555 1_555
C64 C65 1_555 1_555
C70 C71 1_555 1_555
C72 O6 1_555 1_555
C77 C78 1_555 1_555
N9 N10 1_555 1_555
C83 O7 1_555 1_555
C90 C91 1_555 1_555
C96 C97 1_555 1_555
C98 O8 1_555 1_555
C103 C104 1_555 1_555
N13 N14 1_555 1_555

#END
