
#######################################################################
#
#                 Cambridge Crystallographic Data Centre
#                                CCDC 
#
#######################################################################
#
# If this CIF has been generated from an entry in the Cambridge 
# Structural Database, then it will include bibliographic, chemical, 
# crystal, experimental, refinement or atomic coordinate data resulting 
# from the CCDC's data processing and validation procedures.
#
#######################################################################

data_PIXWUP
_chemical_formula_moiety         'C28 H34 N4 O2'
_chemical_name_systematic        
N,N'-bis(4-(Diethylamino)salicylidene)-1,2-phenylenediamine
_symmetry_cell_setting           monoclinic
_symmetry_space_group_name_H-M   'P 21/c'
_symmetry_Int_Tables_number      14
_space_group_name_Hall           '-P 2ybc'
loop_
_symmetry_equiv_pos_site_id
_symmetry_equiv_pos_as_xyz
1 x,y,z
2 -x,1/2+y,1/2-z
3 -x,-y,-z
4 x,1/2-y,1/2+z
_cell_length_a                   19.487(3)
_cell_length_b                   9.119(2)
_cell_length_c                   14.246(3)
_cell_angle_alpha                90
_cell_angle_beta                 97.363(3)
_cell_angle_gamma                90
_cell_volume                     2510.67
_chemical_melting_point          '152-153 deg.C'
_cell_formula_units_Z            4
_exptl_crystal_recrystallization_method methanol
loop_
_atom_site_label
_atom_site_type_symbol
_atom_site_fract_x
_atom_site_fract_y
_atom_site_fract_z
N1 N 0.28823(14) 0.6810(3) 0.23562(19)
N2 N 0.19779(14) 0.4971(3) 0.13200(19)
N3 N 0.4140(2) 1.2872(4) 0.1131(3)
N4 N 0.05961(18) 0.5375(5) -0.2994(2)
O1 O 0.34980(15) 0.7891(3) 0.09968(17)
H1 H 0.3316 0.7263 0.1294
O2 O 0.22012(13) 0.6167(3) -0.02691(18)
H2 H 0.2269 0.5971 0.0297
C1 C 0.26147(17) 0.5618(4) 0.2824(2)
C2 C 0.21651(17) 0.4658(4) 0.2292(2)
C3 C 0.19373(19) 0.3433(4) 0.2726(3)
H3 H 0.1650 0.2768 0.2369
C4 C 0.2123(2) 0.3172(5) 0.3668(3)
H4 H 0.1958 0.2346 0.3950
C5 C 0.2551(2) 0.4127(5) 0.4192(3)
H5 H 0.2675 0.3957 0.4835
C6 C 0.27985(19) 0.5333(4) 0.3778(3)
H6 H 0.3095 0.5973 0.4141
C7 C 0.30130(16) 0.8024(4) 0.2797(2)
H7 H 0.2905 0.8115 0.3411
C8 C 0.33177(16) 0.9233(4) 0.2376(2)
C9 C 0.35553(17) 0.9149(4) 0.1498(2)
C10 C 0.38566(19) 1.0321(4) 0.1111(3)
H8 H 0.4042 1.0202 0.0546
C11 C 0.3890(2) 1.1681(4) 0.1547(3)
C12 C 0.3635(2) 1.1783(4) 0.2418(3)
H9 H 0.3646 1.2681 0.2728
C13 C 0.33724(19) 1.0595(4) 0.2818(3)
H10 H 0.3224 1.0694 0.3410
C14 C 0.4060(3) 1.4372(5) 0.1476(4)
H11 H 0.4044 1.5051 0.0950
H12 H 0.3624 1.4447 0.1735
C15 C 0.4619(3) 1.4782(8) 0.2195(5)
H13 H 0.4535 1.4384 0.2794
H14 H 0.4646 1.5831 0.2239
H15 H 0.5047 1.4402 0.2030
C16 C 0.4433(4) 1.2793(6) 0.0202(5)
H16 H 0.4162 1.2123 -0.0225
H17 H 0.4420 1.3754 -0.0092
C17 C 0.5119(4) 1.2298(8) 0.0389(6)
H18 H 0.5380 1.2960 0.0821
H19 H 0.5320 1.2258 -0.0191
H20 H 0.5125 1.1337 0.0665
C18 C 0.14073(18) 0.4506(4) 0.0885(2)
H21 H 0.1111 0.3982 0.1223
C19 C 0.12033(16) 0.4754(4) -0.0102(2)
C20 C 0.16022(17) 0.5569(4) -0.0651(2)
C21 C 0.13995(18) 0.5779(5) -0.1599(3)
H22 H 0.1672 0.6351 -0.1946
C22 C 0.07992(19) 0.5159(5) -0.2048(3)
C23 C 0.0399(2) 0.4328(5) -0.1498(3)
H23 H -0.0008 0.3892 -0.1778
C24 C 0.06017(19) 0.4156(5) -0.0557(3)
H24 H 0.0323 0.3611 -0.0205
C25 C 0.1001(2) 0.6284(6) -0.3579(3)
H25 H 0.0697 0.6678 -0.4112
H26 H 0.1204 0.7101 -0.3206
C26 C 0.1553(3) 0.5421(6) -0.3931(4)
H27 H 0.1857 0.5038 -0.3404
H28 H 0.1810 0.6037 -0.4306
H29 H 0.1351 0.4624 -0.4312
C29 C 0.0113(5) 0.4145(14) -0.3531(8)
H35 H 0.0233 0.3977 -0.4162
H36 H 0.0152 0.3228 -0.3183
C30 C -0.0591(5) 0.4765(14) -0.3568(7)
H37 H -0.0921 0.4084 -0.3878
H38 H -0.0616 0.5671 -0.3914
H39 H -0.0692 0.4943 -0.2936
C27? C -0.0110(6) 0.5179(12) -0.3415(7)
H30? H -0.0225 0.5843 -0.3944
H31? H -0.0428 0.5342 -0.2954
C28? C -0.0133(10) 0.3576(15) -0.3748(13)
H32? H -0.0591 0.3342 -0.4041
H33? H -0.0011 0.2943 -0.3214
H34? H 0.0190 0.3440 -0.4196
loop_
_geom_bond_atom_site_label_1
_geom_bond_atom_site_label_2
_geom_bond_site_symmetry_1
_geom_bond_site_symmetry_2
N1 C1 1_555 1_555
N2 C2 1_555 1_555
N3 C11 1_555 1_555
N4 C22 1_555 1_555
O1 H1 1_555 1_555
O2 H2 1_555 1_555
C1 C2 1_555 1_555
C2 C3 1_555 1_555
C3 H3 1_555 1_555
C4 C3 1_555 1_555
H4 C4 1_555 1_555
C5 C4 1_555 1_555
H5 C5 1_555 1_555
C6 C1 1_555 1_555
H6 C6 1_555 1_555
C7 N1 1_555 1_555
H7 C7 1_555 1_555
C8 C7 1_555 1_555
C9 O1 1_555 1_555
C10 C9 1_555 1_555
H8 C10 1_555 1_555
C11 C10 1_555 1_555
C12 C11 1_555 1_555
H9 C12 1_555 1_555
C13 C8 1_555 1_555
H10 C13 1_555 1_555
C14 N3 1_555 1_555
H11 C14 1_555 1_555
H12 C14 1_555 1_555
C15 C14 1_555 1_555
H13 C15 1_555 1_555
H14 C15 1_555 1_555
H15 C15 1_555 1_555
C16 N3 1_555 1_555
H16 C16 1_555 1_555
H17 C16 1_555 1_555
C17 C16 1_555 1_555
H18 C17 1_555 1_555
H19 C17 1_555 1_555
H20 C17 1_555 1_555
C18 N2 1_555 1_555
H21 C18 1_555 1_555
C19 C18 1_555 1_555
C20 O2 1_555 1_555
C21 C20 1_555 1_555
H22 C21 1_555 1_555
C22 C21 1_555 1_555
C23 C22 1_555 1_555
H23 C23 1_555 1_555
C24 C19 1_555 1_555
H24 C24 1_555 1_555
C25 N4 1_555 1_555
H25 C25 1_555 1_555
H26 C25 1_555 1_555
C26 C25 1_555 1_555
H27 C26 1_555 1_555
H28 C26 1_555 1_555
H29 C26 1_555 1_555
C29 N4 1_555 1_555
H35 C29 1_555 1_555
H36 C29 1_555 1_555
C30 C29 1_555 1_555
H37 C30 1_555 1_555
H38 C30 1_555 1_555
H39 C30 1_555 1_555
C5 C6 1_555 1_555
C8 C9 1_555 1_555
C12 C13 1_555 1_555
C19 C20 1_555 1_555
C23 C24 1_555 1_555

#END
