
#######################################################################
#
#                 Cambridge Crystallographic Data Centre
#                                CCDC 
#
#######################################################################
#
# If this CIF has been generated from an entry in the Cambridge 
# Structural Database, then it will include bibliographic, chemical, 
# crystal, experimental, refinement or atomic coordinate data resulting 
# from the CCDC's data processing and validation procedures.
#
#######################################################################

data_PIXXAX
_chemical_formula_moiety         'C11 H8 N2 O2 S1'
_chemical_name_systematic        
2-(1-Benzothiophen-2-yl)-4H-1,3,4-oxadiazin-5(6H)-one
_symmetry_cell_setting           monoclinic
_symmetry_space_group_name_H-M   'P 21/n'
_symmetry_Int_Tables_number      14
_space_group_name_Hall           '-P 2yn'
loop_
_symmetry_equiv_pos_site_id
_symmetry_equiv_pos_as_xyz
1 x,y,z
2 1/2-x,1/2+y,1/2-z
3 -x,-y,-z
4 1/2+x,1/2-y,1/2+z
_cell_length_a                   7.4950(15)
_cell_length_b                   6.0350(12)
_cell_length_c                   22.412(5)
_cell_angle_alpha                90
_cell_angle_beta                 93.08(3)
_cell_angle_gamma                90
_cell_volume                     1012.28
_exptl_crystal_colour            colorless
_exptl_crystal_description       block
_cell_formula_units_Z            4
loop_
_atom_site_label
_atom_site_type_symbol
_atom_site_fract_x
_atom_site_fract_y
_atom_site_fract_z
S1 S 0.66885(16) 0.2027(2) 0.99910(5)
O1 O 0.8714(5) 0.7881(6) 1.23337(14)
O2 O 0.8545(5) 0.7527(5) 1.07326(14)
C1 C 0.6558(5) 0.2443(8) 0.92291(17)
N1 N 0.7891(5) 0.5094(6) 1.17093(15)
H1 H 0.7685 0.4264 1.2010
C2 C 0.5909(6) 0.0894(8) 0.8802(2)
H2 H 0.5496 -0.0488 0.8917
N2 N 0.7558(5) 0.4203(6) 1.11441(15)
C3 C 0.5905(6) 0.1488(9) 0.8209(2)
H3 H 0.5454 0.0508 0.7918
C4 C 0.6552(6) 0.3490(9) 0.8041(2)
H4 H 0.6566 0.3817 0.7636
C5 C 0.7186(6) 0.5054(8) 0.84494(19)
H5 H 0.7590 0.6427 0.8325
C6 C 0.7203(6) 0.4501(8) 0.90646(18)
C7 C 0.7809(5) 0.5961(8) 0.95690(16)
H6 H 0.8256 0.7395 0.9550
C8 C 0.7548(5) 0.4656(7) 1.00939(17)
C9 C 0.7923(5) 0.5458(7) 1.07104(17)
C10 C 0.8941(6) 0.8522(7) 1.13060(19)
H7 H 0.8284 0.9903 1.1326
H8 H 1.0204 0.8878 1.1341
C11 C 0.8500(6) 0.7115(8) 1.18252(19)
loop_
_geom_bond_atom_site_label_1
_geom_bond_atom_site_label_2
_geom_bond_site_symmetry_1
_geom_bond_site_symmetry_2
S1 C1 1_555 1_555
O1 C11 1_555 1_555
O2 C9 1_555 1_555
C1 C2 1_555 1_555
N1 H1 1_555 1_555
C2 H2 1_555 1_555
N2 N1 1_555 1_555
C3 C2 1_555 1_555
H3 C3 1_555 1_555
C4 C3 1_555 1_555
H4 C4 1_555 1_555
C5 C4 1_555 1_555
H5 C5 1_555 1_555
C6 C1 1_555 1_555
C7 C6 1_555 1_555
H6 C7 1_555 1_555
C8 S1 1_555 1_555
C9 N2 1_555 1_555
C10 O2 1_555 1_555
H7 C10 1_555 1_555
H8 C10 1_555 1_555
C11 N1 1_555 1_555
C5 C6 1_555 1_555
C7 C8 1_555 1_555
C8 C9 1_555 1_555
C10 C11 1_555 1_555

#END
