
#######################################################################
#
#                 Cambridge Crystallographic Data Centre
#                                CCDC 
#
#######################################################################
#
# If this CIF has been generated from an entry in the Cambridge 
# Structural Database, then it will include bibliographic, chemical, 
# crystal, experimental, refinement or atomic coordinate data resulting 
# from the CCDC's data processing and validation procedures.
#
#######################################################################

data_PIYHUC
_chemical_formula_moiety         'C15 H16 N4 O2'
_chemical_name_systematic        N,N'-bis(pyridin-3-yl)pentanediamide
_symmetry_cell_setting           monoclinic
_symmetry_space_group_name_H-M   'C 2/c'
_symmetry_Int_Tables_number      15
_space_group_name_Hall           '-C 2yn'
loop_
_symmetry_equiv_pos_site_id
_symmetry_equiv_pos_as_xyz
1 x,y,z
2 -x,y,1/2-z
3 1/2+x,1/2+y,z
4 1/2-x,1/2+y,1/2-z
5 -x,-y,-z
6 x,-y,1/2+z
7 1/2-x,1/2-y,-z
8 1/2+x,1/2-y,1/2+z
_cell_length_a                   14.483(5)
_cell_length_b                   8.463(3)
_cell_length_c                   11.474(4)
_cell_angle_alpha                90
_cell_angle_beta                 99.258(10)
_cell_angle_gamma                90
_cell_volume                     1388.04
_exptl_crystal_colour            yellow
_exptl_crystal_description       'rectangular block'
_cell_formula_units_Z            4
loop_
_atom_site_label
_atom_site_type_symbol
_atom_site_fract_x
_atom_site_fract_y
_atom_site_fract_z
N1 N 0.28687(17) -0.1148(3) 1.2120(2)
N2 N 0.20245(15) 0.0866(3) 0.9297(2)
H1 H 0.2248 0.1005 0.8654
O1 O 0.08176(15) 0.1512(4) 1.0233(2)
C1 C 0.25659(19) -0.0047(3) 1.0170(2)
C2 C 0.2357(2) -0.0253(4) 1.1299(3)
H2 H 0.1834 0.0258 1.1494
C3 C 0.3625(2) -0.1849(4) 1.1844(3)
H3 H 0.3990 -0.2465 1.2411
C4 C 0.3889(2) -0.1698(4) 1.0751(3)
H4 H 0.4421 -0.2208 1.0583
C5 C 0.3357(2) -0.0787(4) 0.9914(3)
H5 H 0.3529 -0.0668 0.9173
C6 C 0.1187(2) 0.1556(4) 0.9350(3)
C7 C 0.0727(2) 0.2398(4) 0.8265(3)
H6 H 0.1202 0.2713 0.7804
H7 H 0.0430 0.3349 0.8497
C8 C 0.0000 0.1396(6) 0.7500
H8 H -0.0309 0.0721 0.8002
N1A N -0.28687(17) -0.1148(3) 0.2880(2)
N2A N -0.20245(15) 0.0866(3) 0.5703(2)
H1A H -0.2248 0.1005 0.6346
O1A O -0.08176(15) 0.1512(4) 0.4767(2)
C1A C -0.25659(19) -0.0047(3) 0.4830(2)
C2A C -0.2357(2) -0.0253(4) 0.3701(3)
H2A H -0.1834 0.0258 0.3506
C3A C -0.3625(2) -0.1849(4) 0.3156(3)
H3A H -0.3990 -0.2465 0.2589
C4A C -0.3889(2) -0.1698(4) 0.4249(3)
H4A H -0.4421 -0.2208 0.4417
C5A C -0.3357(2) -0.0787(4) 0.5086(3)
H5A H -0.3529 -0.0668 0.5827
C6A C -0.1187(2) 0.1556(4) 0.5650(3)
C7A C -0.0727(2) 0.2398(4) 0.6735(3)
H6A H -0.1202 0.2713 0.7196
H7A H -0.0430 0.3349 0.6503
H8A H 0.0309 0.0721 0.6998
H9? H -0.0309 0.0721 0.8002
loop_
_geom_bond_atom_site_label_1
_geom_bond_atom_site_label_2
_geom_bond_site_symmetry_1
_geom_bond_site_symmetry_2
N1 C2 1_555 1_555
N2 H1 1_555 1_555
O1 C6 1_555 1_555
C1 N2 1_555 1_555
C2 C1 1_555 1_555
H2 C2 1_555 1_555
C3 N1 1_555 1_555
H3 C3 1_555 1_555
C4 C3 1_555 1_555
H4 C4 1_555 1_555
C5 C1 1_555 1_555
H5 C5 1_555 1_555
C6 N2 1_555 1_555
C7 C6 1_555 1_555
H6 C7 1_555 1_555
H7 C7 1_555 1_555
C8 C7 1_555 1_555
H8 C8 1_555 1_555
N1A C2A 1_555 1_555
N2A H1A 1_555 1_555
O1A C6A 1_555 1_555
C1A N2A 1_555 1_555
C2A C1A 1_555 1_555
H2A C2A 1_555 1_555
C3A N1A 1_555 1_555
H3A C3A 1_555 1_555
C4A C3A 1_555 1_555
H4A C4A 1_555 1_555
C5A C1A 1_555 1_555
H5A C5A 1_555 1_555
C6A N2A 1_555 1_555
C7A C8 1_555 1_555
H6A C7A 1_555 1_555
H7A C7A 1_555 1_555
H8A C8 1_555 1_555
C4 C5 1_555 1_555
C4A C5A 1_555 1_555
C6A C7A 1_555 1_555

#END
