
#######################################################################
#
#                 Cambridge Crystallographic Data Centre
#                                CCDC 
#
#######################################################################
#
# If this CIF has been generated from an entry in the Cambridge 
# Structural Database, then it will include bibliographic, chemical, 
# crystal, experimental, refinement or atomic coordinate data resulting 
# from the CCDC's data processing and validation procedures.
#
#######################################################################

data_PIYHOW
_chemical_formula_moiety         'C17 H20 N4 O2'
_chemical_name_systematic        N,N'-bis(pyridin-4-yl)heptanediamide
_symmetry_cell_setting           trigonal
_symmetry_space_group_name_H-M   'P 31 2 1'
_symmetry_Int_Tables_number      152
_space_group_name_Hall           'P 31 2"'
loop_
_symmetry_equiv_pos_site_id
_symmetry_equiv_pos_as_xyz
1 x,y,z
2 -y,x-y,1/3+z
3 -x+y,-x,2/3+z
4 y,x,-z
5 -x,-x+y,1/3-z
6 x-y,-y,2/3-z
_cell_length_a                   9.1303(9)
_cell_length_b                   9.1303(9)
_cell_length_c                   17.069(3)
_cell_angle_alpha                90
_cell_angle_beta                 90
_cell_angle_gamma                120
_cell_volume                     1232.28
_exptl_crystal_colour            colorless
_exptl_crystal_description       rod
_cell_formula_units_Z            3
loop_
_atom_site_label
_atom_site_type_symbol
_atom_site_fract_x
_atom_site_fract_y
_atom_site_fract_z
O1 O -0.0641(3) 0.1350(3) 0.04553(10)
N1 N 0.4684(3) 0.6625(3) 0.16132(11)
N2 N 0.1446(3) 0.3624(3) -0.01883(9)
H1 H 0.1773 0.4035 -0.0650
C1 C 0.4931(4) 0.7111(4) 0.08608(15)
H2 H 0.5852 0.8161 0.0738
C2 C 0.3894(3) 0.6141(3) 0.02621(13)
H3 H 0.4112 0.6544 -0.0250
C3 C 0.2512(3) 0.4549(3) 0.04246(11)
C4 C 0.2303(3) 0.3996(3) 0.12015(11)
H4 H 0.1444 0.2924 0.1343
C5 C 0.3413(4) 0.5097(4) 0.17481(12)
H5 H 0.3248 0.4723 0.2265
C6 C -0.0049(4) 0.2146(3) -0.01460(12)
C7 C -0.0914(4) 0.1640(4) -0.09366(14)
H6 H -0.0922 0.2609 -0.1164
H7 H -0.0251 0.1346 -0.1279
C8 C -0.2667(4) 0.0206(4) -0.09164(14)
H8 H -0.3266 0.0373 -0.0488
H9 H -0.2644 -0.0827 -0.0814
C9 C -0.3620(5) 0.0000 -0.1667
H10 H -0.4741 -0.0979 -0.1609
O1E O -0.1991(4) -0.1350(3) -0.37886(10)
N1E N -0.1941(4) -0.6625(3) -0.49465(11)
N2E N -0.2178(4) -0.3624(3) -0.31450(9)
H1E H -0.2262 -0.4035 -0.2683
C1E C -0.2180(6) -0.7111(4) -0.41941(15)
H2E H -0.2309 -0.8161 -0.4071
C2E C -0.2247(4) -0.6141(3) -0.35954(13)
H3E H -0.2432 -0.6544 -0.3083
C3E C -0.2037(4) -0.4549(3) -0.37579(11)
C4E C -0.1693(4) -0.3996(3) -0.45348(11)
H4E H -0.1480 -0.2924 -0.4676
C5E C -0.1684(6) -0.5097(4) -0.50814(12)
H5E H -0.1475 -0.4723 -0.5598
C6E C -0.2195(5) -0.2146(3) -0.31873(12)
C7E C -0.2554(6) -0.1640(4) -0.23967(14)
H6E H -0.3531 -0.2609 -0.2169
H7E H -0.1597 -0.1346 -0.2054
C8E C -0.2873(6) -0.0206(4) -0.24169(14)
H8E H -0.3639 -0.0373 -0.2845
H9E H -0.1817 0.0827 -0.2519
H10E H -0.3762 0.0979 -0.1724
H11? H -0.4740 -0.0979 -0.1609
loop_
_geom_bond_atom_site_label_1
_geom_bond_atom_site_label_2
_geom_bond_site_symmetry_1
_geom_bond_site_symmetry_2
O1 C6 1_555 1_555
N1 C1 1_555 1_555
N2 H1 1_555 1_555
C1 H2 1_555 1_555
C2 C1 1_555 1_555
H3 C2 1_555 1_555
C3 N2 1_555 1_555
C4 C3 1_555 1_555
H4 C4 1_555 1_555
C5 N1 1_555 1_555
H5 C5 1_555 1_555
C6 N2 1_555 1_555
C7 C6 1_555 1_555
H6 C7 1_555 1_555
H7 C7 1_555 1_555
C8 C7 1_555 1_555
H8 C8 1_555 1_555
H9 C8 1_555 1_555
C9 C8 1_555 1_555
H10 C9 1_555 1_555
O1E C6E 1_555 1_555
N1E C1E 1_555 1_555
N2E H1E 1_555 1_555
C1E H2E 1_555 1_555
C2E C1E 1_555 1_555
H3E C2E 1_555 1_555
C3E N2E 1_555 1_555
C4E C3E 1_555 1_555
H4E C4E 1_555 1_555
C5E N1E 1_555 1_555
H5E C5E 1_555 1_555
C6E N2E 1_555 1_555
C7E C6E 1_555 1_555
H6E C7E 1_555 1_555
H7E C7E 1_555 1_555
C8E C9 1_555 1_555
H8E C8E 1_555 1_555
H9E C8E 1_555 1_555
H10E C9 1_555 1_555
C2 C3 1_555 1_555
C4 C5 1_555 1_555
C2E C3E 1_555 1_555
C4E C5E 1_555 1_555
C7E C8E 1_555 1_555

#END
