
#######################################################################
#
#                 Cambridge Crystallographic Data Centre
#                                CCDC 
#
#######################################################################
#
# If this CIF has been generated from an entry in the Cambridge 
# Structural Database, then it will include bibliographic, chemical, 
# crystal, experimental, refinement or atomic coordinate data resulting 
# from the CCDC's data processing and validation procedures.
#
#######################################################################

data_PIYHEM
_chemical_formula_moiety         'C13 H12 N4 O2'
_chemical_name_systematic        N,N'-bis(pyridin-4-yl)malonamide
_symmetry_cell_setting           tetragonal
_symmetry_space_group_name_H-M   'P 42 b c'
_symmetry_Int_Tables_number      106
_space_group_name_Hall           'P 4c -2ab'
loop_
_symmetry_equiv_pos_site_id
_symmetry_equiv_pos_as_xyz
1 x,y,z
2 -x,-y,z
3 -y,x,1/2+z
4 y,-x,1/2+z
5 1/2+x,1/2-y,z
6 1/2-x,1/2+y,z
7 1/2-y,1/2-x,1/2+z
8 1/2+y,1/2+x,1/2+z
_cell_length_a                   11.7841(11)
_cell_length_b                   11.7841(11)
_cell_length_c                   8.5590(16)
_cell_angle_alpha                90
_cell_angle_beta                 90
_cell_angle_gamma                90
_cell_volume                     1188.55
_exptl_crystal_colour            'light yellow'
_exptl_crystal_description       needle
_cell_formula_units_Z            4
loop_
_atom_site_label
_atom_site_type_symbol
_atom_site_fract_x
_atom_site_fract_y
_atom_site_fract_z
N1 N 0.1201(4) 0.2261(4) 0.3732(7)
N2 N 0.3372(4) 0.0586(4) 0.0603(6)
H1 H 0.3102 -0.0034 0.0227
C1 C 0.0910(6) 0.1280(6) 0.3037(8)
H2 H 0.0206 0.0963 0.3263
C2 C 0.1613(5) 0.0727(5) 0.2003(7)
H3 H 0.1383 0.0045 0.1556
C3 C 0.2665(5) 0.1184(5) 0.1628(6)
C4 C 0.2978(6) 0.2213(6) 0.2314(7)
H4 H 0.3670 0.2557 0.2094
C5 C 0.2202(6) 0.2699(6) 0.3344(7)
H5 H 0.2401 0.3388 0.3799
O1 O 0.4940(3) 0.1737(4) 0.0541(6)
C6 C 0.4440(5) 0.0873(5) 0.0131(6)
C7 C 0.5000 0.0000 -0.0919(10)
H6 H 0.5562 0.0361 -0.1581
N1A N 0.8799(4) -0.2261(4) 0.3732(7)
N2A N 0.6628(4) -0.0586(4) 0.0603(6)
H1A H 0.6898 0.0034 0.0227
C1A C 0.9090(6) -0.1280(6) 0.3037(8)
H2A H 0.9794 -0.0963 0.3263
C2A C 0.8387(5) -0.0727(5) 0.2003(7)
H3A H 0.8617 -0.0045 0.1556
C3A C 0.7335(5) -0.1184(5) 0.1628(6)
C4A C 0.7022(6) -0.2213(6) 0.2314(7)
H4A H 0.6330 -0.2557 0.2094
C5A C 0.7798(6) -0.2699(6) 0.3344(7)
H5A H 0.7599 -0.3388 0.3799
O1A O 0.5060(3) -0.1737(4) 0.0541(6)
C6A C 0.5560(5) -0.0873(5) 0.0131(6)
H6A H 0.4438 -0.0361 -0.1581
H7? H 0.5562 0.0361 -0.1581
loop_
_geom_bond_atom_site_label_1
_geom_bond_atom_site_label_2
_geom_bond_site_symmetry_1
_geom_bond_site_symmetry_2
N1 C1 1_555 1_555
N2 H1 1_555 1_555
C1 H2 1_555 1_555
C2 C1 1_555 1_555
H3 C2 1_555 1_555
C3 N2 1_555 1_555
C4 C3 1_555 1_555
H4 C4 1_555 1_555
C5 N1 1_555 1_555
H5 C5 1_555 1_555
O1 C6 1_555 1_555
C6 N2 1_555 1_555
C7 C6 1_555 1_555
H6 C7 1_555 1_555
N1A C1A 1_555 1_555
N2A H1A 1_555 1_555
C1A H2A 1_555 1_555
C2A C1A 1_555 1_555
H3A C2A 1_555 1_555
C3A N2A 1_555 1_555
C4A C3A 1_555 1_555
H4A C4A 1_555 1_555
C5A N1A 1_555 1_555
H5A C5A 1_555 1_555
O1A C6A 1_555 1_555
C6A C7 1_555 1_555
H6A C7 1_555 1_555
C2 C3 1_555 1_555
C4 C5 1_555 1_555
N2A C6A 1_555 1_555
C2A C3A 1_555 1_555
C4A C5A 1_555 1_555

#END
