
#######################################################################
#
#                 Cambridge Crystallographic Data Centre
#                                CCDC 
#
#######################################################################
#
# If this CIF has been generated from an entry in the Cambridge 
# Structural Database, then it will include bibliographic, chemical, 
# crystal, experimental, refinement or atomic coordinate data resulting 
# from the CCDC's data processing and validation procedures.
#
#######################################################################

data_PIYJAK
_chemical_formula_moiety         'C17 H20 N4 O2'
_chemical_name_systematic        N,N'-bis(pyridin-3-yl)heptanediamide
_symmetry_cell_setting           monoclinic
_symmetry_space_group_name_H-M   'P 2/c'
_symmetry_Int_Tables_number      13
_space_group_name_Hall           '-P 2yc'
loop_
_symmetry_equiv_pos_site_id
_symmetry_equiv_pos_as_xyz
1 x,y,z
2 -x,y,1/2-z
3 -x,-y,-z
4 x,-y,1/2+z
_cell_length_a                   11.675(2)
_cell_length_b                   10.3206(18)
_cell_length_c                   15.404(2)
_cell_angle_alpha                90
_cell_angle_beta                 116.443(11)
_cell_angle_gamma                90
_cell_volume                     1661.89
_exptl_crystal_colour            colorless
_exptl_crystal_description       rod
_cell_formula_units_Z            4
loop_
_atom_site_label
_atom_site_type_symbol
_atom_site_fract_x
_atom_site_fract_y
_atom_site_fract_z
N1 N 0.4001(3) 0.2293(3) 0.3144(2)
N2 N 0.2388(2) 0.0087(2) 0.10612(18)
H1 H 0.2426 -0.0738 0.1000
C1 C 0.3048(3) 0.0567(3) 0.2008(2)
C2 C 0.3321(3) 0.1859(3) 0.2244(3)
H2 H 0.3010 0.2463 0.1744
C3 C 0.4434(4) 0.1435(4) 0.3852(3)
H3 H 0.4922 0.1720 0.4484
C4 C 0.4186(5) 0.0133(4) 0.3686(3)
H4 H 0.4489 -0.0449 0.4201
C5 C 0.3493(4) -0.0299(3) 0.2759(3)
H5 H 0.3323 -0.1178 0.2639
O1 O 0.1515(3) 0.1916(2) 0.02172(17)
C6 C 0.1701(3) 0.0746(3) 0.0234(2)
C7 C 0.1161(3) -0.0089(3) -0.0666(3)
H6 H 0.0528 -0.0670 -0.0634
H7 H 0.1843 -0.0615 -0.0675
C8 C 0.0553(3) 0.0672(3) -0.1591(3)
H8 H 0.1188 0.1251 -0.1622
H9 H -0.0125 0.1203 -0.1578
C9 C 0.0000 -0.0150(5) -0.2500
H10 H -0.0666 -0.0703 -0.2490
N1A N -0.4001(3) 0.2293(3) -0.8144(2)
N2A N -0.2388(2) 0.0087(2) -0.60612(18)
H1A H -0.2426 -0.0738 -0.6000
C1A C -0.3048(3) 0.0567(3) -0.7008(2)
C2A C -0.3321(3) 0.1859(3) -0.7244(3)
H2A H -0.3010 0.2463 -0.6744
C3A C -0.4434(4) 0.1435(4) -0.8852(3)
H3A H -0.4922 0.1720 -0.9484
C4A C -0.4186(5) 0.0133(4) -0.8686(3)
H4A H -0.4489 -0.0449 -0.9201
C5A C -0.3493(4) -0.0299(3) -0.7759(3)
H5A H -0.3323 -0.1178 -0.7639
O1A O -0.1515(3) 0.1916(2) -0.52172(17)
C6A C -0.1701(3) 0.0746(3) -0.5234(2)
C7A C -0.1161(3) -0.0089(3) -0.4334(3)
H6A H -0.0528 -0.0670 -0.4366
H7A H -0.1843 -0.0615 -0.4325
C8A C -0.0553(3) 0.0672(3) -0.3409(3)
H8A H -0.1188 0.1251 -0.3378
H9A H 0.0125 0.1203 -0.3422
H10A H 0.0666 -0.0703 -0.2510
N3 N 0.2622(3) 0.7257(3) 0.0862(2)
N4 N 0.5346(2) 0.5075(2) 0.13807(18)
H11 H 0.5468 0.4268 0.1534
C10 C 0.4098(3) 0.5534(3) 0.1056(2)
C11 C 0.3801(3) 0.6819(3) 0.1148(2)
H12 H 0.4473 0.7405 0.1428
C12 C 0.1666(3) 0.6421(3) 0.0483(3)
H13 H 0.0835 0.6717 0.0285
C13 C 0.1857(3) 0.5129(3) 0.0370(3)
H14 H 0.1168 0.4561 0.0111
C14 C 0.3082(3) 0.4691(3) 0.0646(2)
H15 H 0.3224 0.3825 0.0556
O2 O 0.6324(2) 0.6909(2) 0.1254(2)
C15 C 0.6385(3) 0.5762(3) 0.1481(2)
C16 C 0.7609(3) 0.4999(3) 0.1875(3)
H16 H 0.7559 0.4371 0.1390
H17 H 0.7685 0.4522 0.2441
C17 C 0.8793(3) 0.5800(3) 0.2152(3)
H18 H 0.8871 0.6399 0.2661
H19 H 0.8705 0.6308 0.1596
C18 C 1.0000 0.4997(5) 0.2500
H20 H 1.0054 0.4442 0.3025
N3A N 1.7378(3) 0.7257(3) 0.4138(2)
N4A N 1.4654(2) 0.5075(2) 0.36193(18)
H11A H 1.4532 0.4268 0.3466
C10A C 1.5902(3) 0.5534(3) 0.3944(2)
C11A C 1.6199(3) 0.6819(3) 0.3852(2)
H12A H 1.5527 0.7405 0.3572
C12A C 1.8334(3) 0.6421(3) 0.4517(3)
H13A H 1.9165 0.6717 0.4715
C13A C 1.8143(3) 0.5129(3) 0.4630(3)
H14A H 1.8832 0.4561 0.4889
C14A C 1.6918(3) 0.4691(3) 0.4354(2)
H15A H 1.6776 0.3825 0.4444
O2A O 1.3676(2) 0.6909(2) 0.3746(2)
C15A C 1.3615(3) 0.5762(3) 0.3519(2)
C16A C 1.2391(3) 0.4999(3) 0.3125(3)
H16A H 1.2441 0.4371 0.3610
H17A H 1.2315 0.4522 0.2559
C17A C 1.1207(3) 0.5800(3) 0.2848(3)
H18A H 1.1129 0.6399 0.2339
H19A H 1.1295 0.6308 0.3404
H20A H 0.9946 0.4442 0.1975
H21? H -0.0666 -0.0703 -0.2490
H22? H 1.0054 0.4442 0.3025
loop_
_geom_bond_atom_site_label_1
_geom_bond_atom_site_label_2
_geom_bond_site_symmetry_1
_geom_bond_site_symmetry_2
N1 C2 1_555 1_555
N2 H1 1_555 1_555
C1 N2 1_555 1_555
C2 C1 1_555 1_555
H2 C2 1_555 1_555
C3 N1 1_555 1_555
H3 C3 1_555 1_555
C4 C3 1_555 1_555
H4 C4 1_555 1_555
C5 C1 1_555 1_555
H5 C5 1_555 1_555
O1 C6 1_555 1_555
C6 N2 1_555 1_555
C7 C6 1_555 1_555
H6 C7 1_555 1_555
H7 C7 1_555 1_555
C8 C7 1_555 1_555
H8 C8 1_555 1_555
H9 C8 1_555 1_555
C9 C8 1_555 1_555
H10 C9 1_555 1_555
N3 C11 1_555 1_555
N4 H11 1_555 1_555
C10 N4 1_555 1_555
C11 C10 1_555 1_555
H12 C11 1_555 1_555
C12 N3 1_555 1_555
H13 C12 1_555 1_555
C13 C12 1_555 1_555
H14 C13 1_555 1_555
C14 C10 1_555 1_555
H15 C14 1_555 1_555
O2 C15 1_555 1_555
C15 N4 1_555 1_555
C16 C15 1_555 1_555
H16 C16 1_555 1_555
H17 C16 1_555 1_555
C17 C16 1_555 1_555
H18 C17 1_555 1_555
H19 C17 1_555 1_555
C18 C17 1_555 1_555
H20 C18 1_555 1_555
N1A C2A 1_555 1_555
N2A H1A 1_555 1_555
C1A N2A 1_555 1_555
C2A C1A 1_555 1_555
H2A C2A 1_555 1_555
C3A N1A 1_555 1_555
H3A C3A 1_555 1_555
C4A C3A 1_555 1_555
H4A C4A 1_555 1_555
C5A C1A 1_555 1_555
H5A C5A 1_555 1_555
O1A C6A 1_555 1_555
C6A N2A 1_555 1_555
C7A C6A 1_555 1_555
H6A C7A 1_555 1_555
H7A C7A 1_555 1_555
C8A C9 1_555 1_555
H8A C8A 1_555 1_555
H9A C8A 1_555 1_555
H10A C9 1_555 1_555
N3A C11A 1_555 1_555
N4A H11A 1_555 1_555
C10A N4A 1_555 1_555
C11A C10A 1_555 1_555
H12A C11A 1_555 1_555
C12A N3A 1_555 1_555
H13A C12A 1_555 1_555
C13A C12A 1_555 1_555
H14A C13A 1_555 1_555
C14A C10A 1_555 1_555
H15A C14A 1_555 1_555
O2A C15A 1_555 1_555
C15A N4A 1_555 1_555
C16A C15A 1_555 1_555
H16A C16A 1_555 1_555
H17A C16A 1_555 1_555
C17A C18 1_555 1_555
H18A C17A 1_555 1_555
H19A C17A 1_555 1_555
H20A C18 1_555 1_555
C4 C5 1_555 1_555
C13 C14 1_555 1_555
C4A C5A 1_555 1_555
C7A C8A 1_555 1_555
C13A C14A 1_555 1_555
C16A C17A 1_555 1_555

#END
