
#######################################################################
#
#                 Cambridge Crystallographic Data Centre
#                                CCDC 
#
#######################################################################
#
# If this CIF has been generated from an entry in the Cambridge 
# Structural Database, then it will include bibliographic, chemical, 
# crystal, experimental, refinement or atomic coordinate data resulting 
# from the CCDC's data processing and validation procedures.
#
#######################################################################

data_PIYROH
_chemical_formula_moiety         'C29 H22 Br1 N1 O3'
_chemical_name_systematic        
5-[2-(3-bromophenyl)-1-(2-hydroxynaphthalen-1-yl)ethenyl]-5-ethyl-2-phenyl-1,3-oxazol-4(5H)-one
_symmetry_cell_setting           monoclinic
_symmetry_space_group_name_H-M   'P 21'
_symmetry_Int_Tables_number      4
_space_group_name_Hall           'P 2yb'
loop_
_symmetry_equiv_pos_site_id
_symmetry_equiv_pos_as_xyz
1 x,y,z
2 -x,1/2+y,-z
_cell_length_a                   10.3432(4)
_cell_length_b                   7.6783(3)
_cell_length_c                   14.7312(6)
_cell_angle_alpha                90
_cell_angle_beta                 91.6180(10)
_cell_angle_gamma                90
_cell_volume                     1169.46
_exptl_crystal_colour            colorless
_exptl_crystal_description       block
_cell_formula_units_Z            2
loop_
_atom_site_label
_atom_site_type_symbol
_atom_site_fract_x
_atom_site_fract_y
_atom_site_fract_z
Br1 Br 0.92116(2) 0.81315(3) 0.54899(2)
O1 O 0.34823(14) 0.2571(2) 0.23523(10)
O2 O 0.62376(16) 0.1056(2) 0.12988(11)
O3 O 0.57627(16) 0.5277(2) 0.08034(11)
H1 H 0.5756 0.5707 0.0279
N1 N 0.40766(18) 0.1705(2) 0.09572(12)
C1 C 0.1798(2) 0.2478(3) 0.12284(15)
C2 C 0.7860(2) 0.6221(3) 0.41116(15)
H2 H 0.7799 0.5350 0.4567
C3 C 0.6615(2) 0.4295(3) 0.30676(14)
H3 H 0.6997 0.3261 0.3306
C4 C 0.1324(2) 0.1892(3) 0.03864(17)
H4 H 0.1898 0.1432 -0.0045
C5 C 0.8488(2) 0.7776(3) 0.43003(15)
C6 C 0.4567(2) 0.1384(3) 0.41036(16)
H5 H 0.3644 0.1654 0.4027
H6 H 0.5022 0.2395 0.4363
H7 H 0.4679 0.0385 0.4513
C7 C 0.3168(2) 0.2248(3) 0.14794(14)
C8 C 0.7315(2) 0.5944(3) 0.32412(15)
C9 C 0.5121(2) 0.0946(3) 0.31826(15)
H8 H 0.4739 -0.0167 0.2966
H9 H 0.6066 0.0769 0.3261
C10 C 0.8625(2) 0.9063(3) 0.36524(17)
H10 H 0.9053 1.0126 0.3798
C11 C 0.7471(2) 0.7222(3) 0.25752(16)
H11 H 0.7128 0.7036 0.1978
C12 C 0.3898(2) 0.7163(3) 0.08670(15)
H12 H 0.3967 0.7441 0.0242
C13 C 0.0005(3) 0.1988(4) 0.01830(19)
H13 H -0.0327 0.1578 -0.0386
C14 C 0.3756(2) 0.6413(3) 0.27248(15)
C15 C 0.2764(2) 0.6979(3) 0.41688(16)
H14 H 0.2737 0.6791 0.4805
C16 C 0.4801(2) 0.6007(3) 0.12877(15)
C17 C 0.5491(2) 0.4127(3) 0.26050(14)
C18 C 0.3676(2) 0.6141(3) 0.36745(15)
H15 H 0.4266 0.5366 0.3972
C19 C 0.0964(2) 0.3206(5) 0.18530(14)
H16 H 0.1292 0.3621 0.2422
C20 C 0.2937(2) 0.7876(3) 0.13538(15)
H17 H 0.2310 0.8595 0.1055
C21 C -0.0346(2) 0.3318(5) 0.16367(17)
H18 H -0.0917 0.3831 0.2054
C22 C 0.4720(2) 0.5588(3) 0.21962(15)
C23 C 0.8119(2) 0.8754(3) 0.27812(18)
H19 H 0.8221 0.9608 0.2322
C24 C 0.4876(2) 0.2336(3) 0.24568(15)
C25 C 0.5206(2) 0.1624(3) 0.15115(15)
C26 C 0.18684(19) 0.8109(5) 0.37474(14)
H20 H 0.1237 0.8677 0.4098
C27 C 0.1904(2) 0.8396(3) 0.28281(16)
H21 H 0.1290 0.9155 0.2544
C28 C -0.0827(2) 0.2685(4) 0.0813(2)
H22 H -0.1730 0.2728 0.0678
C29 C 0.2847(2) 0.7570(3) 0.23003(15)
loop_
_geom_bond_atom_site_label_1
_geom_bond_atom_site_label_2
_geom_bond_site_symmetry_1
_geom_bond_site_symmetry_2
Br1 C5 1_555 1_555
O1 C7 1_555 1_555
O2 C25 1_555 1_555
O3 H1 1_555 1_555
N1 C7 1_555 1_555
C1 C4 1_555 1_555
C2 H2 1_555 1_555
C3 H3 1_555 1_555
C4 H4 1_555 1_555
C5 C2 1_555 1_555
C6 H5 1_555 1_555
H6 C6 1_555 1_555
H7 C6 1_555 1_555
C7 C1 1_555 1_555
C8 C2 1_555 1_555
C9 C6 1_555 1_555
H8 C9 1_555 1_555
H9 C9 1_555 1_555
C10 C5 1_555 1_555
H10 C10 1_555 1_555
C11 C8 1_555 1_555
H11 C11 1_555 1_555
C12 H12 1_555 1_555
C13 C4 1_555 1_555
H13 C13 1_555 1_555
C14 C18 1_555 1_555
C15 H14 1_555 1_555
C16 O3 1_555 1_555
C17 C3 1_555 1_555
C18 C15 1_555 1_555
H15 C18 1_555 1_555
C19 C1 1_555 1_555
H16 C19 1_555 1_555
C20 C12 1_555 1_555
H17 C20 1_555 1_555
C21 C19 1_555 1_555
H18 C21 1_555 1_555
C22 C14 1_555 1_555
C23 C10 1_555 1_555
H19 C23 1_555 1_555
C24 O1 1_555 1_555
C25 N1 1_555 1_555
C26 C15 1_555 1_555
H20 C26 1_555 1_555
C27 C26 1_555 1_555
H21 C27 1_555 1_555
C28 C13 1_555 1_555
H22 C28 1_555 1_555
C29 C14 1_555 1_555
C3 C8 1_555 1_555
C9 C24 1_555 1_555
C11 C23 1_555 1_555
C12 C16 1_555 1_555
C16 C22 1_555 1_555
C17 C22 1_555 1_555
C17 C24 1_555 1_555
C20 C29 1_555 1_555
C21 C28 1_555 1_555
C24 C25 1_555 1_555
C27 C29 1_555 1_555

#END
