
#######################################################################
#
#                 Cambridge Crystallographic Data Centre
#                                CCDC 
#
#######################################################################
#
# If this CIF has been generated from an entry in the Cambridge 
# Structural Database, then it will include bibliographic, chemical, 
# crystal, experimental, refinement or atomic coordinate data resulting 
# from the CCDC's data processing and validation procedures.
#
#######################################################################

data_PIYSUO
_chemical_formula_moiety         'C20 H20 B2 N4 O2,3(C1 H1 Cl3)'
_chemical_name_systematic        
"1,6-dimethyl-5,10-diphenyl-5,10-dihydro-1H-4,5-5,10-epidioxydiimidazo[2,1-c:2',1'-f][1,4,2,5]diazadiborinin-6-ium-10-uide chloroform solvate"
_symmetry_cell_setting           orthorhombic
_symmetry_space_group_name_H-M   'P n a 21'
_symmetry_Int_Tables_number      33
_space_group_name_Hall           'P 2c -2n'
loop_
_symmetry_equiv_pos_site_id
_symmetry_equiv_pos_as_xyz
1 x,y,z
2 -x,-y,1/2+z
3 1/2+x,1/2-y,z
4 1/2-x,1/2+y,1/2+z
_cell_length_a                   15.8691(3)
_cell_length_b                   12.5093(3)
_cell_length_c                   15.8466(4)
_cell_angle_alpha                90
_cell_angle_beta                 90
_cell_angle_gamma                90
_cell_volume                     3145.73
_exptl_crystal_colour            colorless
_exptl_crystal_description       block
_cell_formula_units_Z            4
loop_
_atom_site_label
_atom_site_type_symbol
_atom_site_fract_x
_atom_site_fract_y
_atom_site_fract_z
B1 B 0.5313(3) 0.7605(4) 0.5643(4)
B2 B 0.4449(3) 0.7488(4) 0.7098(4)
C1 C 0.5859(3) 0.7590(4) 0.4809(3)
C2 C 0.5967(3) 0.6658(4) 0.4328(3)
H1 H 0.571187 0.601188 0.451301
C3 C 0.6437(3) 0.6654(4) 0.3588(4)
H2 H 0.650084 0.600881 0.327815
C4 C 0.6812(3) 0.7582(4) 0.3298(3)
H3 H 0.713237 0.75793 0.27915
C5 C 0.6712(3) 0.8522(4) 0.3760(3)
H4 H 0.696751 0.916503 0.357092
C6 C 0.6237(3) 0.8518(4) 0.4501(3)
H5 H 0.616961 0.916664 0.480448
C7 C 0.4369(3) 0.8077(3) 0.5620(3)
C8 C 0.3974(3) 0.8404(4) 0.4107(3)
H6 H 0.457559 0.853034 0.401234
H7 H 0.364735 0.899456 0.386569
H8 H 0.380762 0.77321 0.383525
C9 C 0.3024(3) 0.8472(4) 0.5379(3)
H9 H 0.251754 0.865989 0.509698
C10 C 0.3115(3) 0.8287(4) 0.6215(3)
H10 H 0.268137 0.831362 0.662739
C11 C 0.5340(3) 0.8122(3) 0.7147(3)
C12 C 0.5691(3) 0.8451(4) 0.8667(3)
H11 H 0.532731 0.906149 0.879988
H12 H 0.622005 0.85128 0.898163
H13 H 0.540481 0.778635 0.882502
C13 C 0.6629(3) 0.8731(4) 0.7407(3)
H14 H 0.711235 0.898166 0.769974
C14 C 0.6557(3) 0.8595(4) 0.6563(4)
H15 H 0.698116 0.873649 0.615453
C15 C 0.3907(3) 0.7352(3) 0.7937(3)
C16 C 0.3456(3) 0.8226(4) 0.8266(3)
H16 H 0.348366 0.889598 0.798508
C17 C 0.2969(3) 0.8133(4) 0.8992(3)
H17 H 0.267074 0.873558 0.920225
C18 C 0.2921(3) 0.7159(4) 0.9412(3)
H18 H 0.257922 0.708624 0.990096
C19 C 0.3376(3) 0.6293(4) 0.9108(3)
H19 H 0.335616 0.562751 0.939656
C20 C 0.3862(3) 0.6397(4) 0.8380(3)
H20 H 0.417083 0.579748 0.81816
N1 N 0.5752(2) 0.8210(3) 0.6402(3)
N2 N 0.5870(2) 0.8440(3) 0.7763(3)
N3 N 0.3950(2) 0.8053(3) 0.6358(3)
N4 N 0.3810(2) 0.8335(3) 0.5011(3)
O1 O 0.52053(18) 0.6481(2) 0.5963(2)
O2 O 0.46805(18) 0.6415(3) 0.6754(2)
C21 C 0.5169(3) 0.8515(4) 0.1312(4)
H21 H 0.530439 0.774827 0.142736
Cl1 Cl 0.48730(11) 0.91235(12) 0.22632(10)
Cl2 Cl 0.43461(8) 0.85653(11) 0.05738(10)
Cl3 Cl 0.60752(8) 0.91400(11) 0.09057(11)
C22 C 0.3842(3) 0.4730(4) 0.5687(4)
H22 H 0.41169 0.517452 0.613393
Cl4 Cl 0.31080(8) 0.38610(11) 0.61777(10)
Cl5 Cl 0.46284(8) 0.39854(10) 0.51657(10)
Cl6 Cl 0.33214(8) 0.55878(10) 0.49796(9)
C23 C 0.6051(3) 0.4754(4) 0.7041(4)
H23 H 0.575772 0.517946 0.659473
Cl7 Cl 0.53032(8) 0.39254(10) 0.75468(10)
Cl8 Cl 0.64954(8) 0.56433(11) 0.77808(9)
Cl9 Cl 0.68402(8) 0.39779(12) 0.65630(10)
loop_
_geom_bond_atom_site_label_1
_geom_bond_atom_site_label_2
_geom_bond_site_symmetry_1
_geom_bond_site_symmetry_2
B1 C1 1_555 1_555
B2 C11 1_555 1_555
C1 C2 1_555 1_555
C2 H1 1_555 1_555
C3 C2 1_555 1_555
H2 C3 1_555 1_555
C4 C3 1_555 1_555
H3 C4 1_555 1_555
C5 C4 1_555 1_555
H4 C5 1_555 1_555
C6 C1 1_555 1_555
H5 C6 1_555 1_555
C7 B1 1_555 1_555
C8 H6 1_555 1_555
H7 C8 1_555 1_555
H8 C8 1_555 1_555
C9 H9 1_555 1_555
C10 C9 1_555 1_555
H10 C10 1_555 1_555
C11 N1 1_555 1_555
C12 H11 1_555 1_555
H12 C12 1_555 1_555
H13 C12 1_555 1_555
C13 H14 1_555 1_555
C14 C13 1_555 1_555
H15 C14 1_555 1_555
C15 B2 1_555 1_555
C16 C15 1_555 1_555
H16 C16 1_555 1_555
C17 C16 1_555 1_555
H17 C17 1_555 1_555
C18 C17 1_555 1_555
H18 C18 1_555 1_555
C19 C18 1_555 1_555
H19 C19 1_555 1_555
C20 C15 1_555 1_555
H20 C20 1_555 1_555
N1 B1 1_555 1_555
N2 C11 1_555 1_555
N3 B2 1_555 1_555
N4 C7 1_555 1_555
O1 B1 1_555 1_555
O2 B2 1_555 1_555
C21 H21 1_555 1_555
Cl1 C21 1_555 1_555
Cl2 C21 1_555 1_555
Cl3 C21 1_555 1_555
C22 H22 1_555 1_555
Cl4 C22 1_555 1_555
Cl5 C22 1_555 1_555
Cl6 C22 1_555 1_555
C23 H23 1_555 1_555
Cl7 C23 1_555 1_555
Cl8 C23 1_555 1_555
Cl9 C23 1_555 1_555
C5 C6 1_555 1_555
C7 N3 1_555 1_555
C8 N4 1_555 1_555
C9 N4 1_555 1_555
C10 N3 1_555 1_555
C12 N2 1_555 1_555
C13 N2 1_555 1_555
C14 N1 1_555 1_555
C19 C20 1_555 1_555
O1 O2 1_555 1_555

#END
