
#######################################################################
#
#                 Cambridge Crystallographic Data Centre
#                                CCDC 
#
#######################################################################
#
# If this CIF has been generated from an entry in the Cambridge 
# Structural Database, then it will include bibliographic, chemical, 
# crystal, experimental, refinement or atomic coordinate data resulting 
# from the CCDC's data processing and validation procedures.
#
#######################################################################

data_PIYXUS
_chemical_formula_moiety         'C20 H14 O2 S2'
_chemical_name_systematic        
2,7-diethylthieno[2',3':5,6]-s-indaceno[1,2-b]thiophene-4,9-dione
_symmetry_cell_setting           triclinic
_symmetry_space_group_name_H-M   'P -1'
_symmetry_Int_Tables_number      2
_space_group_name_Hall           '-P 1'
loop_
_symmetry_equiv_pos_site_id
_symmetry_equiv_pos_as_xyz
1 x,y,z
2 -x,-y,-z
_cell_length_a                   4.098(5)
_cell_length_b                   8.400(11)
_cell_length_c                   12.351(16)
_cell_angle_alpha                71.837(13)
_cell_angle_beta                 89.052(14)
_cell_angle_gamma                80.038(14)
_cell_volume                     397.568
_exptl_crystal_colour            black
_exptl_crystal_description       block
_cell_formula_units_Z            1
loop_
_atom_site_label
_atom_site_type_symbol
_atom_site_fract_x
_atom_site_fract_y
_atom_site_fract_z
C1 C -0.3749(10) 1.0918(5) -0.2095(4)
C2 C -0.1713(9) 1.0258(5) -0.0993(3)
C3 C -0.0189(10) 0.8628(5) -0.0420(3)
H1 H -0.0318 0.7733 -0.0700
C4 C 0.1546(10) 0.8364(5) 0.0588(3)
C5 C 0.3464(9) 0.6851(4) 0.1420(3)
C6 C 0.4675(10) 0.7228(5) 0.2307(3)
C7 C 0.6469(10) 0.5817(5) 0.3139(3)
H2 H 0.7463 0.5879 0.3792
C8 C 0.6591(10) 0.4339(5) 0.2882(3)
C9 C 0.8267(11) 0.2579(5) 0.3540(4)
H3 H 0.9987 0.2191 0.3085
H4 H 0.6659 0.1823 0.3671
C10 C 0.9797(12) 0.2452(5) 0.4673(4)
H5 H 1.1398 0.3194 0.4553
H6 H 1.0870 0.1301 0.5043
H7 H 0.8096 0.2781 0.5145
O1 O -0.4419(8) 1.0070(4) -0.2668(2)
S1 S 0.4481(3) 0.47348(12) 0.15916(9)
C1A C 0.3749(10) 0.9082(5) 0.2095(4)
C2A C 0.1713(9) 0.9742(5) 0.0993(3)
C3A C 0.0189(10) 1.1372(5) 0.0420(3)
H1A H 0.0318 1.2267 0.0700
C4A C -0.1546(10) 1.1636(5) -0.0588(3)
C5A C -0.3464(9) 1.3149(4) -0.1420(3)
C6A C -0.4675(10) 1.2772(5) -0.2307(3)
C7A C -0.6469(10) 1.4183(5) -0.3139(3)
H2A H -0.7463 1.4121 -0.3792
C8A C -0.6591(10) 1.5661(5) -0.2882(3)
C9A C -0.8267(11) 1.7421(5) -0.3540(4)
H3A H -0.9987 1.7809 -0.3085
H4A H -0.6659 1.8177 -0.3671
C10A C -0.9797(12) 1.7548(5) -0.4673(4)
H5A H -1.1398 1.6806 -0.4553
H6A H -1.0870 1.8699 -0.5043
H7A H -0.8096 1.7219 -0.5145
O1A O 0.4419(8) 0.9930(4) 0.2668(2)
S1A S -0.4481(3) 1.52652(12) -0.15916(9)
loop_
_geom_bond_atom_site_label_1
_geom_bond_atom_site_label_2
_geom_bond_site_symmetry_1
_geom_bond_site_symmetry_2
C1 C2 1_555 1_555
C2 C3 1_555 1_555
C3 H1 1_555 1_555
C4 C3 1_555 1_555
C5 C4 1_555 1_555
C6 C5 1_555 1_555
C7 C6 1_555 1_555
H2 C7 1_555 1_555
C8 C7 1_555 1_555
C9 C8 1_555 1_555
H3 C9 1_555 1_555
H4 C9 1_555 1_555
C10 C9 1_555 1_555
H5 C10 1_555 1_555
H6 C10 1_555 1_555
H7 C10 1_555 1_555
O1 C1 1_555 1_555
S1 C5 1_555 1_555
C1A C6 1_555 1_555
C2A C4 1_555 1_555
C3A C2A 1_555 1_555
H1A C3A 1_555 1_555
C4A C2 1_555 1_555
C5A C4A 1_555 1_555
C6A C1 1_555 1_555
C7A C6A 1_555 1_555
H2A C7A 1_555 1_555
C8A C7A 1_555 1_555
C9A C8A 1_555 1_555
H3A C9A 1_555 1_555
H4A C9A 1_555 1_555
C10A C9A 1_555 1_555
H5A C10A 1_555 1_555
H6A C10A 1_555 1_555
H7A C10A 1_555 1_555
O1A C1A 1_555 1_555
S1A C5A 1_555 1_555
C8 S1 1_555 1_555
C1A C2A 1_555 1_555
C3A C4A 1_555 1_555
C5A C6A 1_555 1_555
C8A S1A 1_555 1_555

#END
