
#######################################################################
#
#                 Cambridge Crystallographic Data Centre
#                                CCDC 
#
#######################################################################
#
# If this CIF has been generated from an entry in the Cambridge 
# Structural Database, then it will include bibliographic, chemical, 
# crystal, experimental, refinement or atomic coordinate data resulting 
# from the CCDC's data processing and validation procedures.
#
#######################################################################

data_PIYYED
_chemical_formula_moiety         'C40 H54 O2 S2'
_chemical_name_systematic        
2,7-didodecylthieno[2',3':5,6]-s-indaceno[1,2-b]thiophene-4,9-dione
_symmetry_cell_setting           triclinic
_symmetry_space_group_name_H-M   'P -1'
_symmetry_Int_Tables_number      2
_space_group_name_Hall           '-P 1'
loop_
_symmetry_equiv_pos_site_id
_symmetry_equiv_pos_as_xyz
1 x,y,z
2 -x,-y,-z
_cell_length_a                   5.4953(16)
_cell_length_b                   7.0700(19)
_cell_length_c                   24.359(8)
_cell_angle_alpha                94.948(16)
_cell_angle_beta                 92.776(17)
_cell_angle_gamma                106.352(14)
_cell_volume                     902.104
_exptl_crystal_colour            blue
_exptl_crystal_description       block
_cell_formula_units_Z            1
loop_
_atom_site_label
_atom_site_type_symbol
_atom_site_fract_x
_atom_site_fract_y
_atom_site_fract_z
C1 C 1.3633(4) 1.5996(2) 0.47205(8)
S1 S 0.84846(10) 1.10775(7) 0.40220(2)
C2 C 1.4236(4) 1.2877(3) 0.49584(8)
C3 C 1.2860(4) 1.3896(2) 0.46731(8)
C4 C 1.0559(4) 1.3259(3) 0.42951(8)
C5 C 0.9938(4) 1.4851(3) 0.41042(8)
C6 C 0.7767(4) 1.4298(3) 0.37282(9)
H1 H 0.7094 1.5197 0.3563
C7 C 0.6765(4) 1.2292(3) 0.36340(9)
C8 C 0.4467(4) 1.1107(3) 0.32720(10)
H2 H 0.4315 1.1810 0.2953
H3 H 0.2971 1.1029 0.3475
C9 C 0.4479(4) 0.9016(3) 0.30699(10)
H4 H 0.5919 0.9087 0.2849
H5 H 0.4705 0.8324 0.3387
C10 C 0.2069(5) 0.7836(3) 0.27286(10)
H6 H 0.1925 0.8467 0.2395
H7 H 0.0619 0.7870 0.2937
C11 C 0.1961(5) 0.5687(3) 0.25675(10)
H8 H 0.3455 0.5656 0.2375
H9 H 0.2028 0.5043 0.2902
C12 C -0.0372(5) 0.4523(3) 0.22067(11)
H10 H -0.0423 0.5155 0.1870
H11 H -0.1865 0.4575 0.2397
C13 C -0.0508(5) 0.2362(3) 0.20526(11)
H12 H 0.1016 0.2309 0.1874
H13 H -0.0523 0.1717 0.2389
C14 C -0.2803(5) 0.1217(3) 0.16734(11)
H14 H -0.2797 0.1876 0.1340
H15 H -0.4324 0.1262 0.1854
C15 C -0.2948(5) -0.0936(3) 0.15107(11)
H16 H -0.1424 -0.0984 0.1332
H17 H -0.2967 -0.1599 0.1843
C16 C -0.5236(5) -0.2058(4) 0.11300(12)
H18 H -0.5193 -0.1409 0.0794
H19 H -0.6756 -0.1978 0.1306
C17 C -0.5438(5) -0.4223(4) 0.09749(11)
H20 H -0.3919 -0.4307 0.0799
H21 H -0.5493 -0.4878 0.1310
C18 C -0.7724(6) -0.5315(4) 0.05939(13)
H22 H -0.7669 -0.4659 0.0259
H23 H -0.9242 -0.5229 0.0770
C19 C -0.7937(8) -0.7488(4) 0.04368(15)
H24 H -0.6422 -0.7595 0.0272
H25 H -0.9383 -0.8063 0.0177
H26 H -0.8141 -0.8179 0.0762
C20 C 1.1797(4) 1.6679(3) 0.43671(8)
O1 O 1.1894(3) 1.83977(19) 0.43171(7)
H27 H 1.374(4) 1.142(3) 0.4930(8)
C1A C 1.6367(4) 1.4004(2) 0.52795(8)
S1A S 2.15154(10) 1.89225(7) 0.59780(2)
C2A C 1.5764(4) 1.7123(3) 0.50416(8)
C3A C 1.7140(4) 1.6104(2) 0.53269(8)
C4A C 1.9441(4) 1.6741(3) 0.57049(8)
C5A C 2.0062(4) 1.5149(3) 0.58958(8)
C6A C 2.2233(4) 1.5702(3) 0.62718(9)
H1A H 2.2906 1.4803 0.6437
C7A C 2.3235(4) 1.7708(3) 0.63660(9)
C8A C 2.5533(4) 1.8893(3) 0.67280(10)
H2A H 2.5685 1.8190 0.7047
H3A H 2.7029 1.8971 0.6525
C9A C 2.5521(4) 2.0984(3) 0.69301(10)
H4A H 2.4081 2.0913 0.7151
H5A H 2.5295 2.1676 0.6613
C10A C 2.7931(5) 2.2164(3) 0.72714(10)
H6A H 2.8075 2.1533 0.7605
H7A H 2.9381 2.2130 0.7063
C11A C 2.8039(5) 2.4313(3) 0.74325(10)
H8A H 2.6545 2.4344 0.7625
H9A H 2.7972 2.4957 0.7098
C12A C 3.0372(5) 2.5477(3) 0.77933(11)
H10A H 3.0423 2.4845 0.8130
H11A H 3.1865 2.5425 0.7603
C13A C 3.0508(5) 2.7638(3) 0.79474(11)
H12A H 2.8984 2.7691 0.8126
H13A H 3.0523 2.8283 0.7611
C14A C 3.2803(5) 2.8783(3) 0.83266(11)
H14A H 3.2797 2.8124 0.8660
H15A H 3.4324 2.8738 0.8146
C15A C 3.2948(5) 3.0936(3) 0.84893(11)
H16A H 3.1424 3.0984 0.8668
H17A H 3.2967 3.1599 0.8157
C16A C 3.5236(5) 3.2058(4) 0.88700(12)
H18A H 3.5193 3.1409 0.9206
H19A H 3.6756 3.1978 0.8694
C17A C 3.5438(5) 3.4223(4) 0.90251(11)
H20A H 3.3919 3.4307 0.9201
H21A H 3.5493 3.4878 0.8690
C18A C 3.7724(6) 3.5315(4) 0.94061(13)
H22A H 3.7669 3.4659 0.9741
H23A H 3.9242 3.5229 0.9230
C19A C 3.7937(8) 3.7488(4) 0.95632(15)
H24A H 3.6422 3.7595 0.9728
H25A H 3.9383 3.8063 0.9823
H26A H 3.8141 3.8179 0.9238
C20A C 1.8203(4) 1.3321(3) 0.56329(8)
O1A O 1.8106(3) 1.16023(19) 0.56829(7)
H27A H 1.626(4) 1.858(3) 0.5070(8)
loop_
_geom_bond_atom_site_label_1
_geom_bond_atom_site_label_2
_geom_bond_site_symmetry_1
_geom_bond_site_symmetry_2
C1 C3 1_555 1_555
S1 C4 1_555 1_555
C2 C3 1_555 1_555
C3 C4 1_555 1_555
C4 C5 1_555 1_555
C5 C6 1_555 1_555
C6 H1 1_555 1_555
C7 S1 1_555 1_555
C8 C7 1_555 1_555
H2 C8 1_555 1_555
H3 C8 1_555 1_555
C9 C8 1_555 1_555
H4 C9 1_555 1_555
H5 C9 1_555 1_555
C10 C9 1_555 1_555
H6 C10 1_555 1_555
H7 C10 1_555 1_555
C11 C10 1_555 1_555
H8 C11 1_555 1_555
H9 C11 1_555 1_555
C12 C11 1_555 1_555
H10 C12 1_555 1_555
H11 C12 1_555 1_555
C13 C12 1_555 1_555
H12 C13 1_555 1_555
H13 C13 1_555 1_555
C14 C13 1_555 1_555
H14 C14 1_555 1_555
H15 C14 1_555 1_555
C15 C14 1_555 1_555
H16 C15 1_555 1_555
H17 C15 1_555 1_555
C16 C15 1_555 1_555
H18 C16 1_555 1_555
H19 C16 1_555 1_555
C17 C16 1_555 1_555
H20 C17 1_555 1_555
H21 C17 1_555 1_555
C18 C17 1_555 1_555
H22 C18 1_555 1_555
H23 C18 1_555 1_555
C19 C18 1_555 1_555
H24 C19 1_555 1_555
H25 C19 1_555 1_555
H26 C19 1_555 1_555
C20 C1 1_555 1_555
O1 C20 1_555 1_555
H27 C2 1_555 1_555
C1A C2 1_555 1_555
S1A C4A 1_555 1_555
C2A C1 1_555 1_555
C3A C1A 1_555 1_555
C4A C3A 1_555 1_555
C5A C4A 1_555 1_555
C6A C5A 1_555 1_555
H1A C6A 1_555 1_555
C7A S1A 1_555 1_555
C8A C7A 1_555 1_555
H2A C8A 1_555 1_555
H3A C8A 1_555 1_555
C9A C8A 1_555 1_555
H4A C9A 1_555 1_555
H5A C9A 1_555 1_555
C10A C9A 1_555 1_555
H6A C10A 1_555 1_555
H7A C10A 1_555 1_555
C11A C10A 1_555 1_555
H8A C11A 1_555 1_555
H9A C11A 1_555 1_555
C12A C11A 1_555 1_555
H10A C12A 1_555 1_555
H11A C12A 1_555 1_555
C13A C12A 1_555 1_555
H12A C13A 1_555 1_555
H13A C13A 1_555 1_555
C14A C13A 1_555 1_555
H14A C14A 1_555 1_555
H15A C14A 1_555 1_555
C15A C14A 1_555 1_555
H16A C15A 1_555 1_555
H17A C15A 1_555 1_555
C16A C15A 1_555 1_555
H18A C16A 1_555 1_555
H19A C16A 1_555 1_555
C17A C16A 1_555 1_555
H20A C17A 1_555 1_555
H21A C17A 1_555 1_555
C18A C17A 1_555 1_555
H22A C18A 1_555 1_555
H23A C18A 1_555 1_555
C19A C18A 1_555 1_555
H24A C19A 1_555 1_555
H25A C19A 1_555 1_555
H26A C19A 1_555 1_555
C20A C1A 1_555 1_555
O1A C20A 1_555 1_555
H27A C2A 1_555 1_555
C5 C20 1_555 1_555
C6 C7 1_555 1_555
C2A C3A 1_555 1_555
C5A C20A 1_555 1_555
C6A C7A 1_555 1_555

#END
