
#######################################################################
#
#                 Cambridge Crystallographic Data Centre
#                                CCDC 
#
#######################################################################
#
# If this CIF has been generated from an entry in the Cambridge 
# Structural Database, then it will include bibliographic, chemical, 
# crystal, experimental, refinement or atomic coordinate data resulting 
# from the CCDC's data processing and validation procedures.
#
#######################################################################

data_PIYZOO
_chemical_formula_moiety         'C12 H15 I1 O2'
_chemical_name_systematic        
2,2,6,6-tetramethyl-8-[1,2]iodoxolo[4,5,1-hi][1,2]benziodoxole
_symmetry_cell_setting           orthorhombic
_symmetry_space_group_name_H-M   'P b c a'
_symmetry_Int_Tables_number      61
_space_group_name_Hall           '-P 2ac 2ab'
loop_
_symmetry_equiv_pos_site_id
_symmetry_equiv_pos_as_xyz
1 x,y,z
2 1/2-x,-y,1/2+z
3 -x,1/2+y,1/2-z
4 1/2+x,1/2-y,-z
5 -x,-y,-z
6 1/2+x,y,1/2-z
7 x,1/2-y,1/2+z
8 1/2-x,1/2+y,z
_cell_length_a                   7.710(3)
_cell_length_b                   15.828(5)
_cell_length_c                   19.307(6)
_cell_angle_alpha                90
_cell_angle_beta                 90
_cell_angle_gamma                90
_cell_volume                     2356.11
_exptl_crystal_colour            colorless
_exptl_crystal_description       Prism
_cell_formula_units_Z            8
loop_
_atom_site_label
_atom_site_type_symbol
_atom_site_fract_x
_atom_site_fract_y
_atom_site_fract_z
I1 I 0.191025(17) 1.034292(8) 0.427624(7)
O1 O 0.36161(19) 1.10304(9) 0.36432(8)
O2 O 0.06679(19) 0.92789(9) 0.46847(7)
C1 C 0.3129(3) 0.93851(14) 0.37472(11)
C2 C 0.4534(3) 0.96234(13) 0.33536(11)
C3 C 0.5360(3) 0.89694(14) 0.29979(11)
H1 H 0.6345 0.9083 0.2717
C4 C 0.4726(3) 0.81483(14) 0.30582(11)
H2 H 0.5296 0.7708 0.2813
C5 C 0.3288(3) 0.79461(14) 0.34638(11)
H3 H 0.2880 0.7381 0.3491
C6 C 0.2459(3) 0.85914(13) 0.38295(10)
C7 C 0.0857(3) 0.85147(13) 0.42958(10)
C8 C 0.1081(3) 0.77976(13) 0.48163(11)
H4 H 0.2135 0.7893 0.5090
H5 H 0.1180 0.7260 0.4568
H6 H 0.0074 0.7779 0.5125
C9 C -0.0752(3) 0.83850(15) 0.38502(11)
H7 H -0.1784 0.8379 0.4146
H8 H -0.0661 0.7846 0.3603
H9 H -0.0846 0.8847 0.3514
C10 C 0.5057(3) 1.05524(13) 0.33907(11)
C11 C 0.6587(3) 1.06464(16) 0.38893(12)
H10 H 0.6938 1.1241 0.3911
H11 H 0.7562 1.0304 0.3724
H12 H 0.6242 1.0454 0.4352
C12 C 0.5520(3) 1.08973(15) 0.26817(10)
H13 H 0.4495 1.0879 0.2382
H14 H 0.6445 1.0553 0.2478
H15 H 0.5918 1.1483 0.2727
loop_
_geom_bond_atom_site_label_1
_geom_bond_atom_site_label_2
_geom_bond_site_symmetry_1
_geom_bond_site_symmetry_2
I1 O1 1_555 1_555
O1 C10 1_555 1_555
O2 I1 1_555 1_555
C1 I1 1_555 1_555
C2 C1 1_555 1_555
C3 C2 1_555 1_555
H1 C3 1_555 1_555
C4 C3 1_555 1_555
H2 C4 1_555 1_555
C5 C4 1_555 1_555
H3 C5 1_555 1_555
C6 C1 1_555 1_555
C7 O2 1_555 1_555
C8 C7 1_555 1_555
H4 C8 1_555 1_555
H5 C8 1_555 1_555
H6 C8 1_555 1_555
C9 C7 1_555 1_555
H7 C9 1_555 1_555
H8 C9 1_555 1_555
H9 C9 1_555 1_555
C10 C2 1_555 1_555
C11 C10 1_555 1_555
H10 C11 1_555 1_555
H11 C11 1_555 1_555
H12 C11 1_555 1_555
C12 C10 1_555 1_555
H13 C12 1_555 1_555
H14 C12 1_555 1_555
H15 C12 1_555 1_555
C5 C6 1_555 1_555
C6 C7 1_555 1_555

#END
