
#######################################################################
#
#                 Cambridge Crystallographic Data Centre
#                                CCDC 
#
#######################################################################
#
# If this CIF has been generated from an entry in the Cambridge 
# Structural Database, then it will include bibliographic, chemical, 
# crystal, experimental, refinement or atomic coordinate data resulting 
# from the CCDC's data processing and validation procedures.
#
#######################################################################

data_PIYZUU
_chemical_formula_moiety         'C10 H9 I1 O3'
_chemical_name_systematic        
6,6-dimethyl-8-[1,2]iodoxolo[4,5,1-hi][1,2]benziodoxol-2-one
_symmetry_cell_setting           triclinic
_symmetry_space_group_name_H-M   'P -1'
_symmetry_Int_Tables_number      2
_space_group_name_Hall           '-P 1'
loop_
_symmetry_equiv_pos_site_id
_symmetry_equiv_pos_as_xyz
1 x,y,z
2 -x,-y,-z
_cell_length_a                   8.050(6)
_cell_length_b                   8.161(5)
_cell_length_c                   8.465(5)
_cell_angle_alpha                66.59(6)
_cell_angle_beta                 75.26(7)
_cell_angle_gamma                72.30(8)
_cell_volume                     480.468
_exptl_crystal_colour            colorless
_exptl_crystal_description       Prism
_cell_formula_units_Z            2
loop_
_atom_site_label
_atom_site_type_symbol
_atom_site_fract_x
_atom_site_fract_y
_atom_site_fract_z
I1 I 0.565526(19) 0.74882(2) 0.399964(19)
O1 O 0.3817(3) 0.6232(3) 0.3980(3)
O2 O 0.7025(3) 0.9736(3) 0.3184(3)
O3 O 0.6873(4) 1.2666(3) 0.1497(4)
C1 C 0.4029(3) 0.9676(4) 0.2470(3)
C2 C 0.4563(4) 1.1309(4) 0.1684(3)
C3 C 0.3447(4) 1.2780(4) 0.0629(4)
H1 H 0.3760 1.3930 0.0027
C4 C 0.1869(4) 1.2536(4) 0.0474(4)
H2 H 0.1109 1.3539 -0.0243
C5 C 0.1356(4) 1.0852(4) 0.1344(3)
H3 H 0.0260 1.0735 0.1225
C6 C 0.2478(3) 0.9348(4) 0.2387(3)
C7 C 0.2126(3) 0.7470(4) 0.3571(4)
C8 C 0.0955(4) 0.7610(4) 0.5261(4)
H4 H 0.0805 0.6387 0.6053
H5 H -0.0201 0.8413 0.5006
H6 H 0.1507 0.8122 0.5810
C9 C 0.1379(4) 0.6635(4) 0.2672(4)
H7 H 0.2198 0.6527 0.1622
H8 H 0.0239 0.7422 0.2347
H9 H 0.1218 0.5416 0.3465
C10 C 0.6266(3) 1.1327(4) 0.2085(3)
loop_
_geom_bond_atom_site_label_1
_geom_bond_atom_site_label_2
_geom_bond_site_symmetry_1
_geom_bond_site_symmetry_2
I1 O1 1_555 1_555
O1 C7 1_555 1_555
O2 I1 1_555 1_555
O3 C10 1_555 1_555
C1 I1 1_555 1_555
C2 C1 1_555 1_555
C3 C2 1_555 1_555
H1 C3 1_555 1_555
C4 C3 1_555 1_555
H2 C4 1_555 1_555
C5 C4 1_555 1_555
H3 C5 1_555 1_555
C6 C1 1_555 1_555
C7 C6 1_555 1_555
C8 C7 1_555 1_555
H4 C8 1_555 1_555
H5 C8 1_555 1_555
H6 C8 1_555 1_555
C9 C7 1_555 1_555
H7 C9 1_555 1_555
H8 C9 1_555 1_555
H9 C9 1_555 1_555
C10 O2 1_555 1_555
C2 C10 1_555 1_555
C5 C6 1_555 1_555

#END
