
#######################################################################
#
#                 Cambridge Crystallographic Data Centre
#                                CCDC 
#
#######################################################################
#
# If this CIF has been generated from an entry in the Cambridge 
# Structural Database, then it will include bibliographic, chemical, 
# crystal, experimental, refinement or atomic coordinate data resulting 
# from the CCDC's data processing and validation procedures.
#
#######################################################################

data_PIYZIH
_chemical_formula_moiety         'C24 H24 O6'
_chemical_name_systematic        
6-Hydroxy-8-methoxy-5-methyl-2,10,24-trioxahexacyclo(11.8.2.1^3,7^.1^4,18^.0^1,18^.0^16,22^)pentacosa-3(25),4,6,13,15,22-hexaen-9-one
_symmetry_cell_setting           triclinic
_symmetry_space_group_name_H-M   'P -1'
_symmetry_Int_Tables_number      2
_space_group_name_Hall           '-P 1'
loop_
_symmetry_equiv_pos_site_id
_symmetry_equiv_pos_as_xyz
1 x,y,z
2 -x,-y,-z
_cell_length_a                   8.8015(18)
_cell_length_b                   9.3256(19)
_cell_length_c                   12.532(3)
_cell_angle_alpha                80.73(3)
_cell_angle_beta                 83.40(3)
_cell_angle_gamma                81.91(3)
_cell_volume                     1000.59
_exptl_crystal_colour            colorless
_exptl_crystal_description       parallelepiped
_chemical_melting_point          233-234deg.C
_cell_formula_units_Z            2
loop_
_atom_site_label
_atom_site_type_symbol
_atom_site_fract_x
_atom_site_fract_y
_atom_site_fract_z
O1 O 0.11965(13) 0.51498(13) 0.81797(10)
O2 O 0.26907(13) 0.51251(13) 0.62045(9)
O3 O 0.35394(19) 0.02005(15) 0.92553(11)
H1 H 0.3181 0.0362 0.9864
O4 O 0.56232(16) 0.01139(14) 0.62273(11)
O5 O 0.74676(19) 0.0388(2) 0.85063(12)
O6 O 0.75024(16) 0.18373(15) 0.69037(11)
C1 C 0.5870(2) 0.5928(2) 0.87171(16)
H2 H 0.5870 0.6145 0.9416
C2 C 0.7202(2) 0.5279(2) 0.81917(16)
H3 H 0.8093 0.5052 0.8550
C3 C 0.72363(19) 0.49578(19) 0.71377(15)
C4 C 0.59217(19) 0.53629(19) 0.65918(14)
H4 H 0.5935 0.5208 0.5876
C5 C 0.45865(19) 0.60016(18) 0.71214(14)
C6 C 0.4535(2) 0.62503(19) 0.81842(15)
C7 C 0.2916(2) 0.6790(2) 0.86079(16)
H5 H 0.2811 0.7828 0.8654
H6 H 0.2643 0.6262 0.9321
C8 C 0.18919(19) 0.64864(19) 0.77686(14)
C9 C 0.30105(19) 0.63257(18) 0.67187(13)
C10 C 0.0631(2) 0.7720(2) 0.74281(17)
H7 H -0.0159 0.7364 0.7097
H8 H 0.0156 0.8190 0.8042
C11 C 0.1525(4) 0.8759(4) 0.6607(3)
H9 H 0.2080 0.9336 0.6971
H10 H 0.0837 0.9417 0.6144
C13 C 0.2646(2) 0.7747(2) 0.59448(15)
H13 H 0.2174 0.7560 0.5326
H14 H 0.3579 0.8188 0.5683
C14 C 0.3905(2) 0.26697(19) 0.67162(14)
H15 H 0.4432 0.2670 0.6029
C15 C 0.28731(19) 0.38525(18) 0.69442(14)
C16 C 0.21065(18) 0.38782(18) 0.79741(14)
C17 C 0.2231(2) 0.26520(19) 0.87719(14)
C18 C 0.3288(2) 0.14476(19) 0.85261(14)
C19 C 0.4156(2) 0.14682(18) 0.75215(14)
C20 C 0.5497(2) 0.03034(19) 0.73290(15)
H16 H 0.5302 -0.0620 0.7787
C21 C 0.6938(2) 0.0822(2) 0.76540(15)
C22 C 0.8815(2) 0.2499(2) 0.71376(19)
H17 H 0.9770 0.1994 0.6840
H18 H 0.8843 0.2423 0.7916
C23 C 0.8636(2) 0.4090(2) 0.66289(17)
H19 H 0.9550 0.4518 0.6711
H20 H 0.8547 0.4151 0.5858
C24 C 0.1271(2) 0.2628(2) 0.98448(16)
H21 H 0.0678 0.3569 0.9879
H22 H 0.1933 0.2406 1.0423
H23 H 0.0587 0.1894 0.9919
C25 C 0.6854(3) -0.0958(2) 0.59497(19)
H24 H 0.6816 -0.1831 0.6470
H25 H 0.7818 -0.0589 0.5952
H26 H 0.6761 -0.1179 0.5239
C12? C 0.0932(7) 0.8110(9) 0.6189(6)
H11? H 0.0378 0.7537 0.5820
H12? H 0.0612 0.9141 0.5959
loop_
_geom_bond_atom_site_label_1
_geom_bond_atom_site_label_2
_geom_bond_site_symmetry_1
_geom_bond_site_symmetry_2
O1 C8 1_555 1_555
O2 C9 1_555 1_555
O3 H1 1_555 1_555
O4 C20 1_555 1_555
O5 C21 1_555 1_555
O6 C21 1_555 1_555
C1 H2 1_555 1_555
C2 C1 1_555 1_555
H3 C2 1_555 1_555
C3 C2 1_555 1_555
C4 C3 1_555 1_555
H4 C4 1_555 1_555
C5 C4 1_555 1_555
C6 C1 1_555 1_555
C7 C6 1_555 1_555
H5 C7 1_555 1_555
H6 C7 1_555 1_555
C8 C7 1_555 1_555
C9 C5 1_555 1_555
C10 C8 1_555 1_555
H7 C10 1_555 1_555
H8 C10 1_555 1_555
C11 C10 1_555 1_555
H9 C11 1_555 1_555
H10 C11 1_555 1_555
C13 C9 1_555 1_555
H13 C13 1_555 1_555
H14 C13 1_555 1_555
C14 H15 1_555 1_555
C15 O2 1_555 1_555
C16 O1 1_555 1_555
C17 C16 1_555 1_555
C18 O3 1_555 1_555
C19 C14 1_555 1_555
C20 C19 1_555 1_555
H16 C20 1_555 1_555
C21 C20 1_555 1_555
C22 O6 1_555 1_555
H17 C22 1_555 1_555
H18 C22 1_555 1_555
C23 C3 1_555 1_555
H19 C23 1_555 1_555
H20 C23 1_555 1_555
C24 C17 1_555 1_555
H21 C24 1_555 1_555
H22 C24 1_555 1_555
H23 C24 1_555 1_555
C25 O4 1_555 1_555
H24 C25 1_555 1_555
H25 C25 1_555 1_555
H26 C25 1_555 1_555
C5 C6 1_555 1_555
C8 C9 1_555 1_555
C11 C13 1_555 1_555
C14 C15 1_555 1_555
C15 C16 1_555 1_555
C17 C18 1_555 1_555
C18 C19 1_555 1_555
C22 C23 1_555 1_555

#END
