
#######################################################################
#
#                 Cambridge Crystallographic Data Centre
#                                CCDC 
#
#######################################################################
#
# If this CIF has been generated from an entry in the Cambridge 
# Structural Database, then it will include bibliographic, chemical, 
# crystal, experimental, refinement or atomic coordinate data resulting 
# from the CCDC's data processing and validation procedures.
#
#######################################################################

data_PIZBUX
_chemical_formula_moiety         'C15 H16 O7'
_chemical_name_systematic        
2-hydroxy-6,10-dimethyl-4,14,16-trioxatetracyclo[9.3.1.1^9,12^.0^2,6^]hexadec-11-ene-3,7,13-trione
_symmetry_cell_setting           orthorhombic
_symmetry_space_group_name_H-M   'P 21 21 21'
_symmetry_Int_Tables_number      19
_space_group_name_Hall           'P 2ac 2ab'
loop_
_symmetry_equiv_pos_site_id
_symmetry_equiv_pos_as_xyz
1 x,y,z
2 1/2-x,-y,1/2+z
3 1/2+x,1/2-y,-z
4 -x,1/2+y,1/2-z
_cell_length_a                   8.0865(4)
_cell_length_b                   11.6905(5)
_cell_length_c                   14.1610(12)
_cell_angle_alpha                90
_cell_angle_beta                 90
_cell_angle_gamma                90
_cell_volume                     1338.71
_cell_formula_units_Z            4
loop_
_atom_site_label
_atom_site_type_symbol
_atom_site_fract_x
_atom_site_fract_y
_atom_site_fract_z
O1 O 0.73432(19) 0.50855(13) 0.60314(11)
O2 O 0.2879(2) 0.63777(16) 0.51234(13)
O3 O 0.0689(2) 0.40840(18) 0.56367(14)
O4 O 0.4516(2) 0.27186(13) 0.61284(12)
O5 O 0.6883(2) 0.28742(17) 0.68977(14)
O6 O 0.2897(3) 0.39716(18) 0.77885(12)
O7 O 0.1172(3) 0.2627(2) 0.72630(19)
C1 C 0.6209(3) 0.5580(2) 0.45505(18)
H1 H 0.5368 0.6061 0.4249
C2 C 0.6762(3) 0.6088(2) 0.54929(18)
H2 H 0.7659 0.6641 0.5401
C3 C 0.5317(3) 0.66316(18) 0.6032(2)
H3 H 0.5268 0.7438 0.5873
H4 H 0.5538 0.6574 0.6703
C4 C 0.3621(3) 0.60938(18) 0.58296(17)
C5 C 0.2738(2) 0.52962(18) 0.65231(15)
C6 C 0.2168(3) 0.40885(19) 0.61634(16)
C7 C 0.3275(3) 0.32871(19) 0.55473(16)
H5 H 0.2537 0.2676 0.5330
C8 C 0.3999(3) 0.3805(2) 0.46549(16)
H6 H 0.4331 0.3206 0.4221
H7 H 0.3185 0.4284 0.4344
C9 C 0.5455(3) 0.44978(18) 0.49399(15)
C10 C 0.6239(3) 0.42702(18) 0.57389(16)
C11 C 0.5964(3) 0.32558(18) 0.63148(17)
C12 C 0.1976(3) 0.3459(2) 0.7114(2)
C13 C 0.1168(3) 0.5966(2) 0.6826(2)
H8 H 0.1488 0.6647 0.7158
H9 H 0.0504 0.5495 0.7232
H10 H 0.0541 0.6171 0.6276
C14 C 0.3694(3) 0.4988(2) 0.74199(16)
H11 H 0.4845 0.4835 0.7275
H12 H 0.3639 0.5607 0.7875
C15 C 0.7641(4) 0.5326(3) 0.3868(2)
H13 H 0.8081 0.6032 0.3630
H14 H 0.7242 0.4871 0.3351
H15 H 0.8494 0.4915 0.4196
H16 H -0.009(4) 0.443(3) 0.593(2)
loop_
_geom_bond_atom_site_label_1
_geom_bond_atom_site_label_2
_geom_bond_site_symmetry_1
_geom_bond_site_symmetry_2
O1 C2 1_555 1_555
O2 C4 1_555 1_555
O3 C6 1_555 1_555
O4 C7 1_555 1_555
O5 C11 1_555 1_555
O6 C12 1_555 1_555
O7 C12 1_555 1_555
C1 H1 1_555 1_555
C2 C1 1_555 1_555
H2 C2 1_555 1_555
C3 C2 1_555 1_555
H3 C3 1_555 1_555
H4 C3 1_555 1_555
C4 C3 1_555 1_555
C5 C4 1_555 1_555
C6 C5 1_555 1_555
C7 C6 1_555 1_555
H5 C7 1_555 1_555
C8 C7 1_555 1_555
H6 C8 1_555 1_555
H7 C8 1_555 1_555
C9 C1 1_555 1_555
C10 O1 1_555 1_555
C11 O4 1_555 1_555
C12 C6 1_555 1_555
C13 C5 1_555 1_555
H8 C13 1_555 1_555
H9 C13 1_555 1_555
H10 C13 1_555 1_555
C14 O6 1_555 1_555
H11 C14 1_555 1_555
H12 C14 1_555 1_555
C15 C1 1_555 1_555
H13 C15 1_555 1_555
H14 C15 1_555 1_555
H15 C15 1_555 1_555
H16 O3 1_555 1_555
C5 C14 1_555 1_555
C8 C9 1_555 1_555
C9 C10 1_555 1_555
C10 C11 1_555 1_555

#END
