
#######################################################################
#
#                 Cambridge Crystallographic Data Centre
#                                CCDC 
#
#######################################################################
#
# If this CIF has been generated from an entry in the Cambridge 
# Structural Database, then it will include bibliographic, chemical, 
# crystal, experimental, refinement or atomic coordinate data resulting 
# from the CCDC's data processing and validation procedures.
#
#######################################################################

data_PIZKAM
_chemical_formula_moiety         'C14 H10 N2 O2'
_chemical_name_systematic        
5-methyl-2-(pyridin-2-yl)-1H-isoindole-1,3(2H)-dione
_symmetry_cell_setting           monoclinic
_symmetry_space_group_name_H-M   'P 21/c'
_symmetry_Int_Tables_number      14
_space_group_name_Hall           '-P 2ybc'
loop_
_symmetry_equiv_pos_site_id
_symmetry_equiv_pos_as_xyz
1 x,y,z
2 -x,1/2+y,1/2-z
3 -x,-y,-z
4 x,1/2-y,1/2+z
_cell_length_a                   12.9282(5)
_cell_length_b                   13.3172(6)
_cell_length_c                   6.6540(3)
_cell_angle_alpha                90
_cell_angle_beta                 102.290(1)
_cell_angle_gamma                90
_cell_volume                     1119.35
_exptl_crystal_colour            colorless
_exptl_crystal_description       plate
_cell_formula_units_Z            4
loop_
_atom_site_label
_atom_site_type_symbol
_atom_site_fract_x
_atom_site_fract_y
_atom_site_fract_z
C1 C 0.85857(10) 0.32184(10) 0.2509(2)
C2 C 0.96602(10) 0.36642(10) 0.2822(2)
C3 C 1.06412(11) 0.32212(11) 0.3476(2)
H1 H 1.0703 0.2523 0.3772
C4 C 1.15407(10) 0.38310(11) 0.3691(2)
C5 C 1.14235(11) 0.48571(11) 0.3246(2)
H2 H 1.2038 0.5264 0.3395
C6 C 1.04336(11) 0.52984(11) 0.2593(2)
H3 H 1.0362 0.5996 0.2297
C7 C 0.95581(10) 0.46818(10) 0.2393(2)
C8 C 0.84158(11) 0.49290(10) 0.1766(2)
C9 C 1.26245(11) 0.33920(12) 0.4413(3)
H4 H 1.3001 0.3398 0.3280
H5 H 1.2562 0.2699 0.4870
H6 H 1.3019 0.3792 0.5559
C10 C 0.67539(10) 0.39133(10) 0.1434(2)
C11 C 0.62594(12) 0.34693(12) -0.0383(3)
H7 H 0.6652 0.3218 -0.1331
C12 C 0.51616(12) 0.34029(13) -0.0776(3)
H8 H 0.4784 0.3102 -0.2010
C13 C 0.46304(12) 0.37771(11) 0.0641(3)
H9 H 0.3880 0.3748 0.0401
C14 C 0.52098(13) 0.41944(13) 0.2412(3)
H10 H 0.4837 0.4445 0.3392
N1 N 0.78831(9) 0.40164(9) 0.18829(19)
N2 N 0.62703(10) 0.42713(10) 0.2847(2)
O1 O 0.83238(8) 0.23629(7) 0.27412(19)
O2 O 0.79899(8) 0.57216(7) 0.12404(16)
loop_
_geom_bond_atom_site_label_1
_geom_bond_atom_site_label_2
_geom_bond_site_symmetry_1
_geom_bond_site_symmetry_2
C1 C2 1_555 1_555
C2 C3 1_555 1_555
C3 H1 1_555 1_555
C4 C3 1_555 1_555
C5 C4 1_555 1_555
H2 C5 1_555 1_555
C6 C5 1_555 1_555
H3 C6 1_555 1_555
C7 C2 1_555 1_555
C8 C7 1_555 1_555
C9 C4 1_555 1_555
H4 C9 1_555 1_555
H5 C9 1_555 1_555
H6 C9 1_555 1_555
C10 C11 1_555 1_555
C11 H7 1_555 1_555
C12 C11 1_555 1_555
H8 C12 1_555 1_555
C13 C12 1_555 1_555
H9 C13 1_555 1_555
C14 C13 1_555 1_555
H10 C14 1_555 1_555
N1 C1 1_555 1_555
N2 C10 1_555 1_555
O1 C1 1_555 1_555
O2 C8 1_555 1_555
C6 C7 1_555 1_555
C8 N1 1_555 1_555
C10 N1 1_555 1_555
C14 N2 1_555 1_555

#END
