
#######################################################################
#
#                 Cambridge Crystallographic Data Centre
#                                CCDC 
#
#######################################################################
#
# If this CIF has been generated from an entry in the Cambridge 
# Structural Database, then it will include bibliographic, chemical, 
# crystal, experimental, refinement or atomic coordinate data resulting 
# from the CCDC's data processing and validation procedures.
#
#######################################################################

data_PIZNER
_chemical_compound_source        'Tripterygium Wilfordii Hook'
_chemical_formula_moiety         'C20 H26 O8,2(H2 O1)'
_chemical_name_systematic        'Isotriptetraolide dihydrate'
_symmetry_cell_setting           monoclinic
_symmetry_space_group_name_H-M   'P 21'
_symmetry_Int_Tables_number      4
_space_group_name_Hall           'P 2yb'
loop_
_symmetry_equiv_pos_site_id
_symmetry_equiv_pos_as_xyz
1 x,y,z
2 -x,1/2+y,-z
_cell_length_a                   10.21(1)
_cell_length_b                   11.26(1)
_cell_length_c                   18.209(9)
_cell_angle_alpha                90
_cell_angle_beta                 98.84(5)
_cell_angle_gamma                90
_cell_volume                     2068.52
_chemical_melting_point          '250-252 deg.C'
_cell_formula_units_Z            4
loop_
_atom_site_label
_atom_site_type_symbol
_atom_site_fract_x
_atom_site_fract_y
_atom_site_fract_z
O1 O 0.8219(5) 0.4219 0.9250(3)
O2 O 0.8469(8) 0.015(1) 0.8699(5)
O3 O 0.975(1) 0.266(1) 0.1014(5)
O4 O 0.9378(6) 0.0365(7) 0.0275(4)
O5 O -0.4700(5) 0.4913(6) 0.6839(3)
O6 O -0.3601(5) 0.5070(6) 0.7998(3)
O7 O -0.1679(4) 0.2565(6) 0.8069(2)
O8 O -0.2312(4) 0.0365(5) 0.5012(2)
O9 O 0.0454(3) 0.0844(5) 0.6086(2)
O10 O 0.2589(3) 0.1103(6) 0.5300(2)
O11 O 0.0073(4) 0.3032(5) 0.4335(2)
O12 O 0.0260(4) -0.0182(5) 0.4587(2)
C1 C -0.0690(5) 0.2837(7) 0.6931(3)
C2 C -0.1487(6) 0.3384(7) 0.7491(3)
C3 C -0.2769(6) 0.3841(7) 0.7084(3)
C4 C -0.3237(5) 0.3636(6) 0.6374(3)
C5 C -0.2529(5) 0.2927(7) 0.5850(3)
C6 C -0.3449(5) 0.2291(7) 0.5238(3)
C7 C -0.2661(5) 0.1555(7) 0.4765(3)
C8 C -0.1264(5) 0.1247(6) 0.5014(3)
C9 C -0.0599(5) 0.1643(6) 0.5762(3)
C10 C -0.1496(5) 0.2104(6) 0.6307(3)
C11 C 0.0805(5) 0.1991(7) 0.5823(3)
C12 C 0.1594(5) 0.1978(7) 0.5176(3)
C13 C 0.0692(5) 0.1885(6) 0.4414(3)
C14 C -0.0381(5) 0.0944(7) 0.4443(3)
C15 C 0.1546(6) 0.1635(7) 0.3786(3)
C16 C 0.2674(8) 0.2526(8) 0.3801(4)
C17 C 0.0709(7) 0.1589(8) 0.3017(3)
C18 C -0.3672(7) 0.4655(7) 0.7389(4)
C19 C -0.4502(6) 0.4297(7) 0.6172(4)
C20 C -0.2165(5) 0.1049(7) 0.6645(3)
O13 O 0.1549(4) -0.1163(6) 0.7018(2)
O14 O 0.2945(4) -0.1038(6) 0.6185(2)
O15 O 0.4240(4) 0.1791(6) 0.6619(2)
O16 O 0.2212(4) 0.3509(3) 0.9336(2)
O17 O 0.5333(4) 0.3510(6) 0.9130(2)
O18 O 0.7126(4) 0.3313(7) 1.0454(2)
O19 O 0.4479(5) 0.1231(6) 1.0678(2)
O20 O 0.4394(5) 0.4451(6) 1.0421(2)
C21 C 0.4892(5) 0.1540(6) 0.7961(3)
C22 C 0.4415(5) 0.0931(7) 0.7214(3)
C23 C 0.3185(6) 0.0253(6) 0.7269(3)
C24 C 0.2478(5) 0.0304(6) 0.7821(3)
C25 C 0.2842(5) 0.1062(7) 0.8505(3)
C26 C 0.1673(5) 0.1438(7) 0.8868(3)
C27 C 0.2069(6) 0.2260(8) 0.9517(3)
C28 C 0.3392(6) 0.2823(7) 0.9640(3)
C29 C 0.4336(5) 0.2579(6) 0.9117(3)
C30 C 0.3780(5) 0.2081(6) 0.8344(3)
C31 C 0.5719(6) 0.2361(7) 0.9454(3)
C32 C 0.6216(6) 0.2352(7) 1.0290(3)
C33 C 0.5082(6) 0.2396(7) 1.0750(3)
C34 C 0.3984(6) 0.3230(7) 1.0419(3)
C35 C 0.5606(6) 0.2675(7) 1.1576(3)
C36 C 0.4532(8) 0.2878(8) 1.2051(3)
C37 C 0.6578(8) 0.1737(8) 1.1921(3)
C38 C 0.2617(6) -0.0678(7) 0.6743(3)
C39 C 0.1378(6) -0.0573(7) 0.7702(3)
C40 C 0.3047(6) 0.3066(7) 0.7851(3)
loop_
_geom_bond_atom_site_label_1
_geom_bond_atom_site_label_2
_geom_bond_site_symmetry_1
_geom_bond_site_symmetry_2
O5 C18 1_555 1_555
O6 C18 1_555 1_555
O7 C2 1_555 1_555
O8 C7 1_555 1_555
O9 C9 1_555 1_555
O10 C12 1_555 1_555
O11 C13 1_555 1_555
O12 C14 1_555 1_555
C1 C2 1_555 1_555
C2 C3 1_555 1_555
C3 C4 1_555 1_555
C4 C5 1_555 1_555
C5 C6 1_555 1_555
C6 C7 1_555 1_555
C7 C8 1_555 1_555
C8 O8 1_555 1_555
C9 C8 1_555 1_555
C10 C1 1_555 1_555
C11 O9 1_555 1_555
C12 C11 1_555 1_555
C13 C12 1_555 1_555
C14 C8 1_555 1_555
C15 C13 1_555 1_555
C16 C15 1_555 1_555
C17 C15 1_555 1_555
C18 C3 1_555 1_555
C19 O5 1_555 1_555
C20 C10 1_555 1_555
O13 C38 1_555 1_555
O14 C38 1_555 1_555
O15 C22 1_555 1_555
O16 C27 1_555 1_555
O17 C29 1_555 1_555
O18 C32 1_555 1_555
O19 C33 1_555 1_555
O20 C34 1_555 1_555
C21 C22 1_555 1_555
C22 C23 1_555 1_555
C23 C24 1_555 1_555
C24 C25 1_555 1_555
C25 C26 1_555 1_555
C26 C27 1_555 1_555
C27 C28 1_555 1_555
C28 O16 1_555 1_555
C29 C28 1_555 1_555
C30 C21 1_555 1_555
C31 O17 1_555 1_555
C32 C31 1_555 1_555
C33 C32 1_555 1_555
C34 C28 1_555 1_555
C35 C33 1_555 1_555
C36 C35 1_555 1_555
C37 C35 1_555 1_555
C38 C23 1_555 1_555
C39 O13 1_555 1_555
C40 C30 1_555 1_555
C4 C19 1_555 1_555
C5 C10 1_555 1_555
C9 C10 1_555 1_555
C9 C11 1_555 1_555
C13 C14 1_555 1_555
C24 C39 1_555 1_555
C25 C30 1_555 1_555
C29 C30 1_555 1_555
C29 C31 1_555 1_555
C33 C34 1_555 1_555

#END
