
#######################################################################
#
#                 Cambridge Crystallographic Data Centre
#                                CCDC 
#
#######################################################################
#
# If this CIF has been generated from an entry in the Cambridge 
# Structural Database, then it will include bibliographic, chemical, 
# crystal, experimental, refinement or atomic coordinate data resulting 
# from the CCDC's data processing and validation procedures.
#
#######################################################################

data_PIZQEX
_chemical_formula_moiety         'C18 H14 Br2 N2 O2'
_chemical_name_systematic        
3,3-dibromo-1,2,2a,3-tetrahydro-13aH-cyclopropa[7,8]indolizino[8,1-cd]carbazole-4,12(6H,11H)-dione
_symmetry_cell_setting           monoclinic
_symmetry_space_group_name_H-M   'P 21/n'
_symmetry_Int_Tables_number      14
_space_group_name_Hall           '-P 2yn'
loop_
_symmetry_equiv_pos_site_id
_symmetry_equiv_pos_as_xyz
1 x,y,z
2 1/2-x,1/2+y,1/2-z
3 -x,-y,-z
4 1/2+x,1/2-y,1/2+z
_cell_length_a                   9.405(9)
_cell_length_b                   14.249(13)
_cell_length_c                   11.871(11)
_cell_angle_alpha                90
_cell_angle_beta                 91.640(9)
_cell_angle_gamma                90
_cell_volume                     1590.2
_exptl_crystal_colour            yellow
_exptl_crystal_description       block
_cell_formula_units_Z            4
loop_
_atom_site_label
_atom_site_type_symbol
_atom_site_fract_x
_atom_site_fract_y
_atom_site_fract_z
Br1 Br 0.12313(4) 0.59450(3) 0.45250(4)
Br2 Br 0.29853(5) 0.44876(4) 0.59605(4)
C1 C -0.1651(4) 0.3469(2) 0.2125(3)
C2 C -0.2354(4) 0.4114(3) 0.1457(3)
H1 H -0.1862 0.4590 0.1100
C3 C -0.3813(5) 0.4037(3) 0.1330(3)
H2 H -0.4310 0.4468 0.0881
C4 C -0.4540(5) 0.3337(4) 0.1855(4)
H3 H -0.5522 0.3296 0.1746
C5 C -0.3851(4) 0.2689(3) 0.2541(4)
H4 H -0.4346 0.2219 0.2906
C6 C -0.2400(4) 0.2774(3) 0.2660(3)
C7 C -0.0132(4) 0.2619(2) 0.3332(3)
C8 C -0.0084(4) 0.3342(2) 0.2409(3)
C9 C 0.1007(4) 0.2445(2) 0.4009(3)
H5 H 0.1006 0.1931 0.4492
C10 C 0.2216(4) 0.3046(3) 0.3988(3)
C11 C 0.1957(4) 0.4055(2) 0.3612(3)
C12 C 0.0727(4) 0.4236(2) 0.2769(3)
H6 H 0.0071 0.4704 0.3066
C13 C 0.1483(4) 0.3869(2) 0.0951(3)
C14 C 0.0735(4) 0.3006(2) 0.1363(3)
H7 H 0.1415 0.2519 0.1570
H8 H 0.0083 0.2762 0.0786
C15 C 0.3272(4) 0.4673(3) 0.3501(3)
H9 H 0.4167 0.4353 0.3698
C16 C 0.3390(4) 0.5363(3) 0.2553(3)
H10 H 0.4215 0.5199 0.2122
H11 H 0.3561 0.5980 0.2874
C17 C 0.2105(4) 0.5425(3) 0.1745(3)
H12 H 0.1490 0.5930 0.1981
H13 H 0.2423 0.5570 0.0995
C18 C 0.2336(4) 0.4813(3) 0.4467(3)
N1 N 0.1310(3) 0.4558(2) 0.1712(2)
N2 N -0.1450(3) 0.2235(2) 0.3322(2)
H14 H -0.1673 0.1730 0.3674
O1 O 0.3408(3) 0.2810(2) 0.4317(2)
O2 O 0.2167(3) 0.39364(18) 0.0093(2)
loop_
_geom_bond_atom_site_label_1
_geom_bond_atom_site_label_2
_geom_bond_site_symmetry_1
_geom_bond_site_symmetry_2
Br1 C18 1_555 1_555
Br2 C18 1_555 1_555
C1 C2 1_555 1_555
C2 H1 1_555 1_555
C3 C2 1_555 1_555
H2 C3 1_555 1_555
C4 C3 1_555 1_555
H3 C4 1_555 1_555
C5 C4 1_555 1_555
H4 C5 1_555 1_555
C6 C1 1_555 1_555
C7 C8 1_555 1_555
C8 C1 1_555 1_555
C9 C7 1_555 1_555
H5 C9 1_555 1_555
C10 C9 1_555 1_555
C11 C10 1_555 1_555
C12 C8 1_555 1_555
H6 C12 1_555 1_555
C13 C14 1_555 1_555
C14 C8 1_555 1_555
H7 C14 1_555 1_555
H8 C14 1_555 1_555
C15 C11 1_555 1_555
H9 C15 1_555 1_555
C16 C15 1_555 1_555
H10 C16 1_555 1_555
H11 C16 1_555 1_555
C17 C16 1_555 1_555
H12 C17 1_555 1_555
H13 C17 1_555 1_555
C18 C11 1_555 1_555
N1 C12 1_555 1_555
N2 C6 1_555 1_555
H14 N2 1_555 1_555
O1 C10 1_555 1_555
O2 C13 1_555 1_555
C5 C6 1_555 1_555
C7 N2 1_555 1_555
C11 C12 1_555 1_555
C13 N1 1_555 1_555
C15 C18 1_555 1_555
C17 N1 1_555 1_555

#END
