
#######################################################################
#
#                 Cambridge Crystallographic Data Centre
#                                CCDC 
#
#######################################################################
#
# If this CIF has been generated from an entry in the Cambridge 
# Structural Database, then it will include bibliographic, chemical, 
# crystal, experimental, refinement or atomic coordinate data resulting 
# from the CCDC's data processing and validation procedures.
#
#######################################################################

data_PIZRIA
_chemical_formula_moiety         'C17 H30 P1 1+,C6 H16 B11 Cl6 1-'
_chemical_name_systematic        
'2,4,6-Tri-t-butyl-1-phosphabenzenium 7,8,9,10,11,12-hexachloro-2,3,4,5,6-pentamethyl-1-carba-closo-dodecaborate'
_symmetry_cell_setting           monoclinic
_symmetry_space_group_name_H-M   'P 21/n'
_symmetry_Int_Tables_number      14
_space_group_name_Hall           '-P 2yn'
loop_
_symmetry_equiv_pos_site_id
_symmetry_equiv_pos_as_xyz
1 x,y,z
2 1/2-x,1/2+y,1/2-z
3 -x,-y,-z
4 1/2+x,1/2-y,1/2+z
_cell_length_a                   14.6953(4)
_cell_length_b                   10.6669(3)
_cell_length_c                   23.6576(7)
_cell_angle_alpha                90
_cell_angle_beta                 100.7892(4)
_cell_angle_gamma                90
_cell_volume                     3642.85
_exptl_crystal_colour            yellow
_exptl_crystal_description       'prism fragment'
_cell_formula_units_Z            4
_exptl_crystal_recrystallization_method dideuterodichloromethane/hexanes
loop_
_atom_site_label
_atom_site_type_symbol
_atom_site_fract_x
_atom_site_fract_y
_atom_site_fract_z
C1 C 0.85407(7) 0.49700(10) 0.14420(5)
H1 H 0.7987(6) 0.5408(9) 0.1262(4)
C2 C 0.78111(9) 0.48645(14) 0.24913(6)
H2 H 0.8019 0.5515 0.2779
H3 H 0.7660 0.4100 0.2684
H4 H 0.7260 0.5158 0.2225
C3 C 0.91105(9) 0.72302(11) 0.20811(6)
H5 H 0.8518 0.7502 0.1852
H6 H 0.9609 0.7762 0.1993
H7 H 0.9087 0.7300 0.2491
C4 C 0.96070(10) 0.64803(13) 0.07803(5)
H8 H 0.9020 0.6518 0.0505
H9 H 1.0113 0.6295 0.0576
H10 H 0.9722 0.7288 0.0978
C5 C 0.85527(9) 0.36840(13) 0.03694(5)
H11 H 0.7877 0.3732 0.0321
H12 H 0.8732 0.2848 0.0258
H13 H 0.8772 0.4316 0.0126
C6 C 0.74487(8) 0.27019(12) 0.14274(6)
H14 H 0.7138 0.2715 0.1760
H15 H 0.7556 0.1831 0.1325
H16 H 0.7057 0.3120 0.1101
B1 B 0.86066(8) 0.45755(12) 0.21472(5)
B2 B 0.93015(8) 0.58096(12) 0.19307(5)
B3 B 0.95516(9) 0.54132(12) 0.12373(5)
B4 B 0.90020(9) 0.39371(12) 0.10231(5)
B5 B 0.84194(8) 0.34192(12) 0.15858(5)
B6 B 0.92754(8) 0.31810(11) 0.22159(5)
B7 B 0.98115(8) 0.46421(11) 0.24242(5)
B8 B 1.03927(8) 0.51531(11) 0.18710(5)
B9 B 1.02061(8) 0.39987(12) 0.13138(5)
B10 B 0.95080(8) 0.27778(11) 0.15256(5)
B11 B 1.03823(8) 0.35200(11) 0.20494(5)
Cl1 Cl 0.91495(2) 0.20207(3) 0.274358(13)
Cl2 Cl 1.023295(19) 0.50202(3) 0.316920(11)
Cl3 Cl 1.144240(19) 0.60647(3) 0.202154(12)
Cl4 Cl 1.10536(2) 0.36950(3) 0.087238(12)
Cl5 Cl 0.95806(2) 0.11742(3) 0.130990(14)
Cl6 Cl 1.140347(17) 0.27043(3) 0.239707(11)
P1 P 0.204631(19) 0.68554(2) 0.372850(11)
H17 H 0.2258(14) 0.6899(18) 0.3244(8)
C7 C 0.23501(7) 0.56627(10) 0.41998(4)
C8 C 0.20288(8) 0.57662(10) 0.47186(5)
H18 H 0.2191 0.5106 0.4988
C9 C 0.14946(8) 0.67358(11) 0.48824(5)
C10 C 0.12032(8) 0.77550(10) 0.45182(5)
H19 H 0.0841 0.8372 0.4663
C11 C 0.13833(7) 0.79673(10) 0.39681(5)
C12 C 0.29416(7) 0.45553(10) 0.40780(5)
C13 C 0.31694(8) 0.46349(11) 0.34723(5)
H20 H 0.2593 0.4638 0.3186
H21 H 0.3546 0.3910 0.3406
H22 H 0.3515 0.5408 0.3437
C14 C 0.24030(9) 0.33349(11) 0.41219(5)
H23 H 0.2248 0.3271 0.4506
H24 H 0.2785 0.2617 0.4056
H25 H 0.1832 0.3339 0.3832
C15 C 0.38448(8) 0.45741(12) 0.45304(5)
H26 H 0.4168 0.5370 0.4505
H27 H 0.4243 0.3879 0.4458
H28 H 0.3698 0.4485 0.4916
C16 C 0.12312(9) 0.67425(12) 0.54811(5)
C17 C 0.15503(11) 0.55622(16) 0.58327(6)
H29 H 0.1274 0.4821 0.5624
H30 H 0.1354 0.5611 0.6206
H31 H 0.2227 0.5501 0.5893
C18 C 0.01736(10) 0.68440(15) 0.54290(6)
H32 H -0.0048 0.7611 0.5219
H33 H 0.0019 0.6872 0.5814
H34 H -0.0124 0.6114 0.5220
C19 C 0.17072(12) 0.78711(16) 0.58113(6)
H35 H 0.2376 0.7822 0.5823
H36 H 0.1585 0.7867 0.6204
H37 H 0.1465 0.8646 0.5617
C20 C 0.09939(8) 0.91067(10) 0.36118(5)
C21 C -0.00669(9) 0.90690(13) 0.35484(6)
H38 H -0.0299 0.8259 0.3386
H39 H -0.0341 0.9746 0.3292
H40 H -0.0236 0.9178 0.3927
C22 C 0.13794(11) 1.03058(12) 0.39253(7)
H41 H 0.1206 1.0334 0.4305
H42 H 0.1123 1.1039 0.3701
H43 H 0.2056 1.0312 0.3970
C23 C 0.12513(9) 0.90916(12) 0.30138(6)
H44 H 0.1926 0.9135 0.3053
H45 H 0.0969 0.9814 0.2792
H46 H 0.1024 0.8316 0.2814
loop_
_geom_bond_atom_site_label_1
_geom_bond_atom_site_label_2
_geom_bond_site_symmetry_1
_geom_bond_site_symmetry_2
C1 H1 1_555 1_555
C2 H2 1_555 1_555
H3 C2 1_555 1_555
H4 C2 1_555 1_555
C3 H5 1_555 1_555
H6 C3 1_555 1_555
H7 C3 1_555 1_555
C4 H8 1_555 1_555
H9 C4 1_555 1_555
H10 C4 1_555 1_555
C5 H11 1_555 1_555
H12 C5 1_555 1_555
H13 C5 1_555 1_555
C6 H14 1_555 1_555
H15 C6 1_555 1_555
H16 C6 1_555 1_555
B1 C1 1_555 1_555
B2 C1 1_555 1_555
B3 C1 1_555 1_555
B4 C1 1_555 1_555
B5 C1 1_555 1_555
B6 B1 1_555 1_555
B7 B1 1_555 1_555
B8 B2 1_555 1_555
B9 B3 1_555 1_555
B10 B4 1_555 1_555
B11 B6 1_555 1_555
Cl1 B6 1_555 1_555
Cl2 B7 1_555 1_555
Cl3 B8 1_555 1_555
Cl4 B9 1_555 1_555
Cl5 B10 1_555 1_555
Cl6 B11 1_555 1_555
P1 H17 1_555 1_555
C7 P1 1_555 1_555
C8 C7 1_555 1_555
H18 C8 1_555 1_555
C9 C8 1_555 1_555
C10 C9 1_555 1_555
H19 C10 1_555 1_555
C11 P1 1_555 1_555
C12 C7 1_555 1_555
C13 C12 1_555 1_555
H20 C13 1_555 1_555
H21 C13 1_555 1_555
H22 C13 1_555 1_555
C14 C12 1_555 1_555
H23 C14 1_555 1_555
H24 C14 1_555 1_555
H25 C14 1_555 1_555
C15 C12 1_555 1_555
H26 C15 1_555 1_555
H27 C15 1_555 1_555
H28 C15 1_555 1_555
C16 C9 1_555 1_555
C17 C16 1_555 1_555
H29 C17 1_555 1_555
H30 C17 1_555 1_555
H31 C17 1_555 1_555
C18 C16 1_555 1_555
H32 C18 1_555 1_555
H33 C18 1_555 1_555
H34 C18 1_555 1_555
C19 C16 1_555 1_555
H35 C19 1_555 1_555
H36 C19 1_555 1_555
H37 C19 1_555 1_555
C20 C11 1_555 1_555
C21 C20 1_555 1_555
H38 C21 1_555 1_555
H39 C21 1_555 1_555
H40 C21 1_555 1_555
C22 C20 1_555 1_555
H41 C22 1_555 1_555
H42 C22 1_555 1_555
H43 C22 1_555 1_555
C23 C20 1_555 1_555
H44 C23 1_555 1_555
H45 C23 1_555 1_555
H46 C23 1_555 1_555
C2 B1 1_555 1_555
C3 B2 1_555 1_555
C4 B3 1_555 1_555
C5 B4 1_555 1_555
C6 B5 1_555 1_555
B1 B2 1_555 1_555
B1 B5 1_555 1_555
B2 B3 1_555 1_555
B2 B7 1_555 1_555
B3 B4 1_555 1_555
B3 B8 1_555 1_555
B4 B5 1_555 1_555
B4 B9 1_555 1_555
B5 B6 1_555 1_555
B5 B10 1_555 1_555
B6 B7 1_555 1_555
B6 B10 1_555 1_555
B7 B8 1_555 1_555
B7 B11 1_555 1_555
B8 B9 1_555 1_555
B8 B11 1_555 1_555
B9 B10 1_555 1_555
B9 B11 1_555 1_555
B10 B11 1_555 1_555
C10 C11 1_555 1_555

#END
