
#######################################################################
#
#                 Cambridge Crystallographic Data Centre
#                                CCDC 
#
#######################################################################
#
# If this CIF has been generated from an entry in the Cambridge 
# Structural Database, then it will include bibliographic, chemical, 
# crystal, experimental, refinement or atomic coordinate data resulting 
# from the CCDC's data processing and validation procedures.
#
#######################################################################

data_PIZREW
_chemical_formula_moiety         'C15 H28 P3 1+,C6 H16 B11 Br6 1-'
_chemical_name_systematic        
'2,4,6-Tri-t-butyl-1,3,5-triphosphabenzenium 7,8,9,10,11,12-hexabromo-2,3,4,5,6-pentamethyl-1-carba-closo-dodecaborate'
_symmetry_cell_setting           monoclinic
_symmetry_space_group_name_H-M   'P 21/n'
_symmetry_Int_Tables_number      14
_space_group_name_Hall           '-P 2yn'
loop_
_symmetry_equiv_pos_site_id
_symmetry_equiv_pos_as_xyz
1 x,y,z
2 1/2-x,1/2+y,1/2-z
3 -x,-y,-z
4 1/2+x,1/2-y,1/2+z
_cell_length_a                   15.0852(2)
_cell_length_b                   10.5889(2)
_cell_length_c                   24.8179(4)
_cell_angle_alpha                90
_cell_angle_beta                 103.1802(5)
_cell_angle_gamma                90
_cell_volume                     3859.88
_exptl_crystal_colour            colorless
_exptl_crystal_description       'needle fragment'
_cell_formula_units_Z            4
_exptl_crystal_recrystallization_method dichloromethane/n-hexane
loop_
_atom_site_label
_atom_site_type_symbol
_atom_site_fract_x
_atom_site_fract_y
_atom_site_fract_z
C1 C 0.14667(16) 0.4985(2) 0.36107(11)
H1 H 0.2004(7) 0.4541(11) 0.3789(5)
C2 C 0.1534(2) 0.6302(3) 0.46343(12)
H2 H 0.1793 0.7155 0.4674
H3 H 0.2020 0.5681 0.4756
H4 H 0.1084 0.6224 0.4862
C3 C 0.0450(2) 0.3522(3) 0.42408(11)
H5 H 0.0212 0.2741 0.4050
H6 H 0.0053 0.3792 0.4481
H7 H 0.1065 0.3372 0.4465
C4 C 0.0831(2) 0.2712(3) 0.30001(12)
H8 H 0.0261 0.2250 0.2978
H9 H 0.1310 0.2344 0.3292
H10 H 0.1009 0.2652 0.2645
C5 C 0.21321(19) 0.5017(3) 0.26056(14)
H11 H 0.2350 0.5790 0.2461
H12 H 0.1870 0.4452 0.2297
H13 H 0.2642 0.4593 0.2856
C6 C 0.25752(18) 0.7215(3) 0.36207(15)
H14 H 0.2677 0.7673 0.3297
H15 H 0.3053 0.6579 0.3734
H16 H 0.2591 0.7811 0.3925
B1 B 0.10562(19) 0.6056(3) 0.40069(11)
B2 B 0.04828(19) 0.4584(3) 0.38014(11)
B3 B 0.06911(19) 0.4150(3) 0.31379(11)
B4 B 0.13803(17) 0.5363(3) 0.29323(12)
B5 B 0.16078(17) 0.6539(3) 0.34681(12)
B6 B 0.05606(17) 0.7223(2) 0.35156(11)
B7 B -0.01341(17) 0.6027(2) 0.37171(10)
B8 B -0.03639(16) 0.4861(2) 0.31865(10)
B9 B 0.01881(16) 0.5335(2) 0.26610(10)
B10 B 0.07504(16) 0.6790(2) 0.28605(11)
B11 B -0.03319(15) 0.6496(2) 0.30099(10)
Br1 Br 0.053709(17) 0.89900(2) 0.373577(12)
Br2 Br -0.100347(18) 0.64082(3) 0.417214(10)
Br3 Br -0.149551(16) 0.38994(2) 0.302166(10)
Br4 Br -0.029327(16) 0.49111(2) 0.188036(9)
Br5 Br 0.08838(2) 0.80279(3) 0.230630(13)
Br6 Br -0.141853(14) 0.74055(2) 0.263447(9)
P1 P 0.79628(4) 0.31678(5) 0.11703(2)
H17 H 0.775(2) 0.308(3) 0.1607(14)
C7 C 0.86342(15) 0.2014(2) 0.10171(10)
P2 P 0.89731(5) 0.19790(7) 0.03919(3)
C8 C 0.85553(16) 0.3294(2) -0.00048(9)
P3 P 0.79085(4) 0.45732(6) 0.01085(2)
C9 C 0.76254(15) 0.4408(2) 0.07472(8)
C10 C 0.90016(16) 0.0952(2) 0.14311(10)
C11 C 0.86914(18) 0.1084(2) 0.19741(11)
H18 H 0.8026 0.1022 0.1900
H19 H 0.8886 0.1905 0.2142
H20 H 0.8963 0.0408 0.2228
C12 C 0.8673(2) -0.0330(2) 0.11712(13)
H21 H 0.8007 -0.0360 0.1089
H22 H 0.8922 -0.1008 0.1431
H23 H 0.8882 -0.0440 0.0828
C13 C 1.00510(18) 0.1021(3) 0.15582(13)
H24 H 1.0250 0.1873 0.1686
H25 H 1.0262 0.0829 0.1222
H26 H 1.0308 0.0407 0.1847
C14 C 0.88192(17) 0.3302(3) -0.05775(10)
C15 C 0.9853(2) 0.3173(4) -0.05034(15)
H27 H 1.0007 0.3209 -0.0866
H28 H 1.0054 0.2363 -0.0326
H29 H 1.0159 0.3864 -0.0271
C16 C 0.8325(3) 0.2222(4) -0.09115(16)
H30 H 0.8406 0.2274 -0.1292
H31 H 0.7675 0.2271 -0.0915
H32 H 0.8573 0.1420 -0.0746
C17 C 0.8544(3) 0.4538(4) -0.09045(14)
H33 H 0.8714 0.4486 -0.1262
H34 H 0.8859 0.5253 -0.0693
H35 H 0.7884 0.4659 -0.0966
C21 C 0.70356(15) 0.5467(2) 0.09098(9)
C22 C 0.61258(17) 0.5489(2) 0.04780(10)
H45 H 0.5818 0.4674 0.0479
H46 H 0.6240 0.5644 0.0110
H47 H 0.5740 0.6163 0.0569
C23 C 0.75385(17) 0.6733(2) 0.09091(11)
H48 H 0.8125 0.6697 0.1178
H49 H 0.7169 0.7416 0.1009
H50 H 0.7642 0.6891 0.0539
C24 C 0.68509(16) 0.5277(2) 0.14854(9)
H51 H 0.6525 0.4479 0.1494
H52 H 0.6479 0.5977 0.1569
H53 H 0.7430 0.5253 0.1762
C18? C 0.9240(12) 0.2051(12) -0.0712(8)
H36? H 0.9325 0.2079 -0.1092
H37? H 0.8832 0.1351 -0.0676
H38? H 0.9830 0.1926 -0.0454
C19? C 0.7958(9) 0.3515(18) -0.1034(6)
H39? H 0.8118 0.3527 -0.1395
H40? H 0.7681 0.4324 -0.0973
H41? H 0.7524 0.2831 -0.1027
C20? C 0.9482(11) 0.4364(14) -0.0590(9)
H42? H 0.9477 0.4578 -0.0974
H43? H 1.0096 0.4098 -0.0399
H44? H 0.9304 0.5106 -0.0403
loop_
_geom_bond_atom_site_label_1
_geom_bond_atom_site_label_2
_geom_bond_site_symmetry_1
_geom_bond_site_symmetry_2
C1 H1 1_555 1_555
C2 H2 1_555 1_555
H3 C2 1_555 1_555
H4 C2 1_555 1_555
C3 H5 1_555 1_555
H6 C3 1_555 1_555
H7 C3 1_555 1_555
C4 H8 1_555 1_555
H9 C4 1_555 1_555
H10 C4 1_555 1_555
C5 H11 1_555 1_555
H12 C5 1_555 1_555
H13 C5 1_555 1_555
C6 H14 1_555 1_555
H15 C6 1_555 1_555
H16 C6 1_555 1_555
B1 C1 1_555 1_555
B2 C1 1_555 1_555
B3 C1 1_555 1_555
B4 C1 1_555 1_555
B5 C1 1_555 1_555
B6 B1 1_555 1_555
B7 B1 1_555 1_555
B8 B2 1_555 1_555
B9 B3 1_555 1_555
B10 B4 1_555 1_555
B11 B6 1_555 1_555
Br1 B6 1_555 1_555
Br2 B7 1_555 1_555
Br3 B8 1_555 1_555
Br4 B9 1_555 1_555
Br5 B10 1_555 1_555
Br6 B11 1_555 1_555
P1 H17 1_555 1_555
C7 P1 1_555 1_555
P2 C7 1_555 1_555
C8 P2 1_555 1_555
P3 C8 1_555 1_555
C9 P1 1_555 1_555
C10 C7 1_555 1_555
C11 C10 1_555 1_555
H18 C11 1_555 1_555
H19 C11 1_555 1_555
H20 C11 1_555 1_555
C12 C10 1_555 1_555
H21 C12 1_555 1_555
H22 C12 1_555 1_555
H23 C12 1_555 1_555
C13 C10 1_555 1_555
H24 C13 1_555 1_555
H25 C13 1_555 1_555
H26 C13 1_555 1_555
C14 C8 1_555 1_555
C15 C14 1_555 1_555
H27 C15 1_555 1_555
H28 C15 1_555 1_555
H29 C15 1_555 1_555
C16 C14 1_555 1_555
H30 C16 1_555 1_555
H31 C16 1_555 1_555
H32 C16 1_555 1_555
C17 C14 1_555 1_555
H33 C17 1_555 1_555
H34 C17 1_555 1_555
H35 C17 1_555 1_555
C21 C9 1_555 1_555
C22 C21 1_555 1_555
H45 C22 1_555 1_555
H46 C22 1_555 1_555
H47 C22 1_555 1_555
C23 C21 1_555 1_555
H48 C23 1_555 1_555
H49 C23 1_555 1_555
H50 C23 1_555 1_555
C24 C21 1_555 1_555
H51 C24 1_555 1_555
H52 C24 1_555 1_555
H53 C24 1_555 1_555
C2 B1 1_555 1_555
C3 B2 1_555 1_555
C4 B3 1_555 1_555
C5 B4 1_555 1_555
C6 B5 1_555 1_555
B1 B2 1_555 1_555
B1 B5 1_555 1_555
B2 B3 1_555 1_555
B2 B7 1_555 1_555
B3 B4 1_555 1_555
B3 B8 1_555 1_555
B4 B5 1_555 1_555
B4 B9 1_555 1_555
B5 B6 1_555 1_555
B5 B10 1_555 1_555
B6 B7 1_555 1_555
B6 B10 1_555 1_555
B7 B8 1_555 1_555
B7 B11 1_555 1_555
B8 B9 1_555 1_555
B8 B11 1_555 1_555
B9 B10 1_555 1_555
B9 B11 1_555 1_555
B10 B11 1_555 1_555
P3 C9 1_555 1_555

#END
