
#######################################################################
#
#                 Cambridge Crystallographic Data Centre
#                                CCDC 
#
#######################################################################
#
# If this CIF has been generated from an entry in the Cambridge 
# Structural Database, then it will include bibliographic, chemical, 
# crystal, experimental, refinement or atomic coordinate data resulting 
# from the CCDC's data processing and validation procedures.
#
#######################################################################

data_PIZTUO
_chemical_formula_moiety         'C34 H32 F2 N1 O2 P1'
_chemical_name_systematic        
2,6-bis(4-Fluorophenyl)-N,N-dimethyl-8,9,10,11,12,13,14,15-octahydrodinaphtho(2,1-d:1',2'-f)(1,3,2)dioxaphosphepin-4-amine
_symmetry_cell_setting           orthorhombic
_symmetry_space_group_name_H-M   'P 21 21 21'
_symmetry_Int_Tables_number      19
_space_group_name_Hall           'P 2ac 2ab'
loop_
_symmetry_equiv_pos_site_id
_symmetry_equiv_pos_as_xyz
1 x,y,z
2 1/2-x,-y,1/2+z
3 -x,1/2+y,1/2-z
4 1/2+x,1/2-y,-z
_cell_length_a                   10.246(2)
_cell_length_b                   14.635(3)
_cell_length_c                   18.655(4)
_cell_angle_alpha                90
_cell_angle_beta                 90
_cell_angle_gamma                90
_cell_volume                     2797.32
_exptl_crystal_colour            colorless
_exptl_crystal_description       prism
_chemical_melting_point          185-188deg.C
_cell_formula_units_Z            4
loop_
_atom_site_label
_atom_site_type_symbol
_atom_site_fract_x
_atom_site_fract_y
_atom_site_fract_z
C1 C 0.8356(2) 0.96745(17) 0.21626(13)
C2 C 0.7488(2) 1.03033(18) 0.24520(14)
C3 C 0.7010(2) 1.01277(18) 0.31355(14)
H1 H 0.6388 1.0536 0.3335
C4 C 0.7410(2) 0.93746(17) 0.35411(14)
C5 C 0.7048(3) 0.9326(2) 0.43228(15)
H2 H 0.6093 0.9413 0.4369
H3 H 0.7480 0.9836 0.4579
C6 C 0.7423(3) 0.8428(3) 0.4686(2)
H6 H 0.6778 0.7950 0.4563
H7 H 0.7416 0.8509 0.5213
C7 C 0.8794(4) 0.8125(4) 0.4441(2)
H8 H 0.9436 0.8620 0.4522
H9 H 0.9078 0.7577 0.4711
C10 C 0.8689(2) 0.79114(18) 0.36553(14)
H14 H 0.8078 0.7394 0.3589
H15 H 0.9555 0.7717 0.3475
C11 C 0.8217(2) 0.87183(18) 0.32164(14)
C12 C 0.8631(2) 0.88449(17) 0.25139(14)
C13 C 0.9429(2) 0.81549(15) 0.21149(13)
C14 C 0.8928(2) 0.72832(17) 0.19315(13)
C15 C 0.7520(2) 0.70430(18) 0.20738(15)
H18 H 0.6985 0.7606 0.2060
H19 H 0.7442 0.6774 0.2559
C16 C 0.7005(3) 0.63692(19) 0.15238(18)
H20 H 0.6092 0.6204 0.1640
H21 H 0.7018 0.6652 0.1042
C17 C 0.7845(3) 0.55238(18) 0.15266(18)
H22 H 0.7479 0.5073 0.1186
H23 H 0.7829 0.5248 0.2011
C18 C 0.9255(3) 0.57335(18) 0.13184(16)
H24 H 0.9337 0.5692 0.0791
H25 H 0.9829 0.5261 0.1530
C19 C 0.9731(2) 0.66740(16) 0.15598(14)
C20 C 1.0997(2) 0.69335(17) 0.13827(13)
H26 H 1.1538 0.6502 0.1146
C21 C 1.1511(2) 0.77910(17) 0.15343(13)
C22 C 1.0683(2) 0.83943(16) 0.18941(12)
C23 C 0.7064(2) 1.11520(17) 0.20638(14)
C24 C 0.7951(2) 1.18067(17) 0.18409(14)
H27 H 0.8857 1.1705 0.1913
C25 C 0.7545(3) 1.26029(18) 0.15162(17)
H28 H 0.8159 1.3050 0.1367
C26 C 0.6231(3) 1.27352(19) 0.14133(16)
C27 C 0.5325(3) 1.2115(2) 0.16247(17)
H29 H 0.4422 1.2223 0.1546
C28 C 0.5747(2) 1.13181(19) 0.19586(16)
H30 H 0.5123 1.0882 0.2117
C29 C 1.2861(2) 0.80398(17) 0.13090(14)
C30 C 1.3341(3) 0.77622(19) 0.06494(14)
H31 H 1.2794 0.7413 0.0343
C31 C 1.4589(3) 0.7976(2) 0.04223(15)
H32 H 1.4903 0.7781 -0.0032
C32 C 1.5355(3) 0.8479(2) 0.08763(17)
C33 C 1.4952(2) 0.87646(19) 0.15390(17)
H33 H 1.5517 0.9103 0.1844
C34 C 1.3693(2) 0.85457(18) 0.17524(14)
H34 H 1.3389 0.8743 0.2208
C35 C 1.0367(3) 0.9248(2) 0.02489(16)
H35 H 1.0727 0.9310 -0.0235
H36 H 0.9412 0.9275 0.0227
H37 H 1.0636 0.8660 0.0453
C36 C 1.2093(3) 1.0387(2) 0.04472(17)
H38 H 1.2212 1.0247 -0.0062
H39 H 1.2818 1.0126 0.0722
H40 H 1.2074 1.1051 0.0514
F1 F 0.58221(16) 1.35297(12) 0.11014(10)
F2 F 1.65960(16) 0.86990(14) 0.06548(11)
N1 N 1.0851(2) 0.99892(16) 0.06988(12)
O1 O 0.89477(14) 0.98418(11) 0.15025(9)
O2 O 1.10921(15) 0.92882(11) 0.20299(9)
P1 P 1.05040(7) 1.01627(5) 0.15532(4)
H4? H 0.6228 0.8974 0.4372
H5? H 0.6881 0.9952 0.4501
C8? C 0.8100(10) 0.8883(7) 0.4789(5)
H10? H 0.7794 0.8818 0.5290
H11? H 0.8909 0.9253 0.4786
C9? C 0.8338(14) 0.7939(7) 0.4447(6)
H12? H 0.9049 0.7637 0.4717
H13? H 0.7540 0.7568 0.4516
H16? H 0.9651 0.7874 0.3612
H17? H 0.8321 0.7346 0.3446
loop_
_geom_bond_atom_site_label_1
_geom_bond_atom_site_label_2
_geom_bond_site_symmetry_1
_geom_bond_site_symmetry_2
C1 C2 1_555 1_555
C2 C3 1_555 1_555
C3 H1 1_555 1_555
C4 C3 1_555 1_555
C5 C4 1_555 1_555
H2 C5 1_555 1_555
H3 C5 1_555 1_555
C6 C5 1_555 1_555
H6 C6 1_555 1_555
H7 C6 1_555 1_555
C7 C6 1_555 1_555
H8 C7 1_555 1_555
H9 C7 1_555 1_555
C10 C7 1_555 1_555
H14 C10 1_555 1_555
H15 C10 1_555 1_555
C11 C4 1_555 1_555
C12 C1 1_555 1_555
C13 C12 1_555 1_555
C14 C13 1_555 1_555
C15 C14 1_555 1_555
H18 C15 1_555 1_555
H19 C15 1_555 1_555
C16 C15 1_555 1_555
H20 C16 1_555 1_555
H21 C16 1_555 1_555
C17 C16 1_555 1_555
H22 C17 1_555 1_555
H23 C17 1_555 1_555
C18 C17 1_555 1_555
H24 C18 1_555 1_555
H25 C18 1_555 1_555
C19 C14 1_555 1_555
C20 C19 1_555 1_555
H26 C20 1_555 1_555
C21 C20 1_555 1_555
C22 C13 1_555 1_555
C23 C2 1_555 1_555
C24 C23 1_555 1_555
H27 C24 1_555 1_555
C25 C24 1_555 1_555
H28 C25 1_555 1_555
C26 C25 1_555 1_555
C27 C26 1_555 1_555
H29 C27 1_555 1_555
C28 C23 1_555 1_555
H30 C28 1_555 1_555
C29 C21 1_555 1_555
C30 C29 1_555 1_555
H31 C30 1_555 1_555
C31 C30 1_555 1_555
H32 C31 1_555 1_555
C32 C31 1_555 1_555
C33 C32 1_555 1_555
H33 C33 1_555 1_555
C34 C29 1_555 1_555
H34 C34 1_555 1_555
C35 H35 1_555 1_555
H36 C35 1_555 1_555
H37 C35 1_555 1_555
C36 H38 1_555 1_555
H39 C36 1_555 1_555
H40 C36 1_555 1_555
F1 C26 1_555 1_555
F2 C32 1_555 1_555
N1 C35 1_555 1_555
O1 C1 1_555 1_555
O2 C22 1_555 1_555
P1 N1 1_555 1_555
C10 C11 1_555 1_555
C11 C12 1_555 1_555
C18 C19 1_555 1_555
C21 C22 1_555 1_555
C27 C28 1_555 1_555
C33 C34 1_555 1_555
C36 N1 1_555 1_555
O1 P1 1_555 1_555
O2 P1 1_555 1_555

#END
