
#######################################################################
#
#                 Cambridge Crystallographic Data Centre
#                                CCDC 
#
#######################################################################
#
# If this CIF has been generated from an entry in the Cambridge 
# Structural Database, then it will include bibliographic, chemical, 
# crystal, experimental, refinement or atomic coordinate data resulting 
# from the CCDC's data processing and validation procedures.
#
#######################################################################

data_PIZVID
_chemical_formula_moiety         'C18 H16 N2'
_chemical_name_systematic        2,2'-Bi(N-methylindolyl)
_symmetry_cell_setting           monoclinic
_symmetry_space_group_name_H-M   'P 21/n'
_symmetry_Int_Tables_number      14
_space_group_name_Hall           '-P 2yn'
loop_
_symmetry_equiv_pos_site_id
_symmetry_equiv_pos_as_xyz
1 x,y,z
2 1/2-x,1/2+y,1/2-z
3 -x,-y,-z
4 1/2+x,1/2-y,1/2+z
_cell_length_a                   9.9694(2)
_cell_length_b                   8.2218(1)
_cell_length_c                   17.0058(2)
_cell_angle_alpha                90
_cell_angle_beta                 104.909(2)
_cell_angle_gamma                90
_cell_volume                     1346.98
_exptl_crystal_colour            'pale yellow'
_chemical_melting_point          '173-174 deg.C'
_cell_formula_units_Z            4
loop_
_atom_site_label
_atom_site_type_symbol
_atom_site_fract_x
_atom_site_fract_y
_atom_site_fract_z
N1 N 0.3235(2) 0.2035(2) 0.9599(1)
C1 C 0.2112(2) 0.1100(2) 0.9683(1)
C2 C 0.0946(2) 0.1576(3) 0.9107(1)
C3 C 0.1341(2) 0.2826(3) 0.8629(1)
C4 C 0.0637(3) 0.3714(3) 0.7945(1)
C5 C 0.1383(3) 0.4784(3) 0.7596(1)
C6 C 0.2814(3) 0.5005(3) 0.7924(2)
C7 C 0.3526(3) 0.4174(3) 0.8603(1)
C8 C 0.2778(2) 0.3075(2) 0.8952(1)
C9 C 0.4627(2) 0.2097(3) 1.0141(2)
N2 N 0.1856(2) -0.1818(2) 0.99712(9)
C10 C 0.2289(2) -0.0265(2) 1.0252(1)
C11 C 0.2912(2) -0.0350(3) 1.1067(1)
C12 C 0.2899(2) -0.2011(3) 1.1313(1)
C13 C 0.3409(2) -0.2841(3) 1.2048(1)
C14 C 0.3237(3) -0.4509(3) 1.2058(2)
C15 C 0.2557(3) -0.5354(3) 1.1355(2)
C16 C 0.2039(2) -0.4576(3) 1.0623(1)
C17 C 0.2225(2) -0.2892(3) 1.0613(1)
C18 C 0.1177(3) -0.2301(3) 0.9140(1)
H1 H 0.0015(2) 0.1072(3) 0.9012(1)
H2 H -0.0387(3) 0.3596(3) 0.7730(1)
H3 H 0.0993(3) 0.5502(3) 0.7161(1)
H4 H 0.3325(3) 0.5747(3) 0.7639(2)
H5 H 0.4534(5) 0.4271(3) 0.8817(1)
H6 H 0.4886(2) 0.1091(3) 1.0442(2)
H7 H 0.4697(2) 0.2946(3) 1.0557(2)
H8 H 0.5226(2) 0.2120(3) 0.9781(2)
H9 H 0.3278(2) 0.0611(3) 1.1394(1)
H10 H 0.3892(2) -0.2242(3) 1.2531(1)
H11 H 0.3570(3) -0.5092(3) 1.2569(2)
H12 H 0.2466(3) -0.6564(3) 1.1366(2)
H13 H 0.1573(2) -0.5222(3) 1.0139(1)
H14 H 0.1474(3) -0.1648(3) 0.8726(1)
H15 H 0.1250(3) -0.3330(3) 0.9075(1)
H16 H 0.0185(3) -0.2093(3) 0.9033(1)
loop_
_geom_bond_atom_site_label_1
_geom_bond_atom_site_label_2
_geom_bond_site_symmetry_1
_geom_bond_site_symmetry_2
N1 C1 1_555 1_555
C1 C2 1_555 1_555
C2 C3 1_555 1_555
C3 C4 1_555 1_555
C4 C5 1_555 1_555
C5 C6 1_555 1_555
C6 C7 1_555 1_555
C7 C8 1_555 1_555
C8 N1 1_555 1_555
C9 N1 1_555 1_555
N2 C10 1_555 1_555
C10 C1 1_555 1_555
C11 C10 1_555 1_555
C12 C11 1_555 1_555
C13 C12 1_555 1_555
C14 C13 1_555 1_555
C15 C14 1_555 1_555
C16 C15 1_555 1_555
C17 N2 1_555 1_555
C18 N2 1_555 1_555
H1 C2 1_555 1_555
H2 C4 1_555 1_555
H3 C5 1_555 1_555
H4 C6 1_555 1_555
H5 C7 1_555 1_555
H6 C9 1_555 1_555
H7 C9 1_555 1_555
H8 C9 1_555 1_555
H9 C11 1_555 1_555
H10 C13 1_555 1_555
H11 C14 1_555 1_555
H12 C15 1_555 1_555
H13 C16 1_555 1_555
H14 C18 1_555 1_555
H15 C18 1_555 1_555
H16 C18 1_555 1_555
C3 C8 1_555 1_555
C12 C17 1_555 1_555
C16 C17 1_555 1_555

#END
