
#######################################################################
#
#                 Cambridge Crystallographic Data Centre
#                                CCDC 
#
#######################################################################
#
# If this CIF has been generated from an entry in the Cambridge 
# Structural Database, then it will include bibliographic, chemical, 
# crystal, experimental, refinement or atomic coordinate data resulting 
# from the CCDC's data processing and validation procedures.
#
#######################################################################

data_PIZWIH
_chemical_formula_moiety         'C15 H10 Br1 N1 O3'
_chemical_name_systematic        
3-bromo-3-(4-nitrophenyl)-1-phenylprop-2-en-1-one
_symmetry_cell_setting           monoclinic
_symmetry_space_group_name_H-M   'P 21/c'
_symmetry_Int_Tables_number      14
_space_group_name_Hall           '-P 2ybc'
loop_
_symmetry_equiv_pos_site_id
_symmetry_equiv_pos_as_xyz
1 x,y,z
2 -x,1/2+y,1/2-z
3 -x,-y,-z
4 x,1/2-y,1/2+z
_cell_length_a                   11.4360(6)
_cell_length_b                   8.3742(4)
_cell_length_c                   14.1928(8)
_cell_angle_alpha                90
_cell_angle_beta                 94.648(2)
_cell_angle_gamma                90
_cell_volume                     1354.74
_exptl_crystal_colour            colorless
_chemical_melting_point          '353.7 K'
_cell_formula_units_Z            4
_exptl_crystal_recrystallization_method chloroform
loop_
_atom_site_label
_atom_site_type_symbol
_atom_site_fract_x
_atom_site_fract_y
_atom_site_fract_z
Br1 Br 0.27351(3) 0.20649(3) 0.31135(2)
O1 O -0.22358(19) 0.3435(3) -0.07046(14)
O2 O -0.0981(2) 0.1864(3) -0.12643(16)
O3 O 0.2699(2) 0.4986(3) 0.46243(14)
N1 N -0.1308(2) 0.2728(3) -0.06423(15)
C1 C -0.0517(2) 0.2942(3) 0.02223(17)
C2 C -0.0861(2) 0.3953(3) 0.09125(16)
H1 H -0.1587 0.4460 0.0842
C3 C -0.0110(2) 0.4200(3) 0.17115(16)
H2 H -0.0332 0.4878 0.2185
C4 C 0.0976(2) 0.3444(3) 0.18142(16)
C5 C 0.17917(19) 0.3808(3) 0.26508(16)
C6 C 0.1939(2) 0.5234(3) 0.30368(18)
H3 H 0.1483 0.6060 0.2767
C7 C 0.2774(2) 0.5647(3) 0.38722(18)
C8 C 0.3676(2) 0.6881(3) 0.37410(17)
C9 C 0.3701(2) 0.7751(3) 0.29126(19)
H4 H 0.3135 0.7569 0.2416
C10 C 0.4558(2) 0.8883(3) 0.2820(2)
H5 H 0.4565 0.9468 0.2264
C11 C 0.5399(3) 0.9146(4) 0.3547(2)
H6 H 0.5979 0.9909 0.3482
C12 C 0.0544(2) 0.2156(3) 0.03022(19)
H7 H 0.0760 0.1482 -0.0175
C13 C 0.1277(2) 0.2399(3) 0.11106(19)
H8 H 0.1987 0.1852 0.1187
C14 C 0.5390(3) 0.8296(4) 0.4363(2)
H9 H 0.5966 0.8479 0.4852
C15 C 0.4534(3) 0.7163(3) 0.4473(2)
H10 H 0.4532 0.6592 0.5035
loop_
_geom_bond_atom_site_label_1
_geom_bond_atom_site_label_2
_geom_bond_site_symmetry_1
_geom_bond_site_symmetry_2
Br1 C5 1_555 1_555
O1 N1 1_555 1_555
O2 N1 1_555 1_555
O3 C7 1_555 1_555
N1 C1 1_555 1_555
C1 C2 1_555 1_555
C2 H1 1_555 1_555
C3 C2 1_555 1_555
H2 C3 1_555 1_555
C4 C3 1_555 1_555
C5 C4 1_555 1_555
C6 C5 1_555 1_555
H3 C6 1_555 1_555
C7 C6 1_555 1_555
C8 C7 1_555 1_555
C9 C8 1_555 1_555
H4 C9 1_555 1_555
C10 C9 1_555 1_555
H5 C10 1_555 1_555
C11 C10 1_555 1_555
H6 C11 1_555 1_555
C12 C1 1_555 1_555
H7 C12 1_555 1_555
C13 C4 1_555 1_555
H8 C13 1_555 1_555
C14 C11 1_555 1_555
H9 C14 1_555 1_555
C15 C8 1_555 1_555
H10 C15 1_555 1_555
C12 C13 1_555 1_555
C14 C15 1_555 1_555

#END
