
#######################################################################
#
#                 Cambridge Crystallographic Data Centre
#                                CCDC 
#
#######################################################################
#
# If this CIF has been generated from an entry in the Cambridge 
# Structural Database, then it will include bibliographic, chemical, 
# crystal, experimental, refinement or atomic coordinate data resulting 
# from the CCDC's data processing and validation procedures.
#
#######################################################################

data_PMCPRC10
_chemical_formula_moiety         'C17 H16 O2'
_chemical_name_systematic        
'R-(+)-2,2-Diphenyl-1-methyl-cyclopropanecarboxylic acid'
_symmetry_cell_setting           orthorhombic
_symmetry_space_group_name_H-M   'P 21 21 21'
_symmetry_Int_Tables_number      19
_space_group_name_Hall           'P 2ac 2ab'
loop_
_symmetry_equiv_pos_site_id
_symmetry_equiv_pos_as_xyz
1 x,y,z
2 1/2+x,1/2-y,-z
3 -x,1/2+y,1/2-z
4 1/2-x,-y,1/2+z
_cell_length_a                   18.199(5)
_cell_length_b                   6.309(1)
_cell_length_c                   11.796(2)
_cell_angle_alpha                90
_cell_angle_beta                 90
_cell_angle_gamma                90
_cell_volume                     1354.39
_cell_formula_units_Z            4
loop_
_atom_site_label
_atom_site_type_symbol
_atom_site_fract_x
_atom_site_fract_y
_atom_site_fract_z
C1 C -0.32440 0.33130 0.23620
C2 C -0.29830 0.45730 0.13100
C3 C -0.31070 0.56630 0.24140
C4 C -0.22010 0.42580 0.09090
C5 C -0.19500 0.23150 0.05220
C6 C -0.12480 0.21130 0.00830
C7 C -0.07910 0.38310 0.00260
C8 C -0.10330 0.57640 0.03950
C9 C -0.17370 0.59710 0.08470
C10 C -0.34960 0.49650 0.03320
C11 C -0.36530 0.33710 -0.04300
C12 C -0.40740 0.37750 -0.13870
C13 C -0.43350 0.57880 -0.15930
C14 C -0.41870 0.73740 -0.08320
C15 C -0.37730 0.69800 0.01220
C16 C -0.40300 0.26840 0.23600
C17 C -0.27190 0.18530 0.29600
O1 O -0.45410 0.38710 0.22230
O2 O -0.41200 0.06230 0.25190
H1 H -0.26470 0.60700 0.28600
H2 H -0.35480 0.65000 0.24800
H3 H -0.22600 0.11700 0.05600
H4 H -0.10870 0.07300 -0.01700
H5 H -0.03090 0.37500 -0.02800
H6 H -0.07380 0.69400 0.04100
H7 H -0.19120 0.73700 0.11600
H8 H -0.34090 0.20000 -0.03600
H9 H -0.41580 0.26100 -0.19300
H10 H -0.46180 0.60300 -0.22800
H11 H -0.44170 0.88100 -0.09600
H12 H -0.36820 0.81200 0.06200
H13 H -0.27030 0.04300 0.26100
H14 H -0.28710 0.17100 0.37600
H15 H -0.22270 0.24300 0.29000
H16 H -0.45730 0.02700 0.26000
loop_
_geom_bond_atom_site_label_1
_geom_bond_atom_site_label_2
_geom_bond_site_symmetry_1
_geom_bond_site_symmetry_2
C1 C2 1_555 1_555
C2 C3 1_555 1_555
C3 C1 1_555 1_555
C4 C2 1_555 1_555
C5 C4 1_555 1_555
C6 C5 1_555 1_555
C7 C6 1_555 1_555
C8 C7 1_555 1_555
C9 C4 1_555 1_555
C10 C2 1_555 1_555
C11 C10 1_555 1_555
C12 C11 1_555 1_555
C13 C12 1_555 1_555
C14 C13 1_555 1_555
C15 C10 1_555 1_555
C16 C1 1_555 1_555
C17 C1 1_555 1_555
O1 C16 1_555 1_555
O2 C16 1_555 1_555
H1 C3 1_555 1_555
H2 C3 1_555 1_555
H3 C5 1_555 1_555
H4 C6 1_555 1_555
H5 C7 1_555 1_555
H6 C8 1_555 1_555
H7 C9 1_555 1_555
H8 C11 1_555 1_555
H9 C12 1_555 1_555
H10 C13 1_555 1_555
H11 C14 1_555 1_555
H12 C15 1_555 1_555
H13 C17 1_555 1_555
H14 C17 1_555 1_555
H15 C17 1_555 1_555
H16 O2 1_555 1_555
C8 C9 1_555 1_555
C14 C15 1_555 1_555

#END
