
#######################################################################
#
#                 Cambridge Crystallographic Data Centre
#                                CCDC 
#
#######################################################################
#
# If this CIF has been generated from an entry in the Cambridge 
# Structural Database, then it will include bibliographic, chemical, 
# crystal, experimental, refinement or atomic coordinate data resulting 
# from the CCDC's data processing and validation procedures.
#
#######################################################################

data_PMETRZ
_chemical_formula_moiety         'C6 H10 N4'
_chemical_name_systematic        Pentamethylene-tetrazole
_symmetry_cell_setting           monoclinic
_symmetry_space_group_name_H-M   'P 21/n'
_symmetry_Int_Tables_number      14
_space_group_name_Hall           '-P 2yn'
loop_
_symmetry_equiv_pos_site_id
_symmetry_equiv_pos_as_xyz
1 x,y,z
2 1/2-x,1/2+y,1/2-z
3 -x,-y,-z
4 1/2+x,1/2-y,1/2+z
_cell_length_a                   13.310(6)
_cell_length_b                   8.409(3)
_cell_length_c                   6.589(2)
_cell_angle_alpha                90
_cell_angle_beta                 94.72(3)
_cell_angle_gamma                90
_cell_volume                     734.965
_chemical_melting_point          333K
_cell_formula_units_Z            4
loop_
_atom_site_label
_atom_site_type_symbol
_atom_site_fract_x
_atom_site_fract_y
_atom_site_fract_z
C1 C 0.37720 1.04990 1.20770
N1 N 0.40490 0.89690 1.20380
N2 N 0.38060 0.84790 1.01560
N3 N 0.34040 0.96280 0.90210
C2 C 0.33740 1.08960 1.02360
C3 C 0.29480 1.24450 0.95870
C4 C 0.36920 1.37850 1.00190
C5 C 0.38770 1.42500 1.22400
C6 C 0.44300 1.30420 1.35930
C7 C 0.38530 1.15210 1.39020
H1 H 0.27300 1.22500 0.82200
H2 H 0.23700 1.26900 1.03800
H3 H 0.44600 1.32900 0.93900
H4 H 0.34700 1.46600 0.93700
H5 H 0.32700 1.44400 1.27800
H6 H 0.42600 1.51900 1.23300
H7 H 0.45800 1.34700 1.49900
H8 H 0.51300 1.28500 1.30300
H9 H 0.41500 1.09300 1.49300
H10 H 0.31500 1.18400 1.42700
loop_
_geom_bond_atom_site_label_1
_geom_bond_atom_site_label_2
_geom_bond_site_symmetry_1
_geom_bond_site_symmetry_2
C1 N1 1_555 1_555
N1 N2 1_555 1_555
N2 N3 1_555 1_555
N3 C2 1_555 1_555
C2 C1 1_555 1_555
C3 C2 1_555 1_555
C4 C3 1_555 1_555
C5 C4 1_555 1_555
C6 C5 1_555 1_555
C7 C1 1_555 1_555
H1 C3 1_555 1_555
H2 C3 1_555 1_555
H3 C4 1_555 1_555
H4 C4 1_555 1_555
H5 C5 1_555 1_555
H6 C5 1_555 1_555
H7 C6 1_555 1_555
H8 C6 1_555 1_555
H9 C7 1_555 1_555
H10 C7 1_555 1_555
C6 C7 1_555 1_555

#END
