
#######################################################################
#
#                 Cambridge Crystallographic Data Centre
#                                CCDC 
#
#######################################################################
#
# If this CIF has been generated from an entry in the Cambridge 
# Structural Database, then it will include bibliographic, chemical, 
# crystal, experimental, refinement or atomic coordinate data resulting 
# from the CCDC's data processing and validation procedures.
#
#######################################################################

data_PMPXOL
_chemical_formula_moiety         'C10 H10 N2 O1'
_chemical_name_systematic        5-Hydroxy-3-methyl-1-phenyl-1H-pyrazole
_symmetry_cell_setting           orthorhombic
_symmetry_space_group_name_H-M   'P c a 21'
_symmetry_Int_Tables_number      29
_space_group_name_Hall           'P 2c -2ac'
loop_
_symmetry_equiv_pos_site_id
_symmetry_equiv_pos_as_xyz
1 x,y,z
2 -x,-y,1/2+z
3 1/2+x,-y,z
4 1/2-x,y,1/2+z
_cell_length_a                   15.0138(9)
_cell_length_b                   5.2952(3)
_cell_length_c                   10.9469(6)
_cell_angle_alpha                90
_cell_angle_beta                 90
_cell_angle_gamma                90
_cell_volume                     870.29
_exptl_crystal_colour            colorless
_exptl_crystal_description       needle
_chemical_melting_point          '398-400 K'
_cell_formula_units_Z            4
_exptl_crystal_recrystallization_method ethanol
loop_
_atom_site_label
_atom_site_type_symbol
_atom_site_fract_x
_atom_site_fract_y
_atom_site_fract_z
C1 C 0.64367(15) 0.3886(4) 0.6963(2)
C2 C 0.61493(16) 0.3673(5) 0.8171(2)
C3 C 0.55513(17) 0.5448(5) 0.8625(2)
C4 C 0.52322(19) 0.7370(5) 0.7897(3)
C5 C 0.55078(18) 0.7531(5) 0.6698(3)
C6 C 0.61146(16) 0.5798(4) 0.6215(2)
N1 N 0.70654(13) 0.2088(4) 0.65099(17)
N2 N 0.75777(13) 0.0691(3) 0.73189(18)
C7 C 0.72202(15) 0.1281(4) 0.5345(2)
O1 O 0.67794(12) 0.2304(3) 0.44157(17)
C8 C 0.78441(15) -0.0624(4) 0.5395(2)
C9 C 0.80393(16) -0.0922(4) 0.6631(2)
C10 C 0.86558(17) -0.2775(5) 0.7216(3)
H1 H 0.6359 0.2339 0.8675
H2 H 0.5360 0.5333 0.9450
H3 H 0.4826 0.8574 0.8219
H4 H 0.5281 0.8841 0.6192
H5 H 0.6304 0.5925 0.5389
H6 H 0.6993 0.1773 0.3755
H7 H 0.8089 -0.1539 0.4728
H8 H 0.8637 -0.2565 0.8105
H9 H 0.9264 -0.2482 0.6923
H10 H 0.8471 -0.4495 0.7003
loop_
_geom_bond_atom_site_label_1
_geom_bond_atom_site_label_2
_geom_bond_site_symmetry_1
_geom_bond_site_symmetry_2
C1 C2 1_555 1_555
C2 C3 1_555 1_555
C3 C4 1_555 1_555
C4 C5 1_555 1_555
C5 C6 1_555 1_555
C6 C1 1_555 1_555
N1 C1 1_555 1_555
N2 N1 1_555 1_555
C7 N1 1_555 1_555
O1 C7 1_555 1_555
C8 C7 1_555 1_555
C9 N2 1_555 1_555
C10 C9 1_555 1_555
H1 C2 1_555 1_555
H2 C3 1_555 1_555
H3 C4 1_555 1_555
H4 C5 1_555 1_555
H5 C6 1_555 1_555
H6 O1 1_555 1_555
H7 C8 1_555 1_555
H8 C10 1_555 1_555
H9 C10 1_555 1_555
H10 C10 1_555 1_555
C8 C9 1_555 1_555

#END
