
#######################################################################
#
#                 Cambridge Crystallographic Data Centre
#                                CCDC 
#
#######################################################################
#
# If this CIF has been generated from an entry in the Cambridge 
# Structural Database, then it will include bibliographic, chemical, 
# crystal, experimental, refinement or atomic coordinate data resulting 
# from the CCDC's data processing and validation procedures.
#
#######################################################################

data_PMTTIC01
_chemical_formula_moiety         'C6 H10 N4,Cl1 I1'
_chemical_name_systematic        
'Pentamethylenetetrazole iodine monochloride complex'
_symmetry_cell_setting           orthorhombic
_symmetry_space_group_name_H-M   'P b c a'
_symmetry_Int_Tables_number      61
_space_group_name_Hall           '-P 2ac 2ab'
loop_
_symmetry_equiv_pos_site_id
_symmetry_equiv_pos_as_xyz
1 x,y,z
2 1/2-x,1/2+y,z
3 x,1/2-y,1/2+z
4 1/2-x,-y,1/2+z
5 -x,-y,-z
6 1/2+x,1/2-y,-z
7 -x,1/2+y,1/2-z
8 1/2+x,y,1/2-z
_cell_length_a                   13.06(2)
_cell_length_b                   18.78(2)
_cell_length_c                   8.34(1)
_cell_angle_alpha                90
_cell_angle_beta                 90
_cell_angle_gamma                90
_cell_volume                     2045.53
_cell_formula_units_Z            8
loop_
_atom_site_label
_atom_site_type_symbol
_atom_site_fract_x
_atom_site_fract_y
_atom_site_fract_z
Cl1 Cl 0.27920 0.20950 0.35140
I1 I 0.14030 0.15170 0.20600
C1 C -0.03720 0.11820 -0.07260
C2 C 0.00460 0.17180 -0.18560
C3 C -0.18620 0.07560 -0.23480
C4 C -0.13240 0.05910 -0.38550
C5 C -0.07450 0.12020 -0.45170
C6 C 0.02370 0.13930 -0.35640
N1 N 0.00170 0.10260 0.07070
N2 N -0.05840 0.04980 0.13910
N3 N -0.13350 0.03340 0.03780
N4 N -0.12020 0.07740 -0.09850
loop_
_geom_bond_atom_site_label_1
_geom_bond_atom_site_label_2
_geom_bond_site_symmetry_1
_geom_bond_site_symmetry_2
Cl1 I1 1_555 1_555
C1 C2 1_555 1_555
C2 C6 1_555 1_555
C3 C4 1_555 1_555
C4 C5 1_555 1_555
C5 C6 1_555 1_555
N1 C1 1_555 1_555
N2 N1 1_555 1_555
N3 N2 1_555 1_555
N4 C1 1_555 1_555
C3 N4 1_555 1_555
N3 N4 1_555 1_555

#END
