
#######################################################################
#
#                 Cambridge Crystallographic Data Centre
#                                CCDC 
#
#######################################################################
#
# If this CIF has been generated from an entry in the Cambridge 
# Structural Database, then it will include bibliographic, chemical, 
# crystal, experimental, refinement or atomic coordinate data resulting 
# from the CCDC's data processing and validation procedures.
#
#######################################################################

data_PNDPHS
_chemical_formula_moiety         'C12 H9 N1 O2 S1'
_chemical_name_systematic        4-Nitro-diphenylsulfide
_symmetry_cell_setting           monoclinic
_symmetry_space_group_name_H-M   'P 21/c'
_symmetry_Int_Tables_number      14
_space_group_name_Hall           '-P 2ybc'
loop_
_symmetry_equiv_pos_site_id
_symmetry_equiv_pos_as_xyz
1 x,y,z
2 -x,1/2+y,1/2-z
3 -x,-y,-z
4 x,1/2-y,1/2+z
_cell_length_a                   8.56(4)
_cell_length_b                   16.59(9)
_cell_length_c                   7.96(2)
_cell_angle_alpha                90
_cell_angle_beta                 94.0
_cell_angle_gamma                90
_cell_volume                     1127.65
_chemical_melting_point          55-6deg.C
_cell_formula_units_Z            4
loop_
_atom_site_label
_atom_site_type_symbol
_atom_site_fract_x
_atom_site_fract_y
_atom_site_fract_z
C1 C 0.34310 0.14990 0.43000
C2 C 0.50170 0.15680 0.41110
C3 C 0.56430 0.22980 0.36980
C4 C 0.46830 0.29730 0.35370
C5 C 0.30970 0.29100 0.37120
C6 C 0.24720 0.21730 0.40710
C7 C 0.22240 0.00250 0.30450
C8 C 0.15110 -0.07130 0.31830
C9 C 0.11720 -0.11940 0.17950
C10 C 0.15320 -0.08950 0.02460
C11 C 0.22370 -0.01520 0.00970
C12 C 0.25880 0.03090 0.14710
H1 H 0.12660 -0.08030 0.43000
H2 H 0.06940 -0.18080 0.18440
H3 H 0.24210 0.00140 -0.12300
H4 H 0.30840 0.07350 0.15110
H5 H 0.56830 0.10100 0.43110
H6 H 0.67770 0.22560 0.35660
H7 H 0.51660 0.35550 0.32170
H8 H 0.22770 0.33040 0.34380
H9 H 0.15200 0.21880 0.42080
N1 N 0.11760 -0.13820 -0.12550
O1 O 0.13670 -0.11080 -0.26310
O2 O 0.06670 -0.20660 -0.10750
S1 S 0.26160 0.05720 0.49490
loop_
_geom_bond_atom_site_label_1
_geom_bond_atom_site_label_2
_geom_bond_site_symmetry_1
_geom_bond_site_symmetry_2
C1 C2 1_555 1_555
C2 C3 1_555 1_555
C3 C4 1_555 1_555
C4 C5 1_555 1_555
C5 C6 1_555 1_555
C6 C1 1_555 1_555
C7 C8 1_555 1_555
C8 C9 1_555 1_555
C9 C10 1_555 1_555
C10 C11 1_555 1_555
C11 C12 1_555 1_555
C12 C7 1_555 1_555
H1 C8 1_555 1_555
H2 C9 1_555 1_555
H3 C11 1_555 1_555
H4 C12 1_555 1_555
H5 C2 1_555 1_555
H6 C3 1_555 1_555
H7 C4 1_555 1_555
H8 C5 1_555 1_555
H9 C6 1_555 1_555
N1 C10 1_555 1_555
O1 N1 1_555 1_555
O2 N1 1_555 1_555
S1 C1 1_555 1_555
C7 S1 1_555 1_555

#END
