
#######################################################################
#
#                 Cambridge Crystallographic Data Centre
#                                CCDC 
#
#######################################################################
#
# If this CIF has been generated from an entry in the Cambridge 
# Structural Database, then it will include bibliographic, chemical, 
# crystal, experimental, refinement or atomic coordinate data resulting 
# from the CCDC's data processing and validation procedures.
#
#######################################################################

data_POBHAQ
_chemical_formula_moiety         'C20 H20 Br2 N2 O4'
_chemical_name_systematic        
3'-bromo-3-(3-bromoprop-2-en-1-yl)-1,6a'-dimethyl-4-oxohexahydro-5'H-spiro[7,8-dioxabicyclo[3.2.1]octane-6,7'-[1]oxa[2,5]methanocyclopenta[b]furan]-3,5'-dicarbonitrile
_symmetry_cell_setting           triclinic
_symmetry_space_group_name_H-M   'P -1'
_symmetry_Int_Tables_number      2
_space_group_name_Hall           '-P 1'
loop_
_symmetry_equiv_pos_site_id
_symmetry_equiv_pos_as_xyz
1 x,y,z
2 -x,-y,-z
_cell_length_a                   8.3320(4)
_cell_length_b                   11.0200(5)
_cell_length_c                   11.4490(5)
_cell_angle_alpha                81.817(3)
_cell_angle_beta                 74.931(2)
_cell_angle_gamma                87.130(2)
_cell_volume                     1004.65
_exptl_crystal_colour            colorless
_exptl_crystal_description       plate
_cell_formula_units_Z            2
loop_
_atom_site_label
_atom_site_type_symbol
_atom_site_fract_x
_atom_site_fract_y
_atom_site_fract_z
Br1 Br 0.22104(5) 0.62997(4) 0.35245(4)
Br2 Br -0.75062(8) 0.51548(5) 0.94600(6)
N1 N -0.5057(4) 0.5944(3) 0.6000(3)
N2 N -0.3769(5) 1.0345(4) 0.8391(4)
O1 O -0.1006(3) 0.9000(2) 0.2638(2)
O2 O -0.1008(3) 0.7098(2) 0.5558(2)
O3 O -0.1318(3) 0.9034(2) 0.6026(2)
O4 O -0.5427(3) 0.8858(2) 0.5799(3)
C1 C -0.1646(4) 0.7824(3) 0.4639(3)
C2 C -0.0241(4) 0.8361(3) 0.3532(3)
H1 H 0.039(4) 0.890(3) 0.373(3)
C3 C -0.1731(5) 0.8022(4) 0.2192(4)
C4 C -0.3384(5) 0.7750(4) 0.3124(4)
H2 H -0.404(5) 0.718(4) 0.286(4)
H3 H -0.406(5) 0.849(4) 0.338(4)
C5 C -0.2772(4) 0.7008(3) 0.4185(3)
C6 C -0.1797(6) 0.8464(5) 0.0900(4)
H4 H -0.2463 0.9200 0.0883
H5 H -0.2278 0.7844 0.0592
H6 H -0.0692 0.8631 0.0401
C7 C -0.4075(5) 0.6419(3) 0.5201(4)
C8 C 0.0780(5) 0.7436(3) 0.2771(4)
H7 H 0.154(5) 0.788(3) 0.212(3)
C9 C -0.0593(5) 0.6865(3) 0.2397(3)
H8 H -0.017(5) 0.652(3) 0.163(4)
C10 C -0.1654(5) 0.6042(3) 0.3485(3)
H9 H -0.0978 0.5584 0.3974
H10 H -0.2305 0.5477 0.3226
C11 C -0.4172(4) 0.8732(3) 0.6141(3)
C12 C -0.2443(4) 0.8927(3) 0.5294(3)
H11 H -0.245(4) 0.965(3) 0.471(3)
C13 C -0.1144(4) 0.7797(3) 0.6553(3)
C14 C -0.2735(5) 0.7429(3) 0.7571(3)
H12 H -0.2497 0.7393 0.8360
H13 H -0.3064 0.6617 0.7495
C15 C -0.4194(4) 0.8351(3) 0.7503(3)
C16 C 0.0426(5) 0.7643(4) 0.6977(4)
H14 H 0.1370 0.7766 0.6285
H15 H 0.0476 0.6830 0.7400
H16 H 0.0433 0.8232 0.7517
C17 C -0.3909(5) 0.9482(4) 0.7988(4)
C18 C -0.5900(5) 0.7831(4) 0.8225(4)
H17 H -0.623(4) 0.721(3) 0.779(3)
H18 H -0.672(5) 0.848(4) 0.814(4)
C19 C -0.5992(5) 0.7377(5) 0.9523(4)
H19 H -0.5610 0.7902 0.9957
C20 C -0.6556(6) 0.6314(5) 1.0126(4)
H20 H -0.6480 0.6124 1.0928
loop_
_geom_bond_atom_site_label_1
_geom_bond_atom_site_label_2
_geom_bond_site_symmetry_1
_geom_bond_site_symmetry_2
Br1 C8 1_555 1_555
Br2 C20 1_555 1_555
N1 C7 1_555 1_555
N2 C17 1_555 1_555
O1 C2 1_555 1_555
O2 C1 1_555 1_555
O3 C12 1_555 1_555
O4 C11 1_555 1_555
C1 C2 1_555 1_555
C2 H1 1_555 1_555
C3 O1 1_555 1_555
C4 C3 1_555 1_555
H2 C4 1_555 1_555
H3 C4 1_555 1_555
C5 C1 1_555 1_555
C6 C3 1_555 1_555
H4 C6 1_555 1_555
H5 C6 1_555 1_555
H6 C6 1_555 1_555
C7 C5 1_555 1_555
C8 C2 1_555 1_555
H7 C8 1_555 1_555
C9 C3 1_555 1_555
H8 C9 1_555 1_555
C10 C5 1_555 1_555
H9 C10 1_555 1_555
H10 C10 1_555 1_555
C11 C12 1_555 1_555
C12 C1 1_555 1_555
H11 C12 1_555 1_555
C13 O2 1_555 1_555
C14 C13 1_555 1_555
H12 C14 1_555 1_555
H13 C14 1_555 1_555
C15 C11 1_555 1_555
C16 C13 1_555 1_555
H14 C16 1_555 1_555
H15 C16 1_555 1_555
H16 C16 1_555 1_555
C17 C15 1_555 1_555
C18 C15 1_555 1_555
H17 C18 1_555 1_555
H18 C18 1_555 1_555
C19 C18 1_555 1_555
H19 C19 1_555 1_555
C20 C19 1_555 1_555
H20 C20 1_555 1_555
O3 C13 1_555 1_555
C4 C5 1_555 1_555
C8 C9 1_555 1_555
C9 C10 1_555 1_555
C14 C15 1_555 1_555

#END
