
#######################################################################
#
#                 Cambridge Crystallographic Data Centre
#                                CCDC 
#
#######################################################################
#
# If this CIF has been generated from an entry in the Cambridge 
# Structural Database, then it will include bibliographic, chemical, 
# crystal, experimental, refinement or atomic coordinate data resulting 
# from the CCDC's data processing and validation procedures.
#
#######################################################################

data_POBHEU
_chemical_formula_moiety         
'C11 H26 N1 1+,Br1 1-,C48 H48 N32 O16,16(H2 O1)'
_chemical_name_systematic        
'cucurbit(8)uril trimethyl(octyl)ammonium clathrate bromide hexadecahydrate'
_symmetry_cell_setting           monoclinic
_symmetry_space_group_name_H-M   'P 21'
_symmetry_Int_Tables_number      4
_space_group_name_Hall           'P 2yb'
loop_
_symmetry_equiv_pos_site_id
_symmetry_equiv_pos_as_xyz
1 x,y,z
2 -x,1/2+y,-z
_cell_length_a                   13.898(3)
_cell_length_b                   20.472(4)
_cell_length_c                   15.404(3)
_cell_angle_alpha                90
_cell_angle_beta                 104.79(3)
_cell_angle_gamma                90
_cell_volume                     4237.53
_exptl_crystal_colour            colorless
_exptl_crystal_description       block
_cell_formula_units_Z            2
loop_
_atom_site_label
_atom_site_type_symbol
_atom_site_fract_x
_atom_site_fract_y
_atom_site_fract_z
Br1 Br 0.08605(10) 0.69495(7) 0.46628(9)
O1 O 1.0313(5) 0.8027(3) 0.9122(4)
O2 O 0.8699(5) 0.5527(3) 1.0362(5)
O3 O 1.0017(7) 0.9030(3) 1.1180(6)
O4 O 0.7916(5) 0.6631(3) 1.2230(5)
O5 O 0.8080(4) 1.0118(3) 1.1629(4)
O6 O 0.5756(5) 0.7848(3) 1.2682(4)
O7 O 0.5705(5) 1.0605(3) 1.0061(4)
O8 O 0.3451(5) 0.8329(3) 1.1375(4)
O9 O 0.4672(6) 1.0014(4) 0.7671(6)
O10 O 0.2509(4) 0.7771(3) 0.8943(4)
O11 O 0.5083(8) 0.9019(4) 0.5438(7)
O12 O 0.3191(5) 0.6637(3) 0.6915(4)
O13 O 0.7162(6) 0.7867(3) 0.5020(5)
O14 O 0.5192(5) 0.5524(3) 0.6383(4)
O15 O 0.9337(5) 0.7504(3) 0.6539(5)
O16 O 0.7563(5) 0.4984(3) 0.7774(5)
N1 N 1.0407(5) 0.6905(3) 0.8975(5)
N2 N 1.0584(5) 0.7338(3) 1.0330(5)
N3 N 0.9730(5) 0.5916(3) 0.9479(5)
N4 N 0.9905(6) 0.6347(3) 1.0825(5)
N5 N 1.0255(6) 0.7944(3) 1.1578(5)
N6 N 0.9529(6) 0.8579(3) 1.2396(5)
N7 N 0.9474(5) 0.6981(3) 1.2025(5)
N8 N 0.8614(5) 0.7636(3) 1.2720(5)
N9 N 0.8274(5) 0.9333(3) 1.2721(5)
N10 N 0.6782(5) 0.9831(3) 1.2307(5)
N11 N 0.7309(5) 0.8381(3) 1.2993(5)
N12 N 0.5881(5) 0.8955(3) 1.2882(5)
N13 N 0.5215(5) 1.0203(3) 1.1292(4)
N14 N 0.4125(5) 1.0152(3) 0.9966(5)
N15 N 0.4355(5) 0.9292(3) 1.1805(5)
N16 N 0.3250(5) 0.9241(3) 1.0482(5)
N17 N 0.3433(6) 0.9788(3) 0.8425(5)
N18 N 0.3361(6) 0.9280(3) 0.7152(5)
N19 N 0.2533(5) 0.8902(3) 0.8944(5)
N20 N 0.2524(6) 0.8367(3) 0.7677(5)
N21 N 0.3666(7) 0.8661(4) 0.5891(6)
N22 N 0.4380(7) 0.7991(4) 0.5086(6)
N23 N 0.2939(5) 0.7723(3) 0.6505(5)
N24 N 0.3635(6) 0.7059(4) 0.5667(5)
N25 N 0.5648(6) 0.7270(4) 0.4766(5)
N26 N 0.7143(6) 0.6755(4) 0.4985(5)
N27 N 0.4859(6) 0.6330(4) 0.5286(5)
N28 N 0.6383(6) 0.5818(3) 0.5565(5)
N29 N 0.8715(6) 0.6481(4) 0.6065(5)
N30 N 0.9726(6) 0.6597(3) 0.7437(5)
N31 N 0.7984(5) 0.5504(3) 0.6584(5)
N32 N 0.9057(5) 0.5576(3) 0.7928(5)
C1 C 1.0419(6) 0.7476(4) 0.9440(6)
C2 C 1.0583(7) 0.6340(4) 0.9551(6)
H1 H 1.1190 0.6093 0.9509
C3 C 1.0696(7) 0.6648(4) 1.0503(6)
H2 H 1.1363 0.6547 1.0910
C4 C 0.9363(7) 0.5891(4) 1.0232(7)
C5 C 1.0968(7) 0.7819(5) 1.1003(7)
H3 H 1.1086 0.8232 1.0711
H4 H 1.1613 0.7668 1.1388
C6 C 0.9838(7) 0.6362(4) 1.1762(6)
H5 H 0.9388 0.6007 1.1852
H6 H 1.0505 0.6273 1.2161
C7 C 0.9930(8) 0.8565(4) 1.1674(7)
C8 C 1.0162(7) 0.7522(4) 1.2298(6)
H7 H 1.0823 0.7375 1.2675
C9 C 0.9593(6) 0.7968(4) 1.2837(6)
H8 H 0.9960 0.8003 1.3485
C10 C 0.8600(6) 0.7031(4) 1.2301(5)
C11 C 0.9351(6) 0.9183(4) 1.2804(6)
H9 H 0.9643 0.9543 1.2527
H10 H 0.9704 0.9169 1.3449
C12 C 0.7913(7) 0.7799(5) 1.3276(6)
H11 H 0.7463 0.7422 1.3263
H12 H 0.8302 0.7859 1.3905
C13 C 0.7745(6) 0.9789(4) 1.2164(6)
C14 C 0.7682(7) 0.9020(5) 1.3275(6)
H13 H 0.8043 0.9026 1.3926
C15 C 0.6692(7) 0.9448(4) 1.3087(6)
H14 H 0.6664 0.9730 1.3611
C16 C 0.6271(6) 0.8344(4) 1.2836(5)
C17 C 0.6122(7) 1.0379(4) 1.1988(6)
H15 H 0.6491 1.0715 1.1742
H16 H 0.5924 1.0575 1.2504
C18 C 0.4803(7) 0.9095(4) 1.2724(6)
H17 H 0.4460 0.8700 1.2863
H18 H 0.4709 0.9447 1.3135
C19 C 0.5083(6) 1.0339(4) 1.0401(5)
C20 C 0.4299(6) 0.9958(4) 1.1497(6)
H19 H 0.4073 1.0257 1.1920
C21 C 0.3511(6) 0.9918(4) 1.0567(6)
H20 H 0.2922 1.0205 1.0541
C22 C 0.3687(6) 0.8887(4) 1.1238(5)
C23 C 0.3662(8) 1.0335(4) 0.9040(7)
H21 H 0.3040 1.0576 0.9021
H22 H 0.4114 1.0636 0.8831
C24 C 0.2351(6) 0.8996(5) 0.9800(6)
H23 H 0.2137 0.8576 1.0010
H24 H 0.1800 0.9312 0.9745
C25 C 0.3880(7) 0.9722(4) 0.7726(7)
C26 C 0.2500(6) 0.9421(4) 0.8290(6)
H25 H 0.1914 0.9715 0.8238
C27 C 0.2448(6) 0.9047(4) 0.7419(5)
H26 H 0.1822 0.9143 0.6948
C28 C 0.2538(6) 0.8286(4) 0.8575(6)
C29 C 0.3340(8) 0.9286(4) 0.6193(6)
H27 H 0.3779 0.9639 0.6081
H28 H 0.2655 0.9382 0.5837
C30 C 0.2228(7) 0.7854(4) 0.7048(6)
H29 H 0.1574 0.7965 0.6641
H30 H 0.2142 0.7451 0.7375
C31 C 0.4437(9) 0.8597(5) 0.5452(7)
C32 C 0.2939(8) 0.8109(4) 0.5714(6)
H31 H 0.2256 0.8250 0.5378
C33 C 0.3451(8) 0.7652(4) 0.5142(6)
H32 H 0.3004 0.7570 0.4531
C34 C 0.3251(7) 0.7090(4) 0.6414(6)
C35 C 0.4955(8) 0.7804(5) 0.4453(7)
H33 H 0.4488 0.7675 0.3879
H34 H 0.5332 0.8189 0.4334
C36 C 0.3814(7) 0.6434(4) 0.5277(6)
H35 H 0.3405 0.6414 0.4649
H36 H 0.3595 0.6077 0.5614
C37 C 0.6725(8) 0.7346(5) 0.4951(6)
C38 C 0.5348(7) 0.6597(4) 0.4615(6)
H37 H 0.4937 0.6525 0.3988
C39 C 0.6391(7) 0.6217(4) 0.4802(6)
H38 H 0.6441 0.5947 0.4274
C40 C 0.5451(8) 0.5861(4) 0.5805(6)
C41 C 0.8254(7) 0.6645(5) 0.5167(6)
H39 H 0.8376 0.6290 0.4772
H40 H 0.8567 0.7047 0.5009
C42 C 0.7108(7) 0.5296(5) 0.5897(7)
H41 H 0.6774 0.4942 0.6146
H42 H 0.7327 0.5113 0.5384
C43 C 0.9260(6) 0.6920(4) 0.6674(6)
C44 C 0.8856(7) 0.5820(4) 0.6387(6)
H43 H 0.9142 0.5542 0.5980
C45 C 0.9599(6) 0.5890(4) 0.7326(6)
H44 H 1.0244 0.5665 0.7351
C46 C 0.8117(7) 0.5330(4) 0.7451(6)
C47 C 1.0552(6) 0.6891(4) 0.8080(6)
H45 H 1.0644 0.7343 0.7888
H46 H 1.1165 0.6643 0.8088
C48 C 0.9541(6) 0.5380(4) 0.8827(6)
H47 H 1.0183 0.5171 0.8826
H48 H 0.9124 0.5048 0.9024
O17 O 0.3022(5) 0.6670(3) 0.0087(5)
O18 O 0.7821(11) 0.5554(5) 0.3399(7)
O19 O 0.4132(11) 0.6958(5) 0.1843(9)
O20 O 0.0097(7) 0.8708(4) 0.7533(6)
O21 O 0.1369(7) 0.5893(6) 0.6303(7)
O22 O 0.9936(10) 0.8375(9) 0.5160(7)
O23 O 0.2754(12) 0.7193(13) 0.2870(10)
O25 O 0.7204(19) 0.9145(11) 0.5335(16)
O26 O 0.8516(17) 0.8812(10) 0.5900(13)
O27 O 0.836(7) 1.0062(15) 0.486(2)
O28 O 0.0776(13) 0.9493(13) 0.5013(12)
O30 O 0.9874(15) 0.5498(9) 0.3907(19)
O31 O 0.2256(13) 0.5812(12) 0.2855(18)
O33 O 0.1195(18) 0.4684(12) 0.3349(15)
O35 O 0.4339(13) 0.5276(7) 0.3710(15)
O36 O 0.2206(16) 0.8646(11) 0.3112(10)
O38 O 0.590(2) 0.6469(14) 0.2651(13)
O39 O 0.439(4) 0.703(3) 0.823(3)
C49 C 0.7316(19) 1.0093(11) 0.912(2)
H49 H 0.7634 1.0232 0.9730
H50 H 0.6592 1.0106 0.9016
H51 H 0.7515 1.0387 0.8690
C50 C 0.8766(15) 0.9465(14) 0.9168(19)
H52 H 0.9014 0.9028 0.9083
H53 H 0.9054 0.9608 0.9787
H54 H 0.8957 0.9771 0.8753
C51 C 0.714(3) 0.9161(14) 0.8068(14)
H55 H 0.7388 0.8715 0.8033
H56 H 0.7310 0.9431 0.7603
H57 H 0.6417 0.9151 0.7975
N33 N 0.7618(8) 0.9445(6) 0.8982(7)
C52 C 0.7326(17) 0.9063(13) 0.9717(13)
H58 H 0.7725 0.8656 0.9794
H59 H 0.7574 0.9318 1.0275
C53 C 0.6335(17) 0.8869(11) 0.9707(16)
H60 H 0.6019 0.8711 0.9093
H61 H 0.5973 0.9269 0.9799
C54 C 0.615(2) 0.8372(9) 1.0337(18)
H62 H 0.6485 0.8516 1.0952
H63 H 0.5423 0.8371 1.0292
C55 C 0.645(3) 0.7695(10) 1.0237(19)
H64 H 0.7108 0.7717 1.0104
H65 H 0.6557 0.7490 1.0836
C56 C 0.587(3) 0.7245(18) 0.961(3)
H66 H 0.5485 0.6993 0.9957
H67 H 0.5374 0.7518 0.9186
C57 C 0.618(3) 0.6779(15) 0.907(2)
H68 H 0.5814 0.6374 0.9134
H69 H 0.6886 0.6693 0.9366
C58 C 0.613(3) 0.682(2) 0.813(2)
H70 H 0.5987 0.6372 0.7886
H71 H 0.5540 0.7086 0.7855
C59 C 0.691(3) 0.7061(16) 0.777(3)
H72 H 0.7383 0.6707 0.7745
H73 H 0.7265 0.7415 0.8145
H74 H 0.6631 0.7227 0.7157
O24? O 0.253(2) 0.656(2) 0.270(3)
O29? O 0.1344(13) 0.9201(7) 0.4479(14)
O32? O 0.231(2) 0.5490(15) 0.349(2)
O34? O 0.055(3) 0.4998(9) 0.2509(18)
O37? O 0.2942(19) 0.7781(19) 0.2892(15)
loop_
_geom_bond_atom_site_label_1
_geom_bond_atom_site_label_2
_geom_bond_site_symmetry_1
_geom_bond_site_symmetry_2
O1 C1 1_555 1_555
O2 C4 1_555 1_555
O3 C7 1_555 1_555
O4 C10 1_555 1_555
O5 C13 1_555 1_555
O6 C16 1_555 1_555
O7 C19 1_555 1_555
O8 C22 1_555 1_555
O9 C25 1_555 1_555
O10 C28 1_555 1_555
O11 C31 1_555 1_555
O12 C34 1_555 1_555
O13 C37 1_555 1_555
O14 C40 1_555 1_555
O15 C43 1_555 1_555
O16 C46 1_555 1_555
N1 C1 1_555 1_555
N2 C1 1_555 1_555
N3 C2 1_555 1_555
N4 C3 1_555 1_555
N5 C5 1_555 1_555
N6 C7 1_555 1_555
N7 C6 1_555 1_555
N8 C9 1_555 1_555
N9 C11 1_555 1_555
N10 C13 1_555 1_555
N11 C12 1_555 1_555
N12 C15 1_555 1_555
N13 C17 1_555 1_555
N14 C19 1_555 1_555
N15 C18 1_555 1_555
N16 C21 1_555 1_555
N17 C23 1_555 1_555
N18 C25 1_555 1_555
N19 C24 1_555 1_555
N20 C27 1_555 1_555
N21 C29 1_555 1_555
N22 C31 1_555 1_555
N23 C30 1_555 1_555
N24 C33 1_555 1_555
N25 C35 1_555 1_555
N26 C37 1_555 1_555
N27 C36 1_555 1_555
N28 C39 1_555 1_555
N29 C41 1_555 1_555
N30 C43 1_555 1_555
N31 C42 1_555 1_555
N32 C45 1_555 1_555
C2 N1 1_555 1_555
H1 C2 1_555 1_555
C3 N2 1_555 1_555
H2 C3 1_555 1_555
C4 N3 1_555 1_555
C5 N2 1_555 1_555
H3 C5 1_555 1_555
H4 C5 1_555 1_555
C6 N4 1_555 1_555
H5 C6 1_555 1_555
H6 C6 1_555 1_555
C7 N5 1_555 1_555
C8 N5 1_555 1_555
H7 C8 1_555 1_555
C9 N6 1_555 1_555
H8 C9 1_555 1_555
C10 N7 1_555 1_555
C11 N6 1_555 1_555
H9 C11 1_555 1_555
H10 C11 1_555 1_555
C12 N8 1_555 1_555
H11 C12 1_555 1_555
H12 C12 1_555 1_555
C13 N9 1_555 1_555
C14 N9 1_555 1_555
H13 C14 1_555 1_555
C15 N10 1_555 1_555
H14 C15 1_555 1_555
C16 N11 1_555 1_555
C17 N10 1_555 1_555
H15 C17 1_555 1_555
H16 C17 1_555 1_555
C18 N12 1_555 1_555
H17 C18 1_555 1_555
H18 C18 1_555 1_555
C19 N13 1_555 1_555
C20 N13 1_555 1_555
H19 C20 1_555 1_555
C21 N14 1_555 1_555
H20 C21 1_555 1_555
C22 N15 1_555 1_555
C23 N14 1_555 1_555
H21 C23 1_555 1_555
H22 C23 1_555 1_555
C24 N16 1_555 1_555
H23 C24 1_555 1_555
H24 C24 1_555 1_555
C25 N17 1_555 1_555
C26 N17 1_555 1_555
H25 C26 1_555 1_555
C27 N18 1_555 1_555
H26 C27 1_555 1_555
C28 N19 1_555 1_555
C29 N18 1_555 1_555
H27 C29 1_555 1_555
H28 C29 1_555 1_555
C30 N20 1_555 1_555
H29 C30 1_555 1_555
H30 C30 1_555 1_555
C31 N21 1_555 1_555
C32 N21 1_555 1_555
H31 C32 1_555 1_555
C33 N22 1_555 1_555
H32 C33 1_555 1_555
C34 N23 1_555 1_555
C35 N22 1_555 1_555
H33 C35 1_555 1_555
H34 C35 1_555 1_555
C36 N24 1_555 1_555
H35 C36 1_555 1_555
H36 C36 1_555 1_555
C37 N25 1_555 1_555
C38 N25 1_555 1_555
H37 C38 1_555 1_555
C39 N26 1_555 1_555
H38 C39 1_555 1_555
C40 N27 1_555 1_555
C41 N26 1_555 1_555
H39 C41 1_555 1_555
H40 C41 1_555 1_555
C42 N28 1_555 1_555
H41 C42 1_555 1_555
H42 C42 1_555 1_555
C43 N29 1_555 1_555
C44 N29 1_555 1_555
H43 C44 1_555 1_555
C45 N30 1_555 1_555
H44 C45 1_555 1_555
C46 N31 1_555 1_555
C47 N1 1_555 1_555
H45 C47 1_555 1_555
H46 C47 1_555 1_555
C48 N3 1_555 1_555
H47 C48 1_555 1_555
H48 C48 1_555 1_555
C49 H49 1_555 1_555
H50 C49 1_555 1_555
H51 C49 1_555 1_555
C50 H52 1_555 1_555
H53 C50 1_555 1_555
H54 C50 1_555 1_555
C51 H55 1_555 1_555
H56 C51 1_555 1_555
H57 C51 1_555 1_555
N33 C49 1_555 1_555
C52 N33 1_555 1_555
H58 C52 1_555 1_555
H59 C52 1_555 1_555
C53 C52 1_555 1_555
H60 C53 1_555 1_555
H61 C53 1_555 1_555
C54 C53 1_555 1_555
H62 C54 1_555 1_555
H63 C54 1_555 1_555
C55 C54 1_555 1_555
H64 C55 1_555 1_555
H65 C55 1_555 1_555
C56 C55 1_555 1_555
H66 C56 1_555 1_555
H67 C56 1_555 1_555
C57 C56 1_555 1_555
H68 C57 1_555 1_555
H69 C57 1_555 1_555
C58 C57 1_555 1_555
H70 C58 1_555 1_555
H71 C58 1_555 1_555
C59 C58 1_555 1_555
H72 C59 1_555 1_555
H73 C59 1_555 1_555
H74 C59 1_555 1_555
N4 C4 1_555 1_555
N7 C8 1_555 1_555
N8 C10 1_555 1_555
N11 C14 1_555 1_555
N12 C16 1_555 1_555
N15 C20 1_555 1_555
N16 C22 1_555 1_555
N19 C26 1_555 1_555
N20 C28 1_555 1_555
N23 C32 1_555 1_555
N24 C34 1_555 1_555
N27 C38 1_555 1_555
N28 C40 1_555 1_555
N30 C47 1_555 1_555
N31 C44 1_555 1_555
N32 C46 1_555 1_555
N32 C48 1_555 1_555
C2 C3 1_555 1_555
C8 C9 1_555 1_555
C14 C15 1_555 1_555
C20 C21 1_555 1_555
C26 C27 1_555 1_555
C32 C33 1_555 1_555
C38 C39 1_555 1_555
C44 C45 1_555 1_555
C50 N33 1_555 1_555
C51 N33 1_555 1_555

#END
