
#######################################################################
#
#                 Cambridge Crystallographic Data Centre
#                                CCDC 
#
#######################################################################
#
# If this CIF has been generated from an entry in the Cambridge 
# Structural Database, then it will include bibliographic, chemical, 
# crystal, experimental, refinement or atomic coordinate data resulting 
# from the CCDC's data processing and validation procedures.
#
#######################################################################

data_POBHIY
_chemical_formula_moiety         
'C13 H30 N1 1+,Br1 1-,C48 H48 N32 O16,16(H2 O1)'
_chemical_name_systematic        
'cucurbit(8)uril trimethyl(decyl)ammonium clathrate bromide hexadecahydrate'
_symmetry_cell_setting           monoclinic
_symmetry_space_group_name_H-M   'P 21'
_symmetry_Int_Tables_number      4
_space_group_name_Hall           'P 2yb'
loop_
_symmetry_equiv_pos_site_id
_symmetry_equiv_pos_as_xyz
1 x,y,z
2 -x,1/2+y,-z
_cell_length_a                   13.334(3)
_cell_length_b                   20.593(4)
_cell_length_c                   15.411(3)
_cell_angle_alpha                90
_cell_angle_beta                 103.84(3)
_cell_angle_gamma                90
_cell_volume                     4108.81
_exptl_crystal_colour            colorless
_exptl_crystal_description       plate
_cell_formula_units_Z            2
loop_
_atom_site_label
_atom_site_type_symbol
_atom_site_fract_x
_atom_site_fract_y
_atom_site_fract_z
Br1 Br -0.91708(7) 0.01657(5) -1.04092(7)
O1 O -0.7509(3) 0.7109(2) -0.2735(3)
O2 O -0.9309(4) 0.4602(2) -0.1458(3)
O3 O -0.8673(3) 0.6577(2) -0.5342(3)
O4 O -1.0271(3) 0.40745(19) -0.4044(3)
O5 O -0.7904(3) 0.5469(2) -0.7231(3)
O6 O -0.9968(4) 0.30669(19) -0.6134(3)
O7 O -0.5738(3) 0.4235(2) -0.7653(3)
O8 O -0.8128(3) 0.19530(19) -0.6673(3)
O9 O -0.3425(4) 0.3749(2) -0.6403(3)
O10 O -0.5811(3) 0.1550(2) -0.5074(3)
O11 O -0.2520(3) 0.4336(2) -0.3953(3)
O12 O -0.4711(5) 0.2099(3) -0.2607(4)
O13 O -0.3182(3) 0.5471(2) -0.1904(3)
O14 O -0.5050(5) 0.3103(3) -0.0357(4)
O15 O -0.5153(4) 0.6574(2) -0.1336(3)
O16 O -0.7128(5) 0.4250(3) 0.0046(3)
N1 N -0.7937(4) 0.6590(2) -0.1530(4)
N2 N -0.9004(4) 0.6507(2) -0.2884(4)
N3 N -0.8694(4) 0.5629(3) -0.1013(4)
N4 N -0.9692(4) 0.5509(2) -0.2385(3)
N5 N -0.9669(4) 0.6176(2) -0.4417(3)
N6 N -0.9850(4) 0.5751(2) -0.5775(4)
N7 N -1.0362(4) 0.5191(2) -0.3916(3)
N8 N -1.0529(4) 0.4762(2) -0.5267(3)
N9 N -0.9459(4) 0.5118(2) -0.6985(3)
N10 N -0.8608(4) 0.4463(2) -0.7708(3)
N11 N -1.0212(4) 0.4150(2) -0.6501(3)
N12 N -0.9511(4) 0.3515(2) -0.7360(3)
N13 N -0.7311(4) 0.3707(2) -0.7975(3)
N14 N -0.5887(4) 0.3128(2) -0.7881(3)
N15 N -0.8310(4) 0.2755(2) -0.7744(3)
N16 N -0.6812(4) 0.2239(2) -0.7340(3)
N17 N -0.4343(4) 0.2798(2) -0.6807(3)
N18 N -0.3241(4) 0.2856(2) -0.5476(4)
N19 N -0.5248(4) 0.1897(2) -0.6308(3)
N20 N -0.4175(4) 0.1982(2) -0.4951(3)
N21 N -0.2577(4) 0.3208(2) -0.3945(3)
N22 N -0.2570(4) 0.3748(3) -0.2694(3)
N23 N -0.3519(4) 0.2344(2) -0.3430(4)
N24 N -0.3392(5) 0.2845(2) -0.2129(4)
N25 N -0.2936(4) 0.4390(2) -0.1492(4)
N26 N -0.3596(4) 0.5053(2) -0.0634(4)
N27 N -0.3669(5) 0.3465(3) -0.0872(4)
N28 N -0.4335(5) 0.4126(3) -0.0038(4)
N29 N -0.4842(4) 0.5788(3) -0.0238(4)
N30 N -0.6334(4) 0.6298(3) -0.0506(3)
N31 N -0.5611(5) 0.4849(3) 0.0322(4)
N32 N -0.7103(4) 0.5368(3) 0.0071(4)
C1 C -0.8080(5) 0.6768(3) -0.2414(5)
C2 C -0.8844(5) 0.6290(3) -0.1346(4)
H1 H -0.9160 0.6569 -0.0953
C3 C -0.9567(5) 0.6210(3) -0.2278(4)
H2 H -1.0245 0.6430 -0.2317
C4 C -0.9239(5) 0.5190(3) -0.1604(4)
C5 C -0.9494(5) 0.6705(3) -0.3775(5)
H3 H -0.9058 0.7038 -0.3971
H4 H -1.0165 0.6909 -0.3773
C6 C -1.0532(4) 0.5209(3) -0.3033(4)
H5 H -1.0629 0.4760 -0.2839
H6 H -1.1176 0.5453 -0.3048
C7 C -0.9330(5) 0.6198(3) -0.5192(5)
C8 C -1.0538(5) 0.5750(3) -0.4504(4)
H7 H -1.1171 0.5993 -0.4453
C9 C -1.0673(4) 0.5447(3) -0.5448(4)
H8 H -1.1370 0.5543 -0.5842
C10 C -1.0382(4) 0.4619(3) -0.4379(4)
C11 C -0.9819(5) 0.5733(3) -0.6711(4)
H9 H -1.0521 0.5820 -0.7083
H10 H -0.9360 0.6084 -0.6825
C12 C -1.0910(5) 0.4274(3) -0.5930(4)
H11 H -1.1586 0.4414 -0.6303
H12 H -1.1019 0.3865 -0.5626
C13 C -0.8582(5) 0.5066(3) -0.7302(4)
C14 C -1.0145(4) 0.4566(2) -0.7240(4)
H13 H -1.0843 0.4703 -0.7593
C15 C -0.9583(5) 0.4136(3) -0.7798(4)
H14 H -0.9976 0.4107 -0.8437
C16 C -0.9900(5) 0.3530(3) -0.6618(4)
C17 C -0.7918(5) 0.4299(3) -0.8265(4)
H15 H -0.7438 0.4666 -0.8263
H16 H -0.8326 0.4238 -0.8886
C18 C -0.9369(5) 0.2916(3) -0.7796(4)
H17 H -0.9686 0.2559 -0.7523
H18 H -0.9740 0.2945 -0.8433
C19 C -0.6270(5) 0.3739(3) -0.7830(4)
C20 C -0.7684(5) 0.3067(3) -0.8277(4)
H19 H -0.8045 0.3069 -0.8925
C21 C -0.6700(5) 0.2644(3) -0.8102(4)
H20 H -0.6656 0.2378 -0.8634
C22 C -0.7786(5) 0.2286(3) -0.7202(4)
C23 C -0.4803(5) 0.2984(3) -0.7723(4)
H21 H -0.4438 0.3371 -0.7875
H22 H -0.4705 0.2627 -0.8125
C24 C -0.6122(5) 0.1711(3) -0.6992(4)
H23 H -0.6512 0.1374 -0.6751
H24 H -0.5876 0.1513 -0.7490
C25 C -0.3654(5) 0.3201(3) -0.6253(4)
C26 C -0.4297(5) 0.2142(3) -0.6490(4)
H25 H -0.4029 0.1842 -0.6892
C27 C -0.3555(5) 0.2181(3) -0.5565(4)
H26 H -0.2948 0.1888 -0.5521
C28 C -0.5156(4) 0.1789(3) -0.5414(4)
C29 C -0.2381(5) 0.3104(3) -0.4812(4)
H27 H -0.2164 0.3522 -0.5029
H28 H -0.1798 0.2797 -0.4749
C30 C -0.3751(5) 0.1793(3) -0.4033(4)
H29 H -0.3110 0.1541 -0.3997
H30 H -0.4250 0.1506 -0.3836
C31 C -0.2557(4) 0.3819(3) -0.3577(4)
C32 C -0.2564(5) 0.2702(3) -0.3298(4)
H31 H -0.1959 0.2406 -0.3252
C33 C -0.2500(5) 0.3074(3) -0.2418(4)
H32 H -0.1841 0.2981 -0.1966
C34 C -0.3937(6) 0.2391(3) -0.2703(5)
C35 C -0.2234(5) 0.4260(3) -0.2055(5)
H33 H -0.2145 0.4662 -0.2380
H34 H -0.1551 0.4142 -0.1671
C36 C -0.3391(7) 0.2835(3) -0.1191(5)
H35 H -0.2695 0.2710 -0.0840
H36 H -0.3886 0.2503 -0.1089
C37 C -0.3225(5) 0.5028(3) -0.1395(4)
C38 C -0.2956(5) 0.3997(3) -0.0721(4)
H37 H -0.2246 0.3849 -0.0412
C39 C -0.3409(5) 0.4463(3) -0.0116(5)
H38 H -0.2920 0.4533 0.0478
C40 C -0.4418(6) 0.3529(3) -0.0415(5)
C41 C -0.3762(5) 0.5674(3) -0.0237(4)
H39 H -0.3520 0.6028 -0.0573
H40 H -0.3341 0.5689 0.0386
C42 C -0.4915(6) 0.4319(3) 0.0611(5)
H41 H -0.5314 0.3941 0.0741
H42 H -0.4421 0.4444 0.1175
C43 C -0.5399(5) 0.6252(3) -0.0751(4)
C44 C -0.5310(5) 0.5523(3) 0.0445(4)
H43 H -0.4882 0.5610 0.1061
C45 C -0.6372(5) 0.5901(3) 0.0250(4)
H44 H -0.6448 0.6167 0.0774
C46 C -0.6664(6) 0.4769(3) 0.0125(4)
C47 C -0.7072(6) 0.6805(3) -0.0842(5)
H45 H -0.7330 0.6984 -0.0340
H46 H -0.6717 0.7160 -0.1083
C48 C -0.8216(5) 0.5467(4) -0.0103(4)
H47 H -0.8539 0.5066 0.0058
H48 H -0.8355 0.5820 0.0289
N33 N -0.7714(5) 0.2641(3) -0.3975(5)
C49 C -0.7430(16) 0.2916(9) -0.3030(11)
H49 H -0.7975 0.3212 -0.2947
H50 H -0.6776 0.3153 -0.2938
H51 H -0.7357 0.2559 -0.2598
C51 C -0.7411(12) 0.1933(7) -0.3902(15)
H55 H -0.7919 0.1680 -0.4335
H56 H -0.7388 0.1778 -0.3296
H57 H -0.6728 0.1882 -0.4026
C53 C -0.8905(15) 0.2572(10) -0.4105(11)
H61 H -0.9256 0.2745 -0.4691
H62 H -0.9125 0.2814 -0.3636
H63 H -0.9082 0.2112 -0.4071
C55 C -0.7385(12) 0.2934(8) -0.4726(8)
H67 H -0.7956 0.3220 -0.5036
H68 H -0.7343 0.2577 -0.5145
C56 C -0.6404(12) 0.3322(12) -0.4614(10)
H69 H -0.6454 0.3694 -0.4219
H70 H -0.5830 0.3045 -0.4286
C57 C -0.6091(11) 0.3587(8) -0.5412(8)
H71 H -0.6715 0.3723 -0.5865
H72 H -0.5742 0.3242 -0.5678
C58 C -0.5360(12) 0.4170(9) -0.5168(16)
H73 H -0.5054 0.4169 -0.4516
H74 H -0.4791 0.4130 -0.5475
C59 C -0.5920(18) 0.4804(8) -0.5430(13)
H75 H -0.5384 0.5126 -0.5479
H76 H -0.6352 0.4741 -0.6043
C60 C -0.6600(17) 0.5131(13) -0.4913(15)
H77 H -0.6838 0.5549 -0.5209
H78 H -0.7218 0.4857 -0.4951
C61 C -0.6139(17) 0.5260(11) -0.3978(13)
H79 H -0.5834 0.5701 -0.3900
H80 H -0.5591 0.4939 -0.3735
C62 C -0.7028(17) 0.5202(11) -0.3510(12)
H81 H -0.7515 0.5570 -0.3677
H82 H -0.7411 0.4791 -0.3678
C63 C -0.653(2) 0.5214(12) -0.2517(13)
H83 H -0.6980 0.5463 -0.2210
H84 H -0.5862 0.5442 -0.2417
C64 C -0.636(2) 0.4540(12) -0.2105(12)
H85 H -0.6174 0.4577 -0.1452
H86 H -0.5792 0.4326 -0.2303
H87 H -0.6988 0.4282 -0.2295
O17 O -0.7036(4) 0.0450(3) -0.4949(4)
O18 O 0.0120(5) -0.1607(3) -0.7538(3)
O19 O 0.055(2) 0.2074(9) -0.2542(16)
O20 O -0.8658(5) 0.1190(4) 0.1267(5)
O21 O -0.2353(14) 0.1558(9) -0.1707(13)
O22 O -0.5721(7) 0.1890(4) -0.1257(6)
O23 O -0.9970(8) -0.1263(6) -0.9896(5)
O24 O -0.5849(10) 0.0176(6) -0.3110(8)
O26 O -0.382(2) 0.0797(17) -0.229(2)
O28 O -0.8480(9) 0.3314(5) -0.0858(8)
O29 O -0.7111(17) -0.0686(10) -1.2120(13)
O33 O -0.7555(12) 0.0569(8) -1.2400(12)
O36 O -0.7675(15) 0.1650(11) -1.1442(15)
O38 O -0.808(2) 0.2100(13) 0.0025(17)
O40 O -0.869(4) -0.217(2) -1.034(3)
O44 O -0.0174(16) 0.1565(10) -0.1090(19)
C50? C -0.8388(14) 0.3184(8) -0.3920(12)
H52? H -0.8982 0.3177 -0.4437
H53? H -0.8008 0.3591 -0.3916
H54? H -0.8630 0.3150 -0.3369
C52? C -0.6833(18) 0.2525(15) -0.3329(14)
H58? H -0.6532 0.2939 -0.3080
H59? H -0.6336 0.2292 -0.3592
H60? H -0.6999 0.2261 -0.2854
C54? C -0.828(2) 0.2073(9) -0.4450(16)
H64? H -0.8890 0.2223 -0.4892
H65? H -0.8493 0.1788 -0.4018
H66? H -0.7825 0.1833 -0.4752
O25? O -0.6258(13) 0.0857(9) -0.3238(12)
O27? O -0.4245(12) 0.0515(7) -0.2419(10)
O30? O -0.7773(19) -0.1407(17) -1.1929(10)
O31? O -0.802(2) -0.1780(11) -1.166(3)
O32? O -0.715(3) -0.037(3) -1.227(3)
O34? O -0.7748(17) 0.1243(19) -1.1944(18)
O35? O -0.7372(15) 0.0061(16) -1.2186(16)
O37? O -0.7231(14) 0.2999(8) -0.0272(13)
O39? O -0.856(2) 0.2076(13) 0.0107(16)
O41? O -0.851(3) -0.209(2) -1.065(2)
O42? O -0.010(3) 0.2168(13) -0.183(3)
O43? O 0.020(6) 0.2145(18) -0.232(2)
O45? O -0.178(4) 0.1685(15) -0.166(3)
O46? O -0.201(3) 0.163(2) -0.163(3)
O47? O -0.810(3) 0.188(2) -0.069(3)
O48? O -0.880(3) 0.247(2) -0.148(3)
O49? O -0.920(3) -0.239(2) -0.999(2)
loop_
_geom_bond_atom_site_label_1
_geom_bond_atom_site_label_2
_geom_bond_site_symmetry_1
_geom_bond_site_symmetry_2
O1 C1 1_555 1_555
O2 C4 1_555 1_555
O3 C7 1_555 1_555
O4 C10 1_555 1_555
O5 C13 1_555 1_555
O6 C16 1_555 1_555
O7 C19 1_555 1_555
O8 C22 1_555 1_555
O9 C25 1_555 1_555
O10 C28 1_555 1_555
O11 C31 1_555 1_555
O12 C34 1_555 1_555
O13 C37 1_555 1_555
O14 C40 1_555 1_555
O15 C43 1_555 1_555
O16 C46 1_555 1_555
N1 C1 1_555 1_555
N2 C1 1_555 1_555
N3 C2 1_555 1_555
N4 C3 1_555 1_555
N5 C5 1_555 1_555
N6 C7 1_555 1_555
N7 C6 1_555 1_555
N8 C9 1_555 1_555
N9 C11 1_555 1_555
N10 C13 1_555 1_555
N11 C12 1_555 1_555
N12 C15 1_555 1_555
N13 C17 1_555 1_555
N14 C19 1_555 1_555
N15 C18 1_555 1_555
N16 C21 1_555 1_555
N17 C23 1_555 1_555
N18 C25 1_555 1_555
N19 C24 1_555 1_555
N20 C27 1_555 1_555
N21 C29 1_555 1_555
N22 C31 1_555 1_555
N23 C30 1_555 1_555
N24 C33 1_555 1_555
N25 C35 1_555 1_555
N26 C37 1_555 1_555
N27 C36 1_555 1_555
N28 C39 1_555 1_555
N29 C41 1_555 1_555
N30 C43 1_555 1_555
N31 C42 1_555 1_555
N32 C45 1_555 1_555
C2 N1 1_555 1_555
H1 C2 1_555 1_555
C3 N2 1_555 1_555
H2 C3 1_555 1_555
C4 N3 1_555 1_555
C5 N2 1_555 1_555
H3 C5 1_555 1_555
H4 C5 1_555 1_555
C6 N4 1_555 1_555
H5 C6 1_555 1_555
H6 C6 1_555 1_555
C7 N5 1_555 1_555
C8 N5 1_555 1_555
H7 C8 1_555 1_555
C9 N6 1_555 1_555
H8 C9 1_555 1_555
C10 N7 1_555 1_555
C11 N6 1_555 1_555
H9 C11 1_555 1_555
H10 C11 1_555 1_555
C12 N8 1_555 1_555
H11 C12 1_555 1_555
H12 C12 1_555 1_555
C13 N9 1_555 1_555
C14 N9 1_555 1_555
H13 C14 1_555 1_555
C15 N10 1_555 1_555
H14 C15 1_555 1_555
C16 N11 1_555 1_555
C17 N10 1_555 1_555
H15 C17 1_555 1_555
H16 C17 1_555 1_555
C18 N12 1_555 1_555
H17 C18 1_555 1_555
H18 C18 1_555 1_555
C19 N13 1_555 1_555
C20 N13 1_555 1_555
H19 C20 1_555 1_555
C21 N14 1_555 1_555
H20 C21 1_555 1_555
C22 N15 1_555 1_555
C23 N14 1_555 1_555
H21 C23 1_555 1_555
H22 C23 1_555 1_555
C24 N16 1_555 1_555
H23 C24 1_555 1_555
H24 C24 1_555 1_555
C25 N17 1_555 1_555
C26 N17 1_555 1_555
H25 C26 1_555 1_555
C27 N18 1_555 1_555
H26 C27 1_555 1_555
C28 N19 1_555 1_555
C29 N18 1_555 1_555
H27 C29 1_555 1_555
H28 C29 1_555 1_555
C30 N20 1_555 1_555
H29 C30 1_555 1_555
H30 C30 1_555 1_555
C31 N21 1_555 1_555
C32 N21 1_555 1_555
H31 C32 1_555 1_555
C33 N22 1_555 1_555
H32 C33 1_555 1_555
C34 N23 1_555 1_555
C35 N22 1_555 1_555
H33 C35 1_555 1_555
H34 C35 1_555 1_555
C36 N24 1_555 1_555
H35 C36 1_555 1_555
H36 C36 1_555 1_555
C37 N25 1_555 1_555
C38 N25 1_555 1_555
H37 C38 1_555 1_555
C39 N26 1_555 1_555
H38 C39 1_555 1_555
C40 N27 1_555 1_555
C41 N26 1_555 1_555
H39 C41 1_555 1_555
H40 C41 1_555 1_555
C42 N28 1_555 1_555
H41 C42 1_555 1_555
H42 C42 1_555 1_555
C43 N29 1_555 1_555
C44 N29 1_555 1_555
H43 C44 1_555 1_555
C45 N30 1_555 1_555
H44 C45 1_555 1_555
C46 N31 1_555 1_555
C47 N1 1_555 1_555
H45 C47 1_555 1_555
H46 C47 1_555 1_555
C48 N3 1_555 1_555
H47 C48 1_555 1_555
H48 C48 1_555 1_555
N33 C49 1_555 1_555
C49 H49 1_555 1_555
H50 C49 1_555 1_555
H51 C49 1_555 1_555
C51 N33 1_555 1_555
H55 C51 1_555 1_555
H56 C51 1_555 1_555
H57 C51 1_555 1_555
C53 N33 1_555 1_555
H61 C53 1_555 1_555
H62 C53 1_555 1_555
H63 C53 1_555 1_555
C55 N33 1_555 1_555
H67 C55 1_555 1_555
H68 C55 1_555 1_555
C56 C55 1_555 1_555
H69 C56 1_555 1_555
H70 C56 1_555 1_555
C57 C56 1_555 1_555
H71 C57 1_555 1_555
H72 C57 1_555 1_555
C58 C57 1_555 1_555
H73 C58 1_555 1_555
H74 C58 1_555 1_555
C59 C58 1_555 1_555
H75 C59 1_555 1_555
H76 C59 1_555 1_555
C60 C59 1_555 1_555
H77 C60 1_555 1_555
H78 C60 1_555 1_555
C61 C60 1_555 1_555
H79 C61 1_555 1_555
H80 C61 1_555 1_555
C62 C61 1_555 1_555
H81 C62 1_555 1_555
H82 C62 1_555 1_555
C63 C62 1_555 1_555
H83 C63 1_555 1_555
H84 C63 1_555 1_555
C64 C63 1_555 1_555
H85 C64 1_555 1_555
H86 C64 1_555 1_555
H87 C64 1_555 1_555
N4 C4 1_555 1_555
N7 C8 1_555 1_555
N8 C10 1_555 1_555
N11 C14 1_555 1_555
N12 C16 1_555 1_555
N15 C20 1_555 1_555
N16 C22 1_555 1_555
N19 C26 1_555 1_555
N20 C28 1_555 1_555
N23 C32 1_555 1_555
N24 C34 1_555 1_555
N27 C38 1_555 1_555
N28 C40 1_555 1_555
N30 C47 1_555 1_555
N31 C44 1_555 1_555
N32 C46 1_555 1_555
N32 C48 1_555 1_555
C2 C3 1_555 1_555
C8 C9 1_555 1_555
C14 C15 1_555 1_555
C20 C21 1_555 1_555
C26 C27 1_555 1_555
C32 C33 1_555 1_555
C38 C39 1_555 1_555
C44 C45 1_555 1_555

#END
