
#######################################################################
#
#                 Cambridge Crystallographic Data Centre
#                                CCDC 
#
#######################################################################
#
# If this CIF has been generated from an entry in the Cambridge 
# Structural Database, then it will include bibliographic, chemical, 
# crystal, experimental, refinement or atomic coordinate data resulting 
# from the CCDC's data processing and validation procedures.
#
#######################################################################

data_POBHUL
_chemical_formula_moiety         'C28 H29 N3 O2'
_chemical_name_systematic        
'ethyl 1,3-dicyano-4-(cyclohexylamino)-2,5-diphenylcyclopent-3-ene-1-carboxylate'
_symmetry_cell_setting           orthorhombic
_symmetry_space_group_name_H-M   'A b a 2'
_symmetry_Int_Tables_number      41
_space_group_name_Hall           'A 2 -2ab'
loop_
_symmetry_equiv_pos_site_id
_symmetry_equiv_pos_as_xyz
1 x,y,z
2 -x,-y,z
3 1/2+x,1/2-y,z
4 1/2-x,1/2+y,z
5 x,1/2+y,1/2+z
6 -x,1/2-y,1/2+z
7 1/2+x,-y,1/2+z
8 1/2-x,y,1/2+z
_cell_length_a                   13.7720(12)
_cell_length_b                   27.468(2)
_cell_length_c                   13.3251(13)
_cell_angle_alpha                90
_cell_angle_beta                 90
_cell_angle_gamma                90
_cell_volume                     5040.74
_cell_formula_units_Z            8
loop_
_atom_site_label
_atom_site_type_symbol
_atom_site_fract_x
_atom_site_fract_y
_atom_site_fract_z
N1 N 0.2928(3) 0.43813(15) 0.3108(4)
H1 H 0.3132 0.4370 0.2498
N2 N 0.3607(3) 0.22980(18) 0.3777(4)
N3 N 0.1801(4) 0.44301(19) 0.5834(4)
O1 O 0.5375(2) 0.29819(12) 0.4618(3)
O2 O 0.5086(3) 0.37838(13) 0.4535(3)
C1 C 0.3066(4) 0.39892(19) 0.3673(4)
C2 C 0.3481(4) 0.35338(18) 0.3190(4)
H2 H 0.2923 0.3360 0.2907
C3 C 0.3811(4) 0.32274(16) 0.4117(4)
C4 C 0.3049(4) 0.33792(17) 0.4953(4)
H3 H 0.2466 0.3180 0.4859
C5 C 0.2805(4) 0.38960(17) 0.4648(4)
C6 C 0.4218(4) 0.35662(19) 0.2352(4)
C7 C 0.4878(4) 0.3936(2) 0.2258(5)
H4 H 0.4886 0.4191 0.2717
C8 C 0.5529(5) 0.3925(3) 0.1474(5)
H5 H 0.5981 0.4175 0.1410
C9 C 0.5527(5) 0.3560(3) 0.0795(5)
H6 H 0.5969 0.3563 0.0267
C10 C 0.4888(5) 0.3191(2) 0.0878(5)
H7 H 0.4898 0.2934 0.0424
C11 C 0.4227(4) 0.3200(2) 0.1636(5)
H8 H 0.3768 0.2952 0.1676
C12 C 0.4835(4) 0.3369(2) 0.4443(4)
C13 C 0.6370(4) 0.3078(2) 0.4949(5)
H9 H 0.6642 0.3337 0.4544
H10 H 0.6760 0.2788 0.4842
C14 C 0.6423(5) 0.3219(2) 0.6035(5)
H11 H 0.6071 0.3516 0.6138
H12 H 0.7089 0.3265 0.6224
H13 H 0.6143 0.2966 0.6439
C15 C 0.3717(4) 0.2703(2) 0.3914(4)
C16 C 0.3422(4) 0.32912(19) 0.6015(4)
C17 C 0.3825(4) 0.3661(2) 0.6602(5)
H14 H 0.3865 0.3976 0.6353
C18 C 0.4169(5) 0.3555(3) 0.7563(5)
H15 H 0.4433 0.3802 0.7956
C19 C 0.4119(5) 0.3089(3) 0.7933(6)
H16 H 0.4344 0.3022 0.8576
C20 C 0.3737(5) 0.2723(3) 0.7352(5)
H17 H 0.3720 0.2406 0.7596
C21 C 0.3381(4) 0.2825(2) 0.6411(4)
H18 H 0.3106 0.2576 0.6033
C22 C 0.2258(5) 0.4196(2) 0.5293(5)
C23 C 0.2458(6) 0.48293(19) 0.3440(5)
C24 C 0.3081(10) 0.5148(5) 0.4004(12)
H19 H 0.3640 0.5237 0.3602
H20 H 0.3310 0.4983 0.4602
C25 C 0.2514(12) 0.5606(5) 0.4298(12)
H21 H 0.1996 0.5517 0.4757
H22 H 0.2944 0.5829 0.4646
C26 C 0.208(2) 0.5860(12) 0.339(3)
H23 H 0.2600 0.5967 0.2947
H24 H 0.1723 0.6146 0.3604
C27 C 0.1397(15) 0.5519(6) 0.2806(15)
H25 H 0.1156 0.5682 0.2210
H26 H 0.0847 0.5432 0.3223
C28 C 0.1964(10) 0.5057(4) 0.2506(10)
H27 H 0.2454 0.5140 0.2012
H28 H 0.1524 0.4823 0.2207
C29? C 0.2994(11) 0.5276(4) 0.3024(14)
H29? H 0.3672 0.5254 0.3216
H30? H 0.2964 0.5266 0.2297
C30? C 0.259(2) 0.5767(11) 0.338(3)
H31? H 0.2907 0.6030 0.3017
H32? H 0.2726 0.5810 0.4090
C31? C 0.149(2) 0.5781(10) 0.319(2)
H33? H 0.1230 0.6088 0.3428
H34? H 0.1363 0.5753 0.2482
C32? C 0.1009(11) 0.5359(5) 0.3756(14)
H35? H 0.1129 0.5394 0.4470
H36? H 0.0313 0.5372 0.3649
C33? C 0.1392(11) 0.4867(4) 0.3405(12)
H37? H 0.1115 0.4614 0.3824
H38? H 0.1177 0.4811 0.2722
loop_
_geom_bond_atom_site_label_1
_geom_bond_atom_site_label_2
_geom_bond_site_symmetry_1
_geom_bond_site_symmetry_2
N1 H1 1_555 1_555
N2 C15 1_555 1_555
N3 C22 1_555 1_555
O1 C12 1_555 1_555
O2 C12 1_555 1_555
C1 N1 1_555 1_555
C2 C1 1_555 1_555
H2 C2 1_555 1_555
C3 C2 1_555 1_555
C4 C3 1_555 1_555
H3 C4 1_555 1_555
C5 C1 1_555 1_555
C6 C2 1_555 1_555
C7 C6 1_555 1_555
H4 C7 1_555 1_555
C8 C7 1_555 1_555
H5 C8 1_555 1_555
C9 C8 1_555 1_555
H6 C9 1_555 1_555
C10 C9 1_555 1_555
H7 C10 1_555 1_555
C11 C6 1_555 1_555
H8 C11 1_555 1_555
C12 C3 1_555 1_555
C13 O1 1_555 1_555
H9 C13 1_555 1_555
H10 C13 1_555 1_555
C14 C13 1_555 1_555
H11 C14 1_555 1_555
H12 C14 1_555 1_555
H13 C14 1_555 1_555
C15 C3 1_555 1_555
C16 C4 1_555 1_555
C17 C16 1_555 1_555
H14 C17 1_555 1_555
C18 C17 1_555 1_555
H15 C18 1_555 1_555
C19 C18 1_555 1_555
H16 C19 1_555 1_555
C20 C19 1_555 1_555
H17 C20 1_555 1_555
C21 C16 1_555 1_555
H18 C21 1_555 1_555
C22 C5 1_555 1_555
C23 N1 1_555 1_555
C24 C23 1_555 1_555
H19 C24 1_555 1_555
H20 C24 1_555 1_555
C25 C24 1_555 1_555
H21 C25 1_555 1_555
H22 C25 1_555 1_555
C26 C25 1_555 1_555
H23 C26 1_555 1_555
H24 C26 1_555 1_555
C27 C26 1_555 1_555
H25 C27 1_555 1_555
H26 C27 1_555 1_555
C28 C23 1_555 1_555
H27 C28 1_555 1_555
H28 C28 1_555 1_555
C4 C5 1_555 1_555
C10 C11 1_555 1_555
C20 C21 1_555 1_555
C27 C28 1_555 1_555

#END
