
#######################################################################
#
#                 Cambridge Crystallographic Data Centre
#                                CCDC 
#
#######################################################################
#
# If this CIF has been generated from an entry in the Cambridge 
# Structural Database, then it will include bibliographic, chemical, 
# crystal, experimental, refinement or atomic coordinate data resulting 
# from the CCDC's data processing and validation procedures.
#
#######################################################################

data_POBJUN
_chemical_formula_moiety         'C21 H24 F1 N1 O2 S1'
_chemical_name_systematic        
'N-(1-(4-fluorophenyl)-1-(1-oxo-2,3-dihydro-1H-inden-2-yl)ethyl)-2-methylpropane-2-sulfinamide unknown solvate'
_symmetry_cell_setting           hexagonal
_symmetry_space_group_name_H-M   'P 65'
_symmetry_Int_Tables_number      170
_space_group_name_Hall           'P 65'
loop_
_symmetry_equiv_pos_site_id
_symmetry_equiv_pos_as_xyz
1 x,y,z
2 -y,x-y,2/3+z
3 -x+y,-x,1/3+z
4 -x,-y,1/2+z
5 y,-x+y,1/6+z
6 x-y,x,5/6+z
_cell_length_a                   16.1494(15)
_cell_length_b                   16.1494(15)
_cell_length_c                   15.1345(14)
_cell_angle_alpha                90
_cell_angle_beta                 90
_cell_angle_gamma                120
_cell_volume                     3418.31
_cell_formula_units_Z            6
loop_
_atom_site_label
_atom_site_type_symbol
_atom_site_fract_x
_atom_site_fract_y
_atom_site_fract_z
C1 C 0.69884(16) 0.82884(16) -0.16813(15)
C2 C 0.7611(2) 0.8325(2) -0.23406(18)
H1 H 0.8017 0.8080 -0.2242
C3 C 0.7611(3) 0.8728(3) -0.3132(2)
H2 H 0.8023 0.8768 -0.3580
C4 C 0.6988(3) 0.9080(4) -0.3265(2)
H3 H 0.6993 0.9352 -0.3808
C5 C 0.6367(2) 0.9040(3) -0.26214(19)
H4 H 0.5957 0.9277 -0.2725
C6 C 0.63706(16) 0.86356(16) -0.18121(15)
C7 C 0.57597(17) 0.84897(18) -0.10124(15)
H5 H 0.5091 0.8057 -0.1144
H6 H 0.5834 0.9093 -0.0811
C8 C 0.61215(14) 0.80572(14) -0.03098(13)
H7 H 0.6457 0.8544 0.0146
C9 C 0.68645(15) 0.78931(16) -0.07936(15)
C10 C 0.53375(13) 0.71436(13) 0.01533(11)
C11 C 0.49104(18) 0.63088(17) -0.05010(17)
H8 H 0.5391 0.6155 -0.0670
H9 H 0.4687 0.6486 -0.1016
H10 H 0.4385 0.5762 -0.0228
C12 C 0.45914(13) 0.73421(13) 0.05725(13)
C13 C 0.36244(15) 0.67867(18) 0.03858(16)
H11 H 0.3422 0.6303 -0.0033
C14 C 0.29578(18) 0.6941(2) 0.0812(2)
H12 H 0.2309 0.6561 0.0690
C15 C 0.32668(19) 0.7652(2) 0.14089(17)
C16 C 0.42144(18) 0.82376(18) 0.16172(15)
H13 H 0.4406 0.8726 0.2031
C17 C 0.48710(15) 0.80688(15) 0.11850(14)
H14 H 0.5518 0.8455 0.1310
C18 C 0.61318(16) 0.64693(15) 0.24688(14)
C19 C 0.70174(17) 0.6501(2) 0.2090(2)
H15 H 0.7320 0.7021 0.1679
H16 H 0.6838 0.5910 0.1793
H17 H 0.7454 0.6592 0.2561
C20 C 0.6317(2) 0.7423(2) 0.28252(18)
H18 H 0.6644 0.7547 0.3381
H19 H 0.5720 0.7406 0.2907
H20 H 0.6705 0.7919 0.2414
C21 C 0.5661(2) 0.5686(2) 0.31699(19)
H21 H 0.6094 0.5826 0.3655
H22 H 0.5508 0.5080 0.2916
H23 H 0.5087 0.5659 0.3378
F1 F 0.26076(14) 0.78094(18) 0.18305(13)
N1 N 0.58520(11) 0.69722(11) 0.08867(10)
H24 H 0.6288 0.6948 0.0687
O1 O 0.72685(14) 0.74904(14) -0.04837(13)
O2 O 0.50253(15) 0.51673(11) 0.12829(13)
S1 S 0.52107(4) 0.61083(3) 0.16034(4)
loop_
_geom_bond_atom_site_label_1
_geom_bond_atom_site_label_2
_geom_bond_site_symmetry_1
_geom_bond_site_symmetry_2
C1 C2 1_555 1_555
C2 H1 1_555 1_555
C3 C2 1_555 1_555
H2 C3 1_555 1_555
C4 C3 1_555 1_555
H3 C4 1_555 1_555
C5 C4 1_555 1_555
H4 C5 1_555 1_555
C6 C1 1_555 1_555
C7 C6 1_555 1_555
H5 C7 1_555 1_555
H6 C7 1_555 1_555
C8 C7 1_555 1_555
H7 C8 1_555 1_555
C9 C1 1_555 1_555
C10 C8 1_555 1_555
C11 C10 1_555 1_555
H8 C11 1_555 1_555
H9 C11 1_555 1_555
H10 C11 1_555 1_555
C12 C10 1_555 1_555
C13 C12 1_555 1_555
H11 C13 1_555 1_555
C14 C13 1_555 1_555
H12 C14 1_555 1_555
C15 C14 1_555 1_555
C16 C15 1_555 1_555
H13 C16 1_555 1_555
C17 C12 1_555 1_555
H14 C17 1_555 1_555
C18 C19 1_555 1_555
C19 H15 1_555 1_555
H16 C19 1_555 1_555
H17 C19 1_555 1_555
C20 C18 1_555 1_555
H18 C20 1_555 1_555
H19 C20 1_555 1_555
H20 C20 1_555 1_555
C21 C18 1_555 1_555
H21 C21 1_555 1_555
H22 C21 1_555 1_555
H23 C21 1_555 1_555
F1 C15 1_555 1_555
N1 C10 1_555 1_555
H24 N1 1_555 1_555
O1 C9 1_555 1_555
O2 S1 1_555 1_555
S1 C18 1_555 1_555
C5 C6 1_555 1_555
C8 C9 1_555 1_555
C16 C17 1_555 1_555
N1 S1 1_555 1_555

#END
