
#######################################################################
#
#                 Cambridge Crystallographic Data Centre
#                                CCDC 
#
#######################################################################
#
# If this CIF has been generated from an entry in the Cambridge 
# Structural Database, then it will include bibliographic, chemical, 
# crystal, experimental, refinement or atomic coordinate data resulting 
# from the CCDC's data processing and validation procedures.
#
#######################################################################

data_POBJOG
_chemical_formula_moiety         'C15 H16 O5'
_chemical_name_systematic        
ent-2-phenylhexahydrofuro[2',3':5,6]pyrano[3,2-d][1,3]dioxin-7(4H)-one
_symmetry_cell_setting           orthorhombic
_symmetry_space_group_name_H-M   'P 21 21 21'
_symmetry_Int_Tables_number      19
_space_group_name_Hall           'P 2ac 2ab'
loop_
_symmetry_equiv_pos_site_id
_symmetry_equiv_pos_as_xyz
1 x,y,z
2 1/2+x,1/2-y,-z
3 -x,1/2+y,1/2-z
4 1/2-x,-y,1/2+z
_cell_length_a                   9.9274(7)
_cell_length_b                   14.304(1)
_cell_length_c                   19.166(2)
_cell_angle_alpha                90
_cell_angle_beta                 90
_cell_angle_gamma                90
_cell_volume                     2721.6
_exptl_crystal_colour            colorless
_exptl_crystal_description       block
_cell_formula_units_Z            8
loop_
_atom_site_label
_atom_site_type_symbol
_atom_site_fract_x
_atom_site_fract_y
_atom_site_fract_z
O1 O 0.4651(4) -0.0784(3) 0.0083(2)
O2 O 0.5779(4) -0.1589(3) 0.0872(2)
O3 O 0.8581(3) -0.1234(3) 0.0340(2)
O4 O 0.9644(3) -0.1812(2) 0.1823(2)
O5 O 1.1213(3) -0.0998(3) 0.1176(2)
C1 C 1.227(1) -0.0046(6) 0.3545(6)
C2 C 1.302(1) -0.0011(5) 0.2964(7)
C3 C 1.2637(6) -0.0523(4) 0.2382(4)
C4 C 1.110(1) -0.0560(6) 0.3571(4)
C5 C 1.0695(6) -0.1052(4) 0.2995(3)
C6 C 1.1439(5) -0.1038(3) 0.2396(3)
C7 C 1.1018(5) -0.1570(4) 0.1759(3)
C8 C 1.0942(6) -0.1528(5) 0.0555(3)
C9 C 0.9559(6) -0.1911(4) 0.0553(3)
C10 C 0.9186(6) -0.2364(3) 0.1247(3)
C11 C 0.7682(6) -0.2460(4) 0.1318(4)
C12 C 0.7021(5) -0.1507(4) 0.1275(3)
C13 C 0.7844(5) -0.0794(3) 0.0884(3)
C14 C 0.6771(5) -0.0208(3) 0.0538(3)
C15 C 0.5616(6) -0.0850(4) 0.0456(3)
H17 H 1.2548 0.0283 0.3938
H18 H 1.3795 0.0354 0.2951
H19 H 1.3174 -0.0523 0.1984
H20 H 1.0583 -0.0572 0.3977
H21 H 0.9904 -0.1400 0.3012
H22 H 1.1563 -0.2138 0.1713
H23 H 0.9599 -0.2986 0.1272
H24 H 0.7467 -0.2750 0.1762
H25 H 0.7338 -0.2858 0.0949
H26 H 0.6820 -0.1277 0.1746
H27 H 1.1582 -0.2039 0.0522
H28 H 1.1063 -0.1130 0.0150
H29 H 0.9543 -0.2409 0.0202
H30 H 0.8422 -0.0426 0.1194
H31 H 0.6530 0.0322 0.0828
H32 H 0.7076 0.0020 0.0088
O6 O -0.0709(4) 0.1128(4) 0.0493(3)
O7 O 0.1501(5) 0.1052(3) 0.0341(2)
O8 O 0.2223(3) 0.2660(2) 0.1259(2)
O9 O 0.5142(3) 0.1835(2) 0.1358(2)
O10 O 0.4659(3) 0.2930(2) 0.2210(2)
C16 C 0.7759(6) 0.0711(4) 0.3364(3)
C17 C 0.8123(6) 0.0721(4) 0.2681(3)
C18 C 0.7451(5) 0.1282(3) 0.2209(3)
C19 C 0.6690(6) 0.1240(4) 0.3574(3)
C20 C 0.6000(5) 0.1799(4) 0.3103(3)
C21 C 0.6374(4) 0.1814(3) 0.2412(2)
C22 C 0.5682(4) 0.2421(3) 0.1879(3)
C23 C 0.4070(6) 0.3571(4) 0.1721(3)
C24 C 0.3514(4) 0.3066(3) 0.1105(3)
C25 C 0.4507(4) 0.2372(3) 0.0814(3)
C26 C 0.3801(5) 0.1675(4) 0.0354(3)
C27 C 0.2723(5) 0.1161(4) 0.0763(3)
C28 C 0.2250(5) 0.1672(3) 0.1401(3)
C29 C 0.0790(5) 0.1380(4) 0.1464(4)
C30 C 0.0394(7) 0.1194(5) 0.0758(5)
H1 H 0.8231 0.0348 0.3684
H2 H 0.8832 0.0347 0.2530
H3 H 0.7735 0.1298 0.1746
H4 H 0.6420 0.1227 0.4039
H5 H 0.5282 0.2164 0.3254
H6 H 0.6336 0.2852 0.1671
H7 H 0.4748 0.4014 0.1567
H8 H 0.3355 0.3918 0.1948
H9 H 0.3364 0.3536 0.0742
H10 H 0.5196 0.2702 0.0543
H11 H 0.4450 0.1230 0.0173
H12 H 0.3392 0.1996 -0.0038
H13 H 0.3061 0.0543 0.0897
H14 H 0.2779 0.1518 0.1817
H15 H 0.0702 0.0824 0.1751
H16 H 0.0250 0.1877 0.1665
loop_
_geom_bond_atom_site_label_1
_geom_bond_atom_site_label_2
_geom_bond_site_symmetry_1
_geom_bond_site_symmetry_2
O1 C15 1_555 1_555
O2 C12 1_555 1_555
O3 C9 1_555 1_555
O4 C7 1_555 1_555
O5 C7 1_555 1_555
O6 C30 1_555 1_555
O7 C27 1_555 1_555
O8 C24 1_555 1_555
O9 C22 1_555 1_555
O10 C22 1_555 1_555
C1 C2 1_555 1_555
C2 C3 1_555 1_555
C3 C6 1_555 1_555
C4 C1 1_555 1_555
C5 C4 1_555 1_555
C6 C5 1_555 1_555
C7 C6 1_555 1_555
C8 O5 1_555 1_555
C9 C8 1_555 1_555
C10 O4 1_555 1_555
C11 C10 1_555 1_555
C12 C11 1_555 1_555
C13 O3 1_555 1_555
C14 C13 1_555 1_555
C15 O2 1_555 1_555
C16 C17 1_555 1_555
C17 C18 1_555 1_555
C18 C21 1_555 1_555
C19 C16 1_555 1_555
C20 C19 1_555 1_555
C21 C20 1_555 1_555
C22 C21 1_555 1_555
C23 O10 1_555 1_555
C24 C23 1_555 1_555
C25 O9 1_555 1_555
C26 C25 1_555 1_555
C27 C26 1_555 1_555
C28 O8 1_555 1_555
C29 C28 1_555 1_555
C30 O7 1_555 1_555
H1 C16 1_555 1_555
H2 C17 1_555 1_555
H3 C18 1_555 1_555
H4 C19 1_555 1_555
H5 C20 1_555 1_555
H6 C22 1_555 1_555
H7 C23 1_555 1_555
H8 C23 1_555 1_555
H9 C24 1_555 1_555
H10 C25 1_555 1_555
H11 C26 1_555 1_555
H12 C26 1_555 1_555
H13 C27 1_555 1_555
H14 C28 1_555 1_555
H15 C29 1_555 1_555
H16 C29 1_555 1_555
H17 C1 1_555 1_555
H18 C2 1_555 1_555
H19 C3 1_555 1_555
H20 C4 1_555 1_555
H21 C5 1_555 1_555
H22 C7 1_555 1_555
H23 C10 1_555 1_555
H24 C11 1_555 1_555
H25 C11 1_555 1_555
H26 C12 1_555 1_555
H27 C8 1_555 1_555
H28 C8 1_555 1_555
H29 C9 1_555 1_555
H30 C13 1_555 1_555
H31 C14 1_555 1_555
H32 C14 1_555 1_555
C9 C10 1_555 1_555
C12 C13 1_555 1_555
C14 C15 1_555 1_555
C24 C25 1_555 1_555
C27 C28 1_555 1_555
C29 C30 1_555 1_555

#END
