
#######################################################################
#
#                 Cambridge Crystallographic Data Centre
#                                CCDC 
#
#######################################################################
#
# If this CIF has been generated from an entry in the Cambridge 
# Structural Database, then it will include bibliographic, chemical, 
# crystal, experimental, refinement or atomic coordinate data resulting 
# from the CCDC's data processing and validation procedures.
#
#######################################################################

data_POBJIA
_chemical_formula_moiety         'C15 H16 O5'
_chemical_name_systematic        
(5S)-syn-5-[(5-hydroxy-2-phenyl-1,3-dioxan-4-yl)methyl]furan-2(5H)-one
_symmetry_cell_setting           orthorhombic
_symmetry_space_group_name_H-M   'P 21 21 21'
_symmetry_Int_Tables_number      19
_space_group_name_Hall           'P 2ac 2ab'
loop_
_symmetry_equiv_pos_site_id
_symmetry_equiv_pos_as_xyz
1 x,y,z
2 1/2+x,1/2-y,-z
3 -x,1/2+y,1/2-z
4 1/2-x,-y,1/2+z
_cell_length_a                   8.5596(4)
_cell_length_b                   9.3198(6)
_cell_length_c                   17.307(1)
_cell_angle_alpha                90
_cell_angle_beta                 90
_cell_angle_gamma                90
_cell_volume                     1380.64
_exptl_crystal_colour            colorless
_exptl_crystal_description       block
_cell_formula_units_Z            4
loop_
_atom_site_label
_atom_site_type_symbol
_atom_site_fract_x
_atom_site_fract_y
_atom_site_fract_z
O1 O 0.5480(1) -0.1439(1) 0.39180(5)
O2 O 0.4218(1) -0.2602(1) 0.49319(6)
O3 O 1.1498(2) -0.1962(2) 0.3385(1)
O4 O 0.3815(1) -0.4098(1) 0.34422(8)
O5 O 0.9292(1) -0.2422(1) 0.27461(7)
C1 C 0.4448(1) -0.0089(1) 0.49673(7)
C2 C 0.4476(2) 0.0301(2) 0.57398(8)
C3 C 0.6228(1) -0.2734(2) 0.36506(8)
C4 C 0.5228(2) -0.4020(2) 0.3876(1)
C5 C 0.8069(2) -0.0253(2) 0.29575(9)
C6 C 0.5233(1) -0.1466(1) 0.47219(7)
C7 C 0.3627(2) 0.0755(2) 0.44482(9)
C8 C 0.7858(2) -0.1645(2) 0.25591(8)
C9 C 1.0386 -0.1500 0.3039
C10 C 0.6460 -0.2560 0.2790
C11 C 0.4911 -0.3957 0.4733
C12 C 0.9495 -0.0209 0.3262
H1 H 0.3605 0.0511 0.3927
H5 H 0.6579 -0.3499 0.2556
H6 H 0.5526 -0.2126 0.2569
H7 H 0.7251 -0.2821 0.3900
H8 H 0.6234 -0.1570 0.4991
H9 H 0.7825 -0.1476 0.2001
H10 H 0.4208 -0.4731 0.4879
H11 H 0.5879 -0.4082 0.5017
H12 H 0.9824 0.0560 0.3583
H13 H 0.7339 0.0487 0.2963
H14 H 0.5833 -0.4891 0.3771
H15 H 0.3290 -0.3466 0.3557
H2 H 0.2320 0.3155 0.5643
H3 H 0.3692 0.1763 0.6512
H4 H 0.2018 0.3122 0.4845
loop_
_geom_bond_atom_site_label_1
_geom_bond_atom_site_label_2
_geom_bond_site_symmetry_1
_geom_bond_site_symmetry_2
O1 C3 1_555 1_555
O2 C6 1_555 1_555
O3 C9 1_555 1_555
O4 C4 1_555 1_555
O5 C8 1_555 1_555
C1 C2 1_555 1_555
C3 C4 1_555 1_555
C4 C11 1_555 1_555
C5 C8 1_555 1_555
C6 O1 1_555 1_555
C7 C1 1_555 1_555
C8 C10 1_555 1_555
C9 O5 1_555 1_555
C10 C3 1_555 1_555
C11 O2 1_555 1_555
C12 C5 1_555 1_555
H1 C7 1_555 1_555
H5 C10 1_555 1_555
H6 C10 1_555 1_555
H7 C3 1_555 1_555
H8 C6 1_555 1_555
H9 C8 1_555 1_555
H10 C11 1_555 1_555
H11 C11 1_555 1_555
H12 C12 1_555 1_555
H13 C5 1_555 1_555
H14 C4 1_555 1_555
H15 O4 1_555 1_555
C1 C6 1_555 1_555
C9 C12 1_555 1_555

#END
