
#######################################################################
#
#                 Cambridge Crystallographic Data Centre
#                                CCDC 
#
#######################################################################
#
# If this CIF has been generated from an entry in the Cambridge 
# Structural Database, then it will include bibliographic, chemical, 
# crystal, experimental, refinement or atomic coordinate data resulting 
# from the CCDC's data processing and validation procedures.
#
#######################################################################

data_POBNAW
_chemical_name_common            
2-[2-(4-chlorophenyl)-3-nitro-3,4-dihydro-2H-thiochromen-4-yl]-N-naphthalen-1-ylacetamide
_chemical_formula_moiety         'C27 H21 Cl1 N2 O3 S1'
_chemical_name_systematic        
2-(2-(4-chlorophenyl)-3-nitrothiochroman-4-yl)-N-naphthalen-1-ylacetamide
_symmetry_cell_setting           monoclinic
_symmetry_space_group_name_H-M   'P 21'
_symmetry_Int_Tables_number      4
_space_group_name_Hall           'P 2yb'
loop_
_symmetry_equiv_pos_site_id
_symmetry_equiv_pos_as_xyz
1 x,y,z
2 -x,1/2+y,-z
_cell_length_a                   5.0044(10)
_cell_length_b                   13.188(2)
_cell_length_c                   17.284(3)
_cell_angle_alpha                90
_cell_angle_beta                 94.180(10)
_cell_angle_gamma                90
_cell_volume                     1137.68
_exptl_crystal_colour            colorless
_exptl_crystal_description       triangular
_cell_formula_units_Z            2
loop_
_atom_site_label
_atom_site_type_symbol
_atom_site_fract_x
_atom_site_fract_y
_atom_site_fract_z
Cl1 Cl 0.9072(3) 0.85794(11) 0.89819(8)
S1 S 0.5928(3) 0.36823(10) 0.90667(6)
O1 O 0.7548(7) 0.4752(2) 0.64784(19)
O2 O 1.1207(7) 0.4178(3) 0.7040(2)
O3 O 0.9680(6) 0.1246(2) 0.63022(17)
N1 N 0.8781(8) 0.4261(3) 0.6983(2)
N2 N 0.5440(7) 0.0673(2) 0.60263(18)
H1 H 0.3758 0.0839 0.6028
C1 C 0.6742(11) 0.5902(3) 0.8131(3)
H2 H 0.5372 0.5656 0.7779
C2 C 0.6904(10) 0.6927(4) 0.8272(3)
H3 H 0.5672 0.7375 0.8018
C3 C 0.8891(11) 0.7287(4) 0.8791(3)
C4 C 1.0667(10) 0.6638(4) 0.9170(3)
H4 H 1.2008 0.6890 0.9528
C5 C 1.0477(11) 0.5600(4) 0.9021(3)
H5 H 1.1681 0.5148 0.9283
C6 C 0.8504(9) 0.5234(3) 0.8484(3)
C7 C 0.8282(9) 0.4093(3) 0.8382(2)
H6 H 1.0050 0.3775 0.8513
C8 C 0.7183(8) 0.3738(3) 0.7579(2)
H7 H 0.5280 0.3943 0.7497
C9 C 0.7406(8) 0.2589(3) 0.7454(2)
H8 H 0.9327 0.2405 0.7473
C10 C 0.6093(9) 0.2000(3) 0.8093(2)
C11 C 0.5268(9) 0.2434(3) 0.8775(2)
C12 C 0.3807(11) 0.1857(4) 0.9283(3)
H9 H 0.3203 0.2161 0.9730
C13 C 0.3254(13) 0.0855(4) 0.9132(3)
H10 H 0.2227 0.0480 0.9465
C14 C 0.4202(14) 0.0404(4) 0.8495(3)
H11 H 0.3905 -0.0291 0.8403
C15 C 0.5591(12) 0.0966(4) 0.7988(3)
H12 H 0.6228 0.0642 0.7553
C16 C 0.6100(8) 0.2314(3) 0.6645(2)
H13 H 0.4172 0.2220 0.6682
H14 H 0.6340 0.2882 0.6291
C17 C 0.7256(9) 0.1354(3) 0.6301(2)
C18 C 0.6057(8) -0.0299(3) 0.5733(2)
C19 C 0.7881(9) -0.0412(4) 0.5193(2)
H15 H 0.8700 0.0164 0.4993
C20 C 0.8548(9) -0.1377(5) 0.4932(2)
H16 H 0.9833 -0.1443 0.4565
C21 C 0.7380(11) -0.2212(4) 0.5198(3)
H17 H 0.7850 -0.2852 0.5011
C22 C 0.5437(10) -0.2143(3) 0.5762(3)
C23 C 0.4138(12) -0.2997(3) 0.6050(3)
H18 H 0.4573 -0.3646 0.5871
C24 C 0.2274(12) -0.2907(4) 0.6578(3)
H19 H 0.1425 -0.3487 0.6758
C25 C 0.1623(11) -0.1953(4) 0.6850(3)
H20 H 0.0329 -0.1896 0.7216
C26 C 0.2823(9) -0.1101(3) 0.6599(2)
H21 H 0.2380 -0.0466 0.6802
C27 C 0.4750(8) -0.1161(3) 0.6029(2)
loop_
_geom_bond_atom_site_label_1
_geom_bond_atom_site_label_2
_geom_bond_site_symmetry_1
_geom_bond_site_symmetry_2
Cl1 C3 1_555 1_555
S1 C7 1_555 1_555
O1 N1 1_555 1_555
O2 N1 1_555 1_555
O3 C17 1_555 1_555
N1 C8 1_555 1_555
N2 H1 1_555 1_555
C1 H2 1_555 1_555
C2 C1 1_555 1_555
H3 C2 1_555 1_555
C3 C2 1_555 1_555
C4 C3 1_555 1_555
H4 C4 1_555 1_555
C5 C4 1_555 1_555
H5 C5 1_555 1_555
C6 C1 1_555 1_555
C7 C6 1_555 1_555
H6 C7 1_555 1_555
C8 C7 1_555 1_555
H7 C8 1_555 1_555
C9 C8 1_555 1_555
H8 C9 1_555 1_555
C10 C9 1_555 1_555
C11 S1 1_555 1_555
C12 C11 1_555 1_555
H9 C12 1_555 1_555
C13 C12 1_555 1_555
H10 C13 1_555 1_555
C14 C13 1_555 1_555
H11 C14 1_555 1_555
C15 C10 1_555 1_555
H12 C15 1_555 1_555
C16 C9 1_555 1_555
H13 C16 1_555 1_555
H14 C16 1_555 1_555
C17 N2 1_555 1_555
C18 N2 1_555 1_555
C19 C18 1_555 1_555
H15 C19 1_555 1_555
C20 C19 1_555 1_555
H16 C20 1_555 1_555
C21 C20 1_555 1_555
H17 C21 1_555 1_555
C22 C21 1_555 1_555
C23 C22 1_555 1_555
H18 C23 1_555 1_555
C24 C23 1_555 1_555
H19 C24 1_555 1_555
C25 C24 1_555 1_555
H20 C25 1_555 1_555
C26 C25 1_555 1_555
H21 C26 1_555 1_555
C27 C18 1_555 1_555
C5 C6 1_555 1_555
C10 C11 1_555 1_555
C14 C15 1_555 1_555
C16 C17 1_555 1_555
C22 C27 1_555 1_555
C26 C27 1_555 1_555

#END
