
#######################################################################
#
#                 Cambridge Crystallographic Data Centre
#                                CCDC 
#
#######################################################################
#
# If this CIF has been generated from an entry in the Cambridge 
# Structural Database, then it will include bibliographic, chemical, 
# crystal, experimental, refinement or atomic coordinate data resulting 
# from the CCDC's data processing and validation procedures.
#
#######################################################################

data_POBQED
_chemical_formula_moiety         'C16 H17 N1 O2 S1'
_chemical_name_systematic        
4-methyl-N-(1-phenylpropylidene)benzenesulfonamide
_symmetry_cell_setting           monoclinic
_symmetry_space_group_name_H-M   'P 21/c'
_symmetry_Int_Tables_number      14
_space_group_name_Hall           '-P 2ybc'
loop_
_symmetry_equiv_pos_site_id
_symmetry_equiv_pos_as_xyz
1 x,y,z
2 -x,1/2+y,1/2-z
3 -x,-y,-z
4 x,1/2-y,1/2+z
_cell_length_a                   8.6787(9)
_cell_length_b                   13.9781(15)
_cell_length_c                   12.3242(13)
_cell_angle_alpha                90
_cell_angle_beta                 99.664(2)
_cell_angle_gamma                90
_cell_volume                     1473.85
_exptl_crystal_colour            colorless
_chemical_melting_point          '113-115 deg.C'
_cell_formula_units_Z            4
_exptl_crystal_recrystallization_method 'pentane/ethyl acetate'
loop_
_atom_site_label
_atom_site_type_symbol
_atom_site_fract_x
_atom_site_fract_y
_atom_site_fract_z
S1 S 0.70189(5) 0.12908(3) 0.68264(4)
O1 O 0.82545(17) 0.17497(10) 0.75579(12)
O2 O 0.61536(19) 0.18363(10) 0.59503(11)
N1 N 0.57779(16) 0.07667(10) 0.75177(11)
C1 C 0.3540(2) -0.02522(13) 0.83880(15)
H1 H 0.3919 -0.0510 0.7789
C2 C 0.2599(2) -0.07962(14) 0.89330(17)
H2 H 0.2356 -0.1421 0.8708
C3 C 0.2011(2) -0.04192(15) 0.98151(16)
H3 H 0.1370 -0.0788 1.0183
C4 C 0.2375(2) 0.04955(15) 1.01427(16)
H4 H 0.1976 0.0752 1.0734
C5 C 0.3330(2) 0.10438(13) 0.96039(15)
H5 H 0.3571 0.1667 0.9838
C6 C 0.39360(18) 0.06783(11) 0.87175(12)
C7 C 0.50276(19) 0.12406(11) 0.81540(12)
C8 C 0.5115(2) 0.23092(12) 0.83421(15)
H6 H 0.5202 0.2440 0.9123
H7 H 0.6043 0.2559 0.8099
C9 C 0.3699(3) 0.28060(16) 0.7732(2)
H8 H 0.3670 0.2733 0.6954
H9 H 0.3744 0.3474 0.7917
H10 H 0.2775 0.2529 0.7934
C10 C 0.7818(2) 0.02936(13) 0.62584(14)
C11 C 0.7207(2) -0.00175(15) 0.52205(15)
H11 H 0.6355 0.0294 0.4812
C12 C 0.7864(2) -0.07952(16) 0.47872(17)
H12 H 0.7442 -0.1003 0.4083
C13 C 0.9122(2) -0.12721(13) 0.53634(17)
C14 C 0.9711(2) -0.09485(15) 0.64091(18)
H13 H 1.0555 -0.1266 0.6820
C15 C 0.9086(2) -0.01733(15) 0.68565(15)
H14 H 0.9512 0.0038 0.7559
C16 C 0.9841(3) -0.21283(16) 0.4900(2)
H15 H 0.9543 -0.2699 0.5244
H16 H 1.0959 -0.2068 0.5039
H17 H 0.9480 -0.2163 0.4121
loop_
_geom_bond_atom_site_label_1
_geom_bond_atom_site_label_2
_geom_bond_site_symmetry_1
_geom_bond_site_symmetry_2
S1 O1 1_555 1_555
O2 S1 1_555 1_555
N1 S1 1_555 1_555
C1 H1 1_555 1_555
C2 C1 1_555 1_555
H2 C2 1_555 1_555
C3 C2 1_555 1_555
H3 C3 1_555 1_555
C4 C3 1_555 1_555
H4 C4 1_555 1_555
C5 C4 1_555 1_555
H5 C5 1_555 1_555
C6 C1 1_555 1_555
C7 N1 1_555 1_555
C8 C7 1_555 1_555
H6 C8 1_555 1_555
H7 C8 1_555 1_555
C9 C8 1_555 1_555
H8 C9 1_555 1_555
H9 C9 1_555 1_555
H10 C9 1_555 1_555
C10 S1 1_555 1_555
C11 C10 1_555 1_555
H11 C11 1_555 1_555
C12 C11 1_555 1_555
H12 C12 1_555 1_555
C13 C12 1_555 1_555
C14 C13 1_555 1_555
H13 C14 1_555 1_555
C15 C10 1_555 1_555
H14 C15 1_555 1_555
C16 C13 1_555 1_555
H15 C16 1_555 1_555
H16 C16 1_555 1_555
H17 C16 1_555 1_555
C5 C6 1_555 1_555
C6 C7 1_555 1_555
C14 C15 1_555 1_555

#END
