
#######################################################################
#
#                 Cambridge Crystallographic Data Centre
#                                CCDC 
#
#######################################################################
#
# If this CIF has been generated from an entry in the Cambridge 
# Structural Database, then it will include bibliographic, chemical, 
# crystal, experimental, refinement or atomic coordinate data resulting 
# from the CCDC's data processing and validation procedures.
#
#######################################################################

data_POBQAZ
_chemical_formula_moiety         'C32 H40 N4 O6'
_chemical_name_systematic        
8,8'-(1,4,10,13-tetraoxa-7,16-diazacyclooctadecane-7,16-diyl)bis(methylene)diquinolin-7-ol
_symmetry_cell_setting           orthorhombic
_symmetry_space_group_name_H-M   'F d d 2'
_symmetry_Int_Tables_number      43
_space_group_name_Hall           'F 2 -2d'
loop_
_symmetry_equiv_pos_site_id
_symmetry_equiv_pos_as_xyz
1 x,y,z
2 -x,-y,z
3 1/4+x,1/4-y,1/4+z
4 1/4-x,1/4+y,1/4+z
5 x,1/2+y,1/2+z
6 -x,1/2-y,1/2+z
7 1/4+x,3/4-y,3/4+z
8 1/4-x,3/4+y,3/4+z
9 1/2+x,y,1/2+z
10 1/2-x,-y,1/2+z
11 3/4+x,1/4-y,3/4+z
12 3/4-x,1/4+y,3/4+z
13 1/2+x,1/2+y,z
14 1/2-x,1/2-y,z
15 3/4+x,3/4-y,1/4+z
16 3/4-x,3/4+y,1/4+z
_cell_length_a                   16.5169(12)
_cell_length_b                   34.853(3)
_cell_length_c                   9.9291(7)
_cell_angle_alpha                90
_cell_angle_beta                 90
_cell_angle_gamma                90
_cell_volume                     5715.82
_exptl_crystal_colour            colorless
_exptl_crystal_description       prism
_cell_formula_units_Z            8
loop_
_atom_site_label
_atom_site_type_symbol
_atom_site_fract_x
_atom_site_fract_y
_atom_site_fract_z
O1 O 0.08950(6) 0.24996(3) 0.79581(12)
O2 O 0.13208(6) 0.17015(3) 0.73828(12)
O3 O 0.12280(7) 0.29533(3) 0.51999(14)
N1 N 0.14665(8) 0.32566(4) 0.76511(14)
N2 N 0.08542(8) 0.42898(4) 0.60783(14)
C1 C 0.12326(10) 0.30925(5) 0.89408(17)
H1 H 0.1041 0.3296 0.9526
H2 H 0.1704 0.2978 0.9361
C2 C 0.05804(10) 0.27927(5) 0.8803(2)
H3 H 0.0441 0.2689 0.9679
H4 H 0.0098 0.2904 0.8406
C3 C 0.03211(9) 0.22053(5) 0.77047(19)
H5 H -0.0162 0.2314 0.7300
H6 H 0.0168 0.2083 0.8544
C4 C 0.06871(9) 0.19165(5) 0.67745(17)
H7 H 0.0268 0.1742 0.6473
H8 H 0.0899 0.2048 0.5988
C5 C 0.21065(9) 0.18691(5) 0.72083(18)
H9 H 0.2151 0.2104 0.7726
H10 H 0.2201 0.1928 0.6267
C6 C 0.22860(10) 0.34239(6) 0.77002(19)
C7 C 0.08734(9) 0.35365(5) 0.71459(18)
H11 H 0.0913 0.3772 0.7663
H12 H 0.0331 0.3435 0.7257
C8 C 0.10260(9) 0.36207(5) 0.56797(17)
C9 C 0.11922(10) 0.33275(5) 0.48038(19)
C10 C 0.13338(10) 0.33991(6) 0.34212(19)
H13 H 0.1458 0.3197 0.2847
C11 C 0.12893(9) 0.37621(5) 0.29286(19)
H14 H 0.1376 0.3807 0.2017
C12 C 0.10443(10) 0.44518(6) 0.33456(19)
H15 H 0.1107 0.4508 0.2436
C13 C 0.08896(9) 0.47361(5) 0.4228(2)
H16 H 0.0837 0.4988 0.3936
C14 C 0.08092(10) 0.46431(6) 0.5597(2)
H17 H 0.0719 0.4842 0.6203
C15 C 0.09949(10) 0.40006(5) 0.5180(2)
C16 C 0.11115(10) 0.40714(5) 0.37938(19)
H18 H 0.2424(7) 0.3498(4) 0.8643(12)
H19 H 0.2300(7) 0.3652(4) 0.7109(13)
H20 H 0.1277(13) 0.2941(6) 0.6191(16)
O1M O 0.41050(6) 0.25004(3) 0.79581(12)
O2M O 0.36792(6) 0.32985(3) 0.73828(12)
O3M O 0.37720(7) 0.20467(3) 0.51999(14)
N1M N 0.35335(8) 0.17434(4) 0.76511(14)
N2M N 0.41458(8) 0.07102(4) 0.60783(14)
C1M C 0.37674(10) 0.19075(5) 0.89408(17)
H1M H 0.3959 0.1704 0.9526
H2M H 0.3296 0.2022 0.9361
C2M C 0.44196(10) 0.22073(5) 0.8803(2)
H3M H 0.4559 0.2311 0.9679
H4M H 0.4902 0.2096 0.8406
C3M C 0.46789(9) 0.27947(5) 0.77047(19)
H5M H 0.5162 0.2686 0.7300
H6M H 0.4832 0.2917 0.8544
C4M C 0.43129(9) 0.30835(5) 0.67745(17)
H7M H 0.4732 0.3258 0.6473
H8M H 0.4101 0.2952 0.5988
C5M C 0.28935(9) 0.31309(5) 0.72083(18)
H9M H 0.2849 0.2896 0.7726
H10M H 0.2799 0.3072 0.6267
C6M C 0.27140(10) 0.15761(6) 0.77002(19)
C7M C 0.41266(9) 0.14635(5) 0.71459(18)
H11M H 0.4087 0.1228 0.7663
H12M H 0.4669 0.1565 0.7257
C8M C 0.39740(9) 0.13793(5) 0.56797(17)
C9M C 0.38078(10) 0.16725(5) 0.48038(19)
C10M C 0.36662(10) 0.16009(6) 0.34212(19)
H13M H 0.3542 0.1803 0.2847
C11M C 0.37107(9) 0.12379(5) 0.29286(19)
H14M H 0.3624 0.1193 0.2017
C12M C 0.39557(10) 0.05482(6) 0.33456(19)
H15M H 0.3893 0.0492 0.2436
C13M C 0.41104(9) 0.02639(5) 0.4228(2)
H16M H 0.4163 0.0012 0.3936
C14M C 0.41908(10) 0.03569(6) 0.5597(2)
H17M H 0.4281 0.0158 0.6203
C15M C 0.40051(10) 0.09994(5) 0.5180(2)
C16M C 0.38885(10) 0.09286(5) 0.37938(19)
H18M H 0.2576(7) 0.1502(4) 0.8643(12)
H19M H 0.2700(7) 0.1348(4) 0.7109(13)
H20M H 0.3723(13) 0.2059(6) 0.6191(16)
loop_
_geom_bond_atom_site_label_1
_geom_bond_atom_site_label_2
_geom_bond_site_symmetry_1
_geom_bond_site_symmetry_2
O1 C2 1_555 1_555
O2 C4 1_555 1_555
O3 C9 1_555 1_555
N1 C1 1_555 1_555
N2 C14 1_555 1_555
C1 H1 1_555 1_555
H2 C1 1_555 1_555
C2 C1 1_555 1_555
H3 C2 1_555 1_555
H4 C2 1_555 1_555
C3 O1 1_555 1_555
H5 C3 1_555 1_555
H6 C3 1_555 1_555
C4 C3 1_555 1_555
H7 C4 1_555 1_555
H8 C4 1_555 1_555
C5 O2 1_555 1_555
H9 C5 1_555 1_555
H10 C5 1_555 1_555
C6 N1 1_555 1_555
C7 N1 1_555 1_555
H11 C7 1_555 1_555
H12 C7 1_555 1_555
C8 C7 1_555 1_555
C9 C8 1_555 1_555
C10 C9 1_555 1_555
H13 C10 1_555 1_555
C11 C10 1_555 1_555
H14 C11 1_555 1_555
C12 H15 1_555 1_555
C13 C12 1_555 1_555
H16 C13 1_555 1_555
C14 C13 1_555 1_555
H17 C14 1_555 1_555
C15 N2 1_555 1_555
C16 C11 1_555 1_555
H18 C6 1_555 1_555
H19 C6 1_555 1_555
H20 O3 1_555 1_555
O1M C2M 1_555 1_555
O2M C4M 1_555 1_555
O3M C9M 1_555 1_555
N1M C1M 1_555 1_555
N2M C14M 1_555 1_555
C1M H1M 1_555 1_555
H2M C1M 1_555 1_555
C2M C1M 1_555 1_555
H3M C2M 1_555 1_555
H4M C2M 1_555 1_555
C3M O1M 1_555 1_555
H5M C3M 1_555 1_555
H6M C3M 1_555 1_555
C4M C3M 1_555 1_555
H7M C4M 1_555 1_555
H8M C4M 1_555 1_555
C5M C6 1_555 1_555
H9M C5M 1_555 1_555
H10M C5M 1_555 1_555
C6M C5 1_555 1_555
C7M N1M 1_555 1_555
H11M C7M 1_555 1_555
H12M C7M 1_555 1_555
C8M C7M 1_555 1_555
C9M C8M 1_555 1_555
C10M C9M 1_555 1_555
H13M C10M 1_555 1_555
C11M C10M 1_555 1_555
H14M C11M 1_555 1_555
C12M H15M 1_555 1_555
C13M C12M 1_555 1_555
H16M C13M 1_555 1_555
C14M C13M 1_555 1_555
H17M C14M 1_555 1_555
C15M N2M 1_555 1_555
C16M C11M 1_555 1_555
H18M C6M 1_555 1_555
H19M C6M 1_555 1_555
H20M O3M 1_555 1_555
C8 C15 1_555 1_555
C12 C16 1_555 1_555
C15 C16 1_555 1_555
O2M C5M 1_555 1_555
N1M C6M 1_555 1_555
C8M C15M 1_555 1_555
C12M C16M 1_555 1_555
C15M C16M 1_555 1_555

#END
