
#######################################################################
#
#                 Cambridge Crystallographic Data Centre
#                                CCDC 
#
#######################################################################
#
# If this CIF has been generated from an entry in the Cambridge 
# Structural Database, then it will include bibliographic, chemical, 
# crystal, experimental, refinement or atomic coordinate data resulting 
# from the CCDC's data processing and validation procedures.
#
#######################################################################

data_POBTEG
_chemical_formula_moiety         'C54 H51 N3 O3 S3'
_chemical_name_systematic        
1,3,5-tris(((2-(((2-hydroxyphenyl)methylene)amino)phenyl)thio)methyl)-2,4,6-triethylbenzene
_symmetry_cell_setting           triclinic
_symmetry_space_group_name_H-M   'P -1'
_symmetry_Int_Tables_number      2
_space_group_name_Hall           '-P 1'
loop_
_symmetry_equiv_pos_site_id
_symmetry_equiv_pos_as_xyz
1 x,y,z
2 -x,-y,-z
_cell_length_a                   11.98(4)
_cell_length_b                   12.595(18)
_cell_length_c                   15.91(2)
_cell_angle_alpha                82.02(10)
_cell_angle_beta                 87.26(18)
_cell_angle_gamma                81.44(16)
_cell_volume                     2350
_exptl_crystal_colour            'light yellow'
_exptl_crystal_description       plate
_chemical_melting_point          '197 deg.C'
_cell_formula_units_Z            2
_exptl_crystal_preparation       fluorescent
loop_
_atom_site_label
_atom_site_type_symbol
_atom_site_fract_x
_atom_site_fract_y
_atom_site_fract_z
C1 C 0.2766(10) 0.3012(9) 0.5167(6)
C2 C 0.1885(10) 0.2464(8) 0.5024(6)
C3 C 0.0942(11) 0.2479(8) 0.5548(6)
C4 C 0.0730(10) 0.3246(8) 0.6163(6)
C5 C 0.1610(12) 0.3848(8) 0.6243(6)
C6 C 0.2571(11) 0.3767(8) 0.5803(6)
C7 C 0.3873(14) 0.2857(9) 0.4702(7)
H1 H 0.4064 0.2099 0.4630
H2 H 0.4449 0.3038 0.5044
C8 C 0.5141(11) 0.3167(10) 0.3197(7)
C9 C 0.6008(13) 0.2312(10) 0.3563(8)
H3 H 0.5901 0.2012 0.4123
C10 C 0.6944(15) 0.1931(12) 0.3149(12)
H4 H 0.7385 0.1312 0.3406
C11 C 0.7299(16) 0.2395(14) 0.2366(13)
H5 H 0.8001 0.2187 0.2116
C12 C 0.6454(15) 0.3246(12) 0.1974(10)
H6 H 0.6579 0.3518 0.1409
C13 C 0.5486(14) 0.3677(11) 0.2372(8)
C14 C 0.4958(13) 0.5258(12) 0.1407(8)
H7 H 0.5697 0.5172 0.1193
C15 C 0.4125(16) 0.6189(12) 0.1053(8)
C16 C 0.4492(16) 0.6980(16) 0.0337(11)
H8 H 0.5216 0.6916 0.0094
C17 C 0.361(3) 0.7845(17) 0.0066(15)
H9 H 0.3798 0.8335 -0.0393
C18 C 0.262(2) 0.803(2) 0.0367(16)
H10 H 0.2121 0.8628 0.0135
C19 C 0.2283(15) 0.7334(14) 0.1050(10)
H11 H 0.1567 0.7461 0.1302
C20 C 0.3074(16) 0.6405(14) 0.1359(8)
C21 C 0.0046(9) 0.1755(8) 0.5498(7)
H12 H -0.0153 0.1785 0.4910
H13 H -0.0627 0.2020 0.5813
C22 C 0.0395(14) 0.0443(9) 0.7064(7)
C23 C -0.0529(13) 0.0207(9) 0.7525(10)
H14 H -0.1119 -0.0005 0.7260
C24 C -0.0616(19) 0.0276(12) 0.8377(11)
H15 H -0.1293 0.0186 0.8670
C25 C 0.0265(19) 0.0473(15) 0.8797(11)
H16 H 0.0222 0.0445 0.9384
C26 C 0.1163(16) 0.0697(10) 0.8384(9)
H17 H 0.1725 0.0913 0.8677
C27 C 0.1346(17) 0.0634(10) 0.7504(8)
C28 C 0.3002(15) 0.1367(12) 0.7322(8)
H18 H 0.2755 0.1748 0.7772
C29 C 0.4177(18) 0.1474(10) 0.6951(9)
C30 C 0.4929(16) 0.2053(13) 0.7281(10)
H19 H 0.4682 0.2379 0.7760
C31 C 0.593(3) 0.2180(18) 0.6986(12)
H20 H 0.6298 0.2688 0.7192
C32 C 0.6489(17) 0.159(2) 0.6377(16)
H21 H 0.7245 0.1608 0.6222
C33 C 0.583(2) 0.0996(15) 0.6028(10)
H22 H 0.6138 0.0642 0.5578
C34 C 0.4775(17) 0.0873(10) 0.6274(9)
C35 C 0.1307(12) 0.4729(8) 0.6837(6)
H23 H 0.0499 0.4967 0.6842
H24 H 0.1685 0.5350 0.6636
C36 C 0.1226(9) 0.5196(9) 0.8518(7)
C37 C 0.0583(10) 0.6159(10) 0.8202(8)
H25 H 0.0417 0.6283 0.7628
C38 C 0.0172(12) 0.6956(10) 0.8716(10)
H26 H -0.0264 0.7595 0.8486
C39 C 0.0418(13) 0.6787(11) 0.9565(10)
H27 H 0.0155 0.7310 0.9914
C40 C 0.1064(11) 0.5824(12) 0.9888(8)
H28 H 0.1263 0.5733 1.0454
C41 C 0.1433(10) 0.4983(9) 0.9406(7)
C42 C 0.2345(10) 0.3696(11) 1.0462(8)
H29 H 0.2234 0.4213 1.0834
C43 C 0.2873(11) 0.2600(11) 1.0763(7)
C44 C 0.3226(13) 0.2328(14) 1.1604(8)
H30 H 0.3094 0.2819 1.1996
C45 C 0.3814(16) 0.1224(17) 1.1828(10)
H31 H 0.4088 0.1027 1.2373
C46 C 0.398(2) 0.0495(14) 1.1295(15)
H32 H 0.4341 -0.0201 1.1467
C47 C 0.3616(15) 0.0772(14) 1.0520(12)
H33 H 0.3721 0.0253 1.0150
C48 C 0.3095(13) 0.1785(11) 1.0234(9)
C49 C 0.1968(11) 0.1777(9) 0.4285(6)
H34 H 0.2748 0.1639 0.4088
H35 H 0.1718 0.1086 0.4483
C50 C 0.1236(10) 0.2370(10) 0.3547(6)
H36 H 0.1304 0.1936 0.3091
H37 H 0.1486 0.3053 0.3350
H38 H 0.0461 0.2490 0.3739
C51 C -0.0334(10) 0.3345(10) 0.6661(7)
H39 H -0.0217 0.3597 0.7195
H40 H -0.0587 0.2642 0.6786
C52 C -0.1241(11) 0.4153(12) 0.6157(8)
H41 H -0.1936 0.4210 0.6484
H42 H -0.1356 0.3900 0.5630
H43 H -0.0994 0.4851 0.6044
C53 C 0.3480(12) 0.4413(10) 0.5937(7)
H44 H 0.4206 0.3975 0.5864
H45 H 0.3419 0.4574 0.6517
C54 C 0.3447(15) 0.5488(10) 0.5333(8)
H46 H 0.4058 0.5852 0.5453
H47 H 0.2742 0.5940 0.5413
H48 H 0.3521 0.5338 0.4755
N1 N 0.4630(8) 0.4561(9) 0.2026(6)
N2 N 0.2332(12) 0.0802(8) 0.7067(6)
N3 N 0.2034(8) 0.3957(8) 0.9703(6)
O1 O 0.2629(9) 0.5734(8) 0.2001(6)
H49 H 0.3103 0.5209 0.2147
O2 O 0.3968(10) 0.0328(7) 0.5912(5)
H50 H 0.3379 0.0374 0.6198
O3 O 0.2798(10) 0.1989(8) 0.9417(6)
H51 H 0.2496 0.2619 0.9314
S1 S 0.3891(3) 0.3681(3) 0.36540(18)
S2 S 0.0559(3) 0.0323(2) 0.59395(19)
S3 S 0.1760(4) 0.4150(3) 0.79088(18)
loop_
_geom_bond_atom_site_label_1
_geom_bond_atom_site_label_2
_geom_bond_site_symmetry_1
_geom_bond_site_symmetry_2
C1 C2 1_555 1_555
C2 C3 1_555 1_555
C3 C4 1_555 1_555
C4 C5 1_555 1_555
C5 C6 1_555 1_555
C6 C1 1_555 1_555
C7 C1 1_555 1_555
H1 C7 1_555 1_555
H2 C7 1_555 1_555
C8 C9 1_555 1_555
C9 H3 1_555 1_555
C10 C9 1_555 1_555
H4 C10 1_555 1_555
C11 C10 1_555 1_555
H5 C11 1_555 1_555
C12 C11 1_555 1_555
H6 C12 1_555 1_555
C13 C8 1_555 1_555
C14 H7 1_555 1_555
C15 C14 1_555 1_555
C16 C15 1_555 1_555
H8 C16 1_555 1_555
C17 C16 1_555 1_555
H9 C17 1_555 1_555
C18 C17 1_555 1_555
H10 C18 1_555 1_555
C19 C18 1_555 1_555
H11 C19 1_555 1_555
C20 C15 1_555 1_555
C21 C3 1_555 1_555
H12 C21 1_555 1_555
H13 C21 1_555 1_555
C22 C23 1_555 1_555
C23 H14 1_555 1_555
C24 C23 1_555 1_555
H15 C24 1_555 1_555
C25 C24 1_555 1_555
H16 C25 1_555 1_555
C26 C25 1_555 1_555
H17 C26 1_555 1_555
C27 C22 1_555 1_555
C28 H18 1_555 1_555
C29 C28 1_555 1_555
C30 C29 1_555 1_555
H19 C30 1_555 1_555
C31 C30 1_555 1_555
H20 C31 1_555 1_555
C32 C31 1_555 1_555
H21 C32 1_555 1_555
C33 C32 1_555 1_555
H22 C33 1_555 1_555
C34 C29 1_555 1_555
C35 C5 1_555 1_555
H23 C35 1_555 1_555
H24 C35 1_555 1_555
C36 C37 1_555 1_555
C37 H25 1_555 1_555
C38 C37 1_555 1_555
H26 C38 1_555 1_555
C39 C38 1_555 1_555
H27 C39 1_555 1_555
C40 C39 1_555 1_555
H28 C40 1_555 1_555
C41 C36 1_555 1_555
C42 H29 1_555 1_555
C43 C42 1_555 1_555
C44 C43 1_555 1_555
H30 C44 1_555 1_555
C45 C44 1_555 1_555
H31 C45 1_555 1_555
C46 C45 1_555 1_555
H32 C46 1_555 1_555
C47 C46 1_555 1_555
H33 C47 1_555 1_555
C48 C43 1_555 1_555
C49 C2 1_555 1_555
H34 C49 1_555 1_555
H35 C49 1_555 1_555
C50 C49 1_555 1_555
H36 C50 1_555 1_555
H37 C50 1_555 1_555
H38 C50 1_555 1_555
C51 C4 1_555 1_555
H39 C51 1_555 1_555
H40 C51 1_555 1_555
C52 C51 1_555 1_555
H41 C52 1_555 1_555
H42 C52 1_555 1_555
H43 C52 1_555 1_555
C53 C6 1_555 1_555
H44 C53 1_555 1_555
H45 C53 1_555 1_555
C54 C53 1_555 1_555
H46 C54 1_555 1_555
H47 C54 1_555 1_555
H48 C54 1_555 1_555
N1 C13 1_555 1_555
N2 C27 1_555 1_555
N3 C41 1_555 1_555
O1 C20 1_555 1_555
H49 O1 1_555 1_555
O2 C34 1_555 1_555
H50 O2 1_555 1_555
O3 C48 1_555 1_555
H51 O3 1_555 1_555
S1 C7 1_555 1_555
S2 C21 1_555 1_555
S3 C35 1_555 1_555
C8 S1 1_555 1_555
C12 C13 1_555 1_555
C14 N1 1_555 1_555
C19 C20 1_555 1_555
C22 S2 1_555 1_555
C26 C27 1_555 1_555
C28 N2 1_555 1_555
C33 C34 1_555 1_555
C36 S3 1_555 1_555
C40 C41 1_555 1_555
C42 N3 1_555 1_555
C47 C48 1_555 1_555

#END
