
#######################################################################
#
#                 Cambridge Crystallographic Data Centre
#                                CCDC 
#
#######################################################################
#
# If this CIF has been generated from an entry in the Cambridge 
# Structural Database, then it will include bibliographic, chemical, 
# crystal, experimental, refinement or atomic coordinate data resulting 
# from the CCDC's data processing and validation procedures.
#
#######################################################################

data_POBTAC
_chemical_formula_moiety         'C33 H39 N3 S3'
_chemical_name_systematic        
1,3,5-tris(((2-aminophenyl)thio)methyl)-2,4,6-triethylbenzene
_symmetry_cell_setting           orthorhombic
_symmetry_space_group_name_H-M   'P n a 21'
_symmetry_Int_Tables_number      33
_space_group_name_Hall           'P 2c -2n'
loop_
_symmetry_equiv_pos_site_id
_symmetry_equiv_pos_as_xyz
1 x,y,z
2 -x,-y,1/2+z
3 1/2-x,1/2+y,1/2+z
4 1/2+x,1/2-y,z
_cell_length_a                   16.063(5)
_cell_length_b                   10.920(5)
_cell_length_c                   18.327(5)
_cell_angle_alpha                90
_cell_angle_beta                 90
_cell_angle_gamma                90
_cell_volume                     3214.7
_exptl_crystal_colour            'pale yellow'
_exptl_crystal_description       prismatic
_chemical_melting_point          '87 deg.C'
_cell_formula_units_Z            4
_exptl_crystal_recrystallization_method methanol/chloroform
loop_
_atom_site_label
_atom_site_type_symbol
_atom_site_fract_x
_atom_site_fract_y
_atom_site_fract_z
C1 C 0.9154(2) 0.7718(3) 0.9244(2)
C2 C 0.8522(2) 0.6863(3) 0.9215(2)
C3 C 0.7966(2) 0.6848(3) 0.8619(2)
C4 C 0.8041(2) 0.7754(4) 0.8072(2)
C5 C 0.8657(2) 0.8656(3) 0.8127(2)
C6 C 0.9227(2) 0.8613(3) 0.8699(2)
C7 C 0.9936(2) 0.9512(4) 0.8723(2)
H1 H 1.0066 0.9787 0.8233
H2 H 1.0426 0.9119 0.8924
C8 C 1.0583(2) 1.1692(3) 0.9284(2)
C9 C 1.1224(3) 1.1378(4) 0.9761(2)
H3 H 1.1163 1.0712 1.0073
C10 C 1.1955(3) 1.2062(5) 0.9771(3)
H4 H 1.2389 1.1849 1.0082
C11 C 1.2028(3) 1.3050(5) 0.9318(3)
H5 H 1.2514 1.3512 0.9327
C12 C 1.1400(3) 1.3373(4) 0.8851(3)
H6 H 1.1465 1.4051 0.8549
C13 C 1.0670(3) 1.2705(4) 0.8822(2)
C14 C 0.8696(3) 0.9664(4) 0.7555(2)
H7 H 0.8923 1.0399 0.7775
H8 H 0.8136 0.9849 0.7389
C15 C 0.9236(4) 0.9299(6) 0.6892(3)
H9 H 0.9241 0.9957 0.6545
H10 H 0.9008 0.8579 0.6668
H11 H 0.9794 0.9135 0.7052
C16 C 0.7450(2) 0.7759(4) 0.7424(2)
H12 H 0.7320 0.6927 0.7276
H13 H 0.7698 0.8185 0.7014
C17 C 0.5865(2) 0.8571(3) 0.6944(2)
C18 C 0.6122(3) 0.8280(4) 0.6249(2)
H14 H 0.6667 0.8026 0.6169
C19 C 0.5565(3) 0.8365(4) 0.5662(2)
H15 H 0.5736 0.8147 0.5195
C20 C 0.4775(3) 0.8769(4) 0.5778(3)
H16 H 0.4407 0.8855 0.5390
C21 C 0.4526(3) 0.9049(4) 0.6481(3)
H17 H 0.3984 0.9316 0.6558
C22 C 0.5041(2) 0.8951(3) 0.7060(2)
C23 C 0.7321(2) 0.5860(4) 0.8552(2)
H18 H 0.6857 0.6169 0.8267
H19 H 0.7112 0.5662 0.9034
C24 C 0.7650(3) 0.4696(4) 0.8195(3)
H20 H 0.7210 0.4103 0.8163
H21 H 0.8096 0.4369 0.8483
H22 H 0.7850 0.4882 0.7714
C25 C 0.8401(2) 0.5932(4) 0.9815(2)
H23 H 0.8918 0.5848 1.0084
H24 H 0.8276 0.5144 0.9597
C26 C 0.7952(2) 0.7715(4) 1.0847(2)
C27 C 0.7737(3) 0.8838(4) 1.0534(3)
H25 H 0.7396 0.8863 1.0124
C28 C 0.8031(3) 0.9900(5) 1.0833(3)
H26 H 0.7879 1.0652 1.0636
C29 C 0.8552(3) 0.9849(5) 1.1425(3)
H27 H 0.8768 1.0574 1.1613
C30 C 0.8757(3) 0.8790(5) 1.1737(3)
H28 H 0.9105 0.8792 1.2143
C31 C 0.8462(3) 0.7675(4) 1.1468(2)
C32 C 0.9795(2) 0.7677(4) 0.9864(2)
H29 H 0.9524 0.7411 1.0309
H30 H 1.0014 0.8493 0.9946
C33 C 1.0519(3) 0.6801(5) 0.9687(3)
H31 H 1.0907 0.6798 1.0085
H32 H 1.0795 0.7071 0.9251
H33 H 1.0306 0.5989 0.9615
N1 N 1.0067(3) 1.3008(4) 0.8340(2)
H34 H 1.0138 1.3618 0.8049
H35 H 0.9614 1.2591 0.8323
N2 N 0.4788(2) 0.9267(3) 0.7768(2)
H36 H 0.4292 0.9533 0.7844
H37 H 0.5130 0.9194 0.8127
N3 N 0.8689(4) 0.6599(4) 1.1771(3)
H38 H 0.9022 0.6590 1.2138
H39 H 0.8500 0.5923 1.1597
S1 S 0.96430(7) 1.08340(10) 0.92950(7)
S2 S 0.65146(7) 0.85433(11) 0.77253(6)
S3 S 0.75636(7) 0.63360(11) 1.04558(7)
loop_
_geom_bond_atom_site_label_1
_geom_bond_atom_site_label_2
_geom_bond_site_symmetry_1
_geom_bond_site_symmetry_2
C1 C2 1_555 1_555
C2 C3 1_555 1_555
C3 C4 1_555 1_555
C4 C5 1_555 1_555
C5 C6 1_555 1_555
C6 C1 1_555 1_555
C7 C6 1_555 1_555
H1 C7 1_555 1_555
H2 C7 1_555 1_555
C8 C9 1_555 1_555
C9 H3 1_555 1_555
C10 C9 1_555 1_555
H4 C10 1_555 1_555
C11 C10 1_555 1_555
H5 C11 1_555 1_555
C12 C11 1_555 1_555
H6 C12 1_555 1_555
C13 C8 1_555 1_555
C14 C5 1_555 1_555
H7 C14 1_555 1_555
H8 C14 1_555 1_555
C15 C14 1_555 1_555
H9 C15 1_555 1_555
H10 C15 1_555 1_555
H11 C15 1_555 1_555
C16 C4 1_555 1_555
H12 C16 1_555 1_555
H13 C16 1_555 1_555
C17 C18 1_555 1_555
C18 H14 1_555 1_555
C19 C18 1_555 1_555
H15 C19 1_555 1_555
C20 C19 1_555 1_555
H16 C20 1_555 1_555
C21 C20 1_555 1_555
H17 C21 1_555 1_555
C22 C17 1_555 1_555
C23 C3 1_555 1_555
H18 C23 1_555 1_555
H19 C23 1_555 1_555
C24 C23 1_555 1_555
H20 C24 1_555 1_555
H21 C24 1_555 1_555
H22 C24 1_555 1_555
C25 C2 1_555 1_555
H23 C25 1_555 1_555
H24 C25 1_555 1_555
C26 C27 1_555 1_555
C27 H25 1_555 1_555
C28 C27 1_555 1_555
H26 C28 1_555 1_555
C29 C28 1_555 1_555
H27 C29 1_555 1_555
C30 C29 1_555 1_555
H28 C30 1_555 1_555
C31 C26 1_555 1_555
C32 C1 1_555 1_555
H29 C32 1_555 1_555
H30 C32 1_555 1_555
C33 C32 1_555 1_555
H31 C33 1_555 1_555
H32 C33 1_555 1_555
H33 C33 1_555 1_555
N1 C13 1_555 1_555
H34 N1 1_555 1_555
H35 N1 1_555 1_555
N2 C22 1_555 1_555
H36 N2 1_555 1_555
H37 N2 1_555 1_555
N3 C31 1_555 1_555
H38 N3 1_555 1_555
H39 N3 1_555 1_555
S1 C7 1_555 1_555
S2 C16 1_555 1_555
S3 C25 1_555 1_555
C8 S1 1_555 1_555
C12 C13 1_555 1_555
C17 S2 1_555 1_555
C21 C22 1_555 1_555
C26 S3 1_555 1_555
C30 C31 1_555 1_555

#END
