
#######################################################################
#
#                 Cambridge Crystallographic Data Centre
#                                CCDC 
#
#######################################################################
#
# If this CIF has been generated from an entry in the Cambridge 
# Structural Database, then it will include bibliographic, chemical, 
# crystal, experimental, refinement or atomic coordinate data resulting 
# from the CCDC's data processing and validation procedures.
#
#######################################################################

data_POBVAE
_chemical_formula_moiety         'C28 H22 N2 O5 S2,0.71(H2 O1)'
_chemical_name_systematic        
'endo-4-phenyl-10-(phenylthio)-8-tosyl-4,8-diazatricyclo[5.2.2.0^2,6^]undec-10-ene-3,5,9-trione hydrate'
_symmetry_cell_setting           monoclinic
_symmetry_space_group_name_H-M   'C 2/c'
_symmetry_Int_Tables_number      15
_space_group_name_Hall           '-C 2yn'
loop_
_symmetry_equiv_pos_site_id
_symmetry_equiv_pos_as_xyz
1 x,y,z
2 1/2+x,1/2+y,z
3 -x,y,1/2-z
4 1/2-x,1/2+y,1/2-z
5 -x,-y,-z
6 1/2-x,1/2-y,-z
7 x,-y,1/2+z
8 1/2+x,1/2-y,1/2+z
_cell_length_a                   30.6703(15)
_cell_length_b                   9.7897(5)
_cell_length_c                   19.6930(9)
_cell_angle_alpha                90
_cell_angle_beta                 118.079(1)
_cell_angle_gamma                90
_cell_volume                     5216.93
_exptl_crystal_colour            colorless
_chemical_melting_point          '206-207 deg.C'
_cell_formula_units_Z            8
loop_
_atom_site_label
_atom_site_type_symbol
_atom_site_fract_x
_atom_site_fract_y
_atom_site_fract_z
S1 S 0.10044(2) 1.18080(6) 0.01622(3)
S2 S -0.07181(2) 1.36619(6) -0.27731(3)
N1 N 0.04290(6) 1.20730(18) -0.05340(10)
N2 N -0.11869(6) 1.24750(17) -0.11344(11)
O1 O 0.10609(7) 1.03813(19) 0.03107(11)
O2 O 0.10611(6) 1.2729(2) 0.07574(9)
O3 O 0.04645(6) 1.05896(16) -0.14123(10)
O4 O -0.14014(6) 1.10152(17) -0.21618(10)
O5 O -0.07427(6) 1.37711(19) -0.00426(10)
C1 C 0.02320(8) 1.1355(2) -0.12265(13)
C2 C -0.03145(7) 1.16556(19) -0.16950(11)
C3 C -0.03768(7) 1.31921(19) -0.18142(11)
C4 C -0.01664(7) 1.39081(19) -0.11646(11)
C5 C 0.00741(7) 1.3020(2) -0.04539(11)
C6 C -0.03300(7) 1.2076(2) -0.04451(11)
C7 C -0.05478(7) 1.12155(19) -0.11796(12)
C8 C -0.10953(8) 1.1506(2) -0.15702(13)
C9 C -0.07644(8) 1.2902(2) -0.04898(13)
C10 C 0.13810(7) 1.2311(2) -0.02352(12)
C11 C 0.15622(9) 1.1340(2) -0.05477(14)
C12 C 0.18564(9) 1.1770(3) -0.08687(15)
C13 C 0.19658(8) 1.3121(3) -0.08864(14)
C14 C 0.17834(9) 1.4075(3) -0.05568(14)
C15 C 0.14874(9) 1.3688(2) -0.02357(13)
C16 C 0.22584(12) 1.3572(4) -0.12802(19)
C17 C -0.07745(8) 1.5464(2) -0.27649(12)
C18 C -0.06562(11) 1.6201(2) -0.32492(16)
C19 C -0.07377(15) 1.7592(3) -0.3324(2)
C20 C -0.09262(13) 1.8247(3) -0.28998(17)
C21 C -0.10429(11) 1.7523(3) -0.24203(16)
C22 C -0.09694(10) 1.6127(3) -0.23493(15)
C23 C -0.16762(8) 1.2981(2) -0.13577(15)
C24 C -0.17800(10) 1.4327(3) -0.14994(17)
C25 C -0.22595(13) 1.4789(3) -0.1747(2)
C26 C -0.26191(12) 1.3897(4) -0.1842(3)
C27 C -0.25197(13) 1.2577(4) -0.1744(4)
C28 C -0.20428(12) 1.2087(3) -0.1496(3)
H1 H -0.0458 1.1171 -0.2192
H2 H -0.0163 1.4864 -0.1140
H3 H 0.0237 1.3546 0.0024
H6 H -0.0200 1.1492 0.0029
H7 H -0.0545 1.0247 -0.1151
H8 H 0.1486 1.0333 -0.0487
H9 H 0.1972 1.1090 -0.1102
H10 H 0.1872 1.5025 -0.0545
H11 H 0.1366 1.4365 0.0008
H12 H 0.2390 1.4476 -0.1097
H13 H 0.2122 1.3194 -0.1889
H14 H 0.2569 1.3008 -0.1141
H15 H -0.0497 1.5666 -0.3503
H16 H -0.0582 1.8080 -0.3622
H17 H -0.0970 1.9191 -0.2931
H18 H -0.1153 1.8031 -0.2092
H19 H -0.1073 1.5642 -0.2014
H20 H -0.1493 1.4972 -0.1393
H21 H -0.2365 1.5742 -0.1892
H22 H -0.2941 1.4370 -0.1951
H23 H -0.2837 1.2013 -0.1821
H24 H -0.1961 1.1052 -0.1478
O6 O 0.2064(5) 0.7825(7) -0.0236(6)
H4 H 0.1856 0.7685 -0.0671
H5 H 0.2211 0.8514 -0.0141
loop_
_geom_bond_atom_site_label_1
_geom_bond_atom_site_label_2
_geom_bond_site_symmetry_1
_geom_bond_site_symmetry_2
S1 N1 1_555 1_555
S2 C3 1_555 1_555
N1 C1 1_555 1_555
N2 C8 1_555 1_555
O1 S1 1_555 1_555
O2 S1 1_555 1_555
O3 C1 1_555 1_555
O4 C8 1_555 1_555
O5 C9 1_555 1_555
O6 H4 1_555 1_555
C1 C2 1_555 1_555
C2 C3 1_555 1_555
C3 C4 1_555 1_555
C4 C5 1_555 1_555
C5 N1 1_555 1_555
C6 C5 1_555 1_555
C7 C2 1_555 1_555
C8 C7 1_555 1_555
C9 N2 1_555 1_555
C10 S1 1_555 1_555
C11 C10 1_555 1_555
C12 C11 1_555 1_555
C13 C12 1_555 1_555
C14 C13 1_555 1_555
C15 C10 1_555 1_555
C16 C13 1_555 1_555
C17 S2 1_555 1_555
C18 C17 1_555 1_555
C19 C18 1_555 1_555
C20 C19 1_555 1_555
C21 C20 1_555 1_555
C22 C17 1_555 1_555
C23 N2 1_555 1_555
C24 C23 1_555 1_555
C25 C24 1_555 1_555
C26 C25 1_555 1_555
C27 C26 1_555 1_555
C28 C23 1_555 1_555
H1 C2 1_555 1_555
H2 C4 1_555 1_555
H3 C5 1_555 1_555
H5 O6 1_555 1_555
H6 C6 1_555 1_555
H7 C7 1_555 1_555
H8 C11 1_555 1_555
H9 C12 1_555 1_555
H10 C14 1_555 1_555
H11 C15 1_555 1_555
H12 C16 1_555 1_555
H13 C16 1_555 1_555
H14 C16 1_555 1_555
H15 C18 1_555 1_555
H16 C19 1_555 1_555
H17 C20 1_555 1_555
H18 C21 1_555 1_555
H19 C22 1_555 1_555
H20 C24 1_555 1_555
H21 C25 1_555 1_555
H22 C26 1_555 1_555
H23 C27 1_555 1_555
H24 C28 1_555 1_555
C6 C7 1_555 1_555
C6 C9 1_555 1_555
C14 C15 1_555 1_555
C21 C22 1_555 1_555
C27 C28 1_555 1_555

#END
