
#######################################################################
#
#                 Cambridge Crystallographic Data Centre
#                                CCDC 
#
#######################################################################
#
# If this CIF has been generated from an entry in the Cambridge 
# Structural Database, then it will include bibliographic, chemical, 
# crystal, experimental, refinement or atomic coordinate data resulting 
# from the CCDC's data processing and validation procedures.
#
#######################################################################

data_POBVOT
_chemical_formula_moiety         'C33 H32 B2 F2 N2'
_chemical_name_systematic        
10-(3-(Dimesitylboryl)phenyl)-5,5-difluoro-5H-6\l^5^,5\l^5^-dipyrrolo[1,2-c:2',1'-f][1,3,2]diazaborinine
_symmetry_cell_setting           triclinic
_symmetry_space_group_name_H-M   'P -1'
_symmetry_Int_Tables_number      2
_space_group_name_Hall           '-P 1'
loop_
_symmetry_equiv_pos_site_id
_symmetry_equiv_pos_as_xyz
1 x,y,z
2 -x,-y,-z
_cell_length_a                   10.859(5)
_cell_length_b                   11.642(5)
_cell_length_c                   13.179(5)
_cell_angle_alpha                67.298(5)
_cell_angle_beta                 67.374(5)
_cell_angle_gamma                89.883(5)
_cell_volume                     1397.58
_cell_formula_units_Z            2
loop_
_atom_site_label
_atom_site_type_symbol
_atom_site_fract_x
_atom_site_fract_y
_atom_site_fract_z
F1 F 0.2291(3) 0.6517(3) 1.1458(3)
F2 F 0.1513(3) 0.7409(3) 1.0031(3)
N1 N 0.3217(5) 0.6138(4) 0.9685(4)
N2 N 0.0893(5) 0.5162(4) 1.1211(4)
C1 C 0.2866(5) 0.2382(4) 0.6594(4)
C2 C 0.1445(5) 0.2109(5) 0.7104(4)
C3 C 0.4651(5) 0.0000(4) 0.6670(4)
C4 C 0.4849(5) 0.1047(4) 0.6926(4)
C5 C 0.3367(6) 0.5019(5) 0.9515(5)
C6 C 0.3552(5) 0.3202(5) 0.5363(5)
C7 C 0.5729(5) -0.0547(5) 0.6208(4)
H1 H 0.5562 -0.1249 0.6077
C8 C 0.2539(5) 0.2807(5) 1.0013(5)
C9 C 0.7234(5) 0.0926(5) 0.6202(4)
H2 H 0.8106 0.1251 0.6036
C10 C 0.1415(6) 0.3438(5) 0.5187(6)
C11 C 0.2883(4) 0.2796(5) 0.8867(4)
H3 H 0.2853 0.3512 0.8242
C12 C 0.4699(6) 0.5162(6) 0.8699(4)
H4 H 0.5081 0.4562 0.8428
C13 C 0.2299(5) 0.3990(5) 1.0184(4)
C14 C 0.2532(5) 0.1723(6) 1.0928(5)
H5 H 0.2269 0.1699 1.1697
C15 C 0.0599(5) 0.1169(5) 0.8382(4)
H6 H 0.1174 0.0865 0.8794
H7 H 0.0143 0.0472 0.8370
H8 H -0.0058 0.1570 0.8796
C16 C 0.3265(4) 0.1740(5) 0.8651(4)
C17 C 0.6182(5) 0.1468(5) 0.6702(4)
C18 C 0.2905(5) 0.0663(5) 1.0744(5)
H9 H 0.2897 -0.0062 1.1381
C19 C 0.7054(5) -0.0100(5) 0.5930(4)
C20 C 0.4392(7) 0.6906(5) 0.9003(5)
H10 H 0.4562 0.7714 0.8951
C21 C 0.3247(4) -0.0596(5) 0.6968(4)
H11 H 0.2594 -0.0127 0.7286
H12 H 0.3046 -0.1453 0.7560
H13 H 0.3211 -0.0585 0.6248
C22 C 0.1085(6) 0.4052(5) 1.1004(5)
C23 C 0.0758(5) 0.2638(5) 0.6388(5)
H14 H -0.0182 0.2444 0.6734
C24 C 0.5084(5) 0.3552(5) 0.4694(4)
H15 H 0.5488 0.3129 0.5241
H16 H 0.5347 0.4450 0.4382
H17 H 0.5386 0.3298 0.4038
C25 C 0.2819(6) 0.3744(5) 0.4691(4)
H18 H 0.3277 0.4326 0.3891
B1 B 0.3669(6) 0.1717(5) 0.7364(5)
C26 C -0.0367(7) 0.4971(7) 1.2003(5)
H19 H -0.0750 0.5558 1.2293
C27 C 0.5352(6) 0.6348(6) 0.8365(5)
H20 H 0.6247 0.6704 0.7825
C28 C 0.8218(5) -0.0678(5) 0.5406(5)
H21 H 0.9039 -0.0234 0.5290
H22 H 0.8280 -0.0624 0.4642
H23 H 0.8085 -0.1549 0.5948
C29 C 0.3296(5) 0.0680(5) 0.9597(5)
H24 H 0.3578 -0.0025 0.9466
C30 C 0.6491(5) 0.2596(5) 0.6956(5)
H25 H 0.5666 0.2888 0.7287
H26 H 0.7106 0.3268 0.6216
H27 H 0.6895 0.2335 0.7524
C31 C -0.1053(6) 0.3781(7) 1.2353(5)
H28 H -0.1946 0.3437 1.2907
C32 C -0.0146(6) 0.3211(6) 1.1713(5)
H29 H -0.0322 0.2412 1.1748
B2 B 0.1977(7) 0.6372(8) 1.0600(6)
C33 C 0.0675(5) 0.3947(5) 0.4361(5)
H30 H 0.1317 0.4491 0.3559
H31 H 0.0014 0.4414 0.4670
H32 H 0.0231 0.3252 0.4335
loop_
_geom_bond_atom_site_label_1
_geom_bond_atom_site_label_2
_geom_bond_site_symmetry_1
_geom_bond_site_symmetry_2
F1 B2 1_555 1_555
F2 B2 1_555 1_555
N1 C5 1_555 1_555
N2 C22 1_555 1_555
C1 C2 1_555 1_555
C2 C15 1_555 1_555
C3 C4 1_555 1_555
C4 C17 1_555 1_555
C5 C12 1_555 1_555
C6 C1 1_555 1_555
C7 C3 1_555 1_555
H1 C7 1_555 1_555
C8 C11 1_555 1_555
C9 H2 1_555 1_555
C10 C23 1_555 1_555
C11 H3 1_555 1_555
C12 H4 1_555 1_555
C13 C5 1_555 1_555
C14 C8 1_555 1_555
H5 C14 1_555 1_555
C15 H6 1_555 1_555
H7 C15 1_555 1_555
H8 C15 1_555 1_555
C16 C11 1_555 1_555
C17 C9 1_555 1_555
C18 C14 1_555 1_555
H9 C18 1_555 1_555
C19 C7 1_555 1_555
C20 N1 1_555 1_555
H10 C20 1_555 1_555
C21 C3 1_555 1_555
H11 C21 1_555 1_555
H12 C21 1_555 1_555
H13 C21 1_555 1_555
C22 C13 1_555 1_555
C23 C2 1_555 1_555
H14 C23 1_555 1_555
C24 C6 1_555 1_555
H15 C24 1_555 1_555
H16 C24 1_555 1_555
H17 C24 1_555 1_555
C25 C6 1_555 1_555
H18 C25 1_555 1_555
B1 C1 1_555 1_555
C26 N2 1_555 1_555
H19 C26 1_555 1_555
C27 C12 1_555 1_555
H20 C27 1_555 1_555
C28 C19 1_555 1_555
H21 C28 1_555 1_555
H22 C28 1_555 1_555
H23 C28 1_555 1_555
C29 C16 1_555 1_555
H24 C29 1_555 1_555
C30 C17 1_555 1_555
H25 C30 1_555 1_555
H26 C30 1_555 1_555
H27 C30 1_555 1_555
C31 C26 1_555 1_555
H28 C31 1_555 1_555
C32 C22 1_555 1_555
H29 C32 1_555 1_555
B2 N1 1_555 1_555
C33 C10 1_555 1_555
H30 C33 1_555 1_555
H31 C33 1_555 1_555
H32 C33 1_555 1_555
N2 B2 1_555 1_555
C4 B1 1_555 1_555
C8 C13 1_555 1_555
C9 C19 1_555 1_555
C10 C25 1_555 1_555
C16 B1 1_555 1_555
C18 C29 1_555 1_555
C20 C27 1_555 1_555
C31 C32 1_555 1_555

#END
