
#######################################################################
#
#                 Cambridge Crystallographic Data Centre
#                                CCDC 
#
#######################################################################
#
# If this CIF has been generated from an entry in the Cambridge 
# Structural Database, then it will include bibliographic, chemical, 
# crystal, experimental, refinement or atomic coordinate data resulting 
# from the CCDC's data processing and validation procedures.
#
#######################################################################

data_POCVOT
_chemical_name_common            
5,5'-(2-phenyl-4,5,6,7-tetrahydro-2H-isophosphindole-1,3-diyl)bis(2,3-dihydrothieno[3,4-b][1,4]dioxine)
_chemical_formula_moiety         'C26 H23 O4 P1 S2'
_chemical_name_systematic        
3,4-butylene-1-phenyl-2,5-bis(3,4-(ethylenedioxy)-2-thienyl)-1H-phosphole
_symmetry_cell_setting           monoclinic
_symmetry_space_group_name_H-M   'P 21/c'
_symmetry_Int_Tables_number      14
_space_group_name_Hall           '-P 2ybc'
loop_
_symmetry_equiv_pos_site_id
_symmetry_equiv_pos_as_xyz
1 x,y,z
2 -x,1/2+y,1/2-z
3 -x,-y,-z
4 x,1/2-y,1/2+z
_cell_length_a                   11.081(2)
_cell_length_b                   14.186(2)
_cell_length_c                   15.345(3)
_cell_angle_alpha                90
_cell_angle_beta                 104.749(7)
_cell_angle_gamma                90
_cell_volume                     2332.68
_exptl_crystal_colour            orange
_exptl_crystal_description       block
_cell_formula_units_Z            4
_chemical_properties_physical    air-sensitive
_exptl_crystal_recrystallization_method dichloromethane
loop_
_atom_site_label
_atom_site_type_symbol
_atom_site_fract_x
_atom_site_fract_y
_atom_site_fract_z
P1 P 0.83437(5) 0.13500(4) 0.75103(4)
S1 S 1.14244(6) 0.15553(5) 1.00814(5)
S2 S 0.54396(6) 0.13596(4) 0.61066(4)
O1 O 1.08765(17) 0.17580(14) 0.74998(12)
O2 O 1.34384(19) 0.2120(2) 0.84188(19)
O3 O 0.51072(16) -0.07244(12) 0.76622(11)
O4 O 0.31600(17) -0.07283(14) 0.59991(12)
C1 C 0.69631(19) 0.09150(16) 0.77919(14)
C2 C 0.7118(2) 0.09141(16) 0.87001(15)
C3 C 0.6110(2) 0.0738(2) 0.91755(16)
H1 H 0.6017 0.0064 0.9243
H2 H 0.5325 0.0980 0.8811
C4 C 0.6398(3) 0.1197(3) 1.0091(2)
H3 H 0.6335 0.1876 1.0017
H4 H 0.5783 0.1000 1.0405
C5 C 0.7651(3) 0.0956(3) 1.0642(2)
H5 H 0.7687 0.0281 1.0749
H6 H 0.7782 0.1267 1.1221
C6 C 0.8707(2) 0.1230(2) 1.02209(16)
H7 H 0.8946 0.1877 1.0384
H8 H 0.9424 0.0834 1.0475
C7 C 0.8387(2) 0.11428(16) 0.92087(14)
C8 C 0.9202(2) 0.13051(15) 0.86864(14)
C9 C 1.0529(2) 0.15166(16) 0.89685(16)
C10 C 1.1290(2) 0.17202(17) 0.84134(17)
C11 C 1.1879(3) 0.1656(3) 0.7064(3)
H9 H 1.1574 0.1802 0.6429
H10 H 1.2168 0.1008 0.7118
C12 C 1.2924(3) 0.2287(4) 0.7472(3)
H11 H 1.3577 0.2207 0.7161
H12 H 1.2638 0.2935 0.7387
C13 C 1.2546(2) 0.1914(2) 0.8871(2)
C14 C 1.2757(2) 0.1846(2) 0.9770(2)
H13 H 1.3529 0.1945 1.0173
C15 C 0.5839(2) 0.06931(16) 0.70895(14)
C16 C 0.50174(19) -0.00366(16) 0.70212(14)
C17 C 0.4071(4) -0.1326(3) 0.7469(3)
H14 H 0.4359 -0.1939 0.7716
H15 H 0.3500 -0.1096 0.7806
C18 C 0.3400(5) -0.1466(3) 0.6620(3)
H16 H 0.2599 -0.1718 0.6653
H17 H 0.3815 -0.1958 0.6367
C19 C 0.4069(2) -0.00446(17) 0.61979(15)
C20 C 0.4173(2) 0.06677(19) 0.56378(16)
H18 H 0.3631 0.0769 0.5074
C21 C 0.88673(19) 0.03539(16) 0.69533(14)
C22 C 0.8601(2) 0.0358(2) 0.60212(16)
H19 H 0.8146 0.0852 0.5698
C23 C 0.9012(3) -0.0376(2) 0.55677(18)
H20 H 0.8812 -0.0379 0.4941
C24 C 0.9707(3) -0.1091(2) 0.6038(2)
H21 H 1.0000 -0.1571 0.5733
C25 C 0.9971(3) -0.1101(2) 0.6962(2)
H22 H 1.0440 -0.1592 0.7280
C26 C 0.9549(3) -0.03910(18) 0.74224(17)
H23 H 0.9720 -0.0411 0.8048
loop_
_geom_bond_atom_site_label_1
_geom_bond_atom_site_label_2
_geom_bond_site_symmetry_1
_geom_bond_site_symmetry_2
P1 C1 1_555 1_555
S1 C9 1_555 1_555
S2 C15 1_555 1_555
O1 C10 1_555 1_555
O2 C12 1_555 1_555
O3 C16 1_555 1_555
O4 C18 1_555 1_555
C1 C2 1_555 1_555
C2 C3 1_555 1_555
C3 H1 1_555 1_555
H2 C3 1_555 1_555
C4 C3 1_555 1_555
H3 C4 1_555 1_555
H4 C4 1_555 1_555
C5 C4 1_555 1_555
H5 C5 1_555 1_555
H6 C5 1_555 1_555
C6 C5 1_555 1_555
H7 C6 1_555 1_555
H8 C6 1_555 1_555
C7 C2 1_555 1_555
C8 P1 1_555 1_555
C9 C8 1_555 1_555
C10 C9 1_555 1_555
C11 O1 1_555 1_555
H9 C11 1_555 1_555
H10 C11 1_555 1_555
C12 C11 1_555 1_555
H11 C12 1_555 1_555
H12 C12 1_555 1_555
C13 O2 1_555 1_555
C14 S1 1_555 1_555
H13 C14 1_555 1_555
C15 C1 1_555 1_555
C16 C15 1_555 1_555
C17 O3 1_555 1_555
H14 C17 1_555 1_555
H15 C17 1_555 1_555
C18 C17 1_555 1_555
H16 C18 1_555 1_555
H17 C18 1_555 1_555
C19 O4 1_555 1_555
C20 S2 1_555 1_555
H18 C20 1_555 1_555
C21 P1 1_555 1_555
C22 C21 1_555 1_555
H19 C22 1_555 1_555
C23 C22 1_555 1_555
H20 C23 1_555 1_555
C24 C23 1_555 1_555
H21 C24 1_555 1_555
C25 C24 1_555 1_555
H22 C25 1_555 1_555
C26 C21 1_555 1_555
H23 C26 1_555 1_555
C6 C7 1_555 1_555
C7 C8 1_555 1_555
C10 C13 1_555 1_555
C13 C14 1_555 1_555
C16 C19 1_555 1_555
C19 C20 1_555 1_555
C25 C26 1_555 1_555

#END
