
#######################################################################
#
#                 Cambridge Crystallographic Data Centre
#                                CCDC 
#
#######################################################################
#
# If this CIF has been generated from an entry in the Cambridge 
# Structural Database, then it will include bibliographic, chemical, 
# crystal, experimental, refinement or atomic coordinate data resulting 
# from the CCDC's data processing and validation procedures.
#
#######################################################################

data_PODCAO
_chemical_formula_moiety         'C20 H17 B1 F2 N4'
_chemical_name_systematic        
3,3-difluoro-6-(4-methylphenyl)-2,4-diphenyl-1,2,4,5,3-tetrazaborinine
_symmetry_cell_setting           monoclinic
_symmetry_space_group_name_H-M   'P 21/c'
_symmetry_Int_Tables_number      14
_space_group_name_Hall           '-P 2ybc'
loop_
_symmetry_equiv_pos_site_id
_symmetry_equiv_pos_as_xyz
1 x,y,z
2 -x,1/2+y,1/2-z
3 -x,-y,-z
4 x,1/2-y,1/2+z
_cell_length_a                   10.4160(6)
_cell_length_b                   18.8213(11)
_cell_length_c                   9.2633(5)
_cell_angle_alpha                90
_cell_angle_beta                 101.539(2)
_cell_angle_gamma                90
_cell_volume                     1779.3
_cell_formula_units_Z            4
loop_
_atom_site_label
_atom_site_type_symbol
_atom_site_fract_x
_atom_site_fract_y
_atom_site_fract_z
F1 F -0.06709(7) 0.23795(4) 1.10691(7)
F2 F -0.15026(6) 0.31513(4) 0.92168(8)
N1 N -0.14199(9) 0.18936(5) 0.86528(10)
N2 N -0.07159(9) 0.13420(5) 0.84417(10)
N3 N 0.12336(9) 0.20317(5) 0.89571(10)
N4 N 0.05693(9) 0.25967(5) 0.91815(10)
C1 C -0.27711(11) 0.18529(6) 0.79476(13)
C2 C -0.36977(12) 0.22125(6) 0.85633(14)
H1 H -0.3436 0.2483 0.9439
C3 C -0.50125(12) 0.21720(7) 0.78806(16)
H2 H -0.5651 0.2420 0.8287
C4 C -0.53973(12) 0.17729(7) 0.66129(16)
H3 H -0.6297 0.1746 0.6154
C5 C -0.44685(13) 0.14121(7) 0.60137(15)
H4 H -0.4736 0.1134 0.5150
C6 C -0.31474(12) 0.14542(6) 0.66692(13)
H5 H -0.2510 0.1213 0.6248
C7 C 0.05968(11) 0.14075(6) 0.87888(12)
C8 C 0.13893(11) 0.07616(6) 0.87070(12)
C9 C 0.08081(12) 0.00910(6) 0.85176(13)
H6 H -0.0108 0.0043 0.8468
C10 C 0.15641(12) -0.05076(6) 0.84008(13)
H7 H 0.1156 -0.0961 0.8277
C11 C 0.29072(12) -0.04547(6) 0.84621(13)
C12 C 0.34808(12) 0.02176(7) 0.86605(13)
H8 H 0.4396 0.0265 0.8707
C13 C 0.27390(12) 0.08166(6) 0.87912(13)
H9 H 0.3152 0.1268 0.8939
C14 C 0.37233(13) -0.11002(7) 0.83008(15)
H10 H 0.3191 -0.1529 0.8305
H11 H 0.4478 -0.1119 0.9123
H12 H 0.4031 -0.1072 0.7370
C15 C 0.11919(11) 0.32548(6) 0.89800(12)
C16 C 0.19540(11) 0.33091(6) 0.79088(13)
H13 H 0.2034 0.2917 0.7288
C17 C 0.25937(12) 0.39415(7) 0.77601(15)
H14 H 0.3115 0.3984 0.7033
C18 C 0.24759(13) 0.45135(7) 0.86693(16)
H15 H 0.2927 0.4944 0.8570
C19 C 0.17036(13) 0.44596(7) 0.97218(15)
H16 H 0.1622 0.4854 1.0338
C20 C 0.10490(12) 0.38308(6) 0.98773(13)
H17 H 0.0509 0.3794 1.0588
B1 B -0.08009(13) 0.25407(7) 0.95910(14)
loop_
_geom_bond_atom_site_label_1
_geom_bond_atom_site_label_2
_geom_bond_site_symmetry_1
_geom_bond_site_symmetry_2
F1 B1 1_555 1_555
F2 B1 1_555 1_555
N1 N2 1_555 1_555
N2 C7 1_555 1_555
N3 N4 1_555 1_555
N4 C15 1_555 1_555
C1 N1 1_555 1_555
C2 C1 1_555 1_555
H1 C2 1_555 1_555
C3 C2 1_555 1_555
H2 C3 1_555 1_555
C4 C3 1_555 1_555
H3 C4 1_555 1_555
C5 C4 1_555 1_555
H4 C5 1_555 1_555
C6 C1 1_555 1_555
H5 C6 1_555 1_555
C7 N3 1_555 1_555
C8 C7 1_555 1_555
C9 C8 1_555 1_555
H6 C9 1_555 1_555
C10 C9 1_555 1_555
H7 C10 1_555 1_555
C11 C10 1_555 1_555
C12 C11 1_555 1_555
H8 C12 1_555 1_555
C13 C8 1_555 1_555
H9 C13 1_555 1_555
C14 C11 1_555 1_555
H10 C14 1_555 1_555
H11 C14 1_555 1_555
H12 C14 1_555 1_555
C15 C16 1_555 1_555
C16 H13 1_555 1_555
C17 C16 1_555 1_555
H14 C17 1_555 1_555
C18 C17 1_555 1_555
H15 C18 1_555 1_555
C19 C18 1_555 1_555
H16 C19 1_555 1_555
C20 C15 1_555 1_555
H17 C20 1_555 1_555
B1 N1 1_555 1_555
N4 B1 1_555 1_555
C5 C6 1_555 1_555
C12 C13 1_555 1_555
C19 C20 1_555 1_555

#END
