
#######################################################################
#
#                 Cambridge Crystallographic Data Centre
#                                CCDC 
#
#######################################################################
#
# If this CIF has been generated from an entry in the Cambridge 
# Structural Database, then it will include bibliographic, chemical, 
# crystal, experimental, refinement or atomic coordinate data resulting 
# from the CCDC's data processing and validation procedures.
#
#######################################################################

data_PODFIZ
_chemical_formula_moiety         'C9 H8 N4 O1'
_chemical_name_systematic        3-azido-3-methyl-1,3-dihydro-2H-indol-2-one
_symmetry_cell_setting           monoclinic
_symmetry_space_group_name_H-M   'P 21/c'
_symmetry_Int_Tables_number      14
_space_group_name_Hall           '-P 2ybc'
loop_
_symmetry_equiv_pos_site_id
_symmetry_equiv_pos_as_xyz
1 x,y,z
2 -x,1/2+y,1/2-z
3 -x,-y,-z
4 x,1/2-y,1/2+z
_cell_length_a                   9.0114(6)
_cell_length_b                   11.6358(10)
_cell_length_c                   10.5021(9)
_cell_angle_alpha                90
_cell_angle_beta                 124.828(2)
_cell_angle_gamma                90
_cell_volume                     903.939
_exptl_crystal_colour            colorless
_exptl_crystal_description       block
_cell_formula_units_Z            4
loop_
_atom_site_label
_atom_site_type_symbol
_atom_site_fract_x
_atom_site_fract_y
_atom_site_fract_z
O1 O 0.48081(12) 0.09598(8) 0.13635(11)
N1 N 0.72783(15) 0.04564(9) 0.13580(12)
H1 H 0.6769 -0.0064 0.0617
N2 N 0.72172(16) 0.29941(10) 0.29371(14)
N3 N 0.58345(17) 0.31853(10) 0.28969(13)
N4 N 0.46033(19) 0.34782(11) 0.28422(17)
C1 C 0.90952(18) 0.08065(11) 0.21455(14)
C2 C 1.03782(19) 0.04413(12) 0.19150(15)
H2 H 1.0114 -0.0134 0.1171
C3 C 1.2077(2) 0.09493(13) 0.28167(17)
H3 H 1.2990 0.0725 0.2678
C4 C 1.2461(2) 0.17754(13) 0.39123(18)
H4 H 1.3628 0.2116 0.4505
C5 C 1.11651(19) 0.21158(12) 0.41611(16)
H5 H 1.1441 0.2670 0.4932
C6 C 0.94671(17) 0.16262(11) 0.32572(14)
C7 C 0.78159(18) 0.17717(11) 0.32661(15)
C8 C 0.64172(18) 0.10154(11) 0.18791(14)
C9 C 0.8079(2) 0.13367(13) 0.47558(16)
H6 H 0.8967 0.1821 0.5629
H7 H 0.8514 0.0541 0.4948
H8 H 0.6924 0.1369 0.4646
loop_
_geom_bond_atom_site_label_1
_geom_bond_atom_site_label_2
_geom_bond_site_symmetry_1
_geom_bond_site_symmetry_2
O1 C8 1_555 1_555
N1 H1 1_555 1_555
N2 N3 1_555 1_555
N3 N4 1_555 1_555
C1 N1 1_555 1_555
C2 C1 1_555 1_555
H2 C2 1_555 1_555
C3 C2 1_555 1_555
H3 C3 1_555 1_555
C4 C3 1_555 1_555
H4 C4 1_555 1_555
C5 C4 1_555 1_555
H5 C5 1_555 1_555
C6 C1 1_555 1_555
C7 N2 1_555 1_555
C8 N1 1_555 1_555
C9 C7 1_555 1_555
H6 C9 1_555 1_555
H7 C9 1_555 1_555
H8 C9 1_555 1_555
C5 C6 1_555 1_555
C6 C7 1_555 1_555
C7 C8 1_555 1_555

#END
