
#######################################################################
#
#                 Cambridge Crystallographic Data Centre
#                                CCDC 
#
#######################################################################
#
# If this CIF has been generated from an entry in the Cambridge 
# Structural Database, then it will include bibliographic, chemical, 
# crystal, experimental, refinement or atomic coordinate data resulting 
# from the CCDC's data processing and validation procedures.
#
#######################################################################

data_PODKEA01
_chemical_formula_moiety         'C14 H8 S2'
_chemical_name_systematic        '[1]benzothieno[3,2-b][1]benzothiophene'
_symmetry_cell_setting           monoclinic
_symmetry_space_group_name_H-M   'P 21/c'
_symmetry_Int_Tables_number      14
_space_group_name_Hall           '-P 2ybc'
loop_
_symmetry_equiv_pos_site_id
_symmetry_equiv_pos_as_xyz
1 x,y,z
2 -x,1/2+y,1/2-z
3 -x,-y,-z
4 x,1/2-y,1/2+z
_cell_length_a                   11.8095(7)
_cell_length_b                   5.8538(3)
_cell_length_c                   7.9599(5)
_cell_angle_alpha                90
_cell_angle_beta                 105.990(6)
_cell_angle_gamma                90
_cell_volume                     528.981
_exptl_crystal_colour            colorless
_exptl_crystal_description       'large plate'
_cell_formula_units_Z            2
loop_
_atom_site_label
_atom_site_type_symbol
_atom_site_fract_x
_atom_site_fract_y
_atom_site_fract_z
S1 S 0.42047(4) 0.21269(8) 0.85872(6)
C1 C 0.52488(18) 0.4063(3) 0.9725(3)
C2 C 0.30703(18) 0.3854(3) 0.8888(3)
C3 C 0.34889(18) 0.5884(3) 0.9827(2)
C4 C 0.2675(2) 0.7419(4) 1.0185(3)
H1 H 0.2938 0.8786 1.0815
C5 C 0.14893(19) 0.6927(4) 0.9615(3)
H2 H 0.0936 0.7963 0.9861
C6 C 0.10862(19) 0.4920(4) 0.8679(3)
H3 H 0.0265 0.4620 0.8295
C7 C 0.18681(19) 0.3372(4) 0.8306(3)
H4 H 0.1594 0.2014 0.7670
S1B S 0.57953(4) 0.78731(8) 1.14128(6)
C1B C 0.47512(18) 0.5937(3) 1.0275(3)
C2B C 0.69297(18) 0.6146(3) 1.1112(3)
C3B C 0.65111(18) 0.4116(3) 1.0173(2)
C4B C 0.7325(2) 0.2581(4) 0.9815(3)
H1B H 0.7062 0.1214 0.9185
C5B C 0.85107(19) 0.3073(4) 1.0385(3)
H2B H 0.9064 0.2037 1.0139
C6B C 0.89138(19) 0.5080(4) 1.1321(3)
H3B H 0.9735 0.5380 1.1705
C7B C 0.81319(19) 0.6628(4) 1.1694(3)
H4B H 0.8406 0.7986 1.2330
loop_
_geom_bond_atom_site_label_1
_geom_bond_atom_site_label_2
_geom_bond_site_symmetry_1
_geom_bond_site_symmetry_2
S1 C1 1_555 1_555
C1 C1B 1_555 1_555
C2 S1 1_555 1_555
C3 C2 1_555 1_555
C4 C3 1_555 1_555
H1 C4 1_555 1_555
C5 C4 1_555 1_555
H2 C5 1_555 1_555
C6 C5 1_555 1_555
H3 C6 1_555 1_555
C7 C2 1_555 1_555
H4 C7 1_555 1_555
S1B C1B 1_555 1_555
C1B C3 1_555 1_555
C2B S1B 1_555 1_555
C3B C1 1_555 1_555
C4B C3B 1_555 1_555
H1B C4B 1_555 1_555
C5B C4B 1_555 1_555
H2B C5B 1_555 1_555
C6B C5B 1_555 1_555
H3B C6B 1_555 1_555
C7B C2B 1_555 1_555
H4B C7B 1_555 1_555
C6 C7 1_555 1_555
C2B C3B 1_555 1_555
C6B C7B 1_555 1_555

#END
