
#######################################################################
#
#                 Cambridge Crystallographic Data Centre
#                                CCDC 
#
#######################################################################
#
# If this CIF has been generated from an entry in the Cambridge 
# Structural Database, then it will include bibliographic, chemical, 
# crystal, experimental, refinement or atomic coordinate data resulting 
# from the CCDC's data processing and validation procedures.
#
#######################################################################

data_PODRAD
_chemical_formula_moiety         'C15 H10 Cl1 N1 O5'
_chemical_name_systematic        '2-(4-chlorophenyl)-2-oxoethyl 3-nitrobenzoate'
_symmetry_cell_setting           triclinic
_symmetry_space_group_name_H-M   'P -1'
_symmetry_Int_Tables_number      2
_space_group_name_Hall           '-P 1'
loop_
_symmetry_equiv_pos_site_id
_symmetry_equiv_pos_as_xyz
1 x,y,z
2 -x,-y,-z
_cell_length_a                   9.2584(10)
_cell_length_b                   12.1055(18)
_cell_length_c                   14.1230(18)
_cell_angle_alpha                100.787(4)
_cell_angle_beta                 100.202(11)
_cell_angle_gamma                106.206(5)
_cell_volume                     1448.31
_exptl_crystal_colour            colorless
_exptl_crystal_description       block
_cell_formula_units_Z            4
loop_
_atom_site_label
_atom_site_type_symbol
_atom_site_fract_x
_atom_site_fract_y
_atom_site_fract_z
Cl1 Cl 1.21418(9) 0.81915(8) 0.04241(5)
O1 O 0.8675(2) 1.02951(15) 0.37831(14)
O2 O 0.76644(18) 0.89032(14) 0.48979(11)
O3 O 0.7633(2) 0.73323(16) 0.55234(14)
O4 O 0.3702(4) 0.7950(3) 0.8634(2)
O5 O 0.4736(3) 0.6696(2) 0.80496(18)
N1 N 0.4475(3) 0.7629(3) 0.81010(16)
C1 C 1.0090(2) 0.79840(19) 0.26617(16)
H1 H 0.9854 0.7464 0.3062
C2 C 1.0846(3) 0.7727(2) 0.19309(16)
H2 H 1.1126 0.7041 0.1841
C3 C 1.1181(3) 0.8500(2) 0.13364(16)
C4 C 1.0766(3) 0.9516(2) 0.14492(17)
H3 H 1.0983 1.0020 0.1033
C5 C 1.0024(3) 0.9779(2) 0.21870(17)
H4 H 0.9755 1.0470 0.2272
C6 C 0.9676(2) 0.90202(17) 0.28055(14)
C7 C 0.8909(2) 0.93508(18) 0.36066(15)
C8 C 0.8441(3) 0.8454(2) 0.41971(16)
H5 H 0.7754 0.7705 0.3756
H6 H 0.9352 0.8317 0.4545
C9 C 0.7286(2) 0.82157(19) 0.55155(15)
C10 C 0.6397(2) 0.86743(18) 0.61897(14)
C11 C 0.6080(2) 0.9730(2) 0.62005(17)
H7 H 0.6415 1.0184 0.5770
C12 C 0.5259(3) 1.0107(2) 0.6857(2)
H8 H 0.5058 1.0820 0.6870
C13 C 0.4742(3) 0.9436(2) 0.74876(19)
H9 H 0.4189 0.9682 0.7927
C14 C 0.5067(2) 0.8386(2) 0.74488(15)
C15 C 0.5875(2) 0.7990(2) 0.68229(15)
H10 H 0.6074 0.7278 0.6819
Cl2 Cl -0.37639(8) 0.32260(7) 0.62574(5)
O6 O -0.0544(2) 0.52650(15) 0.27798(13)
O7 O 0.0813(2) 0.39413(15) 0.18294(11)
O8 O 0.1437(2) 0.22717(16) 0.14844(14)
O9 O 0.4402(3) 0.2970(3) -0.20960(18)
O10 O 0.3993(3) 0.1711(2) -0.12133(19)
N2 N 0.3956(3) 0.2640(3) -0.14089(16)
C16 C -0.1417(3) 0.30273(19) 0.41639(16)
H11 H -0.0925 0.2521 0.3887
C17 C -0.2147(3) 0.2761(2) 0.49028(16)
H12 H -0.2159 0.2080 0.5120
C18 C -0.2863(2) 0.3530(2) 0.53151(16)
C19 C -0.2881(3) 0.4535(2) 0.49896(18)
H13 H -0.3378 0.5037 0.5267
C20 C -0.2149(3) 0.47817(19) 0.42430(17)
H14 H -0.2156 0.5455 0.4018
C21 C -0.1399(2) 0.40339(17) 0.38234(14)
C22 C -0.0598(2) 0.43657(19) 0.30369(15)
C23 C 0.0125(3) 0.3487(2) 0.25711(17)
H15 H 0.0910 0.3392 0.3075
H16 H -0.0661 0.2718 0.2270
C24 C 0.1419(3) 0.3204(2) 0.13199(15)
C25 C 0.2075(2) 0.36884(19) 0.05332(15)
C26 C 0.2026(3) 0.4767(2) 0.03494(17)
H17 H 0.1589 0.5231 0.0734
C27 C 0.2631(3) 0.5151(2) -0.0411(2)
H18 H 0.2606 0.5876 -0.0529
C28 C 0.3266(3) 0.4464(2) -0.09877(17)
H19 H 0.3662 0.4710 -0.1502
C29 C 0.3300(2) 0.3400(2) -0.07850(15)
C30 C 0.2722(2) 0.2991(2) -0.00452(15)
H20 H 0.2761 0.2266 0.0069
loop_
_geom_bond_atom_site_label_1
_geom_bond_atom_site_label_2
_geom_bond_site_symmetry_1
_geom_bond_site_symmetry_2
Cl1 C3 1_555 1_555
O1 C7 1_555 1_555
O2 C8 1_555 1_555
O3 C9 1_555 1_555
O4 N1 1_555 1_555
O5 N1 1_555 1_555
N1 C14 1_555 1_555
C1 H1 1_555 1_555
C2 C1 1_555 1_555
H2 C2 1_555 1_555
C3 C2 1_555 1_555
C4 C3 1_555 1_555
H3 C4 1_555 1_555
C5 C4 1_555 1_555
H4 C5 1_555 1_555
C6 C1 1_555 1_555
C7 C6 1_555 1_555
C8 C7 1_555 1_555
H5 C8 1_555 1_555
H6 C8 1_555 1_555
C9 O2 1_555 1_555
C10 C9 1_555 1_555
C11 C10 1_555 1_555
H7 C11 1_555 1_555
C12 C11 1_555 1_555
H8 C12 1_555 1_555
C13 C12 1_555 1_555
H9 C13 1_555 1_555
C14 C13 1_555 1_555
C15 C10 1_555 1_555
H10 C15 1_555 1_555
Cl2 C18 1_555 1_555
O6 C22 1_555 1_555
O7 C23 1_555 1_555
O8 C24 1_555 1_555
O9 N2 1_555 1_555
O10 N2 1_555 1_555
N2 C29 1_555 1_555
C16 H11 1_555 1_555
C17 C16 1_555 1_555
H12 C17 1_555 1_555
C18 C17 1_555 1_555
C19 C18 1_555 1_555
H13 C19 1_555 1_555
C20 C19 1_555 1_555
H14 C20 1_555 1_555
C21 C16 1_555 1_555
C22 C21 1_555 1_555
C23 C22 1_555 1_555
H15 C23 1_555 1_555
H16 C23 1_555 1_555
C24 O7 1_555 1_555
C25 C24 1_555 1_555
C26 C25 1_555 1_555
H17 C26 1_555 1_555
C27 C26 1_555 1_555
H18 C27 1_555 1_555
C28 C27 1_555 1_555
H19 C28 1_555 1_555
C29 C28 1_555 1_555
C30 C25 1_555 1_555
H20 C30 1_555 1_555
C5 C6 1_555 1_555
C14 C15 1_555 1_555
C20 C21 1_555 1_555
C29 C30 1_555 1_555

#END
