
#######################################################################
#
#                 Cambridge Crystallographic Data Centre
#                                CCDC 
#
#######################################################################
#
# If this CIF has been generated from an entry in the Cambridge 
# Structural Database, then it will include bibliographic, chemical, 
# crystal, experimental, refinement or atomic coordinate data resulting 
# from the CCDC's data processing and validation procedures.
#
#######################################################################

data_PODSIL
_chemical_formula_moiety         'C11 H11 N1 O3'
_chemical_name_systematic        2-(3-Hydroxypropyl)isoindoline-1,3-dione
_symmetry_cell_setting           monoclinic
_symmetry_space_group_name_H-M   'P 21/c'
_symmetry_Int_Tables_number      14
_space_group_name_Hall           '-P 2ybc'
loop_
_symmetry_equiv_pos_site_id
_symmetry_equiv_pos_as_xyz
1 x,y,z
2 -x,1/2+y,1/2-z
3 -x,-y,-z
4 x,1/2-y,1/2+z
_cell_length_a                   12.2439(17)
_cell_length_b                   7.4543(8)
_cell_length_c                   21.973(2)
_cell_angle_alpha                90
_cell_angle_beta                 94.282(10)
_cell_angle_gamma                90
_cell_volume                     1999.87
_exptl_crystal_colour            colorless
_exptl_crystal_description       block
_cell_formula_units_Z            8
_exptl_crystal_recrystallization_method dichloromethane/hexane
loop_
_atom_site_label
_atom_site_type_symbol
_atom_site_fract_x
_atom_site_fract_y
_atom_site_fract_z
C1 C -0.0857(2) 1.0403(4) 0.18923(12)
N1 N -0.03687(16) 1.0749(3) 0.13558(10)
C2 C -0.1115(2) 1.1357(4) 0.09001(13)
C3 C -0.2188(2) 1.1443(3) 0.11742(12)
C4 C -0.3210(2) 1.1925(4) 0.09265(14)
H1 H -0.3318 1.2292 0.0522
C5 C -0.4064(2) 1.1847(4) 0.12939(17)
H2 H -0.4764 1.2155 0.1134
C6 C -0.3910(2) 1.1324(5) 0.18949(17)
H3 H -0.4503 1.1309 0.2136
C7 C -0.2885(2) 1.0822(4) 0.21461(13)
H4 H -0.2779 1.0451 0.2550
C8 C -0.2027(2) 1.0891(4) 0.17735(11)
C9 C 0.0787(2) 1.0381(4) 0.12831(14)
H5 H 0.0887 1.0180 0.0855
H6 H 0.0999 0.9293 0.1503
C10 C 0.1525(2) 1.1912(4) 0.15169(13)
H7 H 0.1367 1.2965 0.1266
H8 H 0.1364 1.2202 0.1931
C11 C 0.2723(2) 1.1459(4) 0.15085(13)
H9 H 0.2893 1.1239 0.1091
H10 H 0.3155 1.2478 0.1660
O1 O 0.30206(16) 0.9926(3) 0.18694(9)
H11 H 0.3201 1.0241 0.2220
O2 O -0.03913(15) 0.9773(3) 0.23486(9)
O3 O -0.09064(17) 1.1723(3) 0.03867(9)
C12 C 0.6527(2) 0.6600(4) 0.14759(12)
N2 N 0.58970(15) 0.7259(3) 0.09773(9)
C13 C 0.6517(2) 0.7526(4) 0.04758(12)
C14 C 0.76489(19) 0.6991(3) 0.06836(11)
C15 C 0.8595(2) 0.7014(4) 0.03807(12)
H12 H 0.8593 0.7385 -0.0024
C16 C 0.9551(2) 0.6459(4) 0.07051(13)
H13 H 1.0205 0.6470 0.0515
C17 C 0.9555(2) 0.5897(4) 0.12984(13)
H14 H 1.0211 0.5533 0.1502
C18 C 0.8603(2) 0.5859(4) 0.16019(12)
H15 H 0.8604 0.5470 0.2004
C19 C 0.76569(18) 0.6419(3) 0.12834(11)
C20 C 0.47280(19) 0.7655(4) 0.09744(12)
H16 H 0.4559 0.8681 0.0713
H17 H 0.4555 0.7971 0.1384
C21 C 0.4024(2) 0.6092(4) 0.07535(13)
H18 H 0.4222 0.5047 0.1001
H19 H 0.4169 0.5817 0.0336
C22 C 0.2817(2) 0.6459(5) 0.07820(13)
H20 H 0.2644 0.7606 0.0590
H21 H 0.2403 0.5543 0.0552
O4 O 0.24918(17) 0.6489(3) 0.13834(9)
H22 H 0.2683 0.7438 0.1547
O5 O 0.61797(14) 0.6272(3) 0.19668(8)
O6 O 0.61543(15) 0.8093(3) -0.00116(8)
loop_
_geom_bond_atom_site_label_1
_geom_bond_atom_site_label_2
_geom_bond_site_symmetry_1
_geom_bond_site_symmetry_2
C1 N1 1_555 1_555
N1 C2 1_555 1_555
C2 C3 1_555 1_555
C3 C4 1_555 1_555
C4 H1 1_555 1_555
C5 C4 1_555 1_555
H2 C5 1_555 1_555
C6 C5 1_555 1_555
H3 C6 1_555 1_555
C7 C6 1_555 1_555
H4 C7 1_555 1_555
C8 C1 1_555 1_555
C9 N1 1_555 1_555
H5 C9 1_555 1_555
H6 C9 1_555 1_555
C10 C9 1_555 1_555
H7 C10 1_555 1_555
H8 C10 1_555 1_555
C11 C10 1_555 1_555
H9 C11 1_555 1_555
H10 C11 1_555 1_555
O1 C11 1_555 1_555
H11 O1 1_555 1_555
O2 C1 1_555 1_555
O3 C2 1_555 1_555
C12 N2 1_555 1_555
N2 C13 1_555 1_555
C13 C14 1_555 1_555
C14 C15 1_555 1_555
C15 H12 1_555 1_555
C16 C15 1_555 1_555
H13 C16 1_555 1_555
C17 C16 1_555 1_555
H14 C17 1_555 1_555
C18 C17 1_555 1_555
H15 C18 1_555 1_555
C19 C12 1_555 1_555
C20 N2 1_555 1_555
H16 C20 1_555 1_555
H17 C20 1_555 1_555
C21 C20 1_555 1_555
H18 C21 1_555 1_555
H19 C21 1_555 1_555
C22 C21 1_555 1_555
H20 C22 1_555 1_555
H21 C22 1_555 1_555
O4 C22 1_555 1_555
H22 O4 1_555 1_555
O5 C12 1_555 1_555
O6 C13 1_555 1_555
C3 C8 1_555 1_555
C7 C8 1_555 1_555
C14 C19 1_555 1_555
C18 C19 1_555 1_555

#END
