
#######################################################################
#
#                 Cambridge Crystallographic Data Centre
#                                CCDC 
#
#######################################################################
#
# If this CIF has been generated from an entry in the Cambridge 
# Structural Database, then it will include bibliographic, chemical, 
# crystal, experimental, refinement or atomic coordinate data resulting 
# from the CCDC's data processing and validation procedures.
#
#######################################################################

data_POFNUU
_chemical_formula_moiety         'C30 H32 F1 N1 O2'
_chemical_name_systematic        
9-(4-Fluorophenyl)-3,3,6,6-tetramethyl-10-p-tolyl-1,2,3,4,5,6,7,8,9,10-decahydroacridine-1,8-dione
_symmetry_cell_setting           monoclinic
_symmetry_space_group_name_H-M   'P 21/n'
_symmetry_Int_Tables_number      14
_space_group_name_Hall           '-P 2yn'
loop_
_symmetry_equiv_pos_site_id
_symmetry_equiv_pos_as_xyz
1 x,y,z
2 1/2-x,1/2+y,1/2-z
3 -x,-y,-z
4 1/2+x,1/2-y,1/2+z
_cell_length_a                   15.1533(15)
_cell_length_b                   10.9643(12)
_cell_length_c                   16.1053(15)
_cell_angle_alpha                90
_cell_angle_beta                 102.317(2)
_cell_angle_gamma                90
_cell_volume                     2614.23
_exptl_crystal_colour            'pale yellow'
_exptl_crystal_description       block
_cell_formula_units_Z            4
_exptl_crystal_recrystallization_method ethanol
loop_
_atom_site_label
_atom_site_type_symbol
_atom_site_fract_x
_atom_site_fract_y
_atom_site_fract_z
F1 F 0.73692(17) -0.0186(2) 0.21288(18)
N1 N 0.99513(16) 0.5507(2) 0.20652(15)
O1 O 0.89407(16) 0.3144(2) -0.03980(14)
O2 O 1.13495(16) 0.1657(2) 0.20291(16)
C1 C 0.93912(19) 0.5309(2) 0.12692(19)
C2 C 0.8806(2) 0.6360(3) 0.08813(19)
H1 H 0.9169 0.6920 0.0628
H2 H 0.8599 0.6794 0.1329
C3 C 0.7985(2) 0.5977(3) 0.0204(2)
C4 C 0.8317(2) 0.5133(3) -0.0417(2)
H3 H 0.7797 0.4807 -0.0814
H4 H 0.8668 0.5606 -0.0740
C5 C 0.8883(2) 0.4090(3) 0.00008(19)
C6 C 0.93853(19) 0.4227(2) 0.08715(18)
C7 C 0.98875(19) 0.3129(2) 0.12966(18)
H5 H 1.0187 0.2735 0.0885
C8 C 1.06046(19) 0.3524(2) 0.20419(19)
C9 C 1.1334(2) 0.2666(3) 0.2352(2)
C10 C 1.2098(2) 0.3074(3) 0.3049(2)
H6 H 1.2559 0.3447 0.2797
H7 H 1.2364 0.2364 0.3366
C11 C 1.1820(3) 0.3972(3) 0.3660(2)
C12 C 1.1319(2) 0.5027(3) 0.3152(2)
H8 H 1.1037 0.5516 0.3525
H9 H 1.1753 0.5540 0.2954
C13 C 1.06083(19) 0.4636(2) 0.24020(18)
C14 C 0.9980(2) 0.6695(2) 0.24664(19)
C15 C 1.0480(2) 0.7618(3) 0.2215(2)
H10 H 1.0790 0.7485 0.1783
C16 C 1.0518(2) 0.8741(3) 0.2606(2)
H11 H 1.0857 0.9363 0.2435
C17 C 1.0058(2) 0.8960(3) 0.3249(2)
C18 C 0.9566(2) 0.8024(3) 0.3491(2)
H12 H 0.9258 0.8153 0.3925
C19 C 0.9519(2) 0.6893(3) 0.3101(2)
H13 H 0.9177 0.6271 0.3268
C20 C 1.0093(3) 1.0207(3) 0.3652(2)
H14 H 0.9604 1.0696 0.3347
H15 H 1.0657 1.0591 0.3633
H16 H 1.0038 1.0126 0.4232
C21 C 0.9223(2) 0.2213(2) 0.15367(18)
C22 C 0.9213(2) 0.1009(3) 0.1283(2)
H17 H 0.9627 0.0739 0.0973
C23 C 0.8588(3) 0.0196(3) 0.1489(2)
H18 H 0.8580 -0.0616 0.1321
C24 C 0.7990(3) 0.0615(4) 0.1941(3)
C25 C 0.7985(3) 0.1776(4) 0.2209(3)
H19 H 0.7572 0.2030 0.2525
C26 C 0.8606(2) 0.2581(3) 0.2007(2)
H20 H 0.8609 0.3386 0.2191
C27 C 0.7548(3) 0.7116(3) -0.0263(2)
H21 H 0.7360 0.7657 0.0135
H22 H 0.7033 0.6881 -0.0691
H23 H 0.7978 0.7524 -0.0526
C28 C 0.7295(2) 0.5314(3) 0.0606(2)
H24 H 0.7564 0.4592 0.0889
H25 H 0.6781 0.5093 0.0172
H26 H 0.7105 0.5842 0.1011
C29 C 1.2664(3) 0.4479(3) 0.4266(3)
H27 H 1.2483 0.4989 0.4684
H28 H 1.3013 0.4948 0.3948
H29 H 1.3022 0.3815 0.4544
C30 C 1.1203(4) 0.3354(4) 0.4167(3)
H30 H 1.0663 0.3081 0.3787
H31 H 1.1048 0.3925 0.4565
H32 H 1.1510 0.2668 0.4469
loop_
_geom_bond_atom_site_label_1
_geom_bond_atom_site_label_2
_geom_bond_site_symmetry_1
_geom_bond_site_symmetry_2
F1 C24 1_555 1_555
N1 C1 1_555 1_555
O1 C5 1_555 1_555
O2 C9 1_555 1_555
C1 C2 1_555 1_555
C2 H1 1_555 1_555
H2 C2 1_555 1_555
C3 C2 1_555 1_555
C4 C3 1_555 1_555
H3 C4 1_555 1_555
H4 C4 1_555 1_555
C5 C4 1_555 1_555
C6 C1 1_555 1_555
C7 C6 1_555 1_555
H5 C7 1_555 1_555
C8 C7 1_555 1_555
C9 C8 1_555 1_555
C10 C9 1_555 1_555
H6 C10 1_555 1_555
H7 C10 1_555 1_555
C11 C10 1_555 1_555
C12 C11 1_555 1_555
H8 C12 1_555 1_555
H9 C12 1_555 1_555
C13 N1 1_555 1_555
C14 N1 1_555 1_555
C15 C14 1_555 1_555
H10 C15 1_555 1_555
C16 C15 1_555 1_555
H11 C16 1_555 1_555
C17 C16 1_555 1_555
C18 C17 1_555 1_555
H12 C18 1_555 1_555
C19 C14 1_555 1_555
H13 C19 1_555 1_555
C20 C17 1_555 1_555
H14 C20 1_555 1_555
H15 C20 1_555 1_555
H16 C20 1_555 1_555
C21 C7 1_555 1_555
C22 C21 1_555 1_555
H17 C22 1_555 1_555
C23 C22 1_555 1_555
H18 C23 1_555 1_555
C24 C23 1_555 1_555
C25 C24 1_555 1_555
H19 C25 1_555 1_555
C26 C21 1_555 1_555
H20 C26 1_555 1_555
C27 C3 1_555 1_555
H21 C27 1_555 1_555
H22 C27 1_555 1_555
H23 C27 1_555 1_555
C28 C3 1_555 1_555
H24 C28 1_555 1_555
H25 C28 1_555 1_555
H26 C28 1_555 1_555
C29 C11 1_555 1_555
H27 C29 1_555 1_555
H28 C29 1_555 1_555
H29 C29 1_555 1_555
C30 C11 1_555 1_555
H30 C30 1_555 1_555
H31 C30 1_555 1_555
H32 C30 1_555 1_555
C5 C6 1_555 1_555
C8 C13 1_555 1_555
C12 C13 1_555 1_555
C18 C19 1_555 1_555
C25 C26 1_555 1_555

#END
