
#######################################################################
#
#                 Cambridge Crystallographic Data Centre
#                                CCDC 
#
#######################################################################
#
# If this CIF has been generated from an entry in the Cambridge 
# Structural Database, then it will include bibliographic, chemical, 
# crystal, experimental, refinement or atomic coordinate data resulting 
# from the CCDC's data processing and validation procedures.
#
#######################################################################

data_POFPOR
_chemical_compound_source        'Lagopsis supina'
_chemical_name_common            'lagopsin A'
_chemical_formula_moiety         'C22 H34 O5'
_chemical_name_systematic        
'4-(2-(3-furyl)ethyl)-2,4-dihydroxy-3,4a,8,8-tetramethyldecahydronaphthalen-1-yl acetate'
_symmetry_cell_setting           orthorhombic
_symmetry_space_group_name_H-M   'P 21 21 21'
_symmetry_Int_Tables_number      19
_space_group_name_Hall           'P 2ac 2ab'
loop_
_symmetry_equiv_pos_site_id
_symmetry_equiv_pos_as_xyz
1 x,y,z
2 1/2-x,-y,1/2+z
3 1/2+x,1/2-y,-z
4 -x,1/2+y,1/2-z
_cell_length_a                   10.48171(11)
_cell_length_b                   13.11257(16)
_cell_length_c                   30.7357(4)
_cell_angle_alpha                90
_cell_angle_beta                 90
_cell_angle_gamma                90
_cell_volume                     4224.38
_exptl_crystal_colour            colorless
_exptl_crystal_description       plate
_cell_formula_units_Z            8
loop_
_atom_site_label
_atom_site_type_symbol
_atom_site_fract_x
_atom_site_fract_y
_atom_site_fract_z
O1 O 0.23177(10) 0.76044(8) 0.12317(3)
O2 O 0.08404(10) 1.07621(8) 0.13370(3)
H1 H 0.0132 1.0962 0.1411
O3 O 0.05891(10) 0.78743(8) 0.18985(3)
H2 H 0.0489 0.8035 0.2154
O4 O -0.36481(12) 1.05383(12) -0.02548(4)
O5 O 0.33782(12) 0.66152(9) 0.17122(4)
C1 C 0.29423(13) 0.94178(11) 0.12571(4)
H3 H 0.2821 0.9986 0.1460
C2 C 0.24007(14) 0.85112(11) 0.15050(4)
H4 H 0.2942 0.8366 0.1758
C3 C -0.07932(16) 0.96062(12) 0.03342(5)
H5 H -0.0114 0.9362 0.0147
H6 H -0.1173 0.9021 0.0478
C4 C 0.07045(14) 0.99345(10) 0.10285(4)
C5 C 0.48338(15) 1.04082(12) 0.09820(5)
H7 H 0.4706 1.0954 0.1191
H8 H 0.5736 1.0381 0.0913
C6 C 0.27481(15) 0.67091(11) 0.13859(5)
C7 C -0.17883(16) 1.01386(13) 0.00640(5)
C8 C 0.44325(14) 0.93915(12) 0.11910(5)
C9 C -0.02357(14) 1.03328(11) 0.06777(5)
H9 H -0.0950 1.0640 0.0830
H10 H 0.0194 1.0878 0.0522
C10 C 0.20859(14) 0.89194(11) 0.04894(4)
H11 H 0.2918 0.8621 0.0462
H12 H 0.1850 0.9235 0.0219
H13 H 0.1478 0.8398 0.0561
C11 C -0.12127(14) 0.91201(12) 0.14314(5)
H14 H -0.1251 0.9677 0.1634
H15 H -0.1493 0.8506 0.1572
H16 H -0.1756 0.9262 0.1187
C12 C 0.40873(15) 1.06530(12) 0.05676(5)
H17 H 0.4386 1.1293 0.0447
H18 H 0.4231 1.0122 0.0353
C13 C 0.10456(14) 0.87369(11) 0.16580(4)
H19 H 0.1069 0.9329 0.1853
C14 C -0.30192(17) 0.98842(16) 0.00184(5)
H20 H -0.3400 0.9330 0.0156
C15 C 0.21043(14) 0.97331(11) 0.08553(4)
C16 C 0.01653(14) 0.89840(11) 0.12730(5)
H21 H 0.0184 0.8404 0.1072
C17 C 0.49747(15) 0.84917(13) 0.09280(5)
H22 H 0.4634 0.7864 0.1039
H23 H 0.5887 0.8484 0.0953
H24 H 0.4741 0.8566 0.0628
C18 C 0.50599(15) 0.93334(14) 0.16448(5)
H25 H 0.4680 0.9833 0.1833
H26 H 0.5958 0.9466 0.1619
H27 H 0.4932 0.8665 0.1765
C19 C 0.26638(15) 1.07303(11) 0.06674(5)
H28 H 0.2211 1.0903 0.0402
H29 H 0.2527 1.1278 0.0874
C20 C 0.23476(18) 0.58615(12) 0.10894(5)
H30 H 0.1446 0.5752 0.1117
H31 H 0.2795 0.5249 0.1167
H32 H 0.2546 0.6041 0.0794
C21 C -0.2760(2) 1.12297(15) -0.03839(6)
H33 H -0.2919 1.1769 -0.0573
C22 C -0.16231(18) 1.10294(13) -0.02016(6)
H34 H -0.0873 1.1397 -0.0240
O6 O 0.00570(10) 0.34205(8) 0.22462(3)
H35 H 0.0754 0.3202 0.2169
O7 O -0.07242(10) 0.61737(8) 0.15615(3)
H36 H -0.0386 0.6674 0.1673
O8 O -0.22620(10) 0.30880(8) 0.18871(3)
O9 O -0.27197(12) 0.85262(9) 0.33603(4)
C23 C -0.13079(14) 0.36020(11) 0.16190(5)
H37 H -0.0830 0.3092 0.1452
O10 O -0.15117(11) 0.15420(8) 0.16999(4)
C24 C -0.16873(13) 0.57783(10) 0.18507(4)
C25 C -0.10246(14) 0.50270(11) 0.21723(4)
H38 H -0.1680 0.4745 0.2365
C26 C -0.31636(16) 0.59835(11) 0.12000(5)
H39 H -0.3699 0.6489 0.1340
H40 H -0.2440 0.6336 0.1073
C27 C -0.00236(16) 0.55694(12) 0.24551(5)
H41 H 0.0560 0.5935 0.2271
H42 H 0.0437 0.5073 0.2623
H43 H -0.0442 0.6039 0.2648
C28 C -0.22303(14) 0.20717(11) 0.19069(5)
C29 C -0.33524(15) 0.84845(12) 0.26691(5)
H44 H -0.3645 0.8692 0.2397
C30 C -0.04028(13) 0.41460(11) 0.19301(5)
H45 H 0.0325 0.4408 0.1764
C31 C -0.26757(14) 0.52214(11) 0.15463(5)
C32 C -0.25957(15) 0.38342(12) 0.09029(5)
C33 C -0.30325(14) 0.74642(12) 0.27979(5)
C34 C -0.36811(16) 0.30752(13) 0.09983(5)
H46 H -0.4397 0.3435 0.1118
H47 H -0.3390 0.2573 0.1203
H48 H -0.3932 0.2744 0.0733
C35 C -0.30928(17) 0.46889(12) 0.06054(5)
H49 H -0.2370 0.5039 0.0477
H50 H -0.3581 0.4386 0.0371
C36 C -0.22538(15) 0.66960(11) 0.21016(5)
H51 H -0.1549 0.7139 0.2180
H52 H -0.2784 0.7073 0.1899
C37 C -0.26524(17) 0.75350(13) 0.32164(5)
H53 H -0.2381 0.6987 0.3385
C38 C -0.19370(13) 0.43516(11) 0.13049(4)
H54 H -0.1209 0.4709 0.1175
C39 C -0.39233(17) 0.54645(13) 0.08383(5)
H55 H -0.4663 0.5127 0.0961
H56 H -0.4220 0.5972 0.0632
C40 C -0.31462(15) 0.90841(12) 0.30184(5)
H57 H -0.3279 0.9785 0.3024
C41 C -0.38362(14) 0.48550(11) 0.18136(5)
H58 H -0.3548 0.4577 0.2085
H59 H -0.4287 0.4340 0.1653
H60 H -0.4395 0.5421 0.1868
C42 C -0.30524(16) 0.65198(12) 0.25181(5)
H61 H -0.3925 0.6357 0.2439
H62 H -0.2705 0.5949 0.2680
C43 C -0.32315(17) 0.16806(13) 0.22116(6)
H63 H -0.3031 0.1888 0.2503
H64 H -0.3259 0.0950 0.2197
H65 H -0.4047 0.1953 0.2130
C44 C -0.15667(17) 0.32437(13) 0.06434(5)
H66 H -0.1323 0.2644 0.0802
H67 H -0.0834 0.3672 0.0602
H68 H -0.1906 0.3049 0.0365
loop_
_geom_bond_atom_site_label_1
_geom_bond_atom_site_label_2
_geom_bond_site_symmetry_1
_geom_bond_site_symmetry_2
O1 C2 1_555 1_555
O2 H1 1_555 1_555
O3 H2 1_555 1_555
O4 C14 1_555 1_555
O5 C6 1_555 1_555
C1 H3 1_555 1_555
C2 C1 1_555 1_555
H4 C2 1_555 1_555
C3 H5 1_555 1_555
H6 C3 1_555 1_555
C4 O2 1_555 1_555
C5 H7 1_555 1_555
H8 C5 1_555 1_555
C6 O1 1_555 1_555
C7 C3 1_555 1_555
C8 C1 1_555 1_555
C9 C3 1_555 1_555
H9 C9 1_555 1_555
H10 C9 1_555 1_555
C10 H11 1_555 1_555
H12 C10 1_555 1_555
H13 C10 1_555 1_555
C11 H14 1_555 1_555
H15 C11 1_555 1_555
H16 C11 1_555 1_555
C12 C5 1_555 1_555
H17 C12 1_555 1_555
H18 C12 1_555 1_555
C13 O3 1_555 1_555
H19 C13 1_555 1_555
C14 C7 1_555 1_555
H20 C14 1_555 1_555
C15 C1 1_555 1_555
C16 C4 1_555 1_555
H21 C16 1_555 1_555
C17 C8 1_555 1_555
H22 C17 1_555 1_555
H23 C17 1_555 1_555
H24 C17 1_555 1_555
C18 C8 1_555 1_555
H25 C18 1_555 1_555
H26 C18 1_555 1_555
H27 C18 1_555 1_555
C19 C12 1_555 1_555
H28 C19 1_555 1_555
H29 C19 1_555 1_555
C20 C6 1_555 1_555
H30 C20 1_555 1_555
H31 C20 1_555 1_555
H32 C20 1_555 1_555
C21 O4 1_555 1_555
H33 C21 1_555 1_555
C22 C7 1_555 1_555
H34 C22 1_555 1_555
O6 H35 1_555 1_555
O7 H36 1_555 1_555
O8 C23 1_555 1_555
O9 C37 1_555 1_555
C23 H37 1_555 1_555
O10 C28 1_555 1_555
C24 O7 1_555 1_555
C25 C24 1_555 1_555
H38 C25 1_555 1_555
C26 H39 1_555 1_555
H40 C26 1_555 1_555
C27 C25 1_555 1_555
H41 C27 1_555 1_555
H42 C27 1_555 1_555
H43 C27 1_555 1_555
C28 O8 1_555 1_555
C29 H44 1_555 1_555
C30 O6 1_555 1_555
H45 C30 1_555 1_555
C31 C24 1_555 1_555
C32 C34 1_555 1_555
C33 C29 1_555 1_555
C34 H46 1_555 1_555
H47 C34 1_555 1_555
H48 C34 1_555 1_555
C35 C32 1_555 1_555
H49 C35 1_555 1_555
H50 C35 1_555 1_555
C36 C24 1_555 1_555
H51 C36 1_555 1_555
H52 C36 1_555 1_555
C37 C33 1_555 1_555
H53 C37 1_555 1_555
C38 C23 1_555 1_555
H54 C38 1_555 1_555
C39 C26 1_555 1_555
H55 C39 1_555 1_555
H56 C39 1_555 1_555
C40 O9 1_555 1_555
H57 C40 1_555 1_555
C41 C31 1_555 1_555
H58 C41 1_555 1_555
H59 C41 1_555 1_555
H60 C41 1_555 1_555
C42 C33 1_555 1_555
H61 C42 1_555 1_555
H62 C42 1_555 1_555
C43 C28 1_555 1_555
H63 C43 1_555 1_555
H64 C43 1_555 1_555
H65 C43 1_555 1_555
C44 C32 1_555 1_555
H66 C44 1_555 1_555
H67 C44 1_555 1_555
H68 C44 1_555 1_555
C2 C13 1_555 1_555
C4 C9 1_555 1_555
C4 C15 1_555 1_555
C5 C8 1_555 1_555
C10 C15 1_555 1_555
C11 C16 1_555 1_555
C13 C16 1_555 1_555
C15 C19 1_555 1_555
C21 C22 1_555 1_555
C23 C30 1_555 1_555
C25 C30 1_555 1_555
C26 C31 1_555 1_555
C29 C40 1_555 1_555
C31 C38 1_555 1_555
C32 C38 1_555 1_555
C35 C39 1_555 1_555
C36 C42 1_555 1_555

#END
