
#######################################################################
#
#                 Cambridge Crystallographic Data Centre
#                                CCDC 
#
#######################################################################
#
# If this CIF has been generated from an entry in the Cambridge 
# Structural Database, then it will include bibliographic, chemical, 
# crystal, experimental, refinement or atomic coordinate data resulting 
# from the CCDC's data processing and validation procedures.
#
#######################################################################

data_POFPUV
_chemical_formula_moiety         'C16 H12 S8 Te2'
_chemical_name_systematic        
bis(\m~2~-2,3-Dimethyltetrathiafulvalene-6,7-diyl)-di-tellurium
_symmetry_cell_setting           orthorhombic
_symmetry_space_group_name_H-M   'P n m a'
_symmetry_Int_Tables_number      62
_space_group_name_Hall           '-P 2ac 2n'
loop_
_symmetry_equiv_pos_site_id
_symmetry_equiv_pos_as_xyz
1 x,y,z
2 1/2-x,-y,1/2+z
3 1/2+x,1/2-y,1/2-z
4 -x,1/2+y,-z
5 -x,-y,-z
6 1/2+x,y,1/2-z
7 1/2-x,1/2+y,1/2+z
8 x,1/2-y,z
_cell_length_a                   7.815(3)
_cell_length_b                   25.990(8)
_cell_length_c                   11.397(5)
_cell_angle_alpha                90
_cell_angle_beta                 90
_cell_angle_gamma                90
_cell_volume                     2314.87
_exptl_crystal_colour            brown
_chemical_melting_point          'above 300 deg.C (dec)'
_cell_formula_units_Z            4
loop_
_atom_site_label
_atom_site_type_symbol
_atom_site_fract_x
_atom_site_fract_y
_atom_site_fract_z
Te1 Te -0.0572(1) 0.2500 1.0997(1)
Te2 Te 0.1906(1) 0.2500 0.8233(1)
S1 S -0.2362(2) 0.3544(1) 0.9866(1)
S2 S -0.0364(2) 0.3566(1) 0.7704(1)
S3 S -0.2670(2) 0.4789(1) 0.9859(1)
S4 S -0.0630(2) 0.4844(1) 0.7699(1)
C1 C -0.0729(7) 0.3080(2) 0.9725(4)
C2 C 0.0159(7) 0.3085(2) 0.8726(4)
C3 C -0.1484(7) 0.3936(2) 0.8756(4)
C4 C -0.1567(6) 0.4450(2) 0.8759(3)
C5 C -0.2092(6) 0.5406(2) 0.9354(4)
C6 C -0.1176(7) 0.5430(2) 0.8373(4)
C7 C -0.2742(7) 0.5849(2) 1.0085(4)
C8 C -0.0531(7) 0.5904(2) 0.7754(4)
H1 H -0.2367 0.6168 0.9747
H2 H -0.3970 0.5840 1.0103
H3 H -0.2306 0.5819 1.0870
H4 H -0.0885 0.6204 0.8179
H5 H 0.0695 0.5893 0.7715
H6 H -0.0994 0.5915 0.6975
C1G C -0.0729(7) 0.1920(2) 0.9725(4)
C2G C 0.0159(7) 0.1915(2) 0.8726(4)
S1G S -0.2362(2) 0.1456(1) 0.9866(1)
S2G S -0.0364(2) 0.1434(1) 0.7704(1)
C3G C -0.1484(7) 0.1064(2) 0.8756(4)
C4G C -0.1567(6) 0.0550(2) 0.8759(3)
S3G S -0.2670(2) 0.0211(1) 0.9859(1)
S4G S -0.0630(2) 0.0156(1) 0.7699(1)
C5G C -0.2092(6) -0.0406(2) 0.9354(4)
C6G C -0.1176(7) -0.0430(2) 0.8373(4)
C7G C -0.2742(7) -0.0849(2) 1.0085(4)
C8G C -0.0531(7) -0.0904(2) 0.7754(4)
H1G H -0.2367 -0.1168 0.9747
H2G H -0.3970 -0.0840 1.0103
H3G H -0.2306 -0.0819 1.0870
H4G H -0.0885 -0.1204 0.8179
H5G H 0.0695 -0.0893 0.7715
H6G H -0.0994 -0.0915 0.6975
loop_
_geom_bond_atom_site_label_1
_geom_bond_atom_site_label_2
_geom_bond_site_symmetry_1
_geom_bond_site_symmetry_2
Te1 C1 1_555 1_555
Te2 C2 1_555 1_555
S1 C1 1_555 1_555
S2 C2 1_555 1_555
S3 C4 1_555 1_555
S4 C4 1_555 1_555
C1 C2 1_555 1_555
C3 S1 1_555 1_555
C4 C3 1_555 1_555
C5 S3 1_555 1_555
C6 S4 1_555 1_555
C7 C5 1_555 1_555
C8 C6 1_555 1_555
H1 C7 1_555 1_555
H2 C7 1_555 1_555
H3 C7 1_555 1_555
H4 C8 1_555 1_555
H5 C8 1_555 1_555
H6 C8 1_555 1_555
C1G Te1 1_555 1_555
C2G Te2 1_555 1_555
S1G C1G 1_555 1_555
S2G C2G 1_555 1_555
C3G S1G 1_555 1_555
C4G C3G 1_555 1_555
S3G C4G 1_555 1_555
S4G C4G 1_555 1_555
C5G S3G 1_555 1_555
C6G S4G 1_555 1_555
C7G C5G 1_555 1_555
C8G C6G 1_555 1_555
H1G C7G 1_555 1_555
H2G C7G 1_555 1_555
H3G C7G 1_555 1_555
H4G C8G 1_555 1_555
H5G C8G 1_555 1_555
H6G C8G 1_555 1_555
S2 C3 1_555 1_555
C5 C6 1_555 1_555
C1G C2G 1_555 1_555
S2G C3G 1_555 1_555
C5G C6G 1_555 1_555

#END
