
#######################################################################
#
#                 Cambridge Crystallographic Data Centre
#                                CCDC 
#
#######################################################################
#
# If this CIF has been generated from an entry in the Cambridge 
# Structural Database, then it will include bibliographic, chemical, 
# crystal, experimental, refinement or atomic coordinate data resulting 
# from the CCDC's data processing and validation procedures.
#
#######################################################################

data_POFWOW
_chemical_formula_moiety         'C33 H41 N1 O8 S2'
_chemical_name_systematic        
'1,5,7,25-Tetramethyl-28-phenyl-10,13,16,19,22-pentaoxa-6,31-dithia-28-azapentacyclo(23.5.1.0^2,24^.0^4,8^.0^26,30^) hentriaconta-2(24),4,7-triene-27,29-dione 31-oxide'
_symmetry_cell_setting           triclinic
_symmetry_space_group_name_H-M   'P -1'
_symmetry_Int_Tables_number      2
_space_group_name_Hall           '-P 1'
loop_
_symmetry_equiv_pos_site_id
_symmetry_equiv_pos_as_xyz
1 x,y,z
2 -x,-y,-z
_cell_length_a                   11.90(2)
_cell_length_b                   15.45(2)
_cell_length_c                   9.13(2)
_cell_angle_alpha                98.16(1)
_cell_angle_beta                 95.79(2)
_cell_angle_gamma                100.47(1)
_cell_volume                     1620.04
_exptl_crystal_colour            colorless
_chemical_melting_point          '70-71 deg.C'
_cell_formula_units_Z            2
loop_
_atom_site_label
_atom_site_type_symbol
_atom_site_fract_x
_atom_site_fract_y
_atom_site_fract_z
S1 S 0.24965(8) 0.48280(6) 0.1943(1)
S2 S -0.19162(8) 0.69782(6) 0.18316(9)
O1 O 0.2137(2) 0.8000(2) 0.2715(3)
O2 O 0.4623(5) 0.8389(5) 0.4208(7)
O3 O 0.6301(4) 0.7890(3) 0.6141(6)
O4 O 0.4868(4) 0.7265(4) 0.8015(6)
O5 O 0.2502(3) 0.6155(2) 0.6792(3)
O6 O -0.0280(2) 0.7637(2) 0.6988(3)
O7 O 0.0955(2) 0.9649(2) 0.4012(3)
O8 O -0.2912(2) 0.7430(2) 0.1857(3)
N1 N 0.0564(2) 0.8713(2) 0.5724(3)
C1 C 0.0251(3) 0.7182(2) 0.2504(3)
C2 C 0.1348(3) 0.7240(2) 0.1903(4)
C3 C 0.3012(9) 0.8493(7) 0.213(1)
C4 C 0.4193(6) 0.840(1) 0.273(1)
C5 C 0.5817(7) 0.8727(5) 0.460(1)
C6 C 0.606(1) 0.858(1) 0.614(2)
C7 C 0.6609(8) 0.7760(8) 0.771(1)
C8 C 0.5942(8) 0.7422(7) 0.833(1)
C9 C 0.4183(5) 0.6543(5) 0.8687(6)
C10 C 0.2983(4) 0.6614(4) 0.8240(5)
C11 C 0.2686(4) 0.6632(3) 0.5592(5)
C12 C 0.2398(3) 0.5979(2) 0.4191(4)
C13 C 0.3175(3) 0.5630(2) 0.3428(4)
C14 C 0.1149(3) 0.4951(2) 0.2339(4)
C15 C 0.1220(3) 0.5597(2) 0.3541(3)
C16 C 0.0189(3) 0.5898(2) 0.4080(4)
C17 C -0.0228(3) 0.6638(2) 0.3402(3)
C18 C -0.1373(3) 0.6848(2) 0.3744(3)
C19 C -0.1192(3) 0.7820(2) 0.4567(3)
C20 C -0.0283(3) 0.8008(2) 0.5921(3)
C21 C 0.0359(3) 0.9018(2) 0.4376(3)
C22 C -0.0716(3) 0.8432(2) 0.3527(3)
C23 C -0.0540(3) 0.7810(2) 0.2116(3)
C24 C 0.4459(4) 0.5856(4) 0.3744(6)
C25 C 0.0098(4) 0.4345(3) 0.1447(4)
C26 C -0.2208(3) 0.6186(2) 0.4388(4)
C27 C -0.0351(4) 0.8274(3) 0.0785(4)
C28 C 0.1524(3) 0.9106(2) 0.6863(4)
C29 C 0.1296(3) 0.9495(2) 0.8225(4)
C30 C 0.2209(4) 0.9862(3) 0.9320(5)
C31 C 0.3288(4) 0.9857(4) 0.9084(6)
C32 C 0.3495(4) 0.9476(4) 0.7757(7)
C33 C 0.2621(4) 0.9086(3) 0.6605(5)
O9? O 0.4528(6) 0.8712(6) 0.387(1)
O10? O 0.659(1) 0.8280(9) 0.726(1)
O11? O 0.4965(9) 0.6559(8) 0.788(1)
C34? C 0.3271(8) 0.7919(7) 0.203(1)
C35? C 0.394(1) 0.875(2) 0.278(3)
C36? C 0.558(1) 0.858(1) 0.355(2)
C37? C 0.628(2) 0.896(1) 0.543(2)
C38? C 0.676(3) 0.760(3) 0.742(4)
C39? C 0.604(3) 0.703(2) 0.850(4)
C40? C 0.593(2) 0.869(1) 0.707(2)
loop_
_geom_bond_atom_site_label_1
_geom_bond_atom_site_label_2
_geom_bond_site_symmetry_1
_geom_bond_site_symmetry_2
S1 C13 1_555 1_555
S2 O8 1_555 1_555
O1 C2 1_555 1_555
O2 C4 1_555 1_555
O3 C6 1_555 1_555
O4 C8 1_555 1_555
O5 C10 1_555 1_555
O6 C20 1_555 1_555
O7 C21 1_555 1_555
N1 C20 1_555 1_555
C1 C2 1_555 1_555
C3 O1 1_555 1_555
C4 C3 1_555 1_555
C5 O2 1_555 1_555
C6 C5 1_555 1_555
C7 O3 1_555 1_555
C8 C7 1_555 1_555
C9 O4 1_555 1_555
C10 C9 1_555 1_555
C11 O5 1_555 1_555
C12 C11 1_555 1_555
C13 C12 1_555 1_555
C14 S1 1_555 1_555
C15 C12 1_555 1_555
C16 C15 1_555 1_555
C17 C1 1_555 1_555
C18 S2 1_555 1_555
C19 C18 1_555 1_555
C20 C19 1_555 1_555
C21 N1 1_555 1_555
C22 C19 1_555 1_555
C23 S2 1_555 1_555
C24 C13 1_555 1_555
C25 C14 1_555 1_555
C26 C18 1_555 1_555
C27 C23 1_555 1_555
C28 N1 1_555 1_555
C29 C28 1_555 1_555
C30 C29 1_555 1_555
C31 C30 1_555 1_555
C32 C31 1_555 1_555
C33 C28 1_555 1_555
C1 C23 1_555 1_555
C14 C15 1_555 1_555
C16 C17 1_555 1_555
C17 C18 1_555 1_555
C21 C22 1_555 1_555
C22 C23 1_555 1_555
C32 C33 1_555 1_555

#END
