
#######################################################################
#
#                 Cambridge Crystallographic Data Centre
#                                CCDC 
#
#######################################################################
#
# If this CIF has been generated from an entry in the Cambridge 
# Structural Database, then it will include bibliographic, chemical, 
# crystal, experimental, refinement or atomic coordinate data resulting 
# from the CCDC's data processing and validation procedures.
#
#######################################################################

data_POFYIT
_chemical_formula_moiety         'C14 H16 N2 O3'
_chemical_name_systematic        
5-Acetyl-4-(4-methoxyphenyl)-6-methyl-3,4-dihydropyrimidin-2(1H)-one
_symmetry_cell_setting           monoclinic
_symmetry_space_group_name_H-M   'C 2/c'
_symmetry_Int_Tables_number      15
_space_group_name_Hall           '-C 2yn'
loop_
_symmetry_equiv_pos_site_id
_symmetry_equiv_pos_as_xyz
1 x,y,z
2 1/2+x,1/2+y,z
3 -x,y,1/2-z
4 1/2-x,1/2+y,1/2-z
5 -x,-y,-z
6 1/2-x,1/2-y,-z
7 x,-y,1/2+z
8 1/2+x,1/2-y,1/2+z
_cell_length_a                   23.7948(12)
_cell_length_b                   7.9905(3)
_cell_length_c                   14.4757(7)
_cell_angle_alpha                90
_cell_angle_beta                 108.305(5)
_cell_angle_gamma                90
_cell_volume                     2613.03
_exptl_crystal_colour            colorless
_exptl_crystal_description       block
_chemical_melting_point          '474.5 K'
_cell_formula_units_Z            8
loop_
_atom_site_label
_atom_site_type_symbol
_atom_site_fract_x
_atom_site_fract_y
_atom_site_fract_z
O1 O 0.03463(6) 0.62339(16) -0.06612(9)
O2 O 0.06948(6) 0.98745(15) 0.31847(8)
O3 O 0.27417(7) 0.4726(2) 0.44596(12)
N1 N 0.07453(7) 0.86574(18) 0.00570(10)
N2 N 0.04449(7) 0.66399(18) 0.09271(10)
C1 C 0.05037(7) 0.7104(2) 0.00812(11)
C2 C 0.06651(7) 0.75657(19) 0.18405(11)
C3 C 0.07616(7) 0.93953(19) 0.16471(11)
C4 C 0.08211(7) 0.98438(19) 0.07810(11)
C5 C 0.27926(12) 0.4564(4) 0.54607(19)
C6 C 0.07743(7) 1.0494(2) 0.24592(11)
C7 C 0.08710(11) 1.2339(2) 0.24595(14)
C8 C 0.12158(7) 0.67712(19) 0.25352(11)
C9 C 0.17355(9) 0.6594(3) 0.23045(14)
C10 C 0.22307(10) 0.5896(3) 0.29545(17)
C11 C 0.22238(9) 0.5391(3) 0.38624(14)
C12 C 0.17137(9) 0.5551(2) 0.41034(13)
C13 C 0.12122(8) 0.6231(2) 0.34341(12)
C14 C 0.09756(9) 1.1526(2) 0.04681(13)
H1 H 0.0736(9) 0.901(3) -0.0548(16)
H2 H 0.0231(9) 0.572(3) 0.0913(14)
H3 H 0.03559 0.75256 0.21553
H4 H 0.27276 0.56325 0.57124
H5 H 0.31818 0.41685 0.58148
H6 H 0.25029 0.37800 0.55309
H7 H 0.08324 1.28140 0.30456
H8 H 0.05821 1.28296 0.19064
H9 H 0.12608 1.25601 0.24265
H10 H 0.17493 0.69534 0.17010
H11 H 0.25728 0.57630 0.27812
H12 H 0.17030 0.52054 0.47112
H13 H 0.08658 0.63227 0.35988
H14 H 0.06570 1.22943 0.04172
H15 H 0.10388 1.14266 -0.01528
H16 H 0.13299 1.19346 0.09397
loop_
_geom_bond_atom_site_label_1
_geom_bond_atom_site_label_2
_geom_bond_site_symmetry_1
_geom_bond_site_symmetry_2
O1 C1 1_555 1_555
O2 C6 1_555 1_555
O3 C5 1_555 1_555
N1 C1 1_555 1_555
N2 C1 1_555 1_555
C2 N2 1_555 1_555
C3 C2 1_555 1_555
C4 N1 1_555 1_555
C5 H4 1_555 1_555
C6 C3 1_555 1_555
C7 C6 1_555 1_555
C8 C2 1_555 1_555
C9 C8 1_555 1_555
C10 C9 1_555 1_555
C11 O3 1_555 1_555
C12 C11 1_555 1_555
C13 C8 1_555 1_555
C14 C4 1_555 1_555
H1 N1 1_555 1_555
H2 N2 1_555 1_555
H3 C2 1_555 1_555
H5 C5 1_555 1_555
H6 C5 1_555 1_555
H7 C7 1_555 1_555
H8 C7 1_555 1_555
H9 C7 1_555 1_555
H10 C9 1_555 1_555
H11 C10 1_555 1_555
H12 C12 1_555 1_555
H13 C13 1_555 1_555
H14 C14 1_555 1_555
H15 C14 1_555 1_555
H16 C14 1_555 1_555
C3 C4 1_555 1_555
C10 C11 1_555 1_555
C12 C13 1_555 1_555

#END
