
#######################################################################
#
#                 Cambridge Crystallographic Data Centre
#                                CCDC 
#
#######################################################################
#
# If this CIF has been generated from an entry in the Cambridge 
# Structural Database, then it will include bibliographic, chemical, 
# crystal, experimental, refinement or atomic coordinate data resulting 
# from the CCDC's data processing and validation procedures.
#
#######################################################################

data_POFZUH
_chemical_formula_moiety         'C41 H40 N6 O3'
_chemical_name_systematic        
3',6'-bis(diethylamino)-2-((2-hydroxy-5-(phenyldiazenyl)benzylidene)amino)spiro[isoindole-1,9'-xanthen]-3(2H)-one
_symmetry_cell_setting           monoclinic
_symmetry_space_group_name_H-M   'P 21/c'
_symmetry_Int_Tables_number      14
_space_group_name_Hall           '-P 2ybc'
loop_
_symmetry_equiv_pos_site_id
_symmetry_equiv_pos_as_xyz
1 x,y,z
2 -x,1/2+y,1/2-z
3 -x,-y,-z
4 x,1/2-y,1/2+z
_cell_length_a                   12.160(2)
_cell_length_b                   12.154(2)
_cell_length_c                   24.347(4)
_cell_angle_alpha                90
_cell_angle_beta                 96.593(4)
_cell_angle_gamma                90
_cell_volume                     3574.51
_cell_formula_units_Z            4
loop_
_atom_site_label
_atom_site_type_symbol
_atom_site_fract_x
_atom_site_fract_y
_atom_site_fract_z
N1 N 1.3502(3) 0.6355(3) 0.26214(15)
N2 N 0.8285(4) 0.1233(3) 0.36622(17)
N3 N 0.8442(2) 0.6443(2) 0.31602(14)
N4 N 0.8141(2) 0.6139(2) 0.26232(14)
N5 N 0.5003(4) 0.8009(4) 0.06445(18)
N6 N 0.5274(4) 0.7259(5) 0.0405(2)
O1 O 1.0794(2) 0.3972(2) 0.32182(11)
O2 O 0.7169(2) 0.7808(2) 0.32993(13)
O3 O 0.8207(3) 0.4727(2) 0.18428(13)
H1 H 0.8349 0.4988 0.2153
C1 C 1.4358(4) 0.7967(4) 0.3146(3)
H2 H 1.3752 0.7990 0.3366
H3 H 1.4613 0.8702 0.3090
H4 H 1.4950 0.7539 0.3333
C2 C 1.3975(4) 0.7447(4) 0.2591(2)
H5 H 1.3428 0.7924 0.2392
H6 H 1.4602 0.7404 0.2378
C3 C 1.4245(4) 0.5429(4) 0.2553(2)
H7 H 1.4728 0.5622 0.2277
H8 H 1.3806 0.4800 0.2415
C4 C 1.4946(4) 0.5104(4) 0.3078(2)
H9 H 1.5457 0.5686 0.3191
H10 H 1.5350 0.4446 0.3016
H11 H 1.4479 0.4973 0.3364
C5 C 1.2497(3) 0.6196(4) 0.28105(17)
C6 C 1.2087(3) 0.5169(3) 0.29245(16)
H12 H 1.2505 0.4547 0.2869
C7 C 1.1075(3) 0.5047(3) 0.31184(15)
C8 C 1.0414(3) 0.5932(3) 0.32262(15)
C9 C 1.0820(3) 0.6964(3) 0.31049(16)
H13 H 1.0397 0.7582 0.3162
C10 C 1.1828(4) 0.7104(3) 0.29017(17)
H14 H 1.2066 0.7809 0.2825
C11 C 0.9060(3) 0.4595(3) 0.35012(15)
C12 C 0.8076(3) 0.4244(3) 0.36756(15)
H15 H 0.7569 0.4776 0.3756
C13 C 0.7799(3) 0.3154(3) 0.37371(16)
H16 H 0.7123 0.2966 0.3854
C14 C 0.8552(4) 0.2333(3) 0.36207(17)
C15 C 0.9542(4) 0.2659(3) 0.34460(15)
H17 H 1.0058 0.2133 0.3368
C16 C 0.9768(3) 0.3763(3) 0.33868(15)
C17 C 0.9029(4) 0.0345(3) 0.3540(2)
H18 H 0.9418 0.0563 0.3232
H19 H 0.8592 -0.0302 0.3428
C18 C 0.9853(4) 0.0052(4) 0.4016(2)
H20 H 1.0354 0.0656 0.4098
H21 H 1.0261 -0.0586 0.3925
H22 H 0.9478 -0.0103 0.4333
C19 C 0.7225(6) 0.0883(4) 0.3869(3)
H23 H 0.6624 0.1356 0.3715
H24 H 0.7049 0.0133 0.3755
C20 C 0.7356(5) 0.0958(5) 0.4459(3)
H25 H 0.7952 0.0489 0.4607
H26 H 0.6683 0.0731 0.4597
H27 H 0.7519 0.1705 0.4568
C21 C 0.9351(3) 0.5795(3) 0.34786(16)
C22 C 0.9354(3) 0.6349(3) 0.40362(18)
C23 C 1.0021(4) 0.6143(3) 0.4521(2)
H28 H 1.0584 0.5623 0.4532
C24 C 0.9842(5) 0.6727(5) 0.4993(2)
H29 H 1.0291 0.6605 0.5323
C25 C 0.8987(6) 0.7492(4) 0.4972(2)
H30 H 0.8869 0.7873 0.5291
C26 C 0.8322(4) 0.7696(4) 0.4495(2)
H31 H 0.7745 0.8201 0.4483
C27 C 0.8539(4) 0.7117(3) 0.4026(2)
C28 C 0.7935(4) 0.7203(3) 0.3470(2)
C29 C 0.7473(3) 0.6726(3) 0.22967(19)
H32 H 0.7200 0.7383 0.2422
C30 C 0.7145(3) 0.6370(4) 0.17381(19)
C31 C 0.7493(4) 0.5395(4) 0.1535(2)
C32 C 0.7147(5) 0.5055(4) 0.1004(2)
H33 H 0.7397 0.4389 0.0878
C33 C 0.6445(5) 0.5684(6) 0.0666(3)
H34 H 0.6219 0.5458 0.0306
C34 C 0.6068(4) 0.6664(6) 0.0861(3)
C35 C 0.6420(4) 0.7015(4) 0.1392(2)
H35 H 0.6173 0.7683 0.1517
C36 C 0.4210(4) 0.8620(6) 0.0186(2)
C37 C 0.3815(5) 0.8264(4) -0.0329(3)
H36 H 0.4010 0.7573 -0.0451
C38 C 0.3120(5) 0.8942(6) -0.0671(2)
H37 H 0.2830 0.8695 -0.1019
C39 C 0.2857(4) 0.9972(5) -0.0499(3)
H38 H 0.2409 1.0433 -0.0733
C40 C 0.3257(4) 1.0311(4) 0.0016(3)
H39 H 0.3068 1.1004 0.0138
C41 C 0.3936(4) 0.9646(5) 0.0360(2)
H40 H 0.4211 0.9890 0.0711
loop_
_geom_bond_atom_site_label_1
_geom_bond_atom_site_label_2
_geom_bond_site_symmetry_1
_geom_bond_site_symmetry_2
N1 C2 1_555 1_555
N2 C14 1_555 1_555
N3 N4 1_555 1_555
N4 C29 1_555 1_555
N5 N6 1_555 1_555
N6 C34 1_555 1_555
O1 C7 1_555 1_555
O2 C28 1_555 1_555
O3 H1 1_555 1_555
C1 H2 1_555 1_555
H3 C1 1_555 1_555
H4 C1 1_555 1_555
C2 C1 1_555 1_555
H5 C2 1_555 1_555
H6 C2 1_555 1_555
C3 N1 1_555 1_555
H7 C3 1_555 1_555
H8 C3 1_555 1_555
C4 C3 1_555 1_555
H9 C4 1_555 1_555
H10 C4 1_555 1_555
H11 C4 1_555 1_555
C5 N1 1_555 1_555
C6 C5 1_555 1_555
H12 C6 1_555 1_555
C7 C6 1_555 1_555
C8 C7 1_555 1_555
C9 C8 1_555 1_555
H13 C9 1_555 1_555
C10 C5 1_555 1_555
H14 C10 1_555 1_555
C11 C12 1_555 1_555
C12 H15 1_555 1_555
C13 C12 1_555 1_555
H16 C13 1_555 1_555
C14 C13 1_555 1_555
C15 C14 1_555 1_555
H17 C15 1_555 1_555
C16 O1 1_555 1_555
C17 N2 1_555 1_555
H18 C17 1_555 1_555
H19 C17 1_555 1_555
C18 C17 1_555 1_555
H20 C18 1_555 1_555
H21 C18 1_555 1_555
H22 C18 1_555 1_555
C19 N2 1_555 1_555
H23 C19 1_555 1_555
H24 C19 1_555 1_555
C20 C19 1_555 1_555
H25 C20 1_555 1_555
H26 C20 1_555 1_555
H27 C20 1_555 1_555
C21 N3 1_555 1_555
C22 C21 1_555 1_555
C23 C22 1_555 1_555
H28 C23 1_555 1_555
C24 C23 1_555 1_555
H29 C24 1_555 1_555
C25 C24 1_555 1_555
H30 C25 1_555 1_555
C26 C25 1_555 1_555
H31 C26 1_555 1_555
C27 C22 1_555 1_555
C28 N3 1_555 1_555
C29 H32 1_555 1_555
C30 C29 1_555 1_555
C31 O3 1_555 1_555
C32 C31 1_555 1_555
H33 C32 1_555 1_555
C33 C32 1_555 1_555
H34 C33 1_555 1_555
C34 C33 1_555 1_555
C35 C30 1_555 1_555
H35 C35 1_555 1_555
C36 N5 1_555 1_555
C37 C36 1_555 1_555
H36 C37 1_555 1_555
C38 C37 1_555 1_555
H37 C38 1_555 1_555
C39 C38 1_555 1_555
H38 C39 1_555 1_555
C40 C39 1_555 1_555
H39 C40 1_555 1_555
C41 C36 1_555 1_555
H40 C41 1_555 1_555
C8 C21 1_555 1_555
C9 C10 1_555 1_555
C11 C16 1_555 1_555
C11 C21 1_555 1_555
C15 C16 1_555 1_555
C26 C27 1_555 1_555
C27 C28 1_555 1_555
C30 C31 1_555 1_555
C34 C35 1_555 1_555
C40 C41 1_555 1_555

#END
