
#######################################################################
#
#                 Cambridge Crystallographic Data Centre
#                                CCDC 
#
#######################################################################
#
# If this CIF has been generated from an entry in the Cambridge 
# Structural Database, then it will include bibliographic, chemical, 
# crystal, experimental, refinement or atomic coordinate data resulting 
# from the CCDC's data processing and validation procedures.
#
#######################################################################

data_POGROT
_chemical_compound_source        'roots of Myrica nana'
_chemical_name_common            'Myricananin A methanol solvate'
_chemical_formula_moiety         'C20 H24 O5,C1 H4 O1'
_chemical_name_systematic        
'16-Methoxytricyclo(12.3.1.1^2,6^)nonadeca-1(18),2(19),3,5,14,16-hexaene-3,8\b,9\b,17-tetraol methanol solvate'
_chemical_properties_biological  
'inhibited release of nitric oxide in lipopolysaccharide-activated macrophages'
_symmetry_cell_setting           monoclinic
_symmetry_space_group_name_H-M   'P 21'
_symmetry_Int_Tables_number      4
_space_group_name_Hall           'P 2yb'
loop_
_symmetry_equiv_pos_site_id
_symmetry_equiv_pos_as_xyz
1 x,y,z
2 -x,1/2+y,-z
_cell_length_a                   11.1513(15)
_cell_length_b                   7.7807(11)
_cell_length_c                   22.470(3)
_cell_angle_alpha                90
_cell_angle_beta                 94.325(3)
_cell_angle_gamma                90
_cell_volume                     1944.06
_exptl_crystal_colour            colorless
_exptl_crystal_description       prismatic
_chemical_melting_point          '161-162 deg.C'
_cell_formula_units_Z            4
loop_
_atom_site_label
_atom_site_type_symbol
_atom_site_fract_x
_atom_site_fract_y
_atom_site_fract_z
O1 O 0.7462(3) 0.6260(6) 0.59804(13)
H1 H 0.6796 0.6083 0.6100
O2 O 0.5354(2) 0.4789(5) 0.62053(11)
H2 H 0.4924 0.4595 0.6478
O3 O 0.3008(3) 0.4461(5) 0.62282(11)
O4 O 0.6538(3) 0.6131(5) 0.26442(12)
H3 H 0.6768 0.5496 0.2385
O5 O 0.6841(4) 0.2546(5) 0.27345(13)
H4 H 0.6606 0.1558 0.2775
C1 C 0.6470(4) 0.5242(6) 0.50478(16)
C2 C 0.5176(4) 0.5429(6) 0.51671(16)
C3 C 0.4644(4) 0.5063(6) 0.56827(17)
C4 C 0.3398(4) 0.4901(6) 0.56778(18)
C5 C 0.2677(4) 0.5101(7) 0.51550(19)
H11 H 0.1854 0.4900 0.5152
C6 C 0.3168(4) 0.5597(7) 0.46385(18)
C7 C 0.2421(4) 0.5832(8) 0.40545(18)
H12 H 0.1929 0.6851 0.4088
H13 H 0.1880 0.4859 0.4001
C8 C 0.3096(4) 0.6005(7) 0.34965(18)
H14 H 0.3689 0.6910 0.3562
H15 H 0.2531 0.6371 0.3172
C9 C 0.3738(4) 0.4387(7) 0.32975(16)
H16 H 0.3141 0.3568 0.3138
H17 H 0.4168 0.3865 0.3643
C10 C 0.4630(4) 0.4745(7) 0.28216(16)
H18 H 0.4645 0.3753 0.2561
H19 H 0.4335 0.5712 0.2581
C11 C 0.5911(4) 0.5133(7) 0.30652(17)
H20 H 0.5858 0.5844 0.3422
C12 C 0.6623(4) 0.3531(7) 0.32561(18)
H21 H 0.6128 0.2834 0.3506
C13 C 0.7824(4) 0.3877(7) 0.36079(17)
H22 H 0.8297 0.2830 0.3614
H23 H 0.8254 0.4738 0.3396
C14 C 0.7752(4) 0.4478(7) 0.42417(18)
C15 C 0.8732(4) 0.4988(7) 0.4609(2)
H24 H 0.9492 0.4962 0.4465
C16 C 0.8611(4) 0.5539(8) 0.5187(2)
H25 H 0.9293 0.5831 0.5429
C17 C 0.7488(4) 0.5661(7) 0.54098(19)
C18 C 0.6654(3) 0.4550(6) 0.44864(15)
H26 H 0.5990 0.4109 0.4262
C19 C 0.4391(3) 0.5801(7) 0.46625(15)
H27 H 0.4726 0.6212 0.4323
C20 C 0.1780(4) 0.3965(8) 0.6261(2)
H28 H 0.1266 0.4918 0.6149
H29 H 0.1653 0.3623 0.6662
H30 H 0.1598 0.3020 0.5995
O6 O 0.5666(2) -0.1396(4) 0.88628(10)
H5 H 0.6226 -0.1342 0.8647
O7 O 0.7739(2) -0.0656(4) 0.83703(11)
H6 H 0.8235 -0.0910 0.8134
O8 O 0.9125(2) 0.1431(4) 0.77778(12)
O9 O 0.6693(2) 0.4581(5) 1.15145(10)
H7 H 0.5996 0.4414 1.1384
O10 O 0.8472(2) 0.2281(5) 1.19104(10)
H8 H 0.7939 0.2510 1.2130
C21 C 0.6935(3) 0.0351(6) 0.95469(15)
C22 C 0.7510(3) 0.1490(6) 0.91098(16)
C23 C 0.7969(3) 0.0980(6) 0.85855(16)
C24 C 0.8709(3) 0.2100(7) 0.82947(17)
C25 C 0.8996(3) 0.3676(6) 0.85223(17)
H31 H 0.9520 0.4376 0.8329
C26 C 0.8512(3) 0.4270(6) 0.90483(16)
C27 C 0.8846(4) 0.5976(6) 0.93310(17)
H32 H 0.8491 0.6881 0.9078
H33 H 0.9712 0.6106 0.9341
C28 C 0.8459(4) 0.6236(6) 0.99627(17)
H34 H 0.8569 0.7439 1.0067
H35 H 0.7605 0.5993 0.9959
C29 C 0.9108(3) 0.5159(6) 1.04524(16)
H36 H 0.9930 0.5561 1.0519
H37 H 0.9132 0.3973 1.0321
C30 C 0.8498(3) 0.5243(7) 1.10456(16)
H38 H 0.9105 0.5073 1.1373
H39 H 0.8163 0.6384 1.1088
C31 C 0.7502(3) 0.3925(6) 1.10977(16)
H40 H 0.7059 0.3796 1.0707
C32 C 0.7969(3) 0.2158(6) 1.13074(15)
H41 H 0.8627 0.1855 1.1061
C33 C 0.7053(3) 0.0674(6) 1.12518(15)
H42 H 0.7384 -0.0293 1.1482
H43 H 0.6330 0.1038 1.1431
C34 C 0.6700(3) 0.0058(6) 1.06191(16)
C35 C 0.5808(3) -0.1130(6) 1.04892(16)
H44 H 0.5400 -0.1599 1.0797
C36 C 0.5507(3) -0.1640(6) 0.99069(17)
H45 H 0.4929 -0.2488 0.9828
C37 C 0.6062(3) -0.0890(6) 0.94400(16)
C38 C 0.7279(3) 0.0711(6) 1.01464(15)
H46 H 0.7936 0.1431 1.0231
C39 C 0.7731(3) 0.3168(6) 0.92975(16)
H47 H 0.7321 0.3573 0.9614
C40 C 0.9991(4) 0.2392(9) 0.7488(2)
H48 H 0.9650 0.3476 0.7360
H49 H 1.0224 0.1765 0.7147
H50 H 1.0684 0.2586 0.7759
O11 O 0.4561(3) 0.4434(5) 0.73504(13)
H9 H 0.4130 0.3648 0.7451
C41 C 0.5662(5) 0.4530(9) 0.7772(2)
H51 H 0.6288 0.5118 0.7583
H52 H 0.5925 0.3388 0.7879
H53 H 0.5480 0.5144 0.8125
O12 O 0.9184(2) 0.7502(5) 0.77411(14)
H10 H 0.9837 0.7786 0.7903
C42 C 0.9272(5) 0.7366(10) 0.7136(2)
H54 H 0.8681 0.8093 0.6930
H55 H 0.9135 0.6195 0.7014
H56 H 1.0061 0.7715 0.7041
loop_
_geom_bond_atom_site_label_1
_geom_bond_atom_site_label_2
_geom_bond_site_symmetry_1
_geom_bond_site_symmetry_2
O1 H1 1_555 1_555
O2 H2 1_555 1_555
O3 C4 1_555 1_555
O4 H3 1_555 1_555
O5 H4 1_555 1_555
O6 H5 1_555 1_555
O7 H6 1_555 1_555
O8 C24 1_555 1_555
O9 H7 1_555 1_555
O10 H8 1_555 1_555
O11 H9 1_555 1_555
O12 H10 1_555 1_555
C1 C2 1_555 1_555
C2 C3 1_555 1_555
C3 O2 1_555 1_555
C4 C3 1_555 1_555
C5 C4 1_555 1_555
H11 C5 1_555 1_555
C6 C5 1_555 1_555
C7 C6 1_555 1_555
H12 C7 1_555 1_555
H13 C7 1_555 1_555
C8 C7 1_555 1_555
H14 C8 1_555 1_555
H15 C8 1_555 1_555
C9 C8 1_555 1_555
H16 C9 1_555 1_555
H17 C9 1_555 1_555
C10 C9 1_555 1_555
H18 C10 1_555 1_555
H19 C10 1_555 1_555
C11 O4 1_555 1_555
H20 C11 1_555 1_555
C12 O5 1_555 1_555
H21 C12 1_555 1_555
C13 C12 1_555 1_555
H22 C13 1_555 1_555
H23 C13 1_555 1_555
C14 C13 1_555 1_555
C15 C14 1_555 1_555
H24 C15 1_555 1_555
C16 C15 1_555 1_555
H25 C16 1_555 1_555
C17 O1 1_555 1_555
C18 C1 1_555 1_555
H26 C18 1_555 1_555
C19 C2 1_555 1_555
H27 C19 1_555 1_555
C20 O3 1_555 1_555
H28 C20 1_555 1_555
H29 C20 1_555 1_555
H30 C20 1_555 1_555
C21 C22 1_555 1_555
C22 C23 1_555 1_555
C23 O7 1_555 1_555
C24 C23 1_555 1_555
C25 C24 1_555 1_555
H31 C25 1_555 1_555
C26 C25 1_555 1_555
C27 C26 1_555 1_555
H32 C27 1_555 1_555
H33 C27 1_555 1_555
C28 C27 1_555 1_555
H34 C28 1_555 1_555
H35 C28 1_555 1_555
C29 C28 1_555 1_555
H36 C29 1_555 1_555
H37 C29 1_555 1_555
C30 C29 1_555 1_555
H38 C30 1_555 1_555
H39 C30 1_555 1_555
C31 O9 1_555 1_555
H40 C31 1_555 1_555
C32 O10 1_555 1_555
H41 C32 1_555 1_555
C33 C32 1_555 1_555
H42 C33 1_555 1_555
H43 C33 1_555 1_555
C34 C33 1_555 1_555
C35 C34 1_555 1_555
H44 C35 1_555 1_555
C36 C35 1_555 1_555
H45 C36 1_555 1_555
C37 O6 1_555 1_555
C38 C21 1_555 1_555
H46 C38 1_555 1_555
C39 C22 1_555 1_555
H47 C39 1_555 1_555
C40 O8 1_555 1_555
H48 C40 1_555 1_555
H49 C40 1_555 1_555
H50 C40 1_555 1_555
C41 O11 1_555 1_555
H51 C41 1_555 1_555
H52 C41 1_555 1_555
H53 C41 1_555 1_555
C42 O12 1_555 1_555
H54 C42 1_555 1_555
H55 C42 1_555 1_555
H56 C42 1_555 1_555
C1 C17 1_555 1_555
C6 C19 1_555 1_555
C10 C11 1_555 1_555
C11 C12 1_555 1_555
C14 C18 1_555 1_555
C16 C17 1_555 1_555
C21 C37 1_555 1_555
C26 C39 1_555 1_555
C30 C31 1_555 1_555
C31 C32 1_555 1_555
C34 C38 1_555 1_555
C36 C37 1_555 1_555

#END
