
#######################################################################
#
#                 Cambridge Crystallographic Data Centre
#                                CCDC 
#
#######################################################################
#
# If this CIF has been generated from an entry in the Cambridge 
# Structural Database, then it will include bibliographic, chemical, 
# crystal, experimental, refinement or atomic coordinate data resulting 
# from the CCDC's data processing and validation procedures.
#
#######################################################################

data_POGTUC
_chemical_formula_moiety         'C22 H24 B1 F3 N2'
_chemical_name_systematic        
(4,6-diphenyl-2,3,3a,6,6a,7,8,9-octahydro-1H-dicyclopenta[d,e]pyrimidin-4-ium-5-yl)(trifluoro)borate
_symmetry_cell_setting           monoclinic
_symmetry_space_group_name_H-M   'P 21/n'
_symmetry_Int_Tables_number      14
_space_group_name_Hall           '-P 2yn'
loop_
_symmetry_equiv_pos_site_id
_symmetry_equiv_pos_as_xyz
1 x,y,z
2 1/2-x,1/2+y,1/2-z
3 -x,-y,-z
4 1/2+x,1/2-y,1/2+z
_cell_length_a                   8.8224(2)
_cell_length_b                   14.8677(5)
_cell_length_c                   14.6800(6)
_cell_angle_alpha                90
_cell_angle_beta                 96.474(3)
_cell_angle_gamma                90
_cell_volume                     1913.28
_exptl_crystal_colour            'light colorless'
_exptl_crystal_description       block
_cell_formula_units_Z            4
loop_
_atom_site_label
_atom_site_type_symbol
_atom_site_fract_x
_atom_site_fract_y
_atom_site_fract_z
F1 F 0.65816(12) 0.40161(8) 0.59203(8)
F2 F 0.74668(12) 0.48980(8) 0.70990(8)
F3 F 0.66010(13) 0.34937(8) 0.73802(9)
N1 N 0.44500(15) 0.54229(10) 0.73420(10)
N2 N 0.34425(15) 0.43664(10) 0.63009(10)
C1 C 0.30719(19) 0.59802(12) 0.71783(13)
H1 H 0.2985 0.6345 0.7726
C2 C 0.3016(2) 0.66074(13) 0.63475(15)
H2 H 0.3396 0.6309 0.5832
H3 H 0.3610 0.7148 0.6494
C3 C 0.1308(2) 0.68279(16) 0.61399(17)
H4 H 0.1096 0.7423 0.6365
H5 H 0.1000 0.6809 0.5485
C4 C 0.0453(2) 0.61104(14) 0.66327(15)
H6 H -0.0014 0.6376 0.7136
H7 H -0.0340 0.5836 0.6211
C5 C 0.16437(19) 0.54071(12) 0.69918(12)
C6 C 0.1230(2) 0.48411(15) 0.78073(14)
H8 H 0.2066 0.4841 0.8297
H9 H 0.0332 0.5085 0.8044
C7 C 0.0917(3) 0.38880(15) 0.74485(18)
H10 H 0.1768 0.3494 0.7644
H11 H 0.0002 0.3646 0.7666
C8 C 0.0714(2) 0.39856(14) 0.64160(17)
H12 H -0.0323 0.4160 0.6197
H13 H 0.0954 0.3428 0.6121
C9 C 0.18394(19) 0.47245(12) 0.62349(13)
H14 H 0.1554 0.4995 0.5631
C10 C 0.46405(18) 0.46814(12) 0.68446(12)
C11 C 0.55028(18) 0.56520(12) 0.81306(12)
C12 C 0.6051(2) 0.65245(13) 0.82347(14)
H15 H 0.5774 0.6953 0.7786
C13 C 0.7011(2) 0.67531(16) 0.90087(16)
H16 H 0.7389 0.7336 0.9077
C14 C 0.7413(2) 0.61236(17) 0.96793(16)
H17 H 0.8059 0.6280 1.0200
C15 C 0.6853(2) 0.52603(16) 0.95760(15)
H18 H 0.7128 0.4833 1.0027
C16 C 0.5881(2) 0.50237(14) 0.88037(13)
H19 H 0.5489 0.4444 0.8742
C17 C 0.35642(18) 0.35851(12) 0.57210(12)
C18 C 0.3851(2) 0.27464(13) 0.61022(14)
H20 H 0.4069 0.2682 0.6734
C19 C 0.3811(2) 0.20004(14) 0.55361(17)
H21 H 0.4033 0.1435 0.5787
C20 C 0.3444(2) 0.20901(16) 0.45998(17)
H22 H 0.3390 0.1585 0.4223
C21 C 0.3158(2) 0.29280(16) 0.42295(15)
H23 H 0.2912 0.2989 0.3600
C22 C 0.3234(2) 0.36838(14) 0.47836(13)
H24 H 0.3065 0.4252 0.4528
B1 B 0.6403(2) 0.42415(15) 0.68200(15)
loop_
_geom_bond_atom_site_label_1
_geom_bond_atom_site_label_2
_geom_bond_site_symmetry_1
_geom_bond_site_symmetry_2
F1 B1 1_555 1_555
F2 B1 1_555 1_555
F3 B1 1_555 1_555
N1 C1 1_555 1_555
N2 C9 1_555 1_555
C1 H1 1_555 1_555
C2 C1 1_555 1_555
H2 C2 1_555 1_555
H3 C2 1_555 1_555
C3 C2 1_555 1_555
H4 C3 1_555 1_555
H5 C3 1_555 1_555
C4 C3 1_555 1_555
H6 C4 1_555 1_555
H7 C4 1_555 1_555
C5 C1 1_555 1_555
C6 C5 1_555 1_555
H8 C6 1_555 1_555
H9 C6 1_555 1_555
C7 C6 1_555 1_555
H10 C7 1_555 1_555
H11 C7 1_555 1_555
C8 C7 1_555 1_555
H12 C8 1_555 1_555
H13 C8 1_555 1_555
C9 C5 1_555 1_555
H14 C9 1_555 1_555
C10 N1 1_555 1_555
C11 N1 1_555 1_555
C12 C11 1_555 1_555
H15 C12 1_555 1_555
C13 C12 1_555 1_555
H16 C13 1_555 1_555
C14 C13 1_555 1_555
H17 C14 1_555 1_555
C15 C14 1_555 1_555
H18 C15 1_555 1_555
C16 C11 1_555 1_555
H19 C16 1_555 1_555
C17 N2 1_555 1_555
C18 C17 1_555 1_555
H20 C18 1_555 1_555
C19 C18 1_555 1_555
H21 C19 1_555 1_555
C20 C19 1_555 1_555
H22 C20 1_555 1_555
C21 C20 1_555 1_555
H23 C21 1_555 1_555
C22 C17 1_555 1_555
H24 C22 1_555 1_555
B1 C10 1_555 1_555
N2 C10 1_555 1_555
C4 C5 1_555 1_555
C8 C9 1_555 1_555
C15 C16 1_555 1_555
C21 C22 1_555 1_555

#END
