
#######################################################################
#
#                 Cambridge Crystallographic Data Centre
#                                CCDC 
#
#######################################################################
#
# If this CIF has been generated from an entry in the Cambridge 
# Structural Database, then it will include bibliographic, chemical, 
# crystal, experimental, refinement or atomic coordinate data resulting 
# from the CCDC's data processing and validation procedures.
#
#######################################################################

data_POGVEO
_chemical_formula_moiety         'C22 H24 N2'
_chemical_name_systematic        
4,6-diphenyldecahydro-1H-dicyclopenta[d,e]pyrimidin-2-ylidene
_symmetry_cell_setting           orthorhombic
_symmetry_space_group_name_H-M   'P b c a'
_symmetry_Int_Tables_number      61
_space_group_name_Hall           '-P 2ac 2ab'
loop_
_symmetry_equiv_pos_site_id
_symmetry_equiv_pos_as_xyz
1 x,y,z
2 1/2-x,-y,1/2+z
3 1/2+x,1/2-y,-z
4 -x,1/2+y,1/2-z
5 -x,-y,-z
6 1/2+x,y,1/2-z
7 1/2-x,1/2+y,z
8 x,1/2-y,1/2+z
_cell_length_a                   12.4457(9)
_cell_length_b                   9.7837(5)
_cell_length_c                   28.322(2)
_cell_angle_alpha                90
_cell_angle_beta                 90
_cell_angle_gamma                90
_cell_volume                     3448.63
_exptl_crystal_colour            colorless
_exptl_crystal_description       block
_cell_formula_units_Z            8
_chemical_properties_physical    Air-sensitive
loop_
_atom_site_label
_atom_site_type_symbol
_atom_site_fract_x
_atom_site_fract_y
_atom_site_fract_z
N1 N 0.3228(2) 0.9028(2) 0.65634(9)
N2 N 0.4613(2) 0.8269(2) 0.60976(9)
C1 C 0.3901(2) 0.7992(3) 0.64472(11)
C2 C 0.3164(3) 1.0341(3) 0.63106(11)
H1 H 0.2896 1.1045 0.6527
C3 C 0.4276(3) 1.0761(3) 0.61319(11)
C4 C 0.4792(3) 0.9598(3) 0.58517(12)
H2 H 0.4512 0.9569 0.5528
C5 C 0.2467(3) 0.8782(3) 0.69342(10)
C6 C 0.1504(3) 0.9489(3) 0.69497(11)
H3 H 0.1355 1.0150 0.6723
C7 C 0.0765(3) 0.9214(3) 0.73008(12)
H4 H 0.0122 0.9698 0.7308
C8 C 0.0963(3) 0.8238(3) 0.76403(13)
H5 H 0.0452 0.8043 0.7870
C9 C 0.1936(3) 0.7552(4) 0.76322(12)
H6 H 0.2085 0.6900 0.7862
C10 C 0.2691(3) 0.7824(3) 0.72855(12)
H7 H 0.3347 0.7369 0.7287
C11 C 0.2465(3) 1.0332(3) 0.58646(11)
H8 H 0.1722 1.0528 0.5942
H9 H 0.2501 0.9449 0.5710
C12 C 0.2933(3) 1.1455(3) 0.55443(12)
H10 H 0.2430 1.2207 0.5511
H11 H 0.3096 1.1095 0.5233
C13 C 0.3968(3) 1.1931(3) 0.57968(12)
H12 H 0.380(3) 1.275(3) 0.5992(12)
H13 H 0.455(2) 1.221(3) 0.5559(11)
C14 C 0.5094(3) 1.1137(3) 0.65140(13)
H14 H 0.5068 1.2109 0.6580
H15 H 0.4947 1.0641 0.6803
C15 C 0.6176(3) 1.0746(4) 0.63195(14)
H16 H 0.6551 1.0160 0.6541
H17 H 0.6608 1.1557 0.6266
C16 C 0.5994(3) 0.9991(3) 0.58547(13)
H18 H 0.6441 0.9181 0.5838
H19 H 0.6162 1.0578 0.5589
C17 C 0.5213(3) 0.7103(3) 0.59356(12)
C18 C 0.5447(3) 0.6948(3) 0.54590(12)
H20 H 0.5244 0.7620 0.5245
C19 C 0.5981(3) 0.5793(3) 0.53031(13)
H21 H 0.6141 0.5703 0.4984
C20 C 0.6278(3) 0.4781(3) 0.56104(13)
H22 H 0.6616 0.3995 0.5500
C21 C 0.6069(3) 0.4945(3) 0.60879(13)
H23 H 0.6279 0.4271 0.6300
C22 C 0.5548(3) 0.6104(3) 0.62515(12)
H24 H 0.5423 0.6213 0.6573
loop_
_geom_bond_atom_site_label_1
_geom_bond_atom_site_label_2
_geom_bond_site_symmetry_1
_geom_bond_site_symmetry_2
N1 C1 1_555 1_555
N2 C1 1_555 1_555
C2 N1 1_555 1_555
H1 C2 1_555 1_555
C3 C2 1_555 1_555
C4 N2 1_555 1_555
H2 C4 1_555 1_555
C5 N1 1_555 1_555
C6 C5 1_555 1_555
H3 C6 1_555 1_555
C7 C6 1_555 1_555
H4 C7 1_555 1_555
C8 C7 1_555 1_555
H5 C8 1_555 1_555
C9 C8 1_555 1_555
H6 C9 1_555 1_555
C10 C5 1_555 1_555
H7 C10 1_555 1_555
C11 C2 1_555 1_555
H8 C11 1_555 1_555
H9 C11 1_555 1_555
C12 C11 1_555 1_555
H10 C12 1_555 1_555
H11 C12 1_555 1_555
C13 C3 1_555 1_555
H12 C13 1_555 1_555
H13 C13 1_555 1_555
C14 C3 1_555 1_555
H14 C14 1_555 1_555
H15 C14 1_555 1_555
C15 C14 1_555 1_555
H16 C15 1_555 1_555
H17 C15 1_555 1_555
C16 C4 1_555 1_555
H18 C16 1_555 1_555
H19 C16 1_555 1_555
C17 N2 1_555 1_555
C18 C17 1_555 1_555
H20 C18 1_555 1_555
C19 C18 1_555 1_555
H21 C19 1_555 1_555
C20 C19 1_555 1_555
H22 C20 1_555 1_555
C21 C20 1_555 1_555
H23 C21 1_555 1_555
C22 C17 1_555 1_555
H24 C22 1_555 1_555
C3 C4 1_555 1_555
C9 C10 1_555 1_555
C12 C13 1_555 1_555
C15 C16 1_555 1_555
C21 C22 1_555 1_555

#END
