
#######################################################################
#
#                 Cambridge Crystallographic Data Centre
#                                CCDC 
#
#######################################################################
#
# If this CIF has been generated from an entry in the Cambridge 
# Structural Database, then it will include bibliographic, chemical, 
# crystal, experimental, refinement or atomic coordinate data resulting 
# from the CCDC's data processing and validation procedures.
#
#######################################################################

data_POGZOC
_chemical_compound_source        'Ganoderma cochlear'
_chemical_name_common            'Ganodercochlearin B diacetate'
_chemical_formula_moiety         'C34 H52 O5'
_chemical_name_systematic        
'22,25-epoxylanosta-7,9(11)-diene-3,24-diyl diacetate'
_symmetry_cell_setting           monoclinic
_symmetry_space_group_name_H-M   'P 21'
_symmetry_Int_Tables_number      4
_space_group_name_Hall           'P 2yb'
loop_
_symmetry_equiv_pos_site_id
_symmetry_equiv_pos_as_xyz
1 x,y,z
2 -x,1/2+y,-z
_cell_length_a                   6.9978(3)
_cell_length_b                   11.1764(5)
_cell_length_c                   20.4376(9)
_cell_angle_alpha                90
_cell_angle_beta                 98.054(2)
_cell_angle_gamma                90
_cell_volume                     1582.66
_exptl_crystal_colour            colorless
_exptl_crystal_description       block
_cell_formula_units_Z            2
loop_
_atom_site_label
_atom_site_type_symbol
_atom_site_fract_x
_atom_site_fract_y
_atom_site_fract_z
O1 O 0.2854(3) 0.78126(18) 0.02519(9)
O2 O 0.2484(2) 0.58540(15) 0.04179(7)
O3 O 0.2613(2) 0.43131(13) 0.82363(7)
O4 O 0.4162(2) 0.48523(15) 0.20546(7)
O5 O 0.2164(2) 0.23265(14) 0.81586(7)
C1 C 0.2242(3) 0.6859(2) 0.00600(11)
C2 C 0.3560(3) 0.5970(2) 0.10746(9)
H1 H 0.4742 0.6463 0.1053
C3 C 0.2411(3) 0.6507(2) 0.15769(10)
H2 H 0.1060 0.6219 0.1513
H3 H 0.2424 0.7392 0.1564
C4 C 0.3543(3) 0.60262(19) 0.22150(9)
H4 H 0.4714 0.6537 0.2332
C5 C 0.2461(3) 0.59664(19) 0.28163(9)
H5 H 0.1951 0.6785 0.2886
C6 C 0.3853(3) 0.56328(17) 0.34394(9)
H6 H 0.4318 0.4800 0.3377
C7 C 0.3081(2) 0.56726(17) 0.41160(9)
C8 C 0.1815(3) 0.46370(17) 0.42974(9)
H7 H 0.0508 0.4710 0.4043
H8 H 0.2374 0.3868 0.4177
C9 C 0.1666(2) 0.46395(17) 0.50271(9)
H9 H 0.0650 0.4192 0.5172
C10 C 0.2871(2) 0.52310(16) 0.54867(9)
C11 C 0.2409(3) 0.54361(17) 0.61929(9)
C12 C 0.1080(3) 0.44431(18) 0.63914(9)
H10 H -0.0211 0.4530 0.6128
H11 H 0.1605 0.3656 0.6283
C13 C 0.0864(3) 0.44648(19) 0.71248(10)
H12 H 0.0247 0.5223 0.7233
H13 H 0.0032 0.3794 0.7228
C14 C 0.2835(3) 0.43552(19) 0.75329(9)
H14 H 0.3433 0.3587 0.7414
C15 C 0.2281(3) 0.3229(2) 0.84789(10)
C16 C 0.2095(4) 0.3297(2) 0.92039(11)
H15 H 0.0900 0.3716 0.9261
H16 H 0.3201 0.3732 0.9438
H17 H 0.2064 0.2486 0.9384
C17 C 0.4346(3) 0.54309(17) 0.66736(9)
H18 H 0.4999 0.4669 0.6576
C18 C 0.5674(3) 0.64258(19) 0.64867(9)
H19 H 0.5155 0.7212 0.6599
H20 H 0.6970 0.6332 0.6746
C19 C 0.5849(3) 0.63966(17) 0.57623(9)
H21 H 0.6900 0.6807 0.5616
C20 C 0.4600(2) 0.58218(16) 0.53102(9)
C21 C 0.4997(2) 0.56404(16) 0.46051(9)
C22 C 0.6240(3) 0.65775(17) 0.43146(9)
H22 H 0.7631 0.6408 0.4442
H23 H 0.5959 0.7391 0.4467
C23 C 0.5658(3) 0.64584(19) 0.35601(9)
H24 H 0.6732 0.6106 0.3356
H25 H 0.5353 0.7255 0.3361
C24 C 0.0735(3) 0.5118(2) 0.26956(10)
H26 H -0.0047 0.5316 0.2273
H27 H -0.0052 0.5203 0.3054
H28 H 0.1196 0.4292 0.2682
C25 C 0.4151(3) 0.4726(2) 0.13531(9)
C26 C 0.2689(4) 0.3756(2) 0.11201(11)
H29 H 0.2993 0.3030 0.1383
H30 H 0.2741 0.3579 0.0653
H31 H 0.1391 0.4032 0.1173
C27 C 0.1100(4) 0.6613(3) -0.06069(11)
H32 H 0.0884 0.7365 -0.0853
H33 H -0.0145 0.6258 -0.0549
H34 H 0.1819 0.6058 -0.0852
C28 C 0.6162(3) 0.4404(2) 0.12199(11)
H35 H 0.7068 0.5031 0.1397
H36 H 0.6169 0.4332 0.0742
H37 H 0.6550 0.3640 0.1434
C29 C 0.6044(3) 0.44195(18) 0.45989(9)
H38 H 0.7225 0.4436 0.4919
H39 H 0.6377 0.4268 0.4156
H40 H 0.5193 0.3782 0.4717
C30 C 0.2008(3) 0.68631(18) 0.41766(9)
H41 H 0.0775 0.6849 0.3883
H42 H 0.2799 0.7526 0.4052
H43 H 0.1769 0.6971 0.4634
C31 C 0.4218(3) 0.53797(18) 0.74329(9)
C32 C 0.6212(3) 0.5052(2) 0.78008(10)
H44 H 0.6107 0.4888 0.8265
H45 H 0.7104 0.5720 0.7773
H46 H 0.6698 0.4339 0.7599
C33 C 0.3576(3) 0.6556(2) 0.77217(11)
H47 H 0.2203 0.6690 0.7567
H48 H 0.4332 0.7220 0.7578
H49 H 0.3782 0.6510 0.8205
C34 C 0.1347(3) 0.66467(19) 0.61702(10)
H50 H 0.0223 0.6624 0.5825
H51 H 0.2223 0.7286 0.6072
H52 H 0.0920 0.6801 0.6599
loop_
_geom_bond_atom_site_label_1
_geom_bond_atom_site_label_2
_geom_bond_site_symmetry_1
_geom_bond_site_symmetry_2
O1 C1 1_555 1_555
O2 C1 1_555 1_555
O3 C14 1_555 1_555
O4 C4 1_555 1_555
O5 C15 1_555 1_555
C1 C27 1_555 1_555
C2 O2 1_555 1_555
H1 C2 1_555 1_555
C3 C2 1_555 1_555
H2 C3 1_555 1_555
H3 C3 1_555 1_555
C4 C3 1_555 1_555
H4 C4 1_555 1_555
C5 C4 1_555 1_555
H5 C5 1_555 1_555
C6 C5 1_555 1_555
H6 C6 1_555 1_555
C7 C6 1_555 1_555
C8 C7 1_555 1_555
H7 C8 1_555 1_555
H8 C8 1_555 1_555
C9 C8 1_555 1_555
H9 C9 1_555 1_555
C10 C9 1_555 1_555
C11 C10 1_555 1_555
C12 C11 1_555 1_555
H10 C12 1_555 1_555
H11 C12 1_555 1_555
C13 C12 1_555 1_555
H12 C13 1_555 1_555
H13 C13 1_555 1_555
C14 C13 1_555 1_555
H14 C14 1_555 1_555
C15 O3 1_555 1_555
C16 C15 1_555 1_555
H15 C16 1_555 1_555
H16 C16 1_555 1_555
H17 C16 1_555 1_555
C17 C11 1_555 1_555
H18 C17 1_555 1_555
C18 C17 1_555 1_555
H19 C18 1_555 1_555
H20 C18 1_555 1_555
C19 C18 1_555 1_555
H21 C19 1_555 1_555
C20 C10 1_555 1_555
C21 C7 1_555 1_555
C22 C21 1_555 1_555
H22 C22 1_555 1_555
H23 C22 1_555 1_555
C23 C6 1_555 1_555
H24 C23 1_555 1_555
H25 C23 1_555 1_555
C24 C5 1_555 1_555
H26 C24 1_555 1_555
H27 C24 1_555 1_555
H28 C24 1_555 1_555
C25 O4 1_555 1_555
C26 C25 1_555 1_555
H29 C26 1_555 1_555
H30 C26 1_555 1_555
H31 C26 1_555 1_555
C27 H32 1_555 1_555
H33 C27 1_555 1_555
H34 C27 1_555 1_555
C28 C25 1_555 1_555
H35 C28 1_555 1_555
H36 C28 1_555 1_555
H37 C28 1_555 1_555
C29 C21 1_555 1_555
H38 C29 1_555 1_555
H39 C29 1_555 1_555
H40 C29 1_555 1_555
C30 C7 1_555 1_555
H41 C30 1_555 1_555
H42 C30 1_555 1_555
H43 C30 1_555 1_555
C31 C14 1_555 1_555
C32 C31 1_555 1_555
H44 C32 1_555 1_555
H45 C32 1_555 1_555
H46 C32 1_555 1_555
C33 C31 1_555 1_555
H47 C33 1_555 1_555
H48 C33 1_555 1_555
H49 C33 1_555 1_555
C34 C11 1_555 1_555
H50 C34 1_555 1_555
H51 C34 1_555 1_555
H52 C34 1_555 1_555
C2 C25 1_555 1_555
C17 C31 1_555 1_555
C19 C20 1_555 1_555
C20 C21 1_555 1_555
C22 C23 1_555 1_555

#END
