
#######################################################################
#
#                 Cambridge Crystallographic Data Centre
#                                CCDC 
#
#######################################################################
#
# If this CIF has been generated from an entry in the Cambridge 
# Structural Database, then it will include bibliographic, chemical, 
# crystal, experimental, refinement or atomic coordinate data resulting 
# from the CCDC's data processing and validation procedures.
#
#######################################################################

data_POHBUL
_chemical_name_common            '(4R,8S,12S,13R)-Chandonanone A'
_chemical_formula_moiety         'C22 H34 O5'
_chemical_name_systematic        
'3-isopropylidene-6,10,14-trimethyl-2,9-dioxo-15-oxabicyclo[12.1.0]pentadec-6-yl acetate'
_symmetry_cell_setting           monoclinic
_symmetry_space_group_name_H-M   'P 21'
_symmetry_Int_Tables_number      4
_space_group_name_Hall           'P 2yb'
loop_
_symmetry_equiv_pos_site_id
_symmetry_equiv_pos_as_xyz
1 x,y,z
2 -x,1/2+y,-z
_cell_length_a                   11.7016(5)
_cell_length_b                   13.6677(6)
_cell_length_c                   13.7418(6)
_cell_angle_alpha                90
_cell_angle_beta                 108.5910(10)
_cell_angle_gamma                90
_cell_volume                     2083.1
_exptl_crystal_colour            colorless
_exptl_crystal_description       prism
_cell_formula_units_Z            4
loop_
_atom_site_label
_atom_site_type_symbol
_atom_site_fract_x
_atom_site_fract_y
_atom_site_fract_z
O1 O -0.17148(15) -0.20091(14) 0.33326(14)
O2 O -0.02621(14) -0.08494(13) 0.37383(12)
O3 O -0.32315(14) 0.04552(13) 0.03811(13)
O4 O 0.21750(15) 0.28457(15) 0.14797(14)
O5 O 0.32314(16) 0.27457(16) 0.35733(15)
C1 C -0.10572(19) -0.14585(18) 0.39369(18)
C2 C -0.0124(2) -0.07619(17) 0.27092(17)
C3 C 0.09656(19) -0.00812(17) 0.29337(17)
H1 H 0.1191 -0.0018 0.2301
H2 H 0.1651 -0.0393 0.3461
C4 C 0.0789(2) 0.09540(18) 0.33086(18)
H3 H 0.0319 0.1353 0.2715
H4 H 0.0321 0.0909 0.3793
C5 C 0.1975(2) 0.14546(18) 0.38337(18)
C6 C 0.24321(19) 0.21513(19) 0.32185(19)
C7 C 0.18109(19) 0.21211(19) 0.20719(19)
H5 H 0.1652 0.1454 0.1759
C8 C 0.0969(2) 0.28965(19) 0.15306(18)
C9 C 0.0720(2) 0.3762(2) 0.2113(2)
H6 H 0.1441 0.3911 0.2693
H7 H 0.0050 0.3607 0.2369
H8 H 0.0508 0.4330 0.1655
C10 C -0.0985(2) -0.1360(2) 0.5051(2)
H9 H -0.1727 -0.1614 0.5143
H10 H -0.0887 -0.0669 0.5251
H11 H -0.0293 -0.1734 0.5481
C11 C 0.0192(2) -0.17425(17) 0.23461(17)
H12 H 0.0850 -0.2044 0.2894
H13 H 0.0447 -0.1646 0.1739
H14 H -0.0516 -0.2171 0.2170
C12 C -0.12825(19) -0.03201(18) 0.19824(17)
H15 H -0.1490 0.0274 0.2303
H16 H -0.1948 -0.0795 0.1884
C13 C -0.1176(2) -0.00505(18) 0.09349(18)
H17 H -0.0458 0.0370 0.1040
H18 H -0.1048 -0.0656 0.0588
C14 C -0.2266(2) 0.04760(17) 0.02425(17)
C15 C -0.2069(2) 0.10664(18) -0.06311(18)
H19 H -0.1245 0.0927 -0.0667
C16 C -0.2161(2) 0.21608(18) -0.03921(18)
H20 H -0.2070 0.2549 -0.0971
H21 H -0.2979 0.2288 -0.0356
C17 C -0.1236(2) 0.25284(18) 0.06039(18)
H22 H -0.1505 0.3170 0.0786
H23 H -0.1207 0.2065 0.1165
C18 C 0.0025(2) 0.2637(2) 0.05260(18)
H24 H 0.0257 0.2015 0.0271
H25 H 0.0012 0.3152 0.0016
C19 C 0.2600(2) 0.12827(19) 0.48379(19)
C20 C 0.3815(3) 0.1712(2) 0.5400(2)
H26 H 0.4314 0.1716 0.4947
H27 H 0.4208 0.1316 0.6010
H28 H 0.3714 0.2383 0.5610
C21 C 0.2078(2) 0.0653(2) 0.5490(2)
H29 H 0.1700 0.1069 0.5881
H30 H 0.2722 0.0266 0.5966
H31 H 0.1472 0.0212 0.5048
C22 C -0.3009(2) 0.0800(2) -0.16597(19)
H32 H -0.2925 0.0108 -0.1811
H33 H -0.2884 0.1205 -0.2206
H34 H -0.3820 0.0917 -0.1621
O6 O 0.52805(13) 0.42015(12) 0.64371(11)
O7 O 0.18295(17) 0.77421(17) 0.67161(16)
O8 O 0.33240(14) 0.81996(14) 0.86801(13)
O9 O 0.84032(14) 0.53583(13) 0.97720(13)
O10 O 0.66677(14) 0.29830(13) 0.67787(13)
C23 C 0.2975(2) 0.5730(2) 0.47067(19)
H35 H 0.3318 0.6130 0.4277
H36 H 0.2308 0.5338 0.4268
H37 H 0.3599 0.5294 0.5136
C24 C 0.2514(2) 0.63895(18) 0.53855(18)
C25 C 0.3169(2) 0.65525(17) 0.63832(18)
C26 C 0.43483(19) 0.60280(17) 0.68802(17)
H38 H 0.4864 0.6432 0.7450
H39 H 0.4776 0.5941 0.6370
C27 C 0.41437(19) 0.50173(16) 0.73007(17)
H40 H 0.3984 0.5118 0.7959
H41 H 0.3410 0.4724 0.6813
C28 C 0.51778(19) 0.42825(17) 0.74810(16)
C29 C 0.63803(19) 0.46539(17) 0.82055(16)
H42 H 0.6556 0.5301 0.7963
H43 H 0.7028 0.4199 0.8178
C30 C 0.63996(19) 0.47483(17) 0.93246(17)
H44 H 0.5653 0.5080 0.9338
H45 H 0.6409 0.4086 0.9619
C31 C 0.74770(19) 0.53165(16) 0.99838(17)
C32 C 0.7343(2) 0.58580(17) 1.09125(17)
H46 H 0.6648 0.5568 1.1087
C33 C 0.8473(2) 0.5759(2) 1.18442(18)
H47 H 0.8578 0.5073 1.2064
H48 H 0.8389 0.6165 1.2406
H49 H 0.9177 0.5975 1.1662
C34 C 0.5922(2) 0.3678(2) 0.50834(18)
H50 H 0.6593 0.3339 0.4948
H51 H 0.5946 0.4374 0.4921
H52 H 0.5157 0.3395 0.4655
C35 C 0.60271(18) 0.35639(17) 0.61983(17)
C36 C 0.2754(2) 0.72716(19) 0.70172(19)
C37 C 0.3566(2) 0.73876(18) 0.81101(18)
H53 H 0.3806 0.6765 0.8506
C38 C 0.4440(2) 0.82067(18) 0.84356(17)
C39 C 0.4483(2) 0.8974(2) 0.7663(2)
H54 H 0.3693 0.9018 0.7131
H55 H 0.5095 0.8795 0.7346
H56 H 0.4688 0.9608 0.8007
C40 C 0.55874(19) 0.81028(17) 0.93404(17)
H57 H 0.5528 0.8534 0.9901
H58 H 0.6274 0.8337 0.9130
C41 C 0.5859(2) 0.70676(18) 0.97564(18)
H59 H 0.5855 0.6629 0.9182
H60 H 0.5200 0.6853 1.0015
C42 C 0.7053(2) 0.69413(17) 1.06129(17)
H61 H 0.7024 0.7311 1.1224
H62 H 0.7708 0.7221 1.0389
C43 C 0.1320(2) 0.6858(2) 0.4840(2)
H63 H 0.0754 0.6722 0.5217
H64 H 0.1000 0.6591 0.4144
H65 H 0.1426 0.7567 0.4803
C44 C 0.4798(2) 0.33063(17) 0.78131(17)
H66 H 0.4094 0.3056 0.7271
H67 H 0.4593 0.3396 0.8445
H68 H 0.5464 0.2838 0.7938
loop_
_geom_bond_atom_site_label_1
_geom_bond_atom_site_label_2
_geom_bond_site_symmetry_1
_geom_bond_site_symmetry_2
O1 C1 1_555 1_555
O2 C1 1_555 1_555
O3 C14 1_555 1_555
O4 C7 1_555 1_555
O5 C6 1_555 1_555
C1 C10 1_555 1_555
C2 O2 1_555 1_555
C3 C2 1_555 1_555
H1 C3 1_555 1_555
H2 C3 1_555 1_555
C4 C3 1_555 1_555
H3 C4 1_555 1_555
H4 C4 1_555 1_555
C5 C4 1_555 1_555
C6 C5 1_555 1_555
C7 C6 1_555 1_555
H5 C7 1_555 1_555
C8 O4 1_555 1_555
C9 C8 1_555 1_555
H6 C9 1_555 1_555
H7 C9 1_555 1_555
H8 C9 1_555 1_555
C10 H9 1_555 1_555
H10 C10 1_555 1_555
H11 C10 1_555 1_555
C11 C2 1_555 1_555
H12 C11 1_555 1_555
H13 C11 1_555 1_555
H14 C11 1_555 1_555
C12 C2 1_555 1_555
H15 C12 1_555 1_555
H16 C12 1_555 1_555
C13 C12 1_555 1_555
H17 C13 1_555 1_555
H18 C13 1_555 1_555
C14 C13 1_555 1_555
C15 C14 1_555 1_555
H19 C15 1_555 1_555
C16 C15 1_555 1_555
H20 C16 1_555 1_555
H21 C16 1_555 1_555
C17 C16 1_555 1_555
H22 C17 1_555 1_555
H23 C17 1_555 1_555
C18 C8 1_555 1_555
H24 C18 1_555 1_555
H25 C18 1_555 1_555
C19 C5 1_555 1_555
C20 C19 1_555 1_555
H26 C20 1_555 1_555
H27 C20 1_555 1_555
H28 C20 1_555 1_555
C21 C19 1_555 1_555
H29 C21 1_555 1_555
H30 C21 1_555 1_555
H31 C21 1_555 1_555
C22 C15 1_555 1_555
H32 C22 1_555 1_555
H33 C22 1_555 1_555
H34 C22 1_555 1_555
O6 C28 1_555 1_555
O7 C36 1_555 1_555
O8 C37 1_555 1_555
O9 C31 1_555 1_555
O10 C35 1_555 1_555
C23 H35 1_555 1_555
H36 C23 1_555 1_555
H37 C23 1_555 1_555
C24 C23 1_555 1_555
C25 C24 1_555 1_555
C26 C25 1_555 1_555
H38 C26 1_555 1_555
H39 C26 1_555 1_555
C27 C26 1_555 1_555
H40 C27 1_555 1_555
H41 C27 1_555 1_555
C28 C27 1_555 1_555
C29 C28 1_555 1_555
H42 C29 1_555 1_555
H43 C29 1_555 1_555
C30 C29 1_555 1_555
H44 C30 1_555 1_555
H45 C30 1_555 1_555
C31 C30 1_555 1_555
C32 C31 1_555 1_555
H46 C32 1_555 1_555
C33 C32 1_555 1_555
H47 C33 1_555 1_555
H48 C33 1_555 1_555
H49 C33 1_555 1_555
C34 H50 1_555 1_555
H51 C34 1_555 1_555
H52 C34 1_555 1_555
C35 O6 1_555 1_555
C36 C25 1_555 1_555
C37 C36 1_555 1_555
H53 C37 1_555 1_555
C38 O8 1_555 1_555
C39 C38 1_555 1_555
H54 C39 1_555 1_555
H55 C39 1_555 1_555
H56 C39 1_555 1_555
C40 C38 1_555 1_555
H57 C40 1_555 1_555
H58 C40 1_555 1_555
C41 C40 1_555 1_555
H59 C41 1_555 1_555
H60 C41 1_555 1_555
C42 C32 1_555 1_555
H61 C42 1_555 1_555
H62 C42 1_555 1_555
C43 C24 1_555 1_555
H63 C43 1_555 1_555
H64 C43 1_555 1_555
H65 C43 1_555 1_555
C44 C28 1_555 1_555
H66 C44 1_555 1_555
H67 C44 1_555 1_555
H68 C44 1_555 1_555
C7 C8 1_555 1_555
C17 C18 1_555 1_555
C34 C35 1_555 1_555
C37 C38 1_555 1_555
C41 C42 1_555 1_555

#END
