
#######################################################################
#
#                 Cambridge Crystallographic Data Centre
#                                CCDC 
#
#######################################################################
#
# If this CIF has been generated from an entry in the Cambridge 
# Structural Database, then it will include bibliographic, chemical, 
# crystal, experimental, refinement or atomic coordinate data resulting 
# from the CCDC's data processing and validation procedures.
#
#######################################################################

data_POHCAS
_chemical_name_common            '(4R,8R,12S,13R)-Chandonanone B'
_chemical_formula_moiety         'C22 H34 O5'
_chemical_name_systematic        
'3-isopropylidene-6,10,14-trimethyl-2,9-dioxo-15-oxabicyclo[12.1.0]pentadec-6-yl acetate'
_symmetry_cell_setting           monoclinic
_symmetry_space_group_name_H-M   'P 21'
_symmetry_Int_Tables_number      4
_space_group_name_Hall           'P 2yb'
loop_
_symmetry_equiv_pos_site_id
_symmetry_equiv_pos_as_xyz
1 x,y,z
2 -x,1/2+y,-z
_cell_length_a                   5.6773(2)
_cell_length_b                   13.9911(5)
_cell_length_c                   13.0148(5)
_cell_angle_alpha                90
_cell_angle_beta                 95.410(2)
_cell_angle_gamma                90
_cell_volume                     1029.18
_exptl_crystal_colour            colorless
_exptl_crystal_description       prism
_cell_formula_units_Z            2
loop_
_atom_site_label
_atom_site_type_symbol
_atom_site_fract_x
_atom_site_fract_y
_atom_site_fract_z
O1 O 0.9069(2) 1.01343(10) 0.34542(10)
O2 O 1.1289(3) 1.13995(11) 0.30420(12)
O3 O 0.2190(4) 0.65323(17) 0.34840(17)
O4 O 0.3265(3) 0.60332(11) 0.15167(12)
O5 O 1.2500(2) 0.87701(11) 0.03443(11)
C1 C 0.6715(4) 0.53325(16) 0.25802(18)
H1 H 0.5589 0.5275 0.3103
H2 H 0.8244 0.5554 0.2907
H3 H 0.6915 0.4708 0.2258
C2 C 0.5789(3) 0.60407(14) 0.17693(15)
C3 C 0.4291(3) 0.68471(15) 0.20444(16)
H4 H 0.4388 0.7436 0.1615
C4 C 0.3740(4) 0.70114(16) 0.31483(18)
C5 C 0.5152(3) 0.77613(14) 0.37338(16)
C6 C 0.7005(3) 0.82829(14) 0.31724(14)
H5 H 0.7562 0.7857 0.2638
H6 H 0.8379 0.8440 0.3670
C7 C 0.6013(3) 0.92085(13) 0.26606(14)
H7 H 0.5065 0.9036 0.2010
H8 H 0.4923 0.9503 0.3120
C8 C 0.7836(3) 0.99637(13) 0.24144(13)
C9 C 1.0709(3) 1.08147(14) 0.36465(15)
C10 C 1.1749(4) 1.07347(17) 0.47514(16)
H9 H 1.3122 1.1159 0.4865
H10 H 1.2245 1.0074 0.4896
H11 H 1.0558 1.0919 0.5212
C11 C 0.4838(4) 0.79619(15) 0.47346(17)
C12 C 0.6376(4) 0.86804(18) 0.53409(16)
H12 H 0.7570 0.8345 0.5800
H13 H 0.5396 0.9077 0.5753
H14 H 0.7164 0.9087 0.4865
C13 C 0.3036(5) 0.7485(2) 0.53380(19)
H15 H 0.1444 0.7620 0.5012
H16 H 0.3183 0.7731 0.6046
H17 H 0.3306 0.6793 0.5349
C14 C 0.7313(3) 0.61025(15) 0.08685(15)
H18 H 0.8952 0.5919 0.1117
H19 H 0.6721 0.5631 0.0338
C15 C 0.7365(4) 0.70779(15) 0.03673(15)
H20 H 0.7788 0.7562 0.0908
H21 H 0.5760 0.7232 0.0045
C16 C 0.9112(3) 0.71458(14) -0.04511(15)
H22 H 0.8549 0.6730 -0.1039
H23 H 1.0660 0.6895 -0.0156
C17 C 0.9477(3) 0.81653(14) -0.08635(15)
H24 H 1.0755 0.8127 -0.1341
C18 C 0.7258(4) 0.85568(16) -0.14915(16)
H25 H 0.5948 0.8585 -0.1053
H26 H 0.6828 0.8136 -0.2081
H27 H 0.7582 0.9200 -0.1741
C19 C 1.0412(3) 0.87867(13) 0.00502(14)
C20 C 0.8708(3) 0.93900(13) 0.06098(14)
H28 H 0.7177 0.9051 0.0607
H29 H 0.8418 1.0002 0.0238
C21 C 0.9679(3) 0.95943(13) 0.17254(13)
H30 H 1.0380 0.8999 0.2031
H31 H 1.0963 1.0073 0.1721
C22 C 0.6561(3) 1.08618(14) 0.20061(14)
H32 H 0.5575 1.1108 0.2525
H33 H 0.5561 1.0709 0.1372
H34 H 0.7727 1.1347 0.1857
loop_
_geom_bond_atom_site_label_1
_geom_bond_atom_site_label_2
_geom_bond_site_symmetry_1
_geom_bond_site_symmetry_2
O1 C8 1_555 1_555
O2 C9 1_555 1_555
O3 C4 1_555 1_555
O4 C2 1_555 1_555
O5 C19 1_555 1_555
C1 H1 1_555 1_555
H2 C1 1_555 1_555
H3 C1 1_555 1_555
C2 C1 1_555 1_555
C3 O4 1_555 1_555
H4 C3 1_555 1_555
C4 C3 1_555 1_555
C5 C4 1_555 1_555
C6 C5 1_555 1_555
H5 C6 1_555 1_555
H6 C6 1_555 1_555
C7 C6 1_555 1_555
H7 C7 1_555 1_555
H8 C7 1_555 1_555
C8 C7 1_555 1_555
C9 O1 1_555 1_555
C10 C9 1_555 1_555
H9 C10 1_555 1_555
H10 C10 1_555 1_555
H11 C10 1_555 1_555
C11 C5 1_555 1_555
C12 C11 1_555 1_555
H12 C12 1_555 1_555
H13 C12 1_555 1_555
H14 C12 1_555 1_555
C13 C11 1_555 1_555
H15 C13 1_555 1_555
H16 C13 1_555 1_555
H17 C13 1_555 1_555
C14 C2 1_555 1_555
H18 C14 1_555 1_555
H19 C14 1_555 1_555
C15 C14 1_555 1_555
H20 C15 1_555 1_555
H21 C15 1_555 1_555
C16 C15 1_555 1_555
H22 C16 1_555 1_555
H23 C16 1_555 1_555
C17 C16 1_555 1_555
H24 C17 1_555 1_555
C18 C17 1_555 1_555
H25 C18 1_555 1_555
H26 C18 1_555 1_555
H27 C18 1_555 1_555
C19 C17 1_555 1_555
C20 C19 1_555 1_555
H28 C20 1_555 1_555
H29 C20 1_555 1_555
C21 C8 1_555 1_555
H30 C21 1_555 1_555
H31 C21 1_555 1_555
C22 C8 1_555 1_555
H32 C22 1_555 1_555
H33 C22 1_555 1_555
H34 C22 1_555 1_555
C2 C3 1_555 1_555
C20 C21 1_555 1_555

#END
