
#######################################################################
#
#                 Cambridge Crystallographic Data Centre
#                                CCDC 
#
#######################################################################
#
# If this CIF has been generated from an entry in the Cambridge 
# Structural Database, then it will include bibliographic, chemical, 
# crystal, experimental, refinement or atomic coordinate data resulting 
# from the CCDC's data processing and validation procedures.
#
#######################################################################

data_POHJAY
_chemical_name_common            '5-Bromo-6-azauracil monohydrate'
_chemical_formula_moiety         'C3 H2 Br1 N3 O2,H2 O1'
_chemical_name_systematic        
'6-Bromo-1,2,4-triazin-3,5(2H,4H)-dione monohydrate'
_symmetry_cell_setting           monoclinic
_symmetry_space_group_name_H-M   'P 21/c'
_symmetry_Int_Tables_number      14
_space_group_name_Hall           '-P 2ybc'
loop_
_symmetry_equiv_pos_site_id
_symmetry_equiv_pos_as_xyz
1 x,y,z
2 -x,1/2+y,1/2-z
3 -x,-y,-z
4 x,1/2-y,1/2+z
_cell_length_a                   11.3794(7)
_cell_length_b                   6.7248(6)
_cell_length_c                   8.6383(10)
_cell_angle_alpha                90
_cell_angle_beta                 98.792(5)
_cell_angle_gamma                90
_cell_volume                     653.272
_exptl_crystal_colour            colorless
_exptl_crystal_description       plate
_chemical_melting_point          231-233deg.C
_cell_formula_units_Z            4
_exptl_crystal_recrystallization_method water
loop_
_atom_site_label
_atom_site_type_symbol
_atom_site_fract_x
_atom_site_fract_y
_atom_site_fract_z
Br1 Br 0.04642(6) 0.77559(12) 0.19995(9)
O1 O 0.2530(5) 0.9427(8) 0.0479(7)
O2 O 0.3930(5) 0.3577(8) -0.1096(7)
N1 N 0.3212(4) 0.6544(8) -0.0371(6)
H1 H 0.3702 0.7177 -0.0857
N2 N 0.2425(5) 0.3590(8) 0.0332(7)
H2 H 0.2433 0.2312 0.0348
N3 N 0.1610(4) 0.4514(8) 0.1073(7)
C1 C 0.2482(6) 0.7638(9) 0.0395(8)
C2 C 0.3231(5) 0.4510(9) -0.0432(7)
C3 C 0.1620(5) 0.6411(10) 0.1078(7)
O3 O 0.4414(4) -0.0676(9) -0.1863(6)
H3 H 0.4360 0.0319 -0.1323
H4 H 0.5019 -0.0798 -0.1942
loop_
_geom_bond_atom_site_label_1
_geom_bond_atom_site_label_2
_geom_bond_site_symmetry_1
_geom_bond_site_symmetry_2
Br1 C3 1_555 1_555
O1 C1 1_555 1_555
O2 C2 1_555 1_555
N1 H1 1_555 1_555
N2 H2 1_555 1_555
N3 N2 1_555 1_555
C1 N1 1_555 1_555
C2 N1 1_555 1_555
C3 N3 1_555 1_555
O3 H3 1_555 1_555
H4 O3 1_555 1_555
N2 C2 1_555 1_555
C1 C3 1_555 1_555

#END
