
#######################################################################
#
#                 Cambridge Crystallographic Data Centre
#                                CCDC 
#
#######################################################################
#
# If this CIF has been generated from an entry in the Cambridge 
# Structural Database, then it will include bibliographic, chemical, 
# crystal, experimental, refinement or atomic coordinate data resulting 
# from the CCDC's data processing and validation procedures.
#
#######################################################################

data_POHKAA
_chemical_name_common            'Marsupellin A'
_chemical_formula_moiety         'C15 H22 O3'
_chemical_name_systematic        
9-hydroxy-5,5,8-trimethyl-13-oxatetracyclo[7.2.2.0^1,7^.0^6,11^]tridecan-12-one
_chemical_properties_biological  'moderate AChE inhibition'
_symmetry_cell_setting           orthorhombic
_symmetry_space_group_name_H-M   'P 21 21 21'
_symmetry_Int_Tables_number      19
_space_group_name_Hall           'P 2ac 2ab'
loop_
_symmetry_equiv_pos_site_id
_symmetry_equiv_pos_as_xyz
1 x,y,z
2 1/2-x,-y,1/2+z
3 1/2+x,1/2-y,-z
4 -x,1/2+y,1/2-z
_cell_length_a                   7.0377(6)
_cell_length_b                   11.4982(10)
_cell_length_c                   17.1695(15)
_cell_angle_alpha                90
_cell_angle_beta                 90
_cell_angle_gamma                90
_cell_volume                     1389.37
_exptl_crystal_colour            colorless
_exptl_crystal_description       plate
_cell_formula_units_Z            4
loop_
_atom_site_label
_atom_site_type_symbol
_atom_site_fract_x
_atom_site_fract_y
_atom_site_fract_z
C1 C 0.0313(4) 0.0742(2) 0.39394(15)
H1 H -0.0226 0.1505 0.3813
C2 C 0.0333(4) -0.0037(2) 0.32083(16)
H2 H -0.0619 -0.0659 0.3200
C3 C 0.0387(4) 0.0741(3) 0.24829(16)
H3 H -0.0555 0.1361 0.2551
C4 C 0.2367(5) 0.1303(2) 0.24686(15)
C5 C 0.2998(4) 0.1714(3) 0.32691(17)
H4 H 0.2364 0.2437 0.3401
H5 H 0.4358 0.1850 0.3272
C6 C 0.2489(4) 0.0778(2) 0.38612(14)
H6 H 0.3208 0.0790 0.4350
C7 C 0.2396(4) -0.0423(2) 0.34292(15)
C8 C 0.2555(6) -0.1515(3) 0.3928(2)
H7 H 0.2602 -0.2179 0.3580
H8 H 0.3764 -0.1485 0.4199
C9 C 0.1079(10) -0.1739(4) 0.4507(3)
H9 H -0.0011 -0.2048 0.4229
H10 H 0.1542 -0.2357 0.4841
C10 C 0.0381(9) -0.0815(4) 0.5013(3)
H11 H 0.1449 -0.0569 0.5330
H12 H -0.0527 -0.1172 0.5365
C11 C -0.0547(4) 0.0283(3) 0.47057(18)
C12 C -0.0215(8) 0.1198(4) 0.5328(2)
H13 H -0.0816 0.1912 0.5175
H14 H 0.1125 0.1324 0.5389
H15 H -0.0744 0.0937 0.5812
C13 C -0.2665(6) 0.0115(7) 0.4585(3)
H16 H -0.3211 -0.0227 0.5043
H17 H -0.2872 -0.0388 0.4147
H18 H -0.3251 0.0855 0.4488
C14 C 0.3779(5) -0.0494(3) 0.27532(19)
C15 C -0.0075(6) 0.0098(4) 0.1728(2)
H19 H 0.0764 -0.0555 0.1672
H20 H 0.0086 0.0615 0.1294
H21 H -0.1366 -0.0171 0.1744
O1 O 0.2467(4) 0.2128(2) 0.18876(13)
H22 H 0.3293 0.2605 0.1995
O2 O 0.3716(3) 0.0392(2) 0.22537(13)
O3 O 0.4903(5) -0.1260(3) 0.26346(19)
loop_
_geom_bond_atom_site_label_1
_geom_bond_atom_site_label_2
_geom_bond_site_symmetry_1
_geom_bond_site_symmetry_2
C1 H1 1_555 1_555
C2 C1 1_555 1_555
H2 C2 1_555 1_555
C3 C2 1_555 1_555
H3 C3 1_555 1_555
C4 C3 1_555 1_555
C5 C4 1_555 1_555
H4 C5 1_555 1_555
H5 C5 1_555 1_555
C6 C1 1_555 1_555
H6 C6 1_555 1_555
C7 C2 1_555 1_555
C8 C7 1_555 1_555
H7 C8 1_555 1_555
H8 C8 1_555 1_555
C9 C8 1_555 1_555
H9 C9 1_555 1_555
H10 C9 1_555 1_555
C10 C9 1_555 1_555
H11 C10 1_555 1_555
H12 C10 1_555 1_555
C11 C1 1_555 1_555
C12 C11 1_555 1_555
H13 C12 1_555 1_555
H14 C12 1_555 1_555
H15 C12 1_555 1_555
C13 C11 1_555 1_555
H16 C13 1_555 1_555
H17 C13 1_555 1_555
H18 C13 1_555 1_555
C14 C7 1_555 1_555
C15 C3 1_555 1_555
H19 C15 1_555 1_555
H20 C15 1_555 1_555
H21 C15 1_555 1_555
O1 C4 1_555 1_555
H22 O1 1_555 1_555
O2 C4 1_555 1_555
O3 C14 1_555 1_555
C5 C6 1_555 1_555
C6 C7 1_555 1_555
C10 C11 1_555 1_555
C14 O2 1_555 1_555

#END
