
#######################################################################
#
#                 Cambridge Crystallographic Data Centre
#                                CCDC 
#
#######################################################################
#
# If this CIF has been generated from an entry in the Cambridge 
# Structural Database, then it will include bibliographic, chemical, 
# crystal, experimental, refinement or atomic coordinate data resulting 
# from the CCDC's data processing and validation procedures.
#
#######################################################################

data_POHLED
_chemical_formula_moiety         'C32 H60 N4 Na1 O8 1+,Br1 1-,4(H2 O1)'
_chemical_name_systematic        
"(Tetra-t-butyl 1,4,7,10-tetra-azacyclododecane-N,N',N'',N'''-tetra-acetate-O,O',O'',O''')-sodium bromide tetrahydrate"
_symmetry_cell_setting           monoclinic
_symmetry_space_group_name_H-M   'P 21/c'
_symmetry_Int_Tables_number      14
_space_group_name_Hall           '-P 2ybc'
loop_
_symmetry_equiv_pos_site_id
_symmetry_equiv_pos_as_xyz
1 x,y,z
2 -x,1/2+y,1/2-z
3 -x,-y,-z
4 x,1/2-y,1/2+z
_cell_length_a                   10.521(1)
_cell_length_b                   26.240(2)
_cell_length_c                   16.779(1)
_cell_angle_alpha                90
_cell_angle_beta                 106.51(1)
_cell_angle_gamma                90
_cell_volume                     4441.21
_exptl_crystal_colour            colorless
_cell_formula_units_Z            4
loop_
_atom_site_label
_atom_site_type_symbol
_atom_site_fract_x
_atom_site_fract_y
_atom_site_fract_z
N1 N 0.4443(5) 0.5789(2) 0.2138(3)
C1 C 0.4136(7) 0.5857(3) 0.1232(4)
C2 C 0.4169(7) 0.6408(3) 0.0988(4)
N2 N 0.5459(5) 0.6658(2) 0.1342(3)
C3 C 0.6423(6) 0.6511(3) 0.0903(3)
C4 C 0.7832(6) 0.6616(3) 0.138(3)
N3 N 0.8252(5) 0.6351(2) 0.2195(3)
C5 C 0.8581(6) 0.5811(2) 0.2096(4)
C6 C 0.8532(7) 0.5490(2) 0.2839(4)
N4 N 0.7232(5) 0.5497(2) 0.3008(3)
C7 C 0.6304(7) 0.5164(2) 0.2424(4)
C8 C 0.4872(7) 0.5262(3) 0.2384(4)
C9 C 0.3840(6) 0.6036(2) 0.3370(4)
C10 C 0.3332(6) 0.5934(3) 0.2452(4)
O1 O 0.4962(4) 0.6124(2) 0.3740(2)
O2 O 0.2846(4) 0.6017(2) 0.3725(2)
O3 O 0.4580(5) 0.7085(2) 0.2587(3)
O4 O 0.4471(5) 0.7860(2) 0.2016(3)
O5 O 0.7740(4) 0.7165(2) 0.3081(3)
O6 O 0.9915(4) 0.7301(2) 0.3681(3)
O7 O 0.8176(4) 0.6183(2) 0.4333(2)
O8 O 0.7819(5) 0.5603(2) 0.5237(2)
C11 C 0.4717(7) 0.7366(2) 0.2055(4)
C12 C 0.5294(7) 0.7212(3) 0.1369(4)
C13 C 0.8886(6) 0.7060(2) 0.3189(4)
C14 C 0.9352(6) 0.6614(3) 0.2767(4)
C15 C 0.7837(6) 0.5772(2) 0.4485(4)
C16 C 0.7380(7) 0.5348(2) 0.3864(4)
C17 C 0.3139(6) 0.6094(3) 0.4637(4)
C18 C 0.3612(8) 0.6626(3) 0.4841(4)
C19 C 0.4066(7) 0.5693(3) 0.5082(4)
C20 C 0.1783(7) 0.6022(4) 0.4780(4)
C21 C 0.3873(8) 0.8117(3) 0.2617(4)
C22 C 0.382(1) 0.8660(4) 0.2330(6)
C23 C 0.473(1) 0.8057(4) 0.3482(5)
C24 C 0.255(1) 0.7902(5) 0.2537(6)
C25 C 0.9726(8) 0.7736(3) 0.4193(5)
C26 C 1.1134(9) 0.7869(3) 0.4672(6)
C27 C 0.8945(9) 0.7560(4) 0.4771(5)
C28 C 0.911(1) 0.8176(3) 0.3623(7)
C29 C 0.8271(7) 0.5907(3) 0.6006(4)
C30 C 0.8006(9) 0.5555(4) 0.6653(5)
C31 C 0.7483(8) 0.6396(4) 0.5927(5)
C32 C 0.9722(8) 0.6007(4) 0.6206(5)
Na1 Na 0.6318(2) 0.63958(8) 0.2854(1)
Br1 Br 0.8277(1) 0.43045(4) 0.11760(6)
O9 O 0.292(2) 0.4635(9) 0.012(1)
O12 O 0.502(1) 0.4553(4) 0.0504(6)
O13 O 0.0297(6) 0.5884(2) 0.0387(3)
O14 O 0.1016(6) 0.5007(2) 0.1378(3)
O10? O 0.245(1) 0.4295(5) 0.0649(7)
O11? O 0.218(1) 0.4585(5) 0.0200(8)
loop_
_geom_bond_atom_site_label_1
_geom_bond_atom_site_label_2
_geom_bond_site_symmetry_1
_geom_bond_site_symmetry_2
N1 C1 1_555 1_555
C1 C2 1_555 1_555
C2 N2 1_555 1_555
N2 C3 1_555 1_555
C3 C4 1_555 1_555
C4 N3 1_555 1_555
N3 C5 1_555 1_555
C5 C6 1_555 1_555
C6 N4 1_555 1_555
N4 C7 1_555 1_555
C7 C8 1_555 1_555
C8 N1 1_555 1_555
C9 C10 1_555 1_555
C10 N1 1_555 1_555
O1 C9 1_555 1_555
O2 C9 1_555 1_555
O3 C11 1_555 1_555
O4 C11 1_555 1_555
O5 C13 1_555 1_555
O6 C13 1_555 1_555
O7 C15 1_555 1_555
O8 C15 1_555 1_555
C11 C12 1_555 1_555
C12 N2 1_555 1_555
C13 C14 1_555 1_555
C14 N3 1_555 1_555
C15 C16 1_555 1_555
C16 N4 1_555 1_555
C17 O2 1_555 1_555
C18 C17 1_555 1_555
C19 C17 1_555 1_555
C20 C17 1_555 1_555
C21 O4 1_555 1_555
C22 C21 1_555 1_555
C23 C21 1_555 1_555
C24 C21 1_555 1_555
C25 O6 1_555 1_555
C26 C25 1_555 1_555
C27 C25 1_555 1_555
C28 C25 1_555 1_555
C29 O8 1_555 1_555
C30 C29 1_555 1_555
C31 C29 1_555 1_555
C32 C29 1_555 1_555
Na1 N1 1_555 1_555
N2 Na1 1_555 1_555
N3 Na1 1_555 1_555
N4 Na1 1_555 1_555
O1 Na1 1_555 1_555
O3 Na1 1_555 1_555
O5 Na1 1_555 1_555
O7 Na1 1_555 1_555

#END
