
#######################################################################
#
#                 Cambridge Crystallographic Data Centre
#                                CCDC 
#
#######################################################################
#
# If this CIF has been generated from an entry in the Cambridge 
# Structural Database, then it will include bibliographic, chemical, 
# crystal, experimental, refinement or atomic coordinate data resulting 
# from the CCDC's data processing and validation procedures.
#
#######################################################################

data_POHLEF
_chemical_compound_source        
'crude extract of the fungus Cercospora sp., endophytic to the medicinal plant Fallopia japonica'
_chemical_name_common            'Cercosporene D'
_chemical_formula_moiety         'C20 H28 O4'
_chemical_name_systematic        
8-(1-hydroxypropan-2-yl)-5a,7a-dimethyl-4,5,5a,6,7,7a,8,9,10a,10b-decahydro-2H-1-oxabenzo[cd]cyclopenta[h]azulene-3,10-dione
_symmetry_cell_setting           orthorhombic
_symmetry_space_group_name_H-M   'P 21 21 21'
_symmetry_Int_Tables_number      19
_space_group_name_Hall           'P 2ac 2ab'
loop_
_symmetry_equiv_pos_site_id
_symmetry_equiv_pos_as_xyz
1 x,y,z
2 1/2-x,-y,1/2+z
3 1/2+x,1/2-y,-z
4 -x,1/2+y,1/2-z
_cell_length_a                   8.2270(7)
_cell_length_b                   11.0537(9)
_cell_length_c                   18.858(13)
_cell_angle_alpha                90
_cell_angle_beta                 90
_cell_angle_gamma                90
_cell_volume                     1714.92
_chemical_melting_point          '115-118 deg.C'
_cell_formula_units_Z            4
loop_
_atom_site_label
_atom_site_type_symbol
_atom_site_fract_x
_atom_site_fract_y
_atom_site_fract_z
O1 O -0.58753(15) -0.85981(12) -0.02676(8)
C1 C -0.3903(2) -1.04934(17) 0.09678(10)
O2 O -0.64031(16) -0.76043(11) 0.12212(7)
C2 C -0.3103(2) -0.89760(17) 0.00716(11)
H1 H -0.2664 -0.8144 0.0101
H2 H -0.2818 -0.9320 -0.0397
O3 O -1.05434(16) -0.83395(13) 0.25866(9)
O4 O 0.15967(15) -1.03093(13) -0.02218(8)
H3 H 0.2379 -0.9852 -0.0322
C3 C -0.7929(2) -0.74988(17) 0.15933(11)
H4 H -0.8856 -0.7599 0.1264
H5 H -0.8019 -0.6702 0.1829
C4 C -0.9189(2) -0.87908(18) 0.26365(11)
C5 C -0.6499(2) -0.91201(16) 0.20874(10)
C6 C -0.7553(2) -1.06423(17) 0.29446(11)
H6 H -0.8144 -1.1167 0.2606
H7 H -0.7217 -1.1152 0.3351
C7 C -0.4281(2) -1.15873(17) 0.04924(11)
H8 H -0.3389 -1.2172 0.0523
H9 H -0.4402 -1.1317 0.0000
H10 H -0.5293 -1.1970 0.0651
C8 C -0.8714(2) -0.96616(18) 0.32127(11)
H11 H -0.9704 -1.0049 0.3406
H12 H -0.8185 -0.9210 0.3603
C9 C -0.2399(2) -0.97687(17) 0.06743(11)
H13 H -0.2017 -0.9214 0.1059
C10 C -0.4912(2) -0.89669(17) 0.01707(11)
C11 C -0.0922(2) -1.04948(17) 0.04141(11)
H14 H -0.1289 -1.1033 0.0019
C12 C -0.5223(2) -1.11960(17) 0.21609(11)
H15 H -0.4974 -1.1853 0.2501
H16 H -0.6035 -1.1514 0.1821
C13 C -0.0133(2) -1.12900(19) 0.09853(12)
H17 H -0.0840 -1.1983 0.1086
H18 H 0.0021 -1.0815 0.1419
H19 H 0.0923 -1.1581 0.0816
C14 C -0.5333(2) -0.95834(18) 0.08723(10)
H20 H -0.6376 -1.0040 0.0820
C15 C -0.6012(2) -1.01432(16) 0.25762(11)
C16 C 0.0345(2) -0.96227(19) 0.01168(12)
H21 H -0.0169 -0.9069 -0.0230
H22 H 0.0813 -0.9131 0.0505
C17 C -0.4821(2) -0.96318(19) 0.31370(11)
H23 H -0.5385 -0.9033 0.3431
H24 H -0.3899 -0.9247 0.2897
H25 H -0.4425 -1.0292 0.3438
C18 C -0.7892(2) -0.85024(17) 0.21297(11)
C19 C -0.3661(2) -1.08993(17) 0.17478(11)
H26 H -0.2956 -1.1625 0.1751
H27 H -0.3076 -1.0250 0.2003
C20 C -0.5507(2) -0.86386(17) 0.14743(11)
H28 H -0.4408 -0.8382 0.1644
loop_
_geom_bond_atom_site_label_1
_geom_bond_atom_site_label_2
_geom_bond_site_symmetry_1
_geom_bond_site_symmetry_2
O1 C10 1_555 1_555
C1 C7 1_555 1_555
O2 C3 1_555 1_555
C2 H1 1_555 1_555
H2 C2 1_555 1_555
O3 C4 1_555 1_555
O4 H3 1_555 1_555
C3 H4 1_555 1_555
H5 C3 1_555 1_555
C4 C8 1_555 1_555
C5 C15 1_555 1_555
C6 H6 1_555 1_555
H7 C6 1_555 1_555
C7 H8 1_555 1_555
H9 C7 1_555 1_555
H10 C7 1_555 1_555
C8 C6 1_555 1_555
H11 C8 1_555 1_555
H12 C8 1_555 1_555
C9 C1 1_555 1_555
H13 C9 1_555 1_555
C10 C2 1_555 1_555
C11 C9 1_555 1_555
H14 C11 1_555 1_555
C12 H15 1_555 1_555
H16 C12 1_555 1_555
C13 C11 1_555 1_555
H17 C13 1_555 1_555
H18 C13 1_555 1_555
H19 C13 1_555 1_555
C14 C1 1_555 1_555
H20 C14 1_555 1_555
C15 C6 1_555 1_555
C16 O4 1_555 1_555
H21 C16 1_555 1_555
H22 C16 1_555 1_555
C17 C15 1_555 1_555
H23 C17 1_555 1_555
H24 C17 1_555 1_555
H25 C17 1_555 1_555
C18 C3 1_555 1_555
C19 C1 1_555 1_555
H26 C19 1_555 1_555
H27 C19 1_555 1_555
C20 O2 1_555 1_555
H28 C20 1_555 1_555
C2 C9 1_555 1_555
C4 C18 1_555 1_555
C5 C18 1_555 1_555
C5 C20 1_555 1_555
C10 C14 1_555 1_555
C11 C16 1_555 1_555
C12 C15 1_555 1_555
C12 C19 1_555 1_555
C14 C20 1_555 1_555

#END
