
#######################################################################
#
#                 Cambridge Crystallographic Data Centre
#                                CCDC 
#
#######################################################################
#
# If this CIF has been generated from an entry in the Cambridge 
# Structural Database, then it will include bibliographic, chemical, 
# crystal, experimental, refinement or atomic coordinate data resulting 
# from the CCDC's data processing and validation procedures.
#
#######################################################################

data_POHLII
_chemical_formula_moiety         'C17 H22 Br1 N1 O7 P2'
_chemical_name_systematic        
'o-Hydroxyphenyl 1-(N-diethoxyphosphorylamino)-(2-bromophenyl)methyl phosphonate'
_symmetry_cell_setting           monoclinic
_symmetry_space_group_name_H-M   'P 21/n'
_symmetry_Int_Tables_number      14
_space_group_name_Hall           '-P 2yn'
loop_
_symmetry_equiv_pos_site_id
_symmetry_equiv_pos_as_xyz
1 x,y,z
2 1/2-x,1/2+y,1/2-z
3 -x,-y,-z
4 1/2+x,1/2-y,1/2+z
_cell_length_a                   11.206(4)
_cell_length_b                   12.843(4)
_cell_length_c                   14.851(5)
_cell_angle_alpha                90
_cell_angle_beta                 95.814(5)
_cell_angle_gamma                90
_cell_volume                     2126.34
_exptl_crystal_colour            colorless
_exptl_crystal_description       prism
_chemical_melting_point          162-164deg.C
_cell_formula_units_Z            4
loop_
_atom_site_label
_atom_site_type_symbol
_atom_site_fract_x
_atom_site_fract_y
_atom_site_fract_z
Br1 Br 0.86672(3) 0.48111(2) 0.10152(2)
N1 N 0.6797(2) 0.79674(18) 0.07826(16)
O1 O 0.40749(18) 0.86898(16) 0.08524(15)
H1 H 0.3739 0.9237 0.0646
O2 O 0.48831(17) 0.68609(15) 0.14868(13)
O3 O 0.50652(18) 0.63083(16) -0.01441(13)
O4 O 0.57320(19) 0.50898(16) 0.11805(14)
O5 O 0.81442(18) 0.79797(16) -0.05292(14)
O6 O 0.88439(18) 0.89501(17) 0.07544(15)
O7 O 0.6915(2) 0.96096(17) -0.01516(16)
P1 P 0.56079(6) 0.61994(6) 0.08189(5)
P2 P 0.76202(7) 0.86998(6) 0.01887(5)
C1 C 0.3228(3) 0.7947(2) 0.0952(2)
C2 C 0.2002(3) 0.8094(3) 0.0749(2)
H2 H 0.1707 0.8745 0.0520
C3 C 0.1207(3) 0.7288(3) 0.0880(2)
H3 H 0.0369 0.7392 0.0738
C4 C 0.1631(3) 0.6332(3) 0.1217(2)
H4 H 0.1086 0.5785 0.1306
C5 C 0.2854(3) 0.6183(2) 0.1423(2)
H5 H 0.3151 0.5535 0.1658
C6 C 0.3635(2) 0.6983(2) 0.12828(19)
C7 C 0.7044(2) 0.6862(2) 0.09699(19)
H6 H 0.7525 0.6603 0.0485
C8 C 0.7767(2) 0.6632(2) 0.18712(19)
C9 C 0.7704(3) 0.7289(3) 0.2615(2)
H7 H 0.7184 0.7875 0.2560
C10 C 0.8384(3) 0.7102(3) 0.3433(2)
H8 H 0.8328 0.7558 0.3931
C11 C 0.9147(3) 0.6247(3) 0.3522(2)
H9 H 0.9623 0.6125 0.4079
C12 C 0.9217(3) 0.5572(3) 0.2804(2)
H10 H 0.9730 0.4983 0.2867
C13 C 0.8527(3) 0.5766(2) 0.1989(2)
C14 C 0.8878(3) 0.9676(3) 0.1522(2)
H11 H 0.8995 0.9285 0.2099
H12 H 0.8110 1.0060 0.1504
C15 C 0.9880(3) 1.0416(3) 0.1465(2)
H13 H 1.0638 1.0032 0.1495
H14 H 0.9904 1.0909 0.1970
H15 H 0.9760 1.0798 0.0891
C16 C 0.7362(3) 0.7588(3) -0.1302(2)
H16 H 0.7215 0.8139 -0.1767
H17 H 0.6581 0.7369 -0.1108
C17 C 0.7982(4) 0.6681(3) -0.1680(3)
H18 H 0.8753 0.6908 -0.1870
H19 H 0.7480 0.6399 -0.2202
H20 H 0.8121 0.6141 -0.1214
H21 H 0.6086(16) 0.821(3) 0.090(2)
H22 H 0.546(4) 0.461(3) 0.082(3)
loop_
_geom_bond_atom_site_label_1
_geom_bond_atom_site_label_2
_geom_bond_site_symmetry_1
_geom_bond_site_symmetry_2
Br1 C13 1_555 1_555
N1 P2 1_555 1_555
O1 H1 1_555 1_555
O2 P1 1_555 1_555
O3 P1 1_555 1_555
O4 P1 1_555 1_555
O5 P2 1_555 1_555
O6 P2 1_555 1_555
O7 P2 1_555 1_555
P1 C7 1_555 1_555
C1 O1 1_555 1_555
C2 C1 1_555 1_555
H2 C2 1_555 1_555
C3 C2 1_555 1_555
H3 C3 1_555 1_555
C4 C3 1_555 1_555
H4 C4 1_555 1_555
C5 C4 1_555 1_555
H5 C5 1_555 1_555
C6 O2 1_555 1_555
C7 N1 1_555 1_555
H6 C7 1_555 1_555
C8 C7 1_555 1_555
C9 C8 1_555 1_555
H7 C9 1_555 1_555
C10 C9 1_555 1_555
H8 C10 1_555 1_555
C11 C10 1_555 1_555
H9 C11 1_555 1_555
C12 C11 1_555 1_555
H10 C12 1_555 1_555
C13 C8 1_555 1_555
C14 O6 1_555 1_555
H11 C14 1_555 1_555
H12 C14 1_555 1_555
C15 C14 1_555 1_555
H13 C15 1_555 1_555
H14 C15 1_555 1_555
H15 C15 1_555 1_555
C16 O5 1_555 1_555
H16 C16 1_555 1_555
H17 C16 1_555 1_555
C17 C16 1_555 1_555
H18 C17 1_555 1_555
H19 C17 1_555 1_555
H20 C17 1_555 1_555
H21 N1 1_555 1_555
H22 O4 1_555 1_555
C1 C6 1_555 1_555
C5 C6 1_555 1_555
C12 C13 1_555 1_555

#END
