
#######################################################################
#
#                 Cambridge Crystallographic Data Centre
#                                CCDC 
#
#######################################################################
#
# If this CIF has been generated from an entry in the Cambridge 
# Structural Database, then it will include bibliographic, chemical, 
# crystal, experimental, refinement or atomic coordinate data resulting 
# from the CCDC's data processing and validation procedures.
#
#######################################################################

data_POHMUV
_chemical_compound_source        'medicinal plant Kadsura coccinea'
_chemical_name_common            'Kadsuracoccinic acid A hydrate'
_chemical_formula_moiety         'C30 H44 O4,2.3(H2 O1)'
_chemical_name_systematic        
'2,3-seco-lanosta-4(28),9(11),17(20),17(Z),24(Z)-tetraene-3,26-dioic acid hydrate'
_chemical_properties_biological  
'arrested cleavage of Xenopus laevis cells at the blastular stage'
_symmetry_cell_setting           orthorhombic
_symmetry_space_group_name_H-M   'P 21 21 2'
_symmetry_Int_Tables_number      18
_space_group_name_Hall           'P 2 2ab'
loop_
_symmetry_equiv_pos_site_id
_symmetry_equiv_pos_as_xyz
1 x,y,z
2 -x,-y,z
3 1/2+x,1/2-y,-z
4 1/2-x,1/2+y,-z
_cell_length_a                   21.108(1)
_cell_length_b                   20.366(1)
_cell_length_c                   7.182(1)
_cell_angle_alpha                90
_cell_angle_beta                 90
_cell_angle_gamma                90
_cell_volume                     3087.44
_exptl_crystal_colour            colorless
_exptl_crystal_description       Block
_chemical_melting_point          150-151deg.C
_cell_formula_units_Z            4
_exptl_crystal_recrystallization_method 'n-hexane/ethyl acetate'
loop_
_atom_site_label
_atom_site_type_symbol
_atom_site_fract_x
_atom_site_fract_y
_atom_site_fract_z
O1 O 0.5953(2) 0.1221(3) 1.0020(7)
H1 H 0.6248 0.1159 1.0741
O2 O 0.5607(2) 0.1784(2) 1.2367(6)
O3 O 0.35063(19) -0.1366(2) 1.4689(6)
H2 H 0.3770 -0.1483 1.3918
O4 O 0.3070(2) -0.0974(4) 1.2174(7)
C1 C 0.46815(15) 0.23964(18) 1.0104(6)
H3 H 0.5007 0.2733 1.0064
H4 H 0.4536 0.2365 1.1382
C2 C 0.49838(18) 0.1743(2) 0.9573(7)
H5 H 0.4669 0.1397 0.9670
H6 H 0.5124 0.1763 0.8289
C3 C 0.5538(2) 0.1579(2) 1.0800(7)
C4 C 0.4882(2) 0.3211(3) 0.6518(7)
C5 C 0.43376(16) 0.2714(2) 0.6813(5)
H7 H 0.4505 0.2287 0.6422
C6 C 0.37896(19) 0.2863(2) 0.5506(6)
H8 H 0.3947 0.2914 0.4246
H9 H 0.3589 0.3271 0.5874
C7 C 0.3305(2) 0.2305(2) 0.5565(5)
H10 H 0.3505 0.1898 0.5188
H11 H 0.2964 0.2398 0.4698
C8 C 0.30349(15) 0.22314(17) 0.7530(5)
H12 H 0.2816 0.2643 0.7818
C9 C 0.35476(14) 0.21478(16) 0.8996(5)
C10 C 0.41217(15) 0.26252(16) 0.8891(5)
C11 C 0.34633(16) 0.17358(17) 1.0425(5)
H13 H 0.3799 0.1690 1.1252
C12 C 0.28750(16) 0.13378(19) 1.0826(5)
H14 H 0.2778 0.1362 1.2144
H15 H 0.2952 0.0881 1.0513
C13 C 0.23056(15) 0.15935(16) 0.9698(5)
C14 C 0.25359(15) 0.16837(17) 0.7662(5)
C15 C 0.19146(17) 0.1828(2) 0.6627(6)
H16 H 0.1958 0.1741 0.5305
H17 H 0.1786 0.2281 0.6801
C16 C 0.14361(18) 0.1354(2) 0.7526(6)
H18 H 0.1029 0.1569 0.7685
H19 H 0.1378 0.0969 0.6750
C17 C 0.17125(16) 0.11599(17) 0.9419(6)
C18 C 0.20893(18) 0.22411(19) 1.0600(6)
H20 H 0.1735 0.2415 0.9923
H21 H 0.2431 0.2552 1.0574
H22 H 0.1967 0.2161 1.1867
C19 C 0.38932(19) 0.32815(18) 0.9726(6)
H23 H 0.3760 0.3213 1.0989
H24 H 0.3544 0.3446 0.9007
H25 H 0.4234 0.3594 0.9700
C20 C 0.14439(16) 0.07127(17) 1.0503(6)
C21 C 0.0844(2) 0.0357(2) 0.9874(9)
H26 H 0.0727 0.0505 0.8653
H27 H 0.0506 0.0449 1.0730
H28 H 0.0921 -0.0108 0.9845
C22 C 0.16710(17) 0.05159(17) 1.2429(6)
H29 H 0.1313 0.0515 1.3276
H30 H 0.1972 0.0840 1.2872
C23 C 0.1984(2) -0.0158(2) 1.2463(7)
H31 H 0.1712 -0.0470 1.1827
H32 H 0.2382 -0.0137 1.1791
C24 C 0.21067(19) -0.03985(19) 1.4399(7)
H33 H 0.1808 -0.0263 1.5271
C25 C 0.2565(2) -0.07694(19) 1.5091(7)
C26 C 0.3072(2) -0.1032(3) 1.3880(8)
C27 C 0.2601(3) -0.0943(3) 1.7123(9)
H34 H 0.2253 -0.0744 1.7773
H35 H 0.2993 -0.0784 1.7630
H36 H 0.2581 -0.1411 1.7263
C28 C 0.4761(3) 0.3874(3) 0.6212(11)
H37 H 0.5093 0.4159 0.5942
H38 H 0.4349 0.4033 0.6278
C29 C 0.5520(2) 0.2958(3) 0.6420(10)
H39 H 0.5811 0.3314 0.6238
H40 H 0.5553 0.2656 0.5398
H41 H 0.5620 0.2735 0.7560
C30 C 0.28059(19) 0.1031(2) 0.6926(6)
H42 H 0.3193 0.0930 0.7568
H43 H 0.2889 0.1069 0.5616
H44 H 0.2504 0.0685 0.7134
O5 O 0.4494(19) 0.0198(12) 1.299(4)
O6? O 0.4512(9) 0.0549(9) 1.443(4)
O7? O 0.472(3) -0.006(2) 1.442(10)
O8? O 0.461(3) 0.0157(17) 0.658(8)
O9? O 0.5358(15) 0.0175(12) 1.691(4)
loop_
_geom_bond_atom_site_label_1
_geom_bond_atom_site_label_2
_geom_bond_site_symmetry_1
_geom_bond_site_symmetry_2
O1 H1 1_555 1_555
O2 C3 1_555 1_555
O3 H2 1_555 1_555
O4 C26 1_555 1_555
C1 H3 1_555 1_555
H4 C1 1_555 1_555
C2 C1 1_555 1_555
H5 C2 1_555 1_555
H6 C2 1_555 1_555
C3 O1 1_555 1_555
C4 C5 1_555 1_555
C5 H7 1_555 1_555
C6 C5 1_555 1_555
H8 C6 1_555 1_555
H9 C6 1_555 1_555
C7 C6 1_555 1_555
H10 C7 1_555 1_555
H11 C7 1_555 1_555
C8 C7 1_555 1_555
H12 C8 1_555 1_555
C9 C8 1_555 1_555
C10 C1 1_555 1_555
C11 C9 1_555 1_555
H13 C11 1_555 1_555
C12 C11 1_555 1_555
H14 C12 1_555 1_555
H15 C12 1_555 1_555
C13 C12 1_555 1_555
C14 C8 1_555 1_555
C15 C14 1_555 1_555
H16 C15 1_555 1_555
H17 C15 1_555 1_555
C16 C15 1_555 1_555
H18 C16 1_555 1_555
H19 C16 1_555 1_555
C17 C13 1_555 1_555
C18 C13 1_555 1_555
H20 C18 1_555 1_555
H21 C18 1_555 1_555
H22 C18 1_555 1_555
C19 C10 1_555 1_555
H23 C19 1_555 1_555
H24 C19 1_555 1_555
H25 C19 1_555 1_555
C20 C17 1_555 1_555
C21 C20 1_555 1_555
H26 C21 1_555 1_555
H27 C21 1_555 1_555
H28 C21 1_555 1_555
C22 C20 1_555 1_555
H29 C22 1_555 1_555
H30 C22 1_555 1_555
C23 C22 1_555 1_555
H31 C23 1_555 1_555
H32 C23 1_555 1_555
C24 C23 1_555 1_555
H33 C24 1_555 1_555
C25 C24 1_555 1_555
C26 O3 1_555 1_555
C27 C25 1_555 1_555
H34 C27 1_555 1_555
H35 C27 1_555 1_555
H36 C27 1_555 1_555
C28 C4 1_555 1_555
H37 C28 1_555 1_555
H38 C28 1_555 1_555
C29 C4 1_555 1_555
H39 C29 1_555 1_555
H40 C29 1_555 1_555
H41 C29 1_555 1_555
C30 C14 1_555 1_555
H42 C30 1_555 1_555
H43 C30 1_555 1_555
H44 C30 1_555 1_555
C2 C3 1_555 1_555
C5 C10 1_555 1_555
C9 C10 1_555 1_555
C13 C14 1_555 1_555
C16 C17 1_555 1_555
C25 C26 1_555 1_555

#END
