
#######################################################################
#
#                 Cambridge Crystallographic Data Centre
#                                CCDC 
#
#######################################################################
#
# If this CIF has been generated from an entry in the Cambridge 
# Structural Database, then it will include bibliographic, chemical, 
# crystal, experimental, refinement or atomic coordinate data resulting 
# from the CCDC's data processing and validation procedures.
#
#######################################################################

data_POHMIJ
_chemical_compound_source        
'endophytic fungus Phomopsis sp. from stem of Azadirachta indica'
_chemical_formula_moiety         'C12 H18 O6,H2 O1'
_chemical_name_systematic        
'(5S*,8R*,10R*)-8\a-Acetoxy-5\a-hydroxy-7-oxodecan-9-olide monohydrate'
_chemical_properties_biological  
'weak antifungal activity against Aspergillus niger, Botyrtis cinerea, Fusarium avenaceum, Fusarium moniliforme, Helminthosporium maydis, Penicilium islandicum and Ophiostoma minus'
_symmetry_cell_setting           orthorhombic
_symmetry_space_group_name_H-M   'P 21 21 21'
_symmetry_Int_Tables_number      19
_space_group_name_Hall           'P 2ac 2ab'
loop_
_symmetry_equiv_pos_site_id
_symmetry_equiv_pos_as_xyz
1 x,y,z
2 1/2-x,-y,1/2+z
3 -x,1/2+y,1/2-z
4 1/2+x,1/2-y,-z
_cell_length_a                   7.1270(8)
_cell_length_b                   13.9423(16)
_cell_length_c                   14.4961(16)
_cell_angle_alpha                90
_cell_angle_beta                 90
_cell_angle_gamma                90
_cell_volume                     1440.43
_exptl_crystal_colour            colorless
_exptl_crystal_description       irregular
_chemical_melting_point          141-143deg.C
_cell_formula_units_Z            4
_exptl_crystal_recrystallization_method 'petroleum ether/acetone'
loop_
_atom_site_label
_atom_site_type_symbol
_atom_site_fract_x
_atom_site_fract_y
_atom_site_fract_z
C1 C 0.2097(3) 1.10898(15) 0.91712(15)
H1 H 0.2971 1.0562 0.9295
C2 C 0.1599(4) 1.11061(15) 0.81521(15)
H2 H 0.2733 1.1228 0.7801
H3 H 0.0747 1.1637 0.8042
C3 C 0.0697(4) 1.01920(16) 0.77892(15)
H4 H 0.0569 1.0251 0.7118
C4 C -0.1241(4) 1.00080(16) 0.81929(15)
C5 C -0.1555(3) 0.91803(14) 0.88387(15)
H5 H -0.0444 0.9100 0.9217
H6 H -0.1708 0.8601 0.8476
C6 C -0.3247(3) 0.92882(15) 0.94694(16)
H7 H -0.4377 0.9336 0.9087
C7 C -0.3178(3) 1.01488(15) 1.01112(16)
H8 H -0.3124 1.0725 0.9737
H9 H -0.4341 1.0170 1.0458
C8 C -0.1562(3) 1.01738(18) 1.07883(16)
H10 H -0.1829 1.0664 1.1244
H11 H -0.1530 0.9563 1.1109
C9 C 0.0354(3) 1.03611(15) 1.04049(15)
C10 C 0.2934(4) 1.20208(16) 0.94976(18)
H12 H 0.2078 1.2536 0.9371
H13 H 0.4095 1.2134 0.9180
H14 H 0.3163 1.1986 1.0149
C11 C 0.1781(5) 0.86030(17) 0.74819(19)
C12 C 0.3256(5) 0.7892(2) 0.7711(2)
H15 H 0.3226 0.7758 0.8360
H16 H 0.4463 0.8146 0.7548
H17 H 0.3034 0.7311 0.7373
O1 O 0.0324(2) 1.09180(9) 0.96551(10)
O2 O -0.2512(3) 1.05331(13) 0.79579(12)
O3 O 0.1791(2) 1.00530(12) 1.07348(11)
O4 O 0.2001(2) 0.94221(10) 0.79797(10)
O5 O -0.3330(3) 0.84083(11) 0.99868(13)
H20 H -0.4380 0.8347 1.0211
O6 O 0.0489(3) 0.84924(13) 0.69515(13)
H18 H 0.271(5) 0.779(2) 0.041(2)
H19 H 0.259(4) 0.8696(18) 0.063(3)
O7 O 0.3286(3) 0.81921(15) 0.08111(16)
loop_
_geom_bond_atom_site_label_1
_geom_bond_atom_site_label_2
_geom_bond_site_symmetry_1
_geom_bond_site_symmetry_2
C1 H1 1_555 1_555
C2 C1 1_555 1_555
H2 C2 1_555 1_555
H3 C2 1_555 1_555
C3 C2 1_555 1_555
H4 C3 1_555 1_555
C4 C3 1_555 1_555
C5 C4 1_555 1_555
H5 C5 1_555 1_555
H6 C5 1_555 1_555
C6 C5 1_555 1_555
H7 C6 1_555 1_555
C7 C6 1_555 1_555
H8 C7 1_555 1_555
H9 C7 1_555 1_555
C8 C7 1_555 1_555
H10 C8 1_555 1_555
H11 C8 1_555 1_555
C9 C8 1_555 1_555
C10 C1 1_555 1_555
H12 C10 1_555 1_555
H13 C10 1_555 1_555
H14 C10 1_555 1_555
C11 C12 1_555 1_555
C12 H15 1_555 1_555
H16 C12 1_555 1_555
H17 C12 1_555 1_555
H18 O7 1_555 1_555
H19 O7 1_555 1_555
O1 C1 1_555 1_555
O2 C4 1_555 1_555
O3 C9 1_555 1_555
O4 C3 1_555 1_555
O5 C6 1_555 1_555
H20 O5 1_555 1_555
O6 C11 1_555 1_555
C9 O1 1_555 1_555
C11 O4 1_555 1_555

#END
