
#######################################################################
#
#                 Cambridge Crystallographic Data Centre
#                                CCDC 
#
#######################################################################
#
# If this CIF has been generated from an entry in the Cambridge 
# Structural Database, then it will include bibliographic, chemical, 
# crystal, experimental, refinement or atomic coordinate data resulting 
# from the CCDC's data processing and validation procedures.
#
#######################################################################

data_POHPIN
_chemical_formula_moiety         'C27 H25 F1 N2 O5'
_chemical_name_systematic        
't-butyl 3-(1-(2-fluorophenyl)-2-nitroethyl)-2-oxo-3-phenylindoline-1-carboxylate'
_symmetry_cell_setting           orthorhombic
_symmetry_space_group_name_H-M   'P 21 21 21'
_symmetry_Int_Tables_number      19
_space_group_name_Hall           'P 2ac 2ab'
loop_
_symmetry_equiv_pos_site_id
_symmetry_equiv_pos_as_xyz
1 x,y,z
2 1/2+x,1/2-y,-z
3 -x,1/2+y,1/2-z
4 1/2-x,-y,1/2+z
_cell_length_a                   10.4657(2)
_cell_length_b                   14.6104(4)
_cell_length_c                   15.6230(3)
_cell_angle_alpha                90
_cell_angle_beta                 90
_cell_angle_gamma                90
_cell_volume                     2388.88
_exptl_crystal_colour            colorless
_exptl_crystal_description       block
_cell_formula_units_Z            4
loop_
_atom_site_label
_atom_site_type_symbol
_atom_site_fract_x
_atom_site_fract_y
_atom_site_fract_z
F1 F 0.59417(11) 0.43619(9) 0.09731(7)
O1 O 0.81377(14) 0.76836(8) 0.20386(9)
O2 O 0.83662(13) 0.54199(9) 0.04776(8)
O3 O 0.70909(12) 0.69033(8) 0.10031(8)
O4 O 0.78433(16) 0.18422(10) 0.31032(11)
O5 O 0.70328(17) 0.22580(11) 0.18991(10)
N1 N 0.85726(13) 0.61753(9) 0.17839(9)
N2 N 0.77595(15) 0.23689(10) 0.24978(11)
C1 C 0.97238(16) 0.50975(11) 0.25308(11)
C2 C 0.86856(17) 0.54323(12) 0.12168(11)
C3 C 0.99391(17) 0.36612(12) 0.04478(11)
C4 C 1.03091(16) 0.41563(11) 0.11732(11)
C5 C 0.79214(17) 0.70059(11) 0.16255(12)
C6 C 0.69266(17) 0.47002(11) 0.31641(11)
C7 C 0.92557(17) 0.64922(11) 0.33126(11)
C8 C 0.59444(18) 0.46375(12) 0.18016(12)
C9 C 0.99026(18) 0.61251(13) 0.40112(12)
C10 C 0.69963(16) 0.44279(11) 0.23110(11)
C11 C 0.81531(16) 0.39479(11) 0.19282(11)
C12 C 0.92970(16) 0.46311(11) 0.17195(11)
C13 C 0.92030(15) 0.59790(11) 0.25710(11)
C14 C 0.86406(17) 0.31724(11) 0.24919(12)
C15 C 1.08384(18) 0.32346(12) -0.00652(12)
C16 C 1.03934(17) 0.47488(12) 0.32305(12)
C17 C 1.04922(19) 0.52766(13) 0.39684(13)
C18 C 0.58719(19) 0.51614(12) 0.34821(13)
C19 C 1.24973(18) 0.37728(15) 0.08529(15)
C20 C 1.21198(19) 0.32839(13) 0.01408(13)
C21 C 0.48880(18) 0.51095(13) 0.20980(13)
C22 C 1.16052(17) 0.42104(13) 0.13698(14)
C23 C 0.61368(18) 0.76354(12) 0.08104(14)
C24 C 0.48565(19) 0.53716(13) 0.29459(14)
C25 C 0.6790(2) 0.84953(14) 0.04999(15)
C26 C 0.5329(3) 0.77956(16) 0.15999(18)
C27 C 0.5370(3) 0.71941(18) 0.0102(2)
H1 H 0.9059 0.3617 0.0305
H2 H 0.7619 0.4567 0.3537
H3 H 0.8863 0.7077 0.3345
H4 H 0.9941 0.6464 0.4530
H5 H 0.7875 0.3670 0.1374
H6 H 0.9490 0.2975 0.2283
H7 H 0.8745 0.3401 0.3085
H8 H 1.0574 0.2907 -0.0560
H9 H 1.0776 0.4160 0.3204
H10 H 1.0965 0.5055 0.4444
H11 H 0.5844 0.5334 0.4068
H12 H 1.3379 0.3811 0.0992
H13 H 1.2737 0.2983 -0.0205
H14 H 0.4198 0.5250 0.1725
H15 H 1.1879 0.4546 0.1857
H16 H 0.4140 0.5696 0.3163
H17 H 0.7367 0.8344 0.0026
H18 H 0.7282 0.8766 0.0970
H19 H 0.6146 0.8934 0.0302
H20 H 0.5011 0.7208 0.1815
H21 H 0.4605 0.8191 0.1454
H22 H 0.5848 0.8092 0.2042
H23 H 0.4990 0.6624 0.0312
H24 H 0.5933 0.7060 -0.0384
H25 H 0.4691 0.7612 -0.0082
loop_
_geom_bond_atom_site_label_1
_geom_bond_atom_site_label_2
_geom_bond_site_symmetry_1
_geom_bond_site_symmetry_2
F1 C8 1_555 1_555
O1 C5 1_555 1_555
O2 C2 1_555 1_555
O3 C5 1_555 1_555
O4 N2 1_555 1_555
O5 N2 1_555 1_555
N1 C2 1_555 1_555
N2 C14 1_555 1_555
C1 C12 1_555 1_555
C2 C12 1_555 1_555
C3 C4 1_555 1_555
C4 C12 1_555 1_555
C5 N1 1_555 1_555
C6 C10 1_555 1_555
C7 C9 1_555 1_555
C8 C10 1_555 1_555
C9 C17 1_555 1_555
C10 C11 1_555 1_555
C11 C12 1_555 1_555
C13 N1 1_555 1_555
C14 C11 1_555 1_555
C15 C3 1_555 1_555
C16 C1 1_555 1_555
C17 C16 1_555 1_555
C18 C6 1_555 1_555
C19 C20 1_555 1_555
C20 C15 1_555 1_555
C21 C8 1_555 1_555
C22 C4 1_555 1_555
C23 O3 1_555 1_555
C24 C18 1_555 1_555
C25 C23 1_555 1_555
C26 C23 1_555 1_555
C27 C23 1_555 1_555
H1 C3 1_555 1_555
H2 C6 1_555 1_555
H3 C7 1_555 1_555
H4 C9 1_555 1_555
H5 C11 1_555 1_555
H6 C14 1_555 1_555
H7 C14 1_555 1_555
H8 C15 1_555 1_555
H9 C16 1_555 1_555
H10 C17 1_555 1_555
H11 C18 1_555 1_555
H12 C19 1_555 1_555
H13 C20 1_555 1_555
H14 C21 1_555 1_555
H15 C22 1_555 1_555
H16 C24 1_555 1_555
H17 C25 1_555 1_555
H18 C25 1_555 1_555
H19 C25 1_555 1_555
H20 C26 1_555 1_555
H21 C26 1_555 1_555
H22 C26 1_555 1_555
H23 C27 1_555 1_555
H24 C27 1_555 1_555
H25 C27 1_555 1_555
C1 C13 1_555 1_555
C7 C13 1_555 1_555
C19 C22 1_555 1_555
C21 C24 1_555 1_555

#END
