
#######################################################################
#
#                 Cambridge Crystallographic Data Centre
#                                CCDC 
#
#######################################################################
#
# If this CIF has been generated from an entry in the Cambridge 
# Structural Database, then it will include bibliographic, chemical, 
# crystal, experimental, refinement or atomic coordinate data resulting 
# from the CCDC's data processing and validation procedures.
#
#######################################################################

data_POHPOT
_chemical_compound_source        'ruiting bodies of Ganoderma cochlear'
_chemical_name_common            'Cochlate B'
_chemical_formula_moiety         'C28 H40 O6'
_chemical_name_systematic        
'4-(12-(3-methoxy-3-oxopropyl)-3,7-dimethyl-9-oxo-13-(prop-1-en-2-yl)-15-oxatetracyclo[10.2.1.0^2,10^.0^3,7^]pentadec-2(10)-en-6-yl)pentanoic acid'
_symmetry_cell_setting           orthorhombic
_symmetry_space_group_name_H-M   'P 21 21 21'
_symmetry_Int_Tables_number      19
_space_group_name_Hall           'P 2ac 2ab'
loop_
_symmetry_equiv_pos_site_id
_symmetry_equiv_pos_as_xyz
1 x,y,z
2 1/2+x,1/2-y,-z
3 -x,1/2+y,1/2-z
4 1/2-x,-y,1/2+z
_cell_length_a                   11.28200(10)
_cell_length_b                   13.67650(10)
_cell_length_c                   16.2336(2)
_cell_angle_alpha                90
_cell_angle_beta                 90
_cell_angle_gamma                90
_cell_volume                     2504.82
_exptl_crystal_colour            colorless
_exptl_crystal_description       needle
_cell_formula_units_Z            4
loop_
_atom_site_label
_atom_site_type_symbol
_atom_site_fract_x
_atom_site_fract_y
_atom_site_fract_z
O1 O 0.68980(9) 0.10462(8) 0.36593(6)
O2 O 0.80531(8) 0.20466(6) -0.13416(5)
O3 O 0.74730(9) 0.42492(7) -0.38190(6)
O4 O 0.64148(9) 0.17457(8) 0.48539(6)
H1 H 0.5743 0.1518 0.4738
O5 O 1.06851(9) 0.44133(7) 0.00091(5)
O6 O 0.91365(9) 0.39138(7) -0.45044(5)
C1 C 0.71853(13) 0.15045(9) 0.42599(8)
C2 C 0.84143(12) 0.18758(10) 0.44368(8)
H2 H 0.8743 0.1514 0.4913
H3 H 0.8368 0.2575 0.4590
C3 C 0.92553(12) 0.17639(9) 0.37042(8)
H4 H 0.9225 0.1078 0.3510
H5 H 1.0075 0.1895 0.3892
C4 C 0.89724(12) 0.24453(9) 0.29752(7)
H6 H 0.8091 0.2484 0.2916
C5 C 0.94822(12) 0.20002(9) 0.21776(8)
H7 H 1.0352 0.1901 0.2262
C6 C 0.93150(12) 0.25522(9) 0.13492(7)
C7 C 0.95398(11) 0.17094(9) 0.07154(8)
C8 C 0.93017(12) 0.20872(9) -0.01416(7)
C9 C 0.87424(12) 0.14502(9) -0.07911(7)
H8 H 0.8244 0.0927 -0.0536
C10 C 0.89307(12) 0.25738(9) -0.18102(7)
C11 C 0.82769(12) 0.30610(10) -0.25219(8)
H9 H 0.7609 0.3451 -0.2302
H10 H 0.7944 0.2551 -0.2888
C12 C 0.91001(13) 0.37305(9) -0.30245(8)
H11 H 0.9229 0.4346 -0.2717
H12 H 0.9878 0.3406 -0.3092
C13 C 0.86020(12) 0.39658(9) -0.38588(8)
C14 C 0.68946(13) 0.44283(11) -0.46017(8)
H13 H 0.7309 0.4954 -0.4894
H14 H 0.6069 0.4621 -0.4505
H15 H 0.6914 0.3831 -0.4935
C15 C 0.94416(14) 0.34767(10) 0.31557(8)
H16 H 0.9175 0.3684 0.3703
H17 H 0.9139 0.3933 0.2740
H18 H 1.0310 0.3472 0.3139
C16 C 1.01766(12) 0.33926(9) 0.11488(8)
H19 H 0.9938 0.3979 0.1465
H20 H 1.0983 0.3205 0.1331
C17 C 1.02177(12) 0.36538(9) 0.02335(8)
C18 C 0.96624(12) 0.29821(9) -0.03689(8)
C19 C 0.87453(12) 0.08906(9) 0.10506(8)
H21 H 0.9006 0.0243 0.0847
H22 H 0.7907 0.0995 0.0894
C20 C 0.89181(13) 0.09791(9) 0.19964(8)
H23 H 0.9445 0.0452 0.2197
H24 H 0.8145 0.0920 0.2281
C21 C 1.08321(12) 0.13220(9) 0.07289(8)
H25 H 1.0929 0.0821 0.0302
H26 H 1.1003 0.1037 0.1270
H27 H 1.1381 0.1863 0.0623
C22 C 0.98353(12) 0.17601(9) -0.20577(8)
H28 H 1.0654 0.2040 -0.2048
C23 C 0.96221(13) 0.12726(9) -0.28863(8)
C24 C 0.85195(14) 0.06728(11) -0.30017(8)
H29 H 0.8384 0.0565 -0.3591
H30 H 0.7841 0.1021 -0.2765
H31 H 0.8615 0.0041 -0.2724
C25 C 1.04282(15) 0.13306(11) -0.34818(9)
H32 H 1.0309 0.0991 -0.3986
H33 H 1.1123 0.1712 -0.3404
C26 C 0.97083(13) 0.10068(9) -0.13462(8)
H34 H 0.9462 0.0360 -0.1560
H35 H 1.0464 0.0933 -0.1042
C27 C 0.95033(12) 0.33502(9) -0.12409(7)
H36 H 1.0286 0.3538 -0.1467
H37 H 0.8998 0.3942 -0.1233
C28 C 0.80333(12) 0.29359(9) 0.12856(8)
H38 H 0.7928 0.3487 0.1664
H39 H 0.7479 0.2412 0.1432
H40 H 0.7878 0.3152 0.0720
loop_
_geom_bond_atom_site_label_1
_geom_bond_atom_site_label_2
_geom_bond_site_symmetry_1
_geom_bond_site_symmetry_2
O1 C1 1_555 1_555
O2 C9 1_555 1_555
O3 C13 1_555 1_555
O4 H1 1_555 1_555
O5 C17 1_555 1_555
O6 C13 1_555 1_555
C1 O4 1_555 1_555
C2 C1 1_555 1_555
H2 C2 1_555 1_555
H3 C2 1_555 1_555
C3 C2 1_555 1_555
H4 C3 1_555 1_555
H5 C3 1_555 1_555
C4 C3 1_555 1_555
H6 C4 1_555 1_555
C5 C4 1_555 1_555
H7 C5 1_555 1_555
C6 C5 1_555 1_555
C7 C6 1_555 1_555
C8 C7 1_555 1_555
C9 C8 1_555 1_555
H8 C9 1_555 1_555
C10 O2 1_555 1_555
C11 C10 1_555 1_555
H9 C11 1_555 1_555
H10 C11 1_555 1_555
C12 C11 1_555 1_555
H11 C12 1_555 1_555
H12 C12 1_555 1_555
C13 C12 1_555 1_555
C14 O3 1_555 1_555
H13 C14 1_555 1_555
H14 C14 1_555 1_555
H15 C14 1_555 1_555
C15 C4 1_555 1_555
H16 C15 1_555 1_555
H17 C15 1_555 1_555
H18 C15 1_555 1_555
C16 C6 1_555 1_555
H19 C16 1_555 1_555
H20 C16 1_555 1_555
C17 C16 1_555 1_555
C18 C8 1_555 1_555
C19 C7 1_555 1_555
H21 C19 1_555 1_555
H22 C19 1_555 1_555
C20 C5 1_555 1_555
H23 C20 1_555 1_555
H24 C20 1_555 1_555
C21 C7 1_555 1_555
H25 C21 1_555 1_555
H26 C21 1_555 1_555
H27 C21 1_555 1_555
C22 C10 1_555 1_555
H28 C22 1_555 1_555
C23 C22 1_555 1_555
C24 C23 1_555 1_555
H29 C24 1_555 1_555
H30 C24 1_555 1_555
H31 C24 1_555 1_555
C25 C23 1_555 1_555
H32 C25 1_555 1_555
H33 C25 1_555 1_555
C26 C9 1_555 1_555
H34 C26 1_555 1_555
H35 C26 1_555 1_555
C27 C10 1_555 1_555
H36 C27 1_555 1_555
H37 C27 1_555 1_555
C28 C6 1_555 1_555
H38 C28 1_555 1_555
H39 C28 1_555 1_555
H40 C28 1_555 1_555
C17 C18 1_555 1_555
C18 C27 1_555 1_555
C19 C20 1_555 1_555
C22 C26 1_555 1_555

#END
