
#######################################################################
#
#                 Cambridge Crystallographic Data Centre
#                                CCDC 
#
#######################################################################
#
# If this CIF has been generated from an entry in the Cambridge 
# Structural Database, then it will include bibliographic, chemical, 
# crystal, experimental, refinement or atomic coordinate data resulting 
# from the CCDC's data processing and validation procedures.
#
#######################################################################

data_POHTEN
_chemical_formula_moiety         'C9 H24 B3 N3 O6'
_chemical_name_systematic        
'1,2,3,4,5,6-hexamethylcyclo-1,3,5,2,4,6-triboratriazahexane-1,3,5-triyl triformate'
_symmetry_cell_setting           monoclinic
_symmetry_space_group_name_H-M   'P 21/n'
_symmetry_Int_Tables_number      14
_space_group_name_Hall           '-P 2yn'
loop_
_symmetry_equiv_pos_site_id
_symmetry_equiv_pos_as_xyz
1 x,y,z
2 1/2-x,1/2+y,1/2-z
3 -x,-y,-z
4 1/2+x,1/2-y,1/2+z
_cell_length_a                   7.5759(14)
_cell_length_b                   24.347(4)
_cell_length_c                   8.4374(15)
_cell_angle_alpha                90
_cell_angle_beta                 96.923(3)
_cell_angle_gamma                90
_cell_volume                     1544.94
_exptl_crystal_colour            colorless
_exptl_crystal_description       block
_cell_formula_units_Z            4
loop_
_atom_site_label
_atom_site_type_symbol
_atom_site_fract_x
_atom_site_fract_y
_atom_site_fract_z
O1 O 0.14102(12) 0.14235(4) 0.07178(11)
O2 O 0.34504(16) 0.15404(5) 0.27848(14)
O3 O -0.37861(11) 0.03034(3) -0.11394(10)
O4 O -0.13011(13) -0.01740(4) -0.13562(13)
O5 O 0.00592(12) 0.11503(4) -0.48587(10)
O6 O 0.14570(13) 0.04515(4) -0.34938(12)
N1 N -0.14984(13) 0.09994(4) -0.01216(11)
N2 N -0.21520(12) 0.08241(4) -0.30939(11)
N3 N 0.02944(12) 0.15004(4) -0.20503(11)
B1 B -0.03295(17) 0.15349(5) -0.03030(15)
B2 B -0.30629(16) 0.08652(5) -0.14949(15)
B3 B -0.10571(17) 0.13407(5) -0.35777(15)
C1 C -0.12881(19) 0.20940(5) 0.00706(18)
C2 C 0.2028(2) 0.16521(6) 0.20668(17)
C3 C -0.2135(2) 0.09683(7) 0.14893(15)
C4 C -0.47225(16) 0.12711(6) -0.16144(17)
C5 C -0.28221(18) -0.01428(5) -0.10688(17)
C6 C -0.34235(19) 0.06186(6) -0.44614(16)
C7 C -0.22099(18) 0.18463(6) -0.43351(17)
C8 C 0.11376(18) 0.07284(6) -0.46813(16)
C9 C 0.13538(17) 0.19977(5) -0.23868(18)
H1 H -0.056(3) 0.2423(8) 0.009(2)
H2 H -0.227(2) 0.2176(7) -0.068(2)
H3 H -0.171(3) 0.2116(8) 0.115(3)
H4 H -0.078(2) 0.0734(6) -0.0114(17)
H5 H 0.122(2) 0.1931(7) 0.248(2)
H6 H -0.138(2) 0.0557(6) -0.2888(17)
H7 H -0.250(2) 0.0603(7) 0.166(2)
H8 H -0.123(2) 0.1071(7) 0.229(2)
H9 H -0.307(2) 0.1213(7) 0.153(2)
H10 H 0.105(2) 0.1242(6) -0.1945(17)
H11 H -0.449(3) 0.1633(8) -0.193(2)
H12 H -0.565(3) 0.1130(8) -0.233(3)
H13 H -0.532(2) 0.1272(7) -0.065(2)
H14 H -0.346(2) -0.0449(7) -0.0773(19)
H15 H -0.403(2) 0.0314(7) -0.411(2)
H16 H -0.277(2) 0.0517(7) -0.530(2)
H17 H -0.422(2) 0.0906(7) -0.4784(19)
H18 H -0.147(2) 0.2100(7) -0.484(2)
H19 H -0.279(2) 0.2072(8) -0.356(2)
H20 H -0.314(3) 0.1730(8) -0.516(2)
H21 H 0.169(2) 0.0662(7) -0.562(2)
H22 H 0.227(2) 0.2053(6) -0.152(2)
H23 H 0.186(2) 0.1945(7) -0.338(2)
H24 H 0.058(2) 0.2301(7) -0.2462(19)
loop_
_geom_bond_atom_site_label_1
_geom_bond_atom_site_label_2
_geom_bond_site_symmetry_1
_geom_bond_site_symmetry_2
O1 B1 1_555 1_555
O2 C2 1_555 1_555
O3 B2 1_555 1_555
O4 C5 1_555 1_555
O5 B3 1_555 1_555
O6 C8 1_555 1_555
N1 B1 1_555 1_555
N2 B2 1_555 1_555
N3 B1 1_555 1_555
B1 C1 1_555 1_555
B2 N1 1_555 1_555
B3 N2 1_555 1_555
C1 H1 1_555 1_555
C2 O1 1_555 1_555
C3 N1 1_555 1_555
C4 B2 1_555 1_555
C5 O3 1_555 1_555
C6 N2 1_555 1_555
C7 B3 1_555 1_555
C8 O5 1_555 1_555
C9 N3 1_555 1_555
H2 C1 1_555 1_555
H3 C1 1_555 1_555
H4 N1 1_555 1_555
H5 C2 1_555 1_555
H6 N2 1_555 1_555
H7 C3 1_555 1_555
H8 C3 1_555 1_555
H9 C3 1_555 1_555
H10 N3 1_555 1_555
H11 C4 1_555 1_555
H12 C4 1_555 1_555
H13 C4 1_555 1_555
H14 C5 1_555 1_555
H15 C6 1_555 1_555
H16 C6 1_555 1_555
H17 C6 1_555 1_555
H18 C7 1_555 1_555
H19 C7 1_555 1_555
H20 C7 1_555 1_555
H21 C8 1_555 1_555
H22 C9 1_555 1_555
H23 C9 1_555 1_555
H24 C9 1_555 1_555
N3 B3 1_555 1_555

#END
