
#######################################################################
#
#                 Cambridge Crystallographic Data Centre
#                                CCDC 
#
#######################################################################
#
# If this CIF has been generated from an entry in the Cambridge 
# Structural Database, then it will include bibliographic, chemical, 
# crystal, experimental, refinement or atomic coordinate data resulting 
# from the CCDC's data processing and validation procedures.
#
#######################################################################

data_POHXIV
_chemical_formula_moiety         'C24 H18 N2'
_chemical_name_systematic        
5,10-dimethyl-5,10-dihydrobenzo[a]indolo[2,3-c]carbazole
_symmetry_cell_setting           monoclinic
_symmetry_space_group_name_H-M   'C 2/c'
_symmetry_Int_Tables_number      15
_space_group_name_Hall           '-C 2yn'
loop_
_symmetry_equiv_pos_site_id
_symmetry_equiv_pos_as_xyz
1 x,y,z
2 -x,y,1/2-z
3 1/2+x,1/2+y,z
4 1/2-x,1/2+y,1/2-z
5 -x,-y,-z
6 x,-y,1/2+z
7 1/2-x,1/2-y,-z
8 1/2+x,1/2-y,1/2+z
_cell_length_a                   20.394(7)
_cell_length_b                   9.562(3)
_cell_length_c                   17.405(6)
_cell_angle_alpha                90
_cell_angle_beta                 99.010(4)
_cell_angle_gamma                90
_cell_volume                     3352.22
_exptl_crystal_colour            yellow
_exptl_crystal_description       platelet
_cell_formula_units_Z            8
loop_
_atom_site_label
_atom_site_type_symbol
_atom_site_fract_x
_atom_site_fract_y
_atom_site_fract_z
N1 N 0.77738(7) 0.54457(14) 0.47205(8)
N2 N 0.77759(6) 0.15473(14) 0.70681(8)
C1 C 0.71074(8) 0.57329(17) 0.45837(9)
C2 C 0.67620(10) 0.66527(19) 0.40409(11)
C3 C 0.60922(11) 0.6796(2) 0.40272(12)
C4 C 0.57630(10) 0.6072(3) 0.45470(14)
C5 C 0.61044(8) 0.5151(2) 0.50756(12)
C6 C 0.67809(8) 0.49335(17) 0.50939(9)
C7 C 0.72878(7) 0.40866(16) 0.55444(9)
C8 C 0.78941(7) 0.44604(16) 0.53142(8)
C9 C 0.85185(7) 0.38713(17) 0.56677(9)
C10 C 0.91396(9) 0.4284(3) 0.54851(12)
C11 C 0.97160(9) 0.3662(3) 0.58177(12)
C12 C 0.97075(9) 0.2587(3) 0.63340(13)
C13 C 0.91202(9) 0.2167(3) 0.65499(12)
C14 C 0.85123(8) 0.28153(17) 0.62475(9)
C15 C 0.78896(7) 0.24674(16) 0.64807(9)
C16 C 0.72853(7) 0.30389(16) 0.61296(9)
C17 C 0.67708(7) 0.23794(16) 0.64871(9)
C18 C 0.60785(8) 0.23796(19) 0.63662(11)
C19 C 0.57410(9) 0.1556(2) 0.68260(11)
C20 C 0.60757(9) 0.07183(19) 0.74075(10)
C21 C 0.67571(8) 0.06689(17) 0.75405(10)
C22 C 0.71007(8) 0.14865(16) 0.70725(9)
C23 C 0.82368(9) 0.6106(2) 0.42757(11)
C24 C 0.82519(9) 0.0899(3) 0.76658(11)
H1 H 0.6986 0.7164 0.3692
H2 H 0.5847 0.7402 0.3655
H3 H 0.5301 0.6213 0.4538
H4 H 0.5876 0.4663 0.5429
H5 H 0.9157 0.5017 0.5120
H6 H 1.0127 0.3977 0.5689
H7 H 1.0110 0.2131 0.6544
H8 H 0.9122 0.1423 0.6912
H9 H 0.5840 0.2945 0.5969
H10 H 0.5269 0.1564 0.6741
H11 H 0.5831 0.0170 0.7719
H12 H 0.6988 0.0095 0.7940
H13 H 0.8495 0.5384 0.4057
H14 H 0.8538 0.6719 0.4618
H15 H 0.7989 0.6660 0.3853
H16 H 0.8593 0.1582 0.7870
H17 H 0.8460 0.0103 0.7444
H18 H 0.8025 0.0572 0.8088
loop_
_geom_bond_atom_site_label_1
_geom_bond_atom_site_label_2
_geom_bond_site_symmetry_1
_geom_bond_site_symmetry_2
N1 C1 1_555 1_555
N2 C15 1_555 1_555
C1 C2 1_555 1_555
C2 C3 1_555 1_555
C3 C4 1_555 1_555
C4 C5 1_555 1_555
C5 C6 1_555 1_555
C6 C1 1_555 1_555
C7 C6 1_555 1_555
C8 N1 1_555 1_555
C9 C8 1_555 1_555
C10 C9 1_555 1_555
C11 C10 1_555 1_555
C12 C11 1_555 1_555
C13 C12 1_555 1_555
C14 C9 1_555 1_555
C15 C14 1_555 1_555
C16 C7 1_555 1_555
C17 C16 1_555 1_555
C18 C17 1_555 1_555
C19 C18 1_555 1_555
C20 C19 1_555 1_555
C21 C20 1_555 1_555
C22 N2 1_555 1_555
C23 N1 1_555 1_555
C24 N2 1_555 1_555
H1 C2 1_555 1_555
H2 C3 1_555 1_555
H3 C4 1_555 1_555
H4 C5 1_555 1_555
H5 C10 1_555 1_555
H6 C11 1_555 1_555
H7 C12 1_555 1_555
H8 C13 1_555 1_555
H9 C18 1_555 1_555
H10 C19 1_555 1_555
H11 C20 1_555 1_555
H12 C21 1_555 1_555
H13 C23 1_555 1_555
H14 C23 1_555 1_555
H15 C23 1_555 1_555
H16 C24 1_555 1_555
H17 C24 1_555 1_555
H18 C24 1_555 1_555
C7 C8 1_555 1_555
C13 C14 1_555 1_555
C15 C16 1_555 1_555
C17 C22 1_555 1_555
C21 C22 1_555 1_555

#END
