
#######################################################################
#
#                 Cambridge Crystallographic Data Centre
#                                CCDC 
#
#######################################################################
#
# If this CIF has been generated from an entry in the Cambridge 
# Structural Database, then it will include bibliographic, chemical, 
# crystal, experimental, refinement or atomic coordinate data resulting 
# from the CCDC's data processing and validation procedures.
#
#######################################################################

data_POHXOB
_chemical_formula_moiety         'C24 H18 N2 1+,C6 H6,B1 F4 1-'
_chemical_name_systematic        
'5,10-dimethyl-5,10-dihydrobenzo[a]indolo[2,3-c]carbazol-5-ium radical cation tetrafluoroborate benzene solvate'
_symmetry_cell_setting           triclinic
_symmetry_space_group_name_H-M   'P -1'
_symmetry_Int_Tables_number      2
_space_group_name_Hall           '-P 1'
loop_
_symmetry_equiv_pos_site_id
_symmetry_equiv_pos_as_xyz
1 x,y,z
2 -x,-y,-z
_cell_length_a                   6.9720(18)
_cell_length_b                   12.447(3)
_cell_length_c                   15.405(3)
_cell_angle_alpha                64.130(10)
_cell_angle_beta                 74.039(12)
_cell_angle_gamma                85.101(14)
_cell_volume                     1155.59
_exptl_crystal_colour            green
_exptl_crystal_description       needle
_cell_formula_units_Z            2
loop_
_atom_site_label
_atom_site_type_symbol
_atom_site_fract_x
_atom_site_fract_y
_atom_site_fract_z
F1 F -0.0171(6) 0.3150(4) 0.8195(4)
F2 F 0.1603(8) 0.4218(3) 0.6685(3)
F3 F 0.1015(7) 0.5012(3) 0.7737(4)
F4 F 0.3094(7) 0.3526(4) 0.7773(5)
B1 B 0.1306(8) 0.3972(4) 0.7673(4)
N1 N 0.2576(4) 0.0626(2) 0.68217(18)
N2 N 0.2824(4) 0.0494(3) 0.32995(19)
C1 C 0.2172(4) -0.0589(3) 0.7468(3)
C2 C 0.1801(5) -0.1134(3) 0.8503(3)
C3 C 0.1518(5) -0.2361(4) 0.8983(3)
C4 C 0.1629(5) -0.3020(3) 0.8440(3)
C5 C 0.1971(5) -0.2476(3) 0.7417(3)
C6 C 0.2205(4) -0.1229(3) 0.6905(2)
C7 C 0.2565(4) -0.0348(3) 0.5868(2)
C8 C 0.2818(4) 0.0787(3) 0.5871(3)
C9 C 0.3183(4) 0.1900(3) 0.4976(3)
C10 C 0.3545(5) 0.3005(3) 0.4959(3)
C11 C 0.3824(6) 0.4048(3) 0.4092(3)
C12 C 0.3712(7) 0.4038(3) 0.3231(3)
C13 C 0.3368(6) 0.2969(3) 0.3210(3)
C14 C 0.3148(4) 0.1876(3) 0.4066(3)
C15 C 0.2882(4) 0.0729(3) 0.4074(3)
C16 C 0.2568(4) -0.0377(3) 0.4977(2)
C17 C 0.2228(4) -0.1310(3) 0.4699(3)
C18 C 0.1817(5) -0.2537(3) 0.5193(3)
C19 C 0.1635(5) -0.3164(3) 0.4662(3)
C20 C 0.1862(5) -0.2582(4) 0.3637(3)
C21 C 0.2248(5) -0.1358(4) 0.3120(3)
C22 C 0.2429(4) -0.0742(3) 0.3664(3)
C23 C 0.2557(6) 0.1509(3) 0.7208(3)
C24 C 0.3105(6) 0.1308(4) 0.2247(3)
H1 H 0.1744 -0.0678 0.8868
H2 H 0.1246 -0.2759 0.9691
H3 H 0.1464 -0.3865 0.8784
H4 H 0.2049 -0.2944 0.7059
H5 H 0.3598 0.3032 0.5559
H6 H 0.4097 0.4779 0.4097
H7 H 0.3870 0.4765 0.2640
H8 H 0.3279 0.2977 0.2603
H9 H 0.1659 -0.2946 0.5894
H10 H 0.1353 -0.4002 0.5004
H11 H 0.1752 -0.3029 0.3285
H12 H 0.2385 -0.0954 0.2420
H13 H 0.1610 0.2123 0.6965
H14 H 0.3896 0.1881 0.6977
H15 H 0.2153 0.1116 0.7941
H16 H 0.4441 0.1693 0.1974
H17 H 0.2099 0.1918 0.2181
H18 H 0.2963 0.0859 0.1879
C25 C 0.5628(8) 0.4355(4) 0.9449(4)
C26 C 0.6903(7) 0.5199(4) 0.9369(4)
C27 C 0.6278(8) 0.5842(4) 0.9921(4)
H19 H 0.6061 0.3907 0.9069
H20 H 0.8212 0.5336 0.8932
H21 H 0.7156 0.6422 0.9870
C25A C 0.4372(8) 0.5645(4) 1.0551(4)
C26A C 0.3097(7) 0.4801(4) 1.0631(4)
C27A C 0.3722(8) 0.4158(4) 1.0079(4)
H19A H 0.3939 0.6093 1.0931
H20A H 0.1788 0.4664 1.1068
H21A H 0.2844 0.3578 1.0130
C28 C 0.3162(10) 0.9463(8) 0.0417(4)
C29 C 0.4783(14) 0.8813(5) 0.0577(4)
C30 C 0.6628(11) 0.9340(8) 0.0165(5)
H22 H 0.1869 0.9083 0.0712
H23 H 0.4625 0.7976 0.0983
H24 H 0.7767 0.8879 0.0281
C28A C 0.6838(10) 1.0537(8) -0.0417(4)
C29A C 0.5217(14) 1.1187(5) -0.0577(4)
C30A C 0.3372(11) 1.0660(8) -0.0165(5)
H22A H 0.8131 1.0917 -0.0712
H23A H 0.5375 1.2024 -0.0983
H24A H 0.2233 1.1121 -0.0281
loop_
_geom_bond_atom_site_label_1
_geom_bond_atom_site_label_2
_geom_bond_site_symmetry_1
_geom_bond_site_symmetry_2
F1 B1 1_555 1_555
F2 B1 1_555 1_555
F3 B1 1_555 1_555
F4 B1 1_555 1_555
N1 C1 1_555 1_555
N2 C15 1_555 1_555
C1 C2 1_555 1_555
C2 C3 1_555 1_555
C3 C4 1_555 1_555
C4 C5 1_555 1_555
C5 C6 1_555 1_555
C6 C1 1_555 1_555
C7 C6 1_555 1_555
C8 N1 1_555 1_555
C9 C8 1_555 1_555
C10 C9 1_555 1_555
C11 C10 1_555 1_555
C12 C11 1_555 1_555
C13 C12 1_555 1_555
C14 C9 1_555 1_555
C15 C14 1_555 1_555
C16 C7 1_555 1_555
C17 C16 1_555 1_555
C18 C17 1_555 1_555
C19 C18 1_555 1_555
C20 C19 1_555 1_555
C21 C20 1_555 1_555
C22 N2 1_555 1_555
C23 N1 1_555 1_555
C24 N2 1_555 1_555
H1 C2 1_555 1_555
H2 C3 1_555 1_555
H3 C4 1_555 1_555
H4 C5 1_555 1_555
H5 C10 1_555 1_555
H6 C11 1_555 1_555
H7 C12 1_555 1_555
H8 C13 1_555 1_555
H9 C18 1_555 1_555
H10 C19 1_555 1_555
H11 C20 1_555 1_555
H12 C21 1_555 1_555
H13 C23 1_555 1_555
H14 C23 1_555 1_555
H15 C23 1_555 1_555
H16 C24 1_555 1_555
H17 C24 1_555 1_555
H18 C24 1_555 1_555
C25 C26 1_555 1_555
C26 C27 1_555 1_555
C27 H21 1_555 1_555
H19 C25 1_555 1_555
H20 C26 1_555 1_555
C28 C29 1_555 1_555
C29 C30 1_555 1_555
C30 H24 1_555 1_555
H22 C28 1_555 1_555
H23 C29 1_555 1_555
C25A C27 1_555 1_555
C26A C25A 1_555 1_555
C27A C25 1_555 1_555
H19A C25A 1_555 1_555
H20A C26A 1_555 1_555
H21A C27A 1_555 1_555
C28A C30 1_555 1_555
C29A C28A 1_555 1_555
C30A C28 1_555 1_555
H22A C28A 1_555 1_555
H23A C29A 1_555 1_555
H24A C30A 1_555 1_555
C7 C8 1_555 1_555
C13 C14 1_555 1_555
C15 C16 1_555 1_555
C17 C22 1_555 1_555
C21 C22 1_555 1_555
C26A C27A 1_555 1_555
C29A C30A 1_555 1_555

#END
