
#######################################################################
#
#                 Cambridge Crystallographic Data Centre
#                                CCDC 
#
#######################################################################
#
# If this CIF has been generated from an entry in the Cambridge 
# Structural Database, then it will include bibliographic, chemical, 
# crystal, experimental, refinement or atomic coordinate data resulting 
# from the CCDC's data processing and validation procedures.
#
#######################################################################

data_POJJEF
_chemical_formula_moiety         'C13 H10 F3 N1 O3'
_chemical_name_systematic        
3-(4,4,4-Trifluoro-3-phenylbut-2-enoyl)-1,3-oxazolidin-2-one
_symmetry_cell_setting           monoclinic
_symmetry_space_group_name_H-M   'P 21/n'
_symmetry_Int_Tables_number      14
_space_group_name_Hall           '-P 2yn'
loop_
_symmetry_equiv_pos_site_id
_symmetry_equiv_pos_as_xyz
1 x,y,z
2 1/2-x,1/2+y,1/2-z
3 -x,-y,-z
4 1/2+x,1/2-y,1/2+z
_cell_length_a                   16.3108(17)
_cell_length_b                   5.1329(5)
_cell_length_c                   16.698(2)
_cell_angle_alpha                90
_cell_angle_beta                 115.148(14)
_cell_angle_gamma                90
_cell_volume                     1265.47
_cell_formula_units_Z            4
loop_
_atom_site_label
_atom_site_type_symbol
_atom_site_fract_x
_atom_site_fract_y
_atom_site_fract_z
F1 F 0.60458(14) -0.0435(7) 0.43187(13)
F2 F 0.4958(2) 0.2168(6) 0.39251(16)
F3 F 0.47425(19) -0.1736(7) 0.40507(14)
O1 O 0.67227(14) 0.3157(4) 0.25052(14)
O2 O 0.70936(13) 0.2958(4) 0.13644(14)
O3 O 0.50902(12) -0.3082(4) 0.12125(13)
N1 N 0.61651(13) -0.0081(4) 0.14383(14)
C1 C 0.66655(16) 0.2102(5) 0.18463(19)
C2 C 0.6933(2) 0.1238(8) 0.0631(2)
H1 H 0.7494 0.0428 0.0693
H2 H 0.6681 0.2197 0.0078
C3 C 0.62771(18) -0.0784(6) 0.06433(18)
H3 H 0.5708 -0.0677 0.0119
H4 H 0.6524 -0.2525 0.0689
C4 C 0.55955(15) -0.1461(5) 0.17032(17)
C5 C 0.56835(17) -0.0952(6) 0.26109(17)
H5 H 0.6264 -0.0933 0.3069
C6 C 0.49963(17) -0.0526(6) 0.28149(17)
C7 C 0.5200(2) -0.0163(9) 0.3775(2)
C8 C 0.40394(16) -0.0136(5) 0.21771(16)
C9 C 0.38105(19) 0.1897(6) 0.15831(18)
H6 H 0.4257 0.3012 0.1577
C10 C 0.2911(2) 0.2284(7) 0.0992(2)
H7 H 0.2758 0.3662 0.0593
C11 C 0.2250(2) 0.0656(8) 0.0994(2)
H8 H 0.1650 0.0924 0.0597
C12 C 0.24715(19) -0.1358(7) 0.1576(2)
H9 H 0.2021 -0.2472 0.1574
C13 C 0.33596(18) -0.1761(6) 0.2171(2)
H10 H 0.3502 -0.3134 0.2571
loop_
_geom_bond_atom_site_label_1
_geom_bond_atom_site_label_2
_geom_bond_site_symmetry_1
_geom_bond_site_symmetry_2
F1 C7 1_555 1_555
F2 C7 1_555 1_555
F3 C7 1_555 1_555
O1 C1 1_555 1_555
O2 C1 1_555 1_555
O3 C4 1_555 1_555
N1 C1 1_555 1_555
C2 O2 1_555 1_555
H1 C2 1_555 1_555
H2 C2 1_555 1_555
C3 N1 1_555 1_555
H3 C3 1_555 1_555
H4 C3 1_555 1_555
C4 N1 1_555 1_555
C5 C4 1_555 1_555
H5 C5 1_555 1_555
C6 C5 1_555 1_555
C7 C6 1_555 1_555
C8 C6 1_555 1_555
C9 C8 1_555 1_555
H6 C9 1_555 1_555
C10 C9 1_555 1_555
H7 C10 1_555 1_555
C11 C10 1_555 1_555
H8 C11 1_555 1_555
C12 C11 1_555 1_555
H9 C12 1_555 1_555
C13 C8 1_555 1_555
H10 C13 1_555 1_555
C2 C3 1_555 1_555
C12 C13 1_555 1_555

#END
