
#######################################################################
#
#                 Cambridge Crystallographic Data Centre
#                                CCDC 
#
#######################################################################
#
# If this CIF has been generated from an entry in the Cambridge 
# Structural Database, then it will include bibliographic, chemical, 
# crystal, experimental, refinement or atomic coordinate data resulting 
# from the CCDC's data processing and validation procedures.
#
#######################################################################

data_POJPOU
_chemical_formula_moiety         'C18 H18 B1 F2 N3'
_chemical_name_systematic        
4,4-Difluoro-8-(4'-pyridinyl)-1,3,5,7-tetramethyl-4-bora-3a,4a-diaza-s-indacene
_symmetry_cell_setting           monoclinic
_symmetry_space_group_name_H-M   'P 21/c'
_symmetry_Int_Tables_number      14
_space_group_name_Hall           '-P 2ybc'
loop_
_symmetry_equiv_pos_site_id
_symmetry_equiv_pos_as_xyz
1 x,y,z
2 -x,1/2+y,1/2-z
3 -x,-y,-z
4 x,1/2-y,1/2+z
_cell_length_a                   25.030(15)
_cell_length_b                   6.811(6)
_cell_length_c                   20.857(17)
_cell_angle_alpha                90
_cell_angle_beta                 114.62(5)
_cell_angle_gamma                90
_cell_volume                     3232.44
_exptl_crystal_colour            red
_exptl_crystal_description       block
_chemical_melting_point          'above 250 deg.C'
_cell_formula_units_Z            8
_exptl_crystal_recrystallization_method 'diethyl ether/chloroform'
_exptl_crystal_preparation       'dye; fluorescent'
loop_
_atom_site_label
_atom_site_type_symbol
_atom_site_fract_x
_atom_site_fract_y
_atom_site_fract_z
F1 F 0.52336(12) 0.7120(5) 0.94869(17)
F2 F 0.60363(15) 0.8849(5) 1.01992(13)
N1 N 0.71397(19) 0.7091(8) 0.7146(2)
N2 N 0.61744(14) 0.6130(5) 0.95593(16)
N3 N 0.56905(14) 0.9206(5) 0.89444(17)
C1 C 0.7391(2) 0.7935(8) 0.7777(2)
H1 H 0.7758 0.8508 0.7901
C2 C 0.71505(17) 0.8023(7) 0.8252(2)
H2 H 0.7346 0.8634 0.8687
C3 C 0.66033(16) 0.7168(6) 0.80645(19)
C4 C 0.6340(2) 0.6238(7) 0.7420(2)
H3 H 0.5977 0.5626 0.7285
C5 C 0.6623(2) 0.6236(9) 0.6986(2)
H4 H 0.6445 0.5601 0.6553
C6 C 0.63090(16) 0.7329(6) 0.85495(18)
C7 C 0.64222(16) 0.5946(6) 0.90781(19)
C8 C 0.67819(19) 0.4224(6) 0.9269(2)
C9 C 0.7151(2) 0.3393(8) 0.8931(3)
H5 H 0.7324 0.2184 0.9159
H6 H 0.7455 0.4310 0.8974
H7 H 0.6910 0.3150 0.8441
C10 C 0.6736(2) 0.3463(8) 0.9847(2)
H8 H 0.6919 0.2327 1.0084
C11 C 0.63704(19) 0.4660(7) 1.0022(2)
C12 C 0.6205(3) 0.4416(9) 1.0628(3)
H9 H 0.5801 0.4782 1.0484
H10 H 0.6450 0.5240 1.1011
H11 H 0.6257 0.3070 1.0778
C13 C 0.59371(16) 0.8949(6) 0.84670(19)
C14 C 0.57476(17) 1.0497(6) 0.7974(2)
C15 C 0.5864(2) 1.0880(7) 0.7337(2)
H12 H 0.5661 1.2049 0.7106
H13 H 0.5727 0.9788 0.7019
H14 H 0.6279 1.1047 0.7479
C16 C 0.53985(19) 1.1671(7) 0.8173(2)
H15 H 0.5213 1.2817 0.7948
C17 C 0.53690(18) 1.0862(7) 0.8768(2)
C18 C 0.5060(2) 1.1616(10) 0.9183(3)
H16 H 0.5318 1.1558 0.9676
H17 H 0.4718 1.0830 0.9093
H18 H 0.4944 1.2953 0.9052
B1 B 0.5772(2) 0.7854(9) 0.9572(2)
F3 F 0.97769(12) 0.7823(5) 0.42981(13)
F4 F 0.89723(14) 0.6078(4) 0.41723(14)
N4 N 0.79338(19) 0.9252(7) 0.00494(18)
N5 N 0.92882(13) 0.5927(5) 0.32398(16)
N6 N 0.88355(14) 0.8935(5) 0.34576(16)
C19 C 0.7637(2) 0.8415(9) 0.0371(2)
H19 H 0.7247 0.8076 0.0098
C20 C 0.78625(18) 0.8009(7) 0.1079(2)
H20 H 0.7632 0.7399 0.1273
C21 C 0.84428(17) 0.8525(6) 0.15035(19)
C22 C 0.87504(18) 0.9413(6) 0.1179(2)
H21 H 0.9137 0.9808 0.1441
C23 C 0.8488(2) 0.9725(7) 0.0463(2)
H22 H 0.8712 1.0303 0.0254
C24 C 0.87048(15) 0.8098(6) 0.22789(18)
C25 C 0.90474(16) 0.6407(6) 0.25183(18)
C26 C 0.92212(18) 0.4908(6) 0.2171(2)
C27 C 0.9085(2) 0.4688(7) 0.1403(2)
H23 H 0.9287 0.3561 0.1338
H24 H 0.9212 0.5841 0.1241
H25 H 0.8669 0.4520 0.1140
C28 C 0.95558(19) 0.3609(7) 0.2690(2)
H26 H 0.9734 0.2485 0.2618
C29 C 0.95856(17) 0.4232(7) 0.3337(2)
C30 C 0.9886(2) 0.3282(8) 0.4043(2)
H27 H 0.9640 0.3378 0.4293
H28 H 1.0252 0.3933 0.4306
H29 H 0.9957 0.1924 0.3982
C31 C 0.85978(16) 0.9357(6) 0.27317(18)
C32 C 0.82597(17) 1.1125(6) 0.2614(2)
C33 C 0.7910(2) 1.2178(7) 0.1938(2)
H30 H 0.7798 1.3447 0.2040
H31 H 0.7564 1.1431 0.1666
H32 H 0.8144 1.2331 0.1675
C34 C 0.8307(2) 1.1697(7) 0.3266(2)
H33 H 0.8133 1.2805 0.3358
C35 C 0.86614(18) 1.0339(7) 0.3775(2)
C36 C 0.8824(2) 1.0351(9) 0.4550(2)
H34 H 0.9242 1.0204 0.4801
H35 H 0.8630 0.9285 0.4667
H36 H 0.8704 1.1572 0.4680
B2 B 0.9228(2) 0.7155(8) 0.3822(2)
loop_
_geom_bond_atom_site_label_1
_geom_bond_atom_site_label_2
_geom_bond_site_symmetry_1
_geom_bond_site_symmetry_2
F1 B1 1_555 1_555
F2 B1 1_555 1_555
N1 C1 1_555 1_555
N2 C7 1_555 1_555
N3 C13 1_555 1_555
C1 H1 1_555 1_555
C2 C1 1_555 1_555
H2 C2 1_555 1_555
C3 C2 1_555 1_555
C4 C3 1_555 1_555
H3 C4 1_555 1_555
C5 N1 1_555 1_555
H4 C5 1_555 1_555
C6 C3 1_555 1_555
C7 C6 1_555 1_555
C8 C7 1_555 1_555
C9 C8 1_555 1_555
H5 C9 1_555 1_555
H6 C9 1_555 1_555
H7 C9 1_555 1_555
C10 C8 1_555 1_555
H8 C10 1_555 1_555
C11 N2 1_555 1_555
C12 C11 1_555 1_555
H9 C12 1_555 1_555
H10 C12 1_555 1_555
H11 C12 1_555 1_555
C13 C6 1_555 1_555
C14 C13 1_555 1_555
C15 C14 1_555 1_555
H12 C15 1_555 1_555
H13 C15 1_555 1_555
H14 C15 1_555 1_555
C16 C14 1_555 1_555
H15 C16 1_555 1_555
C17 N3 1_555 1_555
C18 C17 1_555 1_555
H16 C18 1_555 1_555
H17 C18 1_555 1_555
H18 C18 1_555 1_555
B1 N2 1_555 1_555
F3 B2 1_555 1_555
F4 B2 1_555 1_555
N4 C19 1_555 1_555
N5 C25 1_555 1_555
N6 C31 1_555 1_555
C19 H19 1_555 1_555
C20 C19 1_555 1_555
H20 C20 1_555 1_555
C21 C20 1_555 1_555
C22 C21 1_555 1_555
H21 C22 1_555 1_555
C23 N4 1_555 1_555
H22 C23 1_555 1_555
C24 C21 1_555 1_555
C25 C24 1_555 1_555
C26 C25 1_555 1_555
C27 C26 1_555 1_555
H23 C27 1_555 1_555
H24 C27 1_555 1_555
H25 C27 1_555 1_555
C28 C26 1_555 1_555
H26 C28 1_555 1_555
C29 N5 1_555 1_555
C30 C29 1_555 1_555
H27 C30 1_555 1_555
H28 C30 1_555 1_555
H29 C30 1_555 1_555
C31 C24 1_555 1_555
C32 C31 1_555 1_555
C33 C32 1_555 1_555
H30 C33 1_555 1_555
H31 C33 1_555 1_555
H32 C33 1_555 1_555
C34 C32 1_555 1_555
H33 C34 1_555 1_555
C35 N6 1_555 1_555
C36 C35 1_555 1_555
H34 C36 1_555 1_555
H35 C36 1_555 1_555
H36 C36 1_555 1_555
B2 N5 1_555 1_555
N3 B1 1_555 1_555
C4 C5 1_555 1_555
C10 C11 1_555 1_555
C16 C17 1_555 1_555
N6 B2 1_555 1_555
C22 C23 1_555 1_555
C28 C29 1_555 1_555
C34 C35 1_555 1_555

#END
