
#######################################################################
#
#                 Cambridge Crystallographic Data Centre
#                                CCDC 
#
#######################################################################
#
# If this CIF has been generated from an entry in the Cambridge 
# Structural Database, then it will include bibliographic, chemical, 
# crystal, experimental, refinement or atomic coordinate data resulting 
# from the CCDC's data processing and validation procedures.
#
#######################################################################

data_POJQIQ
_chemical_formula_moiety         'C23 H21 N1 O1'
_chemical_name_systematic        
3-Methyl-2,4,6-triphenyl-3,6-dihydro-2H-1,2-oxazine
_symmetry_cell_setting           triclinic
_symmetry_space_group_name_H-M   'P -1'
_symmetry_Int_Tables_number      2
_space_group_name_Hall           '-P 1'
loop_
_symmetry_equiv_pos_site_id
_symmetry_equiv_pos_as_xyz
1 x,y,z
2 -x,-y,-z
_cell_length_a                   5.6805(4)
_cell_length_b                   10.0159(6)
_cell_length_c                   15.1868(9)
_cell_angle_alpha                91.566(4)
_cell_angle_beta                 97.711(3)
_cell_angle_gamma                96.580(3)
_cell_volume                     849.804
_exptl_crystal_colour            colorless
_exptl_crystal_description       Tabular
_cell_formula_units_Z            2
loop_
_atom_site_label
_atom_site_type_symbol
_atom_site_fract_x
_atom_site_fract_y
_atom_site_fract_z
O1 O 1.0513(2) 0.47134(11) 0.27088(7)
N1 N 0.8068(2) 0.44566(13) 0.28905(9)
C1 C 0.4058(3) 1.02446(17) 0.23369(12)
H1 H 0.3273 1.1033 0.2329
C2 C 0.6025(3) 1.01891(17) 0.18964(12)
H2 H 0.6595 1.0943 0.1585
C3 C 0.7166(3) 0.90421(16) 0.19069(11)
H3 H 0.8517 0.9018 0.1602
C4 C 0.6365(3) 0.79121(16) 0.23597(11)
C5 C 0.7594(3) 0.66747(15) 0.23739(11)
C6 C 0.8903(3) 0.63593(16) 0.17528(11)
H4 H 0.8918 0.6891 0.1245
C7 C 1.0357(3) 0.51968(16) 0.18213(10)
H5 H 1.2019 0.5560 0.1732
C8 C 0.9554(3) 0.40465(15) 0.11356(10)
C9 C 0.7345(3) 0.39221(17) 0.06035(11)
H6 H 0.6288 0.4580 0.0657
C10 C 0.6670(3) 0.28422(17) -0.00071(12)
H7 H 0.5164 0.2772 -0.0373
C11 C 0.8173(3) 0.18733(17) -0.00841(12)
H8 H 0.7700 0.1132 -0.0498
C12 C 0.7261(3) 0.11829(17) 0.45460(12)
H9 H 0.7057 0.0432 0.4909
C13 C 0.9121(3) 0.13274(16) 0.40453(12)
H10 H 1.0195 0.0665 0.4062
C14 C 0.9447(3) 0.24219(16) 0.35187(11)
H11 H 1.0746 0.2509 0.3182
C15 C 0.7880(3) 0.33942(15) 0.34818(11)
C16 C 0.3242(3) 0.91467(17) 0.27885(12)
H12 H 0.1890 0.9180 0.3091
C17 C 0.4382(3) 0.79970(16) 0.28029(11)
H13 H 0.3806 0.7252 0.3120
C18 C 0.7336(3) 0.57588(15) 0.31430(11)
H14 H 0.5598 0.5606 0.3208
C19 C 0.8675(3) 0.63874(17) 0.40203(11)
H15 H 0.8246 0.5834 0.4510
H16 H 0.8238 0.7295 0.4110
H17 H 1.0402 0.6437 0.4005
C20 C 1.0382(3) 0.19832(17) 0.04455(12)
H18 H 1.1421 0.1315 0.0395
C21 C 1.1071(3) 0.30668(16) 0.10477(11)
H19 H 1.2593 0.3142 0.1404
C22 C 0.5991(3) 0.32464(17) 0.39874(11)
H20 H 0.4904 0.3902 0.3971
C23 C 0.5699(3) 0.21479(17) 0.45120(12)
H21 H 0.4409 0.2056 0.4853
loop_
_geom_bond_atom_site_label_1
_geom_bond_atom_site_label_2
_geom_bond_site_symmetry_1
_geom_bond_site_symmetry_2
O1 N1 1_555 1_555
N1 C15 1_555 1_555
C1 H1 1_555 1_555
C2 C1 1_555 1_555
H2 C2 1_555 1_555
C3 C2 1_555 1_555
H3 C3 1_555 1_555
C4 C3 1_555 1_555
C5 C4 1_555 1_555
C6 C5 1_555 1_555
H4 C6 1_555 1_555
C7 O1 1_555 1_555
H5 C7 1_555 1_555
C8 C7 1_555 1_555
C9 C8 1_555 1_555
H6 C9 1_555 1_555
C10 C9 1_555 1_555
H7 C10 1_555 1_555
C11 C10 1_555 1_555
H8 C11 1_555 1_555
C12 H9 1_555 1_555
C13 C12 1_555 1_555
H10 C13 1_555 1_555
C14 C13 1_555 1_555
H11 C14 1_555 1_555
C15 C14 1_555 1_555
C16 C1 1_555 1_555
H12 C16 1_555 1_555
C17 C4 1_555 1_555
H13 C17 1_555 1_555
C18 N1 1_555 1_555
H14 C18 1_555 1_555
C19 C18 1_555 1_555
H15 C19 1_555 1_555
H16 C19 1_555 1_555
H17 C19 1_555 1_555
C20 C11 1_555 1_555
H18 C20 1_555 1_555
C21 C8 1_555 1_555
H19 C21 1_555 1_555
C22 C15 1_555 1_555
H20 C22 1_555 1_555
C23 C12 1_555 1_555
H21 C23 1_555 1_555
C5 C18 1_555 1_555
C6 C7 1_555 1_555
C16 C17 1_555 1_555
C20 C21 1_555 1_555
C22 C23 1_555 1_555

#END
