
#######################################################################
#
#                 Cambridge Crystallographic Data Centre
#                                CCDC 
#
#######################################################################
#
# If this CIF has been generated from an entry in the Cambridge 
# Structural Database, then it will include bibliographic, chemical, 
# crystal, experimental, refinement or atomic coordinate data resulting 
# from the CCDC's data processing and validation procedures.
#
#######################################################################

data_POJYAO
_chemical_formula_moiety         'C23 H26 N1 1+,I1 1-'
_chemical_name_systematic        
'(R)-(-)-5-Methyl-10-(1,2,3,6-tetrahydro-1,1-dimethylpyridinium-4-yl)-5H-dibenzo(a,d)cycloheptene iodide'
_symmetry_cell_setting           orthorhombic
_symmetry_space_group_name_H-M   'P 21 21 21'
_symmetry_Int_Tables_number      19
_space_group_name_Hall           'P 2ac 2ab'
loop_
_symmetry_equiv_pos_site_id
_symmetry_equiv_pos_as_xyz
1 x,y,z
2 1/2-x,-y,1/2+z
3 1/2+x,1/2-y,-z
4 -x,1/2+y,1/2-z
_cell_length_a                   9.907(8)
_cell_length_b                   29.885(6)
_cell_length_c                   7.792(7)
_cell_angle_alpha                90
_cell_angle_beta                 90
_cell_angle_gamma                90
_cell_volume                     2306.98
_exptl_crystal_colour            yellow
_chemical_melting_point          '184-187 deg.C'
_cell_formula_units_Z            4
loop_
_atom_site_label
_atom_site_type_symbol
_atom_site_fract_x
_atom_site_fract_y
_atom_site_fract_z
I1 I 0.9341(1) 0.82278(4) 0.3648(2)
N1 N 0.413(1) 0.8287(4) 1.651(2)
C1 C 0.125(2) 0.9031(6) 1.013(3)
C2 C 0.118(2) 0.9410(6) 0.920(2)
C3 C 0.230(2) 0.9697(6) 0.915(2)
C4 C 0.351(1) 0.9600(4) 1.004(2)
C5 C 0.357(1) 0.9200(5) 1.099(2)
C6 C 0.241(1) 0.8918(5) 1.106(2)
C7 C 0.484(2) 0.9041(5) 1.186(2)
C8 C 0.576(2) 0.9647(4) 0.881(2)
C9 C 0.644(2) 0.9280(5) 0.947(2)
C10 C 0.611(2) 0.9791(5) 0.714(2)
C11 C 0.743(2) 0.9063(5) 0.857(2)
C12 C 0.706(2) 0.9550(7) 0.617(3)
C13 C 0.435(2) 0.8111(6) 1.829(2)
C14 C 0.287(2) 0.8089(7) 1.578(3)
C15 C 0.401(2) 0.8779(5) 1.657(2)
C16 C 0.379(2) 0.8982(5) 1.488(2)
C17 C 0.467(1) 0.8792(5) 1.344(2)
C18 C 0.532(2) 0.8163(5) 1.538(3)
C19 C 0.531(2) 0.8411(5) 1.372(2)
C20 C 0.438(2) 1.0372(5) 0.932(2)
C21 C 0.473(2) 0.9877(5) 0.994(2)
C22 C 0.604(1) 0.9089(5) 1.120(2)
C23 C 0.772(2) 0.9193(6) 0.685(3)
H1 H 0.0487 0.8838 1.0176
H2 H 0.0387 0.9482 0.8568
H3 H 0.2248 0.9964 0.8495
H4 H 0.2422 0.8653 1.1743
H5 H 0.5711 1.0054 0.6672
H6 H 0.7907 0.8825 0.9096
H7 H 0.7234 0.9639 0.5027
H8 H 0.3603 0.8194 1.8993
H9 H 0.4420 0.7795 1.8257
H10 H 0.5153 0.8236 1.8749
H11 H 0.2126 0.8168 1.6494
H12 H 0.2729 0.8202 1.4661
H13 H 0.2954 0.7773 1.5744
H14 H 0.3272 0.8856 1.7293
H15 H 0.4820 0.8899 1.7043
H16 H 0.2875 0.8937 1.4571
H17 H 0.3962 0.9295 1.4975
H18 H 0.6130 0.8231 1.5977
H19 H 0.5284 0.7851 1.5150
H20 H 0.5172 1.0547 0.9281
H21 H 0.3973 1.0360 0.8220
H22 H 0.3755 1.0504 1.0113
H23 H 0.5104 0.9898 1.1072
H24 H 0.6760 0.8989 1.1899
H25 H 0.8372 0.9034 0.6186
H26 H 0.5797 0.8283 1.2783
loop_
_geom_bond_atom_site_label_1
_geom_bond_atom_site_label_2
_geom_bond_site_symmetry_1
_geom_bond_site_symmetry_2
N1 C13 1_555 1_555
C1 C2 1_555 1_555
C2 C3 1_555 1_555
C3 C4 1_555 1_555
C4 C5 1_555 1_555
C5 C6 1_555 1_555
C6 C1 1_555 1_555
C7 C5 1_555 1_555
C8 C9 1_555 1_555
C9 C11 1_555 1_555
C10 C8 1_555 1_555
C11 C23 1_555 1_555
C12 C10 1_555 1_555
C13 H8 1_555 1_555
C14 N1 1_555 1_555
C15 N1 1_555 1_555
C16 C15 1_555 1_555
C17 C7 1_555 1_555
C18 N1 1_555 1_555
C19 C17 1_555 1_555
C20 C21 1_555 1_555
C21 C4 1_555 1_555
C22 C7 1_555 1_555
C23 C12 1_555 1_555
H1 C1 1_555 1_555
H2 C2 1_555 1_555
H3 C3 1_555 1_555
H4 C6 1_555 1_555
H5 C10 1_555 1_555
H6 C11 1_555 1_555
H7 C12 1_555 1_555
H9 C13 1_555 1_555
H10 C13 1_555 1_555
H11 C14 1_555 1_555
H12 C14 1_555 1_555
H13 C14 1_555 1_555
H14 C15 1_555 1_555
H15 C15 1_555 1_555
H16 C16 1_555 1_555
H17 C16 1_555 1_555
H18 C18 1_555 1_555
H19 C18 1_555 1_555
H20 C20 1_555 1_555
H21 C20 1_555 1_555
H22 C20 1_555 1_555
H23 C21 1_555 1_555
H24 C22 1_555 1_555
H25 C23 1_555 1_555
H26 C19 1_555 1_555
C8 C21 1_555 1_555
C9 C22 1_555 1_555
C16 C17 1_555 1_555
C18 C19 1_555 1_555

#END
