
#######################################################################
#
#                 Cambridge Crystallographic Data Centre
#                                CCDC 
#
#######################################################################
#
# If this CIF has been generated from an entry in the Cambridge 
# Structural Database, then it will include bibliographic, chemical, 
# crystal, experimental, refinement or atomic coordinate data resulting 
# from the CCDC's data processing and validation procedures.
#
#######################################################################

data_POKDOK
_chemical_formula_moiety         'C20 H18 O2 S2'
_chemical_name_systematic        
2-benzylidene-5-(ethylsulfanyl)-4-(4-methoxyphenyl)thiophen-3(2H)-one
_symmetry_cell_setting           monoclinic
_symmetry_space_group_name_H-M   'P 21/n'
_symmetry_Int_Tables_number      14
_space_group_name_Hall           '-P 2yn'
loop_
_symmetry_equiv_pos_site_id
_symmetry_equiv_pos_as_xyz
1 x,y,z
2 1/2-x,1/2+y,1/2-z
3 -x,-y,-z
4 1/2+x,1/2-y,1/2+z
_cell_length_a                   6.164(5)
_cell_length_b                   23.928(5)
_cell_length_c                   12.121(5)
_cell_angle_alpha                90
_cell_angle_beta                 99.050(5)
_cell_angle_gamma                90
_cell_volume                     1765.5
_exptl_crystal_colour            yellow
_exptl_crystal_description       needle
_cell_formula_units_Z            4
loop_
_atom_site_label
_atom_site_type_symbol
_atom_site_fract_x
_atom_site_fract_y
_atom_site_fract_z
C1 C 1.6182(4) -0.09776(8) 0.05631(17)
H1 H 1.7394 -0.1222 0.0506
H2 H 1.5891 -0.0749 -0.0094
H3 H 1.4904 -0.1196 0.0631
C2 C 1.5172(3) -0.02509(7) 0.17400(15)
C3 C 1.5927(3) 0.01509(8) 0.25336(16)
H4 H 1.7383 0.0145 0.2882
C4 C 1.4528(3) 0.05591(8) 0.28081(15)
H5 H 1.5058 0.0828 0.3336
C5 C 1.2331(3) 0.05766(7) 0.23085(14)
C6 C 1.1599(3) 0.01663(7) 0.15231(14)
H6 H 1.0139 0.0168 0.1181
C7 C 1.2993(3) -0.02450(7) 0.12390(14)
H7 H 1.2468 -0.0516 0.0714
C8 C 1.0823(3) 0.10149(7) 0.25949(14)
C9 C 1.0631(3) 0.11934(7) 0.36426(14)
C10 C 0.9303(3) 0.13090(7) 0.17399(14)
C11 C 0.7880(3) 0.17057(7) 0.22560(14)
C12 C 0.6197(3) 0.19696(7) 0.16351(15)
H8 H 0.6054 0.1896 0.0874
C13 C 0.4554(3) 0.23514(7) 0.19413(14)
C14 C 0.4772(4) 0.26429(9) 0.29510(17)
H9 H 0.6025 0.2592 0.3479
C15 C 0.3157(4) 0.30041(11) 0.3177(2)
H10 H 0.3319 0.3192 0.3856
C16 C 0.1299(4) 0.30872(10) 0.2397(2)
H11 H 0.0215 0.3333 0.2548
C17 C 0.1052(4) 0.28081(9) 0.14000(19)
H12 H -0.0204 0.2862 0.0876
C18 C 0.2664(3) 0.24477(8) 0.11735(16)
H13 H 0.2486 0.2264 0.0489
C19 C 1.0489(4) 0.10962(9) 0.59325(15)
H14 H 1.1383 0.1064 0.6663
H15 H 0.9957 0.1478 0.5851
C20 C 0.8559(4) 0.07102(11) 0.5881(2)
H16 H 0.7730 0.0805 0.6461
H17 H 0.9069 0.0332 0.5980
H18 H 0.7641 0.0746 0.5167
O1 O 1.6709(2) -0.06317(6) 0.15184(12)
O2 O 0.9153(2) 0.12451(6) 0.07265(10)
S1 S 0.86573(8) 0.172462(19) 0.37064(4)
S2 S 1.21986(8) 0.09590(2) 0.48714(4)
loop_
_geom_bond_atom_site_label_1
_geom_bond_atom_site_label_2
_geom_bond_site_symmetry_1
_geom_bond_site_symmetry_2
C1 H1 1_555 1_555
H2 C1 1_555 1_555
H3 C1 1_555 1_555
C2 C3 1_555 1_555
C3 H4 1_555 1_555
C4 C3 1_555 1_555
H5 C4 1_555 1_555
C5 C4 1_555 1_555
C6 C5 1_555 1_555
H6 C6 1_555 1_555
C7 C2 1_555 1_555
H7 C7 1_555 1_555
C8 C5 1_555 1_555
C9 C8 1_555 1_555
C10 C8 1_555 1_555
C11 C10 1_555 1_555
C12 C11 1_555 1_555
H8 C12 1_555 1_555
C13 C12 1_555 1_555
C14 C13 1_555 1_555
H9 C14 1_555 1_555
C15 C14 1_555 1_555
H10 C15 1_555 1_555
C16 C15 1_555 1_555
H11 C16 1_555 1_555
C17 C16 1_555 1_555
H12 C17 1_555 1_555
C18 C13 1_555 1_555
H13 C18 1_555 1_555
C19 H14 1_555 1_555
H15 C19 1_555 1_555
C20 C19 1_555 1_555
H16 C20 1_555 1_555
H17 C20 1_555 1_555
H18 C20 1_555 1_555
O1 C1 1_555 1_555
O2 C10 1_555 1_555
S1 C9 1_555 1_555
S2 C9 1_555 1_555
C2 O1 1_555 1_555
C6 C7 1_555 1_555
C11 S1 1_555 1_555
C17 C18 1_555 1_555
C19 S2 1_555 1_555

#END
