
#######################################################################
#
#                 Cambridge Crystallographic Data Centre
#                                CCDC 
#
#######################################################################
#
# If this CIF has been generated from an entry in the Cambridge 
# Structural Database, then it will include bibliographic, chemical, 
# crystal, experimental, refinement or atomic coordinate data resulting 
# from the CCDC's data processing and validation procedures.
#
#######################################################################

data_POKGED
_chemical_formula_moiety         'C16 H20 O3'
_chemical_name_systematic        
'methyl (2R,3R)-3-hydroxy-2-methyl-2-((S)-1-phenylallyl)pent-4-enoate'
_symmetry_cell_setting           monoclinic
_symmetry_space_group_name_H-M   'P 21'
_symmetry_Int_Tables_number      4
_space_group_name_Hall           'P 2yb'
loop_
_symmetry_equiv_pos_site_id
_symmetry_equiv_pos_as_xyz
1 x,y,z
2 -x,1/2+y,-z
_cell_length_a                   7.6566(4)
_cell_length_b                   7.0967(4)
_cell_length_c                   13.3256(8)
_cell_angle_alpha                90
_cell_angle_beta                 97.297(2)
_cell_angle_gamma                90
_cell_volume                     718.204
_exptl_crystal_colour            colorless
_exptl_crystal_description       Block
_cell_formula_units_Z            2
_exptl_crystal_recrystallization_method 'ethyl acetate/hexanes'
loop_
_atom_site_label
_atom_site_type_symbol
_atom_site_fract_x
_atom_site_fract_y
_atom_site_fract_z
O1 O 0.84667(11) 0.39937(13) 0.60143(6)
C1 C 0.50274(18) 0.3683(3) 0.56323(11)
O2 O 0.60893(11) 0.22876(14) 0.62340(6)
C2 C 0.78208(15) 0.26061(17) 0.63513(8)
C3 C 0.88921(15) 0.10500(16) 0.69472(9)
C4 C 0.77101(16) -0.05266(17) 0.72824(9)
C5 C 1.01262(15) 0.02612(17) 0.62019(9)
C6 C 1.11606(17) -0.14434(18) 0.66065(10)
C7 C 1.28864(18) -0.1467(2) 0.68656(11)
O3 O 0.90020(12) -0.02115(15) 0.52953(7)
C8 C 1.00305(15) 0.18996(16) 0.79135(9)
C9 C 1.13960(16) 0.33350(18) 0.76889(9)
C10 C 1.31041(18) 0.3153(2) 0.79793(10)
C11 C 0.88649(15) 0.26880(18) 0.86652(9)
C12 C 0.80529(17) 0.44552(18) 0.85275(10)
C13 C 0.69780(17) 0.5136(2) 0.92160(11)
C14 C 0.66934(18) 0.4058(2) 1.00527(10)
C15 C 0.75142(18) 0.2313(2) 1.02084(10)
C16 C 0.85962(17) 0.16414(19) 0.95214(10)
H1 H 0.543(2) 0.378(2) 0.4971(13)
H2 H 0.382(3) 0.326(3) 0.5558(15)
H3 H 0.515(3) 0.489(3) 0.5976(16)
H4 H 0.845(2) -0.138(3) 0.7737(13)
H5 H 0.714(2) -0.119(3) 0.6690(13)
H6 H 0.678(2) -0.002(2) 0.7611(11)
H7 H 1.0943(19) 0.121(2) 0.6079(11)
H8 H 1.048(2) -0.256(3) 0.6627(13)
H9 H 1.350(2) -0.265(3) 0.7141(13)
H10 H 1.361(2) -0.040(3) 0.6804(13)
H11 H 0.962(3) -0.045(3) 0.4873(16)
H12 H 1.0679(19) 0.084(2) 0.8252(11)
H13 H 1.097(2) 0.444(3) 0.7320(14)
H14 H 1.359(3) 0.201(3) 0.8296(15)
H15 H 1.393(2) 0.413(3) 0.7847(13)
H16 H 0.823(2) 0.517(2) 0.7962(13)
H17 H 0.650(2) 0.636(3) 0.9119(13)
H18 H 0.592(2) 0.454(3) 1.0511(13)
H19 H 0.731(2) 0.155(3) 1.0791(15)
H20 H 0.915(2) 0.044(3) 0.9636(12)
loop_
_geom_bond_atom_site_label_1
_geom_bond_atom_site_label_2
_geom_bond_site_symmetry_1
_geom_bond_site_symmetry_2
O1 C2 1_555 1_555
C1 O2 1_555 1_555
O2 C2 1_555 1_555
C2 C3 1_555 1_555
C3 C4 1_555 1_555
C4 H4 1_555 1_555
C5 C3 1_555 1_555
C6 C5 1_555 1_555
C7 C6 1_555 1_555
O3 C5 1_555 1_555
C8 C3 1_555 1_555
C9 C8 1_555 1_555
C10 C9 1_555 1_555
C11 C8 1_555 1_555
C12 C11 1_555 1_555
C13 C12 1_555 1_555
C14 C13 1_555 1_555
C15 C14 1_555 1_555
C16 C11 1_555 1_555
H1 C1 1_555 1_555
H2 C1 1_555 1_555
H3 C1 1_555 1_555
H5 C4 1_555 1_555
H6 C4 1_555 1_555
H7 C5 1_555 1_555
H8 C6 1_555 1_555
H9 C7 1_555 1_555
H10 C7 1_555 1_555
H11 O3 1_555 1_555
H12 C8 1_555 1_555
H13 C9 1_555 1_555
H14 C10 1_555 1_555
H15 C10 1_555 1_555
H16 C12 1_555 1_555
H17 C13 1_555 1_555
H18 C14 1_555 1_555
H19 C15 1_555 1_555
H20 C16 1_555 1_555
C15 C16 1_555 1_555

#END
