
#######################################################################
#
#                 Cambridge Crystallographic Data Centre
#                                CCDC 
#
#######################################################################
#
# If this CIF has been generated from an entry in the Cambridge 
# Structural Database, then it will include bibliographic, chemical, 
# crystal, experimental, refinement or atomic coordinate data resulting 
# from the CCDC's data processing and validation procedures.
#
#######################################################################

data_POKKAD04
_chemical_formula_moiety         'C7 H11 N1 O4,H2 O1'
_chemical_name_systematic        '1-acetyl-4-hydroxyproline monohydrate'
_symmetry_cell_setting           orthorhombic
_symmetry_space_group_name_H-M   'P 21 21 21'
_symmetry_Int_Tables_number      19
_space_group_name_Hall           'P 2ac 2ab'
loop_
_symmetry_equiv_pos_site_id
_symmetry_equiv_pos_as_xyz
1 x,y,z
2 1/2+x,1/2-y,-z
3 -x,1/2+y,1/2-z
4 1/2-x,-y,1/2+z
_cell_length_a                   10.0123(2)
_cell_length_b                   9.2556(2)
_cell_length_c                   10.2441(2)
_cell_angle_alpha                90
_cell_angle_beta                 90
_cell_angle_gamma                90
_cell_volume                     949.319
_exptl_crystal_colour            colorless
_exptl_crystal_description       block
_cell_formula_units_Z            4
loop_
_atom_site_label
_atom_site_type_symbol
_atom_site_fract_x
_atom_site_fract_y
_atom_site_fract_z
O1 O 0.5808(3) 1.1136(6) 0.7671(4)
C1 C 0.6961(3) 1.0769(4) 0.7562(2)
O2 O 0.7918(3) 1.1189(5) 0.8343(3)
H1 H 0.7556(7) 1.1897(10) 0.9020(6)
C2 C 0.7371(3) 0.9663(4) 0.6549(3)
N1 N 0.87562(19) 0.9790(3) 0.61179(19)
C3 C 0.9496(3) 0.8424(5) 0.6232(3)
C4 C 0.8369(4) 0.7304(4) 0.6355(3)
C5 C 0.7305(4) 0.8125(5) 0.7124(3)
H2 H 0.7551(11) 0.8148(11) 0.8151(7)
H3 H 0.6312(10) 0.7643(11) 0.7023(10)
O3 O 0.7836(4) 0.6951(6) 0.5110(3)
H4 H 0.8316(8) 0.6113(10) 0.4752(7)
H5 H 0.8703(11) 0.6340(11) 0.6842(8)
H6 H 1.0109(10) 0.8434(14) 0.7117(11)
H7 H 1.0117(8) 0.8242(12) 0.5379(11)
C6 C 0.9179(3) 1.1016(4) 0.5552(3)
O4 O 0.8401(4) 1.2037(5) 0.5454(4)
C7 C 1.0576(3) 1.1070(6) 0.5042(4)
H8 H 0.6699(5) 0.9801(9) 0.5717(5)
H9 H 1.128(2) 1.041(3) 0.568(2)
H10 H 1.057(3) 1.087(3) 0.401(3)
H11 H 1.097(2) 1.218(3) 0.512(3)
O5 O 0.8980(6) 0.4618(7) 0.4292(6)
H15 H 0.9566(8) 0.4419(11) 0.3574(8)
H16 H 0.8804(9) 0.3688(12) 0.4714(8)
H12? H 1.128(2) 1.097(4) 0.583(2)
H13? H 1.0761(16) 1.024(2) 0.4315(17)
H14? H 1.081(2) 1.202(3) 0.461(3)
loop_
_geom_bond_atom_site_label_1
_geom_bond_atom_site_label_2
_geom_bond_site_symmetry_1
_geom_bond_site_symmetry_2
O1 C1 1_555 1_555
C1 O2 1_555 1_555
O2 H1 1_555 1_555
C2 C1 1_555 1_555
N1 C2 1_555 1_555
C3 N1 1_555 1_555
C4 C3 1_555 1_555
C5 C2 1_555 1_555
H2 C5 1_555 1_555
H3 C5 1_555 1_555
O3 C4 1_555 1_555
H4 O3 1_555 1_555
H5 C4 1_555 1_555
H6 C3 1_555 1_555
H7 C3 1_555 1_555
C6 N1 1_555 1_555
O4 C6 1_555 1_555
C7 C6 1_555 1_555
H8 C2 1_555 1_555
H9 C7 1_555 1_555
H10 C7 1_555 1_555
H11 C7 1_555 1_555
O5 H15 1_555 1_555
H16 O5 1_555 1_555
C4 C5 1_555 1_555

#END
