
#######################################################################
#
#                 Cambridge Crystallographic Data Centre
#                                CCDC 
#
#######################################################################
#
# If this CIF has been generated from an entry in the Cambridge 
# Structural Database, then it will include bibliographic, chemical, 
# crystal, experimental, refinement or atomic coordinate data resulting 
# from the CCDC's data processing and validation procedures.
#
#######################################################################

data_POKKAD01
_chemical_formula_moiety         'C7 H11 N1 O4,H2 O1'
_chemical_name_systematic        '1-acetyl-4-hydroxyproline monohydrate'
_symmetry_cell_setting           orthorhombic
_symmetry_space_group_name_H-M   'P 21 21 21'
_symmetry_Int_Tables_number      19
_space_group_name_Hall           'P 2ac 2ab'
loop_
_symmetry_equiv_pos_site_id
_symmetry_equiv_pos_as_xyz
1 x,y,z
2 1/2+x,1/2-y,-z
3 -x,1/2+y,1/2-z
4 1/2-x,-y,1/2+z
_cell_length_a                   9.854(3)
_cell_length_b                   9.249(3)
_cell_length_c                   10.144(2)
_cell_angle_alpha                90
_cell_angle_beta                 90
_cell_angle_gamma                90
_cell_volume                     924.521
_exptl_crystal_colour            colorless
_exptl_crystal_description       block
_cell_formula_units_Z            4
loop_
_atom_site_label
_atom_site_type_symbol
_atom_site_fract_x
_atom_site_fract_y
_atom_site_fract_z
O1 O 0.57863(11) 1.11458(19) 0.77209(11)
C1 C 0.69652(10) 1.07608(16) 0.76162(9)
O2 O 0.79426(11) 1.11850(18) 0.84052(11)
H1 H 0.7569(2) 1.1900(4) 0.9077(2)
C2 C 0.73840(9) 0.96392(16) 0.66045(9)
N1 N 0.87824(7) 0.97794(11) 0.61475(7)
C3 C 0.95464(10) 0.84244(16) 0.62478(11)
C4 C 0.84135(11) 0.73007(16) 0.63979(9)
C5 C 0.73460(10) 0.81134(16) 0.72019(10)
H2 H 0.7650(3) 0.8145(4) 0.8237(2)
H3 H 0.6341(3) 0.7603(4) 0.7126(3)
O3 O 0.78331(12) 0.69404(19) 0.51517(11)
H4 H 0.8326(3) 0.6095(4) 0.4775(2)
H5 H 0.8774(3) 0.6313(4) 0.6885(2)
H6 H 1.0200(3) 0.8425(4) 0.7124(3)
H7 H 1.0162(3) 0.8232(4) 0.5367(3)
C6 C 0.92001(9) 1.10170(15) 0.55818(9)
O4 O 0.84071(12) 1.20518(19) 0.55102(12)
C7 C 1.06233(10) 1.10733(17) 0.50527(10)
H8 H 1.1357(3) 1.0659(5) 0.5759(3)
H9 H 1.0894(3) 1.2169(5) 0.4793(4)
H10 H 1.0698(3) 1.0408(5) 0.4175(3)
H11 H 0.6681(2) 0.9754(4) 0.5767(2)
O5 O 0.90038(14) 0.4600(2) 0.43079(13)
H12 H 0.9593(3) 0.4391(4) 0.3571(3)
H13 H 0.8821(3) 0.3676(4) 0.4746(3)
loop_
_geom_bond_atom_site_label_1
_geom_bond_atom_site_label_2
_geom_bond_site_symmetry_1
_geom_bond_site_symmetry_2
O1 C1 1_555 1_555
C1 O2 1_555 1_555
O2 H1 1_555 1_555
C2 C1 1_555 1_555
N1 C2 1_555 1_555
C3 N1 1_555 1_555
C4 C3 1_555 1_555
C5 C2 1_555 1_555
H2 C5 1_555 1_555
H3 C5 1_555 1_555
O3 C4 1_555 1_555
H4 O3 1_555 1_555
H5 C4 1_555 1_555
H6 C3 1_555 1_555
H7 C3 1_555 1_555
C6 N1 1_555 1_555
O4 C6 1_555 1_555
C7 C6 1_555 1_555
H8 C7 1_555 1_555
H9 C7 1_555 1_555
H10 C7 1_555 1_555
H11 C2 1_555 1_555
O5 H12 1_555 1_555
H13 O5 1_555 1_555
C4 C5 1_555 1_555

#END
