
#######################################################################
#
#                 Cambridge Crystallographic Data Centre
#                                CCDC 
#
#######################################################################
#
# If this CIF has been generated from an entry in the Cambridge 
# Structural Database, then it will include bibliographic, chemical, 
# crystal, experimental, refinement or atomic coordinate data resulting 
# from the CCDC's data processing and validation procedures.
#
#######################################################################

data_POKKEF
_chemical_formula_moiety         'C22 H22 O4'
_chemical_name_systematic        
(9R)-2,6-bis(trans-Styryl)-cis-1,3,5,7-tetraoxadecalin
_symmetry_cell_setting           monoclinic
_symmetry_space_group_name_H-M   'P 21'
_symmetry_Int_Tables_number      4
_space_group_name_Hall           'P 2yb'
loop_
_symmetry_equiv_pos_site_id
_symmetry_equiv_pos_as_xyz
1 x,y,z
2 -x,1/2+y,-z
_cell_length_a                   7.541(2)
_cell_length_b                   8.497(2)
_cell_length_c                   14.522(2)
_cell_angle_alpha                90
_cell_angle_beta                 99.35(3)
_cell_angle_gamma                90
_cell_volume                     918.147
_exptl_crystal_colour            colorless
_cell_formula_units_Z            2
loop_
_atom_site_label
_atom_site_type_symbol
_atom_site_fract_x
_atom_site_fract_y
_atom_site_fract_z
O1 O 0.34006(8) 0.5282(1) 0.90142(4)
C1 C 0.1630(1) 0.5102(1) 0.85277(6)
O2 O 0.04242(9) 0.4670(1) 0.91411(4)
C2 C 0.0329(1) 0.5885(1) 0.98175(6)
O3 O 0.27379(8) 0.5000 1.09758(4)
C3 C 0.4509(1) 0.5233(1) 1.14612(5)
O4 O 0.57686(8) 0.5275(1) 1.08372(4)
C4 C 0.5416(1) 0.6596(1) 1.02105(6)
C5 C 0.3514(1) 0.6545(1) 0.96810(6)
C6 C 0.2177(1) 0.6283(1) 1.03514(6)
C7 C 0.1671(1) 0.3860(1) 0.77989(6)
C8 C 0.0756(1) 0.2519(1) 0.77584(6)
C9 C 0.0708(1) 0.1285(1) 0.70423(6)
C10 C -0.0262(1) -0.0098(2) 0.71223(7)
C11 C -0.0369(2) -0.1275(2) 0.64438(8)
C12 C 0.0495(1) -0.1085(2) 0.56759(7)
C13 C 0.1464(1) 0.0283(2) 0.55878(6)
C14 C 0.1576(1) 0.1453(1) 0.62637(6)
C15 C 0.5006(1) 0.3917(1) 1.21409(6)
C16 C 0.3966(1) 0.2670(1) 1.22193(6)
C17 C 0.4347(1) 0.1383(1) 1.29025(5)
C18 C 0.3339(1) -0.0007(1) 1.27774(7)
C19 C 0.3643(2) -0.1229(2) 1.34249(8)
C20 C 0.4949(1) -0.1070(2) 1.42160(7)
C21 C 0.5959(1) 0.0303(2) 1.43495(6)
C22 C 0.5662(1) 0.1520(1) 1.37018(6)
loop_
_geom_bond_atom_site_label_1
_geom_bond_atom_site_label_2
_geom_bond_site_symmetry_1
_geom_bond_site_symmetry_2
O1 C1 1_555 1_555
C1 O2 1_555 1_555
O2 C2 1_555 1_555
C2 C6 1_555 1_555
O3 C3 1_555 1_555
C3 O4 1_555 1_555
O4 C4 1_555 1_555
C4 C5 1_555 1_555
C5 O1 1_555 1_555
C6 O3 1_555 1_555
C7 C1 1_555 1_555
C8 C7 1_555 1_555
C9 C8 1_555 1_555
C10 C9 1_555 1_555
C11 C10 1_555 1_555
C12 C11 1_555 1_555
C13 C12 1_555 1_555
C14 C9 1_555 1_555
C15 C3 1_555 1_555
C16 C15 1_555 1_555
C17 C16 1_555 1_555
C18 C17 1_555 1_555
C19 C18 1_555 1_555
C20 C19 1_555 1_555
C21 C20 1_555 1_555
C22 C17 1_555 1_555
C5 C6 1_555 1_555
C13 C14 1_555 1_555
C21 C22 1_555 1_555

#END
