
#######################################################################
#
#                 Cambridge Crystallographic Data Centre
#                                CCDC 
#
#######################################################################
#
# If this CIF has been generated from an entry in the Cambridge 
# Structural Database, then it will include bibliographic, chemical, 
# crystal, experimental, refinement or atomic coordinate data resulting 
# from the CCDC's data processing and validation procedures.
#
#######################################################################

data_POKKAD
_chemical_formula_moiety         'C7 H11 N1 O4,H2 O1'
_chemical_name_systematic        '1-acetyl-4-hydroxyproline monohydrate'
_symmetry_cell_setting           orthorhombic
_symmetry_space_group_name_H-M   'P 21 21 21'
_symmetry_Int_Tables_number      19
_space_group_name_Hall           'P 2ac 2ab'
loop_
_symmetry_equiv_pos_site_id
_symmetry_equiv_pos_as_xyz
1 x,y,z
2 1/2-x,-y,1/2+z
3 1/2+x,1/2-y,-z
4 -x,1/2+y,1/2-z
_cell_length_a                   10.0123(2)
_cell_length_b                   9.2556(2)
_cell_length_c                   10.2441(2)
_cell_angle_alpha                90
_cell_angle_beta                 90
_cell_angle_gamma                90
_cell_volume                     949.319
_cell_formula_units_Z            4
loop_
_atom_site_label
_atom_site_type_symbol
_atom_site_fract_x
_atom_site_fract_y
_atom_site_fract_z
O1 O 0.58066(6) 1.11426(7) 0.76704(6)
O2 O 0.79194(6) 1.11883(7) 0.83443(6)
O3 O 0.84014(6) 1.20456(7) 0.54572(6)
O4 O 0.78372(7) 0.69571(6) 0.51116(6)
N1 N 0.87566(6) 0.97841(7) 0.61151(6)
C1 C 0.69641(7) 1.07661(8) 0.75633(7)
C2 C 0.73784(7) 0.96612(8) 0.65492(7)
C3 C 0.73091(10) 0.81237(9) 0.71204(8)
C4 C 0.83730(10) 0.73126(9) 0.63539(8)
C5 C 0.94910(9) 0.84218(9) 0.62370(9)
C6 C 0.91761(7) 1.10078(8) 0.55487(8)
C7 C 1.05839(8) 1.10739(11) 0.50476(11)
H1 H 0.75708 1.18614 0.89717
H2 H 0.82994 0.61333 0.47629
H3 H 0.67084 0.97374 0.56997
H4 H 0.75341 0.81240 0.81652
H5 H 0.63226 0.76452 0.69677
H6 H 0.87052 0.63421 0.68784
H7 H 1.01305 0.84189 0.71094
H8 H 1.01093 0.82145 0.53702
H9 H 1.12588 1.06287 0.57812
H10 H 1.08548 1.21946 0.48490
H11 H 1.06623 1.04434 0.41506
O5 O 0.89806(9) 0.46008(7) 0.42897(9)
H12 H 0.87933 0.37091 0.47356
H13 H 0.95712 0.44217 0.35672
loop_
_geom_bond_atom_site_label_1
_geom_bond_atom_site_label_2
_geom_bond_site_symmetry_1
_geom_bond_site_symmetry_2
O1 C1 1_555 1_555
O2 C1 1_555 1_555
O3 C6 1_555 1_555
O4 C4 1_555 1_555
N1 C2 1_555 1_555
C1 C2 1_555 1_555
C2 C3 1_555 1_555
C3 C4 1_555 1_555
C4 C5 1_555 1_555
C5 N1 1_555 1_555
C6 N1 1_555 1_555
C7 C6 1_555 1_555
H1 O2 1_555 1_555
H2 O4 1_555 1_555
H3 C2 1_555 1_555
H4 C3 1_555 1_555
H5 C3 1_555 1_555
H6 C4 1_555 1_555
H7 C5 1_555 1_555
H8 C5 1_555 1_555
H9 C7 1_555 1_555
H10 C7 1_555 1_555
H11 C7 1_555 1_555
O5 H12 1_555 1_555
H13 O5 1_555 1_555

#END
