
#######################################################################
#
#                 Cambridge Crystallographic Data Centre
#                                CCDC 
#
#######################################################################
#
# If this CIF has been generated from an entry in the Cambridge 
# Structural Database, then it will include bibliographic, chemical, 
# crystal, experimental, refinement or atomic coordinate data resulting 
# from the CCDC's data processing and validation procedures.
#
#######################################################################

data_POKQUD
_chemical_formula_moiety         'C14 H20 O4'
_chemical_name_systematic        
1-Acetyl-1,7-dihydroxy-4,4-dimethylspiro[4.5]dec-6-en-8-one
_symmetry_cell_setting           orthorhombic
_symmetry_space_group_name_H-M   'P 21 21 21'
_symmetry_Int_Tables_number      19
_space_group_name_Hall           'P 2ac 2ab'
loop_
_symmetry_equiv_pos_site_id
_symmetry_equiv_pos_as_xyz
1 x,y,z
2 1/2+x,1/2-y,-z
3 -x,1/2+y,1/2-z
4 1/2-x,-y,1/2+z
_cell_length_a                   6.6829(2)
_cell_length_b                   12.1963(4)
_cell_length_c                   16.3477(6)
_cell_angle_alpha                90
_cell_angle_beta                 90
_cell_angle_gamma                90
_cell_volume                     1332.45
_exptl_crystal_colour            colorless
_exptl_crystal_description       'Thin rod'
_cell_formula_units_Z            4
loop_
_atom_site_label
_atom_site_type_symbol
_atom_site_fract_x
_atom_site_fract_y
_atom_site_fract_z
C1 C 0.3352(5) 0.6132(3) 0.3653(2)
C2 C 0.2986(8) 0.7244(3) 0.3222(3)
H1 H 0.2555 0.7792 0.3615
H2 H 0.4203 0.7499 0.2960
C3 C 0.1370(8) 0.7042(4) 0.2592(3)
H3 H 0.1516 0.7541 0.2134
H4 H 0.0055 0.7144 0.2831
C4 C 0.1655(6) 0.5841(4) 0.2311(2)
C5 C 0.2062(5) 0.5250(3) 0.31570(19)
C6 C 0.0098(5) 0.5054(3) 0.3574(2)
H5 H -0.0918 0.5562 0.3491
C7 C -0.0294(5) 0.4196(3) 0.4060(2)
C8 C 0.1216(5) 0.3345(3) 0.42331(19)
C9 C 0.3204(6) 0.3464(3) 0.3835(2)
H6 H 0.3718 0.2741 0.3705
H7 H 0.4123 0.3802 0.4219
C10 C 0.3146(6) 0.4149(3) 0.3057(2)
H8 H 0.2485 0.3730 0.2631
H9 H 0.4507 0.4287 0.2879
C11 C -0.0176(8) 0.5394(5) 0.1868(3)
H10 H -0.1347 0.5520 0.2195
H11 H -0.0014 0.4622 0.1779
H12 H -0.0321 0.5760 0.1352
C12 C 0.3479(8) 0.5760(5) 0.1745(3)
H13 H 0.3694 0.5008 0.1596
H14 H 0.4640 0.6036 0.2023
H15 H 0.3244 0.6186 0.1260
C13 C 0.2762(7) 0.6157(3) 0.4563(2)
C14 C 0.0954(8) 0.6743(5) 0.4858(4)
H16 H 0.0082 0.6236 0.5130
H17 H 0.0267 0.7064 0.4401
H18 H 0.1345 0.7310 0.5233
O1 O 0.5430(4) 0.5902(3) 0.36157(16)
H19 H 0.5727 0.5470 0.3980
O2 O -0.2108(4) 0.4096(2) 0.44320(17)
H20 H -0.2148 0.3518 0.4687
O3 O 0.0813(4) 0.2602(2) 0.47151(16)
O4 O 0.3846(6) 0.5689(3) 0.50475(17)
loop_
_geom_bond_atom_site_label_1
_geom_bond_atom_site_label_2
_geom_bond_site_symmetry_1
_geom_bond_site_symmetry_2
C1 C2 1_555 1_555
C2 H1 1_555 1_555
H2 C2 1_555 1_555
C3 C2 1_555 1_555
H3 C3 1_555 1_555
H4 C3 1_555 1_555
C4 C3 1_555 1_555
C5 C1 1_555 1_555
C6 C5 1_555 1_555
H5 C6 1_555 1_555
C7 C6 1_555 1_555
C8 C7 1_555 1_555
C9 C8 1_555 1_555
H6 C9 1_555 1_555
H7 C9 1_555 1_555
C10 C5 1_555 1_555
H8 C10 1_555 1_555
H9 C10 1_555 1_555
C11 C4 1_555 1_555
H10 C11 1_555 1_555
H11 C11 1_555 1_555
H12 C11 1_555 1_555
C12 C4 1_555 1_555
H13 C12 1_555 1_555
H14 C12 1_555 1_555
H15 C12 1_555 1_555
C13 C1 1_555 1_555
C14 C13 1_555 1_555
H16 C14 1_555 1_555
H17 C14 1_555 1_555
H18 C14 1_555 1_555
O1 C1 1_555 1_555
H19 O1 1_555 1_555
O2 C7 1_555 1_555
H20 O2 1_555 1_555
O3 C8 1_555 1_555
O4 C13 1_555 1_555
C4 C5 1_555 1_555
C9 C10 1_555 1_555

#END
