
#######################################################################
#
#                 Cambridge Crystallographic Data Centre
#                                CCDC 
#
#######################################################################
#
# If this CIF has been generated from an entry in the Cambridge 
# Structural Database, then it will include bibliographic, chemical, 
# crystal, experimental, refinement or atomic coordinate data resulting 
# from the CCDC's data processing and validation procedures.
#
#######################################################################

data_POKREO
_chemical_formula_moiety         'C36 H58 N6 O28'
_chemical_name_systematic        
'5,20-bis(azidomethyl)-10,15,25,30-tetrakis(hydroxymethyl)-2,4,7,9,12,14,17,19,22,24,27,29-dodecaoxaheptacyclo[26.2.2.2^3,6^.2^8,11^.2^13,16^.2^18,21^.2^23,26^]dotetracontane-31,32,33,34,35,36,37,38,39,40,41,42-dodecol unknown solvate'
_symmetry_cell_setting           tetragonal
_symmetry_space_group_name_H-M   'P 43'
_symmetry_Int_Tables_number      78
_space_group_name_Hall           'P 4cw'
loop_
_symmetry_equiv_pos_site_id
_symmetry_equiv_pos_as_xyz
1 x,y,z
2 -x,-y,1/2+z
3 -y,x,3/4+z
4 y,-x,1/4+z
_cell_length_a                   21.7457(5)
_cell_length_b                   21.7457(5)
_cell_length_c                   21.9544(6)
_cell_angle_alpha                90
_cell_angle_beta                 90
_cell_angle_gamma                90
_cell_volume                     10381.7
_exptl_crystal_colour            colorless
_exptl_crystal_description       stick
_cell_formula_units_Z            8
loop_
_atom_site_label
_atom_site_type_symbol
_atom_site_fract_x
_atom_site_fract_y
_atom_site_fract_z
N1 N 0.9299(4) 0.8576(3) 0.5831(3)
N2 N 0.8964(3) 0.8217(3) 0.6074(2)
N3 N 0.8629(4) 0.7934(4) 0.6318(6)
N4 N 1.4370(2) 0.7191(2) 0.3978(2)
N5 N 1.4827(2) 0.72994(19) 0.4289(2)
N6 N 1.5290(2) 0.7336(3) 0.4533(3)
C1 C 0.91787(19) 0.8113(2) 0.3928(2)
H1 H 0.8888 0.7787 0.3785
C2 C 0.8917(2) 0.8736(3) 0.3792(2)
H2 H 0.8513 0.8782 0.4005
C3 C 0.9354(2) 0.9228(2) 0.4012(2)
H3 H 0.9724 0.9218 0.3742
C4 C 0.9573(2) 0.9126(2) 0.4663(2)
H4 H 0.9246 0.9263 0.4953
C5 C 0.9741(2) 0.8458(2) 0.4794(2)
H5 H 1.0135 0.8363 0.4579
C6 C 0.9828(3) 0.8329(3) 0.5469(3)
H6 H 0.9862 0.7879 0.5534
H7 H 1.0215 0.8522 0.5610
O1 O 0.97436(12) 0.80598(14) 0.36140(13)
O2 O 0.88244(18) 0.8781(2) 0.3153(2)
H8 H 0.8988 0.8517 0.2867
O3 O 0.90891(17) 0.98263(17) 0.3965(2)
O4 O 0.92783(16) 0.80516(15) 0.45701(16)
C7 C 1.08047(17) 0.68780(17) 0.25955(18)
H9 H 1.0935 0.6525 0.2334
C8 C 1.03527(18) 0.7277(2) 0.22455(19)
H10 H 0.9993 0.7019 0.2122
C9 C 1.01276(18) 0.7795(2) 0.26419(19)
H11 H 1.0483 0.8069 0.2741
C10 C 0.98598(17) 0.75425(19) 0.32365(19)
H12 H 0.9467 0.7318 0.3152
C11 C 1.03201(18) 0.71123(19) 0.35536(19)
H13 H 1.0678 0.7360 0.3700
C12 C 1.0039(2) 0.6777(2) 0.4089(2)
H14 H 1.0359 0.6515 0.4278
H15 H 0.9909 0.7084 0.4396
O5 O 1.13210(11) 0.72487(11) 0.27293(12)
O6 O 1.06470(14) 0.74959(16) 0.17176(14)
H16 H 1.0487 0.7692 0.1435
O7 O 0.96688(14) 0.81481(16) 0.23383(16)
H17 H 0.9776 0.8370 0.2058
O8 O 1.05387(13) 0.66496(12) 0.31386(14)
O9 O 0.95330(17) 0.64085(18) 0.39406(18)
C13 C 1.32094(16) 0.72201(17) 0.27120(17)
H18 H 1.3645 0.7082 0.2662
C14 C 1.29009(17) 0.72564(18) 0.20880(17)
H19 H 1.2916 0.6839 0.1897
C15 C 1.22297(16) 0.74385(17) 0.21628(16)
H20 H 1.2209 0.7868 0.2324
C16 C 1.19202(16) 0.70040(16) 0.26186(16)
H21 H 1.1889 0.6580 0.2444
C17 C 1.22735(16) 0.69906(18) 0.32194(17)
H22 H 1.2270 0.7413 0.3399
C18 C 1.20280(19) 0.6542(2) 0.36881(19)
H23 H 1.2276 0.6580 0.4064
H24 H 1.1600 0.6658 0.3790
O10 O 1.31994(11) 0.78291(12) 0.29446(12)
O11 O 1.32302(13) 0.76692(14) 0.17117(12)
H25 H 1.3311 0.8003 0.1914
O12 O 1.19283(13) 0.74168(15) 0.15904(12)
H26 H 1.1574 0.7451 0.1635
O13 O 1.28997(12) 0.68147(12) 0.31049(13)
O14 O 1.20360(13) 0.59250(14) 0.34978(15)
H27 H 1.2428 0.5781 0.3527
C19 C 1.4166(2) 0.9120(2) 0.3856(2)
H28 H 1.4474 0.9389 0.4065
C20 C 1.42981(19) 0.9107(2) 0.3175(2)
H29 H 1.4713 0.8923 0.3098
C21 C 1.38051(19) 0.87199(19) 0.28693(19)
H30 H 1.3400 0.8936 0.2903
C22 C 1.37571(16) 0.80883(17) 0.31712(18)
H31 H 1.4114 0.7827 0.3045
C23 C 1.37264(18) 0.81230(19) 0.38630(19)
H32 H 1.3317 0.8293 0.3984
C24 C 1.3812(2) 0.7505(2) 0.4167(2)
H33 H 1.3824 0.7564 0.4614
H34 H 1.3454 0.7241 0.4072
O15 O 1.35743(14) 0.93647(13) 0.39324(14)
O16 O 1.42821(15) 0.97251(14) 0.29548(17)
O17 O 1.39391(15) 0.86103(14) 0.22439(14)
H35 H 1.3965 0.8871 0.1988
O18 O 1.42001(14) 0.85194(14) 0.40978(15)
C25 C 1.2511(3) 1.0479(3) 0.4979(3)
H36 H 1.2374 1.0812 0.5261
C26 C 1.2789(3) 1.0771(2) 0.4420(4)
H37 H 1.3143 1.1034 0.4549
C27 C 1.3026(2) 1.0276(2) 0.4001(3)
H38 H 1.2666 1.0026 0.3864
C28 C 1.3459(2) 0.9853(2) 0.4343(2)
H39 H 1.3850 1.0071 0.4448
C29 C 1.3159(3) 0.9590(3) 0.4911(3)
H40 H 1.2796 0.9342 0.4777
C30 C 1.3556(4) 0.9181(5) 0.5293(3)
H41 H 1.3317 0.9028 0.5645
H42 H 1.3689 0.8822 0.5049
O19 O 1.19915(16) 1.01381(17) 0.47949(18)
O20 O 1.2353(2) 1.11490(19) 0.4112(3)
O21 O 1.33186(18) 1.05161(17) 0.3473(2)
O22 O 1.29291(19) 1.0089(2) 0.5296(2)
O23 O 1.4066(3) 0.9494(3) 0.5500(3)
C31 C 1.0180(3) 0.9852(3) 0.5270(3)
H43 H 0.9785 0.9859 0.5503
C32 C 1.0339(3) 1.0503(3) 0.5063(4)
H44 H 1.0350 1.0780 0.5426
C33 C 1.0968(3) 1.0499(2) 0.4765(3)
H45 H 1.0936 1.0273 0.4369
C34 C 1.1440(3) 1.0182(3) 0.5152(3)
H46 H 1.1522 1.0431 0.5526
C35 C 1.1243(3) 0.9544(4) 0.5331(3)
H47 H 1.1191 0.9293 0.4952
C36 C 1.1682(5) 0.9210(5) 0.5754(5)
H48 H 1.1503 0.8804 0.5859
H49 H 1.2073 0.9135 0.5536
O24 O 1.01041(16) 0.95023(16) 0.47357(15)
O25 O 0.9866(2) 1.0717(2) 0.4646(3)
O26 O 1.1146(2) 1.11225(19) 0.4638(3)
O27 O 1.0645(2) 0.9598(3) 0.5634(2)
O28 O 1.1807(4) 0.9523(4) 0.6285(4)
N7 N 0.7911(4) 0.6292(4) 0.0034(4)
N8 N 0.7382(5) 0.6339(5) 0.0051(5)
N9 N 0.6807(7) 0.6385(7) 0.0041(7)
N10 N 0.4627(3) 0.6142(2) -0.09597(19)
N11 N 0.4223(4) 0.6492(3) -0.1038(3)
N12 N 0.3791(5) 0.6772(5) -0.1132(5)
C37 C 0.90255(19) 0.5237(2) 0.12445(19)
H54 H 0.9346 0.4963 0.1063
C38 C 0.92656(18) 0.55044(19) 0.18412(19)
H55 H 0.9655 0.5731 0.1752
C39 C 0.88092(18) 0.59564(18) 0.20982(18)
H56 H 0.8428 0.5728 0.2216
C40 C 0.86368(18) 0.64486(19) 0.16332(17)
H57 H 0.8993 0.6727 0.1552
C41 C 0.8424(2) 0.6136(2) 0.10444(19)
H58 H 0.8045 0.5891 0.1133
C42 C 0.8285(3) 0.6581(3) 0.0540(2)
H59 H 0.8676 0.6737 0.0369
H60 H 0.8055 0.6935 0.0708
O31 O 0.84970(13) 0.48925(14) 0.13698(13)
O32 O 0.94053(13) 0.50187(13) 0.22439(13)
O33 O 0.90679(13) 0.62222(14) 0.26287(13)
H61 H 0.8818 0.6398 0.2847
O34 O 0.88954(15) 0.57237(16) 0.08320(13)
C43 C 0.73646(18) 0.38021(18) 0.03249(18)
H62 H 0.7186 0.3462 0.0074
C44 C 0.7535(2) 0.35534(19) 0.09490(19)
H63 H 0.7839 0.3212 0.0897
C45 C 0.7832(2) 0.40617(19) 0.13257(19)
H64 H 0.7516 0.4384 0.1413
C46 C 0.83564(18) 0.43529(19) 0.0997(2)
H65 H 0.8717 0.4067 0.0997
C47 C 0.81950(19) 0.4534(2) 0.03342(19)
H66 H 0.7922 0.4903 0.0334
C48 C 0.8737(2) 0.4643(3) -0.0073(2)
H67 H 0.9010 0.4953 0.0117
H68 H 0.8973 0.4256 -0.0115
O35 O 0.69191(12) 0.42657(12) 0.03993(12)
O36 O 0.70072(16) 0.33200(16) 0.12434(15)
O37 O 0.80172(17) 0.37870(16) 0.18863(15)
H69 H 0.8099 0.4090 0.2169
O38 O 0.78896(12) 0.40285(14) 0.00354(13)
O39 O 0.8561(2) 0.4851(2) -0.06595(18)
H70 H 0.8402 0.4579 -0.0979
C49 C 0.52397(17) 0.47905(19) -0.02536(17)
H71 H 0.4865 0.4837 -0.0513
C50 C 0.52737(18) 0.41289(18) -0.00291(19)
H72 H 0.5308 0.3848 -0.0388
C51 C 0.58404(17) 0.40569(17) 0.03652(18)
H73 H 0.5800 0.4322 0.0735
C52 C 0.63969(17) 0.42576(18) 0.00021(17)
H74 H 0.6472 0.3953 -0.0331
C53 C 0.63268(18) 0.48935(18) -0.02751(18)
H75 H 0.6329 0.5206 0.0059
C54 C 0.6836(2) 0.5047(2) -0.0724(2)
H76 H 0.6763 0.5463 -0.0891
H77 H 0.7234 0.5054 -0.0505
O40 O 0.51791(12) 0.51753(12) 0.02606(11)
O41 O 0.47350(13) 0.39742(14) 0.03069(14)
O42 O 0.59019(13) 0.34290(13) 0.05470(15)
H78 H 0.6171 0.3415 0.0790
O43 O 0.57541(13) 0.49385(13) -0.06014(11)
O44 O 0.68742(14) 0.46218(16) -0.12115(14)
H79 H 0.6555 0.4683 -0.1484
C55 C 0.43116(17) 0.67168(17) 0.08964(17)
H80 H 0.4018 0.7062 0.0975
C56 C 0.40180(17) 0.61129(17) 0.10874(17)
H81 H 0.3616 0.6066 0.0871
C57 C 0.44334(16) 0.55795(16) 0.09146(16)
H82 H 0.4788 0.5570 0.1205
C58 C 0.46878(16) 0.56146(16) 0.02703(16)
H83 H 0.4364 0.5499 -0.0032
C59 C 0.4934(2) 0.62540(18) 0.01328(19)
H84 H 0.5300 0.6332 0.0397
C60 C 0.5120(3) 0.6341(2) -0.0531(2)
H85 H 0.5215 0.6780 -0.0603
H86 H 0.5498 0.6100 -0.0613
O45 O 0.48457(11) 0.67974(12) 0.12581(12)
O46 O 0.39075(13) 0.61182(13) 0.17318(13)
H87 H 0.4204 0.6333 0.1914
O47 O 0.40899(12) 0.50252(12) 0.09886(13)
H88 H 0.4331 0.4742 0.0930
O48 O 0.44686(14) 0.67068(12) 0.02700(12)
C61 C 0.58859(16) 0.80557(17) 0.21703(17)
H89 H 0.6052 0.8415 0.2401
C62 C 0.54108(17) 0.77184(18) 0.25567(17)
H90 H 0.5051 0.7998 0.2619
C63 C 0.51932(16) 0.71568(16) 0.22067(16)
H91 H 0.5547 0.6871 0.2141
C64 C 0.49340(16) 0.73568(16) 0.15907(15)
H92 H 0.4531 0.7571 0.1648
C65 C 0.53818(17) 0.77734(17) 0.12454(17)
H93 H 0.5736 0.7522 0.1096
C66 C 0.50775(19) 0.80923(19) 0.07071(18)
H94 H 0.4876 0.7782 0.0444
H95 H 0.4757 0.8379 0.0857
O49 O 0.63615(11) 0.76404(12) 0.20437(12)
O50 O 0.56461(13) 0.75535(15) 0.31377(13)
H96 H 0.6063 0.7552 0.3122
O51 O 0.47084(11) 0.68384(12) 0.25191(12)
H97 H 0.4866 0.6705 0.2852
O52 O 0.56083(12) 0.82596(12) 0.16266(12)
O53 O 0.55201(14) 0.84227(14) 0.03627(13)
H98 H 0.5685 0.8675 0.0656
C67 C 0.82339(17) 0.73784(18) 0.21018(19)
H99 H 0.8686 0.7442 0.2155
C68 C 0.79159(17) 0.74302(18) 0.27213(18)
H100 H 0.7993 0.7849 0.2894
C69 C 0.72276(16) 0.73443(18) 0.26293(16)
H101 H 0.7161 0.6924 0.2456
C70 C 0.69879(16) 0.78049(18) 0.21747(18)
H102 H 0.7007 0.8230 0.2349
C71 C 0.73509(18) 0.7773(2) 0.1577(2)
H103 H 0.7273 0.7367 0.1379
C72 C 0.7192(2) 0.8278(3) 0.1137(2)
H104 H 0.7459 0.8246 0.0773
H105 H 0.6760 0.8229 0.1003
O54 O 0.81288(11) 0.67869(12) 0.18673(12)
O55 O 0.81780(13) 0.69896(15) 0.31055(13)
H106 H 0.7995 0.6986 0.3476
O56 O 0.68954(13) 0.73818(14) 0.31918(12)
H107 H 0.7080 0.7657 0.3400
O57 O 0.80013(12) 0.78306(14) 0.17060(14)
O58 O 0.7271(3) 0.8883(2) 0.1417(3)
H50? H 1.3479 0.8743 0.5200
H51? H 1.3997 0.9271 0.5224
O29? O 1.3384(14) 0.9322(14) 0.5904(14)
H52? H 1.1752 0.9431 0.6142
H53? H 1.2078 0.9105 0.5559
O30? O 1.123(3) 0.862(3) 0.583(3)
H108? H 0.7374 0.8675 0.1261
H109? H 0.6741 0.8325 0.1093
O59? O 0.7489(8) 0.8031(9) 0.0543(8)
loop_
_geom_bond_atom_site_label_1
_geom_bond_atom_site_label_2
_geom_bond_site_symmetry_1
_geom_bond_site_symmetry_2
N1 N2 1_555 1_555
N2 N3 1_555 1_555
N4 N5 1_555 1_555
N5 N6 1_555 1_555
C1 H1 1_555 1_555
C2 C1 1_555 1_555
H2 C2 1_555 1_555
C3 C2 1_555 1_555
H3 C3 1_555 1_555
C4 C3 1_555 1_555
H4 C4 1_555 1_555
C5 C4 1_555 1_555
H5 C5 1_555 1_555
C6 N1 1_555 1_555
H6 C6 1_555 1_555
H7 C6 1_555 1_555
O1 C1 1_555 1_555
O2 C2 1_555 1_555
H8 O2 1_555 1_555
O3 C3 1_555 1_555
O4 C1 1_555 1_555
C7 H9 1_555 1_555
C8 C7 1_555 1_555
H10 C8 1_555 1_555
C9 C8 1_555 1_555
H11 C9 1_555 1_555
C10 O1 1_555 1_555
H12 C10 1_555 1_555
C11 C10 1_555 1_555
H13 C11 1_555 1_555
C12 C11 1_555 1_555
H14 C12 1_555 1_555
H15 C12 1_555 1_555
O5 C7 1_555 1_555
O6 C8 1_555 1_555
H16 O6 1_555 1_555
O7 C9 1_555 1_555
H17 O7 1_555 1_555
O8 C7 1_555 1_555
O9 C12 1_555 1_555
C13 H18 1_555 1_555
C14 C13 1_555 1_555
H19 C14 1_555 1_555
C15 C14 1_555 1_555
H20 C15 1_555 1_555
C16 O5 1_555 1_555
H21 C16 1_555 1_555
C17 C16 1_555 1_555
H22 C17 1_555 1_555
C18 C17 1_555 1_555
H23 C18 1_555 1_555
H24 C18 1_555 1_555
O10 C13 1_555 1_555
O11 C14 1_555 1_555
H25 O11 1_555 1_555
O12 C15 1_555 1_555
H26 O12 1_555 1_555
O13 C13 1_555 1_555
O14 C18 1_555 1_555
H27 O14 1_555 1_555
C19 H28 1_555 1_555
C20 C19 1_555 1_555
H29 C20 1_555 1_555
C21 C20 1_555 1_555
H30 C21 1_555 1_555
C22 O10 1_555 1_555
H31 C22 1_555 1_555
C23 C22 1_555 1_555
H32 C23 1_555 1_555
C24 N4 1_555 1_555
H33 C24 1_555 1_555
H34 C24 1_555 1_555
O15 C19 1_555 1_555
O16 C20 1_555 1_555
O17 C21 1_555 1_555
H35 O17 1_555 1_555
O18 C19 1_555 1_555
C25 H36 1_555 1_555
C26 C25 1_555 1_555
H37 C26 1_555 1_555
C27 C26 1_555 1_555
H38 C27 1_555 1_555
C28 O15 1_555 1_555
H39 C28 1_555 1_555
C29 C28 1_555 1_555
H40 C29 1_555 1_555
C30 C29 1_555 1_555
H41 C30 1_555 1_555
H42 C30 1_555 1_555
O19 C25 1_555 1_555
O20 C26 1_555 1_555
O21 C27 1_555 1_555
O22 C25 1_555 1_555
O23 C30 1_555 1_555
C31 H43 1_555 1_555
C32 C31 1_555 1_555
H44 C32 1_555 1_555
C33 C32 1_555 1_555
H45 C33 1_555 1_555
C34 O19 1_555 1_555
H46 C34 1_555 1_555
C35 C34 1_555 1_555
H47 C35 1_555 1_555
C36 C35 1_555 1_555
H48 C36 1_555 1_555
H49 C36 1_555 1_555
O24 C4 1_555 1_555
O25 C32 1_555 1_555
O26 C33 1_555 1_555
O27 C31 1_555 1_555
O28 C36 1_555 1_555
N7 N8 1_555 1_555
N8 N9 1_555 1_555
N10 N11 1_555 1_555
N11 N12 1_555 1_555
C37 H54 1_555 1_555
C38 C37 1_555 1_555
H55 C38 1_555 1_555
C39 C38 1_555 1_555
H56 C39 1_555 1_555
C40 C39 1_555 1_555
H57 C40 1_555 1_555
C41 C40 1_555 1_555
H58 C41 1_555 1_555
C42 N7 1_555 1_555
H59 C42 1_555 1_555
H60 C42 1_555 1_555
O31 C37 1_555 1_555
O32 C38 1_555 1_555
O33 C39 1_555 1_555
H61 O33 1_555 1_555
O34 C37 1_555 1_555
C43 H62 1_555 1_555
C44 C43 1_555 1_555
H63 C44 1_555 1_555
C45 C44 1_555 1_555
H64 C45 1_555 1_555
C46 O31 1_555 1_555
H65 C46 1_555 1_555
C47 C46 1_555 1_555
H66 C47 1_555 1_555
C48 C47 1_555 1_555
H67 C48 1_555 1_555
H68 C48 1_555 1_555
O35 C43 1_555 1_555
O36 C44 1_555 1_555
O37 C45 1_555 1_555
H69 O37 1_555 1_555
O38 C43 1_555 1_555
O39 C48 1_555 1_555
H70 O39 1_555 1_555
C49 H71 1_555 1_555
C50 C49 1_555 1_555
H72 C50 1_555 1_555
C51 C50 1_555 1_555
H73 C51 1_555 1_555
C52 O35 1_555 1_555
H74 C52 1_555 1_555
C53 C52 1_555 1_555
H75 C53 1_555 1_555
C54 C53 1_555 1_555
H76 C54 1_555 1_555
H77 C54 1_555 1_555
O40 C49 1_555 1_555
O41 C50 1_555 1_555
O42 C51 1_555 1_555
H78 O42 1_555 1_555
O43 C49 1_555 1_555
O44 C54 1_555 1_555
H79 O44 1_555 1_555
C55 H80 1_555 1_555
C56 C55 1_555 1_555
H81 C56 1_555 1_555
C57 C56 1_555 1_555
H82 C57 1_555 1_555
C58 O40 1_555 1_555
H83 C58 1_555 1_555
C59 C58 1_555 1_555
H84 C59 1_555 1_555
C60 N10 1_555 1_555
H85 C60 1_555 1_555
H86 C60 1_555 1_555
O45 C55 1_555 1_555
O46 C56 1_555 1_555
H87 O46 1_555 1_555
O47 C57 1_555 1_555
H88 O47 1_555 1_555
O48 C55 1_555 1_555
C61 H89 1_555 1_555
C62 C61 1_555 1_555
H90 C62 1_555 1_555
C63 C62 1_555 1_555
H91 C63 1_555 1_555
C64 O45 1_555 1_555
H92 C64 1_555 1_555
C65 C64 1_555 1_555
H93 C65 1_555 1_555
C66 C65 1_555 1_555
H94 C66 1_555 1_555
H95 C66 1_555 1_555
O49 C61 1_555 1_555
O50 C62 1_555 1_555
H96 O50 1_555 1_555
O51 C63 1_555 1_555
H97 O51 1_555 1_555
O52 C61 1_555 1_555
O53 C66 1_555 1_555
H98 O53 1_555 1_555
C67 H99 1_555 1_555
C68 C67 1_555 1_555
H100 C68 1_555 1_555
C69 C68 1_555 1_555
H101 C69 1_555 1_555
C70 O49 1_555 1_555
H102 C70 1_555 1_555
C71 C70 1_555 1_555
H103 C71 1_555 1_555
C72 C71 1_555 1_555
H104 C72 1_555 1_555
H105 C72 1_555 1_555
O54 C40 1_555 1_555
O55 C68 1_555 1_555
H106 O55 1_555 1_555
O56 C69 1_555 1_555
H107 O56 1_555 1_555
O57 C67 1_555 1_555
O58 C72 1_555 1_555
C5 C6 1_555 1_555
C5 O4 1_555 1_555
C9 C10 1_555 1_555
C11 O8 1_555 1_555
C15 C16 1_555 1_555
C17 O13 1_555 1_555
C21 C22 1_555 1_555
C23 C24 1_555 1_555
C23 O18 1_555 1_555
C27 C28 1_555 1_555
C29 O22 1_555 1_555
C31 O24 1_555 1_555
C33 C34 1_555 1_555
C35 O27 1_555 1_555
C41 C42 1_555 1_555
C41 O34 1_555 1_555
C45 C46 1_555 1_555
C47 O38 1_555 1_555
C51 C52 1_555 1_555
C53 O43 1_555 1_555
C57 C58 1_555 1_555
C59 C60 1_555 1_555
C59 O48 1_555 1_555
C63 C64 1_555 1_555
C65 O52 1_555 1_555
C67 O54 1_555 1_555
C69 C70 1_555 1_555
C71 O57 1_555 1_555

#END
