
#######################################################################
#
#                 Cambridge Crystallographic Data Centre
#                                CCDC 
#
#######################################################################
#
# If this CIF has been generated from an entry in the Cambridge 
# Structural Database, then it will include bibliographic, chemical, 
# crystal, experimental, refinement or atomic coordinate data resulting 
# from the CCDC's data processing and validation procedures.
#
#######################################################################

data_POKVIU
_chemical_formula_moiety         'C14 H16 Cl2 O4'
_chemical_name_systematic        
(6-Chloro-3-chloromethenyl-1,1-bis(methoxycarbonyl)-6,7-dihydro)indene
_symmetry_cell_setting           triclinic
_symmetry_space_group_name_H-M   'P -1'
_symmetry_Int_Tables_number      2
_space_group_name_Hall           '-P 1'
loop_
_symmetry_equiv_pos_site_id
_symmetry_equiv_pos_as_xyz
1 x,y,z
2 -x,-y,-z
_cell_length_a                   11.175(3)
_cell_length_b                   11.725(4)
_cell_length_c                   6.034(2)
_cell_angle_alpha                91.14(3)
_cell_angle_beta                 101.02(3)
_cell_angle_gamma                82.68(2)
_cell_volume                     769.705
_cell_formula_units_Z            2
loop_
_atom_site_label
_atom_site_type_symbol
_atom_site_fract_x
_atom_site_fract_y
_atom_site_fract_z
Cl1 Cl 0.42406(7) 0.19444(7) 1.0306(1)
Cl2 Cl 0.81409(8) -0.02174(6) 1.9701(1)
O1 O 0.7533(2) 0.5023(2) 1.4802(3)
O2 O 0.6486(2) 0.4092(2) 1.6812(4)
O3 O 0.9594(2) 0.3491(2) 1.8023(3)
O4 O 1.0196(2) 0.3000(2) 1.4754(4)
C1 C 0.8058(2) 0.3021(2) 1.5057(4)
C2 C 0.7721(3) 0.2824(3) 1.2485(5)
C3 C 0.6540(2) 0.2304(2) 1.2263(4)
C4 C 0.6545(3) 0.1654(2) 1.4423(4)
C5 C 0.6434(3) 0.0388(3) 1.4137(5)
C6 C 0.7215(3) -0.0434(3) 1.5238(5)
C7 C 0.8360(3) -0.0212(2) 1.6756(5)
C8 C 0.8764(3) 0.0923(2) 1.6234(6)
C9 C 0.7722(2) 0.1916(2) 1.6062(4)
C10 C 0.7264(3) 0.4079(2) 1.5700(4)
C11 C 0.5625(3) 0.2508(3) 1.0529(5)
C12 C 0.9408(3) 0.3173(2) 1.5863(5)
C13 C 1.0853(4) 0.3615(4) 1.9081(8)
C14 C 0.6810(5) 0.6101(3) 1.523(1)
H1 H 0.766(2) 0.354(2) 1.163(4)
H2 H 0.586(2) 0.202(2) 1.506(4)
H3 H 0.706(2) -0.123(2) 1.507(4)
H4 H 0.569(3) 0.021(2) 1.318(4)
H5 H 0.947(2) 0.111(2) 1.738(4)
H6 H 0.902(2) -0.082(2) 1.681(4)
H7 H 0.755(2) 0.209(2) 1.749(3)
H8 H 0.836(3) 0.230(2) 1.203(5)
H9 H 0.563(2) 0.296(2) 0.930(4)
H10 H 0.897(2) 0.080(2) 1.481(4)
H11 H 1.139(3) 0.298(3) 1.877(6)
H12 H 1.112(3) 0.426(3) 1.836(5)
H13 H 0.686(4) 0.620(4) 1.689(8)
H14 H 0.596(4) 0.608(3) 1.459(6)
H15 H 0.724(3) 0.660(3) 1.467(6)
H16 H 1.079(4) 0.385(3) 2.050(6)
loop_
_geom_bond_atom_site_label_1
_geom_bond_atom_site_label_2
_geom_bond_site_symmetry_1
_geom_bond_site_symmetry_2
Cl1 C11 1_555 1_555
Cl2 C7 1_555 1_555
O1 C10 1_555 1_555
O2 C10 1_555 1_555
O3 C12 1_555 1_555
O4 C12 1_555 1_555
C1 C2 1_555 1_555
C2 C3 1_555 1_555
C3 C4 1_555 1_555
C4 C5 1_555 1_555
C5 C6 1_555 1_555
C6 C7 1_555 1_555
C7 C8 1_555 1_555
C8 C9 1_555 1_555
C9 C1 1_555 1_555
C10 C1 1_555 1_555
C11 C3 1_555 1_555
C12 C1 1_555 1_555
C13 O3 1_555 1_555
C14 O1 1_555 1_555
H1 C2 1_555 1_555
H2 C4 1_555 1_555
H3 C6 1_555 1_555
H4 C5 1_555 1_555
H5 C8 1_555 1_555
H6 C7 1_555 1_555
H7 C9 1_555 1_555
H8 C2 1_555 1_555
H9 C11 1_555 1_555
H10 C8 1_555 1_555
H11 C13 1_555 1_555
H12 C13 1_555 1_555
H13 C14 1_555 1_555
H14 C14 1_555 1_555
H15 C14 1_555 1_555
H16 C13 1_555 1_555
C4 C9 1_555 1_555

#END
