
#######################################################################
#
#                 Cambridge Crystallographic Data Centre
#                                CCDC 
#
#######################################################################
#
# If this CIF has been generated from an entry in the Cambridge 
# Structural Database, then it will include bibliographic, chemical, 
# crystal, experimental, refinement or atomic coordinate data resulting 
# from the CCDC's data processing and validation procedures.
#
#######################################################################

data_POKZEW
_chemical_name_common            'Signermycin B hemihydrate'
_chemical_formula_moiety         'C23 H35 N1 O4,0.5(H2 O1)'
_chemical_name_systematic        
'3-((8-Ethyl-7-hydroxy-3,6-dimethyl-2-propyl-1,2,4a,5,6,7,8,8a-octahydronaphthalen-1-yl)(hydroxy)methylene)-5-methylpyrrolidine-2,4-dione hemihydrate'
_chemical_properties_biological  'antimicrobial activity'
_symmetry_cell_setting           monoclinic
_symmetry_space_group_name_H-M   'P 21'
_symmetry_Int_Tables_number      4
_space_group_name_Hall           'P 2yb'
loop_
_symmetry_equiv_pos_site_id
_symmetry_equiv_pos_as_xyz
1 x,y,z
2 -x,1/2+y,-z
_cell_length_a                   9.83369(18)
_cell_length_b                   15.8036(3)
_cell_length_c                   14.6758(7)
_cell_angle_alpha                90
_cell_angle_beta                 101.0576(9)
_cell_angle_gamma                90
_cell_volume                     2238.39
_exptl_crystal_colour            yellow
_exptl_crystal_description       platelet
_cell_formula_units_Z            4
loop_
_atom_site_label
_atom_site_type_symbol
_atom_site_fract_x
_atom_site_fract_y
_atom_site_fract_z
O1 O -0.3830(2) -0.39525(17) -0.20064(17)
O2 O 0.0695(2) -0.45457(17) -0.24670(18)
O3 O -0.3536(2) -0.55185(18) -0.23672(17)
O4 O 0.1189(2) -0.59680(17) 0.02573(17)
N1 N -0.1933(3) -0.3127(2) -0.2111(2)
C1 C -0.2602(3) -0.3856(2) -0.2133(2)
C2 C -0.1727(3) -0.4555(2) -0.2319(2)
C3 C -0.0384(3) -0.4191(2) -0.2374(2)
C4 C -0.0513(4) -0.3240(2) -0.2258(2)
C5 C 0.0544(4) -0.2889(2) -0.1467(2)
C6 C -0.2211(3) -0.5368(2) -0.2408(2)
C7 C -0.1407(3) -0.6129(2) -0.2596(2)
C8 C -0.2069(3) -0.6484(2) -0.3576(2)
C9 C -0.1522(4) -0.7341(2) -0.3751(2)
C10 C -0.0767(4) -0.7799(2) -0.3095(2)
C11 C -0.0344(3) -0.7528(2) -0.2095(2)
C12 C 0.1177(3) -0.7268(2) -0.1882(2)
C13 C 0.1677(3) -0.6967(2) -0.0881(2)
C14 C 0.0725(3) -0.6253(2) -0.0675(2)
C15 C -0.0802(3) -0.6573(2) -0.0825(2)
C16 C -0.1311(3) -0.6831(2) -0.1850(2)
C17 C -0.1986(3) -0.5829(2) -0.4334(2)
C18 C -0.0524(3) -0.5613(2) -0.4470(2)
C19 C -0.0497(4) -0.4821(2) -0.5037(2)
C20 C -0.1911(4) -0.7675(2) -0.4749(2)
C21 C 0.3188(3) -0.6707(2) -0.0739(2)
C22 C -0.1729(3) -0.5989(2) -0.0379(2)
C23 C -0.3154(3) -0.6366(2) -0.0352(2)
H1 H -0.0410 -0.2951 -0.2847
H2 H -0.0443 -0.5941 -0.2619
H3 H -0.3077 -0.6562 -0.3572
H4 H -0.0445 -0.8031 -0.1700
H5 H 0.0779 -0.5772 -0.1109
H6 H -0.2255 -0.7084 -0.1902
H7 H 0.3745 -0.7187 -0.0880
H8 H 0.3508 -0.6532 -0.0093
H9 H 0.3288 -0.6235 -0.1153
H10 H 0.0413 -0.2276 -0.1424
H11 H 0.1478 -0.3004 -0.1578
H12 H 0.0428 -0.3158 -0.0885
H13 H -0.3697 -0.5960 -0.0065
H14 H -0.3040 -0.6890 0.0012
H15 H -0.3638 -0.6490 -0.0986
H16 H 0.1321 -0.6807 -0.2311
H17 H 0.1749 -0.7756 -0.2002
H18 H -0.0466 -0.8339 -0.3263
H19 H -0.2522 -0.6043 -0.4930
H20 H -0.2439 -0.5301 -0.4182
H21 H 0.0086 -0.5536 -0.3855
H22 H -0.0155 -0.6091 -0.4785
H23 H 0.0455 -0.4706 -0.5111
H24 H -0.0840 -0.4344 -0.4719
H25 H -0.1089 -0.4898 -0.5649
H26 H -0.2476 -0.7253 -0.5139
H27 H -0.2440 -0.8202 -0.4753
H28 H -0.1066 -0.7785 -0.4990
H29 H 0.1596 -0.7450 -0.0455
H30 H -0.0758 -0.7114 -0.0466
H31 H -0.1856 -0.5450 -0.0729
H32 H -0.1255 -0.5858 0.0263
O5 O -0.7868(2) -0.91959(16) -0.09358(17)
O6 O -0.3224(2) -0.87293(16) -0.12595(17)
O7 O -0.7538(2) -0.93989(17) -0.26038(16)
O8 O -0.2923(2) -1.15104(15) -0.17716(16)
N2 N -0.5844(3) -0.8835(2) 0.0080(2)
C24 C -0.6587(3) -0.9019(2) -0.0752(2)
C25 C -0.5691(3) -0.9008(2) -0.1441(2)
C26 C -0.4298(3) -0.8804(2) -0.0964(2)
C27 C -0.4380(3) -0.8713(2) 0.0062(2)
C28 C -0.3463(4) -0.9364(3) 0.0659(2)
C29 C -0.6201(3) -0.9213(2) -0.2354(2)
C30 C -0.5405(3) -0.9251(2) -0.3115(2)
C31 C -0.5348(3) -1.0160(2) -0.3523(2)
C32 C -0.4847(3) -1.0907(2) -0.2850(2)
C33 C -0.3334(3) -1.0793(2) -0.2372(2)
C34 C -0.2382(3) -1.0726(2) -0.3077(2)
C35 C -0.2891(3) -1.0056(2) -0.3808(2)
C36 C -0.4427(3) -1.0128(2) -0.4253(2)
C37 C -0.4845(3) -0.9446(2) -0.4944(2)
C38 C -0.5584(3) -0.8767(2) -0.4807(2)
C39 C -0.6063(3) -0.8620(2) -0.3898(2)
C40 C -0.5815(3) -0.7696(2) -0.3544(2)
C41 C -0.7002(3) -0.7073(2) -0.3890(2)
C42 C -0.6648(4) -0.6184(2) -0.3518(3)
C43 C -0.5992(4) -0.8127(2) -0.5571(2)
C44 C -0.0890(3) -1.0547(3) -0.2606(2)
C45 C -0.5820(3) -1.1161(2) -0.2192(2)
C46 C -0.7216(4) -1.1467(3) -0.2676(3)
H33 H -0.6306 -1.0303 -0.3856
H34 H -0.3247 -1.0265 -0.1988
H35 H -0.7086 -0.8718 -0.4019
H36 H -0.6536 -0.7675 -0.5355
H37 H -0.6549 -0.8404 -0.6114
H38 H -0.5157 -0.7886 -0.5739
H39 H -0.0571 -1.0989 -0.2145
H40 H -0.0840 -0.9996 -0.2296
H41 H -0.0298 -1.0543 -0.3072
H42 H -0.4090 -0.8129 0.0280
H43 H -0.4840 -1.1408 -0.3265
H44 H -0.2337 -1.0096 -0.4303
H45 H -0.2723 -0.9491 -0.3518
H46 H -0.5370 -1.1613 -0.1773
H47 H -0.5950 -1.0666 -0.1804
H48 H -0.4565 -0.9497 -0.5526
H49 H -0.4435 -0.9063 -0.2863
H50 H -0.4550 -1.0677 -0.4597
H51 H -0.5641 -0.7703 -0.2857
H52 H -0.4965 -0.7481 -0.3733
H53 H -0.7189 -0.7060 -0.4577
H54 H -0.7853 -0.7270 -0.3688
H55 H -0.7424 -0.5803 -0.3749
H56 H -0.5817 -0.5983 -0.3729
H57 H -0.6474 -0.6194 -0.2838
H58 H -0.7775 -1.1614 -0.2213
H59 H -0.7103 -1.1968 -0.3048
H60 H -0.7682 -1.1020 -0.3082
H61 H -0.3534 -0.9289 0.1311
H62 H -0.2498 -0.9285 0.0593
H63 H -0.3769 -0.9936 0.0455
H64 H -0.2399 -1.1284 -0.3401
O9 O 0.0473(2) -0.43181(18) 0.03393(17)
loop_
_geom_bond_atom_site_label_1
_geom_bond_atom_site_label_2
_geom_bond_site_symmetry_1
_geom_bond_site_symmetry_2
O1 C1 1_555 1_555
O2 C3 1_555 1_555
O3 C6 1_555 1_555
O4 C14 1_555 1_555
N1 C1 1_555 1_555
C1 C2 1_555 1_555
C2 C3 1_555 1_555
C3 C4 1_555 1_555
C4 N1 1_555 1_555
C5 C4 1_555 1_555
C6 C2 1_555 1_555
C7 C6 1_555 1_555
C8 C7 1_555 1_555
C9 C8 1_555 1_555
C10 C9 1_555 1_555
C11 C10 1_555 1_555
C12 C11 1_555 1_555
C13 C12 1_555 1_555
C14 C13 1_555 1_555
C15 C14 1_555 1_555
C16 C7 1_555 1_555
C17 C8 1_555 1_555
C18 C17 1_555 1_555
C19 C18 1_555 1_555
C20 C9 1_555 1_555
C21 C13 1_555 1_555
C22 C15 1_555 1_555
C23 C22 1_555 1_555
H1 C4 1_555 1_555
H2 C7 1_555 1_555
H3 C8 1_555 1_555
H4 C11 1_555 1_555
H5 C14 1_555 1_555
H6 C16 1_555 1_555
H7 C21 1_555 1_555
H8 C21 1_555 1_555
H9 C21 1_555 1_555
H10 C5 1_555 1_555
H11 C5 1_555 1_555
H12 C5 1_555 1_555
H13 C23 1_555 1_555
H14 C23 1_555 1_555
H15 C23 1_555 1_555
H16 C12 1_555 1_555
H17 C12 1_555 1_555
H18 C10 1_555 1_555
H19 C17 1_555 1_555
H20 C17 1_555 1_555
H21 C18 1_555 1_555
H22 C18 1_555 1_555
H23 C19 1_555 1_555
H24 C19 1_555 1_555
H25 C19 1_555 1_555
H26 C20 1_555 1_555
H27 C20 1_555 1_555
H28 C20 1_555 1_555
H29 C13 1_555 1_555
H30 C15 1_555 1_555
H31 C22 1_555 1_555
H32 C22 1_555 1_555
O5 C24 1_555 1_555
O6 C26 1_555 1_555
O7 C29 1_555 1_555
O8 C33 1_555 1_555
N2 C24 1_555 1_555
C24 C25 1_555 1_555
C25 C26 1_555 1_555
C26 C27 1_555 1_555
C27 N2 1_555 1_555
C28 C27 1_555 1_555
C29 C25 1_555 1_555
C30 C29 1_555 1_555
C31 C30 1_555 1_555
C32 C31 1_555 1_555
C33 C32 1_555 1_555
C34 C33 1_555 1_555
C35 C34 1_555 1_555
C36 C31 1_555 1_555
C37 C36 1_555 1_555
C38 C37 1_555 1_555
C39 C30 1_555 1_555
C40 C39 1_555 1_555
C41 C40 1_555 1_555
C42 C41 1_555 1_555
C43 C38 1_555 1_555
C44 C34 1_555 1_555
C45 C32 1_555 1_555
C46 C45 1_555 1_555
H33 C31 1_555 1_555
H34 C33 1_555 1_555
H35 C39 1_555 1_555
H36 C43 1_555 1_555
H37 C43 1_555 1_555
H38 C43 1_555 1_555
H39 C44 1_555 1_555
H40 C44 1_555 1_555
H41 C44 1_555 1_555
H42 C27 1_555 1_555
H43 C32 1_555 1_555
H44 C35 1_555 1_555
H45 C35 1_555 1_555
H46 C45 1_555 1_555
H47 C45 1_555 1_555
H48 C37 1_555 1_555
H49 C30 1_555 1_555
H50 C36 1_555 1_555
H51 C40 1_555 1_555
H52 C40 1_555 1_555
H53 C41 1_555 1_555
H54 C41 1_555 1_555
H55 C42 1_555 1_555
H56 C42 1_555 1_555
H57 C42 1_555 1_555
H58 C46 1_555 1_555
H59 C46 1_555 1_555
H60 C46 1_555 1_555
H61 C28 1_555 1_555
H62 C28 1_555 1_555
H63 C28 1_555 1_555
H64 C34 1_555 1_555
C11 C16 1_555 1_555
C15 C16 1_555 1_555
C35 C36 1_555 1_555
C38 C39 1_555 1_555

#END
