
#######################################################################
#
#                 Cambridge Crystallographic Data Centre
#                                CCDC 
#
#######################################################################
#
# If this CIF has been generated from an entry in the Cambridge 
# Structural Database, then it will include bibliographic, chemical, 
# crystal, experimental, refinement or atomic coordinate data resulting 
# from the CCDC's data processing and validation procedures.
#
#######################################################################

data_POLJAD
_chemical_formula_moiety         'C13 H12 N2 O3'
_chemical_name_systematic        N'-(2-Furylmethylene)-4-methoxybenzohydrazide
_symmetry_cell_setting           rhombohedral
_symmetry_space_group_name_H-M   'R -3'
_symmetry_Int_Tables_number      148
_space_group_name_Hall           '-R 3'
loop_
_symmetry_equiv_pos_site_id
_symmetry_equiv_pos_as_xyz
1 x,y,z
2 -y,x-y,z
3 -x+y,-x,z
4 2/3+x,1/3+y,1/3+z
5 2/3-y,1/3+x-y,1/3+z
6 2/3-x+y,1/3-x,1/3+z
7 1/3+x,2/3+y,2/3+z
8 1/3-y,2/3+x-y,2/3+z
9 1/3-x+y,2/3-x,2/3+z
10 -x,-y,-z
11 y,-x+y,-z
12 x-y,x,-z
13 1/3-x,2/3-y,2/3-z
14 1/3+y,2/3-x+y,2/3-z
15 1/3+x-y,2/3+x,2/3-z
16 2/3-x,1/3-y,1/3-z
17 2/3+y,1/3-x+y,1/3-z
18 2/3+x-y,1/3+x,1/3-z
_cell_length_a                   24.42(2)
_cell_length_b                   24.42(2)
_cell_length_c                   11.354(10)
_cell_angle_alpha                90
_cell_angle_beta                 90
_cell_angle_gamma                120
_cell_volume                     5863.69
_cell_formula_units_Z            18
loop_
_atom_site_label
_atom_site_type_symbol
_atom_site_fract_x
_atom_site_fract_y
_atom_site_fract_z
O1 O 0.37097(11) 0.23948(11) 0.40409(19)
C1 C 0.3844(2) 0.1947(2) 0.4397(6)
H1 H 0.3798 0.1794 0.5163
C2 C 0.4045(2) 0.1762(2) 0.3510(5)
H2 H 0.4179 0.1467 0.3545
C3 C 0.4028(2) 0.20980(19) 0.2417(4)
H3 H 0.4127 0.2055 0.1644
C4 C 0.38275(13) 0.24821(13) 0.2868(2)
O2 O 0.28252(11) 0.54890(10) -0.1078(2)
O3 O 0.28757(9) 0.38449(9) 0.32315(14)
N1 N 0.34352(9) 0.36451(9) 0.18864(15)
H4 H 0.3598 0.3712 0.1193
N2 N 0.34989(9) 0.32416(9) 0.26534(15)
C5 C 0.28811(12) 0.51209(13) -0.0233(3)
C6 C 0.25227(14) 0.49122(14) 0.0785(3)
H5 H 0.2220 0.5028 0.0943
C7 C 0.26149(13) 0.45312(13) 0.1568(2)
H6 H 0.2372 0.4393 0.2250
C8 C 0.30608(11) 0.43534(11) 0.13538(19)
C9 C 0.34247(11) 0.45741(11) 0.03295(19)
H7 H 0.3731 0.4463 0.0176
C10 C 0.33369(12) 0.49527(12) -0.0456(2)
H8 H 0.3582 0.5096 -0.1134
C11 C 0.31145(11) 0.39316(11) 0.22417(19)
C12 C 0.37191(13) 0.29180(13) 0.2192(2)
H9 H 0.3813 0.2964 0.1392
C13 C 0.2336(2) 0.5643(2) -0.0927(5)
H10 H 0.1950 0.5269 -0.0711
H11 H 0.2275 0.5808 -0.1651
H12 H 0.2455 0.5954 -0.0317
loop_
_geom_bond_atom_site_label_1
_geom_bond_atom_site_label_2
_geom_bond_site_symmetry_1
_geom_bond_site_symmetry_2
O1 C1 1_555 1_555
C1 H1 1_555 1_555
C2 C1 1_555 1_555
H2 C2 1_555 1_555
C3 C2 1_555 1_555
H3 C3 1_555 1_555
C4 O1 1_555 1_555
O2 C5 1_555 1_555
O3 C11 1_555 1_555
N1 H4 1_555 1_555
N2 N1 1_555 1_555
C5 C6 1_555 1_555
C6 H5 1_555 1_555
C7 C6 1_555 1_555
H6 C7 1_555 1_555
C8 C7 1_555 1_555
C9 C8 1_555 1_555
H7 C9 1_555 1_555
C10 C5 1_555 1_555
H8 C10 1_555 1_555
C11 N1 1_555 1_555
C12 C4 1_555 1_555
H9 C12 1_555 1_555
C13 O2 1_555 1_555
H10 C13 1_555 1_555
H11 C13 1_555 1_555
H12 C13 1_555 1_555
C3 C4 1_555 1_555
N2 C12 1_555 1_555
C8 C11 1_555 1_555
C9 C10 1_555 1_555

#END
