
#######################################################################
#
#                 Cambridge Crystallographic Data Centre
#                                CCDC 
#
#######################################################################
#
# If this CIF has been generated from an entry in the Cambridge 
# Structural Database, then it will include bibliographic, chemical, 
# crystal, experimental, refinement or atomic coordinate data resulting 
# from the CCDC's data processing and validation procedures.
#
#######################################################################

data_POLLUZ
_chemical_formula_moiety         'C18 H16 N2 O1,C6 H6 O2'
_chemical_name_systematic        
'2,6-bis(pyridin-4-ylmethylene)cyclohexanone benzene-1,3-diol'
_symmetry_cell_setting           triclinic
_symmetry_space_group_name_H-M   'P -1'
_symmetry_Int_Tables_number      2
_space_group_name_Hall           '-P 1'
loop_
_symmetry_equiv_pos_site_id
_symmetry_equiv_pos_as_xyz
1 x,y,z
2 -x,-y,-z
_cell_length_a                   9.192(3)
_cell_length_b                   10.047(3)
_cell_length_c                   11.495(3)
_cell_angle_alpha                90.089(4)
_cell_angle_beta                 94.477(4)
_cell_angle_gamma                112.603(5)
_cell_volume                     976.481
_exptl_crystal_colour            yellow
_exptl_crystal_description       block
_cell_formula_units_Z            2
loop_
_atom_site_label
_atom_site_type_symbol
_atom_site_fract_x
_atom_site_fract_y
_atom_site_fract_z
C1 C 0.5541(3) 0.4229(3) 1.35080(18)
H1 H 0.5258 0.4893 1.3898
C2 C 0.4517(3) 0.3413(2) 1.26047(16)
H2 H 0.3583 0.3541 1.2389
C3 C 0.4896(2) 0.2394(2) 1.20174(16)
C4 C 0.6324(3) 0.2284(3) 1.23876(19)
H3 H 0.6634 0.1620 1.2023
C5 C 0.7269(3) 0.3160(3) 1.32919(19)
H4 H 0.8219 0.3070 1.3522
C6 C 0.3858(2) 0.1413(2) 1.10793(16)
H5 H 0.3863 0.0490 1.1056
C7 C 0.2907(2) 0.1681(2) 1.02561(16)
C8 C 0.1932(2) 0.0463(2) 0.94153(16)
C9 C 0.0918(2) 0.0737(2) 0.84281(16)
C10 C 0.0937(3) 0.2233(2) 0.83161(18)
H6 H 0.0079 0.2304 0.8720
H7 H 0.0757 0.2408 0.7498
C11 C 0.2479(3) 0.3375(2) 0.88129(18)
H8 H 0.2434 0.4320 0.8732
H9 H 0.3334 0.3350 0.8381
C12 C 0.2799(3) 0.3126(2) 1.00938(18)
H10 H 0.3783 0.3880 1.0404
H11 H 0.1957 0.3176 1.0527
C13 C 0.0098(2) -0.0385(2) 0.77111(17)
H12 H 0.0235 -0.1234 0.7891
C14 C -0.0987(2) -0.0491(2) 0.66814(16)
C15 C -0.1183(3) -0.1516(2) 0.58116(19)
H13 H -0.0624 -0.2115 0.5887
C16 C -0.2200(3) -0.1650(3) 0.4839(2)
H14 H -0.2310 -0.2351 0.4272
C17 C -0.1886(3) 0.0344(3) 0.65148(19)
H15 H -0.1820 0.1040 0.7074
C18 C -0.2876(3) 0.0124(3) 0.5506(2)
H16 H -0.3473 0.0688 0.5412
N1 N 0.6904(2) 0.4137(2) 1.38624(15)
N2 N -0.3037(2) -0.0835(2) 0.46590(16)
O1 O 0.1922(2) -0.07386(16) 0.95539(13)
C19 C 0.8030(2) 0.4417(2) 0.68669(17)
C20 C 0.6594(2) 0.3261(2) 0.67167(16)
H17 H 0.6059 0.3016 0.5978
C21 C 0.5948(2) 0.2466(2) 0.76636(16)
C22 C 0.6738(3) 0.2824(2) 0.87637(17)
H18 H 0.6312 0.2289 0.9402
C23 C 0.8157(3) 0.3979(3) 0.88996(17)
H19 H 0.8688 0.4226 0.9640
C24 C 0.8816(3) 0.4783(2) 0.79684(18)
H20 H 0.9780 0.5564 0.8079
O2 O 0.8713(2) 0.52182(17) 0.59609(13)
H21 H 0.8134 0.4915 0.5359
O3 O 0.4556(2) 0.13042(19) 0.75555(14)
H22 H 0.4168 0.1215 0.6879
loop_
_geom_bond_atom_site_label_1
_geom_bond_atom_site_label_2
_geom_bond_site_symmetry_1
_geom_bond_site_symmetry_2
C1 H1 1_555 1_555
C2 C1 1_555 1_555
H2 C2 1_555 1_555
C3 C2 1_555 1_555
C4 C3 1_555 1_555
H3 C4 1_555 1_555
C5 C4 1_555 1_555
H4 C5 1_555 1_555
C6 C3 1_555 1_555
H5 C6 1_555 1_555
C7 C6 1_555 1_555
C8 C7 1_555 1_555
C9 C8 1_555 1_555
C10 C9 1_555 1_555
H6 C10 1_555 1_555
H7 C10 1_555 1_555
C11 C10 1_555 1_555
H8 C11 1_555 1_555
H9 C11 1_555 1_555
C12 C7 1_555 1_555
H10 C12 1_555 1_555
H11 C12 1_555 1_555
C13 C9 1_555 1_555
H12 C13 1_555 1_555
C14 C13 1_555 1_555
C15 C14 1_555 1_555
H13 C15 1_555 1_555
C16 C15 1_555 1_555
H14 C16 1_555 1_555
C17 C14 1_555 1_555
H15 C17 1_555 1_555
C18 C17 1_555 1_555
H16 C18 1_555 1_555
N1 C1 1_555 1_555
N2 C16 1_555 1_555
O1 C8 1_555 1_555
C19 C20 1_555 1_555
C20 H17 1_555 1_555
C21 C20 1_555 1_555
C22 C21 1_555 1_555
H18 C22 1_555 1_555
C23 C22 1_555 1_555
H19 C23 1_555 1_555
C24 C19 1_555 1_555
H20 C24 1_555 1_555
O2 C19 1_555 1_555
H21 O2 1_555 1_555
O3 C21 1_555 1_555
H22 O3 1_555 1_555
C5 N1 1_555 1_555
C11 C12 1_555 1_555
C18 N2 1_555 1_555
C23 C24 1_555 1_555

#END
