
#######################################################################
#
#                 Cambridge Crystallographic Data Centre
#                                CCDC 
#
#######################################################################
#
# If this CIF has been generated from an entry in the Cambridge 
# Structural Database, then it will include bibliographic, chemical, 
# crystal, experimental, refinement or atomic coordinate data resulting 
# from the CCDC's data processing and validation procedures.
#
#######################################################################

data_POLNEL
_chemical_formula_moiety         'C30 H30 N2 O8'
_chemical_name_systematic        
"tetramethyl 4,8-diphenyl-1,5,8,8b-tetrahydropyrido[2',3':3,4]cyclobuta[1,2-b]pyridine-3,4a,7,8a(4H,4bH)-tetracarboxylate unknown solvate"
_symmetry_cell_setting           monoclinic
_symmetry_space_group_name_H-M   'P 21/c'
_symmetry_Int_Tables_number      14
_space_group_name_Hall           '-P 2ybc'
loop_
_symmetry_equiv_pos_site_id
_symmetry_equiv_pos_as_xyz
1 x,y,z
2 -x,1/2+y,1/2-z
3 -x,-y,-z
4 x,1/2-y,1/2+z
_cell_length_a                   15.5551(14)
_cell_length_b                   12.8620(11)
_cell_length_c                   21.5712(19)
_cell_angle_alpha                90
_cell_angle_beta                 128.902(2)
_cell_angle_gamma                90
_cell_volume                     3358.6
_exptl_crystal_colour            colorless
_cell_formula_units_Z            4
_chemical_properties_physical    Photo-sensitive
loop_
_atom_site_label
_atom_site_type_symbol
_atom_site_fract_x
_atom_site_fract_y
_atom_site_fract_z
N1 N 0.0997(3) 0.8461(3) 0.1466(2)
H1 H 0.0940 0.9063 0.1611
N2 N 0.1948(3) 0.6529(3) 0.0522(2)
H2 H 0.2111 0.5929 0.0447
O1 O 0.3197(2) 0.5357(3) 0.24711(17)
O2 O 0.3477(3) 0.6711(3) 0.3218(2)
O3 O -0.1814(3) 0.7048(3) -0.0361(2)
O4 O -0.1079(3) 0.5458(3) 0.00113(19)
O5 O 0.3588(2) 0.9625(3) 0.21245(18)
O6 O 0.4553(3) 0.8241(3) 0.2242(2)
O7 O -0.0791(3) 0.7953(3) -0.1349(2)
O8 O -0.0199(3) 0.9547(3) -0.08306(18)
C1 C 0.2072(4) 0.8016(3) 0.1838(3)
H3 H 0.2604 0.8250 0.2391
C2 C 0.2122(4) 0.6817(3) 0.1785(2)
C3 C 0.1027(3) 0.6212(3) 0.1363(2)
H4 H 0.1028 0.5648 0.1058
C4 C 0.0029(4) 0.6894(4) 0.0778(3)
C5 C 0.0082(4) 0.7929(4) 0.0891(3)
H5 H -0.0566 0.8307 0.0543
C6 C 0.2601(4) 0.6975(3) 0.1314(3)
H6 H 0.3368 0.6735 0.1636
C7 C 0.2556(3) 0.8173(3) 0.1382(2)
C8 C 0.1839(3) 0.8774(3) 0.0587(2)
H7 H 0.1471 0.9332 0.0650
C9 C 0.0942(4) 0.8110(4) -0.0099(2)
C10 C 0.1085(4) 0.7066(4) -0.0092(3)
H8 H 0.0542 0.6695 -0.0548
C11 C 0.3006(4) 0.6328(4) 0.2585(3)
C12 C 0.3933(4) 0.4731(4) 0.3173(3)
H9 H 0.4625 0.5086 0.3535
H10 H 0.4055 0.4076 0.3026
H11 H 0.3611 0.4613 0.3428
C13 C -0.0974(4) 0.6395(4) 0.0133(3)
C14 C -0.2835(4) 0.6599(4) -0.1039(3)
H12 H -0.2685 0.6124 -0.1304
H13 H -0.3316 0.7141 -0.1401
H14 H -0.3185 0.6232 -0.0863
C15 C 0.0917(4) 0.5725(4) 0.1949(3)
C16 C 0.0964(4) 0.4664(4) 0.2045(3)
H15 H 0.1057 0.4236 0.1744
C17 C 0.0872(5) 0.4229(5) 0.2596(4)
H16 H 0.0893 0.3510 0.2652
C18 C 0.0753(5) 0.4833(6) 0.3043(4)
H17 H 0.0711 0.4537 0.3417
C19 C 0.0692(4) 0.5890(6) 0.2946(3)
H18 H 0.0600 0.6319 0.3248
C20 C 0.0769(4) 0.6309(5) 0.2398(3)
H19 H 0.0716 0.7027 0.2331
C21 C 0.3680(4) 0.8650(4) 0.1955(3)
C22 C 0.4584(4) 1.0215(4) 0.2675(3)
H20 H 0.4956 0.9960 0.3206
H21 H 0.4401 1.0935 0.2649
H22 H 0.5060 1.0144 0.2537
C23 C -0.0029(4) 0.8612(4) -0.0767(3)
C24 C -0.1806(4) 0.8396(5) -0.2032(3)
H23 H -0.2178 0.8742 -0.1866
H24 H -0.2270 0.7854 -0.2403
H25 H -0.1647 0.8888 -0.2283
C25 C 0.2508(4) 0.9294(4) 0.0371(3)
C26 C 0.2602(4) 1.0354(4) 0.0389(3)
H26 H 0.2298 1.0756 0.0567
C27 C 0.3141(5) 1.0840(5) 0.0148(3)
H27 H 0.3205 1.1561 0.0171
C28 C 0.3574(5) 1.0270(5) -0.0122(3)
H28 H 0.3923 1.0598 -0.0295
C29 C 0.3500(4) 0.9202(5) -0.0141(3)
H29 H 0.3804 0.8804 -0.0321
C30 C 0.2968(4) 0.8733(4) 0.0109(3)
H30 H 0.2922 0.8011 0.0098
loop_
_geom_bond_atom_site_label_1
_geom_bond_atom_site_label_2
_geom_bond_site_symmetry_1
_geom_bond_site_symmetry_2
N1 H1 1_555 1_555
N2 H2 1_555 1_555
O1 C11 1_555 1_555
O2 C11 1_555 1_555
O3 C13 1_555 1_555
O4 C13 1_555 1_555
O5 C21 1_555 1_555
O6 C21 1_555 1_555
O7 C23 1_555 1_555
O8 C23 1_555 1_555
C1 N1 1_555 1_555
H3 C1 1_555 1_555
C2 C1 1_555 1_555
C3 C2 1_555 1_555
H4 C3 1_555 1_555
C4 C3 1_555 1_555
C5 N1 1_555 1_555
H5 C5 1_555 1_555
C6 N2 1_555 1_555
H6 C6 1_555 1_555
C7 C1 1_555 1_555
C8 C7 1_555 1_555
H7 C8 1_555 1_555
C9 C8 1_555 1_555
C10 N2 1_555 1_555
H8 C10 1_555 1_555
C11 C2 1_555 1_555
C12 O1 1_555 1_555
H9 C12 1_555 1_555
H10 C12 1_555 1_555
H11 C12 1_555 1_555
C13 C4 1_555 1_555
C14 O3 1_555 1_555
H12 C14 1_555 1_555
H13 C14 1_555 1_555
H14 C14 1_555 1_555
C15 C3 1_555 1_555
C16 C15 1_555 1_555
H15 C16 1_555 1_555
C17 C16 1_555 1_555
H16 C17 1_555 1_555
C18 C17 1_555 1_555
H17 C18 1_555 1_555
C19 C18 1_555 1_555
H18 C19 1_555 1_555
C20 C15 1_555 1_555
H19 C20 1_555 1_555
C21 C7 1_555 1_555
C22 O5 1_555 1_555
H20 C22 1_555 1_555
H21 C22 1_555 1_555
H22 C22 1_555 1_555
C23 C9 1_555 1_555
C24 O7 1_555 1_555
H23 C24 1_555 1_555
H24 C24 1_555 1_555
H25 C24 1_555 1_555
C25 C8 1_555 1_555
C26 C25 1_555 1_555
H26 C26 1_555 1_555
C27 C26 1_555 1_555
H27 C27 1_555 1_555
C28 C27 1_555 1_555
H28 C28 1_555 1_555
C29 C28 1_555 1_555
H29 C29 1_555 1_555
C30 C25 1_555 1_555
H30 C30 1_555 1_555
C2 C6 1_555 1_555
C4 C5 1_555 1_555
C6 C7 1_555 1_555
C9 C10 1_555 1_555
C19 C20 1_555 1_555
C29 C30 1_555 1_555

#END
