
#######################################################################
#
#                 Cambridge Crystallographic Data Centre
#                                CCDC 
#
#######################################################################
#
# If this CIF has been generated from an entry in the Cambridge 
# Structural Database, then it will include bibliographic, chemical, 
# crystal, experimental, refinement or atomic coordinate data resulting 
# from the CCDC's data processing and validation procedures.
#
#######################################################################

data_POLQOW
_chemical_formula_moiety         'C12 H8 N5 O4 S4 1+,As1 F6 1-'
_chemical_name_systematic        
'1,7-bis(p-Nitrophenyl)-1-thionia-3,5,7-trithia-2,4,6-triazahepta-1,4,5-triene hexafluoroarsenate'
_symmetry_cell_setting           monoclinic
_symmetry_space_group_name_H-M   'P 21/c'
_symmetry_Int_Tables_number      14
_space_group_name_Hall           '-P 2ybc'
loop_
_symmetry_equiv_pos_site_id
_symmetry_equiv_pos_as_xyz
1 x,y,z
2 -x,1/2+y,1/2-z
3 -x,-y,-z
4 x,1/2-y,1/2+z
_cell_length_a                   6.1490(12)
_cell_length_b                   17.723(4)
_cell_length_c                   18.967(4)
_cell_angle_alpha                90
_cell_angle_beta                 87.99(3)
_cell_angle_gamma                90
_cell_volume                     2065.73
_exptl_crystal_colour            golden
_cell_formula_units_Z            4
_exptl_crystal_recrystallization_method 'liquid sulfur dioxide'
loop_
_atom_site_label
_atom_site_type_symbol
_atom_site_fract_x
_atom_site_fract_y
_atom_site_fract_z
S1 S 0.3687(4) 0.8585(2) 0.3018(1)
S2 S 0.0403(4) 0.9585(2) 0.3502(1)
S3 S 0.3572(4) 0.8657(2) 0.1560(1)
S4 S -0.1910(4) 0.9994(2) 0.2312(1)
C1 C -0.4270(14) 1.0569(5) 0.2310(5)
O1 O 1.0563(12) 0.6821(4) -0.0566(4)
N1 N 0.4596(12) 0.8337(5) 0.2278(4)
N2 N 0.8705(15) 0.7023(5) -0.0678(5)
N3 N -0.1439(12) 1.0018(5) 0.3148(4)
N4 N 0.1731(11) 0.9158(4) 0.2872(4)
O2 O 0.7822(11) 0.6916(4) -0.1238(4)
C2 C -0.7036(16) 1.1306(6) 0.2893(5)
C3 C 0.5438(16) 0.7698(6) -0.0254(5)
C4 C 0.4303(16) 0.8081(6) 0.0275(5)
O3 O -1.0919(12) 1.1881(5) 0.1676(5)
C5 C -0.7962(14) 1.1402(5) 0.2258(5)
C6 C 0.7461(15) 0.7429(5) -0.0120(5)
C7 C 0.5203(15) 0.8171(5) 0.0923(5)
C8 C 0.8392(15) 0.7516(6) 0.0523(5)
C9 C 0.7264(16) 0.7910(6) 0.1056(5)
C10 C -0.7094(14) 1.1109(6) 0.1636(5)
O4 O -1.0629(14) 1.2164(6) 0.2768(5)
N5 N -0.9961(14) 1.1853(5) 0.2231(6)
C11 C -0.5153(16) 1.0880(6) 0.2926(5)
C12 C -0.5225(15) 1.0680(6) 0.1666(5)
As1 As 0.0000 0.0000 0.0000
F1 F -0.1017(34) -0.0176(9) 0.0830(8)
F2 F 0.0220(29) 0.0952(8) 0.0179(11)
F3 F 0.1962(45) -0.0238(17) 0.0576(18)
F1B F 0.1017(34) 0.0176(9) -0.0830(8)
F2B F -0.0220(29) -0.0952(8) -0.0179(11)
F3B F -0.1962(45) 0.0238(17) -0.0576(18)
As2 As 0.5000 0.5000 0.0000
F4 F 0.5363(10) 0.4526(4) 0.0776(3)
F5 F 0.2347(28) 0.5192(16) 0.0264(12)
F6 F 0.6861(35) 0.5649(11) 0.0291(11)
F4B F 0.4637(10) 0.5474(4) -0.0776(3)
F5B F 0.7653(28) 0.4808(16) -0.0264(12)
F6B F 0.3139(35) 0.4351(11) -0.0291(11)
F7? F 0.2579(25) -0.0133(10) 0.0284(12)
F8? F 0.0399(49) -0.0407(15) 0.0796(12)
F9? F -0.0714(57) 0.0823(19) 0.0371(31)
F10? F 0.2730(35) 0.0284(15) -0.0021(15)
F11? F -0.1926(46) -0.0366(16) 0.0629(16)
F12? F -0.0303(62) 0.0864(18) 0.0388(37)
F13? F -0.1100(61) 0.0605(20) 0.0668(26)
F14? F -0.0609(71) -0.0735(19) 0.0625(23)
F15? F 0.2472(52) 0.0089(26) 0.0397(35)
F16? F 0.5799(51) 0.5827(9) 0.0410(10)
F17? F 0.2912(34) 0.5513(13) 0.0408(8)
F18? F 0.4007(58) 0.5812(16) 0.0400(13)
F19? F 0.7558(39) 0.5391(19) -0.0065(17)
loop_
_geom_bond_atom_site_label_1
_geom_bond_atom_site_label_2
_geom_bond_site_symmetry_1
_geom_bond_site_symmetry_2
S1 N1 1_555 1_555
S2 N3 1_555 1_555
S3 N1 1_555 1_555
S4 C1 1_555 1_555
C1 C11 1_555 1_555
O1 N2 1_555 1_555
N2 O2 1_555 1_555
N3 S4 1_555 1_555
N4 S1 1_555 1_555
C2 C5 1_555 1_555
C3 C4 1_555 1_555
C4 C7 1_555 1_555
O3 N5 1_555 1_555
C5 C10 1_555 1_555
C6 N2 1_555 1_555
C7 S3 1_555 1_555
C8 C6 1_555 1_555
C9 C7 1_555 1_555
C10 C12 1_555 1_555
O4 N5 1_555 1_555
N5 C5 1_555 1_555
C11 C2 1_555 1_555
C12 C1 1_555 1_555
As1 F1 1_555 1_555
F2 As1 1_555 1_555
F3 As1 1_555 1_555
As2 F4 1_555 1_555
F5 As2 1_555 1_555
F6 As2 1_555 1_555
F1B As1 1_555 1_555
F2B As1 1_555 1_555
F3B As1 1_555 1_555
F4B As2 1_555 1_555
F5B As2 1_555 1_555
F6B As2 1_555 1_555
S2 N4 1_555 1_555
C3 C6 1_555 1_555
C8 C9 1_555 1_555

#END
