
#######################################################################
#
#                 Cambridge Crystallographic Data Centre
#                                CCDC 
#
#######################################################################
#
# If this CIF has been generated from an entry in the Cambridge 
# Structural Database, then it will include bibliographic, chemical, 
# crystal, experimental, refinement or atomic coordinate data resulting 
# from the CCDC's data processing and validation procedures.
#
#######################################################################

data_POLWUK
_chemical_formula_moiety         'C15 H8 N10 O10'
_chemical_name_systematic        
4,6-Dinitro-N'-(2,4,6-trinitrobenzylidene)-1H-indazole-1-carbohydrazonamide
_symmetry_cell_setting           orthorhombic
_symmetry_space_group_name_H-M   'A b a 2'
_symmetry_Int_Tables_number      41
_space_group_name_Hall           'A 2 -2ab'
loop_
_symmetry_equiv_pos_site_id
_symmetry_equiv_pos_as_xyz
1 x,y,z
2 1/2-x,1/2+y,z
3 1/2+x,1/2-y,z
4 -x,-y,z
5 x,1/2+y,1/2+z
6 1/2-x,y,1/2+z
7 1/2+x,-y,1/2+z
8 -x,1/2-y,1/2+z
_cell_length_a                   24.962(3)
_cell_length_b                   16.401(2)
_cell_length_c                   9.4116(10)
_cell_angle_alpha                90
_cell_angle_beta                 90
_cell_angle_gamma                90
_cell_volume                     3853.13
_exptl_crystal_colour            colorless
_exptl_crystal_description       prism
_cell_formula_units_Z            8
loop_
_atom_site_label
_atom_site_type_symbol
_atom_site_fract_x
_atom_site_fract_y
_atom_site_fract_z
O1 O 0.36370(18) 0.4587(3) 0.5650(4)
O2 O 0.31269(18) 0.5646(3) 0.5683(5)
O3 O 0.29562(17) 0.6424(3) 1.2077(5)
O4 O 0.26759(18) 0.6944(3) 1.0120(5)
O5 O 0.54892(16) 0.1689(3) 0.9895(4)
O6 O 0.61582(19) 0.2335(3) 1.0830(5)
O7 O 0.7488(4) 0.0930(7) 0.7279(7)
O8 O 0.7372(2) 0.1191(4) 0.5116(6)
O9 O 0.5860(2) 0.2880(4) 0.3696(5)
O10 O 0.56832(19) 0.3844(3) 0.5178(5)
N1 N 0.4209(2) 0.4709(3) 1.2219(5)
N2 N 0.43093(16) 0.4477(3) 1.0828(5)
N3 N 0.34172(19) 0.5146(3) 0.6271(5)
N4 N 0.29416(18) 0.6443(3) 1.0784(6)
N5 N 0.5028(2) 0.3706(4) 1.1689(6)
N6 N 0.48520(17) 0.3839(3) 0.9211(5)
N7 N 0.53226(17) 0.3379(3) 0.9053(5)
N8 N 0.59113(18) 0.2065(3) 0.9824(5)
N9 N 0.7266(2) 0.1282(4) 0.6351(6)
N10 N 0.58616(19) 0.3169(4) 0.4901(5)
C1 C 0.3816(2) 0.5236(4) 1.2152(6)
H1 H 0.3665 0.5501 1.2956
C2 C 0.3638(2) 0.5366(3) 1.0715(6)
C3 C 0.39642(18) 0.4849(3) 0.9877(6)
C4 C 0.3903(2) 0.4757(3) 0.8420(6)
H2 H 0.4119 0.4395 0.7878
C5 C 0.3507(2) 0.5225(4) 0.7817(6)
C6 C 0.3190(2) 0.5791(3) 0.8555(6)
H3 H 0.2937 0.6123 0.8073
C7 C 0.3261(2) 0.5847(3) 1.0000(6)
C8 C 0.47633(19) 0.3981(3) 1.0551(6)
C9 C 0.5392(2) 0.3156(3) 0.7762(6)
H4 H 0.5138 0.3297 0.7051
C10 C 0.5870(2) 0.2680(3) 0.7403(5)
C11 C 0.61423(19) 0.2188(3) 0.8385(5)
C12 C 0.6599(2) 0.1752(4) 0.8104(6)
H5 H 0.6777 0.1452 0.8826
C13 C 0.6788(2) 0.1769(4) 0.6719(6)
C14 C 0.6544(2) 0.2215(3) 0.5662(6)
H6 H 0.6677 0.2211 0.4716
C15 C 0.6098(2) 0.2668(3) 0.6031(5)
H7 H 0.529(3) 0.340(5) 1.160(8)
H8 H 0.493(3) 0.390(4) 1.256(9)
loop_
_geom_bond_atom_site_label_1
_geom_bond_atom_site_label_2
_geom_bond_site_symmetry_1
_geom_bond_site_symmetry_2
O1 N3 1_555 1_555
O2 N3 1_555 1_555
O3 N4 1_555 1_555
O4 N4 1_555 1_555
O5 N8 1_555 1_555
O6 N8 1_555 1_555
O7 N9 1_555 1_555
O8 N9 1_555 1_555
O9 N10 1_555 1_555
O10 N10 1_555 1_555
N1 N2 1_555 1_555
N2 C3 1_555 1_555
N3 C5 1_555 1_555
N4 C7 1_555 1_555
N5 C8 1_555 1_555
N6 N7 1_555 1_555
N7 C9 1_555 1_555
N8 C11 1_555 1_555
N9 C13 1_555 1_555
N10 C15 1_555 1_555
C1 N1 1_555 1_555
H1 C1 1_555 1_555
C2 C1 1_555 1_555
C3 C2 1_555 1_555
C4 C3 1_555 1_555
H2 C4 1_555 1_555
C5 C4 1_555 1_555
C6 C5 1_555 1_555
H3 C6 1_555 1_555
C7 C2 1_555 1_555
C8 N2 1_555 1_555
C9 H4 1_555 1_555
C10 C9 1_555 1_555
C11 C10 1_555 1_555
C12 C11 1_555 1_555
H5 C12 1_555 1_555
C13 C12 1_555 1_555
C14 C13 1_555 1_555
H6 C14 1_555 1_555
C15 C10 1_555 1_555
H7 N5 1_555 1_555
H8 N5 1_555 1_555
N6 C8 1_555 1_555
C6 C7 1_555 1_555
C14 C15 1_555 1_555

#END
