
#######################################################################
#
#                 Cambridge Crystallographic Data Centre
#                                CCDC 
#
#######################################################################
#
# If this CIF has been generated from an entry in the Cambridge 
# Structural Database, then it will include bibliographic, chemical, 
# crystal, experimental, refinement or atomic coordinate data resulting 
# from the CCDC's data processing and validation procedures.
#
#######################################################################

data_POLWOE
_chemical_formula_moiety         'C8 H8 N7 O6 1+,N1 O3 1-'
_chemical_name_systematic        
'N-(2,4,6-Trinitrobenzylideneamino)guanidin-2-ium nitrate'
_symmetry_cell_setting           monoclinic
_symmetry_space_group_name_H-M   'P 21/c'
_symmetry_Int_Tables_number      14
_space_group_name_Hall           '-P 2ybc'
loop_
_symmetry_equiv_pos_site_id
_symmetry_equiv_pos_as_xyz
1 x,y,z
2 -x,1/2+y,1/2-z
3 -x,-y,-z
4 x,1/2-y,1/2+z
_cell_length_a                   17.6205(13)
_cell_length_b                   10.4858(7)
_cell_length_c                   15.8252(10)
_cell_angle_alpha                90
_cell_angle_beta                 111.333(3)
_cell_angle_gamma                90
_cell_volume                     2723.6
_cell_formula_units_Z            8
loop_
_atom_site_label
_atom_site_type_symbol
_atom_site_fract_x
_atom_site_fract_y
_atom_site_fract_z
C1 C 0.28591(17) 0.9159(2) 0.20530(18)
C2 C 0.32467(16) 0.8912(2) 0.29836(17)
C3 C 0.27218(16) 0.8930(2) 0.34657(17)
C4 C 0.18958(16) 0.9158(2) 0.30846(18)
H1 H 0.1564 0.9152 0.3443
C5 C 0.15678(16) 0.9395(2) 0.21643(18)
C6 C 0.20355(17) 0.9415(2) 0.16394(18)
H2 H 0.1802 0.9600 0.1009
C7 C 0.41296(16) 0.8712(3) 0.34157(18)
H3 H 0.4471 0.8709 0.3069
C8 C 0.55459(16) 0.8208(3) 0.55878(18)
N1 N 0.33245(15) 0.9066(2) 0.14428(16)
N2 N 0.44230(13) 0.8541(2) 0.42735(14)
N3 N 0.52409(13) 0.8375(2) 0.46791(14)
H4 H 0.5560 0.8375 0.4362
N4 N 0.50640(14) 0.8225(2) 0.60527(15)
H5 H 0.5269 0.8141 0.6647
H6 H 0.4535 0.8319 0.5771
N5 N 0.63381(14) 0.8069(2) 0.59882(15)
H7 H 0.6556 0.7984 0.6581
H8 H 0.6651 0.8060 0.5663
N6 N 0.30208(13) 0.8642(2) 0.44457(15)
N7 N 0.06795(15) 0.9586(2) 0.17395(18)
O1 O 0.31704(14) 0.9840(2) 0.08268(14)
O2 O 0.38111(13) 0.8182(2) 0.15800(13)
O3 O 0.30616(12) 0.75146(19) 0.46524(12)
O4 O 0.31800(12) 0.9529(2) 0.49779(13)
O5 O 0.04042(13) 0.9849(2) 0.09325(14)
O6 O 0.02729(13) 0.9433(2) 0.22184(15)
C9 C 0.80946(16) 0.0652(2) 0.20070(18)
C10 C 0.84877(17) 0.0941(2) 0.29303(18)
C11 C 0.79822(17) 0.0850(2) 0.34362(17)
C12 C 0.71672(17) 0.0525(3) 0.30779(19)
H9 H 0.6848 0.0484 0.3449
C13 C 0.68348(17) 0.0262(3) 0.21675(19)
C14 C 0.72852(17) 0.0299(2) 0.16188(19)
H10 H 0.7048 0.0089 0.0993
C15 C 0.93528(16) 0.1287(3) 0.33278(18)
H11 H 0.9697 0.1187 0.2989
C16 C 1.07986(17) 0.2255(3) 0.53698(18)
N8 N 0.85324(15) 0.0783(3) 0.13726(16)
N9 N 0.96350(13) 0.1723(2) 0.41351(15)
N10 N 1.04406(13) 0.2038(2) 0.44700(14)
H12 H 1.0720 0.2098 0.4110
N11 N 1.15844(14) 0.2522(2) 0.56904(15)
H13 H 1.1839 0.2654 0.6275
H14 H 1.1854 0.2568 0.5320
N12 N 1.03717(15) 0.2176(2) 0.58928(15)
H15 H 1.0608 0.2303 0.6481
H16 H 0.9848 0.1996 0.5657
N13 N 0.82924(14) 0.1144(2) 0.44182(16)
N14 N 0.59525(15) -0.0034(2) 0.1766(2)
O7 O 0.89918(12) 0.1702(2) 0.14834(12)
O8 O 0.83924(13) -0.0002(2) 0.07674(14)
O9 O 0.86501(13) 0.0315(2) 0.49536(13)
O10 O 0.81481(13) 0.2203(2) 0.46293(13)
O11 O 0.56524(14) -0.0142(3) 0.09450(16)
O12 O 0.55883(13) -0.0159(2) 0.22867(16)
N15 N 0.16296(14) 0.2235(2) 0.31845(15)
O13 O 0.19676(13) 0.1991(2) 0.40079(13)
O14 O 0.20304(12) 0.2499(2) 0.27097(13)
O15 O 0.08748(13) 0.2183(3) 0.28225(15)
N16 N 0.37081(14) 0.2542(2) 0.66567(15)
O16 O 0.34231(12) 0.2031(2) 0.58917(13)
O17 O 0.44466(12) 0.2814(2) 0.69894(13)
O18 O 0.32523(12) 0.2772(2) 0.70818(12)
loop_
_geom_bond_atom_site_label_1
_geom_bond_atom_site_label_2
_geom_bond_site_symmetry_1
_geom_bond_site_symmetry_2
C1 C2 1_555 1_555
C2 C3 1_555 1_555
C3 C4 1_555 1_555
C4 H1 1_555 1_555
C5 C4 1_555 1_555
C6 C1 1_555 1_555
H2 C6 1_555 1_555
C7 C2 1_555 1_555
H3 C7 1_555 1_555
C8 N3 1_555 1_555
N1 C1 1_555 1_555
N2 C7 1_555 1_555
N3 N2 1_555 1_555
H4 N3 1_555 1_555
N4 C8 1_555 1_555
H5 N4 1_555 1_555
H6 N4 1_555 1_555
N5 C8 1_555 1_555
H7 N5 1_555 1_555
H8 N5 1_555 1_555
N6 C3 1_555 1_555
N7 C5 1_555 1_555
O1 N1 1_555 1_555
O2 N1 1_555 1_555
O3 N6 1_555 1_555
O4 N6 1_555 1_555
O5 N7 1_555 1_555
O6 N7 1_555 1_555
C9 C10 1_555 1_555
C10 C11 1_555 1_555
C11 C12 1_555 1_555
C12 H9 1_555 1_555
C13 C12 1_555 1_555
C14 C9 1_555 1_555
H10 C14 1_555 1_555
C15 C10 1_555 1_555
H11 C15 1_555 1_555
C16 N10 1_555 1_555
N8 C9 1_555 1_555
N9 C15 1_555 1_555
N10 N9 1_555 1_555
H12 N10 1_555 1_555
N11 C16 1_555 1_555
H13 N11 1_555 1_555
H14 N11 1_555 1_555
N12 C16 1_555 1_555
H15 N12 1_555 1_555
H16 N12 1_555 1_555
N13 C11 1_555 1_555
N14 C13 1_555 1_555
O7 N8 1_555 1_555
O8 N8 1_555 1_555
O9 N13 1_555 1_555
O10 N13 1_555 1_555
O11 N14 1_555 1_555
O12 N14 1_555 1_555
N15 O13 1_555 1_555
O14 N15 1_555 1_555
O15 N15 1_555 1_555
N16 O16 1_555 1_555
O17 N16 1_555 1_555
O18 N16 1_555 1_555
C5 C6 1_555 1_555
C13 C14 1_555 1_555

#END
