
#######################################################################
#
#                 Cambridge Crystallographic Data Centre
#                                CCDC 
#
#######################################################################
#
# If this CIF has been generated from an entry in the Cambridge 
# Structural Database, then it will include bibliographic, chemical, 
# crystal, experimental, refinement or atomic coordinate data resulting 
# from the CCDC's data processing and validation procedures.
#
#######################################################################

data_POLYUM
_chemical_formula_moiety         'C26 H21 N5 O2'
_chemical_name_systematic        
2-Amino-7-benzoyl-8-oxo-9-phenyl-3a,4,5,6,6a,7,8,9-octahydro-9bH-benzo[de][1,8]naphthyridine-3,9b-dicarbonitrile
_symmetry_cell_setting           triclinic
_symmetry_space_group_name_H-M   'P -1'
_symmetry_Int_Tables_number      2
_space_group_name_Hall           '-P 1'
loop_
_symmetry_equiv_pos_site_id
_symmetry_equiv_pos_as_xyz
1 x,y,z
2 -x,-y,-z
_cell_length_a                   9.1187(9)
_cell_length_b                   10.8390(10)
_cell_length_c                   12.4287(11)
_cell_angle_alpha                66.3090(10)
_cell_angle_beta                 88.214(2)
_cell_angle_gamma                81.725(2)
_cell_volume                     1112.7
_cell_formula_units_Z            2
loop_
_atom_site_label
_atom_site_type_symbol
_atom_site_fract_x
_atom_site_fract_y
_atom_site_fract_z
N1 N 0.3813(2) 0.6967(2) 0.2408(2)
N2 N 0.5868(3) 0.7648(3) 0.1346(2)
N3 N 0.7602(3) 0.8636(3) 0.0049(2)
H1 H 0.8382 0.9025 -0.0168
H2 H 0.7120 0.8453 -0.0439
N4 N 1.0139(3) 0.9674(3) 0.1569(3)
N5 N 0.4269(3) 1.0751(3) 0.2238(3)
O1 O 0.1722(3) 0.6325(3) 0.3370(2)
O2 O 0.3360(2) 0.5228(2) 0.5801(2)
C1 C 0.2820(4) 0.6848(3) 0.3315(3)
C2 C 0.3170(3) 0.7377(3) 0.4225(3)
H3 H 0.2597 0.8280 0.4030
C3 C 0.4816(3) 0.7462(3) 0.4312(3)
H4 H 0.5333 0.6525 0.4642
C4 C 0.5446(3) 0.8176(3) 0.3099(2)
C5 C 0.5090(3) 0.7583(3) 0.2233(3)
C6 C 0.7136(3) 0.8315(3) 0.1151(3)
C7 C 0.7777(3) 0.8540(3) 0.2017(3)
C8 C 0.7145(3) 0.8041(3) 0.3221(3)
H5 H 0.7518 0.7067 0.3613
C9 C 0.7548(3) 0.8710(3) 0.4018(3)
H6 H 0.7206 0.9681 0.3652
H7 H 0.8618 0.8581 0.4122
C10 C 0.6850(3) 0.8104(4) 0.5216(3)
H8 H 0.7042 0.8610 0.5674
H9 H 0.7315 0.7170 0.5631
C11 C 0.5175(3) 0.8128(3) 0.5126(3)
H10 H 0.4805 0.7647 0.5901
H11 H 0.4686 0.9062 0.4826
C12 C 0.3463(3) 0.6411(3) 0.1567(3)
C13 C 0.4017(3) 0.5101(3) 0.1762(3)
H12 H 0.4622 0.4569 0.2421
C14 C 0.3678(4) 0.4564(4) 0.0978(4)
H13 H 0.4051 0.3669 0.1110
C15 C 0.2796(4) 0.5352(5) 0.0012(4)
H14 H 0.2566 0.4994 -0.0518
C16 C 0.2250(4) 0.6665(5) -0.0180(4)
H15 H 0.1651 0.7199 -0.0842
C17 C 0.2580(4) 0.7207(4) 0.0604(3)
H16 H 0.2205 0.8101 0.0475
C18 C 0.2683(3) 0.6389(3) 0.5406(3)
C19 C 0.1498(3) 0.6774(3) 0.6085(3)
C20 C 0.1103(3) 0.8099(3) 0.5982(3)
H17 H 0.1527 0.8801 0.5412
C21 C 0.0078(3) 0.8379(4) 0.6725(3)
H18 H -0.0158 0.9265 0.6674
C22 C -0.0591(4) 0.7356(5) 0.7536(3)
H19 H -0.1288 0.7552 0.8029
C23 C -0.0241(4) 0.6044(4) 0.7626(3)
H20 H -0.0713 0.5356 0.8166
C24 C 0.0812(3) 0.5753(4) 0.6915(3)
H21 H 0.1068 0.4859 0.6990
C25 C 0.9090(4) 0.9150(4) 0.1787(3)
C26 C 0.4797(3) 0.9638(4) 0.2587(3)
loop_
_geom_bond_atom_site_label_1
_geom_bond_atom_site_label_2
_geom_bond_site_symmetry_1
_geom_bond_site_symmetry_2
N1 C1 1_555 1_555
N2 C5 1_555 1_555
N3 H1 1_555 1_555
H2 N3 1_555 1_555
N4 C25 1_555 1_555
N5 C26 1_555 1_555
O1 C1 1_555 1_555
O2 C18 1_555 1_555
C1 C2 1_555 1_555
C2 H3 1_555 1_555
C3 C2 1_555 1_555
H4 C3 1_555 1_555
C4 C3 1_555 1_555
C5 N1 1_555 1_555
C6 N2 1_555 1_555
C7 C6 1_555 1_555
C8 C4 1_555 1_555
H5 C8 1_555 1_555
C9 C8 1_555 1_555
H6 C9 1_555 1_555
H7 C9 1_555 1_555
C10 C9 1_555 1_555
H8 C10 1_555 1_555
H9 C10 1_555 1_555
C11 C3 1_555 1_555
H10 C11 1_555 1_555
H11 C11 1_555 1_555
C12 N1 1_555 1_555
C13 C12 1_555 1_555
H12 C13 1_555 1_555
C14 C13 1_555 1_555
H13 C14 1_555 1_555
C15 C14 1_555 1_555
H14 C15 1_555 1_555
C16 C15 1_555 1_555
H15 C16 1_555 1_555
C17 C12 1_555 1_555
H16 C17 1_555 1_555
C18 C2 1_555 1_555
C19 C18 1_555 1_555
C20 C19 1_555 1_555
H17 C20 1_555 1_555
C21 C20 1_555 1_555
H18 C21 1_555 1_555
C22 C21 1_555 1_555
H19 C22 1_555 1_555
C23 C22 1_555 1_555
H20 C23 1_555 1_555
C24 C19 1_555 1_555
H21 C24 1_555 1_555
C25 C7 1_555 1_555
C26 C4 1_555 1_555
N3 C6 1_555 1_555
C4 C5 1_555 1_555
C7 C8 1_555 1_555
C10 C11 1_555 1_555
C16 C17 1_555 1_555
C23 C24 1_555 1_555

#END
