
#######################################################################
#
#                 Cambridge Crystallographic Data Centre
#                                CCDC 
#
#######################################################################
#
# If this CIF has been generated from an entry in the Cambridge 
# Structural Database, then it will include bibliographic, chemical, 
# crystal, experimental, refinement or atomic coordinate data resulting 
# from the CCDC's data processing and validation procedures.
#
#######################################################################

data_POMCOL
_chemical_name_common            
N-Acetyl-alpha-(((t-butoxycarbonyl)amino)methyl)phenylalanine
_chemical_formula_moiety         'C17 H24 N2 O5'
_chemical_name_systematic        
'2-Acetamido-2-benzyl-3-((t-butoxycarbonyl)amino)propionic acid'
_symmetry_cell_setting           monoclinic
_symmetry_space_group_name_H-M   'P 21/c'
_symmetry_Int_Tables_number      14
_space_group_name_Hall           '-P 2ybc'
loop_
_symmetry_equiv_pos_site_id
_symmetry_equiv_pos_as_xyz
1 x,y,z
2 -x,1/2+y,1/2-z
3 -x,-y,-z
4 x,1/2-y,1/2+z
_cell_length_a                   9.954(2)
_cell_length_b                   12.475(3)
_cell_length_c                   15.096(3)
_cell_angle_alpha                90
_cell_angle_beta                 106.91(3)
_cell_angle_gamma                90
_cell_volume                     1793.51
_exptl_crystal_colour            colorless
_exptl_crystal_description       block
_cell_formula_units_Z            4
loop_
_atom_site_label
_atom_site_type_symbol
_atom_site_fract_x
_atom_site_fract_y
_atom_site_fract_z
C1 C 0.3695(4) 0.5498(3) 0.1005(2)
H1 H 0.3297 0.4825 0.0843
C2 C 0.5134(5) 0.5679(5) 0.1093(3)
H2 H 0.5685 0.5116 0.0993
C3 C 0.5726(4) 0.6671(5) 0.1323(3)
H3 H 0.6668 0.6779 0.1369
C4 C 0.4936(3) 0.7495(4) 0.1482(2)
H4 H 0.5338 0.8167 0.1645
C5 C 0.3536(3) 0.7332(3) 0.14028(17)
H5 H 0.3006 0.7903 0.1513
C6 C 0.2895(3) 0.6345(2) 0.11645(15)
C7 C 0.1355(2) 0.6204(2) 0.10736(15)
H6 H 0.0954 0.5707 0.0572
H7 H 0.0885 0.6888 0.0907
C8 C 0.1053(2) 0.57828(19) 0.19691(15)
C9 C 0.1572(2) 0.4623(2) 0.21598(15)
C10 C 0.1684(2) 0.7456(2) 0.29045(15)
C11 C 0.2536(3) 0.7892(2) 0.38257(18)
H8 H 0.3267 0.8345 0.3739
H9 H 0.2946 0.7309 0.4229
H10 H 0.1939 0.8300 0.4097
C12 C -0.0550(2) 0.5814(2) 0.18190(16)
H11 H -0.0862 0.6553 0.1741
H12 H -0.1013 0.5435 0.1251
C13 C -0.1420(2) 0.5958(2) 0.31675(16)
C14 C -0.2473(3) 0.5845(2) 0.44492(16)
C15 C -0.1347(3) 0.6490(3) 0.51372(19)
H13 H -0.0510 0.6066 0.5350
H14 H -0.1673 0.6686 0.5654
H15 H -0.1144 0.7127 0.4842
C16 C -0.3766(3) 0.6506(3) 0.39869(19)
H16 H -0.3501 0.7110 0.3681
H17 H -0.4187 0.6755 0.4446
H18 H -0.4427 0.6073 0.3541
C17 C -0.2875(3) 0.4868(2) 0.49177(18)
H19 H -0.3559 0.4453 0.4469
H20 H -0.3265 0.5096 0.5399
H21 H -0.2056 0.4439 0.5181
N1 N 0.1788(2) 0.63922(16) 0.27908(12)
H22 H 0.2338 0.6041 0.3243
N2 N -0.0985(2) 0.53441(17) 0.25704(13)
H23 H -0.0966 0.4659 0.2636
O1 O 0.24497(19) 0.43434(14) 0.28571(11)
O2 O 0.09315(19) 0.39786(14) 0.14693(11)
H24 H 0.1148 0.3356 0.1617
O3 O 0.09422(17) 0.80415(13) 0.23001(11)
O4 O -0.1399(2) 0.69361(14) 0.31724(12)
O5 O -0.18983(17) 0.53437(14) 0.37460(11)
loop_
_geom_bond_atom_site_label_1
_geom_bond_atom_site_label_2
_geom_bond_site_symmetry_1
_geom_bond_site_symmetry_2
C1 H1 1_555 1_555
C2 C1 1_555 1_555
H2 C2 1_555 1_555
C3 C2 1_555 1_555
H3 C3 1_555 1_555
C4 C3 1_555 1_555
H4 C4 1_555 1_555
C5 C4 1_555 1_555
H5 C5 1_555 1_555
C6 C1 1_555 1_555
C7 C6 1_555 1_555
H6 C7 1_555 1_555
H7 C7 1_555 1_555
C8 C7 1_555 1_555
C9 C8 1_555 1_555
C10 C11 1_555 1_555
C11 H8 1_555 1_555
H9 C11 1_555 1_555
H10 C11 1_555 1_555
C12 C8 1_555 1_555
H11 C12 1_555 1_555
H12 C12 1_555 1_555
C13 N2 1_555 1_555
C14 C15 1_555 1_555
C15 H13 1_555 1_555
H14 C15 1_555 1_555
H15 C15 1_555 1_555
C16 C14 1_555 1_555
H16 C16 1_555 1_555
H17 C16 1_555 1_555
H18 C16 1_555 1_555
C17 C14 1_555 1_555
H19 C17 1_555 1_555
H20 C17 1_555 1_555
H21 C17 1_555 1_555
N1 C8 1_555 1_555
H22 N1 1_555 1_555
N2 C12 1_555 1_555
H23 N2 1_555 1_555
O1 C9 1_555 1_555
O2 C9 1_555 1_555
H24 O2 1_555 1_555
O3 C10 1_555 1_555
O4 C13 1_555 1_555
O5 C13 1_555 1_555
C5 C6 1_555 1_555
C10 N1 1_555 1_555
C14 O5 1_555 1_555

#END
