
#######################################################################
#
#                 Cambridge Crystallographic Data Centre
#                                CCDC 
#
#######################################################################
#
# If this CIF has been generated from an entry in the Cambridge 
# Structural Database, then it will include bibliographic, chemical, 
# crystal, experimental, refinement or atomic coordinate data resulting 
# from the CCDC's data processing and validation procedures.
#
#######################################################################

data_POMXOF01
_chemical_formula_moiety         'C26 H20 N6 O4'
_chemical_name_systematic        
N'^3^,N'^3^'-bis(2-hydroxybenzylidene)-2,2'-bipyridine-3,3'-dicarbohydrazide
_symmetry_cell_setting           triclinic
_symmetry_space_group_name_H-M   'P -1'
_symmetry_Int_Tables_number      2
_space_group_name_Hall           '-P 1'
loop_
_symmetry_equiv_pos_site_id
_symmetry_equiv_pos_as_xyz
1 x,y,z
2 -x,-y,-z
_cell_length_a                   9.419(3)
_cell_length_b                   11.745(4)
_cell_length_c                   12.035(5)
_cell_angle_alpha                98.914(18)
_cell_angle_beta                 108.806(10)
_cell_angle_gamma                104.543(14)
_cell_volume                     1178.81
_exptl_crystal_colour            yellow
_exptl_crystal_description       block
_cell_formula_units_Z            2
loop_
_atom_site_label
_atom_site_type_symbol
_atom_site_fract_x
_atom_site_fract_y
_atom_site_fract_z
O1 O 0.54744(15) 0.26389(12) 0.83637(12)
O2 O 0.92045(16) 0.22876(13) 1.11983(14)
H1 H 0.8670 0.2549 1.0680
O3 O 0.03288(13) 0.13667(12) 0.50383(10)
O4 O 0.76633(14) 0.18008(14) 0.51697(12)
H2 H 0.8545 0.1928 0.5140
N1 N 0.20103(17) 0.43624(15) 0.71089(14)
N2 N 0.70995(16) 0.44823(14) 0.96332(12)
H3 H 0.7283 0.5257 0.9790
N3 N 0.81692(16) 0.40072(14) 1.03329(13)
N4 N 0.23706(17) 0.29209(14) 0.92130(12)
N5 N 0.29087(15) 0.14931(13) 0.59326(12)
H4 H 0.3681 0.1614 0.6607
N6 N 0.31460(15) 0.12960(13) 0.48541(12)
C1 C 0.30475(19) 0.38756(15) 0.77374(14)
C2 C 0.46890(19) 0.43965(15) 0.81107(14)
C3 C 0.5253(2) 0.55045(17) 0.78665(16)
H5 H 0.6337 0.5887 0.8113
C4 C 0.4194(2) 0.60281(18) 0.72567(18)
H6 H 0.4548 0.6779 0.7103
C5 C 0.2600(2) 0.54215(19) 0.68776(18)
H7 H 0.1892 0.5766 0.6436
C6 C 0.57736(19) 0.37410(16) 0.87085(15)
C7 C 0.94004(19) 0.47966(17) 1.11690(15)
H8 H 0.9574 0.5618 1.1197
C8 C 1.05337(19) 0.44477(17) 1.20736(15)
C9 C 1.0368(2) 0.32308(18) 1.20823(17)
C10 C 1.1416(2) 0.2970(2) 1.3046(2)
H9 H 1.1316 0.2164 1.3059
C11 C 1.2599(3) 0.3897(2) 1.3980(2)
H10 H 1.3283 0.3710 1.4624
C12 C 1.2783(2) 0.5093(2) 1.39752(19)
H11 H 1.3596 0.5712 1.4604
C13 C 1.1754(2) 0.53676(19) 1.30322(17)
H12 H 1.1872 0.6178 1.3032
C14 C 0.22939(18) 0.27617(15) 0.80648(14)
C15 C 0.14601(18) 0.16547(15) 0.71958(14)
C16 C 0.0663(2) 0.06853(17) 0.75239(16)
H13 H 0.0069 -0.0057 0.6955
C17 C 0.0764(2) 0.08410(19) 0.87102(17)
H14 H 0.0258 0.0201 0.8960
C18 C 0.1631(2) 0.19627(19) 0.95179(17)
H15 H 0.1705 0.2058 1.0318
C19 C 0.14905(18) 0.14994(15) 0.59442(14)
C20 C 0.45568(18) 0.13403(16) 0.49679(15)
H16 H 0.5335 0.1521 0.5738
C21 C 0.49551(19) 0.11088(16) 0.38962(15)
C22 C 0.65466(19) 0.13563(16) 0.40296(16)
C23 C 0.6931(2) 0.1161(2) 0.30054(18)
H17 H 0.7987 0.1354 0.3090
C24 C 0.5754(3) 0.0685(2) 0.18749(19)
H18 H 0.6017 0.0548 0.1196
C25 C 0.4174(3) 0.0404(2) 0.17291(19)
H19 H 0.3380 0.0070 0.0959
C26 C 0.3794(2) 0.0624(2) 0.27312(17)
H20 H 0.2734 0.0444 0.2630
loop_
_geom_bond_atom_site_label_1
_geom_bond_atom_site_label_2
_geom_bond_site_symmetry_1
_geom_bond_site_symmetry_2
O1 C6 1_555 1_555
O2 H1 1_555 1_555
O3 C19 1_555 1_555
O4 H2 1_555 1_555
N1 C1 1_555 1_555
N2 H3 1_555 1_555
N3 N2 1_555 1_555
N4 C14 1_555 1_555
N5 H4 1_555 1_555
N6 N5 1_555 1_555
C1 C2 1_555 1_555
C2 C3 1_555 1_555
C3 H5 1_555 1_555
C4 C3 1_555 1_555
H6 C4 1_555 1_555
C5 N1 1_555 1_555
H7 C5 1_555 1_555
C6 N2 1_555 1_555
C7 N3 1_555 1_555
H8 C7 1_555 1_555
C8 C7 1_555 1_555
C9 O2 1_555 1_555
C10 C9 1_555 1_555
H9 C10 1_555 1_555
C11 C10 1_555 1_555
H10 C11 1_555 1_555
C12 C11 1_555 1_555
H11 C12 1_555 1_555
C13 C8 1_555 1_555
H12 C13 1_555 1_555
C14 C1 1_555 1_555
C15 C14 1_555 1_555
C16 C15 1_555 1_555
H13 C16 1_555 1_555
C17 C16 1_555 1_555
H14 C17 1_555 1_555
C18 N4 1_555 1_555
H15 C18 1_555 1_555
C19 N5 1_555 1_555
C20 N6 1_555 1_555
H16 C20 1_555 1_555
C21 C20 1_555 1_555
C22 O4 1_555 1_555
C23 C22 1_555 1_555
H17 C23 1_555 1_555
C24 C23 1_555 1_555
H18 C24 1_555 1_555
C25 C24 1_555 1_555
H19 C25 1_555 1_555
C26 C21 1_555 1_555
H20 C26 1_555 1_555
C2 C6 1_555 1_555
C4 C5 1_555 1_555
C8 C9 1_555 1_555
C12 C13 1_555 1_555
C15 C19 1_555 1_555
C17 C18 1_555 1_555
C21 C22 1_555 1_555
C25 C26 1_555 1_555

#END
