
#######################################################################
#
#                 Cambridge Crystallographic Data Centre
#                                CCDC 
#
#######################################################################
#
# If this CIF has been generated from an entry in the Cambridge 
# Structural Database, then it will include bibliographic, chemical, 
# crystal, experimental, refinement or atomic coordinate data resulting 
# from the CCDC's data processing and validation procedures.
#
#######################################################################

data_POMXAR
_chemical_formula_moiety         'C14 H15 N1 O3'
_chemical_name_systematic        
(3S,7aR)-7-methoxy-7a-methyl-3-phenyl-2,3-dihydropyrrolo(2,1-b)oxazol-5(7aH)-one
_symmetry_cell_setting           monoclinic
_symmetry_space_group_name_H-M   'P 21'
_symmetry_Int_Tables_number      4
_space_group_name_Hall           'P 2yb'
loop_
_symmetry_equiv_pos_site_id
_symmetry_equiv_pos_as_xyz
1 x,y,z
2 -x,1/2+y,-z
_cell_length_a                   7.8238(10)
_cell_length_b                   5.9033(7)
_cell_length_c                   13.711(3)
_cell_angle_alpha                90
_cell_angle_beta                 96.597(14)
_cell_angle_gamma                90
_cell_volume                     629.067
_exptl_crystal_colour            colorless
_exptl_crystal_description       needle
_cell_formula_units_Z            2
_exptl_crystal_recrystallization_method 'petroleum ether/ethyl acetate'
loop_
_atom_site_label
_atom_site_type_symbol
_atom_site_fract_x
_atom_site_fract_y
_atom_site_fract_z
N1 N 0.1601(4) 0.4015(5) 0.7374(3)
O1 O -0.1216(3) 0.4978(5) 0.6847(3)
C1 C 0.1854(5) 0.2927(6) 0.9142(4)
O2 O 0.3713(4) 0.3770(5) 0.5217(3)
C2 C 0.2722(5) 0.4920(7) 0.9416(4)
H1 H 0.2952 0.5946 0.8934
C3 C 0.2535(5) 0.4025(7) 0.5833(4)
C4 C 0.1517(5) 0.1443(7) 0.9894(4)
H2 H 0.0933 0.0095 0.9740
C5 C 0.1279(5) 0.2310(7) 0.8097(4)
H3 H 0.0044 0.1977 0.8030
C6 C 0.0262(5) 0.4666(6) 0.6652(4)
C7 C 0.2041(5) 0.1961(8) 1.0856(5)
H4 H 0.1807 0.0959 1.1347
C8 C 0.3251(6) 0.5415(8) 1.0386(4)
H5 H 0.3842 0.6753 1.0551
O3 O 0.3124(4) 0.0915(5) 0.6977(3)
C9 C 0.2908(5) 0.3940(8) 1.1107(4)
H6 H 0.3259 0.4272 1.1762
C10 C 0.3068(5) 0.3310(7) 0.6872(4)
C11 C 0.4755(5) 0.4379(9) 0.7300(4)
H7 H 0.5033 0.3885 0.7966
H8 H 0.4645 0.5998 0.7284
H9 H 0.5654 0.3929 0.6919
C12 C 0.0944(5) 0.4851(7) 0.5732(4)
H10 H 0.0370 0.5450 0.5158
C13 C 0.3234(7) 0.4610(10) 0.4231(4)
H11 H 0.4160 0.4352 0.3842
H12 H 0.3001 0.6204 0.4255
H13 H 0.2223 0.3830 0.3942
C14 C 0.2233(7) 0.0254(7) 0.7733(5)
H14 H 0.3023 -0.0355 0.8266
H15 H 0.1414 -0.0921 0.7509
loop_
_geom_bond_atom_site_label_1
_geom_bond_atom_site_label_2
_geom_bond_site_symmetry_1
_geom_bond_site_symmetry_2
N1 C5 1_555 1_555
O1 C6 1_555 1_555
C1 C2 1_555 1_555
O2 C3 1_555 1_555
C2 H1 1_555 1_555
C3 C10 1_555 1_555
C4 C1 1_555 1_555
H2 C4 1_555 1_555
C5 C1 1_555 1_555
H3 C5 1_555 1_555
C6 N1 1_555 1_555
C7 C4 1_555 1_555
H4 C7 1_555 1_555
C8 C2 1_555 1_555
H5 C8 1_555 1_555
O3 C10 1_555 1_555
C9 C7 1_555 1_555
H6 C9 1_555 1_555
C10 N1 1_555 1_555
C11 C10 1_555 1_555
H7 C11 1_555 1_555
H8 C11 1_555 1_555
H9 C11 1_555 1_555
C12 C3 1_555 1_555
H10 C12 1_555 1_555
C13 O2 1_555 1_555
H11 C13 1_555 1_555
H12 C13 1_555 1_555
H13 C13 1_555 1_555
C14 C5 1_555 1_555
H14 C14 1_555 1_555
H15 C14 1_555 1_555
C6 C12 1_555 1_555
C8 C9 1_555 1_555
O3 C14 1_555 1_555

#END
