
#######################################################################
#
#                 Cambridge Crystallographic Data Centre
#                                CCDC 
#
#######################################################################
#
# If this CIF has been generated from an entry in the Cambridge 
# Structural Database, then it will include bibliographic, chemical, 
# crystal, experimental, refinement or atomic coordinate data resulting 
# from the CCDC's data processing and validation procedures.
#
#######################################################################

data_POMZAT
_chemical_formula_moiety         'C16 H12 N2 O6,2(C3 H7 N1 O1)'
_chemical_name_systematic        
"2,2'-Dihydroxy-3,3'-((1E,1'E)-hydrazine-1,2-diylidenedimethylidyne)dibenzoic acid N,N-dimethylformamide solvate"
_symmetry_cell_setting           monoclinic
_symmetry_space_group_name_H-M   'P 21/c'
_symmetry_Int_Tables_number      14
_space_group_name_Hall           '-P 2ybc'
loop_
_symmetry_equiv_pos_site_id
_symmetry_equiv_pos_as_xyz
1 x,y,z
2 -x,1/2+y,1/2-z
3 -x,-y,-z
4 x,1/2-y,1/2+z
_cell_length_a                   5.9136(12)
_cell_length_b                   10.837(2)
_cell_length_c                   18.991(4)
_cell_angle_alpha                90
_cell_angle_beta                 98.96(3)
_cell_angle_gamma                90
_cell_volume                     1202.2
_exptl_crystal_colour            red
_exptl_crystal_description       needle
_chemical_melting_point          '443 K'
_cell_formula_units_Z            2
_exptl_crystal_recrystallization_method dmf
loop_
_atom_site_label
_atom_site_type_symbol
_atom_site_fract_x
_atom_site_fract_y
_atom_site_fract_z
N1 N 0.9469(6) 0.9471(3) 0.51035(19)
O1 O -0.0194(5) 0.7647(3) 0.34383(15)
O2 O -0.0718(5) 0.5919(3) 0.40230(16)
H1 H -0.1983 0.5948 0.3775
O3 O 0.3501(5) 0.8896(3) 0.37878(14)
H2 H 0.2293 0.8697 0.3541
C1 C 0.2520(8) 0.7119(4) 0.4437(2)
C2 C 0.3105(8) 0.6335(4) 0.5012(2)
H3 H 0.2151 0.5678 0.5079
C3 C 0.5105(10) 0.6525(5) 0.5488(2)
H4 H 0.5491 0.6001 0.5877
C4 C 0.6512(8) 0.7496(5) 0.5380(2)
H5 H 0.7858 0.7614 0.5698
C5 C 0.5984(8) 0.8308(4) 0.4808(2)
C6 C 0.3970(8) 0.8102(4) 0.4342(2)
C7 C 0.0427(8) 0.6924(5) 0.3928(3)
C8 C 0.7514(9) 0.9333(4) 0.4714(2)
H6 H 0.7050 0.9909 0.4357
N1B N 1.0531(6) 1.0529(3) 0.48965(19)
O1B O 2.0194(5) 1.2353(3) 0.65617(15)
O2B O 2.0718(5) 1.4081(3) 0.59770(16)
H1B H 2.1983 1.4052 0.6225
O3B O 1.6499(5) 1.1104(3) 0.62122(14)
H2B H 1.7707 1.1303 0.6459
C1B C 1.7480(8) 1.2881(4) 0.5563(2)
C2B C 1.6895(8) 1.3665(4) 0.4988(2)
H3B H 1.7849 1.4322 0.4921
C3B C 1.4895(10) 1.3475(5) 0.4512(2)
H4B H 1.4509 1.3999 0.4123
C4B C 1.3488(8) 1.2504(5) 0.4620(2)
H5B H 1.2142 1.2386 0.4302
C5B C 1.4016(8) 1.1692(4) 0.5192(2)
C6B C 1.6030(8) 1.1898(4) 0.5658(2)
C7B C 1.9573(8) 1.3076(5) 0.6072(3)
C8B C 1.2486(9) 1.0667(4) 0.5286(2)
H6B H 1.2950 1.0091 0.5643
N2 N 0.2954(7) 0.6509(3) 0.23059(19)
O4 O 0.5660(5) 0.5621(3) 0.31107(17)
C9 C 0.4849(9) 0.6507(5) 0.2750(3)
H7 H 0.5674 0.7240 0.2801
C10 C 0.1512(9) 0.5403(4) 0.2220(2)
H8 H 0.2158 0.4811 0.1933
H9 H 0.0001 0.5622 0.1993
H10 H 0.1433 0.5052 0.2680
C11 C 0.2066(9) 0.7591(5) 0.1912(3)
H11 H 0.3080 0.8274 0.2039
H12 H 0.0579 0.7784 0.2024
H13 H 0.1949 0.7432 0.1410
loop_
_geom_bond_atom_site_label_1
_geom_bond_atom_site_label_2
_geom_bond_site_symmetry_1
_geom_bond_site_symmetry_2
N1 C8 1_555 1_555
O1 C7 1_555 1_555
O2 H1 1_555 1_555
O3 H2 1_555 1_555
C1 C2 1_555 1_555
C2 H3 1_555 1_555
C3 C2 1_555 1_555
H4 C3 1_555 1_555
C4 C3 1_555 1_555
H5 C4 1_555 1_555
C5 C4 1_555 1_555
C6 O3 1_555 1_555
C7 O2 1_555 1_555
C8 C5 1_555 1_555
H6 C8 1_555 1_555
N2 C9 1_555 1_555
O4 C9 1_555 1_555
C9 H7 1_555 1_555
C10 N2 1_555 1_555
H8 C10 1_555 1_555
H9 C10 1_555 1_555
H10 C10 1_555 1_555
C11 N2 1_555 1_555
H11 C11 1_555 1_555
H12 C11 1_555 1_555
H13 C11 1_555 1_555
N1B N1 1_555 1_555
O1B C7B 1_555 1_555
O2B H1B 1_555 1_555
O3B H2B 1_555 1_555
C1B C2B 1_555 1_555
C2B H3B 1_555 1_555
C3B C2B 1_555 1_555
H4B C3B 1_555 1_555
C4B C3B 1_555 1_555
H5B C4B 1_555 1_555
C5B C4B 1_555 1_555
C6B O3B 1_555 1_555
C7B O2B 1_555 1_555
C8B N1B 1_555 1_555
H6B C8B 1_555 1_555
C1 C6 1_555 1_555
C1 C7 1_555 1_555
C5 C6 1_555 1_555
C1B C6B 1_555 1_555
C1B C7B 1_555 1_555
C5B C6B 1_555 1_555
C5B C8B 1_555 1_555

#END
