
#######################################################################
#
#                 Cambridge Crystallographic Data Centre
#                                CCDC 
#
#######################################################################
#
# If this CIF has been generated from an entry in the Cambridge 
# Structural Database, then it will include bibliographic, chemical, 
# crystal, experimental, refinement or atomic coordinate data resulting 
# from the CCDC's data processing and validation procedures.
#
#######################################################################

data_PONCUS01
_chemical_formula_moiety         'C34 H34 O6'
_chemical_name_systematic        
1,3,6,8-tetramethoxy-5,10-bis(4-methoxyphenyl)-4b,5,9b,10-tetrahydroindeno[2,1-a]indene
_symmetry_cell_setting           triclinic
_symmetry_space_group_name_H-M   'P -1'
_symmetry_Int_Tables_number      2
_space_group_name_Hall           '-P 1'
loop_
_symmetry_equiv_pos_site_id
_symmetry_equiv_pos_as_xyz
1 x,y,z
2 -x,-y,-z
_cell_length_a                   10.6131(17)
_cell_length_b                   11.880(2)
_cell_length_c                   12.412(2)
_cell_angle_alpha                93.321(4)
_cell_angle_beta                 91.607(3)
_cell_angle_gamma                111.439(3)
_cell_volume                     1452.18
_exptl_crystal_colour            colorless
_exptl_crystal_description       block
_cell_formula_units_Z            2
loop_
_atom_site_label
_atom_site_type_symbol
_atom_site_fract_x
_atom_site_fract_y
_atom_site_fract_z
O1 O 0.6193(2) 0.3377(2) 0.05895(17)
O2 O 0.4620(3) -0.0262(3) 0.2388(3)
O3 O -0.2058(3) 0.3299(3) 0.5699(2)
O4 O -0.1330(2) 0.0334(2) 0.10418(17)
O5 O 0.0135(3) 0.2966(3) -0.17893(18)
O6 O 0.7224(3) 0.8222(3) 0.4266(2)
C1 C 0.2403(3) 0.2798(3) 0.2650(2)
H1 H 0.2606 0.3164 0.3393
C2 C 0.0896(3) 0.1948(3) 0.2485(2)
H2 H 0.0814 0.1109 0.2565
C3 C 0.0602(3) 0.2102(3) 0.1320(2)
C4 C -0.0446(3) 0.1349(3) 0.0619(2)
C5 C -0.0559(3) 0.1659(3) -0.0422(2)
H3 H -0.1255 0.1155 -0.0898
C6 C 0.0375(3) 0.2733(3) -0.0760(2)
C7 C 0.1438(3) 0.3475(3) -0.0081(2)
H4 H 0.2066 0.4186 -0.0308
C8 C 0.1539(3) 0.3122(3) 0.0962(2)
C9 C 0.2622(3) 0.3785(3) 0.1834(2)
H5 H 0.2472 0.4493 0.2163
C10 C 0.4090(3) 0.4125(3) 0.1500(2)
H6 H 0.4146 0.4290 0.0734
C11 C 0.4324(3) 0.2977(3) 0.1660(2)
C12 C 0.5324(3) 0.2607(3) 0.1250(2)
C13 C 0.5392(3) 0.1519(3) 0.1520(3)
H7 H 0.6061 0.1267 0.1246
C14 C 0.4471(4) 0.0806(3) 0.2191(3)
C15 C 0.3473(3) 0.1161(3) 0.2617(3)
H8 H 0.2860 0.0686 0.3082
C16 C 0.3421(3) 0.2252(3) 0.2325(2)
C17 C 0.7108(4) 0.2952(4) 0.0033(3)
H9 H 0.7548 0.3509 -0.0492
H10 H 0.6616 0.2168 -0.0325
H11 H 0.7776 0.2894 0.0541
C18 C 0.3699(6) -0.1051(5) 0.3074(6)
H12 H 0.2786 -0.1225 0.2805
H13 H 0.3827 -0.0668 0.3793
H14 H 0.3863 -0.1793 0.3088
C19 C 0.0034(3) 0.2300(3) 0.3290(2)
C20 C 0.0232(3) 0.2179(3) 0.4377(3)
H15 H 0.0879 0.1867 0.4587
C21 C -0.0483(4) 0.2497(4) 0.5154(3)
H16 H -0.0352 0.2372 0.5875
C22 C -0.1383(4) 0.2997(3) 0.4858(3)
C23 C -0.1636(5) 0.3124(4) 0.3796(3)
H17 H -0.2282 0.3441 0.3592
C24 C -0.0894(4) 0.2763(4) 0.3022(3)
H18 H -0.1055 0.2849 0.2297
C25 C -0.2843(6) 0.3898(6) 0.5469(5)
H19 H -0.3553 0.3416 0.4953
H20 H -0.2316 0.4644 0.5171
H21 H -0.3233 0.4073 0.6116
C26 C -0.2367(4) -0.0506(4) 0.0333(3)
H22 H -0.1970 -0.0723 -0.0293
H23 H -0.2997 -0.0143 0.0114
H24 H -0.2835 -0.1220 0.0699
C27 C 0.0866(5) 0.4139(4) -0.2107(3)
H25 H 0.0536 0.4223 -0.2814
H26 H 0.1811 0.4261 -0.2121
H27 H 0.0749 0.4731 -0.1601
C28 C 0.5040(3) 0.5220(3) 0.2187(2)
C29 C 0.5379(3) 0.6367(3) 0.1861(3)
H28 H 0.5116 0.6465 0.1163
C30 C 0.6101(4) 0.7391(3) 0.2530(3)
H29 H 0.6289 0.8159 0.2287
C31 C 0.6531(3) 0.7272(3) 0.3538(3)
C32 C 0.6232(4) 0.6139(3) 0.3886(3)
H30 H 0.6530 0.6053 0.4576
C33 C 0.5494(3) 0.5121(3) 0.3231(2)
H31 H 0.5297 0.4357 0.3486
C34 C 0.7662(7) 0.9399(5) 0.3892(6)
H32 H 0.8318 0.9470 0.3358
H33 H 0.8064 0.9988 0.4487
H34 H 0.6899 0.9538 0.3578
loop_
_geom_bond_atom_site_label_1
_geom_bond_atom_site_label_2
_geom_bond_site_symmetry_1
_geom_bond_site_symmetry_2
O1 C12 1_555 1_555
O2 C14 1_555 1_555
O3 C22 1_555 1_555
O4 C4 1_555 1_555
O5 C6 1_555 1_555
O6 C31 1_555 1_555
C1 H1 1_555 1_555
C2 C1 1_555 1_555
H2 C2 1_555 1_555
C3 C2 1_555 1_555
C4 C3 1_555 1_555
C5 C4 1_555 1_555
H3 C5 1_555 1_555
C6 C5 1_555 1_555
C7 C6 1_555 1_555
H4 C7 1_555 1_555
C8 C3 1_555 1_555
C9 C1 1_555 1_555
H5 C9 1_555 1_555
C10 C9 1_555 1_555
H6 C10 1_555 1_555
C11 C10 1_555 1_555
C12 C11 1_555 1_555
C13 C12 1_555 1_555
H7 C13 1_555 1_555
C14 C13 1_555 1_555
C15 C14 1_555 1_555
H8 C15 1_555 1_555
C16 C1 1_555 1_555
C17 O1 1_555 1_555
H9 C17 1_555 1_555
H10 C17 1_555 1_555
H11 C17 1_555 1_555
C18 O2 1_555 1_555
H12 C18 1_555 1_555
H13 C18 1_555 1_555
H14 C18 1_555 1_555
C19 C2 1_555 1_555
C20 C19 1_555 1_555
H15 C20 1_555 1_555
C21 C20 1_555 1_555
H16 C21 1_555 1_555
C22 C21 1_555 1_555
C23 C22 1_555 1_555
H17 C23 1_555 1_555
C24 C19 1_555 1_555
H18 C24 1_555 1_555
C25 O3 1_555 1_555
H19 C25 1_555 1_555
H20 C25 1_555 1_555
H21 C25 1_555 1_555
C26 O4 1_555 1_555
H22 C26 1_555 1_555
H23 C26 1_555 1_555
H24 C26 1_555 1_555
C27 O5 1_555 1_555
H25 C27 1_555 1_555
H26 C27 1_555 1_555
H27 C27 1_555 1_555
C28 C10 1_555 1_555
C29 C28 1_555 1_555
H28 C29 1_555 1_555
C30 C29 1_555 1_555
H29 C30 1_555 1_555
C31 C30 1_555 1_555
C32 C31 1_555 1_555
H30 C32 1_555 1_555
C33 C28 1_555 1_555
H31 C33 1_555 1_555
C34 O6 1_555 1_555
H32 C34 1_555 1_555
H33 C34 1_555 1_555
H34 C34 1_555 1_555
C7 C8 1_555 1_555
C8 C9 1_555 1_555
C11 C16 1_555 1_555
C15 C16 1_555 1_555
C23 C24 1_555 1_555
C32 C33 1_555 1_555

#END
