
#######################################################################
#
#                 Cambridge Crystallographic Data Centre
#                                CCDC 
#
#######################################################################
#
# If this CIF has been generated from an entry in the Cambridge 
# Structural Database, then it will include bibliographic, chemical, 
# crystal, experimental, refinement or atomic coordinate data resulting 
# from the CCDC's data processing and validation procedures.
#
#######################################################################

data_PONFAA01
_chemical_formula_moiety         'C13 H9 N1 O4 S1'
_chemical_name_systematic        '2-[(2-nitrophenyl)sulfanyl]benzoic acid'
_symmetry_cell_setting           monoclinic
_symmetry_space_group_name_H-M   'P 21/n'
_symmetry_Int_Tables_number      14
_space_group_name_Hall           '-P 2yn'
loop_
_symmetry_equiv_pos_site_id
_symmetry_equiv_pos_as_xyz
1 x,y,z
2 1/2-x,1/2+y,1/2-z
3 -x,-y,-z
4 1/2+x,1/2-y,1/2+z
_cell_length_a                   12.04(3)
_cell_length_b                   7.311(19)
_cell_length_c                   14.22(4)
_cell_angle_alpha                90
_cell_angle_beta                 93.94(3)
_cell_angle_gamma                90
_cell_volume                     1248.75
_exptl_crystal_description       prism
_cell_formula_units_Z            4
loop_
_atom_site_label
_atom_site_type_symbol
_atom_site_fract_x
_atom_site_fract_y
_atom_site_fract_z
S1 S 0.43365(7) 1.00436(13) 0.65805(6)
O1 O 0.4741(2) 1.3021(4) 0.5494(2)
C1 C 0.4136(2) 0.8240(5) 0.7396(2)
C2 C 0.6419(3) 0.8458(5) 0.6812(3)
H1 H 0.6064 0.7491 0.7092
C3 C 0.6350(3) 1.1395(4) 0.6053(2)
N1 N 0.4420(3) 1.0297(4) 0.8795(2)
C4 C 0.5748(3) 1.2998(5) 0.5652(2)
O2 O 0.6393(2) 1.4383(4) 0.5465(2)
H2 H 0.6032 1.5140 0.5148
C5 C 0.5801(3) 0.9952(4) 0.6484(2)
C6 C 0.4131(3) 0.8505(5) 0.8367(2)
C7 C 0.3847(3) 0.7150(5) 0.8986(3)
H3 H 0.3828 0.7386 0.9627
C8 C 0.7502(3) 1.1286(5) 0.5988(2)
H4 H 0.7872 1.2247 0.5716
C9 C 0.7554(3) 0.8381(6) 0.6729(3)
H5 H 0.7953 0.7365 0.6955
C10 C 0.8098(3) 0.9789(6) 0.6317(3)
H6 H 0.8862 0.9730 0.6261
C11 C 0.3595(3) 0.5442(6) 0.8624(3)
H7 H 0.3418 0.4499 0.9027
O3 O 0.5259(3) 1.1019(5) 0.8606(3)
C12 C 0.3842(3) 0.6508(5) 0.7057(3)
H8 H 0.3806 0.6283 0.6412
O4 O 0.3792(4) 1.0934(5) 0.9332(3)
C13 C 0.3603(3) 0.5122(6) 0.7672(3)
H9 H 0.3445 0.3956 0.7439
loop_
_geom_bond_atom_site_label_1
_geom_bond_atom_site_label_2
_geom_bond_site_symmetry_1
_geom_bond_site_symmetry_2
S1 C1 1_555 1_555
O1 C4 1_555 1_555
C1 C6 1_555 1_555
C2 H1 1_555 1_555
C3 C4 1_555 1_555
N1 C6 1_555 1_555
C4 O2 1_555 1_555
O2 H2 1_555 1_555
C5 S1 1_555 1_555
C6 C7 1_555 1_555
C7 H3 1_555 1_555
C8 C3 1_555 1_555
H4 C8 1_555 1_555
C9 C2 1_555 1_555
H5 C9 1_555 1_555
C10 C8 1_555 1_555
H6 C10 1_555 1_555
C11 C7 1_555 1_555
H7 C11 1_555 1_555
O3 N1 1_555 1_555
C12 C1 1_555 1_555
H8 C12 1_555 1_555
O4 N1 1_555 1_555
C13 C11 1_555 1_555
H9 C13 1_555 1_555
C2 C5 1_555 1_555
C3 C5 1_555 1_555
C9 C10 1_555 1_555
C12 C13 1_555 1_555

#END
