
#######################################################################
#
#                 Cambridge Crystallographic Data Centre
#                                CCDC 
#
#######################################################################
#
# If this CIF has been generated from an entry in the Cambridge 
# Structural Database, then it will include bibliographic, chemical, 
# crystal, experimental, refinement or atomic coordinate data resulting 
# from the CCDC's data processing and validation procedures.
#
#######################################################################

data_PONGIJ01
_chemical_formula_moiety         '2(C12 H21 O4 1-),H12 Mg1 O6 2+,H2 O1'
_chemical_name_systematic        
'Hexa-aqua-magnesium bis(hydrogen 2,3-di-t-butylsuccinate) monohydrate'
_symmetry_cell_setting           monoclinic
_symmetry_space_group_name_H-M   'C c'
_symmetry_Int_Tables_number      9
_space_group_name_Hall           'C -2yc'
loop_
_symmetry_equiv_pos_site_id
_symmetry_equiv_pos_as_xyz
1 x,y,z
2 x,-y,1/2+z
3 1/2+x,1/2+y,z
4 1/2+x,1/2-y,1/2+z
_cell_length_a                   6.3954(7)
_cell_length_b                   31.990(3)
_cell_length_c                   16.2225(17)
_cell_angle_alpha                90
_cell_angle_beta                 97.990(4)
_cell_angle_gamma                90
_cell_volume                     3286.72
_exptl_crystal_colour            colorless
_exptl_crystal_description       block
_cell_formula_units_Z            4
loop_
_atom_site_label
_atom_site_type_symbol
_atom_site_fract_x
_atom_site_fract_y
_atom_site_fract_z
C1 C 0.4473(6) -0.01589(10) 0.8382(3)
C2 C 0.2622(6) -0.00926(10) 0.8880(2)
H1 H 0.1364 -0.0196 0.8500
H2 H 0.0765 0.0378 0.9260
C3 C 0.2116(6) 0.03816(10) 0.9015(3)
C4 C 0.3707(6) 0.06011(11) 0.9679(3)
C5 C 0.2678(6) -0.03733(11) 0.9679(3)
C6 C 0.2926(8) -0.08341(12) 0.9379(3)
H3 H 0.2971 -0.1024 0.9855
H4 H 0.4239 -0.0860 0.9135
H5 H 0.1725 -0.0906 0.8960
C7 C 0.4510(7) -0.02929(15) 1.0366(3)
H6 H 0.4410 -0.0484 1.0832
H7 H 0.4452 -0.0003 1.0559
H8 H 0.5848 -0.0340 1.0151
C8 C 0.0604(8) -0.03474(16) 1.0013(3)
H9 H 0.0654 -0.0525 1.0508
H10 H -0.0532 -0.0443 0.9587
H11 H 0.0338 -0.0057 1.0162
C9 C 0.1600(6) 0.06490(10) 0.8195(3)
C10 C 0.0366(7) 0.10380(13) 0.8437(3)
H12 H 0.0002 0.1217 0.7948
H13 H 0.1247 0.1195 0.8873
H14 H -0.0929 0.0947 0.8644
C11 C 0.3567(6) 0.08103(10) 0.7846(3)
H15 H 0.3129 0.0973 0.7340
H16 H 0.4429 0.0573 0.7715
H17 H 0.4396 0.0988 0.8262
C12 C 0.0145(7) 0.04118(11) 0.7541(3)
H18 H -0.0155 0.0583 0.7037
H19 H -0.1179 0.0348 0.7754
H20 H 0.0825 0.0151 0.7407
O1 O 0.4290(5) -0.03914(7) 0.7772(2)
O2 O 0.6263(4) 0.00139(7) 0.8648(2)
O3 O 0.5684(5) 0.05585(8) 0.9641(2)
O4 O 0.3023(5) 0.08233(8) 1.0207(2)
H41 H 0.593(11) 0.020(2) 0.902(5)
C13 C 1.0837(6) 0.20813(9) 0.4432(2)
C14 C 0.8703(5) 0.22723(9) 0.4535(2)
H21 H 0.7649 0.2066 0.4266
C15 C 0.8188(5) 0.23108(8) 0.5443(2)
H22 H 0.6689 0.2408 0.5383
C16 C 0.9456(5) 0.26493(9) 0.5972(2)
C17 C 0.8289(6) 0.26802(9) 0.3979(2)
C18 C 0.8472(7) 0.25608(12) 0.3078(3)
H23 H 0.8218 0.2808 0.2722
H24 H 0.7423 0.2346 0.2889
H25 H 0.9891 0.2452 0.3046
C19 C 0.9814(6) 0.30417(9) 0.4234(3)
H26 H 0.9448 0.3280 0.3862
H27 H 1.1262 0.2952 0.4193
H28 H 0.9707 0.3124 0.4808
C20 C 0.6015(6) 0.28252(11) 0.4012(3)
H29 H 0.5729 0.3077 0.3672
H30 H 0.5833 0.2887 0.4589
H31 H 0.5031 0.2604 0.3796
C21 C 0.8211(5) 0.18838(9) 0.5933(2)
C22 C 1.0411(6) 0.16910(9) 0.6174(2)
H32 H 1.0283 0.1429 0.6475
H33 H 1.1306 0.1886 0.6530
H34 H 1.1046 0.1635 0.5669
C23 C 0.7233(7) 0.19658(10) 0.6728(3)
H35 H 0.7223 0.1706 0.7048
H36 H 0.5782 0.2067 0.6580
H37 H 0.8067 0.2177 0.7065
C24 C 0.6809(6) 0.15636(9) 0.5402(2)
H38 H 0.6815 0.1298 0.5705
H39 H 0.7360 0.1519 0.4875
H40 H 0.5361 0.1670 0.5290
O5 O 1.0969(4) 0.18152(7) 0.39032(19)
O6 O 1.2523(4) 0.22269(7) 0.4873(2)
O7 O 1.1450(5) 0.26502(6) 0.60111(19)
O8 O 0.8493(4) 0.29127(6) 0.63485(19)
H42 H 1.218(10) 0.2375(19) 0.523(5)
O9 O 0.5582(4) 0.13128(6) 0.12705(18)
O10 O 0.7714(5) 0.05544(7) 0.2004(2)
O11 O 0.7980(4) 0.13319(7) 0.29226(19)
O12 O 1.1690 0.1044 0.2203
O13 O 0.9514(4) 0.17670(6) 0.1508(2)
O14 O 0.9093(5) 0.09216(8) 0.0618(2)
Mg1 Mg 0.8626(3) 0.11631(3) 0.17497(14)
H43 H 0.5130 0.1140 0.0897
H44 H 0.4951 0.1547 0.1295
H45 H 0.8771 0.0419 0.2220
H46 H 0.6938 0.0495 0.2291
H47 H 0.8859 0.1512 0.3127
H48 H 0.7693 0.1106 0.3228
H49 H 1.1963 0.0869 0.2400
H50 H 1.2471 0.1220 0.2437
H51 H 0.8432 0.1912 0.1356
H52 H 1.0760 0.1861 0.1408
H53 H 0.7922 0.0890 0.0318
H54 H 1.0108 0.0885 0.0400
O15 O 0.4114(4) 0.17062(6) 0.29460(18)
H55 H 0.3471 0.1758 0.3311
H56 H 0.3820 0.1887 0.2551
loop_
_geom_bond_atom_site_label_1
_geom_bond_atom_site_label_2
_geom_bond_site_symmetry_1
_geom_bond_site_symmetry_2
C1 C2 1_555 1_555
C2 H1 1_555 1_555
H2 C3 1_555 1_555
C3 C2 1_555 1_555
C4 C3 1_555 1_555
C5 C2 1_555 1_555
C6 C5 1_555 1_555
H3 C6 1_555 1_555
H4 C6 1_555 1_555
H5 C6 1_555 1_555
C7 C5 1_555 1_555
H6 C7 1_555 1_555
H7 C7 1_555 1_555
H8 C7 1_555 1_555
C8 C5 1_555 1_555
H9 C8 1_555 1_555
H10 C8 1_555 1_555
H11 C8 1_555 1_555
C9 C3 1_555 1_555
C10 C9 1_555 1_555
H12 C10 1_555 1_555
H13 C10 1_555 1_555
H14 C10 1_555 1_555
C11 C9 1_555 1_555
H15 C11 1_555 1_555
H16 C11 1_555 1_555
H17 C11 1_555 1_555
C12 C9 1_555 1_555
H18 C12 1_555 1_555
H19 C12 1_555 1_555
H20 C12 1_555 1_555
C13 C14 1_555 1_555
C14 H21 1_555 1_555
C15 C14 1_555 1_555
H22 C15 1_555 1_555
C16 C15 1_555 1_555
C17 C14 1_555 1_555
C18 C17 1_555 1_555
H23 C18 1_555 1_555
H24 C18 1_555 1_555
H25 C18 1_555 1_555
C19 C17 1_555 1_555
H26 C19 1_555 1_555
H27 C19 1_555 1_555
H28 C19 1_555 1_555
C20 C17 1_555 1_555
H29 C20 1_555 1_555
H30 C20 1_555 1_555
H31 C20 1_555 1_555
C21 C15 1_555 1_555
C22 C21 1_555 1_555
H32 C22 1_555 1_555
H33 C22 1_555 1_555
H34 C22 1_555 1_555
C23 C21 1_555 1_555
H35 C23 1_555 1_555
H36 C23 1_555 1_555
H37 C23 1_555 1_555
C24 C21 1_555 1_555
H38 C24 1_555 1_555
H39 C24 1_555 1_555
H40 C24 1_555 1_555
O1 C1 1_555 1_555
O2 C1 1_555 1_555
O3 C4 1_555 1_555
O4 C4 1_555 1_555
O5 C13 1_555 1_555
O6 C13 1_555 1_555
O7 C16 1_555 1_555
O8 C16 1_555 1_555
O9 Mg1 1_555 1_555
O10 Mg1 1_555 1_555
O11 Mg1 1_555 1_555
O12 Mg1 1_555 1_555
O13 Mg1 1_555 1_555
O14 Mg1 1_555 1_555
O15 H55 1_555 1_555
H41 O2 1_555 1_555
H42 O6 1_555 1_555
H43 O9 1_555 1_555
H44 O9 1_555 1_555
H45 O10 1_555 1_555
H46 O10 1_555 1_555
H47 O11 1_555 1_555
H48 O11 1_555 1_555
H49 O12 1_555 1_555
H50 O12 1_555 1_555
H51 O13 1_555 1_555
H52 O13 1_555 1_555
H53 O14 1_555 1_555
H54 O14 1_555 1_555
H56 O15 1_555 1_555

#END
