
#######################################################################
#
#                 Cambridge Crystallographic Data Centre
#                                CCDC 
#
#######################################################################
#
# If this CIF has been generated from an entry in the Cambridge 
# Structural Database, then it will include bibliographic, chemical, 
# crystal, experimental, refinement or atomic coordinate data resulting 
# from the CCDC's data processing and validation procedures.
#
#######################################################################

data_PONKIO
_chemical_name_common            
'([28]Hexaphyrin)-methyl-silicon(iv) acetonitrile solvate'
_chemical_formula_moiety         'C67 H16 F30 N6 Si1,3.25(C2 H3 N1)'
_chemical_name_systematic        
'(2,7,12,17,22,27-hexakis(pentafluorophenyl)-31,32,33,34,35,36-hexaazaheptacyclo[26.2.1.1^3,6^.1^8,11^.1^13,16^.1^18,21^.1^23,26^]hexatriaconta-1(31),2,4,6(36),7,9,11(35),12,14,16(34),17,19,21,23,25,27,29-heptadecaene)-methyl-silicon acetonitrile solvate'
_symmetry_cell_setting           tetragonal
_symmetry_space_group_name_H-M   'P 4/n'
_symmetry_Int_Tables_number      85
_space_group_name_Hall           '-P 4a'
loop_
_symmetry_equiv_pos_site_id
_symmetry_equiv_pos_as_xyz
1 x,y,z
2 1/2-x,1/2-y,z
3 1/2-y,x,z
4 y,1/2-x,z
5 -x,-y,-z
6 1/2+x,1/2+y,-z
7 1/2+y,-x,-z
8 -y,1/2+x,-z
_cell_length_a                   33.009(7)
_cell_length_b                   33.009(7)
_cell_length_c                   12.578(3)
_cell_angle_alpha                90
_cell_angle_beta                 90
_cell_angle_gamma                90
_cell_volume                     13704.9
_exptl_crystal_colour            violet
_exptl_crystal_description       prism
_cell_formula_units_Z            8
loop_
_atom_site_label
_atom_site_type_symbol
_atom_site_fract_x
_atom_site_fract_y
_atom_site_fract_z
C1 C 0.16694(16) 0.01291(16) 0.4035(5)
C2 C 0.14946(16) 0.03000(17) 0.3106(5)
H1 H 0.1603 0.0285 0.2407
C3 C 0.11440(17) 0.04890(17) 0.3392(5)
H2 H 0.0961 0.0624 0.2928
C4 C 0.11025(16) 0.04475(16) 0.4511(5)
C5 C 0.07823(15) 0.05537(15) 0.5143(5)
C6 C 0.07953(16) 0.04871(15) 0.6242(5)
C7 C 0.11401(15) 0.03750(15) 0.6883(5)
C8 C 0.10070(15) 0.04192(16) 0.7920(5)
H3 H 0.1169 0.0374 0.8532
C9 C 0.05982(15) 0.05408(16) 0.7942(5)
C10 C 0.03381(16) 0.06500(19) 0.8810(5)
C11 C 0.04700(16) 0.08602(18) 0.9696(5)
C12 C 0.0238(2) 0.1016(2) 1.0574(5)
H4 H -0.0038 0.0957 1.0723
C13 C 0.04819(19) 0.1262(2) 1.1147(6)
H5 H 0.0407 0.1408 1.1767
C14 C 0.08749(18) 0.1262(2) 1.0657(5)
C15 C 0.12119(19) 0.14975(19) 1.0863(5)
C16 C 0.15695(18) 0.14593(18) 1.0259(5)
C17 C 0.19373(18) 0.17027(18) 1.0276(5)
H6 H 0.1988 0.1930 1.0720
C18 C 0.21928(19) 0.15469(17) 0.9551(5)
H7 H 0.2453 0.1648 0.9368
C19 C 0.19927(16) 0.11943(17) 0.9102(5)
C20 C 0.21408(15) 0.08855(15) 0.8449(4)
C21 C 0.19566(15) 0.04942(16) 0.8542(5)
C22 C 0.18811(15) 0.03221(17) 0.9561(5)
H8 H 0.1892 0.0461 1.0221
C23 C 0.17903(15) -0.00765(17) 0.9425(5)
H9 H 0.1730 -0.0267 0.9968
C24 C 0.18023(15) -0.01515(16) 0.8319(5)
C25 C 0.17874(16) -0.05287(16) 0.7818(5)
C26 C 0.18745(17) -0.05699(16) 0.6752(5)
C27 C 0.20340(17) -0.09073(18) 0.6197(5)
H10 H 0.2060 -0.1175 0.6469
C28 C 0.21427(17) -0.07821(17) 0.5210(5)
H11 H 0.2282 -0.0940 0.4694
C29 C 0.20129(16) -0.03742(15) 0.5082(5)
C30 C 0.19654(15) -0.01621(15) 0.4121(5)
C31 C 0.04210(15) 0.07368(16) 0.4608(5)
C32 C 0.01566(16) 0.05050(16) 0.4003(5)
C33 C -0.01638(17) 0.06691(18) 0.3461(5)
C34 C -0.02227(18) 0.10768(19) 0.3490(5)
C35 C 0.0030(2) 0.13181(18) 0.4071(6)
C36 C 0.03489(18) 0.11475(17) 0.4619(6)
C37 C -0.01115(16) 0.05902(19) 0.8699(5)
C38 C -0.03759(17) 0.0912(2) 0.8605(6)
C39 C -0.07872(18) 0.0853(2) 0.8542(6)
C40 C -0.09390(16) 0.0471(2) 0.8587(5)
C41 C -0.06887(16) 0.01445(19) 0.8711(5)
C42 C -0.02808(17) 0.02053(19) 0.8738(5)
C43 C 0.25317(15) 0.09551(15) 0.7925(4)
C44 C 0.26190(16) 0.13074(16) 0.7362(5)
C45 C 0.29864(18) 0.13907(16) 0.6921(5)
C46 C 0.32935(16) 0.11192(18) 0.7057(5)
C47 C 0.32256(17) 0.07657(17) 0.7576(5)
C48 C 0.28532(15) 0.06826(15) 0.8002(5)
C49 C 0.17074(16) -0.08979(16) 0.8440(5)
C50 C 0.20005(17) -0.11814(17) 0.8701(5)
C51 C 0.19108(19) -0.15431(18) 0.9202(6)
C52 C 0.1517(2) -0.16239(19) 0.9487(6)
C53 C 0.12153(19) -0.1351(2) 0.9250(6)
C54 C 0.13157(17) -0.09942(17) 0.8741(5)
C55 C 0.21753(15) -0.03044(16) 0.3145(5)
C56 C 0.20696(17) -0.06563(18) 0.2613(5)
C57 C 0.22477(19) -0.07669(18) 0.1672(5)
C58 C 0.25336(18) -0.0531(2) 0.1210(6)
C59 C 0.26489(18) -0.0179(2) 0.1707(6)
C60 C 0.24755(17) -0.00746(17) 0.2667(5)
F1 F 0.02091(9) 0.01029(9) 0.3952(3)
F2 F -0.04206(10) 0.04322(11) 0.2921(3)
F3 F -0.05353(11) 0.12443(12) 0.2961(3)
F4 F -0.00284(14) 0.17228(11) 0.4106(5)
F5 F 0.05923(11) 0.13927(10) 0.5177(4)
F6 F -0.02376(10) 0.12920(12) 0.8544(4)
F7 F -0.10364(10) 0.11750(12) 0.8382(4)
F8 F -0.13470(9) 0.04146(12) 0.8534(3)
F9 F -0.08451(10) -0.02259(11) 0.8810(3)
F10 F -0.00381(9) -0.01160(10) 0.8857(3)
F11 F 0.23208(10) 0.15804(9) 0.7207(3)
F12 F 0.30444(11) 0.17315(10) 0.6374(3)
F13 F 0.36646(10) 0.12049(11) 0.6659(3)
F14 F 0.35288(10) 0.04963(11) 0.7691(4)
F15 F 0.28060(9) 0.03356(10) 0.8534(3)
F16 F 0.10137(10) -0.07316(11) 0.8542(3)
F17 F 0.08302(11) -0.14305(12) 0.9510(4)
F18 F 0.14301(13) -0.19680(12) 0.9981(4)
F19 F 0.22059(11) -0.18018(11) 0.9453(4)
F20 F 0.23890(9) -0.11109(10) 0.8438(3)
F21 F 0.17783(11) -0.08960(10) 0.3007(3)
F22 F 0.21245(13) -0.11073(12) 0.1184(3)
F23 F 0.26933(12) -0.06284(13) 0.0273(4)
F24 F 0.29322(12) 0.00580(14) 0.1270(4)
F25 F 0.25949(11) 0.02679(11) 0.3140(3)
N1 N 0.14346(13) 0.02335(12) 0.4909(4)
N2 N 0.04747(13) 0.05680(13) 0.6906(4)
H12 H 0.0227 0.0628 0.6697
N3 N 0.08547(14) 0.10080(15) 0.9810(4)
H13 H 0.1060 0.0947 0.9393
N4 N 0.16082(14) 0.11592(14) 0.9522(4)
N5 N 0.18919(12) 0.02032(12) 0.7771(4)
N6 N 0.18594(13) -0.02367(12) 0.6048(4)
C61 C 0.1165(3) 0.1803(4) 1.1673(7)
C62 C 0.1038(3) 0.2188(4) 1.1383(7)
C63 C 0.1045(3) 0.2501(3) 1.2122(10)
C64 C 0.1179(3) 0.2429(3) 1.3152(9)
C65 C 0.1306(3) 0.2043(3) 1.3442(6)
C66 C 0.1299(3) 0.1730(3) 1.2703(7)
F26 F 0.0906(5) 0.2273(7) 1.0421(15)
F27 F 0.1415(4) 0.1368(3) 1.3009(7)
F28 F 0.0930(5) 0.2898(5) 1.1935(18)
F29 F 0.1431(4) 0.1974(3) 1.4443(6)
F30 F 0.1183(4) 0.2725(4) 1.3844(9)
C67 C 0.19929(17) 0.06948(17) 0.5969(5)
H14 H 0.2276 0.0614 0.6061
H15 H 0.1933 0.0926 0.6432
H16 H 0.1947 0.0772 0.5226
Si1 Si 0.16568(4) 0.02654(4) 0.63207(13)
N7 N 0.58182(16) 0.03657(16) 0.3814(5)
C68 C 0.57881(18) 0.06639(18) 0.4261(5)
C69 C 0.5758(2) 0.10431(18) 0.4840(6)
H17 H 0.5546 0.1021 0.5382
H18 H 0.5691 0.1262 0.4346
H19 H 0.6018 0.1102 0.5184
C70 C 0.7011(3) 0.0385(3) 0.3202(9)
H20 H 0.7151 0.0175 0.3611
H21 H 0.7199 0.0508 0.2694
H22 H 0.6783 0.0263 0.2816
C71 C 0.6861(3) 0.0690(4) 0.3911(13)
N8 N 0.6752(3) 0.0912(5) 0.4578(15)
N9 N 0.2500 0.2500 0.269(4)
C72 C 0.2500 0.2500 0.480(5)
C73 C 0.2500 0.2500 0.357(6)
N10 N 0.2900(10) 0.8686(11) 0.304(3)
C74 C 0.296(2) 0.821(2) 0.482(5)
H23 H 0.3049 0.8386 0.5400
H24 H 0.3164 0.8001 0.4689
H25 H 0.2702 0.8084 0.5005
C75 C 0.291(2) 0.8468(19) 0.380(5)
C76? C 0.1274(6) 0.1868(7) 1.1702(13)
C77? C 0.1054(5) 0.2222(8) 1.1529(17)
C78? C 0.1075(5) 0.2537(6) 1.226(2)
C79? C 0.1314(7) 0.2499(5) 1.3164(19)
C80? C 0.1533(7) 0.2145(7) 1.3336(13)
C81? C 0.1513(6) 0.1830(5) 1.2606(15)
F31? F 0.0824(9) 0.2257(12) 1.066(3)
F32? F 0.0852(8) 0.2833(8) 1.191(2)
F33? F 0.1352(8) 0.2799(11) 1.392(3)
F34? F 0.1744(9) 0.2127(7) 1.4183(15)
F35? F 0.1716(8) 0.1513(6) 1.2764(14)
N11? N 0.3074(7) 0.7655(11) 0.325(2)
C82? C 0.2987(13) 0.6933(11) 0.233(3)
H26? H 0.2792 0.6781 0.2760
H27? H 0.3248 0.6792 0.2331
H28? H 0.2887 0.6953 0.1597
C83? C 0.3039(11) 0.7352(11) 0.279(3)
loop_
_geom_bond_atom_site_label_1
_geom_bond_atom_site_label_2
_geom_bond_site_symmetry_1
_geom_bond_site_symmetry_2
C1 C2 1_555 1_555
C2 H1 1_555 1_555
C3 C2 1_555 1_555
H2 C3 1_555 1_555
C4 C3 1_555 1_555
C5 C4 1_555 1_555
C6 C5 1_555 1_555
C7 C6 1_555 1_555
C8 C7 1_555 1_555
H3 C8 1_555 1_555
C9 C8 1_555 1_555
C10 C9 1_555 1_555
C11 C10 1_555 1_555
C12 C11 1_555 1_555
H4 C12 1_555 1_555
C13 C12 1_555 1_555
H5 C13 1_555 1_555
C14 C13 1_555 1_555
C15 C14 1_555 1_555
C16 C15 1_555 1_555
C17 C16 1_555 1_555
H6 C17 1_555 1_555
C18 C17 1_555 1_555
H7 C18 1_555 1_555
C19 C18 1_555 1_555
C20 C19 1_555 1_555
C21 C20 1_555 1_555
C22 C21 1_555 1_555
H8 C22 1_555 1_555
C23 C22 1_555 1_555
H9 C23 1_555 1_555
C24 C23 1_555 1_555
C25 C24 1_555 1_555
C26 C25 1_555 1_555
C27 C26 1_555 1_555
H10 C27 1_555 1_555
C28 C27 1_555 1_555
H11 C28 1_555 1_555
C29 C28 1_555 1_555
C30 C1 1_555 1_555
C31 C5 1_555 1_555
C32 C31 1_555 1_555
C33 C32 1_555 1_555
C34 C33 1_555 1_555
C35 C34 1_555 1_555
C36 C31 1_555 1_555
C37 C10 1_555 1_555
C38 C37 1_555 1_555
C39 C38 1_555 1_555
C40 C39 1_555 1_555
C41 C40 1_555 1_555
C42 C37 1_555 1_555
C43 C20 1_555 1_555
C44 C43 1_555 1_555
C45 C44 1_555 1_555
C46 C45 1_555 1_555
C47 C46 1_555 1_555
C48 C43 1_555 1_555
C49 C25 1_555 1_555
C50 C49 1_555 1_555
C51 C50 1_555 1_555
C52 C51 1_555 1_555
C53 C52 1_555 1_555
C54 C49 1_555 1_555
C55 C30 1_555 1_555
C56 C55 1_555 1_555
C57 C56 1_555 1_555
C58 C57 1_555 1_555
C59 C58 1_555 1_555
C60 C55 1_555 1_555
F1 C32 1_555 1_555
F2 C33 1_555 1_555
F3 C34 1_555 1_555
F4 C35 1_555 1_555
F5 C36 1_555 1_555
F6 C38 1_555 1_555
F7 C39 1_555 1_555
F8 C40 1_555 1_555
F9 C41 1_555 1_555
F10 C42 1_555 1_555
F11 C44 1_555 1_555
F12 C45 1_555 1_555
F13 C46 1_555 1_555
F14 C47 1_555 1_555
F15 C48 1_555 1_555
F16 C54 1_555 1_555
F17 C53 1_555 1_555
F18 C52 1_555 1_555
F19 C51 1_555 1_555
F20 C50 1_555 1_555
F21 C56 1_555 1_555
F22 C57 1_555 1_555
F23 C58 1_555 1_555
F24 C59 1_555 1_555
F25 C60 1_555 1_555
N1 C1 1_555 1_555
N2 C6 1_555 1_555
H12 N2 1_555 1_555
N3 C11 1_555 1_555
H13 N3 1_555 1_555
N4 C16 1_555 1_555
N5 C21 1_555 1_555
N6 C26 1_555 1_555
C61 C15 1_555 1_555
C62 C61 1_555 1_555
C63 C62 1_555 1_555
C64 C63 1_555 1_555
C65 C64 1_555 1_555
C66 C61 1_555 1_555
F26 C62 1_555 1_555
F27 C66 1_555 1_555
F28 C63 1_555 1_555
F29 C65 1_555 1_555
F30 C64 1_555 1_555
C67 H14 1_555 1_555
H15 C67 1_555 1_555
H16 C67 1_555 1_555
Si1 C7 1_555 1_555
N7 C68 1_555 1_555
C68 C69 1_555 1_555
C69 H17 1_555 1_555
H18 C69 1_555 1_555
H19 C69 1_555 1_555
C70 H20 1_555 1_555
H21 C70 1_555 1_555
H22 C70 1_555 1_555
C71 C70 1_555 1_555
N8 C71 1_555 1_555
N9 C73 1_555 1_555
C72 C73 1_555 1_555
N10 C75 1_555 1_555
C74 H23 1_555 1_555
H24 C74 1_555 1_555
H25 C74 1_555 1_555
C75 C74 1_555 1_555
C4 N1 1_555 1_555
C9 N2 1_555 1_555
C14 N3 1_555 1_555
C19 N4 1_555 1_555
C24 N5 1_555 1_555
C29 C30 1_555 1_555
C29 N6 1_555 1_555
C35 C36 1_555 1_555
C41 C42 1_555 1_555
C47 C48 1_555 1_555
C53 C54 1_555 1_555
C59 C60 1_555 1_555
N1 Si1 1_555 1_555
N5 Si1 1_555 1_555
N6 Si1 1_555 1_555
C65 C66 1_555 1_555
C67 Si1 1_555 1_555

#END
