
#######################################################################
#
#                 Cambridge Crystallographic Data Centre
#                                CCDC 
#
#######################################################################
#
# If this CIF has been generated from an entry in the Cambridge 
# Structural Database, then it will include bibliographic, chemical, 
# crystal, experimental, refinement or atomic coordinate data resulting 
# from the CCDC's data processing and validation procedures.
#
#######################################################################

data_PONQOZ
_chemical_formula_moiety         'C11 H14 N2 O4'
_chemical_name_systematic        'Ethyl 4-ethylamino-3-nitrobenzoate'
_symmetry_cell_setting           monoclinic
_symmetry_space_group_name_H-M   'P 21'
_symmetry_Int_Tables_number      4
_space_group_name_Hall           'P 2yb'
loop_
_symmetry_equiv_pos_site_id
_symmetry_equiv_pos_as_xyz
1 x,y,z
2 -x,1/2+y,-z
_cell_length_a                   4.2360(8)
_cell_length_b                   16.180(3)
_cell_length_c                   8.4890(17)
_cell_angle_alpha                90
_cell_angle_beta                 95.80(3)
_cell_angle_gamma                90
_cell_volume                     578.845
_exptl_crystal_colour            colorless
_exptl_crystal_description       block
_cell_formula_units_Z            2
_exptl_crystal_recrystallization_method ethanol
loop_
_atom_site_label
_atom_site_type_symbol
_atom_site_fract_x
_atom_site_fract_y
_atom_site_fract_z
O1 O 0.7012(15) 1.1050(4) 0.7940(7)
O2 O 0.9134(16) 1.1622(4) 0.5988(8)
O3 O 0.9764(13) 0.7330(4) 0.7615(6)
O4 O 0.7965(13) 0.8254(3) 0.9244(6)
N1 N 1.2210(17) 1.0712(5) 0.4054(8)
H1 H 1.1591 1.1204 0.4256
N2 N 0.8667(17) 1.0957(5) 0.6810(9)
C1 C 1.212(2) 1.0329(6) 0.1174(10)
H2 H 1.3443 1.0259 0.0328
H3 H 1.0571 1.0750 0.0891
H4 H 1.1069 0.9818 0.1355
C2 C 1.414(2) 1.0581(6) 0.2654(10)
H5 H 1.5246 1.1089 0.2453
H6 H 1.5719 1.0157 0.2925
C3 C 1.1440(15) 1.0085(4) 0.4988(7)
C4 C 0.9754(15) 1.0194(5) 0.6315(8)
C5 C 0.9015(15) 0.9543(4) 0.7232(8)
H7 H 0.7858 0.9646 0.8086
C6 C 0.9927(16) 0.8715(4) 0.6946(8)
C7 C 1.1639(14) 0.8632(4) 0.5582(7)
H8 H 1.2333 0.8105 0.5348
C8 C 1.2314(16) 0.9232(4) 0.4633(8)
H9 H 1.3342 0.9118 0.3740
C9 C 0.9235(16) 0.8047(4) 0.7942(8)
C10 C 0.7087(18) 0.7563(5) 1.0314(8)
H10 H 0.8916 0.7222 1.0650
H11 H 0.5432 0.7217 0.9787
C11 C 0.590(2) 0.8020(6) 1.1726(9)
H12 H 0.5211 0.7625 1.2463
H13 H 0.4157 0.8372 1.1357
H14 H 0.7590 0.8348 1.2240
loop_
_geom_bond_atom_site_label_1
_geom_bond_atom_site_label_2
_geom_bond_site_symmetry_1
_geom_bond_site_symmetry_2
O1 N2 1_555 1_555
O2 N2 1_555 1_555
O3 C9 1_555 1_555
O4 C9 1_555 1_555
N1 H1 1_555 1_555
N2 C4 1_555 1_555
C1 H2 1_555 1_555
H3 C1 1_555 1_555
H4 C1 1_555 1_555
C2 N1 1_555 1_555
H5 C2 1_555 1_555
H6 C2 1_555 1_555
C3 N1 1_555 1_555
C4 C3 1_555 1_555
C5 C4 1_555 1_555
H7 C5 1_555 1_555
C6 C5 1_555 1_555
C7 C6 1_555 1_555
H8 C7 1_555 1_555
C8 C3 1_555 1_555
H9 C8 1_555 1_555
C9 C6 1_555 1_555
C10 O4 1_555 1_555
H10 C10 1_555 1_555
H11 C10 1_555 1_555
C11 C10 1_555 1_555
H12 C11 1_555 1_555
H13 C11 1_555 1_555
H14 C11 1_555 1_555
C1 C2 1_555 1_555
C7 C8 1_555 1_555

#END
