
#######################################################################
#
#                 Cambridge Crystallographic Data Centre
#                                CCDC 
#
#######################################################################
#
# If this CIF has been generated from an entry in the Cambridge 
# Structural Database, then it will include bibliographic, chemical, 
# crystal, experimental, refinement or atomic coordinate data resulting 
# from the CCDC's data processing and validation procedures.
#
#######################################################################

data_PONQUF
_chemical_formula_moiety         'C12 H10 Cl1 N2 1+,I1 1-'
_chemical_name_systematic        '1-(4-Chlorobenzylideneamino)pyridinium iodide'
_symmetry_cell_setting           triclinic
_symmetry_space_group_name_H-M   'P -1'
_symmetry_Int_Tables_number      2
_space_group_name_Hall           '-P 1'
loop_
_symmetry_equiv_pos_site_id
_symmetry_equiv_pos_as_xyz
1 x,y,z
2 -x,-y,-z
_cell_length_a                   6.5105(14)
_cell_length_b                   7.1748(15)
_cell_length_c                   14.223(3)
_cell_angle_alpha                76.893(3)
_cell_angle_beta                 79.183(3)
_cell_angle_gamma                80.753(3)
_cell_volume                     630.708
_exptl_crystal_colour            yellow
_exptl_crystal_description       block
_cell_formula_units_Z            2
_exptl_crystal_recrystallization_method ethanol
loop_
_atom_site_label
_atom_site_type_symbol
_atom_site_fract_x
_atom_site_fract_y
_atom_site_fract_z
I1 I 0.91966(5) 0.25912(5) 0.16564(2)
Cl1 Cl 0.1793(2) 0.4285(2) 0.64323(10)
N1 N 0.4087(6) -0.1676(5) 0.2056(3)
N2 N 0.3499(6) -0.1179(6) 0.3000(3)
C1 C 0.6038(8) -0.1437(7) 0.1537(4)
H1 H 0.7003 -0.0912 0.1775
C2 C 0.6541(10) -0.1996(7) 0.0648(4)
H2 H 0.7863 -0.1852 0.0274
C3 C 0.5076(10) -0.2770(7) 0.0313(4)
H3 H 0.5404 -0.3131 -0.0291
C4 C 0.3107(11) -0.3012(8) 0.0878(4)
H4 H 0.2111 -0.3533 0.0658
C5 C 0.2669(9) -0.2469(7) 0.1763(4)
H5 H 0.1380 -0.2654 0.2160
C6 C 0.3740(8) 0.0561(7) 0.2976(3)
H6 H 0.4240 0.1326 0.2382
C7 C 0.3254(7) 0.1391(7) 0.3855(3)
C8 C 0.2488(7) 0.0346(7) 0.4776(3)
H7 H 0.2289 -0.0937 0.4851
C9 C 0.2026(8) 0.1216(7) 0.5574(3)
H8 H 0.1510 0.0536 0.6189
C10 C 0.2355(7) 0.3145(7) 0.5436(3)
C11 C 0.3049(8) 0.4181(7) 0.4539(3)
H9 H 0.3202 0.5476 0.4461
C12 C 0.3526(8) 0.3297(7) 0.3745(3)
H10 H 0.4033 0.3992 0.3132
loop_
_geom_bond_atom_site_label_1
_geom_bond_atom_site_label_2
_geom_bond_site_symmetry_1
_geom_bond_site_symmetry_2
Cl1 C10 1_555 1_555
N1 N2 1_555 1_555
N2 C6 1_555 1_555
C1 N1 1_555 1_555
H1 C1 1_555 1_555
C2 C1 1_555 1_555
H2 C2 1_555 1_555
C3 C2 1_555 1_555
H3 C3 1_555 1_555
C4 C3 1_555 1_555
H4 C4 1_555 1_555
C5 N1 1_555 1_555
H5 C5 1_555 1_555
C6 H6 1_555 1_555
C7 C6 1_555 1_555
C8 C7 1_555 1_555
H7 C8 1_555 1_555
C9 C8 1_555 1_555
H8 C9 1_555 1_555
C10 C9 1_555 1_555
C11 C10 1_555 1_555
H9 C11 1_555 1_555
C12 C7 1_555 1_555
H10 C12 1_555 1_555
C4 C5 1_555 1_555
C11 C12 1_555 1_555

#END
