
#######################################################################
#
#                 Cambridge Crystallographic Data Centre
#                                CCDC 
#
#######################################################################
#
# If this CIF has been generated from an entry in the Cambridge 
# Structural Database, then it will include bibliographic, chemical, 
# crystal, experimental, refinement or atomic coordinate data resulting 
# from the CCDC's data processing and validation procedures.
#
#######################################################################

data_PONROA
_chemical_formula_moiety         'C27 H40 O4'
_chemical_name_systematic        (25R)-5a-Spirostane-3,12-dione
_symmetry_cell_setting           monoclinic
_symmetry_space_group_name_H-M   'C 2'
_symmetry_Int_Tables_number      5
_space_group_name_Hall           'C 2y'
loop_
_symmetry_equiv_pos_site_id
_symmetry_equiv_pos_as_xyz
1 x,y,z
2 -x,y,-z
3 1/2+x,1/2+y,z
4 1/2-x,1/2+y,-z
_cell_length_a                   12.660(3)
_cell_length_b                   6.443(3)
_cell_length_c                   30.167(3)
_cell_angle_alpha                90
_cell_angle_beta                 98.02(3)
_cell_angle_gamma                90
_cell_volume                     2436.61
_exptl_crystal_colour            colorless
_exptl_crystal_description       block
_cell_formula_units_Z            4
_exptl_crystal_recrystallization_method acetone
loop_
_atom_site_label
_atom_site_type_symbol
_atom_site_fract_x
_atom_site_fract_y
_atom_site_fract_z
O1 O 0.7481(5) 0.2933(11) 0.4779(2)
O2 O 0.6375(4) 0.7105(13) 0.7368(2)
O3 O 1.0031(4) 0.7234(9) 0.83970(17)
O4 O 0.9410(5) 1.0093(10) 0.8752(2)
C1 C 0.6736(5) 0.3818(15) 0.5873(2)
H1 H 0.6156 0.3421 0.6035
H2 H 0.6664 0.5291 0.5809
C2 C 0.6615(6) 0.2652(16) 0.5435(3)
H3 H 0.5996 0.3182 0.5243
H4 H 0.6485 0.1200 0.5493
C3 C 0.7588(7) 0.2814(15) 0.5186(4)
C4 C 0.8630(6) 0.2756(16) 0.5476(2)
H5 H 0.9174 0.3246 0.5304
H6 H 0.8795 0.1325 0.5557
C5 C 0.8694(5) 0.4009(12) 0.5893(2)
H7 H 0.8585 0.5464 0.5804
C6 C 0.9812(5) 0.3854(15) 0.6177(2)
H8 H 1.0353 0.4246 0.5995
H9 H 0.9944 0.2429 0.6273
C7 C 0.9890(5) 0.5280(16) 0.6591(2)
H10 H 1.0577 0.5077 0.6773
H11 H 0.9848 0.6717 0.6494
C8 C 0.9014(5) 0.4848(13) 0.6870(2)
H12 H 0.9136 0.3454 0.6996
C9 C 0.7921(5) 0.4852(11) 0.6594(2)
H13 H 0.7852 0.6255 0.6468
C10 C 0.7822(6) 0.3447(10) 0.6186(3)
C11 C 0.7016(5) 0.4700(13) 0.6871(2)
H14 H 0.6966 0.3275 0.6970
H15 H 0.6354 0.5032 0.6681
C12 C 0.7124(7) 0.6099(15) 0.7276(3)
C13 C 0.8200(5) 0.5999(11) 0.7571(2)
C14 C 0.9030(5) 0.6332(12) 0.7254(2)
H16 H 0.8864 0.7692 0.7116
C15 C 1.0041(6) 0.6679(15) 0.7598(3)
H17 H 1.0313 0.5373 0.7727
H18 H 1.0596 0.7357 0.7459
C16 C 0.9656(6) 0.8067(14) 0.7951(2)
H19 H 0.9878 0.9511 0.7922
C17 C 0.8411(5) 0.7863(14) 0.7912(2)
H20 H 0.8073 0.9126 0.7778
C18 C 0.8278(6) 0.3872(12) 0.7799(2)
H21 H 0.8814 0.3915 0.8058
H22 H 0.8467 0.2845 0.7594
H23 H 0.7602 0.3523 0.7889
C19 C 0.7859(7) 0.1141(13) 0.6329(3)
H24 H 0.7276 0.0855 0.6492
H25 H 0.8521 0.0863 0.6516
H26 H 0.7801 0.0275 0.6068
C20 C 0.8194(6) 0.7661(15) 0.8389(2)
H27 H 0.7965 0.6227 0.8428
C21 C 0.7318(6) 0.9049(17) 0.8505(3)
H28 H 0.7527 1.0474 0.8483
H29 H 0.7190 0.8765 0.8805
H30 H 0.6678 0.8796 0.8301
C22 C 0.9283(7) 0.7917(16) 0.8671(3)
C23 C 0.9441(6) 0.6702(13) 0.9110(3)
H31 H 0.9425 0.5224 0.9048
H32 H 0.8867 0.7017 0.9282
C24 C 1.0524(8) 0.729(2) 0.9385(3)
H33 H 1.0583 0.6638 0.9678
H34 H 1.1100 0.6768 0.9235
C25 C 1.0628(8) 0.956(2) 0.9439(4)
H35 H 1.0063 1.0032 0.9607
C26 C 1.0440(8) 1.0586(18) 0.8978(3)
H36 H 1.0507 1.2080 0.9012
H37 H 1.0977 1.0116 0.8801
C27 C 1.1729(7) 1.030(3) 0.9702(3)
H38 H 1.2271 1.0205 0.9510
H39 H 1.1917 0.9440 0.9960
H40 H 1.1668 1.1718 0.9795
loop_
_geom_bond_atom_site_label_1
_geom_bond_atom_site_label_2
_geom_bond_site_symmetry_1
_geom_bond_site_symmetry_2
O1 C3 1_555 1_555
O2 C12 1_555 1_555
O3 C16 1_555 1_555
O4 C22 1_555 1_555
C1 H1 1_555 1_555
H2 C1 1_555 1_555
C2 C1 1_555 1_555
H3 C2 1_555 1_555
H4 C2 1_555 1_555
C3 C2 1_555 1_555
C4 C3 1_555 1_555
H5 C4 1_555 1_555
H6 C4 1_555 1_555
C5 C4 1_555 1_555
H7 C5 1_555 1_555
C6 C5 1_555 1_555
H8 C6 1_555 1_555
H9 C6 1_555 1_555
C7 C6 1_555 1_555
H10 C7 1_555 1_555
H11 C7 1_555 1_555
C8 C7 1_555 1_555
H12 C8 1_555 1_555
C9 C8 1_555 1_555
H13 C9 1_555 1_555
C10 C1 1_555 1_555
C11 C9 1_555 1_555
H14 C11 1_555 1_555
H15 C11 1_555 1_555
C12 C11 1_555 1_555
C13 C12 1_555 1_555
C14 C8 1_555 1_555
H16 C14 1_555 1_555
C15 C14 1_555 1_555
H17 C15 1_555 1_555
H18 C15 1_555 1_555
C16 C15 1_555 1_555
H19 C16 1_555 1_555
C17 C13 1_555 1_555
H20 C17 1_555 1_555
C18 C13 1_555 1_555
H21 C18 1_555 1_555
H22 C18 1_555 1_555
H23 C18 1_555 1_555
C19 C10 1_555 1_555
H24 C19 1_555 1_555
H25 C19 1_555 1_555
H26 C19 1_555 1_555
C20 C17 1_555 1_555
H27 C20 1_555 1_555
C21 C20 1_555 1_555
H28 C21 1_555 1_555
H29 C21 1_555 1_555
H30 C21 1_555 1_555
C22 O3 1_555 1_555
C23 C22 1_555 1_555
H31 C23 1_555 1_555
H32 C23 1_555 1_555
C24 C23 1_555 1_555
H33 C24 1_555 1_555
H34 C24 1_555 1_555
C25 C24 1_555 1_555
H35 C25 1_555 1_555
C26 O4 1_555 1_555
H36 C26 1_555 1_555
H37 C26 1_555 1_555
C27 C25 1_555 1_555
H38 C27 1_555 1_555
H39 C27 1_555 1_555
H40 C27 1_555 1_555
C5 C10 1_555 1_555
C9 C10 1_555 1_555
C13 C14 1_555 1_555
C16 C17 1_555 1_555
C20 C22 1_555 1_555
C25 C26 1_555 1_555

#END
