
#######################################################################
#
#                 Cambridge Crystallographic Data Centre
#                                CCDC 
#
#######################################################################
#
# If this CIF has been generated from an entry in the Cambridge 
# Structural Database, then it will include bibliographic, chemical, 
# crystal, experimental, refinement or atomic coordinate data resulting 
# from the CCDC's data processing and validation procedures.
#
#######################################################################

data_PONRUG01
_chemical_formula_moiety         'C33 H29 N1 O2'
_chemical_name_systematic        
2,2'-(Pyridine-2,6-diyl)bis(1,1-diphenylethanol)
_symmetry_cell_setting           monoclinic
_symmetry_space_group_name_H-M   'C c'
_symmetry_Int_Tables_number      9
_space_group_name_Hall           'C -2yc'
loop_
_symmetry_equiv_pos_site_id
_symmetry_equiv_pos_as_xyz
1 x,y,z
2 x,-y,1/2+z
3 1/2+x,1/2+y,z
4 1/2+x,1/2-y,1/2+z
_cell_length_a                   18.2360(12)
_cell_length_b                   10.0076(6)
_cell_length_c                   15.8627(10)
_cell_angle_alpha                90
_cell_angle_beta                 120.834(2)
_cell_angle_gamma                90
_cell_volume                     2485.74
_exptl_crystal_colour            colorless
_exptl_crystal_description       plate
_cell_formula_units_Z            4
loop_
_atom_site_label
_atom_site_type_symbol
_atom_site_fract_x
_atom_site_fract_y
_atom_site_fract_z
N1 N 0.00170(10) 0.42164(15) 0.43113(11)
O1 O 0.19020(9) 0.46443(14) 0.53949(10)
O2 O 0.04005(8) 0.37023(13) 0.28209(10)
C1 C 0.17634(12) 0.52042(18) 0.61325(13)
C2 C 0.08518(13) 0.5804(2) 0.56235(15)
C3 C 0.01639(12) 0.47666(19) 0.51585(13)
C4 C -0.02940(13) 0.4373(2) 0.56015(15)
C5 C -0.09258(14) 0.3428(2) 0.51524(16)
C6 C -0.10821(13) 0.2868(2) 0.42773(15)
C7 C -0.05956(12) 0.32721(18) 0.38818(13)
C8 C -0.07632(12) 0.2699(2) 0.29201(14)
C9 C 0.00301(12) 0.24408(19) 0.28328(14)
C10 C 0.24549(13) 0.62637(18) 0.66587(13)
C11 C 0.32459(14) 0.6082(2) 0.67358(15)
C12 C 0.39004(15) 0.6992(2) 0.72405(15)
C13 C 0.37831(15) 0.8103(2) 0.76760(15)
C14 C 0.30045(15) 0.8302(2) 0.76049(15)
C15 C 0.23431(14) 0.73898(19) 0.70991(14)
C16 C 0.18190(12) 0.41102(19) 0.68476(14)
C17 C 0.18124(13) 0.4459(2) 0.76945(15)
C18 C 0.17624(13) 0.3484(2) 0.82854(15)
C19 C 0.17176(14) 0.2153(2) 0.80383(16)
C20 C 0.17501(14) 0.1794(2) 0.72140(16)
C21 C 0.18025(12) 0.2764(2) 0.66249(15)
C22 C 0.06926(12) 0.15614(19) 0.36718(13)
C23 C 0.15530(13) 0.1695(2) 0.39944(15)
C24 C 0.21483(14) 0.0828(2) 0.46926(16)
C25 C 0.19015(15) -0.0161(2) 0.51002(15)
C26 C 0.10544(15) -0.0297(2) 0.47922(16)
C27 C 0.04520(14) 0.0551(2) 0.40783(16)
C28 C -0.02560(12) 0.17950(18) 0.18371(13)
C29 C -0.08543(15) 0.2460(2) 0.09937(15)
C30 C -0.11633(15) 0.1898(2) 0.00740(15)
C31 C -0.08799(13) 0.0678(2) -0.00215(15)
C32 C -0.02701(14) 0.0017(2) 0.08018(16)
C33 C 0.00362(13) 0.0569(2) 0.17250(15)
H1 H -0.0084(15) -0.085(2) 0.0739(17)
H2 H -0.0174(16) 0.040(2) 0.3834(17)
H3 H 0.0787(15) 0.634(2) 0.6128(18)
H4 H 0.0782(13) 0.641(2) 0.5112(16)
H5 H -0.1089(14) 0.182(2) 0.2786(15)
H6 H 0.3346(13) 0.531(2) 0.6435(16)
H7 H 0.1756(14) 0.085(2) 0.7033(15)
H8 H 0.0875(14) -0.099(2) 0.5079(16)
H9 H -0.1079(15) 0.334(2) 0.1048(16)
H10 H 0.1843(14) 0.537(2) 0.7877(16)
H11 H 0.4265(15) 0.874(2) 0.8033(16)
H12 H 0.2925(13) 0.909(2) 0.7907(15)
H13 H -0.1136(14) 0.334(2) 0.2406(17)
H14 H 0.4444(15) 0.683(2) 0.7273(16)
H15 H 0.0433(15) 0.005(2) 0.2309(18)
H16 H -0.0177(14) 0.479(2) 0.6179(18)
H17 H 0.1696(15) 0.241(2) 0.3681(17)
H18 H 0.1825(13) 0.2512(19) 0.6027(16)
H19 H -0.1264(16) 0.307(2) 0.5428(17)
H20 H 0.2320(16) -0.079(3) 0.5601(18)
H21 H 0.0423(14) 0.419(2) 0.3303(18)
H22 H 0.1813(16) 0.757(2) 0.7050(16)
H23 H 0.1680(14) 0.147(2) 0.8445(16)
H24 H -0.1622(18) 0.245(3) -0.054(2)
H25 H -0.1510(15) 0.222(2) 0.3946(17)
H26 H 0.1758(14) 0.377(2) 0.8864(17)
H27 H -0.1120(14) 0.026(2) -0.0696(17)
H28 H 0.278(2) 0.091(3) 0.491(2)
H29 H 0.1443(17) 0.411(2) 0.4997(19)
loop_
_geom_bond_atom_site_label_1
_geom_bond_atom_site_label_2
_geom_bond_site_symmetry_1
_geom_bond_site_symmetry_2
N1 C3 1_555 1_555
O1 C1 1_555 1_555
O2 C9 1_555 1_555
C1 C2 1_555 1_555
C2 C3 1_555 1_555
C3 C4 1_555 1_555
C4 C5 1_555 1_555
C5 C6 1_555 1_555
C6 C7 1_555 1_555
C7 N1 1_555 1_555
C8 C7 1_555 1_555
C9 C8 1_555 1_555
C10 C1 1_555 1_555
C11 C10 1_555 1_555
C12 C11 1_555 1_555
C13 C12 1_555 1_555
C14 C13 1_555 1_555
C15 C10 1_555 1_555
C16 C1 1_555 1_555
C17 C16 1_555 1_555
C18 C17 1_555 1_555
C19 C18 1_555 1_555
C20 C19 1_555 1_555
C21 C16 1_555 1_555
C22 C9 1_555 1_555
C23 C22 1_555 1_555
C24 C23 1_555 1_555
C25 C24 1_555 1_555
C26 C25 1_555 1_555
C27 C22 1_555 1_555
C28 C9 1_555 1_555
C29 C28 1_555 1_555
C30 C29 1_555 1_555
C31 C30 1_555 1_555
C32 C31 1_555 1_555
C33 C28 1_555 1_555
H1 C32 1_555 1_555
H2 C27 1_555 1_555
H3 C2 1_555 1_555
H4 C2 1_555 1_555
H5 C8 1_555 1_555
H6 C11 1_555 1_555
H7 C20 1_555 1_555
H8 C26 1_555 1_555
H9 C29 1_555 1_555
H10 C17 1_555 1_555
H11 C13 1_555 1_555
H12 C14 1_555 1_555
H13 C8 1_555 1_555
H14 C12 1_555 1_555
H15 C33 1_555 1_555
H16 C4 1_555 1_555
H17 C23 1_555 1_555
H18 C21 1_555 1_555
H19 C5 1_555 1_555
H20 C25 1_555 1_555
H21 O2 1_555 1_555
H22 C15 1_555 1_555
H23 C19 1_555 1_555
H24 C30 1_555 1_555
H25 C6 1_555 1_555
H26 C18 1_555 1_555
H27 C31 1_555 1_555
H28 C24 1_555 1_555
H29 O1 1_555 1_555
C14 C15 1_555 1_555
C20 C21 1_555 1_555
C26 C27 1_555 1_555
C32 C33 1_555 1_555

#END
