
#######################################################################
#
#                 Cambridge Crystallographic Data Centre
#                                CCDC 
#
#######################################################################
#
# If this CIF has been generated from an entry in the Cambridge 
# Structural Database, then it will include bibliographic, chemical, 
# crystal, experimental, refinement or atomic coordinate data resulting 
# from the CCDC's data processing and validation procedures.
#
#######################################################################

data_PONVOE
_chemical_formula_moiety         'C28 H40 N2 O3 S1'
_chemical_name_systematic        
(E)-N-(2-(3,5-Di-t-butyl-2-hydroxybenzylideneamino)cyclohexyl)-4-methylbenzenesulfonamide
_symmetry_cell_setting           monoclinic
_symmetry_space_group_name_H-M   'P 21'
_symmetry_Int_Tables_number      4
_space_group_name_Hall           'P 2yb'
loop_
_symmetry_equiv_pos_site_id
_symmetry_equiv_pos_as_xyz
1 x,y,z
2 -x,1/2+y,-z
_cell_length_a                   10.3873(10)
_cell_length_b                   25.773(2)
_cell_length_c                   10.4127(10)
_cell_angle_alpha                90
_cell_angle_beta                 97.269(2)
_cell_angle_gamma                90
_cell_volume                     2765.2
_exptl_crystal_colour            yellow
_exptl_crystal_description       block
_cell_formula_units_Z            4
_exptl_crystal_recrystallization_method acetonitrile
loop_
_atom_site_label
_atom_site_type_symbol
_atom_site_fract_x
_atom_site_fract_y
_atom_site_fract_z
S1 S 0.14819(7) 0.14435(3) -0.18423(8)
O1 O 0.29301(19) 0.30301(9) 0.1795(2)
H1 H 0.2569 0.2997 0.1052
O2 O 0.2506(2) 0.10829(8) -0.2013(2)
O3 O 0.0211(2) 0.13451(8) -0.2487(2)
N1 N 0.2698(2) 0.29414(10) -0.0732(2)
N2 N 0.1968(2) 0.20004(9) -0.2292(2)
H3 H 0.2716 0.2031 -0.2554
C1 C 0.4230(3) 0.30549(11) 0.1781(3)
C2 C 0.5057(3) 0.31103(11) 0.2961(3)
C3 C 0.4510(3) 0.31494(12) 0.4264(3)
C4 C 0.3715(4) 0.26723(13) 0.4496(3)
H5 H 0.3409 0.2699 0.5325
H6 H 0.4246 0.2368 0.4478
H7 H 0.2988 0.2648 0.3831
C5 C 0.3668(4) 0.36364(15) 0.4286(4)
H8 H 0.3283 0.3645 0.5077
H9 H 0.2996 0.3630 0.3563
H10 H 0.4196 0.3939 0.4233
C6 C 0.5605(4) 0.31917(16) 0.5397(3)
H11 H 0.5238 0.3217 0.6196
H12 H 0.6115 0.3496 0.5289
H13 H 0.6147 0.2889 0.5416
C7 C 0.6368(3) 0.31371(12) 0.2871(3)
H14 H 0.6922 0.3180 0.3638
C8 C 0.6939(3) 0.31053(13) 0.1725(3)
C9 C 0.8414(3) 0.31449(16) 0.1737(4)
C10 C 0.8870(9) 0.3671(5) 0.2409(16)
H15 H 0.8671 0.3671 0.3285
H16 H 0.8429 0.3954 0.1943
H17 H 0.9790 0.3709 0.2410
C11 C 0.8846(12) 0.3123(8) 0.0409(11)
H18 H 0.8514 0.2813 -0.0026
H19 H 0.9777 0.3121 0.0489
H20 H 0.8521 0.3421 -0.0082
C12 C 0.9056(11) 0.2708(5) 0.2644(12)
H21 H 0.8815 0.2375 0.2277
H22 H 0.8763 0.2737 0.3480
H23 H 0.9983 0.2745 0.2733
C16 C 0.6092(3) 0.30536(13) 0.0596(3)
H33 H 0.6423 0.3039 -0.0192
C17 C 0.4751(3) 0.30228(11) 0.0611(3)
C18 C 0.3927(3) 0.29867(12) -0.0627(3)
H34 H 0.4321 0.2997 -0.1381
C19 C 0.1941(3) 0.29483(12) -0.2025(3)
H35 H 0.2538 0.2968 -0.2681
C20 C 0.1084(3) 0.34361(13) -0.2118(3)
H36 H 0.0605 0.3446 -0.1377
H37 H 0.1638 0.3740 -0.2076
C21 C 0.0129(4) 0.34630(15) -0.3347(4)
H38 H 0.0598 0.3506 -0.4088
H39 H -0.0437 0.3761 -0.3307
C22 C -0.0682(3) 0.29699(15) -0.3505(3)
H40 H -0.1200 0.2940 -0.2797
H41 H -0.1266 0.2985 -0.4308
C23 C 0.0193(3) 0.25048(13) -0.3517(3)
H42 H 0.0697 0.2534 -0.4237
H43 H -0.0333 0.2193 -0.3644
C24 C 0.1116(3) 0.24572(12) -0.2249(3)
H44 H 0.0600 0.2416 -0.1530
C25 C 0.1358(3) 0.14887(13) -0.0177(3)
C26 C 0.0238(3) 0.13469(14) 0.0282(4)
H45 H -0.0481 0.1246 -0.0287
C27 C 0.0178(4) 0.13548(16) 0.1614(4)
H46 H -0.0578 0.1247 0.1925
C28 C 0.1218(3) 0.15193(14) 0.2483(3)
C29 C 0.1151(4) 0.15085(19) 0.3919(4)
H47 H 0.1129 0.1155 0.4206
H48 H 0.0382 0.1685 0.4103
H49 H 0.1901 0.1679 0.4363
C30 C 0.2312(3) 0.16790(13) 0.1981(4)
H50 H 0.3014 0.1802 0.2542
C31 C 0.2404(3) 0.16632(13) 0.0671(3)
H51 H 0.3163 0.1769 0.0359
S2 S 0.58237(7) 0.15336(3) 0.83633(8)
O4 O 0.42726(19) -0.00727(9) 0.4676(2)
H2 H 0.4638 -0.0044 0.5418
O5 O 0.4811(2) 0.18955(8) 0.8563(2)
O6 O 0.7097(2) 0.16206(10) 0.9016(2)
N3 N 0.4524(2) 0.00504(9) 0.7192(2)
N4 N 0.5323(2) 0.09751(10) 0.8777(3)
H4 H 0.4566 0.0949 0.9023
C32 C 0.2970(3) -0.00411(11) 0.4683(3)
C33 C 0.2129(3) -0.00827(11) 0.3516(3)
C34 C 0.2657(3) -0.01707(13) 0.2213(3)
C35 C 0.3567(4) 0.02754(16) 0.1953(4)
H52 H 0.4243 0.0307 0.2667
H53 H 0.3083 0.0593 0.1853
H54 H 0.3944 0.0205 0.1175
C36 C 0.3388(4) -0.06865(15) 0.2242(4)
H55 H 0.4112 -0.0677 0.2914
H56 H 0.3697 -0.0742 0.1422
H57 H 0.2815 -0.0964 0.2408
C37 C 0.1576(4) -0.01910(18) 0.1074(3)
H58 H 0.1117 0.0133 0.1011
H59 H 0.0985 -0.0467 0.1207
H60 H 0.1945 -0.0252 0.0288
C38 C 0.0807(3) -0.00399(11) 0.3594(3)
H61 H 0.0243 -0.0061 0.2827
C39 C 0.0265(3) 0.00322(12) 0.4744(3)
C40 C -0.1219(3) 0.00781(13) 0.4743(3)
C41 C -0.1717(6) 0.0548(3) 0.3839(10)
H62 H -0.1421 0.0507 0.3008
H63 H -0.1384 0.0867 0.4225
H64 H -0.2648 0.0556 0.3735
C42 C -0.1884(10) -0.0400(3) 0.4122(12)
H65 H -0.1703 -0.0428 0.3243
H66 H -0.2804 -0.0371 0.4133
H67 H -0.1567 -0.0703 0.4596
C43 C -0.1624(7) 0.0177(5) 0.6022(7)
H68 H -0.1133 0.0461 0.6428
H69 H -0.1474 -0.0128 0.6550
H70 H -0.2531 0.0261 0.5924
C47 C 0.1115(3) 0.00599(12) 0.5857(3)
H80 H 0.0788 0.0106 0.6640
C48 C 0.2460(3) 0.00212(11) 0.5860(3)
C49 C 0.3298(3) 0.00341(12) 0.7095(3)
H81 H 0.2910 0.0030 0.7852
C50 C 0.5268(3) 0.00251(12) 0.8483(3)
H82 H 0.4660 0.0012 0.9129
C51 C 0.6056(4) -0.04741(14) 0.8565(3)
H83 H 0.5466 -0.0767 0.8484
H84 H 0.6561 -0.0487 0.7843
C52 C 0.6968(4) -0.05254(17) 0.9822(4)
H85 H 0.7492 -0.0836 0.9795
H86 H 0.6468 -0.0556 1.0544
C53 C 0.7842(4) -0.00538(18) 1.0010(4)
H87 H 0.8384 -0.0037 0.9318
H88 H 0.8405 -0.0083 1.0825
C54 C 0.7029(3) 0.04415(14) 1.0013(3)
H89 H 0.6514 0.0429 1.0726
H90 H 0.7602 0.0740 1.0140
C55 C 0.6135(3) 0.05031(12) 0.8744(3)
H91 H 0.6670 0.0539 0.8038
C56 C 0.5933(3) 0.15180(12) 0.6684(3)
C57 C 0.4966(3) 0.12880(13) 0.5829(3)
H92 H 0.4270 0.1124 0.6142
C58 C 0.5036(3) 0.13026(12) 0.4533(3)
H93 H 0.4391 0.1142 0.3971
C59 C 0.6054(3) 0.15531(13) 0.4025(3)
C60 C 0.6095(4) 0.15820(17) 0.2584(4)
H94 H 0.5600 0.1301 0.2166
H95 H 0.6979 0.1557 0.2410
H96 H 0.5733 0.1906 0.2260
C61 C 0.7014(4) 0.17739(15) 0.4897(4)
H97 H 0.7706 0.1941 0.4587
C62 C 0.6973(3) 0.17529(14) 0.6205(4)
H98 H 0.7643 0.1896 0.6772
C13? C 0.8752(17) 0.3694(8) 0.128(5)
H24? H 0.8678 0.3939 0.1962
H25? H 0.8162 0.3788 0.0531
H26? H 0.9624 0.3696 0.1068
C14? C 0.8800(17) 0.2763(16) 0.065(4)
H27? H 0.9317 0.2484 0.1055
H28? H 0.9289 0.2949 0.0081
H29? H 0.8028 0.2624 0.0172
C15? C 0.927(2) 0.302(2) 0.293(4)
H30? H 0.9071 0.2683 0.3230
H31? H 0.9146 0.3274 0.3588
H32? H 1.0160 0.3032 0.2767
C44? C -0.1500(12) 0.0580(6) 0.529(3)
H71? H -0.0879 0.0831 0.5077
H72? H -0.1450 0.0550 0.6215
H73? H -0.2357 0.0689 0.4942
C45? C -0.1975(16) -0.0086(14) 0.358(2)
H74? H -0.1914 0.0167 0.2912
H75? H -0.2865 -0.0123 0.3723
H76? H -0.1656 -0.0414 0.3313
C46? C -0.1498(12) -0.0362(8) 0.5812(18)
H77? H -0.0952 -0.0658 0.5732
H78? H -0.2392 -0.0466 0.5662
H79? H -0.1313 -0.0220 0.6667
loop_
_geom_bond_atom_site_label_1
_geom_bond_atom_site_label_2
_geom_bond_site_symmetry_1
_geom_bond_site_symmetry_2
S1 O2 1_555 1_555
S2 O5 1_555 1_555
O1 H1 1_555 1_555
O3 S1 1_555 1_555
O4 H2 1_555 1_555
O6 S2 1_555 1_555
N1 C18 1_555 1_555
N2 S1 1_555 1_555
H3 N2 1_555 1_555
N3 C49 1_555 1_555
N4 S2 1_555 1_555
H4 N4 1_555 1_555
C1 O1 1_555 1_555
C2 C1 1_555 1_555
C3 C2 1_555 1_555
C4 C3 1_555 1_555
H5 C4 1_555 1_555
H6 C4 1_555 1_555
H7 C4 1_555 1_555
C5 C3 1_555 1_555
H8 C5 1_555 1_555
H9 C5 1_555 1_555
H10 C5 1_555 1_555
C6 C3 1_555 1_555
H11 C6 1_555 1_555
H12 C6 1_555 1_555
H13 C6 1_555 1_555
C7 C2 1_555 1_555
H14 C7 1_555 1_555
C8 C7 1_555 1_555
C9 C8 1_555 1_555
C10 C9 1_555 1_555
H15 C10 1_555 1_555
H16 C10 1_555 1_555
H17 C10 1_555 1_555
C11 C9 1_555 1_555
H18 C11 1_555 1_555
H19 C11 1_555 1_555
H20 C11 1_555 1_555
C12 C9 1_555 1_555
H21 C12 1_555 1_555
H22 C12 1_555 1_555
H23 C12 1_555 1_555
C16 C8 1_555 1_555
H33 C16 1_555 1_555
C17 C1 1_555 1_555
C18 C17 1_555 1_555
H34 C18 1_555 1_555
C19 N1 1_555 1_555
H35 C19 1_555 1_555
C20 C19 1_555 1_555
H36 C20 1_555 1_555
H37 C20 1_555 1_555
C21 C20 1_555 1_555
H38 C21 1_555 1_555
H39 C21 1_555 1_555
C22 C21 1_555 1_555
H40 C22 1_555 1_555
H41 C22 1_555 1_555
C23 C22 1_555 1_555
H42 C23 1_555 1_555
H43 C23 1_555 1_555
C24 N2 1_555 1_555
H44 C24 1_555 1_555
C25 S1 1_555 1_555
C26 C25 1_555 1_555
H45 C26 1_555 1_555
C27 C26 1_555 1_555
H46 C27 1_555 1_555
C28 C27 1_555 1_555
C29 C28 1_555 1_555
H47 C29 1_555 1_555
H48 C29 1_555 1_555
H49 C29 1_555 1_555
C30 C28 1_555 1_555
H50 C30 1_555 1_555
C31 C25 1_555 1_555
H51 C31 1_555 1_555
C32 O4 1_555 1_555
C33 C32 1_555 1_555
C34 C33 1_555 1_555
C35 C34 1_555 1_555
H52 C35 1_555 1_555
H53 C35 1_555 1_555
H54 C35 1_555 1_555
C36 C34 1_555 1_555
H55 C36 1_555 1_555
H56 C36 1_555 1_555
H57 C36 1_555 1_555
C37 C34 1_555 1_555
H58 C37 1_555 1_555
H59 C37 1_555 1_555
H60 C37 1_555 1_555
C38 C33 1_555 1_555
H61 C38 1_555 1_555
C39 C38 1_555 1_555
C40 C39 1_555 1_555
C41 C40 1_555 1_555
H62 C41 1_555 1_555
H63 C41 1_555 1_555
H64 C41 1_555 1_555
C42 C40 1_555 1_555
H65 C42 1_555 1_555
H66 C42 1_555 1_555
H67 C42 1_555 1_555
C43 C40 1_555 1_555
H68 C43 1_555 1_555
H69 C43 1_555 1_555
H70 C43 1_555 1_555
C47 C39 1_555 1_555
H80 C47 1_555 1_555
C48 C32 1_555 1_555
C49 C48 1_555 1_555
H81 C49 1_555 1_555
C50 N3 1_555 1_555
H82 C50 1_555 1_555
C51 C50 1_555 1_555
H83 C51 1_555 1_555
H84 C51 1_555 1_555
C52 C51 1_555 1_555
H85 C52 1_555 1_555
H86 C52 1_555 1_555
C53 C52 1_555 1_555
H87 C53 1_555 1_555
H88 C53 1_555 1_555
C54 C53 1_555 1_555
H89 C54 1_555 1_555
H90 C54 1_555 1_555
C55 N4 1_555 1_555
H91 C55 1_555 1_555
C56 S2 1_555 1_555
C57 C56 1_555 1_555
H92 C57 1_555 1_555
C58 C57 1_555 1_555
H93 C58 1_555 1_555
C59 C58 1_555 1_555
C60 C59 1_555 1_555
H94 C60 1_555 1_555
H95 C60 1_555 1_555
H96 C60 1_555 1_555
C61 C59 1_555 1_555
H97 C61 1_555 1_555
C62 C56 1_555 1_555
H98 C62 1_555 1_555
C16 C17 1_555 1_555
C19 C24 1_555 1_555
C23 C24 1_555 1_555
C30 C31 1_555 1_555
C47 C48 1_555 1_555
C50 C55 1_555 1_555
C54 C55 1_555 1_555
C61 C62 1_555 1_555

#END
