
#######################################################################
#
#                 Cambridge Crystallographic Data Centre
#                                CCDC 
#
#######################################################################
#
# If this CIF has been generated from an entry in the Cambridge 
# Structural Database, then it will include bibliographic, chemical, 
# crystal, experimental, refinement or atomic coordinate data resulting 
# from the CCDC's data processing and validation procedures.
#
#######################################################################

data_PONXUL
_chemical_formula_moiety         'C18 H20 N3 O3 S1 1+,Cl1 1-,H2 O1'
_chemical_name_systematic        
'(R)-(+)-5-(4-(2-(Methyl(2-pyridyl)amino)-ethoxy)benzyl)thiazolidine-2,4-dione hydrochloride monohydrate'
_symmetry_cell_setting           monoclinic
_symmetry_space_group_name_H-M   'P 21'
_symmetry_Int_Tables_number      4
_space_group_name_Hall           'P 2yb'
loop_
_symmetry_equiv_pos_site_id
_symmetry_equiv_pos_as_xyz
1 x,y,z
2 -x,1/2+y,-z
_cell_length_a                   4.538
_cell_length_b                   11.816
_cell_length_c                   18.567
_cell_angle_alpha                90
_cell_angle_beta                 90.60
_cell_angle_gamma                90
_cell_volume                     995.527
_exptl_crystal_colour            colorless
_chemical_melting_point          '123-124 deg.C'
_cell_formula_units_Z            2
loop_
_atom_site_label
_atom_site_type_symbol
_atom_site_fract_x
_atom_site_fract_y
_atom_site_fract_z
Cl1 Cl 0.3718(2) 0.222 0.44533
S1 S 0.3707(2) 0.38082(8) 0.09888(4)
O1 O 0.3300(6) 0.4292(2) 0.2365(1)
O2 O -0.1720(5) 0.1385(2) 0.1328(1)
O3 O 0.7985(5) 0.3203(2) -0.2333(1)
N1 N 0.0692(5) 0.2762(2) 0.1963(1)
N2 N 0.9544(5) 0.3439(2) -0.3787(1)
N3 N 0.8069(5) 0.1747(2) -0.4299(1)
C1 C 0.2552(7) 0.3673(3) 0.1887(2)
C2 C 0.0070(6) 0.2145(3) 0.1351(1)
C3 C 0.1962(6) 0.2490(3) 0.0720(2)
C4 C 0.0240(7) 0.2569(3) 0.0007(2)
C5 C 0.2286(6) 0.2767(3) -0.0621(2)
C6 C 0.3066(6) 0.3843(3) -0.0828(2)
C7 C 0.4983(6) 0.4036(2) -0.1392(2)
C8 C 0.6128(6) 0.3122(3) -0.1756(1)
C9 C 0.5382(6) 0.2027(3) -0.1565(2)
C10 C 0.3458(7) 0.1858(3) -0.0993(2)
C11 C 0.8800(7) 0.4301(3) -0.2585(2)
C12 C 1.0884(7) 0.4099(3) -0.3206(2)
C13 C 0.7635(8) 0.4035(3) -0.4300(2)
C14 C 0.9681(5) 0.2303(3) -0.3796(1)
C15 C 0.8069(7) 0.0599(3) -0.4353(2)
C16 C 0.9689(8) -0.0048(3) -0.3908(2)
C17 C 1.1411(7) 0.0486(3) -0.3390(2)
C18 C 1.1426(7) 0.1637(3) -0.3324(2)
H1 H -0.024(7) 0.257(3) 0.239(2)
H2 H 0.3550 0.1904 0.0664
H3 H -0.1174 0.3194 0.0033
H4 H -0.0805 0.1831 -0.0077
H5 H 0.2245 0.4501 -0.0554
H6 H 0.5534 0.4824 -0.1528
H7 H 0.6188 0.1372 -0.1826
H8 H 0.2938 0.1068 -0.0845
H9 H 0.9735 0.4756 -0.2197
H10 H 0.6985 0.4717 -0.2770
H11 H 1.1602 0.4823 -0.3392
H12 H 1.2633 0.3648 -0.3002
H13 H 0.7788 0.4866 -0.4221
H14 H 0.8228 0.3850 -0.4805
H15 H 0.5528 0.3791 -0.4232
H16 H 0.6816 0.2186 -0.4643
H17 H 0.6852 0.0216 -0.4732
H18 H 0.9671 -0.0889 -0.3948
H19 H 1.2617 0.0010 -0.3050
H20 H 1.2673 0.1991 -0.2943
O4 O -0.1243(4) 0.2024(2) 0.3281(1)
H21 H 0.016(5) 0.211(3) 0.358(1)
H22 H -0.242(7) 0.205(3) 0.353(2)
loop_
_geom_bond_atom_site_label_1
_geom_bond_atom_site_label_2
_geom_bond_site_symmetry_1
_geom_bond_site_symmetry_2
S1 C1 1_555 1_555
O1 C1 1_555 1_555
O2 C2 1_555 1_555
O3 C8 1_555 1_555
N1 C1 1_555 1_555
N2 C12 1_555 1_555
N3 C14 1_555 1_555
C2 N1 1_555 1_555
C3 S1 1_555 1_555
C4 C3 1_555 1_555
C5 C4 1_555 1_555
C6 C5 1_555 1_555
C7 C6 1_555 1_555
C8 C7 1_555 1_555
C9 C8 1_555 1_555
C10 C5 1_555 1_555
C11 O3 1_555 1_555
C12 C11 1_555 1_555
C13 N2 1_555 1_555
C14 N2 1_555 1_555
C15 N3 1_555 1_555
C16 C15 1_555 1_555
C17 C16 1_555 1_555
C18 C14 1_555 1_555
H1 N1 1_555 1_555
H2 C3 1_555 1_555
H3 C4 1_555 1_555
H4 C4 1_555 1_555
H5 C6 1_555 1_555
H6 C7 1_555 1_555
H7 C9 1_555 1_555
H8 C10 1_555 1_555
H9 C11 1_555 1_555
H10 C11 1_555 1_555
H11 C12 1_555 1_555
H12 C12 1_555 1_555
H13 C13 1_555 1_555
H14 C13 1_555 1_555
H15 C13 1_555 1_555
H16 N3 1_555 1_555
H17 C15 1_555 1_555
H18 C16 1_555 1_555
H19 C17 1_555 1_555
H20 C18 1_555 1_555
O4 H21 1_555 1_555
H22 O4 1_555 1_555
C2 C3 1_555 1_555
C9 C10 1_555 1_555
C17 C18 1_555 1_555

#END
