
#######################################################################
#
#                 Cambridge Crystallographic Data Centre
#                                CCDC 
#
#######################################################################
#
# If this CIF has been generated from an entry in the Cambridge 
# Structural Database, then it will include bibliographic, chemical, 
# crystal, experimental, refinement or atomic coordinate data resulting 
# from the CCDC's data processing and validation procedures.
#
#######################################################################

data_PONYAT
_chemical_formula_moiety         'C24 H20 P2 S1'
_chemical_name_systematic        
'1,1,2,2-Tetraphenyl-1\l^5^-diphosphane 1-sulfide'
_symmetry_cell_setting           monoclinic
_symmetry_space_group_name_H-M   'P 21/c'
_symmetry_Int_Tables_number      14
_space_group_name_Hall           '-P 2ybc'
loop_
_symmetry_equiv_pos_site_id
_symmetry_equiv_pos_as_xyz
1 x,y,z
2 -x,1/2+y,1/2-z
3 -x,-y,-z
4 x,1/2-y,1/2+z
_cell_length_a                   9.32670(19)
_cell_length_b                   13.6496(4)
_cell_length_c                   16.0484(4)
_cell_angle_alpha                90
_cell_angle_beta                 91.7298(17)
_cell_angle_gamma                90
_cell_volume                     2042.12
_exptl_crystal_colour            colorless
_exptl_crystal_description       prism
_cell_formula_units_Z            4
loop_
_atom_site_label
_atom_site_type_symbol
_atom_site_fract_x
_atom_site_fract_y
_atom_site_fract_z
C1 C 0.58305(14) 0.77663(9) -0.01356(8)
C2 C 0.58628(15) 0.78402(11) -0.10028(8)
H1 H 0.5640 0.7283 -0.1337
C3 C 0.62169(16) 0.87176(12) -0.13813(10)
H2 H 0.6232 0.8761 -0.1972
C4 C 0.65480(16) 0.95274(11) -0.08978(11)
H3 H 0.6797 1.0128 -0.1156
C5 C 0.65188(16) 0.94677(11) -0.00372(10)
H4 H 0.6751 1.0026 0.0293
C6 C 0.61519(15) 0.85951(10) 0.03445(9)
H5 H 0.6119 0.8561 0.0935
C7 C 0.66830(14) 0.62119(9) 0.10362(7)
C8 C 0.78956(15) 0.67684(11) 0.12330(9)
H6 H 0.7999 0.7401 0.0996
C9 C 0.89570(16) 0.64037(12) 0.17754(10)
H7 H 0.9782 0.6789 0.1906
C10 C 0.88200(16) 0.54883(12) 0.21250(9)
H8 H 0.9544 0.5244 0.2499
C11 C 0.76235(17) 0.49268(11) 0.19287(9)
H9 H 0.7528 0.4294 0.2167
C12 C 0.65601(15) 0.52821(10) 0.13849(8)
H10 H 0.5745 0.4889 0.1250
C13 C 0.22346(14) 0.75419(10) 0.03664(9)
C14 C 0.21864(17) 0.73376(12) -0.04835(10)
H11 H 0.2841 0.6882 -0.0708
C15 C 0.11782(19) 0.78017(15) -0.10032(11)
H12 H 0.1161 0.7675 -0.1586
C16 C 0.02074(18) 0.84419(13) -0.06782(10)
H13 H -0.0496 0.8743 -0.1034
C17 C 0.02482(17) 0.86493(12) 0.01602(12)
H14 H -0.0422 0.9097 0.0380
C18 C 0.12649(16) 0.82073(11) 0.06868(11)
H15 H 0.1298 0.8359 0.1265
C19 C 0.28040(15) 0.57847(10) 0.13544(9)
C20 C 0.21178(18) 0.51924(11) 0.07596(10)
H16 H 0.1989 0.5421 0.0203
C21 C 0.1620(2) 0.42703(13) 0.09741(13)
H17 H 0.1140 0.3873 0.0568
C22 C 0.1824(2) 0.39341(13) 0.17769(15)
H18 H 0.1500 0.3299 0.1922
C23 C 0.2495(2) 0.45130(16) 0.23683(14)
H19 H 0.2627 0.4275 0.2922
C24 C 0.29853(18) 0.54423(14) 0.21697(11)
H20 H 0.3439 0.5841 0.2585
P1 P 0.53134(3) 0.65612(2) 0.024981(19)
P2 P 0.35427(4) 0.69731(2) 0.10811(2)
S1 S 0.39983(5) 0.77769(3) 0.20569(2)
loop_
_geom_bond_atom_site_label_1
_geom_bond_atom_site_label_2
_geom_bond_site_symmetry_1
_geom_bond_site_symmetry_2
C1 C2 1_555 1_555
C2 H1 1_555 1_555
C3 C2 1_555 1_555
H2 C3 1_555 1_555
C4 C3 1_555 1_555
H3 C4 1_555 1_555
C5 C4 1_555 1_555
H4 C5 1_555 1_555
C6 C1 1_555 1_555
H5 C6 1_555 1_555
C7 C8 1_555 1_555
C8 H6 1_555 1_555
C9 C8 1_555 1_555
H7 C9 1_555 1_555
C10 C9 1_555 1_555
H8 C10 1_555 1_555
C11 C10 1_555 1_555
H9 C11 1_555 1_555
C12 C7 1_555 1_555
H10 C12 1_555 1_555
C13 C14 1_555 1_555
C14 H11 1_555 1_555
C15 C14 1_555 1_555
H12 C15 1_555 1_555
C16 C15 1_555 1_555
H13 C16 1_555 1_555
C17 C16 1_555 1_555
H14 C17 1_555 1_555
C18 C13 1_555 1_555
H15 C18 1_555 1_555
C19 C20 1_555 1_555
C20 H16 1_555 1_555
C21 C20 1_555 1_555
H17 C21 1_555 1_555
C22 C21 1_555 1_555
H18 C22 1_555 1_555
C23 C22 1_555 1_555
H19 C23 1_555 1_555
C24 C19 1_555 1_555
H20 C24 1_555 1_555
P1 C1 1_555 1_555
P2 C13 1_555 1_555
S1 P2 1_555 1_555
C5 C6 1_555 1_555
C7 P1 1_555 1_555
C11 C12 1_555 1_555
C17 C18 1_555 1_555
C19 P2 1_555 1_555
C23 C24 1_555 1_555
P1 P2 1_555 1_555

#END
