
#######################################################################
#
#                 Cambridge Crystallographic Data Centre
#                                CCDC 
#
#######################################################################
#
# If this CIF has been generated from an entry in the Cambridge 
# Structural Database, then it will include bibliographic, chemical, 
# crystal, experimental, refinement or atomic coordinate data resulting 
# from the CCDC's data processing and validation procedures.
#
#######################################################################

data_POPGAE
_chemical_formula_moiety         'C15 H6 Cl1 F1 N2 O2'
_chemical_name_systematic        
6-chloro-8-fluoroisoindolo[1,2-b]quinazoline-10,12-dione
_symmetry_cell_setting           triclinic
_symmetry_space_group_name_H-M   'P -1'
_symmetry_Int_Tables_number      2
_space_group_name_Hall           '-P 1'
loop_
_symmetry_equiv_pos_site_id
_symmetry_equiv_pos_as_xyz
1 x,y,z
2 -x,-y,-z
_cell_length_a                   9.2263(3)
_cell_length_b                   10.2748(3)
_cell_length_c                   12.9314(4)
_cell_angle_alpha                95.427(1)
_cell_angle_beta                 95.722(1)
_cell_angle_gamma                93.942(1)
_cell_volume                     1210.51
_exptl_crystal_colour            colorless
_exptl_crystal_description       prism
_cell_formula_units_Z            4
loop_
_atom_site_label
_atom_site_type_symbol
_atom_site_fract_x
_atom_site_fract_y
_atom_site_fract_z
C1 C 0.3357(2) -0.11298(18) 0.64158(15)
C2 C 0.26701(19) -0.06609(18) 0.73573(15)
C3 C 0.2825(2) -0.1068(2) 0.83483(16)
H1 H 0.3427 -0.1751 0.8511
C4 C 0.2061(2) -0.0437(2) 0.90968(16)
H2 H 0.2134 -0.0699 0.9784
C5 C 0.1195(2) 0.0570(2) 0.88581(15)
H3 H 0.0708 0.1000 0.9391
C6 C 0.1023(2) 0.09639(17) 0.78579(14)
H4 H 0.0419 0.1644 0.7694
C7 C 0.17692(19) 0.03245(17) 0.71106(14)
C8 C 0.18227(18) 0.05206(16) 0.60086(14)
C9 C 0.13853(18) 0.13394(16) 0.44492(14)
C10 C 0.06811(19) 0.22112(17) 0.38346(14)
C11 C 0.0862(2) 0.22342(18) 0.27886(15)
H5 H 0.0375 0.2825 0.2378
C12 C 0.1777(2) 0.13686(19) 0.23581(14)
C13 C 0.2515(2) 0.05141(19) 0.29151(15)
H6 H 0.3144 -0.0056 0.2593
C14 C 0.23220(19) 0.04976(17) 0.39683(14)
C15 C 0.3122(2) -0.04129(18) 0.45822(15)
Cl1 Cl -0.04311(5) 0.32969(4) 0.43998(4)
F1 F 0.19486(14) 0.13928(12) 0.13323(9)
N1 N 0.27891(16) -0.03536(14) 0.56129(12)
N2 N 0.11347(16) 0.13304(14) 0.54952(11)
O1 O 0.39828(16) -0.11391(14) 0.42417(11)
O2 O 0.41921(17) -0.19565(15) 0.62966(12)
C16 C 0.84679(19) 0.39749(17) 0.88760(14)
C17 C 0.77564(19) 0.44312(17) 0.79171(14)
C18 C 0.7892(2) 0.40144(19) 0.68809(15)
H7 H 0.8520 0.3355 0.6698
C19 C 0.7070(2) 0.46032(19) 0.61221(14)
H8 H 0.7129 0.4334 0.5405
C20 C 0.6159(2) 0.55821(18) 0.63911(14)
H9 H 0.5626 0.5980 0.5855
C21 C 0.60203(19) 0.59848(17) 0.74334(14)
H10 H 0.5393 0.6645 0.7619
C22 C 0.68269(19) 0.53901(17) 0.81872(14)
C23 C 0.68912(18) 0.55790(16) 0.93274(14)
C24 C 0.64016(18) 0.63261(16) 1.09523(14)
C25 C 0.56368(19) 0.71382(17) 1.16073(14)
C26 C 0.5802(2) 0.71230(18) 1.26768(15)
H11 H 0.5275 0.7673 1.3111
C27 C 0.6755(2) 0.62874(19) 1.31015(14)
C28 C 0.7560(2) 0.54881(18) 1.25150(14)
H12 H 0.8223 0.4941 1.2835
C29 C 0.73706(19) 0.55059(17) 1.14302(14)
C30 C 0.8205(2) 0.46363(17) 1.07869(14)
Cl2 Cl 0.44527(5) 0.81763(5) 1.10563(4)
F2 F 0.68824(13) 0.62499(12) 1.41470(8)
N3 N 0.78846(16) 0.47258(14) 0.97196(12)
N4 N 0.61647(16) 0.63517(14) 0.98737(11)
O3 O 0.93340(15) 0.31745(14) 0.89846(11)
O4 O 0.90803(15) 0.39186(14) 1.11303(11)
loop_
_geom_bond_atom_site_label_1
_geom_bond_atom_site_label_2
_geom_bond_site_symmetry_1
_geom_bond_site_symmetry_2
C1 C2 1_555 1_555
C2 C3 1_555 1_555
C3 H1 1_555 1_555
C4 C3 1_555 1_555
H2 C4 1_555 1_555
C5 C4 1_555 1_555
H3 C5 1_555 1_555
C6 C5 1_555 1_555
H4 C6 1_555 1_555
C7 C2 1_555 1_555
C8 C7 1_555 1_555
C9 C10 1_555 1_555
C10 C11 1_555 1_555
C11 H5 1_555 1_555
C12 C11 1_555 1_555
C13 C12 1_555 1_555
H6 C13 1_555 1_555
C14 C9 1_555 1_555
C15 C14 1_555 1_555
Cl1 C10 1_555 1_555
F1 C12 1_555 1_555
N1 C1 1_555 1_555
N2 C8 1_555 1_555
O1 C15 1_555 1_555
O2 C1 1_555 1_555
C16 C17 1_555 1_555
C17 C18 1_555 1_555
C18 H7 1_555 1_555
C19 C18 1_555 1_555
H8 C19 1_555 1_555
C20 C19 1_555 1_555
H9 C20 1_555 1_555
C21 C20 1_555 1_555
H10 C21 1_555 1_555
C22 C17 1_555 1_555
C23 C22 1_555 1_555
C24 C25 1_555 1_555
C25 C26 1_555 1_555
C26 H11 1_555 1_555
C27 C26 1_555 1_555
C28 C27 1_555 1_555
H12 C28 1_555 1_555
C29 C24 1_555 1_555
C30 C29 1_555 1_555
Cl2 C25 1_555 1_555
F2 C27 1_555 1_555
N3 C16 1_555 1_555
N4 C23 1_555 1_555
O3 C16 1_555 1_555
O4 C30 1_555 1_555
C6 C7 1_555 1_555
C8 N1 1_555 1_555
C9 N2 1_555 1_555
C13 C14 1_555 1_555
C15 N1 1_555 1_555
C21 C22 1_555 1_555
C23 N3 1_555 1_555
C24 N4 1_555 1_555
C28 C29 1_555 1_555
C30 N3 1_555 1_555

#END
