
#######################################################################
#
#                 Cambridge Crystallographic Data Centre
#                                CCDC 
#
#######################################################################
#
# If this CIF has been generated from an entry in the Cambridge 
# Structural Database, then it will include bibliographic, chemical, 
# crystal, experimental, refinement or atomic coordinate data resulting 
# from the CCDC's data processing and validation procedures.
#
#######################################################################

data_POPGIM
_chemical_formula_moiety         'C30 H26 O2 S1'
_chemical_name_systematic        
(2-hydroxy-5-methyl-2,4-diphenyl-6-(2-thienyl)cyclohex-3-en-1-yl)(phenyl)methanone
_symmetry_cell_setting           orthorhombic
_symmetry_space_group_name_H-M   'P 21 21 21'
_symmetry_Int_Tables_number      19
_space_group_name_Hall           'P 2ac 2ab'
loop_
_symmetry_equiv_pos_site_id
_symmetry_equiv_pos_as_xyz
1 x,y,z
2 1/2-x,-y,1/2+z
3 1/2+x,1/2-y,-z
4 -x,1/2+y,1/2-z
_cell_length_a                   5.9945(3)
_cell_length_b                   18.3069(8)
_cell_length_c                   21.7645(9)
_cell_angle_alpha                90
_cell_angle_beta                 90
_cell_angle_gamma                90
_cell_volume                     2388.45
_exptl_crystal_colour            'light colorless'
_exptl_crystal_description       block
_cell_formula_units_Z            4
loop_
_atom_site_label
_atom_site_type_symbol
_atom_site_fract_x
_atom_site_fract_y
_atom_site_fract_z
O1 O -0.3757(4) -0.45328(14) 0.18485(12)
H1 H -0.3777 -0.4127 0.1689
O2 O -0.2124(5) -0.32471(14) 0.14088(12)
C1 C -0.0726(7) -0.58135(18) 0.11391(16)
C2 C 0.1362(7) -0.30122(18) 0.18628(15)
C3 C -0.1556(7) -0.55673(18) 0.16632(16)
H2 H -0.2246 -0.5908 0.1917
C4 C -0.0796(7) -0.48210(18) 0.25670(15)
C5 C -0.1492(6) -0.47874(18) 0.18885(15)
C6 C -0.0262(7) -0.45156(17) 0.08026(14)
H3 H -0.1872 -0.4483 0.0729
C7 C -0.0327(7) -0.34996(17) 0.15820(14)
C8 C 0.0815(6) -0.39928(19) 0.03605(15)
C9 C 0.0103(6) -0.43153(16) 0.14897(14)
H4 H 0.1649 -0.4425 0.1603
C10 C 0.1288(8) -0.2264(2) 0.17134(17)
H5 H 0.0187 -0.2088 0.1451
C11 C 0.1518(8) -0.3236(2) -0.05421(18)
H6 H 0.1457 -0.2987 -0.0914
C12 C 0.0391(7) -0.5315(2) 0.06806(16)
H7 H -0.0183 -0.5445 0.0273
C13 C -0.0902(8) -0.6612(2) 0.09930(18)
C14 C 0.4495(9) -0.2770(2) 0.2511(2)
H8 H 0.5560 -0.2937 0.2788
C15 C 0.2980(7) -0.3252(2) 0.22683(18)
H9 H 0.3042 -0.3743 0.2377
C16 C -0.2236(8) -0.46256(19) 0.30368(16)
H10 H -0.3600 -0.4409 0.2945
C17 C 0.1254(8) -0.5126(2) 0.27218(17)
H11 H 0.2255 -0.5249 0.2412
C18 C 0.2845(9) -0.1794(2) 0.1956(2)
H12 H 0.2802 -0.1301 0.1851
C19 C 0.2936(8) -0.5456(2) 0.0673(2)
H13 H 0.3562 -0.5320 0.1063
H14 H 0.3612 -0.5170 0.0354
H15 H 0.3212 -0.5964 0.0598
C20 C 0.1826(9) -0.5248(3) 0.3329(2)
H16 H 0.3201 -0.5455 0.3425
C21 C 0.4463(9) -0.2042(2) 0.2351(2)
H17 H 0.5525 -0.1723 0.2509
C22 C -0.1642(11) -0.4753(3) 0.36460(18)
H18 H -0.2623 -0.4625 0.3959
C23 C -0.0142(14) -0.7120(2) 0.1385(2)
H19 H 0.0521 -0.6971 0.1750
C24 C 0.0379(11) -0.5066(3) 0.37898(19)
H20 H 0.0757 -0.5153 0.4198
C25 C 0.3249(8) -0.3180(2) -0.01579(18)
H21 H 0.4521 -0.2904 -0.0235
C26 C -0.1990(11) -0.6847(2) 0.0479(3)
H22 H -0.2588 -0.6510 0.0206
C27 C -0.0316(17) -0.7859(3) 0.1262(3)
H23 H 0.0296 -0.8196 0.1534
C28 C -0.1344(16) -0.8087(3) 0.0763(3)
H24 H -0.1478 -0.8584 0.0685
C29 C -0.2209(14) -0.7592(3) 0.0363(3)
H25 H -0.2945 -0.7750 0.0011
S1 S -0.0514(3) -0.37843(10) -0.03058(8)
C30 C 0.2875(16) -0.3614(9) 0.0404(8)
H26 H 0.3845 -0.3637 0.0737
H27? H 0.1297 -0.3048 -0.0934
H28? H 0.4353 -0.2839 -0.0247
S2? S 0.352(2) -0.3665(12) 0.0443(10)
C31? C 0.003(12) -0.370(4) -0.014(3)
H29? H -0.1452 -0.3782 -0.0251
loop_
_geom_bond_atom_site_label_1
_geom_bond_atom_site_label_2
_geom_bond_site_symmetry_1
_geom_bond_site_symmetry_2
O1 H1 1_555 1_555
O2 C7 1_555 1_555
C1 C3 1_555 1_555
C2 C7 1_555 1_555
C3 H2 1_555 1_555
C4 C5 1_555 1_555
C5 O1 1_555 1_555
C6 H3 1_555 1_555
C7 C9 1_555 1_555
C8 C6 1_555 1_555
C9 C5 1_555 1_555
H4 C9 1_555 1_555
C10 C2 1_555 1_555
H5 C10 1_555 1_555
C11 H6 1_555 1_555
C12 C1 1_555 1_555
H7 C12 1_555 1_555
C13 C1 1_555 1_555
C14 H8 1_555 1_555
C15 C2 1_555 1_555
H9 C15 1_555 1_555
C16 C4 1_555 1_555
H10 C16 1_555 1_555
C17 C4 1_555 1_555
H11 C17 1_555 1_555
C18 C10 1_555 1_555
H12 C18 1_555 1_555
C19 C12 1_555 1_555
H13 C19 1_555 1_555
H14 C19 1_555 1_555
H15 C19 1_555 1_555
C20 C17 1_555 1_555
H16 C20 1_555 1_555
C21 C14 1_555 1_555
H17 C21 1_555 1_555
C22 C16 1_555 1_555
H18 C22 1_555 1_555
C23 C13 1_555 1_555
H19 C23 1_555 1_555
C24 C20 1_555 1_555
H20 C24 1_555 1_555
C25 C11 1_555 1_555
H21 C25 1_555 1_555
C26 C13 1_555 1_555
H22 C26 1_555 1_555
C27 C23 1_555 1_555
H23 C27 1_555 1_555
C28 C27 1_555 1_555
H24 C28 1_555 1_555
C29 C26 1_555 1_555
H25 C29 1_555 1_555
S1 C8 1_555 1_555
C30 C8 1_555 1_555
H26 C30 1_555 1_555
C3 C5 1_555 1_555
C6 C9 1_555 1_555
C6 C12 1_555 1_555
C11 S1 1_555 1_555
C14 C15 1_555 1_555
C18 C21 1_555 1_555
C22 C24 1_555 1_555
C25 C30 1_555 1_555
C28 C29 1_555 1_555

#END
