
#######################################################################
#
#                 Cambridge Crystallographic Data Centre
#                                CCDC 
#
#######################################################################
#
# If this CIF has been generated from an entry in the Cambridge 
# Structural Database, then it will include bibliographic, chemical, 
# crystal, experimental, refinement or atomic coordinate data resulting 
# from the CCDC's data processing and validation procedures.
#
#######################################################################

data_POPJIO
_chemical_formula_moiety         'C22 H22 N8 O4'
_chemical_name_systematic        
N,N'-bis(5-Methyl-1-(4-methoxyphenyl)-1H-1,2,3-triazole-4-carbonyl)hydrazide
_symmetry_cell_setting           monoclinic
_symmetry_space_group_name_H-M   'P 21/c'
_symmetry_Int_Tables_number      14
_space_group_name_Hall           '-P 2ybc'
loop_
_symmetry_equiv_pos_site_id
_symmetry_equiv_pos_as_xyz
1 x,y,z
2 -x,1/2+y,1/2-z
3 -x,-y,-z
4 x,1/2-y,1/2+z
_cell_length_a                   15.3451(8)
_cell_length_b                   8.6486(4)
_cell_length_c                   16.8502(9)
_cell_angle_alpha                90
_cell_angle_beta                 95.731(2)
_cell_angle_gamma                90
_cell_volume                     2225.07
_exptl_crystal_colour            colorless
_exptl_crystal_description       block
_chemical_melting_point          282.6deg.C
_cell_formula_units_Z            4
_exptl_crystal_recrystallization_method dimethylsulfoxide
loop_
_atom_site_label
_atom_site_type_symbol
_atom_site_fract_x
_atom_site_fract_y
_atom_site_fract_z
O1 O 0.33832(10) 0.6010(2) 1.00212(8)
N1 N 0.87510(10) 0.40190(18) 0.25998(9)
N2 N 0.51326(10) 0.5623(2) 0.72948(8)
N3 N 0.81368(12) 0.3141(2) 0.35968(10)
O2 O 0.70883(11) 0.67628(18) 0.39136(9)
N4 N 0.71037(11) 0.4510(2) 0.46053(9)
H1 H 0.7342 0.3614 0.4674
C1 C 0.99580(13) 0.4835(2) 0.18453(12)
H2 H 1.0091 0.5633 0.2207
C2 C 0.38114(13) 0.5804(2) 0.93559(10)
C3 C 0.92538(12) 0.3857(2) 0.19321(10)
O3 O 1.08257(11) 0.32550(19) 0.01101(9)
C4 C 0.67257(12) 0.5131(2) 0.58916(11)
N5 N 0.46484(11) 0.5951(2) 0.65952(9)
C5 C 0.73365(12) 0.5435(2) 0.40178(10)
C6 C 0.83233(11) 0.5254(2) 0.28673(10)
N6 N 0.51691(11) 0.5801(2) 0.60317(9)
C7 C 1.04564(13) 0.4611(2) 0.12193(13)
H3 H 1.0921 0.5273 0.1153
C8 C 0.90495(13) 0.2678(2) 0.13960(12)
H4 H 0.8573 0.2037 0.1453
C9 C 1.02680(13) 0.3403(2) 0.06869(11)
C10 C 0.79305(11) 0.4666(2) 0.35046(10)
N7 N 0.64883(11) 0.4981(2) 0.50992(9)
H5 H 0.5960 0.5177 0.4906
C11 C 0.59719(12) 0.5269(2) 0.71792(10)
C12 C 0.59808(12) 0.5411(2) 0.63663(10)
C13 C 0.47099(12) 0.5651(2) 0.80189(10)
N8 N 0.86335(13) 0.2739(2) 0.30487(11)
O4 O 0.74790(9) 0.5026(2) 0.61870(9)
C14 C 0.95603(14) 0.2452(2) 0.07709(12)
H6 H 0.9425 0.1658 0.0407
C15 C 0.83188(15) 0.6814(2) 0.25014(13)
H7 H 0.8807 0.7400 0.2742
H8 H 0.7783 0.7335 0.2586
H9 H 0.8363 0.6718 0.1939
C16 C 0.50381(13) 0.6544(2) 0.86627(11)
H10 H 0.5556 0.7096 0.8645
C17 C 0.45876(13) 0.6608(3) 0.93321(11)
H11 H 0.4808 0.7194 0.9770
C18 C 0.35059(15) 0.4863(3) 0.87216(12)
H12 H 0.2998 0.4285 0.8746
C19 C 0.26035(14) 0.5130(3) 1.00770(13)
H13 H 0.2191 0.5346 0.9624
H14 H 0.2352 0.5403 1.0557
H15 H 0.2744 0.4047 1.0087
C20 C 0.66374(14) 0.4749(3) 0.78245(12)
H16 H 0.6862 0.5629 0.8127
H17 H 0.7108 0.4239 0.7595
H18 H 0.6372 0.4045 0.8169
C21 C 0.39586(14) 0.4786(3) 0.80513(12)
H19 H 0.3757 0.4154 0.7625
C22 C 1.07543(19) 0.1904(3) -0.03696(15)
H20 H 1.0771 0.1007 -0.0033
H21 H 1.1233 0.1867 -0.0695
H22 H 1.0211 0.1926 -0.0705
loop_
_geom_bond_atom_site_label_1
_geom_bond_atom_site_label_2
_geom_bond_site_symmetry_1
_geom_bond_site_symmetry_2
O1 C2 1_555 1_555
N1 C3 1_555 1_555
N2 N5 1_555 1_555
N3 C10 1_555 1_555
O2 C5 1_555 1_555
N4 H1 1_555 1_555
C1 H2 1_555 1_555
C2 C17 1_555 1_555
C3 C1 1_555 1_555
O3 C9 1_555 1_555
C4 N7 1_555 1_555
N5 N6 1_555 1_555
C5 N4 1_555 1_555
C6 N1 1_555 1_555
N6 C12 1_555 1_555
C7 C1 1_555 1_555
H3 C7 1_555 1_555
C8 C3 1_555 1_555
H4 C8 1_555 1_555
C9 C7 1_555 1_555
C10 C5 1_555 1_555
N7 N4 1_555 1_555
H5 N7 1_555 1_555
C11 N2 1_555 1_555
C12 C4 1_555 1_555
C13 N2 1_555 1_555
N8 N1 1_555 1_555
O4 C4 1_555 1_555
C14 C8 1_555 1_555
H6 C14 1_555 1_555
C15 C6 1_555 1_555
H7 C15 1_555 1_555
H8 C15 1_555 1_555
H9 C15 1_555 1_555
C16 C13 1_555 1_555
H10 C16 1_555 1_555
C17 C16 1_555 1_555
H11 C17 1_555 1_555
C18 C2 1_555 1_555
H12 C18 1_555 1_555
C19 O1 1_555 1_555
H13 C19 1_555 1_555
H14 C19 1_555 1_555
H15 C19 1_555 1_555
C20 C11 1_555 1_555
H16 C20 1_555 1_555
H17 C20 1_555 1_555
H18 C20 1_555 1_555
C21 C13 1_555 1_555
H19 C21 1_555 1_555
C22 O3 1_555 1_555
H20 C22 1_555 1_555
H21 C22 1_555 1_555
H22 C22 1_555 1_555
N3 N8 1_555 1_555
C6 C10 1_555 1_555
C9 C14 1_555 1_555
C11 C12 1_555 1_555
C18 C21 1_555 1_555

#END
