
#######################################################################
#
#                 Cambridge Crystallographic Data Centre
#                                CCDC 
#
#######################################################################
#
# If this CIF has been generated from an entry in the Cambridge 
# Structural Database, then it will include bibliographic, chemical, 
# crystal, experimental, refinement or atomic coordinate data resulting 
# from the CCDC's data processing and validation procedures.
#
#######################################################################

data_POPNIS
_chemical_formula_moiety         'C22 H22 Cl1 N1 O3'
_chemical_name_systematic        
1'-(4-Chlorophenyl)-4',4'-diethyl-1-hydroxy-1,3-dihydro-3'H,5'H-spiro[indene-2,2'-pyrrolidine]-3',5'-dione
_symmetry_cell_setting           monoclinic
_symmetry_space_group_name_H-M   'P 21/c'
_symmetry_Int_Tables_number      14
_space_group_name_Hall           '-P 2ybc'
loop_
_symmetry_equiv_pos_site_id
_symmetry_equiv_pos_as_xyz
1 x,y,z
2 -x,1/2+y,1/2-z
3 -x,-y,-z
4 x,1/2-y,1/2+z
_cell_length_a                   12.5345(15)
_cell_length_b                   13.0337(15)
_cell_length_c                   24.721(3)
_cell_angle_alpha                90
_cell_angle_beta                 98.251(2)
_cell_angle_gamma                90
_cell_volume                     3996.89
_exptl_crystal_colour            colorless
_exptl_crystal_description       block
_chemical_melting_point          '80-82 deg.C'
_cell_formula_units_Z            8
loop_
_atom_site_label
_atom_site_type_symbol
_atom_site_fract_x
_atom_site_fract_y
_atom_site_fract_z
Cl1 Cl 0.89184(12) 0.86284(10) 0.21637(5)
C1 C 1.0556(3) 0.6595(3) 0.46169(13)
C2 C 1.0436(3) 0.5697(3) 0.43119(13)
C3 C 1.1497(3) 0.5348(3) 0.41640(14)
H1 H 1.1426 0.5156 0.3773
H2 H 1.1777 0.4751 0.4389
C4 C 1.2239(3) 0.6281(2) 0.42846(12)
C5 C 1.1720(3) 0.6894(2) 0.47256(12)
H3 H 1.2027 0.6622 0.5094
C6 C 0.9691(3) 0.7053(4) 0.48088(18)
H4 H 0.9774 0.7667 0.5018
C7 C 0.8688(4) 0.6574(5) 0.4683(2)
H5 H 0.8077 0.6878 0.4806
C8 C 0.8557(4) 0.5682(5) 0.4388(2)
H6 H 0.7866 0.5372 0.4313
C9 C 0.9430(4) 0.5238(4) 0.42028(17)
H7 H 0.9345 0.4616 0.4000
C10 C 1.3412(3) 0.6007(3) 0.44969(13)
C11 C 1.4164(3) 0.6478(3) 0.41454(13)
C12 C 1.4850(3) 0.7361(3) 0.44566(17)
H8 H 1.5281 0.7692 0.4200
H9 H 1.4351 0.7885 0.4567
C13 C 1.5605(4) 0.7032(4) 0.49586(19)
H10 H 1.5996 0.7631 0.5124
H11 H 1.6121 0.6530 0.4855
H12 H 1.5188 0.6720 0.5222
C14 C 1.4868(3) 0.5660(3) 0.39233(15)
H13 H 1.5323 0.5997 0.3679
H14 H 1.5354 0.5358 0.4233
C15 C 1.4244(4) 0.4817(3) 0.36150(18)
H15 H 1.4744 0.4330 0.3483
H16 H 1.3767 0.5106 0.3303
H17 H 1.3810 0.4460 0.3857
C16 C 1.3404(3) 0.6986(2) 0.36961(13)
C17 C 1.1488(3) 0.7283(2) 0.34108(12)
C18 C 1.1155(3) 0.6770(3) 0.29329(13)
H18 H 1.1478 0.6132 0.2865
C19 C 1.0356(3) 0.7170(3) 0.25505(15)
H19 H 1.0124 0.6810 0.2220
C20 C 0.9900(3) 0.8095(3) 0.26522(14)
C21 C 1.0222(4) 0.8606(3) 0.31207(16)
H20 H 0.9899 0.9245 0.3186
C22 C 1.1021(3) 0.8207(3) 0.35077(14)
H21 H 1.1245 0.8569 0.3838
N1 N 1.2371(2) 0.68860(19) 0.37915(10)
O1 O 1.1898(2) 0.79575(17) 0.47260(9)
H43 H 1.2425 0.8104 0.4963
O2 O 1.3653(2) 0.5495(2) 0.49016(11)
O3 O 1.3672(2) 0.74256(19) 0.33004(10)
Cl2 Cl 0.89266(9) 0.58340(12) 0.07212(7)
C23 C 0.6032(3) 0.5094(3) 0.23335(13)
C24 C 0.5908(3) 0.6083(3) 0.25133(13)
C25 C 0.4787(3) 0.6445(3) 0.23378(15)
H22 H 0.4374 0.6292 0.2646
C26 C 0.4346(3) 0.5710(3) 0.18637(13)
C27 C 0.4956(3) 0.4712(3) 0.20378(15)
H23 H 0.4568 0.4302 0.2285
H24 H 0.5058 0.4291 0.1716
C28 C 0.7026(4) 0.4607(3) 0.24255(17)
H25 H 0.7114 0.3930 0.2297
C29 C 0.7893(4) 0.5140(4) 0.27117(19)
H26 H 0.8581 0.4821 0.2777
C30 C 0.7769(4) 0.6117(4) 0.29012(17)
H27 H 0.8368 0.6464 0.3099
C31 C 0.6767(4) 0.6603(4) 0.28035(15)
H28 H 0.6677 0.7278 0.2934
C32 C 0.3117(3) 0.5625(3) 0.17904(15)
C33 C 0.2624(3) 0.5929(3) 0.12164(15)
C34 C 0.1844(4) 0.6848(5) 0.1212(2)
H29 H 0.1531 0.6995 0.0829
H30 H 0.1244 0.6651 0.1412
C35 C 0.2339(7) 0.7781(6) 0.1456(3)
H31 H 0.1795 0.8324 0.1440
H32 H 0.2918 0.7998 0.1253
H33 H 0.2638 0.7649 0.1838
C36 C 0.1996(4) 0.5022(5) 0.0911(2)
H34 H 0.1373 0.4852 0.1099
H35 H 0.1709 0.5248 0.0536
C37 C 0.2636(6) 0.4096(5) 0.0876(3)
H36 H 0.2184 0.3561 0.0682
H37 H 0.2915 0.3858 0.1246
H38 H 0.3241 0.4249 0.0678
C38 C 0.3601(3) 0.6187(3) 0.09556(13)
C39 C 0.5572(3) 0.6079(2) 0.11433(12)
C40 C 0.6324(3) 0.6798(3) 0.13409(14)
H39 H 0.6138 0.7337 0.1569
C41 C 0.7363(3) 0.6736(3) 0.12058(16)
H40 H 0.7893 0.7228 0.1343
C42 C 0.7616(3) 0.5949(3) 0.08687(17)
C43 C 0.6848(3) 0.5259(3) 0.06539(17)
H41 H 0.7017 0.4742 0.0409
C44 C 0.5829(3) 0.5323(3) 0.07949(14)
H42 H 0.5296 0.4839 0.0651
N2 N 0.4522(2) 0.6063(2) 0.13138(10)
O4 O 0.2617(2) 0.5347(3) 0.21449(12)
O5 O 0.3593(2) 0.6466(2) 0.04796(10)
O6 O 0.4662(4) 0.7421(3) 0.22336(18)
H44 H 0.423(4) 0.745(5) 0.245(2)
loop_
_geom_bond_atom_site_label_1
_geom_bond_atom_site_label_2
_geom_bond_site_symmetry_1
_geom_bond_site_symmetry_2
Cl1 C20 1_555 1_555
Cl2 C42 1_555 1_555
C1 C2 1_555 1_555
C2 C3 1_555 1_555
C3 H1 1_555 1_555
H2 C3 1_555 1_555
C4 C3 1_555 1_555
C5 C1 1_555 1_555
H3 C5 1_555 1_555
C6 C1 1_555 1_555
H4 C6 1_555 1_555
C7 C6 1_555 1_555
H5 C7 1_555 1_555
C8 C7 1_555 1_555
H6 C8 1_555 1_555
C9 C2 1_555 1_555
H7 C9 1_555 1_555
C10 C4 1_555 1_555
C11 C10 1_555 1_555
C12 C11 1_555 1_555
H8 C12 1_555 1_555
H9 C12 1_555 1_555
C13 C12 1_555 1_555
H10 C13 1_555 1_555
H11 C13 1_555 1_555
H12 C13 1_555 1_555
C14 C11 1_555 1_555
H13 C14 1_555 1_555
H14 C14 1_555 1_555
C15 C14 1_555 1_555
H15 C15 1_555 1_555
H16 C15 1_555 1_555
H17 C15 1_555 1_555
C16 C11 1_555 1_555
C17 C18 1_555 1_555
C18 H18 1_555 1_555
C19 C18 1_555 1_555
H19 C19 1_555 1_555
C20 C19 1_555 1_555
C21 C20 1_555 1_555
H20 C21 1_555 1_555
C22 C17 1_555 1_555
H21 C22 1_555 1_555
C23 C24 1_555 1_555
C24 C25 1_555 1_555
C25 H22 1_555 1_555
C26 C25 1_555 1_555
C27 C23 1_555 1_555
H23 C27 1_555 1_555
H24 C27 1_555 1_555
C28 C23 1_555 1_555
H25 C28 1_555 1_555
C29 C28 1_555 1_555
H26 C29 1_555 1_555
C30 C29 1_555 1_555
H27 C30 1_555 1_555
C31 C24 1_555 1_555
H28 C31 1_555 1_555
C32 C26 1_555 1_555
C33 C32 1_555 1_555
C34 C33 1_555 1_555
H29 C34 1_555 1_555
H30 C34 1_555 1_555
C35 C34 1_555 1_555
H31 C35 1_555 1_555
H32 C35 1_555 1_555
H33 C35 1_555 1_555
C36 C33 1_555 1_555
H34 C36 1_555 1_555
H35 C36 1_555 1_555
C37 C36 1_555 1_555
H36 C37 1_555 1_555
H37 C37 1_555 1_555
H38 C37 1_555 1_555
C38 C33 1_555 1_555
C39 C40 1_555 1_555
C40 H39 1_555 1_555
C41 C40 1_555 1_555
H40 C41 1_555 1_555
C42 C41 1_555 1_555
C43 C42 1_555 1_555
H41 C43 1_555 1_555
C44 C39 1_555 1_555
H42 C44 1_555 1_555
N1 C4 1_555 1_555
N2 C26 1_555 1_555
O1 C5 1_555 1_555
H43 O1 1_555 1_555
O2 C10 1_555 1_555
O3 C16 1_555 1_555
O4 C32 1_555 1_555
O5 C38 1_555 1_555
O6 C25 1_555 1_555
H44 O6 1_555 1_555
C4 C5 1_555 1_555
C8 C9 1_555 1_555
C16 N1 1_555 1_555
C17 N1 1_555 1_555
C21 C22 1_555 1_555
C26 C27 1_555 1_555
C30 C31 1_555 1_555
C38 N2 1_555 1_555
C39 N2 1_555 1_555
C43 C44 1_555 1_555

#END
