
#######################################################################
#
#                 Cambridge Crystallographic Data Centre
#                                CCDC 
#
#######################################################################
#
# If this CIF has been generated from an entry in the Cambridge 
# Structural Database, then it will include bibliographic, chemical, 
# crystal, experimental, refinement or atomic coordinate data resulting 
# from the CCDC's data processing and validation procedures.
#
#######################################################################

data_POPNUE
_chemical_formula_moiety         'C24 H19 Br1 N2 O2'
_chemical_name_systematic        
(2-Benzyl-5-methyl-4-(4-pyridinyl)-1H-pyrrol-3-yl)(5-bromo-2-hydroxyphenyl)methanone
_symmetry_cell_setting           orthorhombic
_symmetry_space_group_name_H-M   'P 21 21 21'
_symmetry_Int_Tables_number      19
_space_group_name_Hall           'P 2ac 2ab'
loop_
_symmetry_equiv_pos_site_id
_symmetry_equiv_pos_as_xyz
1 x,y,z
2 1/2-x,-y,1/2+z
3 -x,1/2+y,1/2-z
4 1/2+x,1/2-y,-z
_cell_length_a                   9.1208(18)
_cell_length_b                   12.849(3)
_cell_length_c                   17.357(4)
_cell_angle_alpha                90
_cell_angle_beta                 90
_cell_angle_gamma                90
_cell_volume                     2034.12
_exptl_crystal_colour            colorless
_exptl_crystal_description       block
_chemical_melting_point          '245-246 deg.C'
_cell_formula_units_Z            4
loop_
_atom_site_label
_atom_site_type_symbol
_atom_site_fract_x
_atom_site_fract_y
_atom_site_fract_z
Br1 Br 0.78169(7) 0.65907(4) 0.90609(3)
N1 N 0.6921(4) 0.8847(2) 0.55461(17)
H1 H 0.7297 0.8858 0.5092
N2 N 0.7101(4) 1.0383(3) 0.90656(18)
O1 O 0.1745(4) 0.7659(3) 0.7944(2)
H2 H 0.1364 0.8112 0.8210
O2 O 0.2899(4) 0.8153(2) 0.66598(16)
C1 C 0.5902(6) 0.6965(3) 0.8714(2)
C2 C 0.4705(7) 0.6845(4) 0.9196(3)
H3 H 0.4836 0.6591 0.9693
C3 C 0.3333(7) 0.7099(4) 0.8944(3)
H4 H 0.2536 0.7021 0.9273
C4 C 0.3113(6) 0.7474(4) 0.8200(3)
C5 C 0.4352(5) 0.7651(3) 0.7714(2)
C6 C 0.5741(5) 0.7360(3) 0.7984(2)
H5 H 0.6557 0.7434 0.7668
C7 C 0.4147(5) 0.8121(3) 0.6937(2)
C8 C 0.5402(5) 0.8521(3) 0.6516(2)
C9 C 0.6651(5) 0.9096(3) 0.6798(2)
C10 C 0.6818(5) 0.9529(3) 0.7586(2)
C11 C 0.5703(5) 1.0091(3) 0.7925(2)
H6 H 0.4829 1.0196 0.7660
C12 C 0.5873(5) 1.0497(3) 0.8652(2)
H7 H 0.5098 1.0868 0.8866
C13 C 0.8184(5) 0.9831(3) 0.8746(2)
H8 H 0.9038 0.9730 0.9030
C14 C 0.8105(5) 0.9399(3) 0.8016(2)
H9 H 0.8893 0.9029 0.7814
C15 C 0.7545(5) 0.9291(3) 0.6183(2)
C16 C 0.8964(5) 0.9881(3) 0.6128(2)
H10 H 0.9018 1.0381 0.6538
H11 H 0.9011 1.0235 0.5641
H12 H 0.9771 0.9404 0.6169
C17 C 0.5607(5) 0.8382(3) 0.5732(2)
C18 C 0.4750(5) 0.7775(3) 0.5151(2)
H13 H 0.3920 0.7455 0.5407
H14 H 0.5365 0.7220 0.4954
C19 C 0.4189(5) 0.8408(4) 0.4476(2)
C20 C 0.3351(5) 0.9295(3) 0.4603(2)
H15 H 0.3117 0.9494 0.5103
C21 C 0.2865(5) 0.9884(4) 0.3987(3)
H16 H 0.2318 1.0483 0.4074
C22 C 0.3190(6) 0.9584(4) 0.3242(3)
H17 H 0.2855 0.9978 0.2828
C23 C 0.4008(6) 0.8703(4) 0.3111(2)
H18 H 0.4227 0.8498 0.2610
C24 C 0.4504(5) 0.8122(3) 0.3734(2)
H19 H 0.5060 0.7527 0.3645
loop_
_geom_bond_atom_site_label_1
_geom_bond_atom_site_label_2
_geom_bond_site_symmetry_1
_geom_bond_site_symmetry_2
Br1 C1 1_555 1_555
N1 H1 1_555 1_555
N2 C12 1_555 1_555
O1 H2 1_555 1_555
O2 C7 1_555 1_555
C1 C2 1_555 1_555
C2 H3 1_555 1_555
C3 C2 1_555 1_555
H4 C3 1_555 1_555
C4 O1 1_555 1_555
C5 C4 1_555 1_555
C6 C1 1_555 1_555
H5 C6 1_555 1_555
C7 C5 1_555 1_555
C8 C7 1_555 1_555
C9 C8 1_555 1_555
C10 C9 1_555 1_555
C11 C10 1_555 1_555
H6 C11 1_555 1_555
C12 C11 1_555 1_555
H7 C12 1_555 1_555
C13 N2 1_555 1_555
H8 C13 1_555 1_555
C14 C10 1_555 1_555
H9 C14 1_555 1_555
C15 N1 1_555 1_555
C16 C15 1_555 1_555
H10 C16 1_555 1_555
H11 C16 1_555 1_555
H12 C16 1_555 1_555
C17 N1 1_555 1_555
C18 C17 1_555 1_555
H13 C18 1_555 1_555
H14 C18 1_555 1_555
C19 C18 1_555 1_555
C20 C19 1_555 1_555
H15 C20 1_555 1_555
C21 C20 1_555 1_555
H16 C21 1_555 1_555
C22 C21 1_555 1_555
H17 C22 1_555 1_555
C23 C22 1_555 1_555
H18 C23 1_555 1_555
C24 C19 1_555 1_555
H19 C24 1_555 1_555
C3 C4 1_555 1_555
C5 C6 1_555 1_555
C8 C17 1_555 1_555
C9 C15 1_555 1_555
C13 C14 1_555 1_555
C23 C24 1_555 1_555

#END
