
#######################################################################
#
#                 Cambridge Crystallographic Data Centre
#                                CCDC 
#
#######################################################################
#
# If this CIF has been generated from an entry in the Cambridge 
# Structural Database, then it will include bibliographic, chemical, 
# crystal, experimental, refinement or atomic coordinate data resulting 
# from the CCDC's data processing and validation procedures.
#
#######################################################################

data_POPPOA
_chemical_formula_moiety         'C14 H30 N2 2+,2(Cl1 1-),2(H2 O1)'
_chemical_name_systematic        
'(R,R)-1,2-Dicyclohexyl-1,2-ethanediaminium dichloride dihydrate'
_symmetry_cell_setting           cubic
_symmetry_space_group_name_H-M   'I 21 3'
_symmetry_Int_Tables_number      199
_space_group_name_Hall           'I 2b 2c 3'
loop_
_symmetry_equiv_pos_site_id
_symmetry_equiv_pos_as_xyz
1 x,y,z
2 -x,1/2-y,z
3 x,-y,1/2-z
4 1/2-x,y,-z
5 z,x,y
6 y,z,x
7 -z,1/2-x,y
8 1/2-y,z,-x
9 z,-x,1/2-y
10 -y,1/2-z,x
11 1/2-z,x,-y
12 y,-z,1/2-x
13 1/2+x,1/2+y,1/2+z
14 1/2-x,-y,1/2+z
15 1/2+x,1/2-y,-z
16 -x,1/2+y,1/2-z
17 1/2+z,1/2+x,1/2+y
18 1/2+y,1/2+z,1/2+x
19 1/2-z,-x,1/2+y
20 -y,1/2+z,1/2-x
21 1/2+z,1/2-x,-y
22 1/2-y,-z,1/2+x
23 -z,1/2+x,1/2-y
24 1/2+y,1/2-z,-x
_cell_length_a                   17.9117(6)
_cell_length_b                   17.9117(6)
_cell_length_c                   17.9117(6)
_cell_angle_alpha                90
_cell_angle_beta                 90
_cell_angle_gamma                90
_cell_volume                     5746.59
_exptl_crystal_colour            colorless
_exptl_crystal_description       block
_cell_formula_units_Z            12
loop_
_atom_site_label
_atom_site_type_symbol
_atom_site_fract_x
_atom_site_fract_y
_atom_site_fract_z
N1 N 0.29430(13) 0.48487(12) 0.07550(12)
H1 H 0.2671 0.5277 0.0757
H2 H 0.3360 0.4914 0.0473
H3 H 0.3077 0.4731 0.1231
C1 C 0.24798(15) 0.42223(15) 0.04305(15)
H4 H 0.2719 0.3747 0.0599
C2 C 0.16952(16) 0.42289(15) 0.07646(15)
H5 H 0.1459 0.4722 0.0651
C3 C 0.17279(16) 0.41341(18) 0.16195(15)
H6 H 0.1996 0.3667 0.1741
H7 H 0.2011 0.4555 0.1839
C4 C 0.09496(18) 0.4109(2) 0.19646(18)
H8 H 0.0993 0.4027 0.2510
H9 H 0.0697 0.4594 0.1884
C5 C 0.0481(2) 0.3483(2) 0.16200(19)
H10 H 0.0709 0.2994 0.1740
H11 H -0.0028 0.3493 0.1834
C6 C 0.04390(18) 0.35787(19) 0.07835(17)
H12 H 0.0166 0.4045 0.0668
H13 H 0.0155 0.3157 0.0567
C7 C 0.12061(15) 0.36098(16) 0.04247(17)
H14 H 0.1150 0.3700 -0.0118
H15 H 0.1458 0.3122 0.0491
N1C N 0.20570(13) 0.48487(12) -0.07550(12)
H1C H 0.2329 0.5277 -0.0757
H2C H 0.1640 0.4914 -0.0473
H3C H 0.1923 0.4731 -0.1231
C1C C 0.25202(15) 0.42223(15) -0.04305(15)
H4C H 0.2281 0.3747 -0.0599
C2C C 0.33048(16) 0.42289(15) -0.07646(15)
H5C H 0.3541 0.4722 -0.0651
C3C C 0.32721(16) 0.41341(18) -0.16195(15)
H6C H 0.3004 0.3667 -0.1741
H7C H 0.2989 0.4555 -0.1839
C4C C 0.40504(18) 0.4109(2) -0.19646(18)
H8C H 0.4007 0.4027 -0.2510
H9C H 0.4303 0.4594 -0.1884
C5C C 0.4519(2) 0.3483(2) -0.16200(19)
H10C H 0.4291 0.2994 -0.1740
H11C H 0.5028 0.3493 -0.1834
C6C C 0.45610(18) 0.35787(19) -0.07835(17)
H12C H 0.4834 0.4045 -0.0668
H13C H 0.4845 0.3157 -0.0567
C7C C 0.37939(15) 0.36098(16) -0.04247(17)
H14C H 0.3850 0.3700 0.0118
H15C H 0.3542 0.3122 -0.0491
Cl1 Cl 0.45703(4) 0.54297(4) 0.04297(4)
Cl2 Cl 0.19722(5) 0.62576(5) 0.11018(5)
O1 O 0.28897(13) 0.71103(13) 0.21103(13)
H16? H 0.318(3) 0.746(3) 0.186(3)
loop_
_geom_bond_atom_site_label_1
_geom_bond_atom_site_label_2
_geom_bond_site_symmetry_1
_geom_bond_site_symmetry_2
N1 H1 1_555 1_555
H2 N1 1_555 1_555
H3 N1 1_555 1_555
C1 N1 1_555 1_555
H4 C1 1_555 1_555
C2 C1 1_555 1_555
H5 C2 1_555 1_555
C3 C2 1_555 1_555
H6 C3 1_555 1_555
H7 C3 1_555 1_555
C4 C3 1_555 1_555
H8 C4 1_555 1_555
H9 C4 1_555 1_555
C5 C4 1_555 1_555
H10 C5 1_555 1_555
H11 C5 1_555 1_555
C6 C5 1_555 1_555
H12 C6 1_555 1_555
H13 C6 1_555 1_555
C7 C2 1_555 1_555
H14 C7 1_555 1_555
H15 C7 1_555 1_555
N1C H1C 1_555 1_555
H2C N1C 1_555 1_555
H3C N1C 1_555 1_555
C1C C1 1_555 1_555
H4C C1C 1_555 1_555
C2C C1C 1_555 1_555
H5C C2C 1_555 1_555
C3C C2C 1_555 1_555
H6C C3C 1_555 1_555
H7C C3C 1_555 1_555
C4C C3C 1_555 1_555
H8C C4C 1_555 1_555
H9C C4C 1_555 1_555
C5C C4C 1_555 1_555
H10C C5C 1_555 1_555
H11C C5C 1_555 1_555
C6C C5C 1_555 1_555
H12C C6C 1_555 1_555
H13C C6C 1_555 1_555
C7C C2C 1_555 1_555
H14C C7C 1_555 1_555
H15C C7C 1_555 1_555
C6 C7 1_555 1_555
N1C C1C 1_555 1_555
C6C C7C 1_555 1_555

#END
