
#######################################################################
#
#                 Cambridge Crystallographic Data Centre
#                                CCDC 
#
#######################################################################
#
# If this CIF has been generated from an entry in the Cambridge 
# Structural Database, then it will include bibliographic, chemical, 
# crystal, experimental, refinement or atomic coordinate data resulting 
# from the CCDC's data processing and validation procedures.
#
#######################################################################

data_POPPEQ
_chemical_formula_moiety         'C17 H14 O4'
_chemical_name_systematic        
5-Methoxy-2-(2-methoxybenzylidene)-1-benzofuran-3(2H)-one
_symmetry_cell_setting           triclinic
_symmetry_space_group_name_H-M   'P -1'
_symmetry_Int_Tables_number      2
_space_group_name_Hall           '-P 1'
loop_
_symmetry_equiv_pos_site_id
_symmetry_equiv_pos_as_xyz
1 x,y,z
2 -x,-y,-z
_cell_length_a                   7.8078(10)
_cell_length_b                   8.5228(11)
_cell_length_c                   10.9105(14)
_cell_angle_alpha                103.226(2)
_cell_angle_beta                 94.638(2)
_cell_angle_gamma                104.258(2)
_cell_volume                     677.721
_exptl_crystal_colour            yellow
_exptl_crystal_description       rod
_cell_formula_units_Z            2
loop_
_atom_site_label
_atom_site_type_symbol
_atom_site_fract_x
_atom_site_fract_y
_atom_site_fract_z
O1 O -0.35510(17) 0.90066(14) 0.54831(12)
O2 O 0.25723(15) 0.80264(12) 0.76275(10)
O3 O -0.05456(16) 0.40611(14) 0.65172(12)
O4 O 0.51789(15) 0.33223(13) 0.81769(11)
C1 C -0.5104(2) 0.7656(2) 0.50450(18)
H1 H -0.4900 0.6862 0.4331
H2 H -0.6080 0.8066 0.4790
H3 H -0.5389 0.7121 0.5716
C2 C -0.2057(2) 0.86680(19) 0.59784(15)
C3 C -0.0595(2) 1.0071(2) 0.64607(16)
H4 H -0.0702 1.1115 0.6403
C4 C 0.0998(2) 0.99556(19) 0.70176(16)
H5 H 0.1969 1.0893 0.7337
C5 C 0.1080(2) 0.83725(19) 0.70774(15)
C6 C -0.0323(2) 0.69765(18) 0.65858(14)
C7 C -0.1939(2) 0.7097(2) 0.60235(15)
H6 H -0.2898 0.6154 0.5692
C8 C 0.0268(2) 0.55471(19) 0.68009(15)
C9 C 0.2133(2) 0.63025(19) 0.74639(15)
C10 C 0.3254(2) 0.54885(19) 0.78251(15)
H7 H 0.2791 0.4331 0.7634
C11 C 0.5079(2) 0.61131(19) 0.84674(14)
C12 C 0.5942(2) 0.7821(2) 0.89399(16)
H8 H 0.5341 0.8600 0.8815
C13 C 0.7657(3) 0.8380(2) 0.95852(17)
H9 H 0.8199 0.9522 0.9900
C14 C 0.8558(3) 0.7234(2) 0.97592(18)
H10 H 0.9716 0.7606 1.0194
C15 C 0.7770(2) 0.5549(2) 0.92995(16)
H11 H 0.8400 0.4790 0.9421
C16 C 0.6051(2) 0.4972(2) 0.86584(15)
C17 C 0.6153(3) 0.2119(2) 0.82348(19)
H12 H 0.7211 0.2383 0.7846
H13 H 0.5422 0.1022 0.7789
H14 H 0.6482 0.2145 0.9108
loop_
_geom_bond_atom_site_label_1
_geom_bond_atom_site_label_2
_geom_bond_site_symmetry_1
_geom_bond_site_symmetry_2
O1 C1 1_555 1_555
O2 C5 1_555 1_555
O3 C8 1_555 1_555
O4 C16 1_555 1_555
C1 H1 1_555 1_555
H2 C1 1_555 1_555
H3 C1 1_555 1_555
C2 O1 1_555 1_555
C3 C2 1_555 1_555
H4 C3 1_555 1_555
C4 C3 1_555 1_555
H5 C4 1_555 1_555
C5 C4 1_555 1_555
C6 C5 1_555 1_555
C7 C2 1_555 1_555
H6 C7 1_555 1_555
C8 C6 1_555 1_555
C9 O2 1_555 1_555
C10 C9 1_555 1_555
H7 C10 1_555 1_555
C11 C10 1_555 1_555
C12 C11 1_555 1_555
H8 C12 1_555 1_555
C13 C12 1_555 1_555
H9 C13 1_555 1_555
C14 C13 1_555 1_555
H10 C14 1_555 1_555
C15 C14 1_555 1_555
H11 C15 1_555 1_555
C16 C11 1_555 1_555
C17 O4 1_555 1_555
H12 C17 1_555 1_555
H13 C17 1_555 1_555
H14 C17 1_555 1_555
C6 C7 1_555 1_555
C8 C9 1_555 1_555
C15 C16 1_555 1_555

#END
