
#######################################################################
#
#                 Cambridge Crystallographic Data Centre
#                                CCDC 
#
#######################################################################
#
# If this CIF has been generated from an entry in the Cambridge 
# Structural Database, then it will include bibliographic, chemical, 
# crystal, experimental, refinement or atomic coordinate data resulting 
# from the CCDC's data processing and validation procedures.
#
#######################################################################

data_POPQES
_chemical_formula_moiety         'C37 H36 Br1 N1 O4 Si1'
_chemical_name_systematic        
(S)-6'-bromo-4-(tert-butyldimethylsilyloxy)-3-methyl-1'-trityl-5H-spiro[furan-2,3'-indoline]-2',5-dione
_symmetry_cell_setting           monoclinic
_symmetry_space_group_name_H-M   'P 21'
_symmetry_Int_Tables_number      4
_space_group_name_Hall           'P 2yb'
loop_
_symmetry_equiv_pos_site_id
_symmetry_equiv_pos_as_xyz
1 x,y,z
2 -x,1/2+y,-z
_cell_length_a                   10.143(9)
_cell_length_b                   15.035(13)
_cell_length_c                   11.057(9)
_cell_angle_alpha                90
_cell_angle_beta                 94.607(15)
_cell_angle_gamma                90
_cell_volume                     1680.74
_exptl_crystal_colour            colorless
_exptl_crystal_description       block
_cell_formula_units_Z            2
loop_
_atom_site_label
_atom_site_type_symbol
_atom_site_fract_x
_atom_site_fract_y
_atom_site_fract_z
Br1 Br 0.66166(11) 0.47051(6) 0.33906(8)
N1 N 0.7373(5) 0.7777(3) 0.1096(4)
Si1 Si 0.75744(19) 1.17022(13) 0.46540(17)
O1 O 0.7531(5) 1.0585(3) 0.4807(4)
O2 O 1.0209(5) 0.9945(4) 0.4354(5)
O3 O 0.9142(4) 0.8897(3) 0.3198(4)
O4 O 0.7509(6) 0.9322(3) 0.0855(4)
C1 C 0.7694(6) 0.6619(4) -0.0493(5)
C2 C 0.8835(6) 0.6346(5) 0.0165(6)
H1 H 0.9140 0.6653 0.0862
C3 C 0.9536(7) 0.5609(5) -0.0210(8)
H2 H 1.0298 0.5423 0.0243
C4 C 0.9091(9) 0.5147(5) -0.1271(8)
H3 H 0.9552 0.4657 -0.1527
C5 C 0.7957(9) 0.5437(5) -0.1923(7)
H4 H 0.7648 0.5133 -0.2622
C6 C 0.7267(7) 0.6173(5) -0.1553(6)
H5 H 0.6517 0.6368 -0.2017
C7 C 0.5452(6) 0.7432(5) -0.0286(5)
C8 C 0.4761(7) 0.6639(6) -0.0344(6)
H6 H 0.5225 0.6106 -0.0356
C9 C 0.3383(8) 0.6620(7) -0.0386(8)
H7 H 0.2936 0.6080 -0.0446
C10 C 0.2695(7) 0.7399(8) -0.0338(8)
H8 H 0.1776 0.7391 -0.0379
C11 C 0.3361(8) 0.8191(7) -0.0230(8)
H9 H 0.2886 0.8716 -0.0169
C12 C 0.4731(7) 0.8224(6) -0.0211(7)
H10 H 0.5169 0.8768 -0.0148
C13 C 0.7552(6) 0.8160(4) -0.1091(5)
C14 C 0.6793(7) 0.8465(5) -0.2123(6)
H11 H 0.5901 0.8320 -0.2233
C15 C 0.7359(10) 0.8979(6) -0.2979(7)
H12 H 0.6842 0.9202 -0.3644
C16 C 0.8716(10) 0.9162(5) -0.2839(8)
H13 H 0.9109 0.9495 -0.3421
C17 C 0.9462(8) 0.8848(5) -0.1843(7)
H14 H 1.0361 0.8974 -0.1745
C18 C 0.8889(7) 0.8348(5) -0.0987(6)
H15 H 0.9413 0.8132 -0.0322
C19 C 0.6972(6) 0.7499(4) -0.0199(5)
C20 C 0.7245(5) 0.7221(4) 0.2127(5)
C21 C 0.6940(6) 0.6318(4) 0.2177(6)
H16 H 0.6716 0.5989 0.1479
C22 C 0.6986(7) 0.5941(4) 0.3311(6)
C23 C 0.7282(8) 0.6394(5) 0.4386(6)
H17 H 0.7316 0.6101 0.5129
C24 C 0.7526(7) 0.7298(5) 0.4320(6)
H18 H 0.7700 0.7627 0.5027
C25 C 0.7511(6) 0.7712(4) 0.3200(5)
C26 C 0.7543(6) 0.8662(4) 0.1466(5)
C27 C 0.7768(6) 0.8665(4) 0.2881(5)
C28 C 0.6974(6) 0.9367(4) 0.3452(5)
C29 C 0.5512(7) 0.9380(6) 0.3318(9)
H19 H 0.5196 0.9879 0.3754
H20 H 0.5178 0.8839 0.3639
H21 H 0.5214 0.9431 0.2475
C30 C 0.7808(6) 0.9919(4) 0.4062(5)
C31 C 0.9182(6) 0.9640(5) 0.3929(5)
C32 C 0.6019(10) 1.2051(9) 0.3768(9)
H22 H 0.5303 1.2043 0.4285
H23 H 0.5830 1.1648 0.3104
H24 H 0.6124 1.2641 0.3460
C33 C 0.9050(10) 1.2034(7) 0.3848(9)
H25 H 0.8957 1.1812 0.3032
H26 H 0.9834 1.1790 0.4265
H27 H 0.9116 1.2671 0.3835
C34 C 0.7621(7) 1.2105(5) 0.6266(7)
C35 C 0.8865(9) 1.1787(7) 0.6997(8)
H28 H 0.8864 1.1999 0.7816
H29 H 0.9629 1.2013 0.6639
H30 H 0.8888 1.1149 0.6998
C36 C 0.7609(9) 1.3134(6) 0.6229(10)
H31 H 0.7637 1.3362 0.7042
H32 H 0.6817 1.3336 0.5779
H33 H 0.8367 1.3342 0.5845
C37 C 0.6368(9) 1.1792(7) 0.6823(8)
H34 H 0.6388 1.1990 0.7649
H35 H 0.6325 1.1154 0.6799
H36 H 0.5605 1.2035 0.6369
loop_
_geom_bond_atom_site_label_1
_geom_bond_atom_site_label_2
_geom_bond_site_symmetry_1
_geom_bond_site_symmetry_2
Br1 C22 1_555 1_555
N1 C19 1_555 1_555
Si1 O1 1_555 1_555
O1 C30 1_555 1_555
O2 C31 1_555 1_555
O3 C27 1_555 1_555
O4 C26 1_555 1_555
C1 C2 1_555 1_555
C2 H1 1_555 1_555
C3 C2 1_555 1_555
H2 C3 1_555 1_555
C4 C3 1_555 1_555
H3 C4 1_555 1_555
C5 C4 1_555 1_555
H4 C5 1_555 1_555
C6 C1 1_555 1_555
H5 C6 1_555 1_555
C7 C8 1_555 1_555
C8 H6 1_555 1_555
C9 C8 1_555 1_555
H7 C9 1_555 1_555
C10 C9 1_555 1_555
H8 C10 1_555 1_555
C11 C10 1_555 1_555
H9 C11 1_555 1_555
C12 C7 1_555 1_555
H10 C12 1_555 1_555
C13 C14 1_555 1_555
C14 H11 1_555 1_555
C15 C14 1_555 1_555
H12 C15 1_555 1_555
C16 C15 1_555 1_555
H13 C16 1_555 1_555
C17 C16 1_555 1_555
H14 C17 1_555 1_555
C18 C13 1_555 1_555
H15 C18 1_555 1_555
C19 C1 1_555 1_555
C20 N1 1_555 1_555
C21 C20 1_555 1_555
H16 C21 1_555 1_555
C22 C21 1_555 1_555
C23 C22 1_555 1_555
H17 C23 1_555 1_555
C24 C23 1_555 1_555
H18 C24 1_555 1_555
C25 C20 1_555 1_555
C26 N1 1_555 1_555
C27 C25 1_555 1_555
C28 C27 1_555 1_555
C29 C28 1_555 1_555
H19 C29 1_555 1_555
H20 C29 1_555 1_555
H21 C29 1_555 1_555
C30 C28 1_555 1_555
C31 O3 1_555 1_555
C32 Si1 1_555 1_555
H22 C32 1_555 1_555
H23 C32 1_555 1_555
H24 C32 1_555 1_555
C33 Si1 1_555 1_555
H25 C33 1_555 1_555
H26 C33 1_555 1_555
H27 C33 1_555 1_555
C34 Si1 1_555 1_555
C35 C34 1_555 1_555
H28 C35 1_555 1_555
H29 C35 1_555 1_555
H30 C35 1_555 1_555
C36 C34 1_555 1_555
H31 C36 1_555 1_555
H32 C36 1_555 1_555
H33 C36 1_555 1_555
C37 C34 1_555 1_555
H34 C37 1_555 1_555
H35 C37 1_555 1_555
H36 C37 1_555 1_555
C5 C6 1_555 1_555
C7 C19 1_555 1_555
C11 C12 1_555 1_555
C13 C19 1_555 1_555
C17 C18 1_555 1_555
C24 C25 1_555 1_555
C26 C27 1_555 1_555
C30 C31 1_555 1_555

#END
