
#######################################################################
#
#                 Cambridge Crystallographic Data Centre
#                                CCDC 
#
#######################################################################
#
# If this CIF has been generated from an entry in the Cambridge 
# Structural Database, then it will include bibliographic, chemical, 
# crystal, experimental, refinement or atomic coordinate data resulting 
# from the CCDC's data processing and validation procedures.
#
#######################################################################

data_POPRER
_chemical_formula_moiety         'C22 H24 O4'
_chemical_name_systematic        
3a,4,5,10,11,11a-Hexahydro-10-(3,4-dimethoxyphenyl)-benzo(5,6)cyclo-octa(1,2-c)furan-2(3H)-one
_symmetry_cell_setting           orthorhombic
_symmetry_space_group_name_H-M   'P b c a'
_symmetry_Int_Tables_number      61
_space_group_name_Hall           '-P 2ac 2ab'
loop_
_symmetry_equiv_pos_site_id
_symmetry_equiv_pos_as_xyz
1 x,y,z
2 1/2-x,-y,1/2+z
3 1/2+x,1/2-y,-z
4 -x,1/2+y,1/2-z
5 -x,-y,-z
6 1/2+x,y,1/2-z
7 1/2-x,1/2+y,z
8 x,1/2-y,1/2+z
_cell_length_a                   9.671
_cell_length_b                   22.736
_cell_length_c                   16.877
_cell_angle_alpha                90
_cell_angle_beta                 90
_cell_angle_gamma                90
_cell_volume                     3710.91
_exptl_crystal_colour            colorless
_chemical_melting_point          '131-132 deg.C'
_cell_formula_units_Z            8
loop_
_atom_site_label
_atom_site_type_symbol
_atom_site_fract_x
_atom_site_fract_y
_atom_site_fract_z
O1 O 0.2330(4) 0.3903(1) 0.3824(1)
O2 O 0.0445(4) 0.4078(1) 0.4527(2)
O3 O 0.0139(4) 0.5069(1) 0.8190(1)
O4 O 0.1343(3) 0.4765(1) 0.9507(1)
C1 C 0.1581(5) 0.3868(2) 0.4492(2)
C2 C 0.2358(4) 0.3543(2) 0.5132(2)
C3 C 0.2071(4) 0.3843(2) 0.5922(2)
C4 C 0.2900(4) 0.3626(2) 0.6629(2)
C5 C 0.2820(4) 0.2965(2) 0.6698(2)
C6 C 0.1725(5) 0.2700(2) 0.7102(2)
C7 C 0.1583(5) 0.2102(2) 0.7153(2)
C8 C 0.2534(5) 0.1748(2) 0.6784(2)
C9 C 0.3606(5) 0.1994(2) 0.6375(2)
C10 C 0.3790(4) 0.2604(2) 0.6324(2)
C11 C 0.5013(5) 0.2826(2) 0.5857(2)
C12 C 0.4670(5) 0.2970(2) 0.4995(2)
C13 C 0.3841(5) 0.3528(2) 0.4825(2)
C14 C 0.3637(6) 0.3616(2) 0.3937(2)
C15 C 0.2492(4) 0.3932(2) 0.7405(2)
C16 C 0.1486(4) 0.4364(2) 0.7432(2)
C17 C 0.1136(4) 0.4641(2) 0.8135(2)
C18 C 0.1774(4) 0.4481(2) 0.8842(2)
C19 C 0.2799(5) 0.4058(2) 0.8814(2)
C20 C 0.3134(4) 0.3785(2) 0.8106(2)
C21 C -0.0383(6) 0.5309(2) 0.7476(3)
C22 C 0.1960(5) 0.4592(2) 1.0229(2)
loop_
_geom_bond_atom_site_label_1
_geom_bond_atom_site_label_2
_geom_bond_site_symmetry_1
_geom_bond_site_symmetry_2
O1 C1 1_555 1_555
O2 C1 1_555 1_555
O3 C17 1_555 1_555
O4 C18 1_555 1_555
C1 C2 1_555 1_555
C2 C3 1_555 1_555
C3 C4 1_555 1_555
C4 C5 1_555 1_555
C5 C6 1_555 1_555
C6 C7 1_555 1_555
C7 C8 1_555 1_555
C8 C9 1_555 1_555
C9 C10 1_555 1_555
C10 C5 1_555 1_555
C11 C10 1_555 1_555
C12 C11 1_555 1_555
C13 C2 1_555 1_555
C14 O1 1_555 1_555
C15 C4 1_555 1_555
C16 C15 1_555 1_555
C17 C16 1_555 1_555
C18 C17 1_555 1_555
C19 C18 1_555 1_555
C20 C15 1_555 1_555
C21 O3 1_555 1_555
C22 O4 1_555 1_555
C12 C13 1_555 1_555
C13 C14 1_555 1_555
C19 C20 1_555 1_555

#END
