
#######################################################################
#
#                 Cambridge Crystallographic Data Centre
#                                CCDC 
#
#######################################################################
#
# If this CIF has been generated from an entry in the Cambridge 
# Structural Database, then it will include bibliographic, chemical, 
# crystal, experimental, refinement or atomic coordinate data resulting 
# from the CCDC's data processing and validation procedures.
#
#######################################################################

data_POPTIX
_chemical_formula_moiety         'C66 H78 Br2 O6,5(C2 H3 N1)'
_chemical_name_systematic        
'5,11,17,23,29,35-Hexa-t-butyl-13,31-dibromo-9,38:12,40:27,41:30,37-tetraepoxy-12,13,30,31-tetrahydrocalix(6)arene-39,42-dione acetonitrile solvate'
_symmetry_cell_setting           triclinic
_symmetry_space_group_name_H-M   'P -1'
_symmetry_Int_Tables_number      2
_space_group_name_Hall           '-P 1'
loop_
_symmetry_equiv_pos_site_id
_symmetry_equiv_pos_as_xyz
1 x,y,z
2 -x,-y,-z
_cell_length_a                   13.634
_cell_length_b                   14.117
_cell_length_c                   11.820
_cell_angle_alpha                109.48
_cell_angle_beta                 114.09
_cell_angle_gamma                65.02
_cell_volume                     1846.57
_chemical_melting_point          '296-299 deg.C'
_cell_formula_units_Z            1
loop_
_atom_site_label
_atom_site_type_symbol
_atom_site_fract_x
_atom_site_fract_y
_atom_site_fract_z
Br1 Br 0.48790(6) 0.69680(6) -0.05671(7)
O1 O 0.6511(3) 0.8187(3) 0.3860(3)
O2 O 0.5996(4) 0.8936(4) 0.1747(4)
O3 O 0.3501(3) 0.9072(3) 0.2246(3)
C1 C 0.7694(5) 0.7836(4) 0.4326(5)
C2 C 0.8294(5) 0.8314(4) 0.5460(5)
C3 C 0.9481(5) 0.7841(4) 0.5793(5)
C4 C 1.0048(5) 0.6961(4) 0.5049(6)
C5 C 0.9376(5) 0.6535(4) 0.3883(5)
C6 C 0.8210(4) 0.6988(4) 0.3530(5)
C7 C 0.7303(5) 0.6713(5) 0.2336(6)
C8 C 0.5566(5) 0.8330(5) 0.1691(6)
C9 C 0.6166(5) 0.7541(5) 0.2592(5)
C10 C 0.5432(5) 0.7004(4) 0.2599(6)
C11 C 0.4340(5) 0.7188(4) 0.1965(6)
C12 C 0.3741(5) 0.8118(4) 0.1287(5)
C13 C 0.4440(5) 0.8277(4) 0.0701(5)
C14 C 0.3767(5) 0.9213(5) 0.0030(5)
C15 C 0.2973(4) 1.0038(4) 0.1839(5)
C16 C 0.3085(5) 1.0160(4) 0.0792(5)
C17 C 0.2536(5) 1.1142(5) 0.0450(5)
C18 C 0.1880(5) 1.2003(4) 0.1110(6)
C19 C 0.1821(4) 1.1856(4) 0.2179(5)
C20 C 0.2355(4) 1.0884(4) 0.2564(5)
C21 C 0.7717(5) 0.9302(4) 0.6282(5)
C22 C 1.1362(5) 0.6455(6) 0.5485(7)
C23 C 1.191(2) 0.733(2) 0.568(4)
C24 C 1.182(2) 0.552(3) 0.457(3)
C25 C 1.172(1) 0.613(2) 0.676(2)
C26 C 0.3635(5) 0.6575(5) 0.1908(7)
C27 C 0.4317(7) 0.5724(6) 0.2712(9)
C28 C 0.3189(7) 0.6009(6) 0.0536(8)
C29 C 0.2613(6) 0.7364(6) 0.2385(9)
C30 C 0.1250(6) 1.3089(5) 0.0696(6)
C31 C 0.0272(7) 1.3765(6) 0.122(1)
C32 C 0.0735(8) 1.2937(6) -0.0738(8)
C33 C 0.2085(8) 1.3665(6) 0.111(1)
H1 H 0.9926 0.8141 0.6577
H2 H 0.9729 0.5936 0.3341
H3 H 0.5785 0.6479 0.3109
H4 H 0.3049 0.8052 0.0665
H5 H 0.2612 1.1230 -0.0269
H6 H 0.1398 1.2444 0.2668
H7 H 0.7382 0.6799 0.1618
H8 H 0.7331 0.6003 0.2218
H9 H 0.4281 0.9418 -0.0111
H10 H 0.3258 0.8999 -0.0759
H11 H 0.8126 0.9783 0.6563
H12 H 0.6962 0.9614 0.5772
H13 H 0.3842 0.5360 0.2647
H14 H 0.4941 0.5232 0.2425
H15 H 0.4593 0.6049 0.3569
H16 H 0.2740 0.5632 0.0504
H17 H 0.2737 0.6524 0.0011
H18 H 0.3815 0.5524 0.0247
H19 H 0.2889 0.7733 0.3218
H20 H 0.2140 0.7861 0.1841
H21 H 0.2186 0.6980 0.2389
H22 H 0.0557 1.3912 0.2120
H23 H -0.0107 1.4415 0.0923
H24 H -0.0248 1.3392 0.0959
H25 H 0.0376 1.3611 -0.0980
H26 H 0.1322 1.2513 -0.1114
H27 H 0.0190 1.2590 -0.1013
H28 H 0.2383 1.3798 0.2010
H29 H 0.2691 1.3238 0.0767
H30 H 0.1712 1.4322 0.0829
C21A C 0.2283(5) 1.0698(4) 0.3718(5)
C20A C 0.7645(4) 0.9116(4) 0.7436(5)
C2A C 0.1706(5) 1.1686(4) 0.4540(5)
H11A H 0.1874 1.0217 0.3437
H12A H 0.3038 1.0386 0.4228
C15A C 0.7027(4) 0.9962(4) 0.8161(5)
C19A C 0.8179(4) 0.8144(4) 0.7821(5)
C1A C 0.2306(5) 1.2164(4) 0.5674(5)
C3A C 0.0519(5) 1.2159(4) 0.4207(5)
O3A O 0.6499(3) 1.0928(3) 0.7754(3)
C16A C 0.6915(5) 0.9840(4) 0.9208(5)
C18A C 0.8120(5) 0.7997(4) 0.8890(6)
H6A H 0.8602 0.7556 0.7332
O1A O 0.3489(3) 1.1813(3) 0.6140(3)
C6A C 0.1790(4) 1.3012(4) 0.6470(5)
C4A C -0.0048(5) 1.3039(4) 0.4951(6)
H1A H 0.0074 1.1859 0.3423
C12A C 0.6259(5) 1.1882(4) 0.8713(5)
C14A C 0.6233(5) 1.0787(5) 0.9970(5)
C17A C 0.7464(5) 0.8858(5) 0.9550(5)
C30A C 0.8750(6) 0.6911(5) 0.9304(6)
C9A C 0.3834(5) 1.2459(5) 0.7408(5)
C5A C 0.0624(5) 1.3465(4) 0.6117(5)
C7A C 0.2697(5) 1.3287(5) 0.7664(6)
C22A C -0.1362(5) 1.3545(6) 0.4515(7)
C11A C 0.5660(5) 1.2812(4) 0.8035(6)
C13A C 0.5560(5) 1.1723(4) 0.9299(5)
H4A H 0.6951 1.1948 0.9335
H9A H 0.5719 1.0582 1.0111
H10A H 0.6742 1.1001 1.0759
H5A H 0.7388 0.8770 1.0269
C31A C 0.9728(7) 0.6235(6) 0.878(1)
C32A C 0.9265(8) 0.7063(6) 1.0738(8)
C33A C 0.7915(8) 0.6335(6) 0.889(1)
C8A C 0.4434(5) 1.1670(5) 0.8309(6)
C10A C 0.4568(5) 1.2996(4) 0.7401(6)
H2A H 0.0271 1.4064 0.6659
H7A H 0.2618 1.3201 0.8382
H8A H 0.2669 1.3997 0.7782
C23A C -0.191(2) 1.267(2) 0.432(4)
C24A C -0.182(2) 1.448(3) 0.543(3)
C25A C -0.172(1) 1.387(2) 0.324(2)
C26A C 0.6365(5) 1.3425(5) 0.8092(7)
Br1A Br 0.51210(6) 1.30320(6) 1.05671(7)
H22A H 0.9443 0.6088 0.7880
H23A H 1.0107 0.5585 0.9077
H24A H 1.0248 0.6608 0.9041
H25A H 0.9624 0.6389 1.0980
H26A H 0.8678 0.7487 1.1114
H27A H 0.9810 0.7410 1.1013
H28A H 0.7617 0.6202 0.7990
H29A H 0.7309 0.6762 0.9233
H30A H 0.8288 0.5678 0.9171
O2A O 0.4004(4) 1.1064(4) 0.8253(4)
H3A H 0.4215 1.3521 0.6891
C27A C 0.5683(7) 1.4276(6) 0.7288(9)
C28A C 0.6811(7) 1.3991(6) 0.9464(8)
C29A C 0.7387(6) 1.2636(6) 0.7615(9)
H13A H 0.6158 1.4640 0.7353
H14A H 0.5059 1.4768 0.7575
H15A H 0.5407 1.3951 0.6431
H16A H 0.7260 1.4368 0.9496
H17A H 0.7263 1.3476 0.9989
H18A H 0.6185 1.4476 0.9753
H19A H 0.7111 1.2267 0.6782
H20A H 0.7860 1.2139 0.8159
H21A H 0.7814 1.3020 0.7611
N1 N 1.008(2) 0.035(1) 0.717(2)
C34 C 1.073(1) 0.039(1) 0.683(1)
C35 C 1.159(1) 0.036(1) 0.648(1)
N2 N 0.506(1) 0.128(1) 0.416(1)
C36 C 0.511(2) 0.191(2) 0.368(2)
C37 C 0.497(2) 0.308(2) 0.376(2)
C38? C 1.177(1) 0.649(3) 0.445(2)
C39? C 1.190(2) 0.706(4) 0.671(3)
C40? C 1.163(2) 0.524(2) 0.533(4)
N3? N 0.625(4) 0.156(4) 0.360(4)
C41? C 0.415(4) 0.315(4) 0.405(4)
N4? N 0.902(1) 0.141(2) 0.073(2)
C42? C 0.968(1) 0.0487(8) 0.016(1)
loop_
_geom_bond_atom_site_label_1
_geom_bond_atom_site_label_2
_geom_bond_site_symmetry_1
_geom_bond_site_symmetry_2
Br1 C13 1_555 1_555
O1 C1 1_555 1_555
O2 C8 1_555 1_555
O3 C12 1_555 1_555
C1 C2 1_555 1_555
C2 C3 1_555 1_555
C3 C4 1_555 1_555
C4 C5 1_555 1_555
C5 C6 1_555 1_555
C6 C1 1_555 1_555
C7 C6 1_555 1_555
C8 C9 1_555 1_555
C9 O1 1_555 1_555
C10 C9 1_555 1_555
C11 C10 1_555 1_555
C12 C11 1_555 1_555
C13 C8 1_555 1_555
C14 C13 1_555 1_555
C15 O3 1_555 1_555
C16 C14 1_555 1_555
C17 C16 1_555 1_555
C18 C17 1_555 1_555
C19 C18 1_555 1_555
C20 C15 1_555 1_555
C21 C2 1_555 1_555
C22 C4 1_555 1_555
C23 C22 1_555 1_555
C24 C22 1_555 1_555
C25 C22 1_555 1_555
C26 C11 1_555 1_555
C27 C26 1_555 1_555
C28 C26 1_555 1_555
C29 C26 1_555 1_555
C30 C18 1_555 1_555
C31 C30 1_555 1_555
C32 C30 1_555 1_555
C33 C30 1_555 1_555
H1 C3 1_555 1_555
H2 C5 1_555 1_555
H3 C10 1_555 1_555
H4 C12 1_555 1_555
H5 C17 1_555 1_555
H6 C19 1_555 1_555
H7 C7 1_555 1_555
H8 C7 1_555 1_555
H9 C14 1_555 1_555
H10 C14 1_555 1_555
H11 C21 1_555 1_555
H12 C21 1_555 1_555
H13 C27 1_555 1_555
H14 C27 1_555 1_555
H15 C27 1_555 1_555
H16 C28 1_555 1_555
H17 C28 1_555 1_555
H18 C28 1_555 1_555
H19 C29 1_555 1_555
H20 C29 1_555 1_555
H21 C29 1_555 1_555
H22 C31 1_555 1_555
H23 C31 1_555 1_555
H24 C31 1_555 1_555
H25 C32 1_555 1_555
H26 C32 1_555 1_555
H27 C32 1_555 1_555
H28 C33 1_555 1_555
H29 C33 1_555 1_555
H30 C33 1_555 1_555
N1 C34 1_555 1_555
C34 C35 1_555 1_555
N2 C36 1_555 1_555
C36 C37 1_555 1_555
C21A C20 1_555 1_555
C20A C21 1_555 1_555
C2A C21A 1_555 1_555
H11A C21A 1_555 1_555
H12A C21A 1_555 1_555
C15A C20A 1_555 1_555
C19A C20A 1_555 1_555
C1A C2A 1_555 1_555
C3A C2A 1_555 1_555
O3A C15A 1_555 1_555
C16A C15A 1_555 1_555
C18A C19A 1_555 1_555
H6A C19A 1_555 1_555
O1A C1A 1_555 1_555
C6A C1A 1_555 1_555
C4A C3A 1_555 1_555
H1A C3A 1_555 1_555
C12A O3A 1_555 1_555
C14A C16A 1_555 1_555
C17A C16A 1_555 1_555
C30A C18A 1_555 1_555
C9A O1A 1_555 1_555
C5A C6A 1_555 1_555
C7A C6A 1_555 1_555
C22A C4A 1_555 1_555
C11A C12A 1_555 1_555
C13A C12A 1_555 1_555
H4A C12A 1_555 1_555
H9A C14A 1_555 1_555
H10A C14A 1_555 1_555
H5A C17A 1_555 1_555
C31A C30A 1_555 1_555
C32A C30A 1_555 1_555
C33A C30A 1_555 1_555
C8A C9A 1_555 1_555
C10A C9A 1_555 1_555
H2A C5A 1_555 1_555
H7A C7A 1_555 1_555
H8A C7A 1_555 1_555
C23A C22A 1_555 1_555
C24A C22A 1_555 1_555
C25A C22A 1_555 1_555
C26A C11A 1_555 1_555
Br1A C13A 1_555 1_555
H22A C31A 1_555 1_555
H23A C31A 1_555 1_555
H24A C31A 1_555 1_555
H25A C32A 1_555 1_555
H26A C32A 1_555 1_555
H27A C32A 1_555 1_555
H28A C33A 1_555 1_555
H29A C33A 1_555 1_555
H30A C33A 1_555 1_555
O2A C8A 1_555 1_555
H3A C10A 1_555 1_555
C27A C26A 1_555 1_555
C28A C26A 1_555 1_555
C29A C26A 1_555 1_555
H13A C27A 1_555 1_555
H14A C27A 1_555 1_555
H15A C27A 1_555 1_555
H16A C28A 1_555 1_555
H17A C28A 1_555 1_555
H18A C28A 1_555 1_555
H19A C29A 1_555 1_555
H20A C29A 1_555 1_555
H21A C29A 1_555 1_555
C7 C9 1_555 1_555
C12 C13 1_555 1_555
C15 C16 1_555 1_555
C19 C20 1_555 1_555
C18A C17A 1_555 1_555
C4A C5A 1_555 1_555
C14A C13A 1_555 1_555
C9A C7A 1_555 1_555
C11A C10A 1_555 1_555
C13A C8A 1_555 1_555

#END
