
#######################################################################
#
#                 Cambridge Crystallographic Data Centre
#                                CCDC 
#
#######################################################################
#
# If this CIF has been generated from an entry in the Cambridge 
# Structural Database, then it will include bibliographic, chemical, 
# crystal, experimental, refinement or atomic coordinate data resulting 
# from the CCDC's data processing and validation procedures.
#
#######################################################################

data_POPYAV
_chemical_formula_moiety         'C16 H19 F3 N2 O2'
_chemical_name_systematic        
(S)-3-((R)-2,2-Difluoro-1-(4-fluorophenyl)but-3-en-1-ylamino)-4-isopropyl-1,3-oxazolidin-2-one
_symmetry_cell_setting           triclinic
_symmetry_space_group_name_H-M   'P 1'
_symmetry_Int_Tables_number      1
_space_group_name_Hall           'P 1'
loop_
_symmetry_equiv_pos_site_id
_symmetry_equiv_pos_as_xyz
1 x,y,z
_cell_length_a                   8.9154(12)
_cell_length_b                   9.1705(12)
_cell_length_c                   12.0573(16)
_cell_angle_alpha                93.238(3)
_cell_angle_beta                 102.826(2)
_cell_angle_gamma                118.890(2)
_cell_volume                     825.947
_exptl_crystal_colour            colorless
_exptl_crystal_description       prismatic
_cell_formula_units_Z            2
loop_
_atom_site_label
_atom_site_type_symbol
_atom_site_fract_x
_atom_site_fract_y
_atom_site_fract_z
F1 F 0.6775(5) 0.0717(5) 0.4504(3)
F2 F 0.7296(5) -0.0310(4) 0.6000(3)
F3 F 0.4087(6) 0.6032(5) 0.4691(4)
N1 N 0.2721(5) -0.0926(5) 0.6128(3)
N2 N 0.4022(6) -0.0633(5) 0.5533(3)
O1 O 0.3515(6) -0.2422(6) 0.7348(4)
O2 O 0.0962(5) -0.2394(6) 0.7148(3)
C1 C 0.2510(7) -0.1943(7) 0.6926(4)
C2 C 0.1113(6) -0.0900(6) 0.5584(4)
H1 H 0.1405 0.0279 0.5600
C3 C 0.0066(8) -0.1631(8) 0.6460(5)
H2 H 0.0087 -0.0741 0.6949
H3 H -0.1168 -0.2479 0.6063
C4 C 0.5632(7) 0.1008(6) 0.6033(4)
H4 H 0.5910 0.1144 0.6879
C5 C 0.7192(7) 0.1052(7) 0.5680(5)
C6 C 0.8904(12) 0.2567(11) 0.6148(11)
H5 H 0.8674 0.3353 0.6476
C7 C 1.0366(15) 0.3235(15) 0.6301(15)
H6 H 1.0894 0.2676 0.6039
H7 H 1.1071 0.4358 0.6691
C8 C 0.5312(6) 0.2428(6) 0.5682(4)
C9 C 0.5634(7) 0.3741(6) 0.6484(4)
H8 H 0.6112 0.3797 0.7265
C10 C 0.5266(8) 0.4984(7) 0.6164(6)
H9 H 0.5522 0.5885 0.6716
C11 C 0.4523(8) 0.4859(7) 0.5028(6)
C12 C 0.4179(8) 0.3599(7) 0.4186(5)
H10 H 0.3688 0.3555 0.3411
C13 C 0.4587(7) 0.2370(6) 0.4525(4)
H11 H 0.4368 0.1497 0.3965
C14 C 0.0181(7) -0.1880(7) 0.4354(4)
H12 H 0.1031 -0.1356 0.3904
C15 C -0.0325(9) -0.3722(8) 0.4233(6)
H13 H 0.0716 -0.3793 0.4562
H14 H -0.0809 -0.4246 0.3427
H15 H -0.1204 -0.4296 0.4633
C16 C -0.1413(9) -0.1682(9) 0.3838(5)
H16 H -0.1950 -0.2253 0.3042
H17 H -0.1023 -0.0498 0.3883
H18 H -0.2274 -0.2168 0.4264
H38 H 0.431(7) -0.140(7) 0.562(4)
F4 F 0.5880(5) 0.4231(4) -0.0241(4)
F5 F 0.5153(6) 0.4433(5) 0.1333(3)
F6 F -0.0103(6) 0.7349(7) 0.1463(3)
N3 N 0.6690(6) 0.8770(5) -0.0106(4)
N4 N 0.6414(6) 0.7375(5) 0.0435(3)
O3 O 0.7907(5) 0.8206(5) -0.1429(3)
O4 O 0.7817(6) 1.0614(5) -0.1201(3)
C17 C 0.7484(7) 0.9079(7) -0.0965(4)
C18 C 0.6534(7) 1.0145(6) 0.0377(4)
H19 H 0.5275 0.9739 0.0317
C19 C 0.7106(10) 1.1312(8) -0.0499(5)
H20 H 0.6090 1.1332 -0.0979
H21 H 0.8010 1.2460 -0.0101
C20 C 0.4602(6) 0.5902(6) -0.0100(4)
H22 H 0.4314 0.5830 -0.0941
C21 C 0.4576(8) 0.4291(7) 0.0161(5)
C22 C 0.2879(12) 0.2720(10) -0.0317(9)
H23 H 0.1920 0.2903 -0.0488
C23 C 0.2424(15) 0.1294(15) -0.0539(16)
H24 H 0.3266 0.0954 -0.0406
H25 H 0.1217 0.0491 -0.0850
C24 C 0.3264(6) 0.6166(6) 0.0332(4)
C25 C 0.3522(7) 0.6617(7) 0.1503(4)
H26 H 0.4476 0.6655 0.2037
C26 C 0.2398(8) 0.7012(8) 0.1899(5)
H27 H 0.2586 0.7324 0.2687
C27 C 0.1003(8) 0.6927(8) 0.1092(5)
C28 C 0.0677(8) 0.6477(8) -0.0068(5)
H28 H -0.0294 0.6424 -0.0593
C29 C 0.1813(7) 0.6106(6) -0.0443(4)
H29 H 0.1614 0.5806 -0.1234
C30 C 0.7629(8) 1.0918(7) 0.1625(4)
H30 H 0.7201 1.0008 0.2068
C31 C 0.9591(10) 1.1587(11) 0.1831(7)
H31 H 0.9775 1.0676 0.1612
H32 H 1.0200 1.2073 0.2637
H33 H 1.0054 1.2441 0.1376
C32 C 0.7256(13) 1.2255(9) 0.2087(6)
H34 H 0.7894 1.2687 0.2895
H35 H 0.5997 1.1753 0.1991
H36 H 0.7642 1.3167 0.1667
H37 H 0.719(6) 0.704(5) 0.037(3)
loop_
_geom_bond_atom_site_label_1
_geom_bond_atom_site_label_2
_geom_bond_site_symmetry_1
_geom_bond_site_symmetry_2
F1 C5 1_555 1_555
F2 C5 1_555 1_555
F3 C11 1_555 1_555
F4 C21 1_555 1_555
F5 C21 1_555 1_555
F6 C27 1_555 1_555
N1 N2 1_555 1_555
N2 C4 1_555 1_555
N3 N4 1_555 1_555
N4 C20 1_555 1_555
O1 C1 1_555 1_555
O2 C1 1_555 1_555
O3 C17 1_555 1_555
O4 C17 1_555 1_555
C1 N1 1_555 1_555
C2 N1 1_555 1_555
H1 C2 1_555 1_555
C3 O2 1_555 1_555
H2 C3 1_555 1_555
H3 C3 1_555 1_555
C4 H4 1_555 1_555
C5 C4 1_555 1_555
C6 C5 1_555 1_555
H5 C6 1_555 1_555
C7 C6 1_555 1_555
H6 C7 1_555 1_555
H7 C7 1_555 1_555
C8 C4 1_555 1_555
C9 C8 1_555 1_555
H8 C9 1_555 1_555
C10 C9 1_555 1_555
H9 C10 1_555 1_555
C11 C10 1_555 1_555
C12 C11 1_555 1_555
H10 C12 1_555 1_555
C13 C8 1_555 1_555
H11 C13 1_555 1_555
C14 C2 1_555 1_555
H12 C14 1_555 1_555
C15 C14 1_555 1_555
H13 C15 1_555 1_555
H14 C15 1_555 1_555
H15 C15 1_555 1_555
C16 C14 1_555 1_555
H16 C16 1_555 1_555
H17 C16 1_555 1_555
H18 C16 1_555 1_555
C17 N3 1_555 1_555
C18 N3 1_555 1_555
H19 C18 1_555 1_555
C19 O4 1_555 1_555
H20 C19 1_555 1_555
H21 C19 1_555 1_555
C20 H22 1_555 1_555
C21 C20 1_555 1_555
C22 C21 1_555 1_555
H23 C22 1_555 1_555
C23 C22 1_555 1_555
H24 C23 1_555 1_555
H25 C23 1_555 1_555
C24 C20 1_555 1_555
C25 C24 1_555 1_555
H26 C25 1_555 1_555
C26 C25 1_555 1_555
H27 C26 1_555 1_555
C27 C26 1_555 1_555
C28 C27 1_555 1_555
H28 C28 1_555 1_555
C29 C24 1_555 1_555
H29 C29 1_555 1_555
C30 C18 1_555 1_555
H30 C30 1_555 1_555
C31 C30 1_555 1_555
H31 C31 1_555 1_555
H32 C31 1_555 1_555
H33 C31 1_555 1_555
C32 C30 1_555 1_555
H34 C32 1_555 1_555
H35 C32 1_555 1_555
H36 C32 1_555 1_555
H37 N4 1_555 1_555
H38 N2 1_555 1_555
C2 C3 1_555 1_555
C12 C13 1_555 1_555
C18 C19 1_555 1_555
C28 C29 1_555 1_555

#END
