
#######################################################################
#
#                 Cambridge Crystallographic Data Centre
#                                CCDC 
#
#######################################################################
#
# If this CIF has been generated from an entry in the Cambridge 
# Structural Database, then it will include bibliographic, chemical, 
# crystal, experimental, refinement or atomic coordinate data resulting 
# from the CCDC's data processing and validation procedures.
#
#######################################################################

data_POQHEK
_chemical_formula_moiety         'C36 H25 Cl1 N2 O5'
_chemical_name_systematic        
11-benzoyl-5-chloro-9-(4-methoxyphenyl)-2-phenyl-10a,11-dihydro-7aH-furo[3,2-h]pyrrolo[3',4':3,4]pyrrolo[1,2-a]quinoline-8,10(7bH,9H)-dione
_symmetry_cell_setting           monoclinic
_symmetry_space_group_name_H-M   'P 21/c'
_symmetry_Int_Tables_number      14
_space_group_name_Hall           '-P 2ybc'
loop_
_symmetry_equiv_pos_site_id
_symmetry_equiv_pos_as_xyz
1 x,y,z
2 -x,1/2+y,1/2-z
3 -x,-y,-z
4 x,1/2-y,1/2+z
_cell_length_a                   15.687(2)
_cell_length_b                   19.297(2)
_cell_length_c                   9.8479(13)
_cell_angle_alpha                90
_cell_angle_beta                 99.478(8)
_cell_angle_gamma                90
_cell_volume                     2940.38
_exptl_crystal_colour            'light red'
_exptl_crystal_description       Block
_cell_formula_units_Z            4
loop_
_atom_site_label
_atom_site_type_symbol
_atom_site_fract_x
_atom_site_fract_y
_atom_site_fract_z
Cl1 Cl 1.01720(6) 0.38023(5) 0.09052(9)
C1 C 0.86116(17) 0.42054(14) 0.3675(3)
C2 C 0.6025(2) 0.38172(15) 0.3754(3)
C3 C 0.88220(17) 0.48945(13) 0.3917(3)
C4 C 0.79074(19) 0.41650(14) 0.6655(3)
C5 C 0.66826(19) 0.36084(13) 0.4969(3)
H1 H 0.6429 0.3556 0.5808
C6 C 0.5651(2) 0.38082(18) 0.0504(4)
H2 H 0.6127 0.4096 0.0747
C7 C 0.90525(18) 0.38583(14) 0.2729(3)
C8 C 0.74506(18) 0.41305(14) 0.5158(3)
H3 H 0.7241 0.4592 0.4851
C9 C 0.67468(19) 0.49299(15) 0.7351(3)
H4 H 0.6432 0.4901 0.6466
C10 C 0.6501(2) 0.27422(15) 0.3202(3)
C11 C 0.94328(17) 0.52463(15) 0.3308(3)
C12 C 0.88812(18) 0.59630(14) 0.4729(3)
C13 C 0.86012(18) 0.65149(13) 0.5547(3)
C14 C 0.75118(17) 0.45702(13) 0.7678(3)
C15 C 0.98633(19) 0.49034(17) 0.2373(3)
H5 H 1.0276 0.5127 0.1954
C16 C 0.7064(2) 0.29299(14) 0.4534(3)
H6 H 0.7050 0.2568 0.5228
C17 C 0.7675(2) 0.5010(2) 0.9986(3)
H7 H 0.7985 0.5038 1.0875
C18 C 0.4463(2) 0.34340(15) -0.1155(3)
C19 C 0.96543(18) 0.42292(17) 0.2102(3)
C20 C 0.94572(19) 0.59317(15) 0.3861(3)
H8 H 0.9809 0.6292 0.3657
C21 C 0.54415(19) 0.33404(14) 0.1429(3)
C22 C 0.7963(2) 0.46067(17) 0.9009(3)
H9 H 0.8470 0.4353 0.9244
C23 C 0.6449(2) 0.53275(17) 0.8314(3)
H10 H 0.5931 0.5567 0.8086
C24 C 0.5161(2) 0.38581(18) -0.0793(3)
H11 H 0.5306 0.4180 -0.1420
C25 C 0.8000(2) 0.30944(14) 0.4345(3)
H12 H 0.8387 0.2974 0.5198
C26 C 0.7991(2) 0.64124(15) 0.6390(3)
H13 H 0.7760 0.5972 0.6457
C27 C 0.6908(3) 0.5376(2) 0.9615(4)
H14 H 0.6706 0.5656 1.0261
C28 C 0.8348(2) 0.27837(17) 0.3173(4)
H15 H 0.8216 0.2325 0.2934
C29 C 0.8840(2) 0.31406(17) 0.2463(3)
H16 H 0.9060 0.2918 0.1758
C30 C 0.8058(2) 0.75964(17) 0.7045(4)
H17 H 0.7872 0.7962 0.7539
C31 C 0.8669(3) 0.77043(17) 0.6233(4)
H18 H 0.8903 0.8145 0.6181
C32 C 0.4736(2) 0.29246(17) 0.1071(4)
H19 H 0.4580 0.2612 0.1706
C33 C 0.7720(2) 0.69488(17) 0.7131(4)
H20 H 0.7306 0.6871 0.7691
C34 C 0.4257(2) 0.29663(18) -0.0223(4)
H21 H 0.3787 0.2673 -0.0467
C35 C 0.8942(2) 0.71751(16) 0.5496(3)
H22 H 0.9363 0.7258 0.4952
C36 C 0.4090(4) 0.3936(2) -0.3393(5)
H23 H 0.4036 0.4396 -0.3047
H24 H 0.3679 0.3872 -0.4221
H25 H 0.4664 0.3871 -0.3589
N1 N 0.79781(16) 0.38498(11) 0.4209(2)
N2 N 0.59627(16) 0.32967(11) 0.2766(2)
O1 O 0.84718(11) 0.53272(8) 0.47905(17)
O2 O 0.85957(14) 0.38713(10) 0.6975(2)
O3 O 0.56164(15) 0.43481(12) 0.3621(2)
O4 O 0.65043(15) 0.22093(11) 0.2571(2)
O5 O 0.39302(16) 0.34513(12) -0.2402(2)
loop_
_geom_bond_atom_site_label_1
_geom_bond_atom_site_label_2
_geom_bond_site_symmetry_1
_geom_bond_site_symmetry_2
Cl1 C19 1_555 1_555
C1 C3 1_555 1_555
C2 C5 1_555 1_555
C3 C11 1_555 1_555
C4 C8 1_555 1_555
C5 H1 1_555 1_555
C6 H2 1_555 1_555
C7 C1 1_555 1_555
C8 C5 1_555 1_555
H3 C8 1_555 1_555
C9 H4 1_555 1_555
C10 C16 1_555 1_555
C11 C15 1_555 1_555
C12 C13 1_555 1_555
C13 C26 1_555 1_555
C14 C4 1_555 1_555
C15 H5 1_555 1_555
C16 C5 1_555 1_555
H6 C16 1_555 1_555
C17 H7 1_555 1_555
C18 C24 1_555 1_555
C19 C7 1_555 1_555
C20 C11 1_555 1_555
H8 C20 1_555 1_555
C21 C6 1_555 1_555
C22 C14 1_555 1_555
H9 C22 1_555 1_555
C23 C9 1_555 1_555
H10 C23 1_555 1_555
C24 C6 1_555 1_555
H11 C24 1_555 1_555
C25 C16 1_555 1_555
H12 C25 1_555 1_555
C26 H13 1_555 1_555
C27 C17 1_555 1_555
H14 C27 1_555 1_555
C28 C25 1_555 1_555
H15 C28 1_555 1_555
C29 C7 1_555 1_555
H16 C29 1_555 1_555
C30 H17 1_555 1_555
C31 C30 1_555 1_555
H18 C31 1_555 1_555
C32 C21 1_555 1_555
H19 C32 1_555 1_555
C33 C26 1_555 1_555
H20 C33 1_555 1_555
C34 C18 1_555 1_555
H21 C34 1_555 1_555
C35 C13 1_555 1_555
H22 C35 1_555 1_555
C36 H23 1_555 1_555
H24 C36 1_555 1_555
H25 C36 1_555 1_555
N1 C1 1_555 1_555
N2 C2 1_555 1_555
O1 C3 1_555 1_555
O2 C4 1_555 1_555
O3 C2 1_555 1_555
O4 C10 1_555 1_555
O5 C18 1_555 1_555
C8 N1 1_555 1_555
C9 C14 1_555 1_555
C10 N2 1_555 1_555
C12 C20 1_555 1_555
C12 O1 1_555 1_555
C15 C19 1_555 1_555
C17 C22 1_555 1_555
C21 N2 1_555 1_555
C23 C27 1_555 1_555
C25 N1 1_555 1_555
C28 C29 1_555 1_555
C30 C33 1_555 1_555
C31 C35 1_555 1_555
C32 C34 1_555 1_555
C36 O5 1_555 1_555

#END
