
#######################################################################
#
#                 Cambridge Crystallographic Data Centre
#                                CCDC 
#
#######################################################################
#
# If this CIF has been generated from an entry in the Cambridge 
# Structural Database, then it will include bibliographic, chemical, 
# crystal, experimental, refinement or atomic coordinate data resulting 
# from the CCDC's data processing and validation procedures.
#
#######################################################################

data_POQJAH
_chemical_compound_source        'Buxus microphylla'
_chemical_name_common            'Buxmicrophylline I'
_chemical_formula_moiety         'C36 H54 N2 O6'
_chemical_name_systematic        
'10-[1-(dimethylamino)ethyl]-9a,12a,14b-trimethylhexadecahydro-1H,3H-cyclopenta[7,8]cyclopropa[4a,4b]phenanthro[2,1-d][1,3]oxazin-11-yl 4-hydroxy-3,5-dimethoxybenzoate'
_symmetry_cell_setting           triclinic
_symmetry_space_group_name_H-M   'P 1'
_symmetry_Int_Tables_number      1
_space_group_name_Hall           'P 1'
loop_
_symmetry_equiv_pos_site_id
_symmetry_equiv_pos_as_xyz
1 x,y,z
_cell_length_a                   6.7780(12)
_cell_length_b                   7.8277(14)
_cell_length_c                   16.835(3)
_cell_angle_alpha                81.293(2)
_cell_angle_beta                 87.547(2)
_cell_angle_gamma                72.743(2)
_cell_volume                     843.159
_exptl_crystal_colour            colorless
_exptl_crystal_description       block
_chemical_melting_point          '257 deg.C'
_cell_formula_units_Z            1
_exptl_crystal_recrystallization_method 'methanol/ethyl acetate'
loop_
_atom_site_label
_atom_site_type_symbol
_atom_site_fract_x
_atom_site_fract_y
_atom_site_fract_z
O1 O 0.2064(5) 0.8164(5) 0.8947(2)
O2 O 0.9178(5) 0.5279(4) 0.30126(18)
O3 O 1.1006(8) 0.7227(6) 0.2674(2)
O4 O 0.4025(6) 0.6604(5) 0.0716(2)
O5 O 0.4698(6) 0.9458(5) -0.0238(2)
H1 H 0.3921 0.8857 -0.0294
O6 O 0.7509(6) 1.0978(5) 0.0077(2)
N1 N 1.3026(7) 0.1808(6) 0.2980(2)
N2 N 0.1743(8) 0.5146(7) 0.9129(3)
H2 H 0.0808 0.4532 0.9236
C1 C 0.2649(7) 0.4863(7) 0.8324(3)
H4 H 0.1498 0.5292 0.7940
C2 C 0.0772(9) 0.7006(9) 0.9180(4)
H5 H 0.0319 0.7123 0.9729
H6 H -0.0448 0.7423 0.8841
C3 C 0.2857(8) 0.7987(7) 0.8142(3)
H7 H 0.3729 0.8770 0.8002
H8 H 0.1714 0.8369 0.7765
C4 C 0.4111(7) 0.6024(6) 0.8075(3)
C5 C 0.4711(7) 0.5794(6) 0.7180(3)
H9 H 0.3396 0.6084 0.6894
C6 C 0.5813(7) 0.3816(6) 0.7102(3)
C7 C 0.4447(8) 0.2611(6) 0.7415(3)
H10 H 0.3280 0.2880 0.7055
H11 H 0.5235 0.1355 0.7414
C8 C 0.3651(9) 0.2878(7) 0.8263(3)
H12 H 0.2651 0.2217 0.8406
H13 H 0.4791 0.2393 0.8641
C9 C 0.6017(8) 0.5498(8) 0.8624(3)
H14 H 0.5581 0.5653 0.9165
H15 H 0.6878 0.6256 0.8443
H16 H 0.6781 0.4257 0.8607
C10 C 0.7270(7) 0.3344(5) 0.6392(3)
C11 C 0.7768(7) 0.4918(6) 0.5817(3)
H17 H 0.9086 0.4987 0.6006
C12 C 0.6213(9) 0.6760(6) 0.5883(3)
H18 H 0.6729 0.7701 0.5586
H19 H 0.4919 0.6823 0.5638
C13 C 0.5820(9) 0.7105(7) 0.6748(3)
H20 H 0.4976 0.8341 0.6761
H21 H 0.7120 0.6930 0.7015
C14 C 0.8117(7) 0.3039(7) 0.7239(3)
H22 H 0.8629 0.1801 0.7504
H23 H 0.8866 0.3843 0.7368
C15 C 0.7267(7) 0.1632(6) 0.6030(3)
H24 H 0.5852 0.1764 0.5888
H25 H 0.7678 0.0605 0.6453
C16 C 0.8639(7) 0.1144(6) 0.5284(3)
H26 H 0.9683 -0.0005 0.5431
H27 H 0.7787 0.0999 0.4865
C17 C 0.9710(6) 0.2578(5) 0.4949(2)
C18 C 1.0367(7) 0.2643(5) 0.4035(3)
H28 H 0.9259 0.2447 0.3738
C19 C 1.0373(7) 0.4614(6) 0.3771(3)
H29 H 1.1788 0.4688 0.3694
C20 C 0.9267(8) 0.5720(6) 0.4429(3)
H30 H 1.0255 0.6007 0.4746
H31 H 0.8280 0.6838 0.4193
C21 C 0.8162(7) 0.4500(5) 0.4950(3)
C22 C 1.2410(8) 0.1295(6) 0.3818(3)
H32 H 1.3472 0.1411 0.4166
C23 C 0.9647(8) 0.6614(6) 0.2522(3)
C24 C 0.8324(8) 0.7272(6) 0.1800(3)
C25 C 0.8599(8) 0.8764(6) 0.1284(3)
H33 H 0.9624 0.9265 0.1394
C26 C 0.7373(8) 0.9492(6) 0.0617(3)
C27 C 0.5857(8) 0.8725(7) 0.0436(3)
C28 C 0.5599(8) 0.7222(6) 0.0950(3)
C29 C 0.6809(8) 0.6509(6) 0.1629(3)
H34 H 0.6613 0.5523 0.1971
C30 C 0.6109(7) 0.4669(7) 0.4522(3)
H35 H 0.5416 0.3881 0.4828
H36 H 0.6406 0.4334 0.3994
H37 H 0.5237 0.5895 0.4479
C31 C 1.1622(7) 0.2251(7) 0.5484(3)
H38 H 1.1212 0.2201 0.6037
H39 H 1.2225 0.3221 0.5341
H40 H 1.2618 0.1128 0.5405
C32 C 1.2372(10) -0.0662(8) 0.4009(4)
H41 H 1.1114 -0.0765 0.3808
H42 H 1.2445 -0.1027 0.4581
H43 H 1.3531 -0.1426 0.3760
C33 C 1.5250(10) 0.1036(10) 0.2864(4)
H44 H 1.5596 -0.0259 0.2947
H45 H 1.5994 0.1416 0.3242
H46 H 1.5616 0.1445 0.2327
C34 C 1.1819(11) 0.1411(8) 0.2369(3)
H47 H 1.2108 0.1980 0.1850
H48 H 1.0373 0.1865 0.2484
H49 H 1.2184 0.0127 0.2374
C35 C 0.9163(10) 1.1708(9) 0.0190(4)
H50 H 0.8970 1.2197 0.0687
H51 H 0.9175 1.2649 -0.0247
H52 H 1.0454 1.0769 0.0205
C36 C 0.3780(10) 0.4981(8) 0.1162(4)
H53 H 0.4949 0.3981 0.1071
H54 H 0.2543 0.4784 0.0991
H55 H 0.3685 0.5085 0.1724
H3? H 0.2747 0.4701 0.9503
loop_
_geom_bond_atom_site_label_1
_geom_bond_atom_site_label_2
_geom_bond_site_symmetry_1
_geom_bond_site_symmetry_2
O1 C2 1_555 1_555
O2 C19 1_555 1_555
O3 C23 1_555 1_555
O4 C28 1_555 1_555
O5 H1 1_555 1_555
O6 C26 1_555 1_555
N1 C22 1_555 1_555
N2 H2 1_555 1_555
C1 N2 1_555 1_555
H4 C1 1_555 1_555
C2 N2 1_555 1_555
H5 C2 1_555 1_555
H6 C2 1_555 1_555
C3 O1 1_555 1_555
H7 C3 1_555 1_555
H8 C3 1_555 1_555
C4 C1 1_555 1_555
C5 C4 1_555 1_555
H9 C5 1_555 1_555
C6 C5 1_555 1_555
C7 C6 1_555 1_555
H10 C7 1_555 1_555
H11 C7 1_555 1_555
C8 C1 1_555 1_555
H12 C8 1_555 1_555
H13 C8 1_555 1_555
C9 C4 1_555 1_555
H14 C9 1_555 1_555
H15 C9 1_555 1_555
H16 C9 1_555 1_555
C10 C6 1_555 1_555
C11 C10 1_555 1_555
H17 C11 1_555 1_555
C12 C11 1_555 1_555
H18 C12 1_555 1_555
H19 C12 1_555 1_555
C13 C5 1_555 1_555
H20 C13 1_555 1_555
H21 C13 1_555 1_555
C14 C6 1_555 1_555
H22 C14 1_555 1_555
H23 C14 1_555 1_555
C15 C10 1_555 1_555
H24 C15 1_555 1_555
H25 C15 1_555 1_555
C16 C15 1_555 1_555
H26 C16 1_555 1_555
H27 C16 1_555 1_555
C17 C16 1_555 1_555
C18 C17 1_555 1_555
H28 C18 1_555 1_555
C19 C18 1_555 1_555
H29 C19 1_555 1_555
C20 C19 1_555 1_555
H30 C20 1_555 1_555
H31 C20 1_555 1_555
C21 C11 1_555 1_555
C22 C18 1_555 1_555
H32 C22 1_555 1_555
C23 O2 1_555 1_555
C24 C23 1_555 1_555
C25 C24 1_555 1_555
H33 C25 1_555 1_555
C26 C25 1_555 1_555
C27 O5 1_555 1_555
C28 C27 1_555 1_555
C29 C24 1_555 1_555
H34 C29 1_555 1_555
C30 C21 1_555 1_555
H35 C30 1_555 1_555
H36 C30 1_555 1_555
H37 C30 1_555 1_555
C31 C17 1_555 1_555
H38 C31 1_555 1_555
H39 C31 1_555 1_555
H40 C31 1_555 1_555
C32 C22 1_555 1_555
H41 C32 1_555 1_555
H42 C32 1_555 1_555
H43 C32 1_555 1_555
C33 N1 1_555 1_555
H44 C33 1_555 1_555
H45 C33 1_555 1_555
H46 C33 1_555 1_555
C34 N1 1_555 1_555
H47 C34 1_555 1_555
H48 C34 1_555 1_555
H49 C34 1_555 1_555
C35 O6 1_555 1_555
H50 C35 1_555 1_555
H51 C35 1_555 1_555
H52 C35 1_555 1_555
C36 O4 1_555 1_555
H53 C36 1_555 1_555
H54 C36 1_555 1_555
H55 C36 1_555 1_555
C3 C4 1_555 1_555
C7 C8 1_555 1_555
C10 C14 1_555 1_555
C12 C13 1_555 1_555
C17 C21 1_555 1_555
C20 C21 1_555 1_555
C26 C27 1_555 1_555
C28 C29 1_555 1_555

#END
