
#######################################################################
#
#                 Cambridge Crystallographic Data Centre
#                                CCDC 
#
#######################################################################
#
# If this CIF has been generated from an entry in the Cambridge 
# Structural Database, then it will include bibliographic, chemical, 
# crystal, experimental, refinement or atomic coordinate data resulting 
# from the CCDC's data processing and validation procedures.
#
#######################################################################

data_POQLOY
_chemical_formula_moiety         'C23 H28 N2 O3 Si1'
_chemical_name_systematic        
5-(5-((t-butyl(dimethyl)silyl)oxy)-2-hydroxybenzylidene)-3-methyl-2-phenyl-3,5-dihydro-4H-imidazol-4-one
_symmetry_cell_setting           monoclinic
_symmetry_space_group_name_H-M   'C 2/c'
_symmetry_Int_Tables_number      15
_space_group_name_Hall           '-C 2yn'
loop_
_symmetry_equiv_pos_site_id
_symmetry_equiv_pos_as_xyz
1 x,y,z
2 -x,y,1/2-z
3 1/2+x,1/2+y,z
4 1/2-x,1/2+y,1/2-z
5 -x,-y,-z
6 x,-y,1/2+z
7 1/2-x,1/2-y,-z
8 1/2+x,1/2-y,1/2+z
_cell_length_a                   32.516(6)
_cell_length_b                   10.7386(19)
_cell_length_c                   13.927(3)
_cell_angle_alpha                90
_cell_angle_beta                 113.348(4)
_cell_angle_gamma                90
_cell_volume                     4464.77
_exptl_crystal_colour            yellow
_exptl_crystal_description       prismatic
_cell_formula_units_Z            8
loop_
_atom_site_label
_atom_site_type_symbol
_atom_site_fract_x
_atom_site_fract_y
_atom_site_fract_z
N1 N -0.06071(10) 0.5065(3) 0.3280(2)
N2 N 0.01259(10) 0.5426(3) 0.3792(2)
O1 O -0.06149(10) 0.2915(3) 0.3411(2)
O2 O 0.09953(10) 0.5484(3) 0.4380(2)
O3 O 0.17007(11) 0.0729(3) 0.4905(3)
C1 C -0.02706(12) 0.5931(3) 0.3469(2)
C2 C -0.04135(13) 0.3888(4) 0.3485(3)
C3 C 0.00670(12) 0.4144(3) 0.3805(3)
C4 C 0.03775(14) 0.3242(3) 0.4038(3)
H1 H 0.0258 0.2448 0.3997
C5 C 0.08562(13) 0.3237(4) 0.4337(3)
C6 C 0.10611(15) 0.2056(4) 0.4488(3)
H2 H 0.0882 0.1352 0.4383
C7 C 0.15093(17) 0.1905(5) 0.4781(4)
C8 C 0.17752(16) 0.2942(5) 0.4907(4)
H3 H 0.2081 0.2851 0.5082
C9 C 0.15888(15) 0.4112(5) 0.4775(4)
H4 H 0.1773 0.4805 0.4875
C10 C 0.11330(14) 0.4282(4) 0.4497(3)
C11 C -0.03424(12) 0.7275(3) 0.3323(3)
C12 C -0.00149(14) 0.8073(3) 0.3953(3)
H5 H 0.0243 0.7750 0.4472
C13 C -0.00648(16) 0.9339(4) 0.3823(4)
H6 H 0.0159 0.9866 0.4255
C14 C -0.04417(16) 0.9832(4) 0.3062(4)
H7 H -0.0475 1.0691 0.2983
C15 C -0.07699(15) 0.9052(4) 0.2418(3)
H8 H -0.1025 0.9384 0.1896
C16 C -0.07231(13) 0.7775(4) 0.2540(3)
H9 H -0.0946 0.7251 0.2100
C17 C -0.10807(13) 0.5241(4) 0.3044(3)
H10 H -0.1121 0.5996 0.3364
H11 H -0.1190 0.4549 0.3311
H12 H -0.1244 0.5293 0.2300
Si1 Si 0.17419(10) -0.0438(3) 0.5657(2)
C18 C 0.1900(5) -0.1942(12) 0.5087(12)
H13 H 0.1702 -0.2033 0.4365
H14 H 0.1873 -0.2655 0.5473
H15 H 0.2203 -0.1876 0.5142
C19 C 0.1180(3) -0.0942(15) 0.5548(11)
H16 H 0.0981 -0.0992 0.4823
H17 H 0.1065 -0.0351 0.5896
H18 H 0.1202 -0.1746 0.5867
C20 C 0.2104(4) -0.0067(12) 0.7003(10)
C21 C 0.2087(5) -0.1147(14) 0.7707(9)
H19 H 0.2187 -0.0861 0.8417
H20 H 0.2278 -0.1808 0.7667
H21 H 0.1785 -0.1447 0.7479
C22 C 0.2598(4) 0.0094(16) 0.6986(11)
H22 H 0.2804 0.0389 0.7655
H23 H 0.2584 0.0684 0.6455
H24 H 0.2699 -0.0695 0.6838
C23 C 0.1865(8) 0.104(2) 0.731(2)
H25 H 0.1565 0.0801 0.7196
H26 H 0.1856 0.1753 0.6885
H27 H 0.2027 0.1245 0.8033
H28 H 0.0719(7) 0.554(4) 0.422(3)
Si2? Si 0.20022(13) 0.0205(4) 0.6223(4)
C24? C 0.1956(9) 0.122(2) 0.720(2)
H29? H 0.2045 0.2043 0.7103
H30? H 0.2147 0.0919 0.7881
H31? H 0.1652 0.1227 0.7138
C25? C 0.2581(6) -0.006(2) 0.6280(16)
H32? H 0.2770 0.0623 0.6635
H33? H 0.2570 -0.0124 0.5583
H34? H 0.2699 -0.0820 0.6652
C26? C 0.1737(5) -0.1335(14) 0.6127(11)
C27? C 0.1948(8) -0.2076(19) 0.7149(15)
H35? H 0.1846 -0.1743 0.7656
H36? H 0.2268 -0.2015 0.7411
H37? H 0.1860 -0.2934 0.7020
C28? C 0.1992(11) -0.190(4) 0.550(2)
H38? H 0.2176 -0.2575 0.5890
H39? H 0.2176 -0.1273 0.5381
H40? H 0.1780 -0.2205 0.4842
C29? C 0.1238(8) -0.112(3) 0.597(2)
H41? H 0.1216 -0.1106 0.6635
H42? H 0.1055 -0.1780 0.5549
H43? H 0.1136 -0.0337 0.5619
loop_
_geom_bond_atom_site_label_1
_geom_bond_atom_site_label_2
_geom_bond_site_symmetry_1
_geom_bond_site_symmetry_2
N1 C1 1_555 1_555
N2 C1 1_555 1_555
O1 C2 1_555 1_555
O2 C10 1_555 1_555
O3 C7 1_555 1_555
C1 C11 1_555 1_555
C2 N1 1_555 1_555
C3 N2 1_555 1_555
C4 C3 1_555 1_555
H1 C4 1_555 1_555
C5 C4 1_555 1_555
C6 C5 1_555 1_555
H2 C6 1_555 1_555
C7 C6 1_555 1_555
C8 C7 1_555 1_555
H3 C8 1_555 1_555
C9 C8 1_555 1_555
H4 C9 1_555 1_555
C10 C5 1_555 1_555
C11 C12 1_555 1_555
C12 H5 1_555 1_555
C13 C12 1_555 1_555
H6 C13 1_555 1_555
C14 C13 1_555 1_555
H7 C14 1_555 1_555
C15 C14 1_555 1_555
H8 C15 1_555 1_555
C16 C11 1_555 1_555
H9 C16 1_555 1_555
C17 N1 1_555 1_555
H10 C17 1_555 1_555
H11 C17 1_555 1_555
H12 C17 1_555 1_555
Si1 O3 1_555 1_555
C18 Si1 1_555 1_555
H13 C18 1_555 1_555
H14 C18 1_555 1_555
H15 C18 1_555 1_555
C19 Si1 1_555 1_555
H16 C19 1_555 1_555
H17 C19 1_555 1_555
H18 C19 1_555 1_555
C20 Si1 1_555 1_555
C21 C20 1_555 1_555
H19 C21 1_555 1_555
H20 C21 1_555 1_555
H21 C21 1_555 1_555
C22 C20 1_555 1_555
H22 C22 1_555 1_555
H23 C22 1_555 1_555
H24 C22 1_555 1_555
C23 C20 1_555 1_555
H25 C23 1_555 1_555
H26 C23 1_555 1_555
H27 C23 1_555 1_555
H28 O2 1_555 1_555
C2 C3 1_555 1_555
C9 C10 1_555 1_555
C15 C16 1_555 1_555

#END
