
#######################################################################
#
#                 Cambridge Crystallographic Data Centre
#                                CCDC 
#
#######################################################################
#
# If this CIF has been generated from an entry in the Cambridge 
# Structural Database, then it will include bibliographic, chemical, 
# crystal, experimental, refinement or atomic coordinate data resulting 
# from the CCDC's data processing and validation procedures.
#
#######################################################################

data_POQLUD
_chemical_name_common            
trans-diphenyl(4-t-butyl-S-oxothian-2-yl)carbinol
_chemical_formula_moiety         'C22 H28 O2 S1'
_chemical_name_systematic        
(4-t-butyl-1-oxotetrahydro-2H-thiopyran-2-yl)(diphenyl)methanol
_symmetry_cell_setting           monoclinic
_symmetry_space_group_name_H-M   'P 21/c'
_symmetry_Int_Tables_number      14
_space_group_name_Hall           '-P 2ybc'
loop_
_symmetry_equiv_pos_site_id
_symmetry_equiv_pos_as_xyz
1 x,y,z
2 -x,1/2+y,1/2-z
3 -x,-y,-z
4 x,1/2-y,1/2+z
_cell_length_a                   10.4870(14)
_cell_length_b                   10.6344(12)
_cell_length_c                   18.273(2)
_cell_angle_alpha                90
_cell_angle_beta                 103.197(15)
_cell_angle_gamma                90
_cell_volume                     1984.04
_exptl_crystal_colour            colorless
_exptl_crystal_description       block
_chemical_melting_point          '171-171.5 deg.C'
_cell_formula_units_Z            4
_exptl_crystal_recrystallization_method methanol
loop_
_atom_site_label
_atom_site_type_symbol
_atom_site_fract_x
_atom_site_fract_y
_atom_site_fract_z
S1 S 0.00533(6) 0.93903(7) 0.23638(4)
O1 O 0.05512(19) 1.06486(17) 0.26980(11)
O2 O -0.11555(17) 1.01718(15) 0.36939(9)
H1 H -0.0655 1.0529 0.3476
C1 C -0.0153(2) 0.8445(2) 0.31530(12)
H2 H -0.0321 0.7578 0.2976
C2 C 0.1085(2) 0.8439(3) 0.37926(13)
H3 H 0.1067 0.9182 0.4098
H4 H 0.1044 0.7713 0.4108
C3 C 0.2401(2) 0.8411(2) 0.35641(13)
H5 H 0.2641 0.9286 0.3493
C4 C 0.2239(3) 0.7757(2) 0.28043(14)
H6 H 0.3096 0.7600 0.2707
H7 H 0.1813 0.6951 0.2822
C5 C 0.1434(3) 0.8539(3) 0.21680(14)
H8 H 0.1109 0.7985 0.1745
H9 H 0.2014 0.9142 0.2013
C6 C -0.1371(2) 0.8909(2) 0.34211(13)
C7 C -0.2636(2) 0.8870(2) 0.28025(13)
C8 C -0.2899(3) 0.7921(3) 0.22709(15)
H10 H -0.2276 0.7298 0.2271
C9 C -0.4068(3) 0.7884(4) 0.17407(17)
H11 H -0.4225 0.7238 0.1389
C10 C -0.5000(3) 0.8791(4) 0.17275(18)
H12 H -0.5788 0.8763 0.1369
C11 C -0.4762(3) 0.9731(3) 0.22437(19)
H13 H -0.5392 1.0348 0.2237
C12 C -0.3585(3) 0.9782(3) 0.27830(15)
H14 H -0.3437 1.0433 0.3132
C13 C -0.1531(2) 0.8092(2) 0.40856(13)
C14 C -0.1743(3) 0.6811(3) 0.39976(15)
H15 H -0.1812 0.6449 0.3527
C15 C -0.1854(3) 0.6066(3) 0.45935(17)
H16 H -0.1980 0.5204 0.4525
C16 C -0.1780(3) 0.6588(3) 0.52922(16)
H17 H -0.1866 0.6087 0.5695
C17 C -0.1577(3) 0.7848(3) 0.53843(16)
H18 H -0.1528 0.8208 0.5854
C18 C -0.1445(3) 0.8597(3) 0.47891(14)
H19 H -0.1294 0.9454 0.4864
C19 C 0.3501(3) 0.7855(3) 0.41944(16)
C20 C 0.3519(3) 0.8548(4) 0.49321(16)
H20 H 0.4196 0.8204 0.5325
H21 H 0.2687 0.8449 0.5061
H22 H 0.3686 0.9426 0.4872
C21 C 0.3313(3) 0.6448(3) 0.4300(2)
H23 H 0.4011 0.6137 0.4693
H24 H 0.3318 0.6015 0.3840
H25 H 0.2490 0.6308 0.4433
C22 C 0.4827(3) 0.8062(4) 0.3996(2)
H26 H 0.5509 0.7712 0.4384
H27 H 0.4975 0.8947 0.3953
H28 H 0.4828 0.7657 0.3527
loop_
_geom_bond_atom_site_label_1
_geom_bond_atom_site_label_2
_geom_bond_site_symmetry_1
_geom_bond_site_symmetry_2
S1 O1 1_555 1_555
O2 H1 1_555 1_555
C1 S1 1_555 1_555
H2 C1 1_555 1_555
C2 C1 1_555 1_555
H3 C2 1_555 1_555
H4 C2 1_555 1_555
C3 C2 1_555 1_555
H5 C3 1_555 1_555
C4 C3 1_555 1_555
H6 C4 1_555 1_555
H7 C4 1_555 1_555
C5 S1 1_555 1_555
H8 C5 1_555 1_555
H9 C5 1_555 1_555
C6 O2 1_555 1_555
C7 C6 1_555 1_555
C8 C7 1_555 1_555
H10 C8 1_555 1_555
C9 C8 1_555 1_555
H11 C9 1_555 1_555
C10 C9 1_555 1_555
H12 C10 1_555 1_555
C11 C10 1_555 1_555
H13 C11 1_555 1_555
C12 C7 1_555 1_555
H14 C12 1_555 1_555
C13 C6 1_555 1_555
C14 C13 1_555 1_555
H15 C14 1_555 1_555
C15 C14 1_555 1_555
H16 C15 1_555 1_555
C16 C15 1_555 1_555
H17 C16 1_555 1_555
C17 C16 1_555 1_555
H18 C17 1_555 1_555
C18 C13 1_555 1_555
H19 C18 1_555 1_555
C19 C3 1_555 1_555
C20 C19 1_555 1_555
H20 C20 1_555 1_555
H21 C20 1_555 1_555
H22 C20 1_555 1_555
C21 C19 1_555 1_555
H23 C21 1_555 1_555
H24 C21 1_555 1_555
H25 C21 1_555 1_555
C22 C19 1_555 1_555
H26 C22 1_555 1_555
H27 C22 1_555 1_555
H28 C22 1_555 1_555
C1 C6 1_555 1_555
C4 C5 1_555 1_555
C11 C12 1_555 1_555
C17 C18 1_555 1_555

#END
