
#######################################################################
#
#                 Cambridge Crystallographic Data Centre
#                                CCDC 
#
#######################################################################
#
# If this CIF has been generated from an entry in the Cambridge 
# Structural Database, then it will include bibliographic, chemical, 
# crystal, experimental, refinement or atomic coordinate data resulting 
# from the CCDC's data processing and validation procedures.
#
#######################################################################

data_POQNEP
_chemical_formula_moiety         'C12 H12 I1 N2 1+,C12 H4 N4 1-'
_chemical_name_systematic        
'4-amino-1-(4-iodobenzyl)pyridinium 7,7,8,8-tetracyanoquinodimethane monoanion'
_symmetry_cell_setting           monoclinic
_symmetry_space_group_name_H-M   'P 21/m'
_symmetry_Int_Tables_number      11
_space_group_name_Hall           '-P 2yb'
loop_
_symmetry_equiv_pos_site_id
_symmetry_equiv_pos_as_xyz
1 x,y,z
2 -x,1/2+y,-z
3 -x,-y,-z
4 x,1/2-y,z
_cell_length_a                   4.1884(7)
_cell_length_b                   20.916(4)
_cell_length_c                   13.217(2)
_cell_angle_alpha                90
_cell_angle_beta                 94.989(3)
_cell_angle_gamma                90
_cell_volume                     1153.48
_cell_formula_units_Z            2
_exptl_crystal_preparation       'magnetic properties'
loop_
_atom_site_label
_atom_site_type_symbol
_atom_site_fract_x
_atom_site_fract_y
_atom_site_fract_z
I1 I 0.99411(17) 0.7500 -0.12952(5)
N3 N 0.6291(17) 0.7500 0.3893(6)
N4 N 1.2841(18) 0.7500 0.6373(6)
H1 H 1.3580 0.7127 0.6642
C7 C 0.7383(16) 0.8051(3) 0.4308(5)
H5 H 0.6626 0.8434 0.4020
C8 C 0.9523(16) 0.8072(3) 0.5123(5)
H6 H 1.0238 0.8463 0.5391
C9 C 1.067(2) 0.7500 0.5565(6)
C10 C 0.401(2) 0.7500 0.2965(7)
H7 H 0.2661 0.7129 0.2976
C11 C 0.564(2) 0.7500 0.1990(6)
C12 C 0.6335(17) 0.8064(4) 0.1530(5)
H8 H 0.5939 0.8451 0.1844
C13 C 0.7630(17) 0.8062(4) 0.0597(5)
H9 H 0.8075 0.8446 0.0284
C14 C 0.824(2) 0.7500 0.0145(6)
H1C H 1.3580 0.7873 0.6642
C7C C 0.7383(16) 0.6949(3) 0.4308(5)
H5C H 0.6626 0.6566 0.4020
C8C C 0.9523(16) 0.6928(3) 0.5123(5)
H6C H 1.0238 0.6537 0.5391
H7C H 0.2661 0.7871 0.2976
C12C C 0.6335(17) 0.6936(4) 0.1530(5)
H8C H 0.5939 0.6549 0.1844
C13C C 0.7630(17) 0.6938(4) 0.0597(5)
H9C H 0.8075 0.6554 0.0284
N1 N 0.121(3) 0.5801(4) 1.2985(8)
N2 N 0.534(2) 0.3857(4) 1.3062(7)
C1 C 0.230(3) 0.5375(5) 1.2591(8)
C2 C 0.375(2) 0.4871(4) 1.2049(8)
C3 C 0.463(2) 0.4308(5) 1.2635(7)
C4 C 0.439(2) 0.4935(4) 1.1005(7)
C5 C 0.614(2) 0.4468(3) 1.0462(9)
H3 H 0.6901 0.4104 1.0806
C6 C 0.331(3) 0.5466(4) 1.0470(7)
H4 H 0.2181 0.5779 1.0786
N1B N 0.879(3) 0.4199(4) 0.7015(8)
N2B N 0.466(2) 0.6143(4) 0.6938(7)
C1B C 0.770(3) 0.4625(5) 0.7409(8)
C2B C 0.625(2) 0.5129(4) 0.7951(8)
C3B C 0.537(2) 0.5692(5) 0.7365(7)
C4B C 0.561(2) 0.5065(4) 0.8995(7)
C5B C 0.386(2) 0.5532(3) 0.9538(9)
H3B H 0.3099 0.5896 0.9194
C6B C 0.669(3) 0.4534(4) 0.9530(7)
H4B H 0.7819 0.4221 0.9214
H2? H 1.3554 0.7873 0.6649
loop_
_geom_bond_atom_site_label_1
_geom_bond_atom_site_label_2
_geom_bond_site_symmetry_1
_geom_bond_site_symmetry_2
I1 C14 1_555 1_555
N1 C1 1_555 1_555
N2 C3 1_555 1_555
N3 C7 1_555 1_555
N4 H1 1_555 1_555
C1 C2 1_555 1_555
C2 C3 1_555 1_555
C4 C2 1_555 1_555
C5 C4 1_555 1_555
H3 C5 1_555 1_555
C6 C4 1_555 1_555
H4 C6 1_555 1_555
C7 H5 1_555 1_555
C8 C7 1_555 1_555
H6 C8 1_555 1_555
C9 N4 1_555 1_555
C10 N3 1_555 1_555
H7 C10 1_555 1_555
C11 C10 1_555 1_555
C12 C11 1_555 1_555
H8 C12 1_555 1_555
C13 C12 1_555 1_555
H9 C13 1_555 1_555
C14 C13 1_555 1_555
N1B C1B 1_555 1_555
N2B C3B 1_555 1_555
H1C N4 1_555 1_555
C1B C2B 1_555 1_555
C2B C3B 1_555 1_555
C4B C2B 1_555 1_555
C5B C6 1_555 1_555
H3B C5B 1_555 1_555
C6B C5 1_555 1_555
H4B C6B 1_555 1_555
C7C N3 1_555 1_555
H5C C7C 1_555 1_555
C8C C9 1_555 1_555
H6C C8C 1_555 1_555
H7C C10 1_555 1_555
C12C C11 1_555 1_555
H8C C12C 1_555 1_555
C13C C14 1_555 1_555
H9C C13C 1_555 1_555
C8 C9 1_555 1_555
C4B C5B 1_555 1_555
C4B C6B 1_555 1_555
C7C C8C 1_555 1_555
C12C C13C 1_555 1_555

#END
