
#######################################################################
#
#                 Cambridge Crystallographic Data Centre
#                                CCDC 
#
#######################################################################
#
# If this CIF has been generated from an entry in the Cambridge 
# Structural Database, then it will include bibliographic, chemical, 
# crystal, experimental, refinement or atomic coordinate data resulting 
# from the CCDC's data processing and validation procedures.
#
#######################################################################

data_POQPES
_chemical_formula_moiety         'C42 H48 N2'
_chemical_name_systematic        
4,4'-(anthracene-9,10-diyldiethene-2,1-diyl)bis(N,N-dipropylaniline)
_symmetry_cell_setting           triclinic
_symmetry_space_group_name_H-M   'P -1'
_symmetry_Int_Tables_number      2
_space_group_name_Hall           '-P 1'
loop_
_symmetry_equiv_pos_site_id
_symmetry_equiv_pos_as_xyz
1 x,y,z
2 -x,-y,-z
_cell_length_a                   5.1070(10)
_cell_length_b                   9.1879(18)
_cell_length_c                   18.548(4)
_cell_angle_alpha                102.90(3)
_cell_angle_beta                 92.04(3)
_cell_angle_gamma                92.87(3)
_cell_volume                     846.312
_exptl_crystal_colour            yellow
_exptl_crystal_description       platelet
_cell_formula_units_Z            1
loop_
_atom_site_label
_atom_site_type_symbol
_atom_site_fract_x
_atom_site_fract_y
_atom_site_fract_z
C1 C 1.379(4) -0.0744(17) 0.7294(11)
H1 H 1.5090 -0.1177 0.6964
H2 H 1.2422 -0.1491 0.7310
H3 H 1.4587 -0.0374 0.7782
C2 C 1.266(3) 0.0504(13) 0.7028(8)
H4 H 1.1548 0.1020 0.7404
H5 H 1.1552 0.0087 0.6588
C3 C 1.4711(14) 0.1692(7) 0.6839(4)
H6 H 1.5748 0.2213 0.7278
H7 H 1.5878 0.1222 0.6467
C4 C 1.2150(16) 0.2166(8) 0.5788(5)
H8 H 1.2521 0.1125 0.5610
H9 H 1.0264 0.2239 0.5753
C5 C 1.3420(19) 0.3074(11) 0.5326(5)
H10 H 1.3128 0.4120 0.5521
H11 H 1.5297 0.2959 0.5342
C6 C 1.239(2) 0.2629(13) 0.4555(5)
H12 H 1.2511 0.1571 0.4376
H13 H 1.3392 0.3155 0.4255
H14 H 1.0584 0.2869 0.4529
C7 C 0.9947(12) 0.4571(7) 0.6776(3)
H15 H 0.9430 0.4325 0.6276
C8 C 1.1920(10) 0.3813(6) 0.7025(3)
C9 C 1.2651(10) 0.4269(6) 0.7770(3)
H16 H 1.4006 0.3806 0.7962
C10 C 1.1438(9) 0.5380(5) 0.8233(3)
H17 H 1.2006 0.5651 0.8730
C11 C 0.9409(9) 0.6114(5) 0.7992(3)
C12 C 0.8707(11) 0.5683(6) 0.7244(3)
H18 H 0.7367 0.6155 0.7052
C13 C 0.7969(9) 0.7255(5) 0.8462(3)
H19 H 0.6746 0.7716 0.8218
C14 C 0.8173(9) 0.7717(5) 0.9185(3)
H20 H 0.9380 0.7286 0.9449
C15 C 0.6570(9) 0.8894(5) 0.9602(2)
C16 C 0.4865(9) 0.8551(5) 1.0127(2)
C17 C 0.4634(9) 0.7091(5) 1.0271(3)
H21 H 0.5703 0.6364 1.0030
C18 C 0.3248(8) 0.9659(5) 1.0513(2)
C19 C 0.2921(10) 0.6735(5) 1.0745(3)
H22 H 0.2846 0.5781 1.0839
C20 C 0.1241(10) 0.7805(5) 1.1098(3)
H23 H -0.0005 0.7542 1.1407
C21 C 0.1415(9) 0.9200(5) 1.0994(3)
H24 H 0.0305 0.9894 1.1243
N1 N 1.3108(10) 0.2679(6) 0.6566(3)
C1A C -0.379(4) 2.0744(17) 1.2706(11)
H1A H -0.5090 2.1177 1.3036
H2A H -0.2422 2.1491 1.2690
H3A H -0.4587 2.0374 1.2218
C2A C -0.266(3) 1.9496(13) 1.2972(8)
H4A H -0.1548 1.8980 1.2596
H5A H -0.1552 1.9913 1.3412
C3A C -0.4711(14) 1.8308(7) 1.3161(4)
H6A H -0.5748 1.7787 1.2722
H7A H -0.5878 1.8778 1.3533
C4A C -0.2150(16) 1.7834(8) 1.4212(5)
H8A H -0.2521 1.8875 1.4390
H9A H -0.0264 1.7761 1.4247
C5A C -0.3420(19) 1.6926(11) 1.4674(5)
H10A H -0.3128 1.5880 1.4479
H11A H -0.5297 1.7041 1.4658
C6A C -0.239(2) 1.7371(13) 1.5445(5)
H12A H -0.2511 1.8429 1.5624
H13A H -0.3392 1.6845 1.5745
H14A H -0.0584 1.7131 1.5471
C7A C 0.0053(12) 1.5429(7) 1.3224(3)
H15A H 0.0570 1.5675 1.3724
C8A C -0.1920(10) 1.6187(6) 1.2975(3)
C9A C -0.2651(10) 1.5731(6) 1.2230(3)
H16A H -0.4006 1.6194 1.2038
C10A C -0.1438(9) 1.4620(5) 1.1767(3)
H17A H -0.2006 1.4349 1.1270
C11A C 0.0591(9) 1.3886(5) 1.2008(3)
C12A C 0.1293(11) 1.4317(6) 1.2756(3)
H18A H 0.2633 1.3845 1.2948
C13A C 0.2031(9) 1.2745(5) 1.1538(3)
H19A H 0.3254 1.2284 1.1782
C14A C 0.1827(9) 1.2283(5) 1.0815(3)
H20A H 0.0620 1.2714 1.0551
C15A C 0.3430(9) 1.1106(5) 1.0398(2)
C16A C 0.5135(9) 1.1449(5) 0.9873(2)
C17A C 0.5366(9) 1.2909(5) 0.9729(3)
H21A H 0.4297 1.3636 0.9970
C18A C 0.6752(8) 1.0341(5) 0.9487(2)
C19A C 0.7079(10) 1.3265(5) 0.9255(3)
H22A H 0.7154 1.4219 0.9161
C20A C 0.8759(10) 1.2195(5) 0.8902(3)
H23A H 1.0005 1.2458 0.8593
C21A C 0.8585(9) 1.0800(5) 0.9006(3)
H24A H 0.9695 1.0106 0.8757
N1A N -0.3108(10) 1.7321(6) 1.3434(3)
C22? C 1.229(5) -0.043(3) 0.7045(16)
H25? H 1.0759 0.0046 0.6925
H26? H 1.1854 -0.1061 0.7378
H27? H 1.2929 -0.1028 0.6600
C23? C 1.440(5) 0.071(2) 0.7379(12)
H28? H 1.3819 0.1300 0.7840
H29? H 1.6001 0.0249 0.7482
loop_
_geom_bond_atom_site_label_1
_geom_bond_atom_site_label_2
_geom_bond_site_symmetry_1
_geom_bond_site_symmetry_2
C1 H1 1_555 1_555
H2 C1 1_555 1_555
H3 C1 1_555 1_555
C2 C1 1_555 1_555
H4 C2 1_555 1_555
H5 C2 1_555 1_555
C3 C2 1_555 1_555
H6 C3 1_555 1_555
H7 C3 1_555 1_555
C4 H8 1_555 1_555
H9 C4 1_555 1_555
C5 C4 1_555 1_555
H10 C5 1_555 1_555
H11 C5 1_555 1_555
C6 C5 1_555 1_555
H12 C6 1_555 1_555
H13 C6 1_555 1_555
H14 C6 1_555 1_555
C7 H15 1_555 1_555
C8 C7 1_555 1_555
C9 C8 1_555 1_555
H16 C9 1_555 1_555
C10 C9 1_555 1_555
H17 C10 1_555 1_555
C11 C10 1_555 1_555
C12 C7 1_555 1_555
H18 C12 1_555 1_555
C13 C11 1_555 1_555
H19 C13 1_555 1_555
C14 C13 1_555 1_555
H20 C14 1_555 1_555
C15 C14 1_555 1_555
C16 C15 1_555 1_555
C17 C16 1_555 1_555
H21 C17 1_555 1_555
C18 C16 1_555 1_555
C19 C17 1_555 1_555
H22 C19 1_555 1_555
C20 C19 1_555 1_555
H23 C20 1_555 1_555
C21 C18 1_555 1_555
H24 C21 1_555 1_555
N1 C3 1_555 1_555
C1A H1A 1_555 1_555
H2A C1A 1_555 1_555
H3A C1A 1_555 1_555
C2A C1A 1_555 1_555
H4A C2A 1_555 1_555
H5A C2A 1_555 1_555
C3A C2A 1_555 1_555
H6A C3A 1_555 1_555
H7A C3A 1_555 1_555
C4A H8A 1_555 1_555
H9A C4A 1_555 1_555
C5A C4A 1_555 1_555
H10A C5A 1_555 1_555
H11A C5A 1_555 1_555
C6A C5A 1_555 1_555
H12A C6A 1_555 1_555
H13A C6A 1_555 1_555
H14A C6A 1_555 1_555
C7A H15A 1_555 1_555
C8A C7A 1_555 1_555
C9A C8A 1_555 1_555
H16A C9A 1_555 1_555
C10A C9A 1_555 1_555
H17A C10A 1_555 1_555
C11A C10A 1_555 1_555
C12A C7A 1_555 1_555
H18A C12A 1_555 1_555
C13A C11A 1_555 1_555
H19A C13A 1_555 1_555
C14A C13A 1_555 1_555
H20A C14A 1_555 1_555
C15A C18 1_555 1_555
C16A C15A 1_555 1_555
C17A C16A 1_555 1_555
H21A C17A 1_555 1_555
C18A C15 1_555 1_555
C19A C17A 1_555 1_555
H22A C19A 1_555 1_555
C20A C19A 1_555 1_555
H23A C20A 1_555 1_555
C21A C18A 1_555 1_555
H24A C21A 1_555 1_555
N1A C3A 1_555 1_555
C4 N1 1_555 1_555
C8 N1 1_555 1_555
C11 C12 1_555 1_555
C20 C21 1_555 1_555
C4A N1A 1_555 1_555
C8A N1A 1_555 1_555
C11A C12A 1_555 1_555
C14A C15A 1_555 1_555
C16A C18A 1_555 1_555
C20A C21A 1_555 1_555

#END
