
#######################################################################
#
#                 Cambridge Crystallographic Data Centre
#                                CCDC 
#
#######################################################################
#
# If this CIF has been generated from an entry in the Cambridge 
# Structural Database, then it will include bibliographic, chemical, 
# crystal, experimental, refinement or atomic coordinate data resulting 
# from the CCDC's data processing and validation procedures.
#
#######################################################################

data_POQPUH
_chemical_formula_moiety         'C26 H25 N1 O4'
_chemical_name_systematic        
'Dimethyl 1-benzyl-2-phenyl-1,2-dihydroquinoline-3,3(4H)-dicarboxylate'
_symmetry_cell_setting           triclinic
_symmetry_space_group_name_H-M   'P -1'
_symmetry_Int_Tables_number      2
_space_group_name_Hall           '-P 1'
loop_
_symmetry_equiv_pos_site_id
_symmetry_equiv_pos_as_xyz
1 x,y,z
2 -x,-y,-z
_cell_length_a                   9.4102(7)
_cell_length_b                   10.0875(8)
_cell_length_c                   11.9042(9)
_cell_angle_alpha                92.665(2)
_cell_angle_beta                 100.089(2)
_cell_angle_gamma                106.574(1)
_cell_volume                     1060.73
_exptl_crystal_colour            colorless
_exptl_crystal_description       'large lath'
_chemical_melting_point          '149-151 deg.C'
_cell_formula_units_Z            2
loop_
_atom_site_label
_atom_site_type_symbol
_atom_site_fract_x
_atom_site_fract_y
_atom_site_fract_z
N1 N 0.11641(13) 0.93501(11) 0.19042(10)
C1 C 0.04142(15) 0.87796(13) 0.28256(11)
H1 H 0.0872 0.9459 0.3524
C2 C 0.07399(15) 0.73975(13) 0.31119(11)
C3 C 0.03854(16) 0.63934(13) 0.20247(11)
H2 H 0.0694 0.5558 0.2214
H3 H -0.0717 0.6093 0.1715
C4 C 0.12116(15) 0.70879(13) 0.11360(11)
C5 C 0.16403(16) 0.63165(14) 0.03282(12)
H4 H 0.1440 0.5343 0.0365
C6 C 0.23502(17) 0.69240(16) -0.05287(13)
H5 H 0.2615 0.6375 -0.1080
C7 C 0.26657(16) 0.83509(15) -0.05629(12)
H6 H 0.3153 0.8783 -0.1143
C8 C 0.22773(15) 0.91500(14) 0.02412(11)
H7 H 0.2513 1.0127 0.0212
C9 C 0.15383(14) 0.85331(13) 0.11009(11)
C10 C 0.10908(15) 1.07324(13) 0.16651(12)
H8 H 0.0378 1.0971 0.2102
H9 H 0.0657 1.0695 0.0840
C11 C 0.25632(15) 1.18989(14) 0.19414(11)
C12 C 0.39312(16) 1.17111(15) 0.24252(12)
H10 H 0.3971 1.0821 0.2629
C13 C 0.52519(17) 1.28285(16) 0.26144(13)
H11 H 0.6191 1.2693 0.2938
C14 C 0.52052(18) 1.41338(16) 0.23346(14)
H12 H 0.6108 1.4892 0.2467
C15 C 0.38361(18) 1.43288(15) 0.18600(15)
H13 H 0.3797 1.5223 0.1668
C16 C 0.25223(17) 1.32173(15) 0.16652(13)
H14 H 0.1585 1.3356 0.1340
C17 C -0.12701(15) 0.86313(14) 0.25619(12)
C18 C -0.21764(16) 0.80142(14) 0.15035(12)
H15 H -0.1744 0.7665 0.0936
C19 C -0.37041(17) 0.79080(16) 0.12742(14)
H16 H -0.4317 0.7470 0.0558
C20 C -0.43380(17) 0.84403(17) 0.20895(15)
H17 H -0.5385 0.8364 0.1932
C21 C -0.34452(17) 0.90835(17) 0.31342(15)
H18 H -0.3874 0.9462 0.3689
C22 C -0.19184(16) 0.91723(15) 0.33669(13)
H19 H -0.1310 0.9608 0.4085
C23 C -0.02336(16) 0.67255(14) 0.39615(12)
O1 O 0.02089(13) 0.75049(11) 0.49721(9)
O2 O -0.12365(12) 0.56496(12) 0.37550(10)
C24 C -0.0614(2) 0.69803(18) 0.58577(15)
H20 H -0.1589 0.7177 0.5721
H21 H -0.0024 0.7435 0.6609
H22 H -0.0787 0.5974 0.5843
C25 C 0.23932(15) 0.76979(14) 0.37152(11)
O3 O 0.26788(12) 0.64909(11) 0.38901(9)
O4 O 0.32817(12) 0.88256(11) 0.40068(10)
C26 C 0.41775(19) 0.65558(19) 0.44920(14)
H23 H 0.4817 0.6503 0.3935
H24 H 0.4111 0.5775 0.4961
H25 H 0.4618 0.7433 0.4988
loop_
_geom_bond_atom_site_label_1
_geom_bond_atom_site_label_2
_geom_bond_site_symmetry_1
_geom_bond_site_symmetry_2
N1 C1 1_555 1_555
C1 H1 1_555 1_555
C2 C1 1_555 1_555
C3 C2 1_555 1_555
H2 C3 1_555 1_555
H3 C3 1_555 1_555
C4 C3 1_555 1_555
C5 C4 1_555 1_555
H4 C5 1_555 1_555
C6 C5 1_555 1_555
H5 C6 1_555 1_555
C7 C6 1_555 1_555
H6 C7 1_555 1_555
C8 C7 1_555 1_555
H7 C8 1_555 1_555
C9 N1 1_555 1_555
C10 N1 1_555 1_555
H8 C10 1_555 1_555
H9 C10 1_555 1_555
C11 C10 1_555 1_555
C12 C11 1_555 1_555
H10 C12 1_555 1_555
C13 C12 1_555 1_555
H11 C13 1_555 1_555
C14 C13 1_555 1_555
H12 C14 1_555 1_555
C15 C14 1_555 1_555
H13 C15 1_555 1_555
C16 C11 1_555 1_555
H14 C16 1_555 1_555
C17 C1 1_555 1_555
C18 C17 1_555 1_555
H15 C18 1_555 1_555
C19 C18 1_555 1_555
H16 C19 1_555 1_555
C20 C19 1_555 1_555
H17 C20 1_555 1_555
C21 C20 1_555 1_555
H18 C21 1_555 1_555
C22 C17 1_555 1_555
H19 C22 1_555 1_555
C23 C2 1_555 1_555
O1 C23 1_555 1_555
O2 C23 1_555 1_555
C24 O1 1_555 1_555
H20 C24 1_555 1_555
H21 C24 1_555 1_555
H22 C24 1_555 1_555
C25 C2 1_555 1_555
O3 C25 1_555 1_555
O4 C25 1_555 1_555
C26 O3 1_555 1_555
H23 C26 1_555 1_555
H24 C26 1_555 1_555
H25 C26 1_555 1_555
C4 C9 1_555 1_555
C8 C9 1_555 1_555
C15 C16 1_555 1_555
C21 C22 1_555 1_555

#END
