
#######################################################################
#
#                 Cambridge Crystallographic Data Centre
#                                CCDC 
#
#######################################################################
#
# If this CIF has been generated from an entry in the Cambridge 
# Structural Database, then it will include bibliographic, chemical, 
# crystal, experimental, refinement or atomic coordinate data resulting 
# from the CCDC's data processing and validation procedures.
#
#######################################################################

data_POQQAP
_chemical_formula_moiety         'C54 H72 N2'
_chemical_name_systematic        
4,4'-(anthracene-9,10-diyldiethene-2,1-diyl)bis(N,N-dihexylaniline)
_symmetry_cell_setting           triclinic
_symmetry_space_group_name_H-M   'P -1'
_symmetry_Int_Tables_number      2
_space_group_name_Hall           '-P 1'
loop_
_symmetry_equiv_pos_site_id
_symmetry_equiv_pos_as_xyz
1 x,y,z
2 -x,-y,-z
_cell_length_a                   10.756(2)
_cell_length_b                   10.971(2)
_cell_length_c                   11.788(2)
_cell_angle_alpha                81.70(3)
_cell_angle_beta                 72.78(3)
_cell_angle_gamma                60.98(3)
_cell_volume                     1161.86
_exptl_crystal_colour            yellow
_exptl_crystal_description       block
_cell_formula_units_Z            1
loop_
_atom_site_label
_atom_site_type_symbol
_atom_site_fract_x
_atom_site_fract_y
_atom_site_fract_z
C1 C -0.5254(4) 1.1350(4) 0.4603(3)
C2 C -0.5422(5) 1.2693(4) 0.4173(4)
H1 H -0.6282 1.3329 0.3962
C3 C -0.4366(6) 1.3060(5) 0.4065(5)
H2 H -0.4514 1.3947 0.3794
C4 C -0.3057(6) 1.2131(5) 0.4354(4)
H3 H -0.2335 1.2396 0.4270
C5 C -0.2833(5) 1.0848(5) 0.4754(4)
H4 H -0.1943 1.0236 0.4931
C6 C -0.3911(4) 1.0393(4) 0.4917(3)
C7 C -0.3669(4) 0.9051(4) 0.5320(3)
C8 C -0.2306(5) 0.8026(4) 0.5655(4)
H5 H -0.1735 0.7194 0.5232
C9 C -0.1841(5) 0.8190(4) 0.6484(4)
H6 H -0.2414 0.9046 0.6869
C10 C -0.0545(4) 0.7225(4) 0.6907(4)
C11 C 0.0513(5) 0.5960(4) 0.6365(4)
H7 H 0.0416 0.5718 0.5683
C12 C 0.1698(5) 0.5053(4) 0.6799(4)
H8 H 0.2378 0.4217 0.6403
C13 C 0.1910(5) 0.5346(5) 0.7804(4)
C14 C 0.0843(5) 0.6622(5) 0.8339(4)
H9 H 0.0928 0.6871 0.9023
C15 C -0.0331(5) 0.7524(5) 0.7889(5)
H10 H -0.1003 0.8371 0.8271
C16 C 0.4287(7) 0.3264(7) 0.7615(7)
H11 H 0.4150 0.3313 0.6830
H12 H 0.5178 0.3336 0.7509
C17 C 0.4564(11) 0.1935(11) 0.8053(8)
H13 H 0.4767 0.1831 0.8820
H14 H 0.5434 0.1252 0.7519
C18 C 0.3373(12) 0.1665(11) 0.8177(9)
H15 H 0.3201 0.1713 0.7406
H16 H 0.2488 0.2370 0.8682
C19 C 0.3714(14) 0.0158(14) 0.8745(9)
H17 H 0.4616 -0.0557 0.8266
H18 H 0.3815 0.0115 0.9543
C20 C 0.2423(17) -0.0037(14) 0.8766(12)
H19 H 0.1525 0.0723 0.9202
H20 H 0.2355 -0.0013 0.7959
C21 C 0.254(3) -0.1188(19) 0.9248(15)
H21 H 0.3279 -0.1941 0.8718
H22 H 0.1613 -0.1193 0.9416
H23 H 0.2817 -0.1302 0.9974
C22 C 0.3263(6) 0.4845(6) 0.9295(5)
H24 H 0.2951 0.5837 0.9282
H25 H 0.4295 0.4354 0.9294
C23 C 0.2376(8) 0.4494(8) 1.0417(6)
H26 H 0.2667 0.3508 1.0413
H27 H 0.1343 0.5005 1.0424
C24 C 0.2558(10) 0.4829(12) 1.1544(8)
H28 H 0.2197 0.4350 1.2210
H29 H 0.3596 0.4495 1.1469
C25 C 0.1777(13) 0.6284(11) 1.1766(9)
H30 H 0.0778 0.6625 1.1715
H31 H 0.2230 0.6734 1.1139
C26 C 0.1706(12) 0.6740(14) 1.2963(9)
H32 H 0.1110 0.6425 1.3593
H33 H 0.2692 0.6286 1.3075
C27 C 0.1102(12) 0.8230(12) 1.3069(9)
H34 H 0.1839 0.8505 1.2648
H35 H 0.0796 0.8475 1.3892
H36 H 0.0270 0.8700 1.2737
N1 N 0.3099(4) 0.4476(4) 0.8238(4)
C1A C -0.4746(4) 0.8650(4) 0.5397(3)
C2A C -0.4578(5) 0.7307(4) 0.5827(4)
H1A H -0.3718 0.6671 0.6038
C3A C -0.5634(6) 0.6940(5) 0.5935(5)
H2A H -0.5486 0.6053 0.6206
C4A C -0.6943(6) 0.7869(5) 0.5646(4)
H3A H -0.7665 0.7604 0.5730
C5A C -0.7167(5) 0.9152(5) 0.5246(4)
H4A H -0.8057 0.9764 0.5069
C6A C -0.6089(4) 0.9607(4) 0.5083(3)
C7A C -0.6331(4) 1.0949(4) 0.4680(3)
C8A C -0.7694(5) 1.1974(4) 0.4345(4)
H5A H -0.8265 1.2806 0.4768
C9A C -0.8159(5) 1.1810(4) 0.3516(4)
H6A H -0.7586 1.0954 0.3131
C10A C -0.9455(4) 1.2775(4) 0.3093(4)
C11A C -1.0513(5) 1.4040(4) 0.3635(4)
H7A H -1.0416 1.4282 0.4317
C12A C -1.1698(5) 1.4947(4) 0.3201(4)
H8A H -1.2378 1.5783 0.3597
C13A C -1.1910(5) 1.4654(5) 0.2196(4)
C14A C -1.0843(5) 1.3378(5) 0.1661(4)
H9A H -1.0928 1.3129 0.0977
C15A C -0.9669(5) 1.2476(5) 0.2111(5)
H10A H -0.8997 1.1629 0.1729
C16A C -1.4287(7) 1.6736(7) 0.2385(7)
H11A H -1.4150 1.6687 0.3170
H12A H -1.5178 1.6664 0.2491
C17A C -1.4564(11) 1.8065(11) 0.1947(8)
H13A H -1.4767 1.8169 0.1180
H14A H -1.5434 1.8748 0.2481
C18A C -1.3373(12) 1.8335(11) 0.1823(9)
H15A H -1.3201 1.8287 0.2594
H16A H -1.2488 1.7630 0.1318
C19A C -1.3714(14) 1.9842(14) 0.1255(9)
H17A H -1.4616 2.0557 0.1734
H18A H -1.3815 1.9885 0.0457
C20A C -1.2423(17) 2.0037(14) 0.1234(12)
H19A H -1.1525 1.9277 0.0798
H20A H -1.2355 2.0013 0.2041
C21A C -1.254(3) 2.1188(19) 0.0752(15)
H21A H -1.3279 2.1941 0.1282
H22A H -1.1613 2.1193 0.0584
H23A H -1.2817 2.1302 0.0026
C22A C -1.3263(6) 1.5155(6) 0.0705(5)
H24A H -1.2951 1.4163 0.0718
H25A H -1.4295 1.5646 0.0706
C23A C -1.2376(8) 1.5506(8) -0.0417(6)
H26A H -1.2667 1.6492 -0.0413
H27A H -1.1343 1.4995 -0.0424
C24A C -1.2558(10) 1.5171(12) -0.1544(8)
H28A H -1.2197 1.5650 -0.2210
H29A H -1.3596 1.5505 -0.1469
C25A C -1.1777(13) 1.3716(11) -0.1766(9)
H30A H -1.0778 1.3375 -0.1715
H31A H -1.2230 1.3266 -0.1139
C26A C -1.1706(12) 1.3260(14) -0.2963(9)
H32A H -1.1110 1.3575 -0.3593
H33A H -1.2692 1.3714 -0.3075
C27A C -1.1102(12) 1.1770(12) -0.3069(9)
H34A H -1.1839 1.1495 -0.2648
H35A H -1.0796 1.1525 -0.3892
H36A H -1.0270 1.1300 -0.2737
N1A N -1.3099(4) 1.5524(4) 0.1762(4)
loop_
_geom_bond_atom_site_label_1
_geom_bond_atom_site_label_2
_geom_bond_site_symmetry_1
_geom_bond_site_symmetry_2
C1 C2 1_555 1_555
C2 H1 1_555 1_555
C3 C2 1_555 1_555
H2 C3 1_555 1_555
C4 C3 1_555 1_555
H3 C4 1_555 1_555
C5 C4 1_555 1_555
H4 C5 1_555 1_555
C6 C1 1_555 1_555
C7 C6 1_555 1_555
C8 C7 1_555 1_555
H5 C8 1_555 1_555
C9 C8 1_555 1_555
H6 C9 1_555 1_555
C10 C9 1_555 1_555
C11 C10 1_555 1_555
H7 C11 1_555 1_555
C12 C11 1_555 1_555
H8 C12 1_555 1_555
C13 C12 1_555 1_555
C14 C13 1_555 1_555
H9 C14 1_555 1_555
C15 C10 1_555 1_555
H10 C15 1_555 1_555
C16 H11 1_555 1_555
H12 C16 1_555 1_555
C17 C16 1_555 1_555
H13 C17 1_555 1_555
H14 C17 1_555 1_555
C18 C17 1_555 1_555
H15 C18 1_555 1_555
H16 C18 1_555 1_555
C19 C18 1_555 1_555
H17 C19 1_555 1_555
H18 C19 1_555 1_555
C20 C19 1_555 1_555
H19 C20 1_555 1_555
H20 C20 1_555 1_555
C21 C20 1_555 1_555
H21 C21 1_555 1_555
H22 C21 1_555 1_555
H23 C21 1_555 1_555
C22 H24 1_555 1_555
H25 C22 1_555 1_555
C23 C22 1_555 1_555
H26 C23 1_555 1_555
H27 C23 1_555 1_555
C24 C23 1_555 1_555
H28 C24 1_555 1_555
H29 C24 1_555 1_555
C25 C24 1_555 1_555
H30 C25 1_555 1_555
H31 C25 1_555 1_555
C26 C25 1_555 1_555
H32 C26 1_555 1_555
H33 C26 1_555 1_555
C27 C26 1_555 1_555
H34 C27 1_555 1_555
H35 C27 1_555 1_555
H36 C27 1_555 1_555
N1 C13 1_555 1_555
C1A C7 1_555 1_555
C2A C1A 1_555 1_555
H1A C2A 1_555 1_555
C3A C2A 1_555 1_555
H2A C3A 1_555 1_555
C4A C3A 1_555 1_555
H3A C4A 1_555 1_555
C5A C4A 1_555 1_555
H4A C5A 1_555 1_555
C6A C1A 1_555 1_555
C7A C1 1_555 1_555
C8A C7A 1_555 1_555
H5A C8A 1_555 1_555
C9A C8A 1_555 1_555
H6A C9A 1_555 1_555
C10A C9A 1_555 1_555
C11A C10A 1_555 1_555
H7A C11A 1_555 1_555
C12A C11A 1_555 1_555
H8A C12A 1_555 1_555
C13A C12A 1_555 1_555
C14A C13A 1_555 1_555
H9A C14A 1_555 1_555
C15A C10A 1_555 1_555
H10A C15A 1_555 1_555
C16A H11A 1_555 1_555
H12A C16A 1_555 1_555
C17A C16A 1_555 1_555
H13A C17A 1_555 1_555
H14A C17A 1_555 1_555
C18A C17A 1_555 1_555
H15A C18A 1_555 1_555
H16A C18A 1_555 1_555
C19A C18A 1_555 1_555
H17A C19A 1_555 1_555
H18A C19A 1_555 1_555
C20A C19A 1_555 1_555
H19A C20A 1_555 1_555
H20A C20A 1_555 1_555
C21A C20A 1_555 1_555
H21A C21A 1_555 1_555
H22A C21A 1_555 1_555
H23A C21A 1_555 1_555
C22A H24A 1_555 1_555
H25A C22A 1_555 1_555
C23A C22A 1_555 1_555
H26A C23A 1_555 1_555
H27A C23A 1_555 1_555
C24A C23A 1_555 1_555
H28A C24A 1_555 1_555
H29A C24A 1_555 1_555
C25A C24A 1_555 1_555
H30A C25A 1_555 1_555
H31A C25A 1_555 1_555
C26A C25A 1_555 1_555
H32A C26A 1_555 1_555
H33A C26A 1_555 1_555
C27A C26A 1_555 1_555
H34A C27A 1_555 1_555
H35A C27A 1_555 1_555
H36A C27A 1_555 1_555
N1A C13A 1_555 1_555
C5 C6 1_555 1_555
C14 C15 1_555 1_555
C16 N1 1_555 1_555
C22 N1 1_555 1_555
C5A C6A 1_555 1_555
C6A C7A 1_555 1_555
C14A C15A 1_555 1_555
C16A N1A 1_555 1_555
C22A N1A 1_555 1_555

#END
