
#######################################################################
#
#                 Cambridge Crystallographic Data Centre
#                                CCDC 
#
#######################################################################
#
# If this CIF has been generated from an entry in the Cambridge 
# Structural Database, then it will include bibliographic, chemical, 
# crystal, experimental, refinement or atomic coordinate data resulting 
# from the CCDC's data processing and validation procedures.
#
#######################################################################

data_PORBAZ01
_chemical_name_common            
'C-Undecylcalix(4)resorcinarene ethanol solvate'
_chemical_formula_moiety         'C72 H112 O8,4(C2 H6 O1)'
_chemical_name_systematic        
'4,6,10,12,16,18,22,24-Octahydroxy-2,8,14,20-tetrakis(undecyl) calix(4)arene ethanol solvate'
_symmetry_cell_setting           triclinic
_symmetry_space_group_name_H-M   'P -1'
_symmetry_Int_Tables_number      2
_space_group_name_Hall           '-P 1'
loop_
_symmetry_equiv_pos_site_id
_symmetry_equiv_pos_as_xyz
1 x,y,z
2 -x,-y,-z
_cell_length_a                   12.533(3)
_cell_length_b                   12.649(3)
_cell_length_c                   25.319(5)
_cell_angle_alpha                84.79(3)
_cell_angle_beta                 80.74(3)
_cell_angle_gamma                83.84(3)
_cell_volume                     3927.56
_exptl_crystal_colour            colorless
_exptl_crystal_description       prism
_chemical_melting_point          363K
_cell_formula_units_Z            2
loop_
_atom_site_label
_atom_site_type_symbol
_atom_site_fract_x
_atom_site_fract_y
_atom_site_fract_z
C1 C -0.0867(4) -0.0900(4) 0.6459(2)
C2 C -0.1248(4) -0.1807(4) 0.6858(2)
H1 H -0.1967(4) -0.1939(4) 0.6788(2)
C3 C -0.0514(4) -0.2832(4) 0.6764(2)
C4 C -0.0612(4) -0.3481(4) 0.6353(2)
C5 C 0.0071(4) -0.4397(4) 0.6264(2)
H2 H -0.0020(4) -0.4818(4) 0.5994(2)
C6 C 0.0892(4) -0.4700(4) 0.6570(2)
C7 C 0.1031(4) -0.4088(4) 0.6981(2)
C8 C 0.1935(4) -0.4390(4) 0.7315(2)
H3 H 0.1992(4) -0.5169(4) 0.7374(2)
C9 C 0.3035(4) -0.4103(4) 0.7017(2)
C10 C 0.3808(4) -0.4839(4) 0.6771(2)
C11 C 0.4800(4) -0.4542(4) 0.6508(2)
H4 H 0.5308(4) -0.5045(4) 0.6340(2)
C12 C 0.5032(4) -0.3493(4) 0.6494(2)
C13 C 0.4282(4) -0.2718(4) 0.6739(2)
C14 C 0.4531(4) -0.1554(4) 0.6720(2)
H5 H 0.5311(4) -0.1536(4) 0.6595(2)
C15 C 0.3935(4) -0.0879(4) 0.6304(2)
C16 C 0.4321(4) -0.0897(4) 0.5758(2)
C17 C 0.3769(4) -0.0295(4) 0.5383(2)
H6 H 0.4036(4) -0.0316(4) 0.5019(2)
C18 C 0.2833(4) 0.0328(4) 0.5546(2)
C19 C 0.2401(4) 0.0384(4) 0.6085(2)
C20 C 0.1349(4) 0.1050(4) 0.6272(2)
H7 H 0.1350(4) 0.1710(4) 0.6037(2)
C21 C 0.0382(4) 0.0501(4) 0.6184(2)
C22 C -0.0174(4) 0.0799(4) 0.5749(2)
C23 C -0.1036(4) 0.0276(4) 0.5657(2)
H8 H -0.1381(4) 0.0488(4) 0.5360(2)
C24 C -0.1376(4) -0.0566(4) 0.6010(2)
C25 C 0.0326(4) -0.3173(4) 0.7057(2)
H9 H 0.0421(4) -0.2753(4) 0.7326(2)
C26 C 0.3299(4) -0.3054(4) 0.6984(2)
H10 H 0.2777(4) -0.2546(4) 0.7137(2)
C27 C 0.2981(4) -0.0237(4) 0.6446(2)
H11 H 0.2708(4) -0.0220(4) 0.6809(2)
C28 C 0.0007(4) -0.0352(4) 0.6520(2)
H12 H 0.0368(4) -0.0576(4) 0.6810(2)
C29 C -0.1395(4) -0.1483(4) 0.7438(2)
H13 H -0.1661(4) -0.2072(4) 0.7677(2)
H14 H -0.0690(4) -0.1366(4) 0.7521(2)
C30 C -0.2158(4) -0.0501(4) 0.7549(2)
H15 H -0.2893(4) -0.0643(4) 0.7524(2)
H16 H -0.1957(4) 0.0076(4) 0.7285(2)
C31 C -0.2107(6) -0.0169(5) 0.8125(2)
H17 H -0.2284(6) -0.0767(5) 0.8380(2)
H18 H -0.1363(6) -0.0041(5) 0.8141(2)
C32 C -0.2794(7) 0.0744(6) 0.8295(3)
H19 H -0.3541(7) 0.0574(6) 0.8341(3)
H20 H -0.2707(7) 0.1313(6) 0.8012(3)
C33 C -0.2593(6) 0.1156(6) 0.8812(2)
H21 H -0.2039(6) 0.1647(6) 0.8710(2)
H22 H -0.3254(6) 0.1581(6) 0.8949(2)
C34 C -0.2281(9) 0.0489(5) 0.9259(3)
H23 H -0.1599(9) 0.0089(5) 0.9130(3)
H24 H -0.2815(9) -0.0025(5) 0.9354(3)
C35 C -0.2138(5) 0.0924(5) 0.9769(2)
H25 H -0.1613(5) 0.1446(5) 0.9672(2)
H26 H -0.2824(5) 0.1318(5) 0.9899(2)
C36 C -0.1818(9) 0.0283(5) 1.0219(3)
H27 H -0.1134(9) -0.0117(5) 1.0092(3)
H28 H -0.2348(9) -0.0233(5) 1.0322(3)
C37 C -0.1672(5) 0.0746(5) 1.0719(2)
H29 H -0.1162(5) 0.1280(5) 1.0613(2)
H30 H -0.2363(5) 0.1127(5) 1.0852(2)
C38 C -0.1315(9) 0.0108(6) 1.1173(3)
H31 H -0.0611(9) -0.0257(6) 1.1047(3)
H32 H -0.1813(9) -0.0436(6) 1.1279(3)
C39 C -0.1213(5) 0.0624(5) 1.1662(2)
H33 H -0.1119(33) 0.0087(5) 1.1948(5)
H34 H -0.1858(14) 0.1087(24) 1.1764(9)
H35 H -0.0595(20) 0.1032(27) 1.1591(5)
C40 C 0.1695(4) -0.3959(4) 0.7871(2)
H36 H 0.1765(4) -0.3198(4) 0.7834(2)
H37 H 0.0951(4) -0.4063(4) 0.8026(2)
C41 C 0.2448(4) -0.4494(4) 0.8253(2)
H38 H 0.2265(4) -0.5219(4) 0.8352(2)
H39 H 0.3189(4) -0.4530(4) 0.8066(2)
C42 C 0.2388(4) -0.3921(4) 0.8760(2)
H40 H 0.2731(4) -0.3264(4) 0.8668(2)
H41 H 0.1630(4) -0.3732(4) 0.8899(2)
C43 C 0.2917(4) -0.4554(4) 0.9200(2)
H42 H 0.2548(4) -0.5194(4) 0.9303(2)
H43 H 0.3662(4) -0.4777(4) 0.9053(2)
C44 C 0.2925(5) -0.3998(4) 0.9693(2)
H44 H 0.2192(5) -0.3698(4) 0.9816(2)
H45 H 0.3374(5) -0.3410(4) 0.9600(2)
C45 C 0.3334(4) -0.4685(4) 1.0152(2)
H46 H 0.4055(4) -0.5008(4) 1.0023(2)
H47 H 0.2867(4) -0.5257(4) 1.0253(2)
C46 C 0.3391(5) -0.4134(4) 1.0650(2)
H48 H 0.2691(5) -0.3745(4) 1.0760(2)
H49 H 0.3922(5) -0.3616(4) 1.0561(2)
C47 C 0.3687(4) -0.4868(4) 1.1120(2)
H50 H 0.4375(4) -0.5274(4) 1.1007(2)
H51 H 0.3142(4) -0.5370(4) 1.1217(2)
C48 C 0.3782(5) -0.4314(4) 1.1613(2)
H52 H 0.3104(5) -0.3886(4) 1.1719(2)
H53 H 0.4347(5) -0.3833(4) 1.1520(2)
C49 C 0.4038(5) -0.5062(5) 1.2094(2)
H54 H 0.4687(5) -0.5528(5) 1.1983(2)
H55 H 0.4194(5) -0.4641(5) 1.2369(2)
C50 C 0.3129(5) -0.5741(5) 1.2333(2)
H56 H 0.3322(13) -0.6156(20) 1.2646(8)
H57 H 0.3013(19) -0.6208(19) 1.2073(5)
H58 H 0.2475(8) -0.5287(5) 1.2431(12)
C51 C 0.4288(4) -0.1119(4) 0.7281(2)
H59 H 0.4467(4) -0.0387(4) 0.7251(2)
H60 H 0.3517(4) -0.1121(4) 0.7412(2)
C52 C 0.4923(4) -0.1772(4) 0.7685(2)
H61 H 0.4721(4) -0.2498(4) 0.7726(2)
H62 H 0.5693(4) -0.1796(4) 0.7548(2)
C53 C 0.4715(4) -0.1312(4) 0.8233(2)
H63 H 0.4942(4) -0.0596(4) 0.8191(2)
H64 H 0.3940(4) -0.1260(4) 0.8361(2)
C54 C 0.5300(4) -0.1967(4) 0.8654(2)
H65 H 0.5066(4) -0.2681(4) 0.8700(2)
H66 H 0.6074(4) -0.2026(4) 0.8525(2)
C55 C 0.5093(4) -0.1490(4) 0.9196(2)
H67 H 0.4320(4) -0.1445(4) 0.9328(2)
H68 H 0.5312(4) -0.0770(4) 0.9148(2)
C56 C 0.5699(5) -0.2131(4) 0.9617(2)
H69 H 0.5467(5) -0.2846(4) 0.9671(2)
H70 H 0.6470(5) -0.2191(4) 0.9481(2)
C57 C 0.5516(5) -0.1643(4) 1.0158(2)
H71 H 0.5757(5) -0.0931(4) 1.0104(2)
H72 H 0.4744(5) -0.1573(4) 1.0291(2)
C58 C 0.6096(5) -0.2274(4) 1.0580(2)
H73 H 0.6869(5) -0.2336(4) 1.0448(2)
H74 H 0.5863(5) -0.2988(4) 1.0630(2)
C59 C 0.5908(5) -0.1801(5) 1.1122(2)
H75 H 0.6153(5) -0.1092(5) 1.1074(2)
H76 H 0.5134(5) -0.1729(5) 1.1252(2)
C60 C 0.6482(5) -0.2455(4) 1.1545(2)
H77 H 0.6247(5) -0.3167(4) 1.1590(2)
H78 H 0.7258(5) -0.2516(4) 1.1419(2)
C61 C 0.6271(7) -0.1982(6) 1.2087(2)
H79 H 0.6619(39) -0.2452(23) 1.2341(6)
H80 H 0.5503(8) -0.1896(41) 1.2210(10)
H81 H 0.6557(39) -0.1301(21) 1.2053(5)
C62 C 0.1266(4) 0.1384(4) 0.6844(2)
H82 H 0.1227(4) 0.0749(4) 0.7089(2)
H83 H 0.1926(4) 0.1694(4) 0.6874(2)
C63 C 0.0297(4) 0.2179(4) 0.7023(2)
H84 H -0.0369(4) 0.1835(4) 0.7056(2)
H85 H 0.0264(4) 0.2773(4) 0.6753(2)
C64 C 0.0389(4) 0.2597(4) 0.7562(2)
H86 H 0.0458(4) 0.1995(4) 0.7825(2)
H87 H 0.1046(4) 0.2958(4) 0.7522(2)
C65 C -0.0569(4) 0.3358(4) 0.7774(2)
H88 H -0.1208(4) 0.2971(4) 0.7872(2)
H89 H -0.0711(4) 0.3904(4) 0.7493(2)
C66 C -0.0362(5) 0.3890(4) 0.8266(2)
H90 H 0.0235(5) 0.4329(4) 0.8154(2)
H91 H -0.1001(5) 0.4361(4) 0.8386(2)
C67 C -0.0101(4) 0.3154(4) 0.8736(2)
H92 H 0.0550(4) 0.2696(4) 0.8620(2)
H93 H -0.0689(4) 0.2701(4) 0.8843(2)
C68 C 0.0070(4) 0.3685(4) 0.9219(2)
H94 H 0.0634(4) 0.4163(4) 0.9109(2)
H95 H -0.0594(4) 0.4116(4) 0.9346(2)
C69 C 0.0379(5) 0.2941(4) 0.9676(2)
H96 H 0.1024(5) 0.2491(4) 0.9542(2)
H97 H -0.0200(5) 0.2481(4) 0.9791(2)
C70 C 0.0599(4) 0.3439(4) 1.0162(2)
H98 H 0.1188(4) 0.3888(4) 1.0049(2)
H99 H -0.0040(4) 0.3899(4) 1.0293(2)
C71 C 0.0885(5) 0.2691(5) 1.0614(2)
H100 H 0.1513(5) 0.2219(5) 1.0481(2)
H101 H 0.0288(5) 0.2255(5) 1.0733(2)
C72 C 0.1134(5) 0.3192(4) 1.1094(2)
H102 H 0.1248(27) 0.2646(5) 1.1374(5)
H103 H 0.0535(12) 0.3690(19) 1.1221(8)
H104 H 0.1777(16) 0.3558(23) 1.0992(4)
O1 O -0.1401(3) -0.3196(3) 0.60264(14)
H105 H -0.1659(32) -0.3732(6) 0.5964(18)
O2 O 0.1543(3) -0.5607(3) 0.64314(15)
H106 H 0.2123(18) -0.5610(23) 0.6543(20)
O3 O 0.3551(3) -0.5870(3) 0.67834(13)
H107 H 0.3985(28) -0.6193(13) 0.6562(16)
O4 O 0.6015(3) -0.3150(3) 0.62337(12)
H108 H 0.6355(19) -0.3626(15) 0.6059(17)
O5 O 0.5264(3) -0.1490(3) 0.55522(11)
H109 H 0.5524(25) -0.1839(34) 0.5798(2)
O6 O 0.2327(3) 0.0907(3) 0.51411(11)
H110 H 0.1744(22) 0.1203(37) 0.5274(3)
O7 O 0.0210(3) 0.1619(3) 0.53895(12)
H111 H -0.0304(3) 0.1998(25) 0.5291(17)
O8 O -0.2234(3) -0.1095(3) 0.59256(12)
H112 H -0.2048(12) -0.1737(5) 0.5927(19)
O9 O -0.2571(3) -0.4442(3) 0.55946(13)
H113 H -0.2727(54) -0.5061(18) 0.5628(4)
C73 C -0.2457(9) -0.4007(9) 0.4959(3)
H117 H -0.2287(9) -0.3271(9) 0.4901(3)
H118 H -0.1927(9) -0.4451(9) 0.4733(3)
C74 C -0.3638(10) -0.4133(10) 0.4883(4)
H119 H -0.3783(31) -0.3761(71) 0.4551(22)
H120 H -0.4133(11) -0.3840(80) 0.5175(24)
H121 H -0.3728(26) -0.4875(10) 0.4877(43)
O10 O -0.1314(4) -0.7345(4) 0.4910(2)
H114 H -0.1818(7) -0.7214(59) 0.5152(12)
C75 C -0.1747(6) -0.7683(5) 0.4443(2)
H122 H -0.1901(6) -0.8423(5) 0.4501(2)
H123 H -0.1232(6) -0.7594(5) 0.4116(2)
C76 C -0.2782(6) -0.6951(6) 0.4412(3)
H124 H -0.2603(6) -0.6231(7) 0.4320(17)
H125 H -0.3243(16) -0.6988(27) 0.4754(6)
H126 H -0.3153(18) -0.7171(21) 0.4143(12)
O11 O 0.5105(4) -0.7083(3) 0.6187(2)
H115 H 0.5120(66) -0.7080(13) 0.6509(6)
C77 C 0.4990(6) -0.8145(6) 0.6060(3)
H127 H 0.4997(6) -0.8150(6) 0.5676(3)
H128 H 0.4295(6) -0.8359(6) 0.6240(3)
C78 C 0.5866(5) -0.8919(5) 0.6223(3)
H129 H 0.6553(6) -0.8730(19) 0.6032(13)
H130 H 0.5749(19) -0.9620(7) 0.6142(15)
H131 H 0.5867(22) -0.8910(24) 0.6602(4)
O12 O 0.7282(4) -0.6603(4) 0.5844(2)
H116 H 0.7428(41) -0.6017(25) 0.5701(19)
C79 C 0.7932(5) -0.6907(6) 0.6253(2)
H132 H 0.8625(5) -0.6612(6) 0.6152(2)
H133 H 0.8070(5) -0.7678(6) 0.6285(2)
C80 C 0.7417(7) -0.6545(8) 0.6766(3)
H134 H 0.7371(51) -0.5780(8) 0.6750(9)
H135 H 0.7839(32) -0.6836(46) 0.7039(5)
H136 H 0.6701(23) -0.6776(49) 0.6850(13)
loop_
_geom_bond_atom_site_label_1
_geom_bond_atom_site_label_2
_geom_bond_site_symmetry_1
_geom_bond_site_symmetry_2
C1 C2 1_555 1_555
C2 H1 1_555 1_555
C3 C2 1_555 1_555
C4 C3 1_555 1_555
C5 C4 1_555 1_555
H2 C5 1_555 1_555
C6 C5 1_555 1_555
C7 C6 1_555 1_555
C8 C7 1_555 1_555
H3 C8 1_555 1_555
C9 C8 1_555 1_555
C10 C9 1_555 1_555
C11 C10 1_555 1_555
H4 C11 1_555 1_555
C12 C11 1_555 1_555
C13 C12 1_555 1_555
C14 C13 1_555 1_555
H5 C14 1_555 1_555
C15 C14 1_555 1_555
C16 C15 1_555 1_555
C17 C16 1_555 1_555
H6 C17 1_555 1_555
C18 C17 1_555 1_555
C19 C18 1_555 1_555
C20 C19 1_555 1_555
H7 C20 1_555 1_555
C21 C20 1_555 1_555
C22 C21 1_555 1_555
C23 C22 1_555 1_555
H8 C23 1_555 1_555
C24 C1 1_555 1_555
C25 C3 1_555 1_555
H9 C25 1_555 1_555
C26 C9 1_555 1_555
H10 C26 1_555 1_555
C27 C15 1_555 1_555
H11 C27 1_555 1_555
C28 C1 1_555 1_555
H12 C28 1_555 1_555
C29 C2 1_555 1_555
H13 C29 1_555 1_555
H14 C29 1_555 1_555
C30 C29 1_555 1_555
H15 C30 1_555 1_555
H16 C30 1_555 1_555
C31 C30 1_555 1_555
H17 C31 1_555 1_555
H18 C31 1_555 1_555
C32 C31 1_555 1_555
H19 C32 1_555 1_555
H20 C32 1_555 1_555
C33 C32 1_555 1_555
H21 C33 1_555 1_555
H22 C33 1_555 1_555
C34 C33 1_555 1_555
H23 C34 1_555 1_555
H24 C34 1_555 1_555
C35 C34 1_555 1_555
H25 C35 1_555 1_555
H26 C35 1_555 1_555
C36 C35 1_555 1_555
H27 C36 1_555 1_555
H28 C36 1_555 1_555
C37 C36 1_555 1_555
H29 C37 1_555 1_555
H30 C37 1_555 1_555
C38 C37 1_555 1_555
H31 C38 1_555 1_555
H32 C38 1_555 1_555
C39 C38 1_555 1_555
H33 C39 1_555 1_555
H34 C39 1_555 1_555
H35 C39 1_555 1_555
C40 C8 1_555 1_555
H36 C40 1_555 1_555
H37 C40 1_555 1_555
C41 C40 1_555 1_555
H38 C41 1_555 1_555
H39 C41 1_555 1_555
C42 C41 1_555 1_555
H40 C42 1_555 1_555
H41 C42 1_555 1_555
C43 C42 1_555 1_555
H42 C43 1_555 1_555
H43 C43 1_555 1_555
C44 C43 1_555 1_555
H44 C44 1_555 1_555
H45 C44 1_555 1_555
C45 C44 1_555 1_555
H46 C45 1_555 1_555
H47 C45 1_555 1_555
C46 C45 1_555 1_555
H48 C46 1_555 1_555
H49 C46 1_555 1_555
C47 C46 1_555 1_555
H50 C47 1_555 1_555
H51 C47 1_555 1_555
C48 C47 1_555 1_555
H52 C48 1_555 1_555
H53 C48 1_555 1_555
C49 C48 1_555 1_555
H54 C49 1_555 1_555
H55 C49 1_555 1_555
C50 C49 1_555 1_555
H56 C50 1_555 1_555
H57 C50 1_555 1_555
H58 C50 1_555 1_555
C51 C14 1_555 1_555
H59 C51 1_555 1_555
H60 C51 1_555 1_555
C52 C51 1_555 1_555
H61 C52 1_555 1_555
H62 C52 1_555 1_555
C53 C52 1_555 1_555
H63 C53 1_555 1_555
H64 C53 1_555 1_555
C54 C53 1_555 1_555
H65 C54 1_555 1_555
H66 C54 1_555 1_555
C55 C54 1_555 1_555
H67 C55 1_555 1_555
H68 C55 1_555 1_555
C56 C55 1_555 1_555
H69 C56 1_555 1_555
H70 C56 1_555 1_555
C57 C56 1_555 1_555
H71 C57 1_555 1_555
H72 C57 1_555 1_555
C58 C57 1_555 1_555
H73 C58 1_555 1_555
H74 C58 1_555 1_555
C59 C58 1_555 1_555
H75 C59 1_555 1_555
H76 C59 1_555 1_555
C60 C59 1_555 1_555
H77 C60 1_555 1_555
H78 C60 1_555 1_555
C61 C60 1_555 1_555
H79 C61 1_555 1_555
H80 C61 1_555 1_555
H81 C61 1_555 1_555
C62 C20 1_555 1_555
H82 C62 1_555 1_555
H83 C62 1_555 1_555
C63 C62 1_555 1_555
H84 C63 1_555 1_555
H85 C63 1_555 1_555
C64 C63 1_555 1_555
H86 C64 1_555 1_555
H87 C64 1_555 1_555
C65 C64 1_555 1_555
H88 C65 1_555 1_555
H89 C65 1_555 1_555
C66 C65 1_555 1_555
H90 C66 1_555 1_555
H91 C66 1_555 1_555
C67 C66 1_555 1_555
H92 C67 1_555 1_555
H93 C67 1_555 1_555
C68 C67 1_555 1_555
H94 C68 1_555 1_555
H95 C68 1_555 1_555
C69 C68 1_555 1_555
H96 C69 1_555 1_555
H97 C69 1_555 1_555
C70 C69 1_555 1_555
H98 C70 1_555 1_555
H99 C70 1_555 1_555
C71 C70 1_555 1_555
H100 C71 1_555 1_555
H101 C71 1_555 1_555
C72 C71 1_555 1_555
H102 C72 1_555 1_555
H103 C72 1_555 1_555
H104 C72 1_555 1_555
O1 C4 1_555 1_555
H105 O1 1_555 1_555
O2 C6 1_555 1_555
H106 O2 1_555 1_555
O3 C10 1_555 1_555
H107 O3 1_555 1_555
O4 C12 1_555 1_555
H108 O4 1_555 1_555
O5 C16 1_555 1_555
H109 O5 1_555 1_555
O6 C18 1_555 1_555
H110 O6 1_555 1_555
O7 C22 1_555 1_555
H111 O7 1_555 1_555
O8 C24 1_555 1_555
H112 O8 1_555 1_555
O9 H113 1_555 1_555
O10 H114 1_555 1_555
O11 H115 1_555 1_555
O12 H116 1_555 1_555
C73 O9 1_555 1_555
H117 C73 1_555 1_555
H118 C73 1_555 1_555
C74 C73 1_555 1_555
H119 C74 1_555 1_555
H120 C74 1_555 1_555
H121 C74 1_555 1_555
C75 O10 1_555 1_555
H122 C75 1_555 1_555
H123 C75 1_555 1_555
C76 C75 1_555 1_555
H124 C76 1_555 1_555
H125 C76 1_555 1_555
H126 C76 1_555 1_555
C77 O11 1_555 1_555
H127 C77 1_555 1_555
H128 C77 1_555 1_555
C78 C77 1_555 1_555
H129 C78 1_555 1_555
H130 C78 1_555 1_555
H131 C78 1_555 1_555
C79 O12 1_555 1_555
H132 C79 1_555 1_555
H133 C79 1_555 1_555
C80 C79 1_555 1_555
H134 C80 1_555 1_555
H135 C80 1_555 1_555
H136 C80 1_555 1_555
C7 C25 1_555 1_555
C13 C26 1_555 1_555
C19 C27 1_555 1_555
C21 C28 1_555 1_555
C23 C24 1_555 1_555

#END
