
#######################################################################
#
#                 Cambridge Crystallographic Data Centre
#                                CCDC 
#
#######################################################################
#
# If this CIF has been generated from an entry in the Cambridge 
# Structural Database, then it will include bibliographic, chemical, 
# crystal, experimental, refinement or atomic coordinate data resulting 
# from the CCDC's data processing and validation procedures.
#
#######################################################################

data_PORFUZ
_chemical_formula_moiety         'C10 H8 N2 O3'
_chemical_name_systematic        '7-Methyl-3-nitroquinoline 1-oxide'
_symmetry_cell_setting           orthorhombic
_symmetry_space_group_name_H-M   'P c a 21'
_symmetry_Int_Tables_number      29
_space_group_name_Hall           'P 2c -2ac'
loop_
_symmetry_equiv_pos_site_id
_symmetry_equiv_pos_as_xyz
1 x,y,z
2 -x,-y,1/2+z
3 1/2+x,-y,z
4 1/2-x,y,1/2+z
_cell_length_a                   20.775(7)
_cell_length_b                   6.040(2)
_cell_length_c                   7.497(3)
_cell_angle_alpha                90
_cell_angle_beta                 90
_cell_angle_gamma                90
_cell_volume                     940.731
_exptl_crystal_colour            yellow
_exptl_crystal_description       block
_cell_formula_units_Z            4
loop_
_atom_site_label
_atom_site_type_symbol
_atom_site_fract_x
_atom_site_fract_y
_atom_site_fract_z
C1 C 0.1704(7) 0.3876(15) 0.7288(17)
H1 H 0.1325 0.4613 0.7577
C2 C 0.1683(6) 0.1791(19) 0.6474(15)
C3 C 0.2215(7) 0.058(2) 0.5975(19)
H2 H 0.2194 -0.0805 0.5439
C4 C 0.2839(3) 0.1776(11) 0.6402(8)
C5 C 0.3413(4) 0.0717(12) 0.5985(11)
H3 H 0.3407 -0.0675 0.5455
C6 C 0.3998(3) 0.1737(18) 0.6361(15)
H4 H 0.4382 0.1028 0.6082
C7 C 0.4007(3) 0.3817(17) 0.7154(16)
C8 C 0.3433(5) 0.4877(12) 0.7570(15)
H5 H 0.3439 0.6268 0.8101
C9 C 0.2848(3) 0.3856(11) 0.7195(11)
C10 C 0.4687(8) 0.450(3) 0.755(3)
H6 H 0.4977 0.3361 0.7152
H7 H 0.4737 0.4702 0.8814
H8 H 0.4782 0.5856 0.6945
N1 N 0.2293(5) 0.4826(18) 0.7657(15)
N2 N 0.1011(8) 0.0776(16) 0.6162(19)
O1 O 0.1051(5) -0.136(2) 0.549(2)
O2 O 0.0573(5) 0.154(3) 0.649(3)
O3 O 0.2323(6) 0.635(2) 0.8427(19)
loop_
_geom_bond_atom_site_label_1
_geom_bond_atom_site_label_2
_geom_bond_site_symmetry_1
_geom_bond_site_symmetry_2
C1 H1 1_555 1_555
C2 C1 1_555 1_555
C3 C2 1_555 1_555
H2 C3 1_555 1_555
C4 C3 1_555 1_555
C5 C4 1_555 1_555
H3 C5 1_555 1_555
C6 C5 1_555 1_555
H4 C6 1_555 1_555
C7 C6 1_555 1_555
C8 C7 1_555 1_555
H5 C8 1_555 1_555
C9 C4 1_555 1_555
C10 C7 1_555 1_555
H6 C10 1_555 1_555
H7 C10 1_555 1_555
H8 C10 1_555 1_555
N1 C1 1_555 1_555
N2 C2 1_555 1_555
O1 N2 1_555 1_555
O2 N2 1_555 1_555
O3 N1 1_555 1_555
C8 C9 1_555 1_555
C9 N1 1_555 1_555

#END
