
#######################################################################
#
#                 Cambridge Crystallographic Data Centre
#                                CCDC 
#
#######################################################################
#
# If this CIF has been generated from an entry in the Cambridge 
# Structural Database, then it will include bibliographic, chemical, 
# crystal, experimental, refinement or atomic coordinate data resulting 
# from the CCDC's data processing and validation procedures.
#
#######################################################################

data_PORFIN
_chemical_formula_moiety         'C27 H18 O6,0.5(C1 O2),3(C3 H7 N1 O1)'
_chemical_name_systematic        
'1,3,5-tris(4-Carboxyphenyl)benzene hemikis(carbon dioxide)-N,N-dimethylformamide solvate'
_symmetry_cell_setting           rhombohedral
_symmetry_space_group_name_H-M   'R -3'
_symmetry_Int_Tables_number      148
_space_group_name_Hall           '-R 3'
loop_
_symmetry_equiv_pos_site_id
_symmetry_equiv_pos_as_xyz
1 x,y,z
2 -y,x-y,z
3 -x+y,-x,z
4 2/3+x,1/3+y,1/3+z
5 2/3-y,1/3+x-y,1/3+z
6 2/3-x+y,1/3-x,1/3+z
7 1/3+x,2/3+y,2/3+z
8 1/3-y,2/3+x-y,2/3+z
9 1/3-x+y,2/3-x,2/3+z
10 -x,-y,-z
11 y,-x+y,-z
12 x-y,x,-z
13 1/3-x,2/3-y,2/3-z
14 1/3+y,2/3-x+y,2/3-z
15 1/3+x-y,2/3+x,2/3-z
16 2/3-x,1/3-y,1/3-z
17 2/3+y,1/3-x+y,1/3-z
18 2/3+x-y,1/3+x,1/3-z
_cell_length_a                   23.103(3)
_cell_length_b                   23.103(3)
_cell_length_c                   11.667(2)
_cell_angle_alpha                90
_cell_angle_beta                 90
_cell_angle_gamma                120
_cell_volume                     5392.95
_exptl_crystal_colour            colorless
_exptl_crystal_description       block
_cell_formula_units_Z            6
_exptl_crystal_recrystallization_method N,N-dimethylformamide
loop_
_atom_site_label
_atom_site_type_symbol
_atom_site_fract_x
_atom_site_fract_y
_atom_site_fract_z
O3 O 0.62461(7) 0.11357(8) 1.03320(16)
N1 N 0.54299(8) 0.08069(8) 0.90014(13)
C10 C 0.59025(10) 0.07645(11) 0.95449(19)
H7 H 0.5987 0.0427 0.9321
C11 C 0.52540(19) 0.12947(19) 0.9296(3)
H8 H 0.4830 0.1083 0.9682
H9 H 0.5223 0.1509 0.8612
H10 H 0.5589 0.1622 0.9792
C12 C 0.50329(18) 0.03513(16) 0.8093(2)
H11 H 0.5212 0.0068 0.7900
H12 H 0.5044 0.0603 0.7430
H13 H 0.4579 0.0082 0.8347
C13 C 0.6667 0.3333 0.8333
O4 O 0.720(2) 0.345(7) 0.816(4)
O4A O 0.655(7) 0.375(7) 0.816(4)
O4B O 0.625(7) 0.280(2) 0.816(4)
O4L O 0.613(2) 0.322(7) 0.851(4)
O4M O 0.678(7) 0.292(7) 0.851(4)
O4N O 0.708(7) 0.387(2) 0.851(4)
O1 O 0.37455(5) 0.28133(5) 0.11226(11)
H1 H 0.4098(13) 0.3163(12) 0.0802(19)
O2 O 0.33019(5) 0.34086(6) 0.04530(15)
C1 C 0.32381(6) 0.28996(6) 0.08602(13)
C2 C 0.25726(5) 0.22999(5) 0.10973(11)
C3 C 0.20078(6) 0.22756(6) 0.06288(12)
H2 H 0.2050 0.2631 0.0189
C4 C 0.13804(6) 0.17232(6) 0.08146(12)
H3 H 0.1005 0.1714 0.0505
C5 C 0.13055(5) 0.11833(5) 0.14573(10)
C6 C 0.18765(5) 0.12112(6) 0.19242(12)
H4 H 0.1835 0.0855 0.2359
C7 C 0.25041(5) 0.17652(6) 0.17458(12)
H5 H 0.2880 0.1778 0.2062
C8 C 0.06360(5) 0.05764(5) 0.15793(11)
C9 C 0.00581(5) 0.06292(5) 0.15871(11)
H6 H 0.0097 0.1050 0.1598
O1A O -0.28133(5) 0.09322(7) 0.11226(11)
H1A H -0.3163(12) 0.0935(18) 0.0802(19)
O2A O -0.34086(6) -0.01067(8) 0.04530(15)
C1A C -0.28996(6) 0.03385(8) 0.08602(13)
C2A C -0.22999(5) 0.02727(7) 0.10973(11)
C3A C -0.22756(6) -0.02678(8) 0.06288(12)
H2A H -0.2631 -0.0581 0.0189
C4A C -0.17232(6) -0.03428(8) 0.08146(12)
H3A H -0.1714 -0.0709 0.0505
C5A C -0.11833(5) 0.01222(7) 0.14573(10)
C6A C -0.12112(6) 0.06653(8) 0.19242(12)
H4A H -0.0855 0.0980 0.2359
C7A C -0.17652(6) 0.07389(8) 0.17458(12)
H5A H -0.1778 0.1102 0.2062
C8A C -0.05764(5) 0.00596(7) 0.15793(11)
C9A C -0.06292(5) -0.05711(7) 0.15871(11)
H6A H -0.1050 -0.0953 0.1598
O1B O -0.09322(7) -0.37455(5) 0.11226(11)
H1B H -0.0935(18) -0.4098(13) 0.0802(19)
O2B O 0.01067(8) -0.33019(5) 0.04530(15)
C1B C -0.03385(8) -0.32381(6) 0.08602(13)
C2B C -0.02727(7) -0.25726(5) 0.10973(11)
C3B C 0.02678(8) -0.20078(6) 0.06288(12)
H2B H 0.0581 -0.2050 0.0189
C4B C 0.03428(8) -0.13804(6) 0.08146(12)
H3B H 0.0709 -0.1005 0.0505
C5B C -0.01222(7) -0.13055(5) 0.14573(10)
C6B C -0.06653(8) -0.18765(5) 0.19242(12)
H4B H -0.0980 -0.1835 0.2359
C7B C -0.07389(8) -0.25041(5) 0.17458(12)
H5B H -0.1102 -0.2880 0.2062
C8B C -0.00596(7) -0.06360(5) 0.15793(11)
C9B C 0.05711(7) -0.00581(5) 0.15871(11)
H6B H 0.0953 -0.0097 0.1598
loop_
_geom_bond_atom_site_label_1
_geom_bond_atom_site_label_2
_geom_bond_site_symmetry_1
_geom_bond_site_symmetry_2
O1 H1 1_555 1_555
O2 C1 1_555 1_555
C1 O1 1_555 1_555
C2 C1 1_555 1_555
C3 C2 1_555 1_555
H2 C3 1_555 1_555
C4 C3 1_555 1_555
H3 C4 1_555 1_555
C5 C4 1_555 1_555
C6 C5 1_555 1_555
H4 C6 1_555 1_555
C7 C2 1_555 1_555
H5 C7 1_555 1_555
C8 C5 1_555 1_555
C9 C8 1_555 1_555
H6 C9 1_555 1_555
O3 C10 1_555 1_555
N1 C10 1_555 1_555
C10 H7 1_555 1_555
C11 N1 1_555 1_555
H8 C11 1_555 1_555
H9 C11 1_555 1_555
H10 C11 1_555 1_555
C12 N1 1_555 1_555
H11 C12 1_555 1_555
H12 C12 1_555 1_555
H13 C12 1_555 1_555
C13 O4 1_555 1_555
O4 O4M 1_555 1_555
O1A H1A 1_555 1_555
O2A C1A 1_555 1_555
C1A O1A 1_555 1_555
C2A C1A 1_555 1_555
C3A C2A 1_555 1_555
H2A C3A 1_555 1_555
C4A C3A 1_555 1_555
H3A C4A 1_555 1_555
C5A C4A 1_555 1_555
C6A C5A 1_555 1_555
H4A C6A 1_555 1_555
C7A C2A 1_555 1_555
H5A C7A 1_555 1_555
C8A C9 1_555 1_555
C9A C8A 1_555 1_555
H6A C9A 1_555 1_555
O1B H1B 1_555 1_555
O2B C1B 1_555 1_555
C1B O1B 1_555 1_555
C2B C1B 1_555 1_555
C3B C2B 1_555 1_555
H2B C3B 1_555 1_555
C4B C3B 1_555 1_555
H3B C4B 1_555 1_555
C5B C4B 1_555 1_555
C6B C5B 1_555 1_555
H4B C6B 1_555 1_555
C7B C2B 1_555 1_555
H5B C7B 1_555 1_555
C8B C9A 1_555 1_555
C9B C8 1_555 1_555
H6B C9B 1_555 1_555
O4A C13 1_555 1_555
O4B C13 1_555 1_555
O4L C13 1_555 1_555
O4M C13 1_555 1_555
O4N C13 1_555 1_555
C6 C7 1_555 1_555
O4 O4N 1_555 1_555
C5A C8A 1_555 1_555
C6A C7A 1_555 1_555
C5B C8B 1_555 1_555
C6B C7B 1_555 1_555
C8B C9B 1_555 1_555
O4A O4L 1_555 1_555
O4A O4N 1_555 1_555
O4B O4L 1_555 1_555
O4B O4M 1_555 1_555

#END
