
#######################################################################
#
#                 Cambridge Crystallographic Data Centre
#                                CCDC 
#
#######################################################################
#
# If this CIF has been generated from an entry in the Cambridge 
# Structural Database, then it will include bibliographic, chemical, 
# crystal, experimental, refinement or atomic coordinate data resulting 
# from the CCDC's data processing and validation procedures.
#
#######################################################################

data_PORLUF
_chemical_formula_moiety         'C18 H22 Cl1 N1 O5'
_chemical_name_systematic        
'Methyl 2-((t-butoxycarbonyl)amino)-4-(2-chlorophenyl)-3,4-dihydro-2H-pyran-6-carboxylate'
_symmetry_cell_setting           monoclinic
_symmetry_space_group_name_H-M   'C 2'
_symmetry_Int_Tables_number      5
_space_group_name_Hall           'C 2y'
loop_
_symmetry_equiv_pos_site_id
_symmetry_equiv_pos_as_xyz
1 x,y,z
2 -x,y,-z
3 1/2+x,1/2+y,z
4 1/2-x,1/2+y,-z
_cell_length_a                   23.9704(18)
_cell_length_b                   5.1480(4)
_cell_length_c                   15.6930(13)
_cell_angle_alpha                90
_cell_angle_beta                 97.937(8)
_cell_angle_gamma                90
_cell_volume                     1917.96
_cell_formula_units_Z            4
loop_
_atom_site_label
_atom_site_type_symbol
_atom_site_fract_x
_atom_site_fract_y
_atom_site_fract_z
C1 C 0.01351(15) -0.8046(9) -0.1668(4)
H1 H 0.0106 -0.8927 -0.1136
H2 H 0.0479 -0.7070 -0.1612
H3 H 0.0134 -0.9299 -0.2121
C2 C -0.03023(19) -0.4670(10) -0.2670(3)
H4 H -0.0314 -0.5814 -0.3155
H5 H 0.0050 -0.3752 -0.2590
H6 H -0.0607 -0.3447 -0.2771
C3 C -0.04311(18) -0.4564(9) -0.1113(3)
H7 H -0.0740 -0.3391 -0.1262
H8 H -0.0093 -0.3589 -0.0943
H9 H -0.0506 -0.5651 -0.0645
C4 C -0.03592(14) -0.6226(8) -0.1878(3)
C5 C -0.13660(13) -0.7147(7) -0.2251(2)
C6 C -0.23068(11) -0.8704(6) -0.26516(18)
H10 H -0.2358 -0.6998 -0.2928
C7 C -0.25963(11) -1.0691(7) -0.32506(19)
H11 H -0.2584 -1.2370 -0.2968
H12 H -0.2406 -1.0844 -0.3756
C8 C -0.32104(12) -0.9858(7) -0.35175(18)
H13 H -0.3205 -0.8310 -0.3880
C9 C -0.34441(13) -0.9054(7) -0.2721(2)
H14 H -0.3833 -0.8895 -0.2749
C10 C -0.31302(13) -0.8564(8) -0.1987(2)
C11 C -0.33852(17) -0.7880(11) -0.1213(2)
C12 C -0.35572(13) -1.1878(7) -0.40415(19)
C13 C -0.35153(14) -1.2302(7) -0.4902(2)
C14 C -0.38287(16) -1.4149(9) -0.5390(2)
H15 H -0.3787 -1.4385 -0.5966
C15 C -0.42040(14) -1.5641(10) -0.5016(2)
H16 H -0.4419 -1.6891 -0.5340
C16 C -0.42612(14) -1.5290(9) -0.4174(2)
H17 H -0.4517 -1.6294 -0.3924
C17 C -0.39409(13) -1.3451(8) -0.3690(2)
H18 H -0.3982 -1.3254 -0.3113
C18 C -0.3163(7) -0.755(5) 0.0336(9)
H19 H -0.3531 -0.6776 0.0245
H20 H -0.2907 -0.6398 0.0677
H21 H -0.3179 -0.9171 0.0632
Cl1 Cl -0.30571(4) -1.0425(2) -0.54114(5)
N1 N -0.17240(10) -0.9162(5) -0.24299(16)
H22 H -0.1597 -1.0726 -0.2408
O1 O -0.08401(9) -0.8059(5) -0.20586(17)
O2 O -0.14994(9) -0.4894(5) -0.22934(15)
O3 O -0.25539(8) -0.8635(5) -0.18633(13)
O4 O -0.38778(11) -0.7797(8) -0.11877(19)
O5 O -0.2966(5) -0.799(3) -0.0498(7)
C19? C -0.3284(10) -0.556(7) 0.0090(12)
H23? H -0.3578 -0.4328 -0.0087
H24? H -0.2987 -0.4724 0.0463
H25? H -0.3433 -0.6969 0.0390
O6? O -0.3067(6) -0.654(4) -0.0652(9)
loop_
_geom_bond_atom_site_label_1
_geom_bond_atom_site_label_2
_geom_bond_site_symmetry_1
_geom_bond_site_symmetry_2
C1 H1 1_555 1_555
H2 C1 1_555 1_555
H3 C1 1_555 1_555
C2 H4 1_555 1_555
H5 C2 1_555 1_555
H6 C2 1_555 1_555
C3 H7 1_555 1_555
H8 C3 1_555 1_555
H9 C3 1_555 1_555
C4 C1 1_555 1_555
C5 N1 1_555 1_555
C6 H10 1_555 1_555
C7 C6 1_555 1_555
H11 C7 1_555 1_555
H12 C7 1_555 1_555
C8 C7 1_555 1_555
H13 C8 1_555 1_555
C9 C8 1_555 1_555
H14 C9 1_555 1_555
C10 C9 1_555 1_555
C11 C10 1_555 1_555
C12 C8 1_555 1_555
C13 C12 1_555 1_555
C14 C13 1_555 1_555
H15 C14 1_555 1_555
C15 C14 1_555 1_555
H16 C15 1_555 1_555
C16 C15 1_555 1_555
H17 C16 1_555 1_555
C17 C12 1_555 1_555
H18 C17 1_555 1_555
C18 H19 1_555 1_555
H20 C18 1_555 1_555
H21 C18 1_555 1_555
Cl1 C13 1_555 1_555
N1 C6 1_555 1_555
H22 N1 1_555 1_555
O1 C4 1_555 1_555
O2 C5 1_555 1_555
O3 C6 1_555 1_555
O4 C11 1_555 1_555
O5 C11 1_555 1_555
C2 C4 1_555 1_555
C3 C4 1_555 1_555
C5 O1 1_555 1_555
C10 O3 1_555 1_555
C16 C17 1_555 1_555
C18 O5 1_555 1_555

#END
