
#######################################################################
#
#                 Cambridge Crystallographic Data Centre
#                                CCDC 
#
#######################################################################
#
# If this CIF has been generated from an entry in the Cambridge 
# Structural Database, then it will include bibliographic, chemical, 
# crystal, experimental, refinement or atomic coordinate data resulting 
# from the CCDC's data processing and validation procedures.
#
#######################################################################

data_PORLIS
_chemical_formula_moiety         'C33 H28 O1 P2'
_chemical_name_systematic        
2-(((Diphenylphosphino)methyl)(diphenyl)phosphoranylidene)-1-phenylethanone
_symmetry_cell_setting           triclinic
_symmetry_space_group_name_H-M   'P -1'
_symmetry_Int_Tables_number      2
_space_group_name_Hall           '-P 1'
loop_
_symmetry_equiv_pos_site_id
_symmetry_equiv_pos_as_xyz
1 x,y,z
2 -x,-y,-z
_cell_length_a                   10.0742(12)
_cell_length_b                   10.5950(12)
_cell_length_c                   13.7296(16)
_cell_angle_alpha                81.723(14)
_cell_angle_beta                 89.236(14)
_cell_angle_gamma                63.240(12)
_cell_volume                     1292.67
_exptl_crystal_colour            colorless
_exptl_crystal_description       block
_cell_formula_units_Z            2
_exptl_crystal_recrystallization_method 'toluene/petroleum ether'
loop_
_atom_site_label
_atom_site_type_symbol
_atom_site_fract_x
_atom_site_fract_y
_atom_site_fract_z
C1 C 0.3645(2) 0.8967(2) 0.41427(14)
H1 H 0.3298 0.9563 0.4629
C2 C 0.3367(2) 0.77729(19) 0.42294(14)
C3 C 0.2616(2) 0.74941(19) 0.51330(14)
C4 C 0.1675(2) 0.8569(2) 0.56453(15)
H2 H 0.1454 0.9524 0.5410
C5 C 0.1060(2) 0.8255(2) 0.64942(16)
H3 H 0.0415 0.8995 0.6827
C6 C 0.1393(2) 0.6852(2) 0.68533(16)
H4 H 0.1001 0.6633 0.7442
C7 C 0.2300(3) 0.5780(2) 0.63478(17)
H5 H 0.2517 0.4827 0.6588
C8 C 0.2897(2) 0.6093(2) 0.54864(15)
H6 H 0.3497 0.5352 0.5138
C9 C 0.6586(2) 0.85437(19) 0.34021(14)
C10 C 0.7479(2) 0.8640(2) 0.26497(17)
H7 H 0.7040 0.9100 0.2016
C11 C 0.9003(3) 0.8076(3) 0.28107(19)
H8 H 0.9592 0.8160 0.2293
C12 C 0.9645(3) 0.7394(3) 0.37269(19)
H9 H 1.0681 0.7012 0.3844
C13 C 0.8780(3) 0.7266(2) 0.44750(19)
H10 H 0.9231 0.6782 0.5102
C14 C 0.7251(3) 0.7841(2) 0.43209(15)
H11 H 0.6668 0.7752 0.4841
C15 C 0.3994(2) 1.13102(19) 0.31025(13)
C16 C 0.2477(2) 1.2221(2) 0.30163(15)
H12 H 0.1793 1.1847 0.2998
C17 C 0.1971(3) 1.3686(2) 0.29577(16)
H13 H 0.0943 1.4304 0.2896
C18 C 0.2977(3) 1.4232(2) 0.29904(16)
H14 H 0.2633 1.5222 0.2961
C19 C 0.4477(3) 1.3338(2) 0.30654(16)
H15 H 0.5156 1.3718 0.3080
C20 C 0.4994(2) 1.1877(2) 0.31191(15)
H16 H 0.6024 1.1268 0.3167
C21 C 0.4239(2) 0.89324(19) 0.20694(14)
H17 H 0.4568 0.7898 0.2170
H18 H 0.4868 0.9130 0.1583
C22 C 0.2238(2) 1.13578(18) 0.06806(14)
C23 C 0.0867(2) 1.2272(2) 0.01921(16)
H19 H 0.0040 1.2103 0.0334
C24 C 0.0701(3) 1.3424(2) -0.04993(17)
H20 H -0.0228 1.4019 -0.0837
C25 C 0.1892(3) 1.3704(2) -0.06948(17)
H21 H 0.1779 1.4485 -0.1169
C26 C 0.3253(3) 1.2839(2) -0.01958(16)
H22 H 0.4062 1.3044 -0.0317
C27 C 0.3426(2) 1.16704(19) 0.04830(15)
H23 H 0.4358 1.1078 0.0816
C28 C 0.2561(2) 0.85706(19) 0.06745(14)
C29 C 0.2909(2) 0.7165(2) 0.10813(15)
H24 H 0.2959 0.6911 0.1769
C30 C 0.3181(2) 0.6146(2) 0.04820(16)
H25 H 0.3420 0.5201 0.0763
C31 C 0.3103(2) 0.6510(2) -0.05247(17)
H26 H 0.3315 0.5808 -0.0931
C32 C 0.2716(2) 0.7900(2) -0.09373(15)
H27 H 0.2631 0.8154 -0.1627
C33 C 0.2452(2) 0.8922(2) -0.03393(14)
H28 H 0.2194 0.9869 -0.0626
O1 O 0.3715(2) 0.69169(15) 0.36235(11)
P1 P 0.45717(6) 0.94106(5) 0.32140(4)
P2 P 0.22999(6) 0.98347(5) 0.15356(4)
loop_
_geom_bond_atom_site_label_1
_geom_bond_atom_site_label_2
_geom_bond_site_symmetry_1
_geom_bond_site_symmetry_2
C1 H1 1_555 1_555
C2 C1 1_555 1_555
C3 C2 1_555 1_555
C4 C3 1_555 1_555
H2 C4 1_555 1_555
C5 C4 1_555 1_555
H3 C5 1_555 1_555
C6 C5 1_555 1_555
H4 C6 1_555 1_555
C7 C6 1_555 1_555
H5 C7 1_555 1_555
C8 C3 1_555 1_555
H6 C8 1_555 1_555
C9 C10 1_555 1_555
C10 H7 1_555 1_555
C11 C10 1_555 1_555
H8 C11 1_555 1_555
C12 C11 1_555 1_555
H9 C12 1_555 1_555
C13 C12 1_555 1_555
H10 C13 1_555 1_555
C14 C9 1_555 1_555
H11 C14 1_555 1_555
C15 C16 1_555 1_555
C16 H12 1_555 1_555
C17 C16 1_555 1_555
H13 C17 1_555 1_555
C18 C17 1_555 1_555
H14 C18 1_555 1_555
C19 C18 1_555 1_555
H15 C19 1_555 1_555
C20 C15 1_555 1_555
H16 C20 1_555 1_555
C21 H17 1_555 1_555
H18 C21 1_555 1_555
C22 C23 1_555 1_555
C23 H19 1_555 1_555
C24 C23 1_555 1_555
H20 C24 1_555 1_555
C25 C24 1_555 1_555
H21 C25 1_555 1_555
C26 C25 1_555 1_555
H22 C26 1_555 1_555
C27 C22 1_555 1_555
H23 C27 1_555 1_555
C28 C29 1_555 1_555
C29 H24 1_555 1_555
C30 C29 1_555 1_555
H25 C30 1_555 1_555
C31 C30 1_555 1_555
H26 C31 1_555 1_555
C32 C31 1_555 1_555
H27 C32 1_555 1_555
C33 C28 1_555 1_555
H28 C33 1_555 1_555
O1 C2 1_555 1_555
P1 C1 1_555 1_555
P2 C21 1_555 1_555
C7 C8 1_555 1_555
C9 P1 1_555 1_555
C13 C14 1_555 1_555
C15 P1 1_555 1_555
C19 C20 1_555 1_555
C21 P1 1_555 1_555
C22 P2 1_555 1_555
C26 C27 1_555 1_555
C28 P2 1_555 1_555
C32 C33 1_555 1_555

#END
