
#######################################################################
#
#                 Cambridge Crystallographic Data Centre
#                                CCDC 
#
#######################################################################
#
# If this CIF has been generated from an entry in the Cambridge 
# Structural Database, then it will include bibliographic, chemical, 
# crystal, experimental, refinement or atomic coordinate data resulting 
# from the CCDC's data processing and validation procedures.
#
#######################################################################

data_PORQET
_chemical_formula_moiety         'C35 H32 N4 O2 S1,C3 H6 O1'
_chemical_name_systematic        
"(5S*,4'R*,2'Z,5'E)-Methyl 5'-(iso-butylidene)-1,3,4-triphenyl-2'-(phenylimino)-1,4,4',5'-tetrahydro-2'H-spiro(1,2,4-triazole-5,3'-thiophene)-4'-carboxylate acetone solvate"
_symmetry_cell_setting           monoclinic
_symmetry_space_group_name_H-M   'P 21/c'
_symmetry_Int_Tables_number      14
_space_group_name_Hall           '-P 2ybc'
loop_
_symmetry_equiv_pos_site_id
_symmetry_equiv_pos_as_xyz
1 x,y,z
2 -x,1/2+y,1/2-z
3 -x,-y,-z
4 x,1/2-y,1/2+z
_cell_length_a                   10.7265(3)
_cell_length_b                   27.9714(8)
_cell_length_c                   12.3434(4)
_cell_angle_alpha                90
_cell_angle_beta                 109.745(2)
_cell_angle_gamma                90
_cell_volume                     3485.71
_exptl_crystal_colour            yellow
_exptl_crystal_description       block
_chemical_melting_point          '148-149 deg.C'
_cell_formula_units_Z            4
_exptl_crystal_recrystallization_method 'ethyl acetate/hexane'
loop_
_atom_site_label
_atom_site_type_symbol
_atom_site_fract_x
_atom_site_fract_y
_atom_site_fract_z
C1 C 0.92816(16) 0.12235(6) 0.54063(15)
C2 C 0.91229(18) 0.07935(7) 0.48235(17)
H1 H 0.8493 0.0576 0.4880
C3 C 0.9892(2) 0.06850(10) 0.4159(2)
H2 H 0.9764 0.0398 0.3755
C4 C 1.0852(2) 0.10017(11) 0.4095(2)
H3 H 1.1371 0.0929 0.3648
C5 C 1.1035(2) 0.14226(9) 0.4690(2)
H4 H 1.1690 0.1634 0.4655
C6 C 1.02498(19) 0.15368(7) 0.5348(2)
H5 H 1.0377 0.1824 0.5749
C7 C 0.78638(14) 0.16873(5) 0.60845(13)
C8 C 0.70483(14) 0.17327(5) 0.69017(12)
C9 C 0.66032(15) 0.22672(5) 0.68965(13)
H6 H 0.7157 0.2412 0.7623
C10 C 0.51830(16) 0.22890(5) 0.68666(13)
C11 C 0.3837(2) 0.21941(9) 0.80255(19)
H7 H 0.3374 0.2486 0.7730
H8 H 0.3924 0.2160 0.8821
H9 H 0.3349 0.1928 0.7596
C12 C 0.68536(15) 0.25390(5) 0.59306(13)
C13 C 0.66263(17) 0.29987(6) 0.56959(14)
H10 H 0.6813 0.3115 0.5062
C14 C 0.60956(19) 0.33524(6) 0.63512(15)
H11 H 0.5826 0.3177 0.6922
C15 C 0.7183(3) 0.37006(9) 0.6983(3)
H12 H 0.7936 0.3526 0.7467
H13 H 0.6865 0.3911 0.7448
H14 H 0.7435 0.3885 0.6435
C16 C 0.4897(3) 0.36177(8) 0.5562(2)
H15 H 0.5126 0.3773 0.4962
H16 H 0.4616 0.3853 0.5998
H17 H 0.4190 0.3395 0.5228
C17 C 0.89491(14) 0.17263(6) 0.88252(13)
C18 C 0.96924(17) 0.20709(7) 0.84997(17)
H18 H 0.9390 0.2197 0.7760
C19 C 1.0886(2) 0.22242(8) 0.9285(2)
H19 H 1.1388 0.2450 0.9061
C20 C 1.1334(2) 0.20497(10) 1.0383(2)
H20 H 1.2134 0.2156 1.0904
C21 C 1.0592(2) 0.17165(10) 1.07064(19)
H21 H 1.0889 0.1601 1.1457
C22 C 0.94124(17) 0.15482(7) 0.99414(15)
H22 H 0.8931 0.1317 1.0172
C23 C 0.60522(14) 0.11037(5) 0.75223(12)
C24 C 0.50593(15) 0.07497(5) 0.75714(13)
C25 C 0.54331(18) 0.03829(6) 0.83783(14)
H23 H 0.6305 0.0362 0.8874
C26 C 0.4507(2) 0.00492(6) 0.84439(16)
H24 H 0.4761 -0.0196 0.8983
C27 C 0.3223(2) 0.00779(8) 0.77200(19)
H25 H 0.2608 -0.0149 0.7764
C28 C 0.28390(19) 0.04411(8) 0.69298(19)
H26 H 0.1963 0.0462 0.6446
C29 C 0.37517(16) 0.07759(7) 0.68518(16)
H27 H 0.3486 0.1021 0.6312
C30 C 0.54075(14) 0.12005(5) 0.54050(12)
C31 C 0.46539(17) 0.14859(7) 0.45109(14)
H28 H 0.4508 0.1805 0.4642
C32 C 0.4115(2) 0.12933(8) 0.34139(15)
H29 H 0.3612 0.1486 0.2809
C33 C 0.4316(2) 0.08236(8) 0.32166(16)
H30 H 0.3929 0.0695 0.2485
C34 C 0.5090(2) 0.05420(7) 0.40976(17)
H31 H 0.5239 0.0224 0.3958
C35 C 0.56477(18) 0.07292(6) 0.51931(15)
H32 H 0.6183 0.0539 0.5786
N1 N 0.85029(13) 0.13052(5) 0.61163(12)
N2 N 0.77570(12) 0.15573(5) 0.80602(11)
N3 N 0.59209(11) 0.13911(4) 0.65558(10)
N4 N 0.70691(12) 0.12015(4) 0.84035(10)
O1 O 0.42272(11) 0.23639(5) 0.60333(10)
O2 O 0.51375(12) 0.22081(5) 0.79184(10)
S1 S 0.76586(5) 0.218436(16) 0.51747(4)
C36 C 0.1448(6) 0.0577(2) 0.9439(6)
H33 H 0.1111 0.0725 0.9984
H34 H 0.1465 0.0806 0.8865
H35 H 0.2329 0.0461 0.9830
C37 C 0.0588(6) 0.01739(18) 0.8884(4)
C38 C -0.0704(5) 0.02760(17) 0.8074(4)
H36 H -0.1148 -0.0018 0.7777
H37 H -0.0616 0.0463 0.7452
H38 H -0.1209 0.0451 0.8452
O3 O 0.0953(3) -0.02371(11) 0.9078(3)
loop_
_geom_bond_atom_site_label_1
_geom_bond_atom_site_label_2
_geom_bond_site_symmetry_1
_geom_bond_site_symmetry_2
C1 C2 1_555 1_555
C2 H1 1_555 1_555
C3 C2 1_555 1_555
H2 C3 1_555 1_555
C4 C3 1_555 1_555
H3 C4 1_555 1_555
C5 C4 1_555 1_555
H4 C5 1_555 1_555
C6 C1 1_555 1_555
H5 C6 1_555 1_555
C7 C8 1_555 1_555
C8 C9 1_555 1_555
C9 H6 1_555 1_555
C10 C9 1_555 1_555
C11 H7 1_555 1_555
H8 C11 1_555 1_555
H9 C11 1_555 1_555
C12 C9 1_555 1_555
C13 C12 1_555 1_555
H10 C13 1_555 1_555
C14 C13 1_555 1_555
H11 C14 1_555 1_555
C15 C14 1_555 1_555
H12 C15 1_555 1_555
H13 C15 1_555 1_555
H14 C15 1_555 1_555
C16 C14 1_555 1_555
H15 C16 1_555 1_555
H16 C16 1_555 1_555
H17 C16 1_555 1_555
C17 C18 1_555 1_555
C18 H18 1_555 1_555
C19 C18 1_555 1_555
H19 C19 1_555 1_555
C20 C19 1_555 1_555
H20 C20 1_555 1_555
C21 C20 1_555 1_555
H21 C21 1_555 1_555
C22 C17 1_555 1_555
H22 C22 1_555 1_555
C23 C24 1_555 1_555
C24 C25 1_555 1_555
C25 H23 1_555 1_555
C26 C25 1_555 1_555
H24 C26 1_555 1_555
C27 C26 1_555 1_555
H25 C27 1_555 1_555
C28 C27 1_555 1_555
H26 C28 1_555 1_555
C29 C24 1_555 1_555
H27 C29 1_555 1_555
C30 C31 1_555 1_555
C31 H28 1_555 1_555
C32 C31 1_555 1_555
H29 C32 1_555 1_555
C33 C32 1_555 1_555
H30 C33 1_555 1_555
C34 C33 1_555 1_555
H31 C34 1_555 1_555
C35 C30 1_555 1_555
H32 C35 1_555 1_555
C36 H33 1_555 1_555
H34 C36 1_555 1_555
H35 C36 1_555 1_555
C37 C36 1_555 1_555
C38 C37 1_555 1_555
H36 C38 1_555 1_555
H37 C38 1_555 1_555
H38 C38 1_555 1_555
N1 C1 1_555 1_555
N2 C8 1_555 1_555
N3 C8 1_555 1_555
N4 C23 1_555 1_555
O1 C10 1_555 1_555
O2 C10 1_555 1_555
O3 C37 1_555 1_555
S1 C7 1_555 1_555
C5 C6 1_555 1_555
C7 N1 1_555 1_555
C11 O2 1_555 1_555
C12 S1 1_555 1_555
C17 N2 1_555 1_555
C21 C22 1_555 1_555
C23 N3 1_555 1_555
C28 C29 1_555 1_555
C30 N3 1_555 1_555
C34 C35 1_555 1_555
N2 N4 1_555 1_555

#END
