
#######################################################################
#
#                 Cambridge Crystallographic Data Centre
#                                CCDC 
#
#######################################################################
#
# If this CIF has been generated from an entry in the Cambridge 
# Structural Database, then it will include bibliographic, chemical, 
# crystal, experimental, refinement or atomic coordinate data resulting 
# from the CCDC's data processing and validation procedures.
#
#######################################################################

data_PORQOD
_chemical_formula_moiety         'C35 H32 N4 O2 S1'
_chemical_name_systematic        
"(Z) Methyl 5'-(isobutyl)-1,3,4-triphenyl-2'-(phenylimino)-1,4-dihydro-2'H-spiro(1,2,4-triazole-5,3'-thiophene)-4'-carboxylate"
_symmetry_cell_setting           orthorhombic
_symmetry_space_group_name_H-M   'P 21 21 21'
_symmetry_Int_Tables_number      19
_space_group_name_Hall           'P 2ac 2ab'
loop_
_symmetry_equiv_pos_site_id
_symmetry_equiv_pos_as_xyz
1 x,y,z
2 1/2+x,1/2-y,-z
3 -x,1/2+y,1/2-z
4 1/2-x,-y,1/2+z
_cell_length_a                   13.3539(19)
_cell_length_b                   13.481(2)
_cell_length_c                   16.861(2)
_cell_angle_alpha                90
_cell_angle_beta                 90
_cell_angle_gamma                90
_cell_volume                     3035.38
_exptl_crystal_colour            red
_exptl_crystal_description       block
_chemical_melting_point          '154-155 deg.C'
_cell_formula_units_Z            4
_exptl_crystal_recrystallization_method 'ethyl acetate/hexane'
loop_
_atom_site_label
_atom_site_type_symbol
_atom_site_fract_x
_atom_site_fract_y
_atom_site_fract_z
S1 S 0.82946(3) 0.42046(3) 0.11641(2)
O1 O 0.65342(8) 0.14799(9) 0.21766(8)
O2 O 0.78199(8) 0.06328(8) 0.16761(7)
N1 N 0.96647(9) 0.17338(9) 0.16946(7)
N2 N 1.01311(8) 0.09648(8) 0.12862(7)
N3 N 0.89684(9) 0.16475(9) 0.04821(7)
N4 N 1.01757(9) 0.35098(9) 0.08278(7)
C1 C 0.89361(10) 0.22632(10) 0.12056(8)
C2 C 0.97308(10) 0.09491(10) 0.05876(8)
C3 C 0.92792(10) 0.33384(10) 0.10222(8)
C4 C 0.75063(10) 0.32792(11) 0.15621(8)
C5 C 0.78929(10) 0.23555(11) 0.15627(8)
C6 C 1.00766(10) 0.20715(10) 0.24076(8)
C7 C 0.97905(11) 0.29742(11) 0.27435(8)
H1 H 0.9300 0.3372 0.2488
C8 C 1.02208(12) 0.32954(12) 0.34515(9)
H2 H 1.0026 0.3915 0.3672
C9 C 1.09283(12) 0.27206(12) 0.38360(10)
H3 H 1.1223 0.2940 0.4318
C10 C 1.11999(12) 0.18197(12) 0.35063(9)
H4 H 1.1680 0.1418 0.3771
C11 C 1.07883(11) 0.14885(11) 0.27985(9)
H5 H 1.0989 0.0870 0.2581
C12 C 0.99962(11) 0.01860(10) 0.00037(8)
C13 C 1.09651(12) -0.02032(11) 0.00144(9)
H6 H 1.1450 0.0062 0.0368
C14 C 1.12215(13) -0.09735(13) -0.04877(10)
H7 H 1.1878 -0.1245 -0.0471
C15 C 1.05226(15) -0.13497(12) -0.10138(10)
H8 H 1.0703 -0.1875 -0.1361
C16 C 0.95691(15) -0.09672(13) -0.10363(10)
H9 H 0.9092 -0.1229 -0.1398
C17 C 0.93013(13) -0.01970(12) -0.05292(9)
H10 H 0.8642 0.0068 -0.0547
C18 C 0.86935(10) 0.20702(10) -0.02659(8)
C19 C 0.94240(11) 0.23948(11) -0.07956(9)
H11 H 1.0113 0.2337 -0.0663
C20 C 0.91446(12) 0.28029(12) -0.15171(9)
H12 H 0.9642 0.3013 -0.1883
C21 C 0.81336(12) 0.29047(12) -0.17050(9)
H13 H 0.7942 0.3189 -0.2198
C22 C 0.74114(11) 0.25928(11) -0.11759(10)
H14 H 0.6723 0.2668 -0.1303
C23 C 0.76883(11) 0.21687(11) -0.04568(9)
H15 H 0.7189 0.1947 -0.0097
C24 C 1.04997(11) 0.45018(11) 0.06941(9)
C25 C 1.01581(13) 0.50530(12) 0.00555(10)
H16 H 0.9686 0.4775 -0.0303
C26 C 1.05054(15) 0.60115(13) -0.00602(11)
H17 H 1.0269 0.6390 -0.0497
C27 C 1.11959(13) 0.64192(13) 0.04581(11)
H18 H 1.1440 0.7073 0.0374
C28 C 1.15280(13) 0.58722(13) 0.10963(11)
H19 H 1.1991 0.6155 0.1459
C29 C 1.11893(12) 0.49090(12) 0.12110(11)
H20 H 1.1432 0.4530 0.1645
C30 C 0.65100(10) 0.36415(11) 0.18541(9)
H21 H 0.6073 0.3061 0.1949
H22 H 0.6196 0.4046 0.1432
C31 C 0.65552(11) 0.42633(13) 0.26180(9)
H23 H 0.6961 0.4873 0.2514
C32 C 0.54891(14) 0.45722(14) 0.28331(11)
H24 H 0.5089 0.3980 0.2947
H25 H 0.5190 0.4934 0.2388
H26 H 0.5504 0.5001 0.3302
C33 C 0.70298(14) 0.36920(18) 0.33053(10)
H27 H 0.7056 0.4118 0.3776
H28 H 0.7710 0.3490 0.3159
H29 H 0.6627 0.3102 0.3422
C34 C 0.73370(11) 0.14681(11) 0.18383(9)
C35 C 0.73030(13) -0.02732(12) 0.18881(12)
H30 H 0.7079 -0.0233 0.2441
H31 H 0.7758 -0.0838 0.1826
H32 H 0.6721 -0.0362 0.1541
loop_
_geom_bond_atom_site_label_1
_geom_bond_atom_site_label_2
_geom_bond_site_symmetry_1
_geom_bond_site_symmetry_2
S1 C3 1_555 1_555
O1 C34 1_555 1_555
O2 C34 1_555 1_555
N1 N2 1_555 1_555
N2 C2 1_555 1_555
N3 C1 1_555 1_555
N4 C3 1_555 1_555
C1 N1 1_555 1_555
C2 N3 1_555 1_555
C3 C1 1_555 1_555
C4 S1 1_555 1_555
C5 C1 1_555 1_555
C6 N1 1_555 1_555
C7 C6 1_555 1_555
H1 C7 1_555 1_555
C8 C7 1_555 1_555
H2 C8 1_555 1_555
C9 C8 1_555 1_555
H3 C9 1_555 1_555
C10 C9 1_555 1_555
H4 C10 1_555 1_555
C11 C6 1_555 1_555
H5 C11 1_555 1_555
C12 C2 1_555 1_555
C13 C12 1_555 1_555
H6 C13 1_555 1_555
C14 C13 1_555 1_555
H7 C14 1_555 1_555
C15 C14 1_555 1_555
H8 C15 1_555 1_555
C16 C15 1_555 1_555
H9 C16 1_555 1_555
C17 C12 1_555 1_555
H10 C17 1_555 1_555
C18 N3 1_555 1_555
C19 C18 1_555 1_555
H11 C19 1_555 1_555
C20 C19 1_555 1_555
H12 C20 1_555 1_555
C21 C20 1_555 1_555
H13 C21 1_555 1_555
C22 C21 1_555 1_555
H14 C22 1_555 1_555
C23 C18 1_555 1_555
H15 C23 1_555 1_555
C24 N4 1_555 1_555
C25 C24 1_555 1_555
H16 C25 1_555 1_555
C26 C25 1_555 1_555
H17 C26 1_555 1_555
C27 C26 1_555 1_555
H18 C27 1_555 1_555
C28 C27 1_555 1_555
H19 C28 1_555 1_555
C29 C24 1_555 1_555
H20 C29 1_555 1_555
C30 C4 1_555 1_555
H21 C30 1_555 1_555
H22 C30 1_555 1_555
C31 C30 1_555 1_555
H23 C31 1_555 1_555
C32 C31 1_555 1_555
H24 C32 1_555 1_555
H25 C32 1_555 1_555
H26 C32 1_555 1_555
C33 C31 1_555 1_555
H27 C33 1_555 1_555
H28 C33 1_555 1_555
H29 C33 1_555 1_555
C34 C5 1_555 1_555
C35 O2 1_555 1_555
H30 C35 1_555 1_555
H31 C35 1_555 1_555
H32 C35 1_555 1_555
C4 C5 1_555 1_555
C10 C11 1_555 1_555
C16 C17 1_555 1_555
C22 C23 1_555 1_555
C28 C29 1_555 1_555

#END
