
#######################################################################
#
#                 Cambridge Crystallographic Data Centre
#                                CCDC 
#
#######################################################################
#
# If this CIF has been generated from an entry in the Cambridge 
# Structural Database, then it will include bibliographic, chemical, 
# crystal, experimental, refinement or atomic coordinate data resulting 
# from the CCDC's data processing and validation procedures.
#
#######################################################################

data_PORSEW
_chemical_name_common            'tetraethoxy bis-bispidine'
_chemical_formula_moiety         'C26 H48 N4 O4'
_chemical_name_systematic        
9,9,18,18-tetraethoxy-3,6,12,15-tetraazapentacyclo[13.3.1.1^3,17^.1^6,10^.1^8,12^]docosane
_symmetry_cell_setting           triclinic
_symmetry_space_group_name_H-M   'P -1'
_symmetry_Int_Tables_number      2
_space_group_name_Hall           '-P 1'
loop_
_symmetry_equiv_pos_site_id
_symmetry_equiv_pos_as_xyz
1 x,y,z
2 -x,-y,-z
_cell_length_a                   7.6273(8)
_cell_length_b                   9.0779(10)
_cell_length_c                   10.6919(12)
_cell_angle_alpha                68.6580(10)
_cell_angle_beta                 78.5840(10)
_cell_angle_gamma                83.1500(10)
_cell_volume                     674.992
_exptl_crystal_colour            colorless
_exptl_crystal_description       Block
_chemical_melting_point          '455 K'
_cell_formula_units_Z            1
_exptl_crystal_recrystallization_method Hexane
loop_
_atom_site_label
_atom_site_type_symbol
_atom_site_fract_x
_atom_site_fract_y
_atom_site_fract_z
O1 O 0.06226(12) 0.43650(10) 0.22339(8)
O2 O -0.19740(12) 0.50331(10) 0.35196(8)
N1 N 0.17152(13) 0.81028(12) 0.04506(10)
N2 N -0.16752(14) 0.89745(12) 0.17798(10)
C1 C 0.2130(3) 0.1873(2) 0.30926(19)
H1 H 0.2635 0.1132 0.3877
H2 H 0.3077 0.2170 0.2292
H3 H 0.1191 0.1367 0.2911
C2 C 0.13564(19) 0.33067(16) 0.33899(14)
H4 H 0.0406 0.3016 0.4203
H5 H 0.2296 0.3825 0.3576
C3 C -0.3907(2) 0.29132(18) 0.46870(16)
H6 H -0.4661 0.2186 0.4570
H7 H -0.4643 0.3542 0.5192
H8 H -0.2963 0.2304 0.5195
C4 C -0.30731(18) 0.39965(16) 0.33149(14)
H9 H -0.2339 0.3371 0.2792
H10 H -0.4017 0.4620 0.2795
C5 C -0.29359(18) 1.02522(15) 0.19174(13)
H11 H -0.2448 1.0826 0.2391
H12 H -0.4070 0.9803 0.2486
C6 C 0.20947(17) 0.73069(15) 0.18248(13)
H13 H 0.2690 0.8039 0.2083
H14 H 0.2933 0.6381 0.1844
C7 C 0.33249(17) 0.85788(15) -0.05406(13)
H15 H 0.3987 0.7626 -0.0674
H16 H 0.4103 0.9073 -0.0181
C8 C -0.09476(17) 0.80968(14) 0.30194(12)
H17 H -0.1943 0.7648 0.3769
H18 H -0.0349 0.8834 0.3270
C9 C 0.03979(16) 0.67503(14) 0.28684(12)
H19 H 0.0760 0.6144 0.3775
C10 C -0.23971(17) 0.79605(15) 0.12440(13)
H20 H -0.2730 0.8607 0.0347
H21 H -0.3498 0.7503 0.1865
C11 C -0.10685(16) 0.66220(14) 0.10837(12)
H22 H -0.1674 0.5927 0.0777
C12 C 0.06028(17) 0.72267(15) 0.00344(12)
H23 H 0.1325 0.6313 -0.0128
H24 H 0.0230 0.7921 -0.0837
C13 C -0.05180(16) 0.56322(14) 0.24531(12)
O1A O -0.06226(12) 1.56350(10) -0.22339(8)
O2A O 0.19740(12) 1.49669(10) -0.35196(8)
N1A N -0.17152(13) 1.18972(12) -0.04506(10)
N2A N 0.16752(14) 1.10255(12) -0.17798(10)
C1A C -0.2130(3) 1.8127(2) -0.30926(19)
H1A H -0.2635 1.8868 -0.3877
H2A H -0.3077 1.7830 -0.2292
H3A H -0.1191 1.8633 -0.2911
C2A C -0.13564(19) 1.66933(16) -0.33899(14)
H4A H -0.0406 1.6984 -0.4203
H5A H -0.2296 1.6175 -0.3576
C3A C 0.3907(2) 1.70868(18) -0.46870(16)
H6A H 0.4661 1.7814 -0.4570
H7A H 0.4643 1.6458 -0.5192
H8A H 0.2963 1.7696 -0.5195
C4A C 0.30731(18) 1.60035(16) -0.33149(14)
H9A H 0.2339 1.6629 -0.2792
H10A H 0.4017 1.5380 -0.2795
C5A C 0.29359(18) 0.97478(15) -0.19174(13)
H11A H 0.2448 0.9174 -0.2391
H12A H 0.4070 1.0197 -0.2486
C6A C -0.20947(17) 1.26931(15) -0.18248(13)
H13A H -0.2690 1.1961 -0.2083
H14A H -0.2933 1.3619 -0.1844
C7A C -0.33249(17) 1.14212(15) 0.05406(13)
H15A H -0.3987 1.2374 0.0674
H16A H -0.4103 1.0927 0.0181
C8A C 0.09476(17) 1.19032(14) -0.30194(12)
H17A H 0.1943 1.2352 -0.3769
H18A H 0.0349 1.1166 -0.3270
C9A C -0.03979(16) 1.32497(14) -0.28684(12)
H19A H -0.0760 1.3856 -0.3775
C10A C 0.23971(17) 1.20395(15) -0.12440(13)
H20A H 0.2730 1.1393 -0.0347
H21A H 0.3498 1.2497 -0.1865
C11A C 0.10685(16) 1.33780(14) -0.10837(12)
H22A H 0.1674 1.4073 -0.0777
C12A C -0.06028(17) 1.27733(15) -0.00344(12)
H23A H -0.1325 1.3687 0.0128
H24A H -0.0230 1.2079 0.0837
C13A C 0.05180(16) 1.43678(14) -0.24531(12)
loop_
_geom_bond_atom_site_label_1
_geom_bond_atom_site_label_2
_geom_bond_site_symmetry_1
_geom_bond_site_symmetry_2
O1 C2 1_555 1_555
O2 C4 1_555 1_555
N1 C6 1_555 1_555
N2 C5 1_555 1_555
C1 H1 1_555 1_555
H2 C1 1_555 1_555
H3 C1 1_555 1_555
C2 C1 1_555 1_555
H4 C2 1_555 1_555
H5 C2 1_555 1_555
C3 H6 1_555 1_555
H7 C3 1_555 1_555
H8 C3 1_555 1_555
C4 C3 1_555 1_555
H9 C4 1_555 1_555
H10 C4 1_555 1_555
C5 H11 1_555 1_555
H12 C5 1_555 1_555
C6 H13 1_555 1_555
H14 C6 1_555 1_555
C7 N1 1_555 1_555
H15 C7 1_555 1_555
H16 C7 1_555 1_555
C8 N2 1_555 1_555
H17 C8 1_555 1_555
H18 C8 1_555 1_555
C9 C6 1_555 1_555
H19 C9 1_555 1_555
C10 N2 1_555 1_555
H20 C10 1_555 1_555
H21 C10 1_555 1_555
C11 C10 1_555 1_555
H22 C11 1_555 1_555
C12 N1 1_555 1_555
H23 C12 1_555 1_555
H24 C12 1_555 1_555
C13 O1 1_555 1_555
O1A C2A 1_555 1_555
O2A C4A 1_555 1_555
N1A C6A 1_555 1_555
N2A C5A 1_555 1_555
C1A H1A 1_555 1_555
H2A C1A 1_555 1_555
H3A C1A 1_555 1_555
C2A C1A 1_555 1_555
H4A C2A 1_555 1_555
H5A C2A 1_555 1_555
C3A H6A 1_555 1_555
H7A C3A 1_555 1_555
H8A C3A 1_555 1_555
C4A C3A 1_555 1_555
H9A C4A 1_555 1_555
H10A C4A 1_555 1_555
C5A C7 1_555 1_555
H11A C5A 1_555 1_555
H12A C5A 1_555 1_555
C6A H13A 1_555 1_555
H14A C6A 1_555 1_555
C7A C5 1_555 1_555
H15A C7A 1_555 1_555
H16A C7A 1_555 1_555
C8A N2A 1_555 1_555
H17A C8A 1_555 1_555
H18A C8A 1_555 1_555
C9A C6A 1_555 1_555
H19A C9A 1_555 1_555
C10A N2A 1_555 1_555
H20A C10A 1_555 1_555
H21A C10A 1_555 1_555
C11A C10A 1_555 1_555
H22A C11A 1_555 1_555
C12A N1A 1_555 1_555
H23A C12A 1_555 1_555
H24A C12A 1_555 1_555
C13A O1A 1_555 1_555
O2 C13 1_555 1_555
C8 C9 1_555 1_555
C9 C13 1_555 1_555
C11 C12 1_555 1_555
C11 C13 1_555 1_555
O2A C13A 1_555 1_555
N1A C7A 1_555 1_555
C8A C9A 1_555 1_555
C9A C13A 1_555 1_555
C11A C12A 1_555 1_555
C11A C13A 1_555 1_555

#END
