
#######################################################################
#
#                 Cambridge Crystallographic Data Centre
#                                CCDC 
#
#######################################################################
#
# If this CIF has been generated from an entry in the Cambridge 
# Structural Database, then it will include bibliographic, chemical, 
# crystal, experimental, refinement or atomic coordinate data resulting 
# from the CCDC's data processing and validation procedures.
#
#######################################################################

data_PORXUR
_chemical_formula_moiety         'C28 H22 N2 O2'
_chemical_name_systematic        
'2-(1,5-diphenyl-4,5-dihydro-1H-pyrazol-3-yl)-1-naphthyl acrylate'
_symmetry_cell_setting           triclinic
_symmetry_space_group_name_H-M   'P -1'
_symmetry_Int_Tables_number      2
_space_group_name_Hall           '-P 1'
loop_
_symmetry_equiv_pos_site_id
_symmetry_equiv_pos_as_xyz
1 x,y,z
2 -x,-y,-z
_cell_length_a                   8.8350(19)
_cell_length_b                   11.026(2)
_cell_length_c                   12.387(3)
_cell_angle_alpha                91.060(4)
_cell_angle_beta                 101.971(3)
_cell_angle_gamma                109.109(4)
_cell_volume                     1110.51
_exptl_crystal_description       block
_cell_formula_units_Z            2
loop_
_atom_site_label
_atom_site_type_symbol
_atom_site_fract_x
_atom_site_fract_y
_atom_site_fract_z
O1 O 0.13776(18) 0.85300(13) 0.58603(11)
O2 O -0.0654(2) 0.72219(16) 0.65668(13)
N1 N -0.0760(2) 0.71799(18) 0.39302(14)
N2 N -0.1860(2) 0.6856(2) 0.29184(14)
C1 C 0.0275(3) 0.6574(2) 0.39614(17)
C2 C -0.0017(3) 0.8248(2) 0.62515(17)
C3 C 0.2076(3) 0.7563(2) 0.58338(18)
C4 C 0.1596(3) 0.6669(2) 0.49266(17)
C5 C -0.0906(3) 0.6733(2) 0.11833(17)
C6 C 0.4128(3) 0.6668(2) 0.67675(19)
C7 C -0.1463(3) 0.6040(2) 0.21534(17)
H1 H -0.2415 0.5258 0.1881
C8 C 0.2452(3) 0.5778(2) 0.49473(19)
H2 H 0.2180 0.5179 0.4338
C9 C 0.3332(3) 0.7597(2) 0.67680(18)
C10 C -0.3252(3) 0.7222(2) 0.27378(19)
C11 C -0.0086(3) 0.5698(2) 0.29216(17)
H3 H -0.0455 0.4798 0.3066
H4 H 0.0875 0.5874 0.2607
C12 C 0.3662(3) 0.5771(2) 0.5832(2)
H5 H 0.4185 0.5166 0.5817
C13 C -0.1095(4) 0.6057(3) 0.0191(2)
H6 H -0.1645 0.5172 0.0092
C14 C -0.0565(3) 0.9374(2) 0.62411(19)
H7 H 0.0105 1.0155 0.6066
C15 C -0.3621(3) 0.7809(3) 0.3592(2)
H8 H -0.2941 0.7950 0.4298
C16 C -0.4303(3) 0.6984(3) 0.1696(2)
H9 H -0.4096 0.6565 0.1113
C17 C 0.3817(3) 0.8513(3) 0.7702(2)
H10 H 0.3329 0.9143 0.7707
C18 C -0.0115(3) 0.8043(3) 0.1288(2)
H11 H -0.0002 0.8517 0.1946
C19 C -0.0459(5) 0.6699(5) -0.0676(3)
H12 H -0.0586 0.6244 -0.1347
C20 C 0.5356(3) 0.6672(3) 0.7714(2)
H13 H 0.5884 0.6066 0.7724
C21 C -0.5669(3) 0.7378(3) 0.1534(3)
H14 H -0.6370 0.7229 0.0836
C22 C 0.5000(4) 0.8475(3) 0.8593(2)
H15 H 0.5299 0.9074 0.9205
C23 C 0.5769(3) 0.7546(3) 0.8599(2)
H16 H 0.6567 0.7530 0.9215
C24 C -0.5997(4) 0.7980(3) 0.2385(3)
H17 H -0.6908 0.8247 0.2265
C25 C -0.4974(4) 0.8188(3) 0.3416(3)
H18 H -0.5200 0.8590 0.3999
C26 C 0.0518(4) 0.8676(4) 0.0445(3)
H19 H 0.1059 0.9563 0.0537
C27 C -0.1960(4) 0.9308(3) 0.6469(2)
H20 H -0.2643 0.8533 0.6645
H21 H -0.2275 1.0035 0.6456
C28 C 0.0339(5) 0.7991(5) -0.0515(3)
H22 H 0.0775 0.8415 -0.1081
loop_
_geom_bond_atom_site_label_1
_geom_bond_atom_site_label_2
_geom_bond_site_symmetry_1
_geom_bond_site_symmetry_2
O1 C2 1_555 1_555
O2 C2 1_555 1_555
N1 N2 1_555 1_555
N2 C7 1_555 1_555
C1 N1 1_555 1_555
C2 C14 1_555 1_555
C3 O1 1_555 1_555
C4 C1 1_555 1_555
C5 C7 1_555 1_555
C6 C9 1_555 1_555
C7 H1 1_555 1_555
C8 C4 1_555 1_555
H2 C8 1_555 1_555
C9 C3 1_555 1_555
C10 N2 1_555 1_555
C11 C1 1_555 1_555
H3 C11 1_555 1_555
H4 C11 1_555 1_555
C12 C6 1_555 1_555
H5 C12 1_555 1_555
C13 C5 1_555 1_555
H6 C13 1_555 1_555
C14 H7 1_555 1_555
C15 C10 1_555 1_555
H8 C15 1_555 1_555
C16 C10 1_555 1_555
H9 C16 1_555 1_555
C17 C9 1_555 1_555
H10 C17 1_555 1_555
C18 C5 1_555 1_555
H11 C18 1_555 1_555
C19 C13 1_555 1_555
H12 C19 1_555 1_555
C20 C6 1_555 1_555
H13 C20 1_555 1_555
C21 C16 1_555 1_555
H14 C21 1_555 1_555
C22 C17 1_555 1_555
H15 C22 1_555 1_555
C23 C20 1_555 1_555
H16 C23 1_555 1_555
C24 C21 1_555 1_555
H17 C24 1_555 1_555
C25 C15 1_555 1_555
H18 C25 1_555 1_555
C26 C18 1_555 1_555
H19 C26 1_555 1_555
C27 C14 1_555 1_555
H20 C27 1_555 1_555
H21 C27 1_555 1_555
C28 C19 1_555 1_555
H22 C28 1_555 1_555
C3 C4 1_555 1_555
C7 C11 1_555 1_555
C8 C12 1_555 1_555
C22 C23 1_555 1_555
C24 C25 1_555 1_555
C26 C28 1_555 1_555

#END
