
#######################################################################
#
#                 Cambridge Crystallographic Data Centre
#                                CCDC 
#
#######################################################################
#
# If this CIF has been generated from an entry in the Cambridge 
# Structural Database, then it will include bibliographic, chemical, 
# crystal, experimental, refinement or atomic coordinate data resulting 
# from the CCDC's data processing and validation procedures.
#
#######################################################################

data_POSCUX
_chemical_formula_moiety         'C14 H6 F5 N1'
_chemical_name_systematic        7-(pentafluorophenyl)-1H-indole
_symmetry_cell_setting           monoclinic
_symmetry_space_group_name_H-M   'P 21/c'
_symmetry_Int_Tables_number      14
_space_group_name_Hall           '-P 2ybc'
loop_
_symmetry_equiv_pos_site_id
_symmetry_equiv_pos_as_xyz
1 x,y,z
2 -x,1/2+y,1/2-z
3 -x,-y,-z
4 x,1/2-y,1/2+z
_cell_length_a                   14.5694(9)
_cell_length_b                   7.4971(4)
_cell_length_c                   11.1450(5)
_cell_angle_alpha                90
_cell_angle_beta                 111.615(3)
_cell_angle_gamma                90
_cell_volume                     1131.74
_exptl_crystal_colour            colorless
_exptl_crystal_description       block
_cell_formula_units_Z            4
loop_
_atom_site_label
_atom_site_type_symbol
_atom_site_fract_x
_atom_site_fract_y
_atom_site_fract_z
F1 F 0.13680(9) 0.10044(17) 0.09978(11)
F2 F 0.17775(10) 0.08924(18) -0.11481(11)
F3 F 0.35124(10) -0.0433(2) -0.10942(12)
F4 F 0.48473(9) -0.1730(2) 0.11584(13)
F5 F 0.44623(8) -0.16283(19) 0.33151(11)
N1 N 0.10209(12) -0.1830(2) 0.25377(15)
H1 H 0.0984 -0.2022 0.1757
C1 C 0.28909(14) -0.0326(2) 0.22492(18)
C2 C 0.22339(14) 0.0284(3) 0.10726(19)
C3 C 0.24302(15) 0.0255(3) -0.00421(18)
C4 C 0.33143(16) -0.0415(3) -0.00133(19)
C5 C 0.39897(15) -0.1038(3) 0.1124(2)
C6 C 0.37787(14) -0.0985(3) 0.22286(19)
C7 C 0.26641(14) -0.0269(2) 0.34460(17)
C8 C 0.17755(13) -0.0954(2) 0.34731(18)
C9 C 0.15212(14) -0.0841(2) 0.45813(18)
C10 C 0.21905(16) -0.0071(3) 0.56961(18)
H2 H 0.2039 0.0026 0.6434
C11 C 0.30786(16) 0.0545(3) 0.56933(19)
H3 H 0.3536 0.1025 0.6445
C12 C 0.33056(15) 0.0463(3) 0.45828(19)
H4 H 0.3907 0.0916 0.4609
C13 C 0.03008(15) -0.2252(3) 0.3009(2)
H5 H -0.0283 -0.2849 0.2552
C14 C 0.05700(14) -0.1668(3) 0.4239(2)
H6 H 0.0205 -0.1781 0.4766
loop_
_geom_bond_atom_site_label_1
_geom_bond_atom_site_label_2
_geom_bond_site_symmetry_1
_geom_bond_site_symmetry_2
F1 C2 1_555 1_555
F2 C3 1_555 1_555
F3 C4 1_555 1_555
F4 C5 1_555 1_555
F5 C6 1_555 1_555
N1 H1 1_555 1_555
C1 C2 1_555 1_555
C2 C3 1_555 1_555
C3 C4 1_555 1_555
C4 C5 1_555 1_555
C5 C6 1_555 1_555
C6 C1 1_555 1_555
C7 C1 1_555 1_555
C8 N1 1_555 1_555
C9 C8 1_555 1_555
C10 C9 1_555 1_555
H2 C10 1_555 1_555
C11 C10 1_555 1_555
H3 C11 1_555 1_555
C12 C7 1_555 1_555
H4 C12 1_555 1_555
C13 N1 1_555 1_555
H5 C13 1_555 1_555
C14 C9 1_555 1_555
H6 C14 1_555 1_555
C7 C8 1_555 1_555
C11 C12 1_555 1_555
C13 C14 1_555 1_555

#END
