
#######################################################################
#
#                 Cambridge Crystallographic Data Centre
#                                CCDC 
#
#######################################################################
#
# If this CIF has been generated from an entry in the Cambridge 
# Structural Database, then it will include bibliographic, chemical, 
# crystal, experimental, refinement or atomic coordinate data resulting 
# from the CCDC's data processing and validation procedures.
#
#######################################################################

data_POSHUA
_chemical_formula_moiety         'C8 H9 O4 1-,Li1 1+,2(H2 O1)'
_chemical_name_systematic        
'Lithium hydrogen cis(4-cyclohexene-1,2-dicarboxylate) dihydrate'
_symmetry_cell_setting           monoclinic
_symmetry_space_group_name_H-M   'C 2/c'
_symmetry_Int_Tables_number      15
_space_group_name_Hall           '-C 2yn'
loop_
_symmetry_equiv_pos_site_id
_symmetry_equiv_pos_as_xyz
1 x,y,z
2 -x,y,1/2-z
3 1/2+x,1/2+y,z
4 1/2-x,1/2+y,1/2-z
5 -x,-y,-z
6 x,-y,1/2+z
7 1/2-x,1/2-y,-z
8 1/2+x,1/2-y,1/2+z
_cell_length_a                   28.276
_cell_length_b                   5.3069
_cell_length_c                   13.962
_cell_angle_alpha                90
_cell_angle_beta                 106.78
_cell_angle_gamma                90
_cell_volume                     2005.9
_cell_formula_units_Z            8
loop_
_atom_site_label
_atom_site_type_symbol
_atom_site_fract_x
_atom_site_fract_y
_atom_site_fract_z
C1 C 0.1595(1) 0.2448(3) -0.0666(1)
C2 C 0.1287(1) 0.2403(3) -0.1773(1)
C3 C 0.1631(1) 0.2953(3) -0.2416(1)
C4 C 0.2080(1) 0.1312(4) -0.2127(1)
C5 C 0.2230(1) 0.0120(4) -0.1259(1)
C6 C 0.1982(1) 0.0334(3) -0.0443(1)
C7 C 0.1283(1) 0.2574(3) 0.0047(1)
C8 C 0.1004(1) -0.0114(3) -0.2022(1)
O1 O 0.1468 0.1241(2) 0.0870(1)
O2 O 0.0913 0.3841(2) -0.0081(1)
O3 O 0.0877 -0.1172(2) -0.1344(1)
O4 O 0.0898 -0.0955(2) -0.2918(1)
H1 H 0.1783(5) 0.4059(26) -0.0557(10)
H2 H 0.1021(5) 0.3736(24) -0.1872(10)
H3 H 0.1460(6) 0.2705(29) -0.3118(12)
H4 H 0.1745(6) 0.4855(31) -0.2347(12)
H5 H 0.2283(6) 0.1132(29) -0.2611(12)
H6 H 0.2542(6) -0.0935(29) -0.1110(12)
H7 H 0.1815(5) -0.1269(27) -0.0359(11)
H8 H 0.2239(6) 0.0665(31) 0.0230(12)
H9 H 0.1247(6) 0.1378(29) 0.1264(12)
O5 O -0.0108 0.5673(2) 0.8423(1)
H10 H 0.0018(20) 0.5438(77) 0.7960(29)
H11 H -0.0243(20) 0.448(12) 0.8584(44)
O6 O 0.0351 0.1767(2) 0.5457(1)
H13 H 0.0213(15) 0.3240(81) 0.5841(32)
H14 H 0.0078(16) 0.0941(63) 0.5241(29)
Li1 Li 0.0547(1) -0.3220(6) -0.0673(2)
H12? H -0.0432(8) 0.6670(46) 0.8262(17)
H15? H 0.0541(7) 0.1056(34) 0.5867(14)
loop_
_geom_bond_atom_site_label_1
_geom_bond_atom_site_label_2
_geom_bond_site_symmetry_1
_geom_bond_site_symmetry_2
C1 C2 1_555 1_555
C2 C3 1_555 1_555
C3 C4 1_555 1_555
C4 C5 1_555 1_555
C5 C6 1_555 1_555
C6 C1 1_555 1_555
C7 C1 1_555 1_555
C8 C2 1_555 1_555
O1 C7 1_555 1_555
O2 C7 1_555 1_555
O3 C8 1_555 1_555
O4 C8 1_555 1_555
O5 H10 1_555 1_555
O6 H13 1_555 1_555
H1 C1 1_555 1_555
H2 C2 1_555 1_555
H3 C3 1_555 1_555
H4 C3 1_555 1_555
H5 C4 1_555 1_555
H6 C5 1_555 1_555
H7 C6 1_555 1_555
H8 C6 1_555 1_555
H9 O1 1_555 1_555
H11 O5 1_555 1_555
H14 O6 1_555 1_555

#END
