
#######################################################################
#
#                 Cambridge Crystallographic Data Centre
#                                CCDC 
#
#######################################################################
#
# If this CIF has been generated from an entry in the Cambridge 
# Structural Database, then it will include bibliographic, chemical, 
# crystal, experimental, refinement or atomic coordinate data resulting 
# from the CCDC's data processing and validation procedures.
#
#######################################################################

data_POSJAJ
_chemical_formula_moiety         'C30 H46 F8 N6 Na2'
_chemical_name_systematic        
bis(\m~2~-N,N-Diethyl-N'-(2,3,5,6-tetrafluorophenyl)ethylenediamine-F,F,N,N',N')-(N,N,N',N'-tetramethylethylenediamine-N,N')-di-sodium
_symmetry_cell_setting           monoclinic
_symmetry_space_group_name_H-M   'C 2/c'
_symmetry_Int_Tables_number      15
_space_group_name_Hall           '-C 2yn'
loop_
_symmetry_equiv_pos_site_id
_symmetry_equiv_pos_as_xyz
1 x,y,z
2 -x,y,1/2-z
3 1/2+x,1/2+y,z
4 1/2-x,1/2+y,1/2-z
5 -x,-y,-z
6 x,-y,1/2+z
7 1/2-x,1/2-y,-z
8 1/2+x,1/2-y,1/2+z
_cell_length_a                   16.6428(3)
_cell_length_b                   14.1155(4)
_cell_length_c                   16.2581(4)
_cell_angle_alpha                90
_cell_angle_beta                 115.765(2)
_cell_angle_gamma                90
_cell_volume                     3439.67
_exptl_crystal_colour            colorless
_exptl_crystal_description       prism
_chemical_melting_point          152-156deg.C
_cell_formula_units_Z            4
loop_
_atom_site_label
_atom_site_type_symbol
_atom_site_fract_x
_atom_site_fract_y
_atom_site_fract_z
Na1 Na 0.0000 0.37589(8) 0.2500
F1 F 0.11083(7) 0.50841(9) 0.40163(8)
N1 N 0.10539(10) 0.48468(11) 0.23681(10)
C1 C 0.09921(12) 0.46699(14) 0.14545(12)
H1 H 0.1466 0.5032 0.1382
H2 H 0.0410 0.4905 0.0993
Na2 Na 0.0000 0.59553(8) 0.2500
F2 F 0.26077(9) 0.51077(10) 0.55638(8)
N2 N 0.03325(11) 0.30360(12) 0.12383(10)
C2 C 0.10829(12) 0.36279(15) 0.12723(12)
H3 H 0.1121 0.3569 0.0684
H4 H 0.1647 0.3382 0.1758
F3 F 0.42935(7) 0.46783(9) 0.38909(8)
N3 N 0.09834(10) 0.73982(12) 0.30181(10)
C3 C 0.18659(12) 0.48451(13) 0.30834(12)
F4 F 0.28488(7) 0.46394(9) 0.23566(7)
C4 C 0.19079(12) 0.49687(13) 0.39755(13)
C5 C 0.26758(14) 0.49894(14) 0.47687(13)
C6 C 0.35100(13) 0.49013(14) 0.47866(13)
H5 H 0.4046 0.4924 0.5337
C7 C 0.35038(12) 0.47781(14) 0.39433(13)
C8 C 0.27353(12) 0.47542(14) 0.31309(12)
C9 C 0.06293(15) 0.20447(16) 0.14562(15)
H6 H 0.0987 0.1869 0.1127
H7 H 0.0099 0.1627 0.1235
C10 C 0.11811(16) 0.18759(18) 0.24685(16)
H8 H 0.1701 0.2297 0.2696
H9 H 0.1381 0.1215 0.2570
H10 H 0.0818 0.2007 0.2795
C11 C -0.04087(13) 0.30950(18) 0.03043(13)
H11 H -0.0249 0.2713 -0.0114
H12 H -0.0471 0.3761 0.0096
C12 C -0.13015(15) 0.27551(18) 0.02321(16)
H13 H -0.1260 0.2082 0.0395
H14 H -0.1759 0.2842 -0.0395
H15 H -0.1462 0.3122 0.0651
C13 C 0.04397(14) 0.82555(16) 0.29210(14)
H16 H 0.0787 0.8818 0.2903
H17 H 0.0323 0.8314 0.3466
C14 C 0.17463(15) 0.74345(17) 0.39164(14)
H18 H 0.2130 0.6884 0.3992
H19 H 0.1534 0.7428 0.4392
H20 H 0.2086 0.8016 0.3968
C15 C 0.13020(15) 0.73439(17) 0.23131(15)
H21 H 0.1620 0.7929 0.2315
H22 H 0.0793 0.7263 0.1715
H23 H 0.1707 0.6803 0.2436
F1A F -0.11083(7) 0.50841(9) 0.09837(8)
N1A N -0.10539(10) 0.48468(11) 0.26319(10)
C1A C -0.09921(12) 0.46699(14) 0.35455(12)
H1A H -0.1466 0.5032 0.3618
H2A H -0.0410 0.4905 0.4007
F2A F -0.26077(9) 0.51077(10) -0.05638(8)
N2A N -0.03325(11) 0.30360(12) 0.37617(10)
C2A C -0.10829(12) 0.36279(15) 0.37277(12)
H3A H -0.1121 0.3569 0.4316
H4A H -0.1647 0.3382 0.3242
F3A F -0.42935(7) 0.46783(9) 0.11091(8)
N3A N -0.09834(10) 0.73982(12) 0.19819(10)
C3A C -0.18659(12) 0.48451(13) 0.19166(12)
F4A F -0.28488(7) 0.46394(9) 0.26434(7)
C4A C -0.19079(12) 0.49687(13) 0.10245(13)
C5A C -0.26758(14) 0.49894(14) 0.02313(13)
C6A C -0.35100(13) 0.49013(14) 0.02134(13)
H5A H -0.4046 0.4924 -0.0337
C7A C -0.35038(12) 0.47781(14) 0.10567(13)
C8A C -0.27353(12) 0.47542(14) 0.18691(12)
C9A C -0.06293(15) 0.20447(16) 0.35438(15)
H6A H -0.0987 0.1869 0.3873
H7A H -0.0099 0.1627 0.3765
C10A C -0.11811(16) 0.18759(18) 0.25315(16)
H8A H -0.1701 0.2297 0.2304
H9A H -0.1381 0.1215 0.2430
H10A H -0.0818 0.2007 0.2205
C11A C 0.04087(13) 0.30950(18) 0.46957(13)
H11A H 0.0249 0.2713 0.5114
H12A H 0.0471 0.3761 0.4904
C12A C 0.13015(15) 0.27551(18) 0.47679(16)
H13A H 0.1260 0.2082 0.4605
H14A H 0.1759 0.2842 0.5395
H15A H 0.1462 0.3122 0.4349
C13A C -0.04397(14) 0.82555(16) 0.20790(14)
H16A H -0.0787 0.8818 0.2097
H17A H -0.0323 0.8314 0.1534
C14A C -0.17463(15) 0.74345(17) 0.10836(14)
H18A H -0.2130 0.6884 0.1008
H19A H -0.1534 0.7428 0.0608
H20A H -0.2086 0.8016 0.1032
C15A C -0.13020(15) 0.73439(17) 0.26869(15)
H21A H -0.1620 0.7929 0.2685
H22A H -0.0793 0.7263 0.3285
H23A H -0.1707 0.6803 0.2564
loop_
_geom_bond_atom_site_label_1
_geom_bond_atom_site_label_2
_geom_bond_site_symmetry_1
_geom_bond_site_symmetry_2
Na1 F1 1_555 1_555
F1 Na2 1_555 1_555
N1 Na1 1_555 1_555
C1 N1 1_555 1_555
H1 C1 1_555 1_555
H2 C1 1_555 1_555
Na2 N1 1_555 1_555
F2 C5 1_555 1_555
N2 Na1 1_555 1_555
C2 C1 1_555 1_555
H3 C2 1_555 1_555
H4 C2 1_555 1_555
F3 C7 1_555 1_555
N3 Na2 1_555 1_555
C3 N1 1_555 1_555
F4 C8 1_555 1_555
C4 F1 1_555 1_555
C5 C4 1_555 1_555
C6 C5 1_555 1_555
H5 C6 1_555 1_555
C7 C6 1_555 1_555
C8 C3 1_555 1_555
C9 N2 1_555 1_555
H6 C9 1_555 1_555
H7 C9 1_555 1_555
C10 C9 1_555 1_555
H8 C10 1_555 1_555
H9 C10 1_555 1_555
H10 C10 1_555 1_555
C11 N2 1_555 1_555
H11 C11 1_555 1_555
H12 C11 1_555 1_555
C12 C11 1_555 1_555
H13 C12 1_555 1_555
H14 C12 1_555 1_555
H15 C12 1_555 1_555
C13 N3 1_555 1_555
H16 C13 1_555 1_555
H17 C13 1_555 1_555
C14 N3 1_555 1_555
H18 C14 1_555 1_555
H19 C14 1_555 1_555
H20 C14 1_555 1_555
C15 N3 1_555 1_555
H21 C15 1_555 1_555
H22 C15 1_555 1_555
H23 C15 1_555 1_555
F1A Na1 1_555 1_555
N1A Na1 1_555 1_555
C1A N1A 1_555 1_555
H1A C1A 1_555 1_555
H2A C1A 1_555 1_555
F2A C5A 1_555 1_555
N2A Na1 1_555 1_555
C2A C1A 1_555 1_555
H3A C2A 1_555 1_555
H4A C2A 1_555 1_555
F3A C7A 1_555 1_555
N3A Na2 1_555 1_555
C3A N1A 1_555 1_555
F4A C8A 1_555 1_555
C4A F1A 1_555 1_555
C5A C4A 1_555 1_555
C6A C5A 1_555 1_555
H5A C6A 1_555 1_555
C7A C6A 1_555 1_555
C8A C3A 1_555 1_555
C9A N2A 1_555 1_555
H6A C9A 1_555 1_555
H7A C9A 1_555 1_555
C10A C9A 1_555 1_555
H8A C10A 1_555 1_555
H9A C10A 1_555 1_555
H10A C10A 1_555 1_555
C11A N2A 1_555 1_555
H11A C11A 1_555 1_555
H12A C11A 1_555 1_555
C12A C11A 1_555 1_555
H13A C12A 1_555 1_555
H14A C12A 1_555 1_555
H15A C12A 1_555 1_555
C13A C13 1_555 1_555
H16A C13A 1_555 1_555
H17A C13A 1_555 1_555
C14A N3A 1_555 1_555
H18A C14A 1_555 1_555
H19A C14A 1_555 1_555
H20A C14A 1_555 1_555
C15A N3A 1_555 1_555
H21A C15A 1_555 1_555
H22A C15A 1_555 1_555
H23A C15A 1_555 1_555
Na2 F1A 1_555 1_555
Na2 N1A 1_555 1_555
N2 C2 1_555 1_555
C3 C4 1_555 1_555
C7 C8 1_555 1_555
N2A C2A 1_555 1_555
N3A C13A 1_555 1_555
C3A C4A 1_555 1_555
C7A C8A 1_555 1_555

#END
