
#######################################################################
#
#                 Cambridge Crystallographic Data Centre
#                                CCDC 
#
#######################################################################
#
# If this CIF has been generated from an entry in the Cambridge 
# Structural Database, then it will include bibliographic, chemical, 
# crystal, experimental, refinement or atomic coordinate data resulting 
# from the CCDC's data processing and validation procedures.
#
#######################################################################

data_POSJEN
_chemical_formula_moiety         'C36 H62 F8 K2 N8'
_chemical_name_systematic        
bis(\m~2~-N,N-Diethyl-N'-(2,3,5,6-tetrafluorophenyl)ethylenediamine-F,F,N,N',N')-bis(N,N,N',N'-tetramethylethylenediamine-N,N')-di-potassium
_symmetry_cell_setting           triclinic
_symmetry_space_group_name_H-M   'P -1'
_symmetry_Int_Tables_number      2
_space_group_name_Hall           '-P 1'
loop_
_symmetry_equiv_pos_site_id
_symmetry_equiv_pos_as_xyz
1 x,y,z
2 -x,-y,-z
_cell_length_a                   10.3338(4)
_cell_length_b                   10.9026(4)
_cell_length_c                   11.5087(5)
_cell_angle_alpha                85.214(2)
_cell_angle_beta                 65.010(2)
_cell_angle_gamma                70.277(2)
_cell_volume                     1103.64
_exptl_crystal_colour            colorless
_exptl_crystal_description       plate
_chemical_melting_point          177-181deg.C
_cell_formula_units_Z            1
loop_
_atom_site_label
_atom_site_type_symbol
_atom_site_fract_x
_atom_site_fract_y
_atom_site_fract_z
K1 K 0.41486(4) 1.13784(4) 0.62339(3)
F1 F 0.36574(13) 1.13278(13) 0.39687(11)
N1 N 0.64268(16) 1.09494(15) 0.37476(14)
C1 C 0.7894(2) 1.07397(18) 0.37467(19)
H1 H 0.8641 1.0721 0.2851
H2 H 0.8228 0.9876 0.4075
F2 F 0.23998(15) 1.29267(15) 0.25846(14)
N2 N 0.70062(18) 1.17557(15) 0.59481(16)
C2 C 0.7886(2) 1.17784(19) 0.4555(2)
H3 H 0.8944 1.1657 0.4388
H4 H 0.7462 1.2648 0.4278
F3 F 0.68054(19) 1.40720(17) 0.04622(16)
N3 N 0.13737(18) 1.36756(16) 0.67201(16)
C3 C 0.59580(19) 1.17966(17) 0.29877(16)
F4 F 0.80725(15) 1.25660(15) 0.18493(14)
N4 N 0.2030(2) 1.2117(2) 0.88842(16)
C4 C 0.4475(2) 1.20061(18) 0.30837(17)
C5 C 0.3834(2) 1.2818(2) 0.2364(2)
C6 C 0.4575(3) 1.3534(2) 0.1443(2)
H5 H 0.4132 1.4093 0.0934
C7 C 0.6005(3) 1.3374(2) 0.1319(2)
C8 C 0.6672(2) 1.2573(2) 0.20443(19)
C9 C 0.6568(3) 1.3049(2) 0.6573(2)
H6 H 0.7428 1.3385 0.6183
H7 H 0.6336 1.2962 0.7497
C10 C 0.5201(3) 1.4011(2) 0.6432(3)
H8 H 0.5346 1.3964 0.5536
H9 H 0.5076 1.4897 0.6678
H10 H 0.4294 1.3796 0.6989
C11 C 0.7917(3) 1.0734(2) 0.6476(2)
H11 H 0.8740 1.1010 0.6469
H12 H 0.8393 0.9924 0.5909
C12 C 0.7026(3) 1.0436(3) 0.7826(3)
H13 H 0.6666 1.1197 0.8416
H14 H 0.7676 0.9685 0.8078
H15 H 0.6156 1.0234 0.7860
C13 C 0.0663(3) 1.4087(2) 0.8088(2)
H16 H -0.0375 1.4704 0.8304
H17 H 0.1240 1.4567 0.8245
C14 C 0.0566(3) 1.3020(3) 0.8968(2)
H18 H -0.0054 1.3411 0.9861
H19 H 0.0030 1.2514 0.8785
C15 C 0.1670(3) 1.4785(3) 0.6000(3)
H20 H 0.2230 1.4513 0.5081
H21 H 0.2272 1.5112 0.6282
H22 H 0.0707 1.5479 0.6150
C16 C 0.0424(3) 1.3263(3) 0.6325(3)
H23 H -0.0562 1.3955 0.6575
H24 H 0.0281 1.2467 0.6741
H25 H 0.0908 1.3085 0.5390
C17 C 0.1836(4) 1.0884(3) 0.9374(3)
H26 H 0.2799 1.0278 0.9347
H27 H 0.1516 1.0505 0.8842
H28 H 0.1063 1.1040 1.0263
C18 C 0.2580(4) 1.2633(3) 0.9635(3)
H29 H 0.1829 1.2809 1.0531
H30 H 0.2749 1.3447 0.9290
H31 H 0.3535 1.1995 0.9590
K1A K 0.58514(4) 0.86216(4) 0.37661(3)
F1A F 0.63426(13) 0.86722(13) 0.60313(11)
N1A N 0.35732(16) 0.90506(15) 0.62524(14)
C1A C 0.2106(2) 0.92603(18) 0.62533(19)
H1A H 0.1359 0.9279 0.7149
H2A H 0.1772 1.0124 0.5925
F2A F 0.76002(15) 0.70733(15) 0.74154(14)
N2A N 0.29938(18) 0.82443(15) 0.40519(16)
C2A C 0.2114(2) 0.82216(19) 0.5445(2)
H3A H 0.1056 0.8343 0.5612
H4A H 0.2538 0.7352 0.5722
F3A F 0.31946(19) 0.59280(17) 0.95378(16)
N3A N 0.86263(18) 0.63244(16) 0.32799(16)
C3A C 0.40420(19) 0.82034(17) 0.70123(16)
F4A F 0.19275(15) 0.74340(15) 0.81507(14)
N4A N 0.7970(2) 0.7883(2) 0.11158(16)
C4A C 0.5525(2) 0.79939(18) 0.69163(17)
C5A C 0.6166(2) 0.7182(2) 0.7636(2)
C6A C 0.5425(3) 0.6466(2) 0.8557(2)
H5A H 0.5868 0.5907 0.9066
C7A C 0.3995(3) 0.6626(2) 0.8681(2)
C8A C 0.3328(2) 0.7427(2) 0.79557(19)
C9A C 0.3432(3) 0.6951(2) 0.3427(2)
H6A H 0.2572 0.6615 0.3817
H7A H 0.3664 0.7038 0.2503
C10A C 0.4799(3) 0.5989(2) 0.3568(3)
H8A H 0.4654 0.6036 0.4464
H9A H 0.4924 0.5103 0.3322
H10A H 0.5706 0.6204 0.3011
C11A C 0.2083(3) 0.9266(2) 0.3524(2)
H11A H 0.1260 0.8990 0.3531
H12A H 0.1607 1.0076 0.4091
C12A C 0.2974(3) 0.9564(3) 0.2174(3)
H13A H 0.3334 0.8803 0.1584
H14A H 0.2324 1.0315 0.1922
H15A H 0.3844 0.9766 0.2140
C13A C 0.9337(3) 0.5913(2) 0.1912(2)
H16A H 1.0375 0.5296 0.1696
H17A H 0.8760 0.5433 0.1755
C14A C 0.9434(3) 0.6980(3) 0.1032(2)
H18A H 1.0054 0.6589 0.0139
H19A H 0.9970 0.7486 0.1215
C15A C 0.8330(3) 0.5215(3) 0.4000(3)
H20A H 0.7770 0.5487 0.4919
H21A H 0.7728 0.4888 0.3718
H22A H 0.9293 0.4521 0.3850
C16A C 0.9576(3) 0.6737(3) 0.3675(3)
H23A H 1.0562 0.6045 0.3425
H24A H 0.9719 0.7533 0.3259
H25A H 0.9092 0.6915 0.4610
C17A C 0.8164(4) 0.9116(3) 0.0626(3)
H26A H 0.7201 0.9722 0.0653
H27A H 0.8484 0.9495 0.1158
H28A H 0.8937 0.8960 -0.0263
C18A C 0.7420(4) 0.7367(3) 0.0365(3)
H29A H 0.8171 0.7191 -0.0531
H30A H 0.7251 0.6553 0.0710
H31A H 0.6465 0.8005 0.0410
loop_
_geom_bond_atom_site_label_1
_geom_bond_atom_site_label_2
_geom_bond_site_symmetry_1
_geom_bond_site_symmetry_2
K1 F1 1_555 1_555
F1 C4 1_555 1_555
N1 K1 1_555 1_555
C1 N1 1_555 1_555
H1 C1 1_555 1_555
H2 C1 1_555 1_555
F2 C5 1_555 1_555
N2 K1 1_555 1_555
C2 C1 1_555 1_555
H3 C2 1_555 1_555
H4 C2 1_555 1_555
F3 C7 1_555 1_555
N3 K1 1_555 1_555
C3 N1 1_555 1_555
F4 C8 1_555 1_555
N4 K1 1_555 1_555
C4 C3 1_555 1_555
C5 C4 1_555 1_555
C6 C5 1_555 1_555
H5 C6 1_555 1_555
C7 C6 1_555 1_555
C8 C3 1_555 1_555
C9 N2 1_555 1_555
H6 C9 1_555 1_555
H7 C9 1_555 1_555
C10 C9 1_555 1_555
H8 C10 1_555 1_555
H9 C10 1_555 1_555
H10 C10 1_555 1_555
C11 N2 1_555 1_555
H11 C11 1_555 1_555
H12 C11 1_555 1_555
C12 C11 1_555 1_555
H13 C12 1_555 1_555
H14 C12 1_555 1_555
H15 C12 1_555 1_555
C13 N3 1_555 1_555
H16 C13 1_555 1_555
H17 C13 1_555 1_555
C14 N4 1_555 1_555
H18 C14 1_555 1_555
H19 C14 1_555 1_555
C15 N3 1_555 1_555
H20 C15 1_555 1_555
H21 C15 1_555 1_555
H22 C15 1_555 1_555
C16 N3 1_555 1_555
H23 C16 1_555 1_555
H24 C16 1_555 1_555
H25 C16 1_555 1_555
C17 N4 1_555 1_555
H26 C17 1_555 1_555
H27 C17 1_555 1_555
H28 C17 1_555 1_555
C18 N4 1_555 1_555
H29 C18 1_555 1_555
H30 C18 1_555 1_555
H31 C18 1_555 1_555
K1A F1 1_555 1_555
F1A K1 1_555 1_555
N1A K1 1_555 1_555
C1A N1A 1_555 1_555
H1A C1A 1_555 1_555
H2A C1A 1_555 1_555
F2A C5A 1_555 1_555
N2A K1A 1_555 1_555
C2A C1A 1_555 1_555
H3A C2A 1_555 1_555
H4A C2A 1_555 1_555
F3A C7A 1_555 1_555
N3A K1A 1_555 1_555
C3A N1A 1_555 1_555
F4A C8A 1_555 1_555
N4A K1A 1_555 1_555
C4A F1A 1_555 1_555
C5A C4A 1_555 1_555
C6A C5A 1_555 1_555
H5A C6A 1_555 1_555
C7A C6A 1_555 1_555
C8A C3A 1_555 1_555
C9A N2A 1_555 1_555
H6A C9A 1_555 1_555
H7A C9A 1_555 1_555
C10A C9A 1_555 1_555
H8A C10A 1_555 1_555
H9A C10A 1_555 1_555
H10A C10A 1_555 1_555
C11A N2A 1_555 1_555
H11A C11A 1_555 1_555
H12A C11A 1_555 1_555
C12A C11A 1_555 1_555
H13A C12A 1_555 1_555
H14A C12A 1_555 1_555
H15A C12A 1_555 1_555
C13A N3A 1_555 1_555
H16A C13A 1_555 1_555
H17A C13A 1_555 1_555
C14A N4A 1_555 1_555
H18A C14A 1_555 1_555
H19A C14A 1_555 1_555
C15A N3A 1_555 1_555
H20A C15A 1_555 1_555
H21A C15A 1_555 1_555
H22A C15A 1_555 1_555
C16A N3A 1_555 1_555
H23A C16A 1_555 1_555
H24A C16A 1_555 1_555
H25A C16A 1_555 1_555
C17A N4A 1_555 1_555
H26A C17A 1_555 1_555
H27A C17A 1_555 1_555
H28A C17A 1_555 1_555
C18A N4A 1_555 1_555
H29A C18A 1_555 1_555
H30A C18A 1_555 1_555
H31A C18A 1_555 1_555
N1 K1A 1_555 1_555
N2 C2 1_555 1_555
C7 C8 1_555 1_555
C13 C14 1_555 1_555
K1A F1A 1_555 1_555
K1A N1A 1_555 1_555
N2A C2A 1_555 1_555
C3A C4A 1_555 1_555
C7A C8A 1_555 1_555
C13A C14A 1_555 1_555

#END
