
#######################################################################
#
#                 Cambridge Crystallographic Data Centre
#                                CCDC 
#
#######################################################################
#
# If this CIF has been generated from an entry in the Cambridge 
# Structural Database, then it will include bibliographic, chemical, 
# crystal, experimental, refinement or atomic coordinate data resulting 
# from the CCDC's data processing and validation procedures.
#
#######################################################################

data_POSQEV01
_chemical_formula_moiety         'C26 H32 S4'
_chemical_name_systematic        
2,5-bis(3-hexyl-2-thienyl)thieno[3,2-b]thiophene
_symmetry_cell_setting           monoclinic
_symmetry_space_group_name_H-M   'P 21/n'
_symmetry_Int_Tables_number      14
_space_group_name_Hall           '-P 2yn'
loop_
_symmetry_equiv_pos_site_id
_symmetry_equiv_pos_as_xyz
1 x,y,z
2 1/2-x,1/2+y,1/2-z
3 -x,-y,-z
4 1/2+x,1/2-y,1/2+z
_cell_length_a                   11.7048(2)
_cell_length_b                   7.8063(2)
_cell_length_c                   13.3837(3)
_cell_angle_alpha                90
_cell_angle_beta                 98.5108(8)
_cell_angle_gamma                90
_cell_volume                     1209.42
_exptl_crystal_colour            colorless
_exptl_crystal_description       slab
_cell_formula_units_Z            2
loop_
_atom_site_label
_atom_site_type_symbol
_atom_site_fract_x
_atom_site_fract_y
_atom_site_fract_z
S1 S 0.32074(4) 0.03393(6) 0.65571(4)
S2 S 0.38794(5) 0.43012(7) 0.59955(5)
C1 C 0.5443(3) 0.4528(3) 0.4846(3)
C2 C 0.5563(3) 0.2855(3) 0.52562(19)
H1 H 0.6116 0.2045 0.5101
C3 C 0.47851(15) 0.2545(2) 0.59034(13)
C4 C 0.46128(16) 0.0983(2) 0.64566(14)
C5 C 0.54055(16) -0.0164(2) 0.69371(14)
C6 C 0.48599(17) -0.1554(3) 0.73719(14)
H2 H 0.5278 -0.2469 0.7723
C7 C 0.36927(17) -0.1450(3) 0.72388(14)
H3 H 0.3203 -0.2265 0.7491
C8 C 0.66959(16) 0.0010(2) 0.70260(14)
H4 H 0.7041 -0.0227 0.7733
H5 H 0.6885 0.1207 0.6871
C9 C 0.72451(16) -0.1192(2) 0.63246(14)
H6 H 0.7072 -0.2394 0.6484
H7 H 0.6902 -0.0967 0.5616
C10 C 0.85517(16) -0.0948(3) 0.64366(14)
H8 H 0.8877 -0.1051 0.7160
H9 H 0.8715 0.0226 0.6216
C11 C 0.91649(16) -0.2227(3) 0.58336(14)
H10 H 0.8833 -0.2147 0.5110
H11 H 0.9026 -0.3403 0.6066
C12 C 1.04669(16) -0.1907(3) 0.59476(15)
H12 H 1.0604 -0.0751 0.5685
H13 H 1.0790 -0.1929 0.6674
C13 C 1.11003(17) -0.3226(3) 0.53907(16)
H14 H 1.1040 -0.4357 0.5697
H15 H 1.1916 -0.2904 0.5439
H16 H 1.0752 -0.3264 0.4679
S1B S 0.67926(4) 0.96607(6) 0.34429(4)
S2B S 0.61206(5) 0.56988(7) 0.40045(5)
C1B C 0.4557(3) 0.5472(3) 0.5154(3)
C2B C 0.4437(3) 0.7145(3) 0.47438(19)
H1B H 0.3884 0.7955 0.4899
C3B C 0.52149(15) 0.7455(2) 0.40966(13)
C4B C 0.53872(16) 0.9017(2) 0.35434(14)
C5B C 0.45945(16) 1.0164(2) 0.30629(14)
C6B C 0.51401(17) 1.1554(3) 0.26281(14)
H2B H 0.4722 1.2469 0.2277
C7B C 0.63073(17) 1.1450(3) 0.27612(14)
H3B H 0.6797 1.2265 0.2509
C8B C 0.33041(16) 0.9990(2) 0.29740(14)
H4B H 0.2959 1.0227 0.2267
H5B H 0.3115 0.8793 0.3129
C9B C 0.27549(16) 1.1192(2) 0.36754(14)
H6B H 0.2928 1.2394 0.3516
H7B H 0.3098 1.0967 0.4384
C10B C 0.14483(16) 1.0948(3) 0.35634(14)
H8B H 0.1123 1.1051 0.2840
H9B H 0.1285 0.9774 0.3784
C11B C 0.08351(16) 1.2227(3) 0.41664(14)
H10B H 0.1167 1.2147 0.4890
H11B H 0.0974 1.3403 0.3934
C12B C -0.04669(16) 1.1907(3) 0.40524(15)
H12B H -0.0604 1.0751 0.4315
H13B H -0.0790 1.1929 0.3326
C13B C -0.11003(17) 1.3226(3) 0.46093(16)
H14B H -0.1040 1.4357 0.4303
H15B H -0.1916 1.2904 0.4561
H16B H -0.0752 1.3264 0.5321
S3? S 0.593(1) 0.2780(18) 0.5287(10)
C14? C 0.442(6) 0.522(7) 0.524(7)
C15? C 0.413(4) 0.399(4) 0.594(4)
H17? H 0.3562 0.4150 0.6366
loop_
_geom_bond_atom_site_label_1
_geom_bond_atom_site_label_2
_geom_bond_site_symmetry_1
_geom_bond_site_symmetry_2
S1 C4 1_555 1_555
S2 C3 1_555 1_555
C1 C2 1_555 1_555
C2 H1 1_555 1_555
C3 C2 1_555 1_555
C4 C3 1_555 1_555
C5 C4 1_555 1_555
C6 C5 1_555 1_555
H2 C6 1_555 1_555
C7 S1 1_555 1_555
H3 C7 1_555 1_555
C8 C5 1_555 1_555
H4 C8 1_555 1_555
H5 C8 1_555 1_555
C9 C8 1_555 1_555
H6 C9 1_555 1_555
H7 C9 1_555 1_555
C10 C9 1_555 1_555
H8 C10 1_555 1_555
H9 C10 1_555 1_555
C11 C10 1_555 1_555
H10 C11 1_555 1_555
H11 C11 1_555 1_555
C12 C11 1_555 1_555
H12 C12 1_555 1_555
H13 C12 1_555 1_555
C13 C12 1_555 1_555
H14 C13 1_555 1_555
H15 C13 1_555 1_555
H16 C13 1_555 1_555
S1B C4B 1_555 1_555
S2B C1 1_555 1_555
C1B S2 1_555 1_555
C2B C1B 1_555 1_555
H1B C2B 1_555 1_555
C3B S2B 1_555 1_555
C4B C3B 1_555 1_555
C5B C4B 1_555 1_555
C6B C5B 1_555 1_555
H2B C6B 1_555 1_555
C7B S1B 1_555 1_555
H3B C7B 1_555 1_555
C8B C5B 1_555 1_555
H4B C8B 1_555 1_555
H5B C8B 1_555 1_555
C9B C8B 1_555 1_555
H6B C9B 1_555 1_555
H7B C9B 1_555 1_555
C10B C9B 1_555 1_555
H8B C10B 1_555 1_555
H9B C10B 1_555 1_555
C11B C10B 1_555 1_555
H10B C11B 1_555 1_555
H11B C11B 1_555 1_555
C12B C11B 1_555 1_555
H12B C12B 1_555 1_555
H13B C12B 1_555 1_555
C13B C12B 1_555 1_555
H14B C13B 1_555 1_555
H15B C13B 1_555 1_555
H16B C13B 1_555 1_555
C1 C1B 1_555 1_555
C6 C7 1_555 1_555
C2B C3B 1_555 1_555
C6B C7B 1_555 1_555

#END
