
#######################################################################
#
#                 Cambridge Crystallographic Data Centre
#                                CCDC 
#
#######################################################################
#
# If this CIF has been generated from an entry in the Cambridge 
# Structural Database, then it will include bibliographic, chemical, 
# crystal, experimental, refinement or atomic coordinate data resulting 
# from the CCDC's data processing and validation procedures.
#
#######################################################################

data_POSTEY
_chemical_name_common            
'5-nitro-N-(2-hydroxyethyl)-isophthalamic acid monohydrate'
_chemical_formula_moiety         'C10 H10 N2 O6,H2 O1'
_chemical_name_systematic        
'3-((2-hydroxyethyl)carbamoyl)-5-nitrobenzoic acid monohydrate'
_symmetry_cell_setting           triclinic
_symmetry_space_group_name_H-M   'P -1'
_symmetry_Int_Tables_number      2
_space_group_name_Hall           '-P 1'
loop_
_symmetry_equiv_pos_site_id
_symmetry_equiv_pos_as_xyz
1 x,y,z
2 -x,-y,-z
_cell_length_a                   6.449(3)
_cell_length_b                   8.670(5)
_cell_length_c                   11.051(6)
_cell_angle_alpha                106.581(8)
_cell_angle_beta                 101.466(9)
_cell_angle_gamma                93.692(4)
_cell_volume                     575.535
_exptl_crystal_colour            colorless
_exptl_crystal_description       platelet
_cell_formula_units_Z            2
loop_
_atom_site_label
_atom_site_type_symbol
_atom_site_fract_x
_atom_site_fract_y
_atom_site_fract_z
O1 O 0.13495(17) 0.98481(9) 0.27386(8)
O2 O -0.24748(15) 0.59705(10) -0.05062(8)
O3 O 0.18120(14) 0.29530(9) 0.34122(8)
O4 O 0.26622(14) 0.33382(9) 0.55509(8)
O5 O 0.39066(19) 0.91355(11) 0.83077(8)
O6 O 0.36654(17) 1.10655(10) 0.74248(9)
N1 N 0.13279(17) 0.73307(11) 0.14290(9)
N2 N 0.35598(17) 0.96255(11) 0.73593(9)
C1 C 0.23184(17) 0.38719(12) 0.46364(10)
C2 C 0.24161(17) 0.56423(12) 0.47566(10)
C3 C 0.29369(17) 0.67808(12) 0.59893(10)
H1 H 0.3237 0.6453 0.6750
C4 C 0.30003(17) 0.84077(12) 0.60621(10)
C5 C 0.25634(17) 0.89481(12) 0.49861(10)
H2 H 0.2607 1.0074 0.5079
C6 C 0.20567(17) 0.77954(12) 0.37580(10)
C7 C 0.19851(17) 0.61473(12) 0.36545(10)
H3 H 0.1638 0.5361 0.2821
C8 C 0.15561(19) 0.83987(12) 0.25990(10)
C9 C 0.0792(2) 0.77886(14) 0.02391(11)
H4 H 0.1418 0.7084 -0.0433
H5 H 0.1419 0.8924 0.0411
C10 C -0.1591(2) 0.76327(13) -0.02582(11)
H6 H -0.2227 0.8365 0.0393
H7 H -0.1913 0.7940 -0.1066
H8 H 0.157(2) 0.6305(19) 0.1355(14)
H9 H -0.397(5) 0.569(3) -0.096(3)
H10 H 0.168(3) 0.188(2) 0.3314(17)
O7 O 0.33213(16) 0.48483(11) 0.83119(10)
H11 H 0.317(3) 0.421(2) 0.759(2)
H12 H 0.302(4) 0.440(3) 0.888(2)
loop_
_geom_bond_atom_site_label_1
_geom_bond_atom_site_label_2
_geom_bond_site_symmetry_1
_geom_bond_site_symmetry_2
O1 C8 1_555 1_555
O2 C10 1_555 1_555
O3 C1 1_555 1_555
O4 C1 1_555 1_555
O5 N2 1_555 1_555
O6 N2 1_555 1_555
N1 C8 1_555 1_555
N2 C4 1_555 1_555
C1 C2 1_555 1_555
C2 C3 1_555 1_555
C3 H1 1_555 1_555
C4 C3 1_555 1_555
C5 C4 1_555 1_555
H2 C5 1_555 1_555
C6 C5 1_555 1_555
C7 C2 1_555 1_555
H3 C7 1_555 1_555
C8 C6 1_555 1_555
C9 N1 1_555 1_555
H4 C9 1_555 1_555
H5 C9 1_555 1_555
C10 C9 1_555 1_555
H6 C10 1_555 1_555
H7 C10 1_555 1_555
H8 N1 1_555 1_555
H9 O2 1_555 1_555
H10 O3 1_555 1_555
O7 H11 1_555 1_555
H12 O7 1_555 1_555
C6 C7 1_555 1_555

#END
