
#######################################################################
#
#                 Cambridge Crystallographic Data Centre
#                                CCDC 
#
#######################################################################
#
# If this CIF has been generated from an entry in the Cambridge 
# Structural Database, then it will include bibliographic, chemical, 
# crystal, experimental, refinement or atomic coordinate data resulting 
# from the CCDC's data processing and validation procedures.
#
#######################################################################

data_POSVEA
_chemical_formula_moiety         'C27 H18 O6,3(C3 H7 N1 O1)'
_chemical_name_systematic        
'1,3,5-tris(4-carboxyphenyl)benzene N,N-dimethylformamide solvate'
_symmetry_cell_setting           rhombohedral
_symmetry_space_group_name_H-M   'R -3'
_symmetry_Int_Tables_number      148
_space_group_name_Hall           '-R 3'
loop_
_symmetry_equiv_pos_site_id
_symmetry_equiv_pos_as_xyz
1 x,y,z
2 -y,x-y,z
3 -x+y,-x,z
4 2/3+x,1/3+y,1/3+z
5 2/3-y,1/3+x-y,1/3+z
6 2/3-x+y,1/3-x,1/3+z
7 1/3+x,2/3+y,2/3+z
8 1/3-y,2/3+x-y,2/3+z
9 1/3-x+y,2/3-x,2/3+z
10 -x,-y,-z
11 y,-x+y,-z
12 x-y,x,-z
13 1/3-x,2/3-y,2/3-z
14 1/3+y,2/3-x+y,2/3-z
15 1/3+x-y,2/3+x,2/3-z
16 2/3-x,1/3-y,1/3-z
17 2/3+y,1/3-x+y,1/3-z
18 2/3+x-y,1/3+x,1/3-z
_cell_length_a                   23.024(9)
_cell_length_b                   23.024(9)
_cell_length_c                   11.629(2)
_cell_angle_alpha                90
_cell_angle_beta                 90
_cell_angle_gamma                120
_cell_volume                     5338.69
_exptl_crystal_colour            colorless
_exptl_crystal_description       block
_cell_formula_units_Z            6
loop_
_atom_site_label
_atom_site_type_symbol
_atom_site_fract_x
_atom_site_fract_y
_atom_site_fract_z
O1 O 0.28275(5) 0.37542(4) 0.38602(10)
H1 H 0.3166(11) 0.4117(12) 0.4171(19)
O2 O 0.34288(5) 0.33140(5) 0.45233(14)
C1 C 0.29171(6) 0.32468(6) 0.41226(12)
C2 C 0.23158(5) 0.25784(5) 0.38824(10)
C3 C 0.17751(5) 0.25095(5) 0.32478(11)
H2 H 0.1786 0.2887 0.2936
C4 C 0.12176(5) 0.18797(5) 0.30747(11)
H3 H 0.0858 0.1839 0.2647
C5 C 0.11915(5) 0.13067(5) 0.35368(10)
C6 C 0.17383(5) 0.13827(5) 0.41684(11)
H4 H 0.1731 0.1006 0.4477
C7 C 0.22933(5) 0.20109(5) 0.43442(12)
H5 H 0.2653 0.2053 0.4774
C8 C 0.05801(5) 0.06361(5) 0.34220(10)
C9 C 0.06290(5) 0.00551(5) 0.34160(10)
H6 H 0.1050 0.0092 0.3408
O1A O -0.37542(4) -0.09267(6) 0.38602(10)
H1A H -0.4117(12) -0.0951(16) 0.4171(19)
O2A O -0.33140(5) 0.01148(7) 0.45233(14)
C1A C -0.32468(6) -0.03297(8) 0.41226(12)
C2A C -0.25784(5) -0.02626(7) 0.38824(10)
C3A C -0.25095(5) -0.07344(7) 0.32478(11)
H2A H -0.2887 -0.1101 0.2936
C4A C -0.18797(5) -0.06621(7) 0.30747(11)
H3A H -0.1839 -0.0981 0.2647
C5A C -0.13067(5) -0.01152(7) 0.35368(10)
C6A C -0.13827(5) 0.03556(7) 0.41684(11)
H4A H -0.1006 0.0725 0.4477
C7A C -0.20109(5) 0.02824(7) 0.43442(12)
H5A H -0.2053 0.0600 0.4774
C8A C -0.06361(5) -0.00560(7) 0.34220(10)
C9A C -0.00551(5) 0.05739(7) 0.34160(10)
H6A H -0.0092 0.0958 0.3408
O1B O 0.09267(6) -0.28275(5) 0.38602(10)
H1B H 0.0951(16) -0.3166(11) 0.4171(19)
O2B O -0.01148(7) -0.34288(5) 0.45233(14)
C1B C 0.03297(8) -0.29171(6) 0.41226(12)
C2B C 0.02626(7) -0.23158(5) 0.38824(10)
C3B C 0.07344(7) -0.17751(5) 0.32478(11)
H2B H 0.1101 -0.1786 0.2936
C4B C 0.06621(7) -0.12176(5) 0.30747(11)
H3B H 0.0981 -0.0858 0.2647
C5B C 0.01152(7) -0.11915(5) 0.35368(10)
C6B C -0.03556(7) -0.17383(5) 0.41684(11)
H4B H -0.0725 -0.1731 0.4477
C7B C -0.02824(7) -0.22933(5) 0.43442(12)
H5B H -0.0600 -0.2653 0.4774
C8B C 0.00560(7) -0.05801(5) 0.34220(10)
C9B C -0.05739(7) -0.06290(5) 0.34160(10)
H6B H -0.0958 -0.1050 0.3408
O3 O 0.21796(7) 0.04116(7) 0.19688(13)
N1 N 0.24936(8) 0.12310(7) 0.06371(12)
C10 C 0.25655(9) 0.07841(9) 0.12170(17)
H7 H 0.2938 0.0743 0.1049
C11 C 0.29672(15) 0.16620(14) -0.02260(19)
H8 H 0.3343 0.1589 -0.0247
H9 H 0.3120 0.2122 -0.0038
H10 H 0.2752 0.1560 -0.0965
C12 C 0.19404(18) 0.13295(18) 0.0837(3)
H11 H 0.1635 0.0996 0.1365
H12 H 0.1714 0.1292 0.0123
H13 H 0.2098 0.1767 0.1158
loop_
_geom_bond_atom_site_label_1
_geom_bond_atom_site_label_2
_geom_bond_site_symmetry_1
_geom_bond_site_symmetry_2
O1 H1 1_555 1_555
O2 C1 1_555 1_555
C1 O1 1_555 1_555
C2 C1 1_555 1_555
C3 C2 1_555 1_555
H2 C3 1_555 1_555
C4 C3 1_555 1_555
H3 C4 1_555 1_555
C5 C4 1_555 1_555
C6 C5 1_555 1_555
H4 C6 1_555 1_555
C7 C2 1_555 1_555
H5 C7 1_555 1_555
C8 C5 1_555 1_555
C9 C8 1_555 1_555
H6 C9 1_555 1_555
O3 C10 1_555 1_555
N1 C10 1_555 1_555
C10 H7 1_555 1_555
C11 N1 1_555 1_555
H8 C11 1_555 1_555
H9 C11 1_555 1_555
H10 C11 1_555 1_555
C12 N1 1_555 1_555
H11 C12 1_555 1_555
H12 C12 1_555 1_555
H13 C12 1_555 1_555
O1A H1A 1_555 1_555
O2A C1A 1_555 1_555
C1A O1A 1_555 1_555
C2A C1A 1_555 1_555
C3A C2A 1_555 1_555
H2A C3A 1_555 1_555
C4A C3A 1_555 1_555
H3A C4A 1_555 1_555
C5A C4A 1_555 1_555
C6A C5A 1_555 1_555
H4A C6A 1_555 1_555
C7A C2A 1_555 1_555
H5A C7A 1_555 1_555
C8A C5A 1_555 1_555
C9A C8 1_555 1_555
H6A C9A 1_555 1_555
O1B H1B 1_555 1_555
O2B C1B 1_555 1_555
C1B O1B 1_555 1_555
C2B C1B 1_555 1_555
C3B C2B 1_555 1_555
H2B C3B 1_555 1_555
C4B C3B 1_555 1_555
H3B C4B 1_555 1_555
C5B C4B 1_555 1_555
C6B C5B 1_555 1_555
H4B C6B 1_555 1_555
C7B C2B 1_555 1_555
H5B C7B 1_555 1_555
C8B C9 1_555 1_555
C9B C8A 1_555 1_555
H6B C9B 1_555 1_555
C6 C7 1_555 1_555
C6A C7A 1_555 1_555
C8A C9A 1_555 1_555
C5B C8B 1_555 1_555
C6B C7B 1_555 1_555
C8B C9B 1_555 1_555

#END
