
#######################################################################
#
#                 Cambridge Crystallographic Data Centre
#                                CCDC 
#
#######################################################################
#
# If this CIF has been generated from an entry in the Cambridge 
# Structural Database, then it will include bibliographic, chemical, 
# crystal, experimental, refinement or atomic coordinate data resulting 
# from the CCDC's data processing and validation procedures.
#
#######################################################################

data_POTBUW01
_chemical_formula_moiety         'C33 H33 N7'
_chemical_name_systematic        N,N,N-tris(2-(8-Quinolinylamino)ethyl)amine
_symmetry_cell_setting           monoclinic
_symmetry_space_group_name_H-M   'P 21/c'
_symmetry_Int_Tables_number      14
_space_group_name_Hall           '-P 2ybc'
loop_
_symmetry_equiv_pos_site_id
_symmetry_equiv_pos_as_xyz
1 x,y,z
2 -x,1/2+y,1/2-z
3 -x,-y,-z
4 x,1/2-y,1/2+z
_cell_length_a                   19.5530(5)
_cell_length_b                   8.6310(2)
_cell_length_c                   16.1819(3)
_cell_angle_alpha                90
_cell_angle_beta                 91.7806(8)
_cell_angle_gamma                90
_cell_volume                     2729.57
_exptl_crystal_colour            colorless
_exptl_crystal_description       plate
_cell_formula_units_Z            4
loop_
_atom_site_label
_atom_site_type_symbol
_atom_site_fract_x
_atom_site_fract_y
_atom_site_fract_z
N1 N 0.21089(7) 0.13727(15) 0.02671(7)
N2 N 0.32211(7) 0.47467(16) -0.01928(8)
H1 H 0.3430(9) 0.4252(19) -0.0643(8)
N3 N 0.21103(7) 0.18711(17) 0.20973(8)
H2 H 0.1760(7) 0.2552(18) 0.1909(11)
N4 N 0.06903(7) 0.17868(17) 0.02313(8)
H3 H 0.1004(8) 0.212(2) 0.0653(9)
N5 N 0.43535(7) 0.57269(17) -0.09579(8)
N6 N 0.19561(7) 0.49010(17) 0.24810(8)
N7 N 0.04204(7) 0.33690(16) 0.15995(8)
C1 C 0.25211(8) 0.24128(19) -0.02249(9)
H4 H 0.2242 0.2796 -0.0704
H5 H 0.2916 0.1837 -0.0439
C2 C 0.27768(8) 0.37741(19) 0.02854(9)
H6 H 0.2383 0.4391 0.0469
H7 H 0.3031 0.3391 0.0783
C3 C 0.25210(9) 0.04639(19) 0.08627(10)
H8 H 0.2978 0.0944 0.0940
H9 H 0.2584 -0.0598 0.0646
C4 C 0.21729(10) 0.0387(2) 0.16897(10)
H10 H 0.1710 -0.0059 0.1601
H11 H 0.2436 -0.0322 0.2060
C5 C 0.16546(8) 0.03785(19) -0.02392(10)
H12 H 0.1544 -0.0562 0.0080
H13 H 0.1897 0.0047 -0.0737
C6 C 0.09955(8) 0.1188(2) -0.05039(9)
H14 H 0.1092 0.2044 -0.0890
H15 H 0.0680 0.0448 -0.0787
C7 C 0.36264(8) 0.58389(18) 0.02024(10)
C8 C 0.34921(9) 0.64346(19) 0.09717(10)
H16 H 0.3105 0.6073 0.1256
C9 C 0.39165(9) 0.7564(2) 0.13418(11)
H17 H 0.3811 0.7957 0.1871
C10 C 0.44798(9) 0.8111(2) 0.09550(11)
H18 H 0.4757 0.8889 0.1211
C11 C 0.46478(8) 0.75140(19) 0.01730(10)
C12 C 0.42223(8) 0.63785(19) -0.02096(9)
C13 C 0.52335(9) 0.7962(2) -0.02585(11)
H19 H 0.5538 0.8717 -0.0028
C14 C 0.53608(9) 0.7312(2) -0.10035(11)
H20 H 0.5751 0.7615 -0.1299
C15 C 0.49103(9) 0.6190(2) -0.13304(11)
H21 H 0.5010 0.5737 -0.1848
C16 C 0.26613(8) 0.2635(2) 0.24559(9)
C17 C 0.32868(9) 0.1942(2) 0.26501(10)
H22 H 0.3355 0.0882 0.2519
C18 C 0.38211(9) 0.2790(2) 0.30389(10)
H23 H 0.4244 0.2288 0.3163
C19 C 0.37479(9) 0.4313(2) 0.32417(10)
H24 H 0.4119 0.4865 0.3495
C20 C 0.31175(9) 0.5065(2) 0.30730(9)
C21 C 0.25753(8) 0.4238(2) 0.26709(9)
C22 C 0.29842(9) 0.6607(2) 0.33033(10)
H25 H 0.3331 0.7203 0.3578
C23 C 0.23567(9) 0.7243(2) 0.31314(10)
H26 H 0.2257 0.8273 0.3298
C24 C 0.18620(10) 0.6351(2) 0.27055(10)
H27 H 0.1433 0.6819 0.2570
C25 C 0.00884(8) 0.25946(18) 0.02282(9)
C26 C -0.03782(8) 0.2671(2) -0.04320(10)
H28 H -0.0278 0.2176 -0.0939
C27 C -0.09989(9) 0.3476(2) -0.03581(11)
H29 H -0.1309 0.3524 -0.0821
C28 C -0.11678(9) 0.4190(2) 0.03576(11)
H30 H -0.1597 0.4695 0.0397
C29 C -0.06996(8) 0.41765(19) 0.10443(10)
C30 C -0.00688(8) 0.33928(18) 0.09763(9)
C31 C -0.08170(9) 0.4932(2) 0.17991(11)
H31 H -0.1235 0.5467 0.1875
C32 C -0.03307(9) 0.4892(2) 0.24196(11)
H32 H -0.0406 0.5389 0.2933
C33 C 0.02833(9) 0.4106(2) 0.22883(10)
H33 H 0.0622 0.4105 0.2722
loop_
_geom_bond_atom_site_label_1
_geom_bond_atom_site_label_2
_geom_bond_site_symmetry_1
_geom_bond_site_symmetry_2
N1 C1 1_555 1_555
N2 H1 1_555 1_555
N3 H2 1_555 1_555
N4 H3 1_555 1_555
N5 C12 1_555 1_555
N6 C21 1_555 1_555
N7 C30 1_555 1_555
C1 H4 1_555 1_555
H5 C1 1_555 1_555
C2 N2 1_555 1_555
H6 C2 1_555 1_555
H7 C2 1_555 1_555
C3 N1 1_555 1_555
H8 C3 1_555 1_555
H9 C3 1_555 1_555
C4 N3 1_555 1_555
H10 C4 1_555 1_555
H11 C4 1_555 1_555
C5 N1 1_555 1_555
H12 C5 1_555 1_555
H13 C5 1_555 1_555
C6 N4 1_555 1_555
H14 C6 1_555 1_555
H15 C6 1_555 1_555
C7 N2 1_555 1_555
C8 C7 1_555 1_555
H16 C8 1_555 1_555
C9 C8 1_555 1_555
H17 C9 1_555 1_555
C10 C9 1_555 1_555
H18 C10 1_555 1_555
C11 C10 1_555 1_555
C12 C7 1_555 1_555
C13 C11 1_555 1_555
H19 C13 1_555 1_555
C14 C13 1_555 1_555
H20 C14 1_555 1_555
C15 N5 1_555 1_555
H21 C15 1_555 1_555
C16 N3 1_555 1_555
C17 C16 1_555 1_555
H22 C17 1_555 1_555
C18 C17 1_555 1_555
H23 C18 1_555 1_555
C19 C18 1_555 1_555
H24 C19 1_555 1_555
C20 C19 1_555 1_555
C21 C16 1_555 1_555
C22 C20 1_555 1_555
H25 C22 1_555 1_555
C23 C22 1_555 1_555
H26 C23 1_555 1_555
C24 N6 1_555 1_555
H27 C24 1_555 1_555
C25 N4 1_555 1_555
C26 C25 1_555 1_555
H28 C26 1_555 1_555
C27 C26 1_555 1_555
H29 C27 1_555 1_555
C28 C27 1_555 1_555
H30 C28 1_555 1_555
C29 C28 1_555 1_555
C30 C25 1_555 1_555
C31 C29 1_555 1_555
H31 C31 1_555 1_555
C32 C31 1_555 1_555
H32 C32 1_555 1_555
C33 N7 1_555 1_555
H33 C33 1_555 1_555
C1 C2 1_555 1_555
C3 C4 1_555 1_555
C5 C6 1_555 1_555
C11 C12 1_555 1_555
C14 C15 1_555 1_555
C20 C21 1_555 1_555
C23 C24 1_555 1_555
C29 C30 1_555 1_555
C32 C33 1_555 1_555

#END
