
#######################################################################
#
#                 Cambridge Crystallographic Data Centre
#                                CCDC 
#
#######################################################################
#
# If this CIF has been generated from an entry in the Cambridge 
# Structural Database, then it will include bibliographic, chemical, 
# crystal, experimental, refinement or atomic coordinate data resulting 
# from the CCDC's data processing and validation procedures.
#
#######################################################################

data_POTDOS
_chemical_formula_moiety         'C14 H16 N2 O5 S1'
_chemical_name_systematic        
1-(4-Methyl-1-((4-nitrophenyl)sulfonyl)-1,2,3,6-tetrahydro-2-pyridinyl)ethanone
_symmetry_cell_setting           orthorhombic
_symmetry_space_group_name_H-M   'P 21 21 21'
_symmetry_Int_Tables_number      19
_space_group_name_Hall           'P 2ac 2ab'
loop_
_symmetry_equiv_pos_site_id
_symmetry_equiv_pos_as_xyz
1 x,y,z
2 1/2-x,-y,1/2+z
3 1/2+x,1/2-y,-z
4 -x,1/2+y,1/2-z
_cell_length_a                   8.617(4)
_cell_length_b                   12.575(4)
_cell_length_c                   13.795(5)
_cell_angle_alpha                90
_cell_angle_beta                 90
_cell_angle_gamma                90
_cell_volume                     1494.81
_exptl_crystal_colour            white
_exptl_crystal_description       prism
_cell_formula_units_Z            4
_exptl_crystal_recrystallization_method acetone
loop_
_atom_site_label
_atom_site_type_symbol
_atom_site_fract_x
_atom_site_fract_y
_atom_site_fract_z
S1 S 0.70583(11) 0.00369(10) 0.02747(9)
N1 N 0.8489(4) 0.0305(3) 0.0997(2)
N2 N 0.9346(5) -0.3082(4) -0.2640(3)
O1 O 1.1156(3) -0.0356(2) 0.0105(2)
O2 O 0.6700(3) 0.1000(2) -0.0242(3)
O3 O 0.5897(3) -0.0485(3) 0.0844(3)
O4 O 1.0367(6) -0.2820(3) -0.3192(3)
O5 O 0.8735(5) -0.3956(3) -0.2655(3)
C1 C 0.8803(5) -0.2316(3) -0.1904(3)
C2 C 0.8000(5) -0.2692(3) -0.1119(3)
H1 H 0.7827 -0.3417 -0.1042
C3 C 0.7453(4) -0.1976(3) -0.0447(3)
H2 H 0.6904 -0.221 0.0093
C4 C 0.7732(5) -0.0897(3) -0.0586(3)
C5 C 0.8531(5) -0.0544(3) -0.1387(3)
H3 H 0.8708 0.018 -0.1472
C6 C 0.9070(5) -0.1258(3) -0.2063(3)
H4 H 0.96 -0.1028 -0.2611
C7 C 0.9692(4) 0.1088(3) 0.0735(3)
H5 H 0.9253 0.1576 0.0253
C8 C 1.0067(5) 0.1728(3) 0.1653(3)
H6 H 1.0935 0.2199 0.1526
H7 H 0.9179 0.2161 0.1829
C9 C 1.0466(5) 0.0993(3) 0.2478(3)
C10 C 0.9965(5) 0.0001(4) 0.2471(3)
H8 H 1.0276 -0.0432 0.2982
C11 C 0.8946(6) -0.0486(4) 0.1720(3)
H9 H 0.9494 -0.1064 0.1404
H10 H 0.8027 -0.0778 0.2026
C12 C 1.1422(6) 0.1445(4) 0.3289(4)
H11 H 1.1671 0.2174 0.3148
H12 H 1.2364 0.1043 0.3354
H13 H 1.0845 0.1409 0.3883
C13 C 1.1127(5) 0.0578(3) 0.0303(3)
C14 C 1.2497(5) 0.1271(4) 0.0113(4)
H14 H 1.3323 0.085 -0.0155
H15 H 1.2835 0.1589 0.0708
H16 H 1.2215 0.1818 -0.0339
loop_
_geom_bond_atom_site_label_1
_geom_bond_atom_site_label_2
_geom_bond_site_symmetry_1
_geom_bond_site_symmetry_2
S1 N1 1_555 1_555
N1 C7 1_555 1_555
N2 O4 1_555 1_555
O1 C13 1_555 1_555
O2 S1 1_555 1_555
O3 S1 1_555 1_555
O5 N2 1_555 1_555
C1 N2 1_555 1_555
C2 C1 1_555 1_555
H1 C2 1_555 1_555
C3 C2 1_555 1_555
H2 C3 1_555 1_555
C4 S1 1_555 1_555
C5 C4 1_555 1_555
H3 C5 1_555 1_555
C6 C1 1_555 1_555
H4 C6 1_555 1_555
C7 H5 1_555 1_555
C8 C7 1_555 1_555
H6 C8 1_555 1_555
H7 C8 1_555 1_555
C9 C8 1_555 1_555
C10 C9 1_555 1_555
H8 C10 1_555 1_555
C11 N1 1_555 1_555
H9 C11 1_555 1_555
H10 C11 1_555 1_555
C12 C9 1_555 1_555
H11 C12 1_555 1_555
H12 C12 1_555 1_555
H13 C12 1_555 1_555
C13 C7 1_555 1_555
C14 C13 1_555 1_555
H14 C14 1_555 1_555
H15 C14 1_555 1_555
H16 C14 1_555 1_555
C3 C4 1_555 1_555
C5 C6 1_555 1_555
C10 C11 1_555 1_555

#END
