
#######################################################################
#
#                 Cambridge Crystallographic Data Centre
#                                CCDC 
#
#######################################################################
#
# If this CIF has been generated from an entry in the Cambridge 
# Structural Database, then it will include bibliographic, chemical, 
# crystal, experimental, refinement or atomic coordinate data resulting 
# from the CCDC's data processing and validation procedures.
#
#######################################################################

data_POTDIM
_chemical_formula_moiety         'C15 H21 N1 O4 S1'
_chemical_name_systematic        
2-Hydroxy-6-isopropenyl-2-methyl-4-((4-methylphenyl)sulfonyl)-2-morpholine
_symmetry_cell_setting           monoclinic
_symmetry_space_group_name_H-M   'P 21/n'
_symmetry_Int_Tables_number      14
_space_group_name_Hall           '-P 2yn'
loop_
_symmetry_equiv_pos_site_id
_symmetry_equiv_pos_as_xyz
1 x,y,z
2 1/2-x,1/2+y,1/2-z
3 -x,-y,-z
4 1/2+x,1/2-y,1/2+z
_cell_length_a                   15.576(2)
_cell_length_b                   5.696(1)
_cell_length_c                   17.840(8)
_cell_angle_alpha                90
_cell_angle_beta                 91.67(2)
_cell_angle_gamma                90
_cell_volume                     1582.11
_exptl_crystal_colour            colorless
_exptl_crystal_description       prism
_cell_formula_units_Z            4
_exptl_crystal_recrystallization_method hexanes/acetone
loop_
_atom_site_label
_atom_site_type_symbol
_atom_site_fract_x
_atom_site_fract_y
_atom_site_fract_z
S1 S 0.30391(4) -0.00504(13) 0.60730(4)
N1 N 0.22609(13) 0.1490(4) 0.56674(12)
O1 O 0.04068(15) 0.2339(4) 0.57253(13)
O2 O 0.27111(13) -0.0914(4) 0.67596(12)
O3 O 0.33338(14) -0.1652(4) 0.55190(12)
O4 O 0.11848(11) 0.4952(3) 0.50048(10)
C1 C 0.10141(17) 0.4172(5) 0.57515(16)
C2 C 0.06915(19) 0.6308(6) 0.61558(17)
H1 H 0.1126 0.7502 0.6163
H2 H 0.0559 0.5891 0.6661
H3 H 0.0183 0.6889 0.5901
C3 C 0.18348(17) 0.3248(5) 0.61391(15)
H4 H 0.2225 0.4544 0.624
H5 H 0.1695 0.254 0.6615
C4 C 0.24468(17) 0.2495(5) 0.49267(15)
H6 H 0.2731 0.1335 0.4622
H7 H 0.2824 0.3841 0.4986
C5 C 0.16037(18) 0.3235(5) 0.45486(15)
H8 H 0.1231 0.1858 0.4489
C6 C 0.38715(16) 0.1939(5) 0.62910(14)
C7 C 0.38536(18) 0.3279(6) 0.69362(15)
H9 H 0.3417 0.3066 0.7274
C8 C 0.44830(19) 0.4932(6) 0.70772(17)
H10 H 0.4464 0.5822 0.7513
C9 C 0.51369(19) 0.5303(6) 0.65927(17)
C10 C 0.51556(19) 0.3945(7) 0.59508(18)
H11 H 0.5599 0.4154 0.5619
C11 C 0.45305(18) 0.2287(6) 0.57926(17)
H12 H 0.4549 0.1405 0.5355
C12 C 0.5804(2) 0.7173(7) 0.6744(2)
H13 H 0.5691 0.7936 0.7211
H14 H 0.5781 0.8307 0.6346
H15 H 0.6363 0.6467 0.6772
C13 C 0.1576(2) 0.3001(7) 0.31593(19)
H16 H 0.1678 0.3635 0.269
H17 H 0.136 0.1485 0.3199
C14 C 0.17438(19) 0.4300(6) 0.37928(16)
C15 C 0.2079(3) 0.6661(7) 0.3765(2)
H18 H 0.2151 0.7263 0.4265
H19 H 0.1685 0.7641 0.3484
H20 H 0.2624 0.6648 0.3527
H21 H -0.006(3) 0.276(7) 0.556(2)
loop_
_geom_bond_atom_site_label_1
_geom_bond_atom_site_label_2
_geom_bond_site_symmetry_1
_geom_bond_site_symmetry_2
S1 N1 1_555 1_555
N1 C3 1_555 1_555
O1 C1 1_555 1_555
O2 S1 1_555 1_555
O3 S1 1_555 1_555
O4 C1 1_555 1_555
C1 C2 1_555 1_555
C2 H1 1_555 1_555
H2 C2 1_555 1_555
H3 C2 1_555 1_555
C3 C1 1_555 1_555
H4 C3 1_555 1_555
H5 C3 1_555 1_555
C4 N1 1_555 1_555
H6 C4 1_555 1_555
H7 C4 1_555 1_555
C5 O4 1_555 1_555
H8 C5 1_555 1_555
C6 S1 1_555 1_555
C7 C6 1_555 1_555
H9 C7 1_555 1_555
C8 C7 1_555 1_555
H10 C8 1_555 1_555
C9 C8 1_555 1_555
C10 C9 1_555 1_555
H11 C10 1_555 1_555
C11 C6 1_555 1_555
H12 C11 1_555 1_555
C12 C9 1_555 1_555
H13 C12 1_555 1_555
H14 C12 1_555 1_555
H15 C12 1_555 1_555
C13 H16 1_555 1_555
H17 C13 1_555 1_555
C14 C5 1_555 1_555
C15 C14 1_555 1_555
H18 C15 1_555 1_555
H19 C15 1_555 1_555
H20 C15 1_555 1_555
H21 O1 1_555 1_555
C4 C5 1_555 1_555
C10 C11 1_555 1_555
C13 C14 1_555 1_555

#END
