
#######################################################################
#
#                 Cambridge Crystallographic Data Centre
#                                CCDC 
#
#######################################################################
#
# If this CIF has been generated from an entry in the Cambridge 
# Structural Database, then it will include bibliographic, chemical, 
# crystal, experimental, refinement or atomic coordinate data resulting 
# from the CCDC's data processing and validation procedures.
#
#######################################################################

data_POTFEK
_chemical_formula_moiety         'C22 H29 F3 N2 O6'
_chemical_name_systematic        
'n-Propyl 3-(3-(benzyloxy)-4-hydroxy-1-(trifluoroacetyl)-2-pyrrolidinyl)-2,5-dimethyl-1,2-oxazolidine-5-carboxylate'
_symmetry_cell_setting           orthorhombic
_symmetry_space_group_name_H-M   'P 21 21 21'
_symmetry_Int_Tables_number      19
_space_group_name_Hall           'P 2ac 2ab'
loop_
_symmetry_equiv_pos_site_id
_symmetry_equiv_pos_as_xyz
1 x,y,z
2 1/2-x,-y,1/2+z
3 -x,1/2+y,1/2-z
4 1/2+x,1/2-y,-z
_cell_length_a                   6.3782(13)
_cell_length_b                   16.006(3)
_cell_length_c                   22.695(5)
_cell_angle_alpha                90
_cell_angle_beta                 90
_cell_angle_gamma                90
_cell_volume                     2316.92
_exptl_crystal_colour            colorless
_exptl_crystal_description       block
_chemical_melting_point          '69-71 deg.C'
_cell_formula_units_Z            4
_exptl_crystal_recrystallization_method hexane
loop_
_atom_site_label
_atom_site_type_symbol
_atom_site_fract_x
_atom_site_fract_y
_atom_site_fract_z
C1 C -0.2512(9) 0.9278(3) 0.0850(2)
H1 H -0.3454 0.8840 0.0900
C2 C -0.3012(9) 0.9937(4) 0.0489(2)
H2 H -0.4276 0.9943 0.0284
C3 C -0.1636(13) 1.0580(4) 0.0434(2)
H3 H -0.1981 1.1032 0.0195
C4 C 0.0229(13) 1.0578(4) 0.0721(2)
H4 H 0.1149 1.1025 0.0679
C5 C 0.0741(9) 0.9931(3) 0.1065(2)
H5 H 0.2033 0.9936 0.1255
C6 C -0.0555(8) 0.9266(3) 0.11467(17)
C7 C -0.0029(8) 0.8508(3) 0.1488(2)
H6 H -0.1276 0.8303 0.1685
H7 H 0.0463 0.8075 0.1223
C8 C 0.2566(6) 0.7949(3) 0.21190(17)
H8 H 0.2739 0.7547 0.1797
C9 C 0.4717(7) 0.8210(3) 0.23687(19)
H9 H 0.5190 0.8719 0.2169
C10 C 0.4288(7) 0.8406(3) 0.3011(2)
H10 H 0.5459 0.8236 0.3256
H11 H 0.4047 0.8999 0.3066
C11 C 0.1385(9) 0.7887(3) 0.3673(2)
C12 C 0.2501(13) 0.8235(4) 0.4215(2)
C13 C 0.1420(6) 0.7543(2) 0.26396(16)
H12 H -0.0049 0.7721 0.2627
C14 C 0.1465(6) 0.6591(2) 0.26585(18)
H13 H 0.0866 0.6403 0.3033
C15 C 0.0294(7) 0.6179(3) 0.21594(19)
H14 H -0.0146 0.6590 0.1871
H15 H -0.0935 0.5888 0.2305
C16 C 0.1839(7) 0.5568(3) 0.1891(2)
C17 C 0.4634(8) 0.6074(3) 0.3168(2)
H16 H 0.3738 0.5715 0.3394
H17 H 0.4860 0.6586 0.3379
H18 H 0.5954 0.5802 0.3102
C18 C 0.0899(10) 0.4721(3) 0.1740(3)
H19 H 0.1956 0.4373 0.1565
H20 H -0.0236 0.4794 0.1468
H21 H 0.0386 0.4461 0.2093
C19 C 0.2837(8) 0.5921(3) 0.1338(2)
C20 C 0.5889(13) 0.5944(4) 0.0706(3)
H22 H 0.7111 0.5594 0.0645
H23 H 0.4920 0.5862 0.0382
C21 C 0.6440(10) 0.6758(4) 0.0756(2)
H24 H 0.7320 0.6851 0.1098
H25 H 0.5217 0.7116 0.0779
C22 C 0.7761(10) 0.6913(5) 0.0131(3)
H26 H 0.7144 0.6586 -0.0178
H27 H 0.9196 0.6748 0.0184
H28 H 0.7704 0.7494 0.0027
F1 F 0.4198(9) 0.7793(3) 0.43297(18)
F2 F 0.3172(9) 0.8981(3) 0.41653(16)
F3 F 0.1411(10) 0.8174(4) 0.46728(16)
N1 N 0.2397(5) 0.7924(2) 0.31581(14)
N2 N 0.3646(5) 0.6257(2) 0.26037(14)
O1 O 0.1555(5) 0.86817(16) 0.19160(12)
O2 O 0.6217(4) 0.75797(19) 0.22899(15)
H29 H 0.5711 0.7128 0.2383
O3 O -0.0327(7) 0.7585(2) 0.37368(14)
O4 O 0.3344(5) 0.54340(16) 0.23427(13)
O5 O 0.1883(6) 0.6287(3) 0.09696(16)
O6 O 0.4838(6) 0.5749(3) 0.12977(16)
loop_
_geom_bond_atom_site_label_1
_geom_bond_atom_site_label_2
_geom_bond_site_symmetry_1
_geom_bond_site_symmetry_2
C1 H1 1_555 1_555
C2 C1 1_555 1_555
H2 C2 1_555 1_555
C3 C2 1_555 1_555
H3 C3 1_555 1_555
C4 C3 1_555 1_555
H4 C4 1_555 1_555
C5 C4 1_555 1_555
H5 C5 1_555 1_555
C6 C1 1_555 1_555
C7 C6 1_555 1_555
H6 C7 1_555 1_555
H7 C7 1_555 1_555
C8 H8 1_555 1_555
C9 C8 1_555 1_555
H9 C9 1_555 1_555
C10 C9 1_555 1_555
H10 C10 1_555 1_555
H11 C10 1_555 1_555
C11 C12 1_555 1_555
C12 F1 1_555 1_555
C13 C8 1_555 1_555
H12 C13 1_555 1_555
C14 C13 1_555 1_555
H13 C14 1_555 1_555
C15 C14 1_555 1_555
H14 C15 1_555 1_555
H15 C15 1_555 1_555
C16 C15 1_555 1_555
C17 H16 1_555 1_555
H17 C17 1_555 1_555
H18 C17 1_555 1_555
C18 C16 1_555 1_555
H19 C18 1_555 1_555
H20 C18 1_555 1_555
H21 C18 1_555 1_555
C19 C16 1_555 1_555
C20 H22 1_555 1_555
H23 C20 1_555 1_555
C21 C20 1_555 1_555
H24 C21 1_555 1_555
H25 C21 1_555 1_555
C22 C21 1_555 1_555
H26 C22 1_555 1_555
H27 C22 1_555 1_555
H28 C22 1_555 1_555
F2 C12 1_555 1_555
F3 C12 1_555 1_555
N1 C10 1_555 1_555
N2 C14 1_555 1_555
O1 C7 1_555 1_555
O2 C9 1_555 1_555
H29 O2 1_555 1_555
O3 C11 1_555 1_555
O4 C16 1_555 1_555
O5 C19 1_555 1_555
O6 C19 1_555 1_555
C5 C6 1_555 1_555
C8 O1 1_555 1_555
C11 N1 1_555 1_555
C13 N1 1_555 1_555
C17 N2 1_555 1_555
C20 O6 1_555 1_555
N2 O4 1_555 1_555

#END
