
#######################################################################
#
#                 Cambridge Crystallographic Data Centre
#                                CCDC 
#
#######################################################################
#
# If this CIF has been generated from an entry in the Cambridge 
# Structural Database, then it will include bibliographic, chemical, 
# crystal, experimental, refinement or atomic coordinate data resulting 
# from the CCDC's data processing and validation procedures.
#
#######################################################################

data_POTFIO
_chemical_formula_moiety         'C17 H22 N2 O4'
_chemical_name_systematic        
3-(Benzyloxy)-4-hydroxy-8,10-dimethyl-9-oxa-6,10-diazatricyclo[6.2.1.0^2,6^]undecan-7-one
_symmetry_cell_setting           monoclinic
_symmetry_space_group_name_H-M   'P 21'
_symmetry_Int_Tables_number      4
_space_group_name_Hall           'P 2yb'
loop_
_symmetry_equiv_pos_site_id
_symmetry_equiv_pos_as_xyz
1 x,y,z
2 -x,1/2+y,-z
_cell_length_a                   12.950(3)
_cell_length_b                   9.1343(19)
_cell_length_c                   14.533(3)
_cell_angle_alpha                90
_cell_angle_beta                 107.164(4)
_cell_angle_gamma                90
_cell_volume                     1642.53
_exptl_crystal_colour            white
_cell_formula_units_Z            4
_exptl_crystal_recrystallization_method 'ethyl acetate/hexane'
loop_
_atom_site_label
_atom_site_type_symbol
_atom_site_fract_x
_atom_site_fract_y
_atom_site_fract_z
O1 O -0.6692(3) -0.1108(4) -0.7208(2)
O2 O -0.8256(4) 0.1570(5) -0.7030(2)
H1 H -0.8364 0.1552 -0.7615
O3 O -0.7558(3) 0.0294(5) -0.3678(3)
O4 O -0.5178(3) -0.0340(5) -0.3747(3)
N1 N -0.7447(3) -0.0744(5) -0.5054(3)
N2 N -0.5058(3) -0.0727(5) -0.4700(3)
C1 C -0.6527(6) -0.0052(9) -0.7902(5)
H3 H -0.6294 0.0873 -0.7579
H4 H -0.7206 0.0113 -0.8398
C2 C -0.5688(5) -0.0584(8) -0.8364(5)
C3 C -0.5036(7) -0.1702(10) -0.7996(5)
H5 H -0.5122 -0.2211 -0.7469
C4 C -0.4233(7) -0.2108(9) -0.8392(7)
H6 H -0.3774 -0.2883 -0.8130
C5 C -0.4116(7) -0.1380(11) -0.9157(7)
H7 H -0.3586 -0.1679 -0.9431
C6 C -0.4745(7) -0.0233(13) -0.9538(6)
H8 H -0.4630 0.0287 -1.0049
C7 C -0.5556(6) 0.0159(11) -0.9166(6)
H9 H -0.6021 0.0919 -0.9445
C8 C -0.6958(4) -0.0436(6) -0.6440(3)
H10 H -0.6455 0.0372 -0.6193
C9 C -0.8108(5) 0.0125(6) -0.6665(4)
H11 H -0.8605 -0.0543 -0.7111
C10 C -0.8333(5) 0.0115(8) -0.5679(4)
H12 H -0.8333 0.1103 -0.5434
H13 H -0.9025 -0.0337 -0.5729
C11 C -0.6881(4) -0.1532(6) -0.5635(4)
H14 H -0.7300 -0.2405 -0.5907
C12 C -0.5772(4) -0.2004(6) -0.5024(4)
H15 H -0.5451 -0.2702 -0.5373
C13 C -0.5880(5) -0.2681(6) -0.4098(4)
H16 H -0.6512 -0.3305 -0.4216
H17 H -0.5240 -0.3226 -0.3754
C14 C -0.6003(5) -0.1285(6) -0.3581(4)
C15 C -0.7086(4) -0.0524(6) -0.4105(4)
C16 C -0.5817(5) -0.1382(8) -0.2517(4)
H18 H -0.5868 -0.0423 -0.2264
H19 H -0.5111 -0.1778 -0.2217
H20 H -0.6353 -0.2008 -0.2388
C17 C -0.3907(4) -0.1094(8) -0.4497(5)
H21 H -0.3740 -0.1927 -0.4077
H22 H -0.3475 -0.0275 -0.4193
H23 H -0.3755 -0.1318 -0.5089
O5 O -0.0535(3) -0.8748(5) -0.3148(2)
O6 O 0.1900(3) -0.9937(6) -0.1965(3)
H2 H 0.2016 -0.9815 -0.2485
O7 O 0.0939(3) -0.8987(5) 0.0988(3)
O8 O -0.1345(3) -1.0210(4) -0.0144(2)
N3 N 0.0390(3) -0.8443(5) -0.0579(3)
N4 N -0.1617(3) -1.0140(5) -0.1213(3)
C18 C -0.0212(7) -0.9624(14) -0.3777(5)
H24 H -0.0186 -1.0628 -0.3554
H25 H 0.0516 -0.9347 -0.3760
C19 C -0.0911(5) -0.9566(10) -0.4797(4)
C20 C -0.1529(6) -1.0729(9) -0.5192(6)
H26 H -0.1569 -1.1516 -0.4797
C21 C -0.2094(6) -1.0799(9) -0.6140(6)
H27 H -0.2514 -1.1613 -0.6390
C22 C -0.2031(6) -0.9680(10) -0.6698(5)
H28 H -0.2407 -0.9736 -0.7350
C23 C -0.1449(5) -0.8459(9) -0.6372(5)
H29 H -0.1433 -0.7686 -0.6784
C24 C -0.0873(5) -0.8393(8) -0.5395(5)
H30 H -0.0466 -0.7568 -0.5146
C25 C 0.0005(4) -0.9108(6) -0.2165(3)
H31 H -0.0114 -1.0148 -0.2064
C26 C 0.1212(4) -0.8799(7) -0.1815(4)
H32 H 0.1370 -0.7884 -0.2099
C27 C 0.1451(4) -0.8618(8) -0.0731(4)
H33 H 0.1819 -0.9474 -0.0393
H34 H 0.1898 -0.7762 -0.0506
C28 C -0.0436(4) -0.8223(6) -0.1502(3)
H35 H -0.0427 -0.7189 -0.1681
C29 C -0.1544(4) -0.8577(6) -0.1421(4)
H36 H -0.2111 -0.8289 -0.2005
C30 C -0.1662(5) -0.7771(7) -0.0543(4)
H37 H -0.1368 -0.6787 -0.0493
H38 H -0.2408 -0.7734 -0.0533
C31 C -0.0985(4) -0.8768(6) 0.0223(3)
C32 C 0.0207(4) -0.8713(6) 0.0262(3)
C33 C -0.1151(5) -0.8644(9) 0.1209(4)
H39 H -0.0818 -0.9464 0.1598
H40 H -0.1911 -0.8637 0.1143
H41 H -0.0830 -0.7753 0.1512
C34 C -0.2723(5) -1.0704(10) -0.1528(5)
H42 H -0.2962 -1.0771 -0.2217
H43 H -0.3190 -1.0054 -0.1317
H44 H -0.2743 -1.1657 -0.1255
loop_
_geom_bond_atom_site_label_1
_geom_bond_atom_site_label_2
_geom_bond_site_symmetry_1
_geom_bond_site_symmetry_2
O1 C1 1_555 1_555
O2 H1 1_555 1_555
O3 C15 1_555 1_555
O4 N2 1_555 1_555
O5 C18 1_555 1_555
O6 H2 1_555 1_555
O7 C32 1_555 1_555
O8 N4 1_555 1_555
N1 C10 1_555 1_555
N2 C12 1_555 1_555
N3 C27 1_555 1_555
N4 C29 1_555 1_555
C1 H3 1_555 1_555
H4 C1 1_555 1_555
C2 C1 1_555 1_555
C3 C2 1_555 1_555
H5 C3 1_555 1_555
C4 C3 1_555 1_555
H6 C4 1_555 1_555
C5 C4 1_555 1_555
H7 C5 1_555 1_555
C6 C5 1_555 1_555
H8 C6 1_555 1_555
C7 C2 1_555 1_555
H9 C7 1_555 1_555
C8 O1 1_555 1_555
H10 C8 1_555 1_555
C9 O2 1_555 1_555
H11 C9 1_555 1_555
C10 C9 1_555 1_555
H12 C10 1_555 1_555
H13 C10 1_555 1_555
C11 N1 1_555 1_555
H14 C11 1_555 1_555
C12 C11 1_555 1_555
H15 C12 1_555 1_555
C13 C12 1_555 1_555
H16 C13 1_555 1_555
H17 C13 1_555 1_555
C14 O4 1_555 1_555
C15 N1 1_555 1_555
C16 C14 1_555 1_555
H18 C16 1_555 1_555
H19 C16 1_555 1_555
H20 C16 1_555 1_555
C17 N2 1_555 1_555
H21 C17 1_555 1_555
H22 C17 1_555 1_555
H23 C17 1_555 1_555
C18 H24 1_555 1_555
H25 C18 1_555 1_555
C19 C18 1_555 1_555
C20 C19 1_555 1_555
H26 C20 1_555 1_555
C21 C20 1_555 1_555
H27 C21 1_555 1_555
C22 C21 1_555 1_555
H28 C22 1_555 1_555
C23 C22 1_555 1_555
H29 C23 1_555 1_555
C24 C19 1_555 1_555
H30 C24 1_555 1_555
C25 O5 1_555 1_555
H31 C25 1_555 1_555
C26 O6 1_555 1_555
H32 C26 1_555 1_555
C27 C26 1_555 1_555
H33 C27 1_555 1_555
H34 C27 1_555 1_555
C28 N3 1_555 1_555
H35 C28 1_555 1_555
C29 C28 1_555 1_555
H36 C29 1_555 1_555
C30 C29 1_555 1_555
H37 C30 1_555 1_555
H38 C30 1_555 1_555
C31 O8 1_555 1_555
C32 N3 1_555 1_555
C33 C31 1_555 1_555
H39 C33 1_555 1_555
H40 C33 1_555 1_555
H41 C33 1_555 1_555
C34 N4 1_555 1_555
H42 C34 1_555 1_555
H43 C34 1_555 1_555
H44 C34 1_555 1_555
C6 C7 1_555 1_555
C8 C9 1_555 1_555
C8 C11 1_555 1_555
C13 C14 1_555 1_555
C14 C15 1_555 1_555
C23 C24 1_555 1_555
C25 C26 1_555 1_555
C25 C28 1_555 1_555
C30 C31 1_555 1_555
C31 C32 1_555 1_555

#END
