
#######################################################################
#
#                 Cambridge Crystallographic Data Centre
#                                CCDC 
#
#######################################################################
#
# If this CIF has been generated from an entry in the Cambridge 
# Structural Database, then it will include bibliographic, chemical, 
# crystal, experimental, refinement or atomic coordinate data resulting 
# from the CCDC's data processing and validation procedures.
#
#######################################################################

data_POTLAN
_chemical_name_common            'Ciprofloxacinium triiodide'
_chemical_formula_moiety         'C17 H19 F1 N3 O3 1+,I3 1-'
_chemical_name_systematic        
'4-(3-Carboxy-1-cyclopropyl-6-fluoro-4-oxo-1,4-dihydroquinolin-7-yl)piperazin-1-ium triiodide'
_symmetry_cell_setting           triclinic
_symmetry_space_group_name_H-M   'P -1'
_symmetry_Int_Tables_number      2
_space_group_name_Hall           '-P 1'
loop_
_symmetry_equiv_pos_site_id
_symmetry_equiv_pos_as_xyz
1 x,y,z
2 -x,-y,-z
_cell_length_a                   8.1001(7)
_cell_length_b                   9.6437(8)
_cell_length_c                   13.9228(12)
_cell_angle_alpha                87.4810(10)
_cell_angle_beta                 77.694(2)
_cell_angle_gamma                77.2790(10)
_cell_volume                     1036.5
_exptl_crystal_colour            violet
_exptl_crystal_description       block
_cell_formula_units_Z            2
loop_
_atom_site_label
_atom_site_type_symbol
_atom_site_fract_x
_atom_site_fract_y
_atom_site_fract_z
C1 C 0.6523(11) 0.8100(9) -0.1686(7)
C2 C 0.6306(10) 0.8119(8) -0.0615(6)
C3 C 0.7218(10) 0.9016(9) -0.0188(6)
C4 C 0.7046(10) 0.8905(8) 0.0856(6)
C5 C 0.7878(11) 0.9666(11) 0.1362(6)
H1 H 0.8514 1.0289 0.1015
C6 C 0.7786(11) 0.9521(8) 0.2363(6)
C7 C 0.6836(10) 0.8621(8) 0.2911(6)
C8 C 0.5910(10) 0.7903(8) 0.2443(5)
H2 H 0.5211 0.7335 0.2804
C9 C 0.6039(10) 0.8042(8) 0.1430(6)
C10 C 0.5316(11) 0.7365(9) -0.0034(6)
H3 H 0.4689 0.6868 -0.0325
C11 C 0.4028(11) 0.6427(9) 0.1513(7)
H4 H 0.4628 0.5492 0.1705
C12 C 0.2437(12) 0.7063(9) 0.2230(6)
H5 H 0.2138 0.8090 0.2298
H6 H 0.2138 0.6544 0.2831
C13 C 0.2316(10) 0.6445(9) 0.1290(6)
H7 H 0.1943 0.5551 0.1322
H8 H 0.1943 0.7097 0.0789
C14 C 0.8380(11) 0.8092(10) 0.4250(6)
H9 H 0.9147 0.8686 0.3916
H10 H 0.8906 0.7113 0.4055
C15 C 0.8163(11) 0.8236(9) 0.5340(6)
H11 H 0.9275 0.7919 0.5525
H12 H 0.7721 0.9225 0.5532
C16 C 0.5236(11) 0.7862(11) 0.5579(6)
H13 H 0.4747 0.8845 0.5775
H14 H 0.4449 0.7283 0.5913
C17 C 0.5494(12) 0.7711(8) 0.4459(6)
H15 H 0.5912 0.6716 0.4277
H16 H 0.4393 0.8042 0.4265
F1 F 0.8588(6) 1.0305(5) 0.2798(3)
N1 N 0.5151(8) 0.7264(7) 0.0962(5)
N2 N 0.6706(9) 0.8510(8) 0.3950(5)
N3 N 0.6963(9) 0.7382(8) 0.5846(5)
H17 H 0.6844 0.7461 0.6500
H18 H 0.7390 0.6462 0.5680
O1 O 0.5899(8) 0.7274(7) -0.2096(4)
O2 O 0.7425(7) 0.8973(6) -0.2202(4)
H19 H 0.7637 0.9621 -0.1763
O3 O 0.8014(8) 0.9876(6) -0.0697(4)
I1 I 0.78414(9) 0.41692(7) 0.51910(5)
I2 I 0.84743(8) 0.41178(6) 0.31370(4)
I3 I 0.89113(8) 0.40501(7) 0.11241(4)
loop_
_geom_bond_atom_site_label_1
_geom_bond_atom_site_label_2
_geom_bond_site_symmetry_1
_geom_bond_site_symmetry_2
C1 C2 1_555 1_555
C2 C3 1_555 1_555
C3 C4 1_555 1_555
C4 C5 1_555 1_555
C5 H1 1_555 1_555
C6 C5 1_555 1_555
C7 C6 1_555 1_555
C8 C7 1_555 1_555
H2 C8 1_555 1_555
C9 C4 1_555 1_555
C10 C2 1_555 1_555
H3 C10 1_555 1_555
C11 H4 1_555 1_555
C12 C11 1_555 1_555
H5 C12 1_555 1_555
H6 C12 1_555 1_555
C13 C11 1_555 1_555
H7 C13 1_555 1_555
H8 C13 1_555 1_555
C14 H9 1_555 1_555
H10 C14 1_555 1_555
C15 C14 1_555 1_555
H11 C15 1_555 1_555
H12 C15 1_555 1_555
C16 H13 1_555 1_555
H14 C16 1_555 1_555
C17 C16 1_555 1_555
H15 C17 1_555 1_555
H16 C17 1_555 1_555
F1 C6 1_555 1_555
N1 C9 1_555 1_555
N2 C7 1_555 1_555
N3 C15 1_555 1_555
H17 N3 1_555 1_555
H18 N3 1_555 1_555
O1 C1 1_555 1_555
O2 C1 1_555 1_555
H19 O2 1_555 1_555
O3 C3 1_555 1_555
I1 I2 1_555 1_555
I2 I3 1_555 1_555
C8 C9 1_555 1_555
C10 N1 1_555 1_555
C11 N1 1_555 1_555
C12 C13 1_555 1_555
C14 N2 1_555 1_555
C16 N3 1_555 1_555
C17 N2 1_555 1_555

#END
