
#######################################################################
#
#                 Cambridge Crystallographic Data Centre
#                                CCDC 
#
#######################################################################
#
# If this CIF has been generated from an entry in the Cambridge 
# Structural Database, then it will include bibliographic, chemical, 
# crystal, experimental, refinement or atomic coordinate data resulting 
# from the CCDC's data processing and validation procedures.
#
#######################################################################

data_POTNOC
_chemical_formula_moiety         'C30 H25 N1 O2'
_chemical_name_systematic        
(6aR,11aS)-6-benzyl-9-methoxy-11a-phenyl-6,6a,11,11a-tetrahydro-5H-indeno[1,2-c]isoquinolin-5-one
_symmetry_cell_setting           monoclinic
_symmetry_space_group_name_H-M   'P 21/c'
_symmetry_Int_Tables_number      14
_space_group_name_Hall           '-P 2ybc'
loop_
_symmetry_equiv_pos_site_id
_symmetry_equiv_pos_as_xyz
1 x,y,z
2 -x,1/2+y,1/2-z
3 -x,-y,-z
4 x,1/2-y,1/2+z
_cell_length_a                   10.1531(5)
_cell_length_b                   23.5585(11)
_cell_length_c                   9.4532(4)
_cell_angle_alpha                90
_cell_angle_beta                 101.6430(10)
_cell_angle_gamma                90
_cell_volume                     2214.6
_exptl_crystal_colour            colorless
_exptl_crystal_description       irregular
_chemical_melting_point          '178-180 deg.C'
_cell_formula_units_Z            4
loop_
_atom_site_label
_atom_site_type_symbol
_atom_site_fract_x
_atom_site_fract_y
_atom_site_fract_z
O1 O 0.47174(8) 0.27033(3) 0.30216(8)
O2 O 0.77537(7) 0.00917(3) -0.06738(7)
N1 N 0.39796(7) 0.18401(3) 0.21463(8)
C1 C 0.48286(9) 0.21831(4) 0.30556(9)
C2 C 0.58978(9) 0.18939(4) 0.41290(9)
C3 C 0.69499(10) 0.22295(4) 0.48674(10)
H1 H 0.6972(12) 0.2630(5) 0.4629(13)
C4 C 0.79441(10) 0.19924(4) 0.59273(11)
H2 H 0.8690(14) 0.2232(6) 0.6423(15)
C5 C 0.78766(9) 0.14203(4) 0.62549(10)
H3 H 0.8549(14) 0.1255(6) 0.7017(15)
C6 C 0.68335(9) 0.10857(4) 0.55235(9)
H4 H 0.6801(13) 0.0680(5) 0.5780(14)
C7 C 0.58325(8) 0.13150(3) 0.44420(9)
C8 C 0.46486(8) 0.09608(3) 0.36753(8)
C9 C 0.51512(9) 0.03695(3) 0.32700(9)
H5 H 0.5833(12) 0.0198(5) 0.4038(13)
H6 H 0.4363(13) 0.0092(6) 0.3027(14)
C10 C 0.56652(8) 0.04916(3) 0.19174(9)
C11 C 0.65772(9) 0.01774(4) 0.13260(9)
H7 H 0.6993(12) -0.0162(5) 0.1817(13)
C12 C 0.68596(9) 0.03621(4) 0.00178(9)
C13 C 0.62390(9) 0.08443(4) -0.06721(9)
H8 H 0.6492(13) 0.0974(5) -0.1586(14)
C14 C 0.53479(9) 0.11615(4) -0.00538(9)
H9 H 0.4960(11) 0.1491(5) -0.0527(12)
C15 C 0.50721(8) 0.09810(3) 0.12583(9)
C16 C 0.41228(8) 0.12237(3) 0.21509(9)
H10 H 0.3211(12) 0.1084(5) 0.1804(13)
C17 C 0.28960(9) 0.20885(4) 0.10675(9)
H11 H 0.3018(11) 0.1967(5) 0.0077(12)
H12 H 0.3034(12) 0.2490(5) 0.1144(12)
C18 C 0.15215(9) 0.19311(3) 0.13243(9)
C19 C 0.05145(10) 0.17534(4) 0.01814(10)
H13 H 0.0706(13) 0.1739(6) -0.0816(13)
C20 C -0.07365(10) 0.15877(4) 0.04220(13)
H14 H -0.1431(15) 0.1469(6) -0.0394(16)
C21 C -0.10003(11) 0.16031(5) 0.18045(13)
H15 H -0.1881(15) 0.1487(6) 0.1981(16)
C22 C -0.00164(11) 0.17934(5) 0.29387(12)
H16 H -0.0175(14) 0.1824(6) 0.3930(15)
C23 C 0.12364(10) 0.19567(4) 0.27039(10)
H17 H 0.1948(13) 0.2075(6) 0.3513(15)
C24 C 0.35308(8) 0.09285(3) 0.45409(9)
C25 C 0.23995(9) 0.05886(4) 0.40360(10)
H18 H 0.2335(12) 0.0361(5) 0.3157(14)
C26 C 0.13425(10) 0.05688(4) 0.47594(11)
H19 H 0.0580(15) 0.0343(6) 0.4386(16)
C27 C 0.13877(10) 0.08873(4) 0.60074(11)
H20 H 0.0622(15) 0.0880(6) 0.6515(15)
C28 C 0.24964(10) 0.12245(4) 0.65196(10)
H21 H 0.2544(13) 0.1460(5) 0.7378(14)
C29 C 0.35642(9) 0.12455(4) 0.57959(9)
H22 H 0.4298(13) 0.1479(6) 0.6191(14)
C30 C 0.85283(10) -0.03541(4) 0.01057(11)
H23 H 0.9116(13) -0.0501(6) -0.0570(14)
H24 H 0.7945(12) -0.0667(5) 0.0347(13)
H25 H 0.9091(12) -0.0204(5) 0.1004(13)
loop_
_geom_bond_atom_site_label_1
_geom_bond_atom_site_label_2
_geom_bond_site_symmetry_1
_geom_bond_site_symmetry_2
O1 C1 1_555 1_555
O2 C12 1_555 1_555
N1 C1 1_555 1_555
C1 C2 1_555 1_555
C2 C3 1_555 1_555
C3 H1 1_555 1_555
C4 C3 1_555 1_555
H2 C4 1_555 1_555
C5 C4 1_555 1_555
H3 C5 1_555 1_555
C6 C5 1_555 1_555
H4 C6 1_555 1_555
C7 C2 1_555 1_555
C8 C7 1_555 1_555
C9 C8 1_555 1_555
H5 C9 1_555 1_555
H6 C9 1_555 1_555
C10 C9 1_555 1_555
C11 C10 1_555 1_555
H7 C11 1_555 1_555
C12 C11 1_555 1_555
C13 C12 1_555 1_555
H8 C13 1_555 1_555
C14 C13 1_555 1_555
H9 C14 1_555 1_555
C15 C10 1_555 1_555
C16 N1 1_555 1_555
H10 C16 1_555 1_555
C17 N1 1_555 1_555
H11 C17 1_555 1_555
H12 C17 1_555 1_555
C18 C17 1_555 1_555
C19 C18 1_555 1_555
H13 C19 1_555 1_555
C20 C19 1_555 1_555
H14 C20 1_555 1_555
C21 C20 1_555 1_555
H15 C21 1_555 1_555
C22 C21 1_555 1_555
H16 C22 1_555 1_555
C23 C18 1_555 1_555
H17 C23 1_555 1_555
C24 C8 1_555 1_555
C25 C24 1_555 1_555
H18 C25 1_555 1_555
C26 C25 1_555 1_555
H19 C26 1_555 1_555
C27 C26 1_555 1_555
H20 C27 1_555 1_555
C28 C27 1_555 1_555
H21 C28 1_555 1_555
C29 C24 1_555 1_555
H22 C29 1_555 1_555
C30 O2 1_555 1_555
H23 C30 1_555 1_555
H24 C30 1_555 1_555
H25 C30 1_555 1_555
C6 C7 1_555 1_555
C8 C16 1_555 1_555
C14 C15 1_555 1_555
C15 C16 1_555 1_555
C22 C23 1_555 1_555
C28 C29 1_555 1_555

#END
