
#######################################################################
#
#                 Cambridge Crystallographic Data Centre
#                                CCDC 
#
#######################################################################
#
# If this CIF has been generated from an entry in the Cambridge 
# Structural Database, then it will include bibliographic, chemical, 
# crystal, experimental, refinement or atomic coordinate data resulting 
# from the CCDC's data processing and validation procedures.
#
#######################################################################

data_POTROG
_chemical_formula_moiety         'C52 H60 O16 S4,2(C3 H6 O1)'
_chemical_name_systematic        
'5,7,21,23-tetrakis(Pentyloxy)-2,10,18,26-tetraoxa-3,9,19,25-tetrathiaheptacyclo[25.5.3.3^11,17^.1^4,8^.1^20,24^.0^14,38^.0^30,34^]tetraconta-1(33),4(40),5,7,11,13,15,17(37),20(36),21,23,27,29,31,34,38-hexadecaene 3,3,9,9,19,19,25,25-octaoxide acetone solvate'
_symmetry_cell_setting           monoclinic
_symmetry_space_group_name_H-M   'C c'
_symmetry_Int_Tables_number      9
_space_group_name_Hall           'C -2yc'
loop_
_symmetry_equiv_pos_site_id
_symmetry_equiv_pos_as_xyz
1 x,y,z
2 x,-y,1/2+z
3 1/2+x,1/2+y,z
4 1/2+x,1/2-y,1/2+z
_cell_length_a                   12.171(2)
_cell_length_b                   29.543(6)
_cell_length_c                   17.148(3)
_cell_angle_alpha                90
_cell_angle_beta                 101.92(3)
_cell_angle_gamma                90
_cell_volume                     6032.91
_exptl_crystal_colour            colorless
_exptl_crystal_description       block
_chemical_melting_point          '274-275 deg.C'
_cell_formula_units_Z            4
_exptl_crystal_recrystallization_method 'acetone/ethyl acetate/petroleum ether'
loop_
_atom_site_label
_atom_site_type_symbol
_atom_site_fract_x
_atom_site_fract_y
_atom_site_fract_z
S1 S 0.68523(9) 0.39631(4) 0.46968(7)
S2 S 0.27819(10) 0.47786(4) 0.39687(8)
S3 S 0.64881(10) 0.70687(4) 0.30761(7)
S4 S 1.04916(10) 0.62344(4) 0.34137(7)
O1 O 0.7095(3) 0.44047(11) 0.50173(18)
O2 O 0.7100(3) 0.35772(11) 0.51966(19)
O3 O 0.7578(2) 0.38747(10) 0.40338(17)
O4 O 0.1799(3) 0.46281(11) 0.4208(2)
O5 O 0.3477(3) 0.51189(11) 0.4412(2)
O6 O 0.2324(3) 0.49561(10) 0.3075(2)
O7 O 0.6497(3) 0.67651(12) 0.37243(19)
O8 O 0.6407(3) 0.75429(11) 0.3187(2)
O9 O 0.5455(3) 0.69518(11) 0.23732(19)
O10 O 1.0071(3) 0.60997(12) 0.40937(19)
O11 O 1.1589(3) 0.64332(12) 0.3510(2)
O12 O 1.0566(3) 0.58096(11) 0.2862(2)
O13 O 0.5745(3) 0.32467(11) 0.36836(19)
O14 O 0.2133(3) 0.39775(11) 0.29947(19)
O15 O 0.7003(3) 0.74241(12) 0.15910(19)
O16 O 1.0598(3) 0.66872(12) 0.19009(19)
C1 C 0.5458(4) 0.39587(15) 0.4168(3)
C2 C 0.4767(4) 0.43273(16) 0.4233(3)
H1 H 0.5053 0.4577 0.4539
C3 C 0.3651(4) 0.43191(16) 0.3839(3)
C4 C 0.3213(4) 0.39432(16) 0.3377(3)
C5 C 0.3898(4) 0.35802(17) 0.3304(3)
H2 H 0.3619 0.3336 0.2982
C6 C 0.5015(4) 0.35830(16) 0.3716(3)
C7 C 0.3081(4) 0.51797(17) 0.2676(3)
C8 C 0.3519(4) 0.49333(17) 0.2118(3)
H3 H 0.3337 0.4629 0.2028
C9 C 0.4221(4) 0.51445(17) 0.1703(3)
H4 H 0.4489 0.4986 0.1312
C10 C 0.4540(4) 0.55989(17) 0.1862(3)
C11 C 0.5298(4) 0.58255(18) 0.1471(3)
H5 H 0.5587 0.5673 0.1083
C12 C 0.5614(4) 0.62635(17) 0.1653(3)
H6 H 0.6128 0.6406 0.1403
C13 C 0.5157(4) 0.64918(16) 0.2217(3)
C14 C 0.4415(4) 0.62964(15) 0.2602(3)
H7 H 0.4126 0.6460 0.2978
C15 C 0.4081(4) 0.58444(16) 0.2432(3)
C16 C 0.3325(4) 0.56219(16) 0.2836(3)
H8 H 0.3004 0.5777 0.3204
C17 C 0.7673(4) 0.69445(16) 0.2674(3)
C18 C 0.8484(4) 0.66629(16) 0.3094(3)
H9 H 0.8369 0.6525 0.3558
C19 C 0.9473(4) 0.65813(16) 0.2835(3)
C20 C 0.9640(4) 0.67888(16) 0.2130(3)
C21 C 0.8828(4) 0.70788(17) 0.1704(3)
H10 H 0.8946 0.7220 0.1243
C22 C 0.7834(4) 0.71573(16) 0.1974(3)
C23 C 0.9644(4) 0.54982(16) 0.2714(3)
C24 C 0.8920(4) 0.55128(17) 0.1970(3)
H11 H 0.9016 0.5729 0.1596
C25 C 0.8066(4) 0.52053(17) 0.1798(3)
H12 H 0.7579 0.5214 0.1303
C26 C 0.7912(4) 0.48722(16) 0.2362(3)
C27 C 0.7054(4) 0.45466(17) 0.2196(3)
H13 H 0.6564 0.4549 0.1702
C28 C 0.6923(4) 0.42280(17) 0.2740(3)
H14 H 0.6350 0.4015 0.2623
C29 C 0.7676(4) 0.42259(16) 0.3491(3)
C30 C 0.8524(4) 0.45317(16) 0.3672(3)
H15 H 0.9008 0.4523 0.4169
C31 C 0.8672(4) 0.48619(15) 0.3111(3)
C32 C 0.9546(4) 0.51843(16) 0.3278(3)
H16 H 1.0049 0.5182 0.3767
C33 C 0.5439(4) 0.28647(16) 0.3157(3)
H17 H 0.5214 0.2964 0.2608
H18 H 0.4826 0.2696 0.3301
C34 C 0.6482(4) 0.25806(17) 0.3269(3)
H19 H 0.6315 0.2306 0.2957
H20 H 0.6696 0.2493 0.3825
C35 C 0.7466(5) 0.28156(19) 0.3030(4)
H21 H 0.7600 0.3101 0.3314
H22 H 0.7272 0.2884 0.2464
C36 C 0.8540(5) 0.2540(2) 0.3196(4)
H23 H 0.8421 0.2266 0.2878
H24 H 0.9125 0.2713 0.3024
C37 C 0.8948(6) 0.2409(3) 0.4052(5)
H25 H 0.9622 0.2234 0.4104
H26 H 0.8382 0.2233 0.4228
H27 H 0.9100 0.2678 0.4372
C38 C 0.1622(4) 0.36180(17) 0.2466(3)
H28 H 0.1653 0.3334 0.2752
H29 H 0.2009 0.3581 0.2029
C39 C 0.0410(4) 0.37601(19) 0.2155(3)
H30 H 0.0015 0.3748 0.2591
H31 H 0.0059 0.3543 0.1755
C40 C 0.0270(4) 0.4232(2) 0.1791(3)
H32 H -0.0526 0.4297 0.1632
H33 H 0.0591 0.4450 0.2198
C41 C 0.0805(5) 0.4302(2) 0.1075(3)
H34 H 0.0459 0.4097 0.0653
H35 H 0.1596 0.4226 0.1223
C42 C 0.0684(6) 0.4785(3) 0.0762(4)
H36 H 0.1034 0.4811 0.0311
H37 H 0.1040 0.4989 0.1173
H38 H -0.0098 0.4860 0.0604
C43 C 0.7030(5) 0.75875(18) 0.0792(3)
H39 H 0.7205 0.7342 0.0462
H40 H 0.7591 0.7823 0.0815
C44 C 0.5868(5) 0.7772(2) 0.0463(3)
H41 H 0.5868 0.7926 -0.0037
H42 H 0.5678 0.7993 0.0833
C45 C 0.4967(5) 0.7394(2) 0.0323(4)
H43 H 0.5193 0.7163 -0.0015
H44 H 0.4942 0.7254 0.0831
C46 C 0.3791(5) 0.7556(2) -0.0060(4)
H45 H 0.3821 0.7712 -0.0553
H46 H 0.3306 0.7295 -0.0193
C47 C 0.3284(7) 0.7871(3) 0.0472(5)
H47 H 0.2549 0.7964 0.0197
H48 H 0.3754 0.8132 0.0600
H49 H 0.3227 0.7715 0.0953
C48 C 1.0889(5) 0.69294(18) 0.1231(3)
H50 H 1.1051 0.7244 0.1368
H51 H 1.0275 0.6916 0.0770
C49 C 1.1916(5) 0.6696(2) 0.1058(4)
H52 H 1.2159 0.6854 0.0628
H53 H 1.2518 0.6716 0.1527
C50 C 1.1723(5) 0.6207(2) 0.0832(3)
H54 H 1.1676 0.6035 0.1306
H55 H 1.2365 0.6096 0.0636
C51 C 1.0677(5) 0.6122(2) 0.0208(3)
H56 H 1.0030 0.6211 0.0421
H57 H 1.0616 0.5800 0.0098
C52 C 1.0643(6) 0.6377(2) -0.0580(4)
H58 H 0.9947 0.6314 -0.0942
H59 H 1.1258 0.6280 -0.0811
H60 H 1.0703 0.6697 -0.0478
O17 O 0.1119(3) 0.03835(14) 0.5184(2)
C53 C 0.1262(5) 0.0398(2) 0.3832(3)
H61 H 0.0575 0.0229 0.3757
H62 H 0.1822 0.0223 0.3646
H63 H 0.1135 0.0676 0.3537
C54 C 0.1656(4) 0.05000(19) 0.4688(3)
C55 C 0.2717(6) 0.0753(3) 0.4910(4)
H64 H 0.2891 0.0801 0.5476
H65 H 0.2641 0.1041 0.4643
H66 H 0.3310 0.0584 0.4756
O18 O 0.4094(5) 0.3415(3) 0.1384(4)
C56 C 0.3670(8) 0.3862(3) 0.0245(5)
H67 H 0.2953 0.3894 0.0390
H68 H 0.3572 0.3723 -0.0271
H69 H 0.4004 0.4156 0.0228
C57 C 0.4398(6) 0.3582(2) 0.0829(4)
C58 C 0.5539(7) 0.3487(3) 0.0714(5)
H70 H 0.5915 0.3291 0.1132
H71 H 0.5949 0.3765 0.0727
H72 H 0.5497 0.3341 0.0208
loop_
_geom_bond_atom_site_label_1
_geom_bond_atom_site_label_2
_geom_bond_site_symmetry_1
_geom_bond_site_symmetry_2
S1 O1 1_555 1_555
S2 O4 1_555 1_555
S3 O7 1_555 1_555
S4 O10 1_555 1_555
O2 S1 1_555 1_555
O3 S1 1_555 1_555
O5 S2 1_555 1_555
O6 S2 1_555 1_555
O8 S3 1_555 1_555
O9 S3 1_555 1_555
O11 S4 1_555 1_555
O12 S4 1_555 1_555
O13 C6 1_555 1_555
O14 C4 1_555 1_555
O15 C22 1_555 1_555
O16 C20 1_555 1_555
C1 S1 1_555 1_555
C2 C1 1_555 1_555
H1 C2 1_555 1_555
C3 S2 1_555 1_555
C4 C3 1_555 1_555
C5 C4 1_555 1_555
H2 C5 1_555 1_555
C6 C1 1_555 1_555
C7 O6 1_555 1_555
C8 C7 1_555 1_555
H3 C8 1_555 1_555
C9 C8 1_555 1_555
H4 C9 1_555 1_555
C10 C9 1_555 1_555
C11 C10 1_555 1_555
H5 C11 1_555 1_555
C12 C11 1_555 1_555
H6 C12 1_555 1_555
C13 O9 1_555 1_555
C14 C13 1_555 1_555
H7 C14 1_555 1_555
C15 C10 1_555 1_555
C16 C7 1_555 1_555
H8 C16 1_555 1_555
C17 S3 1_555 1_555
C18 C17 1_555 1_555
H9 C18 1_555 1_555
C19 S4 1_555 1_555
C20 C19 1_555 1_555
C21 C20 1_555 1_555
H10 C21 1_555 1_555
C22 C17 1_555 1_555
C23 O12 1_555 1_555
C24 C23 1_555 1_555
H11 C24 1_555 1_555
C25 C24 1_555 1_555
H12 C25 1_555 1_555
C26 C25 1_555 1_555
C27 C26 1_555 1_555
H13 C27 1_555 1_555
C28 C27 1_555 1_555
H14 C28 1_555 1_555
C29 O3 1_555 1_555
C30 C29 1_555 1_555
H15 C30 1_555 1_555
C31 C26 1_555 1_555
C32 C23 1_555 1_555
H16 C32 1_555 1_555
C33 O13 1_555 1_555
H17 C33 1_555 1_555
H18 C33 1_555 1_555
C34 C33 1_555 1_555
H19 C34 1_555 1_555
H20 C34 1_555 1_555
C35 C34 1_555 1_555
H21 C35 1_555 1_555
H22 C35 1_555 1_555
C36 C35 1_555 1_555
H23 C36 1_555 1_555
H24 C36 1_555 1_555
C37 C36 1_555 1_555
H25 C37 1_555 1_555
H26 C37 1_555 1_555
H27 C37 1_555 1_555
C38 O14 1_555 1_555
H28 C38 1_555 1_555
H29 C38 1_555 1_555
C39 C38 1_555 1_555
H30 C39 1_555 1_555
H31 C39 1_555 1_555
C40 C39 1_555 1_555
H32 C40 1_555 1_555
H33 C40 1_555 1_555
C41 C40 1_555 1_555
H34 C41 1_555 1_555
H35 C41 1_555 1_555
C42 C41 1_555 1_555
H36 C42 1_555 1_555
H37 C42 1_555 1_555
H38 C42 1_555 1_555
C43 O15 1_555 1_555
H39 C43 1_555 1_555
H40 C43 1_555 1_555
C44 C43 1_555 1_555
H41 C44 1_555 1_555
H42 C44 1_555 1_555
C45 C44 1_555 1_555
H43 C45 1_555 1_555
H44 C45 1_555 1_555
C46 C45 1_555 1_555
H45 C46 1_555 1_555
H46 C46 1_555 1_555
C47 C46 1_555 1_555
H47 C47 1_555 1_555
H48 C47 1_555 1_555
H49 C47 1_555 1_555
C48 O16 1_555 1_555
H50 C48 1_555 1_555
H51 C48 1_555 1_555
C49 C48 1_555 1_555
H52 C49 1_555 1_555
H53 C49 1_555 1_555
C50 C49 1_555 1_555
H54 C50 1_555 1_555
H55 C50 1_555 1_555
C51 C50 1_555 1_555
H56 C51 1_555 1_555
H57 C51 1_555 1_555
C52 C51 1_555 1_555
H58 C52 1_555 1_555
H59 C52 1_555 1_555
H60 C52 1_555 1_555
O17 C54 1_555 1_555
C53 H61 1_555 1_555
H62 C53 1_555 1_555
H63 C53 1_555 1_555
C54 C53 1_555 1_555
C55 C54 1_555 1_555
H64 C55 1_555 1_555
H65 C55 1_555 1_555
H66 C55 1_555 1_555
O18 C57 1_555 1_555
C56 H67 1_555 1_555
H68 C56 1_555 1_555
H69 C56 1_555 1_555
C57 C56 1_555 1_555
C58 C57 1_555 1_555
H70 C58 1_555 1_555
H71 C58 1_555 1_555
H72 C58 1_555 1_555
C2 C3 1_555 1_555
C5 C6 1_555 1_555
C12 C13 1_555 1_555
C14 C15 1_555 1_555
C15 C16 1_555 1_555
C18 C19 1_555 1_555
C21 C22 1_555 1_555
C28 C29 1_555 1_555
C30 C31 1_555 1_555
C31 C32 1_555 1_555

#END
