
#######################################################################
#
#                 Cambridge Crystallographic Data Centre
#                                CCDC 
#
#######################################################################
#
# If this CIF has been generated from an entry in the Cambridge 
# Structural Database, then it will include bibliographic, chemical, 
# crystal, experimental, refinement or atomic coordinate data resulting 
# from the CCDC's data processing and validation procedures.
#
#######################################################################

data_POTRAS
_chemical_formula_moiety         'C60 H64 O16 S4,2(C3 H7 N1 O1)'
_chemical_name_systematic        
'5,9,23,27-tetrakis(3-Methylbutoxy)-2,12,20,30-tetraoxa-3,11,21,29-tetrathianonacyclo[29.5.3.3^4,10^.3^13,19^.3^22,28^.0^7,47^.0^16,44^.0^25,41^.0^34,38^]octatetraconta-1(37),4(48),5,7,9,13,15,17,19(43),22(42),23,25,27,31,33,35,38,40,44,46-icosaene 3,3,11,11,21,21,29,29-octaoxide N,N-dimethylformamide solvate'
_symmetry_cell_setting           monoclinic
_symmetry_space_group_name_H-M   'P 21'
_symmetry_Int_Tables_number      4
_space_group_name_Hall           'P 2yb'
loop_
_symmetry_equiv_pos_site_id
_symmetry_equiv_pos_as_xyz
1 x,y,z
2 -x,1/2+y,-z
_cell_length_a                   13.203(3)
_cell_length_b                   12.335(3)
_cell_length_c                   20.643(4)
_cell_angle_alpha                90
_cell_angle_beta                 100.89(3)
_cell_angle_gamma                90
_cell_volume                     3301.36
_exptl_crystal_colour            colorless
_exptl_crystal_description       block
_chemical_melting_point          '378-379 deg.C'
_cell_formula_units_Z            2
_exptl_crystal_recrystallization_method methanol/dimethylformamide
loop_
_atom_site_label
_atom_site_type_symbol
_atom_site_fract_x
_atom_site_fract_y
_atom_site_fract_z
S1 S 0.95472(7) 0.85907(9) 0.38467(4)
S2 S 0.60521(8) 0.69026(9) -0.00816(5)
S3 S 0.12553(7) 0.79426(9) 0.15348(5)
S4 S 0.47142(7) 0.93672(9) 0.54657(4)
O1 O 0.8906(2) 0.7676(3) 0.36168(14)
O2 O 1.0594(2) 0.8415(3) 0.41330(14)
O3 O 0.95884(19) 0.9391(3) 0.32511(12)
O4 O 0.6757(2) 0.7970(3) 0.00041(13)
O5 O 0.6218(2) 0.6443(3) -0.06832(16)
O6 O 0.6268(3) 0.6288(3) 0.05149(16)
O7 O 0.0227(2) 0.7626(3) 0.12885(16)
O8 O 0.1897(2) 0.7281(3) 0.20092(15)
O9 O 0.1147(2) 0.9101(2) 0.18468(13)
O10 O 0.4033(2) 1.0346(3) 0.51064(13)
O11 O 0.4537(2) 0.9403(3) 0.61243(13)
O12 O 0.4475(2) 0.8415(2) 0.50768(14)
O13 O 0.5831(2) 1.1216(3) 0.61264(15)
O14 O 1.0289(2) 1.0594(3) 0.45406(15)
O15 O 0.4987(2) 0.8284(3) -0.11404(15)
O16 O 0.0646(2) 0.9468(3) 0.04565(14)
C1 C 0.7392(3) 1.1033(3) 0.56785(18)
H1 H 0.7711 1.1639 0.5919
C2 C 0.7925(3) 1.0469(3) 0.52514(17)
C3 C 0.8896(3) 1.0821(3) 0.51444(19)
H2 H 0.9220 1.1429 0.5379
C4 C 0.9372(3) 1.0291(3) 0.47035(18)
C5 C 0.8928(3) 0.9350(4) 0.43843(17)
C6 C 0.7988(3) 0.8976(4) 0.44775(18)
H3 H 0.7695 0.8346 0.4252
C7 C 0.7457(3) 0.9533(3) 0.49103(18)
C8 C 0.6477(3) 0.9199(3) 0.50127(17)
H4 H 0.6165 0.8569 0.4796
C9 C 0.5974(3) 0.9774(3) 0.54211(17)
C10 C 0.6417(3) 1.0723(3) 0.57538(17)
C11 C 0.8684(3) 0.9494(4) 0.27486(17)
C12 C 0.8619(3) 0.8872(3) 0.21978(18)
H5 H 0.9139 0.8354 0.2166
C13 C 0.7771(3) 0.9003(3) 0.16750(18)
C14 C 0.7657(3) 0.8380(4) 0.10927(19)
H6 H 0.8148 0.7835 0.1048
C15 C 0.6845(3) 0.8565(4) 0.05970(19)
C16 C 0.6100(3) 0.9378(4) 0.0639(2)
H7 H 0.5546 0.9500 0.0279
C17 C 0.6184(3) 0.9976(4) 0.1193(2)
H8 H 0.5681 1.0514 0.1225
C18 C 0.7026(3) 0.9810(4) 0.1736(2)
C19 C 0.7129(4) 1.0423(4) 0.2321(2)
H9 H 0.6621 1.0949 0.2365
C20 C 0.7942(3) 1.0275(4) 0.2823(2)
H10 H 0.8008 1.0690 0.3217
C21 C 0.4801(3) 0.7451(3) -0.01535(19)
C22 C 0.4403(3) 0.8164(3) -0.06754(18)
C23 C 0.3496(3) 0.8711(4) -0.06717(18)
H11 H 0.3232 0.9195 -0.1021
C24 C 0.2956(3) 0.8553(4) -0.01476(18)
C25 C 0.2042(3) 0.9129(4) -0.01155(18)
H12 H 0.1789 0.9645 -0.0449
C26 C 0.1521(3) 0.8964(4) 0.03777(18)
C27 C 0.1914(3) 0.8202(3) 0.08835(17)
C28 C 0.2799(3) 0.7643(3) 0.08795(19)
H13 H 0.3047 0.7144 0.1223
C29 C 0.3350(3) 0.7803(3) 0.03667(19)
C30 C 0.4277(3) 0.7257(4) 0.0343(2)
H14 H 0.4540 0.6746 0.0677
C31 C 0.2021(3) 0.9585(3) 0.22545(18)
C32 C 0.2127(3) 0.9461(3) 0.29189(17)
H15 H 0.1649 0.9037 0.3101
C33 C 0.2966(3) 0.9979(3) 0.33344(18)
C34 C 0.3099(3) 0.9896(3) 0.40288(18)
H16 H 0.2628 0.9488 0.4227
C35 C 0.3908(3) 1.0408(3) 0.44067(18)
C36 C 0.4609(3) 1.1041(4) 0.4139(2)
H17 H 0.5162 1.1397 0.4420
C37 C 0.4485(4) 1.1142(4) 0.3465(2)
H18 H 0.4953 1.1578 0.3282
C38 C 0.3674(3) 1.0606(3) 0.30417(19)
C39 C 0.3506(4) 1.0704(4) 0.2352(2)
H19 H 0.3968 1.1126 0.2155
C40 C 0.2689(3) 1.0203(4) 0.1961(2)
H20 H 0.2580 1.0277 0.1494
C41 C 0.6159(4) 1.2230(5) 0.6433(3)
H21 H 0.6504 1.2687 0.6145
H22 H 0.6629 1.2124 0.6862
C42 C 0.5072(8) 1.2752(9) 0.6528(5)
H23 H 0.4741 1.3301 0.6241
C43 C 0.4651(5) 1.2368(6) 0.7040(3)
H24 H 0.4922 1.1612 0.7116
C44 C 0.3586(5) 1.2277(6) 0.7020(3)
H25 H 0.3252 1.1985 0.6592
H26 H 0.3300 1.2995 0.7084
H27 H 0.3462 1.1790 0.7372
C45 C 0.488(2) 1.287(2) 0.7664(7)
H28 H 0.5623 1.3005 0.7782
H29 H 0.4667 1.2395 0.7995
H30 H 0.4507 1.3560 0.7649
C46 C 1.0682(4) 1.1650(4) 0.4736(3)
H31 H 1.0509 1.2052 0.5092
C47 C 1.1376(6) 1.2024(7) 0.4321(4)
H32 H 1.1987 1.1542 0.4387
H33 H 1.1618 1.2760 0.4467
C48 C 1.0907(6) 1.2064(6) 0.3574(3)
H34 H 1.0865 1.1299 0.3411
C49 C 0.9977(7) 1.2588(11) 0.3266(7)
H35 H 0.9867 1.2473 0.2788
H36 H 1.0029 1.3367 0.3361
H37 H 0.9395 1.2284 0.3439
C50 C 1.1802(6) 1.2562(8) 0.3359(6)
H38 H 1.1649 1.2666 0.2880
H39 H 1.2403 1.2086 0.3478
H40 H 1.1951 1.3265 0.3578
C51 C 0.4637(4) 0.9079(5) -0.1665(2)
H41 H 0.4635 0.9818 -0.1478
H42 H 0.3930 0.8904 -0.1898
C52 C 0.5389(4) 0.9014(5) -0.2136(2)
H43 H 0.5533 0.8240 -0.2207
H44 H 0.5048 0.9317 -0.2566
C53 C 0.6373(6) 0.9571(15) -0.1931(3)
H45 H 0.6113 1.0334 -0.1947
C54 C 0.6973(6) 0.9637(11) -0.2477(4)
H46 H 0.6496 0.9702 -0.2901
H47 H 0.7390 0.8980 -0.2477
H48 H 0.7427 1.0272 -0.2410
C55 C 0.6982(6) 0.9579(7) -0.1279(3)
H49 H 0.6527 0.9615 -0.0956
H50 H 0.7439 1.0212 -0.1227
H51 H 0.7397 0.8916 -0.1209
C56 C 0.0258(4) 1.0351(5) 0.0015(2)
H52 H -0.0026 1.0070 -0.0432
H53 H 0.0818 1.0871 -0.0018
C57 C -0.0577(4) 1.0893(5) 0.0308(2)
H54 H -0.1120 1.0354 0.0343
H55 H -0.0896 1.1475 0.0007
C58 C -0.0178(5) 1.1380(5) 0.0989(3)
H56 H 0.0146 1.0785 0.1286
C59 C -0.1113(7) 1.1806(6) 0.1257(4)
H57 H -0.0879 1.2114 0.1697
H58 H -0.1592 1.1208 0.1284
H59 H -0.1463 1.2368 0.0961
C60 C 0.0641(7) 1.2256(8) 0.0971(5)
H60 H 0.0879 1.2541 0.1417
H61 H 0.0341 1.2845 0.0678
H62 H 0.1225 1.1940 0.0807
O17 O 0.3000(4) 0.6841(4) 0.6137(3)
N1 N 0.2331(3) 0.8523(4) 0.61716(19)
C61 C 0.1838(4) 0.9431(6) 0.5788(3)
H63 H 0.1650 0.9221 0.5323
H64 H 0.2316 1.0046 0.5831
H65 H 0.1216 0.9640 0.5952
C62 C 0.2674(5) 0.8632(7) 0.6855(3)
H66 H 0.2975 0.7946 0.7037
H67 H 0.2090 0.8821 0.7064
H68 H 0.3196 0.9206 0.6941
C63 C 0.2573(4) 0.7633(5) 0.5864(3)
H69 H 0.2398 0.7621 0.5396
O18 O 0.7964(5) 0.5343(6) 0.1828(3)
N2 N 0.9600(3) 0.5474(4) 0.23688(18)
C64 C 1.0316(4) 0.5864(5) 0.2930(3)
H70 H 0.9943 0.6265 0.3221
H71 H 1.0818 0.6345 0.2782
H72 H 1.0678 0.5249 0.3170
C65 C 1.0007(7) 0.4841(7) 0.1894(3)
H73 H 0.9444 0.4627 0.1536
H74 H 1.0343 0.4191 0.2108
H75 H 1.0512 0.5273 0.1714
C66 C 0.8598(6) 0.5666(6) 0.2288(4)
H76 H 0.8449 0.6190 0.2594
loop_
_geom_bond_atom_site_label_1
_geom_bond_atom_site_label_2
_geom_bond_site_symmetry_1
_geom_bond_site_symmetry_2
S1 O1 1_555 1_555
S2 O4 1_555 1_555
S3 O7 1_555 1_555
S4 O10 1_555 1_555
O2 S1 1_555 1_555
O3 S1 1_555 1_555
O4 C15 1_555 1_555
O5 S2 1_555 1_555
O6 S2 1_555 1_555
O8 S3 1_555 1_555
O9 S3 1_555 1_555
O10 C35 1_555 1_555
O11 S4 1_555 1_555
O12 S4 1_555 1_555
O13 C10 1_555 1_555
O14 C4 1_555 1_555
O15 C22 1_555 1_555
O16 C26 1_555 1_555
C1 H1 1_555 1_555
C2 C1 1_555 1_555
C3 C2 1_555 1_555
H2 C3 1_555 1_555
C4 C3 1_555 1_555
C5 S1 1_555 1_555
C6 C5 1_555 1_555
H3 C6 1_555 1_555
C7 C2 1_555 1_555
C8 C7 1_555 1_555
H4 C8 1_555 1_555
C9 S4 1_555 1_555
C10 C1 1_555 1_555
C11 O3 1_555 1_555
C12 C11 1_555 1_555
H5 C12 1_555 1_555
C13 C12 1_555 1_555
C14 C13 1_555 1_555
H6 C14 1_555 1_555
C15 C14 1_555 1_555
C16 C15 1_555 1_555
H7 C16 1_555 1_555
C17 C16 1_555 1_555
H8 C17 1_555 1_555
C18 C13 1_555 1_555
C19 C18 1_555 1_555
H9 C19 1_555 1_555
C20 C11 1_555 1_555
H10 C20 1_555 1_555
C21 S2 1_555 1_555
C22 C21 1_555 1_555
C23 C22 1_555 1_555
H11 C23 1_555 1_555
C24 C23 1_555 1_555
C25 C24 1_555 1_555
H12 C25 1_555 1_555
C26 C25 1_555 1_555
C27 S3 1_555 1_555
C28 C27 1_555 1_555
H13 C28 1_555 1_555
C29 C24 1_555 1_555
C30 C21 1_555 1_555
H14 C30 1_555 1_555
C31 O9 1_555 1_555
C32 C31 1_555 1_555
H15 C32 1_555 1_555
C33 C32 1_555 1_555
C34 C33 1_555 1_555
H16 C34 1_555 1_555
C35 C34 1_555 1_555
C36 C35 1_555 1_555
H17 C36 1_555 1_555
C37 C36 1_555 1_555
H18 C37 1_555 1_555
C38 C33 1_555 1_555
C39 C38 1_555 1_555
H19 C39 1_555 1_555
C40 C31 1_555 1_555
H20 C40 1_555 1_555
C41 O13 1_555 1_555
H21 C41 1_555 1_555
H22 C41 1_555 1_555
C42 C41 1_555 1_555
H23 C42 1_555 1_555
C43 C42 1_555 1_555
H24 C43 1_555 1_555
C44 C43 1_555 1_555
H25 C44 1_555 1_555
H26 C44 1_555 1_555
H27 C44 1_555 1_555
C45 C43 1_555 1_555
H28 C45 1_555 1_555
H29 C45 1_555 1_555
H30 C45 1_555 1_555
C46 O14 1_555 1_555
H31 C46 1_555 1_555
C47 C46 1_555 1_555
H32 C47 1_555 1_555
H33 C47 1_555 1_555
C48 C47 1_555 1_555
H34 C48 1_555 1_555
C49 C48 1_555 1_555
H35 C49 1_555 1_555
H36 C49 1_555 1_555
H37 C49 1_555 1_555
C50 C48 1_555 1_555
H38 C50 1_555 1_555
H39 C50 1_555 1_555
H40 C50 1_555 1_555
C51 O15 1_555 1_555
H41 C51 1_555 1_555
H42 C51 1_555 1_555
C52 C51 1_555 1_555
H43 C52 1_555 1_555
H44 C52 1_555 1_555
C53 C52 1_555 1_555
H45 C53 1_555 1_555
C54 C53 1_555 1_555
H46 C54 1_555 1_555
H47 C54 1_555 1_555
H48 C54 1_555 1_555
C55 C53 1_555 1_555
H49 C55 1_555 1_555
H50 C55 1_555 1_555
H51 C55 1_555 1_555
C56 O16 1_555 1_555
H52 C56 1_555 1_555
H53 C56 1_555 1_555
C57 C56 1_555 1_555
H54 C57 1_555 1_555
H55 C57 1_555 1_555
C58 C57 1_555 1_555
H56 C58 1_555 1_555
C59 C58 1_555 1_555
H57 C59 1_555 1_555
H58 C59 1_555 1_555
H59 C59 1_555 1_555
C60 C58 1_555 1_555
H60 C60 1_555 1_555
H61 C60 1_555 1_555
H62 C60 1_555 1_555
O17 C63 1_555 1_555
N1 C61 1_555 1_555
C61 H63 1_555 1_555
H64 C61 1_555 1_555
H65 C61 1_555 1_555
C62 N1 1_555 1_555
H66 C62 1_555 1_555
H67 C62 1_555 1_555
H68 C62 1_555 1_555
C63 N1 1_555 1_555
H69 C63 1_555 1_555
O18 C66 1_555 1_555
N2 C64 1_555 1_555
C64 H70 1_555 1_555
H71 C64 1_555 1_555
H72 C64 1_555 1_555
C65 N2 1_555 1_555
H73 C65 1_555 1_555
H74 C65 1_555 1_555
H75 C65 1_555 1_555
C66 N2 1_555 1_555
H76 C66 1_555 1_555
C4 C5 1_555 1_555
C6 C7 1_555 1_555
C8 C9 1_555 1_555
C9 C10 1_555 1_555
C17 C18 1_555 1_555
C19 C20 1_555 1_555
C26 C27 1_555 1_555
C28 C29 1_555 1_555
C29 C30 1_555 1_555
C37 C38 1_555 1_555
C39 C40 1_555 1_555

#END
