
#######################################################################
#
#                 Cambridge Crystallographic Data Centre
#                                CCDC 
#
#######################################################################
#
# If this CIF has been generated from an entry in the Cambridge 
# Structural Database, then it will include bibliographic, chemical, 
# crystal, experimental, refinement or atomic coordinate data resulting 
# from the CCDC's data processing and validation procedures.
#
#######################################################################

data_POTRUM
_chemical_formula_moiety         'C56 H64 O16 S4,5(C3 H6 O1)'
_chemical_name_systematic        
'9,11,26,28-tetrakis(Pentyloxy)-6,14,23,31-tetraoxa-7,13,24,30-tetrathiaheptacyclo[30.2.2.2^2,5^.2^15,18^.2^19,22^.1^8,12^.1^25,29^]tetratetraconta-1(34),2,4,8(42),9,11,15,17,19,21,25(37),26,28,32,35,38,40,43-octadecaene 7,7,13,13,24,24,30,30-octaoxide acetone solvate'
_symmetry_cell_setting           triclinic
_symmetry_space_group_name_H-M   'P -1'
_symmetry_Int_Tables_number      2
_space_group_name_Hall           '-P 1'
loop_
_symmetry_equiv_pos_site_id
_symmetry_equiv_pos_as_xyz
1 x,y,z
2 -x,-y,-z
_cell_length_a                   9.5940(19)
_cell_length_b                   13.940(3)
_cell_length_c                   15.684(3)
_cell_angle_alpha                110.19(3)
_cell_angle_beta                 99.46(3)
_cell_angle_gamma                98.73(3)
_cell_volume                     1892.03
_exptl_crystal_colour            colorless
_exptl_crystal_description       block
_chemical_melting_point          '228-229 deg.C'
_cell_formula_units_Z            1
_exptl_crystal_recrystallization_method acetone
loop_
_atom_site_label
_atom_site_type_symbol
_atom_site_fract_x
_atom_site_fract_y
_atom_site_fract_z
S1 S -0.07536(5) -0.50731(4) -0.15759(3)
S2 S 0.30852(5) -0.31158(4) -0.29190(3)
O1 O 0.04779(15) -0.45878(12) -0.08019(10)
O2 O -0.11692(16) -0.61919(11) -0.20227(10)
O3 O -0.21718(14) -0.47674(10) -0.12624(9)
O4 O 0.35638(15) -0.37514(11) -0.36965(10)
O5 O 0.31131(14) -0.20367(11) -0.30793(9)
O6 O 0.38719(14) -0.28975(12) -0.19900(10)
O7 O -0.29115(14) -0.51951(11) -0.32187(9)
O8 O 0.05896(14) -0.34627(11) -0.44486(9)
C1 C -0.0484(2) -0.44955(15) -0.23987(13)
C2 C -0.1585(2) -0.46757(15) -0.31950(14)
C3 C -0.1255(2) -0.43244(15) -0.38920(14)
H1 H -0.1979 -0.4436 -0.4412
C4 C 0.0155(2) -0.38086(15) -0.38065(13)
C5 C 0.1253(2) -0.36342(15) -0.30101(13)
C6 C 0.0917(2) -0.39773(15) -0.23159(13)
H2 H 0.1639 -0.3858 -0.1792
C7 C 0.2885(2) -0.11444(16) -0.23712(14)
C8 C 0.1547(2) -0.08952(16) -0.24967(14)
H3 H 0.0790 -0.1336 -0.2997
C9 C 0.1355(2) 0.00280(16) -0.18598(14)
H4 H 0.0454 0.0198 -0.1930
C10 C 0.2499(2) 0.07089(16) -0.11125(14)
C11 C 0.3831(2) 0.04073(17) -0.10022(14)
H5 H 0.4590 0.0834 -0.0498
C12 C 0.4035(2) -0.05128(16) -0.16302(14)
H6 H 0.4923 -0.0702 -0.1556
C13 C 0.2330(2) 0.17358(16) -0.04777(14)
C14 C 0.1554(2) 0.23495(17) -0.08316(14)
H7 H 0.1097 0.2084 -0.1463
C15 C 0.1449(2) 0.33396(17) -0.02673(14)
H8 H 0.0935 0.3736 -0.0513
C16 C -0.2133(2) -0.37196(16) -0.06720(14)
C17 C -0.2914(2) -0.31421(17) -0.10528(14)
H9 H -0.3365 -0.3412 -0.1685
C18 C 0.3009(2) 0.21546(17) 0.04725(14)
H10 H 0.3534 0.1766 0.0721
C19 C -0.4066(2) -0.55374(18) -0.40588(15)
H11 H -0.4320 -0.4937 -0.4171
H12 H -0.3761 -0.5966 -0.4597
C20 C -0.5350(2) -0.61693(19) -0.38919(17)
H13 H -0.5663 -0.5711 -0.3372
H14 H -0.6144 -0.6407 -0.4440
C21 C -0.5061(2) -0.71250(19) -0.36817(17)
H15 H -0.4302 -0.6887 -0.3114
H16 H -0.4705 -0.7569 -0.4187
C22 C -0.6390(3) -0.7779(2) -0.3563(2)
H17 H -0.6760 -0.7333 -0.3066
H18 H -0.7141 -0.8033 -0.4135
C23 C -0.6071(3) -0.8720(2) -0.3330(2)
H19 H -0.6942 -0.9098 -0.3262
H20 H -0.5730 -0.9176 -0.3826
H21 H -0.5343 -0.8475 -0.2757
C24 C -0.0494(2) -0.34980(16) -0.52396(13)
H22 H -0.0947 -0.4219 -0.5646
H23 H -0.1241 -0.3148 -0.5020
C25 C 0.0293(2) -0.29423(16) -0.57629(14)
H24 H 0.1074 -0.3278 -0.5939
H25 H -0.0378 -0.3030 -0.6333
C26 C 0.0929(3) -0.17665(18) -0.52063(15)
H26 H 0.0156 -0.1436 -0.5008
H27 H 0.1629 -0.1680 -0.4648
C27 C 0.1672(3) -0.1197(2) -0.57488(17)
H28 H 0.2439 -0.1532 -0.5953
H29 H 0.2118 -0.0479 -0.5330
C28 C 0.0665(3) -0.1187(2) -0.65875(19)
H30 H 0.1200 -0.0820 -0.6891
H31 H 0.0237 -0.1895 -0.7015
H32 H -0.0085 -0.0840 -0.6392
S1A S 0.07536(5) 0.50731(4) 0.15759(3)
S2A S -0.30852(5) 0.31158(4) 0.29190(3)
O1A O -0.04779(15) 0.45878(12) 0.08019(10)
O2A O 0.11692(16) 0.61919(11) 0.20227(10)
O3A O 0.21718(14) 0.47674(10) 0.12624(9)
O4A O -0.35638(15) 0.37514(11) 0.36965(10)
O5A O -0.31131(14) 0.20367(11) 0.30793(9)
O6A O -0.38719(14) 0.28975(12) 0.19900(10)
O7A O 0.29115(14) 0.51951(11) 0.32187(9)
O8A O -0.05896(14) 0.34627(11) 0.44486(9)
C1A C 0.0484(2) 0.44955(15) 0.23987(13)
C2A C 0.1585(2) 0.46757(15) 0.31950(14)
C3A C 0.1255(2) 0.43244(15) 0.38920(14)
H1A H 0.1979 0.4436 0.4412
C4A C -0.0155(2) 0.38086(15) 0.38065(13)
C5A C -0.1253(2) 0.36342(15) 0.30101(13)
C6A C -0.0917(2) 0.39773(15) 0.23159(13)
H2A H -0.1639 0.3858 0.1792
C7A C -0.2885(2) 0.11444(16) 0.23712(14)
C8A C -0.1547(2) 0.08952(16) 0.24967(14)
H3A H -0.0790 0.1336 0.2997
C9A C -0.1355(2) -0.00280(16) 0.18598(14)
H4A H -0.0454 -0.0198 0.1930
C10A C -0.2499(2) -0.07089(16) 0.11125(14)
C11A C -0.3831(2) -0.04073(17) 0.10022(14)
H5A H -0.4590 -0.0834 0.0498
C12A C -0.4035(2) 0.05128(16) 0.16302(14)
H6A H -0.4923 0.0702 0.1556
C13A C -0.2330(2) -0.17358(16) 0.04777(14)
C14A C -0.1554(2) -0.23495(17) 0.08316(14)
H7A H -0.1097 -0.2084 0.1463
C15A C -0.1449(2) -0.33396(17) 0.02673(14)
H8A H -0.0935 -0.3736 0.0513
C16A C 0.2133(2) 0.37196(16) 0.06720(14)
C17A C 0.2914(2) 0.31421(17) 0.10528(14)
H9A H 0.3365 0.3412 0.1685
C18A C -0.3009(2) -0.21546(17) -0.04725(14)
H10A H -0.3534 -0.1766 -0.0721
C19A C 0.4066(2) 0.55374(18) 0.40588(15)
H11A H 0.4320 0.4937 0.4171
H12A H 0.3761 0.5966 0.4597
C20A C 0.5350(2) 0.61693(19) 0.38919(17)
H13A H 0.5663 0.5711 0.3372
H14A H 0.6144 0.6407 0.4440
C21A C 0.5061(2) 0.71250(19) 0.36817(17)
H15A H 0.4302 0.6887 0.3114
H16A H 0.4705 0.7569 0.4187
C22A C 0.6390(3) 0.7779(2) 0.3563(2)
H17A H 0.6760 0.7333 0.3066
H18A H 0.7141 0.8033 0.4135
C23A C 0.6071(3) 0.8720(2) 0.3330(2)
H19A H 0.6942 0.9098 0.3262
H20A H 0.5730 0.9176 0.3826
H21A H 0.5343 0.8475 0.2757
C24A C 0.0494(2) 0.34980(16) 0.52396(13)
H22A H 0.0947 0.4219 0.5646
H23A H 0.1241 0.3148 0.5020
C25A C -0.0293(2) 0.29423(16) 0.57629(14)
H24A H -0.1074 0.3278 0.5939
H25A H 0.0378 0.3030 0.6333
C26A C -0.0929(3) 0.17665(18) 0.52063(15)
H26A H -0.0156 0.1436 0.5008
H27A H -0.1629 0.1680 0.4648
C27A C -0.1672(3) 0.1197(2) 0.57488(17)
H28A H -0.2439 0.1532 0.5953
H29A H -0.2118 0.0479 0.5330
C28A C -0.0665(3) 0.1187(2) 0.65875(19)
H30A H -0.1200 0.0820 0.6891
H31A H -0.0237 0.1895 0.7015
H32A H 0.0085 0.0840 0.6392
O9 O 0.81906(19) 0.84093(15) 0.60565(13)
C29 C 0.6060(3) 0.9029(2) 0.63279(18)
H33 H 0.6182 0.9287 0.5845
H34 H 0.6111 0.9606 0.6895
H35 H 0.5132 0.8551 0.6143
C30 C 0.7241(2) 0.84680(18) 0.64857(16)
C31 C 0.7226(3) 0.8003(2) 0.72216(19)
H36 H 0.8029 0.7672 0.7259
H37 H 0.6335 0.7493 0.7059
H38 H 0.7305 0.8549 0.7815
O10 O 0.2107(3) 0.95796(18) 0.13012(16)
C32 C 0.2528(4) 0.7882(3) 0.0925(3)
H39 H 0.2954 0.8130 0.1583
H40 H 0.3244 0.7674 0.0581
H41 H 0.1734 0.7291 0.0756
C33 C 0.1991(3) 0.8733(2) 0.0703(2)
C34 C 0.1278(4) 0.8523(3) -0.0286(2)
H42 H 0.0994 0.9142 -0.0322
H43 H 0.0437 0.7957 -0.0497
H44 H 0.1948 0.8335 -0.0675
O11? O -0.6674(6) 0.4596(4) -0.1765(4)
C35? C -0.5134(7) 0.3939(5) -0.0848(6)
H45? H -0.5340 0.3317 -0.1429
H46? H -0.4103 0.4191 -0.0642
H47? H -0.5461 0.3677 -0.0385
C36? C -0.5912(7) 0.4751(5) -0.0997(6)
C37? C -0.5768(7) 0.5720(5) -0.0189(6)
H48? H -0.6344 0.6179 -0.0386
H49? H -0.6144 0.5605 0.0312
H50? H -0.4787 0.6119 0.0056
loop_
_geom_bond_atom_site_label_1
_geom_bond_atom_site_label_2
_geom_bond_site_symmetry_1
_geom_bond_site_symmetry_2
S1 O1 1_555 1_555
S2 O4 1_555 1_555
O2 S1 1_555 1_555
O3 S1 1_555 1_555
O5 S2 1_555 1_555
O6 S2 1_555 1_555
O7 C2 1_555 1_555
O8 C4 1_555 1_555
C1 S1 1_555 1_555
C2 C1 1_555 1_555
C3 C2 1_555 1_555
H1 C3 1_555 1_555
C4 C3 1_555 1_555
C5 S2 1_555 1_555
C6 C1 1_555 1_555
H2 C6 1_555 1_555
C7 O5 1_555 1_555
C8 C7 1_555 1_555
H3 C8 1_555 1_555
C9 C8 1_555 1_555
H4 C9 1_555 1_555
C10 C9 1_555 1_555
C11 C10 1_555 1_555
H5 C11 1_555 1_555
C12 C7 1_555 1_555
H6 C12 1_555 1_555
C13 C10 1_555 1_555
C14 C13 1_555 1_555
H7 C14 1_555 1_555
C15 C14 1_555 1_555
H8 C15 1_555 1_555
C16 O3 1_555 1_555
C17 C16 1_555 1_555
H9 C17 1_555 1_555
C18 C13 1_555 1_555
H10 C18 1_555 1_555
C19 O7 1_555 1_555
H11 C19 1_555 1_555
H12 C19 1_555 1_555
C20 C19 1_555 1_555
H13 C20 1_555 1_555
H14 C20 1_555 1_555
C21 C20 1_555 1_555
H15 C21 1_555 1_555
H16 C21 1_555 1_555
C22 C21 1_555 1_555
H17 C22 1_555 1_555
H18 C22 1_555 1_555
C23 C22 1_555 1_555
H19 C23 1_555 1_555
H20 C23 1_555 1_555
H21 C23 1_555 1_555
C24 O8 1_555 1_555
H22 C24 1_555 1_555
H23 C24 1_555 1_555
C25 C24 1_555 1_555
H24 C25 1_555 1_555
H25 C25 1_555 1_555
C26 C25 1_555 1_555
H26 C26 1_555 1_555
H27 C26 1_555 1_555
C27 C26 1_555 1_555
H28 C27 1_555 1_555
H29 C27 1_555 1_555
C28 C27 1_555 1_555
H30 C28 1_555 1_555
H31 C28 1_555 1_555
H32 C28 1_555 1_555
O9 C30 1_555 1_555
C29 H33 1_555 1_555
H34 C29 1_555 1_555
H35 C29 1_555 1_555
C30 C29 1_555 1_555
C31 C30 1_555 1_555
H36 C31 1_555 1_555
H37 C31 1_555 1_555
H38 C31 1_555 1_555
O10 C33 1_555 1_555
C32 H39 1_555 1_555
H40 C32 1_555 1_555
H41 C32 1_555 1_555
C33 C32 1_555 1_555
C34 C33 1_555 1_555
H42 C34 1_555 1_555
H43 C34 1_555 1_555
H44 C34 1_555 1_555
S1A O1A 1_555 1_555
S2A O4A 1_555 1_555
O2A S1A 1_555 1_555
O3A S1A 1_555 1_555
O5A S2A 1_555 1_555
O6A S2A 1_555 1_555
O7A C2A 1_555 1_555
O8A C4A 1_555 1_555
C1A S1A 1_555 1_555
C2A C1A 1_555 1_555
C3A C2A 1_555 1_555
H1A C3A 1_555 1_555
C4A C3A 1_555 1_555
C5A S2A 1_555 1_555
C6A C1A 1_555 1_555
H2A C6A 1_555 1_555
C7A O5A 1_555 1_555
C8A C7A 1_555 1_555
H3A C8A 1_555 1_555
C9A C8A 1_555 1_555
H4A C9A 1_555 1_555
C10A C9A 1_555 1_555
C11A C10A 1_555 1_555
H5A C11A 1_555 1_555
C12A C7A 1_555 1_555
H6A C12A 1_555 1_555
C13A C10A 1_555 1_555
C14A C13A 1_555 1_555
H7A C14A 1_555 1_555
C15A C16 1_555 1_555
H8A C15A 1_555 1_555
C16A C15 1_555 1_555
C17A C18 1_555 1_555
H9A C17A 1_555 1_555
C18A C17 1_555 1_555
H10A C18A 1_555 1_555
C19A O7A 1_555 1_555
H11A C19A 1_555 1_555
H12A C19A 1_555 1_555
C20A C19A 1_555 1_555
H13A C20A 1_555 1_555
H14A C20A 1_555 1_555
C21A C20A 1_555 1_555
H15A C21A 1_555 1_555
H16A C21A 1_555 1_555
C22A C21A 1_555 1_555
H17A C22A 1_555 1_555
H18A C22A 1_555 1_555
C23A C22A 1_555 1_555
H19A C23A 1_555 1_555
H20A C23A 1_555 1_555
H21A C23A 1_555 1_555
C24A O8A 1_555 1_555
H22A C24A 1_555 1_555
H23A C24A 1_555 1_555
C25A C24A 1_555 1_555
H24A C25A 1_555 1_555
H25A C25A 1_555 1_555
C26A C25A 1_555 1_555
H26A C26A 1_555 1_555
H27A C26A 1_555 1_555
C27A C26A 1_555 1_555
H28A C27A 1_555 1_555
H29A C27A 1_555 1_555
C28A C27A 1_555 1_555
H30A C28A 1_555 1_555
H31A C28A 1_555 1_555
H32A C28A 1_555 1_555
C4 C5 1_555 1_555
C5 C6 1_555 1_555
C11 C12 1_555 1_555
O3A C16A 1_555 1_555
C4A C5A 1_555 1_555
C5A C6A 1_555 1_555
C11A C12A 1_555 1_555
C13A C18A 1_555 1_555
C14A C15A 1_555 1_555
C16A C17A 1_555 1_555

#END
