
#######################################################################
#
#                 Cambridge Crystallographic Data Centre
#                                CCDC 
#
#######################################################################
#
# If this CIF has been generated from an entry in the Cambridge 
# Structural Database, then it will include bibliographic, chemical, 
# crystal, experimental, refinement or atomic coordinate data resulting 
# from the CCDC's data processing and validation procedures.
#
#######################################################################

data_POTVEB
_chemical_compound_source        'fruits of Rhododendron molle'
_chemical_name_common            'Mollanol A tetrahydrate'
_chemical_formula_moiety         'C20 H30 O5,4(H2 O1)'
_chemical_name_systematic        
'(1R,5S,7R,8R,10R,12R,13R,16R)-2,6,6,12-Tetramethyl-17-oxapentacyclo[11.2.1.1^7,10^.0^1,10^.0^3,7^]heptadec-2-ene-5,8,12,16-tetrol tetrahydrate'
_chemical_properties_biological  'transcriptional activation effects'
_symmetry_cell_setting           orthorhombic
_symmetry_space_group_name_H-M   'P 21 21 21'
_symmetry_Int_Tables_number      19
_space_group_name_Hall           'P 2ac 2ab'
loop_
_symmetry_equiv_pos_site_id
_symmetry_equiv_pos_as_xyz
1 x,y,z
2 1/2-x,-y,1/2+z
3 1/2+x,1/2-y,-z
4 -x,1/2+y,1/2-z
_cell_length_a                   6.8656(2)
_cell_length_b                   15.7655(5)
_cell_length_c                   20.081(2)
_cell_angle_alpha                90
_cell_angle_beta                 90
_cell_angle_gamma                90
_cell_volume                     2173.56
_exptl_crystal_colour            colorless
_exptl_crystal_description       needle
_cell_formula_units_Z            4
_exptl_crystal_recrystallization_method methanol/water
loop_
_atom_site_label
_atom_site_type_symbol
_atom_site_fract_x
_atom_site_fract_y
_atom_site_fract_z
O1 O 0.00377(16) 0.47266(7) 0.50758(5)
O2 O 0.23829(18) 0.38103(8) 0.70310(5)
H1 H 0.2867 0.3434 0.6803
O3 O 0.29274(17) 0.54454(8) 0.69412(6)
H2 H 0.3213 0.4949 0.7015
O4 O 0.39227(18) 0.42908(7) 0.44396(6)
H3 H 0.3164 0.3892 0.4477
O5 O 0.1295(2) 0.67885(8) 0.33143(6)
H4 H 0.1761 0.6566 0.2981
C1 C 0.1217(2) 0.61899(10) 0.50596(8)
C2 C 0.1600(3) 0.68503(11) 0.45229(8)
H5 H 0.2773 0.7171 0.4618
H6 H 0.0512 0.7239 0.4481
C3 C 0.1842(2) 0.63130(10) 0.38890(8)
H7 H 0.3213 0.6148 0.3847
C4 C 0.0609(2) 0.55086(10) 0.40128(7)
C5 C 0.1269(2) 0.53187(10) 0.47317(8)
C6 C 0.3332(2) 0.49602(10) 0.48656(8)
H8 H 0.4286 0.5422 0.4841
C7 C 0.3105(2) 0.46739(10) 0.55977(8)
H9 H 0.3797 0.5056 0.5894
H10 H 0.3613 0.4105 0.5658
C8 C 0.0884(2) 0.46975(10) 0.57414(7)
C9 C 0.0225(2) 0.55207(10) 0.61032(8)
C10 C 0.0833(2) 0.62896(10) 0.57022(8)
C11 C -0.2018(2) 0.55012(11) 0.62079(8)
H11 H -0.2649 0.5202 0.5845
H12 H -0.2536 0.6073 0.6229
C12 C -0.2363(3) 0.50300(12) 0.68789(8)
H13 H -0.3002 0.5400 0.7197
H14 H -0.3167 0.4531 0.6812
C13 C -0.0318(2) 0.47769(11) 0.71280(8)
H15 H -0.0265 0.4778 0.7616
C14 C 0.0885(2) 0.55124(10) 0.68370(8)
H16 H 0.0439 0.6040 0.7045
C15 C 0.0104(2) 0.39094(10) 0.60844(8)
H17 H 0.0774 0.3417 0.5907
H18 H -0.1268 0.3851 0.5979
C16 C 0.0343(2) 0.39190(11) 0.68478(8)
C17 C -0.0741(3) 0.31772(12) 0.71594(9)
H19 H -0.0219 0.2654 0.6992
H20 H -0.2099 0.3214 0.7049
H21 H -0.0589 0.3195 0.7634
C18 C 0.0965(3) 0.48294(11) 0.34882(8)
H22 H 0.0380 0.4306 0.3629
H23 H 0.2341 0.4749 0.3431
H24 H 0.0398 0.5004 0.3073
C19 C -0.1579(2) 0.57249(11) 0.40142(8)
H25 H -0.1900 0.6031 0.3616
H26 H -0.1876 0.6068 0.4396
H27 H -0.2325 0.5210 0.4032
C20 C 0.0895(3) 0.71345(10) 0.60490(8)
H28 H -0.0280 0.7212 0.6301
H29 H 0.1007 0.7578 0.5724
H30 H 0.1997 0.7152 0.6343
O6 O 0.4156(2) 0.24424(8) 0.64335(6)
H31 H 0.4362 0.2151 0.6776
H32 H 0.3416 0.2171 0.6175
O7 O 0.7121(2) 0.21972(9) 0.54886(8)
H33 H 0.6302 0.2365 0.5772
H34 H 0.7199 0.2593 0.5199
O8 O 0.74527(18) 0.35080(8) 0.45549(6)
H35 H 0.6357 0.3740 0.4525
H36 H 0.8327 0.3837 0.4699
O9 O 0.5233(3) 0.18183(9) 0.76489(8)
H37 H 0.5494 0.1338 0.7797
H38 H 0.4939 0.2171 0.7943
loop_
_geom_bond_atom_site_label_1
_geom_bond_atom_site_label_2
_geom_bond_site_symmetry_1
_geom_bond_site_symmetry_2
O1 C5 1_555 1_555
O2 H1 1_555 1_555
O3 H2 1_555 1_555
O4 H3 1_555 1_555
O5 H4 1_555 1_555
C1 C2 1_555 1_555
C2 H5 1_555 1_555
H6 C2 1_555 1_555
C3 O5 1_555 1_555
H7 C3 1_555 1_555
C4 C3 1_555 1_555
C5 C1 1_555 1_555
C6 O4 1_555 1_555
H8 C6 1_555 1_555
C7 C6 1_555 1_555
H9 C7 1_555 1_555
H10 C7 1_555 1_555
C8 O1 1_555 1_555
C9 C8 1_555 1_555
C10 C1 1_555 1_555
C11 C9 1_555 1_555
H11 C11 1_555 1_555
H12 C11 1_555 1_555
C12 C11 1_555 1_555
H13 C12 1_555 1_555
H14 C12 1_555 1_555
C13 C12 1_555 1_555
H15 C13 1_555 1_555
C14 O3 1_555 1_555
H16 C14 1_555 1_555
C15 C8 1_555 1_555
H17 C15 1_555 1_555
H18 C15 1_555 1_555
C16 O2 1_555 1_555
C17 C16 1_555 1_555
H19 C17 1_555 1_555
H20 C17 1_555 1_555
H21 C17 1_555 1_555
C18 C4 1_555 1_555
H22 C18 1_555 1_555
H23 C18 1_555 1_555
H24 C18 1_555 1_555
C19 C4 1_555 1_555
H25 C19 1_555 1_555
H26 C19 1_555 1_555
H27 C19 1_555 1_555
C20 C10 1_555 1_555
H28 C20 1_555 1_555
H29 C20 1_555 1_555
H30 C20 1_555 1_555
O6 H31 1_555 1_555
H32 O6 1_555 1_555
O7 H33 1_555 1_555
H34 O7 1_555 1_555
O8 H35 1_555 1_555
H36 O8 1_555 1_555
O9 H37 1_555 1_555
H38 O9 1_555 1_555
C2 C3 1_555 1_555
C4 C5 1_555 1_555
C5 C6 1_555 1_555
C7 C8 1_555 1_555
C9 C10 1_555 1_555
C9 C14 1_555 1_555
C13 C14 1_555 1_555
C13 C16 1_555 1_555
C15 C16 1_555 1_555

#END
