
#######################################################################
#
#                 Cambridge Crystallographic Data Centre
#                                CCDC 
#
#######################################################################
#
# If this CIF has been generated from an entry in the Cambridge 
# Structural Database, then it will include bibliographic, chemical, 
# crystal, experimental, refinement or atomic coordinate data resulting 
# from the CCDC's data processing and validation procedures.
#
#######################################################################

data_POTVIF
_chemical_compound_source        'fruits of Rhododendron molle'
_chemical_name_common            'Rhodomollein XXV'
_chemical_formula_moiety         'C20 H30 O6'
_chemical_name_systematic        
(2R,3R,3aR,4aS,5S,7R,8R,9aS,11R,11aR,12R)-1,1,8-Trimethyl-4-methylenedodecahydro-5,8-epoxy-7,9a-methanocyclopenta[b]heptalene-2,3,11,11a,12(1H)-pentol
_symmetry_cell_setting           orthorhombic
_symmetry_space_group_name_H-M   'P 21 21 21'
_symmetry_Int_Tables_number      19
_space_group_name_Hall           'P 2ac 2ab'
loop_
_symmetry_equiv_pos_site_id
_symmetry_equiv_pos_as_xyz
1 x,y,z
2 1/2-x,-y,1/2+z
3 -x,1/2+y,1/2-z
4 1/2+x,1/2-y,-z
_cell_length_a                   7.359(3)
_cell_length_b                   12.959(3)
_cell_length_c                   19.109(5)
_cell_angle_alpha                90
_cell_angle_beta                 90
_cell_angle_gamma                90
_cell_volume                     1822.34
_exptl_crystal_colour            colorless
_exptl_crystal_description       Needle
_cell_formula_units_Z            4
_exptl_crystal_recrystallization_method methanol
loop_
_atom_site_label
_atom_site_type_symbol
_atom_site_fract_x
_atom_site_fract_y
_atom_site_fract_z
O1 O 0.5229(6) -0.1231(3) 0.4898(2)
H1 H 0.5551 -0.1680 0.4622
O2 O 0.2384(10) -0.2282(3) 0.5995(2)
H2 H 0.1940 -0.2272 0.6389
O3 O -0.0499(7) -0.1296(3) 0.4865(2)
H3 H -0.086(13) -0.129(6) 0.454(4)
O4 O -0.2471(6) 0.0393(2) 0.52850(19)
H4 H -0.2932 -0.0143 0.5143
O5 O 0.0323(5) 0.2877(2) 0.45122(19)
H5 H 0.0911 0.3384 0.4633
O6 O 0.2488(6) 0.1771(2) 0.25313(18)
C1 C 0.2333(8) -0.0372(3) 0.4650(2)
H6 H 0.2978 0.0259 0.4784
C2 C 0.3305(8) -0.1277(3) 0.4986(3)
H7 H 0.2854 -0.1919 0.4778
C3 C 0.2730(9) -0.1242(4) 0.5768(3)
H8 H 0.3726 -0.0952 0.6045
C4 C 0.1068(8) -0.0532(3) 0.5825(3)
C5 C 0.0469(8) -0.0378(3) 0.5037(3)
C6 C -0.0798(8) 0.0558(3) 0.4940(3)
H9 H -0.0212 0.1150 0.5165
C7 C -0.1182(8) 0.0861(4) 0.4179(3)
H10 H -0.1554 0.0247 0.3926
H11 H -0.2201 0.1336 0.4175
C8 C 0.0392(8) 0.1361(3) 0.3781(2)
C9 C 0.1616(8) 0.0527(4) 0.3431(3)
H12 H 0.0868 0.0240 0.3053
C10 C 0.2219(8) -0.0398(3) 0.3850(2)
C11 C 0.3216(9) 0.1071(4) 0.3051(3)
H13 H 0.4032 0.0565 0.2835
C12 C 0.4246(9) 0.1793(4) 0.3514(3)
H14 H 0.5284 0.2094 0.3276
H15 H 0.4643 0.1460 0.3942
C13 C 0.2758(8) 0.2587(3) 0.3649(3)
H16 H 0.3224 0.3274 0.3769
C14 C 0.1516(7) 0.2130(3) 0.4206(2)
H17 H 0.2225 0.1775 0.4567
C15 C -0.0197(8) 0.2098(4) 0.3186(3)
H18 H -0.0773 0.1725 0.2807
H19 H -0.1021 0.2625 0.3357
C16 C 0.1614(9) 0.2566(4) 0.2955(3)
C17 C 0.1564(11) 0.3547(4) 0.2544(3)
H20 H 0.0981 0.3425 0.2103
H21 H 0.2782 0.3786 0.2466
H22 H 0.0898 0.4060 0.2801
C18 C -0.0466(11) -0.0967(5) 0.6275(3)
H23 H -0.1255 -0.0416 0.6418
H24 H 0.0037 -0.1296 0.6681
H25 H -0.1146 -0.1462 0.6008
C19 C 0.1732(9) 0.0466(4) 0.6167(3)
H26 H 0.0735 0.0940 0.6210
H27 H 0.2664 0.0770 0.5881
H28 H 0.2215 0.0316 0.6622
C20 C 0.2687(11) -0.1236(4) 0.3504(3)
H29 H 0.259(11) -0.115(6) 0.301(4)
H30 H 0.350(9) -0.183(4) 0.373(3)
loop_
_geom_bond_atom_site_label_1
_geom_bond_atom_site_label_2
_geom_bond_site_symmetry_1
_geom_bond_site_symmetry_2
O1 H1 1_555 1_555
O2 H2 1_555 1_555
O3 H3 1_555 1_555
O4 H4 1_555 1_555
O5 H5 1_555 1_555
O6 C11 1_555 1_555
C1 H6 1_555 1_555
C2 O1 1_555 1_555
H7 C2 1_555 1_555
C3 O2 1_555 1_555
H8 C3 1_555 1_555
C4 C3 1_555 1_555
C5 O3 1_555 1_555
C6 O4 1_555 1_555
H9 C6 1_555 1_555
C7 C6 1_555 1_555
H10 C7 1_555 1_555
H11 C7 1_555 1_555
C8 C7 1_555 1_555
C9 C8 1_555 1_555
H12 C9 1_555 1_555
C10 C1 1_555 1_555
C11 C9 1_555 1_555
H13 C11 1_555 1_555
C12 C11 1_555 1_555
H14 C12 1_555 1_555
H15 C12 1_555 1_555
C13 C12 1_555 1_555
H16 C13 1_555 1_555
C14 O5 1_555 1_555
H17 C14 1_555 1_555
C15 C8 1_555 1_555
H18 C15 1_555 1_555
H19 C15 1_555 1_555
C16 O6 1_555 1_555
C17 C16 1_555 1_555
H20 C17 1_555 1_555
H21 C17 1_555 1_555
H22 C17 1_555 1_555
C18 C4 1_555 1_555
H23 C18 1_555 1_555
H24 C18 1_555 1_555
H25 C18 1_555 1_555
C19 C4 1_555 1_555
H26 C19 1_555 1_555
H27 C19 1_555 1_555
H28 C19 1_555 1_555
C20 C10 1_555 1_555
H29 C20 1_555 1_555
H30 C20 1_555 1_555
C1 C2 1_555 1_555
C1 C5 1_555 1_555
C2 C3 1_555 1_555
C4 C5 1_555 1_555
C5 C6 1_555 1_555
C8 C14 1_555 1_555
C9 C10 1_555 1_555
C13 C14 1_555 1_555
C13 C16 1_555 1_555
C15 C16 1_555 1_555

#END
