
#######################################################################
#
#                 Cambridge Crystallographic Data Centre
#                                CCDC 
#
#######################################################################
#
# If this CIF has been generated from an entry in the Cambridge 
# Structural Database, then it will include bibliographic, chemical, 
# crystal, experimental, refinement or atomic coordinate data resulting 
# from the CCDC's data processing and validation procedures.
#
#######################################################################

data_POVDUB
_chemical_formula_moiety         'C32 H19 N1 O2,0.8(C1 H2 Cl2)'
_chemical_name_systematic        
'7-(4-nitrophenyl)-12-phenylbenzo[k]fluoranthene dichloromethane solvate'
_symmetry_cell_setting           orthorhombic
_symmetry_space_group_name_H-M   'P c c n'
_symmetry_Int_Tables_number      56
_space_group_name_Hall           '-P 2ab 2ac'
loop_
_symmetry_equiv_pos_site_id
_symmetry_equiv_pos_as_xyz
1 x,y,z
2 1/2-x,1/2-y,z
3 -x,1/2+y,1/2-z
4 1/2+x,-y,1/2-z
5 -x,-y,-z
6 1/2+x,1/2+y,-z
7 x,1/2-y,1/2+z
8 1/2-x,y,1/2+z
_cell_length_a                   21.0003(17)
_cell_length_b                   22.761(3)
_cell_length_c                   10.667(4)
_cell_angle_alpha                90
_cell_angle_beta                 90
_cell_angle_gamma                90
_cell_volume                     5098.7
_exptl_crystal_colour            yellow
_exptl_crystal_description       rod
_cell_formula_units_Z            8
loop_
_atom_site_label
_atom_site_type_symbol
_atom_site_fract_x
_atom_site_fract_y
_atom_site_fract_z
Cl1 Cl 0.52670(9) 0.82048(10) 0.3495(2)
Cl2 Cl 0.51250(10) 0.73489(11) 0.54441(19)
C1 C 0.5291(3) 0.7460(3) 0.3841(6)
H1 H 0.5717 0.7301 0.3639
H2 H 0.4973 0.7249 0.3324
O1 O 0.1651(2) 0.28731(14) 1.0151(3)
O2 O 0.16996(18) 0.23163(12) 0.8510(3)
N1 N 0.17072(18) 0.28003(14) 0.9013(4)
C2 C 0.39417(16) 0.54658(14) 0.5838(3)
C3 C 0.44370(18) 0.58391(16) 0.5549(3)
H3 H 0.4366 0.6183 0.5064
C4 C 0.50545(19) 0.56980(18) 0.5991(4)
H4 H 0.5396 0.5957 0.5799
C5 C 0.51822(18) 0.52025(18) 0.6687(4)
H5 H 0.5605 0.5124 0.6956
C6 C 0.46843(17) 0.48094(15) 0.7002(3)
C7 C 0.40738(16) 0.49613(14) 0.6578(3)
C8 C 0.35216(16) 0.46257(14) 0.6829(3)
C9 C 0.35832(18) 0.41165(14) 0.7508(3)
H6 H 0.3222 0.3880 0.7690
C10 C 0.41974(19) 0.39503(16) 0.7934(4)
H7 H 0.4240 0.3599 0.8406
C11 C 0.47326(19) 0.42783(17) 0.7689(4)
H8 H 0.5136 0.4149 0.7982
C12 C 0.29925(16) 0.49399(13) 0.6205(3)
C13 C 0.23523(16) 0.48097(13) 0.6128(3)
C14 C 0.19434(16) 0.51818(14) 0.5391(3)
C15 C 0.12832(17) 0.50792(16) 0.5309(3)
H9 H 0.1102 0.4754 0.5739
C16 C 0.09000(18) 0.54408(17) 0.4618(4)
H10 H 0.0454 0.5373 0.4595
C17 C 0.11621(19) 0.59107(16) 0.3942(4)
H11 H 0.0894 0.6154 0.3447
C18 C 0.17973(18) 0.60199(15) 0.3993(3)
H12 H 0.1969 0.6335 0.3517
C19 C 0.22119(16) 0.56725(13) 0.4743(3)
C20 C 0.28749(17) 0.58053(13) 0.4850(3)
C21 C 0.32535(16) 0.54479(13) 0.5574(3)
C22 C 0.31472(17) 0.63194(14) 0.4163(3)
C23 C 0.3174(2) 0.68687(16) 0.4727(4)
H13 H 0.3020 0.6918 0.5558
C24 C 0.3422(2) 0.73427(16) 0.4088(5)
H14 H 0.3440 0.7716 0.4484
C25 C 0.3646(2) 0.72787(18) 0.2876(5)
H15 H 0.3814 0.7607 0.2437
C26 C 0.3621(3) 0.67359(19) 0.2312(4)
H16 H 0.3776 0.6688 0.1481
C27 C 0.3373(2) 0.62607(16) 0.2953(4)
H17 H 0.3358 0.5888 0.2555
C28 C 0.20984(16) 0.42955(13) 0.6833(3)
C29 C 0.19606(16) 0.43505(14) 0.8093(3)
H18 H 0.1971 0.4728 0.8472
C30 C 0.18062(16) 0.38622(14) 0.8817(3)
H19 H 0.1705 0.3900 0.9681
C31 C 0.18056(18) 0.33235(14) 0.8238(3)
C32 C 0.1905(2) 0.32533(15) 0.6971(4)
H20 H 0.1879 0.2876 0.6593
C33 C 0.20446(19) 0.37442(15) 0.6263(3)
H21 H 0.2104 0.3708 0.5384
loop_
_geom_bond_atom_site_label_1
_geom_bond_atom_site_label_2
_geom_bond_site_symmetry_1
_geom_bond_site_symmetry_2
Cl1 C1 1_555 1_555
Cl2 C1 1_555 1_555
C1 H1 1_555 1_555
H2 C1 1_555 1_555
O1 N1 1_555 1_555
O2 N1 1_555 1_555
N1 C31 1_555 1_555
C2 C3 1_555 1_555
C3 H3 1_555 1_555
C4 C3 1_555 1_555
H4 C4 1_555 1_555
C5 C4 1_555 1_555
H5 C5 1_555 1_555
C6 C5 1_555 1_555
C7 C2 1_555 1_555
C8 C7 1_555 1_555
C9 C8 1_555 1_555
H6 C9 1_555 1_555
C10 C9 1_555 1_555
H7 C10 1_555 1_555
C11 C6 1_555 1_555
H8 C11 1_555 1_555
C12 C8 1_555 1_555
C13 C12 1_555 1_555
C14 C13 1_555 1_555
C15 C14 1_555 1_555
H9 C15 1_555 1_555
C16 C15 1_555 1_555
H10 C16 1_555 1_555
C17 C16 1_555 1_555
H11 C17 1_555 1_555
C18 C17 1_555 1_555
H12 C18 1_555 1_555
C19 C14 1_555 1_555
C20 C19 1_555 1_555
C21 C2 1_555 1_555
C22 C20 1_555 1_555
C23 C22 1_555 1_555
H13 C23 1_555 1_555
C24 C23 1_555 1_555
H14 C24 1_555 1_555
C25 C24 1_555 1_555
H15 C25 1_555 1_555
C26 C25 1_555 1_555
H16 C26 1_555 1_555
C27 C22 1_555 1_555
H17 C27 1_555 1_555
C28 C13 1_555 1_555
C29 C28 1_555 1_555
H18 C29 1_555 1_555
C30 C29 1_555 1_555
H19 C30 1_555 1_555
C31 C30 1_555 1_555
C32 C31 1_555 1_555
H20 C32 1_555 1_555
C33 C28 1_555 1_555
H21 C33 1_555 1_555
C6 C7 1_555 1_555
C10 C11 1_555 1_555
C12 C21 1_555 1_555
C18 C19 1_555 1_555
C20 C21 1_555 1_555
C26 C27 1_555 1_555
C32 C33 1_555 1_555

#END
