
#######################################################################
#
#                 Cambridge Crystallographic Data Centre
#                                CCDC 
#
#######################################################################
#
# If this CIF has been generated from an entry in the Cambridge 
# Structural Database, then it will include bibliographic, chemical, 
# crystal, experimental, refinement or atomic coordinate data resulting 
# from the CCDC's data processing and validation procedures.
#
#######################################################################

data_POVGAK
_chemical_formula_moiety         'C17 H14 F3 N3 O2 S1,C10 H8 N2'
_chemical_name_systematic        
"4-(5-(4-methylphenyl)-3-(trifluoromethyl)-1H-pyrazol-1-yl)benzenesulfonamide 4,4'-bipyridine"
_symmetry_cell_setting           triclinic
_symmetry_space_group_name_H-M   'P -1'
_symmetry_Int_Tables_number      2
_space_group_name_Hall           '-P 1'
loop_
_symmetry_equiv_pos_site_id
_symmetry_equiv_pos_as_xyz
1 x,y,z
2 -x,-y,-z
_cell_length_a                   10.765(2)
_cell_length_b                   11.596(3)
_cell_length_c                   12.705(3)
_cell_angle_alpha                77.594(11)
_cell_angle_beta                 65.275(11)
_cell_angle_gamma                65.336(11)
_cell_volume                     1307.6
_cell_formula_units_Z            2
loop_
_atom_site_label
_atom_site_type_symbol
_atom_site_fract_x
_atom_site_fract_y
_atom_site_fract_z
S1 S 0.27074(7) 0.13988(5) 0.39567(6)
F1 F 0.3196(5) 0.6028(3) 0.8465(3)
F2 F 0.3379(5) 0.7726(4) 0.7812(2)
N1 N 0.2819(2) 0.58387(17) 0.55167(16)
C1 C 0.2680(3) 0.6838(2) 0.6795(2)
C2 C 0.2789(3) 0.2720(2) 0.4388(2)
C3 C 0.3712(3) 0.2524(2) 0.4966(2)
H1 H 0.4311 0.1706 0.5112
C4 C 0.3730(3) 0.3567(2) 0.5323(2)
H2 H 0.4339 0.3452 0.5714
C5 C 0.2834(2) 0.47776(19) 0.50919(19)
C6 C 0.2577(3) 0.7063(2) 0.50676(19)
C7 C 0.2623(3) 0.7510(2) 0.38786(19)
C8 C 0.3738(3) 0.6858(2) 0.2913(2)
H3 H 0.4427 0.6067 0.3009
C9 C 0.3828(3) 0.7379(3) 0.1810(2)
H4 H 0.4578 0.6927 0.1172
C10 C 0.2829(4) 0.8558(3) 0.1628(2)
C11 C 0.2958(6) 0.9127(5) 0.0416(3)
H5 H 0.3172 0.9880 0.0299
H6 H 0.2046 0.9341 0.0321
H7 H 0.3735 0.8522 -0.0141
N2 N 0.2889(2) 0.56850(18) 0.65873(17)
C12 C 0.2471(3) 0.7727(2) 0.5898(2)
H8 H 0.2296 0.8587 0.5865
C13 C 0.1604(3) 0.8690(2) 0.3705(2)
H9 H 0.0841 0.9136 0.4340
C14 C 0.1718(4) 0.9198(3) 0.2598(3)
H10 H 0.1033 0.9990 0.2500
C15 C 0.2692(4) 0.7033(3) 0.7907(2)
F3 F 0.1417(4) 0.7583(5) 0.8642(3)
C16 C 0.1920(3) 0.4972(2) 0.4509(2)
H11 H 0.1327 0.5791 0.4358
C17 C 0.1897(3) 0.3931(2) 0.4152(2)
H12 H 0.1290 0.4047 0.3759
O1 O 0.1290(2) 0.18331(19) 0.38687(19)
O2 O 0.3120(3) 0.03447(17) 0.47311(18)
N3 N 0.3931(3) 0.1049(2) 0.2698(2)
H13 H 0.377(3) 0.158(3) 0.218(3)
H14 H 0.483(4) 0.057(3) 0.270(3)
C18 C 0.8052(3) 0.7082(3) 0.1590(3)
C19 C 0.6895(3) 0.8237(3) 0.1855(3)
H15 H 0.6065 0.8369 0.1712
N4 N 0.6902(3) 0.9167(2) 0.2300(2)
C20 C 0.9316(3) 0.6860(2) 0.1782(2)
C21 C 1.0599(3) 0.5638(2) 0.1528(2)
C22 C 1.0420(3) 0.4523(3) 0.1519(3)
H16 H 0.9500 0.4531 0.1648
C23 C 1.1636(4) 0.3398(3) 0.1315(3)
H17 H 1.1493 0.2661 0.1314
N5 N 1.2987(3) 0.3294(3) 0.1120(2)
C24 C 1.3153(3) 0.4368(4) 0.1112(3)
H18 H 1.4092 0.4330 0.0964
C25 C 1.2010(3) 0.5543(3) 0.1312(3)
H19 H 1.2190 0.6265 0.1300
C26 C 0.9316(3) 0.7824(3) 0.2265(3)
H20 H 1.0123 0.7718 0.2428
C27 C 0.8103(4) 0.8942(3) 0.2501(3)
H21 H 0.8127 0.9580 0.2820
H22 H 0.798(3) 0.645(3) 0.130(3)
loop_
_geom_bond_atom_site_label_1
_geom_bond_atom_site_label_2
_geom_bond_site_symmetry_1
_geom_bond_site_symmetry_2
S1 C2 1_555 1_555
F1 C15 1_555 1_555
F2 C15 1_555 1_555
N1 C5 1_555 1_555
C1 N2 1_555 1_555
C2 C3 1_555 1_555
C3 H1 1_555 1_555
C4 C3 1_555 1_555
H2 C4 1_555 1_555
C5 C4 1_555 1_555
C6 N1 1_555 1_555
C7 C6 1_555 1_555
C8 C7 1_555 1_555
H3 C8 1_555 1_555
C9 C8 1_555 1_555
H4 C9 1_555 1_555
C10 C9 1_555 1_555
C11 C10 1_555 1_555
H5 C11 1_555 1_555
H6 C11 1_555 1_555
H7 C11 1_555 1_555
N2 N1 1_555 1_555
C12 C1 1_555 1_555
H8 C12 1_555 1_555
C13 C7 1_555 1_555
H9 C13 1_555 1_555
C14 C10 1_555 1_555
H10 C14 1_555 1_555
C15 C1 1_555 1_555
F3 C15 1_555 1_555
C16 C5 1_555 1_555
H11 C16 1_555 1_555
C17 C2 1_555 1_555
H12 C17 1_555 1_555
O1 S1 1_555 1_555
O2 S1 1_555 1_555
N3 S1 1_555 1_555
H13 N3 1_555 1_555
H14 N3 1_555 1_555
C18 C19 1_555 1_555
C19 H15 1_555 1_555
N4 C19 1_555 1_555
C20 C18 1_555 1_555
C21 C20 1_555 1_555
C22 C21 1_555 1_555
H16 C22 1_555 1_555
C23 C22 1_555 1_555
H17 C23 1_555 1_555
N5 C23 1_555 1_555
C24 N5 1_555 1_555
H18 C24 1_555 1_555
C25 C21 1_555 1_555
H19 C25 1_555 1_555
C26 C20 1_555 1_555
H20 C26 1_555 1_555
C27 N4 1_555 1_555
H21 C27 1_555 1_555
H22 C18 1_555 1_555
C6 C12 1_555 1_555
C13 C14 1_555 1_555
C16 C17 1_555 1_555
C24 C25 1_555 1_555
C26 C27 1_555 1_555

#END
