
#######################################################################
#
#                 Cambridge Crystallographic Data Centre
#                                CCDC 
#
#######################################################################
#
# If this CIF has been generated from an entry in the Cambridge 
# Structural Database, then it will include bibliographic, chemical, 
# crystal, experimental, refinement or atomic coordinate data resulting 
# from the CCDC's data processing and validation procedures.
#
#######################################################################

data_POVJUF
_chemical_formula_moiety         'C31 H24 Cl1 N1 O2 S1'
_chemical_name_systematic        
6-(4-Chlorophenyl)-3-methyl-2,4a-diphenyl-5,6-dihydro-1H,4aH-1,3-oxazino(2,3-d)(1,5)benzothiazepin-1-one
_chemical_properties_biological  'potential pharmaceutical agent'
_symmetry_cell_setting           monoclinic
_symmetry_space_group_name_H-M   'P 21/c'
_symmetry_Int_Tables_number      14
_space_group_name_Hall           '-P 2ybc'
loop_
_symmetry_equiv_pos_site_id
_symmetry_equiv_pos_as_xyz
1 x,y,z
2 -x,1/2+y,1/2-z
3 -x,-y,-z
4 x,1/2-y,1/2+z
_cell_length_a                   12.672(3)
_cell_length_b                   15.430(3)
_cell_length_c                   14.731(3)
_cell_angle_alpha                90
_cell_angle_beta                 114.77(3)
_cell_angle_gamma                90
_cell_volume                     2615.34
_exptl_crystal_colour            colorless
_exptl_crystal_description       plate
_chemical_melting_point          182-3deg.C
_cell_formula_units_Z            4
_exptl_crystal_recrystallization_method 'ethyl acetate'
loop_
_atom_site_label
_atom_site_type_symbol
_atom_site_fract_x
_atom_site_fract_y
_atom_site_fract_z
S1 S 0.1771(1) 0.7454(1) 0.1813(1)
Cl1 Cl -0.1617(2) 0.9850(2) 0.3455(3)
N1 N 0.3317(3) 0.8254(3) 0.0940(3)
O1 O 0.3803(3) 0.7352(3) -0.0035(3)
O2 O 0.4568(3) 0.8344(2) 0.2665(2)
C1 C 0.0134(5) 0.7855(4) -0.0078(5)
C2 C -0.0219(5) 0.8131(5) -0.1045(5)
C3 C 0.0573(5) 0.8441(4) -0.1372(4)
C4 C 0.1737(5) 0.8488(4) -0.0713(4)
C5 C 0.2114(4) 0.8220(3) 0.0270(4)
C6 C 0.1308(5) 0.7876(4) 0.0596(4)
C7 C 0.2269(4) 0.8445(3) 0.2576(4)
C8 C 0.2792(4) 0.9118(3) 0.2132(4)
C9 C 0.3757(4) 0.8823(3) 0.1825(4)
C10 C 0.5425(4) 0.7925(3) 0.2487(4)
C11 C 0.5264(4) 0.7697(3) 0.1568(4)
C12 C 0.4101(5) 0.7756(3) 0.0756(4)
C13 C 0.1295(5) 0.8824(3) 0.2782(4)
C14 C 0.0315(5) 0.9168(4) 0.2045(5)
C15 C -0.0582(6) 0.9482(5) 0.2242(8)
C16 C -0.0452(8) 0.9467(5) 0.3226(9)
C17 C 0.0501(8) 0.9144(4) 0.3974(7)
C18 C 0.1389(6) 0.8826(4) 0.3763(5)
C19 C 0.4363(3) 0.9630(2) 0.1668(3)
C20 C 0.4017 1.0003 0.0724
C21 C 0.4528 1.0773 0.0613
C22 C 0.5385 1.1170 0.1446
C23 C 0.5732 1.0797 0.2391
C24 C 0.5221 1.0028 0.2501
C25 C 0.6455(4) 0.7766(4) 0.3443(4)
C26 C 0.6190(3) 0.7246(2) 0.1363(3)
C27 C 0.6026 0.6396 0.1005
C28 C 0.6903 0.5976 0.0838
C29 C 0.7944 0.6404 0.1030
C30 C 0.8109 0.7253 0.1388
C31 C 0.7231 0.7674 0.1554
H1 H -0.0371 0.7528 0.0168
H2 H -0.1060 0.8026 -0.1437
H3 H 0.0393 0.8596 -0.2135
H4 H 0.2254 0.8717 -0.0925
H5 H 0.2846 0.8087 0.3245
H6 H 0.3091 0.9627 0.2630
H7 H 0.2158 0.9362 0.1476
H8 H 0.0243 0.9243 0.1343
H9 H -0.1488 0.9625 0.1728
H10 H 0.0636 0.9056 0.4758
H11 H 0.2176 0.8512 0.4349
H12 H 0.6215 0.7657 0.3998
H13 H 0.6909 0.7187 0.3393
H14 H 0.7038 0.8203 0.3730
H15 H 0.7320 0.8211 0.1874
H16 H 0.5321 0.6095 0.0825
H17 H 0.5331 0.9855 0.3169
H18 H 0.6797 0.5314 0.0588
H19 H 0.5795 1.1798 0.1386
H20 H 0.9028 0.7539 0.1634
H21 H 0.3333 0.9565 0.0201
H22 H 0.8657 0.6106 0.0998
H23 H 0.4169 1.0964 -0.0314
H24 H 0.6321 1.1214 0.3124
loop_
_geom_bond_atom_site_label_1
_geom_bond_atom_site_label_2
_geom_bond_site_symmetry_1
_geom_bond_site_symmetry_2
S1 C6 1_555 1_555
Cl1 C16 1_555 1_555
N1 C5 1_555 1_555
O1 C12 1_555 1_555
O2 C9 1_555 1_555
C1 C2 1_555 1_555
C2 C3 1_555 1_555
C3 C4 1_555 1_555
C4 C5 1_555 1_555
C5 C6 1_555 1_555
C6 C1 1_555 1_555
C7 S1 1_555 1_555
C8 C7 1_555 1_555
C9 N1 1_555 1_555
C10 O2 1_555 1_555
C11 C10 1_555 1_555
C12 N1 1_555 1_555
C13 C7 1_555 1_555
C14 C13 1_555 1_555
C15 C14 1_555 1_555
C16 C15 1_555 1_555
C17 C16 1_555 1_555
C18 C13 1_555 1_555
C19 C9 1_555 1_555
C20 C19 1_555 1_555
C21 C20 1_555 1_555
C22 C21 1_555 1_555
C23 C22 1_555 1_555
C24 C19 1_555 1_555
C25 C10 1_555 1_555
C26 C11 1_555 1_555
C27 C26 1_555 1_555
C28 C27 1_555 1_555
C29 C28 1_555 1_555
C30 C29 1_555 1_555
C31 C26 1_555 1_555
H1 C1 1_555 1_555
H2 C2 1_555 1_555
H3 C3 1_555 1_555
H4 C4 1_555 1_555
H5 C7 1_555 1_555
H6 C8 1_555 1_555
H7 C8 1_555 1_555
H8 C14 1_555 1_555
H9 C15 1_555 1_555
H10 C17 1_555 1_555
H11 C18 1_555 1_555
H12 C25 1_555 1_555
H13 C25 1_555 1_555
H14 C25 1_555 1_555
H15 C31 1_555 1_555
H16 C27 1_555 1_555
H17 C24 1_555 1_555
H18 C28 1_555 1_555
H19 C22 1_555 1_555
H20 C30 1_555 1_555
H21 C20 1_555 1_555
H22 C29 1_555 1_555
H23 C21 1_555 1_555
H24 C23 1_555 1_555
C8 C9 1_555 1_555
C11 C12 1_555 1_555
C17 C18 1_555 1_555
C23 C24 1_555 1_555
C30 C31 1_555 1_555

#END
