
#######################################################################
#
#                 Cambridge Crystallographic Data Centre
#                                CCDC 
#
#######################################################################
#
# If this CIF has been generated from an entry in the Cambridge 
# Structural Database, then it will include bibliographic, chemical, 
# crystal, experimental, refinement or atomic coordinate data resulting 
# from the CCDC's data processing and validation procedures.
#
#######################################################################

data_POVMOE
_chemical_formula_moiety         'C44 H36 N2 O4'
_chemical_name_systematic        
N,N,N',N'-tetrakis(4-methoxyphenyl)pyrene-1,6-diamine
_symmetry_cell_setting           triclinic
_symmetry_space_group_name_H-M   'P -1'
_symmetry_Int_Tables_number      2
_space_group_name_Hall           '-P 1'
loop_
_symmetry_equiv_pos_site_id
_symmetry_equiv_pos_as_xyz
1 x,y,z
2 -x,-y,-z
_cell_length_a                   14.782(3)
_cell_length_b                   15.830(3)
_cell_length_c                   16.071(3)
_cell_angle_alpha                102.88(3)
_cell_angle_beta                 108.04(3)
_cell_angle_gamma                95.50(3)
_cell_volume                     3430.17
_exptl_crystal_colour            orange
_exptl_crystal_description       block
_cell_formula_units_Z            4
loop_
_atom_site_label
_atom_site_type_symbol
_atom_site_fract_x
_atom_site_fract_y
_atom_site_fract_z
O1 O 0.53528(15) 0.60782(15) 0.95205(16)
O2 O 0.01159(17) 0.16017(14) 0.61631(17)
O3 O 0.14810(19) 1.37259(15) 0.94801(17)
O4 O -0.42159(16) 0.94842(16) 0.52714(17)
N1 N 0.13950(18) 0.52356(15) 0.75361(17)
N2 N -0.04707(18) 1.02562(15) 0.77792(17)
C1 C 0.6006(3) 0.6576(3) 0.9246(3)
H1 H 0.6672 0.6561 0.9604
H2 H 0.5901 0.7187 0.9344
H3 H 0.5895 0.6323 0.8600
C2 C 0.4387(2) 0.59451(19) 0.9016(2)
C3 C 0.3795(2) 0.53662(19) 0.9244(2)
H4 H 0.4064 0.5115 0.9730
C4 C 0.3990(2) 0.63281(19) 0.8326(2)
H5 H 0.4389 0.6738 0.8181
C5 C 0.2998(2) 0.61071(19) 0.7843(2)
H6 H 0.2726 0.6370 0.7368
C6 C 0.2817(2) 0.51571(18) 0.8763(2)
H7 H 0.2415 0.4763 0.8923
C7 C 0.2407(2) 0.55155(18) 0.8044(2)
C8 C 0.1070(2) 0.43124(18) 0.7128(2)
C9 C 0.0133(2) 0.3926(2) 0.7008(2)
H8 H -0.0304 0.4286 0.7155
C10 C -0.0163(2) 0.3027(2) 0.6678(2)
H9 H -0.0823 0.2733 0.6597
C11 C 0.0475(2) 0.24949(19) 0.6471(2)
C12 C 0.1395(2) 0.2868(2) 0.6569(2)
H10 H 0.1831 0.2507 0.6420
C13 C 0.1680(2) 0.37749(19) 0.6888(2)
H11 H 0.2311 0.4032 0.6944
C14 C 0.0777(3) 0.1027(2) 0.6039(3)
H12 H 0.1338 0.1158 0.6598
H13 H 0.0991 0.1114 0.5539
H14 H 0.0457 0.0415 0.5893
C15 C 0.0867(2) 0.58449(19) 0.7158(2)
C16 C 0.08152(19) 0.66374(18) 0.77458(19)
C17 C 0.03843(19) 0.72914(18) 0.73569(19)
C18 C -0.0023(2) 0.71323(19) 0.6402(2)
C19 C -0.0025(2) 0.63094(19) 0.5857(2)
H15 H -0.0339 0.6176 0.5218
C20 C 0.0420(2) 0.5689(2) 0.6227(2)
H16 H 0.0420 0.5141 0.5837
C21 C 0.1168(2) 0.6802(2) 0.8714(2)
H17 H 0.1437 0.6363 0.8980
C22 C 0.1123(2) 0.75725(18) 0.92535(19)
H18 H 0.1354 0.7661 0.9893
C23 C 0.07395(19) 0.82548(18) 0.88927(19)
C24 C 0.03587(19) 0.81112(18) 0.79363(19)
C25 C 0.0742(2) 0.90765(19) 0.9444(2)
H19 H 0.1014 0.9192 1.0086
C26 C 0.0355(2) 0.97195(19) 0.9071(2)
H20 H 0.0363 1.0269 0.9462
C27 C -0.0049(2) 0.95862(19) 0.8134(2)
C28 C -0.0037(2) 0.87825(18) 0.7545(2)
C29 C -0.0398(2) 0.86079(19) 0.6575(2)
H21 H -0.0638 0.9055 0.6306
C30 C -0.0403(2) 0.78196(19) 0.6036(2)
H22 H -0.0667 0.7718 0.5396
C31 C -0.1447(2) 1.00684(19) 0.7185(2)
C32 C -0.2104(2) 0.93847(19) 0.7186(2)
H23 H -0.1917 0.9063 0.7626
C33 C -0.1745(2) 1.0553(2) 0.6556(2)
H24 H -0.1303 1.1026 0.6548
C34 C -0.2675(2) 1.0352(2) 0.5944(2)
H25 H -0.2875 1.0696 0.5528
C35 C -0.3039(2) 0.9162(2) 0.6550(2)
H26 H -0.3475 0.8678 0.6544
C36 C -0.3325(2) 0.9644(2) 0.5932(2)
C37 C -0.4927(2) 0.8798(2) 0.5249(3)
H27 H -0.5029 0.8913 0.5836
H28 H -0.4705 0.8234 0.5130
H29 H -0.5535 0.8775 0.4767
C38 C -0.0003(2) 1.11503(18) 0.8218(2)
C39 C -0.0491(2) 1.1788(2) 0.8517(2)
H30 H -0.1156 1.1632 0.8437
C40 C 0.0978(2) 1.1395(2) 0.8358(2)
H31 H 0.1329 1.0965 0.8165
C41 C 0.1441(2) 1.2255(2) 0.8774(2)
H32 H 0.2107 1.2412 0.8861
C42 C -0.0023(3) 1.2657(2) 0.8934(2)
H33 H -0.0370 1.3090 0.9129
C43 C 0.0944(3) 1.2889(2) 0.9063(2)
C44 C 0.0997(4) 1.4389(2) 0.9811(3)
H34 H 0.0747 1.4219 1.0259
H35 H 0.0459 1.4457 0.9304
H36 H 0.1451 1.4949 1.0096
O6 O 0.6834(2) 1.31562(17) 0.87610(19)
O7 O 0.76096(17) 0.21365(14) 0.50976(16)
O8 O 0.5782(2) 0.71160(16) 0.26799(17)
N3 N 0.64239(19) 0.99231(16) 0.96003(17)
N4 N 0.68743(19) 0.55715(16) 0.55712(17)
C45 C 0.5489(4) 0.6595(3) 0.1767(3)
H37 H 0.5407 0.6981 0.1359
H38 H 0.4875 0.6203 0.1619
H39 H 0.5983 0.6244 0.1693
C46 C 0.6031(3) 0.6692(2) 0.3355(2)
C47 C 0.6557(3) 0.7215(2) 0.4224(2)
H40 H 0.6713 0.7833 0.4322
C48 C 0.5804(2) 0.5794(2) 0.3228(2)
H41 H 0.5455 0.5423 0.2637
C49 C 0.6080(2) 0.5433(2) 0.3954(2)
H42 H 0.5903 0.4817 0.3855
C50 C 0.6857(2) 0.6856(2) 0.4946(2)
H43 H 0.7234 0.7226 0.5530
C51 C 0.6612(2) 0.59475(19) 0.4828(2)
C52 C 0.7100(2) 0.47052(19) 0.5449(2)
C53 C 0.7645(2) 0.4416(2) 0.4916(2)
H44 H 0.7891 0.4806 0.4635
C54 C 0.6757(2) 0.4127(2) 0.5865(2)
H45 H 0.6380 0.4314 0.6232
C55 C 0.7838(2) 0.3564(2) 0.4785(2)
H46 H 0.8208 0.3373 0.4413
C56 C 0.6958(2) 0.3287(2) 0.5749(2)
H47 H 0.6732 0.2903 0.6048
C57 C 0.7488(2) 0.29957(19) 0.5199(2)
C58 C 0.8122(3) 0.1806(2) 0.4510(2)
H48 H 0.7790 0.1865 0.3901
H49 H 0.8145 0.1184 0.4482
H50 H 0.8781 0.2144 0.4745
C59 C 0.7160(2) 0.61197(19) 0.6472(2)
C60 C 0.8080(2) 0.6175(2) 0.7088(2)
H51 H 0.8496 0.5801 0.6921
C61 C 0.6521(2) 0.66324(18) 0.6739(2)
C62 C 0.8398(2) 0.67677(19) 0.7939(2)
H52 H 0.9022 0.6780 0.8351
C63 C 0.6861(2) 0.72732(18) 0.75949(19)
C64 C 0.7821(2) 0.73467(18) 0.82024(19)
C65 C 0.8163(2) 0.8034(2) 0.9031(2)
H53 H 0.8799 0.8082 0.9441
C66 C 0.7606(2) 0.8617(2) 0.9249(2)
H54 H 0.7862 0.9075 0.9797
C67 C 0.6628(2) 0.85498(19) 0.86571(19)
C68 C 0.6255(2) 0.78550(18) 0.78453(19)
C69 C 0.5283(2) 0.77587(18) 0.72545(19)
C70 C 0.4939(2) 0.70673(19) 0.6430(2)
H55 H 0.4282 0.6975 0.6053
C71 C 0.5527(2) 0.65423(19) 0.6174(2)
H56 H 0.5281 0.6104 0.5610
C72 C 0.4706(2) 0.8348(2) 0.7494(2)
H57 H 0.4050 0.8276 0.7120
C73 C 0.5084(2) 0.9038(2) 0.8276(2)
H58 H 0.4686 0.9442 0.8422
C74 C 0.6031(2) 0.91503(19) 0.8849(2)
C75 C 0.6587(2) 0.98510(19) 1.0494(2)
C76 C 0.6058(2) 0.9173(2) 1.0654(2)
H59 H 0.5585 0.8750 1.0156
C77 C 0.7298(2) 1.0442(2) 1.1236(2)
H60 H 0.7687 1.0899 1.1141
C78 C 0.6207(3) 0.9103(2) 1.1532(2)
H61 H 0.5840 0.8631 1.1630
C79 C 0.7444(2) 1.0374(2) 1.2103(2)
H62 H 0.7934 1.0784 1.2599
C80 C 0.6889(3) 0.9719(2) 1.2264(2)
C81 C 0.6520(2) 1.07427(19) 0.9385(2)
C82 C 0.6706(2) 1.0777(2) 0.8595(2)
H63 H 0.6779 1.0253 0.8216
C83 C 0.6788(2) 1.1559(2) 0.8351(2)
H64 H 0.6900 1.1564 0.7801
C84 C 0.6706(3) 1.2332(2) 0.8906(2)
C85 C 0.6507(2) 1.2300(2) 0.9687(2)
H65 H 0.6435 1.2825 1.0066
C86 C 0.6410(2) 1.1521(2) 0.9923(2)
H66 H 0.6266 1.1513 1.0458
C87 C 0.6906(4) 1.3187(3) 0.7903(3)
H67 H 0.6339 1.2810 0.7415
H68 H 0.7493 1.2976 0.7849
H69 H 0.6935 1.3794 0.7854
C88 C 0.6152(13) 0.9360(7) 1.3339(7)
H70 H 0.5991 0.8721 1.3074
H71 H 0.5598 0.9629 1.3081
H72 H 0.6311 0.9490 1.3999
O9 O 0.6959(10) 0.9707(10) 1.3141(6)
O5? O 0.7269(16) 0.9764(18) 1.3188(11)
C89? C 0.666(2) 0.9170(16) 1.3381(12)
H73? H 0.5997 0.9280 1.3167
H74? H 0.6871 0.9243 1.4038
H75? H 0.6684 0.8568 1.3074
loop_
_geom_bond_atom_site_label_1
_geom_bond_atom_site_label_2
_geom_bond_site_symmetry_1
_geom_bond_site_symmetry_2
O1 C1 1_555 1_555
O2 C11 1_555 1_555
O3 C43 1_555 1_555
O4 C36 1_555 1_555
N1 C7 1_555 1_555
N2 C27 1_555 1_555
C1 H1 1_555 1_555
H2 C1 1_555 1_555
H3 C1 1_555 1_555
C2 O1 1_555 1_555
C3 C2 1_555 1_555
H4 C3 1_555 1_555
C4 C2 1_555 1_555
H5 C4 1_555 1_555
C5 C4 1_555 1_555
H6 C5 1_555 1_555
C6 C3 1_555 1_555
H7 C6 1_555 1_555
C7 C5 1_555 1_555
C8 N1 1_555 1_555
C9 C8 1_555 1_555
H8 C9 1_555 1_555
C10 C9 1_555 1_555
H9 C10 1_555 1_555
C11 C10 1_555 1_555
C12 C11 1_555 1_555
H10 C12 1_555 1_555
C13 C8 1_555 1_555
H11 C13 1_555 1_555
C14 O2 1_555 1_555
H12 C14 1_555 1_555
H13 C14 1_555 1_555
H14 C14 1_555 1_555
C15 N1 1_555 1_555
C16 C15 1_555 1_555
C17 C16 1_555 1_555
C18 C17 1_555 1_555
C19 C18 1_555 1_555
H15 C19 1_555 1_555
C20 C15 1_555 1_555
H16 C20 1_555 1_555
C21 C16 1_555 1_555
H17 C21 1_555 1_555
C22 C21 1_555 1_555
H18 C22 1_555 1_555
C23 C22 1_555 1_555
C24 C17 1_555 1_555
C25 C23 1_555 1_555
H19 C25 1_555 1_555
C26 C25 1_555 1_555
H20 C26 1_555 1_555
C27 C26 1_555 1_555
C28 C24 1_555 1_555
C29 C28 1_555 1_555
H21 C29 1_555 1_555
C30 C18 1_555 1_555
H22 C30 1_555 1_555
C31 N2 1_555 1_555
C32 C31 1_555 1_555
H23 C32 1_555 1_555
C33 C31 1_555 1_555
H24 C33 1_555 1_555
C34 C33 1_555 1_555
H25 C34 1_555 1_555
C35 C32 1_555 1_555
H26 C35 1_555 1_555
C36 C34 1_555 1_555
C37 O4 1_555 1_555
H27 C37 1_555 1_555
H28 C37 1_555 1_555
H29 C37 1_555 1_555
C38 N2 1_555 1_555
C39 C38 1_555 1_555
H30 C39 1_555 1_555
C40 C38 1_555 1_555
H31 C40 1_555 1_555
C41 C40 1_555 1_555
H32 C41 1_555 1_555
C42 C39 1_555 1_555
H33 C42 1_555 1_555
C43 C41 1_555 1_555
C44 O3 1_555 1_555
H34 C44 1_555 1_555
H35 C44 1_555 1_555
H36 C44 1_555 1_555
O6 C84 1_555 1_555
O7 C57 1_555 1_555
O8 C45 1_555 1_555
N3 C74 1_555 1_555
N4 C51 1_555 1_555
C45 H37 1_555 1_555
H38 C45 1_555 1_555
H39 C45 1_555 1_555
C46 O8 1_555 1_555
C47 C46 1_555 1_555
H40 C47 1_555 1_555
C48 C46 1_555 1_555
H41 C48 1_555 1_555
C49 C48 1_555 1_555
H42 C49 1_555 1_555
C50 C47 1_555 1_555
H43 C50 1_555 1_555
C51 C49 1_555 1_555
C52 N4 1_555 1_555
C53 C52 1_555 1_555
H44 C53 1_555 1_555
C54 C52 1_555 1_555
H45 C54 1_555 1_555
C55 C53 1_555 1_555
H46 C55 1_555 1_555
C56 C54 1_555 1_555
H47 C56 1_555 1_555
C57 C55 1_555 1_555
C58 O7 1_555 1_555
H48 C58 1_555 1_555
H49 C58 1_555 1_555
H50 C58 1_555 1_555
C59 N4 1_555 1_555
C60 C59 1_555 1_555
H51 C60 1_555 1_555
C61 C59 1_555 1_555
C62 C60 1_555 1_555
H52 C62 1_555 1_555
C63 C61 1_555 1_555
C64 C62 1_555 1_555
C65 C64 1_555 1_555
H53 C65 1_555 1_555
C66 C65 1_555 1_555
H54 C66 1_555 1_555
C67 C66 1_555 1_555
C68 C63 1_555 1_555
C69 C68 1_555 1_555
C70 C69 1_555 1_555
H55 C70 1_555 1_555
C71 C61 1_555 1_555
H56 C71 1_555 1_555
C72 C69 1_555 1_555
H57 C72 1_555 1_555
C73 C72 1_555 1_555
H58 C73 1_555 1_555
C74 C67 1_555 1_555
C75 N3 1_555 1_555
C76 C75 1_555 1_555
H59 C76 1_555 1_555
C77 C75 1_555 1_555
H60 C77 1_555 1_555
C78 C76 1_555 1_555
H61 C78 1_555 1_555
C79 C77 1_555 1_555
H62 C79 1_555 1_555
C80 C78 1_555 1_555
C81 N3 1_555 1_555
C82 C81 1_555 1_555
H63 C82 1_555 1_555
C83 C82 1_555 1_555
H64 C83 1_555 1_555
C84 C83 1_555 1_555
C85 C84 1_555 1_555
H65 C85 1_555 1_555
C86 C81 1_555 1_555
H66 C86 1_555 1_555
C87 O6 1_555 1_555
H67 C87 1_555 1_555
H68 C87 1_555 1_555
H69 C87 1_555 1_555
C88 H70 1_555 1_555
H71 C88 1_555 1_555
H72 C88 1_555 1_555
O9 C80 1_555 1_555
C6 C7 1_555 1_555
C12 C13 1_555 1_555
C19 C20 1_555 1_555
C23 C24 1_555 1_555
C27 C28 1_555 1_555
C29 C30 1_555 1_555
C35 C36 1_555 1_555
C42 C43 1_555 1_555
C50 C51 1_555 1_555
C56 C57 1_555 1_555
C63 C64 1_555 1_555
C67 C68 1_555 1_555
C70 C71 1_555 1_555
C73 C74 1_555 1_555
C79 C80 1_555 1_555
C85 C86 1_555 1_555
C88 O9 1_555 1_555

#END
