
#######################################################################
#
#                 Cambridge Crystallographic Data Centre
#                                CCDC 
#
#######################################################################
#
# If this CIF has been generated from an entry in the Cambridge 
# Structural Database, then it will include bibliographic, chemical, 
# crystal, experimental, refinement or atomic coordinate data resulting 
# from the CCDC's data processing and validation procedures.
#
#######################################################################

data_POVMAO
_chemical_name_common            'o-(3-Ethyl-2-triazeno)benzoic acid N$3!-oxide'
_chemical_formula_moiety         'C9 H11 N3 O3'
_chemical_name_systematic        '3-(o-Carboxyphenyl)-1-ethyltriazene 1-oxide'
_symmetry_cell_setting           orthorhombic
_symmetry_space_group_name_H-M   'P b c a'
_symmetry_Int_Tables_number      61
_space_group_name_Hall           '-P 2ac 2ab'
loop_
_symmetry_equiv_pos_site_id
_symmetry_equiv_pos_as_xyz
1 x,y,z
2 1/2+x,1/2-y,-z
3 1/2-x,-y,1/2+z
4 -x,1/2+y,1/2-z
5 -x,-y,-z
6 1/2-x,1/2+y,z
7 1/2+x,y,1/2-z
8 x,1/2-y,1/2+z
_cell_length_a                   19.862(1)
_cell_length_b                   21.301(1)
_cell_length_c                   9.758(1)
_cell_angle_alpha                90
_cell_angle_beta                 90
_cell_angle_gamma                90
_cell_volume                     4128.42
_exptl_crystal_colour            colorless
_exptl_crystal_description       prism
_cell_formula_units_Z            16
_exptl_crystal_recrystallization_method ethanol
loop_
_atom_site_label
_atom_site_type_symbol
_atom_site_fract_x
_atom_site_fract_y
_atom_site_fract_z
O1 O 0.61943(11) 0.09689(12) 0.1347(3)
O2 O 0.52776(11) 0.12342(12) 0.0184(3)
H1 H 0.5546 0.1466 -0.0205
O3 O 0.72917(10) 0.02156(11) 0.3831(2)
N1 N 0.60954(12) 0.00638(13) 0.3204(3)
H2 H 0.6356 0.0337 0.2830
N2 N 0.63287(13) -0.03212(13) 0.4170(3)
N3 N 0.69405(13) -0.02111(13) 0.4434(3)
C1 C 0.5600(2) 0.0888(2) 0.1102(4)
C2 C 0.51695(14) 0.0417(2) 0.1785(3)
C3 C 0.4494(2) 0.0354(2) 0.1405(4)
H3 H 0.4320 0.0616 0.0729
C4 C 0.4081(2) -0.0082(2) 0.2003(4)
H4 H 0.3635 -0.0121 0.1726
C5 C 0.4338(2) -0.0463(2) 0.3025(4)
H5 H 0.4058 -0.0753 0.3452
C6 C 0.4997(2) -0.0419(2) 0.3415(4)
H6 H 0.5163 -0.0683 0.4095
C7 C 0.54237(15) 0.0018(2) 0.2806(3)
C8 C 0.7282(2) -0.0602(2) 0.5488(4)
H7 H 0.7426 -0.0330 0.6230
H8 H 0.7684 -0.0783 0.5083
C9 C 0.6869(2) -0.1120(2) 0.6078(4)
H9 H 0.7143 -0.1367 0.6684
H10 H 0.6702 -0.1381 0.5352
H11 H 0.6498 -0.0946 0.6579
O4 O 0.72201(11) 0.10864(11) 0.6621(3)
O5 O 0.81073(11) 0.08949(12) 0.5311(3)
H12 H 0.7841 0.0652 0.4950
O6 O 0.60723(11) 0.19607(11) 0.8673(2)
N4 N 0.72941(13) 0.20736(14) 0.8252(3)
H13 H 0.7040 0.1796 0.7875
N5 N 0.70309(14) 0.2494(2) 0.9102(3)
N6 N 0.64046(14) 0.2404(2) 0.9278(3)
C10 C 0.7810(2) 0.1187(2) 0.6334(3)
C11 C 0.82472(14) 0.1638(2) 0.7048(3)
C12 C 0.8939(2) 0.1635(2) 0.6829(4)
H14 H 0.9124 0.1338 0.6240
C13 C 0.9353(2) 0.2060(2) 0.7461(4)
H15 H 0.9815 0.2049 0.7306
C14 C 0.9083(2) 0.2503(2) 0.8324(4)
H16 H 0.9364 0.2796 0.8742
C15 C 0.8405(2) 0.2518(2) 0.8574(4)
H17 H 0.8229 0.2823 0.9154
C16 C 0.7977(2) 0.2082(2) 0.7973(3)
C17 C 0.6036(2) 0.2850(2) 1.0161(4)
H18 H 0.5805 0.2621 1.0881
H19 H 0.6353 0.3136 1.0588
C18 C 0.5543(3) 0.3210(2) 0.9356(6)
H20 H 0.5270 0.3458 0.9962
H21 H 0.5261 0.2926 0.8851
H22 H 0.5775 0.3481 0.8729
loop_
_geom_bond_atom_site_label_1
_geom_bond_atom_site_label_2
_geom_bond_site_symmetry_1
_geom_bond_site_symmetry_2
O1 C1 1_555 1_555
O2 H1 1_555 1_555
O3 N3 1_555 1_555
N1 H2 1_555 1_555
N2 N1 1_555 1_555
N3 N2 1_555 1_555
C1 O2 1_555 1_555
C2 C1 1_555 1_555
C3 C2 1_555 1_555
H3 C3 1_555 1_555
C4 C3 1_555 1_555
H4 C4 1_555 1_555
C5 C4 1_555 1_555
H5 C5 1_555 1_555
C6 C5 1_555 1_555
H6 C6 1_555 1_555
C7 N1 1_555 1_555
C8 N3 1_555 1_555
H7 C8 1_555 1_555
H8 C8 1_555 1_555
C9 C8 1_555 1_555
H9 C9 1_555 1_555
H10 C9 1_555 1_555
H11 C9 1_555 1_555
O4 C10 1_555 1_555
O5 H12 1_555 1_555
O6 N6 1_555 1_555
N4 H13 1_555 1_555
N5 N4 1_555 1_555
N6 N5 1_555 1_555
C10 O5 1_555 1_555
C11 C10 1_555 1_555
C12 C11 1_555 1_555
H14 C12 1_555 1_555
C13 C12 1_555 1_555
H15 C13 1_555 1_555
C14 C13 1_555 1_555
H16 C14 1_555 1_555
C15 C14 1_555 1_555
H17 C15 1_555 1_555
C16 N4 1_555 1_555
C17 N6 1_555 1_555
H18 C17 1_555 1_555
H19 C17 1_555 1_555
C18 C17 1_555 1_555
H20 C18 1_555 1_555
H21 C18 1_555 1_555
H22 C18 1_555 1_555
C2 C7 1_555 1_555
C6 C7 1_555 1_555
C11 C16 1_555 1_555
C15 C16 1_555 1_555

#END
