
#######################################################################
#
#                 Cambridge Crystallographic Data Centre
#                                CCDC 
#
#######################################################################
#
# If this CIF has been generated from an entry in the Cambridge 
# Structural Database, then it will include bibliographic, chemical, 
# crystal, experimental, refinement or atomic coordinate data resulting 
# from the CCDC's data processing and validation procedures.
#
#######################################################################

data_POVMIY
_chemical_formula_moiety         'C48 H44 N2 O4'
_chemical_name_systematic        
"7-t-butyl-N,N,N',N'-tetrakis(4-methoxyphenyl)pyrene-1,3-diamine unknown solvate"
_symmetry_cell_setting           monoclinic
_symmetry_space_group_name_H-M   'C 2/c'
_symmetry_Int_Tables_number      15
_space_group_name_Hall           '-C 2yn'
loop_
_symmetry_equiv_pos_site_id
_symmetry_equiv_pos_as_xyz
1 x,y,z
2 -x,y,1/2-z
3 1/2+x,1/2+y,z
4 1/2-x,1/2+y,1/2-z
5 -x,-y,-z
6 x,-y,1/2+z
7 1/2-x,1/2-y,-z
8 1/2+x,1/2-y,1/2+z
_cell_length_a                   30.731(6)
_cell_length_b                   11.248(2)
_cell_length_c                   28.073(6)
_cell_angle_alpha                90
_cell_angle_beta                 112.48(3)
_cell_angle_gamma                90
_cell_volume                     8966.42
_exptl_crystal_colour            orange
_exptl_crystal_description       block
_cell_formula_units_Z            8
loop_
_atom_site_label
_atom_site_type_symbol
_atom_site_fract_x
_atom_site_fract_y
_atom_site_fract_z
O1 O 0.36819(17) 0.5502(3) 0.74163(16)
O2 O 0.20886(10) -0.2032(2) 0.60587(13)
O3 O 0.60922(11) 0.4807(3) 0.57796(14)
O4 O 0.55887(15) -0.2216(4) 0.75996(18)
N1 N 0.33719(12) 0.1554(3) 0.61302(13)
N2 N 0.49433(11) 0.1319(3) 0.61049(14)
C1 C 0.2672(5) -0.0170(9) 0.2652(4)
H1 H 0.2387 -0.0077 0.2725
H2 H 0.2859 -0.0834 0.2854
H3 H 0.2585 -0.0332 0.2284
C2 C 0.2649(4) 0.2038(11) 0.2565(4)
H4 H 0.2458 0.1884 0.2201
H5 H 0.2847 0.2740 0.2594
H6 H 0.2442 0.2178 0.2752
C3 C 0.3302(3) 0.0884(12) 0.2534(4)
H7 H 0.3475 0.0132 0.2627
H8 H 0.3524 0.1550 0.2643
H9 H 0.3129 0.0916 0.2160
C4 C 0.29616(16) 0.0966(4) 0.27960(17)
C5 C 0.31681(15) 0.1066(3) 0.33794(16)
C6 C 0.36577(14) 0.1000(3) 0.36572(16)
H10 H 0.3858 0.0927 0.3472
C7 C 0.38582(14) 0.1039(3) 0.41896(16)
C8 C 0.43537(14) 0.0977(4) 0.44738(18)
H11 H 0.4556 0.0869 0.4292
C9 C 0.45493(15) 0.1070(4) 0.50043(18)
H12 H 0.4882 0.1039 0.5178
C10 C 0.42631(13) 0.1209(3) 0.52928(16)
C11 C 0.44478(13) 0.1345(4) 0.58184(17)
C12 C 0.41375(15) 0.1448(4) 0.60962(19)
H13 H 0.4267 0.1523 0.6461
C13 C 0.36587(15) 0.1438(4) 0.58366(18)
C14 C 0.34590(14) 0.1349(3) 0.52935(16)
C15 C 0.29595(13) 0.1409(4) 0.50119(17)
H14 H 0.2755 0.1491 0.5192
C16 C 0.27792(14) 0.1351(4) 0.44914(18)
H15 H 0.2448 0.1403 0.4313
C17 C 0.30682(14) 0.1216(3) 0.42014(17)
C18 C 0.28901(13) 0.1177(3) 0.36721(16)
H16 H 0.2558 0.1229 0.3494
C19 C 0.35631(13) 0.1171(3) 0.44786(16)
C20 C 0.37610(13) 0.1246(3) 0.50207(17)
C21 C 0.34532(14) 0.2515(4) 0.64679(17)
C22 C 0.34868(16) 0.3674(4) 0.62983(17)
H17 H 0.3449 0.3799 0.5950
C23 C 0.35723(19) 0.4621(4) 0.6623(2)
H18 H 0.3606 0.5388 0.6500
C24 C 0.36119(18) 0.4493(4) 0.7129(2)
C25 C 0.35721(16) 0.3360(4) 0.73047(19)
H19 H 0.3599 0.3243 0.7650
C26 C 0.34913(15) 0.2388(4) 0.69687(17)
H20 H 0.3462 0.1618 0.7092
C27 C 0.3775(4) 0.5419(7) 0.7941(3)
H21 H 0.3781 0.6217 0.8083
H22 H 0.4080 0.5033 0.8118
H23 H 0.3527 0.4947 0.7992
C28 C 0.30574(12) 0.0593(4) 0.61233(15)
C29 C 0.26396(13) 0.0837(4) 0.61946(16)
H24 H 0.2570 0.1630 0.6258
C30 C 0.23283(14) -0.0062(3) 0.61740(16)
H25 H 0.2048 0.0105 0.6229
C31 C 0.24295(15) -0.1215(4) 0.60719(18)
C32 C 0.28349(16) -0.1455(4) 0.5994(2)
H26 H 0.2901 -0.2240 0.5917
C33 C 0.31498(14) -0.0525(4) 0.60296(18)
H27 H 0.3435 -0.0694 0.5986
C34 C 0.2212(2) -0.3289(4) 0.6034(2)
H28 H 0.2522 -0.3450 0.6302
H29 H 0.2219 -0.3456 0.5694
H30 H 0.1976 -0.3797 0.6088
C35 C 0.52284(14) 0.2247(4) 0.60441(17)
C36 C 0.57056(14) 0.2050(4) 0.61552(17)
H31 H 0.5844 0.1312 0.6300
C37 C 0.59757(14) 0.2913(4) 0.60571(17)
H32 H 0.6299 0.2763 0.6129
C38 C 0.57827(14) 0.3998(4) 0.58542(17)
C39 C 0.53075(15) 0.4226(4) 0.57517(18)
H33 H 0.5174 0.4980 0.5624
C40 C 0.50379(16) 0.3354(4) 0.58375(19)
H34 H 0.4713 0.3500 0.5755
C41 C 0.59141(19) 0.5967(4) 0.5612(3)
H35 H 0.5806 0.6327 0.5865
H36 H 0.5650 0.5914 0.5278
H37 H 0.6164 0.6459 0.5578
C42 C 0.51206(14) 0.0482(4) 0.65091(18)
C43 C 0.54150(17) 0.0753(5) 0.70132(18)
H38 H 0.5503 0.1555 0.7109
C44 C 0.55868(16) -0.0177(6) 0.7390(2)
H39 H 0.5794 0.0001 0.7732
C45 C 0.54512(18) -0.1293(4) 0.7251(2)
C46 C 0.51523(18) -0.1591(5) 0.6758(2)
H40 H 0.5064 -0.2394 0.6666
C47 C 0.49891(17) -0.0702(4) 0.6410(2)
H41 H 0.4770 -0.0901 0.6076
C48 C 0.5896(2) -0.2038(7) 0.8089(2)
H42 H 0.5883 -0.2714 0.8304
H43 H 0.5812 -0.1308 0.8225
H44 H 0.6215 -0.1963 0.8094
C49? C 0.2443(5) 0.1143(14) 0.2558(5)
H45? H 0.2335 0.1049 0.2184
H46? H 0.2366 0.1944 0.2639
H47? H 0.2288 0.0554 0.2696
C50? C 0.3192(5) 0.2042(18) 0.2584(6)
H48? H 0.3100 0.1960 0.2211
H49? H 0.3536 0.2009 0.2754
H50? H 0.3079 0.2806 0.2660
C51? C 0.3125(6) -0.0216(11) 0.2638(5)
H51? H 0.3059 -0.0873 0.2830
H52? H 0.3464 -0.0180 0.2717
H53? H 0.2956 -0.0346 0.2268
loop_
_geom_bond_atom_site_label_1
_geom_bond_atom_site_label_2
_geom_bond_site_symmetry_1
_geom_bond_site_symmetry_2
O1 C24 1_555 1_555
O2 C31 1_555 1_555
O3 C38 1_555 1_555
O4 C45 1_555 1_555
N1 C13 1_555 1_555
N2 C11 1_555 1_555
C1 H1 1_555 1_555
H2 C1 1_555 1_555
H3 C1 1_555 1_555
C2 H4 1_555 1_555
H5 C2 1_555 1_555
H6 C2 1_555 1_555
C3 H7 1_555 1_555
H8 C3 1_555 1_555
H9 C3 1_555 1_555
C4 C1 1_555 1_555
C5 C4 1_555 1_555
C6 C5 1_555 1_555
H10 C6 1_555 1_555
C7 C6 1_555 1_555
C8 C7 1_555 1_555
H11 C8 1_555 1_555
C9 C8 1_555 1_555
H12 C9 1_555 1_555
C10 C9 1_555 1_555
C11 C10 1_555 1_555
C12 C11 1_555 1_555
H13 C12 1_555 1_555
C13 C12 1_555 1_555
C14 C13 1_555 1_555
C15 C14 1_555 1_555
H14 C15 1_555 1_555
C16 C15 1_555 1_555
H15 C16 1_555 1_555
C17 C16 1_555 1_555
C18 C5 1_555 1_555
H16 C18 1_555 1_555
C19 C7 1_555 1_555
C20 C10 1_555 1_555
C21 N1 1_555 1_555
C22 C21 1_555 1_555
H17 C22 1_555 1_555
C23 C22 1_555 1_555
H18 C23 1_555 1_555
C24 C23 1_555 1_555
C25 C24 1_555 1_555
H19 C25 1_555 1_555
C26 C21 1_555 1_555
H20 C26 1_555 1_555
C27 O1 1_555 1_555
H21 C27 1_555 1_555
H22 C27 1_555 1_555
H23 C27 1_555 1_555
C28 N1 1_555 1_555
C29 C28 1_555 1_555
H24 C29 1_555 1_555
C30 C29 1_555 1_555
H25 C30 1_555 1_555
C31 C30 1_555 1_555
C32 C31 1_555 1_555
H26 C32 1_555 1_555
C33 C28 1_555 1_555
H27 C33 1_555 1_555
C34 O2 1_555 1_555
H28 C34 1_555 1_555
H29 C34 1_555 1_555
H30 C34 1_555 1_555
C35 N2 1_555 1_555
C36 C35 1_555 1_555
H31 C36 1_555 1_555
C37 C36 1_555 1_555
H32 C37 1_555 1_555
C38 C37 1_555 1_555
C39 C38 1_555 1_555
H33 C39 1_555 1_555
C40 C35 1_555 1_555
H34 C40 1_555 1_555
C41 O3 1_555 1_555
H35 C41 1_555 1_555
H36 C41 1_555 1_555
H37 C41 1_555 1_555
C42 N2 1_555 1_555
C43 C42 1_555 1_555
H38 C43 1_555 1_555
C44 C43 1_555 1_555
H39 C44 1_555 1_555
C45 C44 1_555 1_555
C46 C45 1_555 1_555
H40 C46 1_555 1_555
C47 C42 1_555 1_555
H41 C47 1_555 1_555
C48 O4 1_555 1_555
H42 C48 1_555 1_555
H43 C48 1_555 1_555
H44 C48 1_555 1_555
C2 C4 1_555 1_555
C3 C4 1_555 1_555
C14 C20 1_555 1_555
C17 C18 1_555 1_555
C17 C19 1_555 1_555
C19 C20 1_555 1_555
C25 C26 1_555 1_555
C32 C33 1_555 1_555
C39 C40 1_555 1_555
C46 C47 1_555 1_555

#END
