
#######################################################################
#
#                 Cambridge Crystallographic Data Centre
#                                CCDC 
#
#######################################################################
#
# If this CIF has been generated from an entry in the Cambridge 
# Structural Database, then it will include bibliographic, chemical, 
# crystal, experimental, refinement or atomic coordinate data resulting 
# from the CCDC's data processing and validation procedures.
#
#######################################################################

data_POVNEV
_chemical_name_common            
'Carpedilactone A acetone acetonitrile solvate hemihydrate'
_chemical_formula_moiety         
'C30 H38 O6,0.5(C3 H6 O1),0.5(C2 H3 N1),0.5(H2 O1)'
_chemical_name_systematic        
"6,8-dihydroxy-1',8a,10'-trimethyl-5,5'-bis(methylene)-3a,4,4a,5,6,7,8,8a,9,9a-decahydro-6'H-spiro[naphtho[2,3-b]furan-3,14'-[7]oxatetracyclo[10.2.1.0^2,11^.0^4,8^]pentadec[2(11)]ene]-2,6'-dione acetone acetonitrile solvate hemihydrate"
_chemical_properties_biological  
'potent cytotoxicities against human leukemia (CCRF-CEM) cells'
_symmetry_cell_setting           triclinic
_symmetry_space_group_name_H-M   'P 1'
_symmetry_Int_Tables_number      1
_space_group_name_Hall           'P 1'
loop_
_symmetry_equiv_pos_site_id
_symmetry_equiv_pos_as_xyz
1 x,y,z
_cell_length_a                   11.0003(2)
_cell_length_b                   11.3149(2)
_cell_length_c                   11.9224(2)
_cell_angle_alpha                88.4590(10)
_cell_angle_beta                 75.6040(10)
_cell_angle_gamma                82.9560(10)
_cell_volume                     1426.49
_exptl_crystal_colour            colorless
_exptl_crystal_description       block
_cell_formula_units_Z            2
loop_
_atom_site_label
_atom_site_type_symbol
_atom_site_fract_x
_atom_site_fract_y
_atom_site_fract_z
O1 O 0.4247(2) 0.66938(18) 0.36402(17)
O2 O 0.63953(19) 0.61228(15) 0.20058(16)
H1 H 0.5686 0.6013 0.2433
O3 O 0.15720(19) 1.22297(15) 0.14777(16)
O4 O 0.17457(17) 1.06167(15) 0.25459(14)
O5 O 0.0037(2) 0.44667(19) -0.26015(17)
O6 O 0.1215(2) 0.59693(16) -0.30260(15)
C1 C 0.4647(3) 0.7850(2) 0.3718(2)
H2 H 0.4331 0.8145 0.4535
C2 C 0.6086(3) 0.7730(2) 0.3390(2)
H3 H 0.6415 0.7138 0.3901
H4 H 0.6370 0.8504 0.3507
C3 C 0.6621(2) 0.7338(2) 0.2128(2)
H5 H 0.7553 0.7380 0.1913
C4 C 0.6017(2) 0.81339(19) 0.13155(19)
C5 C 0.4591(2) 0.82857(18) 0.16394(17)
H6 H 0.4321 0.7479 0.1599
C6 C 0.3999(2) 0.90907(19) 0.08107(17)
H7 H 0.4225 0.9906 0.0851
H8 H 0.4362 0.8795 0.0009
C7 C 0.2558(2) 0.91413(19) 0.10866(18)
H9 H 0.2321 0.8399 0.0804
C8 C 0.1925(2) 0.9318(2) 0.23838(19)
H10 H 0.1074 0.9032 0.2546
C9 C 0.2638(2) 0.8718(2) 0.32354(19)
H11 H 0.2291 0.9113 0.3998
H12 H 0.2460 0.7879 0.3328
C10 C 0.4066(2) 0.8726(2) 0.29132(18)
C11 C 0.1939(2) 1.02477(18) 0.05493(18)
C12 C 0.1726(2) 1.1157(2) 0.1528(2)
C13 C 0.2695(2) 1.0748(2) -0.06043(19)
H13 H 0.3477 1.0211 -0.0935
H14 H 0.2923 1.1548 -0.0488
C14 C 0.4423(3) 0.9967(2) 0.3081(2)
H15 H 0.3912 1.0566 0.2729
H16 H 0.5321 0.9993 0.2710
H17 H 0.4265 1.0135 0.3910
C15 C 0.6740(2) 0.8632(2) 0.0403(2)
H18 H 0.6360 0.9127 -0.0104
H19 H 0.7634 0.8491 0.0259
C16 C 0.1613(2) 0.9538(2) -0.16535(19)
C17 C 0.1766(2) 1.0812(2) -0.1405(2)
H20 H 0.1971 1.1335 -0.2099
C18 C 0.0512(2) 1.1193(2) -0.0532(2)
H21 H -0.0224 1.1229 -0.0875
H22 H 0.0507 1.1955 -0.0141
C19 C 0.0616(2) 1.0101(2) 0.02594(19)
C20 C 0.0933(2) 0.9096(2) -0.06592(18)
C21 C 0.0578(2) 0.7859(2) -0.03801(18)
H23 H -0.0179 0.7902 0.0279
H24 H 0.1277 0.7370 -0.0137
C22 C 0.0303(2) 0.7255(2) -0.14019(18)
H25 H -0.0345 0.7793 -0.1688
C23 C 0.1471(2) 0.6985(2) -0.24090(19)
H26 H 0.2227 0.6743 -0.2095
C24 C 0.1741(3) 0.7996(2) -0.32574(19)
H27 H 0.0940 0.8353 -0.3431
H28 H 0.2314 0.7674 -0.3990
C25 C 0.2346(2) 0.8970(2) -0.27994(19)
H29 H 0.2401 0.9624 -0.3385
C26 C -0.0143(2) 0.6039(2) -0.1192(2)
C27 C 0.0339(3) 0.5368(2) -0.2308(2)
C28 C -0.0771(3) 0.5540(3) -0.0244(2)
H30 H -0.0926 0.4734 -0.0260
H31 H -0.1066 0.5987 0.0454
C29 C 0.3712(3) 0.8537(2) -0.2753(2)
H32 H 0.4141 0.9221 -0.2648
H33 H 0.4162 0.8126 -0.3478
H34 H 0.3706 0.7987 -0.2103
C30 C -0.0521(2) 1.0017(2) 0.1270(2)
H35 H -0.1281 1.0025 0.0981
H36 H -0.0623 1.0697 0.1791
H37 H -0.0394 0.9275 0.1692
H38 H 0.417(4) 0.622(4) 0.431(4)
O7 O 0.5761(2) 0.54554(15) 1.00826(15)
H39 H 0.6024 0.5772 1.0592
O8 O 0.3592(2) 0.62206(16) 0.94048(17)
H40 H 0.4355 0.6256 0.9388
O9 O 0.7598(2) -0.04571(16) 0.75085(16)
O10 O 0.76460(17) 0.11952(14) 0.84570(13)
O11 O 1.0573(4) 0.6919(3) 0.2371(2)
O12 O 0.9221(2) 0.55898(18) 0.24146(18)
C31 C 0.7559(2) 0.2814(2) 0.32016(19)
H41 H 0.7440 0.2209 0.2655
C32 C 1.1145(7) 0.5577(5) 0.4387(4)
H42 H 1.1436 0.6339 0.4296
H43 H 1.1336 0.5054 0.4972
C33 C 0.8113(2) 0.2129(2) 0.41010(18)
C34 C 0.7701(3) 0.0922(2) 0.45008(19)
H44 H 0.7432 0.0466 0.3916
C35 C 0.8867(3) 0.0340(2) 0.4870(2)
H45 H 0.9621 0.0197 0.4212
H46 H 0.8717 -0.0404 0.5311
C36 C 0.8925(2) 0.1393(2) 0.56423(19)
C37 C 0.8838(2) 0.2418(2) 0.47858(18)
C38 C 0.9446(3) 0.3526(2) 0.48507(19)
H47 H 1.0197 0.3314 0.5165
H48 H 0.8843 0.4092 0.5400
C39 C 0.9852(3) 0.4147(2) 0.3691(2)
H49 H 1.0447 0.3565 0.3138
C40 C 0.8761(3) 0.4605(2) 0.3163(2)
H50 H 0.8016 0.4922 0.3792
C41 C 0.8367(2) 0.3701(2) 0.24567(18)
H51 H 0.9135 0.3253 0.1962
H52 H 0.7882 0.4125 0.1940
C42 C 0.5194(3) 0.4410(2) 1.05497(19)
H53 H 0.5490 0.4157 1.1257
C43 C 0.3761(3) 0.4718(2) 1.08937(19)
H54 H 0.3532 0.5383 1.1459
H55 H 0.3366 0.4021 1.1270
C44 C 0.3251(3) 0.5077(2) 0.9832(2)
H56 H 0.2308 0.5136 1.0074
C45 C 0.3717(2) 0.4134(2) 0.88805(19)
C46 C 0.5135(2) 0.37919(19) 0.85543(18)
H57 H 0.5520 0.4532 0.8260
C47 C 0.5603(2) 0.28654(19) 0.75782(18)
H58 H 0.5258 0.3138 0.6911
H59 H 0.5277 0.2103 0.7850
C48 C 0.7053(2) 0.26528(19) 0.71778(18)
H60 H 0.7378 0.3335 0.6693
C49 C 0.7675(2) 0.2470(2) 0.81986(19)
H61 H 0.8578 0.2620 0.7921
C50 C 0.7074(2) 0.3223(2) 0.92736(19)
H62 H 0.7371 0.4018 0.9143
H63 H 0.7389 0.2854 0.9926
C51 C 0.5630(2) 0.33958(19) 0.96408(18)
C52 C 0.7541(2) 0.14710(19) 0.65024(19)
C53 C 0.7591(3) 0.0602(2) 0.75089(19)
C54 C 0.6740(2) 0.1077(2) 0.57032(19)
H64 H 0.6027 0.1694 0.5676
H65 H 0.6403 0.0319 0.5971
C55 C 0.5123(2) 0.2260(2) 1.01953(19)
H66 H 0.5432 0.1595 0.9649
H67 H 0.4197 0.2376 1.0392
H68 H 0.5416 0.2083 1.0900
C56 C 0.2908(3) 0.3688(2) 0.8407(2)
H69 H 0.3204 0.3104 0.7813
H70 H 0.2029 0.3950 0.8661
C57 C 1.0476(4) 0.5247(3) 0.3701(2)
C58 C 1.0151(4) 0.6035(3) 0.2772(3)
C59 C 0.6231(3) 0.3427(3) 0.3781(3)
H71 H 0.5690 0.2825 0.4142
H72 H 0.5867 0.3862 0.3196
H73 H 0.6291 0.3986 0.4374
C60 C 1.0059(2) 0.1266(2) 0.6167(2)
H74 H 1.0834 0.1074 0.5555
H75 H 0.9978 0.0627 0.6742
H76 H 1.0096 0.2017 0.6542
C61 C 0.3107(6) 0.2952(5) 0.3717(5)
H77 H 0.3892 0.2684 0.3141
H78 H 0.2985 0.3824 0.3751
H79 H 0.2393 0.2666 0.3498
C62 C 0.3185(4) 0.2484(4) 0.4832(4)
N1 N 0.3286(5) 0.2072(5) 0.5711(4)
C63 C 0.8206(9) 0.7045(7) 0.5769(7)
H80 H 0.8590 0.6598 0.5050
H81 H 0.8824 0.7031 0.6238
H82 H 0.7942 0.7871 0.5584
C64 C 0.6995(5) 0.6447(4) 0.6484(4)
C65 C 0.6887(8) 0.6809(4) 0.7614(4)
H83 H 0.6157 0.6498 0.8131
H84 H 0.6771 0.7681 0.7653
H85 H 0.7657 0.6503 0.7852
O13 O 0.6454(4) 0.5865(3) 0.5983(3)
O14 O 0.4042(3) 0.5444(3) 0.5656(2)
H86 H 0.4712 0.5381 0.5849
H87 H 0.3357 0.5380 0.6019
loop_
_geom_bond_atom_site_label_1
_geom_bond_atom_site_label_2
_geom_bond_site_symmetry_1
_geom_bond_site_symmetry_2
O1 C1 1_555 1_555
O2 H1 1_555 1_555
O3 C12 1_555 1_555
O4 C8 1_555 1_555
O5 C27 1_555 1_555
O6 C23 1_555 1_555
C1 H2 1_555 1_555
C2 C1 1_555 1_555
H3 C2 1_555 1_555
H4 C2 1_555 1_555
C3 O2 1_555 1_555
H5 C3 1_555 1_555
C4 C3 1_555 1_555
C5 C4 1_555 1_555
H6 C5 1_555 1_555
C6 C5 1_555 1_555
H7 C6 1_555 1_555
H8 C6 1_555 1_555
C7 C6 1_555 1_555
H9 C7 1_555 1_555
C8 C7 1_555 1_555
H10 C8 1_555 1_555
C9 C8 1_555 1_555
H11 C9 1_555 1_555
H12 C9 1_555 1_555
C10 C1 1_555 1_555
C11 C7 1_555 1_555
C12 O4 1_555 1_555
C13 C11 1_555 1_555
H13 C13 1_555 1_555
H14 C13 1_555 1_555
C14 C10 1_555 1_555
H15 C14 1_555 1_555
H16 C14 1_555 1_555
H17 C14 1_555 1_555
C15 C4 1_555 1_555
H18 C15 1_555 1_555
H19 C15 1_555 1_555
C16 C17 1_555 1_555
C17 C13 1_555 1_555
H20 C17 1_555 1_555
C18 C17 1_555 1_555
H21 C18 1_555 1_555
H22 C18 1_555 1_555
C19 C11 1_555 1_555
C20 C16 1_555 1_555
C21 C20 1_555 1_555
H23 C21 1_555 1_555
H24 C21 1_555 1_555
C22 C21 1_555 1_555
H25 C22 1_555 1_555
C23 C22 1_555 1_555
H26 C23 1_555 1_555
C24 C23 1_555 1_555
H27 C24 1_555 1_555
H28 C24 1_555 1_555
C25 C16 1_555 1_555
H29 C25 1_555 1_555
C26 C22 1_555 1_555
C27 O6 1_555 1_555
C28 C26 1_555 1_555
H30 C28 1_555 1_555
H31 C28 1_555 1_555
C29 C25 1_555 1_555
H32 C29 1_555 1_555
H33 C29 1_555 1_555
H34 C29 1_555 1_555
C30 C19 1_555 1_555
H35 C30 1_555 1_555
H36 C30 1_555 1_555
H37 C30 1_555 1_555
H38 O1 1_555 1_555
O7 H39 1_555 1_555
O8 H40 1_555 1_555
O9 C53 1_555 1_555
O10 C49 1_555 1_555
O11 C58 1_555 1_555
O12 C40 1_555 1_555
C31 H41 1_555 1_555
C32 H42 1_555 1_555
H43 C32 1_555 1_555
C33 C31 1_555 1_555
C34 C33 1_555 1_555
H44 C34 1_555 1_555
C35 C34 1_555 1_555
H45 C35 1_555 1_555
H46 C35 1_555 1_555
C36 C35 1_555 1_555
C37 C33 1_555 1_555
C38 C37 1_555 1_555
H47 C38 1_555 1_555
H48 C38 1_555 1_555
C39 C38 1_555 1_555
H49 C39 1_555 1_555
C40 C39 1_555 1_555
H50 C40 1_555 1_555
C41 C31 1_555 1_555
H51 C41 1_555 1_555
H52 C41 1_555 1_555
C42 O7 1_555 1_555
H53 C42 1_555 1_555
C43 C42 1_555 1_555
H54 C43 1_555 1_555
H55 C43 1_555 1_555
C44 O8 1_555 1_555
H56 C44 1_555 1_555
C45 C44 1_555 1_555
C46 C45 1_555 1_555
H57 C46 1_555 1_555
C47 C46 1_555 1_555
H58 C47 1_555 1_555
H59 C47 1_555 1_555
C48 C47 1_555 1_555
H60 C48 1_555 1_555
C49 C48 1_555 1_555
H61 C49 1_555 1_555
C50 C49 1_555 1_555
H62 C50 1_555 1_555
H63 C50 1_555 1_555
C51 C42 1_555 1_555
C52 C36 1_555 1_555
C53 O10 1_555 1_555
C54 C34 1_555 1_555
H64 C54 1_555 1_555
H65 C54 1_555 1_555
C55 C51 1_555 1_555
H66 C55 1_555 1_555
H67 C55 1_555 1_555
H68 C55 1_555 1_555
C56 C45 1_555 1_555
H69 C56 1_555 1_555
H70 C56 1_555 1_555
C57 C32 1_555 1_555
C58 O12 1_555 1_555
C59 C31 1_555 1_555
H71 C59 1_555 1_555
H72 C59 1_555 1_555
H73 C59 1_555 1_555
C60 C36 1_555 1_555
H74 C60 1_555 1_555
H75 C60 1_555 1_555
H76 C60 1_555 1_555
C61 H77 1_555 1_555
H78 C61 1_555 1_555
H79 C61 1_555 1_555
C62 C61 1_555 1_555
N1 C62 1_555 1_555
C63 H80 1_555 1_555
H81 C63 1_555 1_555
H82 C63 1_555 1_555
C64 C63 1_555 1_555
C65 C64 1_555 1_555
H83 C65 1_555 1_555
H84 C65 1_555 1_555
H85 C65 1_555 1_555
O13 C64 1_555 1_555
O14 H86 1_555 1_555
H87 O14 1_555 1_555
C2 C3 1_555 1_555
C5 C10 1_555 1_555
C9 C10 1_555 1_555
C11 C12 1_555 1_555
C18 C19 1_555 1_555
C19 C20 1_555 1_555
C24 C25 1_555 1_555
C26 C27 1_555 1_555
C36 C37 1_555 1_555
C39 C57 1_555 1_555
C40 C41 1_555 1_555
C43 C44 1_555 1_555
C46 C51 1_555 1_555
C48 C52 1_555 1_555
C50 C51 1_555 1_555
C52 C53 1_555 1_555
C52 C54 1_555 1_555
C57 C58 1_555 1_555

#END
