
#######################################################################
#
#                 Cambridge Crystallographic Data Centre
#                                CCDC 
#
#######################################################################
#
# If this CIF has been generated from an entry in the Cambridge 
# Structural Database, then it will include bibliographic, chemical, 
# crystal, experimental, refinement or atomic coordinate data resulting 
# from the CCDC's data processing and validation procedures.
#
#######################################################################

data_POVNIZ
_chemical_name_common            'Carpedilactone B monohydrate'
_chemical_formula_moiety         'C30 H38 O6,H2 O1'
_chemical_name_systematic        
"6,8-dihydroxy-1',8a,10'-trimethyl-5,5'-bis(methylene)-3a,4,4a,5,6,7,8,8a,9,9a-decahydro-6'H-spiro[naphtho[2,3-b]furan-3,14'-[7]oxatetracyclo[10.2.1.0^2,11^.0^4,8^]pentadec[2(11)]ene]-2,6'-dione monohydrate"
_chemical_properties_biological  
'potent cytotoxicities against human leukemia (CCRF-CEM) cells'
_symmetry_cell_setting           monoclinic
_symmetry_space_group_name_H-M   'P 21'
_symmetry_Int_Tables_number      4
_space_group_name_Hall           'P 2yb'
loop_
_symmetry_equiv_pos_site_id
_symmetry_equiv_pos_as_xyz
1 x,y,z
2 -x,1/2+y,-z
_cell_length_a                   11.98660(10)
_cell_length_b                   7.76830(10)
_cell_length_c                   14.6557(2)
_cell_angle_alpha                90
_cell_angle_beta                 110.80
_cell_angle_gamma                90
_cell_volume                     1275.73
_exptl_crystal_colour            colorless
_exptl_crystal_description       block
_cell_formula_units_Z            2
loop_
_atom_site_label
_atom_site_type_symbol
_atom_site_fract_x
_atom_site_fract_y
_atom_site_fract_z
O1 O 0.05363(14) 0.4526(2) 0.33366(11)
H1 H 0.0642 0.5345 0.3733
O2 O -0.00508(14) 0.7864(2) 0.39031(10)
H2 H 0.0154 0.8844 0.4148
O3 O 0.27395(13) 0.7475(2) -0.04935(9)
O4 O 0.21791(12) 0.5750(2) 0.04793(9)
O5 O 0.63946(13) 0.7484(3) 0.68034(10)
O6 O 0.60459(12) 0.9368(2) 0.55761(10)
C1 C 0.04408(15) 0.5941(2) 0.17844(12)
C2 C -0.02482(17) 0.5073(3) 0.23812(14)
H3 H -0.0648 0.4023 0.2016
C3 C -0.12202(18) 0.6249(3) 0.24776(16)
H4 H -0.1576 0.5701 0.2920
H5 H -0.1858 0.6373 0.1830
C4 C -0.07633(17) 0.8039(3) 0.28708(14)
H6 H -0.1458 0.8813 0.2793
C5 C -0.00057(16) 0.8808(3) 0.23406(13)
C6 C 0.09861(15) 0.7649(2) 0.22956(11)
H7 H 0.1485 0.7354 0.2984
C7 C 0.18176(15) 0.8476(2) 0.18366(12)
H8 H 0.2104 0.9596 0.2157
H9 H 0.1371 0.8696 0.1136
C8 C 0.28936(15) 0.7310(3) 0.19434(11)
H10 H 0.3437 0.7240 0.2641
C9 C 0.24735(16) 0.5520(3) 0.15394(12)
H11 H 0.3170 0.4719 0.1784
C10 C 0.14473(17) 0.4734(2) 0.17714(14)
H12 H 0.1781 0.4175 0.2419
H13 H 0.1090 0.3816 0.1287
C11 C 0.35856(15) 0.7909(3) 0.12882(12)
C12 C 0.28129(16) 0.7074(3) 0.03194(13)
C13 C 0.37574(16) 0.9871(3) 0.11891(13)
H14 H 0.3507 1.0529 0.1662
H15 H 0.3294 1.0276 0.0521
C14 C -0.04288(18) 0.6242(3) 0.07335(13)
H16 H 0.0022 0.6582 0.0320
H17 H -0.0992 0.7158 0.0732
H18 H -0.0869 0.5179 0.0480
C15 C -0.02755(18) 1.0337(3) 0.19184(14)
H19 H 0.0171 1.0786 0.1551
H20 H -0.0915 1.0985 0.1983
C16 C 0.57339(16) 0.9654(3) 0.25039(13)
C17 C 0.51232(16) 1.0062(3) 0.14155(13)
H21 H 0.5377 1.1158 0.1190
C18 C 0.53789(17) 0.8420(3) 0.09512(13)
H22 H 0.6237 0.8268 0.1062
H23 H 0.4900 0.8334 0.0246
C19 C 0.49379(16) 0.7206(3) 0.15780(12)
C20 C 0.56203(15) 0.7948(2) 0.25959(12)
C21 C 0.59696(16) 0.6783(2) 0.34725(12)
H24 H 0.6495 0.5861 0.3388
H25 H 0.5243 0.6232 0.3511
C22 C 0.66143(15) 0.7729(3) 0.44275(12)
H26 H 0.7422 0.8088 0.4443
C23 C 0.59308(16) 0.9316(3) 0.45440(13)
H27 H 0.5070 0.9192 0.4126
C24 C 0.64125(18) 1.0960(3) 0.42867(14)
H28 H 0.7286 1.0995 0.4639
H29 H 0.6058 1.1944 0.4517
C25 C 0.61585(16) 1.1184(3) 0.31788(14)
H30 H 0.5499 1.2048 0.2949
C26 C 0.67518(15) 0.6694(3) 0.53282(12)
C27 C 0.63949(16) 0.7812(3) 0.59987(13)
C28 C 0.71411(18) 0.5114(3) 0.55597(13)
H31 H 0.7202 0.4650 0.6175
H32 H 0.7362 0.4436 0.5111
C29 C 0.72378(18) 1.2045(3) 0.30328(17)
H33 H 0.7938 1.1298 0.3295
H34 H 0.7399 1.3153 0.3375
H35 H 0.7064 1.2234 0.2335
C30 C 0.51090(17) 0.5301(3) 0.14409(13)
H36 H 0.5926 0.5096 0.1465
H37 H 0.4542 0.4927 0.0807
H38 H 0.4969 0.4647 0.1962
O7 O 0.96658(15) 0.6275(2) 0.55312(12)
H39 H 0.968(2) 0.675(4) 0.502(2)
H40 H 0.965(3) 0.708(5) 0.595(3)
loop_
_geom_bond_atom_site_label_1
_geom_bond_atom_site_label_2
_geom_bond_site_symmetry_1
_geom_bond_site_symmetry_2
O1 H1 1_555 1_555
O2 H2 1_555 1_555
O3 C12 1_555 1_555
O4 C9 1_555 1_555
O5 C27 1_555 1_555
O6 C23 1_555 1_555
C1 C2 1_555 1_555
C2 O1 1_555 1_555
H3 C2 1_555 1_555
C3 C2 1_555 1_555
H4 C3 1_555 1_555
H5 C3 1_555 1_555
C4 O2 1_555 1_555
H6 C4 1_555 1_555
C5 C4 1_555 1_555
C6 C1 1_555 1_555
H7 C6 1_555 1_555
C7 C6 1_555 1_555
H8 C7 1_555 1_555
H9 C7 1_555 1_555
C8 C7 1_555 1_555
H10 C8 1_555 1_555
C9 C8 1_555 1_555
H11 C9 1_555 1_555
C10 C1 1_555 1_555
H12 C10 1_555 1_555
H13 C10 1_555 1_555
C11 C8 1_555 1_555
C12 O4 1_555 1_555
C13 C11 1_555 1_555
H14 C13 1_555 1_555
H15 C13 1_555 1_555
C14 C1 1_555 1_555
H16 C14 1_555 1_555
H17 C14 1_555 1_555
H18 C14 1_555 1_555
C15 C5 1_555 1_555
H19 C15 1_555 1_555
H20 C15 1_555 1_555
C16 C17 1_555 1_555
C17 C13 1_555 1_555
H21 C17 1_555 1_555
C18 C17 1_555 1_555
H22 C18 1_555 1_555
H23 C18 1_555 1_555
C19 C11 1_555 1_555
C20 C16 1_555 1_555
C21 C20 1_555 1_555
H24 C21 1_555 1_555
H25 C21 1_555 1_555
C22 C21 1_555 1_555
H26 C22 1_555 1_555
C23 C22 1_555 1_555
H27 C23 1_555 1_555
C24 C23 1_555 1_555
H28 C24 1_555 1_555
H29 C24 1_555 1_555
C25 C16 1_555 1_555
H30 C25 1_555 1_555
C26 C22 1_555 1_555
C27 O6 1_555 1_555
C28 C26 1_555 1_555
H31 C28 1_555 1_555
H32 C28 1_555 1_555
C29 C25 1_555 1_555
H33 C29 1_555 1_555
H34 C29 1_555 1_555
H35 C29 1_555 1_555
C30 C19 1_555 1_555
H36 C30 1_555 1_555
H37 C30 1_555 1_555
H38 C30 1_555 1_555
O7 H39 1_555 1_555
H40 O7 1_555 1_555
C3 C4 1_555 1_555
C5 C6 1_555 1_555
C9 C10 1_555 1_555
C11 C12 1_555 1_555
C18 C19 1_555 1_555
C19 C20 1_555 1_555
C24 C25 1_555 1_555
C26 C27 1_555 1_555

#END
