
#######################################################################
#
#                 Cambridge Crystallographic Data Centre
#                                CCDC 
#
#######################################################################
#
# If this CIF has been generated from an entry in the Cambridge 
# Structural Database, then it will include bibliographic, chemical, 
# crystal, experimental, refinement or atomic coordinate data resulting 
# from the CCDC's data processing and validation procedures.
#
#######################################################################

data_POVNOF
_chemical_name_common            'Carpedilactone C'
_chemical_formula_moiety         'C30 H38 O6'
_chemical_name_systematic        
6,8-dihydroxy-1',8a,10'-trimethyl-5,5'-bis(methylene)-3a,4,4a,5,6,7,8,8a,9,9a-decahydro-6'H-spiro[naphtho[2,3-b]furan-3,13'-[7]oxatetracyclo[10.2.1.0^2,11^.0^4,8^]pentadec[2(11)]ene]-2,6'-dione
_chemical_properties_biological  
'potent cytotoxicities against human leukemia (CCRF-CEM) cells'
_symmetry_cell_setting           orthorhombic
_symmetry_space_group_name_H-M   'P 21 21 21'
_symmetry_Int_Tables_number      19
_space_group_name_Hall           'P 2ac 2ab'
loop_
_symmetry_equiv_pos_site_id
_symmetry_equiv_pos_as_xyz
1 x,y,z
2 1/2+x,1/2-y,-z
3 -x,1/2+y,1/2-z
4 1/2-x,-y,1/2+z
_cell_length_a                   8.46880(10)
_cell_length_b                   9.6160(2)
_cell_length_c                   32.4284(5)
_cell_angle_alpha                90
_cell_angle_beta                 90
_cell_angle_gamma                90
_cell_volume                     2640.84
_exptl_crystal_colour            colorless
_exptl_crystal_description       block
_cell_formula_units_Z            4
loop_
_atom_site_label
_atom_site_type_symbol
_atom_site_fract_x
_atom_site_fract_y
_atom_site_fract_z
O1 O 1.22933(18) 0.84694(18) 0.01278(5)
H1 H 1.1648 0.8003 -0.0012
O2 O 0.98007(19) 0.81067(18) -0.03828(5)
H2 H 0.9018 0.7591 -0.0339
O3 O 1.02421(18) 1.05607(16) 0.15307(5)
O4 O 0.8445(2) 1.14424(15) 0.19598(5)
O5 O 0.66712(16) 0.27596(16) 0.11941(5)
O6 O 0.46697(19) 0.16310(17) 0.08915(5)
C1 C 1.1734(3) 0.9873(2) 0.01656(7)
H3 H 1.2675 1.0487 0.0206
C2 C 1.0927(3) 1.0316(3) -0.02341(7)
H4 H 1.1644 1.0138 -0.0469
H5 H 1.0710 1.1328 -0.0225
C3 C 0.9377(3) 0.9529(3) -0.03009(7)
H6 H 0.8821 0.9922 -0.0547
C4 C 0.8317(3) 0.9658(2) 0.00741(6)
C5 C 0.9091(2) 0.9230(2) 0.04760(6)
H7 H 0.9395 0.8230 0.0446
C6 C 0.8009(2) 0.9326(2) 0.08524(6)
H8 H 0.7015 0.8820 0.0796
H9 H 0.7742 1.0313 0.0904
C7 C 0.8795(2) 0.8711(2) 0.12367(6)
H10 H 0.8815 0.7674 0.1216
C8 C 1.0475(2) 0.9258(2) 0.13046(6)
H11 H 1.1036 0.8593 0.1491
C9 C 1.1488(2) 0.9467(2) 0.09243(6)
H12 H 1.1957 0.8560 0.0848
H13 H 1.2367 1.0100 0.0997
C10 C 1.0644(2) 1.0061(2) 0.05442(6)
C11 C 0.8010(2) 0.9145(2) 0.16448(6)
C12 C 0.8846(3) 1.0517(2) 0.17353(6)
C13 C 0.6181(2) 0.9244(2) 0.16690(6)
H14 H 0.5689 0.8923 0.1409
H15 H 0.5840 1.0210 0.1725
C14 C 1.0316(3) 1.1625(2) 0.05964(7)
H16 H 0.9816 1.1789 0.0865
H17 H 0.9609 1.1941 0.0376
H18 H 1.1312 1.2141 0.0582
C15 C 0.6862(3) 1.0144(3) 0.00386(7)
H19 H 0.6471 1.0417 -0.0224
H20 H 0.6208 1.0221 0.0276
C16 C 0.7765(2) 0.6710(2) 0.18814(6)
C17 C 0.8381(2) 0.8126(2) 0.20168(6)
H21 H 0.9493 0.8142 0.2120
C18 C 0.7114(2) 0.8569(2) 0.23291(6)
H22 H 0.7099 0.7977 0.2579
H23 H 0.7189 0.9562 0.2406
C19 C 0.5740(2) 0.8264(2) 0.20341(6)
C20 C 0.6175(2) 0.6794(2) 0.18906(6)
C21 C 0.4930(2) 0.5760(2) 0.17695(6)
H24 H 0.3961 0.6272 0.1691
H25 H 0.4671 0.5181 0.2013
C22 C 0.5389(2) 0.4809(2) 0.14169(6)
H26 H 0.5590 0.5393 0.1167
C23 C 0.6841(2) 0.3897(2) 0.14931(6)
H27 H 0.6797 0.3511 0.1779
C24 C 0.8418(2) 0.4581(2) 0.14243(6)
H28 H 0.8379 0.5108 0.1162
H29 H 0.9232 0.3849 0.1394
C25 C 0.8919(2) 0.5573(2) 0.17717(6)
H30 H 0.9893 0.6053 0.1672
C26 C 0.4207(2) 0.3703(2) 0.13055(6)
C27 C 0.5122(3) 0.2565(2) 0.11053(6)
C28 C 0.2687(3) 0.3597(3) 0.13956(8)
H31 H 0.2130 0.2766 0.1332
H32 H 0.2153 0.4351 0.1523
C29 C 0.9399(2) 0.4795(2) 0.21665(6)
H33 H 0.9797 0.5462 0.2370
H34 H 1.0228 0.4118 0.2101
H35 H 0.8479 0.4309 0.2280
C30 C 0.4080(3) 0.8490(2) 0.22022(7)
H36 H 0.3311 0.8370 0.1979
H37 H 0.3995 0.9433 0.2314
H38 H 0.3868 0.7812 0.2421
loop_
_geom_bond_atom_site_label_1
_geom_bond_atom_site_label_2
_geom_bond_site_symmetry_1
_geom_bond_site_symmetry_2
O1 H1 1_555 1_555
O2 H2 1_555 1_555
O3 C8 1_555 1_555
O4 C12 1_555 1_555
O5 C23 1_555 1_555
O6 C27 1_555 1_555
C1 O1 1_555 1_555
H3 C1 1_555 1_555
C2 C1 1_555 1_555
H4 C2 1_555 1_555
H5 C2 1_555 1_555
C3 O2 1_555 1_555
H6 C3 1_555 1_555
C4 C3 1_555 1_555
C5 C4 1_555 1_555
H7 C5 1_555 1_555
C6 C5 1_555 1_555
H8 C6 1_555 1_555
H9 C6 1_555 1_555
C7 C6 1_555 1_555
H10 C7 1_555 1_555
C8 C7 1_555 1_555
H11 C8 1_555 1_555
C9 C8 1_555 1_555
H12 C9 1_555 1_555
H13 C9 1_555 1_555
C10 C1 1_555 1_555
C11 C7 1_555 1_555
C12 O3 1_555 1_555
C13 C11 1_555 1_555
H14 C13 1_555 1_555
H15 C13 1_555 1_555
C14 C10 1_555 1_555
H16 C14 1_555 1_555
H17 C14 1_555 1_555
H18 C14 1_555 1_555
C15 C4 1_555 1_555
H19 C15 1_555 1_555
H20 C15 1_555 1_555
C16 C17 1_555 1_555
C17 C11 1_555 1_555
H21 C17 1_555 1_555
C18 C17 1_555 1_555
H22 C18 1_555 1_555
H23 C18 1_555 1_555
C19 C13 1_555 1_555
C20 C16 1_555 1_555
C21 C20 1_555 1_555
H24 C21 1_555 1_555
H25 C21 1_555 1_555
C22 C21 1_555 1_555
H26 C22 1_555 1_555
C23 C22 1_555 1_555
H27 C23 1_555 1_555
C24 C23 1_555 1_555
H28 C24 1_555 1_555
H29 C24 1_555 1_555
C25 C16 1_555 1_555
H30 C25 1_555 1_555
C26 C22 1_555 1_555
C27 O5 1_555 1_555
C28 C26 1_555 1_555
H31 C28 1_555 1_555
H32 C28 1_555 1_555
C29 C25 1_555 1_555
H33 C29 1_555 1_555
H34 C29 1_555 1_555
H35 C29 1_555 1_555
C30 C19 1_555 1_555
H36 C30 1_555 1_555
H37 C30 1_555 1_555
H38 C30 1_555 1_555
C2 C3 1_555 1_555
C5 C10 1_555 1_555
C9 C10 1_555 1_555
C11 C12 1_555 1_555
C18 C19 1_555 1_555
C19 C20 1_555 1_555
C24 C25 1_555 1_555
C26 C27 1_555 1_555

#END
