
#######################################################################
#
#                 Cambridge Crystallographic Data Centre
#                                CCDC 
#
#######################################################################
#
# If this CIF has been generated from an entry in the Cambridge 
# Structural Database, then it will include bibliographic, chemical, 
# crystal, experimental, refinement or atomic coordinate data resulting 
# from the CCDC's data processing and validation procedures.
#
#######################################################################

data_POVWIG
_chemical_formula_moiety         'C25 H19 F3 O3'
_chemical_name_systematic        
'(+)-2,2,2-Trifluoro-1-(9-phenanthryl)ethyl S-O-methylmandelate'
_symmetry_cell_setting           orthorhombic
_symmetry_space_group_name_H-M   'P 21 21 21'
_symmetry_Int_Tables_number      19
_space_group_name_Hall           'P 2ac 2ab'
loop_
_symmetry_equiv_pos_site_id
_symmetry_equiv_pos_as_xyz
1 x,y,z
2 1/2-x,-y,1/2+z
3 1/2+x,1/2-y,-z
4 -x,1/2+y,1/2-z
_cell_length_a                   15.548(2)
_cell_length_b                   15.749(2)
_cell_length_c                   8.447(1)
_cell_angle_alpha                90
_cell_angle_beta                 90
_cell_angle_gamma                90
_cell_volume                     2068.38
_exptl_crystal_colour            colorless
_exptl_crystal_description       columns
_cell_formula_units_Z            4
_exptl_crystal_recrystallization_method dichloromethane/hexane
loop_
_atom_site_label
_atom_site_type_symbol
_atom_site_fract_x
_atom_site_fract_y
_atom_site_fract_z
F1 F 0.3557(1) -0.0984(2) 0.9091(3)
F2 F 0.3092(1) -0.0054(2) 1.0737(3)
F3 F 0.3592(2) 0.0337(2) 0.8487(3)
O1 O 0.4578(1) -0.0764(1) 1.1590(2)
O2 O 0.5729(2) -0.0172(2) 1.2758(3)
O3 O 0.4297(2) -0.1674(2) 1.4264(3)
C1 C 0.5323(3) 0.1257(2) 0.8388(5)
C2 C 0.5665(4) 0.1903(3) 0.7464(6)
C3 C 0.6332(4) 0.1732(3) 0.6425(6)
C4 C 0.6671(3) 0.0944(3) 0.6332(5)
C5 C 0.6356(2) 0.0258(2) 0.7251(4)
C6 C 0.6735(2) -0.0574(2) 0.7178(4)
C7 C 0.6372(2) -0.1239(2) 0.8067(4)
C8 C 0.5640(2) -0.1065(2) 0.9048(4)
C9 C 0.5312(2) -0.0277(2) 0.9203(4)
C10 C 0.5662(2) 0.0419(2) 0.8282(4)
C11 C 0.7481(3) -0.0764(3) 0.6283(5)
C12 C 0.7820(3) -0.1569(4) 0.6276(5)
C13 C 0.7456(3) -0.2216(4) 0.7141(6)
C14 C 0.6729(3) -0.2054(3) 0.8013(5)
C15 C 0.4593(2) -0.0132(2) 1.0387(4)
C16 C 0.3704(2) -0.0201(3) 0.9671(5)
C17 C 0.5197(2) -0.0719(2) 1.2714(4)
C18 C 0.5146(3) -0.1477(2) 1.3822(4)
C19 C 0.3905(6) -0.1005(5) 1.513(1)
C20 C 0.5544(2) -0.2231(2) 1.3032(4)
C21 C 0.6420(3) -0.2360(3) 1.3119(6)
C22 C 0.6792(3) -0.3037(4) 1.2336(8)
C23 C 0.6328(3) -0.3567(3) 1.1453(6)
C24 C 0.5445(3) -0.3457(3) 1.1353(5)
C25 C 0.5048(2) -0.2792(2) 1.2134(5)
loop_
_geom_bond_atom_site_label_1
_geom_bond_atom_site_label_2
_geom_bond_site_symmetry_1
_geom_bond_site_symmetry_2
F1 C16 1_555 1_555
F2 C16 1_555 1_555
F3 C16 1_555 1_555
O1 C15 1_555 1_555
O2 C17 1_555 1_555
O3 C18 1_555 1_555
C1 C2 1_555 1_555
C2 C3 1_555 1_555
C3 C4 1_555 1_555
C4 C5 1_555 1_555
C5 C6 1_555 1_555
C6 C7 1_555 1_555
C7 C8 1_555 1_555
C8 C9 1_555 1_555
C9 C10 1_555 1_555
C10 C1 1_555 1_555
C11 C6 1_555 1_555
C12 C11 1_555 1_555
C13 C12 1_555 1_555
C14 C7 1_555 1_555
C15 C9 1_555 1_555
C16 C15 1_555 1_555
C17 O1 1_555 1_555
C18 C17 1_555 1_555
C19 O3 1_555 1_555
C20 C18 1_555 1_555
C21 C20 1_555 1_555
C22 C21 1_555 1_555
C23 C22 1_555 1_555
C24 C23 1_555 1_555
C25 C20 1_555 1_555
C5 C10 1_555 1_555
C13 C14 1_555 1_555
C24 C25 1_555 1_555

#END
