
#######################################################################
#
#                 Cambridge Crystallographic Data Centre
#                                CCDC 
#
#######################################################################
#
# If this CIF has been generated from an entry in the Cambridge 
# Structural Database, then it will include bibliographic, chemical, 
# crystal, experimental, refinement or atomic coordinate data resulting 
# from the CCDC's data processing and validation procedures.
#
#######################################################################

data_POVZOP
_chemical_formula_moiety         'C28 H19 N4 O2 P1'
_chemical_name_systematic        
2-Triphenylphosphinimino-1,2,3-triazolo(4,5-b)(1,4-naphthoquinone)
_symmetry_cell_setting           monoclinic
_symmetry_space_group_name_H-M   'P 21/c'
_symmetry_Int_Tables_number      14
_space_group_name_Hall           '-P 2ybc'
loop_
_symmetry_equiv_pos_site_id
_symmetry_equiv_pos_as_xyz
1 x,y,z
2 -x,1/2+y,1/2-z
3 -x,-y,-z
4 x,1/2-y,1/2+z
_cell_length_a                   10.803(4)
_cell_length_b                   10.891(5)
_cell_length_c                   19.814(4)
_cell_angle_alpha                90
_cell_angle_beta                 95.56(2)
_cell_angle_gamma                90
_cell_volume                     2320.26
_exptl_crystal_colour            red
_exptl_crystal_description       prismatic
_cell_formula_units_Z            4
loop_
_atom_site_label
_atom_site_type_symbol
_atom_site_fract_x
_atom_site_fract_y
_atom_site_fract_z
P1 P 0.3142(1) 0.0573(1) 0.20679(7)
O1 O 0.2268(4) 0.6517(3) 0.1356(2)
O2 O 0.1884(3) 0.2681(3) -0.0414(2)
N1 N 0.2930(4) 0.3971(3) 0.1777(2)
N2 N 0.3044(4) 0.2760(4) 0.1674(2)
N3 N 0.2724(4) 0.2366(3) 0.1033(3)
N4 N 0.3465(4) 0.2020(3) 0.2191(2)
C1 C 0.2174(4) 0.5654(5) 0.0970(3)
C2 C 0.2503(4) 0.4391(4) 0.1155(3)
C3 C 0.2379(4) 0.3424(4) 0.0710(2)
C4 C 0.1934(4) 0.3541(5) -0.0017(3)
C5 C 0.1573(4) 0.4821(4) -0.0228(3)
C6 C 0.1121(5) 0.5022(5) -0.0905(3)
C7 C 0.0755(5) 0.6180(6) -0.1115(3)
C8 C 0.0843(5) 0.7157(5) -0.0665(3)
C9 C 0.1306(5) 0.6961(5) 0.0018(3)
C10 C 0.1675(4) 0.5799(5) 0.0228(3)
C11 C 0.1480(4) 0.0313(4) 0.1965(2)
C12 C 0.0738(5) 0.1177(5) 0.2248(2)
C13 C -0.0515(5) 0.0977(6) 0.2261(3)
C14 C -0.1058(5) -0.0076(7) 0.1983(3)
C15 C -0.0342(5) -0.0933(6) 0.1688(3)
C16 C 0.0933(5) -0.0753(5) 0.1683(3)
C17 C 0.3685(4) -0.0138(4) 0.2867(3)
C18 C 0.4129(5) 0.0588(5) 0.3417(3)
C19 C 0.4448(6) 0.0026(6) 0.4027(3)
C20 C 0.4337(5) -0.1214(7) 0.4115(3)
C21 C 0.3907(5) -0.1931(5) 0.3553(3)
C22 C 0.3583(5) -0.1399(5) 0.2926(3)
C23 C 0.3901(5) -0.0230(4) 0.1436(3)
C24 C 0.3322(5) -0.0424(5) 0.0765(3)
C25 C 0.3982(5) -0.1022(5) 0.0308(3)
C26 C 0.5186(5) -0.1429(5) 0.0468(3)
C27 C 0.5760(5) -0.1229(5) 0.1123(3)
C28 C 0.5119(5) -0.0649(5) 0.1612(3)
H1 H 0.1039 0.4319 -0.1227
H2 H 0.0450 0.6341 -0.1583
H3 H 0.0563 0.7990 -0.0826
H4 H 0.1360 0.7644 0.0342
H5 H 0.1143 0.1937 0.2440
H6 H -0.1040 0.1606 0.2460
H7 H -0.1949 -0.0230 0.2006
H8 H -0.0752 -0.1668 0.1464
H9 H 0.1462 -0.1382 0.1489
H10 H 0.4202 0.1490 0.3366
H11 H 0.4779 0.0526 0.4414
H12 H 0.4532 -0.1598 0.4552
H13 H 0.3840 -0.2813 0.3600
H14 H 0.3295 -0.1906 0.2516
H15 H 0.2462 -0.0127 0.0639
H16 H 0.3581 -0.1181 -0.0144
H17 H 0.5637 -0.1834 0.0116
H18 H 0.6622 -0.1475 0.1228
H19 H 0.5519 -0.0558 0.2081
loop_
_geom_bond_atom_site_label_1
_geom_bond_atom_site_label_2
_geom_bond_site_symmetry_1
_geom_bond_site_symmetry_2
P1 N4 1_555 1_555
O1 C1 1_555 1_555
O2 C4 1_555 1_555
N1 N2 1_555 1_555
N2 N3 1_555 1_555
N3 C3 1_555 1_555
N4 N2 1_555 1_555
C1 C2 1_555 1_555
C2 N1 1_555 1_555
C3 C2 1_555 1_555
C4 C3 1_555 1_555
C5 C4 1_555 1_555
C6 C5 1_555 1_555
C7 C6 1_555 1_555
C8 C7 1_555 1_555
C9 C8 1_555 1_555
C10 C1 1_555 1_555
C11 P1 1_555 1_555
C12 C11 1_555 1_555
C13 C12 1_555 1_555
C14 C13 1_555 1_555
C15 C14 1_555 1_555
C16 C11 1_555 1_555
C17 P1 1_555 1_555
C18 C17 1_555 1_555
C19 C18 1_555 1_555
C20 C19 1_555 1_555
C21 C20 1_555 1_555
C22 C17 1_555 1_555
C23 P1 1_555 1_555
C24 C23 1_555 1_555
C25 C24 1_555 1_555
C26 C25 1_555 1_555
C27 C26 1_555 1_555
C28 C23 1_555 1_555
H1 C6 1_555 1_555
H2 C7 1_555 1_555
H3 C8 1_555 1_555
H4 C9 1_555 1_555
H5 C12 1_555 1_555
H6 C13 1_555 1_555
H7 C14 1_555 1_555
H8 C15 1_555 1_555
H9 C16 1_555 1_555
H10 C18 1_555 1_555
H11 C19 1_555 1_555
H12 C20 1_555 1_555
H13 C21 1_555 1_555
H14 C22 1_555 1_555
H15 C24 1_555 1_555
H16 C25 1_555 1_555
H17 C26 1_555 1_555
H18 C27 1_555 1_555
H19 C28 1_555 1_555
C5 C10 1_555 1_555
C9 C10 1_555 1_555
C15 C16 1_555 1_555
C21 C22 1_555 1_555
C27 C28 1_555 1_555

#END
