
#######################################################################
#
#                 Cambridge Crystallographic Data Centre
#                                CCDC 
#
#######################################################################
#
# If this CIF has been generated from an entry in the Cambridge 
# Structural Database, then it will include bibliographic, chemical, 
# crystal, experimental, refinement or atomic coordinate data resulting 
# from the CCDC's data processing and validation procedures.
#
#######################################################################

data_POVZUV
_chemical_formula_moiety         'C28 H19 N4 O2 P1,C1 H4 O1'
_chemical_name_systematic        
'2-Triphenylphosphinimino-1,2,3-triazolo(4,5-b)(1,4-naphthoquinone) methanol solvate'
_symmetry_cell_setting           triclinic
_symmetry_space_group_name_H-M   'P -1'
_symmetry_Int_Tables_number      2
_space_group_name_Hall           '-P 1'
loop_
_symmetry_equiv_pos_site_id
_symmetry_equiv_pos_as_xyz
1 x,y,z
2 -x,-y,-z
_cell_length_a                   12.665(4)
_cell_length_b                   13.512(8)
_cell_length_c                   8.907(2)
_cell_angle_alpha                101.57(3)
_cell_angle_beta                 104.87(2)
_cell_angle_gamma                62.68(3)
_cell_volume                     1302.78
_exptl_crystal_colour            garnet
_exptl_crystal_description       prismatic
_cell_formula_units_Z            2
loop_
_atom_site_label
_atom_site_type_symbol
_atom_site_fract_x
_atom_site_fract_y
_atom_site_fract_z
P1 P 0.2764(1) 0.8198(1) 0.2624(2)
O1 O -0.0635(4) 0.5796(3) 0.3475(5)
O2 O 0.3086(4) 0.4001(3) 0.0307(5)
N1 N 0.0757(4) 0.7015(4) 0.3310(5)
N2 N 0.1626(4) 0.7130(4) 0.2845(4)
N3 N 0.2302(4) 0.6267(4) 0.1960(5)
N4 N 0.1734(4) 0.8121(3) 0.3295(4)
C1 C 0.0195(5) 0.5390(5) 0.2745(7)
C2 C 0.0903(5) 0.5975(5) 0.2646(6)
C3 C 0.1831(5) 0.5526(4) 0.1812(6)
C4 C 0.2226(5) 0.4410(5) 0.0975(6)
C5 C 0.1504(5) 0.3806(5) 0.0989(6)
C6 C 0.1770(6) 0.2770(5) 0.0149(7)
C7 C 0.1140(7) 0.2163(5) 0.0135(8)
C8 C 0.0242(7) 0.2583(6) 0.0994(9)
C9 C -0.0050(5) 0.3622(6) 0.1851(7)
C10 C 0.0573(5) 0.4250(5) 0.1861(6)
C11 C 0.4276(4) 0.7198(4) 0.3256(6)
C12 C 0.4544(6) 0.6756(5) 0.4665(7)
C13 C 0.5690(7) 0.6031(6) 0.5260(7)
C14 C 0.6614(6) 0.5735(6) 0.4493(8)
C15 C 0.6393(6) 0.6168(5) 0.3102(8)
C16 C 0.5225(5) 0.6904(5) 0.2489(6)
C17 C 0.2643(5) 0.9565(4) 0.3479(5)
C18 C 0.1741(5) 1.0278(5) 0.4279(6)
C19 C 0.1668(6) 1.1334(6) 0.4900(8)
C20 C 0.2500(7) 1.1656(6) 0.4734(8)
C21 C 0.3407(7) 1.0958(6) 0.3949(9)
C22 C 0.3480(6) 0.9903(5) 0.3315(7)
C23 C 0.2476(5) 0.8182(5) 0.0521(5)
C24 C 0.2944(5) 0.7207(5) -0.0461(6)
C25 C 0.2599(6) 0.7243(5) -0.2057(7)
C26 C 0.1793(6) 0.8230(6) -0.2682(6)
C27 C 0.1320(5) 0.9207(5) -0.1736(7)
C28 C 0.1667(5) 0.9173(5) -0.0135(6)
H1 H 0.2405 0.2459 -0.0434
H2 H 0.1293 0.1466 -0.0463
H3 H -0.0198 0.2174 0.1039
H4 H -0.0679 0.3915 0.2441
H5 H 0.3918 0.6963 0.5221
H6 H 0.5855 0.5719 0.6200
H7 H 0.7417 0.5228 0.4904
H8 H 0.7038 0.5966 0.2574
H9 H 0.5073 0.7199 0.1541
H10 H 0.1163 1.0058 0.4417
H11 H 0.1035 1.1834 0.5446
H12 H 0.2448 1.2379 0.5164
H13 H 0.3986 1.1185 0.3832
H14 H 0.4108 0.9413 0.2763
H15 H 0.3480 0.6520 -0.0024
H16 H 0.2927 0.6585 -0.2730
H17 H 0.1561 0.8247 -0.3784
H18 H 0.0766 0.9891 -0.2166
H19 H 0.1344 0.9842 0.0537
O3 O 0.556(3) -0.022(2) 0.076(4)
C29 C 0.534(2) 0.086(2) 0.088(3)
H20 H 0.5371 -0.0385 0.1563
H21 H 0.4931 0.1406 0.1881
H22 H 0.4725 0.1417 0.0089
H23 H 0.6000 0.1163 0.1102
O4? O 0.611(1) 0.020(2) 0.223(3)
H24? H 0.5766 0.0308 0.3139
loop_
_geom_bond_atom_site_label_1
_geom_bond_atom_site_label_2
_geom_bond_site_symmetry_1
_geom_bond_site_symmetry_2
P1 N4 1_555 1_555
O1 C1 1_555 1_555
O2 C4 1_555 1_555
N1 N2 1_555 1_555
N2 N3 1_555 1_555
N3 C3 1_555 1_555
N4 N2 1_555 1_555
C1 C2 1_555 1_555
C2 N1 1_555 1_555
C3 C2 1_555 1_555
C4 C3 1_555 1_555
C5 C4 1_555 1_555
C6 C5 1_555 1_555
C7 C6 1_555 1_555
C8 C7 1_555 1_555
C9 C8 1_555 1_555
C10 C1 1_555 1_555
C11 P1 1_555 1_555
C12 C11 1_555 1_555
C13 C12 1_555 1_555
C14 C13 1_555 1_555
C15 C14 1_555 1_555
C16 C11 1_555 1_555
C17 P1 1_555 1_555
C18 C17 1_555 1_555
C19 C18 1_555 1_555
C20 C19 1_555 1_555
C21 C20 1_555 1_555
C22 C17 1_555 1_555
C23 P1 1_555 1_555
C24 C23 1_555 1_555
C25 C24 1_555 1_555
C26 C25 1_555 1_555
C27 C26 1_555 1_555
C28 C23 1_555 1_555
H1 C6 1_555 1_555
H2 C7 1_555 1_555
H3 C8 1_555 1_555
H4 C9 1_555 1_555
H5 C12 1_555 1_555
H6 C13 1_555 1_555
H7 C14 1_555 1_555
H8 C15 1_555 1_555
H9 C16 1_555 1_555
H10 C18 1_555 1_555
H11 C19 1_555 1_555
H12 C20 1_555 1_555
H13 C21 1_555 1_555
H14 C22 1_555 1_555
H15 C24 1_555 1_555
H16 C25 1_555 1_555
H17 C26 1_555 1_555
H18 C27 1_555 1_555
H19 C28 1_555 1_555
O3 C29 1_555 1_555
C29 H21 1_555 1_555
H20 O3 1_555 1_555
H22 C29 1_555 1_555
H23 C29 1_555 1_555
C5 C10 1_555 1_555
C9 C10 1_555 1_555
C15 C16 1_555 1_555
C21 C22 1_555 1_555
C27 C28 1_555 1_555

#END
