
#######################################################################
#
#                 Cambridge Crystallographic Data Centre
#                                CCDC 
#
#######################################################################
#
# If this CIF has been generated from an entry in the Cambridge 
# Structural Database, then it will include bibliographic, chemical, 
# crystal, experimental, refinement or atomic coordinate data resulting 
# from the CCDC's data processing and validation procedures.
#
#######################################################################

data_POWBEI
_chemical_formula_moiety         'C14 H10 N4 O4'
_chemical_name_systematic        
2-(N,N-Diacetylamino)-1,2,3-triazolo(4,5-b)(1,4-naphthoquinone)
_symmetry_cell_setting           monoclinic
_symmetry_space_group_name_H-M   'P 21/c'
_symmetry_Int_Tables_number      14
_space_group_name_Hall           '-P 2ybc'
loop_
_symmetry_equiv_pos_site_id
_symmetry_equiv_pos_as_xyz
1 x,y,z
2 -x,1/2+y,1/2-z
3 -x,-y,-z
4 x,1/2-y,1/2+z
_cell_length_a                   10.970(3)
_cell_length_b                   7.674(2)
_cell_length_c                   16.965(2)
_cell_angle_alpha                90
_cell_angle_beta                 102.92(1)
_cell_angle_gamma                90
_cell_volume                     1392.02
_exptl_crystal_colour            yellow
_exptl_crystal_description       prismatic
_cell_formula_units_Z            4
loop_
_atom_site_label
_atom_site_type_symbol
_atom_site_fract_x
_atom_site_fract_y
_atom_site_fract_z
O1 O 0.7713(4) 0.2567(9) 0.7388(2)
O2 O 0.3903(4) 0.231(1) 0.8979(2)
O3 O 1.0110(5) 0.3399(8) 1.1536(3)
O4 O 0.8600(5) -0.08640(7) 1.0264(3)
N1 N 0.8160(5) 0.2373(8) 0.9165(3)
N2 N 0.7783(5) 0.2234(8) 0.9854(3)
N3 N 0.6541(5) 0.2188(8) 0.9833(3)
N4 N 0.8643(5) 0.2023(9) 1.0584(3)
C1 C 0.6870(6) 0.254(1) 0.7740(4)
C2 C 0.7056(6) 0.242(1) 0.8626(4)
C3 C 0.6073(6) 0.233(1) 0.9027(4)
C4 C 0.4739(6) 0.234(1) 0.8625(4)
C5 C 0.4532(6) 0.245(1) 0.7714(4)
C6 C 0.3307(6) 0.244(1) 0.7273(4)
C7 C 0.3043(6) 0.254(1) 0.6437(4)
C8 C 0.4017(7) 0.264(1) 0.6038(4)
C9 C 0.5245(6) 0.264(1) 0.6472(4)
C10 C 0.5512(6) 0.254(1) 0.7311(4)
C11 C 0.9187(9) 0.354(1) 1.0997(5)
C12 C 0.853(1) 0.518(1) 1.0737(6)
C13 C 0.8951(7) 0.022(1) 1.0782(5)
C14 C 0.9682(7) -0.014(1) 1.1610(4)
H1 H 0.2573 0.2395 0.7560
H2 H 0.2184 0.2484 0.6102
H3 H 0.3792 0.2734 0.5449
H4 H 0.5934 0.2703 0.6157
H5 H 0.9134 0.6093 1.0581
H6 H 0.7866 0.5140 1.0288
H7 H 0.8260 0.5803 1.1172
H8 H 0.9276 -0.0969 1.1905
H9 H 1.0494 -0.0698 1.1600
H10 H 0.9883 0.0864 1.1947
loop_
_geom_bond_atom_site_label_1
_geom_bond_atom_site_label_2
_geom_bond_site_symmetry_1
_geom_bond_site_symmetry_2
O1 C1 1_555 1_555
O2 C4 1_555 1_555
O3 C11 1_555 1_555
O4 C13 1_555 1_555
N1 N2 1_555 1_555
N2 N3 1_555 1_555
N3 C3 1_555 1_555
N4 N2 1_555 1_555
C1 C2 1_555 1_555
C2 N1 1_555 1_555
C3 C2 1_555 1_555
C4 C3 1_555 1_555
C5 C4 1_555 1_555
C6 C5 1_555 1_555
C7 C6 1_555 1_555
C8 C7 1_555 1_555
C9 C8 1_555 1_555
C10 C1 1_555 1_555
C11 N4 1_555 1_555
C12 C11 1_555 1_555
C13 N4 1_555 1_555
C14 C13 1_555 1_555
H1 C6 1_555 1_555
H2 C7 1_555 1_555
H3 C8 1_555 1_555
H4 C9 1_555 1_555
H5 C12 1_555 1_555
H6 C12 1_555 1_555
H7 C12 1_555 1_555
H8 C14 1_555 1_555
H9 C14 1_555 1_555
H10 C14 1_555 1_555
C5 C10 1_555 1_555
C9 C10 1_555 1_555

#END
