
#######################################################################
#
#                 Cambridge Crystallographic Data Centre
#                                CCDC 
#
#######################################################################
#
# If this CIF has been generated from an entry in the Cambridge 
# Structural Database, then it will include bibliographic, chemical, 
# crystal, experimental, refinement or atomic coordinate data resulting 
# from the CCDC's data processing and validation procedures.
#
#######################################################################

data_POWDEM
_chemical_formula_moiety         'C26 H28 N2 O5 S1'
_chemical_name_systematic        
3-(benzyl((4-methylphenyl)sulfonyl)amino)-N,N-diethyl-3-(2-oxo-2H-pyran-4-yl)acrylamide
_symmetry_cell_setting           monoclinic
_symmetry_space_group_name_H-M   'P 21/c'
_symmetry_Int_Tables_number      14
_space_group_name_Hall           '-P 2ybc'
loop_
_symmetry_equiv_pos_site_id
_symmetry_equiv_pos_as_xyz
1 x,y,z
2 -x,1/2+y,1/2-z
3 -x,-y,-z
4 x,1/2-y,1/2+z
_cell_length_a                   15.633(4)
_cell_length_b                   11.937(3)
_cell_length_c                   15.622(5)
_cell_angle_alpha                90
_cell_angle_beta                 117.347(4)
_cell_angle_gamma                90
_cell_volume                     2589.43
_exptl_crystal_colour            colorless
_exptl_crystal_description       prism
_cell_formula_units_Z            4
loop_
_atom_site_label
_atom_site_type_symbol
_atom_site_fract_x
_atom_site_fract_y
_atom_site_fract_z
S1 S 0.05916(4) 0.70613(5) 0.14718(5)
O1 O -0.01045(14) 0.69829(18) 0.18220(17)
O2 O 0.03871(13) 0.65732(17) 0.05722(14)
O3 O 0.45284(15) 0.6151(2) 0.27792(17)
N1 N 0.15843(14) 0.64526(17) 0.22996(15)
N2 N 0.45451(17) 0.8045(2) 0.2725(2)
C1 C 0.08891(17) 0.8476(2) 0.14357(18)
C2 C 0.0957(2) 0.9200(3) 0.2157(2)
H1 H 0.0825 0.8950 0.2648
C3 C 0.1221(3) 1.0295(3) 0.2135(3)
H2 H 0.1266 1.0786 0.2617
C4 C 0.1421(2) 1.0680(2) 0.1413(2)
C5 C 0.1347(2) 0.9946(3) 0.0700(2)
H3 H 0.1476 1.0197 0.0208
C6 C 0.1085(2) 0.8841(2) 0.0709(2)
H4 H 0.1041 0.8349 0.0229
C7 C 0.1711(4) 1.1890(3) 0.1396(3)
H5 H 0.1793 1.2017 0.0830
H6 H 0.2306 1.2042 0.1960
H7 H 0.1218 1.2378 0.1385
C8 C 0.1720(2) 0.6384(2) 0.32911(19)
H8 H 0.1098 0.6396 0.3286
H9 H 0.2083 0.7030 0.3652
C9 C 0.2248(2) 0.5330(2) 0.37767(18)
C10 C 0.1807(2) 0.4301(3) 0.3467(2)
H10 H 0.1189 0.4263 0.2954
C11 C 0.2282(3) 0.3327(3) 0.3921(3)
H11 H 0.1984 0.2636 0.3708
C12 C 0.3183(3) 0.3378(4) 0.4674(3)
H12 H 0.3501 0.2723 0.4975
C13 C 0.3620(3) 0.4392(3) 0.4990(3)
H13 H 0.4234 0.4428 0.5508
C14 C 0.3154(2) 0.5359(3) 0.4542(2)
H14 H 0.3457 0.6046 0.4762
C15 C 0.24194(16) 0.65649(18) 0.21485(16)
C16 C 0.23760(16) 0.60123(19) 0.12830(16)
C17 C 0.2056(2) 0.4828(2) 0.1072(2)
H15 H 0.2052 0.4319 0.1521
C18 C 0.1745(3) 0.4577(3) 0.0045(2)
H16 H 0.1163 0.4232 -0.0354
O4 O 0.24325(18) 0.4919(2) -0.02762(15)
C19 C 0.2781(2) 0.5966(2) -0.00461(19)
C20 C 0.26605(18) 0.6539(2) 0.07144(17)
H17 H 0.2788 0.7303 0.0803
O5 O 0.32087(19) 0.6363(2) -0.04503(17)
C21 C 0.32064(17) 0.7097(2) 0.27767(18)
H18 H 0.3164 0.7522 0.3254
C22 C 0.41552(18) 0.7053(2) 0.27620(18)
C23 C 0.4081(3) 0.9130(3) 0.2663(3)
H19 H 0.3402 0.9008 0.2466
H20 H 0.4130 0.9580 0.2171
C24 C 0.4521(5) 0.9775(5) 0.3609(4)
H21 H 0.4564 0.9295 0.4120
H22 H 0.4122 1.0409 0.3559
H23 H 0.5153 1.0029 0.3744
C25 C 0.5489(2) 0.8044(4) 0.2742(3)
H24 H 0.5824 0.7356 0.3041
H25 H 0.5866 0.8665 0.3133
C26 C 0.5418(3) 0.8136(4) 0.1773(3)
H26 H 0.5014 0.7547 0.1371
H27 H 0.6048 0.8072 0.1815
H28 H 0.5145 0.8849 0.1499
loop_
_geom_bond_atom_site_label_1
_geom_bond_atom_site_label_2
_geom_bond_site_symmetry_1
_geom_bond_site_symmetry_2
S1 O1 1_555 1_555
O2 S1 1_555 1_555
O3 C22 1_555 1_555
N1 S1 1_555 1_555
N2 C22 1_555 1_555
C1 S1 1_555 1_555
C2 C1 1_555 1_555
H1 C2 1_555 1_555
C3 C2 1_555 1_555
H2 C3 1_555 1_555
C4 C3 1_555 1_555
C5 C4 1_555 1_555
H3 C5 1_555 1_555
C6 C1 1_555 1_555
H4 C6 1_555 1_555
C7 C4 1_555 1_555
H5 C7 1_555 1_555
H6 C7 1_555 1_555
H7 C7 1_555 1_555
C8 N1 1_555 1_555
H8 C8 1_555 1_555
H9 C8 1_555 1_555
C9 C8 1_555 1_555
C10 C9 1_555 1_555
H10 C10 1_555 1_555
C11 C10 1_555 1_555
H11 C11 1_555 1_555
C12 C11 1_555 1_555
H12 C12 1_555 1_555
C13 C12 1_555 1_555
H13 C13 1_555 1_555
C14 C9 1_555 1_555
H14 C14 1_555 1_555
C15 N1 1_555 1_555
C16 C15 1_555 1_555
C17 C16 1_555 1_555
H15 C17 1_555 1_555
C18 C17 1_555 1_555
H16 C18 1_555 1_555
O4 C18 1_555 1_555
C19 O4 1_555 1_555
C20 C16 1_555 1_555
H17 C20 1_555 1_555
O5 C19 1_555 1_555
C21 C15 1_555 1_555
H18 C21 1_555 1_555
C22 C21 1_555 1_555
C23 N2 1_555 1_555
H19 C23 1_555 1_555
H20 C23 1_555 1_555
C24 C23 1_555 1_555
H21 C24 1_555 1_555
H22 C24 1_555 1_555
H23 C24 1_555 1_555
C25 N2 1_555 1_555
H24 C25 1_555 1_555
H25 C25 1_555 1_555
C26 C25 1_555 1_555
H26 C26 1_555 1_555
H27 C26 1_555 1_555
H28 C26 1_555 1_555
C5 C6 1_555 1_555
C13 C14 1_555 1_555
C19 C20 1_555 1_555

#END
