
#######################################################################
#
#                 Cambridge Crystallographic Data Centre
#                                CCDC 
#
#######################################################################
#
# If this CIF has been generated from an entry in the Cambridge 
# Structural Database, then it will include bibliographic, chemical, 
# crystal, experimental, refinement or atomic coordinate data resulting 
# from the CCDC's data processing and validation procedures.
#
#######################################################################

data_POWKOC
_chemical_name_common            5-Bromo-1-methylindolin-2-one
_chemical_formula_moiety         'C9 H8 Br1 N1 O1'
_chemical_name_systematic        5-Bromo-1-methyl-1,3-dihydro-2H-indol-2-one
_symmetry_cell_setting           monoclinic
_symmetry_space_group_name_H-M   'P 21/c'
_symmetry_Int_Tables_number      14
_space_group_name_Hall           '-P 2ybc'
loop_
_symmetry_equiv_pos_site_id
_symmetry_equiv_pos_as_xyz
1 x,y,z
2 -x,1/2+y,1/2-z
3 -x,-y,-z
4 x,1/2-y,1/2+z
_cell_length_a                   10.5134(4)
_cell_length_b                   11.0926(4)
_cell_length_c                   7.7168(3)
_cell_angle_alpha                90
_cell_angle_beta                 103.229(2)
_cell_angle_gamma                90
_cell_volume                     876.059
_exptl_crystal_colour            pink
_exptl_crystal_description       block
_cell_formula_units_Z            4
_exptl_crystal_recrystallization_method 'dichloromethane/diisopropyl ether'
loop_
_atom_site_label
_atom_site_type_symbol
_atom_site_fract_x
_atom_site_fract_y
_atom_site_fract_z
Br1 Br 0.28547(2) 0.07936(3) 0.20946(4)
C1 C 0.4602(2) 0.0991(2) 0.1860(3)
C2 C 0.5537(2) 0.0170(2) 0.2694(3)
H1 H 0.5316 -0.0460 0.3366
C3 C 0.6793(2) 0.0308(2) 0.2506(3)
C4 C 0.7111(2) 0.1265(2) 0.1505(3)
C5 C 0.6183(2) 0.2080(2) 0.0666(3)
H2 H 0.6401 0.2710 -0.0006
C6 C 0.4907(2) 0.1926(2) 0.0858(3)
H3 H 0.4258 0.2460 0.0306
C7 C 0.8012(3) -0.0418(2) 0.3173(4)
H4 H 0.7903 -0.1238 0.2725
H5 H 0.8244 -0.0438 0.4464
C8 C 0.9037(2) 0.0246(2) 0.2444(3)
C9 C 0.9086(3) 0.2039(3) 0.0514(4)
H6 H 0.9993 0.1827 0.0715
H7 H 0.9006 0.2850 0.0908
H8 H 0.8688 0.1978 -0.0733
N1 N 0.84354(19) 0.12225(19) 0.1502(3)
O1 O 1.01834(18) -0.0009(2) 0.2635(3)
loop_
_geom_bond_atom_site_label_1
_geom_bond_atom_site_label_2
_geom_bond_site_symmetry_1
_geom_bond_site_symmetry_2
Br1 C1 1_555 1_555
C1 C2 1_555 1_555
C2 H1 1_555 1_555
C3 C2 1_555 1_555
C4 C3 1_555 1_555
C5 C4 1_555 1_555
H2 C5 1_555 1_555
C6 C1 1_555 1_555
H3 C6 1_555 1_555
C7 C3 1_555 1_555
H4 C7 1_555 1_555
H5 C7 1_555 1_555
C8 C7 1_555 1_555
C9 H6 1_555 1_555
H7 C9 1_555 1_555
H8 C9 1_555 1_555
N1 C4 1_555 1_555
O1 C8 1_555 1_555
C5 C6 1_555 1_555
C8 N1 1_555 1_555
C9 N1 1_555 1_555

#END
