
#######################################################################
#
#                 Cambridge Crystallographic Data Centre
#                                CCDC 
#
#######################################################################
#
# If this CIF has been generated from an entry in the Cambridge 
# Structural Database, then it will include bibliographic, chemical, 
# crystal, experimental, refinement or atomic coordinate data resulting 
# from the CCDC's data processing and validation procedures.
#
#######################################################################

data_POWLAP
_chemical_formula_moiety         'C22 H16 N2 O4'
_chemical_name_systematic        
N,N'-(Biphenyl-2,2'-diyl)-bis(furan-2-carboxamide)
_symmetry_cell_setting           triclinic
_symmetry_space_group_name_H-M   'P -1'
_symmetry_Int_Tables_number      2
_space_group_name_Hall           '-P 1'
loop_
_symmetry_equiv_pos_site_id
_symmetry_equiv_pos_as_xyz
1 x,y,z
2 -x,-y,-z
_cell_length_a                   8.1784(2)
_cell_length_b                   10.1399(2)
_cell_length_c                   11.1475(2)
_cell_angle_alpha                99.9380(10)
_cell_angle_beta                 107.5210(10)
_cell_angle_gamma                92.4390(10)
_cell_volume                     863.919
_exptl_crystal_colour            colorless
_exptl_crystal_description       block
_cell_formula_units_Z            2
_exptl_crystal_recrystallization_method hexane/chloroform
loop_
_atom_site_label
_atom_site_type_symbol
_atom_site_fract_x
_atom_site_fract_y
_atom_site_fract_z
O1 O 0.37952(12) 0.28756(9) 0.22024(9)
O2 O 0.32912(12) 0.61791(9) 0.36569(9)
O3 O 0.42615(12) 0.02447(10) 0.82668(9)
O4 O 0.80281(12) 0.23741(9) 0.86550(9)
N1 N 0.29107(14) 0.41257(11) 0.42005(10)
H1 H 0.295(2) 0.3271(10) 0.3921(17)
N2 N 0.47787(14) 0.16551(11) 0.70037(10)
H2 H 0.5491(17) 0.2298(13) 0.6951(15)
C1 C 0.40891(17) 0.24580(13) 0.10565(13)
H3 H 0.4304 0.1570 0.0749
C2 C 0.40293(17) 0.34894(14) 0.04255(13)
H4 H 0.4180 0.3456 -0.0391
C3 C 0.36958(16) 0.46370(13) 0.12235(12)
H5 H 0.3581 0.5517 0.1044
C4 C 0.35755(16) 0.42216(12) 0.22885(12)
C5 C 0.32496(16) 0.49452(12) 0.34438(12)
C6 C 0.24862(16) 0.44495(13) 0.53444(12)
C7 C 0.23946(17) 0.57726(13) 0.59222(12)
H6 H 0.2603 0.6501 0.5537
C8 C 0.19978(17) 0.60133(13) 0.70591(12)
H7 H 0.1950 0.6913 0.7455
C9 C 0.16695(17) 0.49624(14) 0.76291(12)
H8 H 0.1386 0.5138 0.8404
C10 C 0.17609(17) 0.36502(13) 0.70536(12)
H9 H 0.1539 0.2928 0.7443
C11 C 0.21726(16) 0.33732(12) 0.59167(12)
C12 C 0.21741(16) 0.19410(12) 0.53056(12)
C13 C 0.08880(17) 0.13778(13) 0.41514(12)
H10 H 0.0094 0.1937 0.3731
C14 C 0.07515(17) 0.00244(13) 0.36117(12)
H11 H -0.0121 -0.0337 0.2825
C15 C 0.18976(17) -0.08003(13) 0.42285(12)
H12 H 0.1790 -0.1734 0.3877
C16 C 0.31983(16) -0.02613(13) 0.53571(12)
H13 H 0.3991 -0.0826 0.5770
C17 C 0.33501(16) 0.11065(12) 0.58905(12)
C18 C 0.52125(16) 0.10827(12) 0.80562(12)
C19 C 0.69553(16) 0.15138(12) 0.89706(12)
C20 C 0.77797(18) 0.11564(13) 1.01001(13)
H14 H 0.7319 0.0577 1.0529
C21 C 0.94791(18) 0.18268(15) 1.05134(13)
H15 H 1.0380 0.1779 1.1272
C22 C 0.95558(18) 0.25413(15) 0.96175(13)
H16 H 1.0546 0.3090 0.9652
loop_
_geom_bond_atom_site_label_1
_geom_bond_atom_site_label_2
_geom_bond_site_symmetry_1
_geom_bond_site_symmetry_2
O1 C1 1_555 1_555
O2 C5 1_555 1_555
O3 C18 1_555 1_555
O4 C19 1_555 1_555
N1 H1 1_555 1_555
N2 H2 1_555 1_555
C1 H3 1_555 1_555
C2 C1 1_555 1_555
H4 C2 1_555 1_555
C3 C2 1_555 1_555
H5 C3 1_555 1_555
C4 O1 1_555 1_555
C5 N1 1_555 1_555
C6 N1 1_555 1_555
C7 C6 1_555 1_555
H6 C7 1_555 1_555
C8 C7 1_555 1_555
H7 C8 1_555 1_555
C9 C8 1_555 1_555
H8 C9 1_555 1_555
C10 C9 1_555 1_555
H9 C10 1_555 1_555
C11 C6 1_555 1_555
C12 C11 1_555 1_555
C13 C12 1_555 1_555
H10 C13 1_555 1_555
C14 C13 1_555 1_555
H11 C14 1_555 1_555
C15 C14 1_555 1_555
H12 C15 1_555 1_555
C16 C15 1_555 1_555
H13 C16 1_555 1_555
C17 N2 1_555 1_555
C18 N2 1_555 1_555
C19 C18 1_555 1_555
C20 C19 1_555 1_555
H14 C20 1_555 1_555
C21 C20 1_555 1_555
H15 C21 1_555 1_555
C22 O4 1_555 1_555
H16 C22 1_555 1_555
C3 C4 1_555 1_555
C4 C5 1_555 1_555
C10 C11 1_555 1_555
C12 C17 1_555 1_555
C16 C17 1_555 1_555
C21 C22 1_555 1_555

#END
