
#######################################################################
#
#                 Cambridge Crystallographic Data Centre
#                                CCDC 
#
#######################################################################
#
# If this CIF has been generated from an entry in the Cambridge 
# Structural Database, then it will include bibliographic, chemical, 
# crystal, experimental, refinement or atomic coordinate data resulting 
# from the CCDC's data processing and validation procedures.
#
#######################################################################

data_POWNAS
_chemical_formula_moiety         'C20 H17 N4 1-,2(C4 H8 O1),K1 1+'
_chemical_name_systematic        
'potassium 2-((4-methylphenyl)(phenyldiazenyl)methylene)-1-phenyldiazanide tetrahydrofuran solvate'
_symmetry_cell_setting           monoclinic
_symmetry_space_group_name_H-M   'P 21/n'
_symmetry_Int_Tables_number      14
_space_group_name_Hall           '-P 2yn'
loop_
_symmetry_equiv_pos_site_id
_symmetry_equiv_pos_as_xyz
1 x,y,z
2 1/2-x,1/2+y,1/2-z
3 -x,-y,-z
4 1/2+x,1/2-y,1/2+z
_cell_length_a                   9.4184(5)
_cell_length_b                   16.0507(10)
_cell_length_c                   17.5178(10)
_cell_angle_alpha                90
_cell_angle_beta                 94.646(2)
_cell_angle_gamma                90
_cell_volume                     2639.5
_exptl_crystal_colour            violet
_exptl_crystal_description       platelet
_cell_formula_units_Z            4
loop_
_atom_site_label
_atom_site_type_symbol
_atom_site_fract_x
_atom_site_fract_y
_atom_site_fract_z
K1 K 0.12670(5) 0.10768(3) 0.90698(2)
N1 N 0.10035(18) 0.21277(11) 1.10795(9)
N2 N 0.15033(18) 0.15297(10) 1.06937(9)
N3 N 0.18530(17) 0.01825(10) 1.04804(9)
N4 N 0.16368(17) -0.06068(10) 1.06109(9)
C1 C 0.1378(2) 0.29181(13) 1.07957(11)
C2 C 0.2537(2) 0.30556(13) 1.03670(12)
H1 H 0.3103 0.2599 1.0227
C3 C 0.2875(2) 0.38675(14) 1.01411(12)
H2 H 0.3675 0.3960 0.9855
C4 C 0.2041(2) 0.45291(13) 1.03355(12)
H3 H 0.2266 0.5080 1.0187
C5 C 0.0871(2) 0.43827(14) 1.07512(12)
H4 H 0.0283 0.4836 1.0875
C6 C 0.0550(2) 0.35902(13) 1.09864(11)
H5 H -0.0242 0.3504 1.1280
C7 C 0.1284(2) 0.07423(12) 1.09410(11)
C8 C 0.0534(2) 0.05119(12) 1.16254(10)
C9 C -0.0852(2) 0.07786(12) 1.17181(11)
H6 H -0.1230 0.1277 1.1425
C10 C -0.1571(2) 0.04927(13) 1.23249(11)
H7 H -0.2520 0.0673 1.2373
C11 C -0.0932(2) -0.00534(13) 1.28677(11)
C12 C 0.0472(2) -0.02875(12) 1.27931(11)
H8 H 0.0947 -0.0636 1.3170
C13 C 0.1186(2) -0.00202(12) 1.21785(11)
H9 H 0.2135 -0.0202 1.2132
C14 C -0.1745(3) -0.04051(15) 1.35027(13)
H10 H -0.1084 -0.0516 1.3952
H11 H -0.2212 -0.0925 1.3330
H12 H -0.2465 -0.0002 1.3638
C15 C 0.2422(2) -0.11226(13) 1.01513(10)
C16 C 0.3613(2) -0.08597(14) 0.97851(12)
H13 H 0.3910 -0.0295 0.9824
C17 C 0.4357(2) -0.14181(16) 0.93680(12)
H14 H 0.5168 -0.1234 0.9126
C18 C 0.3933(2) -0.22434(15) 0.93001(12)
H15 H 0.4437 -0.2621 0.9004
C19 C 0.2771(2) -0.25118(14) 0.96671(12)
H16 H 0.2480 -0.3078 0.9626
C20 C 0.2027(2) -0.19607(13) 1.00938(11)
H17 H 0.1240 -0.2155 1.0350
O1 O 0.33671(18) 0.15075(11) 0.81684(10)
C21 C 0.3560(3) 0.23665(16) 0.79644(17)
H18 H 0.2889 0.2729 0.8217
H19 H 0.3405 0.2444 0.7403
C22 C 0.5072(3) 0.25630(17) 0.82418(17)
H20 H 0.5166 0.2679 0.8799
H21 H 0.5439 0.3044 0.7964
C23 C 0.5830(2) 0.17617(16) 0.80550(13)
H22 H 0.6687 0.1673 0.8412
H23 H 0.6115 0.1770 0.7523
C24 C 0.4716(3) 0.10903(16) 0.81550(15)
H24 H 0.4689 0.0689 0.7725
H25 H 0.4943 0.0783 0.8640
O2 O 0.02680(16) 0.25723(9) 0.85188(8)
C25 C -0.0008(2) 0.34141(13) 0.87326(12)
H26 H 0.0771 0.3787 0.8600
H27 H -0.0109 0.3456 0.9289
C26 C -0.1376(3) 0.36354(16) 0.82830(14)
H28 H -0.1481 0.4246 0.8223
H29 H -0.2209 0.3411 0.8526
C27 C -0.1192(3) 0.32135(16) 0.75220(13)
H30 H -0.2126 0.3080 0.7248
H31 H -0.0640 0.3568 0.7190
C28 C -0.0385(3) 0.24321(16) 0.77580(14)
H32 H -0.1041 0.1950 0.7755
H33 H 0.0352 0.2316 0.7400
loop_
_geom_bond_atom_site_label_1
_geom_bond_atom_site_label_2
_geom_bond_site_symmetry_1
_geom_bond_site_symmetry_2
N1 N2 1_555 1_555
N2 C7 1_555 1_555
N3 N4 1_555 1_555
N4 C15 1_555 1_555
C1 N1 1_555 1_555
C2 C1 1_555 1_555
H1 C2 1_555 1_555
C3 C2 1_555 1_555
H2 C3 1_555 1_555
C4 C3 1_555 1_555
H3 C4 1_555 1_555
C5 C4 1_555 1_555
H4 C5 1_555 1_555
C6 C1 1_555 1_555
H5 C6 1_555 1_555
C7 N3 1_555 1_555
C8 C7 1_555 1_555
C9 C8 1_555 1_555
H6 C9 1_555 1_555
C10 C9 1_555 1_555
H7 C10 1_555 1_555
C11 C10 1_555 1_555
C12 C11 1_555 1_555
H8 C12 1_555 1_555
C13 C8 1_555 1_555
H9 C13 1_555 1_555
C14 C11 1_555 1_555
H10 C14 1_555 1_555
H11 C14 1_555 1_555
H12 C14 1_555 1_555
C15 C16 1_555 1_555
C16 H13 1_555 1_555
C17 C16 1_555 1_555
H14 C17 1_555 1_555
C18 C17 1_555 1_555
H15 C18 1_555 1_555
C19 C18 1_555 1_555
H16 C19 1_555 1_555
C20 C15 1_555 1_555
H17 C20 1_555 1_555
O1 C21 1_555 1_555
C21 H18 1_555 1_555
H19 C21 1_555 1_555
C22 C21 1_555 1_555
H20 C22 1_555 1_555
H21 C22 1_555 1_555
C23 C22 1_555 1_555
H22 C23 1_555 1_555
H23 C23 1_555 1_555
C24 O1 1_555 1_555
H24 C24 1_555 1_555
H25 C24 1_555 1_555
O2 C25 1_555 1_555
C25 H26 1_555 1_555
H27 C25 1_555 1_555
C26 C25 1_555 1_555
H28 C26 1_555 1_555
H29 C26 1_555 1_555
C27 C26 1_555 1_555
H30 C27 1_555 1_555
H31 C27 1_555 1_555
C28 O2 1_555 1_555
H32 C28 1_555 1_555
H33 C28 1_555 1_555
C5 C6 1_555 1_555
C12 C13 1_555 1_555
C19 C20 1_555 1_555
C23 C24 1_555 1_555
C27 C28 1_555 1_555

#END
