
#######################################################################
#
#                 Cambridge Crystallographic Data Centre
#                                CCDC 
#
#######################################################################
#
# If this CIF has been generated from an entry in the Cambridge 
# Structural Database, then it will include bibliographic, chemical, 
# crystal, experimental, refinement or atomic coordinate data resulting 
# from the CCDC's data processing and validation procedures.
#
#######################################################################

data_POWNUM
_chemical_formula_moiety         'C12 H9 N1 O4,2(C5 H9 N1 O1)'
_chemical_name_systematic        
'4-aminonaphthalene-2,6-dicarboxylic acid 1-methylpyrrolidin-2-one'
_symmetry_cell_setting           monoclinic
_symmetry_space_group_name_H-M   'P 21/n'
_symmetry_Int_Tables_number      14
_space_group_name_Hall           '-P 2yn'
loop_
_symmetry_equiv_pos_site_id
_symmetry_equiv_pos_as_xyz
1 x,y,z
2 1/2-x,1/2+y,1/2-z
3 -x,-y,-z
4 1/2+x,1/2-y,1/2+z
_cell_length_a                   7.3194(7)
_cell_length_b                   10.4461(11)
_cell_length_c                   14.5397(15)
_cell_angle_alpha                90
_cell_angle_beta                 98.358(3)
_cell_angle_gamma                90
_cell_volume                     1099.89
_exptl_crystal_colour            yellow
_exptl_crystal_description       plate
_cell_formula_units_Z            2
_exptl_crystal_recrystallization_method NMP
loop_
_atom_site_label
_atom_site_type_symbol
_atom_site_fract_x
_atom_site_fract_y
_atom_site_fract_z
O3 O -0.2377(5) -0.0277(3) 1.0092(2)
N2 N -0.2354(7) -0.1407(5) 0.8746(4)
C7 C -0.1941(8) -0.1250(6) 0.9621(4)
C8 C -0.0793(8) -0.2410(5) 1.0050(4)
H6 H 0.0521 -0.2177 1.0235
H7 H -0.1292 -0.2755 1.0597
C9 C -0.1027(9) -0.3360(6) 0.9248(5)
H8 H -0.1988 -0.4000 0.9327
H9 H 0.0148 -0.3811 0.9207
C10 C -0.1612(9) -0.2542(6) 0.8372(4)
H10 H -0.0540 -0.2334 0.8055
H11 H -0.2561 -0.2985 0.7929
C11 C -0.3320(10) -0.0475(7) 0.8135(5)
H12 H -0.3723 0.0230 0.8502
H13 H -0.4399 -0.0875 0.7769
H14 H -0.2497 -0.0142 0.7716
O1 O 0.2754(6) 0.1929(3) 0.7915(2)
O2 O 0.1400(5) 0.0077(3) 0.8151(2)
H1 H 0.1873 0.0214 0.8703
N1 N 0.0761(9) 0.2767(6) 0.4499(4)
H2 H 0.1193 0.3503 0.4731
H3 H 0.0382 0.2694 0.3898
C1 C 0.0014(6) 0.0525(4) 0.4693(3)
C2 C 0.0680(6) 0.1745(4) 0.5066(3)
C3 C 0.1271(6) 0.1860(4) 0.6001(3)
H4 H 0.1724 0.2661 0.6247
C4 C 0.1218(6) 0.0813(4) 0.6603(3)
C5 C 0.0584(6) -0.0357(4) 0.6266(3)
H5 H 0.0548 -0.1056 0.6681
C6 C 0.1873(7) 0.1003(4) 0.7615(3)
O1B O -0.2754(6) -0.1929(3) 0.2085(2)
O2B O -0.1400(5) -0.0077(3) 0.1849(2)
H1B H -0.1873 -0.0214 0.1297
N1B N -0.0761(9) -0.2767(6) 0.5501(4)
H2B H -0.1193 -0.3503 0.5269
H3B H -0.0382 -0.2694 0.6102
C1B C -0.0014(6) -0.0525(4) 0.5307(3)
C2B C -0.0680(6) -0.1745(4) 0.4934(3)
C3B C -0.1271(6) -0.1860(4) 0.3999(3)
H4B H -0.1724 -0.2661 0.3753
C4B C -0.1218(6) -0.0813(4) 0.3397(3)
C5B C -0.0584(6) 0.0357(4) 0.3734(3)
H5B H -0.0548 0.1056 0.3319
C6B C -0.1873(7) -0.1003(4) 0.2385(3)
H15? H 0.0709 0.2463 0.4667
loop_
_geom_bond_atom_site_label_1
_geom_bond_atom_site_label_2
_geom_bond_site_symmetry_1
_geom_bond_site_symmetry_2
O1 C6 1_555 1_555
O2 H1 1_555 1_555
N1 H2 1_555 1_555
H3 N1 1_555 1_555
C1 C2 1_555 1_555
C2 N1 1_555 1_555
C3 C2 1_555 1_555
H4 C3 1_555 1_555
C4 C3 1_555 1_555
C5 C4 1_555 1_555
H5 C5 1_555 1_555
C6 O2 1_555 1_555
O3 C7 1_555 1_555
N2 C7 1_555 1_555
C7 C8 1_555 1_555
C8 H6 1_555 1_555
H7 C8 1_555 1_555
C9 C8 1_555 1_555
H8 C9 1_555 1_555
H9 C9 1_555 1_555
C10 N2 1_555 1_555
H10 C10 1_555 1_555
H11 C10 1_555 1_555
C11 N2 1_555 1_555
H12 C11 1_555 1_555
H13 C11 1_555 1_555
H14 C11 1_555 1_555
O1B C6B 1_555 1_555
O2B H1B 1_555 1_555
N1B H2B 1_555 1_555
H3B N1B 1_555 1_555
C1B C1 1_555 1_555
C2B N1B 1_555 1_555
C3B C2B 1_555 1_555
H4B C3B 1_555 1_555
C4B C3B 1_555 1_555
C5B C1 1_555 1_555
H5B C5B 1_555 1_555
C6B O2B 1_555 1_555
C4 C6 1_555 1_555
C5 C1B 1_555 1_555
C9 C10 1_555 1_555
C1B C2B 1_555 1_555
C4B C5B 1_555 1_555
C4B C6B 1_555 1_555

#END
