
#######################################################################
#
#                 Cambridge Crystallographic Data Centre
#                                CCDC 
#
#######################################################################
#
# If this CIF has been generated from an entry in the Cambridge 
# Structural Database, then it will include bibliographic, chemical, 
# crystal, experimental, refinement or atomic coordinate data resulting 
# from the CCDC's data processing and validation procedures.
#
#######################################################################

data_POWSAX
_chemical_formula_moiety         'C56 H72,2(C1 H1 Cl3)'
_chemical_name_systematic        
'1,3,6,8,13,15,18,20-octa-t-butylcyclotetracosa-1,2,6,7,13,14,18,19-octaene-4,9,11,16,21,23-hexayne chloroform solvate'
_symmetry_cell_setting           monoclinic
_symmetry_space_group_name_H-M   'P 21'
_symmetry_Int_Tables_number      4
_space_group_name_Hall           'P 2yb'
loop_
_symmetry_equiv_pos_site_id
_symmetry_equiv_pos_as_xyz
1 x,y,z
2 -x,1/2+y,-z
_cell_length_a                   13.6232(16)
_cell_length_b                   16.196(2)
_cell_length_c                   27.716(4)
_cell_angle_alpha                90
_cell_angle_beta                 104.031(2)
_cell_angle_gamma                90
_cell_volume                     5932.84
_exptl_crystal_colour            colorless
_exptl_crystal_description       irregular
_chemical_melting_point          '473 K'
_cell_formula_units_Z            4
_exptl_crystal_recrystallization_method Hexane/Chloroform
loop_
_atom_site_label
_atom_site_type_symbol
_atom_site_fract_x
_atom_site_fract_y
_atom_site_fract_z
Cl1 Cl 0.66018(14) 0.50040(12) -0.00721(6)
Cl2 Cl 0.6563(2) 0.45403(11) 0.09143(7)
Cl3 Cl 0.61071(18) 0.62155(12) 0.06020(9)
C1 C 0.6830(6) 0.5340(4) 0.0557(2)
H1 H 0.7562 0.5486 0.0676
Cl4 Cl 0.1676(5) 0.4361(2) 0.5065(3)
Cl5 Cl 0.0706(10) 0.2998(3) 0.4454(3)
Cl6 Cl 0.0682(14) 0.4620(2) 0.40437(15)
C2 C 0.1361(14) 0.3923(7) 0.4470(5)
H2 H 0.2006 0.3802 0.4372
C4 C 0.4314(4) 0.4190(3) 0.16511(19)
C5 C 0.3497(4) 0.6326(3) 0.11725(18)
C6 C 0.8994(4) 0.3450(3) 0.20455(19)
C7 C 0.5384(4) 0.3018(3) 0.17359(18)
C8 C 0.9380(4) 0.5257(3) 0.13760(18)
C9 C 0.4015(4) 0.4850(3) 0.14799(18)
C10 C 0.6014(4) 0.8693(3) 0.0942(2)
C11 C 0.3730(4) 0.5623(3) 0.13046(18)
C12 C 0.4699(4) 0.3438(3) 0.18995(18)
C13 C 0.8901(4) 0.7562(3) 0.13307(19)
C14 C 0.7982(4) 0.3123(3) 0.19046(19)
C15 C 0.9252(4) 0.5990(3) 0.13528(18)
C16 C 0.9347(4) 0.8996(3) 0.1677(2)
C17 C 0.6094(4) 0.2621(3) 0.15919(18)
C18 C 0.9078(4) 0.6824(3) 0.13438(19)
C19 C 0.5909(4) 0.1893(3) 0.12244(19)
C20 C 0.6884(4) 0.8805(3) 0.07346(19)
C21 C 0.6503(5) 0.1148(3) 0.1479(2)
H4 H 0.7225 0.1283 0.1576
H5 H 0.6396 0.0679 0.1248
H6 H 0.6268 0.1002 0.1775
C22 C 0.9680(4) 0.3183(3) 0.2542(2)
C23 C 0.5317(5) 0.8539(3) 0.1116(2)
C24 C 0.7763(4) 0.8634(3) 0.10310(19)
C25 C 1.0039(4) 0.4011(3) 0.0986(2)
C26 C 0.9545(4) 0.4394(3) 0.13835(18)
C27 C 0.4784(4) 0.1697(3) 0.1075(2)
H7 H 0.4554 0.1534 0.1370
H8 H 0.4664 0.1243 0.0833
H9 H 0.4409 0.2186 0.0925
C28 C 0.8636(4) 0.8411(3) 0.13263(19)
C29 C 0.4768(6) 0.3841(4) 0.2769(2)
H10 H 0.5507 0.3861 0.2831
H11 H 0.4578 0.3691 0.3077
H12 H 0.4485 0.4384 0.2656
C30 C 0.6734(4) 0.9096(3) 0.01961(19)
C31 C 0.4353(4) 0.3196(3) 0.23687(18)
C32 C 0.2203(4) 0.7295(3) 0.0653(2)
C33 C 0.9282(4) 0.3933(3) 0.1727(2)
C34 C 0.6282(5) 0.2139(3) 0.0767(2)
H13 H 0.5967 0.2662 0.0634
H14 H 0.6098 0.1708 0.0513
H15 H 0.7019 0.2203 0.0861
C35 C 0.3227(4) 0.7147(3) 0.1014(2)
C36 C 0.7127(4) 0.2882(3) 0.17765(19)
C37 C 0.4522(4) 0.8338(3) 0.1366(2)
C38 C 0.1382(5) 0.6951(4) 0.0883(2)
H16 H 0.1477 0.6354 0.0933
H17 H 0.0716 0.7058 0.0661
H18 H 0.1423 0.7218 0.1205
C39 C 0.9434(5) 0.8711(4) 0.2215(2)
H19 H 0.8764 0.8723 0.2287
H20 H 0.9891 0.9081 0.2445
H21 H 0.9702 0.8147 0.2257
C40 C 1.0396(5) 0.8963(4) 0.1569(3)
H22 H 1.0659 0.8398 0.1617
H23 H 1.0855 0.9337 0.1795
H24 H 1.0346 0.9135 0.1224
C41 C 0.4491(5) 0.8832(3) 0.1836(3)
C42 C 0.3884(4) 0.7748(3) 0.1183(2)
C43 C 0.8933(5) 0.9877(3) 0.1613(2)
H25 H 0.8906 1.0067 0.1274
H26 H 0.9377 1.0241 0.1852
H27 H 0.8251 0.9886 0.1670
C44 C 0.7741(5) 0.9135(4) 0.0053(2)
H28 H 0.8180 0.9542 0.0262
H29 H 0.7627 0.9298 -0.0297
H30 H 0.8065 0.8592 0.0101
C45 C 0.2016(6) 0.8216(5) 0.0559(4)
H31 H 0.1991 0.8491 0.0870
H32 H 0.1372 0.8297 0.0313
H33 H 0.2567 0.8452 0.0432
C46 C 0.4760(7) 0.2354(4) 0.2552(3)
H34 H 0.4443 0.1933 0.2310
H35 H 0.4606 0.2240 0.2873
H36 H 0.5494 0.2344 0.2591
C47 C 0.3681(6) 0.8478(4) 0.2079(3)
H37 H 0.3017 0.8511 0.1844
H38 H 0.3671 0.8797 0.2378
H39 H 0.3839 0.7900 0.2170
C48 C 0.9095(5) 0.3211(4) 0.2947(2)
H40 H 0.8858 0.3775 0.2978
H41 H 0.9539 0.3037 0.3264
H42 H 0.8513 0.2838 0.2858
C49 C 0.5509(6) 0.8771(4) 0.2201(3)
H43 H 0.5670 0.8189 0.2281
H44 H 0.5489 0.9070 0.2506
H45 H 0.6028 0.9013 0.2055
C50 C 0.6261(5) 0.9953(3) 0.0152(2)
H46 H 0.5649 0.9940 0.0279
H47 H 0.6084 1.0124 -0.0197
H48 H 0.6745 1.0346 0.0348
C51 C 1.1167(5) 0.4177(5) 0.1146(2)
H49 H 1.1286 0.4774 0.1172
H50 H 1.1498 0.3946 0.0899
H51 H 1.1446 0.3918 0.1470
C52 C 0.3195(5) 0.3195(4) 0.2257(2)
H52 H 0.2939 0.3742 0.2138
H53 H 0.2982 0.3061 0.2561
H54 H 0.2926 0.2782 0.2001
C53 C 0.4241(6) 0.9726(4) 0.1690(3)
H55 H 0.4761 0.9953 0.1537
H56 H 0.4220 1.0048 0.1986
H57 H 0.3580 0.9753 0.1451
C54 C 1.0024(5) 0.2297(4) 0.2489(2)
H58 H 0.9430 0.1943 0.2370
H59 H 1.0412 0.2096 0.2813
H60 H 1.0450 0.2281 0.2251
C55 C 0.2191(7) 0.6840(7) 0.0171(3)
H61 H 0.2623 0.7131 -0.0008
H62 H 0.1497 0.6819 -0.0035
H63 H 0.2444 0.6277 0.0248
C56 C 1.0592(5) 0.3753(4) 0.2682(2)
H64 H 1.0974 0.3728 0.2424
H65 H 1.1028 0.3579 0.3001
H66 H 1.0363 0.4321 0.2710
C57 C 0.6026(6) 0.8496(4) -0.0137(2)
H67 H 0.6310 0.7938 -0.0086
H68 H 0.5945 0.8657 -0.0485
H69 H 0.5366 0.8506 -0.0055
C58 C 0.9615(6) 0.4438(5) 0.0487(2)
H70 H 0.8893 0.4310 0.0370
H71 H 0.9976 0.4241 0.0243
H72 H 0.9704 0.5036 0.0528
C59 C 0.9816(7) 0.3098(4) 0.0939(3)
H73 H 1.0203 0.2813 0.1236
H74 H 1.0008 0.2882 0.0645
H75 H 0.9091 0.3007 0.0905
C60 C 0.2694(4) 0.5395(3) 0.33901(18)
C61 C 0.2094(4) 0.5911(3) 0.30928(18)
C62 C 0.3187(4) 0.4049(3) 0.36659(18)
C63 C -0.2897(4) 0.6097(3) 0.25310(19)
C64 C -0.3471(4) 0.2106(3) 0.43831(19)
C65 C -0.2281(4) 0.1641(3) 0.38707(19)
C66 C 0.0107(4) 0.0682(3) 0.4062(2)
C67 C -0.2351(4) 0.0490(3) 0.3263(2)
C68 C -0.0510(4) 0.6655(3) 0.34327(19)
C69 C -0.2659(4) 0.3738(3) 0.36744(19)
C70 C -0.2553(4) 0.4506(3) 0.34737(19)
C71 C -0.2416(4) 0.5142(3) 0.32841(19)
C72 C -0.1825(4) 0.1036(3) 0.37039(19)
C73 C -0.1368(4) 0.6279(3) 0.3239(2)
C74 C 0.3331(4) 0.4922(3) 0.36981(17)
C75 C -0.4551(4) 0.2338(4) 0.4112(2)
H76 H -0.4570 0.2917 0.4009
H77 H -0.5001 0.2259 0.4336
H78 H -0.4775 0.1986 0.3819
C76 C 0.3032(4) 0.3311(3) 0.36473(18)
C77 C 0.2265(4) 0.0920(3) 0.3588(2)
C78 C 0.1358(6) 0.0808(4) 0.5117(2)
H79 H 0.1609 0.1360 0.5064
H80 H 0.1672 0.0625 0.5456
H81 H 0.0622 0.0828 0.5069
C79 C -0.0775(4) 0.0848(3) 0.3924(2)
C80 C 0.2814(4) 0.2479(3) 0.36250(18)
C81 C -0.2790(4) 0.2236(3) 0.40180(19)
C82 C 0.0392(4) 0.6369(3) 0.33063(19)
C83 C 0.1169(4) 0.6155(3) 0.32131(19)
C84 C -0.2202(4) 0.5875(3) 0.30350(19)
C85 C 0.2289(4) 0.6223(3) 0.2601(2)
C86 C -0.3390(5) 0.0840(4) 0.3022(2)
H82 H -0.3806 0.0844 0.3265
H83 H -0.3716 0.0496 0.2737
H84 H -0.3318 0.1404 0.2908
C87 C -0.3962(4) 0.6234(4) 0.2602(2)
H85 H -0.4178 0.5743 0.2756
H86 H -0.4430 0.6333 0.2279
H87 H -0.3961 0.6713 0.2818
C88 C -0.2518(5) 0.6871(3) 0.2319(2)
H88 H -0.2460 0.7324 0.2558
H89 H -0.2996 0.7024 0.2007
H90 H -0.1853 0.6760 0.2255
C89 C 0.2586(4) 0.1767(3) 0.3606(2)
C90 C -0.2727(4) 0.3059(3) 0.38318(19)
C91 C 0.1722(4) 0.0699(3) 0.3898(2)
C92 C -0.0405(4) 0.7372(3) 0.3802(2)
C93 C 0.3726(5) 0.0334(4) 0.3310(3)
H91 H 0.3970 0.0895 0.3278
H92 H 0.3931 -0.0028 0.3068
H93 H 0.4015 0.0129 0.3647
C94 C 0.4225(4) 0.5260(3) 0.41000(18)
C95 C 0.2565(4) 0.0342(3) 0.3210(2)
C96 C 0.1627(4) 0.0199(3) 0.4741(2)
C97 C -0.3446(6) 0.1199(4) 0.4539(2)
H94 H -0.3880 0.1120 0.4770
H95 H -0.2750 0.1042 0.4703
H96 H -0.3690 0.0853 0.4244
C98 C 0.1171(4) 0.0532(3) 0.42153(19)
C99 C 0.5182(4) 0.5164(3) 0.3902(2)
H97 H 0.5328 0.4576 0.3873
H98 H 0.5756 0.5428 0.4133
H99 H 0.5073 0.5426 0.3575
C100 C 0.2762(4) 0.0116(4) 0.4832(2)
H100 H 0.3060 0.0661 0.4809
H101 H 0.2924 -0.0251 0.4581
H102 H 0.3037 -0.0116 0.5164
C101 C -0.0053(5) 0.8138(3) 0.3556(2)
H103 H 0.0591 0.8016 0.3473
H104 H 0.0035 0.8604 0.3788
H105 H -0.0564 0.8278 0.3253
C102 C -0.2899(6) 0.5377(4) 0.2172(2)
H106 H -0.2215 0.5300 0.2124
H107 H -0.3367 0.5500 0.1851
H108 H -0.3116 0.4872 0.2311
C103 C 0.2170(5) -0.0533(3) 0.3265(2)
H109 H 0.2501 -0.0753 0.3594
H110 H 0.2319 -0.0891 0.3007
H111 H 0.1437 -0.0513 0.3230
C104 C 0.1160(5) -0.0639(3) 0.4797(2)
H112 H 0.1377 -0.0820 0.5144
H113 H 0.1381 -0.1042 0.4582
H114 H 0.0421 -0.0593 0.4702
C105 C -0.1721(6) 0.0448(5) 0.2878(3)
H115 H -0.1688 0.0997 0.2734
H116 H -0.2034 0.0059 0.2614
H117 H -0.1035 0.0260 0.3038
C106 C 0.0392(5) 0.7150(3) 0.4279(2)
H118 H 0.0209 0.6626 0.4411
H119 H 0.0419 0.7586 0.4527
H120 H 0.1055 0.7096 0.4204
C107 C 0.2116(5) 0.0666(4) 0.2685(2)
H121 H 0.1379 0.0708 0.2629
H122 H 0.2281 0.0285 0.2442
H123 H 0.2398 0.1212 0.2647
C108 C 0.4041(5) 0.6181(3) 0.4183(2)
H124 H 0.4026 0.6489 0.3877
H125 H 0.4588 0.6393 0.4453
H126 H 0.3393 0.6247 0.4273
C109 C -0.1413(4) 0.7549(3) 0.3930(2)
H127 H -0.1908 0.7732 0.3630
H128 H -0.1319 0.7984 0.4182
H129 H -0.1658 0.7047 0.4058
C110 C -0.2456(6) -0.0372(3) 0.3458(3)
H130 H -0.1797 -0.0562 0.3654
H131 H -0.2700 -0.0749 0.3178
H132 H -0.2940 -0.0363 0.3668
C111 C -0.3131(5) 0.2654(4) 0.4837(2)
H133 H -0.3178 0.3234 0.4733
H134 H -0.2428 0.2523 0.5004
H135 H -0.3566 0.2558 0.5066
C112 C 0.4343(4) 0.4782(3) 0.45791(18)
H136 H 0.3714 0.4816 0.4690
H137 H 0.4899 0.5018 0.4834
H138 H 0.4492 0.4203 0.4523
C113 C 0.1853(11) 0.7051(7) 0.2445(6)
H139 H 0.1113 0.7022 0.2377
H140 H 0.2052 0.7225 0.2144
H141 H 0.2105 0.7450 0.2712
C114 C 0.1855(12) 0.5571(8) 0.2181(4)
H142 H 0.2149 0.5028 0.2284
H143 H 0.2029 0.5738 0.1872
H144 H 0.1118 0.5542 0.2126
C115 C 0.3471(7) 0.6247(9) 0.2628(7)
H145 H 0.3797 0.6664 0.2871
H146 H 0.3574 0.6388 0.2300
H147 H 0.3767 0.5704 0.2730
Cl10 Cl 0.3610(7) 0.2653(4) 0.5089(2)
Cl11 Cl 0.3946(4) 0.2341(3) 0.61222(18)
Cl12 Cl 0.5232(4) 0.3575(3) 0.56989(15)
C119 C 0.4022(11) 0.3126(10) 0.5679(5)
H157 H 0.3538 0.3577 0.5707
Cl16 Cl 0.8548(15) 0.6685(10) 0.9942(2)
Cl17 Cl 0.9851(3) 0.5819(2) 0.94416(14)
Cl18 Cl 0.7932(4) 0.6337(5) 0.8883(2)
C121 C 0.8624(9) 0.6017(7) 0.9455(4)
H159 H 0.8326 0.5479 0.9526
Cl7? Cl 0.0136(17) 0.4580(4) 0.4049(2)
C3? C 0.1090(19) 0.3927(11) 0.4380(8)
H3? H 0.1619 0.3847 0.4189
Cl8? Cl 0.0533(16) 0.2964(6) 0.4463(6)
Cl9? Cl 0.1638(9) 0.4346(8) 0.4967(6)
C116? C 0.3290(14) 0.6017(12) 0.2577(13)
H148? H 0.3765 0.6175 0.2889
H149? H 0.3460 0.6314 0.2300
H150? H 0.3336 0.5421 0.2526
C117? C 0.2175(17) 0.7215(9) 0.2661(10)
H151? H 0.1508 0.7339 0.2718
H152? H 0.2244 0.7492 0.2356
H153? H 0.2703 0.7413 0.2943
C118? C 0.1432(16) 0.5939(17) 0.2204(6)
H154? H 0.1427 0.5334 0.2193
H155? H 0.1499 0.6156 0.1884
H156? H 0.0797 0.6137 0.2271
Cl13? Cl 0.4203(5) 0.2617(4) 0.63057(19)
C120? C 0.3724(13) 0.3126(10) 0.5740(5)
H158? H 0.3069 0.3397 0.5748
Cl14? Cl 0.3550(8) 0.2533(6) 0.5235(3)
Cl15? Cl 0.4632(4) 0.3870(3) 0.57724(17)
Cl19? Cl 0.7787(4) 0.7128(4) 0.8976(3)
Cl20? Cl 0.854(3) 0.6691(17) 1.0004(4)
C122? C 0.8015(19) 0.6335(14) 0.9412(9)
H160? H 0.7350 0.6075 0.9414
Cl21? Cl 0.8780(11) 0.5573(5) 0.9234(3)
loop_
_geom_bond_atom_site_label_1
_geom_bond_atom_site_label_2
_geom_bond_site_symmetry_1
_geom_bond_site_symmetry_2
Cl1 C1 1_555 1_555
Cl2 C1 1_555 1_555
Cl3 C1 1_555 1_555
C1 H1 1_555 1_555
Cl4 C2 1_555 1_555
Cl5 C2 1_555 1_555
Cl6 C2 1_555 1_555
C2 H2 1_555 1_555
C4 C9 1_555 1_555
C5 C11 1_555 1_555
C6 C14 1_555 1_555
C7 C12 1_555 1_555
C8 C15 1_555 1_555
C9 C11 1_555 1_555
C10 C20 1_555 1_555
C12 C4 1_555 1_555
C13 C18 1_555 1_555
C14 C36 1_555 1_555
C15 C18 1_555 1_555
C16 C28 1_555 1_555
C17 C7 1_555 1_555
C19 C17 1_555 1_555
C20 C24 1_555 1_555
C21 C19 1_555 1_555
H4 C21 1_555 1_555
H5 C21 1_555 1_555
H6 C21 1_555 1_555
C22 C6 1_555 1_555
C23 C10 1_555 1_555
C24 C28 1_555 1_555
C25 C26 1_555 1_555
C26 C8 1_555 1_555
C27 C19 1_555 1_555
H7 C27 1_555 1_555
H8 C27 1_555 1_555
H9 C27 1_555 1_555
C28 C13 1_555 1_555
C29 H10 1_555 1_555
H11 C29 1_555 1_555
H12 C29 1_555 1_555
C30 C20 1_555 1_555
C31 C12 1_555 1_555
C32 C35 1_555 1_555
C33 C6 1_555 1_555
C34 C19 1_555 1_555
H13 C34 1_555 1_555
H14 C34 1_555 1_555
H15 C34 1_555 1_555
C35 C5 1_555 1_555
C36 C17 1_555 1_555
C37 C23 1_555 1_555
C38 C32 1_555 1_555
H16 C38 1_555 1_555
H17 C38 1_555 1_555
H18 C38 1_555 1_555
C39 C16 1_555 1_555
H19 C39 1_555 1_555
H20 C39 1_555 1_555
H21 C39 1_555 1_555
C40 C16 1_555 1_555
H22 C40 1_555 1_555
H23 C40 1_555 1_555
H24 C40 1_555 1_555
C41 C37 1_555 1_555
C42 C35 1_555 1_555
C43 C16 1_555 1_555
H25 C43 1_555 1_555
H26 C43 1_555 1_555
H27 C43 1_555 1_555
C44 C30 1_555 1_555
H28 C44 1_555 1_555
H29 C44 1_555 1_555
H30 C44 1_555 1_555
C45 C32 1_555 1_555
H31 C45 1_555 1_555
H32 C45 1_555 1_555
H33 C45 1_555 1_555
C46 C31 1_555 1_555
H34 C46 1_555 1_555
H35 C46 1_555 1_555
H36 C46 1_555 1_555
C47 C41 1_555 1_555
H37 C47 1_555 1_555
H38 C47 1_555 1_555
H39 C47 1_555 1_555
C48 C22 1_555 1_555
H40 C48 1_555 1_555
H41 C48 1_555 1_555
H42 C48 1_555 1_555
C49 C41 1_555 1_555
H43 C49 1_555 1_555
H44 C49 1_555 1_555
H45 C49 1_555 1_555
C50 C30 1_555 1_555
H46 C50 1_555 1_555
H47 C50 1_555 1_555
H48 C50 1_555 1_555
C51 C25 1_555 1_555
H49 C51 1_555 1_555
H50 C51 1_555 1_555
H51 C51 1_555 1_555
C52 C31 1_555 1_555
H52 C52 1_555 1_555
H53 C52 1_555 1_555
H54 C52 1_555 1_555
C53 C41 1_555 1_555
H55 C53 1_555 1_555
H56 C53 1_555 1_555
H57 C53 1_555 1_555
C54 C22 1_555 1_555
H58 C54 1_555 1_555
H59 C54 1_555 1_555
H60 C54 1_555 1_555
C55 C32 1_555 1_555
H61 C55 1_555 1_555
H62 C55 1_555 1_555
H63 C55 1_555 1_555
C56 C22 1_555 1_555
H64 C56 1_555 1_555
H65 C56 1_555 1_555
H66 C56 1_555 1_555
C57 C30 1_555 1_555
H67 C57 1_555 1_555
H68 C57 1_555 1_555
H69 C57 1_555 1_555
C58 C25 1_555 1_555
H70 C58 1_555 1_555
H71 C58 1_555 1_555
H72 C58 1_555 1_555
C59 C25 1_555 1_555
H73 C59 1_555 1_555
H74 C59 1_555 1_555
H75 C59 1_555 1_555
C60 C61 1_555 1_555
C61 C83 1_555 1_555
C62 C74 1_555 1_555
C63 C84 1_555 1_555
C64 C75 1_555 1_555
C65 C72 1_555 1_555
C66 C79 1_555 1_555
C67 C72 1_555 1_555
C68 C73 1_555 1_555
C69 C70 1_555 1_555
C70 C71 1_555 1_555
C71 C84 1_555 1_555
C72 C79 1_555 1_555
C73 C84 1_555 1_555
C74 C60 1_555 1_555
C75 H76 1_555 1_555
H77 C75 1_555 1_555
H78 C75 1_555 1_555
C76 C62 1_555 1_555
C77 C89 1_555 1_555
C78 H79 1_555 1_555
H80 C78 1_555 1_555
H81 C78 1_555 1_555
C80 C76 1_555 1_555
C81 C64 1_555 1_555
C82 C68 1_555 1_555
C83 C82 1_555 1_555
C85 C61 1_555 1_555
C86 C67 1_555 1_555
H82 C86 1_555 1_555
H83 C86 1_555 1_555
H84 C86 1_555 1_555
C87 C63 1_555 1_555
H85 C87 1_555 1_555
H86 C87 1_555 1_555
H87 C87 1_555 1_555
C88 C63 1_555 1_555
H88 C88 1_555 1_555
H89 C88 1_555 1_555
H90 C88 1_555 1_555
C89 C80 1_555 1_555
C90 C69 1_555 1_555
C91 C77 1_555 1_555
C92 C68 1_555 1_555
C93 H91 1_555 1_555
H92 C93 1_555 1_555
H93 C93 1_555 1_555
C94 C74 1_555 1_555
C95 C77 1_555 1_555
C96 C78 1_555 1_555
C97 C64 1_555 1_555
H94 C97 1_555 1_555
H95 C97 1_555 1_555
H96 C97 1_555 1_555
C98 C66 1_555 1_555
C99 C94 1_555 1_555
H97 C99 1_555 1_555
H98 C99 1_555 1_555
H99 C99 1_555 1_555
C100 C96 1_555 1_555
H100 C100 1_555 1_555
H101 C100 1_555 1_555
H102 C100 1_555 1_555
C101 C92 1_555 1_555
H103 C101 1_555 1_555
H104 C101 1_555 1_555
H105 C101 1_555 1_555
C102 C63 1_555 1_555
H106 C102 1_555 1_555
H107 C102 1_555 1_555
H108 C102 1_555 1_555
C103 C95 1_555 1_555
H109 C103 1_555 1_555
H110 C103 1_555 1_555
H111 C103 1_555 1_555
C104 C96 1_555 1_555
H112 C104 1_555 1_555
H113 C104 1_555 1_555
H114 C104 1_555 1_555
C105 C67 1_555 1_555
H115 C105 1_555 1_555
H116 C105 1_555 1_555
H117 C105 1_555 1_555
C106 C92 1_555 1_555
H118 C106 1_555 1_555
H119 C106 1_555 1_555
H120 C106 1_555 1_555
C107 C95 1_555 1_555
H121 C107 1_555 1_555
H122 C107 1_555 1_555
H123 C107 1_555 1_555
C108 C94 1_555 1_555
H124 C108 1_555 1_555
H125 C108 1_555 1_555
H126 C108 1_555 1_555
C109 C92 1_555 1_555
H127 C109 1_555 1_555
H128 C109 1_555 1_555
H129 C109 1_555 1_555
C110 C67 1_555 1_555
H130 C110 1_555 1_555
H131 C110 1_555 1_555
H132 C110 1_555 1_555
C111 C64 1_555 1_555
H133 C111 1_555 1_555
H134 C111 1_555 1_555
H135 C111 1_555 1_555
C112 C94 1_555 1_555
H136 C112 1_555 1_555
H137 C112 1_555 1_555
H138 C112 1_555 1_555
C113 C85 1_555 1_555
H139 C113 1_555 1_555
H140 C113 1_555 1_555
H141 C113 1_555 1_555
C114 C85 1_555 1_555
H142 C114 1_555 1_555
H143 C114 1_555 1_555
H144 C114 1_555 1_555
C115 C85 1_555 1_555
H145 C115 1_555 1_555
H146 C115 1_555 1_555
H147 C115 1_555 1_555
Cl10 C119 1_555 1_555
Cl11 C119 1_555 1_555
Cl12 C119 1_555 1_555
C119 H157 1_555 1_555
Cl16 C121 1_555 1_555
Cl17 C121 1_555 1_555
Cl18 C121 1_555 1_555
C121 H159 1_555 1_555
C26 C33 1_555 1_555
C29 C31 1_555 1_555
C37 C42 1_555 1_555
C65 C81 1_555 1_555
C81 C90 1_555 1_555
C91 C98 1_555 1_555
C93 C95 1_555 1_555
C96 C98 1_555 1_555

#END
