
#######################################################################
#
#                 Cambridge Crystallographic Data Centre
#                                CCDC 
#
#######################################################################
#
# If this CIF has been generated from an entry in the Cambridge 
# Structural Database, then it will include bibliographic, chemical, 
# crystal, experimental, refinement or atomic coordinate data resulting 
# from the CCDC's data processing and validation procedures.
#
#######################################################################

data_POWXUV
_chemical_formula_moiety         'C8 H9 N1 O3'
_chemical_name_systematic        (2-Methyl-3-nitrophenyl)methanol
_symmetry_cell_setting           monoclinic
_symmetry_space_group_name_H-M   'P 21/n'
_symmetry_Int_Tables_number      14
_space_group_name_Hall           '-P 2yn'
loop_
_symmetry_equiv_pos_site_id
_symmetry_equiv_pos_as_xyz
1 x,y,z
2 1/2-x,1/2+y,1/2-z
3 -x,-y,-z
4 1/2+x,1/2-y,1/2+z
_cell_length_a                   13.601(3)
_cell_length_b                   7.8650(16)
_cell_length_c                   15.433(3)
_cell_angle_alpha                90
_cell_angle_beta                 92.73(3)
_cell_angle_gamma                90
_cell_volume                     1649.02
_exptl_crystal_colour            colorless
_exptl_crystal_description       block
_cell_formula_units_Z            8
_exptl_crystal_recrystallization_method methanol
loop_
_atom_site_label
_atom_site_type_symbol
_atom_site_fract_x
_atom_site_fract_y
_atom_site_fract_z
O1 O 0.16054(17) -0.8063(3) -0.23189(13)
H1 H 0.1609 -0.7149 -0.2575
O2 O 0.1306(2) -0.3449(4) 0.12458(19)
O3 O 0.2061(3) -0.2898(4) 0.0108(2)
N1 N 0.1592(2) -0.3846(4) 0.0546(2)
C1 C 0.0769(3) -0.8143(4) -0.1800(2)
H3 H 0.0515 -0.9296 -0.1809
H4 H 0.0258 -0.7405 -0.2048
C2 C 0.1004(2) -0.7622(4) -0.0875(2)
C3 C 0.1075(2) -0.8874(4) -0.0244(2)
H5 H 0.0977 -1.0001 -0.0410
C4 C 0.1285(2) -0.8523(4) 0.0614(2)
H6 H 0.1324 -0.9392 0.1023
C5 C 0.1437(2) -0.6856(4) 0.0859(2)
H7 H 0.1568 -0.6576 0.1439
C6 C 0.1391(2) -0.5609(4) 0.0230(2)
C7 C 0.1176(2) -0.5903(4) -0.06465(19)
C8 C 0.1098(3) -0.4514(4) -0.1320(2)
H8 H 0.1235 -0.3436 -0.1049
H9 H 0.0445 -0.4502 -0.1584
H10 H 0.1565 -0.4720 -0.1756
O4 O 0.71669(15) 0.0476(3) 0.16390(14)
H2 H 0.7457 -0.0431 0.1706
O5 O 0.3487(3) -0.4236(4) 0.2226(2)
O6 O 0.4004(3) -0.4885(4) 0.0995(2)
N2 N 0.3911(2) -0.3892(4) 0.1578(2)
C9 C 0.6502(3) 0.0372(5) 0.0897(2)
H11 H 0.6754 -0.0445 0.0492
H12 H 0.6471 0.1470 0.0611
C10 C 0.5492(2) -0.0142(4) 0.11181(18)
C11 C 0.4806(3) 0.1136(4) 0.1233(2)
H13 H 0.4984 0.2258 0.1133
C12 C 0.3874(3) 0.0797(4) 0.1490(2)
H14 H 0.3434 0.1677 0.1579
C13 C 0.3602(2) -0.0863(4) 0.1612(2)
H15 H 0.2974 -0.1124 0.1786
C14 C 0.4266(2) -0.2128(4) 0.14749(19)
C15 C 0.5225(2) -0.1851(4) 0.12415(18)
C16 C 0.5962(3) -0.3269(5) 0.1152(3)
H16 H 0.5651 -0.4341 0.1255
H17 H 0.6502 -0.3111 0.1568
H18 H 0.6203 -0.3257 0.0578
loop_
_geom_bond_atom_site_label_1
_geom_bond_atom_site_label_2
_geom_bond_site_symmetry_1
_geom_bond_site_symmetry_2
O1 H1 1_555 1_555
O2 N1 1_555 1_555
O3 N1 1_555 1_555
O4 H2 1_555 1_555
O5 N2 1_555 1_555
O6 N2 1_555 1_555
N1 C6 1_555 1_555
N2 C14 1_555 1_555
C1 O1 1_555 1_555
H3 C1 1_555 1_555
H4 C1 1_555 1_555
C2 C1 1_555 1_555
C3 C2 1_555 1_555
H5 C3 1_555 1_555
C4 C3 1_555 1_555
H6 C4 1_555 1_555
C5 C4 1_555 1_555
H7 C5 1_555 1_555
C6 C5 1_555 1_555
C7 C2 1_555 1_555
C8 C7 1_555 1_555
H8 C8 1_555 1_555
H9 C8 1_555 1_555
H10 C8 1_555 1_555
C9 O4 1_555 1_555
H11 C9 1_555 1_555
H12 C9 1_555 1_555
C10 C9 1_555 1_555
C11 C10 1_555 1_555
H13 C11 1_555 1_555
C12 C11 1_555 1_555
H14 C12 1_555 1_555
C13 C12 1_555 1_555
H15 C13 1_555 1_555
C14 C13 1_555 1_555
C15 C10 1_555 1_555
C16 C15 1_555 1_555
H16 C16 1_555 1_555
H17 C16 1_555 1_555
H18 C16 1_555 1_555
C6 C7 1_555 1_555
C14 C15 1_555 1_555

#END
