
#######################################################################
#
#                 Cambridge Crystallographic Data Centre
#                                CCDC 
#
#######################################################################
#
# If this CIF has been generated from an entry in the Cambridge 
# Structural Database, then it will include bibliographic, chemical, 
# crystal, experimental, refinement or atomic coordinate data resulting 
# from the CCDC's data processing and validation procedures.
#
#######################################################################

data_POWZUX
_chemical_formula_moiety         'C16 H10 Br1 F1 O1'
_chemical_name_systematic        4-Bromo-2-(4-fluorobenzylidene)indan-1-one
_symmetry_cell_setting           triclinic
_symmetry_space_group_name_H-M   'P -1'
_symmetry_Int_Tables_number      2
_space_group_name_Hall           '-P 1'
loop_
_symmetry_equiv_pos_site_id
_symmetry_equiv_pos_as_xyz
1 x,y,z
2 -x,-y,-z
_cell_length_a                   7.3580(15)
_cell_length_b                   7.4630(15)
_cell_length_c                   13.140(3)
_cell_angle_alpha                101.45(3)
_cell_angle_beta                 96.80(3)
_cell_angle_gamma                111.72(3)
_cell_volume                     642.233
_exptl_crystal_colour            colorless
_exptl_crystal_description       block
_cell_formula_units_Z            2
_exptl_crystal_recrystallization_method ethanol
loop_
_atom_site_label
_atom_site_type_symbol
_atom_site_fract_x
_atom_site_fract_y
_atom_site_fract_z
Br1 Br 0.47010(11) 0.25337(12) 0.59830(5)
O1 O 0.2276(6) 0.2064(7) 1.0423(3)
F1 F 0.8344(6) 0.2939(6) 1.4682(2)
C1 C 0.7931(11) 0.2919(9) 1.3633(4)
C2 C 0.6046(11) 0.2666(9) 1.3199(4)
H1 H 0.5071 0.2516 1.3604
C3 C 0.5620(9) 0.2638(9) 1.2136(4)
H2 H 0.4348 0.2475 1.1823
C4 C 0.7092(9) 0.2854(8) 1.1535(4)
C5 C 0.8976(9) 0.3109(9) 1.2025(4)
H3 H 0.9979 0.3272 1.1639
C6 C 0.9387(10) 0.3124(9) 1.3084(5)
H4 H 1.0648 0.3273 1.3407
C7 C 0.6811(9) 0.2884(8) 1.0409(4)
H5 H 0.7986 0.3146 1.0156
C8 C 0.5240(8) 0.2619(8) 0.9659(4)
C9 C 0.3131(9) 0.2200(8) 0.9680(4)
C10 C 0.2123(9) 0.1972(8) 0.8595(4)
C11 C 0.0132(10) 0.1497(9) 0.8219(4)
H6 H -0.0777 0.1254 0.8663
C12 C -0.0493(10) 0.1387(9) 0.7156(4)
H7 H -0.1827 0.1093 0.6886
C13 C 0.0868(10) 0.1714(9) 0.6507(4)
H8 H 0.0442 0.1646 0.5800
C14 C 0.2830(10) 0.2135(8) 0.6883(4)
C15 C 0.3494(9) 0.2285(8) 0.7946(4)
C16 C 0.5512(8) 0.2711(9) 0.8538(4)
H9 H 0.6460 0.4025 0.8538
H10 H 0.5987 0.1720 0.8228
loop_
_geom_bond_atom_site_label_1
_geom_bond_atom_site_label_2
_geom_bond_site_symmetry_1
_geom_bond_site_symmetry_2
Br1 C14 1_555 1_555
O1 C9 1_555 1_555
F1 C1 1_555 1_555
C1 C2 1_555 1_555
C2 H1 1_555 1_555
C3 C2 1_555 1_555
H2 C3 1_555 1_555
C4 C3 1_555 1_555
C5 C4 1_555 1_555
H3 C5 1_555 1_555
C6 C1 1_555 1_555
H4 C6 1_555 1_555
C7 C4 1_555 1_555
H5 C7 1_555 1_555
C8 C7 1_555 1_555
C9 C8 1_555 1_555
C10 C9 1_555 1_555
C11 C10 1_555 1_555
H6 C11 1_555 1_555
C12 C11 1_555 1_555
H7 C12 1_555 1_555
C13 C12 1_555 1_555
H8 C13 1_555 1_555
C14 C13 1_555 1_555
C15 C10 1_555 1_555
C16 C8 1_555 1_555
H9 C16 1_555 1_555
H10 C16 1_555 1_555
C5 C6 1_555 1_555
C14 C15 1_555 1_555
C15 C16 1_555 1_555

#END
