
#######################################################################
#
#                 Cambridge Crystallographic Data Centre
#                                CCDC 
#
#######################################################################
#
# If this CIF has been generated from an entry in the Cambridge 
# Structural Database, then it will include bibliographic, chemical, 
# crystal, experimental, refinement or atomic coordinate data resulting 
# from the CCDC's data processing and validation procedures.
#
#######################################################################

data_POWZIL
_chemical_formula_moiety         'C21 H24 N4 O3'
_chemical_name_systematic        
'Ethyl 5-((2,3-dimethyl-5-oxo-1-phenyl-2,5-dihydro-1H-pyrazol-4-yl)iminomethyl)-3,4-dimethyl-1H-pyrrole-2-carboxylate'
_symmetry_cell_setting           monoclinic
_symmetry_space_group_name_H-M   'P 21/c'
_symmetry_Int_Tables_number      14
_space_group_name_Hall           '-P 2ybc'
loop_
_symmetry_equiv_pos_site_id
_symmetry_equiv_pos_as_xyz
1 x,y,z
2 -x,1/2+y,1/2-z
3 -x,-y,-z
4 x,1/2-y,1/2+z
_cell_length_a                   13.421(2)
_cell_length_b                   20.141(3)
_cell_length_c                   7.5477(13)
_cell_angle_alpha                90
_cell_angle_beta                 96.147(2)
_cell_angle_gamma                90
_cell_volume                     2028.51
_exptl_crystal_colour            yellow
_exptl_crystal_description       block
_cell_formula_units_Z            4
_exptl_crystal_recrystallization_method ethanol/tetrahydrofuran
loop_
_atom_site_label
_atom_site_type_symbol
_atom_site_fract_x
_atom_site_fract_y
_atom_site_fract_z
N1 N 0.89926(11) 0.04791(7) 0.2730(2)
H1 H 0.9557 0.0297 0.3094
O1 O 0.73311(9) 0.00819(7) 0.59614(18)
O2 O 0.89663(10) -0.01469(7) 0.60113(19)
C1 C 0.82077(14) 0.01047(9) 0.5289(3)
N2 N 1.09462(11) 0.18926(7) -0.46225(19)
N3 N 0.94408(12) 0.13164(8) -0.1322(2)
C2 C 1.02102(14) 0.14408(9) -0.2378(2)
C3 C 0.95909(14) 0.09456(9) 0.0064(2)
H2 H 1.0211 0.0744 0.0341
C4 C 0.81529(13) 0.04502(9) 0.3599(3)
C5 C 1.00552(14) 0.17709(8) -0.3956(2)
C6 C 0.88044(13) 0.08391(9) 0.1198(2)
O3 O 1.17701(10) 0.11051(8) -0.06507(18)
N4 N 1.16917(11) 0.15719(8) -0.3468(2)
C7 C 1.12710(15) 0.13275(9) -0.1985(2)
C8 C 1.30141(16) 0.23522(10) -0.4062(3)
H3 H 1.2540 0.2680 -0.4377
C9 C 1.27191(14) 0.17312(10) -0.3532(2)
C10 C 0.78108(14) 0.10470(10) 0.1085(3)
C11 C 0.73181(15) -0.02886(11) 0.7614(3)
H4 H 0.7713 -0.0059 0.8577
H5 H 0.7604 -0.0726 0.7489
C12 C 0.74006(13) 0.08006(10) 0.2585(3)
C13 C 1.34292(17) 0.12484(11) -0.3051(3)
H6 H 1.3233 0.0831 -0.2693
C14 C 0.90956(15) 0.20130(10) -0.4891(3)
H7 H 0.8951 0.1776 -0.5992
H8 H 0.9149 0.2479 -0.5134
H9 H 0.8566 0.1941 -0.4153
C15 C 0.72684(15) 0.14606(12) -0.0377(3)
H10 H 0.6559 0.1425 -0.0328
H11 H 0.7433 0.1304 -0.1512
H12 H 0.7468 0.1916 -0.0224
C16 C 1.10435(16) 0.18288(10) -0.6526(2)
H13 H 1.0997 0.1369 -0.6861
H14 H 1.1681 0.2002 -0.6772
H15 H 1.0517 0.2074 -0.7195
C17 C 1.40162(18) 0.24783(13) -0.4116(3)
H16 H 1.4217 0.2893 -0.4485
C18 C 0.63467(16) 0.09116(14) 0.3014(4)
H17 H 0.6286 0.1353 0.3469
H18 H 0.6189 0.0596 0.3895
H19 H 0.5891 0.0857 0.1954
C19 C 1.47261(19) 0.20031(16) -0.3638(4)
H20 H 1.5403 0.2095 -0.3673
C20 C 1.44268(19) 0.13905(14) -0.3105(4)
H21 H 1.4905 0.1067 -0.2777
C21 C 0.62731(18) -0.03477(16) 0.8013(4)
H22 H 0.6035 0.0079 0.8348
H23 H 0.6237 -0.0655 0.8976
H24 H 0.5865 -0.0505 0.6976
loop_
_geom_bond_atom_site_label_1
_geom_bond_atom_site_label_2
_geom_bond_site_symmetry_1
_geom_bond_site_symmetry_2
N1 H1 1_555 1_555
O1 C1 1_555 1_555
O2 C1 1_555 1_555
C1 C4 1_555 1_555
N2 C5 1_555 1_555
N3 C2 1_555 1_555
C2 C5 1_555 1_555
C3 N3 1_555 1_555
H2 C3 1_555 1_555
C4 N1 1_555 1_555
C5 C14 1_555 1_555
C6 N1 1_555 1_555
O3 C7 1_555 1_555
N4 N2 1_555 1_555
C7 C2 1_555 1_555
C8 H3 1_555 1_555
C9 N4 1_555 1_555
C10 C6 1_555 1_555
C11 O1 1_555 1_555
H4 C11 1_555 1_555
H5 C11 1_555 1_555
C12 C4 1_555 1_555
C13 C9 1_555 1_555
H6 C13 1_555 1_555
C14 H7 1_555 1_555
H8 C14 1_555 1_555
H9 C14 1_555 1_555
C15 C10 1_555 1_555
H10 C15 1_555 1_555
H11 C15 1_555 1_555
H12 C15 1_555 1_555
C16 N2 1_555 1_555
H13 C16 1_555 1_555
H14 C16 1_555 1_555
H15 C16 1_555 1_555
C17 C8 1_555 1_555
H16 C17 1_555 1_555
C18 C12 1_555 1_555
H17 C18 1_555 1_555
H18 C18 1_555 1_555
H19 C18 1_555 1_555
C19 C17 1_555 1_555
H20 C19 1_555 1_555
C20 C13 1_555 1_555
H21 C20 1_555 1_555
C21 C11 1_555 1_555
H22 C21 1_555 1_555
H23 C21 1_555 1_555
H24 C21 1_555 1_555
C3 C6 1_555 1_555
N4 C7 1_555 1_555
C8 C9 1_555 1_555
C10 C12 1_555 1_555
C19 C20 1_555 1_555

#END
