
#######################################################################
#
#                 Cambridge Crystallographic Data Centre
#                                CCDC 
#
#######################################################################
#
# If this CIF has been generated from an entry in the Cambridge 
# Structural Database, then it will include bibliographic, chemical, 
# crystal, experimental, refinement or atomic coordinate data resulting 
# from the CCDC's data processing and validation procedures.
#
#######################################################################

data_POXFOX
_chemical_formula_moiety         'C21 H30 O4'
_chemical_name_systematic        
(+)-(1S,2R,6R)-1-Hydroxy-3-(3-m-methoxyphenylpropyl)-6,8,8-trimethyl-2-oxabicyclo(4.3.0)nonan-7-one
_symmetry_cell_setting           orthorhombic
_symmetry_space_group_name_H-M   'P 21 21 21'
_symmetry_Int_Tables_number      19
_space_group_name_Hall           'P 2ac 2ab'
loop_
_symmetry_equiv_pos_site_id
_symmetry_equiv_pos_as_xyz
1 x,y,z
2 1/2-x,-y,1/2+z
3 1/2+x,1/2-y,-z
4 -x,1/2+y,1/2-z
_cell_length_a                   6.755(3)
_cell_length_b                   8.846(4)
_cell_length_c                   33.303(7)
_cell_angle_alpha                90
_cell_angle_beta                 90
_cell_angle_gamma                90
_cell_volume                     1990.01
_exptl_crystal_colour            colorless
_exptl_crystal_description       needle
_chemical_melting_point          95-96deg.C
_cell_formula_units_Z            4
loop_
_atom_site_label
_atom_site_type_symbol
_atom_site_fract_x
_atom_site_fract_y
_atom_site_fract_z
O1 O -0.8397(4) -0.4689(3) -0.11590(7)
O2 O -0.9661(4) -0.2751(3) -0.07603(9)
O3 O -0.3091(4) -0.4538(4) -0.06675(10)
O4 O -0.8575(5) -0.4922(4) -0.34657(9)
C1 C -0.8176(6) -0.3862(4) -0.07967(10)
C2 C -0.8220(6) -0.5060(5) -0.04672(10)
C3 C -0.6108(6) -0.5676(5) -0.04379(11)
C4 C -0.4890(6) -0.4457(5) -0.06369(11)
C5 C -0.6121(6) -0.3129(4) -0.07731(11)
C6 C -0.5430(7) -0.2419(5) -0.11641(13)
C7 C -0.5935(7) -0.3330(5) -0.15311(12)
C8 C -0.8099(6) -0.3806(5) -0.15209(11)
C9 C -0.8706(7) -0.4793(5) -0.18693(11)
C10 C -1.0891(8) -0.5258(6) -0.18556(12)
C11 C -1.1523(10) -0.6315(6) -0.21933(13)
C12 C -1.1664(8) -0.5543(5) -0.2593(11)
C13 C -1.3395(8) -0.4790(7) -0.27140(13)
C14 C -1.3501(9) -0.4068(6) -0.30789(15)
C15 C -1.1956(8) -0.4091(5) -0.33397(12)
C16 C -1.0237(7) -0.4823(5) -0.32325(12)
C17 C -1.0123(7) -0.5544(5) -0.28611(12)
C18 C -0.5842(8) -0.7133(5) -0.06717(14)
C19 C -0.5418(8) -0.5896(6) -0.00021(13)
C20 C -0.6014(8) -0.1949(6) -0.04312(15)
C21 C -0.8658(11) -0.4257(7) -0.38550(17)
H1 H -1.036(6) -0.316(5) -0.0760(12)
H2 H -0.857(5) -0.459(4) -0.0243(10)
H3 H -0.912(5) -0.594(4) -0.0552(9)
H4 H -0.603(6) -0.146(4) -0.1178(11)
H5 H -0.405(7) -0.211(5) -0.1124(12)
H6 H -0.530(6) -0.414(4) -0.1549(10)
H7 H -0.567(6) -0.268(4) -0.1789(10)
H8 H -0.891(6) -0.271(4) -0.1505(10)
H9 H -0.798(8) -0.597(5) -0.1869(13)
H10 H -0.850(6) -0.403(4) -0.2091(10)
H11 H -1.12(8) -0.608(5) -0.1611(13)
H12 H -1.157(7) -0.437(5) -0.1870(13)
H13 H -1.076(7) -0.734(5) -0.2205(13)
H14 H -1.250(8) -0.701(6) -0.2119(14)
H15 H -1.429(6) -0.464(5) -0.2557(12)
H16 H -1.470(7) -0.332(5) -0.3160(12)
H17 H -1.212(6) -0.345(4) -0.3595(11)
H18 H -0.922(8) -0.643(6) -0.2823(15)
H19 H -0.440(8) -0.738(6) -0.0623(14)
H20 H -0.655(8) -0.786(5) -0.0536(13)
H21 H -0.610(6) -0.701(4) -0.0949(10)
H22 H -0.405(7) -0.629(5) 0.0007(13)
H23 H -0.559(7) -0.508(5) 0.0167(12)
H24 H -0.615(7) -0.690(5) 0.0137(13)
H25 H -0.489(9) -0.162(6) -0.0437(15)
H26 H -0.671(7) -0.118(5) -0.0497(12)
H27 H -0.614(7) -0.236(5) -0.0180(11)
H28 H -0.901(7) -0.311(5) -0.3844(13)
H29 H -0.750(8) -0.457(6) -0.4027(14)
H30 H -0.995(9) -0.483(7) -0.3985(16)
loop_
_geom_bond_atom_site_label_1
_geom_bond_atom_site_label_2
_geom_bond_site_symmetry_1
_geom_bond_site_symmetry_2
O1 C1 1_555 1_555
O2 C1 1_555 1_555
O3 C4 1_555 1_555
O4 C16 1_555 1_555
C1 C2 1_555 1_555
C2 C3 1_555 1_555
C3 C4 1_555 1_555
C4 C5 1_555 1_555
C5 C1 1_555 1_555
C6 C5 1_555 1_555
C7 C6 1_555 1_555
C8 O1 1_555 1_555
C9 C8 1_555 1_555
C10 C9 1_555 1_555
C11 C10 1_555 1_555
C12 C11 1_555 1_555
C13 C12 1_555 1_555
C14 C13 1_555 1_555
C15 C14 1_555 1_555
C16 C15 1_555 1_555
C17 C12 1_555 1_555
C18 C3 1_555 1_555
C19 C3 1_555 1_555
C20 C5 1_555 1_555
C21 O4 1_555 1_555
H1 O2 1_555 1_555
H2 C2 1_555 1_555
H3 C2 1_555 1_555
H4 C6 1_555 1_555
H5 C6 1_555 1_555
H6 C7 1_555 1_555
H7 C7 1_555 1_555
H8 C8 1_555 1_555
H9 C9 1_555 1_555
H10 C9 1_555 1_555
H11 C10 1_555 1_555
H12 C10 1_555 1_555
H13 C11 1_555 1_555
H14 C11 1_555 1_555
H15 C13 1_555 1_555
H16 C14 1_555 1_555
H17 C15 1_555 1_555
H18 C17 1_555 1_555
H19 C18 1_555 1_555
H20 C18 1_555 1_555
H21 C18 1_555 1_555
H22 C19 1_555 1_555
H23 C19 1_555 1_555
H24 C19 1_555 1_555
H25 C20 1_555 1_555
H26 C20 1_555 1_555
H27 C20 1_555 1_555
H28 C21 1_555 1_555
H29 C21 1_555 1_555
H30 C21 1_555 1_555
C7 C8 1_555 1_555
C16 C17 1_555 1_555

#END
