
#######################################################################
#
#                 Cambridge Crystallographic Data Centre
#                                CCDC 
#
#######################################################################
#
# If this CIF has been generated from an entry in the Cambridge 
# Structural Database, then it will include bibliographic, chemical, 
# crystal, experimental, refinement or atomic coordinate data resulting 
# from the CCDC's data processing and validation procedures.
#
#######################################################################

data_POXFEN
_chemical_formula_moiety         'C10 H19 N1 O3'
_chemical_name_systematic        
(4S,5S,6S)-6,7-O-Isopropylidene-1,2,3,5-tetradeoxy-1,5-imino-D-ribo-heptitol
_symmetry_cell_setting           triclinic
_symmetry_space_group_name_H-M   'P 1'
_symmetry_Int_Tables_number      1
_space_group_name_Hall           'P 1'
loop_
_symmetry_equiv_pos_site_id
_symmetry_equiv_pos_as_xyz
1 x,y,z
_cell_length_a                   9.769(5)
_cell_length_b                   5.535(2)
_cell_length_c                   5.196(2)
_cell_angle_alpha                103.31(1)
_cell_angle_beta                 77.68(1)
_cell_angle_gamma                97.28(1)
_cell_volume                     266.221
_exptl_crystal_colour            white
_chemical_melting_point          112-115deg.C
_cell_formula_units_Z            1
loop_
_atom_site_label
_atom_site_type_symbol
_atom_site_fract_x
_atom_site_fract_y
_atom_site_fract_z
O1 O -0.5911(5) 0.3095(8) 0.2910(9)
O2 O -0.8355(5) -0.2520(7) -0.1488(8)
O3 O -0.9172(6) 0.0016(9) -0.3442(11)
N1 N -0.5652(6) -0.0759(10) -0.3947(11)
C1 C -0.6196(7) -0.0113(11) -0.1043(12)
C2 C -0.5432(7) 0.2333(11) 0.0103(13)
C3 C -0.3857(8) 0.2220(14) -0.0611(16)
C4 C -0.3342(8) 0.1302(15) -0.3588(16)
C5 C -0.4162(8) -0.1100(14) -0.4579(15)
C6 C -0.7758(7) -0.0088(11) -0.0416(13)
C7 C -0.8374(7) 0.1623(12) -0.1681(13)
C8 C -0.9510(8) -0.2249(13) -0.2541(16)
C9 C -1.0827(9) -0.2110(21) -0.0382(24)
C10 C -0.9642(12) -0.4297(16) -0.4917(1)
H1 H -0.5682 0.2124 0.3690
H2 H -0.6145 -0.1970 -0.4546
H3 H -0.5953 -0.1401 -0.0240
H4 H -0.5659 0.3602 -0.0745
H5 H -0.3586 0.1120 0.0368
H6 H -0.3407 0.3867 -0.0049
H7 H -0.3453 0.2545 -0.4558
H8 H -0.2351 0.1038 -0.3924
H9 H -0.3864 -0.1631 -0.6512
H10 H -0.3981 -0.2386 -0.3733
H11 H -0.8079 0.0312 0.1542
H12 H -0.8967 0.2751 -0.0315
H13 H -0.7636 0.2594 -0.2664
H14 H -1.1032 -0.3657 0.0213
H15 H -1.1599 -0.1803 -0.1104
H16 H -1.0684 -0.0781 0.1113
H17 H -0.9875 -0.5853 -0.4345
H18 H -0.8766 -0.4365 -0.6181
H19 H -1.0370 -0.3995 -0.5760
loop_
_geom_bond_atom_site_label_1
_geom_bond_atom_site_label_2
_geom_bond_site_symmetry_1
_geom_bond_site_symmetry_2
O1 C2 1_555 1_555
O2 C6 1_555 1_555
O3 C7 1_555 1_555
N1 C1 1_555 1_555
C1 C2 1_555 1_555
C2 C3 1_555 1_555
C3 C4 1_555 1_555
C4 C5 1_555 1_555
C5 N1 1_555 1_555
C6 C1 1_555 1_555
C7 C6 1_555 1_555
C8 O2 1_555 1_555
C9 C8 1_555 1_555
C10 C8 1_555 1_555
H1 O1 1_555 1_555
H2 N1 1_555 1_555
H3 C1 1_555 1_555
H4 C2 1_555 1_555
H5 C3 1_555 1_555
H6 C3 1_555 1_555
H7 C4 1_555 1_555
H8 C4 1_555 1_555
H9 C5 1_555 1_555
H10 C5 1_555 1_555
H11 C6 1_555 1_555
H12 C7 1_555 1_555
H13 C7 1_555 1_555
H14 C9 1_555 1_555
H15 C9 1_555 1_555
H16 C9 1_555 1_555
H17 C10 1_555 1_555
H18 C10 1_555 1_555
H19 C10 1_555 1_555
O3 C8 1_555 1_555

#END
