
#######################################################################
#
#                 Cambridge Crystallographic Data Centre
#                                CCDC 
#
#######################################################################
#
# If this CIF has been generated from an entry in the Cambridge 
# Structural Database, then it will include bibliographic, chemical, 
# crystal, experimental, refinement or atomic coordinate data resulting 
# from the CCDC's data processing and validation procedures.
#
#######################################################################

data_POXGAK
_chemical_formula_moiety         'C19 H29 O1 Te1 1+,Cl1 1-'
_chemical_name_systematic        
'Benzyl-ethyl-(2-exo-hydroxy-10-bornyl)telluronium chloride'
_symmetry_cell_setting           monoclinic
_symmetry_space_group_name_H-M   'C 2'
_symmetry_Int_Tables_number      5
_space_group_name_Hall           'C 2y'
loop_
_symmetry_equiv_pos_site_id
_symmetry_equiv_pos_as_xyz
1 x,y,z
2 -x,y,-z
3 1/2+x,1/2+y,z
4 1/2-x,1/2+y,-z
_cell_length_a                   26.128(2)
_cell_length_b                   6.694(2)
_cell_length_c                   12.842(1)
_cell_angle_alpha                90
_cell_angle_beta                 117.178
_cell_angle_gamma                90
_cell_volume                     1998.09
_exptl_crystal_colour            colorless
_exptl_crystal_description       prismatic
_chemical_melting_point          145-146deg.C
_cell_formula_units_Z            4
_exptl_crystal_recrystallization_method hexane/dichloromethane
loop_
_atom_site_label
_atom_site_type_symbol
_atom_site_fract_x
_atom_site_fract_y
_atom_site_fract_z
Te1 Te -0.03040(3) 0.201(1) 0.19581(6)
O1 O 0.0332(4) 0.528(2) 0.3373(8)
C1 C 0.0800(7) 0.515(3) 0.163(1)
C2 C 0.150(6) 0.211(5) 0.215(1)
C3 C 0.1262(5) 0.373(3) 0.267(1)
C4 C 0.1724(6) 0.500(3) 0.366(1)
C5 C 0.2071(6) 0.343(3) 0.454(1)
C6 C 0.1606(4) 0.182(4) 0.446(1)
C7 C 0.1019(5) 0.283(2) 0.348(1)
C8 C 0.0915(6) 0.464(2) 0.409(1)
C9 C 0.1364(6) 0.613(3) 0.414(2)
C10 C 0.0580(5) 0.117(2) 0.304(1)
C11 C -0.0594(6) -0.101(3) 0.162(1)
C12 C -0.1152(7) -0.146(3) 0.057(1)
C13 C -0.0575(5) 0.161(2) 0.3294(10)
C14 C -0.1211(4) 0.198(3) 0.2790(9)
C15 C -0.1487(6) 0.027(3) 0.282(2)
C16 C -0.2082(7) 0.013(5) 0.237(2)
C17 C -0.2411(7) 0.177(6) 0.177(2)
C18 C -0.2134(8) 0.354(6) 0.175(2)
C19 C -0.1530(8) 0.374(4) 0.225(2)
H1 H 0.0610 0.6035 0.1933
H2 H 0.0992 0.5963 0.1297
H3 H 0.0514 0.4374 0.1019
H4 H 0.1649 0.2615 0.1649
H5 H 0.1809 0.1332 0.2761
H6 H 0.1207 0.1110 0.1691
H7 H 0.1950 0.5853 0.3430
H8 H 0.2263 0.3985 0.5321
H9 H 0.2347 0.2846 0.4358
H10 H 0.1677 0.0572 0.4234
H11 H 0.1597 0.1704 0.5203
H12 H 0.0968 0.4289 0.4859
H13 H 0.1186 0.7316 0.3680
H14 H 0.1601 0.6609 0.4937
H15 H 0.0600 0.0441 0.3689
H16 H 0.0690 0.0285 0.2579
H17 H -0.0623 -0.1497 0.2296
H18 H -0.0305 -0.1779 0.1540
H19 H -0.1143 -0.1049 -0.0125
H20 H -0.1240 -0.2856 0.0520
H21 H -0.1461 -0.0755 0.0630
H22 H -0.0369 0.2535 0.3940
H23 H -0.0482 0.0289 0.3618
H24 H -0.1266 -0.0937 0.3161
H25 H -0.2271 -0.0986 0.2448
H26 H -0.2819 0.1784 0.1406
H27 H -0.2364 0.4769 0.1368
H28 H -0.1335 0.4961 0.2215
Cl1 Cl 0.0000 0.641(1) 0.5000
Cl2 Cl 0.0000 0.361(1) 0.0000
loop_
_geom_bond_atom_site_label_1
_geom_bond_atom_site_label_2
_geom_bond_site_symmetry_1
_geom_bond_site_symmetry_2
Te1 C10 1_555 1_555
O1 C8 1_555 1_555
C1 C3 1_555 1_555
C2 C3 1_555 1_555
C3 C4 1_555 1_555
C4 C5 1_555 1_555
C5 C6 1_555 1_555
C6 C7 1_555 1_555
C7 C3 1_555 1_555
C8 C7 1_555 1_555
C9 C4 1_555 1_555
C10 C7 1_555 1_555
C11 Te1 1_555 1_555
C12 C11 1_555 1_555
C13 Te1 1_555 1_555
C14 C13 1_555 1_555
C15 C14 1_555 1_555
C16 C15 1_555 1_555
C17 C16 1_555 1_555
C18 C17 1_555 1_555
C19 C14 1_555 1_555
H1 C1 1_555 1_555
H2 C1 1_555 1_555
H3 C1 1_555 1_555
H4 C2 1_555 1_555
H5 C2 1_555 1_555
H6 C2 1_555 1_555
H7 C4 1_555 1_555
H8 C5 1_555 1_555
H9 C5 1_555 1_555
H10 C6 1_555 1_555
H11 C6 1_555 1_555
H12 C8 1_555 1_555
H13 C9 1_555 1_555
H14 C9 1_555 1_555
H15 C10 1_555 1_555
H16 C10 1_555 1_555
H17 C11 1_555 1_555
H18 C11 1_555 1_555
H19 C12 1_555 1_555
H20 C12 1_555 1_555
H21 C12 1_555 1_555
H22 C13 1_555 1_555
H23 C13 1_555 1_555
H24 C15 1_555 1_555
H25 C16 1_555 1_555
H26 C17 1_555 1_555
H27 C18 1_555 1_555
H28 C19 1_555 1_555
C8 C9 1_555 1_555
C18 C19 1_555 1_555

#END
