
#######################################################################
#
#                 Cambridge Crystallographic Data Centre
#                                CCDC 
#
#######################################################################
#
# If this CIF has been generated from an entry in the Cambridge 
# Structural Database, then it will include bibliographic, chemical, 
# crystal, experimental, refinement or atomic coordinate data resulting 
# from the CCDC's data processing and validation procedures.
#
#######################################################################

data_POXJUJ
_chemical_formula_moiety         'C20 H40 Na1 O8 1+,C6 H19 B11 1-'
_chemical_name_systematic        
'(18-Crown-6)-sodium 1,2-(tetramethylene)-1,2-dicarba-closo-tridecaborate radical anion'
_symmetry_cell_setting           monoclinic
_symmetry_space_group_name_H-M   'C 2/m'
_symmetry_Int_Tables_number      12
_space_group_name_Hall           '-C 2y'
loop_
_symmetry_equiv_pos_site_id
_symmetry_equiv_pos_as_xyz
1 x,y,z
2 -x,y,-z
3 1/2+x,1/2+y,z
4 1/2-x,1/2+y,-z
5 -x,-y,-z
6 x,-y,z
7 1/2-x,1/2-y,-z
8 1/2+x,1/2-y,z
_cell_length_a                   31.940(15)
_cell_length_b                   11.552(5)
_cell_length_c                   10.369(5)
_cell_angle_alpha                90
_cell_angle_beta                 101.995(11)
_cell_angle_gamma                90
_cell_volume                     3742.32
_exptl_crystal_colour            red
_exptl_crystal_description       block
_cell_formula_units_Z            4
loop_
_atom_site_label
_atom_site_type_symbol
_atom_site_fract_x
_atom_site_fract_y
_atom_site_fract_z
Na1 Na 0.13440(7) 0.0000 0.7283(2)
O1 O 0.19728(16) 0.0000 0.5962(4)
O2 O 0.16179(10) 0.2067(2) 0.6490(3)
O3 O 0.10452(10) 0.2079(3) 0.8112(3)
O4 O 0.06326(14) 0.0000 0.8524(4)
O5 O 0.17987(16) 0.0000 0.9363(4)
O6 O 0.08438(18) 0.0000 0.5293(4)
C1 C 0.20393(18) 0.1018(4) 0.5269(5)
H1 H 0.1817 0.1096 0.4480
H2 H 0.2314 0.0982 0.5010
C2 C 0.20288(16) 0.2034(4) 0.6163(5)
H3 H 0.2249 0.1954 0.6956
H4 H 0.2080 0.2745 0.5722
C3 C 0.15590(18) 0.3082(4) 0.7211(5)
H5 H 0.1612 0.3767 0.6728
H6 H 0.1757 0.3083 0.8058
C4 C 0.11076(17) 0.3086(4) 0.7406(4)
H7 H 0.1057 0.3769 0.7895
H8 H 0.0910 0.3095 0.6559
C5 C 0.06310(16) 0.2052(4) 0.8436(5)
H9 H 0.0411 0.2015 0.7637
H10 H 0.0587 0.2747 0.8914
C6 C 0.06063(18) 0.1014(5) 0.9264(5)
H11 H 0.0839 0.1027 1.0031
H12 H 0.0339 0.1019 0.9566
C7 C 0.2048(6) 0.0946(10) 1.0003(10)
C8 C 0.2161(4) 0.0656(8) 1.1451(8)
C9 C 0.0710(3) 0.1005(7) 0.4495(8)
H13 H 0.0935 0.1584 0.4641
H14 H 0.0456 0.1339 0.4721
C10 C 0.0619(4) 0.0640(4) 0.3133(7)
H15 H 0.0836 0.0932 0.2686
H16 H 0.0343 0.0932 0.2682
O2E O 0.16179(10) -0.2067(2) 0.6490(3)
O3E O 0.10452(10) -0.2079(3) 0.8112(3)
C1E C 0.20393(18) -0.1018(4) 0.5269(5)
H1E H 0.1817 -0.1096 0.4480
H2E H 0.2314 -0.0982 0.5010
C2E C 0.20288(16) -0.2034(4) 0.6163(5)
H3E H 0.2249 -0.1954 0.6956
H4E H 0.2080 -0.2745 0.5722
C3E C 0.15590(18) -0.3082(4) 0.7211(5)
H5E H 0.1612 -0.3767 0.6728
H6E H 0.1757 -0.3083 0.8058
C4E C 0.11076(17) -0.3086(4) 0.7406(4)
H7E H 0.1057 -0.3769 0.7895
H8E H 0.0910 -0.3095 0.6559
C5E C 0.06310(16) -0.2052(4) 0.8436(5)
H9E H 0.0411 -0.2015 0.7637
H10E H 0.0587 -0.2747 0.8914
C6E C 0.06063(18) -0.1014(5) 0.9264(5)
H11E H 0.0839 -0.1027 1.0031
H12E H 0.0339 -0.1019 0.9566
C7E C 0.2048(6) -0.0946(10) 1.0003(10)
C8E C 0.2161(4) -0.0656(8) 1.1451(8)
C9E C 0.0710(3) -0.1005(7) 0.4495(8)
H13E H 0.0935 -0.1584 0.4641
H14E H 0.0456 -0.1339 0.4721
C10E C 0.0619(4) -0.0640(4) 0.3133(7)
H15E H 0.0836 -0.0932 0.2686
H16E H 0.0343 -0.0932 0.2682
C11 C 0.4173(2) 0.0648(6) 0.7699(6)
C12 C 0.4598(3) 0.1165(9) 0.7743(12)
H17 H 0.4780 0.1026 0.8601
H18 H 0.4569 0.1995 0.7616
C13 C 0.4802(3) 0.0648(8) 0.6684(8)
H19 H 0.4649 0.0921 0.5830
H20 H 0.5095 0.0921 0.6809
B1 B 0.4004(7) 0.0000 0.9130(10)
B2 B 0.3842(3) 0.1418(7) 0.8210(7)
H21 H 0.3963 0.2267 0.8598
B3 B 0.3751(2) 0.0894(6) 0.6457(6)
H22 H 0.3836 0.1336 0.5608
B4 B 0.3437(3) 0.0782(7) 0.8906(7)
H23 H 0.3341 0.1249 0.9722
B5 B 0.3300(2) 0.1250(6) 0.7286(7)
H24 H 0.3097 0.2014 0.6987
B6 B 0.3284(3) 0.0000 0.6265(9)
H25 H 0.3090 0.0000 0.5255
B7 B 0.3062(4) 0.0000 0.7756(10)
H26 H 0.2719 0.0000 0.7773
C11E C 0.4173(2) -0.0648(6) 0.7699(6)
C12E C 0.4598(3) -0.1165(9) 0.7743(12)
H17E H 0.4780 -0.1026 0.8601
H18E H 0.4569 -0.1995 0.7616
C13E C 0.4802(3) -0.0648(8) 0.6684(8)
H19E H 0.4649 -0.0921 0.5830
H20E H 0.5095 -0.0921 0.6809
B2E B 0.3842(3) -0.1418(7) 0.8210(7)
H21E H 0.3963 -0.2267 0.8598
B3E B 0.3751(2) -0.0894(6) 0.6457(6)
H22E H 0.3836 -0.1336 0.5608
B4E B 0.3437(3) -0.0782(7) 0.8906(7)
H23E H 0.3341 -0.1249 0.9722
B5E B 0.3300(2) -0.1250(6) 0.7286(7)
H24E H 0.3097 -0.2014 0.6987
C14? C 0.1896(7) 0.1058(10) 1.0128(14)
H27? H 0.4276 0.0148 0.9957
loop_
_geom_bond_atom_site_label_1
_geom_bond_atom_site_label_2
_geom_bond_site_symmetry_1
_geom_bond_site_symmetry_2
Na1 O1 1_555 1_555
O1 C1 1_555 1_555
O2 Na1 1_555 1_555
O3 Na1 1_555 1_555
O4 Na1 1_555 1_555
O5 Na1 1_555 1_555
O6 Na1 1_555 1_555
C1 H1 1_555 1_555
H2 C1 1_555 1_555
C2 O2 1_555 1_555
H3 C2 1_555 1_555
H4 C2 1_555 1_555
C3 O2 1_555 1_555
H5 C3 1_555 1_555
H6 C3 1_555 1_555
C4 O3 1_555 1_555
H7 C4 1_555 1_555
H8 C4 1_555 1_555
C5 O3 1_555 1_555
H9 C5 1_555 1_555
H10 C5 1_555 1_555
C6 O4 1_555 1_555
H11 C6 1_555 1_555
H12 C6 1_555 1_555
C7 O5 1_555 1_555
C8 C7 1_555 1_555
C9 O6 1_555 1_555
H13 C9 1_555 1_555
H14 C9 1_555 1_555
C10 C9 1_555 1_555
H15 C10 1_555 1_555
H16 C10 1_555 1_555
C11 C12 1_555 1_555
C12 H17 1_555 1_555
H18 C12 1_555 1_555
C13 C12 1_555 1_555
H19 C13 1_555 1_555
H20 C13 1_555 1_555
B1 C11 1_555 1_555
B2 C11 1_555 1_555
H21 B2 1_555 1_555
B3 C11 1_555 1_555
H22 B3 1_555 1_555
B4 B1 1_555 1_555
H23 B4 1_555 1_555
B5 B2 1_555 1_555
H24 B5 1_555 1_555
B6 B3 1_555 1_555
H25 B6 1_555 1_555
B7 B4 1_555 1_555
H26 B7 1_555 1_555
O2E Na1 1_555 1_555
O3E Na1 1_555 1_555
C1E O1 1_555 1_555
H1E C1E 1_555 1_555
H2E C1E 1_555 1_555
C2E O2E 1_555 1_555
H3E C2E 1_555 1_555
H4E C2E 1_555 1_555
C3E O2E 1_555 1_555
H5E C3E 1_555 1_555
H6E C3E 1_555 1_555
C4E O3E 1_555 1_555
H7E C4E 1_555 1_555
H8E C4E 1_555 1_555
C5E O3E 1_555 1_555
H9E C5E 1_555 1_555
H10E C5E 1_555 1_555
C6E O4 1_555 1_555
H11E C6E 1_555 1_555
H12E C6E 1_555 1_555
C7E O5 1_555 1_555
C8E C8 1_555 1_555
C9E O6 1_555 1_555
H13E C9E 1_555 1_555
H14E C9E 1_555 1_555
C10E C10 1_555 1_555
H15E C10E 1_555 1_555
H16E C10E 1_555 1_555
C11E C11 1_555 1_555
C12E C11E 1_555 1_555
H17E C12E 1_555 1_555
H18E C12E 1_555 1_555
C13E C13 1_555 1_555
H19E C13E 1_555 1_555
H20E C13E 1_555 1_555
B2E B1 1_555 1_555
H21E B2E 1_555 1_555
B3E B3 1_555 1_555
H22E B3E 1_555 1_555
B4E B1 1_555 1_555
H23E B4E 1_555 1_555
B5E B6 1_555 1_555
H24E B5E 1_555 1_555
C1 C2 1_555 1_555
C3 C4 1_555 1_555
C5 C6 1_555 1_555
B1 B2 1_555 1_555
B1 C11E 1_555 1_555
B2 B3 1_555 1_555
B2 B4 1_555 1_555
B3 B5 1_555 1_555
B4 B5 1_555 1_555
B4 B4E 1_555 1_555
B5 B6 1_555 1_555
B5 B7 1_555 1_555
B6 B7 1_555 1_555
B6 B3E 1_555 1_555
B7 B4E 1_555 1_555
B7 B5E 1_555 1_555
C1E C2E 1_555 1_555
C3E C4E 1_555 1_555
C5E C6E 1_555 1_555
C7E C8E 1_555 1_555
C9E C10E 1_555 1_555
C11E B2E 1_555 1_555
C11E B3E 1_555 1_555
C12E C13E 1_555 1_555
B2E B3E 1_555 1_555
B2E B4E 1_555 1_555
B2E B5E 1_555 1_555
B3E B5E 1_555 1_555
B4E B5E 1_555 1_555

#END
