
#######################################################################
#
#                 Cambridge Crystallographic Data Centre
#                                CCDC 
#
#######################################################################
#
# If this CIF has been generated from an entry in the Cambridge 
# Structural Database, then it will include bibliographic, chemical, 
# crystal, experimental, refinement or atomic coordinate data resulting 
# from the CCDC's data processing and validation procedures.
#
#######################################################################

data_POXKOE01
_chemical_formula_moiety         'C16 H19 N1 O4'
_chemical_name_systematic        
'ethyl 2-oxo-4-phenylhexahydrocyclopenta[e][1,3]oxazine-4a(2H)-carboxylate'
_symmetry_cell_setting           monoclinic
_symmetry_space_group_name_H-M   'P 21'
_symmetry_Int_Tables_number      4
_space_group_name_Hall           'P 2yb'
loop_
_symmetry_equiv_pos_site_id
_symmetry_equiv_pos_as_xyz
1 x,y,z
2 -x,1/2+y,-z
_cell_length_a                   8.2102(16)
_cell_length_b                   6.2167(12)
_cell_length_c                   14.102(3)
_cell_angle_alpha                90
_cell_angle_beta                 90.69(3)
_cell_angle_gamma                90
_cell_volume                     719.719
_exptl_crystal_colour            colorless
_exptl_crystal_description       column
_cell_formula_units_Z            2
loop_
_atom_site_label
_atom_site_type_symbol
_atom_site_fract_x
_atom_site_fract_y
_atom_site_fract_z
O1 O 1.0396(2) 1.3095(4) 0.43413(12)
O2 O 0.9616(2) 1.2913(3) 0.28612(11)
O3 O 0.6400(2) 0.9936(3) 0.10335(13)
O4 O 0.71202(17) 0.6627(2) 0.14698(9)
N1 N 0.9167(2) 1.0065(4) 0.38523(11)
H1 H 0.9351 0.9519 0.4404
C1 C 0.9719(2) 1.2046(4) 0.37277(13)
C2 C 0.8293(2) 0.8679(3) 0.31844(12)
H2 H 0.8780 0.7245 0.3236
C3 C 0.8613(2) 0.9494(3) 0.21654(12)
C4 C 0.8731(3) 1.1940(4) 0.20864(13)
H3 H 0.7649 1.2587 0.2012
C5 C 0.9748(3) 1.2318(5) 0.12125(16)
H4 H 0.9077 1.2251 0.0643
H5 H 1.0276 1.3713 0.1242
C6 C 1.0988(4) 1.0542(6) 0.1222(2)
H6 H 1.2001 1.1042 0.1507
H7 H 1.1204 1.0068 0.0581
C7 C 1.0292(2) 0.8711(4) 0.17983(13)
H8 H 1.1013 0.8364 0.2326
H9 H 1.0158 0.7439 0.1407
C8 C 0.6519(2) 0.8462(4) 0.34636(12)
C9 C 0.5414(3) 1.0141(5) 0.33908(15)
H10 H 0.5747 1.1467 0.3156
C10 C 0.3814(3) 0.9849(6) 0.36668(18)
H11 H 0.3079 1.0982 0.3614
C11 C 0.3304(3) 0.7907(7) 0.40172(16)
H12 H 0.2224 0.7719 0.4192
C12 C 0.4391(3) 0.6246(6) 0.41087(16)
H13 H 0.4055 0.4936 0.4358
C13 C 0.5989(3) 0.6518(4) 0.38303(14)
H14 H 0.6719 0.5380 0.3890
C14 C 0.7247(2) 0.8744(4) 0.14930(12)
C15 C 0.5819(3) 0.5744(4) 0.08749(15)
H15 H 0.6112 0.4302 0.0677
H16 H 0.5693 0.6622 0.0310
C16 C 0.4252(3) 0.5670(7) 0.13843(19)
H17 H 0.3421 0.5096 0.0972
H18 H 0.3955 0.7097 0.1576
H19 H 0.4366 0.4769 0.1934
loop_
_geom_bond_atom_site_label_1
_geom_bond_atom_site_label_2
_geom_bond_site_symmetry_1
_geom_bond_site_symmetry_2
O1 C1 1_555 1_555
O2 C1 1_555 1_555
O3 C14 1_555 1_555
O4 C14 1_555 1_555
N1 H1 1_555 1_555
C1 N1 1_555 1_555
C2 N1 1_555 1_555
H2 C2 1_555 1_555
C3 C2 1_555 1_555
C4 O2 1_555 1_555
H3 C4 1_555 1_555
C5 C4 1_555 1_555
H4 C5 1_555 1_555
H5 C5 1_555 1_555
C6 C5 1_555 1_555
H6 C6 1_555 1_555
H7 C6 1_555 1_555
C7 C3 1_555 1_555
H8 C7 1_555 1_555
H9 C7 1_555 1_555
C8 C2 1_555 1_555
C9 C8 1_555 1_555
H10 C9 1_555 1_555
C10 C9 1_555 1_555
H11 C10 1_555 1_555
C11 C10 1_555 1_555
H12 C11 1_555 1_555
C12 C11 1_555 1_555
H13 C12 1_555 1_555
C13 C8 1_555 1_555
H14 C13 1_555 1_555
C14 C3 1_555 1_555
C15 O4 1_555 1_555
H15 C15 1_555 1_555
H16 C15 1_555 1_555
C16 C15 1_555 1_555
H17 C16 1_555 1_555
H18 C16 1_555 1_555
H19 C16 1_555 1_555
C3 C4 1_555 1_555
C6 C7 1_555 1_555
C12 C13 1_555 1_555

#END
