
#######################################################################
#
#                 Cambridge Crystallographic Data Centre
#                                CCDC 
#
#######################################################################
#
# If this CIF has been generated from an entry in the Cambridge 
# Structural Database, then it will include bibliographic, chemical, 
# crystal, experimental, refinement or atomic coordinate data resulting 
# from the CCDC's data processing and validation procedures.
#
#######################################################################

data_POXPIC
_chemical_formula_moiety         'C18 H16 S2'
_chemical_name_systematic        2,4-Diphenyl-1,5-dithia-octa-2,3-diene
_symmetry_cell_setting           monoclinic
_symmetry_space_group_name_H-M   'P 21/n'
_symmetry_Int_Tables_number      14
_space_group_name_Hall           '-P 2yn'
loop_
_symmetry_equiv_pos_site_id
_symmetry_equiv_pos_as_xyz
1 x,y,z
2 1/2-x,1/2+y,1/2-z
3 -x,-y,-z
4 1/2+x,1/2-y,1/2+z
_cell_length_a                   10.491(2)
_cell_length_b                   8.7754(18)
_cell_length_c                   17.309(4)
_cell_angle_alpha                90
_cell_angle_beta                 104.25(3)
_cell_angle_gamma                90
_cell_volume                     1544.48
_exptl_crystal_colour            colorless
_chemical_melting_point          167-168deg.C
_cell_formula_units_Z            4
loop_
_atom_site_label
_atom_site_type_symbol
_atom_site_fract_x
_atom_site_fract_y
_atom_site_fract_z
C1 C 0.56534(16) 0.06465(19) 0.30025(10)
C2 C 0.63002(17) 0.1530(2) 0.35766(11)
C3 C 0.72520(17) 0.2248(2) 0.40759(10)
C4 C 0.71369(19) 0.3819(2) 0.43679(11)
C5 C 0.8189(2) 0.4583(3) 0.48445(14)
H1 H 0.9000 0.4100 0.5009
C6 C 0.8041(3) 0.6076(3) 0.50797(16)
H2 H 0.8758 0.6586 0.5397
C7 C 0.6864(3) 0.6797(3) 0.48525(17)
H3 H 0.6777 0.7797 0.5010
C8 C 0.5803(3) 0.6041(3) 0.43889(16)
H4 H 0.4993 0.6528 0.4235
C9 C 0.5934(2) 0.4563(2) 0.41509(12)
H5 H 0.5207 0.4057 0.3841
C10 C 0.45255(16) -0.0300(2) 0.30722(11)
C11 C 0.40314(19) -0.0173(2) 0.37422(13)
H6 H 0.4427 0.0496 0.4147
C12 C 0.2965(2) -0.1021(3) 0.38195(17)
H7 H 0.2650 -0.0930 0.4275
C13 C 0.2370(2) -0.1999(3) 0.3223(2)
H8 H 0.1645 -0.2567 0.3271
C14 C 0.2834(3) -0.2140(4) 0.2565(2)
H9 H 0.2425 -0.2807 0.2162
C15 C 0.3920(2) -0.1300(3) 0.24825(15)
H10 H 0.4235 -0.1415 0.2029
C16 C 0.78107(17) 0.1275(2) 0.23892(11)
H11 H 0.8098 0.1532 0.1914
H12 H 0.7810 0.2210 0.2688
C17 C 0.88200(17) 0.0200(2) 0.28919(12)
H13 H 0.8819 -0.0729 0.2588
H14 H 0.9680 0.0663 0.2959
C18 C 0.86679(19) -0.0245(2) 0.37129(11)
H15 H 0.9335 -0.0998 0.3935
H16 H 0.7818 -0.0730 0.3651
S1 S 0.61401(5) 0.05857(6) 0.20842(3)
S2 S 0.87932(5) 0.12954(6) 0.44246(3)
loop_
_geom_bond_atom_site_label_1
_geom_bond_atom_site_label_2
_geom_bond_site_symmetry_1
_geom_bond_site_symmetry_2
C1 C2 1_555 1_555
C2 C3 1_555 1_555
C3 C4 1_555 1_555
C4 C5 1_555 1_555
C5 H1 1_555 1_555
C6 C5 1_555 1_555
H2 C6 1_555 1_555
C7 C6 1_555 1_555
H3 C7 1_555 1_555
C8 C7 1_555 1_555
H4 C8 1_555 1_555
C9 C4 1_555 1_555
H5 C9 1_555 1_555
C10 C1 1_555 1_555
C11 C10 1_555 1_555
H6 C11 1_555 1_555
C12 C11 1_555 1_555
H7 C12 1_555 1_555
C13 C12 1_555 1_555
H8 C13 1_555 1_555
C14 C13 1_555 1_555
H9 C14 1_555 1_555
C15 C10 1_555 1_555
H10 C15 1_555 1_555
C16 H11 1_555 1_555
H12 C16 1_555 1_555
C17 C16 1_555 1_555
H13 C17 1_555 1_555
H14 C17 1_555 1_555
C18 C17 1_555 1_555
H15 C18 1_555 1_555
H16 C18 1_555 1_555
S1 C1 1_555 1_555
S2 C3 1_555 1_555
C8 C9 1_555 1_555
C14 C15 1_555 1_555
C16 S1 1_555 1_555
C18 S2 1_555 1_555

#END
