
#######################################################################
#
#                 Cambridge Crystallographic Data Centre
#                                CCDC 
#
#######################################################################
#
# If this CIF has been generated from an entry in the Cambridge 
# Structural Database, then it will include bibliographic, chemical, 
# crystal, experimental, refinement or atomic coordinate data resulting 
# from the CCDC's data processing and validation procedures.
#
#######################################################################

data_POXWAC
_chemical_formula_moiety         'C18 H17 N3 O4'
_chemical_name_systematic        
2-(2-(2,5-dioxo-2,5-dihydro-1H-pyrrol-1-yl)ethyl)-5-methyl-3a,4,5,9b-tetrahydro-1H-pyrrolo[3,4-c]quinoline-1,3(2H)-dione
_symmetry_cell_setting           triclinic
_symmetry_space_group_name_H-M   'P -1'
_symmetry_Int_Tables_number      2
_space_group_name_Hall           '-P 1'
loop_
_symmetry_equiv_pos_site_id
_symmetry_equiv_pos_as_xyz
1 x,y,z
2 -x,-y,-z
_cell_length_a                   8.171(8)
_cell_length_b                   8.979(8)
_cell_length_c                   11.675(11)
_cell_angle_alpha                95.56(3)
_cell_angle_beta                 95.62(3)
_cell_angle_gamma                101.11(3)
_cell_volume                     830.574
_exptl_crystal_colour            colorless
_exptl_crystal_description       block
_cell_formula_units_Z            2
loop_
_atom_site_label
_atom_site_type_symbol
_atom_site_fract_x
_atom_site_fract_y
_atom_site_fract_z
C1 C 0.1205(7) 0.2010(6) 0.6948(5)
C2 C 0.1269(7) 0.4155(6) 0.8244(5)
C3 C -0.0596(6) 0.3450(5) 0.7917(4)
H1 H -0.1114 0.3214 0.8618
C4 C -0.0628(6) 0.1958(5) 0.7141(5)
H2 H -0.0994 0.1097 0.7575
C5 C -0.1786(7) 0.1731(6) 0.5990(5)
H3 H -0.1545 0.0904 0.5477
H4 H -0.2949 0.1460 0.6133
C6 C -0.1853(6) 0.4417(6) 0.6102(6)
C7 C -0.1469(6) 0.4589(6) 0.7313(5)
C8 C -0.1746(6) 0.5853(6) 0.7999(5)
H5 H -0.1504 0.5950 0.8802
C9 C -0.2408(7) 0.6997(7) 0.7446(7)
H6 H -0.2607 0.7846 0.7891
C10 C -0.2752(8) 0.6849(8) 0.6265(7)
H7 H -0.3149 0.7619 0.5915
C11 C -0.2518(7) 0.5563(8) 0.5575(6)
H8 H -0.2797 0.5460 0.4775
C12 C 0.4022(6) 0.3574(5) 0.7783(5)
H9 H 0.4496 0.4655 0.7807
H10 H 0.4418 0.3032 0.7141
C13 C 0.4603(6) 0.3013(5) 0.8907(5)
H11 H 0.5821 0.3196 0.9010
H12 H 0.4253 0.3595 0.9549
C14 C 0.2378(7) 0.0769(6) 0.9305(4)
C15 C 0.2191(7) -0.0936(5) 0.9097(5)
H13 H 0.1290 -0.1650 0.9268
C16 C 0.3500(7) -0.1259(5) 0.8637(5)
H14 H 0.3679 -0.2237 0.8433
C17 C 0.4653(7) 0.0192(6) 0.8493(5)
C18 C -0.2092(8) 0.2896(7) 0.4183(5)
H15 H -0.3297 0.2671 0.4062
H16 H -0.1676 0.2056 0.3829
H17 H -0.1674 0.3804 0.3843
N1 N 0.2178(5) 0.3322(4) 0.7603(4)
N2 N -0.1518(5) 0.3139(5) 0.5445(4)
N3 N 0.3929(5) 0.1377(4) 0.8933(4)
O1 O 0.1741(5) 0.1105(4) 0.6329(4)
O2 O 0.1881(4) 0.5276(4) 0.8926(3)
O3 O 0.1447(5) 0.1525(4) 0.9700(3)
O4 O 0.5996(5) 0.0385(4) 0.8107(4)
loop_
_geom_bond_atom_site_label_1
_geom_bond_atom_site_label_2
_geom_bond_site_symmetry_1
_geom_bond_site_symmetry_2
C1 C4 1_555 1_555
C2 C3 1_555 1_555
C3 H1 1_555 1_555
C4 C3 1_555 1_555
H2 C4 1_555 1_555
C5 C4 1_555 1_555
H3 C5 1_555 1_555
H4 C5 1_555 1_555
C6 C7 1_555 1_555
C7 C3 1_555 1_555
C8 C7 1_555 1_555
H5 C8 1_555 1_555
C9 C8 1_555 1_555
H6 C9 1_555 1_555
C10 C9 1_555 1_555
H7 C10 1_555 1_555
C11 C6 1_555 1_555
H8 C11 1_555 1_555
C12 H9 1_555 1_555
H10 C12 1_555 1_555
C13 C12 1_555 1_555
H11 C13 1_555 1_555
H12 C13 1_555 1_555
C14 C15 1_555 1_555
C15 H13 1_555 1_555
C16 C15 1_555 1_555
H14 C16 1_555 1_555
C17 C16 1_555 1_555
C18 H15 1_555 1_555
H16 C18 1_555 1_555
H17 C18 1_555 1_555
N1 C1 1_555 1_555
N2 C5 1_555 1_555
N3 C13 1_555 1_555
O1 C1 1_555 1_555
O2 C2 1_555 1_555
O3 C14 1_555 1_555
O4 C17 1_555 1_555
C2 N1 1_555 1_555
C6 N2 1_555 1_555
C10 C11 1_555 1_555
C12 N1 1_555 1_555
C14 N3 1_555 1_555
C17 N3 1_555 1_555
C18 N2 1_555 1_555

#END
