
#######################################################################
#
#                 Cambridge Crystallographic Data Centre
#                                CCDC 
#
#######################################################################
#
# If this CIF has been generated from an entry in the Cambridge 
# Structural Database, then it will include bibliographic, chemical, 
# crystal, experimental, refinement or atomic coordinate data resulting 
# from the CCDC's data processing and validation procedures.
#
#######################################################################

data_POXWEG
_chemical_formula_moiety         'C28 H20 Br1 Cl2 N3 O4,0.5(C4 H8 O2)'
_chemical_name_systematic        
'8-bromo-2-(4-chlorophenyl)-9b-(1-(4-chlorophenyl)-2,5-dioxopyrrolidin-3-yl)-5-methyl-3a,4,5,9b-tetrahydro-1H-pyrrolo[3,4-c]quinoline-1,3(2H)-dione ethyl acetate solvate'
_symmetry_cell_setting           triclinic
_symmetry_space_group_name_H-M   'P -1'
_symmetry_Int_Tables_number      2
_space_group_name_Hall           '-P 1'
loop_
_symmetry_equiv_pos_site_id
_symmetry_equiv_pos_as_xyz
1 x,y,z
2 -x,-y,-z
_cell_length_a                   7.5950(4)
_cell_length_b                   13.7694(8)
_cell_length_c                   15.7113(12)
_cell_angle_alpha                64.051(2)
_cell_angle_beta                 88.667(3)
_cell_angle_gamma                76.613(2)
_cell_volume                     1431.54
_cell_formula_units_Z            2
loop_
_atom_site_label
_atom_site_type_symbol
_atom_site_fract_x
_atom_site_fract_y
_atom_site_fract_z
Cl1 Cl -0.1486(4) 0.8212(2) -0.37594(15)
C1 C -0.0119(12) 0.7597(7) -0.2685(5)
C2 C 0.1532(11) 0.7833(7) -0.2669(5)
H1 H 0.1974 0.8292 -0.3239
C3 C 0.2545(13) 0.7383(8) -0.1798(5)
H2 H 0.3712 0.7511 -0.1763
C4 C 0.183(2) 0.6745(16) -0.0981(6)
C5 C 0.0185(12) 0.6488(9) -0.1010(5)
H3 H -0.0245 0.6019 -0.0441
C6 C -0.0825(11) 0.6913(6) -0.1866(5)
H4 H -0.1962 0.6749 -0.1902
Br1 Br 0.06711(5) 0.95684(3) 0.26384(3)
C7 C 0.4829(4) 0.7879(2) 0.16485(18)
C8 C 0.3284(4) 0.8169(2) 0.20538(19)
H5 H 0.2484 0.7688 0.2268
C9 C 0.2880(4) 0.9139(3) 0.2154(2)
C10 C 0.4060(4) 0.9836(3) 0.1871(2)
H6 H 0.3807 1.0493 0.1961
C11 C 0.5597(4) 0.9568(2) 0.14621(19)
H7 H 0.6392 1.0052 0.1263
C12 C 0.6026(4) 0.8602(2) 0.13291(18)
C13 C 0.7417(4) 0.7696(2) 0.04040(19)
H8 H 0.8564 0.7548 0.0119
H9 H 0.6429 0.8131 -0.0115
C14 C 0.6999(4) 0.6604(2) 0.10806(18)
H10 H 0.6778 0.6203 0.0710
C15 C 0.5350(3) 0.6739(2) 0.16396(19)
C16 C 0.6027(4) 0.5879(2) 0.26703(19)
C17 C 0.8568(4) 0.5880(2) 0.18197(19)
C18 C 0.8591(4) 0.9188(3) 0.0462(2)
H11 H 0.9081 0.9356 0.0940
H12 H 0.7770 0.9865 -0.0015
H13 H 0.9591 0.8919 0.0153
C19 C 0.3083(4) 0.7115(2) 0.0297(2)
C20 C 0.3722(4) 0.6411(2) 0.13431(19)
H14 H 0.2692 0.6532 0.1722
C21 C 0.4101(4) 0.5208(2) 0.14791(19)
H15 H 0.5425 0.4866 0.1578
H16 H 0.3519 0.4754 0.2035
C22 C 0.3304(4) 0.5282(3) 0.0581(2)
C23 C 1.1084(5) 0.3401(3) 0.5292(2)
C24 C 1.1737(4) 0.4247(3) 0.4596(2)
H17 H 1.2883 0.4359 0.4705
C25 C 1.0693(4) 0.4922(3) 0.3745(2)
H18 H 1.1108 0.5514 0.3264
C26 C 0.9037(4) 0.4736(2) 0.35910(19)
C27 C 0.8432(4) 0.3868(3) 0.4281(2)
H19 H 0.7313 0.3731 0.4166
C28 C 0.9466(5) 0.3204(3) 0.5137(2)
H20 H 0.9054 0.2612 0.5619
Cl2 Cl 1.23371(15) 0.25801(8) 0.63943(6)
N1 N 0.7586(3) 0.8327(2) 0.09244(16)
N2 N 0.7914(3) 0.54680(19) 0.27162(15)
N3 N 0.2787(3) 0.6401(2) -0.00695(16)
O1 O 0.5102(3) 0.56006(17) 0.33250(13)
O2 O 1.0155(3) 0.56522(17) 0.16729(14)
O3 O 0.2818(3) 0.81079(18) -0.01527(14)
O4 O 0.3155(3) 0.45257(18) 0.04191(15)
Cl3? Cl -0.0304(3) 0.86105(19) -0.40850(13)
C29? C 0.0686(11) 0.7888(7) -0.2909(5)
C30? C 0.2345(10) 0.8036(6) -0.2702(5)
H21? H 0.2985 0.8461 -0.3198
C31? C 0.3062(13) 0.7552(9) -0.1757(5)
H22? H 0.4163 0.7671 -0.1592
C32? C 0.2112(19) 0.6891(16) -0.1065(6)
C33? C 0.0489(13) 0.6732(9) -0.1292(5)
H23? H -0.0129 0.6278 -0.0802
C34? C -0.0249(12) 0.7229(7) -0.2228(5)
H24? H -0.1358 0.7119 -0.2391
C35? C 0.521(3) 0.1347(16) 0.5054(14)
H25? H 0.5368 0.2084 0.4683
H26? H 0.4156 0.1385 0.5400
H27? H 0.6261 0.0898 0.5493
C36? C 0.5014(14) 0.0887(10) 0.4360(9)
O5? O 0.4772(9) -0.0146(7) 0.4837(6)
C37? C 0.4597(17) -0.0678(10) 0.4223(8)
H28? H 0.5680 -0.0755 0.3906
H29? H 0.3590 -0.0237 0.3750
C38? C 0.4275(15) -0.1763(10) 0.4845(8)
H30? H 0.4146 -0.2138 0.4468
H31? H 0.5291 -0.2196 0.5314
H32? H 0.3189 -0.1675 0.5157
O6? O 0.4891(12) 0.1403(8) 0.3506(7)
loop_
_geom_bond_atom_site_label_1
_geom_bond_atom_site_label_2
_geom_bond_site_symmetry_1
_geom_bond_site_symmetry_2
Cl1 C1 1_555 1_555
C1 C2 1_555 1_555
C2 H1 1_555 1_555
C3 C2 1_555 1_555
H2 C3 1_555 1_555
C4 C3 1_555 1_555
C5 C4 1_555 1_555
H3 C5 1_555 1_555
C6 C1 1_555 1_555
H4 C6 1_555 1_555
Br1 C9 1_555 1_555
C7 C8 1_555 1_555
C8 H5 1_555 1_555
C9 C8 1_555 1_555
C10 C9 1_555 1_555
H6 C10 1_555 1_555
C11 C10 1_555 1_555
H7 C11 1_555 1_555
C12 C7 1_555 1_555
C13 H8 1_555 1_555
H9 C13 1_555 1_555
C14 C13 1_555 1_555
H10 C14 1_555 1_555
C15 C7 1_555 1_555
C16 C15 1_555 1_555
C17 C14 1_555 1_555
C18 H11 1_555 1_555
H12 C18 1_555 1_555
H13 C18 1_555 1_555
C19 C20 1_555 1_555
C20 C15 1_555 1_555
H14 C20 1_555 1_555
C21 C20 1_555 1_555
H15 C21 1_555 1_555
H16 C21 1_555 1_555
C22 C21 1_555 1_555
C23 C24 1_555 1_555
C24 H17 1_555 1_555
C25 C24 1_555 1_555
H18 C25 1_555 1_555
C26 C25 1_555 1_555
C27 C26 1_555 1_555
H19 C27 1_555 1_555
C28 C23 1_555 1_555
H20 C28 1_555 1_555
Cl2 C23 1_555 1_555
N1 C12 1_555 1_555
N2 C16 1_555 1_555
N3 C4 1_555 1_555
O1 C16 1_555 1_555
O2 C17 1_555 1_555
O3 C19 1_555 1_555
O4 C22 1_555 1_555
C5 C6 1_555 1_555
C11 C12 1_555 1_555
C13 N1 1_555 1_555
C14 C15 1_555 1_555
C17 N2 1_555 1_555
C18 N1 1_555 1_555
C19 N3 1_555 1_555
C22 N3 1_555 1_555
C26 N2 1_555 1_555
C27 C28 1_555 1_555

#END
