
#######################################################################
#
#                 Cambridge Crystallographic Data Centre
#                                CCDC 
#
#######################################################################
#
# If this CIF has been generated from an entry in the Cambridge 
# Structural Database, then it will include bibliographic, chemical, 
# crystal, experimental, refinement or atomic coordinate data resulting 
# from the CCDC's data processing and validation procedures.
#
#######################################################################

data_POXZUY
_chemical_formula_moiety         'C13 H17 F2 N1 O2'
_chemical_name_systematic        
(3S,5S)-1-Benzyl-4,4-difluoro-5-(hydroxymethyl)-3-piperidinol
_symmetry_cell_setting           monoclinic
_symmetry_space_group_name_H-M   'P 21'
_symmetry_Int_Tables_number      4
_space_group_name_Hall           'P 2yb'
loop_
_symmetry_equiv_pos_site_id
_symmetry_equiv_pos_as_xyz
1 x,y,z
2 -x,1/2+y,-z
_cell_length_a                   9.5231(16)
_cell_length_b                   7.0072(12)
_cell_length_c                   9.5234(16)
_cell_angle_alpha                90
_cell_angle_beta                 92.360(2)
_cell_angle_gamma                90
_cell_volume                     634.96
_exptl_crystal_colour            colorless
_exptl_crystal_description       prismatic
_chemical_melting_point          123deg.C
_cell_formula_units_Z            2
loop_
_atom_site_label
_atom_site_type_symbol
_atom_site_fract_x
_atom_site_fract_y
_atom_site_fract_z
N1 N 0.8720(12) 0.0460(15) 0.1833(11)
O1 O 1.1307(12) -0.3249(15) 0.0981(11)
O2 O 1.1522(13) 0.4644(16) 0.3736(13)
F1 F 1.1934(11) -0.1229(14) 0.3302(9)
F2 F 1.3008(10) -0.0021(15) 0.1550(10)
C1 C 1.2018(16) 0.278(2) 0.3487(17)
H1 H 1.2055 0.2071 0.4364
H2 H 1.2966 0.2849 0.3155
C2 C 0.9294(16) -0.145(2) 0.1640(14)
H3 H 0.8686 -0.2154 0.0980
H4 H 0.9311 -0.2128 0.2530
C3 C 1.0767(15) -0.139(2) 0.1096(14)
C4 C 1.1699(16) -0.022(2) 0.2082(14)
C5 C 1.1098(15) 0.171(2) 0.2417(14)
C6 C 0.9616(14) 0.150(2) 0.2885(13)
H5 H 0.9625 0.0824 0.3772
H6 H 0.9220 0.2760 0.3034
C7 C 0.7264(16) 0.030(2) 0.2309(15)
H7 H 0.7274 -0.0400 0.3186
H8 H 0.6706 -0.0416 0.1618
C8 C 0.6575(14) 0.221(2) 0.2523(14)
C9 C 0.6151(16) 0.333(3) 0.1397(16)
H9 H 0.6290 0.2911 0.0488
C10 C 0.5524(18) 0.508(3) 0.160(2)
H10 H 0.5249 0.5827 0.0833
C11 C 0.5304(18) 0.571(3) 0.294(2)
H11 H 0.4866 0.6878 0.3075
C12 C 0.5731(16) 0.461(3) 0.4066(18)
H12 H 0.5590 0.5041 0.4974
C13 C 0.6367(15) 0.288(2) 0.3858(16)
H13 H 0.6662 0.2156 0.4631
H14 H 1.132(15) -0.36(2) 0.024(15)
H15 H 1.16(2) 0.53(3) 0.302(15)
H16 H 1.074(13) -0.07(2) 0.020(14)
H17 H 1.112(12) 0.247(19) 0.153(13)
loop_
_geom_bond_atom_site_label_1
_geom_bond_atom_site_label_2
_geom_bond_site_symmetry_1
_geom_bond_site_symmetry_2
N1 C2 1_555 1_555
O1 C3 1_555 1_555
O2 C1 1_555 1_555
F1 C4 1_555 1_555
F2 C4 1_555 1_555
C1 H1 1_555 1_555
H2 C1 1_555 1_555
C2 H3 1_555 1_555
H4 C2 1_555 1_555
C3 C2 1_555 1_555
C4 C3 1_555 1_555
C5 C1 1_555 1_555
C6 N1 1_555 1_555
H5 C6 1_555 1_555
H6 C6 1_555 1_555
C7 N1 1_555 1_555
H7 C7 1_555 1_555
H8 C7 1_555 1_555
C8 C7 1_555 1_555
C9 C8 1_555 1_555
H9 C9 1_555 1_555
C10 C9 1_555 1_555
H10 C10 1_555 1_555
C11 C10 1_555 1_555
H11 C11 1_555 1_555
C12 C11 1_555 1_555
H12 C12 1_555 1_555
C13 C8 1_555 1_555
H13 C13 1_555 1_555
H14 O1 1_555 1_555
H15 O2 1_555 1_555
H16 C3 1_555 1_555
H17 C5 1_555 1_555
C4 C5 1_555 1_555
C5 C6 1_555 1_555
C12 C13 1_555 1_555

#END
