
#######################################################################
#
#                 Cambridge Crystallographic Data Centre
#                                CCDC 
#
#######################################################################
#
# If this CIF has been generated from an entry in the Cambridge 
# Structural Database, then it will include bibliographic, chemical, 
# crystal, experimental, refinement or atomic coordinate data resulting 
# from the CCDC's data processing and validation procedures.
#
#######################################################################

data_POYCUC
_chemical_formula_moiety         'C54 H60 O6 S3'
_chemical_name_systematic        
1,2,7,8,13,14-Hexabutoxytrithiopheno(a:2,3;g:2,3;m:3,2)-coronene
_symmetry_cell_setting           triclinic
_symmetry_space_group_name_H-M   'P -1'
_symmetry_Int_Tables_number      2
_space_group_name_Hall           '-P 1'
loop_
_symmetry_equiv_pos_site_id
_symmetry_equiv_pos_as_xyz
1 x,y,z
2 -x,-y,-z
_cell_length_a                   11.9913(12)
_cell_length_b                   12.1804(14)
_cell_length_c                   17.8243(18)
_cell_angle_alpha                66.699(8)
_cell_angle_beta                 74.285(9)
_cell_angle_gamma                87.656(10)
_cell_volume                     2295.22
_exptl_crystal_colour            colorless
_exptl_crystal_description       prism
_chemical_melting_point          172-174deg.C
_cell_formula_units_Z            2
_exptl_crystal_recrystallization_method acetone
loop_
_atom_site_label
_atom_site_type_symbol
_atom_site_fract_x
_atom_site_fract_y
_atom_site_fract_z
S1 S 0.15378(13) 0.46937(12) 1.19679(6)
C1 C -0.0165(9) 0.3089(8) 1.2639(4)
H1 H -0.0804 0.2551 1.3041
C2 C 0.0449(7) 0.3800(8) 1.2820(4)
H2 H 0.0295 0.3806 1.3370
S2 S -0.12647(19) 0.05095(15) 0.85826(12)
C3 C -0.1904(11) -0.0269(9) 1.0208(7)
H3 H -0.2248 -0.0761 1.0790
C4 C -0.2041(12) -0.0495(11) 0.9557(4)
H4 H -0.2523 -0.1152 0.9632
S3 S 0.30617(18) 0.61683(17) 0.61680(14)
C5 C 0.3875(16) 0.7159(14) 0.6297(6)
H5 H 0.4378 0.7780 0.5825
C6 C 0.3770(9) 0.7018(8) 0.7099(5)
H6 H 0.4146 0.7527 0.7260
O1 O -0.14535(9) 0.12458(9) 1.25752(6)
O2 O -0.19713(9) 0.00056(9) 1.17101(7)
O3 O 0.00107(9) 0.24480(9) 0.71846(6)
O4 O 0.15070(10) 0.44444(9) 0.63520(6)
O5 O 0.39976(9) 0.67418(9) 0.86951(7)
O6 O 0.32020(9) 0.57754(9) 1.04414(7)
C7 C 0.11797(14) 0.41388(14) 1.13123(10)
C8 C 0.02706(13) 0.32419(14) 1.17375(9)
C9 C -0.01199(13) 0.26456(13) 1.12885(9)
C10 C -0.09441(13) 0.16393(14) 1.17089(9)
C11 C -0.12613(13) 0.10532(13) 1.12686(9)
C12 C -0.08051(13) 0.14490(13) 1.03746(9)
C13 C -0.11407(13) 0.08577(13) 0.99025(10)
C14 C -0.07238(13) 0.13195(14) 0.90150(9)
C15 C 0.00574(13) 0.23785(13) 0.85567(9)
C16 C 0.04405(13) 0.29147(14) 0.76550(9)
C17 C 0.12261(13) 0.38958(14) 0.72296(9)
C18 C 0.16903(13) 0.44241(14) 0.76732(9)
C19 C 0.25246(14) 0.54395(14) 0.72470(9)
C20 C 0.29719(13) 0.59397(13) 0.76973(10)
C21 C 0.25902(13) 0.54469(13) 0.86139(9)
C22 C 0.30753(13) 0.58698(13) 0.91009(10)
C23 C 0.26526(13) 0.54327(13) 0.99718(9)
C24 C 0.17056(13) 0.45447(13) 1.04135(9)
C25 C 0.12602(13) 0.40358(13) 0.99506(9)
C26 C 0.03683(13) 0.30550(13) 1.03917(9)
C27 C -0.00012(13) 0.24754(13) 0.99331(9)
C28 C 0.04509(13) 0.29345(13) 0.90190(9)
C29 C 0.12781(13) 0.39493(13) 0.85770(9)
C30 C 0.17084(13) 0.44849(13) 0.90453(9)
C31 C -0.09868(15) 0.01961(15) 1.31008(10)
H7 H -0.0135 0.0331 1.2972
H8 H -0.1151 -0.0510 1.2993
C32 C -0.15711(15) -0.00123(16) 1.40208(10)
H9 H -0.1410 0.0715 1.4105
H10 H -0.1212 -0.0679 1.4390
C33 C -0.28777(16) -0.03050(16) 1.43114(10)
H11 H -0.3047 -0.1066 1.4272
H12 H -0.3244 0.0336 1.3929
C34 C -0.34023(18) -0.04235(18) 1.52248(11)
H13 H -0.3066 -0.1081 1.5608
H14 H -0.4246 -0.0592 1.5385
H15 H -0.3232 0.0327 1.5267
C35 C -0.31867(14) 0.01347(14) 1.20537(10)
H16 H -0.3576 0.0448 1.1594
H17 H -0.3269 0.0695 1.2341
C36 C -0.37124(14) -0.10974(14) 1.26803(10)
H18 H -0.3265 -0.1420 1.3104
H19 H -0.3643 -0.1633 1.2375
C37 C -0.49865(15) -0.11132(16) 1.31447(11)
H20 H -0.5072 -0.0506 1.3392
H21 H -0.5451 -0.0890 1.2731
C38 C -0.54599(17) -0.23330(18) 1.38487(12)
H22 H -0.5372 -0.2939 1.3608
H23 H -0.6284 -0.2306 1.4117
H24 H -0.5028 -0.2540 1.4275
C39 C -0.09566(14) 0.30723(15) 0.69115(11)
H25 H -0.0712 0.3929 0.6552
H26 H -0.1601 0.3019 0.7411
C40 C -0.13500(15) 0.24858(15) 0.64112(10)
H27 H -0.2081 0.2819 0.6294
H28 H -0.1520 0.1616 0.6764
C41 C -0.04637(16) 0.26583(15) 0.55715(10)
H29 H 0.0296 0.2417 0.5678
H30 H -0.0367 0.3519 0.5188
C42 C -0.08145(17) 0.19351(17) 0.51301(12)
H31 H -0.0978 0.1090 0.5524
H32 H -0.0179 0.2008 0.4629
H33 H -0.1511 0.2243 0.4954
C43 C 0.23085(14) 0.38370(15) 0.59108(10)
H34 H 0.2001 0.3001 0.6097
H35 H 0.3067 0.3820 0.6034
C44 C 0.24498(15) 0.45178(14) 0.49722(10)
H36 H 0.2710 0.5363 0.4807
H37 H 0.1685 0.4510 0.4861
C45 C 0.3315(2) 0.40019(19) 0.44241(11)
H38 H 0.3070 0.3148 0.4605
H39 H 0.4086 0.4038 0.4519
C46 C 0.34249(19) 0.46574(18) 0.34804(11)
H40 H 0.2679 0.4574 0.3375
H41 H 0.4021 0.4312 0.3159
H42 H 0.3646 0.5508 0.3299
C47 C 0.5116(2) 0.6254(3) 0.8768(2)
H43 H 0.5368 0.5819 0.8392
H44 H 0.5042 0.5682 0.9361
C48 C 0.60056(17) 0.7276(2) 0.85170(13)
H45 H 0.6687 0.6937 0.8717
H46 H 0.5666 0.7794 0.8817
C49 C 0.64230(19) 0.8051(2) 0.75713(13)
H47 H 0.5765 0.8469 0.7375
H48 H 0.6705 0.7535 0.7258
C50 C 0.7399(4) 0.8975(4) 0.7374(3)
H49 H 0.7646 0.9463 0.6761
H50 H 0.8058 0.8562 0.7557
H51 H 0.7118 0.9494 0.7679
C51 C 0.30529(15) 0.69907(14) 1.03880(11)
H52 H 0.2241 0.7107 1.0556
H53 H 0.3381 0.7553 0.9814
C52 C 0.3658(2) 0.7190(2) 1.09737(14)
H54 H 0.3385 0.6536 1.1546
H55 H 0.3428 0.7952 1.1027
C53 C 0.49866(17) 0.72401(18) 1.06755(12)
H56 H 0.5221 0.6524 1.0556
H57 H 0.5274 0.7957 1.0140
C54 C 0.55467(19) 0.7289(2) 1.13348(13)
H58 H 0.6393 0.7318 1.1120
H59 H 0.5276 0.6573 1.1863
H60 H 0.5331 0.8006 1.1445
C55? C 0.1413(15) 0.4577(15) 1.1938(8)
C56? C 0.0703(16) 0.3953(18) 1.2717(11)
C57? C -0.1169(12) 0.0526(10) 0.8676(7)
C58? C -0.1902(17) -0.0345(15) 0.9332(5)
C59? C 0.379(3) 0.712(2) 0.6164(8)
C60? C 0.3049(14) 0.6213(12) 0.6314(6)
C61? C 0.5101(7) 0.6205(9) 0.8552(10)
C62? C 0.6061(6) 0.7158(7) 0.7940(5)
C63? C 0.6319(9) 0.8071(9) 0.8265(6)
C64? C 0.7348(19) 0.8959(18) 0.7643(11)
C65? C 0.3985(16) 0.7115(17) 1.0805(14)
C66? C 0.4204(18) 0.8422(15) 1.0670(12)
C67? C 0.484(2) 0.850(2) 1.1288(15)
H61? H 0.1976 0.5202 1.1803
H62? H 0.0723 0.4106 1.3196
H63? H -0.0966 0.0624 0.8098
H64? H -0.2303 -0.0926 0.9249
H65? H 0.4179 0.7690 0.5613
H66? H 0.2870 0.6067 0.5872
H67? H 0.5038 0.5605 0.8316
H68? H 0.5291 0.5788 0.9099
H69? H 0.5845 0.7587 0.7404
H70? H 0.6779 0.6761 0.7805
H71? H 0.6492 0.7646 0.8818
H72? H 0.5623 0.8517 0.8360
H73? H 0.7458 0.9557 0.7861
H74? H 0.7192 0.9359 0.7088
H75? H 0.8052 0.8527 0.7580
H76? H 0.2288 0.7072 1.0701
H77? H 0.3215 0.7562 0.9809
H78? H 0.3729 0.6609 1.1422
H79? H 0.4719 0.6825 1.0558
H80? H 0.4673 0.8881 1.0078
H81? H 0.3452 0.8787 1.0757
H82? H 0.4962 0.9341 1.1194
H83? H 0.5599 0.8163 1.1189
H84? H 0.4380 0.8047 1.1874
S4? S -0.0232(4) 0.2873(6) 1.2797(3)
S5? S -0.2082(4) -0.0362(3) 1.0319(3)
S6? S 0.3946(4) 0.7132(3) 0.70807(17)
loop_
_geom_bond_atom_site_label_1
_geom_bond_atom_site_label_2
_geom_bond_site_symmetry_1
_geom_bond_site_symmetry_2
S1 C2 1_555 1_555
C1 H1 1_555 1_555
C2 C1 1_555 1_555
H2 C2 1_555 1_555
S2 C4 1_555 1_555
C3 H3 1_555 1_555
C4 C3 1_555 1_555
H4 C4 1_555 1_555
S3 C5 1_555 1_555
C5 H5 1_555 1_555
C6 C5 1_555 1_555
H6 C6 1_555 1_555
O1 C10 1_555 1_555
O2 C11 1_555 1_555
O3 C16 1_555 1_555
O4 C17 1_555 1_555
O5 C22 1_555 1_555
O6 C23 1_555 1_555
C7 S1 1_555 1_555
C8 C1 1_555 1_555
C9 C8 1_555 1_555
C10 C9 1_555 1_555
C11 C10 1_555 1_555
C12 C11 1_555 1_555
C13 C3 1_555 1_555
C14 S2 1_555 1_555
C15 C14 1_555 1_555
C16 C15 1_555 1_555
C17 C16 1_555 1_555
C18 C17 1_555 1_555
C19 S3 1_555 1_555
C20 C6 1_555 1_555
C21 C20 1_555 1_555
C22 C21 1_555 1_555
C23 C22 1_555 1_555
C24 C7 1_555 1_555
C25 C24 1_555 1_555
C26 C9 1_555 1_555
C27 C12 1_555 1_555
C28 C15 1_555 1_555
C29 C18 1_555 1_555
C30 C21 1_555 1_555
C31 O1 1_555 1_555
H7 C31 1_555 1_555
H8 C31 1_555 1_555
C32 C31 1_555 1_555
H9 C32 1_555 1_555
H10 C32 1_555 1_555
C33 C32 1_555 1_555
H11 C33 1_555 1_555
H12 C33 1_555 1_555
C34 C33 1_555 1_555
H13 C34 1_555 1_555
H14 C34 1_555 1_555
H15 C34 1_555 1_555
C35 O2 1_555 1_555
H16 C35 1_555 1_555
H17 C35 1_555 1_555
C36 C35 1_555 1_555
H18 C36 1_555 1_555
H19 C36 1_555 1_555
C37 C36 1_555 1_555
H20 C37 1_555 1_555
H21 C37 1_555 1_555
C38 C37 1_555 1_555
H22 C38 1_555 1_555
H23 C38 1_555 1_555
H24 C38 1_555 1_555
C39 O3 1_555 1_555
H25 C39 1_555 1_555
H26 C39 1_555 1_555
C40 C39 1_555 1_555
H27 C40 1_555 1_555
H28 C40 1_555 1_555
C41 C40 1_555 1_555
H29 C41 1_555 1_555
H30 C41 1_555 1_555
C42 C41 1_555 1_555
H31 C42 1_555 1_555
H32 C42 1_555 1_555
H33 C42 1_555 1_555
C43 O4 1_555 1_555
H34 C43 1_555 1_555
H35 C43 1_555 1_555
C44 C43 1_555 1_555
H36 C44 1_555 1_555
H37 C44 1_555 1_555
C45 C44 1_555 1_555
H38 C45 1_555 1_555
H39 C45 1_555 1_555
C46 C45 1_555 1_555
H40 C46 1_555 1_555
H41 C46 1_555 1_555
H42 C46 1_555 1_555
C47 O5 1_555 1_555
H43 C47 1_555 1_555
H44 C47 1_555 1_555
C48 C47 1_555 1_555
H45 C48 1_555 1_555
H46 C48 1_555 1_555
C49 C48 1_555 1_555
H47 C49 1_555 1_555
H48 C49 1_555 1_555
C50 C49 1_555 1_555
H49 C50 1_555 1_555
H50 C50 1_555 1_555
H51 C50 1_555 1_555
C51 O6 1_555 1_555
H52 C51 1_555 1_555
H53 C51 1_555 1_555
C52 C51 1_555 1_555
H54 C52 1_555 1_555
H55 C52 1_555 1_555
C53 C52 1_555 1_555
H56 C53 1_555 1_555
H57 C53 1_555 1_555
C54 C53 1_555 1_555
H58 C54 1_555 1_555
H59 C54 1_555 1_555
H60 C54 1_555 1_555
C7 C8 1_555 1_555
C12 C13 1_555 1_555
C13 C14 1_555 1_555
C18 C19 1_555 1_555
C19 C20 1_555 1_555
C23 C24 1_555 1_555
C25 C26 1_555 1_555
C25 C30 1_555 1_555
C26 C27 1_555 1_555
C27 C28 1_555 1_555
C28 C29 1_555 1_555
C29 C30 1_555 1_555

#END
