
#######################################################################
#
#                 Cambridge Crystallographic Data Centre
#                                CCDC 
#
#######################################################################
#
# If this CIF has been generated from an entry in the Cambridge 
# Structural Database, then it will include bibliographic, chemical, 
# crystal, experimental, refinement or atomic coordinate data resulting 
# from the CCDC's data processing and validation procedures.
#
#######################################################################

data_POYFOA
_chemical_formula_moiety         'C48 H56 N2 Si2'
_chemical_name_systematic        
7,10-bis((Tri-isopropylsilyl)ethynyl)-5,12-diazaheptacyclo[14.6.6.0^2,15^.0^4,13^.0^6,11^.0^17,22^.0^23,28^]octacosa-2(15),3,5,7,9,11,13,17,19,21,23,25,27-tridecaene
_symmetry_cell_setting           monoclinic
_symmetry_space_group_name_H-M   'P 21/c'
_symmetry_Int_Tables_number      14
_space_group_name_Hall           '-P 2ybc'
loop_
_symmetry_equiv_pos_site_id
_symmetry_equiv_pos_as_xyz
1 x,y,z
2 -x,1/2+y,1/2-z
3 -x,-y,-z
4 x,1/2-y,1/2+z
_cell_length_a                   16.33(2)
_cell_length_b                   20.33(3)
_cell_length_c                   14.711(19)
_cell_angle_alpha                90
_cell_angle_beta                 99.30(2)
_cell_angle_gamma                90
_cell_volume                     4819.69
_exptl_crystal_colour            yellow
_exptl_crystal_description       plate
_cell_formula_units_Z            4
loop_
_atom_site_label
_atom_site_type_symbol
_atom_site_fract_x
_atom_site_fract_y
_atom_site_fract_z
Si1 Si 0.6430(6) 0.7825(5) 0.2079(6)
Si2 Si 1.2909(7) 0.8901(5) 0.6264(6)
C1 C 0.799(2) 0.8274(14) 0.332(2)
C2 C 0.7392(19) 0.8106(13) 0.283(2)
C3 C 1.108(2) 0.8744(12) 0.553(2)
C4 C 1.177(2) 0.8794(12) 0.5883(18)
C5 C 0.8713(17) 0.8409(13) 0.390(2)
C6 C 0.9025(14) 0.8027(12) 0.4644(17)
H1 H 0.8703 0.7670 0.4805
C7 C 0.9791(14) 0.8145(12) 0.5165(17)
H2 H 0.9988 0.7834 0.5632
C8 C 1.0292(17) 0.8671(12) 0.5068(18)
C9 C 0.9981(15) 0.9088(13) 0.4314(18)
N1 N 1.0462(13) 0.9610(11) 0.4171(16)
C10 C 1.0157(15) 1.0014(13) 0.3461(18)
C11 C 1.0665(17) 1.0557(13) 0.3297(19)
H3 H 1.1158 1.0662 0.3707
C12 C 1.0409(15) 1.0919(12) 0.2520(18)
C13 C 1.0823(14) 1.1557(11) 0.2250(16)
H4 H 1.1314 1.1694 0.2708
C14 C 0.9538(15) 1.1226(11) 0.1050(17)
H5 H 0.9050 1.1103 0.0578
C15 C 0.9671(16) 1.0756(12) 0.1897(18)
C16 C 0.9183(16) 1.0236(12) 0.2043(18)
H6 H 0.8693 1.0138 0.1622
C17 C 0.9426(15) 0.9846(12) 0.2843(17)
N2 N 0.8937(12) 0.9339(11) 0.2990(15)
C18 C 0.9199(14) 0.8968(12) 0.3757(17)
C19 C 0.6116(13) 0.8478(10) 0.1176(15)
H7 H 0.6405 0.8368 0.0646
C20 C 0.6388(17) 0.9175(10) 0.148(2)
H8 H 0.6984 0.9177 0.1716
H9 H 0.6272 0.9473 0.0950
H10 H 0.6082 0.9321 0.1962
C21 C 0.5185(13) 0.8464(13) 0.0801(18)
H11 H 0.5019 0.8015 0.0610
H12 H 0.4875 0.8607 0.1283
H13 H 0.5066 0.8760 0.0271
C22 C 0.5632(14) 0.7706(10) 0.2861(16)
H14 H 0.5105 0.7580 0.2453
C23 C 0.5855(18) 0.7130(12) 0.3525(18)
H15 H 0.5969 0.6739 0.3177
H16 H 0.6349 0.7242 0.3970
H17 H 0.5390 0.7041 0.3853
C24 C 0.5446(17) 0.8337(12) 0.3349(18)
H18 H 0.5307 0.8689 0.2894
H19 H 0.4976 0.8264 0.3675
H20 H 0.5934 0.8465 0.3791
C25 C 0.6665(14) 0.7019(10) 0.1534(16)
H21 H 0.6918 0.6727 0.2051
C26 C 0.7322(14) 0.7098(13) 0.0907(17)
H22 H 0.7804 0.7329 0.1241
H23 H 0.7492 0.6663 0.0719
H24 H 0.7088 0.7351 0.0360
C27 C 0.5896(15) 0.6660(12) 0.1049(19)
H25 H 0.5492 0.6619 0.1471
H26 H 0.5650 0.6910 0.0503
H27 H 0.6053 0.6221 0.0862
C28 C 1.3228(13) 0.9622(10) 0.5584(17)
H28 H 1.3100 0.9484 0.4924
C29 C 1.4151(14) 0.9775(13) 0.576(2)
H29 H 1.4465 0.9370 0.5700
H30 H 1.4276 1.0096 0.5300
H31 H 1.4307 0.9957 0.6376
C30 C 1.2691(17) 1.0224(11) 0.566(2)
H32 H 1.2104 1.0097 0.5540
H33 H 1.2826 1.0412 0.6276
H34 H 1.2795 1.0552 0.5200
C31 C 1.3119(14) 0.9071(13) 0.7544(13)
H35 H 1.2967 0.9543 0.7611
C32 C 1.4036(14) 0.9023(16) 0.7945(18)
H36 H 1.4360 0.9280 0.7566
H37 H 1.4127 0.9197 0.8575
H38 H 1.4211 0.8562 0.7953
C33 C 1.2570(17) 0.8686(15) 0.8091(18)
H39 H 1.1989 0.8734 0.7802
H40 H 1.2726 0.8220 0.8101
H41 H 1.2641 0.8855 0.8723
C34 C 1.3412(15) 0.8111(10) 0.5958(16)
H42 H 1.4010 0.8134 0.6243
C35 C 1.304(2) 0.7510(11) 0.636(2)
H43 H 1.3070 0.7569 0.7026
H44 H 1.2463 0.7458 0.6070
H45 H 1.3358 0.7118 0.6244
C36 C 1.338(2) 0.8041(15) 0.4916(17)
H46 H 1.3622 0.8434 0.4677
H47 H 1.3699 0.7652 0.4789
H48 H 1.2804 0.7992 0.4616
C37 C 1.0161(11) 1.2055(8) 0.2107(13)
C38 C 0.9462(13) 1.1910(7) 0.1466(12)
C39 C 0.8816(10) 1.2361(10) 0.1292(11)
H49 H 0.8339 1.2262 0.0853
C40 C 0.8870(11) 1.2958(9) 0.1759(13)
H50 H 0.8428 1.3267 0.1640
C41 C 0.9568(13) 1.3103(7) 0.2400(12)
H51 H 0.9605 1.3511 0.2720
C42 C 1.0214(10) 1.2652(10) 0.2575(11)
H52 H 1.0691 1.2751 0.3013
C43 C 1.1037(14) 1.1403(8) 0.1295(10)
C44 C 1.0325(10) 1.1242(8) 0.0682(15)
C45 C 1.0376(11) 1.1107(8) -0.0234(13)
H53 H 0.9890 1.0997 -0.0653
C46 C 1.1139(14) 1.1133(8) -0.0536(10)
H54 H 1.1174 1.1040 -0.1161
C47 C 1.1851(10) 1.1293(8) 0.0077(15)
H55 H 1.2373 1.1311 -0.0130
C48 C 1.1800(11) 1.1428(8) 0.0992(13)
H56 H 1.2286 1.1538 0.1411
C49? C 1.218(5) 0.953(3) 0.168(5)
C50? C 1.347(5) 0.987(4) 0.145(5)
C51? C 1.309(6) 0.961(4) 0.256(5)
loop_
_geom_bond_atom_site_label_1
_geom_bond_atom_site_label_2
_geom_bond_site_symmetry_1
_geom_bond_site_symmetry_2
Si1 C2 1_555 1_555
Si2 C4 1_555 1_555
C1 C2 1_555 1_555
C3 C4 1_555 1_555
C5 C1 1_555 1_555
C6 C5 1_555 1_555
H1 C6 1_555 1_555
C7 C6 1_555 1_555
H2 C7 1_555 1_555
C8 C3 1_555 1_555
C9 C8 1_555 1_555
N1 C9 1_555 1_555
C10 N1 1_555 1_555
C11 C10 1_555 1_555
H3 C11 1_555 1_555
C12 C11 1_555 1_555
C13 C12 1_555 1_555
H4 C13 1_555 1_555
C14 H5 1_555 1_555
C15 C12 1_555 1_555
C16 C15 1_555 1_555
H6 C16 1_555 1_555
C17 C10 1_555 1_555
N2 C17 1_555 1_555
C18 C5 1_555 1_555
C19 Si1 1_555 1_555
H7 C19 1_555 1_555
C20 C19 1_555 1_555
H8 C20 1_555 1_555
H9 C20 1_555 1_555
H10 C20 1_555 1_555
C21 C19 1_555 1_555
H11 C21 1_555 1_555
H12 C21 1_555 1_555
H13 C21 1_555 1_555
C22 Si1 1_555 1_555
H14 C22 1_555 1_555
C23 C22 1_555 1_555
H15 C23 1_555 1_555
H16 C23 1_555 1_555
H17 C23 1_555 1_555
C24 C22 1_555 1_555
H18 C24 1_555 1_555
H19 C24 1_555 1_555
H20 C24 1_555 1_555
C25 Si1 1_555 1_555
H21 C25 1_555 1_555
C26 C25 1_555 1_555
H22 C26 1_555 1_555
H23 C26 1_555 1_555
H24 C26 1_555 1_555
C27 C25 1_555 1_555
H25 C27 1_555 1_555
H26 C27 1_555 1_555
H27 C27 1_555 1_555
C28 Si2 1_555 1_555
H28 C28 1_555 1_555
C29 C28 1_555 1_555
H29 C29 1_555 1_555
H30 C29 1_555 1_555
H31 C29 1_555 1_555
C30 C28 1_555 1_555
H32 C30 1_555 1_555
H33 C30 1_555 1_555
H34 C30 1_555 1_555
C31 Si2 1_555 1_555
H35 C31 1_555 1_555
C32 C31 1_555 1_555
H36 C32 1_555 1_555
H37 C32 1_555 1_555
H38 C32 1_555 1_555
C33 C31 1_555 1_555
H39 C33 1_555 1_555
H40 C33 1_555 1_555
H41 C33 1_555 1_555
C34 Si2 1_555 1_555
H42 C34 1_555 1_555
C35 C34 1_555 1_555
H43 C35 1_555 1_555
H44 C35 1_555 1_555
H45 C35 1_555 1_555
C36 C34 1_555 1_555
H46 C36 1_555 1_555
H47 C36 1_555 1_555
H48 C36 1_555 1_555
C37 C13 1_555 1_555
C38 C14 1_555 1_555
C39 C38 1_555 1_555
H49 C39 1_555 1_555
C40 C39 1_555 1_555
H50 C40 1_555 1_555
C41 C40 1_555 1_555
H51 C41 1_555 1_555
C42 C37 1_555 1_555
H52 C42 1_555 1_555
C43 C13 1_555 1_555
C44 C14 1_555 1_555
C45 C44 1_555 1_555
H53 C45 1_555 1_555
C46 C45 1_555 1_555
H54 C46 1_555 1_555
C47 C46 1_555 1_555
H55 C47 1_555 1_555
C48 C43 1_555 1_555
H56 C48 1_555 1_555
C7 C8 1_555 1_555
C9 C18 1_555 1_555
C14 C15 1_555 1_555
C16 C17 1_555 1_555
N2 C18 1_555 1_555
C37 C38 1_555 1_555
C41 C42 1_555 1_555
C43 C44 1_555 1_555
C47 C48 1_555 1_555

#END
