
#######################################################################
#
#                 Cambridge Crystallographic Data Centre
#                                CCDC 
#
#######################################################################
#
# If this CIF has been generated from an entry in the Cambridge 
# Structural Database, then it will include bibliographic, chemical, 
# crystal, experimental, refinement or atomic coordinate data resulting 
# from the CCDC's data processing and validation procedures.
#
#######################################################################

data_POYHES
_chemical_formula_moiety         'C23 H18 N4 O3'
_chemical_name_systematic        
Benzoyl(1-benzyl-2-(4-nitrophenyl)-1H-imidazol-3-ium-3-yl)azanide
_symmetry_cell_setting           monoclinic
_symmetry_space_group_name_H-M   'P 21/n'
_symmetry_Int_Tables_number      14
_space_group_name_Hall           '-P 2yn'
loop_
_symmetry_equiv_pos_site_id
_symmetry_equiv_pos_as_xyz
1 x,y,z
2 1/2-x,1/2+y,1/2-z
3 -x,-y,-z
4 1/2+x,1/2-y,1/2+z
_cell_length_a                   5.87321(10)
_cell_length_b                   16.3775(3)
_cell_length_c                   19.4994(3)
_cell_angle_alpha                90
_cell_angle_beta                 96.9849(16)
_cell_angle_gamma                90
_cell_volume                     1861.7
_exptl_crystal_colour            colorless
_exptl_crystal_description       block
_cell_formula_units_Z            4
loop_
_atom_site_label
_atom_site_type_symbol
_atom_site_fract_x
_atom_site_fract_y
_atom_site_fract_z
N1 N 0.96628(19) 0.47163(7) 0.36192(6)
C1 C 0.9145(2) 0.54958(8) 0.37684(7)
N2 N 1.05755(19) 0.57262(7) 0.43269(6)
C2 C 1.1462(2) 0.44565(9) 0.40871(7)
H1 H 1.2158 0.3946 0.4096
C3 C 1.2032(2) 0.50773(9) 0.45300(7)
H2 H 1.3185 0.5072 0.4902
N3 N 1.0410(2) 0.65144(7) 0.45846(6)
C4 C 1.2081(2) 0.67343(9) 0.50768(7)
O1 O 1.3771(2) 0.63302(7) 0.53434(6)
C5 C 1.1816(2) 0.76070(9) 0.52982(7)
C6 C 0.9756(2) 0.80346(9) 0.51671(7)
H3 H 0.8461 0.7773 0.4949
C7 C 0.9621(3) 0.88458(9) 0.53593(8)
H4 H 0.8237 0.9125 0.5272
C8 C 1.1550(3) 0.92445(9) 0.56825(7)
H5 H 1.1467 0.9792 0.5803
C9 C 1.3594(3) 0.88217(10) 0.58239(8)
H6 H 1.4883 0.9084 0.6046
C10 C 1.3724(3) 0.80070(10) 0.56350(7)
H7 H 1.5100 0.7726 0.5735
C11 C 0.7337(2) 0.60044(8) 0.33918(7)
C12 C 0.5640(2) 0.63508(9) 0.37444(7)
H8 H 0.5657 0.6261 0.4216
C13 C 0.3934(2) 0.68268(9) 0.33921(7)
H9 H 0.2765 0.7045 0.3617
C14 C 0.4012(2) 0.69696(8) 0.26955(7)
C15 C 0.5670(2) 0.66435(9) 0.23318(7)
H10 H 0.5674 0.6753 0.1864
C16 C 0.7334(2) 0.61463(9) 0.26874(7)
H11 H 0.8452 0.5907 0.2453
C17 C 0.8537(2) 0.42216(9) 0.30521(7)
H12 H 0.6976 0.4414 0.2935
H13 H 0.8464 0.3660 0.3206
C18 C 0.9757(2) 0.42483(8) 0.24107(7)
C19 C 0.8805(3) 0.38211(9) 0.18261(7)
H14 H 0.7427 0.3543 0.1833
C20 C 0.9903(3) 0.38093(9) 0.12350(8)
H15 H 0.9255 0.3522 0.0848
C21 C 1.1957(3) 0.42215(9) 0.12151(7)
H16 H 1.2696 0.4208 0.0820
C22 C 1.2896(2) 0.46539(9) 0.17941(7)
H17 H 1.4264 0.4937 0.1784
C23 C 1.1812(2) 0.46669(9) 0.23868(7)
H18 H 1.2461 0.4957 0.2772
N4 N 0.2287(2) 0.75172(8) 0.23256(6)
O2 O 0.06110(18) 0.77031(7) 0.26070(6)
O3 O 0.26465(19) 0.77686(7) 0.17541(5)
loop_
_geom_bond_atom_site_label_1
_geom_bond_atom_site_label_2
_geom_bond_site_symmetry_1
_geom_bond_site_symmetry_2
N1 C1 1_555 1_555
C1 N2 1_555 1_555
N2 C3 1_555 1_555
C2 N1 1_555 1_555
H1 C2 1_555 1_555
C3 C2 1_555 1_555
H2 C3 1_555 1_555
N3 N2 1_555 1_555
C4 N3 1_555 1_555
O1 C4 1_555 1_555
C5 C4 1_555 1_555
C6 C5 1_555 1_555
H3 C6 1_555 1_555
C7 C6 1_555 1_555
H4 C7 1_555 1_555
C8 C7 1_555 1_555
H5 C8 1_555 1_555
C9 C8 1_555 1_555
H6 C9 1_555 1_555
C10 C5 1_555 1_555
H7 C10 1_555 1_555
C11 C1 1_555 1_555
C12 C11 1_555 1_555
H8 C12 1_555 1_555
C13 C12 1_555 1_555
H9 C13 1_555 1_555
C14 C13 1_555 1_555
C15 C14 1_555 1_555
H10 C15 1_555 1_555
C16 C11 1_555 1_555
H11 C16 1_555 1_555
C17 N1 1_555 1_555
H12 C17 1_555 1_555
H13 C17 1_555 1_555
C18 C17 1_555 1_555
C19 C18 1_555 1_555
H14 C19 1_555 1_555
C20 C19 1_555 1_555
H15 C20 1_555 1_555
C21 C20 1_555 1_555
H16 C21 1_555 1_555
C22 C21 1_555 1_555
H17 C22 1_555 1_555
C23 C18 1_555 1_555
H18 C23 1_555 1_555
N4 C14 1_555 1_555
O2 N4 1_555 1_555
O3 N4 1_555 1_555
C9 C10 1_555 1_555
C15 C16 1_555 1_555
C22 C23 1_555 1_555

#END
