
#######################################################################
#
#                 Cambridge Crystallographic Data Centre
#                                CCDC 
#
#######################################################################
#
# If this CIF has been generated from an entry in the Cambridge 
# Structural Database, then it will include bibliographic, chemical, 
# crystal, experimental, refinement or atomic coordinate data resulting 
# from the CCDC's data processing and validation procedures.
#
#######################################################################

data_POYJAQ
_chemical_formula_moiety         'C23 H19 N3 O1'
_chemical_name_systematic        
Benzoyl(1-benzyl-2-phenyl-1H-imidazol-3-ium-3-yl)azanide
_symmetry_cell_setting           triclinic
_symmetry_space_group_name_H-M   'P -1'
_symmetry_Int_Tables_number      2
_space_group_name_Hall           '-P 1'
loop_
_symmetry_equiv_pos_site_id
_symmetry_equiv_pos_as_xyz
1 x,y,z
2 -x,-y,-z
_cell_length_a                   8.2888(4)
_cell_length_b                   10.3643(5)
_cell_length_c                   10.9122(6)
_cell_angle_alpha                91.612(4)
_cell_angle_beta                 100.785(4)
_cell_angle_gamma                102.962(4)
_cell_volume                     895.008
_exptl_crystal_colour            colorless
_exptl_crystal_description       block
_cell_formula_units_Z            2
loop_
_atom_site_label
_atom_site_type_symbol
_atom_site_fract_x
_atom_site_fract_y
_atom_site_fract_z
N1 N 0.14528(15) 0.21327(11) 0.48196(11)
C1 C 0.17915(17) 0.17004(13) 0.37380(13)
N2 N 0.27018(15) 0.07983(11) 0.40116(11)
C2 C 0.29330(19) 0.06356(14) 0.52752(13)
H1 H 0.3517 0.0062 0.5702
C3 C 0.21497(19) 0.14691(14) 0.57761(13)
H2 H 0.2092 0.1575 0.6615
N3 N 0.35802(15) 0.02787(11) 0.31923(11)
C4 C 0.28612(18) -0.09970(13) 0.28514(12)
O1 O 0.15189(14) -0.16729(10) 0.30816(10)
C5 C 0.38964(18) -0.16383(14) 0.21335(12)
C6 C 0.50170(19) -0.09369(14) 0.14432(13)
H3 H 0.5150 -0.0024 0.1411
C7 C 0.5933(2) -0.15902(16) 0.08066(14)
H4 H 0.6648 -0.1119 0.0327
C8 C 0.5788(2) -0.29426(16) 0.08816(15)
H5 H 0.6417 -0.3377 0.0464
C9 C 0.4702(2) -0.36435(15) 0.15801(15)
H6 H 0.4613 -0.4549 0.1643
C10 C 0.37460(19) -0.29990(14) 0.21870(14)
H7 H 0.2995 -0.3482 0.2635
C11 C 0.11820(18) 0.20708(14) 0.24681(13)
C12 C 0.0059(3) 0.11158(17) 0.16225(16)
H8 H -0.0288 0.0256 0.1854
C13 C -0.0551(3) 0.14450(18) 0.04254(17)
H9 H -0.1312 0.0803 -0.0140
C14 C -0.0042(2) 0.27077(16) 0.00697(14)
H10 H -0.0463 0.2923 -0.0730
C15 C 0.1095(2) 0.36512(15) 0.09034(14)
H11 H 0.1451 0.4506 0.0664
C16 C 0.1715(2) 0.33350(14) 0.20997(13)
H12 H 0.2492 0.3976 0.2656
C17 C 0.04926(18) 0.31415(13) 0.49924(13)
H13 H -0.0444 0.2757 0.5385
H14 H 0.0032 0.3411 0.4182
C18 C 0.15977(18) 0.43484(13) 0.57942(13)
C19 C 0.2817(2) 0.52463(15) 0.53307(15)
H15 H 0.2990 0.5083 0.4528
C20 C 0.3776(2) 0.63787(16) 0.60463(16)
H16 H 0.4577 0.6974 0.5720
C21 C 0.3546(2) 0.66268(15) 0.72474(16)
H17 H 0.4187 0.7387 0.7730
C22 C 0.2353(2) 0.57318(16) 0.77214(14)
H18 H 0.2201 0.5889 0.8531
C23 C 0.13772(19) 0.45991(14) 0.70006(13)
H19 H 0.0574 0.4008 0.7328
loop_
_geom_bond_atom_site_label_1
_geom_bond_atom_site_label_2
_geom_bond_site_symmetry_1
_geom_bond_site_symmetry_2
N1 C1 1_555 1_555
C1 N2 1_555 1_555
N2 C2 1_555 1_555
C2 H1 1_555 1_555
C3 N1 1_555 1_555
H2 C3 1_555 1_555
N3 N2 1_555 1_555
C4 N3 1_555 1_555
O1 C4 1_555 1_555
C5 C4 1_555 1_555
C6 C5 1_555 1_555
H3 C6 1_555 1_555
C7 C6 1_555 1_555
H4 C7 1_555 1_555
C8 C7 1_555 1_555
H5 C8 1_555 1_555
C9 C8 1_555 1_555
H6 C9 1_555 1_555
C10 C5 1_555 1_555
H7 C10 1_555 1_555
C11 C1 1_555 1_555
C12 C11 1_555 1_555
H8 C12 1_555 1_555
C13 C12 1_555 1_555
H9 C13 1_555 1_555
C14 C13 1_555 1_555
H10 C14 1_555 1_555
C15 C14 1_555 1_555
H11 C15 1_555 1_555
C16 C11 1_555 1_555
H12 C16 1_555 1_555
C17 N1 1_555 1_555
H13 C17 1_555 1_555
H14 C17 1_555 1_555
C18 C17 1_555 1_555
C19 C18 1_555 1_555
H15 C19 1_555 1_555
C20 C19 1_555 1_555
H16 C20 1_555 1_555
C21 C20 1_555 1_555
H17 C21 1_555 1_555
C22 C21 1_555 1_555
H18 C22 1_555 1_555
C23 C18 1_555 1_555
H19 C23 1_555 1_555
C2 C3 1_555 1_555
C9 C10 1_555 1_555
C15 C16 1_555 1_555
C22 C23 1_555 1_555

#END
