
#######################################################################
#
#                 Cambridge Crystallographic Data Centre
#                                CCDC 
#
#######################################################################
#
# If this CIF has been generated from an entry in the Cambridge 
# Structural Database, then it will include bibliographic, chemical, 
# crystal, experimental, refinement or atomic coordinate data resulting 
# from the CCDC's data processing and validation procedures.
#
#######################################################################

data_POYLEV
_chemical_formula_moiety         'C15 H16 I1 N1 O3 S1'
_chemical_name_systematic        
'2-((N-(p-Toluenesulfonyl)imino)iodo)benzyl methyl ether'
_symmetry_cell_setting           triclinic
_symmetry_space_group_name_H-M   'P -1'
_symmetry_Int_Tables_number      2
_space_group_name_Hall           '-P 1'
loop_
_symmetry_equiv_pos_site_id
_symmetry_equiv_pos_as_xyz
1 x,y,z
2 -x,-y,-z
_cell_length_a                   7.9111(5)
_cell_length_b                   10.7843(6)
_cell_length_c                   18.9092(11)
_cell_angle_alpha                102.820(2)
_cell_angle_beta                 96.196(2)
_cell_angle_gamma                96.314(2)
_cell_volume                     1548.85
_exptl_crystal_colour            colorless
_exptl_crystal_description       lath
_chemical_melting_point          '100-101 deg.C'
_cell_formula_units_Z            4
_exptl_crystal_recrystallization_method methanol
loop_
_atom_site_label
_atom_site_type_symbol
_atom_site_fract_x
_atom_site_fract_y
_atom_site_fract_z
I1 I 0.117987(18) 0.417111(14) 0.414115(8)
S1 S 0.24677(7) 0.68879(6) 0.49796(3)
O1 O 0.3232(2) 0.62225(18) 0.54934(9)
N1 N 0.0870(3) 0.60167(19) 0.44250(11)
C1 C 0.4153(3) 0.7292(2) 0.44879(12)
O2 O 0.1824(2) 0.80658(17) 0.52830(10)
C2 C 0.4372(3) 0.8492(2) 0.43431(14)
H1 H 0.3561 0.9067 0.4462
O3 O 0.1619(2) 0.17917(16) 0.35199(9)
C3 C 0.5788(4) 0.8858(3) 0.40215(15)
H2 H 0.5937 0.9684 0.3920
C4 C 0.6987(3) 0.8028(3) 0.38476(14)
C5 C 0.6738(3) 0.6826(3) 0.39958(14)
H3 H 0.7548 0.6251 0.3876
C6 C 0.5333(3) 0.6441(2) 0.43148(13)
H4 H 0.5178 0.5612 0.4413
C7 C 0.8578(4) 0.8432(4) 0.35304(18)
H5 H 0.9602 0.8371 0.3855
H6 H 0.8588 0.9320 0.3484
H7 H 0.8573 0.7866 0.3047
C8 C 0.1787(3) 0.4106(2) 0.30680(12)
C9 C 0.2507(3) 0.3043(2) 0.27198(13)
C10 C 0.2725(3) 0.2942(3) 0.19886(14)
H8 H 0.3194 0.2227 0.1733
C11 C 0.2270(3) 0.3868(3) 0.16301(14)
H9 H 0.2423 0.3783 0.1131
C12 C 0.1591(4) 0.4918(3) 0.19964(15)
H10 H 0.1299 0.5558 0.1749
C13 C 0.1334(3) 0.5043(2) 0.27255(14)
H11 H 0.0857 0.5756 0.2979
C14 C 0.3017(3) 0.2070(3) 0.31325(14)
H12 H 0.3224 0.1281 0.2789
H13 H 0.4078 0.2422 0.3479
C15 C 0.2065(4) 0.1111(3) 0.40668(15)
H14 H 0.1068 0.0947 0.4315
H15 H 0.3012 0.1627 0.4425
H16 H 0.2421 0.0292 0.3835
I2 I 0.871965(18) 0.134645(14) 0.055230(8)
S2 S 0.76991(7) -0.14692(6) 0.05283(3)
O4 O 0.6827(2) -0.14862(18) -0.01900(9)
N2 N 0.9191(3) -0.0259(2) 0.08431(12)
C16 C 0.6070(3) -0.1395(2) 0.11099(13)
O5 O 0.8508(2) -0.25779(18) 0.06017(11)
C17 C 0.6050(3) -0.2116(3) 0.16331(14)
H17 H 0.6963 -0.2593 0.1714
O6 O 0.8221(2) 0.36996(17) 0.04612(9)
C18 C 0.4686(3) -0.2137(3) 0.20382(14)
H18 H 0.4677 -0.2627 0.2398
C19 C 0.3333(3) -0.1451(2) 0.19231(13)
C20 C 0.3404(3) -0.0702(2) 0.14104(13)
H19 H 0.2506 -0.0207 0.1337
C21 C 0.4760(3) -0.0667(2) 0.10055(13)
H20 H 0.4795 -0.0149 0.0660
C22 C 0.1774(4) -0.1551(3) 0.23166(16)
H21 H 0.1420 -0.0699 0.2466
H22 H 0.2060 -0.1883 0.2750
H23 H 0.0834 -0.2135 0.1988
C23 C 0.7852(3) 0.2290(2) 0.15319(12)
C24 C 0.7192(3) 0.3441(2) 0.15556(13)
C25 C 0.6764(3) 0.4069(3) 0.22285(14)
H24 H 0.6348 0.4873 0.2274
C26 C 0.6937(3) 0.3537(3) 0.28305(14)
H25 H 0.6623 0.3974 0.3281
C27 C 0.7562(3) 0.2376(3) 0.27827(13)
H26 H 0.7655 0.2010 0.3196
C28 C 0.8055(3) 0.1745(3) 0.21271(13)
H27 H 0.8519 0.0960 0.2090
C29 C 0.6886(3) 0.3981(3) 0.08949(14)
H28 H 0.5756 0.3591 0.0609
H29 H 0.6892 0.4922 0.1047
C30 C 0.7933(4) 0.4034(3) -0.02279(14)
H30 H 0.8882 0.3824 -0.0506
H31 H 0.7868 0.4956 -0.0146
H32 H 0.6853 0.3550 -0.0504
loop_
_geom_bond_atom_site_label_1
_geom_bond_atom_site_label_2
_geom_bond_site_symmetry_1
_geom_bond_site_symmetry_2
I1 N1 1_555 1_555
S1 O1 1_555 1_555
N1 S1 1_555 1_555
C1 S1 1_555 1_555
O2 S1 1_555 1_555
C2 C1 1_555 1_555
H1 C2 1_555 1_555
O3 C14 1_555 1_555
C3 C2 1_555 1_555
H2 C3 1_555 1_555
C4 C3 1_555 1_555
C5 C4 1_555 1_555
H3 C5 1_555 1_555
C6 C1 1_555 1_555
H4 C6 1_555 1_555
C7 C4 1_555 1_555
H5 C7 1_555 1_555
H6 C7 1_555 1_555
H7 C7 1_555 1_555
C8 I1 1_555 1_555
C9 C8 1_555 1_555
C10 C9 1_555 1_555
H8 C10 1_555 1_555
C11 C10 1_555 1_555
H9 C11 1_555 1_555
C12 C11 1_555 1_555
H10 C12 1_555 1_555
C13 C8 1_555 1_555
H11 C13 1_555 1_555
C14 C9 1_555 1_555
H12 C14 1_555 1_555
H13 C14 1_555 1_555
C15 O3 1_555 1_555
H14 C15 1_555 1_555
H15 C15 1_555 1_555
H16 C15 1_555 1_555
I2 N2 1_555 1_555
S2 O4 1_555 1_555
N2 S2 1_555 1_555
C16 S2 1_555 1_555
O5 S2 1_555 1_555
C17 C16 1_555 1_555
H17 C17 1_555 1_555
O6 C29 1_555 1_555
C18 C17 1_555 1_555
H18 C18 1_555 1_555
C19 C18 1_555 1_555
C20 C19 1_555 1_555
H19 C20 1_555 1_555
C21 C16 1_555 1_555
H20 C21 1_555 1_555
C22 C19 1_555 1_555
H21 C22 1_555 1_555
H22 C22 1_555 1_555
H23 C22 1_555 1_555
C23 I2 1_555 1_555
C24 C23 1_555 1_555
C25 C24 1_555 1_555
H24 C25 1_555 1_555
C26 C25 1_555 1_555
H25 C26 1_555 1_555
C27 C26 1_555 1_555
H26 C27 1_555 1_555
C28 C23 1_555 1_555
H27 C28 1_555 1_555
C29 C24 1_555 1_555
H28 C29 1_555 1_555
H29 C29 1_555 1_555
C30 O6 1_555 1_555
H30 C30 1_555 1_555
H31 C30 1_555 1_555
H32 C30 1_555 1_555
C5 C6 1_555 1_555
C12 C13 1_555 1_555
C20 C21 1_555 1_555
C27 C28 1_555 1_555

#END
