
#######################################################################
#
#                 Cambridge Crystallographic Data Centre
#                                CCDC 
#
#######################################################################
#
# If this CIF has been generated from an entry in the Cambridge 
# Structural Database, then it will include bibliographic, chemical, 
# crystal, experimental, refinement or atomic coordinate data resulting 
# from the CCDC's data processing and validation procedures.
#
#######################################################################

data_POYXIK
_chemical_formula_moiety         'C15 H17 Cl1 N2 O3,C6 H6'
_chemical_name_systematic        
'trans-(2-(4-Chlorophenyl)-2-((1-methyl-2-imidazolyl)methyl)-5-hydroxy)-1,3-dioxane benzene solvate'
_symmetry_cell_setting           orthorhombic
_symmetry_space_group_name_H-M   'P b c n'
_symmetry_Int_Tables_number      60
_space_group_name_Hall           '-P 2n 2ab'
loop_
_symmetry_equiv_pos_site_id
_symmetry_equiv_pos_as_xyz
1 x,y,z
2 1/2-x,1/2-y,1/2+z
3 1/2+x,1/2-y,-z
4 -x,y,1/2-z
5 -x,-y,-z
6 1/2+x,1/2+y,1/2-z
7 1/2-x,1/2+y,z
8 x,-y,1/2+z
_cell_length_a                   18.344(4)
_cell_length_b                   12.242(2)
_cell_length_c                   15.580(3)
_cell_angle_alpha                90
_cell_angle_beta                 90
_cell_angle_gamma                90
_cell_volume                     3498.76
_chemical_melting_point          179-181deg.C
_cell_formula_units_Z            8
_exptl_crystal_recrystallization_method benzene/hexane
loop_
_atom_site_label
_atom_site_type_symbol
_atom_site_fract_x
_atom_site_fract_y
_atom_site_fract_z
O1 O 0.1558(2) 0.1631(3) 0.7212(2)
O2 O 0.1550(2) 0.1386(3) 0.9099(3)
O3 O 0.1708(2) -0.0186(3) 0.7632(2)
C1 C 0.2105(3) 0.2000(5) 0.7806(4)
C2 C 0.2163(4) 0.1244(5) 0.8567(4)
C3 C 0.2253(3) 0.0099(5) 0.8237(3)
Cl1 Cl 0.4096(1) 0.0040(2) 0.4364(1)
C4 C 0.2317(3) 0.0448(4) 0.6335(3)
C5 C 0.2661(3) -0.0549(5) 0.6219(4)
C6 C 0.3209(3) -0.0677(5) 0.5620(4)
C7 C 0.3423(3) 0.0205(5) 0.5136(4)
C8 C 0.3101(3) 0.1212(5) 0.5236(4)
C9 C 0.2546(3) 0.1322(5) 0.5835(3)
C10 C 0.0803(3) 0.0798(5) 0.5651(4)
N1 N 0.0423(3) 0.1740(4) 0.5600(3)
C11 C 0.0399(4) 0.2023(6) 0.4747(4)
C12 C 0.0753(4) 0.1244(6) 0.4328(4)
N2 N 0.1006(3) 0.0466(4) 0.4887(3)
C13 C 0.1656(3) 0.0545(4) 0.6927(3)
C14 C 0.0960(3) 0.0201(5) 0.6462(4)
C15 C 0.0078(4) 0.2334(6) 0.6305(4)
H1 H 0.1529(2) 0.2045(3) 0.9269(3)
H2 H 0.1979(3) 0.2720(5) 0.8001(4)
H3 H 0.2564(3) 0.2046(5) 0.7512(4)
H4 H 0.2592(4) 0.1442(5) 0.8884(4)
H5 H 0.2721(3) 0.0025(5) 0.7967(3)
H6 H 0.2233(3) -0.0405(5) 0.8708(3)
H7 H 0.2516(3) -0.1167(5) 0.6558(4)
H8 H 0.3438(3) -0.1374(5) 0.5538(4)
H9 H 0.3251(3) 0.1825(5) 0.4894(4)
H10 H 0.2317(3) 0.2021(5) 0.5911(3)
H11 H 0.0165(4) 0.2656(6) 0.4508(4)
H12 H 0.0824(4) 0.1227(6) 0.3718(4)
H13 H 0.0563(3) 0.0335(5) 0.6850(4)
H14 H 0.0972(3) -0.0569(5) 0.6348(4)
H15 H 0.0179(4) 0.1975(6) 0.6839(4)
H16 H 0.0268(4) 0.3065(6) 0.6321(4)
H17 H -0.0440(4) 0.2359(6) 0.6214(4)
C16 C 0.0663(5) 0.3826(15) 0.2152(7)
C17 C 0.0310(6) 0.4668(10) 0.2341(8)
C18 C 0.0376(8) 0.2811(9) 0.2306(6)
C17C C -0.0310(6) 0.4668(10) 0.2659(8)
C16C C -0.0663(5) 0.3826(15) 0.2848(7)
C18C C -0.0376(8) 0.2811(9) 0.2694(6)
loop_
_geom_bond_atom_site_label_1
_geom_bond_atom_site_label_2
_geom_bond_site_symmetry_1
_geom_bond_site_symmetry_2
O1 C1 1_555 1_555
O2 C2 1_555 1_555
O3 C3 1_555 1_555
C1 C2 1_555 1_555
C2 C3 1_555 1_555
C3 H5 1_555 1_555
Cl1 C7 1_555 1_555
C4 C5 1_555 1_555
C5 C6 1_555 1_555
C6 C7 1_555 1_555
C7 C8 1_555 1_555
C8 C9 1_555 1_555
C9 C4 1_555 1_555
C10 N1 1_555 1_555
N1 C11 1_555 1_555
C11 C12 1_555 1_555
C12 N2 1_555 1_555
N2 C10 1_555 1_555
C13 O1 1_555 1_555
C14 C10 1_555 1_555
C15 N1 1_555 1_555
H1 O2 1_555 1_555
H2 C1 1_555 1_555
H3 C1 1_555 1_555
H4 C2 1_555 1_555
H6 C3 1_555 1_555
H7 C5 1_555 1_555
H8 C6 1_555 1_555
H9 C8 1_555 1_555
H10 C9 1_555 1_555
H11 C11 1_555 1_555
H12 C12 1_555 1_555
H13 C14 1_555 1_555
H14 C14 1_555 1_555
H15 C15 1_555 1_555
H16 C15 1_555 1_555
H17 C15 1_555 1_555
C16 C17 1_555 1_555
C17 C17C 1_555 1_555
C18 C16 1_555 1_555
C17C C16C 1_555 1_555
C16C C18C 1_555 1_555
C18C C18 1_555 1_555
O3 C13 1_555 1_555
C4 C13 1_555 1_555
C13 C14 1_555 1_555

#END
