
#######################################################################
#
#                 Cambridge Crystallographic Data Centre
#                                CCDC 
#
#######################################################################
#
# If this CIF has been generated from an entry in the Cambridge 
# Structural Database, then it will include bibliographic, chemical, 
# crystal, experimental, refinement or atomic coordinate data resulting 
# from the CCDC's data processing and validation procedures.
#
#######################################################################

data_POYXOQ
_chemical_formula_moiety         'C15 H16 Cl1 N2 O2 1+,C1 H3 O3 S1 1-'
_chemical_name_systematic        
'1-Methyl-6,9-epoxy-9-(4-chlorophenyl)-5,6,9,10-tetrahydro-1H-imidazo(3,2-e)(2H-1,5)oxazocinium methanesulfonate'
_symmetry_cell_setting           monoclinic
_symmetry_space_group_name_H-M   'P 21/c'
_symmetry_Int_Tables_number      14
_space_group_name_Hall           '-P 2ybc'
loop_
_symmetry_equiv_pos_site_id
_symmetry_equiv_pos_as_xyz
1 x,y,z
2 -x,1/2+y,1/2-z
3 -x,-y,-z
4 x,1/2-y,1/2+z
_cell_length_a                   17.0120(10)
_cell_length_b                   10.8170(10)
_cell_length_c                   10.0990(10)
_cell_angle_alpha                90
_cell_angle_beta                 91.450(10)
_cell_angle_gamma                90
_cell_volume                     1857.81
_chemical_melting_point          197-199deg.C
_cell_formula_units_Z            4
_exptl_crystal_recrystallization_method 'ethyl acetate'
loop_
_atom_site_label
_atom_site_type_symbol
_atom_site_fract_x
_atom_site_fract_y
_atom_site_fract_z
Cl1 Cl -0.0485(1) 0.2399(2) 0.2200(2)
N1 N 0.4418(2) 0.5366(3) 0.1577(3)
C1 C 0.4970(2) 0.6253(4) 0.1305(4)
C2 C 0.4643(3) 0.7018(4) 0.0406(4)
N2 N 0.3897(2) 0.6589(3) 0.0116(3)
C3 C 0.3382(3) 0.7139(4) -0.0924(4)
C4 C 0.2520(2) 0.7159(4) -0.0597(4)
C5 C 0.2329(3) 0.7640(4) 0.0752(4)
O1 O 0.2332(2) 0.6557(2) 0.1561(2)
C6 C 0.2285(2) 0.5499(3) 0.0719(3)
C7 C 0.3058(2) 0.4784(4) 0.0890(5)
C8 C 0.3774(2) 0.5570(3) 0.0838(4)
O2 O 0.2190(2) 0.5942(3) -0.0588(2)
C9 C 0.4539(1) 0.4333(2) 0.2500(2)
C10 C 0.1594(1) 0.4710(2) 0.1072(2)
C11 C 0.1063(1) 0.4282(2) 0.0123(2)
C12 C 0.0426(2) 0.3567(4) 0.0476(5)
C13 C 0.0326(3) 0.3287(5) 0.1764(5)
C14 C 0.0840(3) 0.3702(5) 0.2732(5)
C15 C 0.1479(2) 0.4406(4) 0.2376(4)
H1 H 0.5474(2) 0.6314(4) 0.1680(4)
H2 H 0.4879(3) 0.7708(4) 0.0037(4)
H3 H 0.3443(3) 0.6676(4) -0.1738(4)
H4 H 0.3554(3) 0.7980(4) -0.1085(4)
H5 H 0.2242(2) 0.7645(4) -0.1252(4)
H6 H 0.2722(3) 0.8227(4) 0.1068(4)
H7 H 0.1817(3) 0.8036(4) 0.0741(4)
H8 H 0.3059(2) 0.4353(4) 0.1733(5)
H9 H 0.3082(2) 0.4165(4) 0.0197(5)
H10 H 0.5055(1) 0.4396(2) 0.2902(2)
H11 H 0.4492(1) 0.3562(2) 0.2034(2)
H12 H 0.4152(1) 0.4369(2) 0.3175(2)
H13 H 0.1134(1) 0.4473(2) -0.0764(2)
H14 H 0.0072(2) 0.3279(4) -0.0170(5)
H15 H 0.0762(3) 0.3511(5) 0.3617(5)
H16 H 0.1835(2) 0.4681(4) 0.3025(4)
S1 S 0.3291(1) 0.0843(1) 0.0758(1)
O3 O 0.3043(2) 0.0184(3) -0.0416(3)
O4 O 0.3641(2) -0.0005(4) 0.1707(4)
O5 O 0.3768(2) 0.1894(3) 0.0547(5)
C16 C 0.2439(3) 0.1344(6) 0.1502(7)
H17 H 0.2104(3) 0.0647(6) 0.1655(7)
H18 H 0.2172(3) 0.1919(6) 0.0925(7)
H19 H 0.2568(3) 0.1740(6) 0.2330(7)
loop_
_geom_bond_atom_site_label_1
_geom_bond_atom_site_label_2
_geom_bond_site_symmetry_1
_geom_bond_site_symmetry_2
Cl1 C13 1_555 1_555
N1 C1 1_555 1_555
C1 C2 1_555 1_555
C2 N2 1_555 1_555
N2 C3 1_555 1_555
C3 C4 1_555 1_555
C4 C5 1_555 1_555
C5 O1 1_555 1_555
O1 C6 1_555 1_555
C6 C7 1_555 1_555
C7 C8 1_555 1_555
C8 N1 1_555 1_555
O2 C4 1_555 1_555
C9 N1 1_555 1_555
C10 C6 1_555 1_555
C11 C10 1_555 1_555
C12 C11 1_555 1_555
C13 C12 1_555 1_555
C14 C13 1_555 1_555
C15 C10 1_555 1_555
H1 C1 1_555 1_555
H2 C2 1_555 1_555
H3 C3 1_555 1_555
H4 C3 1_555 1_555
H5 C4 1_555 1_555
H6 C5 1_555 1_555
H7 C5 1_555 1_555
H8 C7 1_555 1_555
H9 C7 1_555 1_555
H10 C9 1_555 1_555
H11 C9 1_555 1_555
H12 C9 1_555 1_555
H13 C11 1_555 1_555
H14 C12 1_555 1_555
H15 C14 1_555 1_555
H16 C15 1_555 1_555
S1 O3 1_555 1_555
O4 S1 1_555 1_555
O5 S1 1_555 1_555
C16 S1 1_555 1_555
H17 C16 1_555 1_555
H18 C16 1_555 1_555
H19 C16 1_555 1_555
N2 C8 1_555 1_555
C6 O2 1_555 1_555
C14 C15 1_555 1_555

#END
