
#######################################################################
#
#                 Cambridge Crystallographic Data Centre
#                                CCDC 
#
#######################################################################
#
# If this CIF has been generated from an entry in the Cambridge 
# Structural Database, then it will include bibliographic, chemical, 
# crystal, experimental, refinement or atomic coordinate data resulting 
# from the CCDC's data processing and validation procedures.
#
#######################################################################

data_POZBOW
_chemical_formula_moiety         'C16 H16 Br1 N1 O2'
_chemical_name_systematic        3-Phenylaminoxyl-4-(4-bromophenyl)-2-butanone
_symmetry_cell_setting           monoclinic
_symmetry_space_group_name_H-M   'C 2'
_symmetry_Int_Tables_number      5
_space_group_name_Hall           'C 2y'
loop_
_symmetry_equiv_pos_site_id
_symmetry_equiv_pos_as_xyz
1 x,y,z
2 -x,y,-z
3 1/2+x,1/2+y,z
4 1/2-x,1/2+y,-z
_cell_length_a                   32.049(16)
_cell_length_b                   5.537(3)
_cell_length_c                   8.899(4)
_cell_angle_alpha                90
_cell_angle_beta                 93.283(7)
_cell_angle_gamma                90
_cell_volume                     1576.58
_exptl_crystal_colour            'pale yellow'
_exptl_crystal_description       prism
_cell_formula_units_Z            4
loop_
_atom_site_label
_atom_site_type_symbol
_atom_site_fract_x
_atom_site_fract_y
_atom_site_fract_z
Br1 Br 0.71976(2) 0.5947(3) 0.15509(8)
O1 O 0.96417(16) 0.2314(10) 0.6212(6)
O2 O 0.90546(13) 0.7417(7) 0.4998(5)
N1 N 0.93766(14) 0.8268(9) 0.4081(5)
H1 H 0.9500(17) 0.946(8) 0.452(6)
C1 C 0.91123(18) 0.4913(10) 0.5249(7)
H2 H 0.9142 0.4113 0.4279
C2 C 0.87142(17) 0.3995(13) 0.5924(7)
H3 H 0.8742 0.2278 0.6122
H4 H 0.8680 0.4804 0.6876
C3 C 0.83304(18) 0.4432(12) 0.4890(7)
C4 C 0.80887(18) 0.6474(13) 0.5012(6)
H5 H 0.8156 0.7568 0.5781
C5 C 0.77548(19) 0.6938(13) 0.4045(8)
H6 H 0.7589 0.8296 0.4160
C6 C 0.7673(2) 0.5365(18) 0.2916(8)
C7 C 0.7896(2) 0.3294(15) 0.2726(8)
H7 H 0.7824 0.2225 0.1948
C8 C 0.8229(2) 0.2850(12) 0.3726(7)
H8 H 0.8389 0.1466 0.3618
C9 C 0.94914(18) 0.4346(14) 0.6277(7)
C10 C 0.96461(19) 0.6140(17) 0.7379(7)
H9 H 0.9883 0.5495 0.7957
H10 H 0.9429 0.6530 0.8039
H11 H 0.9728 0.7572 0.6865
C11 C 0.92187(17) 0.8930(11) 0.2633(6)
C12 C 0.9425(2) 1.0620(17) 0.1845(8)
H12 H 0.9647 1.1473 0.2305
C13 C 0.9304(3) 1.105(2) 0.0384(9)
H13 H 0.9466 1.2061 -0.0180
C14 C 0.8952(3) 1.005(2) -0.0283(9)
H14 H 0.8858 1.0477 -0.1254
C15 C 0.8745(3) 0.843(2) 0.0493(9)
H15 H 0.8508 0.7708 0.0046
C16 C 0.88738(18) 0.7811(12) 0.1935(7)
H16 H 0.8729 0.6639 0.2445
loop_
_geom_bond_atom_site_label_1
_geom_bond_atom_site_label_2
_geom_bond_site_symmetry_1
_geom_bond_site_symmetry_2
Br1 C6 1_555 1_555
O1 C9 1_555 1_555
O2 N1 1_555 1_555
N1 H1 1_555 1_555
C1 O2 1_555 1_555
H2 C1 1_555 1_555
C2 C1 1_555 1_555
H3 C2 1_555 1_555
H4 C2 1_555 1_555
C3 C2 1_555 1_555
C4 C3 1_555 1_555
H5 C4 1_555 1_555
C5 C4 1_555 1_555
H6 C5 1_555 1_555
C6 C5 1_555 1_555
C7 C6 1_555 1_555
H7 C7 1_555 1_555
C8 C3 1_555 1_555
H8 C8 1_555 1_555
C9 C1 1_555 1_555
C10 C9 1_555 1_555
H9 C10 1_555 1_555
H10 C10 1_555 1_555
H11 C10 1_555 1_555
C11 N1 1_555 1_555
C12 C11 1_555 1_555
H12 C12 1_555 1_555
C13 C12 1_555 1_555
H13 C13 1_555 1_555
C14 C13 1_555 1_555
H14 C14 1_555 1_555
C15 C14 1_555 1_555
H15 C15 1_555 1_555
C16 C11 1_555 1_555
H16 C16 1_555 1_555
C7 C8 1_555 1_555
C15 C16 1_555 1_555

#END
