
#######################################################################
#
#                 Cambridge Crystallographic Data Centre
#                                CCDC 
#
#######################################################################
#
# If this CIF has been generated from an entry in the Cambridge 
# Structural Database, then it will include bibliographic, chemical, 
# crystal, experimental, refinement or atomic coordinate data resulting 
# from the CCDC's data processing and validation procedures.
#
#######################################################################

data_POZDAK
_chemical_formula_moiety         'C23 H17 Cl1 O3'
_chemical_name_systematic        
trans-2-Benzoyl-3-(4-chloro)benzoylmethyl-2,3-dihydrobenzofuran
_symmetry_cell_setting           monoclinic
_symmetry_space_group_name_H-M   'P 21/n'
_symmetry_Int_Tables_number      14
_space_group_name_Hall           '-P 2yn'
loop_
_symmetry_equiv_pos_site_id
_symmetry_equiv_pos_as_xyz
1 x,y,z
2 1/2-x,1/2+y,1/2-z
3 -x,-y,-z
4 1/2+x,1/2-y,1/2+z
_cell_length_a                   8.6018(16)
_cell_length_b                   23.854(5)
_cell_length_c                   9.8911(19)
_cell_angle_alpha                90
_cell_angle_beta                 115.229(3)
_cell_angle_gamma                90
_cell_volume                     1835.93
_exptl_crystal_colour            colorless
_exptl_crystal_description       needle
_chemical_melting_point          125-126deg.C
_cell_formula_units_Z            4
_exptl_crystal_recrystallization_method 'ethyl acetate/hexane'
loop_
_atom_site_label
_atom_site_type_symbol
_atom_site_fract_x
_atom_site_fract_y
_atom_site_fract_z
Cl1 Cl 0.2186(2) -0.01890(7) 0.5509(2)
O1 O 0.3878(5) 0.24093(14) 0.4099(4)
O2 O 0.2521(4) 0.34771(13) 0.0208(3)
C1 C 0.3094(6) 0.14552(19) 0.3736(5)
C2 C 0.3299(6) 0.20749(18) 0.1680(5)
H1 H 0.2093 0.2050 0.0991
H2 H 0.3892 0.1767 0.1461
C3 C 0.3054(6) 0.31447(18) 0.1576(5)
H3 H 0.2045 0.3030 0.1728
C4 C 0.4018(6) 0.26253(18) 0.1415(5)
H4 H 0.5235 0.2655 0.2112
O3 O 0.5687(5) 0.35879(16) 0.3139(4)
C5 C 0.3834(5) 0.26958(19) -0.0154(5)
C6 C 0.3470(6) 0.20102(19) 0.3252(5)
C7 C 0.3210(7) 0.0448(2) 0.3805(7)
H5 H 0.3513 0.0112 0.3504
C8 C 0.3036(6) 0.31957(19) -0.0735(5)
C9 C 0.3477(7) 0.0948(2) 0.3257(6)
H6 H 0.3924 0.0948 0.2551
C10 C 0.4113(7) 0.2547(3) -0.2425(6)
H7 H 0.4462 0.2324 -0.3016
C11 C 0.4173(6) 0.35490(19) 0.2826(5)
C12 C 0.2358(6) 0.1441(2) 0.4740(5)
H8 H 0.2063 0.1775 0.5056
C13 C 0.4364(6) 0.2367(2) -0.1020(5)
H9 H 0.4891 0.2024 -0.0660
C14 C 0.2055(6) 0.0938(2) 0.5276(6)
H10 H 0.1563 0.0931 0.5950
C15 C 0.3349(6) 0.39036(19) 0.3583(5)
C16 C 0.2494(6) 0.0450(2) 0.4796(6)
C17 C 0.1586(7) 0.3951(2) 0.3066(6)
H11 H 0.0864 0.3761 0.2206
C18 C 0.4384(8) 0.4194(2) 0.4856(6)
H12 H 0.5572 0.4175 0.5204
C19 C 0.3343(7) 0.3057(3) -0.2949(6)
H13 H 0.3205 0.3178 -0.3887
C20 C 0.2778(7) 0.3391(2) -0.2129(5)
H14 H 0.2246 0.3734 -0.2492
C21 C 0.1951(9) 0.4556(3) 0.5098(7)
H15 H 0.1485 0.4775 0.5611
C22 C 0.0898(8) 0.4278(3) 0.3821(7)
H16 H -0.0289 0.4310 0.3464
C23 C 0.3691(9) 0.4508(3) 0.5609(7)
H17 H 0.4410 0.4692 0.6482
loop_
_geom_bond_atom_site_label_1
_geom_bond_atom_site_label_2
_geom_bond_site_symmetry_1
_geom_bond_site_symmetry_2
Cl1 C16 1_555 1_555
O1 C6 1_555 1_555
O2 C3 1_555 1_555
C1 C6 1_555 1_555
C2 H1 1_555 1_555
H2 C2 1_555 1_555
C3 H3 1_555 1_555
C4 C2 1_555 1_555
H4 C4 1_555 1_555
O3 C11 1_555 1_555
C5 C4 1_555 1_555
C6 C2 1_555 1_555
C7 H5 1_555 1_555
C8 O2 1_555 1_555
C9 C1 1_555 1_555
H6 C9 1_555 1_555
C10 H7 1_555 1_555
C11 C3 1_555 1_555
C12 C1 1_555 1_555
H8 C12 1_555 1_555
C13 C5 1_555 1_555
H9 C13 1_555 1_555
C14 C12 1_555 1_555
H10 C14 1_555 1_555
C15 C11 1_555 1_555
C16 C7 1_555 1_555
C17 C15 1_555 1_555
H11 C17 1_555 1_555
C18 C15 1_555 1_555
H12 C18 1_555 1_555
C19 C10 1_555 1_555
H13 C19 1_555 1_555
C20 C8 1_555 1_555
H14 C20 1_555 1_555
C21 H15 1_555 1_555
C22 C17 1_555 1_555
H16 C22 1_555 1_555
C23 C18 1_555 1_555
H17 C23 1_555 1_555
C3 C4 1_555 1_555
C5 C8 1_555 1_555
C7 C9 1_555 1_555
C10 C13 1_555 1_555
C14 C16 1_555 1_555
C19 C20 1_555 1_555
C21 C22 1_555 1_555
C21 C23 1_555 1_555

#END
