
#######################################################################
#
#                 Cambridge Crystallographic Data Centre
#                                CCDC 
#
#######################################################################
#
# If this CIF has been generated from an entry in the Cambridge 
# Structural Database, then it will include bibliographic, chemical, 
# crystal, experimental, refinement or atomic coordinate data resulting 
# from the CCDC's data processing and validation procedures.
#
#######################################################################

data_POZFOA
_chemical_compound_source        'Malaysian liverwort Chandonanthus hirtellus'
_chemical_name_common            
2alpha,10alpha-Diacetoxy-7,8,18,19-diepoxydolabell-3(E)-en-14-one
_chemical_formula_moiety         'C24 H34 O7'
_chemical_name_systematic        
'4,6a,11a-Trimethyl-9-(2-methyl-2-oxiranyl)-7-oxo-1a,2,3,6,6a,7,8,9,9a,10,11,11a-dodecahydrocyclopenta[5,6]cycloundeca-[1,2-b]oxirene-6,10-diyl diacetate'
_symmetry_cell_setting           triclinic
_symmetry_space_group_name_H-M   'P 1'
_symmetry_Int_Tables_number      1
_space_group_name_Hall           'P 1'
loop_
_symmetry_equiv_pos_site_id
_symmetry_equiv_pos_as_xyz
1 x,y,z
_cell_length_a                   8.9853(4)
_cell_length_b                   9.5870(4)
_cell_length_c                   14.4060(6)
_cell_angle_alpha                76.7830(10)
_cell_angle_beta                 82.8560(10)
_cell_angle_gamma                86.1660(10)
_cell_volume                     1197.76
_exptl_crystal_colour            colorless
_exptl_crystal_description       'rectangular block'
_chemical_melting_point          163.1-164.7deg.C
_cell_formula_units_Z            2
_exptl_crystal_recrystallization_method methanol
loop_
_atom_site_label
_atom_site_type_symbol
_atom_site_fract_x
_atom_site_fract_y
_atom_site_fract_z
O1 O 0.61146(18) 0.2340(2) 0.56050(12)
O2 O 0.8455(2) 0.1866(3) 0.50235(16)
O3 O 0.2182(2) -0.1978(2) 0.82736(16)
O4 O 0.29150(18) 0.24618(16) 0.89464(11)
O5 O 0.4278(2) 0.1019(2) 1.00031(13)
O6 O 0.6783(2) 0.5139(2) 0.62659(14)
O7 O 0.0385(2) 0.3762(2) 0.76977(16)
C1 C 0.5571(2) 0.2971(3) 0.71247(16)
C2 C 0.6523(2) 0.1951(3) 0.65879(16)
H1 H 0.7593 0.2099 0.6586
C3 C 0.6210(3) 0.0395(3) 0.69605(17)
H2 H 0.5322 0.0111 0.6802
C4 C 0.7005(3) -0.0636(3) 0.74809(19)
C5 C 0.6491(3) -0.2160(3) 0.7803(2)
H3 H 0.7168 -0.2754 0.7463
H4 H 0.6608 -0.2484 0.8480
C6 C 0.4905(4) -0.2441(3) 0.7669(2)
H5 H 0.4794 -0.2200 0.6989
H6 H 0.4736 -0.3456 0.7904
C7 C 0.3729(3) -0.1600(3) 0.8180(2)
H7 H 0.4033 -0.1390 0.8762
C8 C 0.2615(3) -0.0562(3) 0.77295(19)
C9 C 0.2091(3) 0.0647(3) 0.82148(19)
H8 H 0.1675 0.0251 0.8869
H9 H 0.1299 0.1209 0.7883
C10 C 0.3365(2) 0.1635(2) 0.82272(15)
H10 H 0.4241 0.1024 0.8425
C11 C 0.3861(2) 0.2665(2) 0.72760(16)
H11 H 0.3668 0.2207 0.6763
C12 C 0.3058(3) 0.4173(3) 0.70825(18)
H12 H 0.3088 0.4576 0.7646
C13 C 0.4112(3) 0.5028(3) 0.62542(19)
H13 H 0.3929 0.4846 0.5644
H14 H 0.3982 0.6049 0.6226
C14 C 0.5649(3) 0.4485(3) 0.64952(17)
C15 C 0.6266(3) 0.2983(3) 0.80406(18)
H15 H 0.7264 0.3331 0.7874
H16 H 0.6306 0.2028 0.8431
H17 H 0.5665 0.3599 0.8391
C16 C 0.8487(4) -0.0405(5) 0.7783(3)
H18 H 0.8818 0.0530 0.7457
H19 H 0.9210 -0.1120 0.7622
H20 H 0.8382 -0.0477 0.8463
C17 C 0.2432(3) -0.0347(3) 0.6679(2)
H21 H 0.3081 0.0386 0.6312
H22 H 0.1409 -0.0063 0.6580
H23 H 0.2690 -0.1228 0.6476
C18 C 0.1443(3) 0.4253(3) 0.6870(2)
C19 C 0.0405(4) 0.5266(4) 0.7271(3)
H24 H 0.0815 0.5886 0.7613
H25 H -0.0421 0.5691 0.6913
C20 C 0.1101(4) 0.3829(4) 0.5983(3)
H26 H 0.1535 0.2890 0.5971
H27 H 0.1516 0.4506 0.5427
H28 H 0.0034 0.3821 0.5982
C21 C 0.7193(3) 0.2248(3) 0.48915(19)
C22 C 0.6579(4) 0.2618(3) 0.3949(2)
H29 H 0.7392 0.2758 0.3441
H30 H 0.5964 0.3484 0.3905
H31 H 0.5986 0.1852 0.3892
C23 C 0.3471(3) 0.2040(3) 0.97964(17)
C24 C 0.2934(5) 0.3033(4) 1.0430(2)
H32 H 0.3250 0.2662 1.1055
H33 H 0.1858 0.3125 1.0482
H34 H 0.3346 0.3957 1.0163
O8 O 1.11814(19) 0.52810(17) 0.27934(13)
O9 O 1.3232(3) 0.4622(3) 0.3523(2)
O10 O 0.62627(19) 0.8968(2) 0.43218(13)
O11 O 0.83856(19) 1.01131(16) 0.11149(11)
O12 O 0.8893(3) 1.1888(2) 0.17794(15)
O13 O 1.2758(2) 0.6331(2) 0.07471(17)
O14 O 0.7236(3) 0.5749(2) 0.02887(18)
C25 C 1.0970(2) 0.7567(2) 0.17104(17)
C26 C 1.1523(3) 0.6788(3) 0.26666(19)
H35 H 1.2611 0.6874 0.2630
C27 C 1.0771(3) 0.7281(3) 0.35201(18)
H36 H 0.9787 0.7005 0.3709
C28 C 1.1292(3) 0.8054(3) 0.4050(2)
C29 C 1.0347(3) 0.8475(3) 0.4886(2)
H37 H 1.0420 0.9500 0.4814
H38 H 1.0790 0.8007 0.5464
C30 C 0.8683(3) 0.8146(3) 0.50467(19)
H39 H 0.8582 0.7118 0.5157
H40 H 0.8221 0.8456 0.5615
C31 C 0.7880(3) 0.8881(3) 0.42039(17)
H41 H 0.8336 0.9769 0.3836
C32 C 0.7026(2) 0.8186(3) 0.36381(17)
C33 C 0.6957(2) 0.8924(3) 0.25954(17)
H42 H 0.6500 0.9878 0.2562
H43 H 0.6319 0.8393 0.2316
C34 C 0.8495(2) 0.9048(2) 0.20028(16)
H44 H 0.9182 0.9399 0.2368
C35 C 0.9225(2) 0.7674(2) 0.17342(16)
H45 H 0.8835 0.6866 0.2235
C36 C 0.8908(3) 0.7389(3) 0.07614(18)
H46 H 0.9090 0.8272 0.0270
C37 C 1.0138(3) 0.6273(3) 0.0566(2)
H47 H 0.9838 0.5313 0.0884
H48 H 1.0357 0.6323 -0.0117
C38 C 1.1464(3) 0.6658(3) 0.0964(2)
C39 C 1.1724(3) 0.9001(3) 0.1358(2)
H49 H 1.1517 0.9556 0.1839
H50 H 1.1340 0.9513 0.0777
H51 H 1.2788 0.8836 0.1236
C40 C 1.2855(3) 0.8575(4) 0.3878(3)
H52 H 1.3420 0.8173 0.3384
H53 H 1.3325 0.8284 0.4459
H54 H 1.2825 0.9602 0.3680
C41 C 0.6737(3) 0.6611(3) 0.3912(2)
H55 H 0.6733 0.6275 0.4593
H56 H 0.7512 0.6099 0.3588
H57 H 0.5781 0.6453 0.3729
C42 C 0.7327(3) 0.6953(3) 0.07274(19)
C43 C 0.6796(4) 0.5589(4) 0.1298(3)
H58 H 0.7452 0.5013 0.1736
H59 H 0.5733 0.5531 0.1521
C44 C 0.6187(3) 0.8131(3) 0.0403(2)
H60 H 0.6503 0.8629 -0.0242
H61 H 0.6099 0.8791 0.0819
H62 H 0.5231 0.7725 0.0425
C45 C 1.2142(4) 0.4308(3) 0.3237(2)
C46 C 1.1634(5) 0.2820(3) 0.3346(3)
H63 H 1.2491 0.2164 0.3366
H64 H 1.1110 0.2780 0.2812
H65 H 1.0975 0.2561 0.3931
C47 C 0.8610(3) 1.1483(3) 0.1100(2)
C48 C 0.8462(5) 1.2405(3) 0.0130(2)
H66 H 0.8657 1.3378 0.0129
H67 H 0.7463 1.2360 -0.0029
H68 H 0.9172 1.2072 -0.0335
loop_
_geom_bond_atom_site_label_1
_geom_bond_atom_site_label_2
_geom_bond_site_symmetry_1
_geom_bond_site_symmetry_2
O1 C2 1_555 1_555
O2 C21 1_555 1_555
O3 C7 1_555 1_555
O4 C10 1_555 1_555
O5 C23 1_555 1_555
O6 C14 1_555 1_555
O7 C18 1_555 1_555
C1 C2 1_555 1_555
C2 H1 1_555 1_555
C3 C2 1_555 1_555
H2 C3 1_555 1_555
C4 C3 1_555 1_555
C5 C4 1_555 1_555
H3 C5 1_555 1_555
H4 C5 1_555 1_555
C6 C5 1_555 1_555
H5 C6 1_555 1_555
H6 C6 1_555 1_555
C7 C6 1_555 1_555
H7 C7 1_555 1_555
C8 O3 1_555 1_555
C9 C8 1_555 1_555
H8 C9 1_555 1_555
H9 C9 1_555 1_555
C10 C9 1_555 1_555
H10 C10 1_555 1_555
C11 C1 1_555 1_555
H11 C11 1_555 1_555
C12 C11 1_555 1_555
H12 C12 1_555 1_555
C13 C12 1_555 1_555
H13 C13 1_555 1_555
H14 C13 1_555 1_555
C14 C1 1_555 1_555
C15 C1 1_555 1_555
H15 C15 1_555 1_555
H16 C15 1_555 1_555
H17 C15 1_555 1_555
C16 C4 1_555 1_555
H18 C16 1_555 1_555
H19 C16 1_555 1_555
H20 C16 1_555 1_555
C17 C8 1_555 1_555
H21 C17 1_555 1_555
H22 C17 1_555 1_555
H23 C17 1_555 1_555
C18 C12 1_555 1_555
C19 O7 1_555 1_555
H24 C19 1_555 1_555
H25 C19 1_555 1_555
C20 C18 1_555 1_555
H26 C20 1_555 1_555
H27 C20 1_555 1_555
H28 C20 1_555 1_555
C21 O1 1_555 1_555
C22 C21 1_555 1_555
H29 C22 1_555 1_555
H30 C22 1_555 1_555
H31 C22 1_555 1_555
C23 O4 1_555 1_555
C24 C23 1_555 1_555
H32 C24 1_555 1_555
H33 C24 1_555 1_555
H34 C24 1_555 1_555
O8 C26 1_555 1_555
O9 C45 1_555 1_555
O10 C31 1_555 1_555
O11 C34 1_555 1_555
O12 C47 1_555 1_555
O13 C38 1_555 1_555
O14 C42 1_555 1_555
C25 C26 1_555 1_555
C26 H35 1_555 1_555
C27 C26 1_555 1_555
H36 C27 1_555 1_555
C28 C27 1_555 1_555
C29 C28 1_555 1_555
H37 C29 1_555 1_555
H38 C29 1_555 1_555
C30 C29 1_555 1_555
H39 C30 1_555 1_555
H40 C30 1_555 1_555
C31 C30 1_555 1_555
H41 C31 1_555 1_555
C32 O10 1_555 1_555
C33 C32 1_555 1_555
H42 C33 1_555 1_555
H43 C33 1_555 1_555
C34 C33 1_555 1_555
H44 C34 1_555 1_555
C35 C25 1_555 1_555
H45 C35 1_555 1_555
C36 C35 1_555 1_555
H46 C36 1_555 1_555
C37 C36 1_555 1_555
H47 C37 1_555 1_555
H48 C37 1_555 1_555
C38 C25 1_555 1_555
C39 C25 1_555 1_555
H49 C39 1_555 1_555
H50 C39 1_555 1_555
H51 C39 1_555 1_555
C40 C28 1_555 1_555
H52 C40 1_555 1_555
H53 C40 1_555 1_555
H54 C40 1_555 1_555
C41 C32 1_555 1_555
H55 C41 1_555 1_555
H56 C41 1_555 1_555
H57 C41 1_555 1_555
C42 C36 1_555 1_555
C43 O14 1_555 1_555
H58 C43 1_555 1_555
H59 C43 1_555 1_555
C44 C42 1_555 1_555
H60 C44 1_555 1_555
H61 C44 1_555 1_555
H62 C44 1_555 1_555
C45 O8 1_555 1_555
C46 C45 1_555 1_555
H63 C46 1_555 1_555
H64 C46 1_555 1_555
H65 C46 1_555 1_555
C47 O11 1_555 1_555
C48 C47 1_555 1_555
H66 C48 1_555 1_555
H67 C48 1_555 1_555
H68 C48 1_555 1_555
C7 C8 1_555 1_555
C10 C11 1_555 1_555
C13 C14 1_555 1_555
C18 C19 1_555 1_555
C31 C32 1_555 1_555
C34 C35 1_555 1_555
C37 C38 1_555 1_555
C42 C43 1_555 1_555

#END
