
#######################################################################
#
#                 Cambridge Crystallographic Data Centre
#                                CCDC 
#
#######################################################################
#
# If this CIF has been generated from an entry in the Cambridge 
# Structural Database, then it will include bibliographic, chemical, 
# crystal, experimental, refinement or atomic coordinate data resulting 
# from the CCDC's data processing and validation procedures.
#
#######################################################################

data_POZJAQ
_chemical_formula_moiety         'C24 H18 F3 N1 O2'
_chemical_name_systematic        
'3-Benzylidene-4-(4-methoxyphenyl)-2-(4-(trifluoromethyl)phenyl)-2,3-dihydroazete 1-oxide'
_symmetry_cell_setting           triclinic
_symmetry_space_group_name_H-M   'P -1'
_symmetry_Int_Tables_number      2
_space_group_name_Hall           '-P 1'
loop_
_symmetry_equiv_pos_site_id
_symmetry_equiv_pos_as_xyz
1 x,y,z
2 -x,-y,-z
_cell_length_a                   9.800(4)
_cell_length_b                   9.819(4)
_cell_length_c                   21.005(8)
_cell_angle_alpha                79.398(11)
_cell_angle_beta                 80.237(11)
_cell_angle_gamma                79.763(12)
_cell_volume                     1935.43
_exptl_crystal_colour            colorless
_exptl_crystal_description       prism
_cell_formula_units_Z            4
loop_
_atom_site_label
_atom_site_type_symbol
_atom_site_fract_x
_atom_site_fract_y
_atom_site_fract_z
F1 F 0.2191(3) 0.02092(16) 0.48764(8)
F3 F 0.11935(18) -0.1522(3) 0.53670(8)
F5 F 0.33047(18) -0.18294(18) 0.49070(7)
O1 O 0.15315(14) -0.35267(14) 1.11593(6)
O2 O 0.23120(14) 0.07369(13) 0.82750(6)
N1 N 0.33001(15) -0.02760(15) 0.82087(7)
C1 C 0.17557(18) -0.15154(18) 1.03046(8)
C3 C 0.70499(18) -0.27510(18) 0.68906(8)
C4 C 0.37488(17) -0.14378(17) 0.85965(8)
C7 C 0.23188(18) -0.10251(18) 0.96677(8)
C9 C 0.85074(19) -0.37739(19) 0.76995(9)
C11 C 0.29251(19) -0.38540(19) 1.01505(9)
C14 C 0.49143(17) -0.18696(17) 0.80949(8)
C15 C 0.8170(2) -0.3017(2) 0.63955(9)
C18 C 0.9465(2) -0.3669(2) 0.65520(10)
C19 C 0.96320(19) -0.4032(2) 0.72035(10)
C21 C 0.60379(17) -0.28703(18) 0.80907(8)
C24 C 0.44226(17) -0.05544(18) 0.76251(8)
C25 C 0.0531(2) -0.2643(3) 1.15590(9)
C27 C 0.71951(17) -0.31187(17) 0.75482(8)
C28 C 0.38580(17) -0.06669(17) 0.70209(8)
C29 C 0.28611(18) -0.15359(19) 0.70431(9)
C31 C 0.43404(19) 0.01111(19) 0.64281(9)
C34 C 0.31881(17) -0.19367(17) 0.92645(8)
C40 C 0.2863(2) -0.0856(2) 0.58855(9)
C42 C 0.3851(2) 0.0014(2) 0.58605(9)
C43 C 0.34809(18) -0.33588(18) 0.95176(8)
C45 C 0.23683(19) -0.1631(2) 0.64754(9)
C47 C 0.20436(18) -0.29356(19) 1.05474(8)
C48 C 0.2373(3) -0.0987(3) 0.52670(10)
H1 H 0.1182 -0.0889 1.0570
H3 H 0.6166 -0.2306 0.6772
H8 H 0.2116 -0.0056 0.9499
H10 H 0.8644 -0.4050 0.8145
H11 H 0.3136 -0.4821 1.0321
H14 H 0.8036 -0.2748 0.5950
H17 H 1.0224 -0.3863 0.6219
H18 H 1.0523 -0.4465 0.7319
H19 H 0.6104 -0.3507 0.8488
H22 H 0.5103 0.0130 0.7533
H23 H 0.0962 -0.1859 1.1622
H24 H 0.0251 -0.3194 1.1985
H25 H -0.0296 -0.2279 1.1340
H27 H 0.2521 -0.2061 0.7448
H29 H 0.5009 0.0712 0.6413
H33 H 0.4189 0.0539 0.5456
H34 H 0.4062 -0.3986 0.9255
H35 H 0.1694 -0.2226 0.6489
F2 F 0.14357(15) 0.30670(18) 0.53956(6)
F4 F 0.34394(15) 0.3359(2) 0.48745(6)
F6 F 0.1871(3) 0.51216(17) 0.50123(9)
O3 O 0.16208(13) 0.13587(14) 1.11933(6)
O4 O 0.20846(14) 0.55960(14) 0.82687(6)
N2 N 0.31797(15) 0.46867(15) 0.82289(7)
C2 C 0.17194(18) 0.34115(19) 0.95500(9)
C5 C 0.01482(19) 0.1588(3) 1.14490(9)
C6 C 0.34712(18) 0.16339(19) 1.03294(8)
C8 C 0.11699(18) 0.28738(19) 1.01811(9)
C10 C 0.37037(18) 0.35878(17) 0.86305(8)
C12 C 0.74412(19) 0.3080(2) 0.70220(9)
C13 C 0.77228(18) 0.06162(19) 0.74171(9)
C16 C 0.8685(2) 0.0366(2) 0.68636(10)
C17 C 0.8410(2) 0.2825(3) 0.64691(10)
C20 C 0.49174(18) 0.32227(18) 0.81353(8)
C22 C 0.24423(18) 0.32358(19) 0.65164(9)
C23 C 0.59914(17) 0.21689(18) 0.80837(8)
C26 C 0.29400(18) 0.33635(18) 0.70784(8)
C30 C 0.9028(2) 0.1459(3) 0.63848(10)
C32 C 0.40098(17) 0.21608(18) 0.97011(8)
C33 C 0.70551(17) 0.19741(18) 0.75030(8)
C35 C 0.43635(18) 0.44968(18) 0.76647(8)
C36 C 0.29019(18) 0.40216(19) 0.59266(8)
C37 C 0.38864(17) 0.42915(17) 0.70494(8)
C38 C 0.20430(18) 0.19688(18) 1.05734(8)
C39 C 0.3857(2) 0.4935(2) 0.58908(9)
C41 C 0.31386(18) 0.30591(18) 0.92949(8)
C44 C 0.2399(2) 0.3910(2) 0.53079(9)
C46 C 0.4340(2) 0.50697(19) 0.64555(9)
H2 H 0.1118 0.4039 0.9281
H4 H -0.0386 0.1238 1.1176
H5 H -0.0169 0.2593 1.1447
H6 H 0.0000 0.1088 1.1898
H7 H 0.4077 0.1031 1.0604
H9 H 0.0208 0.3125 1.0340
H12 H 0.7042 0.4017 0.7071
H13 H 0.7514 -0.0153 0.7745
H15 H 0.9106 -0.0566 0.6818
H16 H 0.8651 0.3590 0.6146
H20 H 0.1791 0.2614 0.6536
H21 H 0.6078 0.1474 0.8460
H26 H 0.2638 0.2820 0.7484
H28 H 0.9671 0.1290 0.6005
H30 H 0.4974 0.1911 0.9545
H31 H 0.4967 0.5250 0.7582
H32 H 0.4174 0.5462 0.5483
H36 H 0.4985 0.5698 0.6435
loop_
_geom_bond_atom_site_label_1
_geom_bond_atom_site_label_2
_geom_bond_site_symmetry_1
_geom_bond_site_symmetry_2
F1 C48 1_555 1_555
F2 C44 1_555 1_555
F3 C48 1_555 1_555
F4 C44 1_555 1_555
F5 C48 1_555 1_555
F6 C44 1_555 1_555
O1 C25 1_555 1_555
O2 N1 1_555 1_555
O3 C5 1_555 1_555
O4 N2 1_555 1_555
N1 C4 1_555 1_555
N2 C10 1_555 1_555
C1 C7 1_555 1_555
C2 C8 1_555 1_555
C3 C15 1_555 1_555
C4 C14 1_555 1_555
C5 H4 1_555 1_555
C6 C32 1_555 1_555
C7 C34 1_555 1_555
C8 C38 1_555 1_555
C9 C19 1_555 1_555
C10 C20 1_555 1_555
C11 C43 1_555 1_555
C12 C17 1_555 1_555
C13 C16 1_555 1_555
C14 C21 1_555 1_555
C15 C18 1_555 1_555
C16 C30 1_555 1_555
C17 C30 1_555 1_555
C18 C19 1_555 1_555
C19 H18 1_555 1_555
C20 C23 1_555 1_555
C21 C27 1_555 1_555
C22 C26 1_555 1_555
C23 C33 1_555 1_555
C24 N1 1_555 1_555
C25 H23 1_555 1_555
C26 C37 1_555 1_555
C27 C3 1_555 1_555
C28 C24 1_555 1_555
C29 C28 1_555 1_555
C30 H28 1_555 1_555
C31 C28 1_555 1_555
C32 C41 1_555 1_555
C33 C12 1_555 1_555
C34 C4 1_555 1_555
C35 N2 1_555 1_555
C36 C22 1_555 1_555
C37 C35 1_555 1_555
C38 O3 1_555 1_555
C39 C36 1_555 1_555
C40 C42 1_555 1_555
C41 C2 1_555 1_555
C42 C31 1_555 1_555
C43 C34 1_555 1_555
C44 C36 1_555 1_555
C45 C29 1_555 1_555
C46 C37 1_555 1_555
C47 O1 1_555 1_555
C48 C40 1_555 1_555
H1 C1 1_555 1_555
H2 C2 1_555 1_555
H3 C3 1_555 1_555
H5 C5 1_555 1_555
H6 C5 1_555 1_555
H7 C6 1_555 1_555
H8 C7 1_555 1_555
H9 C8 1_555 1_555
H10 C9 1_555 1_555
H11 C11 1_555 1_555
H12 C12 1_555 1_555
H13 C13 1_555 1_555
H14 C15 1_555 1_555
H15 C16 1_555 1_555
H16 C17 1_555 1_555
H17 C18 1_555 1_555
H19 C21 1_555 1_555
H20 C22 1_555 1_555
H21 C23 1_555 1_555
H22 C24 1_555 1_555
H24 C25 1_555 1_555
H25 C25 1_555 1_555
H26 C26 1_555 1_555
H27 C29 1_555 1_555
H29 C31 1_555 1_555
H30 C32 1_555 1_555
H31 C35 1_555 1_555
H32 C39 1_555 1_555
H33 C42 1_555 1_555
H34 C43 1_555 1_555
H35 C45 1_555 1_555
H36 C46 1_555 1_555
C1 C47 1_555 1_555
C6 C38 1_555 1_555
C9 C27 1_555 1_555
C10 C41 1_555 1_555
C11 C47 1_555 1_555
C13 C33 1_555 1_555
C14 C24 1_555 1_555
C20 C35 1_555 1_555
C39 C46 1_555 1_555
C40 C45 1_555 1_555

#END
