
#######################################################################
#
#                 Cambridge Crystallographic Data Centre
#                                CCDC 
#
#######################################################################
#
# If this CIF has been generated from an entry in the Cambridge 
# Structural Database, then it will include bibliographic, chemical, 
# crystal, experimental, refinement or atomic coordinate data resulting 
# from the CCDC's data processing and validation procedures.
#
#######################################################################

data_POZRUS
_chemical_formula_moiety         'C16 H24 N2 O7'
_chemical_name_systematic        
(2R,3a'R,6'S,7a'R)-3-Acetyl-2',2',2'',2'',5-pentamethyl-3a',7a'-dihydro-3H,4'H-dispiro(1,3,4-oxadiazole-2,7'-(1,3)dioxolo[4,5-c]pyran-6',4''-(1,3)dioxolane)
_chemical_properties_biological  'cytotoxic activity'
_symmetry_cell_setting           orthorhombic
_symmetry_space_group_name_H-M   'P 21 21 21'
_symmetry_Int_Tables_number      19
_space_group_name_Hall           'P 2ac 2ab'
loop_
_symmetry_equiv_pos_site_id
_symmetry_equiv_pos_as_xyz
1 x,y,z
2 1/2-x,-y,1/2+z
3 -x,1/2+y,1/2-z
4 1/2+x,1/2-y,-z
_cell_length_a                   11.063(2)
_cell_length_b                   11.672(2)
_cell_length_c                   14.251(3)
_cell_angle_alpha                90
_cell_angle_beta                 90
_cell_angle_gamma                90
_cell_volume                     1840.19
_exptl_crystal_colour            colorless
_exptl_crystal_description       block
_chemical_melting_point          '126-128 deg.C'
_cell_formula_units_Z            4
_exptl_crystal_recrystallization_method 'ethyl acetate/cyclohexane'
loop_
_atom_site_label
_atom_site_type_symbol
_atom_site_fract_x
_atom_site_fract_y
_atom_site_fract_z
O1 O 0.97979(18) 0.52140(16) 0.72198(12)
O2 O 1.13980(17) 0.40192(16) 0.61588(15)
O3 O 0.98513(17) 0.71123(14) 0.61427(12)
O4 O 0.95964(18) 0.56237(18) 0.51130(12)
O5 O 1.29960(18) 0.51158(15) 0.67428(12)
O6 O 1.3203(2) 0.3944(2) 0.79900(16)
O7 O 1.26928(19) 0.75446(17) 0.74921(14)
N1 N 1.1167(2) 0.6369(2) 0.79099(15)
N2 N 1.0203(3) 0.6184(2) 0.85427(16)
C1 C 0.9466(3) 0.5542(3) 0.8117(2)
C2 C 1.0968(2) 0.5702(2) 0.70369(18)
C3 C 1.0937(2) 0.6441(2) 0.61583(18)
H1 H 1.1645 0.6945 0.6142
C4 C 1.0865(3) 0.5743(3) 0.52523(18)
H2 H 1.1206 0.6194 0.4736
C5 C 1.1469(3) 0.4590(3) 0.5277(2)
H3 H 1.1103 0.4106 0.4802
H4 H 1.2314 0.4687 0.5113
C6 C 1.1839(3) 0.4686(2) 0.69121(19)
C7 C 1.1971(3) 0.3895(3) 0.7760(2)
H5 H 1.1478 0.4161 0.8279
H6 H 1.1734 0.3118 0.7602
C8 C 1.3862(3) 0.4384(3) 0.7213(2)
C9 C 1.4862(3) 0.5124(3) 0.7582(2)
H7 H 1.5314 0.5434 0.7067
H8 H 1.5387 0.4672 0.7971
H9 H 1.4525 0.5738 0.7946
C10 C 1.4298(3) 0.3465(3) 0.6570(3)
H10 H 1.4737 0.3804 0.6059
H11 H 1.3619 0.3046 0.6328
H12 H 1.4820 0.2953 0.6908
C11 C 0.9079(3) 0.6702(3) 0.5391(2)
C12 C 0.9137(3) 0.7578(3) 0.4591(2)
H13 H 0.8794 0.8291 0.4797
H14 H 0.8688 0.7297 0.4062
H15 H 0.9964 0.7697 0.4412
C13 C 0.7836(2) 0.6481(3) 0.5741(2)
H16 H 0.7470 0.7191 0.5928
H17 H 0.7871 0.5972 0.6269
H18 H 0.7363 0.6137 0.5251
C14 C 1.1936(3) 0.7261(3) 0.8069(2)
C15 C 1.1790(3) 0.7911(2) 0.89736(19)
H19 H 1.1157 0.7569 0.9339
H20 H 1.1587 0.8693 0.8839
H21 H 1.2534 0.7885 0.9320
C16 C 0.8289(3) 0.5111(3) 0.8453(2)
H22 H 0.7934 0.4629 0.7981
H23 H 0.7762 0.5746 0.8577
H24 H 0.8406 0.4677 0.9018
loop_
_geom_bond_atom_site_label_1
_geom_bond_atom_site_label_2
_geom_bond_site_symmetry_1
_geom_bond_site_symmetry_2
O1 C1 1_555 1_555
O2 C5 1_555 1_555
O3 C3 1_555 1_555
O4 C4 1_555 1_555
O5 C6 1_555 1_555
O6 C7 1_555 1_555
O7 C14 1_555 1_555
N1 N2 1_555 1_555
N2 C1 1_555 1_555
C1 C16 1_555 1_555
C2 O1 1_555 1_555
C3 C2 1_555 1_555
H1 C3 1_555 1_555
C4 C3 1_555 1_555
H2 C4 1_555 1_555
C5 C4 1_555 1_555
H3 C5 1_555 1_555
H4 C5 1_555 1_555
C6 O2 1_555 1_555
C7 C6 1_555 1_555
H5 C7 1_555 1_555
H6 C7 1_555 1_555
C8 O5 1_555 1_555
C9 C8 1_555 1_555
H7 C9 1_555 1_555
H8 C9 1_555 1_555
H9 C9 1_555 1_555
C10 C8 1_555 1_555
H10 C10 1_555 1_555
H11 C10 1_555 1_555
H12 C10 1_555 1_555
C11 O3 1_555 1_555
C12 C11 1_555 1_555
H13 C12 1_555 1_555
H14 C12 1_555 1_555
H15 C12 1_555 1_555
C13 C11 1_555 1_555
H16 C13 1_555 1_555
H17 C13 1_555 1_555
H18 C13 1_555 1_555
C14 N1 1_555 1_555
C15 C14 1_555 1_555
H19 C15 1_555 1_555
H20 C15 1_555 1_555
H21 C15 1_555 1_555
C16 H22 1_555 1_555
H23 C16 1_555 1_555
H24 C16 1_555 1_555
O4 C11 1_555 1_555
O6 C8 1_555 1_555
N1 C2 1_555 1_555
C2 C6 1_555 1_555

#END
