
#######################################################################
#
#                 Cambridge Crystallographic Data Centre
#                                CCDC 
#
#######################################################################
#
# If this CIF has been generated from an entry in the Cambridge 
# Structural Database, then it will include bibliographic, chemical, 
# crystal, experimental, refinement or atomic coordinate data resulting 
# from the CCDC's data processing and validation procedures.
#
#######################################################################

data_POZYIN
_chemical_formula_moiety         'C27 H32 N5 O1 1+,C24 H20 B1 1-'
_chemical_name_systematic        
'3-Butyl-1-(6-((2-(butyl(formyl)amino)phenyl)amino)-2-pyridinyl)-1H-benzimidazol-3-ium tetraphenylborate'
_symmetry_cell_setting           monoclinic
_symmetry_space_group_name_H-M   'P 21/n'
_symmetry_Int_Tables_number      14
_space_group_name_Hall           '-P 2yn'
loop_
_symmetry_equiv_pos_site_id
_symmetry_equiv_pos_as_xyz
1 x,y,z
2 1/2-x,1/2+y,1/2-z
3 -x,-y,-z
4 1/2+x,1/2-y,1/2+z
_cell_length_a                   13.7656(5)
_cell_length_b                   16.9938(4)
_cell_length_c                   18.7677(6)
_cell_angle_alpha                90
_cell_angle_beta                 106.499(4)
_cell_angle_gamma                90
_cell_volume                     4209.55
_exptl_crystal_colour            colorless
_exptl_crystal_description       plate
_cell_formula_units_Z            4
_exptl_crystal_recrystallization_method methanol
loop_
_atom_site_label
_atom_site_type_symbol
_atom_site_fract_x
_atom_site_fract_y
_atom_site_fract_z
N1 N 0.24321(9) 0.51178(7) 0.46278(7)
C1 C 0.20403(12) 0.44013(8) 0.45751(9)
H1 H 0.214 0.4041 0.4976
N2 N 0.14859(10) 0.42569(6) 0.38789(7)
C2 C 0.15284(12) 0.49248(8) 0.34449(9)
C3 C 0.11068(12) 0.51045(9) 0.27000(9)
H2 H 0.0669 0.4748 0.2369
C4 C 0.13538(12) 0.58269(8) 0.24616(9)
H3 H 0.1088 0.5965 0.1953
C5 C 0.19835(12) 0.63593(9) 0.29471(9)
H4 H 0.2144 0.6846 0.2758
C6 C 0.23765(12) 0.61979(8) 0.36901(9)
H5 H 0.279 0.6565 0.4023
C7 C 0.21368(11) 0.54662(8) 0.39302(9)
C8 C 0.30184(12) 0.54900(8) 0.53250(9)
H6 H 0.355 0.583 0.5227
H7 H 0.3355 0.5079 0.5684
C9 C 0.23336(12) 0.59794(9) 0.56566(9)
H8 H 0.1751 0.5653 0.5688
H9 H 0.2064 0.6427 0.5322
C10 C 0.28705(12) 0.62950(9) 0.64256(9)
H10 H 0.3487 0.6585 0.6407
H11 H 0.3083 0.585 0.6776
C11 C 0.21796(14) 0.68414(10) 0.67041(10)
H12 H 0.1985 0.729 0.6365
H13 H 0.2539 0.7032 0.7202
H14 H 0.1571 0.6554 0.6724
C12 C 0.17970(12) 0.07398(9) 0.56572(9)
H15 H 0.1882 0.1126 0.5284
H16 H 0.1784 0.0208 0.5439
C13 C 0.26972(13) 0.07980(9) 0.63441(9)
H17 H 0.266 0.1307 0.6591
H18 H 0.3324 0.0802 0.6185
C14 C 0.27797(14) 0.01426(9) 0.69104(10)
H19 H 0.213 0.0104 0.7036
H20 H 0.3312 0.0283 0.737
C15 C 0.30288(17) -0.06588(10) 0.66435(12)
H21 H 0.2472 -0.0828 0.6218
H22 H 0.3121 -0.1043 0.7047
H23 H 0.3654 -0.0621 0.6494
N3 N 0.07752(9) 0.31404(6) 0.42274(7)
C16 C 0.09693(12) 0.35168(8) 0.36610(9)
C17 C 0.07497(13) 0.32575(9) 0.29463(9)
H24 H 0.0938 0.3546 0.2573
C18 C 0.02320(13) 0.25428(8) 0.27938(9)
H25 H 0.0028 0.2344 0.23
C19 C 0.00192(12) 0.21298(9) 0.33543(9)
H26 H -0.0334 0.1644 0.3256
C20 C 0.03305(11) 0.24342(8) 0.40773(9)
N4 N 0.08204(10) 0.08869(7) 0.58143(7)
C21 C 0.02259(13) 0.02867(9) 0.58952(9)
H27 H -0.0393 0.0413 0.5998
O1 O 0.04208(9) -0.04134(6) 0.58458(6)
N5 N 0.01814(9) 0.19939(7) 0.46512(7)
H28 H 0.0001 0.1501 0.4546
C22 C 0.02806(11) 0.22318(8) 0.53796(9)
C23 C 0.00514(11) 0.29968(8) 0.55541(9)
H29 H -0.0139 0.338 0.5171
C24 C 0.00981(12) 0.32036(9) 0.62736(9)
H30 H -0.0057 0.3727 0.6381
C25 C 0.03675(12) 0.26567(9) 0.68402(9)
H31 H 0.0395 0.28 0.7335
C26 C 0.05965(11) 0.18964(8) 0.66768(9)
H32 H 0.0781 0.1517 0.7063
C27 C 0.05600(11) 0.16818(8) 0.59586(9)
B1 B 0.43882(13) 0.25233(9) 0.49003(10)
C28 C 0.37217(11) 0.17228(8) 0.45874(8)
C29 C 0.40512(12) 0.09634(8) 0.48367(9)
H33 H 0.4682 0.0908 0.5206
C30 C 0.34966(12) 0.02878(9) 0.45676(9)
H34 H 0.375 -0.0214 0.4755
C31 C 0.25827(12) 0.03460(9) 0.40307(9)
H35 H 0.2206 -0.0114 0.3839
C32 C 0.22179(12) 0.10834(9) 0.37728(9)
H36 H 0.1584 0.1132 0.3406
C33 C 0.27778(12) 0.17517(8) 0.40502(9)
H37 H 0.2509 0.2251 0.3868
C34 C 0.42660(11) 0.31559(8) 0.42142(9)
C35 C 0.41957(11) 0.29028(9) 0.34907(9)
H38 H 0.4227 0.2354 0.3403
C36 C 0.40829(11) 0.34130(9) 0.28954(9)
H39 H 0.4033 0.3209 0.2415
C37 C 0.40426(12) 0.42183(9) 0.29996(9)
H40 H 0.3955 0.4571 0.2594
C38 C 0.41329(12) 0.44950(9) 0.37049(9)
H41 H 0.4121 0.5046 0.3789
C39 C 0.42408(11) 0.39768(8) 0.42949(9)
H42 H 0.43 0.4187 0.4774
C40 C 0.55857(11) 0.22734(8) 0.52331(9)
C41 C 0.62737(12) 0.22573(8) 0.48103(9)
H43 H 0.6047 0.2418 0.4305
C42 C 0.72754(12) 0.20164(8) 0.50944(9)
H44 H 0.7715 0.2016 0.4785
C43 C 0.76314(12) 0.17777(8) 0.58264(9)
H45 H 0.8318 0.1624 0.6028
C44 C 0.69687(12) 0.17660(8) 0.62599(9)
H46 H 0.7196 0.1589 0.676
C45 C 0.59783(11) 0.20104(8) 0.59682(9)
H47 H 0.5542 0.2 0.628
C46 C 0.40007(11) 0.29376(8) 0.55638(8)
C47 C 0.45769(12) 0.35233(8) 0.60238(8)
H48 H 0.5218 0.3656 0.5961
C48 C 0.42575(12) 0.39172(8) 0.65638(8)
H49 H 0.4669 0.4317 0.6852
C49 C 0.33331(12) 0.37259(8) 0.66829(9)
H50 H 0.3106 0.3992 0.7051
C50 C 0.27526(12) 0.31415(8) 0.62558(9)
H51 H 0.2127 0.2995 0.6338
C51 C 0.30786(11) 0.27654(8) 0.57060(9)
H52 H 0.2656 0.2374 0.5413
loop_
_geom_bond_atom_site_label_1
_geom_bond_atom_site_label_2
_geom_bond_site_symmetry_1
_geom_bond_site_symmetry_2
N1 C1 1_555 1_555
C1 H1 1_555 1_555
N2 C1 1_555 1_555
C2 N2 1_555 1_555
C3 C2 1_555 1_555
H2 C3 1_555 1_555
C4 C3 1_555 1_555
H3 C4 1_555 1_555
C5 C4 1_555 1_555
H4 C5 1_555 1_555
C6 C5 1_555 1_555
H5 C6 1_555 1_555
C7 N1 1_555 1_555
C8 N1 1_555 1_555
H6 C8 1_555 1_555
H7 C8 1_555 1_555
C9 C8 1_555 1_555
H8 C9 1_555 1_555
H9 C9 1_555 1_555
C10 C9 1_555 1_555
H10 C10 1_555 1_555
H11 C10 1_555 1_555
C11 C10 1_555 1_555
H12 C11 1_555 1_555
H13 C11 1_555 1_555
H14 C11 1_555 1_555
C12 H15 1_555 1_555
H16 C12 1_555 1_555
C13 C12 1_555 1_555
H17 C13 1_555 1_555
H18 C13 1_555 1_555
C14 C13 1_555 1_555
H19 C14 1_555 1_555
H20 C14 1_555 1_555
C15 C14 1_555 1_555
H21 C15 1_555 1_555
H22 C15 1_555 1_555
H23 C15 1_555 1_555
N3 C16 1_555 1_555
C16 N2 1_555 1_555
C17 C16 1_555 1_555
H24 C17 1_555 1_555
C18 C17 1_555 1_555
H25 C18 1_555 1_555
C19 C18 1_555 1_555
H26 C19 1_555 1_555
C20 N3 1_555 1_555
N4 C12 1_555 1_555
C21 N4 1_555 1_555
H27 C21 1_555 1_555
O1 C21 1_555 1_555
N5 C20 1_555 1_555
H28 N5 1_555 1_555
C22 N5 1_555 1_555
C23 C22 1_555 1_555
H29 C23 1_555 1_555
C24 C23 1_555 1_555
H30 C24 1_555 1_555
C25 C24 1_555 1_555
H31 C25 1_555 1_555
C26 C25 1_555 1_555
H32 C26 1_555 1_555
C27 N4 1_555 1_555
B1 C28 1_555 1_555
C28 C29 1_555 1_555
C29 H33 1_555 1_555
C30 C29 1_555 1_555
H34 C30 1_555 1_555
C31 C30 1_555 1_555
H35 C31 1_555 1_555
C32 C31 1_555 1_555
H36 C32 1_555 1_555
C33 C28 1_555 1_555
H37 C33 1_555 1_555
C34 B1 1_555 1_555
C35 C34 1_555 1_555
H38 C35 1_555 1_555
C36 C35 1_555 1_555
H39 C36 1_555 1_555
C37 C36 1_555 1_555
H40 C37 1_555 1_555
C38 C37 1_555 1_555
H41 C38 1_555 1_555
C39 C34 1_555 1_555
H42 C39 1_555 1_555
C40 B1 1_555 1_555
C41 C40 1_555 1_555
H43 C41 1_555 1_555
C42 C41 1_555 1_555
H44 C42 1_555 1_555
C43 C42 1_555 1_555
H45 C43 1_555 1_555
C44 C43 1_555 1_555
H46 C44 1_555 1_555
C45 C40 1_555 1_555
H47 C45 1_555 1_555
C46 B1 1_555 1_555
C47 C46 1_555 1_555
H48 C47 1_555 1_555
C48 C47 1_555 1_555
H49 C48 1_555 1_555
C49 C48 1_555 1_555
H50 C49 1_555 1_555
C50 C49 1_555 1_555
H51 C50 1_555 1_555
C51 C46 1_555 1_555
H52 C51 1_555 1_555
C2 C7 1_555 1_555
C6 C7 1_555 1_555
C19 C20 1_555 1_555
C22 C27 1_555 1_555
C26 C27 1_555 1_555
C32 C33 1_555 1_555
C38 C39 1_555 1_555
C44 C45 1_555 1_555
C50 C51 1_555 1_555

#END
