
#######################################################################
#
#                 Cambridge Crystallographic Data Centre
#                                CCDC 
#
#######################################################################
#
# If this CIF has been generated from an entry in the Cambridge 
# Structural Database, then it will include bibliographic, chemical, 
# crystal, experimental, refinement or atomic coordinate data resulting 
# from the CCDC's data processing and validation procedures.
#
#######################################################################

data_PROAMH10
_chemical_formula_moiety         'C3 H9 N1,6.5(H2 O1)'
_chemical_name_systematic        'n-Propylamine hydrate clathrate'
_symmetry_cell_setting           monoclinic
_symmetry_space_group_name_H-M   'P 21/n'
_symmetry_Int_Tables_number      14
_space_group_name_Hall           '-P 2yn'
loop_
_symmetry_equiv_pos_site_id
_symmetry_equiv_pos_as_xyz
1 x,y,z
2 1/2-x,1/2+y,1/2-z
3 -x,-y,-z
4 1/2+x,1/2-y,1/2+z
_cell_length_a                   12.43(2)
_cell_length_b                   20.73(3)
_cell_length_c                   17.28(2)
_cell_angle_alpha                90
_cell_angle_beta                 89.3(3)
_cell_angle_gamma                90
_cell_volume                     4452.27
_cell_formula_units_Z            16
loop_
_atom_site_label
_atom_site_type_symbol
_atom_site_fract_x
_atom_site_fract_y
_atom_site_fract_z
O1 O 0.3292(5) 0.2792(2) 0.0667(3)
O2 O 0.1387(5) 0.3228(2) 0.4986(3)
O3 O 0.4507(4) 0.2604(2) 0.1972(3)
O4 O 0.1763(4) -0.0023(2) 0.0901(3)
O5 O 0.3185(5) 0.1204(2) 0.8984(3)
O6 O 0.4416(4) 0.2227(2) 0.9451(3)
O7 O 0.1434(5) 0.1038(2) -0.0063(3)
O8 O 0.3378(4) 0.2818(2) 0.4443(3)
O9 O 0.4574(5) 0.3916(2) 0.4027(3)
O10 O 0.1234(5) 0.3157(2) 0.6586(3)
O11 O 0.1326(5) 0.4516(2) 0.4665(3)
O12 O 0.1963(5) 0.0454(3) 0.2394(3)
O13 O 0.3120(4) 0.2556(2) 0.7035(3)
O14 O 0.4409(5) 0.0128(2) 0.9027(3)
O15 O 0.0717(6) 0.4355(3) 0.7221(4)
O16 O 0.4413(5) 0.2325(3) 0.5783(3)
O17 O 0.4314(6) 0.4741(3) 0.1634(4)
O18 O 0.1411(5) 0.1737(2) 0.2451(3)
O19 O 0.3342(5) 0.2032(2) 0.3123(3)
O20 O 0.0229(5) 0.1232(2) 0.7497(3)
O21 O 0.1416(5) 0.2107(2) 0.0911(3)
O22 O 0.3883(6) 0.0740(3) 0.3072(4)
O23 O 0.3395(6) 0.4100(3) 0.0399(4)
O24 O 0.4506(5) 0.3022(3) 0.8179(3)
O25 O 0.2439(5) 0.1344(3) 0.7503(3)
O26 O 0.4309(11) 0.4258(4) 0.8908(8)
O27 O 0.0155(17) 0.5078(7) 0.0729(10)
N2 N 0.2748(10) 0.4874(4) 0.7711(7)
C1 C 0.3376(13) 0.4788(10) 0.6998(12)
C2 C 0.3633(14) 0.4218(7) 0.6728(10)
C3 C 0.4054(13) 0.4180(7) 0.5947(7)
N3 N 0.1542(13) 0.4277(7) 0.9453(11)
C4 C 0.0998(11) 0.3579(7) 0.9450(14)
C5 C 0.1751(13) 0.3272(9) 0.8894(8)
C6 C 0.1225(9) 0.2544(5) 0.8799(7)
N4 N 0.4585(12) 0.1066(5) 0.6499(11)
C7 C 0.5393(16) 0.1230(8) 0.7286(9)
C8 C 0.6298(16) 0.1195(10) 0.6879(18)
C9 C 0.7054(15) 0.1367(7) 0.7760(9)
N5 N 0.3335(16) 0.0378(8) 0.4554(9)
C10 C 0.2526(14) 0.0981(6) 0.4717(10)
C11 C 0.1583(22) 0.0947(11) 0.5282(13)
C12 C 0.1161(17) 0.148(19) 0.5441(11)
N1? N 0.3264(28) 0.0198(12) 0.6826(18)
loop_
_geom_bond_atom_site_label_1
_geom_bond_atom_site_label_2
_geom_bond_site_symmetry_1
_geom_bond_site_symmetry_2
N2 C1 1_555 1_555
C1 C2 1_555 1_555
C2 C3 1_555 1_555
N3 C4 1_555 1_555
C4 C5 1_555 1_555
C5 C6 1_555 1_555
N4 C7 1_555 1_555
C7 C8 1_555 1_555
C8 C9 1_555 1_555
N5 C10 1_555 1_555
C10 C11 1_555 1_555
C11 C12 1_555 1_555

#END
