
#######################################################################
#
#                 Cambridge Crystallographic Data Centre
#                                CCDC 
#
#######################################################################
#
# If this CIF has been generated from an entry in the Cambridge 
# Structural Database, then it will include bibliographic, chemical, 
# crystal, experimental, refinement or atomic coordinate data resulting 
# from the CCDC's data processing and validation procedures.
#
#######################################################################

data_PROCHC11
_chemical_name_common            'Procaine hydrochloride'
_chemical_formula_moiety         'C13 H21 N2 O2 1+,Cl1 1-'
_chemical_name_systematic        
'2-Diethylaminoethyl p-aminobenzoate hydrochloride'
_chemical_properties_biological  
'previously reported as a local anaesthetic drug'
_symmetry_cell_setting           orthorhombic
_symmetry_space_group_name_H-M   'P b c a'
_symmetry_Int_Tables_number      61
_space_group_name_Hall           '-P 2ac 2ab'
loop_
_symmetry_equiv_pos_site_id
_symmetry_equiv_pos_as_xyz
1 x,y,z
2 1/2-x,-y,1/2+z
3 1/2+x,1/2-y,-z
4 -x,1/2+y,1/2-z
5 -x,-y,-z
6 1/2+x,y,1/2-z
7 1/2-x,1/2+y,z
8 x,1/2-y,1/2+z
_cell_length_a                   14.009(2)
_cell_length_b                   8.2472(12)
_cell_length_c                   24.853(4)
_cell_angle_alpha                90
_cell_angle_beta                 90
_cell_angle_gamma                90
_cell_volume                     2871.39
_cell_formula_units_Z            8
loop_
_atom_site_label
_atom_site_type_symbol
_atom_site_fract_x
_atom_site_fract_y
_atom_site_fract_z
Cl1 Cl 0.38190(3) 0.42556(5) 0.211606(15)
O1 O 0.40675(8) 0.39421(13) 0.41296(4)
O2 O 0.31625(9) 0.61802(15) 0.41145(5)
N1 N 0.45013(9) 0.10143(15) 0.34147(5)
N2 N 0.33074(12) 0.4436(2) 0.66232(6)
C1 C 0.35578(11) 0.51223(19) 0.43676(7)
C2 C 0.40696(10) 0.37867(18) 0.52312(6)
H1 H 0.4482 0.3087 0.5036
C3 C 0.40070(10) 0.36388(19) 0.57801(6)
H2 H 0.4392 0.2860 0.5960
C4 C 0.44647(11) 0.04168(19) 0.39851(6)
H3 H 0.4306 -0.0753 0.3986
H4 H 0.3953 0.0998 0.4181
C5 C 0.29506(11) 0.59758(18) 0.52564(6)
H5 H 0.2597 0.6800 0.5079
C6 C 0.35346(10) 0.49531(18) 0.49562(6)
C7 C 0.48044(11) 0.27515(17) 0.33521(6)
H6 H 0.5414 0.2903 0.3547
H7 H 0.4931 0.2956 0.2966
C8 C 0.28764(12) 0.58158(19) 0.58047(7)
H8 H 0.2473 0.6530 0.6001
C9 C 0.36001(12) 0.06415(19) 0.31105(7)
H9 H 0.3602 0.1249 0.2767
H10 H 0.3044 0.1013 0.3324
C10 C 0.41096(13) 0.40049(19) 0.35483(6)
H11 H 0.4317 0.5096 0.3430
H12 H 0.3469 0.3791 0.3395
C11 C 0.33870(11) 0.46147(18) 0.60782(6)
C12 C 0.34942(13) -0.1150(2) 0.29932(7)
H13 H 0.2898 -0.1337 0.2797
H14 H 0.3482 -0.1755 0.3333
H15 H 0.4034 -0.1518 0.2775
C13 C 0.54037(12) 0.0673(2) 0.42723(7)
H16 H 0.5354 0.0268 0.4642
H17 H 0.5556 0.1833 0.4279
H18 H 0.5910 0.0085 0.4083
H19 H 0.2847(14) 0.483(2) 0.6762(7)
H20 H 0.3457(14) 0.357(3) 0.6759(8)
H21 H 0.4982(12) 0.0468(17) 0.3244(6)
loop_
_geom_bond_atom_site_label_1
_geom_bond_atom_site_label_2
_geom_bond_site_symmetry_1
_geom_bond_site_symmetry_2
O1 C1 1_555 1_555
O2 C1 1_555 1_555
N1 C4 1_555 1_555
N2 C11 1_555 1_555
C1 C6 1_555 1_555
C2 H1 1_555 1_555
C3 C2 1_555 1_555
H2 C3 1_555 1_555
C4 H3 1_555 1_555
H4 C4 1_555 1_555
C5 H5 1_555 1_555
C6 C2 1_555 1_555
C7 N1 1_555 1_555
H6 C7 1_555 1_555
H7 C7 1_555 1_555
C8 C5 1_555 1_555
H8 C8 1_555 1_555
C9 N1 1_555 1_555
H9 C9 1_555 1_555
H10 C9 1_555 1_555
C10 O1 1_555 1_555
H11 C10 1_555 1_555
H12 C10 1_555 1_555
C11 C3 1_555 1_555
C12 C9 1_555 1_555
H13 C12 1_555 1_555
H14 C12 1_555 1_555
H15 C12 1_555 1_555
C13 C4 1_555 1_555
H16 C13 1_555 1_555
H17 C13 1_555 1_555
H18 C13 1_555 1_555
H19 N2 1_555 1_555
H20 N2 1_555 1_555
H21 N1 1_555 1_555
C5 C6 1_555 1_555
C7 C10 1_555 1_555
C8 C11 1_555 1_555

#END
