
#######################################################################
#
#                 Cambridge Crystallographic Data Centre
#                                CCDC 
#
#######################################################################
#
# If this CIF has been generated from an entry in the Cambridge 
# Structural Database, then it will include bibliographic, chemical, 
# crystal, experimental, refinement or atomic coordinate data resulting 
# from the CCDC's data processing and validation procedures.
#
#######################################################################

data_PTOLIC
_chemical_formula_moiety         'C8 H8 O2'
_chemical_name_systematic        'p-Toluic acid'
_symmetry_cell_setting           triclinic
_symmetry_space_group_name_H-M   'P -1'
_symmetry_Int_Tables_number      2
_space_group_name_Hall           '-P 1'
loop_
_symmetry_equiv_pos_site_id
_symmetry_equiv_pos_as_xyz
1 x,y,z
2 -x,-y,-z
_cell_length_a                   8.88
_cell_length_b                   7.87
_cell_length_c                   7.59
_cell_angle_alpha                121.4
_cell_angle_beta                 118.7
_cell_angle_gamma                93.9
_cell_volume                     359.472
_cell_formula_units_Z            2
loop_
_atom_site_label
_atom_site_type_symbol
_atom_site_fract_x
_atom_site_fract_y
_atom_site_fract_z
C1 C 0.36070 0.17620 0.00070
C2 C 0.54530 0.30860 0.22990
C3 C 0.69100 0.38280 0.23070
C4 C 0.65880 0.32640 0.00390
C5 C 0.47540 0.19730 -0.22290
C6 C 0.32680 0.12040 -0.22980
C7 C 0.20300 0.09640 -0.00310
C8 C 0.82080 0.40530 0.00970
H1 H 0.58000 0.32200 0.38200
H2 H 0.80900 0.45900 0.37700
H3 H 0.45500 0.17100 -0.33500
H4 H 0.20200 0.02500 -0.39300
H5 H 0.77800 0.42000 -0.10300
H6 H 0.89100 0.34500 0.03800
H7 H 0.89700 0.56000 0.12900
O1 O 0.23850 0.15860 0.20990
O2 O 0.03760 -0.03110 -0.21870
loop_
_geom_bond_atom_site_label_1
_geom_bond_atom_site_label_2
_geom_bond_site_symmetry_1
_geom_bond_site_symmetry_2
C1 C2 1_555 1_555
C2 C3 1_555 1_555
C3 C4 1_555 1_555
C4 C5 1_555 1_555
C5 C6 1_555 1_555
C6 C1 1_555 1_555
C7 C1 1_555 1_555
C8 C4 1_555 1_555
H1 C2 1_555 1_555
H2 C3 1_555 1_555
H3 C5 1_555 1_555
H4 C6 1_555 1_555
H5 C8 1_555 1_555
H6 C8 1_555 1_555
H7 C8 1_555 1_555
O1 C7 1_555 1_555
O2 C7 1_555 1_555

#END
