
#######################################################################
#
#                 Cambridge Crystallographic Data Centre
#                                CCDC 
#
#######################################################################
#
# If this CIF has been generated from an entry in the Cambridge 
# Structural Database, then it will include bibliographic, chemical, 
# crystal, experimental, refinement or atomic coordinate data resulting 
# from the CCDC's data processing and validation procedures.
#
#######################################################################

data_PUBDUM
_chemical_formula_moiety         'C21 H23 N1 O3 Si1'
_chemical_name_systematic        
'Methyl 4-(2-phenyl-5-((trimethylsilyl)methyl)-1,3-oxazol-4-yl)benzoate'
_symmetry_cell_setting           monoclinic
_symmetry_space_group_name_H-M   'P 21/n'
_symmetry_Int_Tables_number      14
_space_group_name_Hall           '-P 2yn'
loop_
_symmetry_equiv_pos_site_id
_symmetry_equiv_pos_as_xyz
1 x,y,z
2 1/2-x,1/2+y,1/2-z
3 -x,-y,-z
4 1/2+x,1/2-y,1/2+z
_cell_length_a                   6.3537(14)
_cell_length_b                   14.909(3)
_cell_length_c                   20.965(5)
_cell_angle_alpha                90
_cell_angle_beta                 95.358(4)
_cell_angle_gamma                90
_cell_volume                     1977.28
_exptl_crystal_colour            white
_exptl_crystal_description       needle
_chemical_melting_point          '138-140 deg.C'
_cell_formula_units_Z            4
loop_
_atom_site_label
_atom_site_type_symbol
_atom_site_fract_x
_atom_site_fract_y
_atom_site_fract_z
Si1 Si 0.35717(14) 0.56636(6) 0.20134(4)
O1 O 0.0620(3) 0.73479(13) 0.11832(9)
N1 N 0.2464(4) 0.82009(16) 0.05732(11)
C1 C 0.5152(4) 0.71278(19) 0.02480(13)
O2 O 1.1347(4) 0.58516(15) -0.07880(13)
O3 O 1.0985(4) 0.72361(16) -0.11793(12)
C2 C 0.8634(4) 0.67848(19) -0.04448(14)
C3 C 0.3318(4) 0.73319(19) 0.06013(13)
C4 C 0.5982(5) 0.7794(2) -0.01205(15)
H1 H 0.5382 0.8363 -0.0135
C5 C 0.7679(5) 0.7621(2) -0.04644(16)
H2 H 0.8193 0.8072 -0.0714
C6 C 0.7832(5) 0.6129(2) -0.00703(14)
H3 H 0.8461 0.5565 -0.0047
C7 C -0.0585(5) 0.8877(2) 0.10480(13)
C8 C 0.0896(5) 0.81671(19) 0.09172(14)
C9 C 0.6131(5) 0.6291(2) 0.02678(14)
H4 H 0.5621 0.5836 0.0515
C10 C 1.0457(5) 0.6559(2) -0.08078(15)
C11 C 0.2175(4) 0.68120(19) 0.09683(13)
C12 C -0.3775(6) 0.9383(3) 0.14533(18)
H5 H -0.4947 0.9267 0.1675
C13 C 0.2151(5) 0.58805(19) 0.11974(14)
H6 H 0.2777 0.5503 0.0889
H7 H 0.0690 0.5695 0.1205
C14 C -0.0296(6) 0.9729(2) 0.08085(16)
H8 H 0.0879 0.9851 0.0590
C15 C -0.2334(5) 0.8705(2) 0.13714(16)
H9 H -0.2545 0.8135 0.1534
C16 C -0.1745(6) 1.0399(3) 0.0893(2)
H10 H -0.1540 1.0972 0.0733
C17 C -0.3489(6) 1.0221(3) 0.12113(19)
H11 H -0.4476 1.0669 0.1263
C18 C 0.6477(6) 0.5793(3) 0.19829(19)
H12 H 0.7186 0.5682 0.2400
H13 H 0.6782 0.6392 0.1850
H14 H 0.6960 0.5371 0.1683
C19 C 0.2939(7) 0.4490(3) 0.2225(2)
H15 H 0.3633 0.4347 0.2639
H16 H 0.3419 0.4089 0.1910
H17 H 0.1438 0.4428 0.2234
C20 C 1.2678(7) 0.7057(3) -0.1573(2)
H18 H 1.2952 0.7584 -0.1814
H19 H 1.2281 0.6573 -0.1861
H20 H 1.3929 0.6896 -0.1305
C21 C 0.2594(8) 0.6466(3) 0.2597(2)
H21 H 0.3314 0.6360 0.3013
H22 H 0.1102 0.6382 0.2614
H23 H 0.2860 0.7068 0.2465
loop_
_geom_bond_atom_site_label_1
_geom_bond_atom_site_label_2
_geom_bond_site_symmetry_1
_geom_bond_site_symmetry_2
Si1 C13 1_555 1_555
O1 C8 1_555 1_555
N1 C3 1_555 1_555
C1 C3 1_555 1_555
O2 C10 1_555 1_555
O3 C10 1_555 1_555
C2 C5 1_555 1_555
C3 C11 1_555 1_555
C4 C1 1_555 1_555
H1 C4 1_555 1_555
C5 C4 1_555 1_555
H2 C5 1_555 1_555
C6 C2 1_555 1_555
H3 C6 1_555 1_555
C7 C8 1_555 1_555
C8 N1 1_555 1_555
C9 C1 1_555 1_555
H4 C9 1_555 1_555
C10 C2 1_555 1_555
C11 O1 1_555 1_555
C12 H5 1_555 1_555
C13 C11 1_555 1_555
H6 C13 1_555 1_555
H7 C13 1_555 1_555
C14 C7 1_555 1_555
H8 C14 1_555 1_555
C15 C7 1_555 1_555
H9 C15 1_555 1_555
C16 C14 1_555 1_555
H10 C16 1_555 1_555
C17 C12 1_555 1_555
H11 C17 1_555 1_555
C18 Si1 1_555 1_555
H12 C18 1_555 1_555
H13 C18 1_555 1_555
H14 C18 1_555 1_555
C19 Si1 1_555 1_555
H15 C19 1_555 1_555
H16 C19 1_555 1_555
H17 C19 1_555 1_555
C20 O3 1_555 1_555
H18 C20 1_555 1_555
H19 C20 1_555 1_555
H20 C20 1_555 1_555
C21 Si1 1_555 1_555
H21 C21 1_555 1_555
H22 C21 1_555 1_555
H23 C21 1_555 1_555
C6 C9 1_555 1_555
C12 C15 1_555 1_555
C16 C17 1_555 1_555

#END
