
#######################################################################
#
#                 Cambridge Crystallographic Data Centre
#                                CCDC 
#
#######################################################################
#
# If this CIF has been generated from an entry in the Cambridge 
# Structural Database, then it will include bibliographic, chemical, 
# crystal, experimental, refinement or atomic coordinate data resulting 
# from the CCDC's data processing and validation procedures.
#
#######################################################################

data_PUBJAY
_chemical_formula_moiety         'C37 H31 N3 O2'
_chemical_name_systematic        
2,3-bis(N-Benzyl-2'-methyl-3'-indolyl)-N-methylmaleimide
_symmetry_cell_setting           monoclinic
_symmetry_space_group_name_H-M   'P 2/n'
_symmetry_Int_Tables_number      13
_space_group_name_Hall           '-P 2yac'
loop_
_symmetry_equiv_pos_site_id
_symmetry_equiv_pos_as_xyz
1 x,y,z
2 1/2-x,y,1/2-z
3 -x,-y,-z
4 1/2+x,-y,1/2+z
_cell_length_a                   10.3506(11)
_cell_length_b                   9.0698(9)
_cell_length_c                   15.2872(16)
_cell_angle_alpha                90
_cell_angle_beta                 91.405(2)
_cell_angle_gamma                90
_cell_volume                     1434.7
_exptl_crystal_colour            red
_exptl_crystal_description       prismatic
_cell_formula_units_Z            2
_exptl_crystal_preparation       fluorescent
loop_
_atom_site_label
_atom_site_type_symbol
_atom_site_fract_x
_atom_site_fract_y
_atom_site_fract_z
O1 O 0.83385(12) 0.13211(12) 0.38827(8)
N1 N 0.7500 0.09098(18) 0.2500
N2 N 0.86316(12) 0.59772(14) 0.46386(9)
C1 C 0.79056(15) 0.17798(17) 0.31984(11)
C2 C 0.77254(14) 0.33552(15) 0.29164(10)
C3 C 0.81688(14) 0.45724(16) 0.34689(10)
C4 C 0.79247(15) 0.47922(16) 0.43340(11)
C5 C 0.93420(15) 0.65400(16) 0.39606(11)
C6 C 0.90643(14) 0.56912(16) 0.32101(10)
C7 C 0.97150(15) 0.59904(17) 0.24418(12)
H1 H 0.9549 0.5438 0.1939
C8 C 1.06066(16) 0.71165(19) 0.24397(13)
H2 H 1.1054 0.7316 0.1933
C9 C 1.08487(17) 0.79640(19) 0.31886(14)
H3 H 1.1444 0.8730 0.3166
C10 C 1.02311(16) 0.76967(18) 0.39569(13)
H4 H 1.0398 0.8263 0.4454
C11 C 0.86990(17) 0.64954(19) 0.55401(11)
H5 H 0.9504 0.7027 0.5633
H6 H 0.8717 0.5647 0.5926
C12 C 0.76024(16) 0.74778(18) 0.57890(11)
C13 C 0.73963(19) 0.8807(2) 0.53820(13)
H7 H 0.7926 0.9097 0.4930
C14 C 0.6413(2) 0.9711(2) 0.56382(17)
H8 H 0.6276 1.0608 0.5356
C15 C 0.5633(2) 0.9307(3) 0.63040(18)
H9 H 0.4972 0.9929 0.6476
C16 C 0.5822(2) 0.7994(3) 0.67147(16)
H10 H 0.5293 0.7715 0.7169
C17 C 0.6802(2) 0.7079(2) 0.64543(13)
H11 H 0.6925 0.6177 0.6733
C18 C 0.69981(17) 0.40127(19) 0.49041(11)
H12 H 0.6562 0.3254 0.4574
H13 H 0.6375 0.4704 0.5114
H14 H 0.7460 0.3578 0.5392
C19 C 0.7500 -0.0695(2) 0.2500
O1A O 0.66615(12) 0.13211(12) 0.11173(8)
N2A N 0.63684(12) 0.59772(14) 0.03614(9)
C1A C 0.70944(15) 0.17798(17) 0.18016(11)
C2A C 0.72746(14) 0.33552(15) 0.20836(10)
C3A C 0.68312(14) 0.45724(16) 0.15311(10)
C4A C 0.70753(15) 0.47922(16) 0.06660(11)
C5A C 0.56580(15) 0.65400(16) 0.10394(11)
C6A C 0.59357(14) 0.56912(16) 0.17899(10)
C7A C 0.52850(15) 0.59904(17) 0.25582(12)
H1A H 0.5451 0.5438 0.3061
C8A C 0.43934(16) 0.71165(19) 0.25603(13)
H2A H 0.3946 0.7316 0.3067
C9A C 0.41513(17) 0.79640(19) 0.18114(14)
H3A H 0.3556 0.8730 0.1834
C10A C 0.47689(16) 0.76967(18) 0.10431(13)
H4A H 0.4602 0.8263 0.0546
C11A C 0.63010(17) 0.64954(19) -0.05401(11)
H5A H 0.5496 0.7027 -0.0633
H6A H 0.6283 0.5647 -0.0926
C12A C 0.73976(16) 0.74778(18) -0.07890(11)
C13A C 0.76037(19) 0.8807(2) -0.03820(13)
H7A H 0.7074 0.9097 0.0070
C14A C 0.8587(2) 0.9711(2) -0.06382(17)
H8A H 0.8724 1.0608 -0.0356
C15A C 0.9367(2) 0.9307(3) -0.13040(18)
H9A H 1.0028 0.9929 -0.1476
C16A C 0.9178(2) 0.7994(3) -0.17147(16)
H10A H 0.9707 0.7715 -0.2169
C17A C 0.8198(2) 0.7079(2) -0.14543(13)
H11A H 0.8075 0.6177 -0.1733
C18A C 0.80019(17) 0.40127(19) 0.00959(11)
H12A H 0.8438 0.3254 0.0426
H13A H 0.8625 0.4704 -0.0114
H14A H 0.7540 0.3578 -0.0392
H15? H 0.7647 -0.1048 0.3086
H16? H 0.8173 -0.1048 0.2133
H17? H 0.6680 -0.1048 0.2281
loop_
_geom_bond_atom_site_label_1
_geom_bond_atom_site_label_2
_geom_bond_site_symmetry_1
_geom_bond_site_symmetry_2
O1 C1 1_555 1_555
N1 C1 1_555 1_555
N2 C4 1_555 1_555
C1 C2 1_555 1_555
C2 C3 1_555 1_555
C3 C4 1_555 1_555
C4 C18 1_555 1_555
C5 N2 1_555 1_555
C6 C3 1_555 1_555
C7 C6 1_555 1_555
H1 C7 1_555 1_555
C8 C7 1_555 1_555
H2 C8 1_555 1_555
C9 C8 1_555 1_555
H3 C9 1_555 1_555
C10 C5 1_555 1_555
H4 C10 1_555 1_555
C11 N2 1_555 1_555
H5 C11 1_555 1_555
H6 C11 1_555 1_555
C12 C11 1_555 1_555
C13 C12 1_555 1_555
H7 C13 1_555 1_555
C14 C13 1_555 1_555
H8 C14 1_555 1_555
C15 C14 1_555 1_555
H9 C15 1_555 1_555
C16 C15 1_555 1_555
H10 C16 1_555 1_555
C17 C12 1_555 1_555
H11 C17 1_555 1_555
C18 H12 1_555 1_555
H13 C18 1_555 1_555
H14 C18 1_555 1_555
C19 N1 1_555 1_555
O1A C1A 1_555 1_555
N2A C4A 1_555 1_555
C1A N1 1_555 1_555
C2A C2 1_555 1_555
C3A C2A 1_555 1_555
C4A C3A 1_555 1_555
C5A N2A 1_555 1_555
C6A C3A 1_555 1_555
C7A C6A 1_555 1_555
H1A C7A 1_555 1_555
C8A C7A 1_555 1_555
H2A C8A 1_555 1_555
C9A C8A 1_555 1_555
H3A C9A 1_555 1_555
C10A C5A 1_555 1_555
H4A C10A 1_555 1_555
C11A N2A 1_555 1_555
H5A C11A 1_555 1_555
H6A C11A 1_555 1_555
C12A C11A 1_555 1_555
C13A C12A 1_555 1_555
H7A C13A 1_555 1_555
C14A C13A 1_555 1_555
H8A C14A 1_555 1_555
C15A C14A 1_555 1_555
H9A C15A 1_555 1_555
C16A C15A 1_555 1_555
H10A C16A 1_555 1_555
C17A C12A 1_555 1_555
H11A C17A 1_555 1_555
C18A C4A 1_555 1_555
H12A C18A 1_555 1_555
H13A C18A 1_555 1_555
H14A C18A 1_555 1_555
C5 C6 1_555 1_555
C9 C10 1_555 1_555
C16 C17 1_555 1_555
C1A C2A 1_555 1_555
C5A C6A 1_555 1_555
C9A C10A 1_555 1_555
C16A C17A 1_555 1_555

#END
