
#######################################################################
#
#                 Cambridge Crystallographic Data Centre
#                                CCDC 
#
#######################################################################
#
# If this CIF has been generated from an entry in the Cambridge 
# Structural Database, then it will include bibliographic, chemical, 
# crystal, experimental, refinement or atomic coordinate data resulting 
# from the CCDC's data processing and validation procedures.
#
#######################################################################

data_PUBMUU06
_chemical_name_common            gamma-Hexanitrohexa-azaisowurtzitane
_chemical_formula_moiety         'C6 H6 N12 O12'
_chemical_name_systematic        
2,4,6,8,10,12-Hexanitro-2,4,6,8,10,12-hexa-azatetracyclo(5.5.0.0^5,9^.0^3,11^)dodecane
_symmetry_cell_setting           monoclinic
_symmetry_space_group_name_H-M   'P 21/n'
_symmetry_Int_Tables_number      14
_space_group_name_Hall           '-P 2yn'
loop_
_symmetry_equiv_pos_site_id
_symmetry_equiv_pos_as_xyz
1 x,y,z
2 1/2-x,1/2+y,1/2-z
3 -x,-y,-z
4 1/2+x,1/2-y,1/2+z
_cell_length_a                   13.213(11)
_cell_length_b                   8.161(6)
_cell_length_c                   14.898(4)
_cell_angle_alpha                90
_cell_angle_beta                 109.168(9)
_cell_angle_gamma                90
_cell_volume                     1517.41
_cell_formula_units_Z            4
loop_
_atom_site_label
_atom_site_type_symbol
_atom_site_fract_x
_atom_site_fract_y
_atom_site_fract_z
O1 O 0.5481(1) 1.1921(2) 0.0636(1)
O2 O 0.3767(1) 1.1566(2) 0.0205(1)
O3 O 0.7481(1) 0.8097(2) 0.2088(1)
O4 O 0.6452(1) 0.5992(2) 0.1574(1)
O5 O 0.6161(1) 1.2006(2) 0.4628(1)
O6 O 0.4535(1) 1.1495(2) 0.4559(1)
O7 O 0.6836(1) 0.6338(2) 0.4655(1)
O8 O 0.7624(1) 0.8682(2) 0.4740(1)
O9 O 0.2563(1) 1.0585(3) 0.2976(1)
O10 O 0.2284(1) 1.0896(2) 0.1472(1)
O11 O 0.4851(2) 0.4283(2) 0.3071(1)
O12 O 0.4393(2) 0.4428(2) 0.1535(1)
N1 N 0.4776(1) 1.0641(2) 0.1644(1)
N2 N 0.5732(1) 0.8394(2) 0.1659(1)
N3 N 0.5136(1) 1.0429(2) 0.3456(1)
N4 N 0.6161(1) 0.8140(2) 0.3489(1)
N5 N 0.3593(1) 0.9217(2) 0.2313(1)
N6 N 0.4704(1) 0.6710(2) 0.2386(1)
N7 N 0.4670(1) 1.1423(2) 0.0747(1)
N8 N 0.6614(1) 0.7422(2) 0.1789(1)
N9 N 0.5302(1) 1.1363(2) 0.4283(1)
N10 N 0.6927(1) 0.7696(2) 0.4377(1)
N11 N 0.2750(1) 1.0328(2) 0.2247(1)
N12 N 0.4664(1) 0.5007(2) 0.2326(1)
C1 C 0.5840(1) 0.9992(2) 0.2118(1)
C2 C 0.6073(1) 0.9869(2) 0.3234(1)
C3 C 0.4687(1) 0.7668(2) 0.1570(1)
C4 C 0.4014(1) 0.9260(2) 0.1533(1)
C5 C 0.4368(1) 0.9073(2) 0.3261(1)
C6 C 0.5065(1) 0.7499(2) 0.3296(1)
loop_
_geom_bond_atom_site_label_1
_geom_bond_atom_site_label_2
_geom_bond_site_symmetry_1
_geom_bond_site_symmetry_2
O1 N7 1_555 1_555
O2 N7 1_555 1_555
O3 N8 1_555 1_555
O4 N8 1_555 1_555
O5 N9 1_555 1_555
O6 N9 1_555 1_555
O7 N10 1_555 1_555
O8 N10 1_555 1_555
O9 N11 1_555 1_555
O10 N11 1_555 1_555
O11 N12 1_555 1_555
O12 N12 1_555 1_555
N1 N7 1_555 1_555
N2 N8 1_555 1_555
N3 N9 1_555 1_555
N4 N10 1_555 1_555
N5 N11 1_555 1_555
N6 N12 1_555 1_555
C1 N1 1_555 1_555
C2 N3 1_555 1_555
C3 N2 1_555 1_555
C4 N1 1_555 1_555
C5 N3 1_555 1_555
C6 N4 1_555 1_555
N2 C1 1_555 1_555
N4 C2 1_555 1_555
N5 C4 1_555 1_555
N5 C5 1_555 1_555
N6 C3 1_555 1_555
N6 C6 1_555 1_555
C1 C2 1_555 1_555
C3 C4 1_555 1_555
C5 C6 1_555 1_555

#END
