
#######################################################################
#
#                 Cambridge Crystallographic Data Centre
#                                CCDC 
#
#######################################################################
#
# If this CIF has been generated from an entry in the Cambridge 
# Structural Database, then it will include bibliographic, chemical, 
# crystal, experimental, refinement or atomic coordinate data resulting 
# from the CCDC's data processing and validation procedures.
#
#######################################################################

data_PUBQAF
_chemical_formula_moiety         'C37 H40 B1 O1 P1,C1 H1 Cl3'
_chemical_name_systematic        
'(4-(Hydroxy(dimesityl)borato)phenyl)-methyl-diphenylphosphonium chloroform solvate'
_symmetry_cell_setting           triclinic
_symmetry_space_group_name_H-M   'P -1'
_symmetry_Int_Tables_number      2
_space_group_name_Hall           '-P 1'
loop_
_symmetry_equiv_pos_site_id
_symmetry_equiv_pos_as_xyz
1 x,y,z
2 -x,-y,-z
_cell_length_a                   12.262(3)
_cell_length_b                   12.756(3)
_cell_length_c                   12.976(3)
_cell_angle_alpha                73.40(3)
_cell_angle_beta                 77.77(3)
_cell_angle_gamma                62.25(3)
_cell_volume                     1713.89
_exptl_crystal_colour            colorless
_exptl_crystal_description       block
_cell_formula_units_Z            2
loop_
_atom_site_label
_atom_site_type_symbol
_atom_site_fract_x
_atom_site_fract_y
_atom_site_fract_z
Cl1 Cl 0.07255(16) 0.38545(15) 0.44042(14)
Cl2 Cl 0.13307(16) 0.13392(15) 0.46481(15)
Cl3 Cl 0.19231(16) 0.27082(19) 0.25986(13)
C38 C 0.0860(5) 0.2763(5) 0.3736(4)
H41 H 0.0035 0.2997 0.3505
P1 P 0.94169(13) 0.78679(13) 0.17278(11)
O1 O 1.1602(3) 0.5883(3) -0.2942(3)
H1 H 1.1183 0.5493 -0.2641
C1 C 1.0332(5) 0.7137(5) 0.0652(4)
B1 B 1.2583(6) 0.5579(6) -0.2221(5)
C2 C 1.1524(5) 0.7093(5) 0.0323(4)
H2 H 1.1852 0.7405 0.0698
C3 C 1.2217(5) 0.6586(5) -0.0562(4)
H3 H 1.3017 0.6563 -0.0777
C4 C 1.1779(5) 0.6113(5) -0.1139(4)
C5 C 1.0583(5) 0.6188(5) -0.0795(4)
H4 H 1.0246 0.5891 -0.1178
C6 C 0.9875(5) 0.6683(5) 0.0085(4)
H5 H 0.9073 0.6709 0.0297
C7 C 0.8244(5) 0.9353(5) 0.1212(4)
C8 C 0.7453(5) 1.0095(5) 0.1930(4)
H6 H 0.7546 0.9827 0.2682
C9 C 0.6545(5) 1.1210(5) 0.1534(5)
H7 H 0.6013 1.1720 0.2015
C10 C 0.6398(5) 1.1597(5) 0.0447(5)
H8 H 0.5763 1.2373 0.0184
C11 C 0.7165(5) 1.0867(5) -0.0269(4)
H9 H 0.7050 1.1137 -0.1017
C12 C 0.8105(5) 0.9738(5) 0.0112(4)
H10 H 0.8643 0.9236 -0.0373
C13 C 1.0413(5) 0.7995(5) 0.2473(4)
C14 C 1.0377(5) 0.9099(6) 0.2443(5)
H11 H 0.9789 0.9824 0.2047
C15 C 1.1209(6) 0.9153(6) 0.2996(5)
H12 H 1.1190 0.9910 0.2982
C16 C 1.2055(6) 0.8087(7) 0.3562(5)
H13 H 1.2618 0.8120 0.3941
C17 C 1.2107(6) 0.6990(7) 0.3591(5)
H14 H 1.2706 0.6268 0.3978
C18 C 1.1280(5) 0.6935(6) 0.3054(4)
H15 H 1.1303 0.6173 0.3081
C19 C 0.8657(5) 0.6992(5) 0.2598(4)
H16 H 0.8116 0.6924 0.2187
H17 H 0.8160 0.7392 0.3191
H18 H 0.9277 0.6181 0.2892
C20 C 1.3448(5) 0.6332(5) -0.2780(4)
C21 C 1.2936(5) 0.7493(5) -0.3487(4)
C22 C 1.3679(5) 0.8066(5) -0.4044(4)
H19 H 1.3316 0.8826 -0.4529
C23 C 1.4934(5) 0.7571(5) -0.3919(4)
C24 C 1.5417(5) 0.6487(5) -0.3168(4)
H20 H 1.6258 0.6150 -0.3030
C25 C 1.4700(5) 0.5876(5) -0.2609(4)
C26 C 1.1571(5) 0.8188(5) -0.3627(4)
H21 H 1.1415 0.8963 -0.4142
H22 H 1.1108 0.8341 -0.2929
H23 H 1.1304 0.7712 -0.3901
C27 C 1.5717(5) 0.8211(5) -0.4535(5)
H24 H 1.6572 0.7722 -0.4345
H25 H 1.5391 0.9003 -0.4351
H26 H 1.5700 0.8324 -0.5312
C28 C 1.5337(5) 0.4745(5) -0.1776(4)
H27 H 1.4761 0.4388 -0.1423
H28 H 1.5606 0.4954 -0.1235
H29 H 1.6059 0.4159 -0.2129
C29 C 1.3409(5) 0.4091(5) -0.2063(4)
C30 C 1.3988(5) 0.3625(5) -0.3015(4)
C31 C 1.4667(5) 0.2385(5) -0.2964(4)
H30 H 1.5060 0.2116 -0.3615
C32 C 1.4792(5) 0.1537(5) -0.2017(5)
C33 C 1.4216(5) 0.1954(5) -0.1082(4)
H31 H 1.4264 0.1383 -0.0416
C34 C 1.3562(5) 0.3199(5) -0.1087(4)
C35 C 1.3923(6) 0.4415(5) -0.4139(4)
H32 H 1.4376 0.3902 -0.4666
H33 H 1.4295 0.4963 -0.4185
H34 H 1.3056 0.4894 -0.4296
C36 C 1.5559(6) 0.0188(5) -0.1998(5)
H35 H 1.5889 0.0076 -0.2736
H36 H 1.5035 -0.0239 -0.1696
H37 H 1.6245 -0.0139 -0.1551
C37 C 1.3097(5) 0.3510(5) 0.0019(4)
H38 H 1.2656 0.4393 -0.0065
H39 H 1.3801 0.3195 0.0443
H40 H 1.2534 0.3143 0.0394
loop_
_geom_bond_atom_site_label_1
_geom_bond_atom_site_label_2
_geom_bond_site_symmetry_1
_geom_bond_site_symmetry_2
Cl1 C38 1_555 1_555
P1 C1 1_555 1_555
O1 H1 1_555 1_555
C1 C2 1_555 1_555
B1 O1 1_555 1_555
Cl2 C38 1_555 1_555
C2 H2 1_555 1_555
Cl3 C38 1_555 1_555
C3 C2 1_555 1_555
H3 C3 1_555 1_555
C4 B1 1_555 1_555
C5 C4 1_555 1_555
H4 C5 1_555 1_555
C6 C1 1_555 1_555
H5 C6 1_555 1_555
C7 P1 1_555 1_555
C8 C7 1_555 1_555
H6 C8 1_555 1_555
C9 C8 1_555 1_555
H7 C9 1_555 1_555
C10 C9 1_555 1_555
H8 C10 1_555 1_555
C11 C10 1_555 1_555
H9 C11 1_555 1_555
C12 C7 1_555 1_555
H10 C12 1_555 1_555
C13 P1 1_555 1_555
C14 C13 1_555 1_555
H11 C14 1_555 1_555
C15 C14 1_555 1_555
H12 C15 1_555 1_555
C16 C15 1_555 1_555
H13 C16 1_555 1_555
C17 C16 1_555 1_555
H14 C17 1_555 1_555
C18 C13 1_555 1_555
H15 C18 1_555 1_555
C19 P1 1_555 1_555
H16 C19 1_555 1_555
H17 C19 1_555 1_555
H18 C19 1_555 1_555
C20 B1 1_555 1_555
C21 C20 1_555 1_555
C22 C21 1_555 1_555
H19 C22 1_555 1_555
C23 C22 1_555 1_555
C24 C23 1_555 1_555
H20 C24 1_555 1_555
C25 C20 1_555 1_555
C26 C21 1_555 1_555
H21 C26 1_555 1_555
H22 C26 1_555 1_555
H23 C26 1_555 1_555
C27 C23 1_555 1_555
H24 C27 1_555 1_555
H25 C27 1_555 1_555
H26 C27 1_555 1_555
C28 C25 1_555 1_555
H27 C28 1_555 1_555
H28 C28 1_555 1_555
H29 C28 1_555 1_555
C29 B1 1_555 1_555
C30 C29 1_555 1_555
C31 C30 1_555 1_555
H30 C31 1_555 1_555
C32 C31 1_555 1_555
C33 C32 1_555 1_555
H31 C33 1_555 1_555
C34 C29 1_555 1_555
C35 C30 1_555 1_555
H32 C35 1_555 1_555
H33 C35 1_555 1_555
H34 C35 1_555 1_555
C36 C32 1_555 1_555
H35 C36 1_555 1_555
H36 C36 1_555 1_555
H37 C36 1_555 1_555
C37 C34 1_555 1_555
H38 C37 1_555 1_555
H39 C37 1_555 1_555
H40 C37 1_555 1_555
C38 H41 1_555 1_555
C3 C4 1_555 1_555
C5 C6 1_555 1_555
C11 C12 1_555 1_555
C17 C18 1_555 1_555
C24 C25 1_555 1_555
C33 C34 1_555 1_555

#END
