
#######################################################################
#
#                 Cambridge Crystallographic Data Centre
#                                CCDC 
#
#######################################################################
#
# If this CIF has been generated from an entry in the Cambridge 
# Structural Database, then it will include bibliographic, chemical, 
# crystal, experimental, refinement or atomic coordinate data resulting 
# from the CCDC's data processing and validation procedures.
#
#######################################################################

data_PUBWUF
_chemical_formula_moiety         'C20 H16 N6 O4,C3 H7 N1 O1'
_chemical_name_systematic        
'1,3-bis((2-(4-Nitrophenyl)hydrazono)methyl)benzene dimethylformamide solvate'
_symmetry_cell_setting           monoclinic
_symmetry_space_group_name_H-M   'C 2/c'
_symmetry_Int_Tables_number      15
_space_group_name_Hall           '-C 2yn'
loop_
_symmetry_equiv_pos_site_id
_symmetry_equiv_pos_as_xyz
1 x,y,z
2 1/2+x,1/2+y,z
3 -x,y,1/2-z
4 1/2-x,1/2+y,1/2-z
5 -x,-y,-z
6 1/2-x,1/2-y,-z
7 x,-y,1/2+z
8 1/2+x,1/2-y,1/2+z
_cell_length_a                   14.5725(14)
_cell_length_b                   21.610(3)
_cell_length_c                   9.4008(9)
_cell_angle_alpha                90
_cell_angle_beta                 128.012(2)
_cell_angle_gamma                90
_cell_volume                     2332.46
_chemical_melting_point          290-291deg.C
_cell_formula_units_Z            4
loop_
_atom_site_label
_atom_site_type_symbol
_atom_site_fract_x
_atom_site_fract_y
_atom_site_fract_z
C12 C 0.4743(8) 0.1650(4) 0.2989(12)
C13 C 0.4554(6) 0.0766(6) 0.3191(10)
H9 H 0.3792 0.0615 0.2224
H10 H 0.4499 0.1037 0.3946
H11 H 0.5053 0.0424 0.3894
N4 N 0.5000 0.10803(19) 0.2500
O3 O 0.5000 0.21245(17) 0.2500
C12B C 0.5257(8) 0.1650(4) 0.2011(12)
C13B C 0.5446(6) 0.0766(6) 0.1809(10)
H9B H 0.6208 0.0615 0.2776
H10B H 0.5501 0.1037 0.1054
H11B H 0.4947 0.0424 0.1106
C1 C 0.2586(4) 0.1897(2) 0.6771(5)
H1 H 0.2748 0.2203 0.6260
C2 C 0.2818(3) 0.1286(2) 0.6682(5)
C3 C 0.2599(4) 0.0828(2) 0.7457(6)
H2 H 0.2756 0.0417 0.7386
C4 C 0.2147(3) 0.09788(17) 0.8337(5)
H3 H 0.2013 0.0671 0.8882
C5 C 0.1893(3) 0.15932(16) 0.8407(4)
C6 C 0.2120(3) 0.20513(18) 0.7610(5)
H4 H 0.1951 0.2463 0.7653
C7 C 0.0749(3) 0.16172(16) 1.0764(5)
H5 H 0.0653 0.2044 1.0691
C8 C 0.0389(3) 0.12555(16) 1.1671(4)
C9 C 0.0397(3) 0.06106(16) 1.1703(5)
H6 H 0.0672 0.0392 1.1182
C10 C 0.0000 0.1571(2) 1.2500
H7 H 0.0000 0.2002 1.2500
C11 C 0.0000 0.0295(2) 1.2500
H8 H 0.0000 -0.0135 1.2500
N1 N 0.3276(4) 0.1134(3) 0.5735(6)
N2 N 0.1445(3) 0.17821(13) 0.9252(4)
H12 H 0.1320 0.2170 0.9270
N3 N 0.1188(2) 0.13694(14) 1.0075(4)
O1 O 0.3382(5) 0.0579(3) 0.5512(7)
O2 O 0.3500(5) 0.1557(3) 0.5131(7)
C1B C -0.2586(4) 0.1897(2) 1.8229(5)
H1B H -0.2748 0.2203 1.8740
C2B C -0.2818(3) 0.1286(2) 1.8318(5)
C3B C -0.2599(4) 0.0828(2) 1.7543(6)
H2B H -0.2756 0.0417 1.7614
C4B C -0.2147(3) 0.09788(17) 1.6663(5)
H3B H -0.2013 0.0671 1.6118
C5B C -0.1893(3) 0.15932(16) 1.6593(4)
C6B C -0.2120(3) 0.20513(18) 1.7390(5)
H4B H -0.1951 0.2463 1.7347
C7B C -0.0749(3) 0.16172(16) 1.4236(5)
H5B H -0.0653 0.2044 1.4309
C8B C -0.0389(3) 0.12555(16) 1.3329(4)
C9B C -0.0397(3) 0.06106(16) 1.3297(5)
H6B H -0.0672 0.0392 1.3818
N1B N -0.3276(4) 0.1134(3) 1.9265(6)
N2B N -0.1445(3) 0.17821(13) 1.5748(4)
H12B H -0.1320 0.2170 1.5730
N3B N -0.1188(2) 0.13694(14) 1.4925(4)
O1B O -0.3382(5) 0.0579(3) 1.9488(7)
O2B O -0.3500(5) 0.1557(3) 1.9869(7)
loop_
_geom_bond_atom_site_label_1
_geom_bond_atom_site_label_2
_geom_bond_site_symmetry_1
_geom_bond_site_symmetry_2
C1 H1 1_555 1_555
C2 C1 1_555 1_555
C3 C2 1_555 1_555
H2 C3 1_555 1_555
C4 C3 1_555 1_555
H3 C4 1_555 1_555
C5 C4 1_555 1_555
C6 C1 1_555 1_555
H4 C6 1_555 1_555
C7 H5 1_555 1_555
C8 C7 1_555 1_555
C9 C8 1_555 1_555
H6 C9 1_555 1_555
C10 C8 1_555 1_555
H7 C10 1_555 1_555
C11 C9 1_555 1_555
H8 C11 1_555 1_555
C12 N4 1_555 1_555
C13 H9 1_555 1_555
H10 C13 1_555 1_555
H11 C13 1_555 1_555
N1 C2 1_555 1_555
N2 C5 1_555 1_555
H12 N2 1_555 1_555
N3 C7 1_555 1_555
N4 C13 1_555 1_555
O1 N1 1_555 1_555
O2 N1 1_555 1_555
O3 C12 1_555 1_555
C1B H1B 1_555 1_555
C2B C1B 1_555 1_555
C3B C2B 1_555 1_555
H2B C3B 1_555 1_555
C4B C3B 1_555 1_555
H3B C4B 1_555 1_555
C5B C4B 1_555 1_555
C6B C1B 1_555 1_555
H4B C6B 1_555 1_555
C7B H5B 1_555 1_555
C8B C10 1_555 1_555
C9B C11 1_555 1_555
H6B C9B 1_555 1_555
C12B C12 1_555 1_555
C13B N4 1_555 1_555
H9B C13B 1_555 1_555
H10B C13B 1_555 1_555
H11B C13B 1_555 1_555
N1B C2B 1_555 1_555
N2B C5B 1_555 1_555
H12B N2B 1_555 1_555
N3B C7B 1_555 1_555
O1B N1B 1_555 1_555
O2B N1B 1_555 1_555
C5 C6 1_555 1_555
N2 N3 1_555 1_555
N4 C12B 1_555 1_555
O3 C12B 1_555 1_555
C5B C6B 1_555 1_555
C7B C8B 1_555 1_555
C8B C9B 1_555 1_555
N2B N3B 1_555 1_555

#END
