
#######################################################################
#
#                 Cambridge Crystallographic Data Centre
#                                CCDC 
#
#######################################################################
#
# If this CIF has been generated from an entry in the Cambridge 
# Structural Database, then it will include bibliographic, chemical, 
# crystal, experimental, refinement or atomic coordinate data resulting 
# from the CCDC's data processing and validation procedures.
#
#######################################################################

data_PUBWAM
_chemical_formula_moiety         'C12 H10 O4'
_chemical_name_systematic        
'Methyl 3-ethylidene-1-oxo-1,3-dihydro-2-benzofuran-5-carboxylate'
_symmetry_cell_setting           triclinic
_symmetry_space_group_name_H-M   'P -1'
_symmetry_Int_Tables_number      2
_space_group_name_Hall           '-P 1'
loop_
_symmetry_equiv_pos_site_id
_symmetry_equiv_pos_as_xyz
1 x,y,z
2 -x,-y,-z
_cell_length_a                   7.5873(9)
_cell_length_b                   8.0869(12)
_cell_length_c                   10.0489(9)
_cell_angle_alpha                102.730(10)
_cell_angle_beta                 96.588(9)
_cell_angle_gamma                117.756(13)
_cell_volume                     515.073
_exptl_crystal_colour            colorless
_exptl_crystal_description       block
_cell_formula_units_Z            2
loop_
_atom_site_label
_atom_site_type_symbol
_atom_site_fract_x
_atom_site_fract_y
_atom_site_fract_z
O1 O -0.0028(2) 0.5184(2) 0.27176(15)
O2 O 0.1012(2) 1.1569(2) 0.90547(15)
O3 O -0.2093(2) 1.0257(3) 0.76139(17)
C1 C -0.0437(3) 0.7056(3) 0.4619(2)
O4 O 0.3347(2) 0.6254(2) 0.34543(17)
C2 C 0.2375(3) 0.9870(3) 0.7082(2)
H1 H 0.3319 1.0841 0.7934
C3 C -0.1130(3) 0.7981(3) 0.5588(2)
H2 H -0.2527 0.7661 0.5413
C4 C 0.1870(3) 0.6345(3) 0.3679(2)
C5 C -0.0415(3) 1.0428(3) 0.7848(2)
C6 C 0.3060(3) 0.8949(3) 0.6118(2)
H3 H 0.4455 0.9267 0.6287
C7 C 0.0306(3) 0.9390(3) 0.6820(2)
C8 C -0.1491(3) 0.5568(3) 0.3236(2)
C9 C 0.1611(3) 0.7543(3) 0.4893(2)
C10 C -0.3422(3) 0.4642(3) 0.2483(2)
H4 H -0.4344 0.4960 0.2882
C11 C -0.4273(4) 0.3138(4) 0.1056(2)
H5 H -0.5738 0.2680 0.0727
H6 H -0.4105 0.2023 0.1113
H7 H -0.3533 0.3726 0.0394
C12 C 0.0453(4) 1.2674(4) 1.0086(2)
H8 H 0.1598 1.3463 1.0933
H9 H -0.0767 1.1763 1.0334
H10 H 0.0150 1.3544 0.9689
loop_
_geom_bond_atom_site_label_1
_geom_bond_atom_site_label_2
_geom_bond_site_symmetry_1
_geom_bond_site_symmetry_2
O1 C4 1_555 1_555
O2 C5 1_555 1_555
O3 C5 1_555 1_555
C1 C3 1_555 1_555
O4 C4 1_555 1_555
C2 H1 1_555 1_555
C3 H2 1_555 1_555
C4 C9 1_555 1_555
C5 C7 1_555 1_555
C6 C2 1_555 1_555
H3 C6 1_555 1_555
C7 C2 1_555 1_555
C8 O1 1_555 1_555
C9 C1 1_555 1_555
C10 C8 1_555 1_555
H4 C10 1_555 1_555
C11 C10 1_555 1_555
H5 C11 1_555 1_555
H6 C11 1_555 1_555
H7 C11 1_555 1_555
C12 O2 1_555 1_555
H8 C12 1_555 1_555
H9 C12 1_555 1_555
H10 C12 1_555 1_555
C1 C8 1_555 1_555
C3 C7 1_555 1_555
C6 C9 1_555 1_555

#END
