
#######################################################################
#
#                 Cambridge Crystallographic Data Centre
#                                CCDC 
#
#######################################################################
#
# If this CIF has been generated from an entry in the Cambridge 
# Structural Database, then it will include bibliographic, chemical, 
# crystal, experimental, refinement or atomic coordinate data resulting 
# from the CCDC's data processing and validation procedures.
#
#######################################################################

data_PUBYUI
_chemical_formula_moiety         'C52 H59 Cl3 N6 Si2,C1 H4 O1'
_chemical_name_systematic        
'7-(1,4-bis(Tri-isopropylsilyl)but-1-en-3-yn-1-yl)-2,4,5-tris(4-chlorophenyl)-5,8-dihydro-1,8-naphthyridine-3,3,4a,6(2H,4H)-tetracarbonitrile methanol solvate'
_symmetry_cell_setting           triclinic
_symmetry_space_group_name_H-M   'P -1'
_symmetry_Int_Tables_number      2
_space_group_name_Hall           '-P 1'
loop_
_symmetry_equiv_pos_site_id
_symmetry_equiv_pos_as_xyz
1 x,y,z
2 -x,-y,-z
_cell_length_a                   8.9094(7)
_cell_length_b                   16.3913(16)
_cell_length_c                   19.5709(17)
_cell_angle_alpha                77.375(2)
_cell_angle_beta                 79.853(2)
_cell_angle_gamma                74.302(2)
_cell_volume                     2664.02
_exptl_crystal_colour            colorless
_exptl_crystal_description       block
_cell_formula_units_Z            2
loop_
_atom_site_label
_atom_site_type_symbol
_atom_site_fract_x
_atom_site_fract_y
_atom_site_fract_z
Cl1 Cl -0.36221(10) 1.29687(5) -0.35004(5)
Cl2 Cl 0.23044(9) 0.87700(5) 0.01338(4)
Cl3 Cl 0.61592(9) 1.03315(6) -0.10455(4)
Si1 Si 0.19662(8) 0.57280(5) -0.36345(4)
Si2 Si 0.14260(9) 0.31913(5) -0.09306(4)
N1 N 0.4374(2) 0.83671(12) -0.33627(10)
N2 N 0.2854(2) 0.74083(12) -0.31451(10)
H1 H 0.3695 0.7006 -0.3248
N3 N -0.2411(3) 0.73080(15) -0.21642(14)
N4 N 0.3514(3) 1.14955(15) -0.39245(15)
N5 N 0.3144(3) 0.97159(15) -0.50913(12)
N6 N 0.0123(3) 0.88312(14) -0.43431(12)
C1 C 0.4680(3) 0.92171(14) -0.35259(12)
H2 H 0.5584 0.9209 -0.3911
C2 C 0.3227(3) 0.99240(14) -0.38134(12)
C3 C 0.1728(3) 0.98110(14) -0.32854(12)
H3 H 0.2033 0.9771 -0.2809
C4 C 0.1431(2) 0.89227(14) -0.32737(11)
C5 C 0.0284(3) 0.86321(14) -0.26107(12)
H4 H -0.0783 0.9027 -0.2650
C6 C 0.0190(3) 0.77319(14) -0.26450(12)
C7 C 0.1469(3) 0.71572(14) -0.28688(11)
C8 C 0.3000(3) 0.82471(14) -0.32693(11)
C9 C 0.3135(3) 0.98138(15) -0.45342(13)
C10 C 0.3405(3) 1.08078(16) -0.38743(14)
C11 C 0.0707(3) 0.88917(14) -0.38918(12)
C12 C 0.0358(3) 1.05932(14) -0.33638(12)
C13 C 0.0062(3) 1.11372(16) -0.28759(14)
H5 H 0.0698 1.0999 -0.2505
C14 C -0.1148(3) 1.18795(17) -0.29232(16)
H6 H -0.1346 1.2247 -0.2587
C15 C -0.2052(3) 1.20742(17) -0.34628(16)
C16 C -0.1756(3) 1.15639(17) -0.39657(14)
H7 H -0.2378 1.1717 -0.4343
C17 C -0.0539(3) 1.08218(15) -0.39205(13)
H8 H -0.0321 1.0471 -0.4271
C18 C 0.0778(3) 0.86481(14) -0.19126(12)
C19 C 0.1873(3) 0.79577(14) -0.15752(12)
H9 H 0.2306 0.7458 -0.1781
C20 C 0.2327(3) 0.79987(16) -0.09464(13)
H10 H 0.3083 0.7534 -0.0725
C21 C 0.1674(3) 0.87192(17) -0.06421(13)
C22 C 0.0565(3) 0.93938(16) -0.09456(14)
H11 H 0.0112 0.9883 -0.0727
C23 C 0.0115(3) 0.93495(16) -0.15774(13)
H12 H -0.0665 0.9811 -0.1786
C24 C 0.5154(3) 0.94457(15) -0.29002(12)
C25 C 0.4700(3) 0.90749(17) -0.22147(13)
H13 H 0.4158 0.8631 -0.2136
C26 C 0.5021(3) 0.93378(18) -0.16393(14)
H14 H 0.4696 0.9084 -0.1171
C27 C 0.5818(3) 0.99719(18) -0.17646(14)
C28 C 0.6339(3) 1.03303(17) -0.24372(15)
H15 H 0.6909 1.0762 -0.2511
C29 C 0.6024(3) 1.00561(17) -0.30086(14)
H16 H 0.6407 1.0288 -0.3475
C30 C -0.1246(3) 0.74906(16) -0.23798(13)
C31 C 0.1578(3) 0.62228(14) -0.28021(12)
C32 C 0.1430(3) 0.58292(15) -0.21210(13)
H17 H 0.1246 0.6200 -0.1788
C33 C 0.1504(3) 0.49507(17) -0.18213(14)
C34 C 0.1541(3) 0.42363(17) -0.14855(15)
C35 C 0.0809(4) 0.6531(2) -0.43141(16)
H18 H 0.1276 0.7042 -0.4431
C36 C 0.1031(6) 0.6185(3) -0.50019(19)
H19 H 0.2155 0.6001 -0.5162
H20 H 0.0525 0.6641 -0.5364
H21 H 0.0553 0.5694 -0.4920
C37 C -0.0933(4) 0.6869(2) -0.4092(2)
H22 H -0.1467 0.6400 -0.4017
H23 H -0.1380 0.7333 -0.4462
H24 H -0.1077 0.7090 -0.3652
C38 C 0.4136(4) 0.5523(3) -0.3966(2)
H25 H 0.4338 0.5072 -0.4265
C39 C 0.5131(4) 0.5117(3) -0.3365(3)
H26 H 0.5074 0.5549 -0.3079
H27 H 0.6226 0.4904 -0.3559
H28 H 0.4734 0.4636 -0.3069
C40 C 0.4742(5) 0.6267(4) -0.4439(2)
H29 H 0.4161 0.6482 -0.4850
H30 H 0.5863 0.6066 -0.4598
H31 H 0.4590 0.6732 -0.4174
C41 C 0.1440(3) 0.46599(18) -0.33871(16)
H32 H 0.1932 0.4360 -0.2949
C42 C -0.0318(4) 0.4731(2) -0.3189(2)
H33 H -0.0741 0.5129 -0.2855
H34 H -0.0496 0.4162 -0.2970
H35 H -0.0848 0.4949 -0.3614
C43 C 0.2092(5) 0.4055(2) -0.3922(2)
H36 H 0.1649 0.4318 -0.4365
H37 H 0.1806 0.3505 -0.3734
H38 H 0.3239 0.3956 -0.4008
C44 C -0.0735(4) 0.3280(2) -0.0628(2)
H39 H -0.0835 0.2721 -0.0315
C45 C -0.1661(4) 0.3402(3) -0.1249(3)
H40 H -0.1633 0.3959 -0.1555
H41 H -0.2754 0.3388 -0.1069
H42 H -0.1189 0.2938 -0.1519
C46 C -0.1444(6) 0.3984(3) -0.0194(3)
H43 H -0.0819 0.3902 0.0191
H44 H -0.2525 0.3959 0.0002
H45 H -0.1446 0.4547 -0.0496
C47 C 0.2465(6) 0.3059(4) -0.0162(3)
H46 H 0.1716 0.3500 0.0094
C48 C 0.3850(6) 0.3368(4) -0.0262(3)
H47 H 0.4697 0.3008 -0.0535
H48 H 0.4165 0.3345 0.0199
H49 H 0.3642 0.3965 -0.0517
C49 C 0.2396(6) 0.2254(3) 0.0380(3)
H50 H 0.1296 0.2252 0.0556
H51 H 0.2953 0.2241 0.0773
H52 H 0.2893 0.1745 0.0162
C50 C 0.2252(5) 0.2334(2) -0.1450(2)
H53 H 0.3299 0.2156 -0.1271
C51 C 0.2849(9) 0.2465(3) -0.2151(3)
H54 H 0.2117 0.2938 -0.2413
H55 H 0.2994 0.1938 -0.2340
H56 H 0.3864 0.2611 -0.2200
C52 C 0.1828(4) 0.1481(2) -0.1153(2)
H57 H 0.2098 0.1280 -0.0670
H58 H 0.2412 0.1057 -0.1447
H59 H 0.0697 0.1555 -0.1149
O1 O 0.4949(2) 0.34928(13) 0.21239(13)
H60 H 0.4799 0.3086 0.1968
C53 C 0.4466(5) 0.4271(2) 0.1660(2)
H61 H 0.4518 0.4154 0.1186
H62 H 0.5160 0.4648 0.1649
H63 H 0.3384 0.4554 0.1822
loop_
_geom_bond_atom_site_label_1
_geom_bond_atom_site_label_2
_geom_bond_site_symmetry_1
_geom_bond_site_symmetry_2
Cl1 C15 1_555 1_555
Cl2 C21 1_555 1_555
Cl3 C27 1_555 1_555
Si1 C31 1_555 1_555
Si2 C34 1_555 1_555
N1 C1 1_555 1_555
N2 H1 1_555 1_555
N3 C30 1_555 1_555
N4 C10 1_555 1_555
N5 C9 1_555 1_555
N6 C11 1_555 1_555
C1 H2 1_555 1_555
C2 C1 1_555 1_555
C3 C2 1_555 1_555
H3 C3 1_555 1_555
C4 C3 1_555 1_555
C5 C4 1_555 1_555
H4 C5 1_555 1_555
C6 C5 1_555 1_555
C7 N2 1_555 1_555
C8 N1 1_555 1_555
C9 C2 1_555 1_555
C10 C2 1_555 1_555
C11 C4 1_555 1_555
C12 C3 1_555 1_555
C13 C12 1_555 1_555
H5 C13 1_555 1_555
C14 C13 1_555 1_555
H6 C14 1_555 1_555
C15 C14 1_555 1_555
C16 C15 1_555 1_555
H7 C16 1_555 1_555
C17 C12 1_555 1_555
H8 C17 1_555 1_555
C18 C5 1_555 1_555
C19 C18 1_555 1_555
H9 C19 1_555 1_555
C20 C19 1_555 1_555
H10 C20 1_555 1_555
C21 C20 1_555 1_555
C22 C21 1_555 1_555
H11 C22 1_555 1_555
C23 C18 1_555 1_555
H12 C23 1_555 1_555
C24 C1 1_555 1_555
C25 C24 1_555 1_555
H13 C25 1_555 1_555
C26 C25 1_555 1_555
H14 C26 1_555 1_555
C27 C26 1_555 1_555
C28 C27 1_555 1_555
H15 C28 1_555 1_555
C29 C24 1_555 1_555
H16 C29 1_555 1_555
C30 C6 1_555 1_555
C31 C7 1_555 1_555
C32 C31 1_555 1_555
H17 C32 1_555 1_555
C33 C32 1_555 1_555
C34 C33 1_555 1_555
C35 Si1 1_555 1_555
H18 C35 1_555 1_555
C36 C35 1_555 1_555
H19 C36 1_555 1_555
H20 C36 1_555 1_555
H21 C36 1_555 1_555
C37 C35 1_555 1_555
H22 C37 1_555 1_555
H23 C37 1_555 1_555
H24 C37 1_555 1_555
C38 Si1 1_555 1_555
H25 C38 1_555 1_555
C39 C38 1_555 1_555
H26 C39 1_555 1_555
H27 C39 1_555 1_555
H28 C39 1_555 1_555
C40 C38 1_555 1_555
H29 C40 1_555 1_555
H30 C40 1_555 1_555
H31 C40 1_555 1_555
C41 Si1 1_555 1_555
H32 C41 1_555 1_555
C42 C41 1_555 1_555
H33 C42 1_555 1_555
H34 C42 1_555 1_555
H35 C42 1_555 1_555
C43 C41 1_555 1_555
H36 C43 1_555 1_555
H37 C43 1_555 1_555
H38 C43 1_555 1_555
C44 Si2 1_555 1_555
H39 C44 1_555 1_555
C45 C44 1_555 1_555
H40 C45 1_555 1_555
H41 C45 1_555 1_555
H42 C45 1_555 1_555
C46 C44 1_555 1_555
H43 C46 1_555 1_555
H44 C46 1_555 1_555
H45 C46 1_555 1_555
C47 Si2 1_555 1_555
H46 C47 1_555 1_555
C48 C47 1_555 1_555
H47 C48 1_555 1_555
H48 C48 1_555 1_555
H49 C48 1_555 1_555
C49 C47 1_555 1_555
H50 C49 1_555 1_555
H51 C49 1_555 1_555
H52 C49 1_555 1_555
C50 Si2 1_555 1_555
H53 C50 1_555 1_555
C51 C50 1_555 1_555
H54 C51 1_555 1_555
H55 C51 1_555 1_555
H56 C51 1_555 1_555
C52 C50 1_555 1_555
H57 C52 1_555 1_555
H58 C52 1_555 1_555
H59 C52 1_555 1_555
O1 H60 1_555 1_555
C53 O1 1_555 1_555
H61 C53 1_555 1_555
H62 C53 1_555 1_555
H63 C53 1_555 1_555
N2 C8 1_555 1_555
C4 C8 1_555 1_555
C6 C7 1_555 1_555
C16 C17 1_555 1_555
C22 C23 1_555 1_555
C28 C29 1_555 1_555

#END
