
#######################################################################
#
#                 Cambridge Crystallographic Data Centre
#                                CCDC 
#
#######################################################################
#
# If this CIF has been generated from an entry in the Cambridge 
# Structural Database, then it will include bibliographic, chemical, 
# crystal, experimental, refinement or atomic coordinate data resulting 
# from the CCDC's data processing and validation procedures.
#
#######################################################################

data_PUBYAM
_chemical_formula_moiety         'C20 H16 S16'
_chemical_name_systematic        
2,5,7,10,11,14,15,18-Octathia-1(2,7,3,6),6(2,3,7,6)ditetrathiafulvalena-tricyclo(4.4.4.4)octadecaphane
_symmetry_cell_setting           monoclinic
_symmetry_space_group_name_H-M   'P 21/a'
_symmetry_Int_Tables_number      14
_space_group_name_Hall           '-P 2yab'
loop_
_symmetry_equiv_pos_site_id
_symmetry_equiv_pos_as_xyz
1 x,y,z
2 1/2-x,1/2+y,-z
3 -x,-y,-z
4 1/2+x,1/2-y,z
_cell_length_a                   17.496(6)
_cell_length_b                   10.223(5)
_cell_length_c                   17.817(7)
_cell_angle_alpha                90
_cell_angle_beta                 104.52(3)
_cell_angle_gamma                90
_cell_volume                     3084.99
_exptl_crystal_colour            yellow
_exptl_crystal_description       needles
_chemical_melting_point          290deg.C(dec)
_cell_formula_units_Z            4
_exptl_crystal_recrystallization_method 'carbon disulfide/hexane'
loop_
_atom_site_label
_atom_site_type_symbol
_atom_site_fract_x
_atom_site_fract_y
_atom_site_fract_z
S1 S 0.4578(2) 0.0803(4) 0.8048(2)
C1 C 0.3662(7) 0.140(1) 0.7550(8)
S2 S 0.3100(2) 0.2293(4) 0.8052(2)
C2 C 0.2216(8) 0.216(1) 0.7295(7)
S3 S 0.2448(2) 0.2091(4) 0.6387(2)
C3 C 0.3361(7) 0.129(1) 0.6764(8)
S4 S 0.3856(2) 0.0568(4) 0.6140(2)
C4 C 0.3056(8) -0.039(2) 0.5508(8)
C5 C 0.2742(10) -0.131(2) 0.5978(9)
S5 S 0.1921(2) -0.2194(4) 0.5283(2)
C6 C 0.1618(8) -0.318(1) 0.5945(7)
S6 S 0.2366(2) -0.4163(4) 0.6569(2)
C7 C 0.1801(8) -0.434(1) 0.7232(9)
S7 S 0.0786(2) -0.4388(4) 0.6791(2)
C8 C 0.0904(8) -0.331(1) 0.6036(7)
S8 S 0.0060(2) -0.2543(4) 0.5502(2)
C9 C -0.0129(9) -0.155(2) 0.6350(9)
C10 C -0.062(1) -0.044(2) 0.6025(10)
S9 S -0.0795(2) 0.0505(4) 0.6840(2)
C11 C 0.0142(8) 0.113(1) 0.7267(9)
S10 S 0.0651(2) 0.1936(4) 0.6676(2)
C12 C 0.1537(8) 0.210(1) 0.7411(8)
S11 S 0.1350(2) 0.2066(4) 0.8345(2)
C13 C 0.0467(8) 0.116(1) 0.8041(9)
S12 S 0.0034(3) 0.0570(5) 0.8748(3)
C14 C 0.069(2) -0.112(3) 0.910(1)
C15 C 0.126(2) -0.058(3) 0.949(1)
S13 S 0.1883(3) -0.2189(5) 0.9976(2)
C16 C 0.2218(8) -0.299(1) 0.9257(7)
S14 S 0.1562(2) -0.4168(4) 0.8699(2)
C17 C 0.2106(8) -0.424(1) 0.8017(9)
S15 S 0.3116(2) -0.3949(4) 0.8401(2)
C18 C 0.2917(8) -0.290(1) 0.9122(7)
S16 S 0.3684(2) -0.1868(4) 0.9579(2)
C19 C 0.386(1) -0.105(2) 0.8656(10)
C20 C 0.437(1) 0.000(2) 0.8902(10)
loop_
_geom_bond_atom_site_label_1
_geom_bond_atom_site_label_2
_geom_bond_site_symmetry_1
_geom_bond_site_symmetry_2
S1 C1 1_555 1_555
C1 S2 1_555 1_555
S2 C2 1_555 1_555
C2 S3 1_555 1_555
S3 C3 1_555 1_555
C3 C1 1_555 1_555
S4 C3 1_555 1_555
C4 S4 1_555 1_555
C5 C4 1_555 1_555
S5 C5 1_555 1_555
C6 S5 1_555 1_555
S6 C6 1_555 1_555
C7 S6 1_555 1_555
S7 C7 1_555 1_555
C8 C6 1_555 1_555
S8 C8 1_555 1_555
C9 S8 1_555 1_555
C10 C9 1_555 1_555
S9 C10 1_555 1_555
C11 S9 1_555 1_555
S10 C11 1_555 1_555
C12 C2 1_555 1_555
S11 C12 1_555 1_555
C13 C11 1_555 1_555
S12 C13 1_555 1_555
C14 S12 1_555 1_555
C15 C14 1_555 1_555
S13 C15 1_555 1_555
C16 S13 1_555 1_555
S14 C16 1_555 1_555
C17 C7 1_555 1_555
S15 C17 1_555 1_555
C18 C16 1_555 1_555
S16 C18 1_555 1_555
C19 S16 1_555 1_555
C20 S1 1_555 1_555
S7 C8 1_555 1_555
S10 C12 1_555 1_555
S11 C13 1_555 1_555
S14 C17 1_555 1_555
S15 C18 1_555 1_555
C19 C20 1_555 1_555

#END
