
#######################################################################
#
#                 Cambridge Crystallographic Data Centre
#                                CCDC 
#
#######################################################################
#
# If this CIF has been generated from an entry in the Cambridge 
# Structural Database, then it will include bibliographic, chemical, 
# crystal, experimental, refinement or atomic coordinate data resulting 
# from the CCDC's data processing and validation procedures.
#
#######################################################################

data_PUCPEK
_chemical_formula_moiety         'C25 H24 Br1 N3 O1'
_chemical_name_systematic        
2-(2-(Benzylamino)phenyl)-3-(4-bromophenyl)hexahydro-1H-pyrrolo[1,2-c]imidazol-1-one
_symmetry_cell_setting           orthorhombic
_symmetry_space_group_name_H-M   'P 21 21 21'
_symmetry_Int_Tables_number      19
_space_group_name_Hall           'P 2ac 2ab'
loop_
_symmetry_equiv_pos_site_id
_symmetry_equiv_pos_as_xyz
1 x,y,z
2 1/2-x,-y,1/2+z
3 -x,1/2+y,1/2-z
4 1/2+x,1/2-y,-z
_cell_length_a                   9.6804(18)
_cell_length_b                   12.052(2)
_cell_length_c                   18.858(4)
_cell_angle_alpha                90
_cell_angle_beta                 90
_cell_angle_gamma                90
_cell_volume                     2200.13
_cell_formula_units_Z            4
loop_
_atom_site_label
_atom_site_type_symbol
_atom_site_fract_x
_atom_site_fract_y
_atom_site_fract_z
Br1 Br 0.11324(6) 0.38285(3) 0.79009(3)
O1 O 0.1067(3) -0.32125(19) 0.88204(13)
C1 C 0.1925(3) -0.1239(2) 0.95900(16)
N1 N 0.2277(3) -0.1591(2) 0.88903(13)
C2 C 0.1865(3) -0.2531(3) 0.85689(17)
C3 C 0.1782(3) 0.0467(3) 0.77607(17)
H1 H 0.1509 -0.0103 0.7459
C4 C 0.2539(4) -0.2581(3) 0.78586(19)
H2 H 0.1835 -0.2613 0.7485
C5 C 0.2652(3) 0.0238(2) 0.83228(16)
C6 C 0.1705(4) 0.2356(3) 0.8082(2)
N2 N -0.0471(3) -0.1104(3) 0.92641(17)
H3 H -0.0243 -0.1280 0.8838
C7 C 0.3215(3) -0.0929(2) 0.84437(16)
H4 H 0.4120 -0.0880 0.8674
C8 C 0.2973(4) -0.1109(3) 1.00790(18)
H5 H 0.3871 -0.1308 0.9958
C9 C 0.0558(4) -0.0973(3) 0.97603(19)
C10 C 0.2570(4) 0.2155(3) 0.8640(2)
H6 H 0.2842 0.2733 0.8935
C11 C -0.1741(5) 0.1068(3) 0.9103(2)
H7 H -0.0968 0.0912 0.8828
C12 C 0.3038(4) 0.1093(3) 0.87635(17)
H8 H 0.3618 0.0954 0.9147
C13 C -0.1915(4) -0.0959(3) 0.9428(3)
H9 H -0.2108 -0.1323 0.9876
H10 H -0.2458 -0.1329 0.9065
C14 C -0.2380(3) 0.0229(3) 0.94765(19)
C15 C 0.1315(4) 0.1526(3) 0.76426(19)
H11 H 0.0733 0.1673 0.7262
N3 N 0.3344(3) -0.1563(2) 0.77927(16)
C16 C -0.3992(5) 0.1552(4) 0.9932(2)
H12 H -0.4754 0.1715 1.0213
C17 C -0.2243(7) 0.2136(4) 0.9136(3)
H13 H -0.1821 0.2697 0.8875
C18 C 0.3562(6) -0.3537(3) 0.7771(2)
H14 H 0.3517 -0.3865 0.7302
H15 H 0.3432 -0.4108 0.8127
C19 C 0.5008(8) -0.2829(9) 0.7895(8)
H16 H 0.5204 -0.2742 0.8397
H17 H 0.5785 -0.3195 0.7669
C20 C 0.0319(5) -0.0530(3) 1.0434(2)
H18 H -0.0573 -0.0330 1.0565
C21 C -0.3502(4) 0.0483(3) 0.9899(2)
H19 H -0.3927 -0.0072 1.0163
C22 C -0.3368(7) 0.2373(4) 0.9553(3)
H20 H -0.3704 0.3095 0.9577
C23 C 0.1389(6) -0.0387(3) 1.0908(2)
H21 H 0.1211 -0.0077 1.1350
C24 C 0.4748(5) -0.1856(5) 0.7592(3)
H22 H 0.4828 -0.1912 0.7081
H23 H 0.5393 -0.1298 0.7759
C25 C 0.2709(5) -0.0691(4) 1.0738(2)
H24 H 0.3417 -0.0614 1.1067
C26? C 0.4642(19) -0.3167(13) 0.7442(16)
H25? H 0.4557 -0.3303 0.6937
H26? H 0.5465 -0.3540 0.7612
loop_
_geom_bond_atom_site_label_1
_geom_bond_atom_site_label_2
_geom_bond_site_symmetry_1
_geom_bond_site_symmetry_2
Br1 C6 1_555 1_555
O1 C2 1_555 1_555
C1 N1 1_555 1_555
N1 C2 1_555 1_555
C2 C4 1_555 1_555
C3 H1 1_555 1_555
C4 H2 1_555 1_555
C5 C3 1_555 1_555
C6 C10 1_555 1_555
N2 H3 1_555 1_555
C7 N1 1_555 1_555
H4 C7 1_555 1_555
C8 C1 1_555 1_555
H5 C8 1_555 1_555
C9 C1 1_555 1_555
C10 H6 1_555 1_555
C11 H7 1_555 1_555
C12 C5 1_555 1_555
H8 C12 1_555 1_555
C13 N2 1_555 1_555
H9 C13 1_555 1_555
H10 C13 1_555 1_555
C14 C11 1_555 1_555
C15 C3 1_555 1_555
H11 C15 1_555 1_555
N3 C4 1_555 1_555
C16 H12 1_555 1_555
C17 C11 1_555 1_555
H13 C17 1_555 1_555
C18 C4 1_555 1_555
H14 C18 1_555 1_555
H15 C18 1_555 1_555
C19 C18 1_555 1_555
H16 C19 1_555 1_555
H17 C19 1_555 1_555
C20 C9 1_555 1_555
H18 C20 1_555 1_555
C21 C14 1_555 1_555
H19 C21 1_555 1_555
C22 C16 1_555 1_555
H20 C22 1_555 1_555
C23 C20 1_555 1_555
H21 C23 1_555 1_555
C24 N3 1_555 1_555
H22 C24 1_555 1_555
H23 C24 1_555 1_555
C25 C8 1_555 1_555
H24 C25 1_555 1_555
C5 C7 1_555 1_555
C6 C15 1_555 1_555
N2 C9 1_555 1_555
C7 N3 1_555 1_555
C10 C12 1_555 1_555
C13 C14 1_555 1_555
C16 C21 1_555 1_555
C17 C22 1_555 1_555
C19 C24 1_555 1_555
C23 C25 1_555 1_555

#END
