
#######################################################################
#
#                 Cambridge Crystallographic Data Centre
#                                CCDC 
#
#######################################################################
#
# If this CIF has been generated from an entry in the Cambridge 
# Structural Database, then it will include bibliographic, chemical, 
# crystal, experimental, refinement or atomic coordinate data resulting 
# from the CCDC's data processing and validation procedures.
#
#######################################################################

data_PUCQUB
_chemical_formula_moiety         'C20 H15 N3 O1'
_chemical_name_systematic        3-Anilino-2-phenylquinazolin-4(3H)-one
_symmetry_cell_setting           triclinic
_symmetry_space_group_name_H-M   'P -1'
_symmetry_Int_Tables_number      2
_space_group_name_Hall           '-P 1'
loop_
_symmetry_equiv_pos_site_id
_symmetry_equiv_pos_as_xyz
1 x,y,z
2 -x,-y,-z
_cell_length_a                   9.0361(18)
_cell_length_b                   9.7342(19)
_cell_length_c                   10.511(2)
_cell_angle_alpha                83.842(4)
_cell_angle_beta                 69.579(4)
_cell_angle_gamma                68.224(4)
_cell_volume                     804.347
_exptl_crystal_colour            colorless
_exptl_crystal_description       Prism
_cell_formula_units_Z            2
loop_
_atom_site_label
_atom_site_type_symbol
_atom_site_fract_x
_atom_site_fract_y
_atom_site_fract_z
O1 O 0.01053(19) -0.03324(15) 0.84751(15)
N1 N 0.0287(2) 0.35116(18) 0.66190(18)
N2 N 0.11240(19) 0.15443(16) 0.80267(16)
N3 N 0.2083(2) 0.09174(16) 0.88812(16)
H1 H 0.1774 0.1251 0.9694
C1 C -0.0715(2) 0.1456(2) 0.6883(2)
C2 C -0.1631(3) 0.0761(3) 0.6538(2)
H2 H -0.1742 -0.0102 0.6959
C3 C -0.2368(3) 0.1374(3) 0.5564(3)
H3 H -0.2975 0.0918 0.5322
C4 C -0.2211(3) 0.2680(3) 0.4936(3)
H4 H -0.2707 0.3081 0.4275
C5 C -0.1335(3) 0.3368(3) 0.5286(3)
H5 H -0.1243 0.4238 0.4867
C6 C -0.0576(2) 0.2775(2) 0.6269(2)
C7 C 0.0145(2) 0.0797(2) 0.7853(2)
C8 C 0.1091(2) 0.2914(2) 0.7460(2)
C9 C 0.1932(2) 0.3754(2) 0.7861(2)
C10 C 0.1004(3) 0.5205(2) 0.8295(3)
H6 H -0.0128 0.5608 0.8358
C11 C 0.1727(4) 0.6071(3) 0.8637(3)
H7 H 0.1078 0.7043 0.8943
C12 C 0.3404(4) 0.5499(3) 0.8528(3)
H8 H 0.3892 0.6081 0.8759
C13 C 0.4356(3) 0.4065(3) 0.8074(3)
H9 H 0.5499 0.3681 0.7977
C14 C 0.3624(3) 0.3194(2) 0.7764(3)
H10 H 0.4272 0.2214 0.7485
C15 C 0.3591(2) -0.0299(2) 0.8322(2)
C16 C 0.4446(3) -0.1098(2) 0.9173(2)
H11 H 0.3988 -0.0870 1.0099
C17 C 0.5983(3) -0.2237(3) 0.8660(3)
H12 H 0.6551 -0.2767 0.9246
C18 C 0.6682(3) -0.2597(3) 0.7297(3)
H13 H 0.7721 -0.3358 0.6956
C19 C 0.5826(3) -0.1817(3) 0.6454(2)
H14 H 0.6275 -0.2068 0.5533
C20 C 0.4301(3) -0.0659(2) 0.6946(2)
H15 H 0.3752 -0.0120 0.6352
loop_
_geom_bond_atom_site_label_1
_geom_bond_atom_site_label_2
_geom_bond_site_symmetry_1
_geom_bond_site_symmetry_2
O1 C7 1_555 1_555
N1 C6 1_555 1_555
N2 N3 1_555 1_555
N3 H1 1_555 1_555
C1 C2 1_555 1_555
C2 H2 1_555 1_555
C3 C2 1_555 1_555
H3 C3 1_555 1_555
C4 C3 1_555 1_555
H4 C4 1_555 1_555
C5 C4 1_555 1_555
H5 C5 1_555 1_555
C6 C1 1_555 1_555
C7 N2 1_555 1_555
C8 N1 1_555 1_555
C9 C8 1_555 1_555
C10 C9 1_555 1_555
H6 C10 1_555 1_555
C11 C10 1_555 1_555
H7 C11 1_555 1_555
C12 C11 1_555 1_555
H8 C12 1_555 1_555
C13 C12 1_555 1_555
H9 C13 1_555 1_555
C14 C9 1_555 1_555
H10 C14 1_555 1_555
C15 N3 1_555 1_555
C16 C15 1_555 1_555
H11 C16 1_555 1_555
C17 C16 1_555 1_555
H12 C17 1_555 1_555
C18 C17 1_555 1_555
H13 C18 1_555 1_555
C19 C18 1_555 1_555
H14 C19 1_555 1_555
C20 C15 1_555 1_555
H15 C20 1_555 1_555
N2 C8 1_555 1_555
C1 C7 1_555 1_555
C5 C6 1_555 1_555
C13 C14 1_555 1_555
C19 C20 1_555 1_555

#END
