
#######################################################################
#
#                 Cambridge Crystallographic Data Centre
#                                CCDC 
#
#######################################################################
#
# If this CIF has been generated from an entry in the Cambridge 
# Structural Database, then it will include bibliographic, chemical, 
# crystal, experimental, refinement or atomic coordinate data resulting 
# from the CCDC's data processing and validation procedures.
#
#######################################################################

data_PUCROV
_chemical_formula_moiety         'C22 H21 F1 O3'
_chemical_name_systematic        
'Ethyl 1-fluoro-6-hydroxy-6-methyl-2,5-diphenylcyclohexa-2,4-dienecarboxylate'
_symmetry_cell_setting           triclinic
_symmetry_space_group_name_H-M   'P -1'
_symmetry_Int_Tables_number      2
_space_group_name_Hall           '-P 1'
loop_
_symmetry_equiv_pos_site_id
_symmetry_equiv_pos_as_xyz
1 x,y,z
2 -x,-y,-z
_cell_length_a                   9.041(5)
_cell_length_b                   10.005(5)
_cell_length_c                   12.145(5)
_cell_angle_alpha                62.119(5)
_cell_angle_beta                 70.696(5)
_cell_angle_gamma                85.276(5)
_cell_volume                     913.019
_exptl_crystal_colour            colorless
_exptl_crystal_description       block
_chemical_melting_point          '107-108 deg.C'
_cell_formula_units_Z            2
_exptl_crystal_recrystallization_method hexane
loop_
_atom_site_label
_atom_site_type_symbol
_atom_site_fract_x
_atom_site_fract_y
_atom_site_fract_z
C1 C 0.18688(12) 0.54564(12) 0.77531(11)
C2 C 0.20953(13) 0.70481(12) 0.76356(10)
C3 C 0.38054(13) 0.77180(12) 0.68468(11)
C4 C 0.45697(13) 0.74170(13) 0.58415(11)
C5 C 0.38951(13) 0.63679(13) 0.55842(11)
C6 C 0.25943(13) 0.54238(12) 0.64424(11)
F1 F 0.02371(7) 0.51031(7) 0.82197(6)
C7 C 0.24543(13) 0.42378(12) 0.88533(11)
O1 O 0.15940(9) 0.32880(9) 0.98966(8)
O2 O 0.40083(9) 0.43644(9) 0.85056(8)
C8 C 0.46823(14) 0.33254(14) 0.95157(12)
C9 C 0.64293(15) 0.37066(16) 0.89493(13)
O3 O 0.17235(10) 0.68593(9) 0.89332(8)
C10 C 0.10208(14) 0.81189(14) 0.69152(12)
C11 C 0.45299(13) 0.87420(12) 0.71344(11)
C12 C 0.61601(14) 0.87935(13) 0.68888(12)
C13 C 0.68930(15) 0.97395(14) 0.71342(13)
C14 C 0.60262(16) 1.06662(14) 0.76287(13)
C15 C 0.44116(16) 1.06305(14) 0.78795(13)
C16 C 0.36686(14) 0.96758(13) 0.76473(12)
C17 C 0.18887(13) 0.43525(12) 0.61942(11)
C18 C 0.10036(13) 0.29957(13) 0.72220(12)
C19 C 0.03475(14) 0.20245(14) 0.69506(13)
C20 C 0.05434(14) 0.23833(14) 0.56581(13)
C21 C 0.14062(14) 0.37251(14) 0.46303(12)
C22 C 0.20727(14) 0.46937(13) 0.48937(12)
H1 H 0.2646(17) 0.5647(17) 0.4167(15)
H2 H 0.4452(16) 0.6326(15) 0.4754(14)
H3 H 0.1498(17) 0.4016(17) 0.3717(15)
H4 H 0.5624(17) 0.7924(16) 0.5240(14)
H5 H -0.0276(17) 0.1100(17) 0.7677(15)
H6 H 0.6776(17) 0.8143(16) 0.6544(14)
H7 H 0.0857(16) 0.2735(16) 0.8126(15)
H8 H 0.1241(17) 0.8177(16) 0.6032(15)
H9 H 0.0075(17) 0.1699(17) 0.5466(14)
H10 H -0.0084(18) 0.7773(16) 0.7419(15)
H11 H 0.4400(16) 0.2287(17) 0.9733(14)
H12 H 0.2526(18) 0.9670(16) 0.7837(14)
H13 H 0.6896(18) 0.3532(17) 0.8169(16)
H14 H 0.4196(17) 0.3470(17) 1.0302(15)
H15 H 0.3766(18) 1.1287(17) 0.8221(15)
H16 H 0.1214(17) 0.9136(18) 0.6788(14)
H17 H 0.8023(19) 0.9726(17) 0.6973(15)
H18 H 0.6570(19) 1.1343(18) 0.7794(15)
H19 H 0.6693(19) 0.479(2) 0.8666(16)
H20 H 0.691(2) 0.305(2) 0.9625(18)
H21 H 0.069(2) 0.673(2) 0.9306(18)
loop_
_geom_bond_atom_site_label_1
_geom_bond_atom_site_label_2
_geom_bond_site_symmetry_1
_geom_bond_site_symmetry_2
C1 C2 1_555 1_555
C2 C3 1_555 1_555
C3 C4 1_555 1_555
C4 C5 1_555 1_555
C5 C6 1_555 1_555
C6 C1 1_555 1_555
F1 C1 1_555 1_555
C7 C1 1_555 1_555
O1 C7 1_555 1_555
O2 C7 1_555 1_555
C8 O2 1_555 1_555
C9 C8 1_555 1_555
O3 C2 1_555 1_555
C10 C2 1_555 1_555
C11 C3 1_555 1_555
C12 C11 1_555 1_555
C13 C12 1_555 1_555
C14 C13 1_555 1_555
C15 C14 1_555 1_555
C16 C11 1_555 1_555
C17 C6 1_555 1_555
C18 C17 1_555 1_555
C19 C18 1_555 1_555
C20 C19 1_555 1_555
C21 C20 1_555 1_555
C22 C17 1_555 1_555
H1 C22 1_555 1_555
H2 C5 1_555 1_555
H3 C21 1_555 1_555
H4 C4 1_555 1_555
H5 C19 1_555 1_555
H6 C12 1_555 1_555
H7 C18 1_555 1_555
H8 C10 1_555 1_555
H9 C20 1_555 1_555
H10 C10 1_555 1_555
H11 C8 1_555 1_555
H12 C16 1_555 1_555
H13 C9 1_555 1_555
H14 C8 1_555 1_555
H15 C15 1_555 1_555
H16 C10 1_555 1_555
H17 C13 1_555 1_555
H18 C14 1_555 1_555
H19 C9 1_555 1_555
H20 C9 1_555 1_555
H21 O3 1_555 1_555
C15 C16 1_555 1_555
C21 C22 1_555 1_555

#END
