
#######################################################################
#
#                 Cambridge Crystallographic Data Centre
#                                CCDC 
#
#######################################################################
#
# If this CIF has been generated from an entry in the Cambridge 
# Structural Database, then it will include bibliographic, chemical, 
# crystal, experimental, refinement or atomic coordinate data resulting 
# from the CCDC's data processing and validation procedures.
#
#######################################################################

data_PUCWER
_chemical_formula_moiety         'C65 H56 B6 N2 O8,3(C1 H2 Cl2)'
_chemical_name_systematic        
"rac-4,4'-(Tetracyclo[7.7.1.0^2,7^.0^10,15^]heptadeca-2,4,6,10,12,14-hexaene-8,16-diylbis(oxymethylene))bis(1-(2,4,6-triphenyl-1,3,5,2\l^5^,4,6-trioxatriborinan-2-yl)-1\l^5^-pyridine) dichloromethane solvate"
_symmetry_cell_setting           monoclinic
_symmetry_space_group_name_H-M   'C 2/c'
_symmetry_Int_Tables_number      15
_space_group_name_Hall           '-C 2yn'
loop_
_symmetry_equiv_pos_site_id
_symmetry_equiv_pos_as_xyz
1 x,y,z
2 -x,y,1/2-z
3 1/2+x,1/2+y,z
4 1/2-x,1/2+y,1/2-z
5 -x,-y,-z
6 x,-y,1/2+z
7 1/2-x,1/2-y,-z
8 1/2+x,1/2-y,1/2+z
_cell_length_a                   26.488(5)
_cell_length_b                   16.113(3)
_cell_length_c                   16.634(3)
_cell_angle_alpha                90
_cell_angle_beta                 110.583(2)
_cell_angle_gamma                90
_cell_volume                     6646.21
_exptl_crystal_colour            colorless
_exptl_crystal_description       prism
_cell_formula_units_Z            4
_exptl_crystal_recrystallization_method 'dichloromethane/petroleum ether'
loop_
_atom_site_label
_atom_site_type_symbol
_atom_site_fract_x
_atom_site_fract_y
_atom_site_fract_z
C1 C 0.04351(7) -0.10103(11) 0.18085(12)
H1 H 0.0452 -0.1444 0.1389
C2 C 0.04965(7) -0.14432(11) 0.26643(12)
H2 H 0.0827 -0.1798 0.2841
C3 C 0.0000 -0.19996(16) 0.2500
H3 H 0.0049 -0.2359 0.3005
C4 C -0.01016(7) -0.05617(11) 0.14368(11)
C5 C -0.05492(7) -0.08083(11) 0.16424(11)
C6 C -0.10448(7) -0.04221(13) 0.12203(12)
H4 H -0.1354 -0.0595 0.1341
C7 C -0.10953(8) 0.02070(14) 0.06299(13)
H5 H -0.1437 0.0456 0.0344
C8 C -0.06463(8) 0.04735(14) 0.04570(13)
H6 H -0.0676 0.0917 0.0067
C9 C -0.01531(8) 0.00879(13) 0.08577(12)
H7 H 0.0154 0.0268 0.0736
O1 O 0.08462(5) -0.04127(8) 0.18820(9)
C10 C 0.13458(7) -0.07511(11) 0.19170(13)
H8 H 0.1297 -0.1090 0.1399
H9 H 0.1494 -0.1111 0.2429
C11 C 0.17265(7) -0.00460(11) 0.19640(12)
C12 C 0.15594(8) 0.07774(13) 0.18862(16)
H10 H 0.1194 0.0910 0.1795
C13 C 0.19281(8) 0.14021(13) 0.19429(16)
H11 H 0.1809 0.1962 0.1881
N1 N 0.24485(6) 0.12407(10) 0.20829(11)
C14 C 0.26129(8) 0.04478(12) 0.21535(14)
H12 H 0.2981 0.0332 0.2247
C15 C 0.22646(7) -0.02060(12) 0.20950(14)
H13 H 0.2392 -0.0761 0.2144
B1 B 0.28835(8) 0.19979(13) 0.22160(15)
O2 O 0.25619(6) 0.27066(8) 0.17667(10)
B2 B 0.26569(8) 0.30920(13) 0.11129(14)
O3 O 0.30611(6) 0.28169(9) 0.08252(10)
B3 B 0.33640(8) 0.21259(13) 0.12034(15)
O4 O 0.32690(6) 0.17084(9) 0.18375(10)
C16 C 0.31650(8) 0.21749(11) 0.32300(13)
C17 C 0.28753(9) 0.25235(14) 0.37081(15)
H14 H 0.2499 0.2616 0.3434
C18 C 0.31167(10) 0.27394(15) 0.45667(16)
H15 H 0.2907 0.2973 0.4870
C19 C 0.36641(10) 0.26144(14) 0.49804(16)
H16 H 0.3833 0.2766 0.5566
C20 C 0.39629(9) 0.22647(15) 0.45301(16)
H17 H 0.4338 0.2172 0.4810
C21 C 0.37150(8) 0.20477(13) 0.36672(15)
H18 H 0.3926 0.1807 0.3370
C22 C 0.38414(8) 0.18595(13) 0.09092(14)
C23 C 0.41605(10) 0.11821(16) 0.1288(2)
H19 H 0.4091 0.0888 0.1733
C24 C 0.45782(13) 0.0927(2) 0.1026(3)
H20 H 0.4788 0.0457 0.1286
C25 C 0.46884(14) 0.1347(2) 0.0398(3)
H21 H 0.4973 0.1166 0.0218
C26 C 0.43876(14) 0.2033(3) 0.0024(2)
H22 H 0.4469 0.2330 -0.0409
C27 C 0.39647(11) 0.22908(18) 0.02781(17)
H23 H 0.3759 0.2765 0.0018
C28 C 0.23440(8) 0.39040(12) 0.07178(13)
C29 C 0.24994(9) 0.43938(13) 0.01514(14)
H24 H 0.2777 0.4205 -0.0041
C30 C 0.22520(11) 0.51563(15) -0.01351(16)
H25 H 0.2365 0.5487 -0.0514
C31 C 0.18418(11) 0.54293(14) 0.01345(17)
H26 H 0.1679 0.5955 -0.0049
C32 C 0.16680(10) 0.49404(14) 0.06696(16)
H27 H 0.1378 0.5120 0.0837
C33 C 0.19197(9) 0.41851(13) 0.09625(14)
H28 H 0.1801 0.3855 0.1335
H3A H -0.0049 -0.2359 0.1995
C1A C -0.04351(7) -0.10103(11) 0.31915(12)
H1A H -0.0452 -0.1444 0.3611
C2A C -0.04965(7) -0.14432(11) 0.23357(12)
H2A H -0.0827 -0.1798 0.2159
C4A C 0.01016(7) -0.05617(11) 0.35632(11)
C5A C 0.05492(7) -0.08083(11) 0.33576(11)
C6A C 0.10448(7) -0.04221(13) 0.37797(12)
H4A H 0.1354 -0.0595 0.3659
C7A C 0.10953(8) 0.02070(14) 0.43701(13)
H5A H 0.1437 0.0456 0.4656
C8A C 0.06463(8) 0.04735(14) 0.45430(13)
H6A H 0.0676 0.0917 0.4933
C9A C 0.01531(8) 0.00879(13) 0.41423(12)
H7A H -0.0154 0.0268 0.4264
O1A O -0.08462(5) -0.04127(8) 0.31180(9)
C10A C -0.13458(7) -0.07511(11) 0.30830(13)
H8A H -0.1297 -0.1090 0.3601
H9A H -0.1494 -0.1111 0.2571
C11A C -0.17265(7) -0.00460(11) 0.30360(12)
C12A C -0.15594(8) 0.07774(13) 0.31138(16)
H10A H -0.1194 0.0910 0.3205
C13A C -0.19281(8) 0.14021(13) 0.30571(16)
H11A H -0.1809 0.1962 0.3119
N1A N -0.24485(6) 0.12407(10) 0.29171(11)
C14A C -0.26129(8) 0.04478(12) 0.28465(14)
H12A H -0.2981 0.0332 0.2753
C15A C -0.22646(7) -0.02060(12) 0.29050(14)
H13A H -0.2392 -0.0761 0.2856
B1A B -0.28835(8) 0.19979(13) 0.27840(15)
O2A O -0.25619(6) 0.27066(8) 0.32333(10)
B2A B -0.26569(8) 0.30920(13) 0.38871(14)
O3A O -0.30611(6) 0.28169(9) 0.41748(10)
B3A B -0.33640(8) 0.21259(13) 0.37966(15)
O4A O -0.32690(6) 0.17084(9) 0.31625(10)
C16A C -0.31650(8) 0.21749(11) 0.17700(13)
C17A C -0.28753(9) 0.25235(14) 0.12919(15)
H14A H -0.2499 0.2616 0.1566
C18A C -0.31167(10) 0.27394(15) 0.04333(16)
H15A H -0.2907 0.2973 0.0130
C19A C -0.36641(10) 0.26144(14) 0.00196(16)
H16A H -0.3833 0.2766 -0.0566
C20A C -0.39629(9) 0.22647(15) 0.04699(16)
H17A H -0.4338 0.2172 0.0190
C21A C -0.37150(8) 0.20477(13) 0.13328(15)
H18A H -0.3926 0.1807 0.1630
C22A C -0.38414(8) 0.18595(13) 0.40908(14)
C23A C -0.41605(10) 0.11821(16) 0.3712(2)
H19A H -0.4091 0.0888 0.3267
C24A C -0.45782(13) 0.0927(2) 0.3974(3)
H20A H -0.4788 0.0457 0.3714
C25A C -0.46884(14) 0.1347(2) 0.4602(3)
H21A H -0.4973 0.1166 0.4782
C26A C -0.43876(14) 0.2033(3) 0.4976(2)
H22A H -0.4469 0.2330 0.5409
C27A C -0.39647(11) 0.22908(18) 0.47219(17)
H23A H -0.3759 0.2765 0.4982
C28A C -0.23440(8) 0.39040(12) 0.42822(13)
C29A C -0.24994(9) 0.43938(13) 0.48486(14)
H24A H -0.2777 0.4205 0.5041
C30A C -0.22520(11) 0.51563(15) 0.51351(16)
H25A H -0.2365 0.5487 0.5514
C31A C -0.18418(11) 0.54293(14) 0.48655(17)
H26A H -0.1679 0.5955 0.5049
C32A C -0.16680(10) 0.49404(14) 0.43304(16)
H27A H -0.1378 0.5120 0.4163
C33A C -0.19197(9) 0.41851(13) 0.40375(14)
H28A H -0.1801 0.3855 0.3665
C34 C 0.0000 0.1448(2) 0.2500
H30 H -0.0300 0.1088 0.2152
Cl1 Cl 0.02184(4) 0.20703(5) 0.18139(6)
H30A H 0.0300 0.1088 0.2848
Cl1A Cl -0.02184(4) 0.20703(5) 0.31861(6)
C35 C 0.09378(14) 0.3907(2) 0.2990(2)
H32 H 0.0671 0.3526 0.3085
H33 H 0.1030 0.4338 0.3443
Cl2 Cl 0.15164(3) 0.33560(6) 0.30541(6)
Cl3 Cl 0.06608(8) 0.43700(10) 0.19918(9)
H29? H 0.0049 -0.2359 0.3005
H31? H -0.0300 0.1088 0.2152
loop_
_geom_bond_atom_site_label_1
_geom_bond_atom_site_label_2
_geom_bond_site_symmetry_1
_geom_bond_site_symmetry_2
C1 H1 1_555 1_555
C2 C1 1_555 1_555
H2 C2 1_555 1_555
C3 C2 1_555 1_555
H3 C3 1_555 1_555
C4 C1 1_555 1_555
C5 C4 1_555 1_555
C6 C5 1_555 1_555
H4 C6 1_555 1_555
C7 C6 1_555 1_555
H5 C7 1_555 1_555
C8 C7 1_555 1_555
H6 C8 1_555 1_555
C9 C4 1_555 1_555
H7 C9 1_555 1_555
O1 C1 1_555 1_555
C10 O1 1_555 1_555
H8 C10 1_555 1_555
H9 C10 1_555 1_555
C11 C10 1_555 1_555
C12 C11 1_555 1_555
H10 C12 1_555 1_555
C13 C12 1_555 1_555
H11 C13 1_555 1_555
N1 C13 1_555 1_555
C14 N1 1_555 1_555
H12 C14 1_555 1_555
C15 C11 1_555 1_555
H13 C15 1_555 1_555
B1 N1 1_555 1_555
O2 B1 1_555 1_555
B2 O2 1_555 1_555
O3 B2 1_555 1_555
B3 O3 1_555 1_555
O4 B1 1_555 1_555
C16 B1 1_555 1_555
C17 C16 1_555 1_555
H14 C17 1_555 1_555
C18 C17 1_555 1_555
H15 C18 1_555 1_555
C19 C18 1_555 1_555
H16 C19 1_555 1_555
C20 C19 1_555 1_555
H17 C20 1_555 1_555
C21 C16 1_555 1_555
H18 C21 1_555 1_555
C22 B3 1_555 1_555
C23 C22 1_555 1_555
H19 C23 1_555 1_555
C24 C23 1_555 1_555
H20 C24 1_555 1_555
C25 C24 1_555 1_555
H21 C25 1_555 1_555
C26 C25 1_555 1_555
H22 C26 1_555 1_555
C27 C22 1_555 1_555
H23 C27 1_555 1_555
C28 B2 1_555 1_555
C29 C28 1_555 1_555
H24 C29 1_555 1_555
C30 C29 1_555 1_555
H25 C30 1_555 1_555
C31 C30 1_555 1_555
H26 C31 1_555 1_555
C32 C31 1_555 1_555
H27 C32 1_555 1_555
C33 C28 1_555 1_555
H28 C33 1_555 1_555
C34 H30 1_555 1_555
Cl1 C34 1_555 1_555
C35 H32 1_555 1_555
H33 C35 1_555 1_555
Cl2 C35 1_555 1_555
Cl3 C35 1_555 1_555
H3A C3 1_555 1_555
C1A H1A 1_555 1_555
C2A C3 1_555 1_555
H2A C2A 1_555 1_555
C4A C1A 1_555 1_555
C5A C2 1_555 1_555
C6A C5A 1_555 1_555
H4A C6A 1_555 1_555
C7A C6A 1_555 1_555
H5A C7A 1_555 1_555
C8A C7A 1_555 1_555
H6A C8A 1_555 1_555
C9A C4A 1_555 1_555
H7A C9A 1_555 1_555
O1A C1A 1_555 1_555
C10A O1A 1_555 1_555
H8A C10A 1_555 1_555
H9A C10A 1_555 1_555
C11A C10A 1_555 1_555
C12A C11A 1_555 1_555
H10A C12A 1_555 1_555
C13A C12A 1_555 1_555
H11A C13A 1_555 1_555
N1A C13A 1_555 1_555
C14A N1A 1_555 1_555
H12A C14A 1_555 1_555
C15A C11A 1_555 1_555
H13A C15A 1_555 1_555
B1A N1A 1_555 1_555
O2A B1A 1_555 1_555
B2A O2A 1_555 1_555
O3A B2A 1_555 1_555
B3A O3A 1_555 1_555
O4A B1A 1_555 1_555
C16A B1A 1_555 1_555
C17A C16A 1_555 1_555
H14A C17A 1_555 1_555
C18A C17A 1_555 1_555
H15A C18A 1_555 1_555
C19A C18A 1_555 1_555
H16A C19A 1_555 1_555
C20A C19A 1_555 1_555
H17A C20A 1_555 1_555
C21A C16A 1_555 1_555
H18A C21A 1_555 1_555
C22A B3A 1_555 1_555
C23A C22A 1_555 1_555
H19A C23A 1_555 1_555
C24A C23A 1_555 1_555
H20A C24A 1_555 1_555
C25A C24A 1_555 1_555
H21A C25A 1_555 1_555
C26A C25A 1_555 1_555
H22A C26A 1_555 1_555
C27A C22A 1_555 1_555
H23A C27A 1_555 1_555
C28A B2A 1_555 1_555
C29A C28A 1_555 1_555
H24A C29A 1_555 1_555
C30A C29A 1_555 1_555
H25A C30A 1_555 1_555
C31A C30A 1_555 1_555
H26A C31A 1_555 1_555
C32A C31A 1_555 1_555
H27A C32A 1_555 1_555
C33A C28A 1_555 1_555
H28A C33A 1_555 1_555
H30A C34 1_555 1_555
Cl1A C34 1_555 1_555
C5 C2A 1_555 1_555
C8 C9 1_555 1_555
C14 C15 1_555 1_555
B3 O4 1_555 1_555
C20 C21 1_555 1_555
C26 C27 1_555 1_555
C32 C33 1_555 1_555
C1A C2A 1_555 1_555
C4A C5A 1_555 1_555
C8A C9A 1_555 1_555
C14A C15A 1_555 1_555
B3A O4A 1_555 1_555
C20A C21A 1_555 1_555
C26A C27A 1_555 1_555
C32A C33A 1_555 1_555

#END
