
#######################################################################
#
#                 Cambridge Crystallographic Data Centre
#                                CCDC 
#
#######################################################################
#
# If this CIF has been generated from an entry in the Cambridge 
# Structural Database, then it will include bibliographic, chemical, 
# crystal, experimental, refinement or atomic coordinate data resulting 
# from the CCDC's data processing and validation procedures.
#
#######################################################################

data_PUDMUY
_chemical_formula_moiety         'C50 H72 N4 O12 4+,6(H2 O1),4(Br1 1-)'
_chemical_name_systematic        
"4,4'-(2,4-bis(2,3,5,6,8,9,11,12,14,15-Decahydro-1,4,7,10,13,16-benzohexaoxacyclooctadecin-18-yl)cyclobutane-1,3-diyl)bis(1-(2-ammonioethyl)pyridinium) tetrabromide hexahydrate"
_symmetry_cell_setting           monoclinic
_symmetry_space_group_name_H-M   'C 2/c'
_symmetry_Int_Tables_number      15
_space_group_name_Hall           '-C 2yn'
loop_
_symmetry_equiv_pos_site_id
_symmetry_equiv_pos_as_xyz
1 x,y,z
2 -x,y,1/2-z
3 1/2+x,1/2+y,z
4 1/2-x,1/2+y,1/2-z
5 -x,-y,-z
6 x,-y,1/2+z
7 1/2-x,1/2-y,-z
8 1/2+x,1/2-y,1/2+z
_cell_length_a                   35.2762(12)
_cell_length_b                   9.8049(3)
_cell_length_c                   18.5204(8)
_cell_angle_alpha                90
_cell_angle_beta                 112.254(2)
_cell_angle_gamma                90
_cell_volume                     5928.68
_exptl_crystal_colour            orange
_exptl_crystal_description       block
_cell_formula_units_Z            4
loop_
_atom_site_label
_atom_site_type_symbol
_atom_site_fract_x
_atom_site_fract_y
_atom_site_fract_z
Br1 Br 0.51878(3) 0.84989(7) 0.90746(6)
Br2 Br 0.23264(3) 0.63652(8) 0.69029(6)
O1 O 0.42182(14) 0.2461(4) 0.6700(3)
O2 O 0.35491(15) 0.1401(4) 0.5432(3)
O3 O 0.36223(17) 0.6838(5) 0.6467(4)
O4 O 0.42817(13) 0.5028(4) 0.7009(3)
N1 N 0.6463(2) 0.5755(6) 1.2042(4)
N2 N 0.65378(16) 0.6149(5) 1.3794(3)
H1 H 0.64888(16) 0.6713(5) 1.4139(3)
H2 H 0.62971(16) 0.5789(5) 1.3462(3)
H3 H 0.67080(16) 0.5464(5) 1.4058(3)
C1 C 0.6287(5) 0.4484(14) 1.1742(10)
H4 H 0.6419(5) 0.3694(14) 1.2022(10)
C2 C 0.5943(5) 0.4282(14) 1.1086(11)
H5 H 0.5850(5) 0.3379(14) 1.0933(11)
C3 C 0.5728(4) 0.5375(11) 1.0638(6)
C4 C 0.5907(4) 0.6672(13) 1.0874(8)
H6 H 0.5793(4) 0.7461(13) 1.0571(8)
C5 C 0.5306(4) 0.5376(10) 1.0002(6)
H7 H 0.5311(4) 0.5859(10) 0.9530(6)
C6 C 0.5064(3) 0.4024(10) 0.9761(6)
H8 H 0.5210(3) 0.3256(10) 1.0111(6)
C7 C 0.6256(2) 0.6769(7) 1.1562(4)
H9 H 0.6360(2) 0.7663(7) 1.1711(4)
C8 C 0.4957(3) 0.3668(9) 0.8912(4)
C9 C 0.4912(2) 0.2305(8) 0.8753(4)
H10 H 0.5048(2) 0.1667(8) 0.9153(4)
C10 C 0.4670(2) 0.1839(7) 0.8012(4)
H11 H 0.4643(2) 0.0890(7) 0.7901(4)
C11 C 0.44705(19) 0.2774(6) 0.7446(4)
C12 C 0.45153(18) 0.4190(6) 0.7611(3)
C13 C 0.47716(19) 0.4616(7) 0.8335(4)
H12 H 0.48218(19) 0.5562(7) 0.8440(4)
C14 C 0.4180(2) 0.1020(6) 0.6492(4)
H13 H 0.4454(2) 0.0594(6) 0.6653(4)
H14 H 0.4022(2) 0.0537(6) 0.6756(4)
C15 C 0.3964(2) 0.0942(6) 0.5635(4)
H15 H 0.3966(2) -0.0010(6) 0.5457(4)
H16 H 0.4105(2) 0.1523(6) 0.5377(4)
C16 C 0.3331(3) 0.1275(9) 0.4605(5)
H17 H 0.3506(3) 0.1620(9) 0.4334(5)
H18 H 0.3275(3) 0.0299(9) 0.4471(5)
C17 C 0.2959(7) 0.200(2) 0.4336(12)
H19 H 0.2817(7) 0.188(2) 0.3765(12)
H20 H 0.2778(7) 0.166(2) 0.4594(12)
O5 O 0.3053(4) 0.3371(12) 0.4516(7)
C18 C 0.2691(5) 0.4253(16) 0.4198(10)
H21 H 0.2531(5) 0.4049(16) 0.3642(10)
H22 H 0.2512(5) 0.4168(16) 0.4498(10)
C19 C 0.2877(5) 0.5567(14) 0.4294(7)
H23 H 0.3100(5) 0.5552(14) 0.4093(7)
H24 H 0.2671(5) 0.6245(14) 0.3987(7)
O6 O 0.3036(4) 0.5952(13) 0.5085(7)
C20 C 0.3158(5) 0.7321(11) 0.5209(8)
H25 H 0.3389(5) 0.7480(11) 0.5038(8)
H26 H 0.2928(5) 0.7916(11) 0.4896(8)
C21 C 0.3290(4) 0.7681(13) 0.6068(8)
H27 H 0.3063(4) 0.7519(13) 0.6249(8)
H28 H 0.3372(4) 0.8652(13) 0.6156(8)
C22 C 0.4013(2) 0.7137(6) 0.6459(5)
H29 H 0.4030(2) 0.6802(6) 0.5969(5)
H30 H 0.4057(2) 0.8136(6) 0.6488(5)
C23 C 0.4329(2) 0.6467(6) 0.7137(4)
H31 H 0.4293(2) 0.6717(6) 0.7625(4)
H32 H 0.4606(2) 0.6756(6) 0.7181(4)
C24 C 0.6828(3) 0.6078(11) 1.2742(5)
H33 H 0.6956(3) 0.5214(11) 1.2996(5)
H34 H 0.7029(3) 0.6561(11) 1.2580(5)
C25 C 0.6737(2) 0.6949(8) 1.3333(5)
H35 H 0.6553(2) 0.7705(8) 1.3057(5)
H36 H 0.6995(2) 0.7355(8) 1.3699(5)
O1D O 0.57818(14) 0.7539(4) 1.3300(3)
O2D O 0.64509(15) 0.8599(4) 1.4568(3)
O3D O 0.63777(17) 0.3162(5) 1.3533(4)
O4D O 0.57183(13) 0.4972(4) 1.2991(3)
N1D N 0.3537(2) 0.4245(6) 0.7958(4)
N2D N 0.34622(16) 0.3851(5) 0.6206(3)
H1D H 0.35112(16) 0.3287(5) 0.5861(3)
H2D H 0.37029(16) 0.4211(5) 0.6538(3)
H3D H 0.32920(16) 0.4536(5) 0.5942(3)
C1D C 0.3713(5) 0.5516(14) 0.8258(10)
H4D H 0.3581(5) 0.6306(14) 0.7978(10)
C2D C 0.4057(5) 0.5718(14) 0.8914(11)
H5D H 0.4150(5) 0.6621(14) 0.9067(11)
C3D C 0.4272(4) 0.4625(11) 0.9362(6)
C4D C 0.4093(4) 0.3328(13) 0.9126(8)
H6D H 0.4207(4) 0.2539(13) 0.9429(8)
C5D C 0.4694(4) 0.4624(10) 0.9998(6)
H7D H 0.4689(4) 0.4141(10) 1.0470(6)
C6D C 0.4936(3) 0.5976(10) 1.0239(6)
H8D H 0.4790(3) 0.6744(10) 0.9889(6)
C7D C 0.3744(2) 0.3231(7) 0.8438(4)
H9D H 0.3640(2) 0.2337(7) 0.8289(4)
C8D C 0.5043(3) 0.6332(9) 1.1088(4)
C9D C 0.5088(2) 0.7695(8) 1.1247(4)
H10D H 0.4952(2) 0.8333(8) 1.0847(4)
C10D C 0.5330(2) 0.8161(7) 1.1988(4)
H11D H 0.5357(2) 0.9110(7) 1.2099(4)
C11D C 0.55295(19) 0.7226(6) 1.2554(4)
C12D C 0.54847(18) 0.5810(6) 1.2389(3)
C13D C 0.52284(19) 0.5384(7) 1.1665(4)
H12D H 0.51782(19) 0.4438(7) 1.1560(4)
C14D C 0.5820(2) 0.8980(6) 1.3508(4)
H13D H 0.5546(2) 0.9406(6) 1.3347(4)
H14D H 0.5978(2) 0.9463(6) 1.3244(4)
C15D C 0.6036(2) 0.9058(6) 1.4365(4)
H15D H 0.6034(2) 1.0010(6) 1.4543(4)
H16D H 0.5895(2) 0.8477(6) 1.4623(4)
C16D C 0.6669(3) 0.8725(9) 1.5395(5)
H17D H 0.6494(3) 0.8380(9) 1.5666(5)
H18D H 0.6725(3) 0.9701(9) 1.5529(5)
C17D C 0.7041(7) 0.800(2) 1.5664(12)
H19D H 0.7183(7) 0.812(2) 1.6235(12)
H20D H 0.7222(7) 0.834(2) 1.5406(12)
O5D O 0.6947(4) 0.6629(12) 1.5484(7)
C18D C 0.7309(5) 0.5747(16) 1.5802(10)
H21D H 0.7469(5) 0.5951(16) 1.6358(10)
H22D H 0.7488(5) 0.5832(16) 1.5502(10)
C19D C 0.7123(5) 0.4433(14) 1.5706(7)
H23D H 0.6900(5) 0.4448(14) 1.5907(7)
H24D H 0.7329(5) 0.3755(14) 1.6013(7)
O6D O 0.6964(4) 0.4048(13) 1.4915(7)
C20D C 0.6842(5) 0.2679(11) 1.4791(8)
H25D H 0.6611(5) 0.2520(11) 1.4962(8)
H26D H 0.7072(5) 0.2084(11) 1.5104(8)
C21D C 0.6710(4) 0.2319(13) 1.3932(8)
H27D H 0.6937(4) 0.2481(13) 1.3751(8)
H28D H 0.6628(4) 0.1348(13) 1.3844(8)
C22D C 0.5987(2) 0.2863(6) 1.3541(5)
H29D H 0.5970(2) 0.3198(6) 1.4031(5)
H30D H 0.5943(2) 0.1864(6) 1.3512(5)
C23D C 0.5671(2) 0.3533(6) 1.2863(4)
H31D H 0.5707(2) 0.3283(6) 1.2375(4)
H32D H 0.5394(2) 0.3244(6) 1.2819(4)
C24D C 0.3172(3) 0.3922(11) 0.7258(5)
H33D H 0.3044(3) 0.4786(11) 0.7004(5)
H34D H 0.2971(3) 0.3439(11) 0.7420(5)
C25D C 0.3263(2) 0.3051(8) 0.6667(5)
H35D H 0.3447(2) 0.2295(8) 0.6943(5)
H36D H 0.3005(2) 0.2645(8) 0.6301(5)
O9 O 0.37642(19) 1.0141(6) 0.7785(4)
H55 H 0.3544(16) 0.964(8) 0.765(6)
H56 H 0.3972(17) 0.968(8) 0.810(5)
O10 O 0.3047(2) 0.8626(7) 0.7590(4)
O11 O 0.43612(16) 0.9486(5) 0.9267(3)
C26? C 0.6479(9) 0.443(3) 1.2062(16)
H37? H 0.6677(9) 0.391(3) 1.2462(16)
C27? C 0.6181(10) 0.390(4) 1.1447(18)
H38? H 0.6159(10) 0.294(4) 1.1409(18)
C28? C 0.5907(10) 0.466(4) 1.0868(16)
C29? C 0.5945(11) 0.609(4) 1.0949(18)
H39? H 0.5747(11) 0.663(4) 1.0564(18)
C30? C 0.5609(6) 0.3941(18) 1.0183(10)
H40? H 0.5619(6) 0.2973(18) 1.0178(10)
C31? C 0.5346(6) 0.452(2) 0.9613(12)
H41? H 0.5363(6) 0.548(2) 0.9567(12)
H42? H 0.6308(2) 0.7722(7) 1.1623(4)
H43? H 0.3447(3) 0.1896(9) 0.4320(5)
H44? H 0.3346(3) 0.0328(9) 0.4432(5)
C32? C 0.2878(8) 0.167(3) 0.4456(16)
H45? H 0.2714(8) 0.157(3) 0.3891(16)
H46? H 0.2771(8) 0.101(3) 0.4735(16)
O7? O 0.2807(3) 0.3007(9) 0.4679(5)
C33? C 0.2868(8) 0.4102(18) 0.4201(11)
H47? H 0.3163(8) 0.4231(18) 0.4311(11)
H48? H 0.2724(8) 0.3894(18) 0.3639(11)
C34? C 0.2693(8) 0.534(2) 0.4417(11)
H49? H 0.2715(8) 0.611(2) 0.4091(11)
H50? H 0.2398(8) 0.518(2) 0.4296(11)
O8? O 0.2887(6) 0.5717(18) 0.5231(9)
C35? C 0.2909(6) 0.705(2) 0.5495(12)
H51? H 0.2707(6) 0.762(2) 0.5091(12)
H52? H 0.2844(6) 0.707(2) 0.5970(12)
C36? C 0.3315(7) 0.758(2) 0.5669(17)
H53? H 0.3318(7) 0.858(2) 0.5744(17)
H54? H 0.3405(7) 0.738(2) 0.5233(17)
loop_
_geom_bond_atom_site_label_1
_geom_bond_atom_site_label_2
_geom_bond_site_symmetry_1
_geom_bond_site_symmetry_2
O1 C11 1_555 1_555
O2 C15 1_555 1_555
O3 C21 1_555 1_555
O4 C12 1_555 1_555
N1 C1 1_555 1_555
N2 H1 1_555 1_555
H2 N2 1_555 1_555
H3 N2 1_555 1_555
C1 H4 1_555 1_555
C2 C1 1_555 1_555
H5 C2 1_555 1_555
C3 C2 1_555 1_555
C4 C3 1_555 1_555
H6 C4 1_555 1_555
C5 C3 1_555 1_555
H7 C5 1_555 1_555
C6 C5 1_555 1_555
H8 C6 1_555 1_555
C7 N1 1_555 1_555
H9 C7 1_555 1_555
C8 C6 1_555 1_555
C9 C8 1_555 1_555
H10 C9 1_555 1_555
C10 C9 1_555 1_555
H11 C10 1_555 1_555
C11 C10 1_555 1_555
C12 C11 1_555 1_555
C13 C8 1_555 1_555
H12 C13 1_555 1_555
C14 O1 1_555 1_555
H13 C14 1_555 1_555
H14 C14 1_555 1_555
C15 C14 1_555 1_555
H15 C15 1_555 1_555
H16 C15 1_555 1_555
C16 O2 1_555 1_555
H17 C16 1_555 1_555
H18 C16 1_555 1_555
C17 C16 1_555 1_555
H19 C17 1_555 1_555
H20 C17 1_555 1_555
O5 C17 1_555 1_555
C18 O5 1_555 1_555
H21 C18 1_555 1_555
H22 C18 1_555 1_555
C19 C18 1_555 1_555
H23 C19 1_555 1_555
H24 C19 1_555 1_555
O6 C19 1_555 1_555
C20 O6 1_555 1_555
H25 C20 1_555 1_555
H26 C20 1_555 1_555
C21 C20 1_555 1_555
H27 C21 1_555 1_555
H28 C21 1_555 1_555
C22 O3 1_555 1_555
H29 C22 1_555 1_555
H30 C22 1_555 1_555
C23 O4 1_555 1_555
H31 C23 1_555 1_555
H32 C23 1_555 1_555
C24 N1 1_555 1_555
H33 C24 1_555 1_555
H34 C24 1_555 1_555
C25 N2 1_555 1_555
H35 C25 1_555 1_555
H36 C25 1_555 1_555
O9 H55 1_555 1_555
H56 O9 1_555 1_555
O1D C11D 1_555 1_555
O2D C15D 1_555 1_555
O3D C21D 1_555 1_555
O4D C12D 1_555 1_555
N1D C1D 1_555 1_555
N2D H1D 1_555 1_555
H2D N2D 1_555 1_555
H3D N2D 1_555 1_555
C1D H4D 1_555 1_555
C2D C1D 1_555 1_555
H5D C2D 1_555 1_555
C3D C2D 1_555 1_555
C4D C3D 1_555 1_555
H6D C4D 1_555 1_555
C5D C6 1_555 1_555
H7D C5D 1_555 1_555
C6D C5 1_555 1_555
H8D C6D 1_555 1_555
C7D N1D 1_555 1_555
H9D C7D 1_555 1_555
C8D C6D 1_555 1_555
C9D C8D 1_555 1_555
H10D C9D 1_555 1_555
C10D C9D 1_555 1_555
H11D C10D 1_555 1_555
C11D C10D 1_555 1_555
C12D C11D 1_555 1_555
C13D C8D 1_555 1_555
H12D C13D 1_555 1_555
C14D O1D 1_555 1_555
H13D C14D 1_555 1_555
H14D C14D 1_555 1_555
C15D C14D 1_555 1_555
H15D C15D 1_555 1_555
H16D C15D 1_555 1_555
C16D O2D 1_555 1_555
H17D C16D 1_555 1_555
H18D C16D 1_555 1_555
C17D C16D 1_555 1_555
H19D C17D 1_555 1_555
H20D C17D 1_555 1_555
O5D C17D 1_555 1_555
C18D O5D 1_555 1_555
H21D C18D 1_555 1_555
H22D C18D 1_555 1_555
C19D C18D 1_555 1_555
H23D C19D 1_555 1_555
H24D C19D 1_555 1_555
O6D C19D 1_555 1_555
C20D O6D 1_555 1_555
H25D C20D 1_555 1_555
H26D C20D 1_555 1_555
C21D C20D 1_555 1_555
H27D C21D 1_555 1_555
H28D C21D 1_555 1_555
C22D O3D 1_555 1_555
H29D C22D 1_555 1_555
H30D C22D 1_555 1_555
C23D O4D 1_555 1_555
H31D C23D 1_555 1_555
H32D C23D 1_555 1_555
C24D N1D 1_555 1_555
H33D C24D 1_555 1_555
H34D C24D 1_555 1_555
C25D N2D 1_555 1_555
H35D C25D 1_555 1_555
H36D C25D 1_555 1_555
C4 C7 1_555 1_555
C12 C13 1_555 1_555
C22 C23 1_555 1_555
C24 C25 1_555 1_555
C3D C5D 1_555 1_555
C4D C7D 1_555 1_555
C5D C6D 1_555 1_555
C12D C13D 1_555 1_555
C22D C23D 1_555 1_555
C24D C25D 1_555 1_555

#END
