
#######################################################################
#
#                 Cambridge Crystallographic Data Centre
#                                CCDC 
#
#######################################################################
#
# If this CIF has been generated from an entry in the Cambridge 
# Structural Database, then it will include bibliographic, chemical, 
# crystal, experimental, refinement or atomic coordinate data resulting 
# from the CCDC's data processing and validation procedures.
#
#######################################################################

data_PUDPOV
_chemical_formula_moiety         'C29 H36 N1 O6 1+,1.5(C6 H6),Cl1 O4 1-'
_chemical_name_systematic        
'4-(2-(2,3,5,6,8,9,11,12,14,15-Decahydro-1,4,7,10,13,16-benzohexaoxacyclo-octadecin-18-yl)vinyl)-1-ethylquinolinium perchlorate benzene solvate'
_symmetry_cell_setting           monoclinic
_symmetry_space_group_name_H-M   'P 21/c'
_symmetry_Int_Tables_number      14
_space_group_name_Hall           '-P 2ybc'
loop_
_symmetry_equiv_pos_site_id
_symmetry_equiv_pos_as_xyz
1 x,y,z
2 -x,1/2+y,1/2-z
3 -x,-y,-z
4 x,1/2-y,1/2+z
_cell_length_a                   12.0370(9)
_cell_length_b                   12.9351(9)
_cell_length_c                   23.7840(18)
_cell_angle_alpha                90
_cell_angle_beta                 103.709(3)
_cell_angle_gamma                90
_cell_volume                     3597.67
_exptl_crystal_colour            orange
_exptl_crystal_description       plate
_cell_formula_units_Z            4
loop_
_atom_site_label
_atom_site_type_symbol
_atom_site_fract_x
_atom_site_fract_y
_atom_site_fract_z
Cl1 Cl 0.34795(9) 0.82325(7) 0.63153(4)
O1 O 0.3471(2) 0.88793(19) 0.58175(10)
O2 O 0.3734(3) 0.8848(2) 0.68332(11)
O3 O 0.4314(3) 0.7437(2) 0.63418(12)
O4 O 0.2364(3) 0.7771(2) 0.62514(12)
O5 O 0.1573(2) 0.74986(18) 0.31215(9)
O6 O 0.1503(2) 0.55773(19) 0.25312(10)
O7 O 0.1499(2) 0.37445(18) 0.32211(10)
O8 O 0.2627(2) 0.36360(18) 0.44452(10)
O9 O 0.2043(2) 0.56422(19) 0.49131(10)
O10 O 0.1743(2) 0.74937(18) 0.42165(9)
N1 N 0.5827(2) 1.3512(2) 0.59555(12)
C1 C 0.5698(3) 1.3401(3) 0.53787(15)
C2 C 0.5114(3) 1.2599(3) 0.50726(15)
C3 C 0.4601(3) 1.1832(3) 0.53367(14)
C4 C 0.4717(3) 1.1937(3) 0.59550(15)
C5 C 0.4255(3) 1.1209(3) 0.62823(16)
C6 C 0.4386(3) 1.1319(3) 0.68655(17)
C7 C 0.4988(3) 1.2165(3) 0.71575(17)
C8 C 0.5461(3) 1.2887(3) 0.68630(16)
C9 C 0.5330(3) 1.2782(3) 0.62560(15)
C10 C 0.3991(3) 1.0972(3) 0.50131(16)
C11 C 0.3794(3) 1.0850(3) 0.44387(16)
C12 C 0.3181(3) 0.9997(3) 0.40965(15)
C13 C 0.3073(3) 0.9985(3) 0.35001(16)
C14 C 0.2538(3) 0.9179(3) 0.31600(16)
C15 C 0.2095(3) 0.8350(3) 0.34068(15)
C16 C 0.2186(3) 0.8354(3) 0.40136(14)
C17 C 0.2708(3) 0.9165(3) 0.43439(16)
C18 C 0.1483(4) 0.7436(3) 0.25097(15)
C19 C 0.0865(4) 0.6453(3) 0.22905(17)
C20 C 0.0933(4) 0.4640(3) 0.23291(18)
C21 C 0.1582(4) 0.3737(3) 0.26307(17)
C22 C 0.1953(4) 0.2831(3) 0.35254(17)
C23 C 0.1816(4) 0.2914(3) 0.41345(16)
C24 C 0.2472(4) 0.3842(3) 0.50145(17)
C25 C 0.1590(3) 0.4664(3) 0.50219(18)
C26 C 0.1276(4) 0.6470(3) 0.49605(18)
C27 C 0.1768(4) 0.7483(3) 0.48283(15)
C28 C 0.6456(3) 1.4425(3) 0.62471(18)
C29 C 0.5612(4) 1.5269(3) 0.6323(2)
H1 H 0.609(3) 1.393(2) 0.5199(13)
H2 H 0.505(3) 1.261(2) 0.4626(15)
H3 H 0.392(3) 1.064(2) 0.6118(13)
H4 H 0.415(3) 1.083(3) 0.7079(15)
H5 H 0.508(3) 1.228(2) 0.7561(15)
H6 H 0.587(3) 1.350(2) 0.7047(13)
H7 H 0.376(3) 1.049(2) 0.5247(14)
H8 H 0.408(3) 1.139(2) 0.4201(14)
H9 H 0.334(3) 1.052(3) 0.3326(14)
H10 H 0.243(2) 0.922(2) 0.2751(14)
H11 H 0.283(2) 0.915(2) 0.4738(14)
H12 H 0.227(2) 0.740(2) 0.2432(12)
H13 H 0.100(3) 0.805(3) 0.2307(13)
H14 H 0.009(3) 0.644(2) 0.2402(13)
H15 H 0.072(3) 0.642(2) 0.1868(15)
H16 H 0.088(3) 0.457(3) 0.1912(17)
H17 H 0.009(3) 0.463(3) 0.2361(16)
H18 H 0.122(3) 0.311(3) 0.2427(14)
H19 H 0.246(3) 0.372(2) 0.2635(13)
H20 H 0.275(3) 0.272(2) 0.3488(14)
H21 H 0.148(3) 0.222(2) 0.3319(13)
H22 H 0.100(3) 0.317(2) 0.4135(13)
H23 H 0.196(2) 0.220(2) 0.4317(12)
H24 H 0.323(3) 0.413(2) 0.5261(14)
H25 H 0.227(3) 0.319(3) 0.5192(15)
H26 H 0.089(3) 0.451(2) 0.4724(13)
H27 H 0.140(2) 0.473(2) 0.5400(13)
H28 H 0.112(3) 0.650(2) 0.5310(14)
H29 H 0.046(3) 0.634(3) 0.4690(15)
H30 H 0.126(3) 0.803(3) 0.4941(14)
H31 H 0.258(3) 0.751(2) 0.5064(12)
H32 H 0.692(3) 1.473(3) 0.6010(14)
H33 H 0.706(3) 1.421(3) 0.6630(15)
H34 H 0.608(3) 1.583(3) 0.6521(15)
H35 H 0.524(3) 1.505(3) 0.6607(15)
H36 H 0.511(3) 1.553(3) 0.5921(17)
C30 C -0.0757(4) 0.9940(4) 0.4474(2)
C31 C 0.0123(4) 1.0620(4) 0.4555(2)
C32 C 0.0895(4) 1.0699(4) 0.5082(2)
H37 H -0.137(3) 0.990(3) 0.4104(18)
H38 H 0.027(3) 1.103(3) 0.4248(18)
H39 H 0.160(3) 1.117(3) 0.5159(14)
C30B C 0.0757(4) 1.0060(4) 0.5526(2)
C31B C -0.0123(4) 0.9380(4) 0.5445(2)
C32B C -0.0895(4) 0.9301(4) 0.4918(2)
H37B H 0.137(3) 1.010(3) 0.5896(18)
H38B H -0.027(3) 0.897(3) 0.5752(18)
H39B H -0.160(3) 0.883(3) 0.4841(14)
C33 C -0.2243(5) 0.4802(4) 0.34216(17)
C34 C -0.1071(5) 0.4681(5) 0.35037(17)
C35 C -0.0367(4) 0.5527(5) 0.35442(17)
C36 C -0.0838(4) 0.6515(5) 0.34984(19)
C37 C -0.2001(4) 0.6630(4) 0.3415(2)
C38 C -0.2696(4) 0.5782(4) 0.3372(2)
H40 H -0.274(3) 0.421(3) 0.3379(14)
H41 H -0.077(4) 0.400(4) 0.354(2)
H42 H 0.046(3) 0.544(3) 0.3574(14)
H43 H -0.033(3) 0.706(3) 0.3543(16)
H44 H -0.232(4) 0.736(3) 0.3433(19)
H45 H -0.348(4) 0.580(3) 0.3296(18)
loop_
_geom_bond_atom_site_label_1
_geom_bond_atom_site_label_2
_geom_bond_site_symmetry_1
_geom_bond_site_symmetry_2
Cl1 O1 1_555 1_555
O2 Cl1 1_555 1_555
O3 Cl1 1_555 1_555
O4 Cl1 1_555 1_555
O5 C15 1_555 1_555
O6 C19 1_555 1_555
O7 C21 1_555 1_555
O8 C23 1_555 1_555
O9 C25 1_555 1_555
O10 C16 1_555 1_555
N1 C1 1_555 1_555
C1 C2 1_555 1_555
C2 C3 1_555 1_555
C3 C4 1_555 1_555
C4 C5 1_555 1_555
C5 C6 1_555 1_555
C6 C7 1_555 1_555
C7 C8 1_555 1_555
C8 C9 1_555 1_555
C9 N1 1_555 1_555
C10 C3 1_555 1_555
C11 C10 1_555 1_555
C12 C11 1_555 1_555
C13 C12 1_555 1_555
C14 C13 1_555 1_555
C15 C14 1_555 1_555
C16 C15 1_555 1_555
C17 C12 1_555 1_555
C18 O5 1_555 1_555
C19 C18 1_555 1_555
C20 O6 1_555 1_555
C21 C20 1_555 1_555
C22 O7 1_555 1_555
C23 C22 1_555 1_555
C24 O8 1_555 1_555
C25 C24 1_555 1_555
C26 O9 1_555 1_555
C27 O10 1_555 1_555
C28 N1 1_555 1_555
C29 C28 1_555 1_555
H1 C1 1_555 1_555
H2 C2 1_555 1_555
H3 C5 1_555 1_555
H4 C6 1_555 1_555
H5 C7 1_555 1_555
H6 C8 1_555 1_555
H7 C10 1_555 1_555
H8 C11 1_555 1_555
H9 C13 1_555 1_555
H10 C14 1_555 1_555
H11 C17 1_555 1_555
H12 C18 1_555 1_555
H13 C18 1_555 1_555
H14 C19 1_555 1_555
H15 C19 1_555 1_555
H16 C20 1_555 1_555
H17 C20 1_555 1_555
H18 C21 1_555 1_555
H19 C21 1_555 1_555
H20 C22 1_555 1_555
H21 C22 1_555 1_555
H22 C23 1_555 1_555
H23 C23 1_555 1_555
H24 C24 1_555 1_555
H25 C24 1_555 1_555
H26 C25 1_555 1_555
H27 C25 1_555 1_555
H28 C26 1_555 1_555
H29 C26 1_555 1_555
H30 C27 1_555 1_555
H31 C27 1_555 1_555
H32 C28 1_555 1_555
H33 C28 1_555 1_555
H34 C29 1_555 1_555
H35 C29 1_555 1_555
H36 C29 1_555 1_555
C30 C31 1_555 1_555
C31 C32 1_555 1_555
C32 H39 1_555 1_555
H37 C30 1_555 1_555
H38 C31 1_555 1_555
C33 C34 1_555 1_555
C34 C35 1_555 1_555
C35 C36 1_555 1_555
C36 C37 1_555 1_555
C37 C38 1_555 1_555
C38 C33 1_555 1_555
H40 C33 1_555 1_555
H41 C34 1_555 1_555
H42 C35 1_555 1_555
H43 C36 1_555 1_555
H44 C37 1_555 1_555
H45 C38 1_555 1_555
C30B C32 1_555 1_555
C31B C30B 1_555 1_555
C32B C30 1_555 1_555
H37B C30B 1_555 1_555
H38B C31B 1_555 1_555
H39B C32B 1_555 1_555
C4 C9 1_555 1_555
C16 C17 1_555 1_555
C26 C27 1_555 1_555
C31B C32B 1_555 1_555

#END
