
#######################################################################
#
#                 Cambridge Crystallographic Data Centre
#                                CCDC 
#
#######################################################################
#
# If this CIF has been generated from an entry in the Cambridge 
# Structural Database, then it will include bibliographic, chemical, 
# crystal, experimental, refinement or atomic coordinate data resulting 
# from the CCDC's data processing and validation procedures.
#
#######################################################################

data_PUDPEL
_chemical_formula_moiety         'C29 H38 N2 O6 2+,2(Cl1 O4 1-)'
_chemical_name_systematic        
'1-(2-Ammonioethyl)-4-(2-(2,3,5,6,8,9,11,12,14,15-decahydro-1,4,7,10,13,16-benzohexaoxacyclo-octadecin-18-yl)vinyl)quinolinium diperchlorate'
_symmetry_cell_setting           triclinic
_symmetry_space_group_name_H-M   'P -1'
_symmetry_Int_Tables_number      2
_space_group_name_Hall           '-P 1'
loop_
_symmetry_equiv_pos_site_id
_symmetry_equiv_pos_as_xyz
1 x,y,z
2 -x,-y,-z
_cell_length_a                   11.425(3)
_cell_length_b                   11.981(3)
_cell_length_c                   12.650(3)
_cell_angle_alpha                101.734(11)
_cell_angle_beta                 99.896(12)
_cell_angle_gamma                109.094(11)
_cell_volume                     1548.02
_exptl_crystal_colour            orange
_exptl_crystal_description       needle
_cell_formula_units_Z            2
loop_
_atom_site_label
_atom_site_type_symbol
_atom_site_fract_x
_atom_site_fract_y
_atom_site_fract_z
Cl1 Cl 0.8734(2) 0.17264(19) 0.16972(16)
O1 O 0.9711(5) 0.1857(6) 0.1113(5)
O2 O 0.8462(7) 0.0604(5) 0.2005(5)
O3 O 0.7621(6) 0.1632(7) 0.0964(5)
O4 O 0.9133(7) 0.2728(6) 0.2668(5)
Cl2 Cl 0.3009(6) 0.3370(4) 0.7443(4)
O5 O 0.2517(12) 0.2110(9) 0.7478(10)
O6 O 0.2035(14) 0.3612(16) 0.6765(11)
O7 O 0.3465(11) 0.4196(10) 0.8541(7)
O8 O 0.4076(8) 0.3529(8) 0.6932(8)
O13 O 0.4583(5) 0.0013(5) 0.2449(4)
O14 O 0.3490(6) -0.2418(5) 0.1184(5)
O15 O 0.1853(6) -0.4088(5) 0.1978(5)
O16 O 0.0797(5) -0.3117(5) 0.3651(4)
O17 O 0.1672(5) -0.0615(5) 0.4771(4)
O18 O 0.4018(5) 0.0592(5) 0.4311(4)
N1 N 0.8497(6) 0.9217(6) 0.7680(5)
N2 N 0.7919(6) 1.1536(6) 0.7455(5)
H1 H 0.7506 1.2050 0.7647
H2 H 0.7336 1.0792 0.7019
H3 H 0.8484 1.1863 0.7070
C1 C 0.8517(8) 0.8786(8) 0.6601(7)
H4 H 0.8968 0.9330 0.6227
C2 C 0.7886(7) 0.7578(7) 0.6074(6)
H5 H 0.7932 0.7288 0.5331
C3 C 0.7185(8) 0.6746(7) 0.6542(6)
C4 C 0.7153(8) 0.7221(7) 0.7667(6)
C5 C 0.6480(8) 0.6476(8) 0.8244(6)
H6 H 0.5997 0.5632 0.7868
C6 C 0.6487(8) 0.6914(7) 0.9334(7)
H7 H 0.6000 0.6397 0.9709
C7 C 0.7236(8) 0.8146(7) 0.9872(7)
H8 H 0.7286 0.8443 1.0641
C8 C 0.7900(7) 0.8952(8) 0.9369(6)
H9 H 0.8375 0.9794 0.9757
C9 C 0.7842(7) 0.8467(7) 0.8239(6)
C10 C 0.6575(9) 0.5472(7) 0.5970(7)
H10 H 0.6084 0.4949 0.6339
C11 C 0.6642(9) 0.4955(8) 0.4952(7)
H11 H 0.7149 0.5499 0.4610
C12 C 0.6044(8) 0.3675(7) 0.4299(7)
C13 C 0.6287(8) 0.3366(8) 0.3245(6)
H12 H 0.6791 0.3988 0.2970
C14 C 0.5779(8) 0.2134(7) 0.2605(7)
H13 H 0.5939 0.1925 0.1893
C15 C 0.5065(8) 0.1240(7) 0.2988(6)
C16 C 0.4787(8) 0.1553(7) 0.4039(6)
C17 C 0.5317(7) 0.2756(7) 0.4668(6)
H14 H 0.5174 0.2959 0.5388
C18 C 0.4880(9) -0.0363(7) 0.1397(6)
H15 H 0.5771 0.0150 0.1432
H16 H 0.4294 -0.0259 0.0784
C19 C 0.4723(9) -0.1676(8) 0.1188(8)
H17 H 0.4893 -0.1958 0.0459
H18 H 0.5358 -0.1759 0.1776
C20 C 0.3226(9) -0.3700(7) 0.0817(7)
H19 H 0.3857 -0.3907 0.1300
H20 H 0.3304 -0.3918 0.0042
C21 C 0.1942(9) -0.4397(8) 0.0864(7)
H21 H 0.1307 -0.4204 0.0373
H22 H 0.1756 -0.5289 0.0601
C22 C 0.0621(10) -0.4703(9) 0.2103(9)
H23 H 0.0382 -0.5602 0.1823
H24 H -0.0012 -0.4473 0.1649
C23 C 0.0580(10) -0.4384(8) 0.3298(7)
H25 H -0.0266 -0.4882 0.3376
H26 H 0.1247 -0.4562 0.3766
C24 C 0.0739(9) -0.2766(8) 0.4767(7)
H27 H 0.1507 -0.2749 0.5281
H28 H -0.0031 -0.3360 0.4884
C25 C 0.0679(8) -0.1518(8) 0.4991(7)
H29 H -0.0148 -0.1581 0.4534
H30 H 0.0686 -0.1244 0.5786
C26 C 0.2876(8) -0.0296(8) 0.5519(7)
H31 H 0.3202 -0.0964 0.5344
H32 H 0.2786 -0.0183 0.6294
C27 C 0.3793(8) 0.0863(7) 0.5417(6)
H33 H 0.3429 0.1511 0.5505
H34 H 0.4607 0.1154 0.6002
C28 C 0.9323(8) 1.0538(7) 0.8255(7)
H35 H 0.9866 1.0583 0.8975
H36 H 0.9901 1.0844 0.7790
C29 C 0.8620(8) 1.1378(8) 0.8482(6)
H37 H 0.8001 1.1049 0.8907
H38 H 0.9241 1.2194 0.8956
Cl3? Cl 0.2405(10) 0.3137(8) 0.7619(7)
O9? O 0.1656(17) 0.3305(19) 0.8387(14)
O10? O 0.3742(13) 0.367(2) 0.818(2)
O11? O 0.203(2) 0.1833(13) 0.7113(18)
O12? O 0.217(3) 0.370(3) 0.6743(18)
loop_
_geom_bond_atom_site_label_1
_geom_bond_atom_site_label_2
_geom_bond_site_symmetry_1
_geom_bond_site_symmetry_2
Cl1 O1 1_555 1_555
O2 Cl1 1_555 1_555
O3 Cl1 1_555 1_555
O4 Cl1 1_555 1_555
Cl2 O5 1_555 1_555
O6 Cl2 1_555 1_555
O7 Cl2 1_555 1_555
O8 Cl2 1_555 1_555
O13 C15 1_555 1_555
O14 C19 1_555 1_555
O15 C21 1_555 1_555
O16 C23 1_555 1_555
O17 C25 1_555 1_555
O18 C16 1_555 1_555
N1 C1 1_555 1_555
N2 H1 1_555 1_555
H2 N2 1_555 1_555
H3 N2 1_555 1_555
C1 H4 1_555 1_555
C2 C1 1_555 1_555
H5 C2 1_555 1_555
C3 C2 1_555 1_555
C4 C3 1_555 1_555
C5 C4 1_555 1_555
H6 C5 1_555 1_555
C6 C5 1_555 1_555
H7 C6 1_555 1_555
C7 C6 1_555 1_555
H8 C7 1_555 1_555
C8 C7 1_555 1_555
H9 C8 1_555 1_555
C9 N1 1_555 1_555
C10 C3 1_555 1_555
H10 C10 1_555 1_555
C11 C10 1_555 1_555
H11 C11 1_555 1_555
C12 C11 1_555 1_555
C13 C12 1_555 1_555
H12 C13 1_555 1_555
C14 C13 1_555 1_555
H13 C14 1_555 1_555
C15 C14 1_555 1_555
C16 C15 1_555 1_555
C17 C12 1_555 1_555
H14 C17 1_555 1_555
C18 O13 1_555 1_555
H15 C18 1_555 1_555
H16 C18 1_555 1_555
C19 C18 1_555 1_555
H17 C19 1_555 1_555
H18 C19 1_555 1_555
C20 O14 1_555 1_555
H19 C20 1_555 1_555
H20 C20 1_555 1_555
C21 C20 1_555 1_555
H21 C21 1_555 1_555
H22 C21 1_555 1_555
C22 O15 1_555 1_555
H23 C22 1_555 1_555
H24 C22 1_555 1_555
C23 C22 1_555 1_555
H25 C23 1_555 1_555
H26 C23 1_555 1_555
C24 O16 1_555 1_555
H27 C24 1_555 1_555
H28 C24 1_555 1_555
C25 C24 1_555 1_555
H29 C25 1_555 1_555
H30 C25 1_555 1_555
C26 O17 1_555 1_555
H31 C26 1_555 1_555
H32 C26 1_555 1_555
C27 O18 1_555 1_555
H33 C27 1_555 1_555
H34 C27 1_555 1_555
C28 N1 1_555 1_555
H35 C28 1_555 1_555
H36 C28 1_555 1_555
C29 N2 1_555 1_555
H37 C29 1_555 1_555
H38 C29 1_555 1_555
C4 C9 1_555 1_555
C8 C9 1_555 1_555
C16 C17 1_555 1_555
C26 C27 1_555 1_555
C28 C29 1_555 1_555

#END
