
#######################################################################
#
#                 Cambridge Crystallographic Data Centre
#                                CCDC 
#
#######################################################################
#
# If this CIF has been generated from an entry in the Cambridge 
# Structural Database, then it will include bibliographic, chemical, 
# crystal, experimental, refinement or atomic coordinate data resulting 
# from the CCDC's data processing and validation procedures.
#
#######################################################################

data_PUDROV
_chemical_formula_moiety         'C19 H33 N1 O3 Si2'
_chemical_name_systematic        
(3R,4R)-1-(Trimethylsilyl)-4-(N-((trimethylsilyl)-methyl)-N-benzoylamino)-1-(E)-pentene-3,5-diol
_symmetry_cell_setting           orthorhombic
_symmetry_space_group_name_H-M   'P 21 21 21'
_symmetry_Int_Tables_number      19
_space_group_name_Hall           'P 2ac 2ab'
loop_
_symmetry_equiv_pos_site_id
_symmetry_equiv_pos_as_xyz
1 x,y,z
2 1/2-x,-y,1/2+z
3 1/2+x,1/2-y,-z
4 -x,1/2+y,1/2-z
_cell_length_a                   7.3246(6)
_cell_length_b                   10.5921(7)
_cell_length_c                   30.685(6)
_cell_angle_alpha                90
_cell_angle_beta                 90
_cell_angle_gamma                90
_cell_volume                     2380.63
_chemical_melting_point          139-141deg.C
_cell_formula_units_Z            4
loop_
_atom_site_label
_atom_site_type_symbol
_atom_site_fract_x
_atom_site_fract_y
_atom_site_fract_z
C1 C 1.1289(7) 0.6115(5) 0.9098(2)
C2 C 1.2001(8) 0.7306(5) 0.9167(3)
C3 C 1.2502(8) 0.7698(6) 0.9577(3)
C4 C 1.2245(8) 0.6892(6) 0.9919(3)
C5 C 1.1536(7) 0.5705(5) 0.9852(2)
C6 C 1.1022(6) 0.5314(5) 0.9445(2)
O1 O 1.1600(5) 0.3160(3) 0.9305(1)
N1 N 0.8641(5) 0.3711(3) 0.9334(1)
C7 C 1.0423(7) 0.3998(5) 0.9365(2)
Si1 Si 0.8794(3) 0.1693(2) 0.8709(1)
C8 C 0.8184(7) 0.2380(4) 0.9260(2)
C9 C 1.0491(11) 0.0411(6) 0.8783(2)
C10 C 0.6635(15) 0.1008(11) 0.8487(4)
C11 C 0.9669(17) 0.2919(8) 0.8341(2)
C12 C 0.7218(6) 0.4600(5) 0.9486(2)
O2 O 0.7814(5) 0.3921(4) 1.0213(1)
C13 C 0.6405(7) 0.4111(5) 0.9911(2)
O3 O 0.4925(5) 0.3793(3) 0.8978(1)
C14 C 0.5760(6) 0.4894(5) 0.9141(2)
C15 C 0.6508(7) 0.5668(5) 0.8772(2)
Si2 Si 0.6942(3) 0.6474(2) 0.7893(1)
C16 C 0.6151(8) 0.5488(6) 0.8357(2)
C17 C 0.7857(20) 0.5449(8) 0.7464(3)
C18 C 0.4944(20) 0.7379(14) 0.7680(4)
C19 C 0.8683(18) 0.7602(9) 0.8075(3)
H1 H 1.0983(7) 0.5850(5) 0.8811(2)
H2 H 1.2148(8) 0.7864(5) 0.8927(3)
H3 H 1.3014(8) 0.8512(6) 0.9622(3)
H4 H 1.2560(8) 0.7153(6) 1.0205(3)
H5 H 1.1400(7) 0.5148(5) 1.0092(2)
H6 H 0.6854(7) 0.2277(4) 0.9303(2)
H7 H 0.8804(7) 0.1871(4) 0.9486(2)
H8 H 1.0060(34) -0.0173(26) 0.9008(12)
H9 H 1.1663(22) 0.0775(7) 0.8872(16)
H10 H 1.0646(52) -0.0046(31) 0.8508(5)
H11 H 0.6909(27) 0.0512(91) 0.8226(22)
H12 H 0.5790(64) 0.1692(11) 0.8412(35)
H13 H 0.6074(82) 0.0462(85) 0.8707(14)
H14 H 0.947(11) 0.2659(39) 0.8038(2)
H15 H 1.0978(31) 0.3039(58) 0.8392(20)
H16 H 0.9023(86) 0.3714(23) 0.8395(20)
H17 H 0.7847(6) 0.5414(5) 0.9555(2)
H18 H 0.7598(43) 0.3269(33) 1.0359(14)
H19 H 0.5520(7) 0.4732(5) 1.0028(2)
H20 H 0.5753(7) 0.3307(5) 0.9858(2)
H21 H 0.3969(45) 0.3644(32) 0.9120(13)
H22 H 0.4788(6) 0.5407(5) 0.9286(2)
H23 H 0.7304(7) 0.6344(5) 0.8845(2)
H24 H 0.5411(8) 0.4779(6) 0.8287(2)
H25 H 0.7073(80) 0.4705(51) 0.7432(24)
H26 H 0.9095(56) 0.5180(78) 0.7542(16)
H27 H 0.789(14) 0.5913(34) 0.7188(8)
H28 H 0.443(13) 0.790(11) 0.7914(15)
H29 H 0.4012(90) 0.6789(15) 0.7576(45)
H30 H 0.5339(45) 0.792(11) 0.7440(34)
H31 H 0.8237(48) 0.8055(57) 0.8333(17)
H32 H 0.8935(90) 0.8207(51) 0.7841(11)
H33 H 0.9805(39) 0.7146(13) 0.8149(26)
loop_
_geom_bond_atom_site_label_1
_geom_bond_atom_site_label_2
_geom_bond_site_symmetry_1
_geom_bond_site_symmetry_2
C1 C2 1_555 1_555
C2 C3 1_555 1_555
C3 C4 1_555 1_555
C4 C5 1_555 1_555
C5 C6 1_555 1_555
C6 C1 1_555 1_555
O1 C7 1_555 1_555
N1 C7 1_555 1_555
C7 C6 1_555 1_555
Si1 C8 1_555 1_555
C8 N1 1_555 1_555
C9 Si1 1_555 1_555
C10 Si1 1_555 1_555
C11 Si1 1_555 1_555
C12 N1 1_555 1_555
O2 C13 1_555 1_555
C13 C12 1_555 1_555
O3 C14 1_555 1_555
C14 C12 1_555 1_555
C15 C14 1_555 1_555
Si2 C16 1_555 1_555
C16 C15 1_555 1_555
C17 Si2 1_555 1_555
C18 Si2 1_555 1_555
C19 Si2 1_555 1_555
H1 C1 1_555 1_555
H2 C2 1_555 1_555
H3 C3 1_555 1_555
H4 C4 1_555 1_555
H5 C5 1_555 1_555
H6 C8 1_555 1_555
H7 C8 1_555 1_555
H8 C9 1_555 1_555
H9 C9 1_555 1_555
H10 C9 1_555 1_555
H11 C10 1_555 1_555
H12 C10 1_555 1_555
H13 C10 1_555 1_555
H14 C11 1_555 1_555
H15 C11 1_555 1_555
H16 C11 1_555 1_555
H17 C12 1_555 1_555
H18 O2 1_555 1_555
H19 C13 1_555 1_555
H20 C13 1_555 1_555
H21 O3 1_555 1_555
H22 C14 1_555 1_555
H23 C15 1_555 1_555
H24 C16 1_555 1_555
H25 C17 1_555 1_555
H26 C17 1_555 1_555
H27 C17 1_555 1_555
H28 C18 1_555 1_555
H29 C18 1_555 1_555
H30 C18 1_555 1_555
H31 C19 1_555 1_555
H32 C19 1_555 1_555
H33 C19 1_555 1_555

#END
