
#######################################################################
#
#                 Cambridge Crystallographic Data Centre
#                                CCDC 
#
#######################################################################
#
# If this CIF has been generated from an entry in the Cambridge 
# Structural Database, then it will include bibliographic, chemical, 
# crystal, experimental, refinement or atomic coordinate data resulting 
# from the CCDC's data processing and validation procedures.
#
#######################################################################

data_PUDTUE
_chemical_formula_moiety         'C1 H6 N3 1+,C6 H4 Cl1 O3 S1 1-,0.67(C9 H12)'
_chemical_name_systematic        
'Guanidinium 4-chlorobenzenesulfonate mesitylene clathrate'
_symmetry_cell_setting           hexagonal
_symmetry_space_group_name_H-M   'P 63/m'
_symmetry_Int_Tables_number      176
_space_group_name_Hall           '-P 6c'
loop_
_symmetry_equiv_pos_site_id
_symmetry_equiv_pos_as_xyz
1 x,y,z
2 x-y,x,1/2+z
3 -y,x-y,z
4 -x,-y,1/2+z
5 -x+y,-x,z
6 y,-x+y,1/2+z
7 -x,-y,-z
8 -x+y,-x,1/2-z
9 y,-x+y,-z
10 x,y,1/2-z
11 x-y,x,-z
12 -y,x-y,1/2-z
_cell_length_a                   19.418(2)
_cell_length_b                   19.418(2)
_cell_length_c                   7.5446(9)
_cell_angle_alpha                90
_cell_angle_beta                 90
_cell_angle_gamma                120
_cell_volume                     2463.63
_exptl_crystal_colour            colorless
_exptl_crystal_description       needle
_cell_formula_units_Z            6
loop_
_atom_site_label
_atom_site_type_symbol
_atom_site_fract_x
_atom_site_fract_y
_atom_site_fract_z
Cl1 Cl 0.15646(8) 0.71388(8) 0.2500
S1 S 0.02874(7) 0.34735(7) 0.2500
O1 O -0.01888(13) 0.31514(14) 0.0897(3)
O2 O 0.09955(19) 0.3396(2) 0.2500
C10 C 0.0632(3) 0.4507(3) 0.2500
C11 C 0.1346(4) 0.5007(4) 0.1491(8)
H11 H 0.1615 0.4785 0.0872
C12 C 0.1626(4) 0.5823(4) 0.1455(9)
H12 H 0.2082 0.6174 0.0782
C13 C 0.0195(4) 0.4807(4) 0.1873(8)
H13 H -0.0319 0.4457 0.1405
C14 C 0.0473(4) 0.5616(4) 0.1887(8)
H14 H 0.0146 0.5813 0.1452
C15 C 0.1188(3) 0.6114(3) 0.2500
O1I O -0.01888(13) 0.31514(14) 0.4103(3)
C11I C 0.1346(4) 0.5007(4) 0.3509(8)
H11I H 0.1615 0.4785 0.4128
C12I C 0.1626(4) 0.5823(4) 0.3545(9)
H12I H 0.2082 0.6174 0.4218
C13I C 0.0195(4) 0.4807(4) 0.3127(8)
H13I H -0.0319 0.4457 0.3595
C14I C 0.0473(4) 0.5616(4) 0.3113(8)
H14I H 0.0146 0.5813 0.3548
N1 N 0.32685(18) 0.16611(17) 0.0982(4)
H15 H 0.3250 0.1877 -0.0029
H16 H 0.3312 0.1231 0.0983
N2 N 0.3167(3) 0.2628(3) 0.2500
H17 H 0.3148 0.2845 0.1490
H18 H 0.3143 0.2842 0.3510
C16 C 0.3232(3) 0.1983(3) 0.2500
N1I N 0.32685(18) 0.16611(17) 0.4018(4)
H15I H 0.3250 0.1877 0.5029
H16I H 0.3312 0.1231 0.4017
C1 C 0.6765(4) 0.4074(4) 0.2123(7)
H1 H 0.6831 0.4580 0.2402
C2 C 0.6019(4) 0.3427(4) 0.1920(10)
C3 C 0.5312(6) 0.3499(5) 0.1449(12)
H2 H 0.4841 0.2967 0.1376
H3 H 0.5401 0.3766 0.0300
H4 H 0.5229 0.3809 0.2359
C1I C 0.6765(4) 0.4074(4) 0.2877(7)
C1K C 0.5926(4) 0.2691(6) 0.2877(7)
C1B C 0.5926(4) 0.2691(6) 0.2123(7)
C1D C 0.7309(6) 0.3235(4) 0.2123(7)
C1G C 0.7309(6) 0.3235(4) 0.2877(7)
H1I H 0.6831 0.4580 0.2598
H1B H 0.5420 0.2251 0.2402
H1K H 0.5420 0.2251 0.2598
H1D H 0.7749 0.3169 0.2402
H1G H 0.7749 0.3169 0.2598
C2I C 0.6019(4) 0.3427(4) 0.3080(10)
C2B C 0.6573(4) 0.2592(6) 0.1920(10)
C2D C 0.7408(6) 0.3981(4) 0.1920(10)
C2G C 0.7408(6) 0.3981(4) 0.3080(10)
C2K C 0.6573(4) 0.2592(6) 0.3080(10)
C3G C 0.8187(8) 0.4688(6) 0.3551(12)
C3D C 0.8187(8) 0.4688(6) 0.1449(12)
C3B C 0.6501(5) 0.1813(8) 0.1449(12)
C3K C 0.6501(5) 0.1813(8) 0.3551(12)
C3I C 0.5312(6) 0.3499(5) 0.3551(12)
H2D H 0.8126 0.5159 0.1376
H2G H 0.8126 0.5159 0.3624
H2K H 0.7033 0.1874 0.3624
H2B H 0.7033 0.1874 0.1376
H2I H 0.4841 0.2967 0.3624
H3D H 0.8365 0.4599 0.0300
H3G H 0.8365 0.4599 0.4700
H3K H 0.6234 0.1635 0.4700
H3B H 0.6234 0.1635 0.0300
H3I H 0.5401 0.3766 0.4700
H4D H 0.8580 0.4771 0.2359
H4G H 0.8580 0.4771 0.2641
H4K H 0.6191 0.1420 0.2641
H4B H 0.6191 0.1420 0.2359
H4I H 0.5229 0.3809 0.2641
C4? C 0.1296(10) 0.0504(8) 0.5773(15)
C5? C 0.1090(6) -0.0177(6) 0.5011(14)
H5? H 0.1141 -0.0582 0.5600
H6? H 0.1583 0.0138 0.4438
C6? C 0.0795(11) -0.0278(8) 0.3346(19)
C7? C 0.0668(9) 0.0256(8) 0.2500
H7? H 0.0398 0.0150 0.1397
C8? C 0.0955(12) 0.0949(7) 0.335(2)
C9? C 0.1013(5) 0.1626(4) 0.2500
H8? H 0.1248 0.2078 0.3320
H9? H 0.0482 0.1516 0.2149
H10? H 0.1351 0.1753 0.1446
loop_
_geom_bond_atom_site_label_1
_geom_bond_atom_site_label_2
_geom_bond_site_symmetry_1
_geom_bond_site_symmetry_2
C1 H1 1_555 1_555
H1 C1I 1_555 1_555
C2 C1 1_555 1_555
C3 C2 1_555 1_555
H2 C3 1_555 1_555
H3 C3 1_555 1_555
H4 C3 1_555 1_555
Cl1 C15 1_555 1_555
S1 O1 1_555 1_555
O2 S1 1_555 1_555
C10 S1 1_555 1_555
C11 C10 1_555 1_555
H11 C11 1_555 1_555
C12 C11 1_555 1_555
H12 C12 1_555 1_555
C13 C10 1_555 1_555
H13 C13 1_555 1_555
C14 C13 1_555 1_555
H14 C14 1_555 1_555
C15 C12 1_555 1_555
N1 H15 1_555 1_555
H16 N1 1_555 1_555
N2 H17 1_555 1_555
H18 N2 1_555 1_555
C16 N1 1_555 1_555
C1I C1 1_555 1_555
C1K C2 1_555 1_555
C1B C2 1_555 1_555
C1D C1G 1_555 1_555
C1G H1D 1_555 1_555
H1I C1 1_555 1_555
H1B C1K 1_555 1_555
H1K C1K 1_555 1_555
H1D C1D 1_555 1_555
H1G C1D 1_555 1_555
C2I C1 1_555 1_555
C2B C1K 1_555 1_555
C2D C1 1_555 1_555
C2G C1 1_555 1_555
C2K C1K 1_555 1_555
C3G C2G 1_555 1_555
C3D C2D 1_555 1_555
C3B C2B 1_555 1_555
C3K C2K 1_555 1_555
C3I C3 1_555 1_555
H2D C3D 1_555 1_555
H2G C3G 1_555 1_555
H2K C3K 1_555 1_555
H2B C3B 1_555 1_555
H2I C3I 1_555 1_555
H3D C3D 1_555 1_555
H3G C3G 1_555 1_555
H3K C3K 1_555 1_555
H3B C3B 1_555 1_555
H3I C3I 1_555 1_555
H4D C3G 1_555 1_555
H4G C3G 1_555 1_555
H4K C3B 1_555 1_555
H4B C3B 1_555 1_555
H4I C3 1_555 1_555
O1I S1 1_555 1_555
C11I C10 1_555 1_555
H11I C11I 1_555 1_555
C12I C12 1_555 1_555
H12I C12I 1_555 1_555
C13I C10 1_555 1_555
H13I C13I 1_555 1_555
C14I C13 1_555 1_555
H14I C14I 1_555 1_555
N1I C16 1_555 1_555
H15I N1I 1_555 1_555
H16I N1I 1_555 1_555
H1 H1I 1_555 1_555
C2 C1I 1_555 1_555
C2 C2I 1_555 1_555
H4 C3I 1_555 1_555
H4 H4I 1_555 1_555
C11 C11I 1_555 1_555
C13 C13I 1_555 1_555
C14 C15 1_555 1_555
C14 C13I 1_555 1_555
C14 C14I 1_555 1_555
C15 C12I 1_555 1_555
C15 C14I 1_555 1_555
N2 C16 1_555 1_555
C1I H1I 1_555 1_555
C1I C2I 1_555 1_555
C1I C2D 1_555 1_555
C1I C2G 1_555 1_555
C1K C1B 1_555 1_555
C1K C2I 1_555 1_555
C1B H1B 1_555 1_555
C1B H1K 1_555 1_555
C1B C2I 1_555 1_555
C1B C2B 1_555 1_555
C1B C2K 1_555 1_555
C1D C2B 1_555 1_555
C1D C2D 1_555 1_555
C1D C2G 1_555 1_555
C1D C2K 1_555 1_555
C1G H1G 1_555 1_555
C1G C2B 1_555 1_555
C1G C2D 1_555 1_555
C1G C2G 1_555 1_555
C1G C2K 1_555 1_555
H1B H1K 1_555 1_555
H1D H1G 1_555 1_555
C2I C3I 1_555 1_555
C2B C2K 1_555 1_555
C2D C2G 1_555 1_555
C3G C3D 1_555 1_555
C3D H4D 1_555 1_555
C3D H4G 1_555 1_555
C3B C3K 1_555 1_555
C3K H4K 1_555 1_555
C3K H4B 1_555 1_555
C3I H4I 1_555 1_555
H4D H4G 1_555 1_555
H4K H4B 1_555 1_555
C11I C12I 1_555 1_555
C13I C14I 1_555 1_555

#END
