
#######################################################################
#
#                 Cambridge Crystallographic Data Centre
#                                CCDC 
#
#######################################################################
#
# If this CIF has been generated from an entry in the Cambridge 
# Structural Database, then it will include bibliographic, chemical, 
# crystal, experimental, refinement or atomic coordinate data resulting 
# from the CCDC's data processing and validation procedures.
#
#######################################################################

data_PUDVAM01
_chemical_formula_moiety         'C1 H6 N3 1+,C6 H4 Cl1 O3 S1 1-,0.67(C8 H10)'
_chemical_name_systematic        
'Guanidinium 4-chlorobenzenesulfonate o-xylene clathrate'
_symmetry_cell_setting           hexagonal
_symmetry_space_group_name_H-M   'P 63/m'
_symmetry_Int_Tables_number      176
_space_group_name_Hall           '-P 6c'
loop_
_symmetry_equiv_pos_site_id
_symmetry_equiv_pos_as_xyz
1 x,y,z
2 x-y,x,1/2+z
3 -y,x-y,z
4 -x,-y,1/2+z
5 -x+y,-x,z
6 y,-x+y,1/2+z
7 -x,-y,-z
8 -x+y,-x,1/2-z
9 y,-x+y,-z
10 x,y,1/2-z
11 x-y,x,-z
12 -y,x-y,1/2-z
_cell_length_a                   19.328(6)
_cell_length_b                   19.328(6)
_cell_length_c                   7.616(2)
_cell_angle_alpha                90
_cell_angle_beta                 90
_cell_angle_gamma                120
_cell_volume                     2463.95
_exptl_crystal_colour            colorless
_exptl_crystal_description       needle
_cell_formula_units_Z            6
loop_
_atom_site_label
_atom_site_type_symbol
_atom_site_fract_x
_atom_site_fract_y
_atom_site_fract_z
Cl1 Cl 0.15338(11) 0.71066(8) 0.2500
S1 S 0.03155(6) 0.34541(6) 0.2500
O1 O -0.01597(12) 0.31357(13) 0.0920(3)
O2 O 0.10205(18) 0.33732(19) 0.2500
C19 C 0.0661(2) 0.4481(2) 0.2500
C20 C 0.1340(3) 0.4987(3) 0.1525(10)
H27 H 0.1613 0.4781 0.0907
C21 C 0.1606(4) 0.5802(3) 0.1488(10)
H28 H 0.2042 0.6145 0.0802
C22 C 0.0241(4) 0.4784(3) 0.1654(9)
H29 H -0.0226 0.4438 0.1057
C23 C 0.0498(4) 0.5594(3) 0.1672(9)
H30 H 0.0200 0.5791 0.1137
C24 C 0.1205(3) 0.6097(3) 0.2500
O1I O -0.01597(12) 0.31357(13) 0.4080(3)
C20I C 0.1340(3) 0.4987(3) 0.3475(10)
H27I H 0.1613 0.4781 0.4093
C21I C 0.1606(4) 0.5802(3) 0.3512(10)
H28I H 0.2042 0.6145 0.4198
C22I C 0.0241(4) 0.4784(3) 0.3346(9)
H29I H -0.0226 0.4438 0.3943
C23I C 0.0498(4) 0.5594(3) 0.3328(9)
H30I H 0.0200 0.5791 0.3863
N1 N 0.3262(2) 0.16594(17) 0.1011(4)
H31 H 0.3301 0.1235 0.1006
H32 H 0.3243 0.1873 0.0035
N2 N 0.3191(3) 0.2638(2) 0.2500
H33 H 0.3183 0.2856 0.3478
H34 H 0.3172 0.2850 0.1522
C25 C 0.3233(3) 0.1980(3) 0.2500
N1I N 0.3262(2) 0.16594(17) 0.3989(4)
H31I H 0.3301 0.1235 0.3994
H32I H 0.3243 0.1873 0.4965
C13 C 0.7146(4) 0.3574(13) 0.206(3)
C14 C 0.713(2) 0.4260(6) 0.2500
H18 H 0.7604 0.4748 0.2466
C15 C 0.781(3) 0.357(4) 0.300(4)
H19 H 0.8292 0.3571 0.3153
C16 C 0.779(4) 0.427(3) 0.326(7)
H20 H 0.8177 0.4708 0.3883
C17 C 0.769(2) 0.326(3) 0.152(6)
H21 H 0.8230 0.3698 0.3541
H22 H 0.7530 0.3010 0.0395
H23 H 0.7119 0.4776 0.2375
C18 C 0.801(4) 0.4131(11) 0.163(8)
H24 H 0.8335 0.4222 0.2652
H25 H 0.8348 0.4378 0.4371
H26 H 0.7691 0.3565 0.1424
C13B C 0.6426(13) 0.3572(14) 0.206(3)
C13D C 0.6428(14) 0.2854(4) 0.206(3)
C13G C 0.6428(14) 0.2854(4) 0.294(3)
C13I C 0.7146(4) 0.3574(13) 0.294(3)
C13K C 0.6426(13) 0.3572(14) 0.294(3)
C14D C 0.7130(21) 0.287(2) 0.2500
C14B C 0.5740(6) 0.2870(21) 0.2500
H18B H 0.5252 0.2856 0.2466
H18K H 0.5252 0.2856 0.2534
H18D H 0.7144 0.2396 0.2466
H18G H 0.7144 0.2396 0.2534
H18I H 0.7604 0.4748 0.2534
C15D C 0.576(5) 0.219(3) 0.300(4)
C15G C 0.576(5) 0.219(3) 0.200(4)
C15B C 0.643(4) 0.424(5) 0.300(4)
C15K C 0.643(4) 0.424(5) 0.200(4)
C15I C 0.781(3) 0.357(4) 0.200(4)
H19G H 0.5279 0.1708 0.1847
H19D H 0.5279 0.1708 0.3153
H19I H 0.8292 0.3571 0.1847
H19B H 0.6429 0.4721 0.3153
H19K H 0.6429 0.4721 0.1847
C16D C 0.648(5) 0.221(4) 0.326(7)
C16G C 0.648(5) 0.221(4) 0.174(7)
C16B C 0.573(3) 0.352(5) 0.326(7)
C16K C 0.573(3) 0.352(5) 0.174(7)
C16I C 0.779(4) 0.427(3) 0.174(7)
H20G H 0.6531 0.1823 0.1117
H20D H 0.6531 0.1823 0.3883
H20I H 0.8177 0.4708 0.1117
H20K H 0.5292 0.3469 0.1117
H20B H 0.5292 0.3469 0.3883
C17D C 0.557(4) 0.231(2) 0.152(6)
C17G C 0.557(4) 0.231(2) 0.348(6)
C17I C 0.769(2) 0.326(3) 0.348(6)
C17B C 0.674(3) 0.443(4) 0.152(6)
C17K C 0.674(3) 0.443(4) 0.348(6)
H21G H 0.5468 0.1770 0.1459
H21D H 0.5468 0.1770 0.3541
H21I H 0.8230 0.3698 0.1459
H21B H 0.6302 0.4532 0.3541
H21K H 0.6302 0.4532 0.1459
H22D H 0.5480 0.2470 0.0395
H22G H 0.5480 0.2470 0.4605
H22I H 0.7530 0.3010 0.4605
H22B H 0.6990 0.4520 0.0395
H22K H 0.6990 0.4520 0.4605
H23B H 0.5224 0.2343 0.2375
H23K H 0.5224 0.2343 0.2625
H23D H 0.7657 0.2881 0.2375
H23G H 0.7657 0.2881 0.2625
H23I H 0.7119 0.4776 0.2625
C18G C 0.6121(41) 0.199(4) 0.337(8)
C18D C 0.6121(41) 0.199(4) 0.163(8)
C18I C 0.801(4) 0.4131(11) 0.337(8)
C18B C 0.5869(11) 0.3879(41) 0.163(8)
C18K C 0.5869(11) 0.3879(41) 0.337(8)
H24G H 0.5887 0.1665 0.2348
H24D H 0.5887 0.1665 0.2652
H24I H 0.8335 0.4222 0.2348
H24B H 0.5778 0.4113 0.2652
H24K H 0.5778 0.4113 0.2348
H25D H 0.6030 0.1652 0.4371
H25G H 0.6030 0.1652 0.0629
H25I H 0.8348 0.4378 0.0629
H25K H 0.5622 0.3970 0.0629
H25B H 0.5622 0.3970 0.4371
H26D H 0.5874 0.2309 0.1424
H26G H 0.5874 0.2309 0.3576
H26I H 0.7691 0.3565 0.3576
H26B H 0.6435 0.4126 0.1424
H26K H 0.6435 0.4126 0.3576
C1? C -0.0468(3) -0.0265(12) 0.2500
C2? C -0.053(2) 0.043(3) 0.2500
H1? H -0.1023 0.0398 0.2500
C3? C 0.018(4) 0.117(4) 0.2500
H2? H 0.0141 0.1629 0.2500
C4? C 0.093(6) 0.123(4) 0.2500
H3? H 0.1391 0.1728 0.2500
C5? C -0.131(2) -0.095(4) 0.2500
H4? H -0.1674 -0.0741 0.2500
H5? H -0.1403 -0.1268 0.3529
H6? H -0.1403 -0.1268 0.1471
C6? C 0.033(4) -0.094(3) 0.2500
H7? H -0.0142 -0.1363 0.3039
H8? H 0.0791 -0.0841 0.3148
H9? H 0.0367 -0.1078 0.1313
C7? C -0.121(3) -0.047(3) 0.2500
C8? C -0.062(3) 0.033(3) 0.2500
C9? C -0.027(3) 0.078(3) 0.400(2)
H10? H 0.0183 0.1283 0.3840
C10? C -0.054(3) 0.055(2) 0.571(2)
H11? H -0.0385 0.0923 0.6620
C11? C -0.172(5) -0.113(5) 0.123(13)
H12? H -0.2179 -0.1531 0.1827
H13? H -0.1412 -0.1353 0.0765
H14? H -0.1879 -0.0909 0.0290
C12? C 0.002(4) 0.119(3) 0.2500
H15? H 0.0440 0.1266 0.1711
H16? H 0.0233 0.1345 0.3664
H17? H -0.0203 0.1512 0.2125
loop_
_geom_bond_atom_site_label_1
_geom_bond_atom_site_label_2
_geom_bond_site_symmetry_1
_geom_bond_site_symmetry_2
C13 C14 1_555 1_555
C14 H18 1_555 1_555
H18 C16 1_555 1_555
C15 C13 1_555 1_555
H19 C15 1_555 1_555
C16 C13 1_555 1_555
H20 C16 1_555 1_555
C17 C13 1_555 1_555
H21 C15 1_555 1_555
H22 C17 1_555 1_555
H23 C14 1_555 1_555
C18 C13 1_555 1_555
H24 C15 1_555 1_555
H25 C16 1_555 1_555
H26 C13 1_555 1_555
Cl1 C24 1_555 1_555
S1 O1 1_555 1_555
O2 S1 1_555 1_555
C19 S1 1_555 1_555
C20 C19 1_555 1_555
H27 C20 1_555 1_555
C21 C20 1_555 1_555
H28 C21 1_555 1_555
C22 C19 1_555 1_555
H29 C22 1_555 1_555
C23 C22 1_555 1_555
H30 C23 1_555 1_555
C24 C21 1_555 1_555
N1 H31 1_555 1_555
H32 N1 1_555 1_555
N2 H33 1_555 1_555
H34 N2 1_555 1_555
C25 N1 1_555 1_555
C13B C13 1_555 1_555
C13D C13 1_555 1_555
C13G C13 1_555 1_555
C13I C13 1_555 1_555
C13K C13 1_555 1_555
C14D C13 1_555 1_555
C14B C13B 1_555 1_555
H18B C14B 1_555 1_555
H18K C14B 1_555 1_555
H18D C14D 1_555 1_555
H18G C14D 1_555 1_555
H18I C14 1_555 1_555
C15D C13D 1_555 1_555
C15G C13D 1_555 1_555
C15B C14 1_555 1_555
C15K C14 1_555 1_555
C15I C13 1_555 1_555
H19G C15D 1_555 1_555
H19D C15D 1_555 1_555
H19I C15 1_555 1_555
H19B C15B 1_555 1_555
H19K C15B 1_555 1_555
C16D C13D 1_555 1_555
C16G C13D 1_555 1_555
C16B C13B 1_555 1_555
C16K C13B 1_555 1_555
C16I C13 1_555 1_555
H20G C16G 1_555 1_555
H20D C16D 1_555 1_555
H20I C18 1_555 1_555
H20K C16K 1_555 1_555
H20B C16B 1_555 1_555
C17D C13D 1_555 1_555
C17G C13G 1_555 1_555
C17I C15 1_555 1_555
C17B C14 1_555 1_555
C17K C14 1_555 1_555
H21G C15G 1_555 1_555
H21D C15D 1_555 1_555
H21I C17 1_555 1_555
H21B C15B 1_555 1_555
H21K C15K 1_555 1_555
H22D C17D 1_555 1_555
H22G C17G 1_555 1_555
H22I C17I 1_555 1_555
H22B C17B 1_555 1_555
H22K C17K 1_555 1_555
H23B C14B 1_555 1_555
H23K C14B 1_555 1_555
H23D C15 1_555 1_555
H23G C15 1_555 1_555
H23I C14 1_555 1_555
C18G C13G 1_555 1_555
C18D C13D 1_555 1_555
C18I C15 1_555 1_555
C18B C13B 1_555 1_555
C18K C13K 1_555 1_555
H24G C15D 1_555 1_555
H24D C15D 1_555 1_555
H24I C15 1_555 1_555
H24B C15B 1_555 1_555
H24K C15B 1_555 1_555
H25D C16D 1_555 1_555
H25G C16G 1_555 1_555
H25I C18 1_555 1_555
H25K C16K 1_555 1_555
H25B C16B 1_555 1_555
H26D C13D 1_555 1_555
H26G C13G 1_555 1_555
H26I C15 1_555 1_555
H26B C13B 1_555 1_555
H26K C13K 1_555 1_555
O1I S1 1_555 1_555
C20I C19 1_555 1_555
H27I C20I 1_555 1_555
C21I C21 1_555 1_555
H28I C21I 1_555 1_555
C22I C19 1_555 1_555
H29I C22I 1_555 1_555
C23I C23 1_555 1_555
H30I C23I 1_555 1_555
N1I C25 1_555 1_555
H31I N1I 1_555 1_555
H32I N1I 1_555 1_555
C14 C16 1_555 1_555
C14 C13B 1_555 1_555
C14 C13I 1_555 1_555
C14 C13K 1_555 1_555
C14 C16I 1_555 1_555
H18 H18I 1_555 1_555
H18 C16I 1_555 1_555
C15 C16 1_555 1_555
C15 C17 1_555 1_555
C15 C18 1_555 1_555
C15 H26 1_555 1_555
C15 C13I 1_555 1_555
C15 C14D 1_555 1_555
C15 C15I 1_555 1_555
C15 C16I 1_555 1_555
H19 H21 1_555 1_555
H19 C15I 1_555 1_555
H19 C17I 1_555 1_555
C16 C18 1_555 1_555
C16 H24 1_555 1_555
C16 C13I 1_555 1_555
C16 H18I 1_555 1_555
C16 C15I 1_555 1_555
C16 C16I 1_555 1_555
C16 C18I 1_555 1_555
C16 H24I 1_555 1_555
C16 H26I 1_555 1_555
H20 C18I 1_555 1_555
C17 C18 1_555 1_555
C17 H26 1_555 1_555
C17 C14D 1_555 1_555
C17 C15I 1_555 1_555
C17 H19I 1_555 1_555
C17 C17I 1_555 1_555
C17 H23D 1_555 1_555
C17 H23G 1_555 1_555
H21 C17I 1_555 1_555
H21 C18I 1_555 1_555
H23 C15B 1_555 1_555
H23 C15K 1_555 1_555
H23 C17B 1_555 1_555
H23 C17K 1_555 1_555
H23 H23I 1_555 1_555
C18 H24 1_555 1_555
C18 H26 1_555 1_555
C18 C15I 1_555 1_555
C18 C16I 1_555 1_555
C18 H21I 1_555 1_555
C18 C18I 1_555 1_555
C18 H24I 1_555 1_555
H24 C15I 1_555 1_555
H24 C16I 1_555 1_555
H24 C18I 1_555 1_555
H24 H24I 1_555 1_555
H25 C18I 1_555 1_555
H26 C15I 1_555 1_555
H26 C16I 1_555 1_555
C20 C20I 1_555 1_555
C22 C22I 1_555 1_555
C23 C24 1_555 1_555
C24 C21I 1_555 1_555
C24 C23I 1_555 1_555
N2 C25 1_555 1_555
C13B C13D 1_555 1_555
C13B C13G 1_555 1_555
C13B C13I 1_555 1_555
C13B C13K 1_555 1_555
C13B C15B 1_555 1_555
C13B C15K 1_555 1_555
C13B C17B 1_555 1_555
C13D C13G 1_555 1_555
C13D C13I 1_555 1_555
C13D C13K 1_555 1_555
C13D C14D 1_555 1_555
C13D C14B 1_555 1_555
C13G C13I 1_555 1_555
C13G C13K 1_555 1_555
C13G C14D 1_555 1_555
C13G C14B 1_555 1_555
C13G C15D 1_555 1_555
C13G C15G 1_555 1_555
C13G C16D 1_555 1_555
C13G C16G 1_555 1_555
C13I C13K 1_555 1_555
C13I C14D 1_555 1_555
C13I C15I 1_555 1_555
C13I C16I 1_555 1_555
C13I C17I 1_555 1_555
C13I C18I 1_555 1_555
C13I H26I 1_555 1_555
C13K C14B 1_555 1_555
C13K C15B 1_555 1_555
C13K C15K 1_555 1_555
C13K C16B 1_555 1_555
C13K C16K 1_555 1_555
C13K C17K 1_555 1_555
C14D C15I 1_555 1_555
C14D C16D 1_555 1_555
C14D C16G 1_555 1_555
C14D C17I 1_555 1_555
C14D H23D 1_555 1_555
C14D H23G 1_555 1_555
C14B C15D 1_555 1_555
C14B C15G 1_555 1_555
C14B C16B 1_555 1_555
C14B C16K 1_555 1_555
C14B C17D 1_555 1_555
C14B C17G 1_555 1_555
H18B H18K 1_555 1_555
H18B C16B 1_555 1_555
H18B C16K 1_555 1_555
H18K C16B 1_555 1_555
H18K C16K 1_555 1_555
H18D H18G 1_555 1_555
H18D C16D 1_555 1_555
H18D C16G 1_555 1_555
H18G C16D 1_555 1_555
H18G C16G 1_555 1_555
H18I C16I 1_555 1_555
C15D C15G 1_555 1_555
C15D C16D 1_555 1_555
C15D C16G 1_555 1_555
C15D C17D 1_555 1_555
C15D C17G 1_555 1_555
C15D H23B 1_555 1_555
C15D H23K 1_555 1_555
C15D C18G 1_555 1_555
C15D C18D 1_555 1_555
C15D H26D 1_555 1_555
C15D H26G 1_555 1_555
C15G H19G 1_555 1_555
C15G H19D 1_555 1_555
C15G C16D 1_555 1_555
C15G C16G 1_555 1_555
C15G C17D 1_555 1_555
C15G C17G 1_555 1_555
C15G H23B 1_555 1_555
C15G H23K 1_555 1_555
C15G C18G 1_555 1_555
C15G C18D 1_555 1_555
C15G H24G 1_555 1_555
C15G H24D 1_555 1_555
C15G H26D 1_555 1_555
C15G H26G 1_555 1_555
C15B C15K 1_555 1_555
C15B C16B 1_555 1_555
C15B C16K 1_555 1_555
C15B C17B 1_555 1_555
C15B C17K 1_555 1_555
C15B H23I 1_555 1_555
C15B C18B 1_555 1_555
C15B C18K 1_555 1_555
C15B H26B 1_555 1_555
C15B H26K 1_555 1_555
C15K H19B 1_555 1_555
C15K H19K 1_555 1_555
C15K C16B 1_555 1_555
C15K C16K 1_555 1_555
C15K C17B 1_555 1_555
C15K C17K 1_555 1_555
C15K H23I 1_555 1_555
C15K C18B 1_555 1_555
C15K C18K 1_555 1_555
C15K H24B 1_555 1_555
C15K H24K 1_555 1_555
C15K H26B 1_555 1_555
C15K H26K 1_555 1_555
C15I H19I 1_555 1_555
C15I C16I 1_555 1_555
C15I C17I 1_555 1_555
C15I H21I 1_555 1_555
C15I H23D 1_555 1_555
C15I H23G 1_555 1_555
C15I C18I 1_555 1_555
C15I H24I 1_555 1_555
C15I H26I 1_555 1_555
H19G C17D 1_555 1_555
H19G H21G 1_555 1_555
H19D C17G 1_555 1_555
H19D H21D 1_555 1_555
H19I H21I 1_555 1_555
H19B C17K 1_555 1_555
H19B H21B 1_555 1_555
H19K C17B 1_555 1_555
H19K H21K 1_555 1_555
C16D C16G 1_555 1_555
C16D C18G 1_555 1_555
C16D C18D 1_555 1_555
C16D H24G 1_555 1_555
C16D H24D 1_555 1_555
C16D H26G 1_555 1_555
C16G C18G 1_555 1_555
C16G C18D 1_555 1_555
C16G H24G 1_555 1_555
C16G H24D 1_555 1_555
C16G H26D 1_555 1_555
C16B C16K 1_555 1_555
C16B C18B 1_555 1_555
C16B C18K 1_555 1_555
C16B H24B 1_555 1_555
C16B H24K 1_555 1_555
C16B H26K 1_555 1_555
C16K C18B 1_555 1_555
C16K C18K 1_555 1_555
C16K H24B 1_555 1_555
C16K H24K 1_555 1_555
C16K H26B 1_555 1_555
C16I H20I 1_555 1_555
C16I C18I 1_555 1_555
C16I H24I 1_555 1_555
C16I H25I 1_555 1_555
H20G C18D 1_555 1_555
H20D C18G 1_555 1_555
H20K C18B 1_555 1_555
H20B C18K 1_555 1_555
C17D C17G 1_555 1_555
C17D H21G 1_555 1_555
C17D H23B 1_555 1_555
C17D H23K 1_555 1_555
C17D C18D 1_555 1_555
C17D H26D 1_555 1_555
C17G H21D 1_555 1_555
C17G H23B 1_555 1_555
C17G H23K 1_555 1_555
C17G C18G 1_555 1_555
C17G H26G 1_555 1_555
C17I H23D 1_555 1_555
C17I H23G 1_555 1_555
C17I C18I 1_555 1_555
C17I H26I 1_555 1_555
C17B C17K 1_555 1_555
C17B H21K 1_555 1_555
C17B H23I 1_555 1_555
C17B C18B 1_555 1_555
C17B H26B 1_555 1_555
C17K H21B 1_555 1_555
C17K H23I 1_555 1_555
C17K C18K 1_555 1_555
C17K H26K 1_555 1_555
H21G C18D 1_555 1_555
H21D C18G 1_555 1_555
H21B C18K 1_555 1_555
H21K C18B 1_555 1_555
H23B H23K 1_555 1_555
H23D H23G 1_555 1_555
C18G C18D 1_555 1_555
C18G H24G 1_555 1_555
C18G H24D 1_555 1_555
C18G H25D 1_555 1_555
C18G H26G 1_555 1_555
C18D H24G 1_555 1_555
C18D H24D 1_555 1_555
C18D H25G 1_555 1_555
C18D H26D 1_555 1_555
C18I H24I 1_555 1_555
C18I H26I 1_555 1_555
C18B C18K 1_555 1_555
C18B H24B 1_555 1_555
C18B H24K 1_555 1_555
C18B H25K 1_555 1_555
C18B H26B 1_555 1_555
C18K H24B 1_555 1_555
C18K H24K 1_555 1_555
C18K H25B 1_555 1_555
C18K H26K 1_555 1_555
H24G H24D 1_555 1_555
H24B H24K 1_555 1_555
C20I C21I 1_555 1_555
C22I C23I 1_555 1_555

#END
