
#######################################################################
#
#                 Cambridge Crystallographic Data Centre
#                                CCDC 
#
#######################################################################
#
# If this CIF has been generated from an entry in the Cambridge 
# Structural Database, then it will include bibliographic, chemical, 
# crystal, experimental, refinement or atomic coordinate data resulting 
# from the CCDC's data processing and validation procedures.
#
#######################################################################

data_PUDXES
_chemical_formula_moiety         'C72 H84 N12'
_chemical_name_systematic        
3,5,9,11,15,17,21,23,26,28,31,33-Dodecaaza-4,10,16,22,27,32(1,2)-hexacyclohexana-1,7,13,19(1,3,5)-tetrabenzenatricyclo[11.11.5.5^7,19^]tetratriacontaphane-2,5,8,11,14,17,20,23,25,28,30,33-dodecaene
_symmetry_cell_setting           cubic
_symmetry_space_group_name_H-M   'F 41 3 2'
_symmetry_Int_Tables_number      210
_space_group_name_Hall           'F 4d 2 3'
loop_
_symmetry_equiv_pos_site_id
_symmetry_equiv_pos_as_xyz
1 x,y,z
2 1/4-y,1/4+x,1/4+z
3 -x,-y,z
4 1/4+y,1/4-x,1/4+z
5 1/4+x,1/4-z,1/4+y
6 x,-y,-z
7 1/4+x,1/4+z,1/4-y
8 1/4+z,1/4+y,1/4-x
9 -x,y,-z
10 1/4-z,1/4+y,1/4+x
11 z,x,y
12 y,z,x
13 -y,-z,x
14 z,-x,-y
15 -y,z,-x
16 -z,-x,y
17 -z,x,-y
18 y,-z,-x
19 1/4+y,1/4+x,1/4-z
20 1/4-y,1/4-x,1/4-z
21 1/4-x,1/4+z,1/4+y
22 1/4-x,1/4-z,1/4-y
23 1/4+z,1/4-y,1/4+x
24 1/4-z,1/4-y,1/4-x
25 x,1/2+y,1/2+z
26 1/4-y,3/4+x,3/4+z
27 -x,1/2-y,1/2+z
28 1/4+y,3/4-x,3/4+z
29 1/4+x,3/4-z,3/4+y
30 x,1/2-y,1/2-z
31 1/4+x,3/4+z,3/4-y
32 1/4+z,3/4+y,3/4-x
33 -x,1/2+y,1/2-z
34 1/4-z,3/4+y,3/4+x
35 z,1/2+x,1/2+y
36 y,1/2+z,1/2+x
37 -y,1/2-z,1/2+x
38 z,1/2-x,1/2-y
39 -y,1/2+z,1/2-x
40 -z,1/2-x,1/2+y
41 -z,1/2+x,1/2-y
42 y,1/2-z,1/2-x
43 1/4+y,3/4+x,3/4-z
44 1/4-y,3/4-x,3/4-z
45 1/4-x,3/4+z,3/4+y
46 1/4-x,3/4-z,3/4-y
47 1/4+z,3/4-y,3/4+x
48 1/4-z,3/4-y,3/4-x
49 1/2+x,y,1/2+z
50 3/4-y,1/4+x,3/4+z
51 1/2-x,-y,1/2+z
52 3/4+y,1/4-x,3/4+z
53 3/4+x,1/4-z,3/4+y
54 1/2+x,-y,1/2-z
55 3/4+x,1/4+z,3/4-y
56 3/4+z,1/4+y,3/4-x
57 1/2-x,y,1/2-z
58 3/4-z,1/4+y,3/4+x
59 1/2+z,x,1/2+y
60 1/2+y,z,1/2+x
61 1/2-y,-z,1/2+x
62 1/2+z,-x,1/2-y
63 1/2-y,z,1/2-x
64 1/2-z,-x,1/2+y
65 1/2-z,x,1/2-y
66 1/2+y,-z,1/2-x
67 3/4+y,1/4+x,3/4-z
68 3/4-y,1/4-x,3/4-z
69 3/4-x,1/4+z,3/4+y
70 3/4-x,1/4-z,3/4-y
71 3/4+z,1/4-y,3/4+x
72 3/4-z,1/4-y,3/4-x
73 1/2+x,1/2+y,z
74 3/4-y,3/4+x,1/4+z
75 1/2-x,1/2-y,z
76 3/4+y,3/4-x,1/4+z
77 3/4+x,3/4-z,1/4+y
78 1/2+x,1/2-y,-z
79 3/4+x,3/4+z,1/4-y
80 3/4+z,3/4+y,1/4-x
81 1/2-x,1/2+y,-z
82 3/4-z,3/4+y,1/4+x
83 1/2+z,1/2+x,y
84 1/2+y,1/2+z,x
85 1/2-y,1/2-z,x
86 1/2+z,1/2-x,-y
87 1/2-y,1/2+z,-x
88 1/2-z,1/2-x,y
89 1/2-z,1/2+x,-y
90 1/2+y,1/2-z,-x
91 3/4+y,3/4+x,1/4-z
92 3/4-y,3/4-x,1/4-z
93 3/4-x,3/4+z,1/4+y
94 3/4-x,3/4-z,1/4-y
95 3/4+z,3/4-y,1/4+x
96 3/4-z,3/4-y,1/4-x
_cell_length_a                   24.80(5)
_cell_length_b                   24.80(5)
_cell_length_c                   24.80(5)
_cell_angle_alpha                90
_cell_angle_beta                 90
_cell_angle_gamma                90
_cell_volume                     15253
_exptl_crystal_colour            colorless
_exptl_crystal_description       prism
_cell_formula_units_Z            8
loop_
_atom_site_label
_atom_site_type_symbol
_atom_site_fract_x
_atom_site_fract_y
_atom_site_fract_z
N1 N 0.79496(14) 0.21354(17) 1.02781(18)
C1 C 0.8602(3) 0.19634(19) 1.1218(2)
C2 C 0.8156(2) 0.1655(3) 1.10828(19)
C3 C 0.78274(19) 0.1785(2) 1.0611(2)
C4 C 0.76001(18) 0.22151(14) 0.98142(17)
C5 C 0.7926(2) 0.2106(3) 0.9306(2)
C6 C 0.7587(4) 0.2216(2) 0.8806(2)
H1 H 0.86900 0.22600 1.10060
H2 H 0.75090 0.15940 1.05590
H3 H 0.72940 0.19660 0.98330
H4 H 0.80450 0.17330 0.93040
H5 H 0.82430 0.23350 0.93020
H6 H 0.77960 0.21410 0.84840
H7 H 0.72730 0.19820 0.88040
N1N N 0.78646(17) 0.02781(18) 1.20504(14)
N1O N 0.97219(18) 0.20504(14) 1.21354(17)
N1VB N 0.70504(14) 0.28646(17) 1.02781(18)
N1NA N 0.97219(18) 0.29496(14) 1.28646(17)
N1GB N 0.71354(17) 0.02781(18) 1.29496(14)
N1IB N 0.52781(18) 0.20504(14) 1.28646(17)
N1DC N 0.52781(18) 0.29496(14) 1.21354(17)
N1KC N 0.71354(17) 0.47219(18) 1.20504(14)
N1CA N 0.79496(14) 0.28646(17) 1.47219(18)
N1JA N 0.78646(17) 0.47219(18) 1.29496(14)
N1DB N 0.70504(14) 0.21354(17) 1.47219(18)
C1N C 0.80366(19) 0.1218(2) 1.1398(3)
C1O C 0.8782(2) 0.1398(3) 1.19634(19)
C1VB C 0.6398(3) 0.30366(19) 1.1218(2)
C1NA C 0.8782(2) 0.3602(3) 1.30366(19)
C1GB C 0.69634(19) 0.1218(2) 1.3602(3)
C1IB C 0.6218(2) 0.1398(3) 1.30366(19)
C1DC C 0.6218(2) 0.3602(3) 1.19634(19)
C1KC C 0.69634(19) 0.3782(2) 1.1398(3)
C1CA C 0.8602(3) 0.30366(19) 1.3782(2)
C1JA C 0.80366(19) 0.3782(2) 1.3602(3)
C1DB C 0.6398(3) 0.19634(19) 1.3782(2)
C2N C 0.8345(3) 0.10828(19) 1.1844(2)
C2O C 0.89172(19) 0.1844(2) 1.1655(3)
C2VB C 0.6844(2) 0.3345(3) 1.10828(19)
C2NA C 0.89172(19) 0.3156(2) 1.3345(3)
C2GB C 0.6655(3) 0.10828(19) 1.3156(2)
C2IB C 0.60828(19) 0.1844(2) 1.3345(3)
C2DC C 0.60828(19) 0.3156(2) 1.1655(3)
C2KC C 0.6655(3) 0.39172(19) 1.1844(2)
C2CA C 0.8156(2) 0.3345(3) 1.39172(19)
C2JA C 0.8345(3) 0.39172(19) 1.3156(2)
C2DB C 0.6844(2) 0.1655(3) 1.39172(19)
C3N C 0.8215(2) 0.0611(2) 1.21726(19)
C3O C 0.9389(2) 0.21726(19) 1.1785(2)
C3VB C 0.71726(19) 0.3215(2) 1.0611(2)
C3NA C 0.9389(2) 0.28274(19) 1.3215(2)
C3GB C 0.6785(2) 0.0611(2) 1.28274(19)
C3IB C 0.5611(2) 0.21726(19) 1.3215(2)
C3DC C 0.5611(2) 0.28274(19) 1.1785(2)
C3KC C 0.6785(2) 0.4389(2) 1.21726(19)
C3CA C 0.78274(19) 0.3215(2) 1.4389(2)
C3JA C 0.8215(2) 0.4389(2) 1.28274(19)
C3DB C 0.71726(19) 0.1785(2) 1.4389(2)
C4N C 0.77849(14) -0.01858(17) 1.23999(18)
C4O C 1.01858(17) 0.23999(18) 1.22151(14)
C4VB C 0.73999(18) 0.27849(14) 0.98142(17)
C4NA C 1.01858(17) 0.26001(18) 1.27849(14)
C4GB C 0.72151(14) -0.01858(17) 1.26001(18)
C4IB C 0.48142(17) 0.23999(18) 1.27849(14)
C4DC C 0.48142(17) 0.26001(18) 1.22151(14)
C4KC C 0.72151(14) 0.51858(17) 1.23999(18)
C4CA C 0.76001(18) 0.27849(14) 1.51858(17)
C4JA C 0.77849(14) 0.51858(17) 1.26001(18)
C4DB C 0.73999(18) 0.22151(14) 1.51858(17)
C5N C 0.7894(3) -0.0694(2) 1.2074(2)
C5O C 1.0694(2) 0.2074(2) 1.2106(3)
C5VB C 0.7074(2) 0.2894(3) 0.9306(2)
C5NA C 1.0694(2) 0.2926(2) 1.2894(3)
C5GB C 0.7106(3) -0.0694(2) 1.2926(2)
C5IB C 0.4306(2) 0.2074(2) 1.2894(3)
C5DC C 0.4306(2) 0.2926(2) 1.2106(3)
C5KC C 0.7106(3) 0.5694(2) 1.2074(2)
C5CA C 0.7926(2) 0.2894(3) 1.5694(2)
C5JA C 0.7894(3) 0.5694(2) 1.2926(2)
C5DB C 0.7074(2) 0.2106(3) 1.5694(2)
C6N C 0.7784(2) -0.1194(2) 1.2413(4)
C6O C 1.1194(2) 0.2413(4) 1.2216(2)
C6VB C 0.7413(4) 0.2784(2) 0.8806(2)
C6NA C 1.1194(2) 0.2587(4) 1.2784(2)
C6GB C 0.7216(2) -0.1194(2) 1.2587(4)
C6IB C 0.3806(2) 0.2413(4) 1.2784(2)
C6DC C 0.3806(2) 0.2587(4) 1.2216(2)
C6KC C 0.7216(2) 0.6194(2) 1.2413(4)
C6CA C 0.7587(4) 0.2784(2) 1.6194(2)
C6JA C 0.7784(2) 0.6194(2) 1.2587(4)
C6DB C 0.7413(4) 0.2216(2) 1.6194(2)
H1N H 0.77400 0.10060 1.13100
H1O H 0.89940 0.13100 1.22600
H1VB H 0.63100 0.27400 1.10060
H1NA H 0.89940 0.36900 1.27400
H1GB H 0.72600 0.10060 1.36900
H1IB H 0.60060 0.13100 1.27400
H1DC H 0.60060 0.36900 1.22600
H1KC H 0.72600 0.39940 1.13100
H1CA H 0.86900 0.27400 1.39940
H1JA H 0.77400 0.39940 1.36900
H1DB H 0.63100 0.22600 1.39940
H2N H 0.84060 0.05590 1.24910
H2O H 0.94410 0.24910 1.15940
H2VB H 0.74910 0.34060 1.05590
H2NA H 0.94410 0.25090 1.34060
H2GB H 0.65940 0.05590 1.25090
H2IB H 0.55590 0.24910 1.34060
H2DC H 0.55590 0.25090 1.15940
H2KC H 0.65940 0.44410 1.24910
H2CA H 0.75090 0.34060 1.44410
H2JA H 0.84060 0.44410 1.25090
H2DB H 0.74910 0.15940 1.44410
H3N H 0.80340 -0.01670 1.27060
H3O H 1.01670 0.27060 1.19660
H3VB H 0.77060 0.30340 0.98330
H3NA H 1.01670 0.22940 1.30340
H3GB H 0.69660 -0.01670 1.22940
H3IB H 0.48330 0.27060 1.30340
H3DC H 0.48330 0.22940 1.19660
H3KC H 0.69660 0.51670 1.27060
H3CA H 0.72940 0.30340 1.51670
H3JA H 0.80340 0.51670 1.22940
H3DB H 0.77060 0.19660 1.51670
H4N H 0.82670 -0.06960 1.19550
H4O H 1.06960 0.19550 1.17330
H4VB H 0.69550 0.32670 0.93040
H4NA H 1.06960 0.30450 1.32670
H4GB H 0.67330 -0.06960 1.30450
H4IB H 0.43040 0.19550 1.32670
H4DC H 0.43040 0.30450 1.17330
H4KC H 0.67330 0.56960 1.19550
H4CA H 0.80450 0.32670 1.56960
H4JA H 0.82670 0.56960 1.30450
H4DB H 0.69550 0.17330 1.56960
H5N H 0.76650 -0.06980 1.17570
H5O H 1.06980 0.17570 1.23350
H5VB H 0.67570 0.26650 0.93020
H5NA H 1.06980 0.32430 1.26650
H5GB H 0.73350 -0.06980 1.32430
H5IB H 0.43020 0.17570 1.26650
H5DC H 0.43020 0.32430 1.23350
H5KC H 0.73350 0.56980 1.17570
H5CA H 0.82430 0.26650 1.56980
H5JA H 0.76650 0.56980 1.32430
H5DB H 0.67570 0.23350 1.56980
H6N H 0.78590 -0.15160 1.22040
H6O H 1.15160 0.22040 1.21410
H6VB H 0.72040 0.28590 0.84840
H6NA H 1.15160 0.27960 1.28590
H6GB H 0.71410 -0.15160 1.27960
H6IB H 0.34840 0.22040 1.28590
H6DC H 0.34840 0.27960 1.21410
H6KC H 0.71410 0.65160 1.22040
H6CA H 0.77960 0.28590 1.65160
H6JA H 0.78590 0.65160 1.27960
H6DB H 0.72040 0.21410 1.65160
H7N H 0.80180 -0.11960 1.27270
H7O H 1.11960 0.27270 1.19820
H7VB H 0.77270 0.30180 0.88040
H7NA H 1.11960 0.22730 1.30180
H7GB H 0.69820 -0.11960 1.22730
H7IB H 0.38040 0.27270 1.30180
H7DC H 0.38040 0.22730 1.19820
H7KC H 0.69820 0.61960 1.27270
H7CA H 0.72730 0.30180 1.61960
H7JA H 0.80180 0.61960 1.22730
H7DB H 0.77270 0.19820 1.61960
loop_
_geom_bond_atom_site_label_1
_geom_bond_atom_site_label_2
_geom_bond_site_symmetry_1
_geom_bond_site_symmetry_2
N1 C3 1_555 1_555
C1 C2 1_555 1_555
C2 C3 1_555 1_555
C3 H2 1_555 1_555
C4 N1 1_555 1_555
C5 C4 1_555 1_555
C6 C5 1_555 1_555
H1 C1 1_555 1_555
H3 C4 1_555 1_555
H4 C5 1_555 1_555
H5 C5 1_555 1_555
H6 C6 1_555 1_555
H7 C6 1_555 1_555
N1N C3N 1_555 1_555
N1O C3O 1_555 1_555
N1VB C3VB 1_555 1_555
N1NA C3NA 1_555 1_555
N1GB C3GB 1_555 1_555
N1IB C3IB 1_555 1_555
N1DC C3DC 1_555 1_555
N1KC C3KC 1_555 1_555
N1CA C3CA 1_555 1_555
N1JA C3JA 1_555 1_555
N1DB C3DB 1_555 1_555
C1N C2 1_555 1_555
C1O C2N 1_555 1_555
C1VB C2VB 1_555 1_555
C1NA C2NA 1_555 1_555
C1GB C2GB 1_555 1_555
C1IB C2GB 1_555 1_555
C1DC C2DC 1_555 1_555
C1KC C2VB 1_555 1_555
C1CA C2NA 1_555 1_555
C1JA C2CA 1_555 1_555
C1DB C2IB 1_555 1_555
C2N C1N 1_555 1_555
C2O C1 1_555 1_555
C2VB C3VB 1_555 1_555
C2NA C3NA 1_555 1_555
C2GB C3GB 1_555 1_555
C2IB C1IB 1_555 1_555
C2DC C1VB 1_555 1_555
C2KC C1DC 1_555 1_555
C2CA C1CA 1_555 1_555
C2JA C1NA 1_555 1_555
C2DB C1GB 1_555 1_555
C3N C2N 1_555 1_555
C3O C2O 1_555 1_555
C3VB H2VB 1_555 1_555
C3NA H2NA 1_555 1_555
C3GB H2GB 1_555 1_555
C3IB C2IB 1_555 1_555
C3DC C2DC 1_555 1_555
C3KC C2KC 1_555 1_555
C3CA C2CA 1_555 1_555
C3JA C2JA 1_555 1_555
C3DB C2DB 1_555 1_555
C4N N1N 1_555 1_555
C4O N1O 1_555 1_555
C4VB C4 1_555 1_555
C4NA N1NA 1_555 1_555
C4GB N1GB 1_555 1_555
C4IB N1IB 1_555 1_555
C4DC N1DC 1_555 1_555
C4KC N1KC 1_555 1_555
C4CA N1CA 1_555 1_555
C4JA N1JA 1_555 1_555
C4DB N1DB 1_555 1_555
C5N C4N 1_555 1_555
C5O C4O 1_555 1_555
C5VB C4VB 1_555 1_555
C5NA C4NA 1_555 1_555
C5GB C4GB 1_555 1_555
C5IB C4IB 1_555 1_555
C5DC C4DC 1_555 1_555
C5KC C4KC 1_555 1_555
C5CA C4CA 1_555 1_555
C5JA C4JA 1_555 1_555
C5DB C4DB 1_555 1_555
C6N C5N 1_555 1_555
C6O C5O 1_555 1_555
C6VB C6 1_555 1_555
C6NA C5NA 1_555 1_555
C6GB C5GB 1_555 1_555
C6IB C5IB 1_555 1_555
C6DC C5DC 1_555 1_555
C6KC C5KC 1_555 1_555
C6CA C5CA 1_555 1_555
C6JA C5JA 1_555 1_555
C6DB C5DB 1_555 1_555
H1N C1N 1_555 1_555
H1O C1O 1_555 1_555
H1VB C1VB 1_555 1_555
H1NA C1NA 1_555 1_555
H1GB C1GB 1_555 1_555
H1IB C1IB 1_555 1_555
H1DC C1DC 1_555 1_555
H1KC C1KC 1_555 1_555
H1CA C1CA 1_555 1_555
H1JA C1JA 1_555 1_555
H1DB C1DB 1_555 1_555
H2N C3N 1_555 1_555
H2O C3O 1_555 1_555
H2IB C3IB 1_555 1_555
H2DC C3DC 1_555 1_555
H2KC C3KC 1_555 1_555
H2CA C3CA 1_555 1_555
H2JA C3JA 1_555 1_555
H2DB C3DB 1_555 1_555
H3N C4N 1_555 1_555
H3O C4O 1_555 1_555
H3VB C4VB 1_555 1_555
H3NA C4NA 1_555 1_555
H3GB C4GB 1_555 1_555
H3IB C4IB 1_555 1_555
H3DC C4DC 1_555 1_555
H3KC C4KC 1_555 1_555
H3CA C4CA 1_555 1_555
H3JA C4JA 1_555 1_555
H3DB C4DB 1_555 1_555
H4N C5N 1_555 1_555
H4O C5O 1_555 1_555
H4VB C5VB 1_555 1_555
H4NA C5NA 1_555 1_555
H4GB C5GB 1_555 1_555
H4IB C5IB 1_555 1_555
H4DC C5DC 1_555 1_555
H4KC C5KC 1_555 1_555
H4CA C5CA 1_555 1_555
H4JA C5JA 1_555 1_555
H4DB C5DB 1_555 1_555
H5N C5N 1_555 1_555
H5O C5O 1_555 1_555
H5VB C5VB 1_555 1_555
H5NA C5NA 1_555 1_555
H5GB C5GB 1_555 1_555
H5IB C5IB 1_555 1_555
H5DC C5DC 1_555 1_555
H5KC C5KC 1_555 1_555
H5CA C5CA 1_555 1_555
H5JA C5JA 1_555 1_555
H5DB C5DB 1_555 1_555
H6N C6N 1_555 1_555
H6O C6O 1_555 1_555
H6VB C6VB 1_555 1_555
H6NA C6NA 1_555 1_555
H6GB C6GB 1_555 1_555
H6IB C6IB 1_555 1_555
H6DC C6DC 1_555 1_555
H6KC C6KC 1_555 1_555
H6CA C6CA 1_555 1_555
H6JA C6JA 1_555 1_555
H6DB C6DB 1_555 1_555
H7N C6N 1_555 1_555
H7O C6O 1_555 1_555
H7VB C6VB 1_555 1_555
H7NA C6NA 1_555 1_555
H7GB C6GB 1_555 1_555
H7IB C6IB 1_555 1_555
H7DC C6DC 1_555 1_555
H7KC C6KC 1_555 1_555
H7CA C6CA 1_555 1_555
H7JA C6JA 1_555 1_555
H7DB C6DB 1_555 1_555
N1VB C4VB 1_555 1_555
C1O C2O 1_555 1_555
C1KC C2KC 1_555 1_555
C1JA C2JA 1_555 1_555
C1DB C2DB 1_555 1_555
C4N C4GB 1_555 1_555
C4O C4NA 1_555 1_555
C4IB C4DC 1_555 1_555
C4KC C4JA 1_555 1_555
C4CA C4DB 1_555 1_555
C5VB C6VB 1_555 1_555
C6N C6GB 1_555 1_555
C6O C6NA 1_555 1_555
C6IB C6DC 1_555 1_555
C6KC C6JA 1_555 1_555
C6CA C6DB 1_555 1_555

#END
