
#######################################################################
#
#                 Cambridge Crystallographic Data Centre
#                                CCDC 
#
#######################################################################
#
# If this CIF has been generated from an entry in the Cambridge 
# Structural Database, then it will include bibliographic, chemical, 
# crystal, experimental, refinement or atomic coordinate data resulting 
# from the CCDC's data processing and validation procedures.
#
#######################################################################

data_PUDXUJ
_chemical_formula_moiety         'C19 H16 O5'
_chemical_name_systematic        
'5-oxo-10,11-dihydro-5H-dibenzo[a,d][7]annulene-10,11-diyl diacetate'
_symmetry_cell_setting           monoclinic
_symmetry_space_group_name_H-M   'P 21/n'
_symmetry_Int_Tables_number      14
_space_group_name_Hall           '-P 2yn'
loop_
_symmetry_equiv_pos_site_id
_symmetry_equiv_pos_as_xyz
1 x,y,z
2 1/2-x,1/2+y,1/2-z
3 -x,-y,-z
4 1/2+x,1/2-y,1/2+z
_cell_length_a                   7.6770(7)
_cell_length_b                   14.7178(13)
_cell_length_c                   13.9744(12)
_cell_angle_alpha                90
_cell_angle_beta                 95.908(2)
_cell_angle_gamma                90
_cell_volume                     1570.56
_exptl_crystal_colour            colorless
_cell_formula_units_Z            4
loop_
_atom_site_label
_atom_site_type_symbol
_atom_site_fract_x
_atom_site_fract_y
_atom_site_fract_z
O1 O 0.6660(3) 0.86672(14) -0.07154(16)
O2 O 0.9781(3) 0.95392(14) 0.19110(16)
O3 O 1.0030(3) 0.81502(13) 0.12687(14)
O4 O 0.6980(3) 1.01645(13) -0.03842(17)
O5 O 0.9882(2) 0.58285(12) 0.08196(14)
C1 C 0.5490(6) 0.9675(2) -0.1892(3)
H1 H 0.4266 0.9498 -0.1860
H2 H 0.6008 0.9289 -0.2360
H3 H 0.5540 1.0312 -0.2092
C2 C 0.6475(4) 0.95622(19) -0.0936(2)
C3 C 0.7358(4) 0.8442(2) 0.0293(2)
H4 H 0.6985 0.8930 0.0725
C4 C 0.9327(4) 0.8481(2) 0.0307(2)
H5 H 0.9700 0.9125 0.0225
C5 C 1.0044(4) 0.78900(19) -0.0457(2)
C6 C 0.9967(3) 0.69455(17) -0.03725(19)
C7 C 1.0769(4) 0.63967(19) -0.1011(2)
H6 H 1.0752 0.5755 -0.0941
C8 C 1.1589(4) 0.6785(2) -0.1746(2)
H7 H 1.2101 0.6409 -0.2194
C9 C 1.1287(5) 0.8351(2) 0.2847(2)
H8 H 1.1374 0.8787 0.3380
H9 H 1.2465 0.8187 0.2696
H10 H 1.0675 0.7804 0.3034
C10 C 1.0293(4) 0.87680(19) 0.1984(2)
C11 C 0.6522(4) 0.75645(18) 0.05554(19)
C12 C 0.7297(3) 0.66972(18) 0.06093(18)
C13 C 0.9126(3) 0.64678(17) 0.04067(19)
C14 C 1.0917(4) 0.8269(2) -0.1186(2)
H11 H 1.0997 0.8911 -0.1240
C15 C 1.1666(4) 0.7719(2) -0.1832(2)
H12 H 1.2235 0.7984 -0.2336
C16 C 0.6300(4) 0.59574(19) 0.0866(2)
H13 H 0.6818 0.5371 0.0909
C17 C 0.4580(4) 0.6058(2) 0.1059(3)
H14 H 0.3923 0.5546 0.1229
C18 C 0.3826(4) 0.6914(2) 0.1000(2)
H15 H 0.2643 0.6992 0.1127
C19 C 0.4793(4) 0.7653(2) 0.0758(2)
H16 H 0.4266 0.8238 0.0728
loop_
_geom_bond_atom_site_label_1
_geom_bond_atom_site_label_2
_geom_bond_site_symmetry_1
_geom_bond_site_symmetry_2
O1 C2 1_555 1_555
O2 C10 1_555 1_555
O3 C4 1_555 1_555
O4 C2 1_555 1_555
O5 C13 1_555 1_555
C1 H1 1_555 1_555
H2 C1 1_555 1_555
H3 C1 1_555 1_555
C2 C1 1_555 1_555
C3 O1 1_555 1_555
H4 C3 1_555 1_555
C4 C3 1_555 1_555
H5 C4 1_555 1_555
C5 C4 1_555 1_555
C6 C5 1_555 1_555
C7 C6 1_555 1_555
H6 C7 1_555 1_555
C8 C7 1_555 1_555
H7 C8 1_555 1_555
C9 H8 1_555 1_555
H9 C9 1_555 1_555
H10 C9 1_555 1_555
C10 O3 1_555 1_555
C11 C3 1_555 1_555
C12 C11 1_555 1_555
C13 C6 1_555 1_555
C14 C5 1_555 1_555
H11 C14 1_555 1_555
C15 C8 1_555 1_555
H12 C15 1_555 1_555
C16 C12 1_555 1_555
H13 C16 1_555 1_555
C17 C16 1_555 1_555
H14 C17 1_555 1_555
C18 C17 1_555 1_555
H15 C18 1_555 1_555
C19 C11 1_555 1_555
H16 C19 1_555 1_555
C9 C10 1_555 1_555
C12 C13 1_555 1_555
C14 C15 1_555 1_555
C18 C19 1_555 1_555

#END
