
#######################################################################
#
#                 Cambridge Crystallographic Data Centre
#                                CCDC 
#
#######################################################################
#
# If this CIF has been generated from an entry in the Cambridge 
# Structural Database, then it will include bibliographic, chemical, 
# crystal, experimental, refinement or atomic coordinate data resulting 
# from the CCDC's data processing and validation procedures.
#
#######################################################################

data_PUDYEU
_chemical_formula_moiety         'C17 H17 N1 O2,K1 1+,H1 O1 1-'
_chemical_name_systematic        
'potassium 1-hydroxy-16,16-dimethyl-16-azoniatetracyclo[7.6.1.0^2,7^.0^10,15^]hexadeca-2,4,6,10,12,14-hexaen-8-olate hydroxide'
_symmetry_cell_setting           monoclinic
_symmetry_space_group_name_H-M   'C c'
_symmetry_Int_Tables_number      9
_space_group_name_Hall           'C -2yc'
loop_
_symmetry_equiv_pos_site_id
_symmetry_equiv_pos_as_xyz
1 x,y,z
2 x,-y,1/2+z
3 1/2+x,1/2+y,z
4 1/2+x,1/2-y,1/2+z
_cell_length_a                   13.9572(9)
_cell_length_b                   14.6701(8)
_cell_length_c                   9.2782(5)
_cell_angle_alpha                90
_cell_angle_beta                 124.608(3)
_cell_angle_gamma                90
_cell_volume                     1563.6
_exptl_crystal_colour            yellow
_exptl_crystal_description       Columnar
_cell_formula_units_Z            4
loop_
_atom_site_label
_atom_site_type_symbol
_atom_site_fract_x
_atom_site_fract_y
_atom_site_fract_z
C1 C 0.4106(4) 0.9254(3) 0.0144(7)
H1 H 0.3315 0.9101 -0.0150
C2 C 0.4417(4) 0.8584(3) -0.0779(7)
C3 C 0.3765(4) 0.8575(4) -0.2609(7)
H2 H 0.3150 0.9001 -0.3259
C4 C 0.4003(4) 0.7952(4) -0.3482(7)
H3 H 0.3546 0.7954 -0.4726
C5 C 0.4895(5) 0.7328(3) -0.2577(7)
H4 H 0.5055 0.6905 -0.3189
C6 C 0.5561(4) 0.7326(3) -0.0740(7)
H5 H 0.6179 0.6902 -0.0101
C7 C 0.5318(4) 0.7940(3) 0.0141(7)
C8 C 0.6096(4) 0.7996(3) 0.2130(6)
C9 C 0.6815(4) 0.8873(3) 0.2671(6)
C10 C 0.7911(4) 0.8990(4) 0.3099(7)
H6 H 0.8335 0.8494 0.3067
C11 C 0.8403(5) 0.9869(4) 0.3594(7)
H7 H 0.9163 0.9975 0.3873
C12 C 0.7785(5) 1.0570(4) 0.3671(7)
H8 H 0.8136 1.1154 0.4044
C13 C 0.6649(5) 1.0449(3) 0.3215(7)
H9 H 0.6225 1.0940 0.3262
C14 C 0.6168(4) 0.9589(3) 0.2694(6)
C15 C 0.4988(5) 0.9236(3) 0.2153(7)
H10 H 0.4688 0.9567 0.2762
C16 C 0.5966(5) 0.8219(4) 0.4728(7)
H11 H 0.6688 0.8568 0.5239
H12 H 0.6153 0.7585 0.5124
H13 H 0.5496 0.8484 0.5101
C17 C 0.4246(4) 0.7643(4) 0.2060(7)
H14 H 0.3741 0.7895 0.2382
H15 H 0.4503 0.7032 0.2563
H16 H 0.3812 0.7606 0.0782
N1 N 0.5290(3) 0.8250(3) 0.2757(5)
O1 O 0.4105(3) 1.0172(2) -0.0360(5)
O2 O 0.6773(3) 0.7252(2) 0.2993(4)
H17 H 0.6346 0.6793 0.2745
K1 K 0.67485(11) 0.58571(9) -0.33890(16)
O3 O 0.0743(3) 1.0708(3) -0.7366(5)
H18? H 0.3416 1.0359 -0.1014
H19? H 0.1086 1.0608 -0.6137
H20? H 0.1196 1.0226 -0.7339
loop_
_geom_bond_atom_site_label_1
_geom_bond_atom_site_label_2
_geom_bond_site_symmetry_1
_geom_bond_site_symmetry_2
C1 H1 1_555 1_555
C2 C1 1_555 1_555
C3 C2 1_555 1_555
H2 C3 1_555 1_555
C4 C3 1_555 1_555
H3 C4 1_555 1_555
C5 C4 1_555 1_555
H4 C5 1_555 1_555
C6 C5 1_555 1_555
H5 C6 1_555 1_555
C7 C2 1_555 1_555
C8 C7 1_555 1_555
C9 C8 1_555 1_555
C10 C9 1_555 1_555
H6 C10 1_555 1_555
C11 C10 1_555 1_555
H7 C11 1_555 1_555
C12 C11 1_555 1_555
H8 C12 1_555 1_555
C13 C12 1_555 1_555
H9 C13 1_555 1_555
C14 C9 1_555 1_555
C15 C1 1_555 1_555
H10 C15 1_555 1_555
C16 H11 1_555 1_555
H12 C16 1_555 1_555
H13 C16 1_555 1_555
C17 H14 1_555 1_555
H15 C17 1_555 1_555
H16 C17 1_555 1_555
N1 C8 1_555 1_555
O1 C1 1_555 1_555
O2 C8 1_555 1_555
H17 O2 1_555 1_555
C6 C7 1_555 1_555
C13 C14 1_555 1_555
C14 C15 1_555 1_555
C15 N1 1_555 1_555
C16 N1 1_555 1_555
C17 N1 1_555 1_555

#END
