
#######################################################################
#
#                 Cambridge Crystallographic Data Centre
#                                CCDC 
#
#######################################################################
#
# If this CIF has been generated from an entry in the Cambridge 
# Structural Database, then it will include bibliographic, chemical, 
# crystal, experimental, refinement or atomic coordinate data resulting 
# from the CCDC's data processing and validation procedures.
#
#######################################################################

data_PUDYOE
_chemical_formula_moiety         'C15 H10 Br2 O1'
_chemical_name_systematic        
10,11-dibromo-10,11-dihydro-5H-dibenzo[a,d][7]annulen-5-one
_symmetry_cell_setting           orthorhombic
_symmetry_space_group_name_H-M   'P c a 21'
_symmetry_Int_Tables_number      29
_space_group_name_Hall           'P 2c -2ac'
loop_
_symmetry_equiv_pos_site_id
_symmetry_equiv_pos_as_xyz
1 x,y,z
2 -x,-y,1/2+z
3 1/2-x,y,1/2+z
4 1/2+x,-y,z
_cell_length_a                   14.978(3)
_cell_length_b                   6.9150(13)
_cell_length_c                   12.426(2)
_cell_angle_alpha                90
_cell_angle_beta                 90
_cell_angle_gamma                90
_cell_volume                     1287
_exptl_crystal_colour            colorless
_cell_formula_units_Z            4
loop_
_atom_site_label
_atom_site_type_symbol
_atom_site_fract_x
_atom_site_fract_y
_atom_site_fract_z
Br1 Br 0.42966(6) 0.67344(14) 0.40959(10)
Br2 Br 0.52334(8) 1.22209(14) 0.59365(10)
O1 O 0.5805(4) 0.7823(10) 0.8040(6)
C1 C 0.2618(6) 0.8364(15) 0.7268(11)
H1 H 0.1989 0.8505 0.7323
C2 C 0.3076(7) 0.9105(17) 0.6389(11)
H2 H 0.2756 0.9777 0.5845
C3 C 0.4004(7) 0.8882(17) 0.6289(10)
C4 C 0.4441(9) 0.992(2) 0.5363(13)
H3 H 0.3967 1.0446 0.4878
C5 C 0.5093(9) 0.902(3) 0.4739(11)
H4 H 0.5259 0.9908 0.4138
C6 C 0.5935(7) 0.8074(15) 0.5155(9)
C7 C 0.6613(7) 0.7766(16) 0.4390(10)
H5 H 0.6536 0.8235 0.3677
C8 C 0.7380(7) 0.6804(15) 0.4652(10)
H6 H 0.7839 0.6656 0.4131
C9 C 0.3089(7) 0.7427(15) 0.8053(10)
H7 H 0.2787 0.6918 0.8663
C10 C 0.4469(6) 0.7945(14) 0.7082(10)
C11 C 0.4002(6) 0.7221(14) 0.7962(9)
H8 H 0.4321 0.6567 0.8514
C12 C 0.5476(6) 0.7773(13) 0.7135(8)
C13 C 0.6066(6) 0.7428(12) 0.6198(7)
C14 C 0.7488(7) 0.6053(15) 0.5664(10)
H9 H 0.7999 0.5293 0.5829
C15 C 0.6852(7) 0.6407(16) 0.6442(9)
H10 H 0.6946 0.5954 0.7154
loop_
_geom_bond_atom_site_label_1
_geom_bond_atom_site_label_2
_geom_bond_site_symmetry_1
_geom_bond_site_symmetry_2
Br1 C5 1_555 1_555
Br2 C4 1_555 1_555
O1 C12 1_555 1_555
C1 H1 1_555 1_555
C2 C1 1_555 1_555
H2 C2 1_555 1_555
C3 C2 1_555 1_555
C4 C3 1_555 1_555
H3 C4 1_555 1_555
C5 C4 1_555 1_555
H4 C5 1_555 1_555
C6 C5 1_555 1_555
C7 C6 1_555 1_555
H5 C7 1_555 1_555
C8 C7 1_555 1_555
H6 C8 1_555 1_555
C9 C1 1_555 1_555
H7 C9 1_555 1_555
C10 C3 1_555 1_555
C11 C9 1_555 1_555
H8 C11 1_555 1_555
C12 C10 1_555 1_555
C13 C6 1_555 1_555
C14 C8 1_555 1_555
H9 C14 1_555 1_555
C15 C13 1_555 1_555
H10 C15 1_555 1_555
C10 C11 1_555 1_555
C12 C13 1_555 1_555
C14 C15 1_555 1_555

#END
