
#######################################################################
#
#                 Cambridge Crystallographic Data Centre
#                                CCDC 
#
#######################################################################
#
# If this CIF has been generated from an entry in the Cambridge 
# Structural Database, then it will include bibliographic, chemical, 
# crystal, experimental, refinement or atomic coordinate data resulting 
# from the CCDC's data processing and validation procedures.
#
#######################################################################

data_PUDZAR
_chemical_formula_moiety         'C20 H17 N1 O4'
_chemical_name_systematic        
'methyl 3-benzoyl-2-(cyanomethyl)-4-oxo-4-phenylbutanoate'
_symmetry_cell_setting           monoclinic
_symmetry_space_group_name_H-M   'C c'
_symmetry_Int_Tables_number      9
_space_group_name_Hall           'C -2yc'
loop_
_symmetry_equiv_pos_site_id
_symmetry_equiv_pos_as_xyz
1 x,y,z
2 x,-y,1/2+z
3 1/2+x,1/2+y,z
4 1/2+x,1/2-y,1/2+z
_cell_length_a                   7.986(5)
_cell_length_b                   19.283(13)
_cell_length_c                   10.936(9)
_cell_angle_alpha                90
_cell_angle_beta                 96.99(3)
_cell_angle_gamma                90
_cell_volume                     1671.56
_exptl_crystal_colour            colorless
_exptl_crystal_description       block
_cell_formula_units_Z            4
loop_
_atom_site_label
_atom_site_type_symbol
_atom_site_fract_x
_atom_site_fract_y
_atom_site_fract_z
C1 C 0.69832(19) 0.64301(8) 1.01307(15)
H1 H 0.7223 0.6907 1.0019
C2 C 0.5837(2) 0.62373(9) 1.09213(16)
H2 H 0.5285 0.6582 1.1347
C3 C 0.5493(2) 0.55414(9) 1.10931(17)
H3 H 0.4725 0.5410 1.1650
C4 C 0.6269(2) 0.50338(9) 1.04512(16)
H4 H 0.6029 0.4557 1.0566
C5 C 0.73954(19) 0.52278(8) 0.96434(14)
H5 H 0.7902 0.4883 0.9187
C6 C 0.77894(18) 0.59243(7) 0.94955(13)
C7 C 0.91085(17) 0.61590(7) 0.87307(12)
C8 C 0.99970(18) 0.56246(7) 0.79985(13)
H6 H 0.9128 0.5374 0.7427
C9 C 1.09549(17) 0.50948(7) 0.88651(13)
C10 C 1.13505(17) 0.43941(7) 0.83912(13)
C11 C 1.26388(19) 0.40186(7) 0.90769(14)
H7 H 1.3229 0.4217 0.9800
C12 C 1.3060(2) 0.33604(8) 0.87099(15)
H8 H 1.3948 0.3110 0.9172
C13 C 1.2179(2) 0.30681(8) 0.76642(15)
H9 H 1.2457 0.2615 0.7416
C14 C 1.0899(2) 0.34320(8) 0.69820(15)
H10 H 1.0297 0.3227 0.6270
C15 C 1.0491(2) 0.40997(7) 0.73374(14)
H11 H 0.9625 0.4353 0.6859
C16 C 1.12795(18) 0.59708(7) 0.72270(13)
H12 H 1.1701 0.5600 0.6703
C17 C 1.2829(2) 0.62780(8) 0.80200(15)
H13 H 1.2491 0.6705 0.8430
H14 H 1.3248 0.5941 0.8669
C18 C 1.4191(2) 0.64436(8) 0.72828(15)
C19 C 1.04626(18) 0.65262(7) 0.63581(13)
C20 C 0.8253(2) 0.67672(10) 0.47923(17)
H15 H 0.9058 0.6907 0.4230
H16 H 0.7873 0.7178 0.5209
H17 H 0.7280 0.6540 0.4324
N1 N 1.5267(2) 0.65549(8) 0.67171(15)
O1 O 0.94945(15) 0.67680(5) 0.86887(11)
O2 O 1.14669(14) 0.52689(5) 0.99160(9)
O3 O 1.10487(17) 0.70936(6) 0.62467(12)
O4 O 0.90618(14) 0.62895(5) 0.56994(10)
loop_
_geom_bond_atom_site_label_1
_geom_bond_atom_site_label_2
_geom_bond_site_symmetry_1
_geom_bond_site_symmetry_2
C1 H1 1_555 1_555
C2 C1 1_555 1_555
H2 C2 1_555 1_555
C3 C2 1_555 1_555
H3 C3 1_555 1_555
C4 C3 1_555 1_555
H4 C4 1_555 1_555
C5 C4 1_555 1_555
H5 C5 1_555 1_555
C6 C1 1_555 1_555
C7 C6 1_555 1_555
C8 C7 1_555 1_555
H6 C8 1_555 1_555
C9 C8 1_555 1_555
C10 C9 1_555 1_555
C11 C10 1_555 1_555
H7 C11 1_555 1_555
C12 C11 1_555 1_555
H8 C12 1_555 1_555
C13 C12 1_555 1_555
H9 C13 1_555 1_555
C14 C13 1_555 1_555
H10 C14 1_555 1_555
C15 C10 1_555 1_555
H11 C15 1_555 1_555
C16 C8 1_555 1_555
H12 C16 1_555 1_555
C17 C16 1_555 1_555
H13 C17 1_555 1_555
H14 C17 1_555 1_555
C18 C17 1_555 1_555
C19 C16 1_555 1_555
C20 H15 1_555 1_555
H16 C20 1_555 1_555
H17 C20 1_555 1_555
N1 C18 1_555 1_555
O1 C7 1_555 1_555
O2 C9 1_555 1_555
O3 C19 1_555 1_555
O4 C19 1_555 1_555
C5 C6 1_555 1_555
C14 C15 1_555 1_555
C20 O4 1_555 1_555

#END
