
#######################################################################
#
#                 Cambridge Crystallographic Data Centre
#                                CCDC 
#
#######################################################################
#
# If this CIF has been generated from an entry in the Cambridge 
# Structural Database, then it will include bibliographic, chemical, 
# crystal, experimental, refinement or atomic coordinate data resulting 
# from the CCDC's data processing and validation procedures.
#
#######################################################################

data_PUFCAW
_chemical_formula_moiety         'C25 H24 O3 S1'
_chemical_name_systematic        
9-butoxy-10-((4-methylphenyl)sulfonyl)phenanthrene
_symmetry_cell_setting           monoclinic
_symmetry_space_group_name_H-M   'P 21/c'
_symmetry_Int_Tables_number      14
_space_group_name_Hall           '-P 2ybc'
loop_
_symmetry_equiv_pos_site_id
_symmetry_equiv_pos_as_xyz
1 x,y,z
2 -x,1/2+y,1/2-z
3 -x,-y,-z
4 x,1/2-y,1/2+z
_cell_length_a                   10.7748(5)
_cell_length_b                   7.8902(4)
_cell_length_c                   24.3522(11)
_cell_angle_alpha                90
_cell_angle_beta                 101.1230(10)
_cell_angle_gamma                90
_cell_volume                     2031.42
_exptl_crystal_colour            colorless
_cell_formula_units_Z            4
loop_
_atom_site_label
_atom_site_type_symbol
_atom_site_fract_x
_atom_site_fract_y
_atom_site_fract_z
C1 C 0.30069(14) 0.2613(2) 0.60880(6)
C2 C 0.26020(15) 0.1142(2) 0.63697(6)
C3 C 0.32678(16) -0.0417(2) 0.64307(7)
H1 H 0.4002 -0.0538 0.6272
C4 C 0.28735(16) -0.1756(2) 0.67142(7)
H2 H 0.3336 -0.2788 0.6750
C5 C 0.17961(17) -0.1606(2) 0.69498(7)
H3 H 0.1547 -0.2516 0.7160
C6 C 0.10974(16) -0.0142(2) 0.68766(7)
H4 H 0.0350 -0.0069 0.7028
C7 C 0.14578(15) 0.1261(2) 0.65821(6)
C8 C 0.06958(15) 0.2789(2) 0.64903(7)
C9 C -0.04151(16) 0.3019(2) 0.67102(7)
H5 H -0.0681 0.2143 0.6929
C10 C -0.11189(16) 0.4479(2) 0.66154(7)
H6 H -0.1860 0.4601 0.6769
C11 C -0.07482(16) 0.5792(2) 0.62926(7)
H7 H -0.1239 0.6799 0.6227
C12 C 0.03255(15) 0.5617(2) 0.60724(7)
H8 H 0.0576 0.6505 0.5854
C13 C 0.10615(15) 0.4123(2) 0.61687(6)
C14 C 0.22347(15) 0.3991(2) 0.59682(6)
C15 C 0.51898(14) 0.4673(2) 0.62730(7)
C16 C 0.54502(15) 0.4688(2) 0.68562(7)
H9 H 0.5235 0.3746 0.7062
C17 C 0.60292(15) 0.6105(2) 0.71316(7)
H10 H 0.6195 0.6135 0.7529
C18 C 0.63727(15) 0.7487(2) 0.68351(7)
C19 C 0.61020(15) 0.7433(2) 0.62518(7)
H11 H 0.6330 0.8366 0.6045
C20 C 0.55040(15) 0.6038(2) 0.59670(7)
H12 H 0.5314 0.6021 0.5569
C21 C 0.70437(18) 0.8999(2) 0.71414(8)
H13 H 0.7959 0.8805 0.7213
H14 H 0.6764 0.9151 0.7498
H15 H 0.6842 1.0018 0.6912
C22 C 0.20886(16) 0.5339(2) 0.50878(7)
H16 H 0.1164 0.5144 0.5018
H17 H 0.2485 0.4412 0.4908
C23 C 0.23720(17) 0.7026(2) 0.48470(7)
H18 H 0.2283 0.6902 0.4437
H19 H 0.3264 0.7323 0.5000
C24 C 0.15352(17) 0.8484(2) 0.49636(8)
H20 H 0.1663 0.8672 0.5373
H21 H 0.0637 0.8175 0.4829
C25 C 0.1820(2) 1.0125(2) 0.46791(9)
H22 H 0.2704 1.0447 0.4816
H23 H 0.1264 1.1027 0.4766
H24 H 0.1676 0.9952 0.4273
O1 O 0.53403(11) 0.14397(15) 0.61892(5)
O2 O 0.44439(11) 0.30261(16) 0.53317(5)
O3 O 0.25962(10) 0.53615(14) 0.56899(4)
S1 S 0.45575(4) 0.28047(5) 0.59251(2)
loop_
_geom_bond_atom_site_label_1
_geom_bond_atom_site_label_2
_geom_bond_site_symmetry_1
_geom_bond_site_symmetry_2
C1 C2 1_555 1_555
C2 C3 1_555 1_555
C3 H1 1_555 1_555
C4 C3 1_555 1_555
H2 C4 1_555 1_555
C5 C4 1_555 1_555
H3 C5 1_555 1_555
C6 C5 1_555 1_555
H4 C6 1_555 1_555
C7 C2 1_555 1_555
C8 C7 1_555 1_555
C9 C8 1_555 1_555
H5 C9 1_555 1_555
C10 C9 1_555 1_555
H6 C10 1_555 1_555
C11 C10 1_555 1_555
H7 C11 1_555 1_555
C12 C11 1_555 1_555
H8 C12 1_555 1_555
C13 C8 1_555 1_555
C14 C1 1_555 1_555
C15 C16 1_555 1_555
C16 H9 1_555 1_555
C17 C16 1_555 1_555
H10 C17 1_555 1_555
C18 C17 1_555 1_555
C19 C18 1_555 1_555
H11 C19 1_555 1_555
C20 C15 1_555 1_555
H12 C20 1_555 1_555
C21 C18 1_555 1_555
H13 C21 1_555 1_555
H14 C21 1_555 1_555
H15 C21 1_555 1_555
C22 H16 1_555 1_555
H17 C22 1_555 1_555
C23 C22 1_555 1_555
H18 C23 1_555 1_555
H19 C23 1_555 1_555
C24 C23 1_555 1_555
H20 C24 1_555 1_555
H21 C24 1_555 1_555
C25 C24 1_555 1_555
H22 C25 1_555 1_555
H23 C25 1_555 1_555
H24 C25 1_555 1_555
O1 S1 1_555 1_555
O2 S1 1_555 1_555
O3 C14 1_555 1_555
S1 C1 1_555 1_555
C6 C7 1_555 1_555
C12 C13 1_555 1_555
C13 C14 1_555 1_555
C15 S1 1_555 1_555
C19 C20 1_555 1_555
C22 O3 1_555 1_555

#END
