
#######################################################################
#
#                 Cambridge Crystallographic Data Centre
#                                CCDC 
#
#######################################################################
#
# If this CIF has been generated from an entry in the Cambridge 
# Structural Database, then it will include bibliographic, chemical, 
# crystal, experimental, refinement or atomic coordinate data resulting 
# from the CCDC's data processing and validation procedures.
#
#######################################################################

data_PUFDEB
_chemical_formula_moiety         'C30 H24 P1 1+,C24 H20 B1 1-,C1 H2 Cl2'
_chemical_name_systematic        
'biphenyl-3-yl(triphenyl)phosphonium tetraphenylborate dichloromethane unknown solvate'
_symmetry_cell_setting           triclinic
_symmetry_space_group_name_H-M   'P -1'
_symmetry_Int_Tables_number      2
_space_group_name_Hall           '-P 1'
loop_
_symmetry_equiv_pos_site_id
_symmetry_equiv_pos_as_xyz
1 x,y,z
2 -x,-y,-z
_cell_length_a                   11.118(3)
_cell_length_b                   11.299(3)
_cell_length_c                   19.734(5)
_cell_angle_alpha                94.623(5)
_cell_angle_beta                 91.655(5)
_cell_angle_gamma                109.426(5)
_cell_volume                     2326.2
_exptl_crystal_colour            colorless
_exptl_crystal_description       block
_cell_formula_units_Z            2
loop_
_atom_site_label
_atom_site_type_symbol
_atom_site_fract_x
_atom_site_fract_y
_atom_site_fract_z
P1 P 0.21532(13) 0.41074(12) 0.24447(6)
C1 C 0.3943(5) 0.3549(5) 0.3212(3)
H1 H 0.3948 0.4246 0.3498
C2 C 0.3190(5) 0.3218(5) 0.2600(3)
C3 C 0.3209(5) 0.2219(5) 0.2156(3)
H2 H 0.2724 0.2014 0.1745
C4 C 0.3978(6) 0.1525(5) 0.2341(3)
H3 H 0.4003 0.0850 0.2046
C5 C 0.4682(6) 0.1810(5) 0.2935(3)
H4 H 0.5172 0.1320 0.3044
C6 C 0.4692(5) 0.2823(5) 0.3389(3)
C7 C 0.5456(5) 0.3147(6) 0.4057(3)
C8 C 0.5456(6) 0.2215(7) 0.4468(3)
H5 H 0.4972 0.1382 0.4327
C9 C 0.6161(8) 0.2492(9) 0.5086(4)
H6 H 0.6161 0.1852 0.5355
C10 C 0.6852(9) 0.3711(10) 0.5294(4)
H7 H 0.7329 0.3907 0.5708
C11 C 0.6854(9) 0.4669(8) 0.4896(4)
H8 H 0.7327 0.5503 0.5041
C12 C 0.6149(7) 0.4370(6) 0.4286(3)
H9 H 0.6140 0.5013 0.4021
C13 C 0.0888(5) 0.3722(5) 0.3016(2)
C14 C 0.0946(6) 0.3057(5) 0.3580(3)
H10 H 0.1635 0.2780 0.3655
C15 C -0.0016(6) 0.2819(6) 0.4021(3)
H11 H 0.0016 0.2371 0.4392
C16 C -0.1042(6) 0.3243(6) 0.3918(3)
H12 H -0.1685 0.3096 0.4224
C17 C -0.1092(6) 0.3881(6) 0.3360(3)
H13 H -0.1786 0.4147 0.3282
C18 C -0.0134(5) 0.4129(5) 0.2918(3)
H14 H -0.0174 0.4577 0.2548
C19 C 0.1451(5) 0.3722(5) 0.1598(3)
C20 C 0.1839(6) 0.4549(6) 0.1091(3)
H15 H 0.2469 0.5332 0.1195
C21 C 0.1297(7) 0.4209(6) 0.0450(3)
H16 H 0.1556 0.4761 0.0116
C22 C 0.0355(7) 0.3037(6) 0.0286(3)
H17 H 0.0005 0.2807 -0.0158
C23 C -0.0058(6) 0.2223(5) 0.0771(3)
H18 H -0.0692 0.1447 0.0658
C24 C 0.0478(5) 0.2562(5) 0.1446(3)
H19 H 0.0188 0.2023 0.1783
C25 C 0.3087(5) 0.5736(5) 0.2585(3)
C26 C 0.4284(5) 0.6157(5) 0.2302(3)
H20 H 0.4582 0.5581 0.2060
C27 C 0.5019(6) 0.7409(5) 0.2380(3)
H21 H 0.5814 0.7684 0.2196
C28 C 0.4552(6) 0.8262(5) 0.2739(3)
H22 H 0.5039 0.9114 0.2787
C29 C 0.3398(6) 0.7872(5) 0.3021(3)
H23 H 0.3107 0.8454 0.3263
C30 C 0.2660(5) 0.6609(5) 0.2948(3)
H24 H 0.1873 0.6343 0.3142
C31 C 0.8538(6) 0.8915(5) 0.1908(3)
C32 C 0.7752(6) 0.8616(6) 0.1293(3)
H25 H 0.7787 0.7961 0.0985
C33 C 0.6938(7) 0.9265(7) 0.1135(4)
H26 H 0.6445 0.9047 0.0727
C34 C 0.6856(7) 1.0227(7) 0.1579(4)
H27 H 0.6314 1.0668 0.1472
C35 C 0.7573(7) 1.0531(6) 0.2178(4)
H28 H 0.7509 1.1173 0.2485
C36 C 0.8409(6) 0.9884(5) 0.2335(3)
H29 H 0.8896 1.0119 0.2746
C37 C 1.0147(6) 0.8428(6) 0.2817(3)
C38 C 0.9943(6) 0.7546(6) 0.3306(3)
H30 H 0.9406 0.6725 0.3179
C39 C 1.0490(7) 0.7829(7) 0.3952(3)
H31 H 1.0322 0.7206 0.4251
C40 C 1.1284(7) 0.9025(7) 0.4164(3)
H32 H 1.1645 0.9222 0.4607
C41 C 1.1545(7) 0.9944(7) 0.3706(3)
H33 H 1.2086 1.0760 0.3841
C42 C 1.0989(6) 0.9630(6) 0.3049(3)
H34 H 1.1186 1.0249 0.2747
C43 C 1.0713(6) 0.8575(5) 0.1528(3)
C44 C 1.1698(6) 0.8077(6) 0.1546(3)
H35 H 1.1670 0.7482 0.1851
C45 C 1.2712(6) 0.8418(7) 0.1137(3)
H36 H 1.3348 0.8057 0.1166
C46 C 1.2781(6) 0.9306(6) 0.0678(3)
H37 H 1.3450 0.9527 0.0389
C47 C 1.1862(6) 0.9844(6) 0.0658(3)
H38 H 1.1913 1.0465 0.0368
C48 C 1.0853(6) 0.9468(5) 0.1069(3)
H39 H 1.0223 0.9838 0.1037
C49 C 0.8704(5) 0.6615(5) 0.1881(3)
C50 C 0.7590(6) 0.6070(6) 0.2233(3)
H40 H 0.7332 0.6586 0.2544
C51 C 0.6866(7) 0.4798(7) 0.2131(4)
H41 H 0.6132 0.4495 0.2369
C52 C 0.7191(7) 0.4003(6) 0.1705(4)
H42 H 0.6717 0.3147 0.1660
C53 C 0.8263(7) 0.4476(6) 0.1322(4)
H43 H 0.8486 0.3939 0.1007
C54 C 0.9006(6) 0.5772(5) 0.1418(3)
H44 H 0.9717 0.6071 0.1163
B1 B 0.9513(7) 0.8125(6) 0.2032(3)
C55 C 0.7719(10) 0.8829(8) 0.3948(4)
H45 H 0.7456 0.8375 0.3501
H46 H 0.8641 0.9219 0.3973
Cl1 Cl 0.6999(2) 1.00226(19) 0.40645(10)
Cl2 Cl 0.7287(3) 0.7792(2) 0.45578(16)
loop_
_geom_bond_atom_site_label_1
_geom_bond_atom_site_label_2
_geom_bond_site_symmetry_1
_geom_bond_site_symmetry_2
P1 C2 1_555 1_555
C1 H1 1_555 1_555
C2 C1 1_555 1_555
C3 C2 1_555 1_555
H2 C3 1_555 1_555
C4 C3 1_555 1_555
H3 C4 1_555 1_555
C5 C4 1_555 1_555
H4 C5 1_555 1_555
C6 C1 1_555 1_555
C7 C6 1_555 1_555
C8 C7 1_555 1_555
H5 C8 1_555 1_555
C9 C8 1_555 1_555
H6 C9 1_555 1_555
C10 C9 1_555 1_555
H7 C10 1_555 1_555
C11 C10 1_555 1_555
H8 C11 1_555 1_555
C12 C7 1_555 1_555
H9 C12 1_555 1_555
C13 P1 1_555 1_555
C14 C13 1_555 1_555
H10 C14 1_555 1_555
C15 C14 1_555 1_555
H11 C15 1_555 1_555
C16 C15 1_555 1_555
H12 C16 1_555 1_555
C17 C16 1_555 1_555
H13 C17 1_555 1_555
C18 C13 1_555 1_555
H14 C18 1_555 1_555
C19 P1 1_555 1_555
C20 C19 1_555 1_555
H15 C20 1_555 1_555
C21 C20 1_555 1_555
H16 C21 1_555 1_555
C22 C21 1_555 1_555
H17 C22 1_555 1_555
C23 C22 1_555 1_555
H18 C23 1_555 1_555
C24 C19 1_555 1_555
H19 C24 1_555 1_555
C25 P1 1_555 1_555
C26 C25 1_555 1_555
H20 C26 1_555 1_555
C27 C26 1_555 1_555
H21 C27 1_555 1_555
C28 C27 1_555 1_555
H22 C28 1_555 1_555
C29 C28 1_555 1_555
H23 C29 1_555 1_555
C30 C25 1_555 1_555
H24 C30 1_555 1_555
C31 C32 1_555 1_555
C32 H25 1_555 1_555
C33 C32 1_555 1_555
H26 C33 1_555 1_555
C34 C33 1_555 1_555
H27 C34 1_555 1_555
C35 C34 1_555 1_555
H28 C35 1_555 1_555
C36 C31 1_555 1_555
H29 C36 1_555 1_555
C37 C38 1_555 1_555
C38 H30 1_555 1_555
C39 C38 1_555 1_555
H31 C39 1_555 1_555
C40 C39 1_555 1_555
H32 C40 1_555 1_555
C41 C40 1_555 1_555
H33 C41 1_555 1_555
C42 C37 1_555 1_555
H34 C42 1_555 1_555
C43 C44 1_555 1_555
C44 H35 1_555 1_555
C45 C44 1_555 1_555
H36 C45 1_555 1_555
C46 C45 1_555 1_555
H37 C46 1_555 1_555
C47 C46 1_555 1_555
H38 C47 1_555 1_555
C48 C43 1_555 1_555
H39 C48 1_555 1_555
C49 C50 1_555 1_555
C50 H40 1_555 1_555
C51 C50 1_555 1_555
H41 C51 1_555 1_555
C52 C51 1_555 1_555
H42 C52 1_555 1_555
C53 C52 1_555 1_555
H43 C53 1_555 1_555
C54 C49 1_555 1_555
H44 C54 1_555 1_555
B1 C31 1_555 1_555
C55 H45 1_555 1_555
H46 C55 1_555 1_555
Cl1 C55 1_555 1_555
Cl2 C55 1_555 1_555
C5 C6 1_555 1_555
C11 C12 1_555 1_555
C17 C18 1_555 1_555
C23 C24 1_555 1_555
C29 C30 1_555 1_555
C35 C36 1_555 1_555
C37 B1 1_555 1_555
C41 C42 1_555 1_555
C43 B1 1_555 1_555
C47 C48 1_555 1_555
C49 B1 1_555 1_555
C53 C54 1_555 1_555

#END
