
#######################################################################
#
#                 Cambridge Crystallographic Data Centre
#                                CCDC 
#
#######################################################################
#
# If this CIF has been generated from an entry in the Cambridge 
# Structural Database, then it will include bibliographic, chemical, 
# crystal, experimental, refinement or atomic coordinate data resulting 
# from the CCDC's data processing and validation procedures.
#
#######################################################################

data_PUFFUS
_chemical_formula_moiety         'C10 H8 N2,2(C7 H1 F5 O2)'
_chemical_name_systematic        
"4,4'-Bipyridine bis(2,3,4,5,6-pentafluorobenzoic acid)"
_symmetry_cell_setting           monoclinic
_symmetry_space_group_name_H-M   'C 2/c'
_symmetry_Int_Tables_number      15
_space_group_name_Hall           '-C 2yn'
loop_
_symmetry_equiv_pos_site_id
_symmetry_equiv_pos_as_xyz
1 x,y,z
2 -x,y,1/2-z
3 1/2+x,1/2+y,z
4 1/2-x,1/2+y,1/2-z
5 -x,-y,-z
6 x,-y,1/2+z
7 1/2-x,1/2-y,-z
8 1/2+x,1/2-y,1/2+z
_cell_length_a                   17.910(3)
_cell_length_b                   10.7016(19)
_cell_length_c                   13.498(3)
_cell_angle_alpha                90
_cell_angle_beta                 119.631(3)
_cell_angle_gamma                90
_cell_volume                     2248.78
_exptl_crystal_colour            colorless
_exptl_crystal_description       block
_cell_formula_units_Z            4
loop_
_atom_site_label
_atom_site_type_symbol
_atom_site_fract_x
_atom_site_fract_y
_atom_site_fract_z
C1 C 0.49615(12) 0.70420(16) 0.63825(14)
H1 H 0.5208 0.6330 0.6818
C2 C 0.44977(12) 0.91468(15) 0.61897(14)
H2 H 0.4429 0.9890 0.6493
C3 C 0.42370(13) 0.90600(16) 0.50439(14)
H3 H 0.3984 0.9755 0.4584
C4 C 0.46907(12) 0.70404(16) 0.52338(15)
H4 H 0.4762 0.6316 0.4910
C5 C 0.48637(10) 0.81117(13) 0.68843(12)
N1 N 0.43312(9) 0.80276(13) 0.45658(11)
C1A C 0.50385(12) 0.70420(16) 0.86175(14)
H1A H 0.4792 0.6330 0.8182
C2A C 0.55023(12) 0.91468(15) 0.88103(14)
H2A H 0.5571 0.9890 0.8507
C3A C 0.57630(13) 0.90600(16) 0.99561(14)
H3A H 0.6016 0.9755 1.0416
C4A C 0.53093(12) 0.70404(16) 0.97662(15)
H4A H 0.5238 0.6316 1.0090
C5A C 0.51363(10) 0.81117(13) 0.81157(12)
N1A N 0.56688(9) 0.80276(13) 1.04342(11)
F1 F 0.31878(9) 0.41200(10) 0.13362(9)
F2 F 0.38044(8) 0.81354(10) 0.04501(10)
F3 F 0.24519(9) 0.35110(11) -0.08528(10)
O1 O 0.38410(9) 0.76706(11) 0.24230(10)
H5 H 0.4019 0.7781 0.3105
F4 F 0.30691(9) 0.74859(12) -0.17270(10)
F5 F 0.23514(9) 0.51811(12) -0.24105(8)
C6 C 0.35217(10) 0.61682(14) 0.09940(12)
C7 C 0.31759(11) 0.49867(15) 0.06163(13)
O2 O 0.42833(13) 0.57290(14) 0.29718(11)
C8 C 0.34739(11) 0.69832(14) 0.01702(14)
C9 C 0.27894(12) 0.46524(15) -0.05187(14)
C10 C 0.27456(11) 0.54934(17) -0.13111(13)
C11 C 0.39257(11) 0.65043(16) 0.22420(13)
C12 C 0.30987(12) 0.66596(16) -0.09672(14)
loop_
_geom_bond_atom_site_label_1
_geom_bond_atom_site_label_2
_geom_bond_site_symmetry_1
_geom_bond_site_symmetry_2
C1 H1 1_555 1_555
C2 H2 1_555 1_555
C3 C2 1_555 1_555
H3 C3 1_555 1_555
C4 C1 1_555 1_555
H4 C4 1_555 1_555
C5 C1 1_555 1_555
N1 C3 1_555 1_555
F1 C7 1_555 1_555
F2 C8 1_555 1_555
F3 C9 1_555 1_555
O1 H5 1_555 1_555
F4 C12 1_555 1_555
F5 C10 1_555 1_555
C6 C7 1_555 1_555
C7 C9 1_555 1_555
O2 C11 1_555 1_555
C8 C6 1_555 1_555
C9 C10 1_555 1_555
C10 C12 1_555 1_555
C11 O1 1_555 1_555
C12 C8 1_555 1_555
C1A H1A 1_555 1_555
C2A H2A 1_555 1_555
C3A C2A 1_555 1_555
H3A C3A 1_555 1_555
C4A C1A 1_555 1_555
H4A C4A 1_555 1_555
C5A C5 1_555 1_555
N1A C3A 1_555 1_555
C2 C5 1_555 1_555
C4 N1 1_555 1_555
C6 C11 1_555 1_555
C1A C5A 1_555 1_555
C2A C5A 1_555 1_555
C4A N1A 1_555 1_555

#END
