
#######################################################################
#
#                 Cambridge Crystallographic Data Centre
#                                CCDC 
#
#######################################################################
#
# If this CIF has been generated from an entry in the Cambridge 
# Structural Database, then it will include bibliographic, chemical, 
# crystal, experimental, refinement or atomic coordinate data resulting 
# from the CCDC's data processing and validation procedures.
#
#######################################################################

data_PUFFAY
_chemical_formula_moiety         'C24 H30 N4 O4 S2'
_chemical_name_systematic        
N,N'-bis(2-Cyanoethyl)-4,4'-dimethyl-N,N'-(butane-1,4-diyl)dibenzenesulfonamide
_symmetry_cell_setting           monoclinic
_symmetry_space_group_name_H-M   'P 21/c'
_symmetry_Int_Tables_number      14
_space_group_name_Hall           '-P 2ybc'
loop_
_symmetry_equiv_pos_site_id
_symmetry_equiv_pos_as_xyz
1 x,y,z
2 -x,1/2+y,1/2-z
3 -x,-y,-z
4 x,1/2-y,1/2+z
_cell_length_a                   16.688(13)
_cell_length_b                   5.786(5)
_cell_length_c                   13.675(11)
_cell_angle_alpha                90
_cell_angle_beta                 104.005(13)
_cell_angle_gamma                90
_cell_volume                     1281.16
_exptl_crystal_colour            colorless
_exptl_crystal_description       rod
_cell_formula_units_Z            2
loop_
_atom_site_label
_atom_site_type_symbol
_atom_site_fract_x
_atom_site_fract_y
_atom_site_fract_z
S1 S 0.24666(2) 0.32320(7) 0.53380(3)
O1 O 0.20256(7) 0.1573(2) 0.57929(10)
O2 O 0.30224(8) 0.2415(2) 0.47571(10)
N1 N 0.17969(8) 0.4914(2) 0.46127(10)
N2 N 0.09678(12) 0.0954(3) 0.26259(14)
C1 C 0.30449(9) 0.4988(3) 0.63262(12)
C2 C 0.33821(10) 0.7065(3) 0.61032(13)
H1 H 0.3275 0.7592 0.5442
C3 C 0.38797(11) 0.8344(3) 0.68757(15)
H2 H 0.4108 0.9727 0.6725
C4 C 0.40431(10) 0.7595(4) 0.78710(14)
C5 C 0.36879(11) 0.5538(4) 0.80728(13)
H3 H 0.3787 0.5020 0.8735
C6 C 0.31883(11) 0.4232(3) 0.73143(13)
H4 H 0.2952 0.2865 0.7468
C7 C 0.45863(13) 0.8996(4) 0.87086(16)
H5 H 0.4839 1.0233 0.8423
H6 H 0.5008 0.8020 0.9103
H7 H 0.4257 0.9625 0.9131
C8 C 0.03371(9) 0.4433(3) 0.47933(13)
H8 H 0.0144 0.4254 0.4069
H9 H 0.0455 0.2908 0.5087
C9 C 0.11282(9) 0.5880(3) 0.50313(12)
H10 H 0.0999 0.7425 0.4765
H11 H 0.1326 0.6008 0.5757
C10 C 0.19632(11) 0.5953(3) 0.37044(13)
H12 H 0.2493 0.5407 0.3622
H13 H 0.1997 0.7618 0.3785
C11 C 0.12903(12) 0.5356(3) 0.27550(12)
H14 H 0.0788 0.6183 0.2772
H15 H 0.1466 0.5868 0.2164
C12 C 0.11145(12) 0.2864(4) 0.26701(13)
S1B S -0.24666(2) 0.67680(7) 0.46620(3)
O1B O -0.20256(7) 0.8427(2) 0.42071(10)
O2B O -0.30224(8) 0.7585(2) 0.52429(10)
N1B N -0.17969(8) 0.5086(2) 0.53873(10)
N2B N -0.09678(12) 0.9046(3) 0.73741(14)
C1B C -0.30449(9) 0.5012(3) 0.36738(12)
C2B C -0.33821(10) 0.2935(3) 0.38968(13)
H1B H -0.3275 0.2408 0.4558
C3B C -0.38797(11) 0.1656(3) 0.31243(15)
H2B H -0.4108 0.0273 0.3275
C4B C -0.40431(10) 0.2405(4) 0.21290(14)
C5B C -0.36879(11) 0.4462(4) 0.19272(13)
H3B H -0.3787 0.4980 0.1265
C6B C -0.31883(11) 0.5768(3) 0.26857(13)
H4B H -0.2952 0.7135 0.2532
C7B C -0.45863(13) 0.1004(4) 0.12914(16)
H5B H -0.4839 -0.0233 0.1577
H6B H -0.5008 0.1980 0.0897
H7B H -0.4257 0.0375 0.0869
C8B C -0.03371(9) 0.5567(3) 0.52067(13)
H8B H -0.0144 0.5746 0.5931
H9B H -0.0455 0.7092 0.4913
C9B C -0.11282(9) 0.4120(3) 0.49687(12)
H10B H -0.0999 0.2575 0.5235
H11B H -0.1326 0.3992 0.4243
C10B C -0.19632(11) 0.4047(3) 0.62956(13)
H12B H -0.2493 0.4593 0.6378
H13B H -0.1997 0.2382 0.6215
C11B C -0.12903(12) 0.4644(3) 0.72450(12)
H14B H -0.0788 0.3817 0.7228
H15B H -0.1466 0.4132 0.7836
C12B C -0.11145(12) 0.7136(4) 0.73299(13)
loop_
_geom_bond_atom_site_label_1
_geom_bond_atom_site_label_2
_geom_bond_site_symmetry_1
_geom_bond_site_symmetry_2
S1 O1 1_555 1_555
O2 S1 1_555 1_555
N1 S1 1_555 1_555
N2 C12 1_555 1_555
C1 S1 1_555 1_555
C2 C1 1_555 1_555
H1 C2 1_555 1_555
C3 C2 1_555 1_555
H2 C3 1_555 1_555
C4 C3 1_555 1_555
C5 C4 1_555 1_555
H3 C5 1_555 1_555
C6 C1 1_555 1_555
H4 C6 1_555 1_555
C7 C4 1_555 1_555
H5 C7 1_555 1_555
H6 C7 1_555 1_555
H7 C7 1_555 1_555
C8 H8 1_555 1_555
H9 C8 1_555 1_555
C9 N1 1_555 1_555
H10 C9 1_555 1_555
H11 C9 1_555 1_555
C10 N1 1_555 1_555
H12 C10 1_555 1_555
H13 C10 1_555 1_555
C11 C10 1_555 1_555
H14 C11 1_555 1_555
H15 C11 1_555 1_555
C12 C11 1_555 1_555
S1B O1B 1_555 1_555
O2B S1B 1_555 1_555
N1B S1B 1_555 1_555
N2B C12B 1_555 1_555
C1B S1B 1_555 1_555
C2B C1B 1_555 1_555
H1B C2B 1_555 1_555
C3B C2B 1_555 1_555
H2B C3B 1_555 1_555
C4B C3B 1_555 1_555
C5B C4B 1_555 1_555
H3B C5B 1_555 1_555
C6B C1B 1_555 1_555
H4B C6B 1_555 1_555
C7B C4B 1_555 1_555
H5B C7B 1_555 1_555
H6B C7B 1_555 1_555
H7B C7B 1_555 1_555
C8B C8 1_555 1_555
H8B C8B 1_555 1_555
H9B C8B 1_555 1_555
C9B N1B 1_555 1_555
H10B C9B 1_555 1_555
H11B C9B 1_555 1_555
C10B N1B 1_555 1_555
H12B C10B 1_555 1_555
H13B C10B 1_555 1_555
C11B C10B 1_555 1_555
H14B C11B 1_555 1_555
H15B C11B 1_555 1_555
C12B C11B 1_555 1_555
C5 C6 1_555 1_555
C8 C9 1_555 1_555
C5B C6B 1_555 1_555
C8B C9B 1_555 1_555

#END
