
#######################################################################
#
#                 Cambridge Crystallographic Data Centre
#                                CCDC 
#
#######################################################################
#
# If this CIF has been generated from an entry in the Cambridge 
# Structural Database, then it will include bibliographic, chemical, 
# crystal, experimental, refinement or atomic coordinate data resulting 
# from the CCDC's data processing and validation procedures.
#
#######################################################################

data_PUFGEC
_chemical_formula_moiety         'C48 H66 Cl2 Mg2 N8 O2 P4'
_chemical_name_systematic        
bis((\m~2~-Triphenylphosphoraneimine-N,N)-chloro-(hexamethylphosphoramide-O)-magnesium)
_symmetry_cell_setting           triclinic
_symmetry_space_group_name_H-M   'P -1'
_symmetry_Int_Tables_number      2
_space_group_name_Hall           '-P 1'
loop_
_symmetry_equiv_pos_site_id
_symmetry_equiv_pos_as_xyz
1 x,y,z
2 -x,-y,-z
_cell_length_a                   10.249(1)
_cell_length_b                   11.313(1)
_cell_length_c                   13.050(1)
_cell_angle_alpha                114.5(1)
_cell_angle_beta                 94.3(1)
_cell_angle_gamma                96.3(1)
_cell_volume                     1356.36
_exptl_crystal_colour            colorless
_cell_formula_units_Z            1
loop_
_atom_site_label
_atom_site_type_symbol
_atom_site_fract_x
_atom_site_fract_y
_atom_site_fract_z
Mg1 Mg 0.49371(5) 0.36056(5) 0.44720(4)
Cl1 Cl 0.66073(4) 0.23245(4) 0.44395(4)
P1 P 0.20813(4) 0.13886(4) 0.33055(3)
P2 P 0.50827(4) 0.50931(4) 0.27507(3)
O1 O 0.33280(11) 0.23598(11) 0.36316(10)
N1 N 0.07795(14) 0.1974(2) 0.38972(13)
N2 N 0.17064(14) 0.07781(14) 0.19085(12)
N3 N 0.22747(13) 0.01998(14) 0.36828(12)
N4 N 0.52218(12) 0.50546(12) 0.39312(10)
C1 C -0.0073(2) 0.2582(3) 0.3377(2)
H1 H -0.0151(28) 0.2091(28) 0.2475(25)
H2 H 0.0334(37) 0.3511(39) 0.3630(31)
H3 H -0.0963(30) 0.2557(29) 0.3619(24)
C2 C 0.0921(2) 0.2630(2) 0.5152(2)
H4 H 0.1390(21) 0.3515(22) 0.5263(18)
H5 H 0.1387(28) 0.2106(28) 0.5536(24)
H6 H 0.0024(27) 0.2696(26) 0.5383(22)
C3 C 0.0699(2) -0.0381(2) 0.1301(2)
H7 H -0.0206(32) -0.0085(31) 0.1176(26)
H8 H 0.0700(26) -0.0956(27) 0.1756(23)
H9 H 0.0994(27) -0.0928(28) 0.0574(24)
C4 C 0.2027(2) 0.1552(2) 0.1277(2)
H10 H 0.2772(23) 0.2213(23) 0.1689(20)
H11 H 0.1302(28) 0.1977(27) 0.1156(23)
H12 H 0.2298(24) 0.1017(25) 0.0586(22)
C5 C 0.3505(2) -0.0372(2) 0.3485(2)
H13 H 0.4192(23) 0.0227(24) 0.3407(19)
H14 H 0.3378(25) -0.1105(27) 0.2822(23)
H15 H 0.3762(24) -0.0576(24) 0.4114(21)
C6 C 0.1217(2) -0.0625(2) 0.3891(2)
H16 H 0.0417(24) -0.0201(24) 0.3998(20)
H17 H 0.1502(23) -0.0699(24) 0.4641(21)
H18 H 0.1026(27) -0.1527(29) 0.3255(24)
C7 C 0.54585(15) 0.36144(15) 0.15963(12)
C8 C 0.6405(2) 0.2952(2) 0.18676(15)
H19 H 0.6888(23) 0.3342(24) 0.2657(20)
C9 C 0.6720(3) 0.1807(2) 0.1031(2)
H20 H 0.7343(33) 0.1314(33) 0.1222(27)
C10 C 0.6097(2) 0.1313(2) -0.0079(2)
H21 H 0.6256(26) 0.0543(27) -0.0658(22)
C11 C 0.5159(2) 0.1957(2) -0.03566(14)
H22 H 0.4717(22) 0.1633(22) -0.1089(19)
C12 C 0.4833(2) 0.3098(2) 0.04759(13)
H23 H 0.4201(22) 0.3525(22) 0.0264(19)
C13 C 0.34369(15) 0.53094(14) 0.22403(12)
C14 C 0.2343(2) 0.5049(2) 0.27344(15)
H24 H 0.2475(20) 0.4795(20) 0.3319(18)
C15 C 0.1078(2) 0.5198(2) 0.2360(2)
H25 H 0.0340(27) 0.5005(26) 0.2699(22)
C16 C 0.0909(2) 0.5610(2) 0.1500(2)
H26 H 0.0047(26) 0.5730(26) 0.1222(22)
C17 C 0.2000(2) 0.5901(2) 0.1020(2)
H27 H 0.1944(24) 0.6224(24) 0.0430(21)
C18 C 0.3258(2) 0.5753(2) 0.13915(14)
H28 H 0.4025(23) 0.5976(23) 0.1058(19)
C19 C 0.61346(14) 0.64519(14) 0.26566(12)
C20 C 0.7070(2) 0.6286(2) 0.18934(14)
H29 H 0.7187(21) 0.5418(22) 0.1369(18)
C21 C 0.7812(2) 0.7381(2) 0.1859(2)
H30 H 0.8465(24) 0.7243(24) 0.1303(21)
C22 C 0.7630(2) 0.8642(2) 0.2585(2)
H31 H 0.8172(23) 0.9377(24) 0.2583(19)
C23 C 0.6710(2) 0.8821(2) 0.33501(15)
H32 H 0.6617(22) 0.9687(23) 0.3831(19)
C24 C 0.5969(2) 0.7730(2) 0.33885(13)
H33 H 0.5337(20) 0.7853(20) 0.3908(17)
Mg1A Mg 0.50629(5) 0.63944(5) 0.55280(4)
Cl1A Cl 0.33927(4) 0.76755(4) 0.55605(4)
O1A O 0.66720(11) 0.76402(11) 0.63684(10)
P1A P 0.79187(4) 0.86114(4) 0.66945(3)
N1A N 0.92205(14) 0.8026(2) 0.61028(13)
C1A C 1.0073(2) 0.7418(3) 0.6623(2)
H1A H 1.0151(28) 0.7909(28) 0.7525(25)
H2A H 0.9666(37) 0.6489(39) 0.6370(31)
H3A H 1.0963(30) 0.7443(29) 0.6381(24)
C2A C 0.9079(2) 0.7370(2) 0.4848(2)
H4A H 0.8610(21) 0.6485(22) 0.4737(18)
H5A H 0.8613(28) 0.7894(28) 0.4464(24)
H6A H 0.9976(27) 0.7304(26) 0.4617(22)
N2A N 0.82936(14) 0.92219(14) 0.80915(12)
C3A C 0.9301(2) 1.0381(2) 0.8699(2)
H7A H 1.0206(32) 1.0085(31) 0.8824(26)
H8A H 0.9300(26) 1.0956(27) 0.8244(23)
H9A H 0.9006(27) 1.0928(28) 0.9426(24)
C4A C 0.7973(2) 0.8448(2) 0.8723(2)
H10A H 0.7228(23) 0.7787(23) 0.8311(20)
H11A H 0.8698(28) 0.8023(27) 0.8844(23)
H12A H 0.7702(24) 0.8983(25) 0.9414(22)
N3A N 0.77253(13) 0.98002(14) 0.63172(12)
C5A C 0.6495(2) 1.0372(2) 0.6515(2)
H13A H 0.5808(23) 0.9773(24) 0.6593(19)
H14A H 0.6622(25) 1.1105(27) 0.7178(23)
H15A H 0.6238(24) 1.0576(24) 0.5886(21)
C6A C 0.8783(2) 1.0625(2) 0.6109(2)
H16A H 0.9583(24) 1.0201(24) 0.6002(20)
H17A H 0.8498(23) 1.0699(24) 0.5359(21)
H18A H 0.8974(27) 1.1527(29) 0.6745(24)
N4A N 0.47782(12) 0.49454(12) 0.60688(10)
P2A P 0.49173(4) 0.49069(4) 0.72493(3)
C7A C 0.45415(15) 0.63856(15) 0.84037(12)
C8A C 0.3595(2) 0.7048(2) 0.81324(15)
H19A H 0.3112(23) 0.6658(24) 0.7343(20)
C9A C 0.3280(3) 0.8193(2) 0.8969(2)
H20A H 0.2657(33) 0.8686(33) 0.8778(27)
C10A C 0.3903(2) 0.8687(2) 1.0079(2)
H21A H 0.3744(26) 0.9457(27) 1.0658(22)
C11A C 0.4841(2) 0.8043(2) 1.03566(14)
H22A H 0.5283(22) 0.8367(22) 1.1089(19)
C12A C 0.5167(2) 0.6902(2) 0.95241(13)
H23A H 0.5799(22) 0.6475(22) 0.9736(19)
C13A C 0.65631(15) 0.46906(14) 0.77597(12)
C14A C 0.7657(2) 0.4951(2) 0.72656(15)
H24A H 0.7525(20) 0.5205(20) 0.6681(18)
C15A C 0.8922(2) 0.4802(2) 0.7640(2)
H25A H 0.9660(27) 0.4995(26) 0.7301(22)
C16A C 0.9091(2) 0.4390(2) 0.8500(2)
H26A H 0.9953(26) 0.4270(26) 0.8778(22)
C17A C 0.8000(2) 0.4099(2) 0.8980(2)
H27A H 0.8056(24) 0.3776(24) 0.9570(21)
C18A C 0.6742(2) 0.4247(2) 0.86085(14)
H28A H 0.5975(23) 0.4024(23) 0.8942(19)
C19A C 0.38654(14) 0.35481(14) 0.73434(12)
C20A C 0.2930(2) 0.3714(2) 0.81066(14)
H29A H 0.2813(21) 0.4582(22) 0.8631(18)
C21A C 0.2188(2) 0.2619(2) 0.8141(2)
H30A H 0.1535(24) 0.2757(24) 0.8697(21)
C22A C 0.2370(2) 0.1358(2) 0.7415(2)
H31A H 0.1828(23) 0.0623(24) 0.7417(19)
C23A C 0.3290(2) 0.1179(2) 0.66499(15)
H32A H 0.3383(22) 0.0313(23) 0.6169(19)
C24A C 0.4031(2) 0.2270(2) 0.66115(13)
H33A H 0.4663(20) 0.2147(20) 0.6092(17)
loop_
_geom_bond_atom_site_label_1
_geom_bond_atom_site_label_2
_geom_bond_site_symmetry_1
_geom_bond_site_symmetry_2
Mg1 Cl1 1_555 1_555
P1 O1 1_555 1_555
P2 N4 1_555 1_555
O1 Mg1 1_555 1_555
N1 P1 1_555 1_555
N2 P1 1_555 1_555
N3 P1 1_555 1_555
N4 Mg1 1_555 1_555
C1 N1 1_555 1_555
H1 C1 1_555 1_555
H2 C1 1_555 1_555
H3 C1 1_555 1_555
C2 N1 1_555 1_555
H4 C2 1_555 1_555
H5 C2 1_555 1_555
H6 C2 1_555 1_555
C3 N2 1_555 1_555
H7 C3 1_555 1_555
H8 C3 1_555 1_555
H9 C3 1_555 1_555
C4 N2 1_555 1_555
H10 C4 1_555 1_555
H11 C4 1_555 1_555
H12 C4 1_555 1_555
C5 N3 1_555 1_555
H13 C5 1_555 1_555
H14 C5 1_555 1_555
H15 C5 1_555 1_555
C6 N3 1_555 1_555
H16 C6 1_555 1_555
H17 C6 1_555 1_555
H18 C6 1_555 1_555
C7 P2 1_555 1_555
C8 C7 1_555 1_555
H19 C8 1_555 1_555
C9 C8 1_555 1_555
H20 C9 1_555 1_555
C10 C9 1_555 1_555
H21 C10 1_555 1_555
C11 C10 1_555 1_555
H22 C11 1_555 1_555
C12 C7 1_555 1_555
H23 C12 1_555 1_555
C13 P2 1_555 1_555
C14 C13 1_555 1_555
H24 C14 1_555 1_555
C15 C14 1_555 1_555
H25 C15 1_555 1_555
C16 C15 1_555 1_555
H26 C16 1_555 1_555
C17 C16 1_555 1_555
H27 C17 1_555 1_555
C18 C13 1_555 1_555
H28 C18 1_555 1_555
C19 P2 1_555 1_555
C20 C19 1_555 1_555
H29 C20 1_555 1_555
C21 C20 1_555 1_555
H30 C21 1_555 1_555
C22 C21 1_555 1_555
H31 C22 1_555 1_555
C23 C22 1_555 1_555
H32 C23 1_555 1_555
C24 C19 1_555 1_555
H33 C24 1_555 1_555
Mg1A N4 1_555 1_555
Cl1A Mg1A 1_555 1_555
O1A Mg1A 1_555 1_555
P1A O1A 1_555 1_555
N1A P1A 1_555 1_555
C1A N1A 1_555 1_555
H1A C1A 1_555 1_555
H2A C1A 1_555 1_555
H3A C1A 1_555 1_555
C2A N1A 1_555 1_555
H4A C2A 1_555 1_555
H5A C2A 1_555 1_555
H6A C2A 1_555 1_555
N2A P1A 1_555 1_555
C3A N2A 1_555 1_555
H7A C3A 1_555 1_555
H8A C3A 1_555 1_555
H9A C3A 1_555 1_555
C4A N2A 1_555 1_555
H10A C4A 1_555 1_555
H11A C4A 1_555 1_555
H12A C4A 1_555 1_555
N3A P1A 1_555 1_555
C5A N3A 1_555 1_555
H13A C5A 1_555 1_555
H14A C5A 1_555 1_555
H15A C5A 1_555 1_555
C6A N3A 1_555 1_555
H16A C6A 1_555 1_555
H17A C6A 1_555 1_555
H18A C6A 1_555 1_555
N4A Mg1 1_555 1_555
P2A N4A 1_555 1_555
C7A P2A 1_555 1_555
C8A C7A 1_555 1_555
H19A C8A 1_555 1_555
C9A C8A 1_555 1_555
H20A C9A 1_555 1_555
C10A C9A 1_555 1_555
H21A C10A 1_555 1_555
C11A C10A 1_555 1_555
H22A C11A 1_555 1_555
C12A C7A 1_555 1_555
H23A C12A 1_555 1_555
C13A P2A 1_555 1_555
C14A C13A 1_555 1_555
H24A C14A 1_555 1_555
C15A C14A 1_555 1_555
H25A C15A 1_555 1_555
C16A C15A 1_555 1_555
H26A C16A 1_555 1_555
C17A C16A 1_555 1_555
H27A C17A 1_555 1_555
C18A C13A 1_555 1_555
H28A C18A 1_555 1_555
C19A P2A 1_555 1_555
C20A C19A 1_555 1_555
H29A C20A 1_555 1_555
C21A C20A 1_555 1_555
H30A C21A 1_555 1_555
C22A C21A 1_555 1_555
H31A C22A 1_555 1_555
C23A C22A 1_555 1_555
H32A C23A 1_555 1_555
C24A C19A 1_555 1_555
H33A C24A 1_555 1_555
C11 C12 1_555 1_555
C17 C18 1_555 1_555
C23 C24 1_555 1_555
Mg1A N4A 1_555 1_555
C11A C12A 1_555 1_555
C17A C18A 1_555 1_555
C23A C24A 1_555 1_555

#END
