
#######################################################################
#
#                 Cambridge Crystallographic Data Centre
#                                CCDC 
#
#######################################################################
#
# If this CIF has been generated from an entry in the Cambridge 
# Structural Database, then it will include bibliographic, chemical, 
# crystal, experimental, refinement or atomic coordinate data resulting 
# from the CCDC's data processing and validation procedures.
#
#######################################################################

data_PUFHOP
_chemical_name_common            
'bis(mu-aqua)-pentaaqua-bis(diatrizoato)-di-sodium sesquihydrate'
_chemical_formula_moiety         'C22 H30 I6 N4 Na2 O15,1.5(H2 O1)'
_chemical_name_systematic        
'bis(\m-aqua)-pentaaqua-bis(3,5-diacetamido-2,4,6-triiodobenzoato)-di-sodium sesquihydrate'
_symmetry_cell_setting           triclinic
_symmetry_space_group_name_H-M   'P -1'
_symmetry_Int_Tables_number      2
_space_group_name_Hall           '-P 1'
loop_
_symmetry_equiv_pos_site_id
_symmetry_equiv_pos_as_xyz
1 x,y,z
2 -x,-y,-z
_cell_length_a                   11.754(2)
_cell_length_b                   13.091(3)
_cell_length_c                   15.129(4)
_cell_angle_alpha                76.32(2)
_cell_angle_beta                 84.56(2)
_cell_angle_gamma                63.50(1)
_cell_volume                     2024.08
_exptl_crystal_colour            colorless
_exptl_crystal_description       block
_cell_formula_units_Z            2
_exptl_crystal_recrystallization_method 
'Re-crystallisation from solvent: water, acetone'
loop_
_atom_site_label
_atom_site_type_symbol
_atom_site_fract_x
_atom_site_fract_y
_atom_site_fract_z
I1 I 0.66223(2) 0.80324(2) 1.102511(15)
I2 I 0.70212(2) 1.15498(2) 0.774266(17)
I3 I 0.50314(2) 0.81408(2) 0.733618(16)
O1 O 0.7573(3) 0.8972(3) 0.6351(2)
O2 O 0.9105(3) 0.8668(2) 1.00865(19)
O3 O 0.4472(3) 0.7569(2) 0.97541(19)
O4 O 0.6475(3) 0.6314(2) 0.9528(2)
N1 N 0.5784(3) 1.0313(3) 0.6831(2)
N2 N 0.7137(3) 1.0187(3) 0.9830(2)
C1 C 0.5920(3) 0.8329(3) 0.9082(2)
C2 C 0.6397(3) 0.8780(3) 0.9625(2)
C3 C 0.6709(3) 0.9699(3) 0.9260(2)
C4 C 0.6540(3) 1.0182(3) 0.8326(2)
C5 C 0.6030(3) 0.9767(3) 0.7769(2)
C6 C 0.5735(3) 0.8833(3) 0.8158(2)
C7 C 0.6592(4) 0.9886(3) 0.6174(3)
C8 C 0.6212(4) 1.0598(4) 0.5222(3)
H1 H 0.6907(12) 1.078(2) 0.4941(8)
H2 H 0.603(3) 1.0152(11) 0.4865(6)
H3 H 0.5450(17) 1.1328(13) 0.5240(3)
C9 C 0.8311(4) 0.9636(3) 1.0204(2)
C10 C 0.8601(4) 1.0292(4) 1.0778(3)
H4 H 0.9372(16) 0.9759(7) 1.1143(15)
H5 H 0.873(3) 1.0938(16) 1.0382(3)
H6 H 0.7887(12) 1.060(2) 1.1182(14)
C11 C 0.5601(4) 0.7308(3) 0.9490(3)
Na1 Na 0.73631(18) 0.43593(13) 0.94412(11)
I4 I 0.75706(2) 0.64755(2) 0.561471(17)
I5 I 0.98105(2) 0.49841(2) 0.212007(16)
I6 I 0.92063(3) 0.14887(2) 0.528224(17)
O5 O 0.8014(2) 0.3162(2) 0.25585(18)
O6 O 0.6581(3) 0.7518(2) 0.33003(19)
O7 O 0.8965(3) 0.3406(3) 0.68111(18)
O8 O 0.7022(2) 0.3805(2) 0.63818(18)
N3 N 0.9849(3) 0.2581(3) 0.3304(2)
N4 N 0.8704(3) 0.6559(3) 0.3603(2)
C12 C 0.8471(3) 0.4044(3) 0.5246(2)
C13 C 0.8340(3) 0.5168(3) 0.4854(2)
C14 C 0.8732(3) 0.5439(3) 0.3964(2)
C15 C 0.9215(3) 0.4586(3) 0.3451(2)
C16 C 0.9333(3) 0.3461(3) 0.3821(2)
C17 C 0.8966(3) 0.3202(3) 0.4717(2)
C18 C 0.9159(3) 0.2485(3) 0.2702(2)
C19 C 0.9845(4) 0.1499(4) 0.2220(3)
H7 H 0.959(2) 0.0874(12) 0.2470(14)
H8 H 0.963(2) 0.1786(7) 0.1569(4)
H9 H 1.0764(4) 0.1195(18) 0.2305(18)
C20 C 0.7634(4) 0.7531(3) 0.3315(3)
C21 C 0.7777(4) 0.8646(3) 0.3044(3)
H10 H 0.726(2) 0.9138(12) 0.2500(12)
H11 H 0.750(3) 0.9062(13) 0.3542(8)
H12 H 0.8671(6) 0.8465(4) 0.291(2)
C22 C 0.8120(4) 0.3721(3) 0.6231(2)
Na2 Na 0.54877(14) 0.47136(14) 0.73639(10)
O9 O 0.6814(3) 0.3543(2) 1.08825(17)
O10 O 0.4265(3) 0.6653(2) 0.65319(18)
O11 O 0.8684(3) 0.2787(3) 0.8798(2)
O12 O 0.5418(3) 0.4415(2) 0.89359(19)
O13 O 0.3831(3) 0.4404(3) 0.6999(3)
O14 O 0.7104(5) 0.5160(4) 0.7825(3)
H13 H 1.056(4) 0.216(4) 0.337(3)
H14 H 0.947(5) 0.661(4) 0.351(3)
H15 H 0.7141(15) 0.3230(14) 1.1493(4)
H16 H 0.666(4) 1.085(4) 0.990(3)
H17 H 0.9522(6) 0.2340(18) 0.9059(11)
H18 H 0.4324(15) 0.673(2) 0.5886(3)
H19 H 0.522(4) 1.095(4) 0.672(3)
H20 H 0.3676(13) 0.3736(8) 0.704(2)
H21 H 0.539(2) 0.3740(7) 0.9340(17)
H22 H 0.9167(13) 0.3285(13) 0.8197(10)
H23 H 0.6381(9) 0.2815(7) 1.1042(16)
H24 H 0.4409(12) 0.4989(13) 0.9286(13)
H25 H 0.3297(7) 0.6526(12) 0.6475(16)
H26 H 0.2741(9) 0.4871(15) 0.7286(15)
O15 O 0.9630(5) 0.3854(5) 0.9922(4)
H27 H 0.934(7) 0.4649(11) 0.997(3)
O16 O 0.5421(3) 0.3557(3) 0.5262(2)
H28 H 0.5698(12) 0.4153(8) 0.5023(13)
H29 H 0.4679(15) 0.4228(11) 0.5728(9)
O17? O 0.8903(6) 0.4953(5) 0.9715(4)
H30? H 0.865(7) 0.5754(12) 0.973(4)
O18? O 1.0857(6) 0.3125(5) 1.0727(4)
H31? H 1.093(3) 0.2432(8) 1.0565(18)
H32? H 0.9968(12) 0.3664(15) 1.0172(10)
loop_
_geom_bond_atom_site_label_1
_geom_bond_atom_site_label_2
_geom_bond_site_symmetry_1
_geom_bond_site_symmetry_2
I1 C2 1_555 1_555
I2 C4 1_555 1_555
I3 C6 1_555 1_555
O1 C7 1_555 1_555
O2 C9 1_555 1_555
O3 C11 1_555 1_555
O4 C11 1_555 1_555
N1 C5 1_555 1_555
N2 C3 1_555 1_555
C1 C2 1_555 1_555
C2 C3 1_555 1_555
C3 C4 1_555 1_555
C4 C5 1_555 1_555
C5 C6 1_555 1_555
C6 C1 1_555 1_555
C7 N1 1_555 1_555
C8 C7 1_555 1_555
H1 C8 1_555 1_555
H2 C8 1_555 1_555
H3 C8 1_555 1_555
C9 N2 1_555 1_555
C10 C9 1_555 1_555
H4 C10 1_555 1_555
H5 C10 1_555 1_555
H6 C10 1_555 1_555
C11 C1 1_555 1_555
Na1 O4 1_555 1_555
I4 C13 1_555 1_555
I5 C15 1_555 1_555
I6 C17 1_555 1_555
O5 C18 1_555 1_555
O6 C20 1_555 1_555
O7 C22 1_555 1_555
O8 C22 1_555 1_555
N3 C16 1_555 1_555
N4 C14 1_555 1_555
C12 C13 1_555 1_555
C13 C14 1_555 1_555
C14 C15 1_555 1_555
C15 C16 1_555 1_555
C16 C17 1_555 1_555
C17 C12 1_555 1_555
C18 N3 1_555 1_555
C19 C18 1_555 1_555
H7 C19 1_555 1_555
H8 C19 1_555 1_555
H9 C19 1_555 1_555
C20 N4 1_555 1_555
C21 C20 1_555 1_555
H10 C21 1_555 1_555
H11 C21 1_555 1_555
H12 C21 1_555 1_555
C22 C12 1_555 1_555
Na2 O8 1_555 1_555
O9 Na1 1_555 1_555
O10 Na2 1_555 1_555
O11 Na1 1_555 1_555
O12 Na1 1_555 1_555
O13 Na2 1_555 1_555
O14 Na1 1_555 1_555
H13 N3 1_555 1_555
H14 N4 1_555 1_555
H15 O9 1_555 1_555
H16 N2 1_555 1_555
H17 O11 1_555 1_555
H18 O10 1_555 1_555
H19 N1 1_555 1_555
H20 O13 1_555 1_555
H21 O12 1_555 1_555
H22 O11 1_555 1_555
H23 O9 1_555 1_555
H24 O12 1_555 1_555
H25 O10 1_555 1_555
H26 O13 1_555 1_555
O15 Na1 1_555 1_555
H27 O15 1_555 1_555
O16 H28 1_555 1_555
H29 O16 1_555 1_555
Na2 O12 1_555 1_555
Na2 O14 1_555 1_555

#END
