
#######################################################################
#
#                 Cambridge Crystallographic Data Centre
#                                CCDC 
#
#######################################################################
#
# If this CIF has been generated from an entry in the Cambridge 
# Structural Database, then it will include bibliographic, chemical, 
# crystal, experimental, refinement or atomic coordinate data resulting 
# from the CCDC's data processing and validation procedures.
#
#######################################################################

data_PUFHOP01
_chemical_name_common            
'bis(mu-aqua)-pentaaqua-bis(diatrizoato)-di-sodium sesquihydrate'
_chemical_formula_moiety         'C22 H30 I6 N4 Na2 O15,1.5(H2 O1)'
_chemical_name_systematic        
'bis(\m-aqua)-pentaaqua-bis(3,5-diacetamido-2,4,6-triiodobenzoato)-di-sodium sesquihydrate'
_symmetry_cell_setting           triclinic
_symmetry_space_group_name_H-M   'P -1'
_symmetry_Int_Tables_number      2
_space_group_name_Hall           '-P 1'
loop_
_symmetry_equiv_pos_site_id
_symmetry_equiv_pos_as_xyz
1 x,y,z
2 -x,-y,-z
_cell_length_a                   11.754(2)
_cell_length_b                   13.091(3)
_cell_length_c                   15.129(4)
_cell_angle_alpha                76.32(2)
_cell_angle_beta                 84.56(2)
_cell_angle_gamma                63.500(10)
_cell_volume                     2024.08
_exptl_crystal_colour            colorless
_exptl_crystal_description       block
_cell_formula_units_Z            2
loop_
_atom_site_label
_atom_site_type_symbol
_atom_site_fract_x
_atom_site_fract_y
_atom_site_fract_z
I1 I 0.6621(6) 0.8028(7) 1.1029(5)
I2 I 0.7010(6) 1.1541(7) 0.7743(5)
I3 I 0.5037(6) 0.8141(7) 0.7336(5)
O1 O 0.7576(6) 0.8960(8) 0.6354(5)
O2 O 0.9102(6) 0.8664(7) 1.0090(5)
O3 O 0.4467(6) 0.7571(7) 0.9759(5)
O4 O 0.6489(8) 0.6317(8) 0.9533(6)
N1 N 0.5778(4) 1.0321(5) 0.6831(3)
N2 N 0.7134(4) 1.0187(5) 0.9831(3)
C1 C 0.5917(5) 0.8325(6) 0.9089(4)
C2 C 0.6397(4) 0.8778(6) 0.9629(4)
C3 C 0.6709(4) 0.9699(6) 0.9263(4)
C4 C 0.6539(4) 1.0184(6) 0.8328(4)
C5 C 0.6032(4) 0.9771(6) 0.7765(4)
C6 C 0.5742(5) 0.8835(6) 0.8149(4)
C7 C 0.6590(5) 0.9889(6) 0.6180(4)
C8 C 0.6211(7) 1.0586(8) 0.5220(5)
C9 C 0.8314(5) 0.9631(6) 1.0209(4)
C10 C 0.8601(6) 1.0285(8) 1.0787(5)
C11 C 0.5612(6) 0.7317(6) 0.9489(4)
Na1 Na 0.7356(11) 0.4375(11) 0.9429(8)
I4 I 0.7568(5) 0.6473(7) 0.5618(5)
I5 I 0.9805(6) 0.4990(7) 0.2123(5)
I6 I 0.9206(6) 0.1485(7) 0.5284(5)
O5 O 0.8013(5) 0.3158(7) 0.2557(5)
O6 O 0.6588(5) 0.7520(7) 0.3309(5)
O7 O 0.8977(6) 0.3398(8) 0.6813(4)
O8 O 0.7018(5) 0.3805(7) 0.6381(4)
N3 N 0.9858(3) 0.2580(4) 0.3305(3)
N4 N 0.8705(4) 0.6559(5) 0.3602(3)
C12 C 0.8461(5) 0.4039(7) 0.5251(4)
C13 C 0.8340(4) 0.5161(7) 0.4863(4)
C14 C 0.8725(4) 0.5446(6) 0.3964(4)
C15 C 0.9217(4) 0.4576(7) 0.3454(4)
C16 C 0.9336(4) 0.3451(7) 0.3816(4)
C17 C 0.8969(4) 0.3203(5) 0.4719(4)
C18 C 0.9160(4) 0.2485(6) 0.2697(4)
C19 C 0.9842(6) 0.1505(9) 0.2218(6)
C20 C 0.7627(5) 0.7540(6) 0.3320(4)
C21 C 0.7779(7) 0.8644(7) 0.3048(5)
C22 C 0.8116(4) 0.3718(5) 0.6231(4)
Na2 Na 0.5487(9) 0.4705(11) 0.7358(7)
O9 O 0.6814(7) 0.3542(8) 1.0892(5)
O10 O 0.4278(8) 0.6647(7) 0.6525(6)
O11 O 0.8673(8) 0.2800(9) 0.8795(8)
O12 O 0.5419(10) 0.4411(13) 0.8931(7)
O13 O 0.3826(8) 0.4406(11) 0.7004(8)
O14 O 0.716(2) 0.514(2) 0.7830(18)
O15 O 0.9628(17) 0.386(2) 0.9928(14)
H1 H 0.3409(13) 0.6835(12) 0.6688(9)
H2 H 0.5018(11) 1.1112(13) 0.6681(8)
H3 H 0.7237(10) 0.3267(12) 1.1477(9)
H4 H 1.0814(9) 0.1986(11) 0.3395(8)
H5 H 0.4639(15) 0.5053(14) 0.9068(9)
H6 H 0.4322(11) 0.6642(13) 0.5878(10)
H7 H 0.6519(10) 1.1002(13) 0.9929(8)
H8 H 0.6432(13) 0.3018(15) 1.0840(10)
H9 H 0.8820(13) 0.2928(14) 0.8167(13)
H10 H 0.3668(13) 0.3770(19) 0.6941(12)
H11 H 0.9465(14) 0.9704(16) 1.1170(13)
H12 H 0.7823(12) 1.0663(16) 1.1212(11)
H13 H 0.9488(15) 0.2244(14) 0.9100(10)
H14 H 0.7140(16) 0.9221(17) 0.2486(14)
H15 H 0.8730(16) 0.8509(15) 0.2889(15)
H16 H 1.0844(14) 0.1095(18) 0.2330(13)
H17 H 0.3027(18) 0.4999(17) 0.7141(13)
H18 H 0.699(2) 1.069(3) 0.4885(14)
H19 H 0.9589(11) 0.6600(11) 0.3478(8)
H20 H 0.9625(19) 0.1783(17) 0.1513(13)
H21 H 0.537(2) 0.374(2) 0.9331(16)
H22 H 0.971(3) 0.425(2) 1.0216(14)
H23 H 0.877(2) 1.100(2) 1.0337(15)
H24 H 1.020(3) 0.309(3) 0.9940(18)
H25 H 0.607(3) 1.014(2) 0.4822(14)
H26 H 0.951(3) 0.087(2) 0.2457(18)
H27 H 0.745(3) 0.9088(19) 0.3596(15)
H28 H 0.765(4) 0.492(5) 0.758(3)
H29 H 0.536(2) 1.135(2) 0.5183(13)
H30 H 0.691(4) 0.576(6) 0.783(4)
O16 O 0.5417(10) 0.3595(10) 0.5244(6)
H31 H 0.6053(12) 0.3580(15) 0.5616(9)
H32 H 0.468(3) 0.389(4) 0.551(2)
O17? O 0.8886(14) 0.4954(17) 0.9718(12)
H33? H 0.814(2) 0.549(3) 0.994(2)
O18? O 1.0868(17) 0.310(2) 1.0739(12)
H34? H 1.105(3) 0.246(3) 1.045(2)
H35? H 1.159(4) 0.327(3) 1.068(2)
loop_
_geom_bond_atom_site_label_1
_geom_bond_atom_site_label_2
_geom_bond_site_symmetry_1
_geom_bond_site_symmetry_2
I1 C2 1_555 1_555
I2 C4 1_555 1_555
I3 C6 1_555 1_555
O1 C7 1_555 1_555
O2 C9 1_555 1_555
O3 C11 1_555 1_555
O4 C11 1_555 1_555
N1 C5 1_555 1_555
N2 C3 1_555 1_555
C1 C2 1_555 1_555
C2 C3 1_555 1_555
C3 C4 1_555 1_555
C4 C5 1_555 1_555
C5 C6 1_555 1_555
C6 C1 1_555 1_555
C7 N1 1_555 1_555
C8 C7 1_555 1_555
C9 N2 1_555 1_555
C10 C9 1_555 1_555
C11 C1 1_555 1_555
Na1 O4 1_555 1_555
I4 C13 1_555 1_555
I5 C15 1_555 1_555
I6 C17 1_555 1_555
O5 C18 1_555 1_555
O6 C20 1_555 1_555
O7 C22 1_555 1_555
O8 C22 1_555 1_555
N3 C16 1_555 1_555
N4 C14 1_555 1_555
C12 C13 1_555 1_555
C13 C14 1_555 1_555
C14 C15 1_555 1_555
C15 C16 1_555 1_555
C16 C17 1_555 1_555
C17 C12 1_555 1_555
C18 N3 1_555 1_555
C19 C18 1_555 1_555
C20 N4 1_555 1_555
C21 C20 1_555 1_555
C22 C12 1_555 1_555
Na2 O8 1_555 1_555
O9 Na1 1_555 1_555
O10 Na2 1_555 1_555
O11 Na1 1_555 1_555
O12 Na1 1_555 1_555
O13 Na2 1_555 1_555
O14 Na1 1_555 1_555
O15 Na1 1_555 1_555
H1 O10 1_555 1_555
H2 N1 1_555 1_555
H3 O9 1_555 1_555
H4 N3 1_555 1_555
H5 O12 1_555 1_555
H6 O10 1_555 1_555
H7 N2 1_555 1_555
H8 O9 1_555 1_555
H9 O11 1_555 1_555
H10 O13 1_555 1_555
H11 C10 1_555 1_555
H12 C10 1_555 1_555
H13 O11 1_555 1_555
H14 C21 1_555 1_555
H15 C21 1_555 1_555
H16 C19 1_555 1_555
H17 O13 1_555 1_555
H18 C8 1_555 1_555
H19 N4 1_555 1_555
H20 C19 1_555 1_555
H21 O12 1_555 1_555
H22 O15 1_555 1_555
H23 C10 1_555 1_555
H24 O15 1_555 1_555
H25 C8 1_555 1_555
H26 C19 1_555 1_555
H27 C21 1_555 1_555
H28 O14 1_555 1_555
H29 C8 1_555 1_555
H30 O14 1_555 1_555
O16 H31 1_555 1_555
H32 O16 1_555 1_555
Na2 O12 1_555 1_555
Na2 O14 1_555 1_555

#END
