
#######################################################################
#
#                 Cambridge Crystallographic Data Centre
#                                CCDC 
#
#######################################################################
#
# If this CIF has been generated from an entry in the Cambridge 
# Structural Database, then it will include bibliographic, chemical, 
# crystal, experimental, refinement or atomic coordinate data resulting 
# from the CCDC's data processing and validation procedures.
#
#######################################################################

data_PUFJUX
_chemical_name_common            'diatrizoic acid'
_chemical_formula_moiety         'C11 H9 I3 N2 O4'
_chemical_name_systematic        '3,5-diacetamido-2,4,6-triiodobenzoic acid'
_symmetry_cell_setting           monoclinic
_symmetry_space_group_name_H-M   'C 2/c'
_symmetry_Int_Tables_number      15
_space_group_name_Hall           '-C 2yn'
loop_
_symmetry_equiv_pos_site_id
_symmetry_equiv_pos_as_xyz
1 x,y,z
2 -x,y,1/2-z
3 1/2+x,1/2+y,z
4 1/2-x,1/2+y,1/2-z
5 -x,-y,-z
6 x,-y,1/2+z
7 1/2-x,1/2-y,-z
8 1/2+x,1/2-y,1/2+z
_cell_length_a                   20.646(4)
_cell_length_b                   9.3533(17)
_cell_length_c                   18.688(3)
_cell_angle_alpha                90
_cell_angle_beta                 117.020(3)
_cell_angle_gamma                90
_cell_volume                     3214.9
_exptl_crystal_colour            colorless
_exptl_crystal_description       plate
_cell_formula_units_Z            8
_exptl_crystal_recrystallization_method 'From the Melt'
loop_
_atom_site_label
_atom_site_type_symbol
_atom_site_fract_x
_atom_site_fract_y
_atom_site_fract_z
H1 H 0.348(5) 0.527(6) 0.320(3)
H2 H 0.3555(3) 0.2129(6) 0.6203(4)
H3 H 0.1333(3) 0.6631(6) 0.5032(4)
H4 H -0.012(2) 0.683(6) 0.355(3)
H5 H -0.0318(12) 0.5487(11) 0.392(4)
H6 H 0.0137(10) 0.674(6) 0.4482(17)
H7 H 0.403(3) 0.215(2) 0.8185(11)
H8 H 0.3622(16) 0.114(2) 0.744(2)
H9 H 0.4422(17) 0.162(4) 0.768(3)
C1 C 0.3435(4) 0.5797(8) 0.4079(5)
C2 C 0.3071(4) 0.5327(8) 0.4583(5)
C3 C 0.3441(4) 0.4451(8) 0.5255(4)
C4 C 0.3117(4) 0.3973(8) 0.5708(5)
C5 C 0.2421(4) 0.4460(8) 0.5526(5)
C6 C 0.2044(4) 0.5407(8) 0.4877(5)
C7 C 0.2373(4) 0.5806(8) 0.4399(5)
C8 C 0.3684(4) 0.3196(8) 0.7119(5)
C9 C 0.3966(5) 0.1910(9) 0.7655(5)
C10 C 0.0742(4) 0.5474(8) 0.4118(5)
C11 C 0.0046(5) 0.6198(10) 0.4008(7)
N1 N 0.3471(3) 0.2962(6) 0.6337(4)
N2 N 0.1357(3) 0.5965(6) 0.4728(4)
O1 O 0.3290(3) 0.4952(6) 0.3469(3)
O2 O 0.3816(3) 0.6871(6) 0.4245(3)
O3 O 0.3636(3) 0.4406(6) 0.7364(3)
O4 O 0.0737(3) 0.4478(6) 0.3682(3)
I1 I 0.45345(3) 0.39225(5) 0.55904(3)
I2 I 0.18864(3) 0.37776(5) 0.61874(3)
I3 I 0.18417(3) 0.72336(5) 0.34417(3)
loop_
_geom_bond_atom_site_label_1
_geom_bond_atom_site_label_2
_geom_bond_site_symmetry_1
_geom_bond_site_symmetry_2
H1 O1 1_555 1_555
H2 N1 1_555 1_555
H3 N2 1_555 1_555
H4 C11 1_555 1_555
H5 C11 1_555 1_555
H6 C11 1_555 1_555
H7 C9 1_555 1_555
H8 C9 1_555 1_555
H9 C9 1_555 1_555
C1 C2 1_555 1_555
C2 C3 1_555 1_555
C3 C4 1_555 1_555
C4 C5 1_555 1_555
C5 C6 1_555 1_555
C6 C7 1_555 1_555
C7 C2 1_555 1_555
C8 C9 1_555 1_555
C10 C11 1_555 1_555
N1 C4 1_555 1_555
N2 C6 1_555 1_555
O1 C1 1_555 1_555
O2 C1 1_555 1_555
O3 C8 1_555 1_555
O4 C10 1_555 1_555
I1 C3 1_555 1_555
I2 C5 1_555 1_555
I3 C7 1_555 1_555
C8 N1 1_555 1_555
C10 N2 1_555 1_555

#END
