
#######################################################################
#
#                 Cambridge Crystallographic Data Centre
#                                CCDC 
#
#######################################################################
#
# If this CIF has been generated from an entry in the Cambridge 
# Structural Database, then it will include bibliographic, chemical, 
# crystal, experimental, refinement or atomic coordinate data resulting 
# from the CCDC's data processing and validation procedures.
#
#######################################################################

data_PUFJUW
_chemical_formula_moiety         'C10 H8 N2 O10,0.5(H2 O1)'
_chemical_name_systematic        
"2,2'-[(4,6-Dinitro-1,3-phenylene)dioxy]diacetic acid hemihydrate"
_symmetry_cell_setting           monoclinic
_symmetry_space_group_name_H-M   'P 21/n'
_symmetry_Int_Tables_number      14
_space_group_name_Hall           '-P 2yn'
loop_
_symmetry_equiv_pos_site_id
_symmetry_equiv_pos_as_xyz
1 x,y,z
2 1/2-x,1/2+y,1/2-z
3 -x,-y,-z
4 1/2+x,1/2-y,1/2+z
_cell_length_a                   7.3873(15)
_cell_length_b                   25.918(5)
_cell_length_c                   13.711(3)
_cell_angle_alpha                90
_cell_angle_beta                 99.43(3)
_cell_angle_gamma                90
_cell_volume                     2589.69
_exptl_crystal_colour            colorless
_exptl_crystal_description       block
_cell_formula_units_Z            8
_exptl_crystal_recrystallization_method aqueous
loop_
_atom_site_label
_atom_site_type_symbol
_atom_site_fract_x
_atom_site_fract_y
_atom_site_fract_z
C1 C 1.0310(4) -0.05466(12) 0.0762(2)
C2 C 0.8978(5) -0.03824(14) 0.1436(3)
H1 H 0.7756 -0.0337 0.1062
H2 H 0.8927 -0.0639 0.1946
C3 C 0.8704(4) 0.03522(12) 0.2451(2)
C4 C 0.7138(4) 0.01642(12) 0.2754(2)
H3 H 0.6713 -0.0162 0.2548
C5 C 0.6181(4) 0.04510(11) 0.3361(2)
C6 C 0.6824(4) 0.09461(11) 0.3636(2)
C7 C 0.8398(4) 0.11370(11) 0.3348(2)
H4 H 0.8811 0.1466 0.3544
C8 C 0.9353(4) 0.08438(11) 0.2776(2)
C9 C 0.3957(4) -0.02105(11) 0.3406(3)
H5 H 0.4864 -0.0476 0.3611
H6 H 0.3611 -0.0226 0.2693
C10 C 0.2310(4) -0.02900(12) 0.3895(3)
N1 N 1.1037(4) 0.10698(12) 0.2527(2)
N2 N 0.5870(4) 0.12895(10) 0.4221(2)
O1 O 1.1678(3) -0.03181(8) 0.06594(18)
O2 O 0.9765(3) -0.09865(9) 0.03349(19)
H13 H 1.0469 -0.1072 -0.0041
O3 O 0.9670(3) 0.00887(9) 0.18550(19)
O4 O 0.1546(4) -0.07382(9) 0.3654(2)
H14 H 0.0629 -0.0771 0.3914
O5 O 0.1750(3) 0.00126(10) 0.4427(2)
O6 O 0.4686(3) 0.02851(8) 0.36993(17)
O7 O 1.1969(5) 0.08272(13) 0.2060(3)
O8 O 1.1449(5) 0.14971(13) 0.2799(4)
O9 O 0.6063(5) 0.17479(10) 0.4134(3)
O10 O 0.4939(4) 0.11086(10) 0.4787(3)
C11 C 1.0980(4) 0.38191(11) 0.5469(2)
C12 C 0.9397(4) 0.34925(11) 0.5686(2)
H7 H 0.8560 0.3699 0.6000
H8 H 0.8726 0.3349 0.5080
C13 C 0.9082(4) 0.27089(11) 0.6568(2)
C14 C 0.7269(4) 0.26400(11) 0.6126(2)
H9 H 0.6759 0.2870 0.5636
C15 C 0.6187(3) 0.22418(10) 0.6385(2)
C16 C 0.6953(4) 0.19013(10) 0.7146(2)
C17 C 0.8751(4) 0.19648(11) 0.7588(2)
H10 H 0.9256 0.1737 0.8083
C18 C 0.9820(4) 0.23571(11) 0.7313(2)
C19 C 0.3662(4) 0.25045(11) 0.5203(2)
H11 H 0.4391 0.2513 0.4676
H12 H 0.3623 0.2850 0.5472
C20 C 0.1761(4) 0.23215(12) 0.4812(2)
N3 N 1.1684(3) 0.23969(10) 0.78400(19)
N4 N 0.5927(4) 0.14953(9) 0.75239(19)
O11 O 1.2585(3) 0.36932(9) 0.56650(17)
O12 O 1.0395(3) 0.42478(9) 0.5016(2)
H15 H 1.1271 0.4410 0.4877
O13 O 1.0174(3) 0.30879(8) 0.63347(16)
O14 O 0.0992(3) 0.26513(11) 0.4130(2)
H16 H -0.0088 0.2573 0.3954
O15 O 0.1017(3) 0.19503(9) 0.5074(2)
O16 O 0.4453(2) 0.21590(7) 0.59524(14)
O17 O 1.2814(3) 0.26610(9) 0.75223(18)
O18 O 1.2051(3) 0.21598(11) 0.86301(18)
O19 O 0.4279(4) 0.14545(11) 0.7251(2)
O20 O 0.6744(4) 0.12010(10) 0.8133(2)
O21 O 0.1450(4) 0.08578(9) 0.5660(2)
H17 H 0.1745 0.1146 0.5437
H18 H 0.1744 0.0616 0.5298
loop_
_geom_bond_atom_site_label_1
_geom_bond_atom_site_label_2
_geom_bond_site_symmetry_1
_geom_bond_site_symmetry_2
C1 C2 1_555 1_555
C2 H1 1_555 1_555
H2 C2 1_555 1_555
C3 C4 1_555 1_555
C4 H3 1_555 1_555
C5 C4 1_555 1_555
C6 C5 1_555 1_555
C7 C6 1_555 1_555
H4 C7 1_555 1_555
C8 C3 1_555 1_555
C9 H5 1_555 1_555
H6 C9 1_555 1_555
C10 C9 1_555 1_555
C11 C12 1_555 1_555
C12 H7 1_555 1_555
H8 C12 1_555 1_555
C13 C14 1_555 1_555
C14 H9 1_555 1_555
C15 C14 1_555 1_555
C16 C15 1_555 1_555
C17 C16 1_555 1_555
H10 C17 1_555 1_555
C18 C13 1_555 1_555
C19 H11 1_555 1_555
H12 C19 1_555 1_555
C20 C19 1_555 1_555
N1 C8 1_555 1_555
N2 C6 1_555 1_555
N3 C18 1_555 1_555
N4 C16 1_555 1_555
O1 C1 1_555 1_555
O2 C1 1_555 1_555
H13 O2 1_555 1_555
O3 C2 1_555 1_555
O4 C10 1_555 1_555
H14 O4 1_555 1_555
O5 C10 1_555 1_555
O6 C5 1_555 1_555
O7 N1 1_555 1_555
O8 N1 1_555 1_555
O9 N2 1_555 1_555
O10 N2 1_555 1_555
O11 C11 1_555 1_555
O12 C11 1_555 1_555
H15 O12 1_555 1_555
O13 C12 1_555 1_555
O14 C20 1_555 1_555
H16 O14 1_555 1_555
O15 C20 1_555 1_555
O16 C15 1_555 1_555
O17 N3 1_555 1_555
O18 N3 1_555 1_555
O19 N4 1_555 1_555
O20 N4 1_555 1_555
O21 H17 1_555 1_555
H18 O21 1_555 1_555
C3 O3 1_555 1_555
C7 C8 1_555 1_555
C9 O6 1_555 1_555
C13 O13 1_555 1_555
C17 C18 1_555 1_555
C19 O16 1_555 1_555

#END
