
#######################################################################
#
#                 Cambridge Crystallographic Data Centre
#                                CCDC 
#
#######################################################################
#
# If this CIF has been generated from an entry in the Cambridge 
# Structural Database, then it will include bibliographic, chemical, 
# crystal, experimental, refinement or atomic coordinate data resulting 
# from the CCDC's data processing and validation procedures.
#
#######################################################################

data_PUFJIL
_chemical_name_common            'diatrizoic acid hydrate'
_chemical_formula_moiety         'C11 H9 I3 N2 O4,0.25(H2 O1)'
_chemical_name_systematic        
'3,5-diacetamido-2,4,6-triiodobenzoic acid hydrate'
_symmetry_cell_setting           monoclinic
_symmetry_space_group_name_H-M   'C 2/c'
_symmetry_Int_Tables_number      15
_space_group_name_Hall           '-C 2yn'
loop_
_symmetry_equiv_pos_site_id
_symmetry_equiv_pos_as_xyz
1 x,y,z
2 -x,y,1/2-z
3 1/2+x,1/2+y,z
4 1/2-x,1/2+y,1/2-z
5 -x,-y,-z
6 x,-y,1/2+z
7 1/2-x,1/2-y,-z
8 1/2+x,1/2-y,1/2+z
_cell_length_a                   20.702(16)
_cell_length_b                   9.407(8)
_cell_length_c                   18.68(2)
_cell_angle_alpha                90
_cell_angle_beta                 116.440(8)
_cell_angle_gamma                90
_cell_volume                     3257.3
_exptl_crystal_colour            colorless
_exptl_crystal_description       lath
_cell_formula_units_Z            8
_exptl_crystal_recrystallization_method 
'Re-crystallisation from solvent: 1-propanol'
loop_
_atom_site_label
_atom_site_type_symbol
_atom_site_fract_x
_atom_site_fract_y
_atom_site_fract_z
I1 I 0.18930(7) 0.62401(14) 0.11965(8)
I2 I 0.45288(7) 0.60898(15) 0.05727(8)
I3 I 0.18456(7) 0.27753(13) -0.15461(7)
C1 C 0.3111(10) 0.6023(15) 0.0704(9)
C2 C 0.3071(10) 0.4680(17) -0.0431(10)
C3 C 0.2427(10) 0.5557(17) 0.0516(9)
C4 C 0.3434(9) 0.5568(16) 0.0235(10)
C5 C 0.2042(10) 0.4572(16) -0.0124(9)
O1 O 0.3312(7) 0.5021(12) -0.1522(7)
H1 H 0.3034(7) 0.5671(12) -0.1522(7)
O2 O 0.3812(7) 0.3140(13) -0.0763(7)
O3 O 0.0754(7) 0.5520(14) -0.1296(8)
N1 N 0.3472(8) 0.7032(13) 0.1330(7)
H2 H 0.3564(8) 0.7872(13) 0.1190(7)
N2 N 0.1363(7) 0.4073(15) -0.0257(8)
H3 H 0.1330(7) 0.3432(15) 0.0068(8)
O4 O 0.3619(7) 0.5589(14) 0.2363(7)
C6 C 0.2382(10) 0.4239(16) -0.0578(9)
C7 C 0.3440(10) 0.4168(16) -0.0934(9)
C8 C 0.3681(11) 0.681(2) 0.2109(11)
C9 C 0.0750(10) 0.456(2) -0.0878(11)
C10 C 0.0048(13) 0.389(3) -0.0950(13)
H4 H -0.035(2) 0.412(16) -0.147(4)
H5 H 0.010(3) 0.286(3) -0.089(10)
H6 H -0.006(5) 0.427(13) -0.053(6)
C11 C 0.3984(12) 0.8070(19) 0.2641(12)
H7 H 0.3590(13) 0.870(7) 0.259(6)
H8 H 0.425(6) 0.775(2) 0.3196(15)
H9 H 0.431(6) 0.859(8) 0.248(5)
O5 O 0.50000 0.393(5) 0.25000
loop_
_geom_bond_atom_site_label_1
_geom_bond_atom_site_label_2
_geom_bond_site_symmetry_1
_geom_bond_site_symmetry_2
I1 C3 1_555 1_555
I2 C4 1_555 1_555
I3 C6 1_555 1_555
C1 C3 1_555 1_555
C2 C4 1_555 1_555
C3 C5 1_555 1_555
C4 C1 1_555 1_555
C5 N2 1_555 1_555
O1 H1 1_555 1_555
O2 C7 1_555 1_555
O3 C9 1_555 1_555
N1 C1 1_555 1_555
H2 N1 1_555 1_555
N2 H3 1_555 1_555
O4 C8 1_555 1_555
C6 C2 1_555 1_555
C7 C2 1_555 1_555
C8 N1 1_555 1_555
C9 N2 1_555 1_555
C10 C9 1_555 1_555
H4 C10 1_555 1_555
H5 C10 1_555 1_555
H6 C10 1_555 1_555
C11 C8 1_555 1_555
H7 C11 1_555 1_555
H8 C11 1_555 1_555
H9 C11 1_555 1_555
C5 C6 1_555 1_555
O1 C7 1_555 1_555

#END
