
#######################################################################
#
#                 Cambridge Crystallographic Data Centre
#                                CCDC 
#
#######################################################################
#
# If this CIF has been generated from an entry in the Cambridge 
# Structural Database, then it will include bibliographic, chemical, 
# crystal, experimental, refinement or atomic coordinate data resulting 
# from the CCDC's data processing and validation procedures.
#
#######################################################################

data_PUFKOS
_chemical_name_common            'diatrizoic acid N,N-dimethylformamide solvate'
_chemical_formula_moiety         'C11 H9 I3 N2 O4,2(C3 H7 N1 O1)'
_chemical_name_systematic        
'3,5-diacetamido-2,4,6-triiodobenzoic acid N,N-dimethylformamide solvate'
_symmetry_cell_setting           orthorhombic
_symmetry_space_group_name_H-M   'P b c a'
_symmetry_Int_Tables_number      61
_space_group_name_Hall           '-P 2ac 2ab'
loop_
_symmetry_equiv_pos_site_id
_symmetry_equiv_pos_as_xyz
1 x,y,z
2 1/2+x,1/2-y,-z
3 -x,1/2+y,1/2-z
4 1/2-x,-y,1/2+z
5 -x,-y,-z
6 1/2-x,1/2+y,z
7 x,1/2-y,1/2+z
8 1/2+x,y,1/2-z
_cell_length_a                   21.321(3)
_cell_length_b                   9.2768(13)
_cell_length_c                   25.724(4)
_cell_angle_alpha                90
_cell_angle_beta                 90
_cell_angle_gamma                90
_cell_volume                     5087.97
_exptl_crystal_colour            colorless
_exptl_crystal_description       block
_cell_formula_units_Z            8
_exptl_crystal_recrystallization_method DMF
loop_
_atom_site_label
_atom_site_type_symbol
_atom_site_fract_x
_atom_site_fract_y
_atom_site_fract_z
H1 H 0.72987(16) 1.1092(4) 0.75238(14)
H2 H 0.621(3) 0.946(2) 0.5245(4)
H3 H 0.52872(16) 0.6690(4) 0.75597(15)
H4 H 0.8161(12) 0.994(2) 0.8481(3)
H5 H 0.8590(4) 1.020(3) 0.7980(8)
H6 H 0.8033(9) 1.1299(8) 0.8113(11)
H7 H 0.4307(5) 0.6679(14) 0.7809(13)
H8 H 0.4066(11) 0.821(2) 0.8014(8)
H9 H 0.3851(6) 0.764(3) 0.7455(5)
C1 C 0.6458(2) 0.8482(5) 0.58059(18)
C2 C 0.6413(2) 0.8608(5) 0.63874(17)
C3 C 0.6866(2) 0.9334(5) 0.66837(18)
C4 C 0.68190(19) 0.9430(5) 0.72190(18)
C5 C 0.6288(2) 0.8835(5) 0.74687(17)
C6 C 0.5831(2) 0.8130(5) 0.71815(18)
C7 C 0.5908(2) 0.7982(5) 0.66459(18)
C8 C 0.7720(2) 0.9390(5) 0.77981(18)
C9 C 0.8165(2) 1.0288(5) 0.8122(2)
C10 C 0.4756(2) 0.8380(6) 0.74619(19)
C11 C 0.4196(2) 0.7664(6) 0.7706(2)
N1 N 0.72882(16) 1.0144(4) 0.75191(14)
N2 N 0.52828(16) 0.7566(4) 0.74288(15)
O1 O 0.66531(15) 0.7405(4) 0.55928(13)
O2 O 0.6245(2) 0.9637(4) 0.55632(14)
O3 O 0.77434(15) 0.8069(4) 0.77930(14)
O4 O 0.47434(16) 0.9630(4) 0.73009(16)
I1 I 0.761235(16) 1.03737(4) 0.629968(13)
I2 I 0.615079(13) 0.92038(3) 0.826548(11)
I3 I 0.521804(15) 0.68482(4) 0.621732(13)
H11 H 0.3693(4) 0.4577(10) 0.5103(3)
H12 H 0.286(2) 0.721(9) 0.486(3)
H13 H 0.272(4) 0.552(5) 0.493(3)
H14 H 0.2389(11) 0.666(13) 0.5309(7)
H15 H 0.3744(17) 0.706(3) 0.6054(14)
H16 H 0.346(3) 0.8295(16) 0.5688(3)
H17 H 0.3011(11) 0.742(4) 0.6073(13)
C12 C 0.3747(4) 0.5224(10) 0.5386(3)
C13 C 0.2773(6) 0.6439(18) 0.5115(5)
C14 C 0.3380(4) 0.7354(10) 0.5847(3)
N3 N 0.3269(3) 0.6328(7) 0.5455(2)
O5 O 0.4210(4) 0.5051(9) 0.5658(3)
H24 H 0.4414(5) 0.2325(11) 0.5082(4)
H25 H 0.5750(5) 0.2473(13) 0.569(3)
H26 H 0.528(2) 0.346(6) 0.5363(16)
H27 H 0.528(2) 0.354(5) 0.5984(18)
H28 H 0.453(2) 0.012(5) 0.6167(11)
H29 H 0.5252(11) 0.050(7) 0.6248(14)
H30 H 0.472(3) 0.155(2) 0.6474(5)
C18 C 0.4411(5) 0.1660(11) 0.5363(4)
C19 C 0.5330(5) 0.2901(13) 0.5685(5)
C20 C 0.4834(5) 0.0903(12) 0.6187(4)
N4 N 0.4834(2) 0.1699(5) 0.57047(17)
O7 O 0.3938(2) 0.0630(5) 0.54038(16)
H10? H 0.3840(11) 0.764(2) 0.5635(8)
H18? H 0.254(7) 0.792(14) 0.5134(16)
H19? H 0.236(4) 0.745(8) 0.571(6)
H20? H 0.290(2) 0.862(6) 0.562(7)
H21? H 0.272(6) 0.508(8) 0.502(2)
H22? H 0.3168(19) 0.420(3) 0.541(6)
H23? H 0.256(5) 0.502(9) 0.563(4)
C15? C 0.3747(11) 0.666(2) 0.5572(8)
C16? C 0.2700(12) 0.774(2) 0.5483(12)
C17? C 0.2901(10) 0.506(2) 0.5370(9)
O6? O 0.4150(9) 0.575(2) 0.5621(8)
H31? H 0.4229(6) 0.0321(14) 0.6086(5)
H32? H 0.5663(11) 0.152(8) 0.6039(12)
H33? H 0.527(3) 0.2905(17) 0.622(2)
H34? H 0.509(2) 0.134(7) 0.6431(11)
H35? H 0.508(4) 0.320(3) 0.5183(7)
H36? H 0.533(3) 0.162(7) 0.5041(14)
H37? H 0.4605(16) 0.203(10) 0.4957(10)
C21? C 0.4302(6) 0.0796(14) 0.5765(5)
C22? C 0.5246(6) 0.1880(13) 0.6132(4)
C23? C 0.4973(6) 0.2177(16) 0.5179(5)
loop_
_geom_bond_atom_site_label_1
_geom_bond_atom_site_label_2
_geom_bond_site_symmetry_1
_geom_bond_site_symmetry_2
H1 N1 1_555 1_555
H2 O2 1_555 1_555
H3 N2 1_555 1_555
H4 C9 1_555 1_555
H5 C9 1_555 1_555
H6 C9 1_555 1_555
H7 C11 1_555 1_555
H8 C11 1_555 1_555
H9 C11 1_555 1_555
C1 C2 1_555 1_555
C2 C3 1_555 1_555
C3 C4 1_555 1_555
C4 C5 1_555 1_555
C5 C6 1_555 1_555
C6 C7 1_555 1_555
C7 C2 1_555 1_555
C8 C9 1_555 1_555
C10 C11 1_555 1_555
N1 C4 1_555 1_555
N2 C6 1_555 1_555
O1 C1 1_555 1_555
O2 C1 1_555 1_555
O3 C8 1_555 1_555
O4 C10 1_555 1_555
I1 C3 1_555 1_555
I2 C5 1_555 1_555
I3 C7 1_555 1_555
H11 C12 1_555 1_555
H12 C13 1_555 1_555
H13 C13 1_555 1_555
H14 C13 1_555 1_555
H15 C14 1_555 1_555
H16 C14 1_555 1_555
H17 C14 1_555 1_555
C12 N3 1_555 1_555
C13 N3 1_555 1_555
C14 N3 1_555 1_555
O5 C12 1_555 1_555
H24 C18 1_555 1_555
H25 C19 1_555 1_555
H26 C19 1_555 1_555
H27 C19 1_555 1_555
H28 C20 1_555 1_555
H29 C20 1_555 1_555
H30 C20 1_555 1_555
C18 N4 1_555 1_555
C19 N4 1_555 1_555
C20 N4 1_555 1_555
O7 C18 1_555 1_555
C8 N1 1_555 1_555
C10 N2 1_555 1_555

#END
