
#######################################################################
#
#                 Cambridge Crystallographic Data Centre
#                                CCDC 
#
#######################################################################
#
# If this CIF has been generated from an entry in the Cambridge 
# Structural Database, then it will include bibliographic, chemical, 
# crystal, experimental, refinement or atomic coordinate data resulting 
# from the CCDC's data processing and validation procedures.
#
#######################################################################

data_PUFKEI
_chemical_name_common            'diatrizoic acid tetrahydrofuran solvate'
_chemical_formula_moiety         'C11 H9 I3 N2 O4,C4 H8 O1'
_chemical_name_systematic        
'3,5-diacetamido-2,4,6-triiodobenzoic acid tetrahydrofuran solvate'
_symmetry_cell_setting           monoclinic
_symmetry_space_group_name_H-M   'P 21/n'
_symmetry_Int_Tables_number      14
_space_group_name_Hall           '-P 2yn'
loop_
_symmetry_equiv_pos_site_id
_symmetry_equiv_pos_as_xyz
1 x,y,z
2 1/2-x,1/2+y,1/2-z
3 -x,-y,-z
4 1/2+x,1/2-y,1/2+z
_cell_length_a                   8.8927(10)
_cell_length_b                   18.818(2)
_cell_length_c                   12.7672(13)
_cell_angle_alpha                90
_cell_angle_beta                 90.188(4)
_cell_angle_gamma                90
_cell_volume                     2136.49
_exptl_crystal_colour            colorless
_exptl_crystal_description       block
_cell_formula_units_Z            4
_exptl_crystal_recrystallization_method THF
loop_
_atom_site_label
_atom_site_type_symbol
_atom_site_fract_x
_atom_site_fract_y
_atom_site_fract_z
I1 I 0.43615(9) 0.10029(3) 0.48603(6)
I2 I 0.43757(9) 0.08887(3) 0.95770(6)
I3 I 0.14968(7) 0.33616(3) 0.73328(6)
N1 N 0.2569(9) 0.2423(4) 0.5369(7)
H1 H 0.1641(9) 0.2379(4) 0.5137(7)
C1 C 0.3797(10) 0.1456(5) 0.6292(8)
C2 C 0.4227(11) 0.1107(5) 0.7222(9)
C3 C 0.2983(11) 0.2082(5) 0.6322(8)
C4 C 0.3796(10) 0.1405(5) 0.8165(8)
O1 O 0.6606(7) 0.0588(3) 0.7236(7)
N2 N 0.2554(10) 0.2321(4) 0.9205(7)
H2 H 0.1651(10) 0.2237(4) 0.9456(7)
C5 C 0.3532(14) 0.2722(6) 0.9770(9)
O2 O 0.4610(8) -0.0137(3) 0.7157(7)
C6 C 0.5165(10) 0.0441(5) 0.7190(9)
C7 C 0.2607(9) 0.2379(5) 0.7267(10)
C8 C 0.3550(16) 0.2810(6) 0.4815(9)
C9 C 0.2957(11) 0.2037(5) 0.8224(9)
O3 O 0.4790(8) 0.2961(4) 0.5179(7)
O4 O 0.4799(8) 0.2875(4) 0.9420(7)
C10 C 0.3036(14) 0.2934(8) 1.0849(11)
H3 H 0.362(7) 0.267(3) 1.1372(11)
H4 H 0.320(9) 0.3445(11) 1.095(3)
H5 H 0.197(3) 0.283(4) 1.093(2)
C11 C 0.3019(15) 0.3031(7) 0.3744(10)
H6 H 0.304(9) 0.3551(8) 0.369(2)
H7 H 0.368(6) 0.283(4) 0.3212(10)
H8 H 0.199(4) 0.286(4) 0.363(3)
H9 H 0.7099(12) 0.0209(6) 0.729(12)
O5 O 0.8427(10) -0.0455(5) 0.7285(11)
C12 C 1.054(2) -0.0012(11) 0.815(2)
H10 H 1.150(2) -0.0208(11) 0.842(2)
H11 H 1.031(2) 0.0435(11) 0.852(2)
C13 C 0.954(2) -0.0344(12) 0.6547(18)
H12 H 1.001(2) -0.0800(12) 0.6337(18)
H13 H 0.913(2) -0.0109(12) 0.5916(18)
C14 C 1.061(2) 0.0098(11) 0.705(2)
H14 H 1.039(2) 0.0602(11) 0.689(2)
H15 H 1.163(2) -0.0013(11) 0.679(2)
C15 C 0.923(3) -0.0561(15) 0.825(2)
H16 H 0.859(3) -0.0458(15) 0.886(2)
H17 H 0.962(3) -0.1053(15) 0.830(2)
loop_
_geom_bond_atom_site_label_1
_geom_bond_atom_site_label_2
_geom_bond_site_symmetry_1
_geom_bond_site_symmetry_2
I1 C1 1_555 1_555
I2 C4 1_555 1_555
I3 C7 1_555 1_555
N1 H1 1_555 1_555
C1 C2 1_555 1_555
C2 C4 1_555 1_555
C3 N1 1_555 1_555
C4 C9 1_555 1_555
O1 C6 1_555 1_555
N2 H2 1_555 1_555
C5 N2 1_555 1_555
O2 C6 1_555 1_555
C6 C2 1_555 1_555
C7 C3 1_555 1_555
C8 N1 1_555 1_555
C9 N2 1_555 1_555
O3 C8 1_555 1_555
O4 C5 1_555 1_555
C10 C5 1_555 1_555
H3 C10 1_555 1_555
H4 C10 1_555 1_555
H5 C10 1_555 1_555
C11 C8 1_555 1_555
H6 C11 1_555 1_555
H7 C11 1_555 1_555
H8 C11 1_555 1_555
H9 O1 1_555 1_555
O5 C13 1_555 1_555
C12 H10 1_555 1_555
H11 C12 1_555 1_555
C13 H12 1_555 1_555
H13 C13 1_555 1_555
C14 C12 1_555 1_555
H14 C14 1_555 1_555
H15 C14 1_555 1_555
C15 O5 1_555 1_555
H16 C15 1_555 1_555
H17 C15 1_555 1_555
C1 C3 1_555 1_555
C7 C9 1_555 1_555
C12 C15 1_555 1_555
C13 C14 1_555 1_555

#END
