
#######################################################################
#
#                 Cambridge Crystallographic Data Centre
#                                CCDC 
#
#######################################################################
#
# If this CIF has been generated from an entry in the Cambridge 
# Structural Database, then it will include bibliographic, chemical, 
# crystal, experimental, refinement or atomic coordinate data resulting 
# from the CCDC's data processing and validation procedures.
#
#######################################################################

data_PUFLAF
_chemical_name_common            
'diatrizoic acid 1,4-dioxane solvate monohydrate'
_chemical_formula_moiety         'C11 H9 I3 N2 O4,C4 H8 O2,H2 O1'
_chemical_name_systematic        
'3,5-diacetamido-2,4,6-triiodobenzoic acid 1,4-dioxane solvate monohydrate'
_symmetry_cell_setting           monoclinic
_symmetry_space_group_name_H-M   'P 21/n'
_symmetry_Int_Tables_number      14
_space_group_name_Hall           '-P 2yn'
loop_
_symmetry_equiv_pos_site_id
_symmetry_equiv_pos_as_xyz
1 x,y,z
2 1/2-x,1/2+y,1/2-z
3 -x,-y,-z
4 1/2+x,1/2-y,1/2+z
_cell_length_a                   11.940(4)
_cell_length_b                   11.878(4)
_cell_length_c                   15.642(5)
_cell_angle_alpha                90
_cell_angle_beta                 100.925(3)
_cell_angle_gamma                90
_cell_volume                     2178.19
_exptl_crystal_colour            colorless
_exptl_crystal_description       plate
_cell_formula_units_Z            4
_exptl_crystal_recrystallization_method 
'Re-crystallisation from solvent: dioxane'
loop_
_atom_site_label
_atom_site_type_symbol
_atom_site_fract_x
_atom_site_fract_y
_atom_site_fract_z
I1 I 0.05864(2) 0.08130(2) 1.162305(16)
I2 I 0.00698(2) 0.32801(2) 0.817938(17)
I3 I 0.35898(3) -0.03489(3) 0.90426(2)
O1 O -0.1333(3) 0.2460(3) 0.9929(2)
O2 O 0.0006(3) 0.3583(3) 1.0600(2)
H1 H 0.0721(3) 0.3622(3) 1.0695(2)
O3 O 0.3806(3) 0.0603(3) 1.1573(2)
N1 N 0.2464(3) -0.0459(3) 1.0756(2)
O4 O 0.3316(3) 0.2763(3) 0.8314(2)
N2 N 0.1953(3) 0.1445(3) 0.7967(2)
C1 C 0.1963(3) 0.0422(3) 1.0205(3)
C2 C 0.2269(3) 0.0597(3) 0.9400(3)
C3 C 0.1115(3) 0.1104(3) 1.0440(2)
C4 C -0.0328(3) 0.2676(3) 1.0138(2)
C5 C 0.1722(3) 0.1390(3) 0.8817(2)
C6 C 0.0887(3) 0.2086(3) 0.9067(2)
C7 C 0.0588(3) 0.1951(3) 0.9880(3)
C8 C 0.3363(4) -0.0320(4) 1.1409(3)
C9 C 0.2797(4) 0.2103(4) 0.7780(3)
C10 C 0.3039(5) 0.1936(5) 0.6884(3)
H2 H 0.331(4) 0.2645(11) 0.6674(12)
H3 H 0.363(3) 0.136(3) 0.6901(6)
H4 H 0.2341(11) 0.169(4) 0.6491(7)
C11 C 0.3793(5) -0.1370(4) 1.1896(3)
H5 H 0.450(2) -0.161(2) 1.172(2)
H6 H 0.394(3) -0.1217(10) 1.2523(4)
H7 H 0.3219(16) -0.1966(11) 1.176(2)
H8 H 0.2169(3) -0.1138(3) 1.0667(2)
H9 H 0.1540(3) 0.1043(3) 0.7551(2)
O5 O 0.4348(3) 0.4776(3) 0.8087(2)
H10 H 0.5078(9) 0.467(4) 0.826(4)
H11 H 0.398(4) 0.429(4) 0.834(4)
O6 O 0.4266(3) 0.4199(3) 1.0442(3)
O7 O 0.2151(3) 0.3975(3) 1.0963(3)
C12 C 0.3118(4) 0.3310(4) 1.1347(4)
H12 H 0.3535(4) 0.3694(4) 1.1874(4)
H13 H 0.2856(4) 0.2571(4) 1.1525(4)
C13 C 0.2515(5) 0.5041(4) 1.0678(4)
H14 H 0.1843(5) 0.5481(4) 1.0394(4)
H15 H 0.2916(5) 0.5474(4) 1.1185(4)
C14 C 0.3298(5) 0.4852(5) 1.0047(4)
H16 H 0.3557(5) 0.5587(5) 0.9858(4)
H17 H 0.2882(5) 0.4454(5) 0.9526(4)
C15 C 0.3898(5) 0.3138(4) 1.0718(4)
H18 H 0.3496(5) 0.2713(4) 1.0206(4)
H19 H 0.4569(5) 0.2693(4) 1.0997(4)
loop_
_geom_bond_atom_site_label_1
_geom_bond_atom_site_label_2
_geom_bond_site_symmetry_1
_geom_bond_site_symmetry_2
I1 C3 1_555 1_555
I2 C6 1_555 1_555
I3 C2 1_555 1_555
O1 C4 1_555 1_555
O2 H1 1_555 1_555
O3 C8 1_555 1_555
N1 C1 1_555 1_555
O4 C9 1_555 1_555
N2 C5 1_555 1_555
C1 C2 1_555 1_555
C2 C5 1_555 1_555
C3 C1 1_555 1_555
C4 O2 1_555 1_555
C5 C6 1_555 1_555
C6 C7 1_555 1_555
C7 C3 1_555 1_555
C8 N1 1_555 1_555
C9 N2 1_555 1_555
C10 C9 1_555 1_555
H2 C10 1_555 1_555
H3 C10 1_555 1_555
H4 C10 1_555 1_555
C11 C8 1_555 1_555
H5 C11 1_555 1_555
H6 C11 1_555 1_555
H7 C11 1_555 1_555
H8 N1 1_555 1_555
H9 N2 1_555 1_555
O5 H10 1_555 1_555
H11 O5 1_555 1_555
O6 C14 1_555 1_555
O7 C12 1_555 1_555
C12 H12 1_555 1_555
H13 C12 1_555 1_555
C13 O7 1_555 1_555
H14 C13 1_555 1_555
H15 C13 1_555 1_555
C14 C13 1_555 1_555
H16 C14 1_555 1_555
H17 C14 1_555 1_555
C15 O6 1_555 1_555
H18 C15 1_555 1_555
H19 C15 1_555 1_555
C4 C7 1_555 1_555
C12 C15 1_555 1_555

#END
