
#######################################################################
#
#                 Cambridge Crystallographic Data Centre
#                                CCDC 
#
#######################################################################
#
# If this CIF has been generated from an entry in the Cambridge 
# Structural Database, then it will include bibliographic, chemical, 
# crystal, experimental, refinement or atomic coordinate data resulting 
# from the CCDC's data processing and validation procedures.
#
#######################################################################

data_PUFLIN
_chemical_name_common            'diatrizoic acid methanol solvate'
_chemical_formula_moiety         'C11 H9 I3 N2 O4,C1 H4 O1'
_chemical_name_systematic        
'3,5-diacetamido-2,4,6-triiodobenzoic acid methanol solvate'
_symmetry_cell_setting           triclinic
_symmetry_space_group_name_H-M   'P -1'
_symmetry_Int_Tables_number      2
_space_group_name_Hall           '-P 1'
loop_
_symmetry_equiv_pos_site_id
_symmetry_equiv_pos_as_xyz
1 x,y,z
2 -x,-y,-z
_cell_length_a                   9.4497(1)
_cell_length_b                   13.9552(2)
_cell_length_c                   14.6126(2)
_cell_angle_alpha                85.214(1)
_cell_angle_beta                 87.695(1)
_cell_angle_gamma                72.367(1)
_cell_volume                     1829.83
_exptl_crystal_colour            colorless
_exptl_crystal_description       plate
_cell_formula_units_Z            4
_exptl_crystal_recrystallization_method 
'Re-crystallisation from solvent: methanol'
loop_
_atom_site_label
_atom_site_type_symbol
_atom_site_fract_x
_atom_site_fract_y
_atom_site_fract_z
I1 I 0.25181(3) 0.741934(18) 0.137158(18)
I2 I 0.49661(3) 0.967871(18) -0.167486(17)
I3 I 0.03197(3) 1.197678(19) 0.092511(18)
C1 C 0.3432(4) 0.9680(3) -0.0594(3)
C2 C 0.2536(4) 1.0604(3) -0.0302(3)
C3 C 0.1040(4) 0.9870(3) 0.2565(3)
N1 N 0.0644(3) 0.9687(2) 0.1735(2)
H1 H -0.0206(3) 0.9561(2) 0.1683(2)
C4 C 0.3403(4) 0.8776(3) -0.0137(3)
N2 N 0.2656(3) 1.1522(2) -0.0736(2)
H2 H 0.3072(3) 1.1887(2) -0.0439(2)
O1 O 0.5669(3) 0.74178(19) -0.0167(2)
C5 C 0.2481(4) 0.8790(3) 0.0637(3)
O2 O 0.3741(3) 0.7376(2) -0.0990(2)
C6 C 0.1564(4) 0.9693(3) 0.0945(3)
C7 C 0.1605(4) 1.0593(3) 0.0464(3)
C8 C 0.4405(4) 0.7782(3) -0.0434(3)
O3 O 0.2141(3) 1.0139(2) 0.26666(19)
C9 C 0.0033(5) 0.9739(3) 0.3359(3)
H3 H 0.0545(13) 0.9145(13) 0.3759(11)
H4 H -0.023(3) 1.0339(10) 0.3710(12)
H5 H -0.0872(15) 0.965(2) 0.3127(3)
O4 O 0.1428(3) 1.1447(2) -0.20176(19)
C10 C 0.2152(4) 1.1857(3) -0.1594(3)
C11 C 0.2589(5) 1.2755(3) -0.1994(3)
H6 H 0.330(3) 1.2555(6) -0.2500(14)
H7 H 0.1706(7) 1.3281(9) -0.2226(19)
H8 H 0.304(3) 1.3015(14) -0.1518(6)
H9 H 0.420(6) 0.682(4) -0.104(4)
I4 I 0.49282(3) 0.429411(19) 0.656724(17)
I5 I 0.01595(3) 0.687273(19) 0.402614(19)
I6 I 0.31206(4) 0.25260(2) 0.33426(2)
O5 O 0.6042(3) 0.2407(2) 0.5062(2)
N3 N 0.2444(3) 0.6226(2) 0.5693(2)
H10 H 0.2784(3) 0.6680(2) 0.5382(2)
C12 C 0.3611(4) 0.3593(3) 0.4985(3)
C13 C 0.3460(4) 0.4423(3) 0.5492(3)
O6 O 0.4141(3) 0.1944(2) 0.5695(2)
C14 C 0.1817(4) 0.4671(3) 0.3906(3)
C15 C 0.2792(4) 0.3730(3) 0.4186(3)
C16 C 0.2468(4) 0.5360(3) 0.5234(3)
N4 N 0.1047(3) 0.4790(2) 0.3057(2)
H11 H 0.0174(3) 0.4686(2) 0.3059(2)
C17 C 0.1623(4) 0.5470(3) 0.4446(3)
C18 C 0.4721(4) 0.2589(3) 0.5252(3)
C19 C 0.1956(4) 0.6415(3) 0.6550(3)
C20 C 0.1629(4) 0.5056(3) 0.2268(3)
C21 C 0.2149(6) 0.7346(3) 0.6892(3)
H12 H 0.277(3) 0.7164(4) 0.7437(14)
H13 H 0.262(3) 0.7681(14) 0.6412(9)
H14 H 0.1175(6) 0.7804(12) 0.705(2)
O7 O 0.1392(3) 0.5861(2) 0.7039(2)
O8 O 0.2779(3) 0.5321(2) 0.22324(19)
C22 C 0.0850(5) 0.5013(4) 0.1405(3)
H15 H 0.1464(16) 0.4459(15) 0.1058(11)
H16 H -0.0107(16) 0.490(2) 0.1563(3)
H17 H 0.068(3) 0.5652(9) 0.1030(10)
H18 H 0.477(7) 0.139(5) 0.577(4)
O9 O 0.6137(3) 0.0221(2) 0.5855(2)
C23 C 0.7017(5) -0.0007(3) 0.5030(3)
H19 H 0.6368(6) 0.018(2) 0.4496(3)
H20 H 0.774(2) 0.0371(17) 0.4980(11)
H21 H 0.754(3) -0.0731(5) 0.5052(9)
H22 H 0.666(6) 0.011(4) 0.626(4)
O10 O 0.4857(4) 0.5518(2) 0.8868(3)
C24 C 0.3721(5) 0.5042(3) 0.9035(3)
H23 H 0.4172(5) 0.4329(6) 0.923(2)
H24 H 0.304(2) 0.5374(15) 0.9515(15)
H25 H 0.317(2) 0.509(2) 0.8469(6)
H26 H 0.559(8) 0.522(5) 0.852(5)
loop_
_geom_bond_atom_site_label_1
_geom_bond_atom_site_label_2
_geom_bond_site_symmetry_1
_geom_bond_site_symmetry_2
I1 C5 1_555 1_555
I2 C1 1_555 1_555
I3 C7 1_555 1_555
C1 C2 1_555 1_555
C2 N2 1_555 1_555
C3 N1 1_555 1_555
N1 H1 1_555 1_555
C4 C1 1_555 1_555
N2 H2 1_555 1_555
O1 C8 1_555 1_555
C5 C4 1_555 1_555
O2 C8 1_555 1_555
C6 N1 1_555 1_555
C7 C2 1_555 1_555
C8 C4 1_555 1_555
O3 C3 1_555 1_555
C9 C3 1_555 1_555
H3 C9 1_555 1_555
H4 C9 1_555 1_555
H5 C9 1_555 1_555
O4 C10 1_555 1_555
C10 N2 1_555 1_555
C11 C10 1_555 1_555
H6 C11 1_555 1_555
H7 C11 1_555 1_555
H8 C11 1_555 1_555
H9 O2 1_555 1_555
I4 C13 1_555 1_555
I5 C17 1_555 1_555
I6 C15 1_555 1_555
O5 C18 1_555 1_555
N3 H10 1_555 1_555
C12 C13 1_555 1_555
C13 C16 1_555 1_555
O6 C18 1_555 1_555
C14 C15 1_555 1_555
C15 C12 1_555 1_555
C16 N3 1_555 1_555
N4 C14 1_555 1_555
H11 N4 1_555 1_555
C17 C14 1_555 1_555
C18 C12 1_555 1_555
C19 N3 1_555 1_555
C20 N4 1_555 1_555
C21 C19 1_555 1_555
H12 C21 1_555 1_555
H13 C21 1_555 1_555
H14 C21 1_555 1_555
O7 C19 1_555 1_555
O8 C20 1_555 1_555
C22 C20 1_555 1_555
H15 C22 1_555 1_555
H16 C22 1_555 1_555
H17 C22 1_555 1_555
H18 O6 1_555 1_555
O9 C23 1_555 1_555
C23 H19 1_555 1_555
H20 C23 1_555 1_555
H21 C23 1_555 1_555
H22 O9 1_555 1_555
O10 C24 1_555 1_555
C24 H23 1_555 1_555
H24 C24 1_555 1_555
H25 C24 1_555 1_555
H26 O10 1_555 1_555
C5 C6 1_555 1_555
C6 C7 1_555 1_555
C16 C17 1_555 1_555

#END
