
#######################################################################
#
#                 Cambridge Crystallographic Data Centre
#                                CCDC 
#
#######################################################################
#
# If this CIF has been generated from an entry in the Cambridge 
# Structural Database, then it will include bibliographic, chemical, 
# crystal, experimental, refinement or atomic coordinate data resulting 
# from the CCDC's data processing and validation procedures.
#
#######################################################################

data_PUFMEJ
_chemical_formula_moiety         'C11 H9 N3 O3'
_chemical_name_systematic        
1-(2-Furylmethylene)-2-(2-nitrophenyl)hydrazine
_symmetry_cell_setting           monoclinic
_symmetry_space_group_name_H-M   'P 21/n'
_symmetry_Int_Tables_number      14
_space_group_name_Hall           '-P 2yn'
loop_
_symmetry_equiv_pos_site_id
_symmetry_equiv_pos_as_xyz
1 x,y,z
2 1/2-x,1/2+y,1/2-z
3 -x,-y,-z
4 1/2+x,1/2-y,1/2+z
_cell_length_a                   15.852(3)
_cell_length_b                   3.8000(12)
_cell_length_c                   17.721(4)
_cell_angle_alpha                90
_cell_angle_beta                 97.89(2)
_cell_angle_gamma                90
_cell_volume                     1057.37
_exptl_crystal_colour            red
_exptl_crystal_description       block
_cell_formula_units_Z            4
_exptl_crystal_recrystallization_method methanol
loop_
_atom_site_label
_atom_site_type_symbol
_atom_site_fract_x
_atom_site_fract_y
_atom_site_fract_z
C1 C 0.5620(4) -0.1566(18) 0.1304(3)
H1 H 0.5467 -0.2470 0.0817
C2 C 0.6396(4) -0.0571(18) 0.1574(4)
H2 H 0.6878 -0.0666 0.1328
C3 C 0.6342(3) 0.0688(15) 0.2323(3)
H3 H 0.6781 0.1673 0.2659
C4 C 0.5541(3) 0.0181(15) 0.2450(3)
C5 C 0.5169(3) 0.1022(14) 0.3106(2)
H4 H 0.5500 0.2188 0.3502
C6 C 0.3320(2) 0.0389(13) 0.3999(2)
C7 C 0.2756(2) -0.1246(13) 0.3415(3)
H5 H 0.2938 -0.1806 0.2952
C8 C 0.1937(3) -0.2002(14) 0.3537(3)
H6 H 0.1574 -0.3116 0.3154
C9 C 0.1634(3) -0.1163(15) 0.4210(3)
H7 H 0.1071 -0.1636 0.4269
C10 C 0.2168(3) 0.0365(14) 0.4787(3)
H8 H 0.1979 0.0861 0.5250
C11 C 0.3009(2) 0.1184(13) 0.4672(2)
N1 N 0.4392(2) 0.0254(11) 0.3182(2)
N2 N 0.4128(2) 0.1163(11) 0.3862(2)
H9 H 0.4473 0.2227 0.4205
N3 N 0.3518(2) 0.2903(12) 0.5299(2)
O1 O 0.42600(19) 0.3693(10) 0.52361(17)
O2 O 0.32065(19) 0.3559(12) 0.58821(19)
O3 O 0.5066(2) -0.1130(12) 0.1815(2)
loop_
_geom_bond_atom_site_label_1
_geom_bond_atom_site_label_2
_geom_bond_site_symmetry_1
_geom_bond_site_symmetry_2
C1 H1 1_555 1_555
C2 C1 1_555 1_555
H2 C2 1_555 1_555
C3 C2 1_555 1_555
H3 C3 1_555 1_555
C4 C3 1_555 1_555
C5 C4 1_555 1_555
H4 C5 1_555 1_555
C6 C7 1_555 1_555
C7 H5 1_555 1_555
C8 C7 1_555 1_555
H6 C8 1_555 1_555
C9 C8 1_555 1_555
H7 C9 1_555 1_555
C10 C9 1_555 1_555
H8 C10 1_555 1_555
C11 C6 1_555 1_555
N1 C5 1_555 1_555
N2 C6 1_555 1_555
H9 N2 1_555 1_555
N3 C11 1_555 1_555
O1 N3 1_555 1_555
O2 N3 1_555 1_555
O3 C1 1_555 1_555
C4 O3 1_555 1_555
C10 C11 1_555 1_555
N1 N2 1_555 1_555

#END
