
#######################################################################
#
#                 Cambridge Crystallographic Data Centre
#                                CCDC 
#
#######################################################################
#
# If this CIF has been generated from an entry in the Cambridge 
# Structural Database, then it will include bibliographic, chemical, 
# crystal, experimental, refinement or atomic coordinate data resulting 
# from the CCDC's data processing and validation procedures.
#
#######################################################################

data_PUFNAH
_chemical_formula_moiety         'C19 H26 N4'
_chemical_name_systematic        
N,N'-diisopropyl-1,2-diphenylhydrazinecarboximidamide
_symmetry_cell_setting           triclinic
_symmetry_space_group_name_H-M   'P -1'
_symmetry_Int_Tables_number      2
_space_group_name_Hall           '-P 1'
loop_
_symmetry_equiv_pos_site_id
_symmetry_equiv_pos_as_xyz
1 x,y,z
2 -x,-y,-z
_cell_length_a                   9.0374(5)
_cell_length_b                   9.8325(7)
_cell_length_c                   11.6485(6)
_cell_angle_alpha                65.718(6)
_cell_angle_beta                 83.584(4)
_cell_angle_gamma                73.059(5)
_cell_volume                     902.534
_exptl_crystal_colour            colorless
_exptl_crystal_description       block
_cell_formula_units_Z            2
loop_
_atom_site_label
_atom_site_type_symbol
_atom_site_fract_x
_atom_site_fract_y
_atom_site_fract_z
N1 N 0.92084(17) 0.56092(19) 0.28467(15)
N2 N 1.07061(16) 0.53444(19) 0.32575(15)
H1 H 1.0929 0.5962 0.3519
N3 N 0.88086(17) 0.36838(19) 0.47238(15)
N4 N 0.71360(18) 0.4585(2) 0.29738(15)
H2 H 0.6310 0.4475 0.3405
C1 C 0.8574(2) 0.7107(2) 0.19096(17)
C2 C 0.7135(2) 0.8031(3) 0.2034(2)
H3 H 0.6559 0.7687 0.2756
C3 C 0.6555(3) 0.9472(3) 0.1077(2)
H4 H 0.5585 1.0088 0.1160
C4 C 0.7399(3) 0.9998(3) 0.0007(2)
H5 H 0.7003 1.0962 -0.0634
C5 C 0.8842(3) 0.9080(3) -0.0105(2)
H6 H 0.9420 0.9431 -0.0825
C6 C 0.9429(2) 0.7658(3) 0.08333(19)
H7 H 1.0407 0.7055 0.0750
C7 C 1.1815(2) 0.4042(2) 0.32236(18)
C8 C 1.1774(2) 0.3443(3) 0.2336(2)
H8 H 1.0958 0.3892 0.1761
C9 C 1.2943(3) 0.2182(3) 0.2305(2)
H9 H 1.2899 0.1787 0.1713
C10 C 1.4171(2) 0.1506(3) 0.3141(2)
H10 H 1.4958 0.0665 0.3111
C11 C 1.4216(2) 0.2097(3) 0.4026(2)
H11 H 1.5036 0.1643 0.4598
C12 C 1.3060(2) 0.3350(2) 0.40684(19)
H12 H 1.3109 0.3737 0.4665
C13 C 0.8366(2) 0.4558(2) 0.35815(17)
C14 C 0.8246(2) 0.2312(2) 0.54041(19)
H13 H 0.7929 0.2001 0.4792
C15 C 0.6867(3) 0.2631(3) 0.6228(2)
H14 H 0.7156 0.2973 0.6811
H15 H 0.6552 0.1699 0.6684
H16 H 0.6026 0.3421 0.5706
C16 C 0.9577(3) 0.1012(3) 0.6197(2)
H17 H 1.0434 0.0834 0.5662
H18 H 0.9249 0.0083 0.6621
H19 H 0.9888 0.1300 0.6808
C17 C 0.7094(2) 0.4782(3) 0.16557(19)
H20 H 0.7832 0.5365 0.1177
C18 C 0.5488(3) 0.5718(3) 0.1120(2)
H21 H 0.4754 0.5151 0.1565
H22 H 0.5468 0.5911 0.0244
H23 H 0.5225 0.6687 0.1212
C19 C 0.7564(3) 0.3219(3) 0.1556(2)
H24 H 0.8592 0.2668 0.1888
H25 H 0.7538 0.3374 0.0688
H26 H 0.6858 0.2628 0.2028
loop_
_geom_bond_atom_site_label_1
_geom_bond_atom_site_label_2
_geom_bond_site_symmetry_1
_geom_bond_site_symmetry_2
N1 N2 1_555 1_555
N2 H1 1_555 1_555
N3 C13 1_555 1_555
N4 H2 1_555 1_555
C1 N1 1_555 1_555
C2 C1 1_555 1_555
H3 C2 1_555 1_555
C3 C2 1_555 1_555
H4 C3 1_555 1_555
C4 C3 1_555 1_555
H5 C4 1_555 1_555
C5 C4 1_555 1_555
H6 C5 1_555 1_555
C6 C1 1_555 1_555
H7 C6 1_555 1_555
C7 N2 1_555 1_555
C8 C7 1_555 1_555
H8 C8 1_555 1_555
C9 C8 1_555 1_555
H9 C9 1_555 1_555
C10 C9 1_555 1_555
H10 C10 1_555 1_555
C11 C10 1_555 1_555
H11 C11 1_555 1_555
C12 C7 1_555 1_555
H12 C12 1_555 1_555
C13 N1 1_555 1_555
C14 N3 1_555 1_555
H13 C14 1_555 1_555
C15 C14 1_555 1_555
H14 C15 1_555 1_555
H15 C15 1_555 1_555
H16 C15 1_555 1_555
C16 C14 1_555 1_555
H17 C16 1_555 1_555
H18 C16 1_555 1_555
H19 C16 1_555 1_555
C17 N4 1_555 1_555
H20 C17 1_555 1_555
C18 C17 1_555 1_555
H21 C18 1_555 1_555
H22 C18 1_555 1_555
H23 C18 1_555 1_555
C19 C17 1_555 1_555
H24 C19 1_555 1_555
H25 C19 1_555 1_555
H26 C19 1_555 1_555
N4 C13 1_555 1_555
C5 C6 1_555 1_555
C11 C12 1_555 1_555

#END
