
#######################################################################
#
#                 Cambridge Crystallographic Data Centre
#                                CCDC 
#
#######################################################################
#
# If this CIF has been generated from an entry in the Cambridge 
# Structural Database, then it will include bibliographic, chemical, 
# crystal, experimental, refinement or atomic coordinate data resulting 
# from the CCDC's data processing and validation procedures.
#
#######################################################################

data_PUFQIR
_chemical_formula_moiety         'C15 H20 N2 O2 S2'
_chemical_name_systematic        
2-(2,2'-Bithiophen-5-yl)-4,4,5,5-tetramethylimidazolidine-1,3-diol
_symmetry_cell_setting           monoclinic
_symmetry_space_group_name_H-M   'P 21/c'
_symmetry_Int_Tables_number      14
_space_group_name_Hall           '-P 2ybc'
loop_
_symmetry_equiv_pos_site_id
_symmetry_equiv_pos_as_xyz
1 x,y,z
2 -x,1/2+y,1/2-z
3 -x,-y,-z
4 x,1/2-y,1/2+z
_cell_length_a                   10.6354(9)
_cell_length_b                   14.1681(11)
_cell_length_c                   11.2805(9)
_cell_angle_alpha                90
_cell_angle_beta                 105.3030(10)
_cell_angle_gamma                90
_cell_volume                     1639.52
_exptl_crystal_colour            yellow
_exptl_crystal_description       block
_cell_formula_units_Z            4
loop_
_atom_site_label
_atom_site_type_symbol
_atom_site_fract_x
_atom_site_fract_y
_atom_site_fract_z
C1 C 0.6700(7) 0.8947(6) 0.4183(8)
C2 C 0.8101(8) 0.8619(7) 0.4739(8)
C3 C 0.6714(9) 0.9508(6) 0.3067(8)
H1 H 0.5986 0.9934 0.2880
H2 H 0.6653 0.9089 0.2385
H3 H 0.7511 0.9861 0.3218
C4 C 0.5596(7) 0.8196(7) 0.3814(9)
H4 H 0.5562 0.7833 0.4524
H5 H 0.5769 0.7785 0.3199
H6 H 0.4775 0.8508 0.3490
C5 C 0.9001(9) 0.8229(10) 0.3972(12)
H7 H 0.8969 0.8642 0.3290
H8 H 0.8711 0.7611 0.3671
H9 H 0.9880 0.8192 0.4479
C6 C 0.8091(7) 0.7922(6) 0.5738(8)
H10 H 0.8969 0.7805 0.6211
H11 H 0.7702 0.7342 0.5378
H12 H 0.7595 0.8174 0.6263
S1 S 0.6350(2) 1.40476(16) 0.4426(2)
S2 S 0.74023(12) 1.17491(9) 0.49293(11)
O1 O 0.5777(4) 0.9298(3) 0.6033(4)
H13 H 0.5045 0.9529 0.5855
O2 O 0.9841(3) 0.9332(3) 0.6089(4)
H14 H 1.0454 0.9583 0.5897
N1 N 0.6461(4) 0.9602(3) 0.5163(4)
N2 N 0.8655(3) 0.9558(3) 0.5197(4)
C7 C 0.6974(9) 1.5120(6) 0.4371(8)
H15 H 0.6530 1.5603 0.3874
C8 C 0.8181(9) 1.5221(5) 0.5115(8)
H16 H 0.8625 1.5793 0.5207
C9 C 0.8731(6) 1.4392(4) 0.5749(5)
H17 H 0.9570 1.4324 0.6258
C10 C 0.7722(6) 1.3667(4) 0.5449(6)
C11 C 0.7846(5) 1.2694(4) 0.5918(5)
C12 C 0.8325(6) 1.2398(4) 0.7094(5)
H18 H 0.8620 1.2804 0.7756
C13 C 0.8328(5) 1.1404(4) 0.7203(5)
H19 H 0.8621 1.1091 0.7949
C14 C 0.7862(4) 1.0950(4) 0.6116(4)
C15 C 0.7760(4) 0.9912(4) 0.5900(4)
H20 H 0.7959 0.9590 0.6696
C16? C 0.6730(10) 0.8554(9) 0.4823(11)
C17? C 0.7868(12) 0.8817(10) 0.4320(12)
C18? C 0.5393(10) 0.8175(15) 0.4089(14)
C19? C 0.7288(11) 0.7876(9) 0.5854(10)
C20? C 0.7297(15) 0.9229(12) 0.3061(12)
C21? C 0.8746(13) 0.8081(13) 0.3946(19)
H21? H 0.5516 0.7631 0.3624
H22? H 0.4940 0.8655 0.3540
H23? H 0.4889 0.8001 0.4647
H24? H 0.7442 0.7278 0.5519
H25? H 0.6682 0.7797 0.6345
H26? H 0.8094 0.8122 0.6356
H27? H 0.6746 0.8769 0.2550
H28? H 0.7988 0.9402 0.2702
H29? H 0.6793 0.9779 0.3129
H30? H 0.9354 0.7839 0.4668
H31? H 0.9214 0.8370 0.3420
H32? H 0.8220 0.7574 0.3516
loop_
_geom_bond_atom_site_label_1
_geom_bond_atom_site_label_2
_geom_bond_site_symmetry_1
_geom_bond_site_symmetry_2
C1 C2 1_555 1_555
C2 C5 1_555 1_555
C3 C1 1_555 1_555
H1 C3 1_555 1_555
H2 C3 1_555 1_555
H3 C3 1_555 1_555
C4 C1 1_555 1_555
H4 C4 1_555 1_555
H5 C4 1_555 1_555
H6 C4 1_555 1_555
C5 H7 1_555 1_555
H8 C5 1_555 1_555
H9 C5 1_555 1_555
C6 C2 1_555 1_555
H10 C6 1_555 1_555
H11 C6 1_555 1_555
H12 C6 1_555 1_555
S1 C7 1_555 1_555
S2 C11 1_555 1_555
O1 H13 1_555 1_555
O2 H14 1_555 1_555
N1 C1 1_555 1_555
N2 C2 1_555 1_555
C7 H15 1_555 1_555
C8 C7 1_555 1_555
H16 C8 1_555 1_555
C9 C8 1_555 1_555
H17 C9 1_555 1_555
C10 S1 1_555 1_555
C11 C10 1_555 1_555
C12 C11 1_555 1_555
H18 C12 1_555 1_555
C13 C12 1_555 1_555
H19 C13 1_555 1_555
C14 S2 1_555 1_555
C15 N1 1_555 1_555
H20 C15 1_555 1_555
O1 N1 1_555 1_555
O2 N2 1_555 1_555
N2 C15 1_555 1_555
C9 C10 1_555 1_555
C13 C14 1_555 1_555
C14 C15 1_555 1_555

#END
