
#######################################################################
#
#                 Cambridge Crystallographic Data Centre
#                                CCDC 
#
#######################################################################
#
# If this CIF has been generated from an entry in the Cambridge 
# Structural Database, then it will include bibliographic, chemical, 
# crystal, experimental, refinement or atomic coordinate data resulting 
# from the CCDC's data processing and validation procedures.
#
#######################################################################

data_PUFRAK
_chemical_formula_moiety         'C20 H12 Cl2 F3 N5 O2 S1'
_chemical_name_systematic        
N-(1-(2,6-Dichloro-4-(trifluoromethyl)phenyl)-3-cyano-1H-pyrazol-5-yl)-N'-(4-methoxybenzoyl)thiourea
_symmetry_cell_setting           monoclinic
_symmetry_space_group_name_H-M   'C c'
_symmetry_Int_Tables_number      9
_space_group_name_Hall           'C -2yc'
loop_
_symmetry_equiv_pos_site_id
_symmetry_equiv_pos_as_xyz
1 x,y,z
2 x,-y,1/2+z
3 1/2+x,1/2+y,z
4 1/2+x,1/2-y,1/2+z
_cell_length_a                   12.501(5)
_cell_length_b                   24.987(9)
_cell_length_c                   7.667(3)
_cell_angle_alpha                90
_cell_angle_beta                 108.185(7)
_cell_angle_gamma                90
_cell_volume                     2275.27
_exptl_crystal_colour            colorless
_exptl_crystal_description       block
_chemical_melting_point          '473-475 K'
_cell_formula_units_Z            4
_exptl_crystal_recrystallization_method acetone
loop_
_atom_site_label
_atom_site_type_symbol
_atom_site_fract_x
_atom_site_fract_y
_atom_site_fract_z
Cl1 Cl 1.05454(19) 0.15996(8) 0.4248(3)
Cl2 Cl 0.77715(15) 0.23343(7) -0.2144(3)
S1 S 0.64484(12) 0.30523(6) 0.3870(2)
F1 F 0.8440(6) 0.0117(3) -0.1808(16)
F2 F 1.0141(7) 0.0108(3) -0.0694(14)
F3 F 0.9474(15) 0.0485(3) -0.3120(14)
O1 O 0.6942(4) 0.13292(19) 0.2546(9)
O2 O 0.2574(4) 0.01187(19) 0.2868(8)
N1 N 1.0946(5) 0.4062(3) 0.2810(10)
N2 N 0.9958(4) 0.27865(17) 0.1610(7)
N3 N 0.9182(3) 0.24285(16) 0.1752(6)
N4 N 0.7656(4) 0.22945(18) 0.2851(7)
H1 H 0.7711 0.1961 0.2619
N5 N 0.6054(4) 0.20197(18) 0.3399(7)
H2 H 0.5488 0.2098 0.3764
C1 C 0.9304(13) 0.0402(4) -0.1551(14)
C2 C 0.9227(6) 0.0936(2) -0.0662(9)
C3 C 0.9813(6) 0.1004(2) 0.1172(10)
H3 H 1.0218 0.0722 0.1864
C4 C 0.9785(5) 0.1489(2) 0.1948(8)
C5 C 0.9164(4) 0.1910(2) 0.0955(8)
C6 C 0.8562(4) 0.1815(2) -0.0846(8)
C7 C 0.8575(6) 0.1329(2) -0.1665(9)
H4 H 0.8147 0.1270 -0.2881
C8 C 0.8503(4) 0.2629(2) 0.2666(7)
C9 C 0.8838(5) 0.3137(2) 0.3177(8)
H5 H 0.8537 0.3377 0.3826
C10 C 0.9746(4) 0.3216(2) 0.2494(8)
C11 C 1.0431(5) 0.3682(3) 0.2668(9)
C12 C 0.6761(4) 0.2439(2) 0.3355(7)
C13 C 0.6130(5) 0.1496(2) 0.2941(9)
C14 C 0.5179(5) 0.1136(2) 0.2907(8)
C15 C 0.5338(5) 0.0593(3) 0.2881(11)
H6 H 0.6033 0.0460 0.2881
C16 C 0.4484(6) 0.0244(3) 0.2856(10)
H7 H 0.4604 -0.0123 0.2831
C17 C 0.3458(5) 0.0433(3) 0.2868(10)
C18 C 0.3286(5) 0.0980(3) 0.2872(10)
H8 H 0.2584 0.1111 0.2843
C19 C 0.4130(5) 0.1328(2) 0.2917(8)
H9 H 0.4010 0.1695 0.2954
C20 C 0.2674(7) -0.0449(3) 0.2673(14)
H10 H 0.2986 -0.0520 0.1701
H11 H 0.1944 -0.0611 0.2388
H12 H 0.3159 -0.0595 0.3801
loop_
_geom_bond_atom_site_label_1
_geom_bond_atom_site_label_2
_geom_bond_site_symmetry_1
_geom_bond_site_symmetry_2
Cl1 C4 1_555 1_555
Cl2 C6 1_555 1_555
S1 C12 1_555 1_555
F1 C1 1_555 1_555
F2 C1 1_555 1_555
F3 C1 1_555 1_555
O1 C13 1_555 1_555
O2 C17 1_555 1_555
N1 C11 1_555 1_555
N2 N3 1_555 1_555
N3 C5 1_555 1_555
N4 H1 1_555 1_555
N5 H2 1_555 1_555
C1 C2 1_555 1_555
C2 C3 1_555 1_555
C3 H3 1_555 1_555
C4 C3 1_555 1_555
C5 C4 1_555 1_555
C6 C5 1_555 1_555
C7 C2 1_555 1_555
H4 C7 1_555 1_555
C8 N3 1_555 1_555
C9 C8 1_555 1_555
H5 C9 1_555 1_555
C10 N2 1_555 1_555
C11 C10 1_555 1_555
C12 N4 1_555 1_555
C13 N5 1_555 1_555
C14 C13 1_555 1_555
C15 C14 1_555 1_555
H6 C15 1_555 1_555
C16 C15 1_555 1_555
H7 C16 1_555 1_555
C17 C16 1_555 1_555
C18 C17 1_555 1_555
H8 C18 1_555 1_555
C19 C14 1_555 1_555
H9 C19 1_555 1_555
C20 O2 1_555 1_555
H10 C20 1_555 1_555
H11 C20 1_555 1_555
H12 C20 1_555 1_555
N4 C8 1_555 1_555
N5 C12 1_555 1_555
C6 C7 1_555 1_555
C9 C10 1_555 1_555
C18 C19 1_555 1_555

#END
