
#######################################################################
#
#                 Cambridge Crystallographic Data Centre
#                                CCDC 
#
#######################################################################
#
# If this CIF has been generated from an entry in the Cambridge 
# Structural Database, then it will include bibliographic, chemical, 
# crystal, experimental, refinement or atomic coordinate data resulting 
# from the CCDC's data processing and validation procedures.
#
#######################################################################

data_PUFSOZ
_chemical_formula_moiety         'C18 H19 N1 O1'
_chemical_name_systematic        
5,5-Dimethyl-3-(naphthalen-1-ylamino)cyclohex-2-en-1-one
_symmetry_cell_setting           monoclinic
_symmetry_space_group_name_H-M   'P 21/c'
_symmetry_Int_Tables_number      14
_space_group_name_Hall           '-P 2ybc'
loop_
_symmetry_equiv_pos_site_id
_symmetry_equiv_pos_as_xyz
1 x,y,z
2 -x,1/2+y,1/2-z
3 -x,-y,-z
4 x,1/2-y,1/2+z
_cell_length_a                   12.9788(5)
_cell_length_b                   11.6772(5)
_cell_length_c                   10.6376(4)
_cell_angle_alpha                90
_cell_angle_beta                 112.600(3)
_cell_angle_gamma                90
_cell_volume                     1488.39
_exptl_crystal_colour            yellow
_cell_formula_units_Z            4
loop_
_atom_site_label
_atom_site_type_symbol
_atom_site_fract_x
_atom_site_fract_y
_atom_site_fract_z
O1 O 0.18220(10) 0.03865(10) 0.60801(13)
N1 N 0.28022(12) 0.32241(12) 0.35932(14)
H1 H 0.2559 0.3667 0.2895
C1 C 0.23703(14) 0.17711(14) 0.48797(17)
H2 H 0.3020 0.1935 0.5627
C2 C 0.39086(15) 0.33986(14) 0.45788(18)
C3 C 0.40692(15) 0.40260(14) 0.57749(18)
C4 C 0.16655(15) 0.08846(15) 0.49838(19)
C5 C 0.21244(15) 0.23935(15) 0.37135(18)
C6 C 0.51733(17) 0.41632(15) 0.6745(2)
C7 C 0.10926(15) 0.21719(16) 0.24745(18)
H3 H 0.1296 0.1733 0.1830
H4 H 0.0795 0.2900 0.2051
C8 C 0.07120(15) 0.05276(16) 0.37069(19)
H5 H 0.0148 0.0157 0.3954
H6 H 0.0980 -0.0028 0.3226
C9 C 0.47865(18) 0.29469(15) 0.4361(2)
H7 H 0.4664 0.2536 0.3567
C10 C 0.01772(15) 0.15301(16) 0.27509(17)
C11 C 0.31845(17) 0.45253(16) 0.6043(2)
H8 H 0.2454 0.4433 0.5424
C12 C 0.5343(2) 0.48036(19) 0.7941(2)
H9 H 0.6062 0.4894 0.8591
C13 C 0.3394(2) 0.51418(18) 0.7203(2)
H10 H 0.2804 0.5473 0.7363
C14 C 0.58778(18) 0.30926(18) 0.5320(3)
H11 H 0.6475 0.2787 0.5155
C15 C 0.60639(17) 0.36775(17) 0.6487(2)
H12 H 0.6789 0.3759 0.7125
C16 C -0.03997(16) 0.23235(19) 0.3419(2)
H13 H 0.0149 0.2666 0.4216
H14 H -0.0918 0.1890 0.3673
H15 H -0.0792 0.2913 0.2788
C17 C 0.4480(3) 0.5283(2) 0.8152(2)
H16 H 0.4609 0.5711 0.8935
C18 C -0.06938(17) 0.1068(2) 0.1425(2)
H17 H -0.1040 0.1695 0.0828
H18 H -0.1250 0.0647 0.1619
H19 H -0.0338 0.0572 0.0994
loop_
_geom_bond_atom_site_label_1
_geom_bond_atom_site_label_2
_geom_bond_site_symmetry_1
_geom_bond_site_symmetry_2
O1 C4 1_555 1_555
N1 H1 1_555 1_555
C1 H2 1_555 1_555
C2 N1 1_555 1_555
C3 C2 1_555 1_555
C4 C1 1_555 1_555
C5 N1 1_555 1_555
C6 C3 1_555 1_555
C7 C5 1_555 1_555
H3 C7 1_555 1_555
H4 C7 1_555 1_555
C8 C4 1_555 1_555
H5 C8 1_555 1_555
H6 C8 1_555 1_555
C9 C2 1_555 1_555
H7 C9 1_555 1_555
C10 C7 1_555 1_555
C11 C3 1_555 1_555
H8 C11 1_555 1_555
C12 C6 1_555 1_555
H9 C12 1_555 1_555
C13 C11 1_555 1_555
H10 C13 1_555 1_555
C14 C9 1_555 1_555
H11 C14 1_555 1_555
C15 C6 1_555 1_555
H12 C15 1_555 1_555
C16 C10 1_555 1_555
H13 C16 1_555 1_555
H14 C16 1_555 1_555
H15 C16 1_555 1_555
C17 C12 1_555 1_555
H16 C17 1_555 1_555
C18 C10 1_555 1_555
H17 C18 1_555 1_555
H18 C18 1_555 1_555
H19 C18 1_555 1_555
C1 C5 1_555 1_555
C8 C10 1_555 1_555
C13 C17 1_555 1_555
C14 C15 1_555 1_555

#END
