
#######################################################################
#
#                 Cambridge Crystallographic Data Centre
#                                CCDC 
#
#######################################################################
#
# If this CIF has been generated from an entry in the Cambridge 
# Structural Database, then it will include bibliographic, chemical, 
# crystal, experimental, refinement or atomic coordinate data resulting 
# from the CCDC's data processing and validation procedures.
#
#######################################################################

data_PUFTIV
_chemical_formula_moiety         'C48 H42 O6 S2'
_chemical_name_systematic        
9,9'-(hexane-1,6-diylbis(oxy))bis(10-((4-methylphenyl)sulfonyl)phenanthrene)
_symmetry_cell_setting           monoclinic
_symmetry_space_group_name_H-M   'P 21/c'
_symmetry_Int_Tables_number      14
_space_group_name_Hall           '-P 2ybc'
loop_
_symmetry_equiv_pos_site_id
_symmetry_equiv_pos_as_xyz
1 x,y,z
2 -x,1/2+y,1/2-z
3 -x,-y,-z
4 x,1/2-y,1/2+z
_cell_length_a                   12.4538(18)
_cell_length_b                   17.095(3)
_cell_length_c                   8.9358(13)
_cell_angle_alpha                90
_cell_angle_beta                 97.485(3)
_cell_angle_gamma                90
_cell_volume                     1886.2
_exptl_crystal_colour            colorless
_exptl_crystal_description       tabular
_cell_formula_units_Z            2
loop_
_atom_site_label
_atom_site_type_symbol
_atom_site_fract_x
_atom_site_fract_y
_atom_site_fract_z
S1 S 0.22519(4) 0.95773(3) 0.69483(6)
C1 C 0.17556(15) 0.96260(12) 0.2784(2)
H1 H 0.2367 0.9659 0.2181
H2 H 0.1692 1.0136 0.3290
O1 O 0.18025(11) 1.02397(8) 0.60916(17)
O2 O 0.26412(12) 0.97040(10) 0.85147(17)
C2 C -0.13211(19) 0.71611(14) 0.7016(3)
H3 H -0.1929 0.7404 0.7437
H4 H -0.1058 0.6711 0.7636
H5 H -0.1562 0.6987 0.5982
C3 C -0.04174(17) 0.77508(13) 0.7004(3)
C4 C -0.05560(16) 0.83948(12) 0.6048(2)
H6 H -0.1228 0.8465 0.5426
C5 C 0.02640(16) 0.89360(12) 0.5981(2)
H7 H 0.0159 0.9366 0.5305
C6 C 0.12382(16) 0.88459(12) 0.6907(2)
C7 C 0.33162(16) 0.91721(12) 0.6014(2)
C8 C 0.30242(15) 0.89599(11) 0.4548(2)
O3 O 0.19618(10) 0.90102(8) 0.39093(15)
C9 C 0.07222(16) 0.94514(12) 0.1762(2)
H8 H 0.0111 0.9425 0.2367
H9 H 0.0784 0.8937 0.1271
C10 C 0.05001(16) 1.00848(12) 0.0559(2)
H10 H 0.0404 1.0593 0.1058
H11 H 0.1136 1.0131 0.0005
C11 C 0.13963(17) 0.82145(13) 0.7887(3)
H12 H 0.2063 0.8154 0.8527
C12 C 0.05703(18) 0.76709(14) 0.7923(3)
H13 H 0.0681 0.7236 0.8588
C13 C 0.37897(16) 0.86451(12) 0.3629(2)
C14 C 0.48984(17) 0.86343(12) 0.4220(2)
C15 C 0.52222(16) 0.88551(12) 0.5777(3)
C16 C 0.44382(16) 0.91015(12) 0.6716(2)
C17 C 0.48030(18) 0.92541(14) 0.8238(3)
H14 H 0.4297 0.9422 0.8880
C18 C 0.58712(18) 0.91678(14) 0.8830(3)
H15 H 0.6089 0.9274 0.9869
C19 C 0.66316(18) 0.89284(14) 0.7931(3)
H16 H 0.7367 0.8863 0.8350
C20 C 0.63139(17) 0.87864(13) 0.6431(3)
H17 H 0.6844 0.8637 0.5811
C21 C 0.56425(19) 0.83631(14) 0.3259(3)
H18 H 0.6397 0.8376 0.3600
C22 C 0.52856(19) 0.80853(14) 0.1853(3)
H19 H 0.5796 0.7903 0.1231
C23 C 0.41776(19) 0.80635(14) 0.1306(3)
H20 H 0.3941 0.7856 0.0332
C24 C 0.34451(18) 0.83403(13) 0.2175(2)
H21 H 0.2695 0.8329 0.1803
S1B S -0.22519(4) 1.04227(3) -0.69483(6)
C1B C -0.17556(15) 1.03740(12) -0.2784(2)
H1B H -0.2367 1.0341 -0.2181
H2B H -0.1692 0.9864 -0.3290
O1B O -0.18025(11) 0.97603(8) -0.60916(17)
O2B O -0.26412(12) 1.02960(10) -0.85147(17)
C2B C 0.13211(19) 1.28389(14) -0.7016(3)
H3B H 0.1929 1.2596 -0.7437
H4B H 0.1058 1.3289 -0.7636
H5B H 0.1562 1.3013 -0.5982
C3B C 0.04174(17) 1.22492(13) -0.7004(3)
C4B C 0.05560(16) 1.16052(12) -0.6048(2)
H6B H 0.1228 1.1535 -0.5426
C5B C -0.02640(16) 1.10640(12) -0.5981(2)
H7B H -0.0159 1.0634 -0.5305
C6B C -0.12382(16) 1.11541(12) -0.6907(2)
C7B C -0.33162(16) 1.08279(12) -0.6014(2)
C8B C -0.30242(15) 1.10401(11) -0.4548(2)
O3B O -0.19618(10) 1.09898(8) -0.39093(15)
C9B C -0.07222(16) 1.05486(12) -0.1762(2)
H8B H -0.0111 1.0575 -0.2367
H9B H -0.0784 1.1063 -0.1271
C10B C -0.05001(16) 0.99152(12) -0.0559(2)
H10B H -0.0404 0.9407 -0.1058
H11B H -0.1136 0.9869 -0.0005
C11B C -0.13963(17) 1.17855(13) -0.7887(3)
H12B H -0.2063 1.1846 -0.8527
C12B C -0.05703(18) 1.23291(14) -0.7923(3)
H13B H -0.0681 1.2764 -0.8588
C13B C -0.37897(16) 1.13549(12) -0.3629(2)
C14B C -0.48984(17) 1.13657(12) -0.4220(2)
C15B C -0.52222(16) 1.11449(12) -0.5777(3)
C16B C -0.44382(16) 1.08985(12) -0.6716(2)
C17B C -0.48030(18) 1.07459(14) -0.8238(3)
H14B H -0.4297 1.0578 -0.8880
C18B C -0.58712(18) 1.08322(14) -0.8830(3)
H15B H -0.6089 1.0726 -0.9869
C19B C -0.66316(18) 1.10716(14) -0.7931(3)
H16B H -0.7367 1.1137 -0.8350
C20B C -0.63139(17) 1.12136(13) -0.6431(3)
H17B H -0.6844 1.1363 -0.5811
C21B C -0.56425(19) 1.16369(14) -0.3259(3)
H18B H -0.6397 1.1624 -0.3600
C22B C -0.52856(19) 1.19147(14) -0.1853(3)
H19B H -0.5796 1.2097 -0.1231
C23B C -0.41776(19) 1.19365(14) -0.1306(3)
H20B H -0.3941 1.2144 -0.0332
C24B C -0.34451(18) 1.16597(13) -0.2175(2)
H21B H -0.2695 1.1671 -0.1803
loop_
_geom_bond_atom_site_label_1
_geom_bond_atom_site_label_2
_geom_bond_site_symmetry_1
_geom_bond_site_symmetry_2
S1 O1 1_555 1_555
C1 H1 1_555 1_555
H2 C1 1_555 1_555
O2 S1 1_555 1_555
C2 H3 1_555 1_555
H4 C2 1_555 1_555
H5 C2 1_555 1_555
C3 C2 1_555 1_555
C4 C3 1_555 1_555
H6 C4 1_555 1_555
C5 C4 1_555 1_555
H7 C5 1_555 1_555
C6 S1 1_555 1_555
C7 S1 1_555 1_555
C8 C7 1_555 1_555
O3 C1 1_555 1_555
C9 C1 1_555 1_555
H8 C9 1_555 1_555
H9 C9 1_555 1_555
C10 C9 1_555 1_555
H10 C10 1_555 1_555
H11 C10 1_555 1_555
C11 C6 1_555 1_555
H12 C11 1_555 1_555
C12 C3 1_555 1_555
H13 C12 1_555 1_555
C13 C8 1_555 1_555
C14 C13 1_555 1_555
C15 C14 1_555 1_555
C16 C7 1_555 1_555
C17 C16 1_555 1_555
H14 C17 1_555 1_555
C18 C17 1_555 1_555
H15 C18 1_555 1_555
C19 C18 1_555 1_555
H16 C19 1_555 1_555
C20 C15 1_555 1_555
H17 C20 1_555 1_555
C21 C14 1_555 1_555
H18 C21 1_555 1_555
C22 C21 1_555 1_555
H19 C22 1_555 1_555
C23 C22 1_555 1_555
H20 C23 1_555 1_555
C24 C13 1_555 1_555
H21 C24 1_555 1_555
S1B O1B 1_555 1_555
C1B H1B 1_555 1_555
H2B C1B 1_555 1_555
O2B S1B 1_555 1_555
C2B H3B 1_555 1_555
H4B C2B 1_555 1_555
H5B C2B 1_555 1_555
C3B C2B 1_555 1_555
C4B C3B 1_555 1_555
H6B C4B 1_555 1_555
C5B C4B 1_555 1_555
H7B C5B 1_555 1_555
C6B S1B 1_555 1_555
C7B S1B 1_555 1_555
C8B C7B 1_555 1_555
O3B C1B 1_555 1_555
C9B C1B 1_555 1_555
H8B C9B 1_555 1_555
H9B C9B 1_555 1_555
C10B C10 1_555 1_555
H10B C10B 1_555 1_555
H11B C10B 1_555 1_555
C11B C6B 1_555 1_555
H12B C11B 1_555 1_555
C12B C3B 1_555 1_555
H13B C12B 1_555 1_555
C13B C8B 1_555 1_555
C14B C13B 1_555 1_555
C15B C14B 1_555 1_555
C16B C7B 1_555 1_555
C17B C16B 1_555 1_555
H14B C17B 1_555 1_555
C18B C17B 1_555 1_555
H15B C18B 1_555 1_555
C19B C18B 1_555 1_555
H16B C19B 1_555 1_555
C20B C15B 1_555 1_555
H17B C20B 1_555 1_555
C21B C14B 1_555 1_555
H18B C21B 1_555 1_555
C22B C21B 1_555 1_555
H19B C22B 1_555 1_555
C23B C22B 1_555 1_555
H20B C23B 1_555 1_555
C24B C13B 1_555 1_555
H21B C24B 1_555 1_555
C5 C6 1_555 1_555
C8 O3 1_555 1_555
C11 C12 1_555 1_555
C15 C16 1_555 1_555
C19 C20 1_555 1_555
C23 C24 1_555 1_555
C5B C6B 1_555 1_555
C8B O3B 1_555 1_555
C9B C10B 1_555 1_555
C11B C12B 1_555 1_555
C15B C16B 1_555 1_555
C19B C20B 1_555 1_555
C23B C24B 1_555 1_555

#END
