
#######################################################################
#
#                 Cambridge Crystallographic Data Centre
#                                CCDC 
#
#######################################################################
#
# If this CIF has been generated from an entry in the Cambridge 
# Structural Database, then it will include bibliographic, chemical, 
# crystal, experimental, refinement or atomic coordinate data resulting 
# from the CCDC's data processing and validation procedures.
#
#######################################################################

data_PUFTEP
_chemical_formula_moiety         'C23 H27 Cl1 O4'
_chemical_name_systematic        
2,2'-(4-Chlorophenyl)methylene-bis(3-hydroxy-5,5-dimethyl-2-cyclohexen-1-one)
_symmetry_cell_setting           monoclinic
_symmetry_space_group_name_H-M   'P 21/a'
_symmetry_Int_Tables_number      14
_space_group_name_Hall           '-P 2yab'
loop_
_symmetry_equiv_pos_site_id
_symmetry_equiv_pos_as_xyz
1 x,y,z
2 1/2-x,1/2+y,-z
3 -x,-y,-z
4 1/2+x,1/2-y,z
_cell_length_a                   13.270(2)
_cell_length_b                   11.806(2)
_cell_length_c                   15.017(3)
_cell_angle_alpha                90
_cell_angle_beta                 115.05(1)
_cell_angle_gamma                90
_cell_volume                     2131.35
_cell_formula_units_Z            4
loop_
_atom_site_label
_atom_site_type_symbol
_atom_site_fract_x
_atom_site_fract_y
_atom_site_fract_z
Cl1 Cl 0.18024(5) 0.24533(6) 0.42812(5)
O1 O 0.2852(1) 0.0652(1) 0.0944(1)
O2 O 0.6728(1) 0.0361(1) 0.2363(1)
O3 O 0.2835(1) -0.1270(1) 0.1774(1)
O4 O 0.6718(1) -0.1376(1) 0.3401(1)
C1 C 0.3833(2) 0.1817(2) 0.3013(2)
C2 C 0.3163(2) 0.2370(2) 0.3369(2)
C3 C 0.2715(2) 0.1772(2) 0.3895(2)
C4 C 0.2971(2) 0.0649(2) 0.4108(2)
C5 C 0.3642(2) 0.0112(2) 0.3744(2)
C6 C 0.4066(2) 0.0675(2) 0.3168(1)
C7 C 0.4829(2) 0.0096(2) 0.2772(1)
C8 C 0.4805(2) 0.0639(2) 0.1839(1)
C9 C 0.3824(2) 0.0948(2) 0.1034(2)
C10 C 0.3839(2) 0.1656(2) 0.0210(2)
C11 C 0.4920(2) 0.2288(2) 0.0430(2)
C12 C 0.5860(2) 0.1442(2) 0.0916(2)
C13 C 0.5806(2) 0.0794(2) 0.1752(2)
C14 C 0.4769(2) -0.1191(2) 0.2749(1)
C15 C 0.3756(2) -0.1774(2) 0.2290(2)
C16 C 0.3694(2) -0.3038(2) 0.2358(2)
C17 C 0.4683(2) -0.3588(2) 0.3201(2)
C18 C 0.5741(2) -0.3092(2) 0.3199(2)
C19 C 0.5740(2) -0.1827(2) 0.3124(1)
C20 C 0.5063(2) 0.3290(2) 0.1113(2)
C21 C 0.4934(2) 0.2726(2) -0.0523(2)
C22 C 0.4642(2) -0.3354(2) 0.4184(2)
C23 C 0.4655(2) -0.4865(2) 0.3042(2)
loop_
_geom_bond_atom_site_label_1
_geom_bond_atom_site_label_2
_geom_bond_site_symmetry_1
_geom_bond_site_symmetry_2
Cl1 C3 1_555 1_555
O1 C9 1_555 1_555
O2 C13 1_555 1_555
O3 C15 1_555 1_555
O4 C19 1_555 1_555
C1 C2 1_555 1_555
C2 C3 1_555 1_555
C3 C4 1_555 1_555
C4 C5 1_555 1_555
C5 C6 1_555 1_555
C6 C1 1_555 1_555
C7 C6 1_555 1_555
C8 C7 1_555 1_555
C9 C8 1_555 1_555
C10 C9 1_555 1_555
C11 C10 1_555 1_555
C12 C11 1_555 1_555
C13 C8 1_555 1_555
C14 C7 1_555 1_555
C15 C14 1_555 1_555
C16 C15 1_555 1_555
C17 C16 1_555 1_555
C18 C17 1_555 1_555
C19 C14 1_555 1_555
C20 C11 1_555 1_555
C21 C11 1_555 1_555
C22 C17 1_555 1_555
C23 C17 1_555 1_555
C12 C13 1_555 1_555
C18 C19 1_555 1_555

#END
