
#######################################################################
#
#                 Cambridge Crystallographic Data Centre
#                                CCDC 
#
#######################################################################
#
# If this CIF has been generated from an entry in the Cambridge 
# Structural Database, then it will include bibliographic, chemical, 
# crystal, experimental, refinement or atomic coordinate data resulting 
# from the CCDC's data processing and validation procedures.
#
#######################################################################

data_PUFYOF
_chemical_formula_moiety         'H12 Mg1 O6 2+,2(C9 H6 N3 O3 S1 1-),4(H2 O1)'
_chemical_name_systematic        
'Hexa-aqua-magnesium(ii) bis[4-(3-pyridyl)pyrimidine-2-sulfonate] tetrahydrate'
_symmetry_cell_setting           monoclinic
_symmetry_space_group_name_H-M   'P 21/n'
_symmetry_Int_Tables_number      14
_space_group_name_Hall           '-P 2yn'
loop_
_symmetry_equiv_pos_site_id
_symmetry_equiv_pos_as_xyz
1 x,y,z
2 1/2-x,1/2+y,1/2-z
3 -x,-y,-z
4 1/2+x,1/2-y,1/2+z
_cell_length_a                   6.9835(2)
_cell_length_b                   13.3600(3)
_cell_length_c                   16.2565(4)
_cell_angle_alpha                90
_cell_angle_beta                 98.7240(10)
_cell_angle_gamma                90
_cell_volume                     1499.18
_exptl_crystal_colour            colorless
_exptl_crystal_description       block
_cell_formula_units_Z            2
loop_
_atom_site_label
_atom_site_type_symbol
_atom_site_fract_x
_atom_site_fract_y
_atom_site_fract_z
Mg1 Mg 0.5000 0.5000 0.5000
O1 O 0.7440(2) 0.42088(10) 0.48561(9)
O2 O 0.5193(2) 0.43705(11) 0.61644(8)
O3 O 0.6808(2) 0.61790(10) 0.54696(9)
H1 H 0.773(3) 0.3654(19) 0.5094(15)
H2 H 0.804(4) 0.425(2) 0.4457(14)
H3 H 0.422(3) 0.4341(17) 0.6427(14)
H4 H 0.647(4) 0.6623(18) 0.5805(15)
H5 H 0.786(3) 0.602(2) 0.5755(16)
H6 H 0.626(3) 0.438(2) 0.6468(15)
O1B O 0.2560(2) 0.57912(10) 0.51439(9)
O2B O 0.4807(2) 0.56295(11) 0.38356(8)
O3B O 0.3192(2) 0.38210(10) 0.45304(9)
H1B H 0.227(3) 0.6346(19) 0.4906(15)
H2B H 0.196(4) 0.575(2) 0.5543(14)
H3B H 0.578(3) 0.5659(17) 0.3573(14)
H4B H 0.353(4) 0.3377(18) 0.4195(15)
H5B H 0.214(3) 0.398(2) 0.4245(16)
H6B H 0.374(3) 0.562(2) 0.3532(15)
S1 S 0.05652(6) 0.48762(3) 0.71033(2)
N1 N 0.1709(2) 0.47749(10) 0.87143(9)
O4 O -0.12580(18) 0.43964(10) 0.71840(8)
O5 O 0.20815(19) 0.41651(10) 0.70020(8)
N2 N 0.3137(2) 0.26720(11) 1.05433(9)
N3 N 0.1324(2) 0.64241(10) 0.81545(9)
C1 C 0.2220(2) 0.51444(12) 0.94866(10)
C2 C 0.1302(2) 0.54365(12) 0.81052(10)
O6 O 0.03921(19) 0.56801(9) 0.64992(8)
C3 C 0.2743(3) 0.33887(12) 0.99732(11)
H7 H 0.2487 0.3200 0.9417
C4 C 0.2691(2) 0.44024(12) 1.01627(10)
C5 C 0.3095(3) 0.46696(14) 1.09979(10)
H8 H 0.3084 0.5339 1.1155
C6 C 0.3510(3) 0.29500(14) 1.13397(11)
H9 H 0.3782 0.2456 1.1744
C7 C 0.2265(3) 0.61758(13) 0.96124(11)
H10 H 0.2593 0.6445 1.0142
C8 C 0.3512(3) 0.39317(14) 1.15898(11)
H11 H 0.3792 0.4096 1.2151
C9 C 0.1811(3) 0.67811(13) 0.89291(12)
H12 H 0.1843 0.7471 0.9006
O7 O 0.4762(3) 0.29673(14) 0.81603(13)
H13 H 0.407(5) 0.342(2) 0.791(2)
H14 H 0.438(5) 0.2425(19) 0.793(2)
O8 O 0.1251(4) 0.72373(16) 0.14928(13)
H15 H 0.245(4) 0.717(2) 0.1660(17)
H16 H 0.055(6) 0.681(3) 0.169(3)
loop_
_geom_bond_atom_site_label_1
_geom_bond_atom_site_label_2
_geom_bond_site_symmetry_1
_geom_bond_site_symmetry_2
Mg1 O1 1_555 1_555
O1 H1 1_555 1_555
O2 Mg1 1_555 1_555
O3 Mg1 1_555 1_555
H2 O1 1_555 1_555
H3 O2 1_555 1_555
H4 O3 1_555 1_555
H5 O3 1_555 1_555
H6 O2 1_555 1_555
S1 O4 1_555 1_555
N1 C1 1_555 1_555
O5 S1 1_555 1_555
N2 C3 1_555 1_555
N3 C2 1_555 1_555
C1 C4 1_555 1_555
C2 S1 1_555 1_555
O6 S1 1_555 1_555
C3 H7 1_555 1_555
C4 C3 1_555 1_555
C5 C4 1_555 1_555
H8 C5 1_555 1_555
C6 N2 1_555 1_555
H9 C6 1_555 1_555
C7 C1 1_555 1_555
H10 C7 1_555 1_555
C8 C5 1_555 1_555
H11 C8 1_555 1_555
C9 N3 1_555 1_555
H12 C9 1_555 1_555
O7 H13 1_555 1_555
H14 O7 1_555 1_555
O8 H15 1_555 1_555
H16 O8 1_555 1_555
O1B Mg1 1_555 1_555
O2B Mg1 1_555 1_555
O3B Mg1 1_555 1_555
H1B O1B 1_555 1_555
H2B O1B 1_555 1_555
H3B O2B 1_555 1_555
H4B O3B 1_555 1_555
H5B O3B 1_555 1_555
H6B O2B 1_555 1_555
N1 C2 1_555 1_555
C6 C8 1_555 1_555
C7 C9 1_555 1_555

#END
