
#######################################################################
#
#                 Cambridge Crystallographic Data Centre
#                                CCDC 
#
#######################################################################
#
# If this CIF has been generated from an entry in the Cambridge 
# Structural Database, then it will include bibliographic, chemical, 
# crystal, experimental, refinement or atomic coordinate data resulting 
# from the CCDC's data processing and validation procedures.
#
#######################################################################

data_PUGCEA
_chemical_formula_moiety         'C23 H28 Cl2 N2 O2'
_chemical_name_systematic        
N,N-Dicyclohexyl-2-(5,7-dichloro-8-quinolyloxy)acetamide
_symmetry_cell_setting           triclinic
_symmetry_space_group_name_H-M   'P -1'
_symmetry_Int_Tables_number      2
_space_group_name_Hall           '-P 1'
loop_
_symmetry_equiv_pos_site_id
_symmetry_equiv_pos_as_xyz
1 x,y,z
2 -x,-y,-z
_cell_length_a                   9.8476(11)
_cell_length_b                   10.7542(12)
_cell_length_c                   11.1376(12)
_cell_angle_alpha                72.392(2)
_cell_angle_beta                 86.880(2)
_cell_angle_gamma                80.208(2)
_cell_volume                     1107.86
_exptl_crystal_colour            colorless
_exptl_crystal_description       rhombus
_cell_formula_units_Z            2
_exptl_crystal_recrystallization_method ethanol
loop_
_atom_site_label
_atom_site_type_symbol
_atom_site_fract_x
_atom_site_fract_y
_atom_site_fract_z
Cl1 Cl 0.10108(5) 0.94426(5) 0.29221(5)
Cl2 Cl -0.02741(8) 1.39471(7) 0.41588(7)
O1 O 0.22307(12) 1.10728(12) 0.06239(11)
O2 O 0.16900(12) 0.91089(12) -0.08811(12)
N1 N 0.21941(17) 1.37466(16) -0.00224(16)
N2 N 0.32140(14) 1.04756(14) -0.18351(13)
C1 C 0.10394(18) 1.11220(19) 0.25299(17)
C2 C 0.04676(19) 1.1801(2) 0.33885(19)
H1 H 0.0100 1.1348 0.4150
C3 C 0.0459(2) 1.3124(2) 0.3093(2)
C4 C 0.10273(19) 1.3853(2) 0.19466(19)
C5 C 0.1058(2) 1.5229(2) 0.1581(2)
H2 H 0.0684 1.5730 0.2105
C6 C 0.1636(2) 1.5813(2) 0.0463(2)
H3 H 0.1666 1.6715 0.0210
C7 C 0.2187(2) 1.5027(2) -0.0303(2)
H4 H 0.2577 1.5442 -0.1067
C8 C 0.16118(18) 1.31440(19) 0.11007(18)
C9 C 0.16069(17) 1.17641(18) 0.14113(17)
C10 C 0.13960(17) 1.11664(18) -0.04396(17)
H5 H 0.1299 1.2052 -0.1025
H6 H 0.0485 1.0971 -0.0158
C11 C 0.21283(17) 1.01619(17) -0.10754(16)
C12 C 0.38451(17) 0.96001(17) -0.25850(16)
H7 H 0.4570 1.0035 -0.3095
C13 C 0.45558(18) 0.82518(18) -0.17828(17)
H8 H 0.3882 0.7785 -0.1242
H9 H 0.5241 0.8370 -0.1251
C14 C 0.5251(2) 0.7433(2) -0.26245(19)
H10 H 0.5999 0.7849 -0.3089
H11 H 0.5638 0.6558 -0.2102
C15 C 0.4236(2) 0.73116(19) -0.35466(19)
H12 H 0.3540 0.6814 -0.3084
H13 H 0.4718 0.6829 -0.4093
C16 C 0.3540(2) 0.8660(2) -0.43435(18)
H14 H 0.2867 0.8548 -0.4891
H15 H 0.4223 0.9126 -0.4869
C17 C 0.28254(19) 0.94781(19) -0.35147(17)
H16 H 0.2076 0.9060 -0.3054
H17 H 0.2439 1.0352 -0.4040
C18 C 0.37854(17) 1.17059(17) -0.19956(16)
H18 H 0.3305 1.2136 -0.1397
C19 C 0.35073(19) 1.26735(18) -0.33206(17)
H19 H 0.3936 1.2264 -0.3942
H20 H 0.2523 1.2884 -0.3475
C20 C 0.4082(2) 1.39395(19) -0.34509(19)
H21 H 0.3579 1.4397 -0.2893
H22 H 0.3948 1.4516 -0.4308
C21 C 0.5614(2) 1.36517(19) -0.31312(19)
H23 H 0.6130 1.3274 -0.3739
H24 H 0.5934 1.4470 -0.3181
C22 C 0.5870(2) 1.26914(19) -0.18086(18)
H25 H 0.6851 1.2489 -0.1638
H26 H 0.5422 1.3102 -0.1195
C23 C 0.53174(18) 1.14179(18) -0.16782(17)
H27 H 0.5456 1.0840 -0.0822
H28 H 0.5822 1.0967 -0.2240
loop_
_geom_bond_atom_site_label_1
_geom_bond_atom_site_label_2
_geom_bond_site_symmetry_1
_geom_bond_site_symmetry_2
Cl1 C1 1_555 1_555
Cl2 C3 1_555 1_555
O1 C9 1_555 1_555
O2 C11 1_555 1_555
N1 C7 1_555 1_555
N2 C11 1_555 1_555
C1 C2 1_555 1_555
C2 H1 1_555 1_555
C3 C2 1_555 1_555
C4 C3 1_555 1_555
C5 C4 1_555 1_555
H2 C5 1_555 1_555
C6 C5 1_555 1_555
H3 C6 1_555 1_555
C7 C6 1_555 1_555
H4 C7 1_555 1_555
C8 N1 1_555 1_555
C9 C1 1_555 1_555
C10 O1 1_555 1_555
H5 C10 1_555 1_555
H6 C10 1_555 1_555
C11 C10 1_555 1_555
C12 N2 1_555 1_555
H7 C12 1_555 1_555
C13 C12 1_555 1_555
H8 C13 1_555 1_555
H9 C13 1_555 1_555
C14 C13 1_555 1_555
H10 C14 1_555 1_555
H11 C14 1_555 1_555
C15 C14 1_555 1_555
H12 C15 1_555 1_555
H13 C15 1_555 1_555
C16 C15 1_555 1_555
H14 C16 1_555 1_555
H15 C16 1_555 1_555
C17 C12 1_555 1_555
H16 C17 1_555 1_555
H17 C17 1_555 1_555
C18 N2 1_555 1_555
H18 C18 1_555 1_555
C19 C18 1_555 1_555
H19 C19 1_555 1_555
H20 C19 1_555 1_555
C20 C19 1_555 1_555
H21 C20 1_555 1_555
H22 C20 1_555 1_555
C21 C20 1_555 1_555
H23 C21 1_555 1_555
H24 C21 1_555 1_555
C22 C21 1_555 1_555
H25 C22 1_555 1_555
H26 C22 1_555 1_555
C23 C18 1_555 1_555
H27 C23 1_555 1_555
H28 C23 1_555 1_555
C4 C8 1_555 1_555
C8 C9 1_555 1_555
C16 C17 1_555 1_555
C22 C23 1_555 1_555

#END
