
#######################################################################
#
#                 Cambridge Crystallographic Data Centre
#                                CCDC 
#
#######################################################################
#
# If this CIF has been generated from an entry in the Cambridge 
# Structural Database, then it will include bibliographic, chemical, 
# crystal, experimental, refinement or atomic coordinate data resulting 
# from the CCDC's data processing and validation procedures.
#
#######################################################################

data_PUGFAZ
_chemical_formula_moiety         'C11 H10 N2 O2 S1'
_chemical_name_systematic        
(E)-2-Methoxy-6-(thiazol-2-yliminomethyl)phenol
_symmetry_cell_setting           monoclinic
_symmetry_space_group_name_H-M   'C 2/c'
_symmetry_Int_Tables_number      15
_space_group_name_Hall           '-C 2yn'
loop_
_symmetry_equiv_pos_site_id
_symmetry_equiv_pos_as_xyz
1 x,y,z
2 -x,y,1/2-z
3 1/2+x,1/2+y,z
4 1/2-x,1/2+y,1/2-z
5 -x,-y,-z
6 x,-y,1/2+z
7 1/2-x,1/2-y,-z
8 1/2+x,1/2-y,1/2+z
_cell_length_a                   24.765(3)
_cell_length_b                   4.9619(8)
_cell_length_c                   20.238(2)
_cell_angle_alpha                90
_cell_angle_beta                 117.931(2)
_cell_angle_gamma                90
_cell_volume                     2197.18
_exptl_crystal_colour            colorless
_exptl_crystal_description       block
_cell_formula_units_Z            8
_exptl_crystal_recrystallization_method methanol
loop_
_atom_site_label
_atom_site_type_symbol
_atom_site_fract_x
_atom_site_fract_y
_atom_site_fract_z
N1 N 0.10966(12) 1.1575(6) 0.46446(14)
N2 N 0.09882(10) 0.9199(5) 0.35514(12)
O1 O 0.09126(9) 0.6986(4) 0.23318(10)
H1 H 0.0833 0.8091 0.2575
O2 O 0.13089(10) 0.3468(4) 0.17130(12)
S1 S 0.01303(4) 1.2680(2) 0.34433(5)
C1 C 0.14555(13) 0.7692(6) 0.39241(16)
H2 H 0.1658 0.7842 0.4442
C2 C 0.16805(12) 0.5776(6) 0.35747(15)
C3 C 0.13974(12) 0.5484(6) 0.27981(16)
C4 C 0.16169(13) 0.3571(6) 0.24731(17)
C5 C 0.21123(14) 0.2002(6) 0.29263(19)
H3 H 0.2259 0.0724 0.2714
C6 C 0.23948(14) 0.2313(7) 0.3698(2)
H4 H 0.2730 0.1246 0.3999
C7 C 0.21848(13) 0.4170(6) 0.40180(18)
H5 H 0.2378 0.4370 0.4535
C8 C 0.14472(19) 0.1291(7) 0.1360(2)
H6 H 0.1856 0.1494 0.1428
H7 H 0.1164 0.1291 0.0835
H8 H 0.1415 -0.0380 0.1578
C9 C 0.08023(13) 1.1000(6) 0.39362(16)
C10 C 0.07640(17) 1.3433(7) 0.48042(19)
H9 H 0.0900 1.4100 0.5286
C11 C 0.02367(16) 1.4240(7) 0.42374(18)
H10 H -0.0031 1.5471 0.4274
loop_
_geom_bond_atom_site_label_1
_geom_bond_atom_site_label_2
_geom_bond_site_symmetry_1
_geom_bond_site_symmetry_2
N1 C9 1_555 1_555
N2 C1 1_555 1_555
O1 H1 1_555 1_555
O2 C4 1_555 1_555
S1 C9 1_555 1_555
C1 H2 1_555 1_555
C2 C1 1_555 1_555
C3 O1 1_555 1_555
C4 C3 1_555 1_555
C5 C4 1_555 1_555
H3 C5 1_555 1_555
C6 C5 1_555 1_555
H4 C6 1_555 1_555
C7 C2 1_555 1_555
H5 C7 1_555 1_555
C8 O2 1_555 1_555
H6 C8 1_555 1_555
H7 C8 1_555 1_555
H8 C8 1_555 1_555
C9 N2 1_555 1_555
C10 N1 1_555 1_555
H9 C10 1_555 1_555
C11 S1 1_555 1_555
H10 C11 1_555 1_555
C2 C3 1_555 1_555
C6 C7 1_555 1_555
C10 C11 1_555 1_555

#END
