
#######################################################################
#
#                 Cambridge Crystallographic Data Centre
#                                CCDC 
#
#######################################################################
#
# If this CIF has been generated from an entry in the Cambridge 
# Structural Database, then it will include bibliographic, chemical, 
# crystal, experimental, refinement or atomic coordinate data resulting 
# from the CCDC's data processing and validation procedures.
#
#######################################################################

data_PUGGUU01
_chemical_formula_moiety         'C18 H14 Cl1 N1 O1'
_chemical_name_systematic        
1-(6-chloro-2-methyl-4-phenylquinolin-3-yl)ethanone
_symmetry_cell_setting           monoclinic
_symmetry_space_group_name_H-M   'P 21/n'
_symmetry_Int_Tables_number      14
_space_group_name_Hall           '-P 2yn'
loop_
_symmetry_equiv_pos_site_id
_symmetry_equiv_pos_as_xyz
1 x,y,z
2 1/2-x,1/2+y,1/2-z
3 -x,-y,-z
4 1/2+x,1/2-y,1/2+z
_cell_length_a                   10.4493(2)
_cell_length_b                   7.78980(10)
_cell_length_c                   17.5608(3)
_cell_angle_alpha                90
_cell_angle_beta                 90.848(2)
_cell_angle_gamma                90
_cell_volume                     1429.26
_exptl_crystal_colour            colorless
_exptl_crystal_description       block
_cell_formula_units_Z            4
loop_
_atom_site_label
_atom_site_type_symbol
_atom_site_fract_x
_atom_site_fract_y
_atom_site_fract_z
Cl1 Cl 0.67968(3) 0.65581(5) 0.24778(2)
O1 O 0.06780(10) 0.27504(15) 0.51433(6)
N1 N 0.48203(11) 0.23558(15) 0.49926(6)
C1 C 0.11474(12) 0.55338(18) 0.36208(7)
H1 H 0.1140 0.5852 0.4143
C2 C 0.02220(12) 0.61878(18) 0.31215(8)
H2 H -0.0406 0.6964 0.3302
C3 C 0.02154(13) 0.57054(18) 0.23591(8)
H3 H -0.0423 0.6139 0.2020
C4 C 0.11465(13) 0.45851(18) 0.20930(7)
H4 H 0.1141 0.4252 0.1573
C5 C 0.20836(13) 0.39530(18) 0.25889(7)
H5 H 0.2726 0.3204 0.2404
C6 C 0.20850(12) 0.44151(17) 0.33597(7)
C7 C 0.30455(12) 0.36927(17) 0.39090(7)
C8 C 0.43784(12) 0.40638(17) 0.38428(7)
C9 C 0.48839(12) 0.50832(18) 0.32524(7)
H6 H 0.4328 0.5598 0.2885
C10 C 0.61774(13) 0.53227(18) 0.32134(8)
C11 C 0.70324(13) 0.46282(18) 0.37597(8)
H7 H 0.7927 0.4817 0.3722
C12 C 0.65527(13) 0.36778(18) 0.43455(8)
H8 H 0.7121 0.3226 0.4722
C13 C 0.52238(13) 0.33552(17) 0.44003(7)
C14 C 0.35882(13) 0.20375(17) 0.50450(7)
C15 C 0.26623(12) 0.26854(17) 0.45071(7)
C16 C 0.12730(13) 0.22124(18) 0.46074(7)
C17 C 0.06982(15) 0.0971(2) 0.40452(9)
H9 H 0.1008 -0.0190 0.4159
H10 H 0.0948 0.1294 0.3529
H11 H -0.0237 0.0998 0.4081
C18 C 0.31737(14) 0.09209(19) 0.56929(8)
H12 H 0.3930 0.0468 0.5961
H13 H 0.2658 -0.0035 0.5494
H14 H 0.2662 0.1600 0.6046
loop_
_geom_bond_atom_site_label_1
_geom_bond_atom_site_label_2
_geom_bond_site_symmetry_1
_geom_bond_site_symmetry_2
Cl1 C10 1_555 1_555
O1 C16 1_555 1_555
N1 C13 1_555 1_555
C1 H1 1_555 1_555
C2 C1 1_555 1_555
H2 C2 1_555 1_555
C3 C2 1_555 1_555
H3 C3 1_555 1_555
C4 C3 1_555 1_555
H4 C4 1_555 1_555
C5 C4 1_555 1_555
H5 C5 1_555 1_555
C6 C1 1_555 1_555
C7 C6 1_555 1_555
C8 C7 1_555 1_555
C9 C8 1_555 1_555
H6 C9 1_555 1_555
C10 C9 1_555 1_555
C11 C10 1_555 1_555
H7 C11 1_555 1_555
C12 C11 1_555 1_555
H8 C12 1_555 1_555
C13 C8 1_555 1_555
C14 N1 1_555 1_555
C15 C7 1_555 1_555
C16 C15 1_555 1_555
C17 C16 1_555 1_555
H9 C17 1_555 1_555
H10 C17 1_555 1_555
H11 C17 1_555 1_555
C18 C14 1_555 1_555
H12 C18 1_555 1_555
H13 C18 1_555 1_555
H14 C18 1_555 1_555
C5 C6 1_555 1_555
C12 C13 1_555 1_555
C14 C15 1_555 1_555

#END
