
#######################################################################
#
#                 Cambridge Crystallographic Data Centre
#                                CCDC 
#
#######################################################################
#
# If this CIF has been generated from an entry in the Cambridge 
# Structural Database, then it will include bibliographic, chemical, 
# crystal, experimental, refinement or atomic coordinate data resulting 
# from the CCDC's data processing and validation procedures.
#
#######################################################################

data_PUGJIK
_chemical_formula_moiety         'C22 H17 N1 O1'
_chemical_name_systematic        3-(1,2-Diphenylethylidene)indolin-2-one
_symmetry_cell_setting           triclinic
_symmetry_space_group_name_H-M   'P -1'
_symmetry_Int_Tables_number      2
_space_group_name_Hall           '-P 1'
loop_
_symmetry_equiv_pos_site_id
_symmetry_equiv_pos_as_xyz
1 x,y,z
2 -x,-y,-z
_cell_length_a                   9.816(1)
_cell_length_b                   9.899(1)
_cell_length_c                   10.454(1)
_cell_angle_alpha                99.34
_cell_angle_beta                 108.72(1)
_cell_angle_gamma                114.58(1)
_cell_volume                     821.668
_exptl_crystal_colour            yellow
_exptl_crystal_description       block
_chemical_melting_point          106-108deg.C
_cell_formula_units_Z            2
loop_
_atom_site_label
_atom_site_type_symbol
_atom_site_fract_x
_atom_site_fract_y
_atom_site_fract_z
N1 N 0.5460(1) 0.3778(1) 0.3977(1)
C1 C 0.4062(2) 0.2668(2) 0.3986(1)
O1 O 0.3150(1) 0.2978(1) 0.4404(1)
C2 C 0.3879(2) 0.1083(1) 0.3368(1)
C3 C 0.5379(2) 0.1458(1) 0.3126(1)
C4 C 0.6073(2) 0.0577(2) 0.2752(1)
C5 C 0.7635(2) 0.1343(2) 0.2777(1)
C6 C 0.8508(2) 0.2970(2) 0.3167(1)
C7 C 0.7851(2) 0.3886(2) 0.3551(1)
C8 C 0.6308(2) 0.3110(1) 0.3532(1)
C9 C 0.2614(1) -0.0333(1) 0.3152(1)
C10 C 0.1321(2) -0.0509(2) 0.3697(1)
C11 C 0.2429(1) -0.1838(1) 0.2363(1)
C12 C 0.2370(2) -0.2976(2) 0.3003(1)
C13 C 0.2250(2) -0.4356(2) 0.2279(2)
C14 C 0.2126(2) -0.4640(2) 0.0903(2)
C15 C 0.2136(2) -0.3541(2) 0.0244(2)
C16 C 0.2295(2) -0.2147(2) 0.0966(1)
C17 C -0.0435(2) -0.1314(1) 0.2532(1)
C18 C -0.1765(2) -0.2256(2) 0.2786(2)
C19 C -0.3384(2) -0.2936(2) 0.1759(2)
C20 C -0.3709(2) -0.2690(2) 0.0457(2)
C21 C -0.2402(2) -0.1763(2) 0.0193(2)
C22 C -0.0780(2) -0.1080(2) 0.1218(1)
loop_
_geom_bond_atom_site_label_1
_geom_bond_atom_site_label_2
_geom_bond_site_symmetry_1
_geom_bond_site_symmetry_2
N1 C1 1_555 1_555
C1 O1 1_555 1_555
C2 C1 1_555 1_555
C3 C2 1_555 1_555
C4 C3 1_555 1_555
C5 C4 1_555 1_555
C6 C5 1_555 1_555
C7 C6 1_555 1_555
C8 N1 1_555 1_555
C9 C2 1_555 1_555
C10 C9 1_555 1_555
C11 C9 1_555 1_555
C12 C11 1_555 1_555
C13 C12 1_555 1_555
C14 C13 1_555 1_555
C15 C14 1_555 1_555
C16 C11 1_555 1_555
C17 C10 1_555 1_555
C18 C17 1_555 1_555
C19 C18 1_555 1_555
C20 C19 1_555 1_555
C21 C20 1_555 1_555
C22 C17 1_555 1_555
C3 C8 1_555 1_555
C7 C8 1_555 1_555
C15 C16 1_555 1_555
C21 C22 1_555 1_555

#END
