
#######################################################################
#
#                 Cambridge Crystallographic Data Centre
#                                CCDC 
#
#######################################################################
#
# If this CIF has been generated from an entry in the Cambridge 
# Structural Database, then it will include bibliographic, chemical, 
# crystal, experimental, refinement or atomic coordinate data resulting 
# from the CCDC's data processing and validation procedures.
#
#######################################################################

data_PUGLOT01
_chemical_formula_moiety         'C18 H18 O4'
_chemical_name_systematic        
1-Phenyl-3-(2,4,6-trimethoxyphenyl)prop-2-en-1-one
_symmetry_cell_setting           monoclinic
_symmetry_space_group_name_H-M   'P 21/c'
_symmetry_Int_Tables_number      14
_space_group_name_Hall           '-P 2ybc'
loop_
_symmetry_equiv_pos_site_id
_symmetry_equiv_pos_as_xyz
1 x,y,z
2 -x,1/2+y,1/2-z
3 -x,-y,-z
4 x,1/2-y,1/2+z
_cell_length_a                   9.0052(10)
_cell_length_b                   14.9245(17)
_cell_length_c                   11.7658(14)
_cell_angle_alpha                90
_cell_angle_beta                 104.315(2)
_cell_angle_gamma                90
_cell_volume                     1532.2
_exptl_crystal_colour            colorless
_exptl_crystal_description       block
_chemical_melting_point          '436-437 K'
_cell_formula_units_Z            4
_exptl_crystal_recrystallization_method methanol/dichloromethane
loop_
_atom_site_label
_atom_site_type_symbol
_atom_site_fract_x
_atom_site_fract_y
_atom_site_fract_z
C1 C 0.9745(2) -0.05689(12) 0.14050(16)
H1 H 1.0183 -0.0376 0.2196
H2 H 1.0548 -0.0662 0.1012
H3 H 0.9196 -0.1119 0.1415
C2 C 0.65289(18) -0.07567(10) 0.42207(13)
H4 H 0.6579 -0.1285 0.3765
H5 H 0.6153 -0.0913 0.4890
H6 H 0.7534 -0.0500 0.4479
C3 C 0.44257(19) 0.21153(10) -0.08152(13)
H7 H 0.5373 0.2441 -0.0605
H8 H 0.3608 0.2517 -0.1166
H9 H 0.4499 0.1652 -0.1364
C4 C 0.74716(15) 0.02951(9) 0.11985(12)
C5 C 0.72022(14) -0.00525(9) 0.22193(11)
H10 H 0.7898 -0.0443 0.2687
C6 C 0.58735(14) 0.01944(9) 0.25291(11)
C7 C 0.47895(14) 0.07868(8) 0.18520(11)
C8 C 0.51526(15) 0.11331(9) 0.08332(11)
C9 C 0.64562(16) 0.08890(9) 0.05100(12)
H11 H 0.6658 0.1122 -0.0170
C10 C 0.34214(15) 0.10052(9) 0.22290(12)
H12 H 0.3369 0.0743 0.2935
C11 C 0.22244(15) 0.15177(10) 0.17373(12)
H13 H 0.2175 0.1775 0.1009
C12 C 0.09861(15) 0.16858(10) 0.23113(12)
C13 C -0.02269(14) 0.23528(9) 0.17775(12)
C14 C -0.01819(17) 0.28712(10) 0.08031(13)
H14 H 0.0600 0.2784 0.0426
C15 C -0.12880(19) 0.35148(11) 0.03909(15)
H15 H -0.1239 0.3863 -0.0255
C16 C -0.24600(18) 0.36410(12) 0.09338(15)
H16 H -0.3197 0.4079 0.0661
C17 C -0.25405(17) 0.31221(12) 0.18758(15)
H17 H -0.3346 0.3200 0.2232
C18 C -0.14374(16) 0.24862(11) 0.22991(13)
H18 H -0.1501 0.2141 0.2943
O1 O 0.09525(13) 0.13297(9) 0.32420(10)
O2 O 0.41260(11) 0.17261(7) 0.02032(8)
O3 O 0.87208(11) 0.01000(7) 0.08015(9)
O4 O 0.55259(11) -0.01253(7) 0.35229(9)
loop_
_geom_bond_atom_site_label_1
_geom_bond_atom_site_label_2
_geom_bond_site_symmetry_1
_geom_bond_site_symmetry_2
C1 H1 1_555 1_555
H2 C1 1_555 1_555
H3 C1 1_555 1_555
C2 H4 1_555 1_555
H5 C2 1_555 1_555
H6 C2 1_555 1_555
C3 H7 1_555 1_555
H8 C3 1_555 1_555
H9 C3 1_555 1_555
C4 C5 1_555 1_555
C5 H10 1_555 1_555
C6 C5 1_555 1_555
C7 C6 1_555 1_555
C8 C7 1_555 1_555
C9 C4 1_555 1_555
H11 C9 1_555 1_555
C10 C7 1_555 1_555
H12 C10 1_555 1_555
C11 C10 1_555 1_555
H13 C11 1_555 1_555
C12 C11 1_555 1_555
C13 C12 1_555 1_555
C14 C13 1_555 1_555
H14 C14 1_555 1_555
C15 C14 1_555 1_555
H15 C15 1_555 1_555
C16 C15 1_555 1_555
H16 C16 1_555 1_555
C17 C16 1_555 1_555
H17 C17 1_555 1_555
C18 C13 1_555 1_555
H18 C18 1_555 1_555
O1 C12 1_555 1_555
O2 C3 1_555 1_555
O3 C1 1_555 1_555
O4 C2 1_555 1_555
C4 O3 1_555 1_555
C6 O4 1_555 1_555
C8 C9 1_555 1_555
C8 O2 1_555 1_555
C17 C18 1_555 1_555

#END
