
#######################################################################
#
#                 Cambridge Crystallographic Data Centre
#                                CCDC 
#
#######################################################################
#
# If this CIF has been generated from an entry in the Cambridge 
# Structural Database, then it will include bibliographic, chemical, 
# crystal, experimental, refinement or atomic coordinate data resulting 
# from the CCDC's data processing and validation procedures.
#
#######################################################################

data_PUGROZ
_chemical_compound_source        'stems of Trigonostemon xyphophylloides'
_chemical_formula_moiety         'C11 H14 O4'
_chemical_name_systematic        1-(2-Hydroxy-4,5-dimethoxyphenyl)propan-1-one
_symmetry_cell_setting           monoclinic
_symmetry_space_group_name_H-M   'P 21/c'
_symmetry_Int_Tables_number      14
_space_group_name_Hall           '-P 2ybc'
loop_
_symmetry_equiv_pos_site_id
_symmetry_equiv_pos_as_xyz
1 x,y,z
2 -x,1/2+y,1/2-z
3 -x,-y,-z
4 x,1/2-y,1/2+z
_cell_length_a                   7.1933(7)
_cell_length_b                   9.4874(12)
_cell_length_c                   17.198(2)
_cell_angle_alpha                90
_cell_angle_beta                 113.164(5)
_cell_angle_gamma                90
_cell_volume                     1079.07
_exptl_crystal_colour            colorless
_exptl_crystal_description       block
_cell_formula_units_Z            4
_exptl_crystal_recrystallization_method 'ethyl acetate'
loop_
_atom_site_label
_atom_site_type_symbol
_atom_site_fract_x
_atom_site_fract_y
_atom_site_fract_z
O1 O 0.3767(5) 0.3553(3) 0.52714(19)
H1 H 0.3323 0.3757 0.4768
O2 O 0.1907(5) 0.3117(3) 0.36706(18)
O3 O 0.2687(4) -0.2066(3) 0.58386(15)
O4 O 0.4475(4) -0.0386(3) 0.71051(14)
C1 C 0.3465(5) 0.2161(4) 0.5358(2)
C2 C 0.2485(5) 0.1275(3) 0.4653(2)
C3 C 0.2245(5) -0.0169(4) 0.48170(19)
H2 H 0.1624 -0.0776 0.4364
C4 C 0.2907(5) -0.0694(3) 0.5629(2)
C5 C 0.3876(5) 0.0225(4) 0.63263(19)
C6 C 0.4134(5) 0.1631(4) 0.6178(2)
H3 H 0.4764 0.2232 0.6633
C7 C 0.1702(5) 0.1852(4) 0.3788(2)
C8 C 0.0636(6) 0.0885(4) 0.3045(2)
H4 H -0.0529 0.0476 0.3111
H5 H 0.1545 0.0120 0.3061
C9 C -0.0065(8) 0.1589(5) 0.2186(3)
H6 H -0.0699 0.0902 0.1752
H7 H 0.1077 0.1990 0.2110
H8 H -0.1017 0.2319 0.2152
C10 C 0.1800(6) -0.3028(4) 0.5156(2)
H9 H 0.1714 -0.3945 0.5376
H10 H 0.2621 -0.3079 0.4831
H11 H 0.0469 -0.2709 0.4801
C11 C 0.5335(7) 0.0537(5) 0.7830(2)
H12 H 0.5684 -0.0003 0.8340
H13 H 0.4364 0.1246 0.7809
H14 H 0.6527 0.0980 0.7821
loop_
_geom_bond_atom_site_label_1
_geom_bond_atom_site_label_2
_geom_bond_site_symmetry_1
_geom_bond_site_symmetry_2
O1 H1 1_555 1_555
O2 C7 1_555 1_555
O3 C4 1_555 1_555
O4 C5 1_555 1_555
C1 O1 1_555 1_555
C2 C1 1_555 1_555
C3 C2 1_555 1_555
H2 C3 1_555 1_555
C4 C3 1_555 1_555
C5 C4 1_555 1_555
C6 C1 1_555 1_555
H3 C6 1_555 1_555
C7 C2 1_555 1_555
C8 C7 1_555 1_555
H4 C8 1_555 1_555
H5 C8 1_555 1_555
C9 C8 1_555 1_555
H6 C9 1_555 1_555
H7 C9 1_555 1_555
H8 C9 1_555 1_555
C10 O3 1_555 1_555
H9 C10 1_555 1_555
H10 C10 1_555 1_555
H11 C10 1_555 1_555
C11 O4 1_555 1_555
H12 C11 1_555 1_555
H13 C11 1_555 1_555
H14 C11 1_555 1_555
C5 C6 1_555 1_555

#END
