
#######################################################################
#
#                 Cambridge Crystallographic Data Centre
#                                CCDC 
#
#######################################################################
#
# If this CIF has been generated from an entry in the Cambridge 
# Structural Database, then it will include bibliographic, chemical, 
# crystal, experimental, refinement or atomic coordinate data resulting 
# from the CCDC's data processing and validation procedures.
#
#######################################################################

data_PUGSAM
_chemical_formula_moiety         'C20 H16 O5'
_chemical_name_systematic        
'Cinnamyl 8-methoxy-2-oxo-2H-chromene-3-carboxylate'
_symmetry_cell_setting           monoclinic
_symmetry_space_group_name_H-M   'P 21/c'
_symmetry_Int_Tables_number      14
_space_group_name_Hall           '-P 2ybc'
loop_
_symmetry_equiv_pos_site_id
_symmetry_equiv_pos_as_xyz
1 x,y,z
2 -x,1/2+y,1/2-z
3 -x,-y,-z
4 x,1/2-y,1/2+z
_cell_length_a                   19.226(4)
_cell_length_b                   9.5483(19)
_cell_length_c                   9.0046(18)
_cell_angle_alpha                90
_cell_angle_beta                 90.97(3)
_cell_angle_gamma                90
_cell_volume                     1652.79
_exptl_crystal_colour            colorless
_exptl_crystal_description       block
_cell_formula_units_Z            4
loop_
_atom_site_label
_atom_site_type_symbol
_atom_site_fract_x
_atom_site_fract_y
_atom_site_fract_z
O1 O 0.04001(9) 0.88854(18) 0.70962(19)
O2 O 0.11713(7) 0.72996(15) 0.54027(17)
O3 O 0.15130(10) 0.51497(17) 0.4995(2)
O4 O 0.25790(11) 0.4732(2) 0.3000(3)
O5 O 0.28952(8) 0.66346(19) 0.17300(19)
C1 C 0.12199(11) 0.8722(2) 0.5210(2)
C2 C 0.08113(11) 0.9568(3) 0.6115(3)
C3 C 0.08597(14) 1.0996(3) 0.5946(3)
H1 H 0.0593 1.1578 0.6536
C4 C 0.13001(15) 1.1585(3) 0.4910(3)
H2 H 0.1323 1.2554 0.4816
C5 C 0.17013(13) 1.0757(3) 0.4023(3)
H3 H 0.1992 1.1160 0.3328
C6 C 0.16698(11) 0.9293(2) 0.4174(3)
C7 C 0.20856(11) 0.8339(2) 0.3351(2)
H4 H 0.2383 0.8693 0.2638
C8 C 0.20641(10) 0.6940(2) 0.3568(2)
C9 C 0.15868(11) 0.6355(2) 0.4665(3)
C10 C 0.25260(12) 0.5959(3) 0.2770(3)
C11 C -0.00432(15) 0.9739(3) 0.7994(3)
H5 H -0.0314 0.9150 0.8626
H6 H -0.0349 1.0278 0.7362
H7 H 0.0237 1.0360 0.8592
C12 C 0.33877(13) 0.5785(3) 0.0894(3)
H8 H 0.3470 0.6224 -0.0059
H9 H 0.3189 0.4867 0.0709
C13 C 0.40569(13) 0.5629(3) 0.1714(3)
H10 H 0.4053 0.5142 0.2608
C14 C 0.46490(14) 0.6123(3) 0.1279(3)
H11 H 0.4640 0.6613 0.0386
C15 C 0.53343(12) 0.6000(3) 0.2031(3)
C16 C 0.58725(14) 0.6863(3) 0.1617(4)
H12 H 0.5804 0.7481 0.0830
C17 C 0.65113(15) 0.6830(3) 0.2345(5)
H13 H 0.6861 0.7445 0.2067
C18 C 0.66314(14) 0.5891(3) 0.3481(4)
H14 H 0.7059 0.5874 0.3980
C19 C 0.61138(15) 0.4981(4) 0.3866(3)
H15 H 0.6195 0.4320 0.4608
C20 C 0.54716(14) 0.5041(3) 0.3158(3)
H16 H 0.5123 0.4426 0.3443
loop_
_geom_bond_atom_site_label_1
_geom_bond_atom_site_label_2
_geom_bond_site_symmetry_1
_geom_bond_site_symmetry_2
O1 C2 1_555 1_555
O2 C1 1_555 1_555
O3 C9 1_555 1_555
O4 C10 1_555 1_555
O5 C10 1_555 1_555
C1 C2 1_555 1_555
C2 C3 1_555 1_555
C3 H1 1_555 1_555
C4 C3 1_555 1_555
H2 C4 1_555 1_555
C5 C4 1_555 1_555
H3 C5 1_555 1_555
C6 C1 1_555 1_555
C7 C6 1_555 1_555
H4 C7 1_555 1_555
C8 C7 1_555 1_555
C9 O2 1_555 1_555
C10 C8 1_555 1_555
C11 O1 1_555 1_555
H5 C11 1_555 1_555
H6 C11 1_555 1_555
H7 C11 1_555 1_555
C12 O5 1_555 1_555
H8 C12 1_555 1_555
H9 C12 1_555 1_555
C13 C12 1_555 1_555
H10 C13 1_555 1_555
C14 C13 1_555 1_555
H11 C14 1_555 1_555
C15 C14 1_555 1_555
C16 C15 1_555 1_555
H12 C16 1_555 1_555
C17 C16 1_555 1_555
H13 C17 1_555 1_555
C18 C17 1_555 1_555
H14 C18 1_555 1_555
C19 C18 1_555 1_555
H15 C19 1_555 1_555
C20 C15 1_555 1_555
H16 C20 1_555 1_555
C5 C6 1_555 1_555
C8 C9 1_555 1_555
C19 C20 1_555 1_555

#END
