
#######################################################################
#
#                 Cambridge Crystallographic Data Centre
#                                CCDC 
#
#######################################################################
#
# If this CIF has been generated from an entry in the Cambridge 
# Structural Database, then it will include bibliographic, chemical, 
# crystal, experimental, refinement or atomic coordinate data resulting 
# from the CCDC's data processing and validation procedures.
#
#######################################################################

data_PUGWEU
_chemical_formula_moiety         'C4 H4 Cl1 N3'
_chemical_name_systematic        5-Chloropyrimidin-2-amine
_symmetry_cell_setting           orthorhombic
_symmetry_space_group_name_H-M   'C m c a'
_symmetry_Int_Tables_number      64
_space_group_name_Hall           '-C 2ac 2'
loop_
_symmetry_equiv_pos_site_id
_symmetry_equiv_pos_as_xyz
1 x,y,z
2 -x,1/2-y,1/2+z
3 -x,1/2+y,1/2-z
4 x,-y,-z
5 1/2+x,1/2+y,z
6 1/2-x,-y,1/2+z
7 1/2-x,y,1/2-z
8 1/2+x,1/2-y,-z
9 -x,-y,-z
10 x,1/2+y,1/2-z
11 x,1/2-y,1/2+z
12 -x,y,z
13 1/2-x,1/2-y,-z
14 1/2+x,y,1/2-z
15 1/2+x,-y,1/2+z
16 1/2-x,1/2+y,z
_cell_length_a                   7.6380(15)
_cell_length_b                   8.2240(16)
_cell_length_c                   17.100(3)
_cell_angle_alpha                90
_cell_angle_beta                 90
_cell_angle_gamma                90
_cell_volume                     1074.13
_exptl_crystal_colour            colorless
_exptl_crystal_description       block
_chemical_melting_point          '506 K'
_cell_formula_units_Z            8
_exptl_crystal_recrystallization_method methanol
loop_
_atom_site_label
_atom_site_type_symbol
_atom_site_fract_x
_atom_site_fract_y
_atom_site_fract_z
Cl1 Cl 0.5000 0.22728(9) 0.27440(4)
N1 N 0.65713(16) -0.11849(18) 0.41923(8)
C1 C 0.5000 -0.1761(3) 0.44284(14)
N2 N 0.5000 -0.3014(3) 0.49308(15)
H1 H 0.6021 -0.3434 0.5099
C2 C 0.6542(2) 0.0027(2) 0.36821(10)
H2 H 0.7598 0.0457 0.3507
C3 C 0.5000 0.0674(3) 0.34019(13)
N1K N 0.34287(16) -0.11849(18) 0.41923(8)
H1K H 0.3979 -0.3434 0.5099
C2K C 0.3458(2) 0.0027(2) 0.36821(10)
H2K H 0.2402 0.0457 0.3507
loop_
_geom_bond_atom_site_label_1
_geom_bond_atom_site_label_2
_geom_bond_site_symmetry_1
_geom_bond_site_symmetry_2
Cl1 C3 1_555 1_555
N1 C1 1_555 1_555
C1 N2 1_555 1_555
N2 H1 1_555 1_555
C2 N1 1_555 1_555
H2 C2 1_555 1_555
C3 C2 1_555 1_555
N1K C1 1_555 1_555
H1K N2 1_555 1_555
C2K C3 1_555 1_555
H2K C2K 1_555 1_555
N1K C2K 1_555 1_555

#END
