
#######################################################################
#
#                 Cambridge Crystallographic Data Centre
#                                CCDC 
#
#######################################################################
#
# If this CIF has been generated from an entry in the Cambridge 
# Structural Database, then it will include bibliographic, chemical, 
# crystal, experimental, refinement or atomic coordinate data resulting 
# from the CCDC's data processing and validation procedures.
#
#######################################################################

data_PUGXOF
_chemical_name_common            
4-[1-Acetyl-3-(4-methoxyphenyl)-2-pyrazolin-5-yl]phenol
_chemical_formula_moiety         'C18 H18 N2 O3'
_chemical_name_systematic        
1-(5-(4-Hydroxyphenyl)-3-(4-methoxyphenyl)-4,5-dihydro-1H-pyrazol-1-yl)ethanone
_symmetry_cell_setting           monoclinic
_symmetry_space_group_name_H-M   'P 21/n'
_symmetry_Int_Tables_number      14
_space_group_name_Hall           '-P 2yn'
loop_
_symmetry_equiv_pos_site_id
_symmetry_equiv_pos_as_xyz
1 x,y,z
2 1/2-x,1/2+y,1/2-z
3 -x,-y,-z
4 1/2+x,1/2-y,1/2+z
_cell_length_a                   8.7037(17)
_cell_length_b                   15.673(3)
_cell_length_c                   11.096(2)
_cell_angle_alpha                90
_cell_angle_beta                 100.31(3)
_cell_angle_gamma                90
_cell_volume                     1489.2
_exptl_crystal_colour            colorless
_exptl_crystal_description       block
_cell_formula_units_Z            4
_exptl_crystal_recrystallization_method acetone/dichloromethane
loop_
_atom_site_label
_atom_site_type_symbol
_atom_site_fract_x
_atom_site_fract_y
_atom_site_fract_z
O1 O 0.94883(10) 0.38855(6) 0.70894(7)
H1 H 1.0433 0.3749 0.7160
O2 O 0.75176(10) 0.66339(5) 0.27990(7)
O3 O -0.11026(10) 0.27148(5) -0.04411(8)
N1 N 0.58975(11) 0.55520(6) 0.21083(8)
N2 N 0.43790(11) 0.52531(6) 0.17203(8)
C1 C 0.89186(13) 0.40973(7) 0.59032(10)
C2 C 0.75202(13) 0.45422(7) 0.56538(10)
H2 H 0.6974 0.4675 0.6298
C3 C 0.69165(13) 0.47942(7) 0.44593(10)
H3 H 0.5958 0.5099 0.4295
C4 C 0.77000(13) 0.46058(7) 0.35034(9)
C5 C 0.90875(13) 0.41512(7) 0.37684(10)
H4 H 0.9631 0.4015 0.3123
C6 C 0.97009(13) 0.38908(7) 0.49508(10)
H5 H 1.0646 0.3574 0.5111
C7 C 0.70776(13) 0.48686(7) 0.21887(10)
H6 H 0.7957 0.5053 0.1780
C8 C 0.61163(13) 0.41600(7) 0.14272(10)
H7 H 0.6386 0.4113 0.0600
H8 H 0.6277 0.3600 0.1843
C9 C 0.44632(13) 0.44749(7) 0.13665(9)
C10 C 0.61741(14) 0.63762(7) 0.24368(9)
C11 C 0.47757(15) 0.69509(8) 0.23326(11)
H9 H 0.5121 0.7537 0.2534
H10 H 0.4107 0.6759 0.2903
H11 H 0.4186 0.6931 0.1493
C12 C 0.30403(13) 0.39938(7) 0.09013(9)
C13 C 0.31003(14) 0.31987(7) 0.03532(10)
H12 H 0.4088 0.2956 0.0306
C14 C 0.17471(14) 0.27499(7) -0.01279(10)
H13 H 0.1812 0.2213 -0.0512
C15 C 0.03036(13) 0.30954(7) -0.00400(10)
C16 C 0.02255(14) 0.38880(7) 0.05220(10)
H14 H -0.0763 0.4123 0.0584
C17 C 0.15651(14) 0.43316(8) 0.09871(10)
H15 H 0.1494 0.4869 0.1369
C18 C -0.11105(16) 0.19636(9) -0.11600(13)
H16 H -0.0643 0.2087 -0.1881
H17 H -0.2188 0.1769 -0.1424
H18 H -0.0506 0.1516 -0.0671
loop_
_geom_bond_atom_site_label_1
_geom_bond_atom_site_label_2
_geom_bond_site_symmetry_1
_geom_bond_site_symmetry_2
O1 H1 1_555 1_555
O2 C10 1_555 1_555
O3 C15 1_555 1_555
N1 N2 1_555 1_555
N2 C9 1_555 1_555
C1 O1 1_555 1_555
C2 C1 1_555 1_555
H2 C2 1_555 1_555
C3 C2 1_555 1_555
H3 C3 1_555 1_555
C4 C3 1_555 1_555
C5 C4 1_555 1_555
H4 C5 1_555 1_555
C6 C1 1_555 1_555
H5 C6 1_555 1_555
C7 N1 1_555 1_555
H6 C7 1_555 1_555
C8 C7 1_555 1_555
H7 C8 1_555 1_555
H8 C8 1_555 1_555
C9 C8 1_555 1_555
C10 N1 1_555 1_555
C11 C10 1_555 1_555
H9 C11 1_555 1_555
H10 C11 1_555 1_555
H11 C11 1_555 1_555
C12 C9 1_555 1_555
C13 C12 1_555 1_555
H12 C13 1_555 1_555
C14 C13 1_555 1_555
H13 C14 1_555 1_555
C15 C14 1_555 1_555
C16 C15 1_555 1_555
H14 C16 1_555 1_555
C17 C12 1_555 1_555
H15 C17 1_555 1_555
C18 O3 1_555 1_555
H16 C18 1_555 1_555
H17 C18 1_555 1_555
H18 C18 1_555 1_555
C4 C7 1_555 1_555
C5 C6 1_555 1_555
C16 C17 1_555 1_555

#END
