
#######################################################################
#
#                 Cambridge Crystallographic Data Centre
#                                CCDC 
#
#######################################################################
#
# If this CIF has been generated from an entry in the Cambridge 
# Structural Database, then it will include bibliographic, chemical, 
# crystal, experimental, refinement or atomic coordinate data resulting 
# from the CCDC's data processing and validation procedures.
#
#######################################################################

data_PUGXEV
_chemical_name_common            
'2-(2-(Pentafluorophenyl)vinyl)quinolin-8-yl acetate'
_chemical_formula_moiety         'C19 H10 F5 N1 O2'
_chemical_name_systematic        
'(E)-2-[2-(Pentafluorophenyl)ethenyl]-8-quinolyl acetate'
_symmetry_cell_setting           monoclinic
_symmetry_space_group_name_H-M   'P 21'
_symmetry_Int_Tables_number      4
_space_group_name_Hall           'P 2yb'
loop_
_symmetry_equiv_pos_site_id
_symmetry_equiv_pos_as_xyz
1 x,y,z
2 -x,1/2+y,-z
_cell_length_a                   12.3149(13)
_cell_length_b                   8.6730(9)
_cell_length_c                   15.0491(16)
_cell_angle_alpha                90
_cell_angle_beta                 93.786(2)
_cell_angle_gamma                90
_cell_volume                     1603.84
_exptl_crystal_colour            colorless
_exptl_crystal_description       prismatic
_chemical_melting_point          '129-131 deg.C'
_cell_formula_units_Z            4
_exptl_crystal_recrystallization_method Dichloromethane
loop_
_atom_site_label
_atom_site_type_symbol
_atom_site_fract_x
_atom_site_fract_y
_atom_site_fract_z
F1 F 0.33611(15) -0.0821(3) 0.65824(12)
F2 F 0.49061(15) -0.2657(3) 0.73041(16)
F3 F 0.49694(18) -0.3382(3) 0.90485(18)
F4 F 0.3463(2) -0.2163(4) 1.00830(16)
F5 F 0.19062(18) -0.0336(3) 0.93763(12)
O1 O -0.16350(15) 0.2719(3) 0.84497(13)
O2 O -0.02488(19) 0.4204(3) 0.89609(14)
N1 N -0.01615(17) 0.2314(3) 0.71999(14)
C1 C -0.1009(2) 0.3273(4) 0.70004(18)
C2 C -0.1761(2) 0.3553(4) 0.76599(19)
C3 C -0.2632(2) 0.4477(5) 0.7503(2)
H1 H -0.3116 0.4635 0.7944
C4 C -0.2803(3) 0.5196(5) 0.6673(3)
H2 H -0.3406 0.5831 0.6567
C5 C -0.2108(3) 0.4990(4) 0.6018(2)
H3 H -0.2234 0.5483 0.5472
C6 C -0.1195(2) 0.4022(4) 0.61722(19)
C7 C -0.0439(3) 0.3736(4) 0.55332(19)
H4 H -0.0529 0.4185 0.4972
C8 C 0.0428(3) 0.2798(4) 0.57407(18)
H5 H 0.0943 0.2621 0.5327
C9 C 0.0542(2) 0.2100(4) 0.65838(17)
C10 C 0.1487(2) 0.1104(4) 0.68194(19)
H6 H 0.1991 0.0941 0.6396
C11 C 0.1649(2) 0.0435(4) 0.76047(19)
H7 H 0.1112 0.0611 0.7999
C12 C 0.2539(2) -0.0531(4) 0.79412(19)
C13 C 0.3347(2) -0.1141(4) 0.7447(2)
C14 C 0.4153(2) -0.2109(4) 0.7816(2)
C15 C 0.4186(3) -0.2449(5) 0.8695(3)
C16 C 0.3431(3) -0.1861(6) 0.9211(2)
C17 C 0.2627(3) -0.0916(5) 0.8837(2)
C18 C -0.0773(2) 0.3068(4) 0.90196(19)
C19 C -0.0608(3) 0.1843(6) 0.9706(3)
H8 H -0.0231 0.2267 1.0229
H9 H -0.0185 0.1022 0.9477
H10 H -0.1302 0.1451 0.9856
F6 F 0.36601(15) 0.4554(3) 0.08205(11)
F7 F 0.19161(18) 0.2788(4) 0.07778(15)
F8 F 0.06916(18) 0.2615(4) 0.22027(18)
F9 F 0.12930(17) 0.4170(3) 0.37066(14)
F10 F 0.30608(16) 0.5948(3) 0.37770(11)
O3 O 0.61824(15) 1.0012(3) 0.43067(12)
O4 O 0.67283(19) 0.7628(3) 0.46897(16)
N2 N 0.60340(17) 0.8523(3) 0.27113(14)
C20 C 0.6904(2) 0.9448(3) 0.28986(17)
C21 C 0.7023(2) 1.0169(4) 0.37360(17)
C22 C 0.7883(2) 1.1090(4) 0.3970(2)
H11 H 0.7945 1.1549 0.4529
C23 C 0.8684(2) 1.1348(4) 0.3357(2)
H12 H 0.9275 1.1979 0.3517
C24 C 0.8601(2) 1.0690(4) 0.2543(2)
H13 H 0.9138 1.0868 0.2149
C25 C 0.7707(2) 0.9734(4) 0.22833(18)
C26 C 0.7552(2) 0.9032(4) 0.14474(18)
H14 H 0.8052 0.9189 0.1020
C27 C 0.6678(2) 0.8130(4) 0.12635(18)
H15 H 0.6563 0.7683 0.0704
C28 C 0.5935(2) 0.7863(4) 0.19247(17)
C29 C 0.5021(2) 0.6793(4) 0.17519(18)
H16 H 0.4894 0.6391 0.1182
C30 C 0.4372(2) 0.6379(4) 0.23760(18)
H17 H 0.4531 0.6808 0.2936
C31 C 0.3443(2) 0.5342(4) 0.23035(18)
C32 C 0.3102(2) 0.4496(4) 0.15604(19)
C33 C 0.2199(3) 0.3571(5) 0.1518(2)
C34 C 0.1585(3) 0.3476(5) 0.2244(3)
C35 C 0.1887(2) 0.4275(5) 0.2996(2)
C36 C 0.2797(2) 0.5173(4) 0.30251(19)
C37 C 0.6063(2) 0.8611(4) 0.46929(18)
C38 C 0.5006(3) 0.8545(5) 0.5107(3)
H18 H 0.4426 0.8487 0.4650
H19 H 0.4919 0.9455 0.5459
H20 H 0.4988 0.7650 0.5482
loop_
_geom_bond_atom_site_label_1
_geom_bond_atom_site_label_2
_geom_bond_site_symmetry_1
_geom_bond_site_symmetry_2
F1 C13 1_555 1_555
F2 C14 1_555 1_555
F3 C15 1_555 1_555
F4 C16 1_555 1_555
F5 C17 1_555 1_555
O1 C2 1_555 1_555
O2 C18 1_555 1_555
N1 C1 1_555 1_555
C1 C2 1_555 1_555
C2 C3 1_555 1_555
C3 H1 1_555 1_555
C4 C3 1_555 1_555
H2 C4 1_555 1_555
C5 C4 1_555 1_555
H3 C5 1_555 1_555
C6 C1 1_555 1_555
C7 C6 1_555 1_555
H4 C7 1_555 1_555
C8 C7 1_555 1_555
H5 C8 1_555 1_555
C9 N1 1_555 1_555
C10 C9 1_555 1_555
H6 C10 1_555 1_555
C11 C10 1_555 1_555
H7 C11 1_555 1_555
C12 C11 1_555 1_555
C13 C12 1_555 1_555
C14 C13 1_555 1_555
C15 C14 1_555 1_555
C16 C15 1_555 1_555
C17 C12 1_555 1_555
C18 O1 1_555 1_555
C19 C18 1_555 1_555
H8 C19 1_555 1_555
H9 C19 1_555 1_555
H10 C19 1_555 1_555
F6 C32 1_555 1_555
F7 C33 1_555 1_555
F8 C34 1_555 1_555
F9 C35 1_555 1_555
F10 C36 1_555 1_555
O3 C21 1_555 1_555
O4 C37 1_555 1_555
N2 C20 1_555 1_555
C20 C21 1_555 1_555
C21 C22 1_555 1_555
C22 H11 1_555 1_555
C23 C22 1_555 1_555
H12 C23 1_555 1_555
C24 C23 1_555 1_555
H13 C24 1_555 1_555
C25 C20 1_555 1_555
C26 C25 1_555 1_555
H14 C26 1_555 1_555
C27 C26 1_555 1_555
H15 C27 1_555 1_555
C28 N2 1_555 1_555
C29 C28 1_555 1_555
H16 C29 1_555 1_555
C30 C29 1_555 1_555
H17 C30 1_555 1_555
C31 C30 1_555 1_555
C32 C31 1_555 1_555
C33 C32 1_555 1_555
C34 C33 1_555 1_555
C35 C34 1_555 1_555
C36 C31 1_555 1_555
C37 O3 1_555 1_555
C38 C37 1_555 1_555
H18 C38 1_555 1_555
H19 C38 1_555 1_555
H20 C38 1_555 1_555
C5 C6 1_555 1_555
C8 C9 1_555 1_555
C16 C17 1_555 1_555
C24 C25 1_555 1_555
C27 C28 1_555 1_555
C35 C36 1_555 1_555

#END
