
#######################################################################
#
#                 Cambridge Crystallographic Data Centre
#                                CCDC 
#
#######################################################################
#
# If this CIF has been generated from an entry in the Cambridge 
# Structural Database, then it will include bibliographic, chemical, 
# crystal, experimental, refinement or atomic coordinate data resulting 
# from the CCDC's data processing and validation procedures.
#
#######################################################################

data_PUGXIZ
_chemical_formula_moiety         'C14 H10 Cl2 N2 O1'
_chemical_name_systematic        
2-Chloro-N'-(2-chlorobenzylidene)benzohydrazide
_symmetry_cell_setting           orthorhombic
_symmetry_space_group_name_H-M   'P b c a'
_symmetry_Int_Tables_number      61
_space_group_name_Hall           '-P 2ac 2ab'
loop_
_symmetry_equiv_pos_site_id
_symmetry_equiv_pos_as_xyz
1 x,y,z
2 1/2-x,-y,1/2+z
3 -x,1/2+y,1/2-z
4 1/2+x,1/2-y,-z
5 -x,-y,-z
6 1/2+x,y,1/2-z
7 x,1/2-y,1/2+z
8 1/2-x,1/2+y,z
_cell_length_a                   11.9336(5)
_cell_length_b                   9.7471(4)
_cell_length_c                   22.5840(9)
_cell_angle_alpha                90
_cell_angle_beta                 90
_cell_angle_gamma                90
_cell_volume                     2626.93
_exptl_crystal_colour            colorless
_exptl_crystal_description       block
_cell_formula_units_Z            8
loop_
_atom_site_label
_atom_site_type_symbol
_atom_site_fract_x
_atom_site_fract_y
_atom_site_fract_z
Cl1 Cl 0.79500(6) 0.47092(7) 0.48378(3)
Cl2 Cl 0.53369(5) 1.04300(6) 0.72070(3)
N1 N 0.84153(13) 0.81563(16) 0.59949(6)
N2 N 0.78786(14) 0.79951(16) 0.65338(7)
O1 O 0.78386(13) 1.02813(13) 0.67114(6)
C1 C 0.90227(16) 0.7097(2) 0.51022(8)
C2 C 0.88637(17) 0.6053(2) 0.46878(9)
C3 C 0.9388(2) 0.6077(3) 0.41454(10)
H1 H 0.9271 0.5370 0.3876
C4 C 1.0084(2) 0.7148(3) 0.40032(10)
H2 H 1.0434 0.7167 0.3635
C5 C 1.02694(18) 0.8197(2) 0.44010(9)
H3 H 1.0743 0.8920 0.4303
C6 C 0.97447(17) 0.8163(2) 0.49456(9)
H4 H 0.9876 0.8867 0.5215
C7 C 0.84564(16) 0.70741(19) 0.56775(8)
H5 H 0.8126 0.6268 0.5812
C8 C 0.76315(16) 0.91055(19) 0.68656(8)
C9 C 0.71126(16) 0.87531(19) 0.74505(8)
C10 C 0.61214(17) 0.9330(2) 0.76526(9)
C11 C 0.5702(2) 0.9017(3) 0.82073(10)
H6 H 0.5042 0.9422 0.8339
C12 C 0.6263(2) 0.8106(3) 0.85620(10)
H7 H 0.5982 0.7897 0.8935
C13 C 0.7236(2) 0.7499(3) 0.83710(10)
H8 H 0.7606 0.6869 0.8611
C14 C 0.76608(19) 0.7831(2) 0.78197(9)
H9 H 0.8326 0.7430 0.7694
H10 H 0.768(2) 0.7142(14) 0.6655(11)
loop_
_geom_bond_atom_site_label_1
_geom_bond_atom_site_label_2
_geom_bond_site_symmetry_1
_geom_bond_site_symmetry_2
Cl1 C2 1_555 1_555
Cl2 C10 1_555 1_555
N1 N2 1_555 1_555
N2 C8 1_555 1_555
O1 C8 1_555 1_555
C1 C2 1_555 1_555
C2 C3 1_555 1_555
C3 H1 1_555 1_555
C4 C3 1_555 1_555
H2 C4 1_555 1_555
C5 C4 1_555 1_555
H3 C5 1_555 1_555
C6 C1 1_555 1_555
H4 C6 1_555 1_555
C7 N1 1_555 1_555
H5 C7 1_555 1_555
C8 C9 1_555 1_555
C9 C10 1_555 1_555
C10 C11 1_555 1_555
C11 H6 1_555 1_555
C12 C11 1_555 1_555
H7 C12 1_555 1_555
C13 C12 1_555 1_555
H8 C13 1_555 1_555
C14 C9 1_555 1_555
H9 C14 1_555 1_555
H10 N2 1_555 1_555
C1 C7 1_555 1_555
C5 C6 1_555 1_555
C13 C14 1_555 1_555

#END
