
#######################################################################
#
#                 Cambridge Crystallographic Data Centre
#                                CCDC 
#
#######################################################################
#
# If this CIF has been generated from an entry in the Cambridge 
# Structural Database, then it will include bibliographic, chemical, 
# crystal, experimental, refinement or atomic coordinate data resulting 
# from the CCDC's data processing and validation procedures.
#
#######################################################################

data_PUGZIB
_chemical_name_common            (E)-3-(2,6-Dichlorobenzylidene)indolin-2-one
_chemical_formula_moiety         'C15 H9 Cl2 N1 O1'
_chemical_name_systematic        
3-(2,6-Dichlorobenzylidene)-1,3-dihydro-2H-indol-2-one
_symmetry_cell_setting           triclinic
_symmetry_space_group_name_H-M   'P -1'
_symmetry_Int_Tables_number      2
_space_group_name_Hall           '-P 1'
loop_
_symmetry_equiv_pos_site_id
_symmetry_equiv_pos_as_xyz
1 x,y,z
2 -x,-y,-z
_cell_length_a                   8.3908(5)
_cell_length_b                   12.6079(7)
_cell_length_c                   12.7635(7)
_cell_angle_alpha                99.3340(10)
_cell_angle_beta                 91.1880(10)
_cell_angle_gamma                96.3380(10)
_cell_volume                     1323.21
_exptl_crystal_colour            orange
_exptl_crystal_description       plates
_cell_formula_units_Z            4
_exptl_crystal_recrystallization_method ethanol
loop_
_atom_site_label
_atom_site_type_symbol
_atom_site_fract_x
_atom_site_fract_y
_atom_site_fract_z
N1 N 0.8867(2) 0.59180(14) 0.44745(13)
H1 H 0.9144 0.5842 0.5108
C1 C 0.9182(3) 0.52439(18) 0.35853(16)
O1 O 0.9914(2) 0.44512(13) 0.35421(12)
C2 C 0.8476(2) 0.56692(16) 0.26602(15)
C3 C 0.6896(3) 0.73604(17) 0.27271(17)
H2 H 0.6677 0.7285 0.2000
C4 C 0.6374(3) 0.82040(18) 0.3414(2)
H3 H 0.5800 0.8698 0.3146
C5 C 0.6698(3) 0.83215(18) 0.44947(19)
H4 H 0.6343 0.8898 0.4944
C6 C 0.7538(3) 0.76009(18) 0.49217(17)
H5 H 0.7760 0.7684 0.5649
C7 C 0.8033(2) 0.67554(16) 0.42338(16)
C8 C 0.7750(2) 0.66252(16) 0.31353(15)
C9 C 0.8627(3) 0.51431(17) 0.16770(16)
H6 H 0.9152 0.4526 0.1636
C10 C 0.8090(2) 0.53923(16) 0.06520(15)
C11 C 0.8584(2) 0.63401(17) 0.02580(16)
Cl1 Cl 0.99044(8) 0.73448(5) 0.10073(5)
C12 C 0.8105(3) 0.6502(2) -0.07446(18)
H7 H 0.8441 0.7148 -0.0979
C13 C 0.7137(3) 0.5705(3) -0.13847(19)
H8 H 0.6818 0.5810 -0.2059
C14 C 0.6628(3) 0.4751(2) -0.10437(19)
H9 H 0.5965 0.4211 -0.1482
C15 C 0.7111(3) 0.46028(18) -0.00474(17)
Cl2 Cl 0.64687(9) 0.33919(5) 0.03774(6)
N2 N 0.6215(2) 0.38621(13) 0.51019(13)
H10 H 0.6146 0.4447 0.5543
C16 C 0.5593(3) 0.36652(16) 0.40938(16)
O2 O 0.4820(2) 0.42554(12) 0.36706(12)
C17 C 0.6022(2) 0.25727(15) 0.36049(15)
C18 C 0.7577(3) 0.12452(17) 0.44962(18)
H11 H 0.7547 0.0704 0.3904
C19 C 0.8278(3) 0.1109(2) 0.5444(2)
H12 H 0.8720 0.0473 0.5491
C20 C 0.8328(3) 0.1911(2) 0.6324(2)
H13 H 0.8808 0.1805 0.6957
C21 C 0.7682(3) 0.28678(19) 0.62897(17)
H14 H 0.7717 0.3405 0.6885
C22 C 0.6985(2) 0.29923(16) 0.53382(16)
C23 C 0.6920(2) 0.21915(15) 0.44319(15)
C24 C 0.5491(2) 0.21366(15) 0.26238(15)
H15 H 0.4870 0.2549 0.2276
C25 C 0.5768(2) 0.10769(15) 0.20232(14)
C26 C 0.4491(3) 0.02878(16) 0.16894(16)
Cl3 Cl 0.25656(7) 0.05641(5) 0.20230(6)
C27 C 0.4683(3) -0.07053(18) 0.10949(18)
H16 H 0.3801 -0.1218 0.0890
C28 C 0.6194(4) -0.0920(2) 0.08132(18)
H17 H 0.6337 -0.1587 0.0415
C29 C 0.7498(3) -0.0170(2) 0.11093(19)
H18 H 0.8519 -0.0322 0.0910
C30 C 0.7281(3) 0.08203(18) 0.17090(17)
Cl4 Cl 0.89345(8) 0.17731(6) 0.20621(6)
loop_
_geom_bond_atom_site_label_1
_geom_bond_atom_site_label_2
_geom_bond_site_symmetry_1
_geom_bond_site_symmetry_2
N1 H1 1_555 1_555
C1 N1 1_555 1_555
O1 C1 1_555 1_555
C2 C1 1_555 1_555
C3 H2 1_555 1_555
C4 C3 1_555 1_555
H3 C4 1_555 1_555
C5 C4 1_555 1_555
H4 C5 1_555 1_555
C6 C5 1_555 1_555
H5 C6 1_555 1_555
C7 N1 1_555 1_555
C8 C2 1_555 1_555
C9 C2 1_555 1_555
H6 C9 1_555 1_555
C10 C9 1_555 1_555
C11 C10 1_555 1_555
Cl1 C11 1_555 1_555
C12 C11 1_555 1_555
H7 C12 1_555 1_555
C13 C12 1_555 1_555
H8 C13 1_555 1_555
C14 C13 1_555 1_555
H9 C14 1_555 1_555
C15 C10 1_555 1_555
Cl2 C15 1_555 1_555
N2 H10 1_555 1_555
C16 N2 1_555 1_555
O2 C16 1_555 1_555
C17 C16 1_555 1_555
C18 H11 1_555 1_555
C19 C18 1_555 1_555
H12 C19 1_555 1_555
C20 C19 1_555 1_555
H13 C20 1_555 1_555
C21 C20 1_555 1_555
H14 C21 1_555 1_555
C22 N2 1_555 1_555
C23 C17 1_555 1_555
C24 C17 1_555 1_555
H15 C24 1_555 1_555
C25 C24 1_555 1_555
C26 C25 1_555 1_555
Cl3 C26 1_555 1_555
C27 C26 1_555 1_555
H16 C27 1_555 1_555
C28 C27 1_555 1_555
H17 C28 1_555 1_555
C29 C28 1_555 1_555
H18 C29 1_555 1_555
C30 C25 1_555 1_555
Cl4 C30 1_555 1_555
C3 C8 1_555 1_555
C6 C7 1_555 1_555
C7 C8 1_555 1_555
C14 C15 1_555 1_555
C18 C23 1_555 1_555
C21 C22 1_555 1_555
C22 C23 1_555 1_555
C29 C30 1_555 1_555

#END
