
#######################################################################
#
#                 Cambridge Crystallographic Data Centre
#                                CCDC 
#
#######################################################################
#
# If this CIF has been generated from an entry in the Cambridge 
# Structural Database, then it will include bibliographic, chemical, 
# crystal, experimental, refinement or atomic coordinate data resulting 
# from the CCDC's data processing and validation procedures.
#
#######################################################################

data_PUHBIE
_chemical_name_common            
'rac-Dimethyl ((4,6-dimethoxy-2-(4-methoxyphenyl)-3-oxo-2,3-dihydro-1-benzofuran-2-yl)(phenyl)methyl)malonate'
_chemical_formula_moiety         'C29 H28 O9'
_chemical_name_systematic        
'(3R*)-Methyl 3-[(2S*)-4,6-dimethoxy-2-(4-methoxyphenyl)-3-oxo-2,3-dihydro-1-benzofuran-2-yl]-2-methoxycarbonyl-3-phenylpropionate'
_symmetry_cell_setting           triclinic
_symmetry_space_group_name_H-M   'P -1'
_symmetry_Int_Tables_number      2
_space_group_name_Hall           '-P 1'
loop_
_symmetry_equiv_pos_site_id
_symmetry_equiv_pos_as_xyz
1 x,y,z
2 -x,-y,-z
_cell_length_a                   6.901(5)
_cell_length_b                   10.478(5)
_cell_length_c                   18.467(5)
_cell_angle_alpha                79.838(5)
_cell_angle_beta                 86.976(5)
_cell_angle_gamma                77.097(5)
_cell_volume                     1281.06
_exptl_crystal_colour            colorless
_exptl_crystal_description       block
_cell_formula_units_Z            2
loop_
_atom_site_label
_atom_site_type_symbol
_atom_site_fract_x
_atom_site_fract_y
_atom_site_fract_z
O1 O 0.72974(16) -0.00047(10) 0.17466(6)
O2 O 0.11720(18) 0.08988(12) 0.05005(7)
O3 O 0.74032(15) 0.21665(10) 0.26672(6)
O4 O 0.23465(13) 0.35531(9) 0.22326(5)
O5 O 0.1979(2) 0.09372(13) 0.55766(6)
O6 O 0.47464(18) 0.74181(12) 0.28233(9)
O7 O 0.14431(16) 0.81607(10) 0.27886(7)
C1 C 0.2267(2) 0.12553(15) 0.09905(8)
C2 C 0.4180(2) 0.04509(15) 0.11022(8)
H1 H 0.4594 -0.0263 0.0853
C3 C 0.5450(2) 0.07168(14) 0.15815(8)
C4 C 0.4790(2) 0.18239(13) 0.19409(7)
C5 C 0.2860(2) 0.25550(12) 0.18279(7)
C6 C 0.1540(2) 0.23139(14) 0.13594(7)
H2 H 0.0254 0.2825 0.1295
C7 C 0.3966(2) 0.34343(13) 0.27287(7)
C8 C 0.5705(2) 0.24013(13) 0.24547(7)
C9 C 0.3410(2) 0.27976(13) 0.34983(7)
C10 C 0.4720(2) 0.26054(15) 0.40736(8)
H3 H 0.5905 0.2894 0.3987
C11 C 0.4297(2) 0.19920(16) 0.47741(8)
H4 H 0.5184 0.1883 0.5153
C12 C 0.2553(2) 0.15417(15) 0.49079(8)
C13 C 0.1257(2) 0.16977(16) 0.43329(9)
H5 H 0.0095 0.1380 0.4416
C14 C 0.1678(2) 0.23218(14) 0.36369(8)
H6 H 0.0793 0.2424 0.3257
C15 C 0.3217(3) 0.0827(2) 0.61877(10)
H7 H 0.4527 0.0335 0.6091
H8 H 0.2670 0.0374 0.6620
H9 H 0.3289 0.1699 0.6263
C16 C 0.4442(2) 0.48256(13) 0.26704(7)
H10 H 0.5424 0.4762 0.3047
C17 C 0.5380(2) 0.52433(13) 0.19253(8)
C18 C 0.4260(2) 0.57228(18) 0.12944(9)
H11 H 0.2887 0.5813 0.1324
C19 C 0.5154(3) 0.6070(2) 0.06191(10)
H12 H 0.4378 0.6389 0.0202
C20 C 0.7178(3) 0.59466(18) 0.05638(10)
H13 H 0.7779 0.6175 0.0111
C21 C 0.8301(2) 0.54818(16) 0.11845(10)
H14 H 0.9672 0.5397 0.1151
C22 C 0.7418(2) 0.51363(14) 0.18602(9)
H15 H 0.8203 0.4828 0.2276
C23 C 0.2594(2) 0.58820(13) 0.28276(8)
H16 H 0.1610 0.5978 0.2447
C24 C 0.1603(2) 0.56062(15) 0.35796(8)
C25 C 0.3135(2) 0.72205(13) 0.28050(8)
C26 C 0.1644(3) 0.94722(15) 0.28982(12)
H17 H 0.0520 1.0130 0.2692
H18 H 0.2841 0.9664 0.2659
H19 H 0.1703 0.9484 0.3415
C27 C 0.7892(3) -0.12487(18) 0.14867(11)
H20 H 0.7877 -0.1093 0.0959
H21 H 0.6986 -0.1806 0.1675
H22 H 0.9210 -0.1679 0.1652
C28 C -0.0736(3) 0.17228(18) 0.03147(10)
H23 H -0.1343 0.1365 -0.0037
H24 H -0.0592 0.2603 0.0106
H25 H -0.1558 0.1755 0.0750
O8 O 0.2258(6) 0.5551(6) 0.41638(11)
O9 O -0.0279(4) 0.5512(5) 0.34725(13)
C29 C -0.1494(4) 0.5308(3) 0.41401(13)
H26 H -0.2861 0.5443 0.4008
H27 H -0.1368 0.5929 0.4450
H28 H -0.1050 0.4418 0.4399
C30? C 0.2580(11) 0.5464(7) 0.4862(2)
H29? H 0.3803 0.5331 0.5117
H30? H 0.2003 0.4702 0.5007
H31? H 0.1674 0.6239 0.4981
O10? O 0.0009(7) 0.5422(10) 0.3754(4)
O11? O 0.2974(7) 0.5644(8) 0.40674(19)
loop_
_geom_bond_atom_site_label_1
_geom_bond_atom_site_label_2
_geom_bond_site_symmetry_1
_geom_bond_site_symmetry_2
O1 C3 1_555 1_555
O2 C1 1_555 1_555
O3 C8 1_555 1_555
O4 C5 1_555 1_555
O5 C12 1_555 1_555
O6 C25 1_555 1_555
O7 C25 1_555 1_555
C1 C2 1_555 1_555
C2 H1 1_555 1_555
C3 C2 1_555 1_555
C4 C3 1_555 1_555
C5 C4 1_555 1_555
C6 C1 1_555 1_555
H2 C6 1_555 1_555
C7 O4 1_555 1_555
C8 C4 1_555 1_555
C9 C7 1_555 1_555
C10 C9 1_555 1_555
H3 C10 1_555 1_555
C11 C10 1_555 1_555
H4 C11 1_555 1_555
C12 C11 1_555 1_555
C13 C12 1_555 1_555
H5 C13 1_555 1_555
C14 C9 1_555 1_555
H6 C14 1_555 1_555
C15 O5 1_555 1_555
H7 C15 1_555 1_555
H8 C15 1_555 1_555
H9 C15 1_555 1_555
C16 C7 1_555 1_555
H10 C16 1_555 1_555
C17 C16 1_555 1_555
C18 C17 1_555 1_555
H11 C18 1_555 1_555
C19 C18 1_555 1_555
H12 C19 1_555 1_555
C20 C19 1_555 1_555
H13 C20 1_555 1_555
C21 C20 1_555 1_555
H14 C21 1_555 1_555
C22 C17 1_555 1_555
H15 C22 1_555 1_555
C23 C16 1_555 1_555
H16 C23 1_555 1_555
C24 C23 1_555 1_555
C25 C23 1_555 1_555
C26 O7 1_555 1_555
H17 C26 1_555 1_555
H18 C26 1_555 1_555
H19 C26 1_555 1_555
C27 O1 1_555 1_555
H20 C27 1_555 1_555
H21 C27 1_555 1_555
H22 C27 1_555 1_555
C28 O2 1_555 1_555
H23 C28 1_555 1_555
H24 C28 1_555 1_555
H25 C28 1_555 1_555
O8 C24 1_555 1_555
O9 C24 1_555 1_555
C29 O9 1_555 1_555
H26 C29 1_555 1_555
H27 C29 1_555 1_555
H28 C29 1_555 1_555
C5 C6 1_555 1_555
C7 C8 1_555 1_555
C13 C14 1_555 1_555
C21 C22 1_555 1_555

#END
