
#######################################################################
#
#                 Cambridge Crystallographic Data Centre
#                                CCDC 
#
#######################################################################
#
# If this CIF has been generated from an entry in the Cambridge 
# Structural Database, then it will include bibliographic, chemical, 
# crystal, experimental, refinement or atomic coordinate data resulting 
# from the CCDC's data processing and validation procedures.
#
#######################################################################

data_PUHCOL
_chemical_formula_moiety         'C6 H6 N2 O2'
_chemical_name_systematic        'Methyl pyrazine-2-carboxylate'
_symmetry_cell_setting           orthorhombic
_symmetry_space_group_name_H-M   'P 21 21 21'
_symmetry_Int_Tables_number      19
_space_group_name_Hall           'P 2ac 2ab'
loop_
_symmetry_equiv_pos_site_id
_symmetry_equiv_pos_as_xyz
1 x,y,z
2 1/2-x,-y,1/2+z
3 -x,1/2+y,1/2-z
4 1/2+x,1/2-y,-z
_cell_length_a                   3.865(2)
_cell_length_b                   6.690(4)
_cell_length_c                   24.92(2)
_cell_angle_alpha                90
_cell_angle_beta                 90
_cell_angle_gamma                90
_cell_volume                     644.353
_exptl_crystal_colour            colorless
_exptl_crystal_description       needle
_cell_formula_units_Z            4
loop_
_atom_site_label
_atom_site_type_symbol
_atom_site_fract_x
_atom_site_fract_y
_atom_site_fract_z
C1 C 0.2013(5) 0.6623(3) 0.93604(7)
H1 H 0.0959 0.7714 0.9524
C2 C 0.2602(4) 0.6690(2) 0.88246(6)
C3 C 0.5035(6) 0.3674(2) 0.88599(7)
H2 H 0.6133 0.2594 0.8698
C4 C 0.4367(6) 0.3607(3) 0.93986(7)
H3 H 0.4999 0.2470 0.9589
C5 C 0.1459(4) 0.8493(2) 0.85163(6)
C6 C 0.1405(5) 1.0165(2) 0.76991(8)
H4 H 0.2569 1.0139 0.7359
H5 H 0.1955 1.1385 0.7883
H6 H -0.1049 1.0089 0.7643
N1 N 0.4157(4) 0.52391(19) 0.85628(6)
N2 N 0.2869(5) 0.5082(2) 0.96584(6)
O1 O 0.2516(3) 0.84861(17) 0.80180(4)
O2 O -0.0298(4) 0.97530(17) 0.87108(5)
loop_
_geom_bond_atom_site_label_1
_geom_bond_atom_site_label_2
_geom_bond_site_symmetry_1
_geom_bond_site_symmetry_2
C1 H1 1_555 1_555
C2 C1 1_555 1_555
C3 H2 1_555 1_555
C4 C3 1_555 1_555
H3 C4 1_555 1_555
C5 C2 1_555 1_555
C6 H4 1_555 1_555
H5 C6 1_555 1_555
H6 C6 1_555 1_555
N1 C2 1_555 1_555
N2 C1 1_555 1_555
O1 C5 1_555 1_555
O2 C5 1_555 1_555
C3 N1 1_555 1_555
C4 N2 1_555 1_555
C6 O1 1_555 1_555

#END
