
#######################################################################
#
#                 Cambridge Crystallographic Data Centre
#                                CCDC 
#
#######################################################################
#
# If this CIF has been generated from an entry in the Cambridge 
# Structural Database, then it will include bibliographic, chemical, 
# crystal, experimental, refinement or atomic coordinate data resulting 
# from the CCDC's data processing and validation procedures.
#
#######################################################################

data_PUHDUS01
_chemical_formula_moiety         'C3 H5 N5 O2'
_chemical_name_systematic        
4-Amino-N'-hydroxy-1,2,5-oxadiazole-3-carboximidamide
_symmetry_cell_setting           monoclinic
_symmetry_space_group_name_H-M   'P 21/c'
_symmetry_Int_Tables_number      14
_space_group_name_Hall           '-P 2ybc'
loop_
_symmetry_equiv_pos_site_id
_symmetry_equiv_pos_as_xyz
1 x,y,z
2 -x,1/2+y,1/2-z
3 -x,-y,-z
4 x,1/2-y,1/2+z
_cell_length_a                   7.651(3)
_cell_length_b                   11.702(3)
_cell_length_c                   19.216(1)
_cell_angle_alpha                90
_cell_angle_beta                 96.47(4)
_cell_angle_gamma                90
_cell_volume                     1709.49
_cell_formula_units_Z            12
loop_
_atom_site_label
_atom_site_type_symbol
_atom_site_fract_x
_atom_site_fract_y
_atom_site_fract_z
N1 N 1.6362(8) 0.5967(6) 0.9121(3)
N2 N 1.4910(7) 0.7018(6) 0.8172(3)
O1 O 1.6664(7) 0.7168(5) 0.8015(3)
C1 C 1.3195(9) 0.6166(6) 0.8965(3)
C2 C 1.1495(9) 0.6534(6) 0.8689(3)
N3 N 1.0303(8) 0.6163(6) 0.9067(3)
O2 O 1.1284(6) 0.5552(4) 0.9614(2)
N4 N 1.3072(7) 0.5590(6) 0.9525(3)
N5 N 1.1057(12) 0.7176(8) 0.8069(4)
C3 C 1.4944(9) 0.6403(6) 0.8746(3)
C4 C 1.6668(9) 0.9469(6) 0.9004(3)
C5 C 1.4962(8) 0.9845(96) 0.8716(3)
N6 N 1.3779(7) 0.9425(6) 0.9082(3)
O3 O 1.4729(6) 0.8794(4) 0.9618(2)
N7 N 1.6483(7) 0.8826(5) 0.9559(3)
N8 N 1.4517(9) 1.0440(6) 0.8111(3)
C6 C 1.8407(8) 0.9699(6) 0.8776(3)
N9 N 1.8300(7) 1.0284(5) 0.8202(2)
O4 O 2.0070(6) 1.0504(4) 0.8026(2)
N10 N 1.9823(9) 0.9318(7) 0.9165(3)
C7 C 0.9830(9) 0.2882(6) 0.8929(3)
C8 C 0.8158(8) 0.3258(6) 0.8617(3)
N11 N 0.6927(7) 0.2845(6) 0.8968(3)
O5 O 0.7868(6) 0.2205(4) 0.9516(2)
N12 N 0.9650(7) 0.2247(5) 0.9486(3)
N13 N 0.7772(10) 0.3874(6) 0.8021(3)
C9 C 1.1588(9) 0.3116(6) 0.8709(3)
N14 N 1.1536(7) 0.3747(5) 0.8157(3)
O6 O 1.3280(6) 0.3937(5) 0.7977(2)
N15 N 1.3018(8) 0.2672(7) 0.9075(3)
loop_
_geom_bond_atom_site_label_1
_geom_bond_atom_site_label_2
_geom_bond_site_symmetry_1
_geom_bond_site_symmetry_2
N1 C3 1_555 1_555
N2 O1 1_555 1_555
C1 C2 1_555 1_555
C2 N3 1_555 1_555
N3 O2 1_555 1_555
O2 N4 1_555 1_555
N4 C1 1_555 1_555
N5 C2 1_555 1_555
C3 N2 1_555 1_555
C4 C5 1_555 1_555
C5 N6 1_555 1_555
N6 O3 1_555 1_555
O3 N7 1_555 1_555
N7 C4 1_555 1_555
N8 C5 1_555 1_555
C6 C4 1_555 1_555
N9 C6 1_555 1_555
O4 N9 1_555 1_555
N10 C6 1_555 1_555
C7 C8 1_555 1_555
C8 N11 1_555 1_555
N11 O5 1_555 1_555
O5 N12 1_555 1_555
N12 C7 1_555 1_555
N13 C8 1_555 1_555
C9 C7 1_555 1_555
N14 C9 1_555 1_555
O6 N14 1_555 1_555
N15 C9 1_555 1_555
C1 C3 1_555 1_555

#END
