
#######################################################################
#
#                 Cambridge Crystallographic Data Centre
#                                CCDC 
#
#######################################################################
#
# If this CIF has been generated from an entry in the Cambridge 
# Structural Database, then it will include bibliographic, chemical, 
# crystal, experimental, refinement or atomic coordinate data resulting 
# from the CCDC's data processing and validation procedures.
#
#######################################################################

data_PUHDUS
_chemical_formula_moiety         'C3 H5 N5 O2'
_chemical_name_systematic        
4-Amino-N'-hydroxy-1,2,5-oxadiazole-3-carboximidamide
_symmetry_cell_setting           monoclinic
_symmetry_space_group_name_H-M   'P 21/c'
_symmetry_Int_Tables_number      14
_space_group_name_Hall           '-P 2ybc'
loop_
_symmetry_equiv_pos_site_id
_symmetry_equiv_pos_as_xyz
1 x,y,z
2 -x,1/2+y,1/2-z
3 -x,-y,-z
4 x,1/2-y,1/2+z
_cell_length_a                   7.6514(15)
_cell_length_b                   11.712(2)
_cell_length_c                   19.218(4)
_cell_angle_alpha                90
_cell_angle_beta                 96.53(3)
_cell_angle_gamma                90
_cell_volume                     1711.01
_exptl_crystal_colour            yellow
_exptl_crystal_description       bar
_cell_formula_units_Z            12
_exptl_crystal_recrystallization_method water/ethanol
loop_
_atom_site_label
_atom_site_type_symbol
_atom_site_fract_x
_atom_site_fract_y
_atom_site_fract_z
O1 O 0.33315(11) 0.21704(8) 0.19898(5)
H1 H 0.3466 0.2671 0.2289
N1 N 0.50875(13) 0.20169(9) 0.18228(5)
O2 O 0.87029(12) 0.05568(9) 0.03919(5)
N2 N 0.69431(13) 0.05829(9) 0.04686(6)
C1 C 0.50579(14) 0.14024(9) 0.12631(6)
C2 C 0.67858(15) 0.11797(9) 0.10272(6)
N3 N 0.36404(14) 0.09580(10) 0.08818(6)
H2 H 0.2608 0.1073 0.1004
H3 H 0.3765 0.0558 0.0515
N4 N 0.89742(14) 0.21284(9) 0.19346(5)
H4 H 0.9980 0.2464 0.1975
H5 H 0.8122 0.2534 0.2056
C3 C 0.85080(14) 0.15425(10) 0.13211(6)
N5 N 0.96673(14) 0.11600(10) 0.09296(6)
O3 O 0.32799(11) 0.39453(7) 0.29805(4)
H6 H 0.3073 0.4390 0.2652
N6 N 0.15351(12) 0.37447(9) 0.31574(5)
C4 C 0.15895(14) 0.31171(9) 0.37121(6)
O4 O -0.21344(12) 0.22039(9) 0.45154(5)
N7 N 0.30087(14) 0.26718(10) 0.40878(6)
H7 H 0.4039 0.2795 0.3966
H8 H 0.2889 0.2263 0.4451
N8 N -0.03621(13) 0.22429(9) 0.44691(6)
N9 N -0.22143(14) 0.38907(10) 0.30266(6)
H9 H -0.3287 0.4043 0.2870
H10 H -0.1370 0.4140 0.2809
C5 C -0.01584(14) 0.28737(10) 0.39297(6)
C6 C -0.18545(15) 0.32568(10) 0.36160(6)
N10 N -0.30561(14) 0.28438(10) 0.39787(6)
O5 O -0.00634(11) 0.55083(8) 0.19706(5)
H11 H 0.0138 0.5963 0.2294
O6 O 0.52696(12) 0.37960(9) 0.03821(5)
N11 N 0.16666(12) 0.52895(9) 0.17977(5)
C7 C 0.16061(14) 0.47025(9) 0.12245(6)
C8 C 0.33383(14) 0.44556(9) 0.09947(6)
C9 C 0.50497(14) 0.48252(10) 0.12947(6)
N12 N 0.54677(14) 0.54437(10) 0.18905(6)
H12 H 0.6551 0.5585 0.2035
H13 H 0.4648 0.5693 0.2122
N13 N 0.01713(13) 0.43080(10) 0.08336(6)
H14 H -0.0856 0.4439 0.0957
H15 H 0.0277 0.3924 0.0459
N14 N 0.35054(13) 0.38407(9) 0.04455(6)
N15 N 0.62218(14) 0.44196(10) 0.09165(6)
loop_
_geom_bond_atom_site_label_1
_geom_bond_atom_site_label_2
_geom_bond_site_symmetry_1
_geom_bond_site_symmetry_2
O1 H1 1_555 1_555
N1 O1 1_555 1_555
O2 N2 1_555 1_555
N2 C2 1_555 1_555
C1 N1 1_555 1_555
C2 C1 1_555 1_555
N3 C1 1_555 1_555
H2 N3 1_555 1_555
H3 N3 1_555 1_555
N4 H4 1_555 1_555
H5 N4 1_555 1_555
C3 C2 1_555 1_555
N5 O2 1_555 1_555
O3 H6 1_555 1_555
N6 O3 1_555 1_555
C4 N6 1_555 1_555
O4 N8 1_555 1_555
N7 C4 1_555 1_555
H7 N7 1_555 1_555
H8 N7 1_555 1_555
N8 C5 1_555 1_555
N9 H9 1_555 1_555
H10 N9 1_555 1_555
C5 C4 1_555 1_555
C6 N9 1_555 1_555
N10 O4 1_555 1_555
O5 H11 1_555 1_555
O6 N14 1_555 1_555
N11 O5 1_555 1_555
C7 N11 1_555 1_555
C8 C7 1_555 1_555
C9 C8 1_555 1_555
N12 C9 1_555 1_555
H12 N12 1_555 1_555
H13 N12 1_555 1_555
N13 C7 1_555 1_555
H14 N13 1_555 1_555
H15 N13 1_555 1_555
N14 C8 1_555 1_555
N15 O6 1_555 1_555
N4 C3 1_555 1_555
C3 N5 1_555 1_555
C5 C6 1_555 1_555
C6 N10 1_555 1_555
C9 N15 1_555 1_555

#END
