
#######################################################################
#
#                 Cambridge Crystallographic Data Centre
#                                CCDC 
#
#######################################################################
#
# If this CIF has been generated from an entry in the Cambridge 
# Structural Database, then it will include bibliographic, chemical, 
# crystal, experimental, refinement or atomic coordinate data resulting 
# from the CCDC's data processing and validation procedures.
#
#######################################################################

data_PUHFEE
_chemical_name_common            3-Hydroxy-3-nitromethylindolin-2-one
_chemical_formula_moiety         'C9 H8 N2 O4'
_chemical_name_systematic        
3-Hydroxy-3-(nitromethyl)-1,3-dihydro-2H-indol-2-one
_symmetry_cell_setting           orthorhombic
_symmetry_space_group_name_H-M   'P b c a'
_symmetry_Int_Tables_number      61
_space_group_name_Hall           '-P 2ac 2ab'
loop_
_symmetry_equiv_pos_site_id
_symmetry_equiv_pos_as_xyz
1 x,y,z
2 1/2-x,-y,1/2+z
3 -x,1/2+y,1/2-z
4 1/2+x,1/2-y,-z
5 -x,-y,-z
6 1/2+x,y,1/2-z
7 x,1/2-y,1/2+z
8 1/2-x,1/2+y,z
_cell_length_a                   10.515(2)
_cell_length_b                   7.3736(14)
_cell_length_c                   23.261(4)
_cell_angle_alpha                90
_cell_angle_beta                 90
_cell_angle_gamma                90
_cell_volume                     1803.5
_exptl_crystal_colour            colorless
_exptl_crystal_description       block
_cell_formula_units_Z            8
loop_
_atom_site_label
_atom_site_type_symbol
_atom_site_fract_x
_atom_site_fract_y
_atom_site_fract_z
N1 N 0.73793(10) 0.22536(14) 0.59575(4)
H1 H 0.8121 0.2684 0.5882
C1 C 0.68870(11) 0.20320(15) 0.65183(5)
C2 C 0.56744(11) 0.12898(14) 0.64887(5)
C3 C 0.53211(11) 0.10262(14) 0.58677(5)
O1 O 0.67140(9) 0.16574(14) 0.50346(4)
C4 C 0.50087(12) 0.08802(17) 0.69844(5)
H2 H 0.4196 0.0386 0.6966
C5 C 0.41221(12) 0.20580(16) 0.56828(5)
H3 H 0.4059 0.2048 0.5267
H4 H 0.3377 0.1453 0.5837
C6 C 0.74609(13) 0.24268(17) 0.70380(5)
H5 H 0.8264 0.2951 0.7055
N2 N 0.41524(12) 0.39586(15) 0.58894(5)
C7 C 0.67832(15) 0.20049(18) 0.75336(6)
H6 H 0.7145 0.2253 0.7890
C8 C 0.55872(14) 0.1227(2) 0.75123(5)
H7 H 0.5167 0.0934 0.7852
O2 O 0.50508(14) 0.48843(17) 0.57450(9)
O3 O 0.32881(14) 0.44827(19) 0.61941(6)
C9 C 0.65394(11) 0.17044(15) 0.55545(5)
O4 O 0.51621(8) -0.08414(11) 0.57414(4)
H8 H 0.4586 -0.0966 0.5507
loop_
_geom_bond_atom_site_label_1
_geom_bond_atom_site_label_2
_geom_bond_site_symmetry_1
_geom_bond_site_symmetry_2
N1 H1 1_555 1_555
C1 N1 1_555 1_555
C2 C1 1_555 1_555
C3 C2 1_555 1_555
O1 C9 1_555 1_555
C4 C2 1_555 1_555
H2 C4 1_555 1_555
C5 C3 1_555 1_555
H3 C5 1_555 1_555
H4 C5 1_555 1_555
C6 C1 1_555 1_555
H5 C6 1_555 1_555
N2 C5 1_555 1_555
C7 C6 1_555 1_555
H6 C7 1_555 1_555
C8 C4 1_555 1_555
H7 C8 1_555 1_555
O2 N2 1_555 1_555
O3 N2 1_555 1_555
C9 N1 1_555 1_555
O4 C3 1_555 1_555
H8 O4 1_555 1_555
C3 C9 1_555 1_555
C7 C8 1_555 1_555

#END
