
#######################################################################
#
#                 Cambridge Crystallographic Data Centre
#                                CCDC 
#
#######################################################################
#
# If this CIF has been generated from an entry in the Cambridge 
# Structural Database, then it will include bibliographic, chemical, 
# crystal, experimental, refinement or atomic coordinate data resulting 
# from the CCDC's data processing and validation procedures.
#
#######################################################################

data_PUHHEG
_chemical_name_common            'Glucosyl anthranilate'
_chemical_formula_moiety         'C21 H25 N1 O11'
_chemical_name_systematic        
'3,4,5-Triacetoxy-6-(acetoxymethyl)tetrahydro-2H-pyran-2-yl 2-aminobenzoate'
_symmetry_cell_setting           triclinic
_symmetry_space_group_name_H-M   'P 1'
_symmetry_Int_Tables_number      1
_space_group_name_Hall           'P 1'
loop_
_symmetry_equiv_pos_site_id
_symmetry_equiv_pos_as_xyz
1 x,y,z
_cell_length_a                   5.8220(12)
_cell_length_b                   9.1210(18)
_cell_length_c                   11.131(2)
_cell_angle_alpha                98.94(3)
_cell_angle_beta                 94.53(3)
_cell_angle_gamma                90.22(3)
_cell_volume                     582.001
_exptl_crystal_colour            colorless
_exptl_crystal_description       block
_chemical_melting_point          '403-405 K'
_cell_formula_units_Z            1
_exptl_crystal_recrystallization_method 'ethyl acetate'
loop_
_atom_site_label
_atom_site_type_symbol
_atom_site_fract_x
_atom_site_fract_y
_atom_site_fract_z
O1 O 0.4723(4) 0.2186(3) 0.0201(2)
O2 O 0.4296(4) 0.0007(3) -0.1971(2)
O3 O 0.6518(6) -0.1311(4) -0.3260(4)
O4 O 0.6863(4) 0.4159(3) -0.2092(2)
O5 O 1.0705(5) 0.4424(4) -0.1993(3)
O6 O 0.8323(4) 0.6042(3) 0.0311(2)
O7 O 0.6443(18) 0.8007(11) -0.0182(10)
O8 O 0.4552(5) 0.5912(3) 0.1864(2)
O9 O 0.715(3) 0.587(3) 0.337(2)
O10 O 0.3348(4) 0.2984(3) 0.2025(2)
O11 O -0.0099(4) 0.2080(3) 0.1202(2)
N1 N -0.2584(6) 0.0580(5) 0.2582(4)
H1 H -0.3743 0.0071 0.2734
H2 H -0.2509 0.0817 0.1868
C1 C 0.3810(6) 0.3425(4) 0.0908(3)
H3 H 0.2406 0.3758 0.0493
C2 C 0.5594(6) 0.4647(4) 0.1187(3)
H4 H 0.6935 0.4331 0.1665
C3 C 0.6312(5) 0.5090(4) 0.0013(3)
H5 H 0.5061 0.5628 -0.0360
C4 C 0.6931(5) 0.3744(4) -0.0887(3)
H6 H 0.8474 0.3406 -0.0653
C5 C 0.5175(6) 0.2470(4) -0.0987(3)
H7 H 0.3740 0.2725 -0.1423
C6 C 0.6126(6) 0.1085(4) -0.1660(3)
H8 H 0.6767 0.1297 -0.2395
H9 H 0.7344 0.0707 -0.1152
C7 C 0.4769(8) -0.1189(5) -0.2748(4)
C8 C 0.2885(9) -0.2322(5) -0.2932(5)
H10 H 0.2755 -0.2799 -0.3767
H11 H 0.1459 -0.1852 -0.2739
H12 H 0.3223 -0.3049 -0.2407
C9 C 0.8873(6) 0.4456(4) -0.2551(3)
C10 C 0.8433(8) 0.4856(5) -0.3784(4)
H13 H 0.7942 0.5867 -0.3718
H14 H 0.7251 0.4214 -0.4236
H15 H 0.9822 0.4748 -0.4199
C11 C 0.8326(8) 0.7376(4) -0.0001(4)
C12 C 1.0535(8) 0.8176(5) 0.0358(5)
H16 H 1.0286 0.9226 0.0444
H17 H 1.1587 0.7897 -0.0256
H18 H 1.1172 0.7928 0.1122
C13 C 0.5261(15) 0.6275(7) 0.3044(5)
C14 C 0.3672(15) 0.7450(8) 0.3642(6)
H19 H 0.4208 0.7742 0.4483
H20 H 0.2135 0.7048 0.3589
H21 H 0.3675 0.8299 0.3229
C15 C 0.1294(6) 0.2281(4) 0.2076(3)
C16 C 0.1078(6) 0.1823(4) 0.3258(3)
C17 C 0.2779(7) 0.2219(5) 0.4221(3)
H22 H 0.4059 0.2771 0.4093
C18 C 0.2601(8) 0.1814(6) 0.5343(4)
H23 H 0.3756 0.2077 0.5967
C19 C 0.0679(8) 0.1007(6) 0.5540(4)
H24 H 0.0542 0.0727 0.6300
C20 C -0.0983(8) 0.0629(5) 0.4637(4)
H25 H -0.2259 0.0093 0.4792
C21 C -0.0876(6) 0.1010(5) 0.3469(4)
H26? H 1.1744 0.7475 0.0429
H27? H 1.0443 0.8804 0.1129
H28? H 1.0858 0.8773 -0.0249
O12? O 0.697(2) 0.7638(13) -0.0826(9)
O13? O 0.650(4) 0.562(2) 0.3641(18)
loop_
_geom_bond_atom_site_label_1
_geom_bond_atom_site_label_2
_geom_bond_site_symmetry_1
_geom_bond_site_symmetry_2
O1 C1 1_555 1_555
O2 C6 1_555 1_555
O3 C7 1_555 1_555
O4 C4 1_555 1_555
O5 C9 1_555 1_555
O6 C3 1_555 1_555
O7 C11 1_555 1_555
O8 C2 1_555 1_555
O9 C13 1_555 1_555
O10 C1 1_555 1_555
O11 C15 1_555 1_555
N1 H1 1_555 1_555
H2 N1 1_555 1_555
C1 H3 1_555 1_555
C2 C1 1_555 1_555
H4 C2 1_555 1_555
C3 C2 1_555 1_555
H5 C3 1_555 1_555
C4 C3 1_555 1_555
H6 C4 1_555 1_555
C5 O1 1_555 1_555
H7 C5 1_555 1_555
C6 C5 1_555 1_555
H8 C6 1_555 1_555
H9 C6 1_555 1_555
C7 O2 1_555 1_555
C8 C7 1_555 1_555
H10 C8 1_555 1_555
H11 C8 1_555 1_555
H12 C8 1_555 1_555
C9 O4 1_555 1_555
C10 C9 1_555 1_555
H13 C10 1_555 1_555
H14 C10 1_555 1_555
H15 C10 1_555 1_555
C11 O6 1_555 1_555
C12 C11 1_555 1_555
H16 C12 1_555 1_555
H17 C12 1_555 1_555
H18 C12 1_555 1_555
C13 O8 1_555 1_555
C14 C13 1_555 1_555
H19 C14 1_555 1_555
H20 C14 1_555 1_555
H21 C14 1_555 1_555
C15 O10 1_555 1_555
C16 C15 1_555 1_555
C17 C16 1_555 1_555
H22 C17 1_555 1_555
C18 C17 1_555 1_555
H23 C18 1_555 1_555
C19 C18 1_555 1_555
H24 C19 1_555 1_555
C20 C19 1_555 1_555
H25 C20 1_555 1_555
C21 N1 1_555 1_555
C4 C5 1_555 1_555
C16 C21 1_555 1_555
C20 C21 1_555 1_555

#END
