
#######################################################################
#
#                 Cambridge Crystallographic Data Centre
#                                CCDC 
#
#######################################################################
#
# If this CIF has been generated from an entry in the Cambridge 
# Structural Database, then it will include bibliographic, chemical, 
# crystal, experimental, refinement or atomic coordinate data resulting 
# from the CCDC's data processing and validation procedures.
#
#######################################################################

data_PUHJUY
_chemical_formula_moiety         'C17 H12 Br1 N3'
_chemical_name_systematic        
5-Amino-7-(4-bromophenyl)indan-4,6-dicarbonitrile
_symmetry_cell_setting           orthorhombic
_symmetry_space_group_name_H-M   'P 21 21 21'
_symmetry_Int_Tables_number      19
_space_group_name_Hall           'P 2ac 2ab'
loop_
_symmetry_equiv_pos_site_id
_symmetry_equiv_pos_as_xyz
1 x,y,z
2 1/2-x,-y,1/2+z
3 -x,1/2+y,1/2-z
4 1/2+x,1/2-y,-z
_cell_length_a                   7.5655(14)
_cell_length_b                   11.811(2)
_cell_length_c                   16.490(3)
_cell_angle_alpha                90
_cell_angle_beta                 90
_cell_angle_gamma                90
_cell_volume                     1473.48
_exptl_crystal_colour            colorless
_exptl_crystal_description       block
_cell_formula_units_Z            4
loop_
_atom_site_label
_atom_site_type_symbol
_atom_site_fract_x
_atom_site_fract_y
_atom_site_fract_z
Br1 Br 0.61120(5) 0.10058(3) 0.17284(2)
C1 C 0.6025(5) 0.2417(2) 0.11713(14)
C2 C 0.7401(4) 0.2717(3) 0.06832(18)
H1 H 0.8383 0.2249 0.0633
C3 C 0.7311(4) 0.3727(3) 0.02640(18)
H2 H 0.8243 0.3937 -0.0072
C4 C 0.5870(4) 0.4429(2) 0.03340(15)
C5 C 0.4503(4) 0.4104(3) 0.08498(17)
H3 H 0.3533 0.4579 0.0918
C6 C 0.4572(4) 0.3083(3) 0.12627(18)
H4 H 0.3643 0.2857 0.1595
C7 C 0.5761(4) 0.5533(2) -0.00930(15)
C8 C 0.5789(4) 0.5572(2) -0.09608(16)
C9 C 0.5889(4) 0.4534(2) -0.14014(16)
C10 C 0.5655(4) 0.6602(2) -0.13850(16)
C11 C 0.5607(4) 0.7613(2) -0.09254(16)
C12 C 0.5519(4) 0.8699(3) -0.13046(17)
C13 C 0.5621(4) 0.7567(2) -0.00771(16)
C14 C 0.5666(3) 0.6538(2) 0.03272(15)
C15 C 0.5628(4) 0.6735(3) 0.12311(16)
H5 H 0.6629 0.6373 0.1492
H6 H 0.4546 0.6441 0.1466
C16 C 0.5724(5) 0.8015(3) 0.13270(18)
H7 H 0.4762 0.8278 0.1667
H8 H 0.6832 0.8228 0.1580
C17 C 0.5589(4) 0.8542(3) 0.04933(17)
H9 H 0.4498 0.8966 0.0438
H10 H 0.6578 0.9045 0.0393
H11 H 0.557(3) 0.605(3) -0.2469(16)
H12 H 0.538(4) 0.724(3) -0.2445(18)
N1 N 0.5612(4) 0.6630(3) -0.22009(15)
N2 N 0.5985(4) 0.3714(2) -0.17670(16)
N3 N 0.5450(4) 0.9583(2) -0.15788(15)
loop_
_geom_bond_atom_site_label_1
_geom_bond_atom_site_label_2
_geom_bond_site_symmetry_1
_geom_bond_site_symmetry_2
Br1 C1 1_555 1_555
C1 C2 1_555 1_555
C2 H1 1_555 1_555
C3 C2 1_555 1_555
H2 C3 1_555 1_555
C4 C3 1_555 1_555
C5 C4 1_555 1_555
H3 C5 1_555 1_555
C6 C1 1_555 1_555
H4 C6 1_555 1_555
C7 C4 1_555 1_555
C8 C7 1_555 1_555
C9 C8 1_555 1_555
C10 C8 1_555 1_555
C11 C10 1_555 1_555
C12 C11 1_555 1_555
C13 C11 1_555 1_555
C14 C7 1_555 1_555
C15 C14 1_555 1_555
H5 C15 1_555 1_555
H6 C15 1_555 1_555
C16 C15 1_555 1_555
H7 C16 1_555 1_555
H8 C16 1_555 1_555
C17 C13 1_555 1_555
H9 C17 1_555 1_555
H10 C17 1_555 1_555
H11 N1 1_555 1_555
H12 N1 1_555 1_555
N1 C10 1_555 1_555
N2 C9 1_555 1_555
N3 C12 1_555 1_555
C5 C6 1_555 1_555
C13 C14 1_555 1_555
C16 C17 1_555 1_555

#END
