
#######################################################################
#
#                 Cambridge Crystallographic Data Centre
#                                CCDC 
#
#######################################################################
#
# If this CIF has been generated from an entry in the Cambridge 
# Structural Database, then it will include bibliographic, chemical, 
# crystal, experimental, refinement or atomic coordinate data resulting 
# from the CCDC's data processing and validation procedures.
#
#######################################################################

data_PUHNUD
_chemical_formula_moiety         'C54 H62'
_chemical_name_systematic        
nonacyclo[23.21.1.1^2,24^.1^6,20^.1^7,19^.1^11,15^.1^29,43^.1^30,42^.1^34,38^]tetrapentaconta-1(47),2(51),6(52),7(53),11(54),12,14,19,24,29(48),30(49),34(50),35,37,42-pentadecaene
_symmetry_cell_setting           triclinic
_symmetry_space_group_name_H-M   'P -1'
_symmetry_Int_Tables_number      2
_space_group_name_Hall           '-P 1'
loop_
_symmetry_equiv_pos_site_id
_symmetry_equiv_pos_as_xyz
1 x,y,z
2 -x,-y,-z
_cell_length_a                   5.412(3)
_cell_length_b                   9.152(5)
_cell_length_c                   19.675(11)
_cell_angle_alpha                89.65(2)
_cell_angle_beta                 87.00(2)
_cell_angle_gamma                80.457(19)
_cell_volume                     959.709
_exptl_crystal_colour            colorless
_exptl_crystal_description       platelet
_chemical_melting_point          '517-518 K'
_cell_formula_units_Z            1
loop_
_atom_site_label
_atom_site_type_symbol
_atom_site_fract_x
_atom_site_fract_y
_atom_site_fract_z
C1 C 0.6732(6) 0.0293(3) 0.04344(14)
H1 H 0.798(4) 0.057(3) 0.0765(12)
C2 C 0.6619(6) -0.1192(3) 0.03019(14)
C3 C 0.8304(7) -0.2456(4) 0.06614(15)
H2 H 0.717(6) -0.327(4) 0.0659(16)
H3 H 0.993(5) -0.267(3) 0.0382(13)
C4 C 0.9039(6) -0.2157(4) 0.13840(15)
H4 H 0.999(7) -0.314(5) 0.1522(18)
H5 H 1.017(6) -0.133(4) 0.1332(15)
C5 C 0.6825(6) -0.1822(3) 0.19297(16)
H6 H 0.725(5) -0.239(3) 0.2353(14)
H7 H 0.532(5) -0.230(3) 0.1716(14)
C6 C 0.6231(5) -0.0182(3) 0.21114(13)
C7 C 0.4280(6) 0.0719(3) 0.17865(14)
H8 H 0.315(5) 0.020(4) 0.1473(14)
C8 C 0.3814(5) 0.2267(3) 0.18391(13)
C9 C 0.5312(5) 0.2946(3) 0.22541(13)
C10 C 0.7246(6) 0.2055(3) 0.25806(14)
H9 H 0.843(6) 0.262(4) 0.2872(15)
C11 C 0.7716(5) 0.0494(3) 0.25319(13)
C12 C 0.1871(6) 0.3125(3) 0.13946(15)
H10 H 0.056(6) 0.394(4) 0.1674(16)
H11 H 0.089(4) 0.239(3) 0.1252(12)
C13 C 0.2954(6) 0.3926(3) 0.07861(15)
H12 H 0.171(5) 0.422(3) 0.0446(15)
H13 H 0.344(6) 0.498(4) 0.0933(16)
C14 C 0.5300(6) 0.3060(3) 0.03938(15)
H14 H 0.568(5) 0.365(3) -0.0014(15)
H15 H 0.671(5) 0.293(3) 0.0713(13)
C15 C 0.5133(6) 0.1495(3) 0.01597(14)
C16 C 0.9660(6) -0.0353(4) 0.29728(15)
H16 H 1.083(5) -0.119(4) 0.2739(14)
H17 H 1.094(6) 0.034(4) 0.3128(15)
C17 C 0.8590(6) -0.1092(4) 0.36093(16)
H18 H 0.801(5) -0.207(4) 0.3470(15)
H19 H 1.010(5) -0.136(3) 0.3974(14)
C18 C 0.6246(6) -0.0169(4) 0.39846(16)
H20 H 0.465(6) -0.017(4) 0.3664(15)
H21 H 0.584(5) -0.069(3) 0.4400(14)
C19 C 0.6493(6) 0.1417(3) 0.41515(13)
C20 C 0.4735(6) 0.2594(4) 0.39145(15)
H22 H 0.330(5) 0.238(3) 0.3654(14)
C21 C 0.5031(6) 0.4083(3) 0.39773(14)
C22 C 0.7036(6) 0.4395(4) 0.43207(15)
H23 H 0.719(6) 0.546(4) 0.4379(16)
C23 C 0.8781(6) 0.3247(4) 0.45793(16)
H24 H 1.031(7) 0.357(4) 0.4833(18)
C24 C 0.8516(7) 0.1774(4) 0.44846(15)
H25 H 0.957(6) 0.105(4) 0.4672(16)
C25 C 0.3255(7) 0.5340(4) 0.36556(16)
H26 H 0.411(6) 0.623(4) 0.3648(17)
H27 H 0.171(5) 0.546(3) 0.3935(14)
C26 C 0.2540(6) 0.5045(4) 0.29315(16)
H28 H 0.135(6) 0.424(4) 0.2952(14)
H29 H 0.156(6) 0.594(4) 0.2780(14)
C27 C 0.4798(6) 0.4604(3) 0.24091(15)
H30 H 0.438(5) 0.522(3) 0.1974(14)
H31 H 0.629(6) 0.500(3) 0.2583(15)
C1A C 0.3268(6) -0.0293(3) -0.04344(14)
H1A H 0.202(4) -0.057(3) -0.0765(12)
C2A C 0.3381(6) 0.1192(3) -0.03019(14)
C3A C 0.1696(7) 0.2456(4) -0.06614(15)
H2A H 0.283(6) 0.327(4) -0.0659(16)
H3A H 0.007(5) 0.267(3) -0.0382(13)
C4A C 0.0961(6) 0.2157(4) -0.13840(15)
H4A H 0.001(7) 0.314(5) -0.1522(18)
H5A H -0.017(6) 0.133(4) -0.1332(15)
C5A C 0.3175(6) 0.1822(3) -0.19297(16)
H6A H 0.275(5) 0.239(3) -0.2353(14)
H7A H 0.468(5) 0.230(3) -0.1716(14)
C6A C 0.3769(5) 0.0182(3) -0.21114(13)
C7A C 0.5720(6) -0.0719(3) -0.17865(14)
H8A H 0.685(5) -0.020(4) -0.1473(14)
C8A C 0.6186(5) -0.2267(3) -0.18391(13)
C9A C 0.4688(5) -0.2946(3) -0.22541(13)
C10A C 0.2754(6) -0.2055(3) -0.25806(14)
H9A H 0.157(6) -0.262(4) -0.2872(15)
C11A C 0.2284(5) -0.0494(3) -0.25319(13)
C12A C 0.8129(6) -0.3125(3) -0.13946(15)
H10A H 0.944(6) -0.394(4) -0.1674(16)
H11A H 0.911(4) -0.239(3) -0.1252(12)
C13A C 0.7046(6) -0.3926(3) -0.07861(15)
H12A H 0.829(5) -0.422(3) -0.0446(15)
H13A H 0.656(6) -0.498(4) -0.0933(16)
C14A C 0.4700(6) -0.3060(3) -0.03938(15)
H14A H 0.432(5) -0.365(3) 0.0014(15)
H15A H 0.329(5) -0.293(3) -0.0713(13)
C15A C 0.4867(6) -0.1495(3) -0.01597(14)
C16A C 0.0340(6) 0.0353(4) -0.29728(15)
H16A H -0.083(5) 0.119(4) -0.2739(14)
H17A H -0.094(6) -0.034(4) -0.3128(15)
C17A C 0.1410(6) 0.1092(4) -0.36093(16)
H18A H 0.199(5) 0.207(4) -0.3470(15)
H19A H -0.010(5) 0.136(3) -0.3974(14)
C18A C 0.3754(6) 0.0169(4) -0.39846(16)
H20A H 0.535(6) 0.017(4) -0.3664(15)
H21A H 0.416(5) 0.069(3) -0.4400(14)
C19A C 0.3507(6) -0.1417(3) -0.41515(13)
C20A C 0.5265(6) -0.2594(4) -0.39145(15)
H22A H 0.670(5) -0.238(3) -0.3654(14)
C21A C 0.4969(6) -0.4083(3) -0.39773(14)
C22A C 0.2964(6) -0.4395(4) -0.43207(15)
H23A H 0.281(6) -0.546(4) -0.4379(16)
C23A C 0.1219(6) -0.3247(4) -0.45793(16)
H24A H -0.031(7) -0.357(4) -0.4833(18)
C24A C 0.1484(7) -0.1774(4) -0.44846(15)
H25A H 0.043(6) -0.105(4) -0.4672(16)
C25A C 0.6745(7) -0.5340(4) -0.36556(16)
H26A H 0.589(6) -0.623(4) -0.3648(17)
H27A H 0.829(5) -0.546(3) -0.3935(14)
C26A C 0.7460(6) -0.5045(4) -0.29315(16)
H28A H 0.865(6) -0.424(4) -0.2952(14)
H29A H 0.844(6) -0.594(4) -0.2780(14)
C27A C 0.5202(6) -0.4604(3) -0.24091(15)
H30A H 0.562(5) -0.522(3) -0.1974(14)
H31A H 0.371(6) -0.500(3) -0.2583(15)
loop_
_geom_bond_atom_site_label_1
_geom_bond_atom_site_label_2
_geom_bond_site_symmetry_1
_geom_bond_site_symmetry_2
C1 H1 1_555 1_555
C2 C1 1_555 1_555
C3 C2 1_555 1_555
H2 C3 1_555 1_555
H3 C3 1_555 1_555
C4 C3 1_555 1_555
H4 C4 1_555 1_555
H5 C4 1_555 1_555
C5 C4 1_555 1_555
H6 C5 1_555 1_555
H7 C5 1_555 1_555
C6 C5 1_555 1_555
C7 C6 1_555 1_555
H8 C7 1_555 1_555
C8 C7 1_555 1_555
C9 C8 1_555 1_555
C10 C9 1_555 1_555
H9 C10 1_555 1_555
C11 C6 1_555 1_555
C12 C8 1_555 1_555
H10 C12 1_555 1_555
H11 C12 1_555 1_555
C13 C12 1_555 1_555
H12 C13 1_555 1_555
H13 C13 1_555 1_555
C14 C13 1_555 1_555
H14 C14 1_555 1_555
H15 C14 1_555 1_555
C15 C1 1_555 1_555
C16 C11 1_555 1_555
H16 C16 1_555 1_555
H17 C16 1_555 1_555
C17 C16 1_555 1_555
H18 C17 1_555 1_555
H19 C17 1_555 1_555
C18 C17 1_555 1_555
H20 C18 1_555 1_555
H21 C18 1_555 1_555
C19 C18 1_555 1_555
C20 C19 1_555 1_555
H22 C20 1_555 1_555
C21 C20 1_555 1_555
C22 C21 1_555 1_555
H23 C22 1_555 1_555
C23 C22 1_555 1_555
H24 C23 1_555 1_555
C24 C19 1_555 1_555
H25 C24 1_555 1_555
C25 C21 1_555 1_555
H26 C25 1_555 1_555
H27 C25 1_555 1_555
C26 C25 1_555 1_555
H28 C26 1_555 1_555
H29 C26 1_555 1_555
C27 C9 1_555 1_555
H30 C27 1_555 1_555
H31 C27 1_555 1_555
C1A H1A 1_555 1_555
C2A C15 1_555 1_555
C3A C2A 1_555 1_555
H2A C3A 1_555 1_555
H3A C3A 1_555 1_555
C4A C3A 1_555 1_555
H4A C4A 1_555 1_555
H5A C4A 1_555 1_555
C5A C4A 1_555 1_555
H6A C5A 1_555 1_555
H7A C5A 1_555 1_555
C6A C5A 1_555 1_555
C7A C6A 1_555 1_555
H8A C7A 1_555 1_555
C8A C7A 1_555 1_555
C9A C8A 1_555 1_555
C10A C9A 1_555 1_555
H9A C10A 1_555 1_555
C11A C6A 1_555 1_555
C12A C8A 1_555 1_555
H10A C12A 1_555 1_555
H11A C12A 1_555 1_555
C13A C12A 1_555 1_555
H12A C13A 1_555 1_555
H13A C13A 1_555 1_555
C14A C13A 1_555 1_555
H14A C14A 1_555 1_555
H15A C14A 1_555 1_555
C15A C2 1_555 1_555
C16A C11A 1_555 1_555
H16A C16A 1_555 1_555
H17A C16A 1_555 1_555
C17A C16A 1_555 1_555
H18A C17A 1_555 1_555
H19A C17A 1_555 1_555
C18A C17A 1_555 1_555
H20A C18A 1_555 1_555
H21A C18A 1_555 1_555
C19A C18A 1_555 1_555
C20A C19A 1_555 1_555
H22A C20A 1_555 1_555
C21A C20A 1_555 1_555
C22A C21A 1_555 1_555
H23A C22A 1_555 1_555
C23A C22A 1_555 1_555
H24A C23A 1_555 1_555
C24A C19A 1_555 1_555
H25A C24A 1_555 1_555
C25A C21A 1_555 1_555
H26A C25A 1_555 1_555
H27A C25A 1_555 1_555
C26A C25A 1_555 1_555
H28A C26A 1_555 1_555
H29A C26A 1_555 1_555
C27A C9A 1_555 1_555
H30A C27A 1_555 1_555
H31A C27A 1_555 1_555
C10 C11 1_555 1_555
C14 C15 1_555 1_555
C23 C24 1_555 1_555
C26 C27 1_555 1_555
C1A C2A 1_555 1_555
C1A C15A 1_555 1_555
C10A C11A 1_555 1_555
C14A C15A 1_555 1_555
C23A C24A 1_555 1_555
C26A C27A 1_555 1_555

#END
