
#######################################################################
#
#                 Cambridge Crystallographic Data Centre
#                                CCDC 
#
#######################################################################
#
# If this CIF has been generated from an entry in the Cambridge 
# Structural Database, then it will include bibliographic, chemical, 
# crystal, experimental, refinement or atomic coordinate data resulting 
# from the CCDC's data processing and validation procedures.
#
#######################################################################

data_PUHPOZ
_chemical_formula_moiety         'C74 H84 O4'
_chemical_name_systematic        
17,45-di-t-butylundecacyclo[31.23.1.1^5,29^.1^6,28^.1^10,24^.1^11,23^.1^15,19^.1^34,56^.1^38,52^.1^39,51^.1^43,47^]hexahexaconta-1(57),5(62),6(63),10(64),11(65),15(66),16,18,23,28,33,38(59),39(60),43(61),44,46,51,56(58)-octadecaene-8,26,36,54-tetrone
_symmetry_cell_setting           triclinic
_symmetry_space_group_name_H-M   'P -1'
_symmetry_Int_Tables_number      2
_space_group_name_Hall           '-P 1'
loop_
_symmetry_equiv_pos_site_id
_symmetry_equiv_pos_as_xyz
1 x,y,z
2 -x,-y,-z
_cell_length_a                   8.355(2)
_cell_length_b                   9.322(3)
_cell_length_c                   18.744(7)
_cell_angle_alpha                93.168(13)
_cell_angle_beta                 101.859(12)
_cell_angle_gamma                99.347(18)
_cell_volume                     1403.8
_exptl_crystal_colour            colorless
_exptl_crystal_description       Platelet
_chemical_melting_point          'above 573 K'
_cell_formula_units_Z            1
loop_
_atom_site_label
_atom_site_type_symbol
_atom_site_fract_x
_atom_site_fract_y
_atom_site_fract_z
C1 C 0.2875(3) 0.2203(3) 0.93061(13)
C2 C 0.3957(3) 0.3071(2) 0.89692(14)
H1 H 0.3908 0.4081 0.8958
C3 C 0.5111(3) 0.2510(3) 0.86471(13)
C4 C 0.5209(3) 0.1052(3) 0.86948(13)
H2 H 0.6053 0.0674 0.8513
C5 C 0.4119(3) 0.0125(3) 0.89991(13)
C6 C 0.2969(3) 0.0731(3) 0.93112(12)
H3 H 0.2229 0.0115 0.9534
C7 C 0.6056(3) 0.3434(3) 0.81801(16)
H4 H 0.7257 0.3419 0.8344
H5 H 0.5893 0.4456 0.8251
C8 C 0.5481(4) 0.2883(4) 0.7329(2)
H6 H 0.6230 0.3455 0.7060
H7 H 0.5600 0.1847 0.7263
C9 C 0.3733(3) 0.3016(2) 0.70015(14)
H8 H 0.3612 0.3033 0.6466
H9 H 0.3529 0.3965 0.7193
C10 C 0.2409(3) 0.1827(2) 0.71418(11)
C11 C 0.0796(3) 0.2058(2) 0.71471(10)
C12 C -0.0350(3) 0.0927(2) 0.72979(11)
H10 H -0.1429 0.1106 0.7315
C13 C 0.0001(3) -0.0458(2) 0.74255(10)
C14 C 0.1614(3) -0.0704(2) 0.74308(11)
C15 C 0.2751(3) 0.0431(2) 0.72663(11)
H11 H 0.3821 0.0244 0.7237
C16 C 0.2156(3) -0.2144(2) 0.76223(13)
H12 H 0.3197 -0.2195 0.7456
H13 H 0.1296 -0.2955 0.7348
C17 C 0.2443(5) -0.2370(3) 0.84393(18)
H14 H 0.1485 -0.2120 0.8624
H15 H 0.2444 -0.3422 0.8490
C18 C 0.4032(4) -0.1507(3) 0.89340(15)
H16 H 0.4135 -0.1849 0.9429
H17 H 0.4995 -0.1726 0.8744
C19 C -0.1376(3) -0.1674(2) 0.74938(12)
H18 H -0.2371 -0.1248 0.7529
H19 H -0.1029 -0.2117 0.7956
C20 C -0.1862(3) -0.2886(2) 0.68605(12)
C21 C -0.1810(3) -0.2517(2) 0.60883(11)
H20 H -0.2502 -0.3332 0.5742
H21 H -0.0652 -0.2447 0.6026
C22 C -0.2405(2) -0.1113(2) 0.58820(10)
C23 C -0.1277(2) 0.0043(2) 0.57289(10)
H22 H -0.0193 -0.0116 0.5706
C24 C -0.1667(2) 0.1422(2) 0.56072(10)
C25 C -0.3293(2) 0.1635(2) 0.56038(10)
C26 C -0.4406(2) 0.0473(2) 0.57600(10)
H23 H -0.5492 0.0629 0.5780
C27 C -0.4023(2) -0.0908(2) 0.58884(10)
C28 C -0.0310(3) 0.2661(2) 0.55346(11)
H24 H -0.0690 0.3113 0.5079
H25 H 0.0681 0.2246 0.5481
C29 C 0.0210(2) 0.3863(2) 0.61716(11)
C30 C 0.0243(3) 0.3484(2) 0.69537(11)
H26 H 0.0992 0.4284 0.7290
H27 H -0.0887 0.3453 0.7045
C31 C -0.3923(3) 0.3028(2) 0.54088(11)
H28 H -0.3189 0.3851 0.5735
H29 H -0.5046 0.2961 0.5514
C32 C -0.5395(2) -0.2102(2) 0.59934(11)
H30 H -0.6371 -0.1652 0.6034
H31 H -0.5016 -0.2498 0.6466
C33 C -0.5974(3) -0.3398(2) 0.53924(11)
H32 H -0.5205 -0.4101 0.5497
H33 H -0.7087 -0.3898 0.5433
C34 C 0.1914(6) 0.2732(7) 1.0463(2)
H34 H 0.1049 0.3108 1.0661
H35 H 0.3004 0.3308 1.0696
H36 H 0.1894 0.1708 1.0561
C35 C -0.0142(5) 0.1965(8) 0.9315(3)
H37 H -0.0193 0.0954 0.9440
H38 H -0.0371 0.1979 0.8781
H39 H -0.0972 0.2402 0.9510
C36 C 0.1601(11) 0.4455(7) 0.9516(5)
H40 H 0.0753 0.4811 0.9734
H41 H 0.1358 0.4551 0.8988
H42 H 0.2696 0.5032 0.9741
O1 O 0.0614(2) 0.51246(15) 0.60509(9)
O2 O -0.2277(2) -0.41427(17) 0.69828(10)
C37 C 0.1597(4) 0.2842(4) 0.96476(17)
C1A C -1.2875(3) -0.2203(3) 0.06939(13)
C2A C -1.3957(3) -0.3071(2) 0.10308(14)
H1A H -1.3908 -0.4081 0.1042
C3A C -1.5111(3) -0.2510(3) 0.13529(13)
C4A C -1.5209(3) -0.1052(3) 0.13052(13)
H2A H -1.6053 -0.0674 0.1487
C5A C -1.4119(3) -0.0125(3) 0.10009(13)
C6A C -1.2969(3) -0.0731(3) 0.06888(12)
H3A H -1.2229 -0.0115 0.0466
C7A C -1.6056(3) -0.3434(3) 0.18199(16)
H4A H -1.7257 -0.3419 0.1656
H5A H -1.5893 -0.4456 0.1749
C8A C -1.5481(4) -0.2883(4) 0.2671(2)
H6A H -1.6230 -0.3455 0.2940
H7A H -1.5600 -0.1847 0.2737
C9A C -1.3733(3) -0.3016(2) 0.29985(14)
H8A H -1.3612 -0.3033 0.3534
H9A H -1.3529 -0.3965 0.2807
C10A C -1.2409(3) -0.1827(2) 0.28582(11)
C11A C -1.0796(3) -0.2058(2) 0.28529(10)
C12A C -0.9650(3) -0.0927(2) 0.27021(11)
H10A H -0.8571 -0.1106 0.2685
C13A C -1.0001(3) 0.0458(2) 0.25745(10)
C14A C -1.1614(3) 0.0704(2) 0.25692(11)
C15A C -1.2751(3) -0.0431(2) 0.27337(11)
H11A H -1.3821 -0.0244 0.2763
C16A C -1.2156(3) 0.2144(2) 0.23777(13)
H12A H -1.3197 0.2195 0.2544
H13A H -1.1296 0.2955 0.2652
C17A C -1.2443(5) 0.2370(3) 0.15607(18)
H14A H -1.1485 0.2120 0.1376
H15A H -1.2444 0.3422 0.1510
C18A C -1.4032(4) 0.1507(3) 0.10660(15)
H16A H -1.4135 0.1849 0.0571
H17A H -1.4995 0.1726 0.1256
C19A C -0.8624(3) 0.1674(2) 0.25062(12)
H18A H -0.7629 0.1248 0.2471
H19A H -0.8971 0.2117 0.2044
C20A C -0.8138(3) 0.2886(2) 0.31395(12)
C21A C -0.8190(3) 0.2517(2) 0.39117(11)
H20A H -0.7498 0.3332 0.4258
H21A H -0.9348 0.2447 0.3974
C22A C -0.7595(2) 0.1113(2) 0.41180(10)
C23A C -0.8723(2) -0.0043(2) 0.42711(10)
H22A H -0.9807 0.0116 0.4294
C24A C -0.8333(2) -0.1422(2) 0.43928(10)
C25A C -0.6707(2) -0.1635(2) 0.43962(10)
C26A C -0.5594(2) -0.0473(2) 0.42400(10)
H23A H -0.4508 -0.0629 0.4220
C27A C -0.5977(2) 0.0908(2) 0.41116(10)
C28A C -0.9690(3) -0.2661(2) 0.44654(11)
H24A H -0.9310 -0.3113 0.4921
H25A H -1.0681 -0.2246 0.4519
C29A C -1.0210(2) -0.3863(2) 0.38284(11)
C30A C -1.0243(3) -0.3484(2) 0.30463(11)
H26A H -1.0992 -0.4284 0.2710
H27A H -0.9113 -0.3453 0.2955
C31A C -0.6077(3) -0.3028(2) 0.45912(11)
H28A H -0.6811 -0.3851 0.4265
H29A H -0.4954 -0.2961 0.4486
C32A C -0.4605(2) 0.2102(2) 0.40066(11)
H30A H -0.3629 0.1652 0.3966
H31A H -0.4984 0.2498 0.3534
C33A C -0.4026(3) 0.3398(2) 0.46076(11)
H32A H -0.4795 0.4101 0.4503
H33A H -0.2913 0.3898 0.4567
C34A C -1.1914(6) -0.2732(7) -0.0463(2)
H34A H -1.1049 -0.3108 -0.0661
H35A H -1.3004 -0.3308 -0.0696
H36A H -1.1894 -0.1708 -0.0561
C35A C -0.9858(5) -0.1965(8) 0.0685(3)
H37A H -0.9807 -0.0954 0.0560
H38A H -0.9629 -0.1979 0.1219
H39A H -0.9028 -0.2402 0.0490
C36A C -1.1601(11) -0.4455(7) 0.0484(5)
H40A H -1.0753 -0.4811 0.0266
H41A H -1.1358 -0.4551 0.1012
H42A H -1.2696 -0.5032 0.0259
O1A O -1.0614(2) -0.51246(15) 0.39491(9)
O2A O -0.7723(2) 0.41427(17) 0.30172(10)
C37A C -1.1597(4) -0.2842(4) 0.03524(17)
H43? H 0.6616 0.2822 0.7898
H44? H 0.6911 0.4201 0.8492
C38? C 0.4709(8) 0.4180(6) 0.7622(3)
H45? H 0.3935 0.4550 0.7892
H46? H 0.5296 0.5011 0.7415
H47? H 0.3200 0.3540 0.6599
H48? H 0.4556 0.2533 0.6815
H49? H 0.1227 -0.2741 0.7785
H50? H 0.2262 -0.2653 0.7161
C39? C 0.3664(17) -0.2189(10) 0.8165(7)
H51? H 0.4603 -0.1765 0.7950
H52? H 0.3731 -0.3235 0.8200
H53? H 0.5106 -0.1728 0.9197
H54? H 0.3161 -0.1959 0.9180
C40? C 0.065(3) 0.170(2) 1.0038(13)
H55? H 0.1392 0.1045 1.0252
H56? H -0.0301 0.1125 0.9685
H57? H 0.0253 0.2186 1.0426
C41? C 0.047(2) 0.342(3) 0.9036(8)
H58? H -0.0318 0.3901 0.9236
H59? H -0.0139 0.2604 0.8679
H60? H 0.1140 0.4118 0.8795
C42? C 0.2602(17) 0.4093(19) 1.0186(8)
H61? H 0.1862 0.4536 1.0439
H62? H 0.3165 0.4827 0.9922
H63? H 0.3432 0.3727 1.0544
loop_
_geom_bond_atom_site_label_1
_geom_bond_atom_site_label_2
_geom_bond_site_symmetry_1
_geom_bond_site_symmetry_2
C1 C2 1_555 1_555
C2 H1 1_555 1_555
C3 C2 1_555 1_555
C4 C3 1_555 1_555
H2 C4 1_555 1_555
C5 C4 1_555 1_555
C6 C1 1_555 1_555
H3 C6 1_555 1_555
C7 C3 1_555 1_555
H4 C7 1_555 1_555
H5 C7 1_555 1_555
C8 C7 1_555 1_555
H6 C8 1_555 1_555
H7 C8 1_555 1_555
C9 C8 1_555 1_555
H8 C9 1_555 1_555
H9 C9 1_555 1_555
C10 C9 1_555 1_555
C11 C10 1_555 1_555
C12 C11 1_555 1_555
H10 C12 1_555 1_555
C13 C12 1_555 1_555
C14 C13 1_555 1_555
C15 C10 1_555 1_555
H11 C15 1_555 1_555
C16 C14 1_555 1_555
H12 C16 1_555 1_555
H13 C16 1_555 1_555
C17 C16 1_555 1_555
H14 C17 1_555 1_555
H15 C17 1_555 1_555
C18 C5 1_555 1_555
H16 C18 1_555 1_555
H17 C18 1_555 1_555
C19 C13 1_555 1_555
H18 C19 1_555 1_555
H19 C19 1_555 1_555
C20 C19 1_555 1_555
C21 C20 1_555 1_555
H20 C21 1_555 1_555
H21 C21 1_555 1_555
C22 C21 1_555 1_555
C23 C22 1_555 1_555
H22 C23 1_555 1_555
C24 C23 1_555 1_555
C25 C24 1_555 1_555
C26 C25 1_555 1_555
H23 C26 1_555 1_555
C27 C22 1_555 1_555
C28 C24 1_555 1_555
H24 C28 1_555 1_555
H25 C28 1_555 1_555
C29 C28 1_555 1_555
C30 C11 1_555 1_555
H26 C30 1_555 1_555
H27 C30 1_555 1_555
C31 C25 1_555 1_555
H28 C31 1_555 1_555
H29 C31 1_555 1_555
C32 C27 1_555 1_555
H30 C32 1_555 1_555
H31 C32 1_555 1_555
C33 C32 1_555 1_555
H32 C33 1_555 1_555
H33 C33 1_555 1_555
C34 H34 1_555 1_555
H35 C34 1_555 1_555
H36 C34 1_555 1_555
C35 H37 1_555 1_555
H38 C35 1_555 1_555
H39 C35 1_555 1_555
C36 H40 1_555 1_555
H41 C36 1_555 1_555
H42 C36 1_555 1_555
O1 C29 1_555 1_555
O2 C20 1_555 1_555
C37 C1 1_555 1_555
C1A C2A 1_555 1_555
C2A H1A 1_555 1_555
C3A C2A 1_555 1_555
C4A C3A 1_555 1_555
H2A C4A 1_555 1_555
C5A C4A 1_555 1_555
C6A C1A 1_555 1_555
H3A C6A 1_555 1_555
C7A C3A 1_555 1_555
H4A C7A 1_555 1_555
H5A C7A 1_555 1_555
C8A C7A 1_555 1_555
H6A C8A 1_555 1_555
H7A C8A 1_555 1_555
C9A C8A 1_555 1_555
H8A C9A 1_555 1_555
H9A C9A 1_555 1_555
C10A C9A 1_555 1_555
C11A C10A 1_555 1_555
C12A C11A 1_555 1_555
H10A C12A 1_555 1_555
C13A C12A 1_555 1_555
C14A C13A 1_555 1_555
C15A C10A 1_555 1_555
H11A C15A 1_555 1_555
C16A C14A 1_555 1_555
H12A C16A 1_555 1_555
H13A C16A 1_555 1_555
C17A C16A 1_555 1_555
H14A C17A 1_555 1_555
H15A C17A 1_555 1_555
C18A C5A 1_555 1_555
H16A C18A 1_555 1_555
H17A C18A 1_555 1_555
C19A C13A 1_555 1_555
H18A C19A 1_555 1_555
H19A C19A 1_555 1_555
C20A C19A 1_555 1_555
C21A C20A 1_555 1_555
H20A C21A 1_555 1_555
H21A C21A 1_555 1_555
C22A C21A 1_555 1_555
C23A C22A 1_555 1_555
H22A C23A 1_555 1_555
C24A C23A 1_555 1_555
C25A C24A 1_555 1_555
C26A C25A 1_555 1_555
H23A C26A 1_555 1_555
C27A C22A 1_555 1_555
C28A C24A 1_555 1_555
H24A C28A 1_555 1_555
H25A C28A 1_555 1_555
C29A C28A 1_555 1_555
C30A C11A 1_555 1_555
H26A C30A 1_555 1_555
H27A C30A 1_555 1_555
C31A C33 1_555 1_555
H28A C31A 1_555 1_555
H29A C31A 1_555 1_555
C32A C27A 1_555 1_555
H30A C32A 1_555 1_555
H31A C32A 1_555 1_555
C33A C31 1_555 1_555
H32A C33A 1_555 1_555
H33A C33A 1_555 1_555
C34A H34A 1_555 1_555
H35A C34A 1_555 1_555
H36A C34A 1_555 1_555
C35A H37A 1_555 1_555
H38A C35A 1_555 1_555
H39A C35A 1_555 1_555
C36A H40A 1_555 1_555
H41A C36A 1_555 1_555
H42A C36A 1_555 1_555
O1A C29A 1_555 1_555
O2A C20A 1_555 1_555
C37A C1A 1_555 1_555
C5 C6 1_555 1_555
C14 C15 1_555 1_555
C17 C18 1_555 1_555
C26 C27 1_555 1_555
C29 C30 1_555 1_555
C34 C37 1_555 1_555
C35 C37 1_555 1_555
C36 C37 1_555 1_555
C5A C6A 1_555 1_555
C14A C15A 1_555 1_555
C17A C18A 1_555 1_555
C25A C31A 1_555 1_555
C26A C27A 1_555 1_555
C29A C30A 1_555 1_555
C32A C33A 1_555 1_555
C34A C37A 1_555 1_555
C35A C37A 1_555 1_555
C36A C37A 1_555 1_555

#END
