
#######################################################################
#
#                 Cambridge Crystallographic Data Centre
#                                CCDC 
#
#######################################################################
#
# If this CIF has been generated from an entry in the Cambridge 
# Structural Database, then it will include bibliographic, chemical, 
# crystal, experimental, refinement or atomic coordinate data resulting 
# from the CCDC's data processing and validation procedures.
#
#######################################################################

data_PUHQAK
_chemical_formula_moiety         'C24 H30 Br4 S2'
_chemical_name_systematic        
"1,1'-Bi(10,11-dibromo-(8) (2,5)thiophenophanyl)"
_symmetry_cell_setting           triclinic
_symmetry_space_group_name_H-M   'P -1'
_symmetry_Int_Tables_number      2
_space_group_name_Hall           '-P 1'
loop_
_symmetry_equiv_pos_site_id
_symmetry_equiv_pos_as_xyz
1 x,y,z
2 -x,-y,-z
_cell_length_a                   10.543(2)
_cell_length_b                   15.4200(10)
_cell_length_c                   8.477(2)
_cell_angle_alpha                93.790(10)
_cell_angle_beta                 106.850(10)
_cell_angle_gamma                76.330(10)
_cell_volume                     1281.6
_exptl_crystal_colour            colorless
_exptl_crystal_description       prism
_chemical_melting_point          195-196deg.C
_cell_formula_units_Z            2
_exptl_crystal_recrystallization_method hexane
loop_
_atom_site_label
_atom_site_type_symbol
_atom_site_fract_x
_atom_site_fract_y
_atom_site_fract_z
Br1 Br 0.85858(6) 0.23778(4) 0.82660(8)
Br2 Br 1.00047(7) 0.19635(5) 1.25079(9)
Br3 Br 0.15630(7) 0.31833(4) 0.88877(9)
Br4 Br 0.14099(7) 0.54666(4) 0.93608(8)
C1 C 0.6383(5) 0.1900(3) 0.9024(6)
C2 C 0.7645(5) 0.2065(3) 0.9625(6)
C3 C 0.8239(5) 0.1862(3) 1.1337(6)
C4 C 0.7437(6) 0.1550(4) 1.2031(6)
C5 C 0.7817(8) 0.0984(5) 1.3568(8)
H1 H 0.7002(8) 0.0978(5) 1.3876(8)
H2 H 0.8414(8) 0.1244(5) 1.4470(8)
C6 C 0.8532(9) 0.0027(5) 1.3273(9)
H3 H 0.9417(9) 0.0037(5) 1.3158(9)
H4 H 0.8685(9) -0.0323(5) 1.4248(9)
C7 C 0.7800(10) -0.0452(5) 1.1785(11)
H5 H 0.6828(10) -0.0265(5) 1.1647(11)
H6 H 0.8068(10) -0.1088(5) 1.2011(11)
C8 C 0.8069(7) -0.0292(4) 1.0160(8)
H7 H 0.8908(7) -0.0702(4) 1.0105(8)
H8 H 0.8207(7) 0.0308(4) 1.0171(8)
C9 C 0.6937(7) -0.0405(4) 0.8592(9)
H9 H 0.7099(7) -0.1025(4) 0.8255(9)
H10 H 0.6071(7) -0.0257(4) 0.8844(9)
C10 C 0.6850(7) 0.0176(5) 0.7165(9)
H13 H 0.7623(7) 0.0454(5) 0.7477(9)
H14 H 0.6937(7) -0.0207(5) 0.6230(9)
C12 C 0.5570(7) 0.0900(4) 0.6615(8)
H17 H 0.4852(7) 0.0700(4) 0.6884(8)
H18 H 0.5330(7) 0.0932(4) 0.5422(8)
C13 C 0.5517(5) 0.1880(3) 0.7277(6)
H21 H 0.5878(5) 0.2189(3) 0.6591(6)
C14 C 0.4032(5) 0.2382(3) 0.7101(6)
H22 H 0.3648(5) 0.2019(3) 0.7667(6)
C15 C 0.3887(5) 0.3277(3) 0.7894(6)
C16 C 0.2869(5) 0.3727(3) 0.8524(6)
C17 C 0.2794(5) 0.4664(3) 0.8694(6)
C18 C 0.3753(5) 0.4922(3) 0.8197(6)
C19 C 0.3772(7) 0.5830(4) 0.7661(8)
H23 H 0.4688(7) 0.5842(4) 0.7661(8)
H24 H 0.3497(7) 0.6278(4) 0.8430(8)
C20 C 0.2795(9) 0.6046(4) 0.5918(8)
H25 H 0.1871(9) 0.6173(4) 0.6001(8)
H26 H 0.2933(9) 0.6589(4) 0.5545(8)
C21 C 0.2915(8) 0.5330(5) 0.4583(8)
H27 H 0.2678(8) 0.5630(5) 0.3532(8)
H28 H 0.3859(8) 0.5010(5) 0.4819(8)
C22 C 0.2039(7) 0.4648(5) 0.4401(8)
H29 H 0.2136(7) 0.4434(5) 0.5489(8)
H30 H 0.1093(7) 0.4948(5) 0.3942(8)
C23 C 0.2375(8) 0.3845(5) 0.3320(8)
H31 H 0.2630(8) 0.4050(5) 0.2424(8)
H32 H 0.1548(8) 0.3635(5) 0.2835(8)
C24 C 0.3495(7) 0.3045(5) 0.4133(7)
H33 H 0.4289(7) 0.3261(5) 0.4751(7)
H34 H 0.3748(7) 0.2658(5) 0.3271(7)
C25 C 0.3125(6) 0.2486(4) 0.5296(7)
H35 H 0.3136(6) 0.1894(4) 0.4827(7)
H36 H 0.2197(6) 0.2751(4) 0.5311(7)
S1 S 0.58834(14) 0.15696(11) 1.0613(2)
S2 S 0.48330(12) 0.40089(8) 0.7659(2)
H11? H 0.6579(7) -0.0886(4) 0.8846(9)
H12? H 0.7410(7) -0.0642(4) 0.7776(9)
C11? C 0.5668(32) 0.0293(20) 0.7647(42)
H15? H 0.5021(32) -0.0055(20) 0.7059(42)
H16? H 0.5295(32) 0.0612(20) 0.8496(42)
H19? H 0.4754(7) 0.0908(4) 0.5712(8)
H20? H 0.6338(7) 0.0724(4) 0.6161(8)
loop_
_geom_bond_atom_site_label_1
_geom_bond_atom_site_label_2
_geom_bond_site_symmetry_1
_geom_bond_site_symmetry_2
Br1 C2 1_555 1_555
Br2 C3 1_555 1_555
Br3 C16 1_555 1_555
Br4 C17 1_555 1_555
C1 C2 1_555 1_555
C2 C3 1_555 1_555
C3 C4 1_555 1_555
C4 C5 1_555 1_555
C5 H1 1_555 1_555
H2 C5 1_555 1_555
C6 C5 1_555 1_555
H3 C6 1_555 1_555
H4 C6 1_555 1_555
C7 C6 1_555 1_555
H5 C7 1_555 1_555
H6 C7 1_555 1_555
C8 C7 1_555 1_555
H7 C8 1_555 1_555
H8 C8 1_555 1_555
C9 C8 1_555 1_555
H9 C9 1_555 1_555
H10 C9 1_555 1_555
C10 C9 1_555 1_555
H13 C10 1_555 1_555
H14 C10 1_555 1_555
C12 C10 1_555 1_555
H17 C12 1_555 1_555
H18 C12 1_555 1_555
C13 C1 1_555 1_555
H21 C13 1_555 1_555
C14 C13 1_555 1_555
H22 C14 1_555 1_555
C15 C14 1_555 1_555
C16 C15 1_555 1_555
C17 C16 1_555 1_555
C18 C17 1_555 1_555
C19 C18 1_555 1_555
H23 C19 1_555 1_555
H24 C19 1_555 1_555
C20 C19 1_555 1_555
H25 C20 1_555 1_555
H26 C20 1_555 1_555
C21 C20 1_555 1_555
H27 C21 1_555 1_555
H28 C21 1_555 1_555
C22 C21 1_555 1_555
H29 C22 1_555 1_555
H30 C22 1_555 1_555
C23 C22 1_555 1_555
H31 C23 1_555 1_555
H32 C23 1_555 1_555
C24 C23 1_555 1_555
H33 C24 1_555 1_555
H34 C24 1_555 1_555
C25 C14 1_555 1_555
H35 C25 1_555 1_555
H36 C25 1_555 1_555
S1 C1 1_555 1_555
S2 C15 1_555 1_555
C4 S1 1_555 1_555
C12 C13 1_555 1_555
C18 S2 1_555 1_555
C24 C25 1_555 1_555

#END
