
#######################################################################
#
#                 Cambridge Crystallographic Data Centre
#                                CCDC 
#
#######################################################################
#
# If this CIF has been generated from an entry in the Cambridge 
# Structural Database, then it will include bibliographic, chemical, 
# crystal, experimental, refinement or atomic coordinate data resulting 
# from the CCDC's data processing and validation procedures.
#
#######################################################################

data_PUHXEX
_chemical_formula_moiety         'C17 H12 Cl1 N1 O4'
_chemical_name_systematic        
'3-(Chloro(phenyl)methylene)-5-(4-nitrophenyl)dihydrofuran-2(3H)-one unknown solvate'
_symmetry_cell_setting           monoclinic
_symmetry_space_group_name_H-M   'P 21/n'
_symmetry_Int_Tables_number      14
_space_group_name_Hall           '-P 2yn'
loop_
_symmetry_equiv_pos_site_id
_symmetry_equiv_pos_as_xyz
1 x,y,z
2 1/2-x,1/2+y,1/2-z
3 -x,-y,-z
4 1/2+x,1/2-y,1/2+z
_cell_length_a                   11.645(2)
_cell_length_b                   7.1420(14)
_cell_length_c                   21.215(4)
_cell_angle_alpha                90
_cell_angle_beta                 99.78(3)
_cell_angle_gamma                90
_cell_volume                     1738.78
_cell_formula_units_Z            2
loop_
_atom_site_label
_atom_site_type_symbol
_atom_site_fract_x
_atom_site_fract_y
_atom_site_fract_z
Cl1 Cl 0.4942(2) 0.0942(3) 0.12949(8)
O1 O 0.3021(4) 0.4259(6) 0.2521(2)
O2 O 0.3559(5) 0.4207(6) 0.1575(2)
C1 C 0.3259(6) 0.4361(8) 0.3677(3)
C2 C 0.3121(6) 0.3141(8) 0.3096(3)
H1 H 0.2416 0.2381 0.3078
C3 C 0.5544(6) -0.0941(8) 0.2401(3)
C4 C 0.3557(6) 0.6395(10) 0.4775(3)
C5 C 0.3805(6) 0.6040(8) 0.3705(3)
H2 H 0.4086 0.6493 0.3350
C6 C 0.4888(6) 0.0682(9) 0.2090(3)
C7 C 0.4154(6) 0.1855(9) 0.3070(3)
H3 H 0.4848 0.2316 0.3345
H4 H 0.3992 0.0595 0.3202
C8 C 0.6152(6) -0.0845(9) 0.3008(3)
H5 H 0.6159 0.0261 0.3240
C9 C 0.4299(6) 0.1890(9) 0.2393(3)
C10 C 0.2858(7) 0.3681(10) 0.4206(3)
H6 H 0.2488 0.2524 0.4191
C11 C 0.5532(6) -0.2626(10) 0.2063(4)
H7 H 0.5117 -0.2703 0.1649
C12 C 0.3011(8) 0.4728(11) 0.4755(3)
H8 H 0.2737 0.4287 0.5115
N1 N 0.3692(7) 0.7506(11) 0.5367(4)
O3 O 0.3367(7) 0.6834(10) 0.5829(3)
C13 C 0.3626(7) 0.3534(9) 0.2086(4)
C14 C 0.6120(8) -0.4155(11) 0.2332(5)
H9 H 0.6105 -0.5267 0.2103
C15 C 0.6728(8) -0.4047(11) 0.2938(5)
H10 H 0.7126 -0.5093 0.3122
C16 C 0.6761(7) -0.2397(13) 0.3281(4)
H11 H 0.7190 -0.2328 0.3692
O4 O 0.4100(8) 0.9037(10) 0.5356(3)
C17 C 0.3946(7) 0.7074(10) 0.4258(4)
H12 H 0.4308 0.8238 0.4276
C18? C 0.4366(9) 0.7006(13) 0.0062(4)
C19? C 0.6373(8) 0.4516(13) 0.0274(4)
C20? C 0.6018(11) 0.5943(16) 0.0438(6)
C21? C 0.5237(9) 0.7337(12) 0.0244(4)
C22? C 0.471(3) 0.469(4) 0.0305(12)
loop_
_geom_bond_atom_site_label_1
_geom_bond_atom_site_label_2
_geom_bond_site_symmetry_1
_geom_bond_site_symmetry_2
Cl1 C6 1_555 1_555
O1 C2 1_555 1_555
O2 C13 1_555 1_555
C1 C2 1_555 1_555
C2 H1 1_555 1_555
C3 C6 1_555 1_555
C4 C12 1_555 1_555
C5 C1 1_555 1_555
H2 C5 1_555 1_555
C6 C9 1_555 1_555
C7 C2 1_555 1_555
H3 C7 1_555 1_555
H4 C7 1_555 1_555
C8 C3 1_555 1_555
H5 C8 1_555 1_555
C9 C7 1_555 1_555
C10 C1 1_555 1_555
H6 C10 1_555 1_555
C11 C3 1_555 1_555
H7 C11 1_555 1_555
C12 C10 1_555 1_555
H8 C12 1_555 1_555
N1 C4 1_555 1_555
O3 N1 1_555 1_555
C13 O1 1_555 1_555
C14 C11 1_555 1_555
H9 C14 1_555 1_555
C15 C14 1_555 1_555
H10 C15 1_555 1_555
C16 C8 1_555 1_555
H11 C16 1_555 1_555
O4 N1 1_555 1_555
C17 C4 1_555 1_555
H12 C17 1_555 1_555
C5 C17 1_555 1_555
C9 C13 1_555 1_555
C15 C16 1_555 1_555

#END
