
#######################################################################
#
#                 Cambridge Crystallographic Data Centre
#                                CCDC 
#
#######################################################################
#
# If this CIF has been generated from an entry in the Cambridge 
# Structural Database, then it will include bibliographic, chemical, 
# crystal, experimental, refinement or atomic coordinate data resulting 
# from the CCDC's data processing and validation procedures.
#
#######################################################################

data_PUHZEY
_chemical_formula_moiety         'C18 H16 N4 S1'
_chemical_name_systematic        
(E)-1-Phenyl-2-((5-[(1E)-(2-phenylhydrazin-1-ylidene)methyl]-2-thienyl)methylidene)hydrazine
_symmetry_cell_setting           trigonal
_symmetry_space_group_name_H-M   'P 32'
_symmetry_Int_Tables_number      145
_space_group_name_Hall           'P 32'
loop_
_symmetry_equiv_pos_site_id
_symmetry_equiv_pos_as_xyz
1 x,y,z
2 -y,x-y,2/3+z
3 -x+y,-x,1/3+z
_cell_length_a                   15.6495(6)
_cell_length_b                   15.6495(6)
_cell_length_c                   5.9335(10)
_cell_angle_alpha                90
_cell_angle_beta                 90
_cell_angle_gamma                120
_cell_volume                     1258.47
_exptl_crystal_colour            yellow
_exptl_crystal_description       rod
_chemical_melting_point          498-500K
_cell_formula_units_Z            3
_exptl_crystal_recrystallization_method 'aqueous ethanol'
loop_
_atom_site_label
_atom_site_type_symbol
_atom_site_fract_x
_atom_site_fract_y
_atom_site_fract_z
S1 S 0.81560(6) 0.77053(6) 0.68924(12)
N1 N 0.68935(19) 0.86586(19) 0.6256(4)
N2 N 0.6286(2) 0.9036(2) 0.5913(5)
H1 H 0.614(3) 0.927(3) 0.711(7)
N3 N 0.89915(18) 0.63239(18) 0.6731(4)
N4 N 0.9375(2) 0.5714(2) 0.6555(5)
H2 H 0.963(3) 0.563(3) 0.782(7)
C1 C 0.8031(2) 0.8521(2) 0.8654(5)
C2 C 0.8520(2) 0.8645(3) 1.0644(5)
H3 H 0.8543 0.9071 1.1812
C3 C 0.8988(2) 0.8076(3) 1.0785(5)
H4 H 0.9360 0.8081 1.2055
C4 C 0.8851(2) 0.7513(2) 0.8902(5)
C5 C 0.7407(2) 0.8917(2) 0.8070(5)
H5 H 0.7374 0.9380 0.9049
C6 C 0.5620(2) 0.8678(2) 0.4142(5)
C7 C 0.4833(3) 0.8868(3) 0.4091(6)
H6 H 0.4741 0.9214 0.5294
C8 C 0.4193(3) 0.8546(3) 0.2278(6)
H7 H 0.3660 0.8675 0.2242
C9 C 0.4316(3) 0.8040(3) 0.0517(6)
H8 H 0.3871 0.7823 -0.0720
C10 C 0.5088(3) 0.7852(3) 0.0562(6)
H9 H 0.5171 0.7502 -0.0647
C11 C 0.5747(3) 0.8169(2) 0.2359(5)
H10 H 0.6279 0.8040 0.2374
C12 C 0.9187(2) 0.6824(2) 0.8568(5)
H11 H 0.9559 0.6736 0.9714
C13 C 0.9022(3) 0.4977(2) 0.4896(5)
C14 C 0.8457(3) 0.4988(2) 0.3078(5)
H12 H 0.8257 0.5468 0.2990
C15 C 0.8196(3) 0.4278(3) 0.1403(6)
H13 H 0.7811 0.4276 0.0162
C16 C 0.8481(3) 0.3579(3) 0.1506(7)
H14 H 0.8311 0.3110 0.0328
C17 C 0.9020(3) 0.3566(3) 0.3340(7)
H15 H 0.9202 0.3072 0.3437
C18 C 0.9296(3) 0.4258(2) 0.5029(6)
H16 H 0.9671 0.4246 0.6275
loop_
_geom_bond_atom_site_label_1
_geom_bond_atom_site_label_2
_geom_bond_site_symmetry_1
_geom_bond_site_symmetry_2
S1 C1 1_555 1_555
N1 N2 1_555 1_555
N2 H1 1_555 1_555
N3 N4 1_555 1_555
N4 H2 1_555 1_555
C1 C2 1_555 1_555
C2 H3 1_555 1_555
C3 C2 1_555 1_555
H4 C3 1_555 1_555
C4 S1 1_555 1_555
C5 N1 1_555 1_555
H5 C5 1_555 1_555
C6 N2 1_555 1_555
C7 C6 1_555 1_555
H6 C7 1_555 1_555
C8 C7 1_555 1_555
H7 C8 1_555 1_555
C9 C8 1_555 1_555
H8 C9 1_555 1_555
C10 C9 1_555 1_555
H9 C10 1_555 1_555
C11 C6 1_555 1_555
H10 C11 1_555 1_555
C12 N3 1_555 1_555
H11 C12 1_555 1_555
C13 N4 1_555 1_555
C14 C13 1_555 1_555
H12 C14 1_555 1_555
C15 C14 1_555 1_555
H13 C15 1_555 1_555
C16 C15 1_555 1_555
H14 C16 1_555 1_555
C17 C16 1_555 1_555
H15 C17 1_555 1_555
C18 C13 1_555 1_555
H16 C18 1_555 1_555
C1 C5 1_555 1_555
C3 C4 1_555 1_555
C4 C12 1_555 1_555
C10 C11 1_555 1_555
C17 C18 1_555 1_555

#END
