
#######################################################################
#
#                 Cambridge Crystallographic Data Centre
#                                CCDC 
#
#######################################################################
#
# If this CIF has been generated from an entry in the Cambridge 
# Structural Database, then it will include bibliographic, chemical, 
# crystal, experimental, refinement or atomic coordinate data resulting 
# from the CCDC's data processing and validation procedures.
#
#######################################################################

data_PUJCIH
_chemical_formula_moiety         'C18 H15 N3 O2'
_chemical_name_systematic        
N'-(2-Methoxy-1-naphthylidene)nicotinohydrazide
_symmetry_cell_setting           tetragonal
_symmetry_space_group_name_H-M   'P 43'
_symmetry_Int_Tables_number      78
_space_group_name_Hall           'P 4cw'
loop_
_symmetry_equiv_pos_site_id
_symmetry_equiv_pos_as_xyz
1 x,y,z
2 -x,-y,1/2+z
3 -y,x,3/4+z
4 y,-x,1/4+z
_cell_length_a                   9.6163(13)
_cell_length_b                   9.6163(13)
_cell_length_c                   17.442(3)
_cell_angle_alpha                90
_cell_angle_beta                 90
_cell_angle_gamma                90
_cell_volume                     1612.92
_exptl_crystal_colour            colorless
_exptl_crystal_description       block
_cell_formula_units_Z            4
loop_
_atom_site_label
_atom_site_type_symbol
_atom_site_fract_x
_atom_site_fract_y
_atom_site_fract_z
N1 N 0.9936(3) 0.0960(3) 0.18164(15)
N2 N 1.0362(3) -0.0311(3) 0.20995(14)
N3 N 1.2654(4) -0.3482(3) 0.31458(18)
O1 O 0.9212(3) 0.3474(3) 0.35200(18)
O2 O 1.1195(2) -0.1023(2) 0.09477(13)
C1 C 0.8973(3) 0.3191(3) 0.2190(2)
C2 C 0.8904(4) 0.4054(4) 0.2829(3)
C3 C 0.8547(5) 0.5467(5) 0.2750(4)
H1 H 0.8516 0.6039 0.3179
C4 C 0.8256(5) 0.5980(5) 0.2064(5)
H2 H 0.8060 0.6924 0.2022
C5 C 0.8231(4) 0.5148(4) 0.1387(3)
C6 C 0.7859(5) 0.5685(5) 0.0671(4)
H3 H 0.7606 0.6616 0.0632
C7 C 0.7857(5) 0.4884(6) 0.0029(4)
H4 H 0.7618 0.5270 -0.0441
C8 C 0.8218(4) 0.3472(5) 0.0079(3)
H5 H 0.8211 0.2915 -0.0357
C9 C 0.8579(3) 0.2925(4) 0.0773(2)
H6 H 0.8816 0.1988 0.0799
C10 C 0.8609(3) 0.3720(3) 0.1454(2)
C11 C 0.9425(3) 0.1769(3) 0.2331(2)
H7 H 0.9337 0.1422 0.2826
C12 C 1.1047(3) -0.1204(3) 0.16398(18)
C13 C 1.1660(3) -0.2433(3) 0.20306(16)
C14 C 1.1928(4) -0.3620(4) 0.1619(2)
H8 H 1.1688 -0.3673 0.1104
C15 C 1.2545(5) -0.4718(4) 0.1972(2)
H9 H 1.2742 -0.5528 0.1703
C16 C 1.2870(6) -0.4605(4) 0.2729(3)
H10 H 1.3270 -0.5371 0.2968
C17 C 1.2047(4) -0.2419(4) 0.2787(2)
H11 H 1.1875 -0.1616 0.3069
C18 C 0.8999(7) 0.4279(7) 0.4200(3)
H12 H 0.9667 0.5021 0.4218
H13 H 0.9112 0.3695 0.4642
H14 H 0.8077 0.4661 0.4197
H15 H 1.019(4) -0.056(3) 0.2588(9)
loop_
_geom_bond_atom_site_label_1
_geom_bond_atom_site_label_2
_geom_bond_site_symmetry_1
_geom_bond_site_symmetry_2
N1 N2 1_555 1_555
N2 C12 1_555 1_555
N3 C16 1_555 1_555
O1 C2 1_555 1_555
O2 C12 1_555 1_555
C1 C2 1_555 1_555
C2 C3 1_555 1_555
C3 H1 1_555 1_555
C4 C3 1_555 1_555
H2 C4 1_555 1_555
C5 C4 1_555 1_555
C6 C5 1_555 1_555
H3 C6 1_555 1_555
C7 C6 1_555 1_555
H4 C7 1_555 1_555
C8 C7 1_555 1_555
H5 C8 1_555 1_555
C9 C8 1_555 1_555
H6 C9 1_555 1_555
C10 C1 1_555 1_555
C11 N1 1_555 1_555
H7 C11 1_555 1_555
C12 C13 1_555 1_555
C13 C14 1_555 1_555
C14 H8 1_555 1_555
C15 C14 1_555 1_555
H9 C15 1_555 1_555
C16 C15 1_555 1_555
H10 C16 1_555 1_555
C17 N3 1_555 1_555
H11 C17 1_555 1_555
C18 O1 1_555 1_555
H12 C18 1_555 1_555
H13 C18 1_555 1_555
H14 C18 1_555 1_555
H15 N2 1_555 1_555
C1 C11 1_555 1_555
C5 C10 1_555 1_555
C9 C10 1_555 1_555
C13 C17 1_555 1_555

#END
