
#######################################################################
#
#                 Cambridge Crystallographic Data Centre
#                                CCDC 
#
#######################################################################
#
# If this CIF has been generated from an entry in the Cambridge 
# Structural Database, then it will include bibliographic, chemical, 
# crystal, experimental, refinement or atomic coordinate data resulting 
# from the CCDC's data processing and validation procedures.
#
#######################################################################

data_PUJCED
_chemical_formula_moiety         'C21 H28 N2 O4'
_chemical_name_systematic        
'Diethyl 4-(4-(dimethylamino)phenyl)-2,6-dimethyl-1,4-dihydropyridine-3,5-dicarboxylate'
_symmetry_cell_setting           monoclinic
_symmetry_space_group_name_H-M   'P 21/n'
_symmetry_Int_Tables_number      14
_space_group_name_Hall           '-P 2yn'
loop_
_symmetry_equiv_pos_site_id
_symmetry_equiv_pos_as_xyz
1 x,y,z
2 1/2-x,1/2+y,1/2-z
3 -x,-y,-z
4 1/2+x,1/2-y,1/2+z
_cell_length_a                   7.5023(7)
_cell_length_b                   14.9797(14)
_cell_length_c                   18.0691(19)
_cell_angle_alpha                90
_cell_angle_beta                 91.0210(10)
_cell_angle_gamma                90
_cell_volume                     2030.32
_exptl_crystal_colour            red
_exptl_crystal_description       needle
_cell_formula_units_Z            4
_exptl_crystal_recrystallization_method methanol
loop_
_atom_site_label
_atom_site_type_symbol
_atom_site_fract_x
_atom_site_fract_y
_atom_site_fract_z
N1 N 1.0562(4) 0.1513(2) 1.06111(16)
H1 H 1.1638 0.1618 1.0758
N2 N 0.6296(5) 0.5330(2) 0.8972(2)
O1 O 0.6518(4) 0.0907(2) 0.86907(16)
O2 O 0.9341(5) 0.0681(3) 0.84207(18)
O3 O 0.6311(3) 0.1834(2) 1.20424(14)
O4 O 0.4439(3) 0.1727(2) 1.10883(14)
C1 C 1.0290(5) 0.1244(2) 0.9891(2)
C2 C 0.8620(5) 0.1274(2) 0.96009(18)
C3 C 0.7131(5) 0.1728(2) 1.00311(17)
H2 H 0.6020 0.1402 0.9931
C4 C 0.7524(4) 0.1684(2) 1.08551(17)
C5 C 0.9222(5) 0.1625(3) 1.11124(18)
C6 C 1.1942(5) 0.0920(3) 0.9527(2)
H3 H 1.1736 0.0334 0.9327
H4 H 1.2902 0.0896 0.9885
H5 H 1.2250 0.1321 0.9135
C7 C 0.8257(7) 0.0925(3) 0.8863(2)
C8 C 0.624(3) 0.0697(13) 0.7887(8)
H6 H 0.6810 0.1141 0.7582
H7 H 0.6723 0.0115 0.7771
C9 C 0.428(2) 0.0708(15) 0.7756(8)
H8 H 0.3732 0.0268 0.8065
H9 H 0.4022 0.0574 0.7246
H10 H 0.3820 0.1288 0.7873
C10 C 0.6878(4) 0.2688(2) 0.97650(17)
C11 C 0.7898(5) 0.3382(3) 1.0039(2)
H11 H 0.8738 0.3263 1.0411
C12 C 0.7721(5) 0.4242(3) 0.9787(2)
H12 H 0.8445 0.4686 0.9990
C13 C 0.6486(5) 0.4466(3) 0.9232(2)
C14 C 0.5446(5) 0.3772(3) 0.8956(2)
H13 H 0.4592 0.3888 0.8589
C15 C 0.5659(5) 0.2911(3) 0.9218(2)
H14 H 0.4947 0.2462 0.9015
C16 C 0.7323(7) 0.6039(3) 0.9282(3)
H15 H 0.7142 0.6064 0.9806
H16 H 0.6959 0.6593 0.9060
H17 H 0.8563 0.5937 0.9189
C17 C 0.4833(7) 0.5557(3) 0.8486(3)
H18 H 0.4969 0.5257 0.8021
H19 H 0.4815 0.6190 0.8407
H20 H 0.3735 0.5374 0.8705
C18 C 0.5961(5) 0.1746(2) 1.1321(2)
C19 C 0.4839(5) 0.1922(3) 1.2541(2)
H21 H 0.3974 0.1452 1.2448
H22 H 0.4253 0.2493 1.2466
C20 C 0.5528(7) 0.1859(4) 1.3293(3)
H23 H 0.6072 0.1285 1.3367
H24 H 0.4570 0.1932 1.3632
H25 H 0.6400 0.2319 1.3377
C21 C 0.9918(5) 0.1636(3) 1.1893(2)
H26 H 0.9342 0.2103 1.2162
H27 H 1.1181 0.1739 1.1895
H28 H 0.9677 0.1071 1.2123
C22? C 0.557(5) 0.036(2) 0.814(2)
C23? C 0.508(6) 0.107(3) 0.7585(16)
H29? H 0.4525 0.0074 0.8345
H30? H 0.6338 -0.0093 0.7929
H31? H 0.4027 0.1381 0.7745
H32? H 0.4844 0.0805 0.7111
H33? H 0.6041 0.1491 0.7547
loop_
_geom_bond_atom_site_label_1
_geom_bond_atom_site_label_2
_geom_bond_site_symmetry_1
_geom_bond_site_symmetry_2
N1 H1 1_555 1_555
N2 C13 1_555 1_555
O1 C7 1_555 1_555
O2 C7 1_555 1_555
O3 C18 1_555 1_555
O4 C18 1_555 1_555
C1 N1 1_555 1_555
C2 C1 1_555 1_555
C3 C2 1_555 1_555
H2 C3 1_555 1_555
C4 C3 1_555 1_555
C5 N1 1_555 1_555
C6 C1 1_555 1_555
H3 C6 1_555 1_555
H4 C6 1_555 1_555
H5 C6 1_555 1_555
C7 C2 1_555 1_555
C8 O1 1_555 1_555
H6 C8 1_555 1_555
H7 C8 1_555 1_555
C9 C8 1_555 1_555
H8 C9 1_555 1_555
H9 C9 1_555 1_555
H10 C9 1_555 1_555
C10 C3 1_555 1_555
C11 C10 1_555 1_555
H11 C11 1_555 1_555
C12 C11 1_555 1_555
H12 C12 1_555 1_555
C13 C12 1_555 1_555
C14 C13 1_555 1_555
H13 C14 1_555 1_555
C15 C10 1_555 1_555
H14 C15 1_555 1_555
C16 N2 1_555 1_555
H15 C16 1_555 1_555
H16 C16 1_555 1_555
H17 C16 1_555 1_555
C17 N2 1_555 1_555
H18 C17 1_555 1_555
H19 C17 1_555 1_555
H20 C17 1_555 1_555
C18 C4 1_555 1_555
C19 O3 1_555 1_555
H21 C19 1_555 1_555
H22 C19 1_555 1_555
C20 C19 1_555 1_555
H23 C20 1_555 1_555
H24 C20 1_555 1_555
H25 C20 1_555 1_555
C21 C5 1_555 1_555
H26 C21 1_555 1_555
H27 C21 1_555 1_555
H28 C21 1_555 1_555
C4 C5 1_555 1_555
C14 C15 1_555 1_555

#END
