
#######################################################################
#
#                 Cambridge Crystallographic Data Centre
#                                CCDC 
#
#######################################################################
#
# If this CIF has been generated from an entry in the Cambridge 
# Structural Database, then it will include bibliographic, chemical, 
# crystal, experimental, refinement or atomic coordinate data resulting 
# from the CCDC's data processing and validation procedures.
#
#######################################################################

data_PUJDOO
_chemical_formula_moiety         'C18 H19 N3 O1'
_chemical_name_systematic        
(E)-2-(4-Diethylamino-2-hydroxybenzylideneamino)benzonitrile
_symmetry_cell_setting           monoclinic
_symmetry_space_group_name_H-M   'P 21/c'
_symmetry_Int_Tables_number      14
_space_group_name_Hall           '-P 2ybc'
loop_
_symmetry_equiv_pos_site_id
_symmetry_equiv_pos_as_xyz
1 x,y,z
2 -x,1/2+y,1/2-z
3 -x,-y,-z
4 x,1/2-y,1/2+z
_cell_length_a                   7.185(5)
_cell_length_b                   12.324(9)
_cell_length_c                   18.490(12)
_cell_angle_alpha                90
_cell_angle_beta                 108.39(2)
_cell_angle_gamma                90
_cell_volume                     1553.64
_exptl_crystal_colour            yellow
_exptl_crystal_description       prism
_cell_formula_units_Z            4
_exptl_crystal_recrystallization_method acetonitrile
loop_
_atom_site_label
_atom_site_type_symbol
_atom_site_fract_x
_atom_site_fract_y
_atom_site_fract_z
O1 O -0.0254(2) 0.40112(14) 0.61866(9)
N1 N 0.4621(3) 0.58450(14) 0.81676(10)
N2 N 0.0535(2) 0.35141(13) 0.49350(9)
N3 N -0.4028(3) 0.26723(17) 0.48643(11)
C1 C 0.2850(3) 0.43963(16) 0.59876(11)
C2 C 0.1595(3) 0.44183(16) 0.64441(11)
C3 C 0.2210(3) 0.48662(17) 0.71679(11)
H1 H 0.1370 0.4851 0.7461
C4 C 0.4072(3) 0.53439(16) 0.74698(11)
C5 C 0.5361(3) 0.52898(17) 0.70227(12)
H2 H 0.6625 0.5568 0.7214
C6 C 0.4742(3) 0.48286(16) 0.63105(11)
H3 H 0.5612 0.4801 0.6030
C7 C 0.6397(4) 0.6504(2) 0.84374(14)
H4 H 0.6146 0.7105 0.8733
H5 H 0.6681 0.6806 0.7999
C8 C 0.8184(4) 0.5898(3) 0.89198(16)
H6 H 0.9280 0.6386 0.9078
H7 H 0.8478 0.5317 0.8627
H8 H 0.7930 0.5606 0.9361
C9 C 0.3349(4) 0.58173(19) 0.86478(13)
H9 H 0.2019 0.5989 0.8338
H10 H 0.3772 0.6373 0.9037
C10 C 0.3350(4) 0.4732(2) 0.90292(13)
H11 H 0.2488 0.4762 0.9334
H12 H 0.4656 0.4565 0.9349
H13 H 0.2908 0.4179 0.8647
C11 C 0.2253(3) 0.39466(16) 0.52344(11)
H14 H 0.3120 0.3965 0.4953
C12 C -0.0049(3) 0.30557(15) 0.41992(11)
C13 C -0.1936(3) 0.25907(16) 0.39549(11)
C14 C -0.2688(3) 0.21019(17) 0.32369(12)
H15 H -0.3934 0.1796 0.3088
C15 C -0.1567(3) 0.20773(17) 0.27517(12)
H16 H -0.2049 0.1754 0.2274
C16 C 0.0289(3) 0.25409(17) 0.29866(12)
H17 H 0.1037 0.2531 0.2658
C17 C 0.1058(3) 0.30176(17) 0.36960(11)
H18 H 0.2312 0.3314 0.3840
C18 C -0.3098(3) 0.26378(17) 0.44614(12)
H19 H -0.044(4) 0.378(2) 0.5719(17)
loop_
_geom_bond_atom_site_label_1
_geom_bond_atom_site_label_2
_geom_bond_site_symmetry_1
_geom_bond_site_symmetry_2
O1 C2 1_555 1_555
N1 C4 1_555 1_555
N2 C11 1_555 1_555
N3 C18 1_555 1_555
C1 C2 1_555 1_555
C2 C3 1_555 1_555
C3 H1 1_555 1_555
C4 C3 1_555 1_555
C5 C4 1_555 1_555
H2 C5 1_555 1_555
C6 C1 1_555 1_555
H3 C6 1_555 1_555
C7 N1 1_555 1_555
H4 C7 1_555 1_555
H5 C7 1_555 1_555
C8 C7 1_555 1_555
H6 C8 1_555 1_555
H7 C8 1_555 1_555
H8 C8 1_555 1_555
C9 N1 1_555 1_555
H9 C9 1_555 1_555
H10 C9 1_555 1_555
C10 C9 1_555 1_555
H11 C10 1_555 1_555
H12 C10 1_555 1_555
H13 C10 1_555 1_555
C11 C1 1_555 1_555
H14 C11 1_555 1_555
C12 N2 1_555 1_555
C13 C12 1_555 1_555
C14 C13 1_555 1_555
H15 C14 1_555 1_555
C15 C14 1_555 1_555
H16 C15 1_555 1_555
C16 C15 1_555 1_555
H17 C16 1_555 1_555
C17 C12 1_555 1_555
H18 C17 1_555 1_555
C18 C13 1_555 1_555
H19 O1 1_555 1_555
C5 C6 1_555 1_555
C16 C17 1_555 1_555

#END
