
#######################################################################
#
#                 Cambridge Crystallographic Data Centre
#                                CCDC 
#
#######################################################################
#
# If this CIF has been generated from an entry in the Cambridge 
# Structural Database, then it will include bibliographic, chemical, 
# crystal, experimental, refinement or atomic coordinate data resulting 
# from the CCDC's data processing and validation procedures.
#
#######################################################################

data_PUJDUV
_chemical_formula_moiety         'C24 H21 N3 O1,2.5(H2 O1)'
_chemical_name_systematic        
'3-phenyl-11-(pyridin-4-yl)-2,3,4,5,10,11-hexahydro-1H-dibenzo[b,e][1,4]diazepin-1-one hydrate'
_symmetry_cell_setting           monoclinic
_symmetry_space_group_name_H-M   'C 2/c'
_symmetry_Int_Tables_number      15
_space_group_name_Hall           '-C 2yn'
loop_
_symmetry_equiv_pos_site_id
_symmetry_equiv_pos_as_xyz
1 x,y,z
2 -x,y,1/2-z
3 1/2+x,1/2+y,z
4 1/2-x,1/2+y,1/2-z
5 -x,-y,-z
6 x,-y,1/2+z
7 1/2-x,1/2-y,-z
8 1/2+x,1/2-y,1/2+z
_cell_length_a                   28.39(4)
_cell_length_b                   9.275(12)
_cell_length_c                   16.84(2)
_cell_angle_alpha                90
_cell_angle_beta                 104.98(3)
_cell_angle_gamma                90
_cell_volume                     4283.57
_cell_formula_units_Z            8
loop_
_atom_site_label
_atom_site_type_symbol
_atom_site_fract_x
_atom_site_fract_y
_atom_site_fract_z
C1 C 0.13526(12) 0.6269(4) 0.1742(2)
C2 C 0.08983(13) 0.6753(5) 0.1783(2)
H1 H 0.0671 0.6098 0.1879
C3 C 0.07786(15) 0.8181(6) 0.1684(3)
H2 H 0.0472 0.8485 0.1718
C4 C 0.11030(15) 0.9167(5) 0.1537(3)
H3 H 0.1023 1.0140 0.1486
C5 C 0.15463(13) 0.8707(4) 0.1466(2)
H4 H 0.1762 0.9370 0.1340
C6 C 0.16822(12) 0.7270(4) 0.1577(2)
C7 C 0.16469(11) 0.4021(3) 0.1266(2)
H5 H 0.1643 0.3001 0.1417
C8 C 0.21627(11) 0.4340(3) 0.12665(19)
C9 C 0.24514(12) 0.3146(4) 0.1142(2)
C10 C 0.29693(12) 0.3341(3) 0.1128(2)
H6 H 0.3045 0.2664 0.0740
H7 H 0.3177 0.3116 0.1668
C11 C 0.30820(12) 0.4839(3) 0.0896(2)
H8 H 0.2891 0.4998 0.0329
C12 C 0.29005(10) 0.5906(3) 0.1431(2)
H9 H 0.3095 0.5814 0.1994
H10 H 0.2943 0.6877 0.1247
C13 C 0.23719(11) 0.5679(3) 0.14054(19)
C14 C 0.36101(12) 0.5133(4) 0.0919(2)
C15 C 0.37312(14) 0.6366(5) 0.0582(3)
H11 H 0.3485 0.7008 0.0334
C16 C 0.42066(18) 0.6696(5) 0.0597(3)
H12 H 0.4278 0.7553 0.0366
C17 C 0.45688(16) 0.5777(6) 0.0946(3)
H13 H 0.4881 0.5897 0.0877
C18 C 0.4456(17) 0.458(5) 0.144(2)
H14 H 0.4705 0.4047 0.1779
C19 C 0.400(2) 0.428(7) 0.139(3)
H15 H 0.3924 0.3485 0.1674
C20 C 0.12816(12) 0.4154(3) 0.0433(2)
C21 C 0.14012(12) 0.4676(3) -0.0255(2)
H16 H 0.1720 0.4952 -0.0230
C22 C 0.10407(15) 0.4783(4) -0.0984(2)
H17 H 0.1131 0.5135 -0.1440
C23 C 0.04681(13) 0.3926(5) -0.0411(3)
H18 H 0.0146 0.3673 -0.0451
C24 C 0.08015(13) 0.3766(4) 0.0336(2)
H19 H 0.0703 0.3393 0.0780
N1 N 0.14813(9) 0.4817(3) 0.19026(16)
H20 H 0.1464 0.4409 0.2353
N2 N 0.21559(9) 0.6935(3) 0.15312(16)
H21 H 0.2347 0.7668 0.1596
N3 N 0.05810(12) 0.4428(4) -0.1086(2)
O1 O 0.22740(8) 0.1909(2) 0.10575(15)
O2 O 0.27828(7) 0.9409(2) 0.15160(14)
H24 H 0.2657 0.9935 0.1102
H25 H 0.2811 0.9895 0.1954
O3 O 0.5000 0.9263(4) 0.2500
H26 H 0.4844 0.9874 0.2155
H26A H 0.5156 0.9874 0.2845
O4 O 0.57794(9) 0.7571(3) 0.22940(15)
H27 H 0.5774 0.8463 0.2406
H28 H 0.5483 0.7378 0.2267
C25? C 0.4453(17) 0.452(5) 0.1100(18)
H22? H 0.4689 0.3797 0.1193
C26? C 0.396(2) 0.415(7) 0.113(3)
H23? H 0.3886 0.3235 0.1304
loop_
_geom_bond_atom_site_label_1
_geom_bond_atom_site_label_2
_geom_bond_site_symmetry_1
_geom_bond_site_symmetry_2
C1 C2 1_555 1_555
C2 H1 1_555 1_555
C3 C2 1_555 1_555
H2 C3 1_555 1_555
C4 C3 1_555 1_555
H3 C4 1_555 1_555
C5 C4 1_555 1_555
H4 C5 1_555 1_555
C6 C1 1_555 1_555
C7 H5 1_555 1_555
C8 C7 1_555 1_555
C9 C8 1_555 1_555
C10 C9 1_555 1_555
H6 C10 1_555 1_555
H7 C10 1_555 1_555
C11 C10 1_555 1_555
H8 C11 1_555 1_555
C12 C11 1_555 1_555
H9 C12 1_555 1_555
H10 C12 1_555 1_555
C13 C8 1_555 1_555
C14 C11 1_555 1_555
C15 C14 1_555 1_555
H11 C15 1_555 1_555
C16 C15 1_555 1_555
H12 C16 1_555 1_555
C17 C16 1_555 1_555
H13 C17 1_555 1_555
C18 C17 1_555 1_555
H14 C18 1_555 1_555
C19 C14 1_555 1_555
H15 C19 1_555 1_555
C20 C7 1_555 1_555
C21 C20 1_555 1_555
H16 C21 1_555 1_555
C22 C21 1_555 1_555
H17 C22 1_555 1_555
C23 H18 1_555 1_555
C24 C20 1_555 1_555
H19 C24 1_555 1_555
N1 C1 1_555 1_555
H20 N1 1_555 1_555
N2 C6 1_555 1_555
H21 N2 1_555 1_555
N3 C22 1_555 1_555
O1 C9 1_555 1_555
O2 H24 1_555 1_555
H25 O2 1_555 1_555
O3 H26 1_555 1_555
O4 H27 1_555 1_555
H28 O4 1_555 1_555
H26A O3 1_555 1_555
C5 C6 1_555 1_555
C7 N1 1_555 1_555
C12 C13 1_555 1_555
C13 N2 1_555 1_555
C18 C19 1_555 1_555
C23 C24 1_555 1_555
C23 N3 1_555 1_555

#END
