
#######################################################################
#
#                 Cambridge Crystallographic Data Centre
#                                CCDC 
#
#######################################################################
#
# If this CIF has been generated from an entry in the Cambridge 
# Structural Database, then it will include bibliographic, chemical, 
# crystal, experimental, refinement or atomic coordinate data resulting 
# from the CCDC's data processing and validation procedures.
#
#######################################################################

data_PUJFUW
_chemical_formula_moiety         'C10 H9 N1 O2'
_chemical_name_systematic        (3-Phenylisoxazol-5-yl)methanol
_symmetry_cell_setting           monoclinic
_symmetry_space_group_name_H-M   'C 2/c'
_symmetry_Int_Tables_number      15
_space_group_name_Hall           '-C 2yn'
loop_
_symmetry_equiv_pos_site_id
_symmetry_equiv_pos_as_xyz
1 x,y,z
2 -x,y,1/2-z
3 1/2+x,1/2+y,z
4 1/2-x,1/2+y,1/2-z
5 -x,-y,-z
6 x,-y,1/2+z
7 1/2-x,1/2-y,-z
8 1/2+x,1/2-y,1/2+z
_cell_length_a                   41.03(4)
_cell_length_b                   5.694(5)
_cell_length_c                   7.348(7)
_cell_angle_alpha                90
_cell_angle_beta                 98.51(2)
_cell_angle_gamma                90
_cell_volume                     1697.77
_exptl_crystal_colour            colorless
_exptl_crystal_description       plate
_cell_formula_units_Z            8
_exptl_crystal_recrystallization_method 
'petroleum ether/ethyl acetate/dichloromethane'
loop_
_atom_site_label
_atom_site_type_symbol
_atom_site_fract_x
_atom_site_fract_y
_atom_site_fract_z
C1 C 0.15963(5) 0.9135(4) 0.2841(2)
H1 H 0.1439 1.0293 0.2497
C2 C 0.19149(5) 0.9476(4) 0.2556(3)
H2 H 0.1973 1.0855 0.2009
C3 C 0.21488(5) 0.7785(4) 0.3078(3)
H3 H 0.2366 0.8022 0.2889
C4 C 0.20619(5) 0.5744(4) 0.3878(3)
H4 H 0.2221 0.4604 0.4237
C5 C 0.17421(5) 0.5374(4) 0.4152(2)
H5 H 0.1685 0.3980 0.4682
C6 C 0.15054(5) 0.7074(3) 0.3639(2)
C7 C 0.11668(5) 0.6746(4) 0.4006(2)
C8 C 0.09363(5) 0.8478(4) 0.4305(3)
H6 H 0.0961 1.0098 0.4236
C9 C 0.06769(5) 0.7318(4) 0.4705(3)
C10 C 0.03668(5) 0.8061(5) 0.5327(3)
H7 H 0.0377 0.7646 0.6615
H8 H 0.0350 0.9757 0.5237
N1 N 0.10486(4) 0.4641(3) 0.4183(2)
O1 O 0.07313(3) 0.4982(3) 0.4643(2)
O2 O 0.00792(4) 0.7069(3) 0.4334(3)
H9 H 0.0046 0.5589 0.4396
H10? H 0.0167 0.6698 0.3350
loop_
_geom_bond_atom_site_label_1
_geom_bond_atom_site_label_2
_geom_bond_site_symmetry_1
_geom_bond_site_symmetry_2
C1 H1 1_555 1_555
C2 C1 1_555 1_555
H2 C2 1_555 1_555
C3 C2 1_555 1_555
H3 C3 1_555 1_555
C4 C3 1_555 1_555
H4 C4 1_555 1_555
C5 C4 1_555 1_555
H5 C5 1_555 1_555
C6 C1 1_555 1_555
C7 C6 1_555 1_555
C8 C7 1_555 1_555
H6 C8 1_555 1_555
C9 C8 1_555 1_555
C10 C9 1_555 1_555
H7 C10 1_555 1_555
H8 C10 1_555 1_555
N1 C7 1_555 1_555
O1 C9 1_555 1_555
O2 C10 1_555 1_555
H9 O2 1_555 1_555
C5 C6 1_555 1_555
N1 O1 1_555 1_555

#END
