
#######################################################################
#
#                 Cambridge Crystallographic Data Centre
#                                CCDC 
#
#######################################################################
#
# If this CIF has been generated from an entry in the Cambridge 
# Structural Database, then it will include bibliographic, chemical, 
# crystal, experimental, refinement or atomic coordinate data resulting 
# from the CCDC's data processing and validation procedures.
#
#######################################################################

data_PUJHUY
_chemical_formula_moiety         'C10 H8 N2,2(C7 H5 N1 O4)'
_chemical_name_systematic        "4,4'-Bipyridine bis(3-nitrobenzoic acid)"
_symmetry_cell_setting           monoclinic
_symmetry_space_group_name_H-M   'C 2/c'
_symmetry_Int_Tables_number      15
_space_group_name_Hall           '-C 2yn'
loop_
_symmetry_equiv_pos_site_id
_symmetry_equiv_pos_as_xyz
1 x,y,z
2 -x,y,1/2-z
3 1/2+x,1/2+y,z
4 1/2-x,1/2+y,1/2-z
5 -x,-y,-z
6 x,-y,1/2+z
7 1/2-x,1/2-y,-z
8 1/2+x,1/2-y,1/2+z
_cell_length_a                   26.489(7)
_cell_length_b                   6.7757(14)
_cell_length_c                   13.291(3)
_cell_angle_alpha                90
_cell_angle_beta                 112.19(3)
_cell_angle_gamma                90
_cell_volume                     2208.81
_exptl_crystal_colour            purple-red
_exptl_crystal_description       plate
_cell_formula_units_Z            4
loop_
_atom_site_label
_atom_site_type_symbol
_atom_site_fract_x
_atom_site_fract_y
_atom_site_fract_z
O1 O 0.30213(4) 0.58310(15) 0.39895(8)
O2 O 0.26214(4) 0.60692(13) 0.21797(8)
H1 H 0.2955(4) 0.608(2) 0.2257(14)
O3 O 0.01600(4) 0.66151(15) 0.13387(9)
O4 O 0.06802(4) 0.65732(16) 0.04209(8)
N1 N 0.06088(4) 0.64662(15) 0.12810(10)
C1 C 0.26146(5) 0.59392(18) 0.31583(11)
C2 C 0.20523(5) 0.59219(17) 0.31772(11)
C3 C 0.19834(5) 0.56014(18) 0.41546(11)
H2 H 0.2287 0.5420 0.4791
C4 C 0.14675(6) 0.55513(18) 0.41864(12)
H3 H 0.1427 0.5334 0.4843
C5 C 0.10097(5) 0.58232(18) 0.32441(11)
H4 H 0.0661 0.5781 0.3256
C6 C 0.10882(5) 0.61589(17) 0.22863(11)
C7 C 0.15989(5) 0.62214(17) 0.22295(11)
H5 H 0.1637 0.6458 0.1573
N2 N 0.13751(4) 0.10542(14) 0.27135(9)
C8 C 0.09648(5) 0.14365(18) 0.17646(11)
H6 H 0.1049 0.1696 0.1158
C9 C 0.04234(5) 0.14626(18) 0.16471(11)
H7 H 0.0152 0.1758 0.0978
C10 C 0.02882(5) 0.10427(17) 0.25412(11)
C11 C 0.07148(5) 0.06255(18) 0.35231(11)
H8 H 0.0642 0.0326 0.4138
C12 C 0.12465(5) 0.06609(17) 0.35760(11)
H9 H 0.1527 0.0400 0.4239
N2A N -0.13751(4) 0.10542(14) 0.22865(9)
C8A C -0.09648(5) 0.14365(18) 0.32354(11)
H6A H -0.1049 0.1696 0.3842
C9A C -0.04234(5) 0.14626(18) 0.33529(11)
H7A H -0.0152 0.1758 0.4022
C10A C -0.02882(5) 0.10427(17) 0.24588(11)
C11A C -0.07148(5) 0.06255(18) 0.14769(11)
H8A H -0.0642 0.0326 0.0862
C12A C -0.12465(5) 0.06609(17) 0.14240(11)
H9A H -0.1527 0.0400 0.0761
loop_
_geom_bond_atom_site_label_1
_geom_bond_atom_site_label_2
_geom_bond_site_symmetry_1
_geom_bond_site_symmetry_2
O1 C1 1_555 1_555
O2 H1 1_555 1_555
O3 N1 1_555 1_555
O4 N1 1_555 1_555
N1 C6 1_555 1_555
N2 C8 1_555 1_555
C1 O2 1_555 1_555
C2 C1 1_555 1_555
C3 C2 1_555 1_555
H2 C3 1_555 1_555
C4 C3 1_555 1_555
H3 C4 1_555 1_555
C5 C4 1_555 1_555
H4 C5 1_555 1_555
C6 C5 1_555 1_555
C7 C2 1_555 1_555
H5 C7 1_555 1_555
C8 H6 1_555 1_555
C9 C8 1_555 1_555
H7 C9 1_555 1_555
C10 C9 1_555 1_555
C11 C10 1_555 1_555
H8 C11 1_555 1_555
C12 N2 1_555 1_555
H9 C12 1_555 1_555
N2A C8A 1_555 1_555
C8A H6A 1_555 1_555
C9A C8A 1_555 1_555
H7A C9A 1_555 1_555
C10A C10 1_555 1_555
C11A C10A 1_555 1_555
H8A C11A 1_555 1_555
C12A N2A 1_555 1_555
H9A C12A 1_555 1_555
C6 C7 1_555 1_555
C11 C12 1_555 1_555
C9A C10A 1_555 1_555
C11A C12A 1_555 1_555

#END
