
#######################################################################
#
#                 Cambridge Crystallographic Data Centre
#                                CCDC 
#
#######################################################################
#
# If this CIF has been generated from an entry in the Cambridge 
# Structural Database, then it will include bibliographic, chemical, 
# crystal, experimental, refinement or atomic coordinate data resulting 
# from the CCDC's data processing and validation procedures.
#
#######################################################################

data_PUJJAG
_chemical_formula_moiety         'C25 H21 Cl1 O2'
_chemical_name_systematic        
12-(4-Chlorophenyl)-9,9-dimethyl-8,9,10,12-tetrahydro-11H-benzo[a]xanthen-11-one
_symmetry_cell_setting           monoclinic
_symmetry_space_group_name_H-M   'P 21/n'
_symmetry_Int_Tables_number      14
_space_group_name_Hall           '-P 2yn'
loop_
_symmetry_equiv_pos_site_id
_symmetry_equiv_pos_as_xyz
1 x,y,z
2 1/2-x,1/2+y,1/2-z
3 -x,-y,-z
4 1/2+x,1/2-y,1/2+z
_cell_length_a                   10.293(2)
_cell_length_b                   11.621(2)
_cell_length_c                   16.447(3)
_cell_angle_alpha                90
_cell_angle_beta                 90.04(3)
_cell_angle_gamma                90
_cell_volume                     1967.31
_exptl_crystal_colour            colorless
_exptl_crystal_description       prism
_cell_formula_units_Z            4
_exptl_crystal_recrystallization_method ethanol
loop_
_atom_site_label
_atom_site_type_symbol
_atom_site_fract_x
_atom_site_fract_y
_atom_site_fract_z
Cl1 Cl 0.73445(5) 0.84810(5) 1.12407(3)
O1 O 0.32484(13) 0.87906(11) 0.73299(7)
O2 O 0.25555(13) 0.57878(11) 0.92168(7)
C1 C 0.44337(19) 0.83375(16) 0.70869(10)
C2 C 0.4964(2) 0.88806(17) 0.63881(10)
H1 H 0.4497 0.9473 0.6117
C3 C 0.6149(2) 0.85411(17) 0.61122(11)
H2 H 0.6517 0.8917 0.5654
C4 C 0.68478(19) 0.76365(17) 0.64948(10)
C5 C 0.8075(2) 0.72738(18) 0.62115(11)
H3 H 0.8463 0.7659 0.5764
C6 C 0.8714(2) 0.63750(19) 0.65724(11)
H4 H 0.9544 0.6146 0.6378
C7 C 0.8141(2) 0.57895(18) 0.72317(11)
H5 H 0.8577 0.5153 0.7471
C8 C 0.6959(2) 0.61332(17) 0.75303(11)
H6 H 0.6596 0.5739 0.7982
C9 C 0.62679(18) 0.70654(16) 0.71777(10)
C10 C 0.50399(18) 0.74502(16) 0.74811(10)
C11 C 0.44318(18) 0.69161(16) 0.82395(10)
H7 H 0.4478 0.6059 0.8194
C12 C 0.30257(18) 0.72721(16) 0.82882(10)
C13 C 0.21423(19) 0.66017(16) 0.88135(10)
C14 C 0.07188(19) 0.69208(17) 0.88032(11)
H8 H 0.0309 0.6643 0.9311
H9 H 0.0292 0.6524 0.8342
C15 C 0.0482(2) 0.82193(17) 0.87251(11)
C16 C 0.11871(19) 0.86281(17) 0.79483(11)
H10 H 0.0684 0.8377 0.7467
H11 H 0.1215 0.9480 0.7945
C17 C 0.25322(19) 0.81783(16) 0.78815(10)
C18 C -0.0967(2) 0.8461(2) 0.86518(14)
H12 H -0.1110 0.9294 0.8622
H13 H -0.1418 0.8149 0.9128
H14 H -0.1305 0.8095 0.8158
C19 C 0.1024(2) 0.88391(19) 0.94769(12)
H15 H 0.0891 0.9670 0.9419
H16 H 0.1955 0.8677 0.9528
H17 H 0.0571 0.8565 0.9964
C20 C 0.51814(18) 0.72951(16) 0.90026(10)
C21 C 0.53737(19) 0.84537(16) 0.91539(10)
H18 H 0.5033 0.9007 0.8785
C22 C 0.60548(19) 0.88237(17) 0.98344(10)
H19 H 0.6193 0.9620 0.9930
C23 C 0.65267(18) 0.80068(18) 1.03694(10)
C24 C 0.63531(19) 0.68441(18) 1.02455(11)
H20 H 0.6684 0.6298 1.0622
C25 C 0.5679(2) 0.64900(17) 0.95526(11)
H21 H 0.5556 0.5692 0.9454
loop_
_geom_bond_atom_site_label_1
_geom_bond_atom_site_label_2
_geom_bond_site_symmetry_1
_geom_bond_site_symmetry_2
Cl1 C23 1_555 1_555
O1 C1 1_555 1_555
O2 C13 1_555 1_555
C1 C2 1_555 1_555
C2 H1 1_555 1_555
C3 C2 1_555 1_555
H2 C3 1_555 1_555
C4 C3 1_555 1_555
C5 C4 1_555 1_555
H3 C5 1_555 1_555
C6 C5 1_555 1_555
H4 C6 1_555 1_555
C7 C6 1_555 1_555
H5 C7 1_555 1_555
C8 C7 1_555 1_555
H6 C8 1_555 1_555
C9 C4 1_555 1_555
C10 C1 1_555 1_555
C11 C10 1_555 1_555
H7 C11 1_555 1_555
C12 C11 1_555 1_555
C13 C12 1_555 1_555
C14 C13 1_555 1_555
H8 C14 1_555 1_555
H9 C14 1_555 1_555
C15 C14 1_555 1_555
C16 C15 1_555 1_555
H10 C16 1_555 1_555
H11 C16 1_555 1_555
C17 O1 1_555 1_555
C18 C15 1_555 1_555
H12 C18 1_555 1_555
H13 C18 1_555 1_555
H14 C18 1_555 1_555
C19 C15 1_555 1_555
H15 C19 1_555 1_555
H16 C19 1_555 1_555
H17 C19 1_555 1_555
C20 C11 1_555 1_555
C21 C20 1_555 1_555
H18 C21 1_555 1_555
C22 C21 1_555 1_555
H19 C22 1_555 1_555
C23 C22 1_555 1_555
C24 C23 1_555 1_555
H20 C24 1_555 1_555
C25 C20 1_555 1_555
H21 C25 1_555 1_555
C8 C9 1_555 1_555
C9 C10 1_555 1_555
C12 C17 1_555 1_555
C16 C17 1_555 1_555
C24 C25 1_555 1_555

#END
