
#######################################################################
#
#                 Cambridge Crystallographic Data Centre
#                                CCDC 
#
#######################################################################
#
# If this CIF has been generated from an entry in the Cambridge 
# Structural Database, then it will include bibliographic, chemical, 
# crystal, experimental, refinement or atomic coordinate data resulting 
# from the CCDC's data processing and validation procedures.
#
#######################################################################

data_PUJMEN
_chemical_name_common            
2,2,7,7-Tetramethyl-2,3,6,7-tetrahydrobenzofuro[7,6-b]furan
_chemical_formula_moiety         'C14 H18 O2'
_chemical_name_systematic        
2,2,7,7-Tetramethyl-2,3,6,7-tetrahydrofuro[3,2-g][1]benzofuran
_symmetry_cell_setting           monoclinic
_symmetry_space_group_name_H-M   'P 21/n'
_symmetry_Int_Tables_number      14
_space_group_name_Hall           '-P 2yn'
loop_
_symmetry_equiv_pos_site_id
_symmetry_equiv_pos_as_xyz
1 x,y,z
2 1/2-x,1/2+y,1/2-z
3 -x,-y,-z
4 1/2+x,1/2-y,1/2+z
_cell_length_a                   8.7553(6)
_cell_length_b                   6.0721(4)
_cell_length_c                   23.2082(17)
_cell_angle_alpha                90
_cell_angle_beta                 92.186(1)
_cell_angle_gamma                90
_cell_volume                     1232.92
_exptl_crystal_colour            colorless
_exptl_crystal_description       block
_chemical_melting_point          '344.25 K'
_cell_formula_units_Z            4
_exptl_crystal_recrystallization_method 'ethyl acetate'
loop_
_atom_site_label
_atom_site_type_symbol
_atom_site_fract_x
_atom_site_fract_y
_atom_site_fract_z
C1 C -0.00729(15) 0.4208(2) 0.12566(5)
C2 C 0.10104(15) 0.2615(2) 0.13845(6)
C3 C 0.09122(16) 0.1360(2) 0.18790(6)
C4 C -0.02597(17) 0.1695(3) 0.22541(6)
H1 H -0.0320 0.0825 0.2593
C5 C -0.13474(16) 0.3316(3) 0.21305(6)
H2 H -0.2154 0.3568 0.2385
C6 C -0.12429(15) 0.4558(2) 0.16334(6)
C7 C -0.22006(17) 0.6411(3) 0.13820(6)
H3 H -0.1985 0.7813 0.1587
H4 H -0.3305 0.6076 0.1397
C8 C -0.16891(15) 0.6516(2) 0.07551(6)
C9 C -0.26730(18) 0.5101(3) 0.03545(7)
H5 H -0.2232 0.5065 -0.0027
H6 H -0.3707 0.5718 0.0322
H7 H -0.2719 0.3601 0.0509
C10 C -0.1533(2) 0.8823(3) 0.05219(8)
H8 H -0.0817 0.9660 0.0772
H9 H -0.2534 0.9549 0.0511
H10 H -0.1148 0.8758 0.0131
C11 C 0.21711(19) -0.0321(3) 0.18774(7)
H11 H 0.1756 -0.1821 0.1814
H12 H 0.2783 -0.0295 0.2245
C12 C 0.31387(17) 0.0417(3) 0.13672(7)
C13 C 0.3435(2) -0.1428(3) 0.09508(9)
H13 H 0.2458 -0.2021 0.0800
H14 H 0.4015 -0.2597 0.1151
H15 H 0.4022 -0.0865 0.0631
C14 C 0.4577(2) 0.1601(3) 0.15651(8)
H16 H 0.5094 0.2176 0.1229
H17 H 0.5258 0.0573 0.1775
H18 H 0.4317 0.2822 0.1819
O1 O -0.01419(11) 0.55235(18) 0.07800(4)
O2 O 0.21901(12) 0.2053(2) 0.10432(4)
loop_
_geom_bond_atom_site_label_1
_geom_bond_atom_site_label_2
_geom_bond_site_symmetry_1
_geom_bond_site_symmetry_2
C1 C2 1_555 1_555
C2 C3 1_555 1_555
C3 C4 1_555 1_555
C4 H1 1_555 1_555
C5 C4 1_555 1_555
H2 C5 1_555 1_555
C6 C1 1_555 1_555
C7 C6 1_555 1_555
H3 C7 1_555 1_555
H4 C7 1_555 1_555
C8 C7 1_555 1_555
C9 C8 1_555 1_555
H5 C9 1_555 1_555
H6 C9 1_555 1_555
H7 C9 1_555 1_555
C10 C8 1_555 1_555
H8 C10 1_555 1_555
H9 C10 1_555 1_555
H10 C10 1_555 1_555
C11 C3 1_555 1_555
H11 C11 1_555 1_555
H12 C11 1_555 1_555
C12 C11 1_555 1_555
C13 C12 1_555 1_555
H13 C13 1_555 1_555
H14 C13 1_555 1_555
H15 C13 1_555 1_555
C14 C12 1_555 1_555
H16 C14 1_555 1_555
H17 C14 1_555 1_555
H18 C14 1_555 1_555
O1 C1 1_555 1_555
O2 C2 1_555 1_555
C5 C6 1_555 1_555
C8 O1 1_555 1_555
C12 O2 1_555 1_555

#END
