
#######################################################################
#
#                 Cambridge Crystallographic Data Centre
#                                CCDC 
#
#######################################################################
#
# If this CIF has been generated from an entry in the Cambridge 
# Structural Database, then it will include bibliographic, chemical, 
# crystal, experimental, refinement or atomic coordinate data resulting 
# from the CCDC's data processing and validation procedures.
#
#######################################################################

data_PUJRUI
_chemical_formula_moiety         'C7 H7 N2 O1 1+,I1 1-'
_chemical_name_systematic        
'2-Oxo-2,3-dihydro-1H-imidazo[1,2-a]pyridinium iodide'
_symmetry_cell_setting           orthorhombic
_symmetry_space_group_name_H-M   'P n m a'
_symmetry_Int_Tables_number      62
_space_group_name_Hall           '-P 2ac 2n'
loop_
_symmetry_equiv_pos_site_id
_symmetry_equiv_pos_as_xyz
1 x,y,z
2 1/2-x,-y,1/2+z
3 -x,1/2+y,-z
4 1/2+x,1/2-y,1/2-z
5 -x,-y,-z
6 1/2+x,y,1/2-z
7 x,1/2-y,z
8 1/2-x,1/2+y,1/2+z
_cell_length_a                   14.597(2)
_cell_length_b                   8.2044(18)
_cell_length_c                   7.0926(15)
_cell_angle_alpha                90
_cell_angle_beta                 90
_cell_angle_gamma                90
_cell_volume                     849.407
_exptl_crystal_colour            red
_exptl_crystal_description       block
_cell_formula_units_Z            4
loop_
_atom_site_label
_atom_site_type_symbol
_atom_site_fract_x
_atom_site_fract_y
_atom_site_fract_z
C1 C 0.1109(3) 0.4178(7) 0.9883(8)
H1 H 0.1112 0.5311 0.9844
C2 C 0.0758(4) 0.3344(8) 1.1372(9)
H2 H 0.0517 0.3909 1.2395
O1 O 0.2504(5) 0.2500 0.4103(7)
C3 C 0.2120(6) 0.2500 0.5605(11)
N2 N 0.186(2) 0.3836(19) 0.666(3)
H5 H 0.1935 0.4830 0.6309
C5 C 0.146(4) 0.339(4) 0.831(5)
C1F C 0.1109(3) 0.0822(7) 0.9883(8)
H1F H 0.1112 -0.0311 0.9844
C2F C 0.0758(4) 0.1656(8) 1.1372(9)
H2F H 0.0517 0.1091 1.2395
N2F N 0.186(2) 0.1164(19) 0.666(3)
H5F H 0.1935 0.0170 0.6309
C5F C 0.146(4) 0.161(4) 0.831(5)
I1 I 0.41289(4) 0.2500 0.91066(7)
C4? C 0.184(3) 0.103(3) 0.674(4)
H3? H 0.1384 0.0386 0.6073
H4? H 0.2363 0.0342 0.7024
N1? N 0.146(4) 0.326(3) 0.846(4)
loop_
_geom_bond_atom_site_label_1
_geom_bond_atom_site_label_2
_geom_bond_site_symmetry_1
_geom_bond_site_symmetry_2
C1 H1 1_555 1_555
C2 C1 1_555 1_555
H2 C2 1_555 1_555
O1 C3 1_555 1_555
C3 N2 1_555 1_555
N2 H5 1_555 1_555
C5 C1 1_555 1_555
C1F H1F 1_555 1_555
C2F C2 1_555 1_555
H2F C2F 1_555 1_555
N2F C3 1_555 1_555
H5F N2F 1_555 1_555
C5F C5 1_555 1_555
N2 C5 1_555 1_555
C1F C2F 1_555 1_555
C1F C5F 1_555 1_555
N2F C5F 1_555 1_555

#END
