
#######################################################################
#
#                 Cambridge Crystallographic Data Centre
#                                CCDC 
#
#######################################################################
#
# If this CIF has been generated from an entry in the Cambridge 
# Structural Database, then it will include bibliographic, chemical, 
# crystal, experimental, refinement or atomic coordinate data resulting 
# from the CCDC's data processing and validation procedures.
#
#######################################################################

data_PUJSIY
_chemical_formula_moiety         'C33 H29 N3 S1'
_chemical_name_systematic        
4'-(4-(2-(4-(t-Butylsulfanyl)phenyl)vinyl)phenyl)-2,2':6',2''-terpyridine
_symmetry_cell_setting           monoclinic
_symmetry_space_group_name_H-M   'P 21/c'
_symmetry_Int_Tables_number      14
_space_group_name_Hall           '-P 2ybc'
loop_
_symmetry_equiv_pos_site_id
_symmetry_equiv_pos_as_xyz
1 x,y,z
2 -x,1/2+y,1/2-z
3 -x,-y,-z
4 x,1/2-y,1/2+z
_cell_length_a                   38.020(17)
_cell_length_b                   12.719(6)
_cell_length_c                   11.416(5)
_cell_angle_alpha                90
_cell_angle_beta                 96.376(7)
_cell_angle_gamma                90
_cell_volume                     5486.36
_cell_formula_units_Z            8
loop_
_atom_site_label
_atom_site_type_symbol
_atom_site_fract_x
_atom_site_fract_y
_atom_site_fract_z
N1 N 0.05407(10) 0.4292(3) 0.9427(3)
N2 N 0.10945(12) 0.6531(4) 0.9999(4)
N3 N 0.01285(11) 0.2011(4) 0.8041(3)
S1 S 0.22464(3) 0.42630(12) -0.22297(11)
C1 C 0.20159(13) 0.4169(4) -0.0975(4)
C2 C 0.17394(14) 0.3491(4) -0.0925(4)
H1 H 0.1672 0.3052 -0.1562
C3 C 0.15589(11) 0.3449(3) 0.0062(5)
H2 H 0.1375 0.2969 0.0086
C4 C 0.16455(13) 0.4100(4) 0.1003(4)
C5 C 0.19162(14) 0.4815(4) 0.0936(4)
H3 H 0.1976 0.5285 0.1550
C6 C 0.20988(11) 0.4831(4) -0.0051(5)
H4 H 0.2283 0.5307 -0.0081
C7 C 0.14512(11) 0.4018(3) 0.2057(4)
H5 H 0.1242 0.3630 0.1980
C8 C 0.15468(11) 0.4438(3) 0.3072(4)
H6 H 0.1757 0.4818 0.3140
C9 C 0.13618(14) 0.4385(3) 0.4128(4)
C10 C 0.10161(13) 0.4004(3) 0.4147(4)
H7 H 0.0890 0.3774 0.3450
C11 C 0.08584(11) 0.3965(3) 0.5189(4)
H8 H 0.0630 0.3701 0.5180
C12 C 0.10365(13) 0.4311(3) 0.6235(4)
C13 C 0.13762(13) 0.4680(3) 0.6207(4)
H9 H 0.1502 0.4920 0.6902
C14 C 0.15346(12) 0.4705(3) 0.5190(5)
H10 H 0.1766 0.4946 0.5217
C15 C 0.11850(15) 0.7218(5) 1.0851(6)
H11 H 0.1334 0.7768 1.0699
C16 C 0.10709(19) 0.7160(5) 1.1944(6)
H12 H 0.1149 0.7643 1.2527
C17 C 0.08435(16) 0.6388(5) 1.2158(5)
H13 H 0.0756 0.6335 1.2885
C18 C 0.07452(11) 0.5688(4) 1.1279(5)
H14 H 0.0587 0.5152 1.1406
C19 C 0.08763(13) 0.5764(4) 1.0206(4)
C20 C 0.07884(12) 0.5001(4) 0.9242(4)
C21 C 0.09503(10) 0.5026(3) 0.8222(4)
H15 H 0.1118 0.5542 0.8123
C22 C 0.08659(10) 0.4293(4) 0.7347(4)
C23 C 0.06091(11) 0.3542(3) 0.7540(4)
H16 H 0.0542 0.3031 0.6976
C24 C 0.04551(11) 0.3576(4) 0.8597(4)
C25 C 0.01916(12) 0.2764(4) 0.8831(5)
C26 C 0.00305(12) 0.2812(4) 0.9852(4)
H17 H 0.0079 0.3364 1.0379
C27 C -0.02018(14) 0.2037(6) 1.0081(5)
H18 H -0.0308 0.2043 1.0776
C28 C -0.02733(14) 0.1263(5) 0.9283(6)
H19 H -0.0433 0.0732 0.9405
C29 C -0.01041(16) 0.1285(5) 0.8293(5)
H20 H -0.0155 0.0748 0.7748
C30 C 0.25756(13) 0.3181(5) -0.2030(5)
C31 C 0.2428(5) 0.2074(16) -0.167(3)
H21 H 0.2207 0.1938 -0.2137
H22 H 0.2394 0.2079 -0.0854
H23 H 0.2595 0.1535 -0.1817
C32 C 0.27970(14) 0.3375(5) -0.3040(4)
H24 H 0.2870 0.2714 -0.3338
H25 H 0.3002 0.3782 -0.2761
H26 H 0.2659 0.3752 -0.3657
C33 C 0.28100(12) 0.3368(4) -0.0929(4)
H27 H 0.2670 0.3431 -0.0283
H28 H 0.2941 0.4004 -0.1001
H29 H 0.2971 0.2789 -0.0788
N4 N 0.30493(13) 0.5160(4) 1.3355(3)
N5 N 0.37329(14) 0.3226(4) 1.3200(4)
N6 N 0.23855(15) 0.7102(4) 1.2517(4)
S2 S 0.45426(4) 0.57939(15) 0.14420(13)
C35 C 0.43660(16) 0.5809(5) 0.2794(5)
C36 C 0.40936(15) 0.6450(4) 0.2979(5)
H33 H 0.4000 0.6900 0.2382
C37 C 0.39522(12) 0.6443(4) 0.4054(5)
H34 H 0.3766 0.6893 0.4168
C38 C 0.40838(15) 0.5784(4) 0.4949(5)
C39 C 0.43581(15) 0.5125(4) 0.4727(5)
H35 H 0.4452 0.4664 0.5314
C40 C 0.44963(14) 0.5132(4) 0.3664(6)
H36 H 0.4679 0.4674 0.3537
C41 C 0.39411(13) 0.5754(3) 0.6098(4)
H37 H 0.4071 0.5350 0.6671
C42 C 0.36572(13) 0.6212(3) 0.6445(4)
H38 H 0.3520 0.6631 0.5905
C43 C 0.35464(15) 0.6097(3) 0.7632(4)
C44 C 0.32108(13) 0.6341(3) 0.7884(4)
H39 H 0.3049 0.6615 0.7292
C45 C 0.31074(12) 0.6189(3) 0.9002(5)
H40 H 0.2879 0.6372 0.9138
C46 C 0.33303(13) 0.5780(3) 0.9906(4)
C47 C 0.36729(14) 0.5595(3) 0.9664(4)
H41 H 0.3839 0.5366 1.0270
C48 C 0.37776(12) 0.5738(4) 0.8560(5)
H42 H 0.4010 0.5589 0.8437
C49 C 0.39163(16) 0.2529(5) 1.3892(6)
H43 H 0.4075 0.2097 1.3557
C50 C 0.38844(18) 0.2412(5) 1.5071(7)
H44 H 0.4018 0.1912 1.5517
C51 C 0.36574(19) 0.3028(6) 1.5567(5)
H45 H 0.3632 0.2970 1.6365
C52 C 0.34620(13) 0.3752(4) 1.4869(6)
H46 H 0.3300 0.4179 1.5195
C53 C 0.35058(15) 0.3847(5) 1.3690(5)
C54 C 0.33076(15) 0.4646(4) 1.2903(5)
C55 C 0.33959(11) 0.4815(4) 1.1788(4)
H47 H 0.3572 0.4412 1.1502
C56 C 0.32223(14) 0.5591(4) 1.1081(4)
C57 C 0.29516(12) 0.6096(3) 1.1543(4)
H48 H 0.2819 0.6591 1.1088
C58 C 0.28719(15) 0.5887(4) 1.2663(5)
C59 C 0.25756(15) 0.6415(5) 1.3188(6)
C60 C 0.25201(15) 0.6210(4) 1.4337(6)
H49 H 0.2660 0.5726 1.4784
C61 C 0.2256(2) 0.6731(6) 1.4804(6)
H50 H 0.2214 0.6609 1.5580
C62 C 0.20581(18) 0.7421(5) 1.4134(7)
H51 H 0.1875 0.7782 1.4435
C63 C 0.21288(16) 0.7585(4) 1.2998(6)
H52 H 0.1989 0.8062 1.2539
C64 C 0.49333(18) 0.6720(7) 0.1619(7)
C65 C 0.48021(18) 0.7754(6) 0.2011(7)
H53 H 0.5000 0.8206 0.2241
H54 H 0.4669 0.7648 0.2669
H55 H 0.4653 0.8072 0.1374
C66 C 0.5199(3) 0.6472(15) 0.2622(11)
H56 H 0.5405 0.6901 0.2582
H57 H 0.5264 0.5744 0.2591
H58 H 0.5101 0.6610 0.3347
C67 C 0.5067(3) 0.6644(18) 0.0392(11)
H59 H 0.4868 0.6576 -0.0201
H60 H 0.5218 0.6040 0.0368
H61 H 0.5197 0.7267 0.0246
C34? C 0.2402(5) 0.2259(16) -0.249(3)
H30? H 0.2313 0.1876 -0.1861
H31? H 0.2567 0.1828 -0.2850
H32? H 0.2210 0.2449 -0.3066
C68? C 0.5249(8) 0.582(3) 0.201(4)
H62? H 0.5475 0.6161 0.2146
H63? H 0.5254 0.5311 0.1391
H64? H 0.5199 0.5471 0.2719
C69? C 0.4974(10) 0.735(3) 0.049(3)
H65? H 0.4899 0.6926 -0.0185
H66? H 0.5217 0.7544 0.0481
H67? H 0.4831 0.7972 0.0479
loop_
_geom_bond_atom_site_label_1
_geom_bond_atom_site_label_2
_geom_bond_site_symmetry_1
_geom_bond_site_symmetry_2
N1 C20 1_555 1_555
N2 C15 1_555 1_555
N3 C25 1_555 1_555
S1 C1 1_555 1_555
C1 C2 1_555 1_555
C2 H1 1_555 1_555
C3 C2 1_555 1_555
H2 C3 1_555 1_555
C4 C3 1_555 1_555
C5 C4 1_555 1_555
H3 C5 1_555 1_555
C6 C1 1_555 1_555
H4 C6 1_555 1_555
C7 C4 1_555 1_555
H5 C7 1_555 1_555
C8 C7 1_555 1_555
H6 C8 1_555 1_555
C9 C8 1_555 1_555
C10 C9 1_555 1_555
H7 C10 1_555 1_555
C11 C10 1_555 1_555
H8 C11 1_555 1_555
C12 C11 1_555 1_555
C13 C12 1_555 1_555
H9 C13 1_555 1_555
C14 C9 1_555 1_555
H10 C14 1_555 1_555
C15 H11 1_555 1_555
C16 C15 1_555 1_555
H12 C16 1_555 1_555
C17 C16 1_555 1_555
H13 C17 1_555 1_555
C18 C17 1_555 1_555
H14 C18 1_555 1_555
C19 N2 1_555 1_555
C20 C19 1_555 1_555
C21 C20 1_555 1_555
H15 C21 1_555 1_555
C22 C12 1_555 1_555
C23 C22 1_555 1_555
H16 C23 1_555 1_555
C24 N1 1_555 1_555
C25 C24 1_555 1_555
C26 C25 1_555 1_555
H17 C26 1_555 1_555
C27 C26 1_555 1_555
H18 C27 1_555 1_555
C28 C27 1_555 1_555
H19 C28 1_555 1_555
C29 N3 1_555 1_555
H20 C29 1_555 1_555
C30 S1 1_555 1_555
C31 C30 1_555 1_555
H21 C31 1_555 1_555
H22 C31 1_555 1_555
H23 C31 1_555 1_555
C32 C30 1_555 1_555
H24 C32 1_555 1_555
H25 C32 1_555 1_555
H26 C32 1_555 1_555
C33 C30 1_555 1_555
H27 C33 1_555 1_555
H28 C33 1_555 1_555
H29 C33 1_555 1_555
N4 C54 1_555 1_555
N5 C49 1_555 1_555
N6 C59 1_555 1_555
S2 C35 1_555 1_555
C35 C36 1_555 1_555
C36 H33 1_555 1_555
C37 C36 1_555 1_555
H34 C37 1_555 1_555
C38 C37 1_555 1_555
C39 C38 1_555 1_555
H35 C39 1_555 1_555
C40 C35 1_555 1_555
H36 C40 1_555 1_555
C41 C38 1_555 1_555
H37 C41 1_555 1_555
C42 C41 1_555 1_555
H38 C42 1_555 1_555
C43 C42 1_555 1_555
C44 C43 1_555 1_555
H39 C44 1_555 1_555
C45 C44 1_555 1_555
H40 C45 1_555 1_555
C46 C45 1_555 1_555
C47 C46 1_555 1_555
H41 C47 1_555 1_555
C48 C43 1_555 1_555
H42 C48 1_555 1_555
C49 H43 1_555 1_555
C50 C49 1_555 1_555
H44 C50 1_555 1_555
C51 C50 1_555 1_555
H45 C51 1_555 1_555
C52 C51 1_555 1_555
H46 C52 1_555 1_555
C53 N5 1_555 1_555
C54 C53 1_555 1_555
C55 C54 1_555 1_555
H47 C55 1_555 1_555
C56 C46 1_555 1_555
C57 C56 1_555 1_555
H48 C57 1_555 1_555
C58 N4 1_555 1_555
C59 C58 1_555 1_555
C60 C59 1_555 1_555
H49 C60 1_555 1_555
C61 C60 1_555 1_555
H50 C61 1_555 1_555
C62 C61 1_555 1_555
H51 C62 1_555 1_555
C63 N6 1_555 1_555
H52 C63 1_555 1_555
C64 S2 1_555 1_555
C65 C64 1_555 1_555
H53 C65 1_555 1_555
H54 C65 1_555 1_555
H55 C65 1_555 1_555
C66 C64 1_555 1_555
H56 C66 1_555 1_555
H57 C66 1_555 1_555
H58 C66 1_555 1_555
C67 C64 1_555 1_555
H59 C67 1_555 1_555
H60 C67 1_555 1_555
H61 C67 1_555 1_555
C5 C6 1_555 1_555
C13 C14 1_555 1_555
C18 C19 1_555 1_555
C21 C22 1_555 1_555
C23 C24 1_555 1_555
C28 C29 1_555 1_555
C39 C40 1_555 1_555
C47 C48 1_555 1_555
C52 C53 1_555 1_555
C55 C56 1_555 1_555
C57 C58 1_555 1_555
C62 C63 1_555 1_555

#END
