
#######################################################################
#
#                 Cambridge Crystallographic Data Centre
#                                CCDC 
#
#######################################################################
#
# If this CIF has been generated from an entry in the Cambridge 
# Structural Database, then it will include bibliographic, chemical, 
# crystal, experimental, refinement or atomic coordinate data resulting 
# from the CCDC's data processing and validation procedures.
#
#######################################################################

data_PUJVIZ
_chemical_formula_moiety         'C9 H14 N2 O4 S1'
_chemical_name_systematic        
'Methyl 5-(ethoxycarbonylhydrazono) tetrahydrothiophene-3-carboxylate'
_symmetry_cell_setting           triclinic
_symmetry_space_group_name_H-M   'P -1'
_symmetry_Int_Tables_number      2
_space_group_name_Hall           '-P 1'
loop_
_symmetry_equiv_pos_site_id
_symmetry_equiv_pos_as_xyz
1 x,y,z
2 -x,-y,-z
_cell_length_a                   7.142(1)
_cell_length_b                   9.721(2)
_cell_length_c                   10.066(2)
_cell_angle_alpha                90.96(3)
_cell_angle_beta                 110.51(3)
_cell_angle_gamma                111.43(3)
_cell_volume                     600.845
_exptl_crystal_colour            colorless
_exptl_crystal_description       plate-shaped
_chemical_melting_point          88-91deg.C
_cell_formula_units_Z            2
_exptl_crystal_recrystallization_method 'isopropyl alcohol'
loop_
_atom_site_label
_atom_site_type_symbol
_atom_site_fract_x
_atom_site_fract_y
_atom_site_fract_z
O1 O -0.1905(5) -0.7602(2) 0.3802(3)
O2 O -0.1001(5) -0.026(2) -0.1806(3)
O3 O -0.2811(4) -0.2563(2) -0.3073(2)
N1 N -0.2254(4) -0.3773(2) -0.0732(3)
N2 N -0.1439(5) -0.2241(3) -0.0670(3)
H1 H -0.0725(5) -0.1677(3) 0.0159(3)
C1 C -0.1887(5) -0.4241(3) 0.0454(3)
C2 C -0.2678(5) -0.5889(3) 0.0555(3)
H2 H -0.1770(5) -0.6328(3) 0.0346(3)
H3 H -0.4169(5) -0.6421(3) -0.0118(3)
C3 C -0.2437(6) -0.7465(3) 0.2597(4)
C4 C -0.1715(6) -0.1595(3) -0.1856(4)
C5 C -0.3123(9) -0.1910(4) -0.4392(4)
H6 H -0.3902(8) -0.1271(4) -0.4415(4)
H7 H -0.1720(8) -0.1304(4) -0.4420(4)
C6 C -0.4321(10) -0.3073(6) -0.5594(5)
H8 H -0.4528(10) -0.2649(6) -0.6462(5)
H9 H -0.5712(10) -0.3665(6) -0.5566(5)
H10 H -0.3536(10) -0.3697(6) -0.5571(5)
S1 S -0.0002(6) -0.3152(5) 0.2141(5)
O4 O -0.307(21) -0.8592(17) 0.1578(18)
C7 C -0.2521(16) -0.5967(10) 0.2101(11)
H11 H -0.3669(16) -0.5754(10) 0.2265(11)
C8 C -0.0247(16) -0.4780(11) 0.3006(12)
H12 H 0.0871(16) -0.5129(11) 0.3024(12)
H13 H -0.0110(16) -0.4552(11) 0.3986(12)
C9 C -0.3699(23) -1.0150(12) 0.1921(15)
H14 H -0.4118(23) -1.0848(12) 0.1080(15)
H15 H -0.4900(23) -1.0380(12) 0.2222(15)
H16 H -0.2485(23) -1.0220(12) 0.2680(15)
H4? H -0.2400(5) -0.6435(3) -0.0120(3)
H5? H -0.4228(5) -0.6308(3) 0.0348(3)
S2? S -0.0984(6) -0.3143(5) 0.2151(5)
O5? O -0.4060(21) -0.8606(19) 0.1544(21)
C10? C -0.1370(18) -0.5983(11) 0.2130(11)
H17? H -0.0130(18) -0.5809(11) 0.2264(11)
C11? C -0.1404(18) -0.4752(11) 0.3052(11)
H18? H -0.0258(18) -0.4510(11) 0.4000(11)
H19? H -0.2792(18) -0.5069(11) 0.3157(11)
C12? C -0.4535(18) -1.0042(11) 0.1945(11)
H20? H -0.5688(18) -1.0778(11) 0.1148(11)
H21? H -0.4979(18) -1.0060(11) 0.2743(11)
H22? H -0.3260(18) -1.0264(11) 0.2217(11)
loop_
_geom_bond_atom_site_label_1
_geom_bond_atom_site_label_2
_geom_bond_site_symmetry_1
_geom_bond_site_symmetry_2
O1 C3 1_555 1_555
O2 C4 1_555 1_555
O3 C4 1_555 1_555
N1 N2 1_555 1_555
N2 H1 1_555 1_555
C1 N1 1_555 1_555
C2 C1 1_555 1_555
H2 C2 1_555 1_555
H3 C2 1_555 1_555
C3 O4 1_555 1_555
C4 N2 1_555 1_555
C5 O3 1_555 1_555
H6 C5 1_555 1_555
H7 C5 1_555 1_555
C6 C5 1_555 1_555
H8 C6 1_555 1_555
H9 C6 1_555 1_555
H10 C6 1_555 1_555
S1 C1 1_555 1_555
O4 C9 1_555 1_555
C7 C2 1_555 1_555
H11 C7 1_555 1_555
C8 S1 1_555 1_555
H12 C8 1_555 1_555
H13 C8 1_555 1_555
C9 H14 1_555 1_555
H15 C9 1_555 1_555
H16 C9 1_555 1_555
C3 C7 1_555 1_555
C7 C8 1_555 1_555

#END
