
#######################################################################
#
#                 Cambridge Crystallographic Data Centre
#                                CCDC 
#
#######################################################################
#
# If this CIF has been generated from an entry in the Cambridge 
# Structural Database, then it will include bibliographic, chemical, 
# crystal, experimental, refinement or atomic coordinate data resulting 
# from the CCDC's data processing and validation procedures.
#
#######################################################################

data_PUJVUM
_chemical_formula_moiety         'C20 H22 N2 O5'
_chemical_name_systematic        
'Isobutyl methyl 2,6-dimethyl-4-(2-nitrosophenyl)pyridine-3,5-dicarboxylate'
_symmetry_cell_setting           triclinic
_symmetry_space_group_name_H-M   'P -1'
_symmetry_Int_Tables_number      2
_space_group_name_Hall           '-P 1'
loop_
_symmetry_equiv_pos_site_id
_symmetry_equiv_pos_as_xyz
1 x,y,z
2 -x,-y,-z
_cell_length_a                   7.1831(4)
_cell_length_b                   9.7819(6)
_cell_length_c                   15.0245(9)
_cell_angle_alpha                89.488(3)
_cell_angle_beta                 81.201(3)
_cell_angle_gamma                70.625(3)
_cell_volume                     983.19
_exptl_crystal_colour            colorless
_exptl_crystal_description       block
_cell_formula_units_Z            2
_exptl_crystal_recrystallization_method ethanol
loop_
_atom_site_label
_atom_site_type_symbol
_atom_site_fract_x
_atom_site_fract_y
_atom_site_fract_z
C1 C 0.6145(4) 0.4193(3) 0.3529(2)
C2 C 0.7137(5) 0.5026(4) 0.3888(2)
H1 H 0.6424 0.5893 0.4215
C3 C 0.9183(5) 0.4525(4) 0.3742(2)
H2 H 0.9872 0.5068 0.3963
C4 C 1.0230(5) 0.3236(4) 0.3276(2)
H3 H 1.1620 0.2908 0.3190
C5 C 0.9240(4) 0.2413(4) 0.2931(2)
H4 H 0.9969 0.1538 0.2615
C6 C 0.7173(4) 0.2887(3) 0.30541(18)
C7 C 0.6111(4) 0.2014(3) 0.26614(18)
C8 C 0.5973(4) 0.0750(3) 0.30544(19)
C9 C 0.5000(5) -0.0045(3) 0.2660(2)
C10 C 0.4346(5) 0.1561(4) 0.1519(2)
C11 C 0.5245(5) 0.2442(3) 0.1897(2)
C12 C 0.6737(4) 0.0337(3) 0.3918(2)
C13 C 0.8802(7) -0.1539(4) 0.4692(3)
H5 H 0.8912 -0.0762 0.5043
H6 H 1.0089 -0.2278 0.4550
H7 H 0.7878 -0.1942 0.5030
C14 C 0.4632(7) -0.1378(4) 0.3078(3)
H8 H 0.3521 -0.1524 0.2859
H9 H 0.4338 -0.1233 0.3722
H10 H 0.5803 -0.2214 0.2915
C15 C 0.3426(7) 0.1944(5) 0.0689(3)
H11 H 0.3202 0.1112 0.0453
H12 H 0.4307 0.2246 0.0246
H13 H 0.2174 0.2720 0.0831
C16 C 0.5224(5) 0.3875(4) 0.1491(2)
C17 C 0.3105(6) 0.6240(4) 0.1237(3)
H14 H 0.3503 0.6115 0.0589
H15 H 0.3922 0.6714 0.1479
C18 C 0.0950(7) 0.7135(4) 0.1464(3)
H16 H 0.0635 0.7300 0.2120
C19 C -0.0422(8) 0.6433(6) 0.1188(4)
H17 H -0.0070 0.6179 0.0554
H18 H -0.1771 0.7092 0.1313
H19 H -0.0314 0.5573 0.1519
C20 C 0.0630(9) 0.8621(5) 0.1047(4)
H20 H 0.1012 0.8489 0.0404
H21 H 0.1431 0.9096 0.1287
H22 H -0.0755 0.9207 0.1188
N1 N 0.4005(4) 0.4598(3) 0.36627(18)
N2 N 0.4221(4) 0.0355(3) 0.19043(18)
O1 O 0.3121(4) 0.5800(3) 0.4003(2)
O2 O 0.3373(4) 0.4833(3) 0.16329(17)
O3 O 0.6613(4) 0.4107(3) 0.1127(2)
O4 O 0.6244(4) 0.1108(2) 0.45823(15)
O5 O 0.8089(4) -0.0987(2) 0.38649(16)
loop_
_geom_bond_atom_site_label_1
_geom_bond_atom_site_label_2
_geom_bond_site_symmetry_1
_geom_bond_site_symmetry_2
C1 C2 1_555 1_555
C2 H1 1_555 1_555
C3 C2 1_555 1_555
H2 C3 1_555 1_555
C4 C3 1_555 1_555
H3 C4 1_555 1_555
C5 C4 1_555 1_555
H4 C5 1_555 1_555
C6 C1 1_555 1_555
C7 C6 1_555 1_555
C8 C7 1_555 1_555
C9 C8 1_555 1_555
C10 C11 1_555 1_555
C11 C7 1_555 1_555
C12 C8 1_555 1_555
C13 H5 1_555 1_555
H6 C13 1_555 1_555
H7 C13 1_555 1_555
C14 C9 1_555 1_555
H8 C14 1_555 1_555
H9 C14 1_555 1_555
H10 C14 1_555 1_555
C15 C10 1_555 1_555
H11 C15 1_555 1_555
H12 C15 1_555 1_555
H13 C15 1_555 1_555
C16 C11 1_555 1_555
C17 H14 1_555 1_555
H15 C17 1_555 1_555
C18 C17 1_555 1_555
H16 C18 1_555 1_555
C19 C18 1_555 1_555
H17 C19 1_555 1_555
H18 C19 1_555 1_555
H19 C19 1_555 1_555
C20 C18 1_555 1_555
H20 C20 1_555 1_555
H21 C20 1_555 1_555
H22 C20 1_555 1_555
N1 C1 1_555 1_555
N2 C9 1_555 1_555
O1 N1 1_555 1_555
O2 C16 1_555 1_555
O3 C16 1_555 1_555
O4 C12 1_555 1_555
O5 C12 1_555 1_555
C5 C6 1_555 1_555
C10 N2 1_555 1_555
C13 O5 1_555 1_555
C17 O2 1_555 1_555

#END
