
#######################################################################
#
#                 Cambridge Crystallographic Data Centre
#                                CCDC 
#
#######################################################################
#
# If this CIF has been generated from an entry in the Cambridge 
# Structural Database, then it will include bibliographic, chemical, 
# crystal, experimental, refinement or atomic coordinate data resulting 
# from the CCDC's data processing and validation procedures.
#
#######################################################################

data_PUKBIH
_chemical_formula_moiety         'C8 H18 O2 S2'
_chemical_name_systematic        
meso-1-([2-(Propyl-1-sulfinyl)ethyl]sulfinyl)propane
_symmetry_cell_setting           monoclinic
_symmetry_space_group_name_H-M   'P 21/c'
_symmetry_Int_Tables_number      14
_space_group_name_Hall           '-P 2ybc'
loop_
_symmetry_equiv_pos_site_id
_symmetry_equiv_pos_as_xyz
1 x,y,z
2 -x,1/2+y,1/2-z
3 -x,-y,-z
4 x,1/2-y,1/2+z
_cell_length_a                   11.9794(9)
_cell_length_b                   5.2190(3)
_cell_length_c                   8.7618(5)
_cell_angle_alpha                90
_cell_angle_beta                 97.191(5)
_cell_angle_gamma                90
_cell_volume                     543.483
_exptl_crystal_colour            colorless
_exptl_crystal_description       plate
_chemical_melting_point          '434-435 K'
_cell_formula_units_Z            2
loop_
_atom_site_label
_atom_site_type_symbol
_atom_site_fract_x
_atom_site_fract_y
_atom_site_fract_z
S1 S 0.66819(3) -0.09909(6) 0.45405(4)
O1 O 0.64458(10) -0.37397(19) 0.40786(13)
C1 C 0.72083(12) 0.0560(3) 0.29375(16)
H1 H 0.6705 0.0192 0.1978
H2 H 0.7228 0.2438 0.3097
C2 C 0.83896(12) -0.0425(3) 0.27975(17)
H3 H 0.8363 -0.2305 0.2646
H4 H 0.8885 -0.0065 0.3765
C3 C 0.88818(14) 0.0828(3) 0.14553(19)
H5 H 0.8398 0.0455 0.0494
H6 H 0.9638 0.0147 0.1397
H7 H 0.8925 0.2686 0.1614
C4 C 0.53341(12) 0.0583(3) 0.44006(15)
H8 H 0.5438 0.2443 0.4589
H9 H 0.4924 0.0343 0.3358
S1B S 0.33181(3) 0.09909(6) 0.54595(4)
O1B O 0.35542(10) 0.37397(19) 0.59214(13)
C1B C 0.27917(12) -0.0560(3) 0.70625(16)
H1B H 0.3295 -0.0192 0.8022
H2B H 0.2772 -0.2438 0.6903
C2B C 0.16104(12) 0.0425(3) 0.72025(17)
H3B H 0.1637 0.2305 0.7354
H4B H 0.1115 0.0065 0.6235
C3B C 0.11182(14) -0.0828(3) 0.85447(19)
H5B H 0.1602 -0.0455 0.9506
H6B H 0.0362 -0.0147 0.8603
H7B H 0.1075 -0.2686 0.8386
C4B C 0.46659(12) -0.0583(3) 0.55994(15)
H8B H 0.4562 -0.2443 0.5411
H9B H 0.5076 -0.0343 0.6642
loop_
_geom_bond_atom_site_label_1
_geom_bond_atom_site_label_2
_geom_bond_site_symmetry_1
_geom_bond_site_symmetry_2
S1 O1 1_555 1_555
C1 S1 1_555 1_555
H1 C1 1_555 1_555
H2 C1 1_555 1_555
C2 C1 1_555 1_555
H3 C2 1_555 1_555
H4 C2 1_555 1_555
C3 C2 1_555 1_555
H5 C3 1_555 1_555
H6 C3 1_555 1_555
H7 C3 1_555 1_555
C4 S1 1_555 1_555
H8 C4 1_555 1_555
H9 C4 1_555 1_555
S1B O1B 1_555 1_555
C1B S1B 1_555 1_555
H1B C1B 1_555 1_555
H2B C1B 1_555 1_555
C2B C1B 1_555 1_555
H3B C2B 1_555 1_555
H4B C2B 1_555 1_555
C3B C2B 1_555 1_555
H5B C3B 1_555 1_555
H6B C3B 1_555 1_555
H7B C3B 1_555 1_555
C4B C4 1_555 1_555
H8B C4B 1_555 1_555
H9B C4B 1_555 1_555
S1B C4B 1_555 1_555

#END
