
#######################################################################
#
#                 Cambridge Crystallographic Data Centre
#                                CCDC 
#
#######################################################################
#
# If this CIF has been generated from an entry in the Cambridge 
# Structural Database, then it will include bibliographic, chemical, 
# crystal, experimental, refinement or atomic coordinate data resulting 
# from the CCDC's data processing and validation procedures.
#
#######################################################################

data_PUKCOP
_chemical_compound_source        'Carpesium abrotanoides L.'
_chemical_formula_moiety         'C30 H44 O6,H2 O1'
_chemical_name_systematic        
"5,7'-bis(3-Hydroxybutyl)-5a,7a'-dimethyl-3'-methylenetetradecahydro-3aH-spiro[cyclopropa[f][1]benzofuran-3,5'-indeno[5,6-b]furan]-2,2'(3'H)-dione monohydrate"
_chemical_properties_biological  'antimycobacterial activity'
_symmetry_cell_setting           orthorhombic
_symmetry_space_group_name_H-M   'P 21 21 21'
_symmetry_Int_Tables_number      19
_space_group_name_Hall           'P 2ac 2ab'
loop_
_symmetry_equiv_pos_site_id
_symmetry_equiv_pos_as_xyz
1 x,y,z
2 1/2-x,-y,1/2+z
3 1/2+x,1/2-y,-z
4 -x,1/2+y,1/2-z
_cell_length_a                   6.5860(5)
_cell_length_b                   12.9505(11)
_cell_length_c                   35.575(3)
_cell_angle_alpha                90
_cell_angle_beta                 90
_cell_angle_gamma                90
_cell_volume                     3034.26
_cell_formula_units_Z            4
loop_
_atom_site_label
_atom_site_type_symbol
_atom_site_fract_x
_atom_site_fract_y
_atom_site_fract_z
O1 O -0.0857(8) 0.1207(3) 0.31893(14)
O2 O -0.3357(8) 0.2357(4) 0.31205(15)
O3 O 0.6149(8) 0.4268(4) 0.23885(14)
O4 O 0.7937(9) 0.3179(4) 0.20226(14)
O5 O 0.1784(9) -0.0450(4) 0.52733(16)
H1 H 0.1386 -0.0842 0.5108
O6 O -0.0016(9) 0.6733(4) 0.45977(14)
H2 H -0.0995 0.6376 0.4656
C1 C -0.1614(14) 0.2180(6) 0.3195(2)
C2 C 0.0099(12) 0.2963(5) 0.3281(2)
C3 C 0.1762(12) 0.2282(5) 0.3462(2)
H3 H 0.3104 0.2499 0.3374
C4 C 0.1274(12) 0.1192(5) 0.3314(2)
H4 H 0.2153 0.1037 0.3099
C5 C 0.1435(12) 0.0325(5) 0.3600(2)
H5 H 0.0195 0.0303 0.3747
H6 H 0.1556 -0.0327 0.3468
C6 C 0.3218(14) 0.0445(6) 0.3862(2)
C7 C 0.3307(13) 0.1520(5) 0.4039(2)
H7 H 0.4674 0.1807 0.4070
C8 C 0.1716(12) 0.2273(5) 0.38900(19)
H8 H 0.0379 0.2067 0.3976
H9 H 0.1991 0.2961 0.3985
C9 C -0.0620(11) 0.3895(5) 0.35130(19)
H10 H -0.0757 0.3726 0.3777
H11 H -0.1895 0.4170 0.3420
C10 C 0.1221(12) 0.4671(5) 0.3439(2)
H12 H 0.2443 0.4394 0.3560
C11 C 0.1487(12) 0.4602(5) 0.3008(2)
C12 C 0.0691(11) 0.3500(5) 0.29026(19)
H13 H -0.0583 0.3607 0.2766
C13 C 0.2087(11) 0.2909(5) 0.26356(19)
H14 H 0.1373 0.2317 0.2534
H15 H 0.3264 0.2660 0.2772
C14 C 0.2783(11) 0.3626(5) 0.2310(2)
H16 H 0.1600 0.3877 0.2170
C15 C 0.3997(11) 0.4542(5) 0.2467(2)
H17 H 0.3630 0.5178 0.2334
C16 C 0.3755(11) 0.4696(5) 0.28974(19)
H18 H 0.4541 0.4178 0.3030
H19 H 0.4263 0.5371 0.2968
C17 C 0.6251(14) 0.3484(6) 0.2144(2)
C18 C 0.4210(12) 0.3105(6) 0.2052(2)
C19 C 0.3865(14) 0.2457(5) 0.1779(2)
H20 H 0.4936 0.2215 0.1633
H21 H 0.2547 0.2235 0.1731
C20 C 0.2833(13) 0.0587(5) 0.4282(2)
H22 H 0.1391 0.0537 0.4348
C21 C 0.4200(13) 0.0251(6) 0.4594(2)
H23 H 0.5601 0.0365 0.4521
H24 H 0.4020 -0.0483 0.4638
C22 C 0.3756(15) 0.0841(6) 0.4957(2)
H25 H 0.4822 0.0691 0.5137
H26 H 0.3807 0.1575 0.4904
C23 C 0.1738(16) 0.0598(6) 0.5136(3)
H27 H 0.0657 0.0670 0.4948
C24 C 0.1276(19) 0.1306(7) 0.5477(2)
H28 H 0.2014 0.1066 0.5692
H29 H -0.0153 0.1290 0.5530
H30 H 0.1679 0.2001 0.5419
C25 C 0.5231(12) -0.0055(6) 0.3730(2)
H31 H 0.5094 -0.0793 0.3733
H32 H 0.6309 0.0145 0.3897
H33 H 0.5540 0.0173 0.3480
C26 C 0.0780(13) 0.5737(5) 0.3601(2)
H34 H 0.1736 0.6228 0.3496
H35 H -0.0573 0.5947 0.3525
C27 C 0.0917(13) 0.5778(5) 0.4028(2)
H36 H 0.2323 0.5690 0.4103
H37 H 0.0143 0.5211 0.4134
C28 C 0.0119(15) 0.6796(6) 0.4190(2)
H38 H -0.1231 0.6937 0.4087
C29 C 0.1480(17) 0.7688(6) 0.4111(3)
H39 H 0.2834 0.7526 0.4192
H40 H 0.1002 0.8284 0.4245
H41 H 0.1481 0.7829 0.3847
C30 C 0.0272(10) 0.5446(5) 0.27980(18)
H42 H 0.0901 0.6106 0.2838
H43 H -0.1095 0.5463 0.2891
H44 H 0.0257 0.5294 0.2534
O7 O 0.3626(9) 0.6426(4) 0.50314(17)
H45 H 0.2549 0.6542 0.4907
H46 H 0.3991 0.6985 0.5137
loop_
_geom_bond_atom_site_label_1
_geom_bond_atom_site_label_2
_geom_bond_site_symmetry_1
_geom_bond_site_symmetry_2
O1 C1 1_555 1_555
O2 C1 1_555 1_555
O3 C15 1_555 1_555
O4 C17 1_555 1_555
O5 H1 1_555 1_555
O6 H2 1_555 1_555
C1 C2 1_555 1_555
C2 C3 1_555 1_555
C3 H3 1_555 1_555
C4 O1 1_555 1_555
H4 C4 1_555 1_555
C5 C4 1_555 1_555
H5 C5 1_555 1_555
H6 C5 1_555 1_555
C6 C5 1_555 1_555
C7 C6 1_555 1_555
H7 C7 1_555 1_555
C8 C3 1_555 1_555
H8 C8 1_555 1_555
H9 C8 1_555 1_555
C9 C2 1_555 1_555
H10 C9 1_555 1_555
H11 C9 1_555 1_555
C10 C9 1_555 1_555
H12 C10 1_555 1_555
C11 C10 1_555 1_555
C12 C2 1_555 1_555
H13 C12 1_555 1_555
C13 C12 1_555 1_555
H14 C13 1_555 1_555
H15 C13 1_555 1_555
C14 C13 1_555 1_555
H16 C14 1_555 1_555
C15 C14 1_555 1_555
H17 C15 1_555 1_555
C16 C11 1_555 1_555
H18 C16 1_555 1_555
H19 C16 1_555 1_555
C17 O3 1_555 1_555
C18 C14 1_555 1_555
C19 C18 1_555 1_555
H20 C19 1_555 1_555
H21 C19 1_555 1_555
C20 C6 1_555 1_555
H22 C20 1_555 1_555
C21 C20 1_555 1_555
H23 C21 1_555 1_555
H24 C21 1_555 1_555
C22 C21 1_555 1_555
H25 C22 1_555 1_555
H26 C22 1_555 1_555
C23 O5 1_555 1_555
H27 C23 1_555 1_555
C24 C23 1_555 1_555
H28 C24 1_555 1_555
H29 C24 1_555 1_555
H30 C24 1_555 1_555
C25 C6 1_555 1_555
H31 C25 1_555 1_555
H32 C25 1_555 1_555
H33 C25 1_555 1_555
C26 C10 1_555 1_555
H34 C26 1_555 1_555
H35 C26 1_555 1_555
C27 C26 1_555 1_555
H36 C27 1_555 1_555
H37 C27 1_555 1_555
C28 O6 1_555 1_555
H38 C28 1_555 1_555
C29 C28 1_555 1_555
H39 C29 1_555 1_555
H40 C29 1_555 1_555
H41 C29 1_555 1_555
C30 C11 1_555 1_555
H42 C30 1_555 1_555
H43 C30 1_555 1_555
H44 C30 1_555 1_555
O7 H45 1_555 1_555
H46 O7 1_555 1_555
C3 C4 1_555 1_555
C7 C8 1_555 1_555
C7 C20 1_555 1_555
C11 C12 1_555 1_555
C15 C16 1_555 1_555
C17 C18 1_555 1_555
C22 C23 1_555 1_555
C27 C28 1_555 1_555

#END
