
#######################################################################
#
#                 Cambridge Crystallographic Data Centre
#                                CCDC 
#
#######################################################################
#
# If this CIF has been generated from an entry in the Cambridge 
# Structural Database, then it will include bibliographic, chemical, 
# crystal, experimental, refinement or atomic coordinate data resulting 
# from the CCDC's data processing and validation procedures.
#
#######################################################################

data_PUKFUY
_chemical_formula_moiety         'C22 H23 N1 O3 S2'
_chemical_name_systematic        
4-Methyl-N-(1-phenyl-3-(phenylsulfinyl)propan-2-yl)benzenesulfonamide
_symmetry_cell_setting           monoclinic
_symmetry_space_group_name_H-M   'P 21'
_symmetry_Int_Tables_number      4
_space_group_name_Hall           'P 2yb'
loop_
_symmetry_equiv_pos_site_id
_symmetry_equiv_pos_as_xyz
1 x,y,z
2 -x,1/2+y,-z
_cell_length_a                   11.0617(3)
_cell_length_b                   7.6174(2)
_cell_length_c                   12.9784(4)
_cell_angle_alpha                90
_cell_angle_beta                 109.0310(10)
_cell_angle_gamma                90
_cell_volume                     1033.81
_exptl_crystal_colour            colorless
_exptl_crystal_description       block
_cell_formula_units_Z            2
loop_
_atom_site_label
_atom_site_type_symbol
_atom_site_fract_x
_atom_site_fract_y
_atom_site_fract_z
S1 S 0.26546(6) 0.98012(10) 0.64843(5)
S2 S 0.35914(7) 1.34416(13) 0.42339(6)
O1 O 0.3279(2) 0.8151(3) 0.6773(2)
O2 O 0.1954(2) 1.0532(3) 0.71276(16)
O3 O 0.4215(2) 1.5252(4) 0.42507(18)
N1 N 0.3740(2) 1.1181(3) 0.64493(17)
H1 H 0.4486 1.0790 0.6499
C1 C 0.2294(3) 1.3386(5) 0.2960(2)
C2 C 0.2631(4) 1.2598(6) 0.2147(3)
H2 H 0.3446 1.2133 0.2288
C3 C 0.1744(5) 1.2501(7) 0.1112(3)
H3 H 0.1961 1.1973 0.0550
C4 C 0.0542(4) 1.3189(7) 0.0916(3)
H4 H -0.0058 1.3115 0.0223
C5 C 0.0228(3) 1.3970(6) 0.1724(3)
H5 H -0.0583 1.4453 0.1581
C6 C 0.1086(3) 1.4059(5) 0.2751(3)
H6 H 0.0855 1.4575 0.3309
C7 C 0.1569(2) 0.9608(4) 0.5136(2)
C8 C 0.1961(3) 0.8730(5) 0.4362(2)
H7 H 0.2762 0.8203 0.4552
C9 C 0.1136(3) 0.8656(5) 0.3305(3)
H8 H 0.1396 0.8088 0.2779
C10 C -0.0067(3) 0.9402(5) 0.3008(2)
C11 C -0.0423(3) 1.0284(4) 0.3788(2)
H9 H -0.1221 1.0821 0.3595
C12 C 0.0390(2) 1.0387(4) 0.4861(2)
H10 H 0.0137 1.0978 0.5383
C13 C -0.0969(4) 0.9255(7) 0.1849(3)
H11 H -0.1762 0.9828 0.1790
H12 H -0.1127 0.8038 0.1658
H13 H -0.0590 0.9804 0.1362
C14 C 0.5119(3) 1.4846(6) 0.8731(2)
H14 H 0.4502 1.5714 0.8479
C15 C 0.5721(3) 1.4626(6) 0.9843(3)
H15 H 0.5513 1.5357 1.0334
C16 C 0.6625(3) 1.3331(6) 1.0222(3)
H16 H 0.7022 1.3179 1.0967
C17 C 0.6939(3) 1.2265(6) 0.9494(3)
H17 H 0.7549 1.1389 0.9748
C18 C 0.6350(3) 1.2489(5) 0.8387(2)
H18 H 0.6572 1.1766 0.7900
C19 C 0.5436(3) 1.3776(4) 0.7995(2)
C20 C 0.4791(3) 1.4040(4) 0.6786(2)
H19 H 0.5360 1.3634 0.6404
H20 H 0.4648 1.5285 0.6641
C21 C 0.3513(2) 1.3074(4) 0.6336(2)
H21 H 0.3013 1.3381 0.6810
C22 C 0.2740(3) 1.3695(4) 0.5189(2)
H22 H 0.2520 1.4922 0.5220
H23 H 0.1949 1.3032 0.4935
S3? S 0.2944(6) 1.4707(11) 0.4259(4)
loop_
_geom_bond_atom_site_label_1
_geom_bond_atom_site_label_2
_geom_bond_site_symmetry_1
_geom_bond_site_symmetry_2
S1 O1 1_555 1_555
S2 O3 1_555 1_555
O2 S1 1_555 1_555
N1 S1 1_555 1_555
H1 N1 1_555 1_555
C1 S2 1_555 1_555
C2 C1 1_555 1_555
H2 C2 1_555 1_555
C3 C2 1_555 1_555
H3 C3 1_555 1_555
C4 C3 1_555 1_555
H4 C4 1_555 1_555
C5 C4 1_555 1_555
H5 C5 1_555 1_555
C6 C1 1_555 1_555
H6 C6 1_555 1_555
C7 S1 1_555 1_555
C8 C7 1_555 1_555
H7 C8 1_555 1_555
C9 C8 1_555 1_555
H8 C9 1_555 1_555
C10 C9 1_555 1_555
C11 C10 1_555 1_555
H9 C11 1_555 1_555
C12 C7 1_555 1_555
H10 C12 1_555 1_555
C13 C10 1_555 1_555
H11 C13 1_555 1_555
H12 C13 1_555 1_555
H13 C13 1_555 1_555
C14 H14 1_555 1_555
C15 C14 1_555 1_555
H15 C15 1_555 1_555
C16 C15 1_555 1_555
H16 C16 1_555 1_555
C17 C16 1_555 1_555
H17 C17 1_555 1_555
C18 C17 1_555 1_555
H18 C18 1_555 1_555
C19 C14 1_555 1_555
C20 C19 1_555 1_555
H19 C20 1_555 1_555
H20 C20 1_555 1_555
C21 N1 1_555 1_555
H21 C21 1_555 1_555
C22 S2 1_555 1_555
H22 C22 1_555 1_555
H23 C22 1_555 1_555
C5 C6 1_555 1_555
C11 C12 1_555 1_555
C18 C19 1_555 1_555
C20 C21 1_555 1_555
C21 C22 1_555 1_555

#END
