
#######################################################################
#
#                 Cambridge Crystallographic Data Centre
#                                CCDC 
#
#######################################################################
#
# If this CIF has been generated from an entry in the Cambridge 
# Structural Database, then it will include bibliographic, chemical, 
# crystal, experimental, refinement or atomic coordinate data resulting 
# from the CCDC's data processing and validation procedures.
#
#######################################################################

data_PUKGIN
_chemical_formula_moiety         'C9 H7 N1 O3'
_chemical_name_systematic        '4-Nitrophenyl propadienyl ether'
_symmetry_cell_setting           monoclinic
_symmetry_space_group_name_H-M   'P 21/c'
_symmetry_Int_Tables_number      14
_space_group_name_Hall           '-P 2ybc'
loop_
_symmetry_equiv_pos_site_id
_symmetry_equiv_pos_as_xyz
1 x,y,z
2 -x,1/2+y,1/2-z
3 -x,-y,-z
4 x,1/2-y,1/2+z
_cell_length_a                   3.7165(4)
_cell_length_b                   12.1652(13)
_cell_length_c                   17.811(2)
_cell_angle_alpha                90
_cell_angle_beta                 91.304(2)
_cell_angle_gamma                90
_cell_volume                     805.062
_exptl_crystal_colour            colorless
_exptl_crystal_description       Block
_cell_formula_units_Z            4
loop_
_atom_site_label
_atom_site_type_symbol
_atom_site_fract_x
_atom_site_fract_y
_atom_site_fract_z
O1 O 0.2939(2) 0.48946(6) 0.41328(4)
O2 O 0.0218(3) 0.00488(7) 0.30872(5)
O3 O -0.2055(3) 0.00173(8) 0.41947(6)
N1 N -0.0521(3) 0.04929(9) 0.36858(6)
C1 C 0.3838(3) 0.76645(10) 0.36108(7)
H1 H 0.2154 0.8029 0.3308
H2 H 0.5422 0.8088 0.3900
C2 C 0.4120(3) 0.66027(10) 0.36030(6)
C3 C 0.4580(3) 0.55419(10) 0.35955(6)
H3 H 0.5998 0.5219 0.3233
C4 C 0.2181(3) 0.38180(9) 0.39750(6)
C5 C 0.2525(3) 0.33347(9) 0.32721(6)
H4 H 0.3315 0.3745 0.2867
C6 C 0.1677(3) 0.22354(10) 0.31844(6)
H5 H 0.1929 0.1895 0.2721
C7 C 0.0447(3) 0.16456(9) 0.37919(6)
C8 C 0.0040(3) 0.21221(9) 0.44926(6)
H6 H -0.0812 0.1713 0.4892
C9 C 0.0927(3) 0.32150(10) 0.45824(6)
H7 H 0.0690 0.3551 0.5048
loop_
_geom_bond_atom_site_label_1
_geom_bond_atom_site_label_2
_geom_bond_site_symmetry_1
_geom_bond_site_symmetry_2
O1 C3 1_555 1_555
O2 N1 1_555 1_555
O3 N1 1_555 1_555
N1 C7 1_555 1_555
C1 H1 1_555 1_555
H2 C1 1_555 1_555
C2 C1 1_555 1_555
C3 C2 1_555 1_555
H3 C3 1_555 1_555
C4 O1 1_555 1_555
C5 C4 1_555 1_555
H4 C5 1_555 1_555
C6 C5 1_555 1_555
H5 C6 1_555 1_555
C7 C6 1_555 1_555
C8 C7 1_555 1_555
H6 C8 1_555 1_555
C9 C4 1_555 1_555
H7 C9 1_555 1_555
C8 C9 1_555 1_555

#END
