
#######################################################################
#
#                 Cambridge Crystallographic Data Centre
#                                CCDC 
#
#######################################################################
#
# If this CIF has been generated from an entry in the Cambridge 
# Structural Database, then it will include bibliographic, chemical, 
# crystal, experimental, refinement or atomic coordinate data resulting 
# from the CCDC's data processing and validation procedures.
#
#######################################################################

data_PUKGEI
_chemical_name_common            'Desipraminium chloride'
_chemical_formula_moiety         'C18 H23 N2 1+,Cl1 1-'
_chemical_name_systematic        
'3-(10,11-Dihydro-5H-dibenzo[b,f]azepin-5-yl)-N-methylpropan-1-aminium chloride'
_chemical_properties_biological  
'desipramine is an antidepressant and pain reliever'
_symmetry_cell_setting           triclinic
_symmetry_space_group_name_H-M   'P -1'
_symmetry_Int_Tables_number      2
_space_group_name_Hall           '-P 1'
loop_
_symmetry_equiv_pos_site_id
_symmetry_equiv_pos_as_xyz
1 x,y,z
2 -x,-y,-z
_cell_length_a                   10.7258(3)
_cell_length_b                   15.9997(6)
_cell_length_c                   20.6088(8)
_cell_angle_alpha                107.347(3)
_cell_angle_beta                 89.960(2)
_cell_angle_gamma                99.414(2)
_cell_volume                     3326
_exptl_crystal_colour            colorless
_exptl_crystal_description       chunk
_chemical_melting_point          '458-461 K'
_cell_formula_units_Z            8
_exptl_crystal_recrystallization_method water
loop_
_atom_site_label
_atom_site_type_symbol
_atom_site_fract_x
_atom_site_fract_y
_atom_site_fract_z
Cl1 Cl 0.21608(4) 0.50056(3) 0.74908(3)
Cl2 Cl 0.28400(4) 0.47582(4) 0.99515(3)
Cl3 Cl 0.70231(4) 0.47109(4) 0.49442(3)
Cl4 Cl -0.20743(4) 0.50182(4) 0.75046(3)
N1 N 0.62641(14) 0.73248(10) 0.67767(8)
N2 N 0.47318(14) 0.44709(10) 0.58136(8)
H1 H 0.4135 0.4733 0.5663
H2 H 0.5472 0.4590 0.5607
C1 C 0.64897(16) 0.77542(12) 0.74864(10)
C2 C 0.71358(18) 0.73653(14) 0.78838(11)
H3 H 0.7383 0.6807 0.7673
C3 C 0.74191(19) 0.77664(16) 0.85651(11)
H4 H 0.7876 0.7493 0.8815
C4 C 0.70423(19) 0.85697(15) 0.88913(11)
H5 H 0.7230 0.8852 0.9364
C5 C 0.63804(19) 0.89520(14) 0.85063(11)
H6 H 0.6117 0.9501 0.8728
C6 C 0.60863(16) 0.85672(13) 0.78113(10)
C7 C 0.53339(18) 0.90674(13) 0.74724(11)
H7 H 0.4574 0.9180 0.7736
H8 H 0.5857 0.9653 0.7515
C8 C 0.48966(17) 0.86384(14) 0.67260(11)
H9 H 0.4333 0.8064 0.6674
H10 H 0.4405 0.9029 0.6579
C9 C 0.59992(17) 0.84817(13) 0.62775(10)
C10 C 0.6371(2) 0.89616(14) 0.58272(11)
H11 H 0.5923 0.9416 0.5798
C11 C 0.7390(2) 0.87870(14) 0.54186(11)
H12 H 0.7622 0.9110 0.5106
C12 C 0.80635(19) 0.81377(14) 0.54719(11)
H13 H 0.8770 0.8024 0.5201
C13 C 0.77070(17) 0.76544(13) 0.59198(10)
H14 H 0.8164 0.7206 0.5951
C14 C 0.66759(16) 0.78258(12) 0.63254(9)
C15 C 0.62178(16) 0.63576(12) 0.65202(10)
H15 H 0.6999 0.6204 0.6675
H16 H 0.6169 0.6163 0.6016
C16 C 0.50702(17) 0.58786(13) 0.67781(11)
H17 H 0.4297 0.6029 0.6610
H18 H 0.5108 0.6106 0.7281
C17 C 0.49516(17) 0.48699(13) 0.65663(10)
H19 H 0.5736 0.4711 0.6714
H20 H 0.4239 0.4621 0.6796
C18 C 0.4296(2) 0.34976(15) 0.56104(13)
H21 H 0.4896 0.3220 0.5799
H22 H 0.4245 0.3259 0.5113
H23 H 0.3459 0.3370 0.5785
N3 N 0.12250(14) 0.74135(10) 0.68520(8)
N4 N -0.00850(14) 0.45333(10) 0.64241(8)
H24 H 0.0638 0.4729 0.6704
H25 H -0.0754 0.4701 0.6682
C19 C 0.16087(16) 0.78628(12) 0.75472(10)
C20 C 0.26179(18) 0.76692(13) 0.78704(11)
H26 H 0.3086 0.7234 0.7620
C21 C 0.29468(19) 0.81052(14) 0.85544(11)
H27 H 0.3644 0.7975 0.8768
C22 C 0.2259(2) 0.87278(14) 0.89219(11)
H28 H 0.2464 0.9015 0.9393
C23 C 0.1262(2) 0.89333(14) 0.86011(11)
H29 H 0.0806 0.9374 0.8855
C24 C 0.09191(17) 0.85071(13) 0.79162(10)
C25 C -0.01698(17) 0.86960(14) 0.75529(11)
H30 H -0.0677 0.9058 0.7891
H31 H -0.0723 0.8128 0.7310
C26 C 0.02855(18) 0.91882(13) 0.70444(11)
H32 H -0.0467 0.9312 0.6835
H33 H 0.0793 0.9769 0.7301
C27 C 0.10706(16) 0.87295(13) 0.64727(10)
C28 C 0.14031(18) 0.91826(14) 0.59927(11)
H34 H 0.1166 0.9748 0.6062
C29 C 0.2061(2) 0.88405(15) 0.54239(11)
H35 H 0.2275 0.9166 0.5110
C30 C 0.23969(19) 0.80178(15) 0.53218(11)
H36 H 0.2841 0.7770 0.4932
C31 C 0.20918(17) 0.75494(13) 0.57840(10)
H37 H 0.2315 0.6977 0.5700
C32 C 0.14582(16) 0.79036(12) 0.63743(10)
C33 C 0.12217(17) 0.64509(12) 0.66252(10)
H38 H 0.1205 0.6229 0.7026
H39 H 0.2006 0.6329 0.6388
C34 C 0.00773(17) 0.59651(13) 0.61475(11)
H40 H -0.0701 0.6080 0.6393
H41 H 0.0082 0.6211 0.5760
C35 C 0.00322(17) 0.49670(13) 0.58728(10)
H42 H -0.0697 0.4704 0.5540
H43 H 0.0812 0.4848 0.5631
C36 C -0.0284(2) 0.35501(14) 0.61524(13)
H44 H -0.1034 0.3340 0.5839
H45 H -0.0407 0.3294 0.6529
H46 H 0.0459 0.3366 0.5909
N5 N 0.00555(14) 0.26122(10) 0.81590(8)
N6 N 0.01723(14) 0.54983(10) 0.85746(8)
H47 H 0.0796 0.5294 0.8294
H48 H -0.0578 0.5338 0.8317
C37 C 0.00597(16) 0.21325(12) 0.86386(9)
C38 C 0.08932(18) 0.24836(14) 0.92181(10)
H49 H 0.1421 0.3044 0.9287
C39 C 0.0962(2) 0.20309(16) 0.96890(11)
H50 H 0.1541 0.2279 1.0073
C40 C 0.0192(2) 0.12169(15) 0.96061(11)
H51 H 0.0250 0.0894 0.9921
C41 C -0.06634(19) 0.08886(14) 0.90512(11)
H52 H -0.1213 0.0341 0.9001
C42 C -0.07610(17) 0.13206(13) 0.85609(10)
C43 C -0.17924(17) 0.08723(13) 0.79940(11)
H53 H -0.1579 0.0291 0.7731
H54 H -0.2598 0.0750 0.8211
C44 C -0.20272(17) 0.13679(14) 0.74909(10)
H55 H -0.2734 0.1014 0.7165
H56 H -0.2278 0.1942 0.7741
C45 C -0.08723(17) 0.15374(12) 0.71060(10)
C46 C -0.0802(2) 0.11172(14) 0.64149(10)
H57 H -0.1503 0.0698 0.6171
C47 C 0.0282(2) 0.13006(14) 0.60735(11)
H58 H 0.0312 0.1015 0.5600
C48 C 0.13166(19) 0.19016(14) 0.64277(11)
H59 H 0.2062 0.2021 0.6198
C49 C 0.12624(17) 0.23284(13) 0.71167(11)
H60 H 0.1972 0.2740 0.7359
C50 C 0.01636(16) 0.21541(12) 0.74571(9)
C51 C 0.05277(17) 0.35747(12) 0.83755(10)
H61 H 0.0622 0.3788 0.7971
H62 H 0.1370 0.3700 0.8614
C52 C -0.03885(17) 0.40641(13) 0.88492(11)
H63 H -0.1217 0.3953 0.8599
H64 H -0.0517 0.3818 0.9236
C53 C 0.00607(17) 0.50606(13) 0.91257(10)
H65 H -0.0542 0.5326 0.9456
H66 H 0.0895 0.5176 0.9370
C54 C 0.0473(2) 0.64785(14) 0.88395(13)
H67 H -0.0151 0.6698 0.9166
H68 H 0.0450 0.6731 0.8462
H69 H 0.1320 0.6657 0.9066
N7 N 0.51015(14) 0.26770(10) 0.82101(8)
N8 N 0.50186(14) 0.55342(10) 0.91841(8)
H70 H 0.4290 0.5289 0.9342
H71 H 0.5693 0.5393 0.9380
C55 C 0.51377(16) 0.22531(12) 0.74997(9)
C56 C 0.59751(17) 0.26645(14) 0.71156(10)
H72 H 0.6476 0.3227 0.7334
C57 C 0.60846(19) 0.22704(16) 0.64306(11)
H73 H 0.6659 0.2560 0.6183
C58 C 0.5352(2) 0.14472(16) 0.61007(11)
H74 H 0.5438 0.1162 0.5631
C59 C 0.44992(18) 0.10531(14) 0.64707(10)
H75 H 0.3984 0.0499 0.6243
C60 C 0.43638(16) 0.14369(12) 0.71671(10)
C61 C 0.33540(18) 0.09215(13) 0.74909(11)
H76 H 0.3598 0.0337 0.7448
H77 H 0.2549 0.0806 0.7219
C62 C 0.30945(18) 0.13415(14) 0.82366(11)
H78 H 0.2797 0.1910 0.8287
H79 H 0.2413 0.0942 0.8375
C63 C 0.42521(18) 0.15095(13) 0.86956(10)
C64 C 0.4375(2) 0.10296(14) 0.91468(12)
H80 H 0.3708 0.0568 0.9165
C65 C 0.5457(2) 0.12130(14) 0.95734(12)
H81 H 0.5517 0.0889 0.9888
C66 C 0.6448(2) 0.18731(14) 0.95360(11)
H82 H 0.7194 0.1995 0.9820
C67 C 0.63488(18) 0.23548(13) 0.90830(10)
H83 H 0.7026 0.2806 0.9057
C68 C 0.52467(17) 0.21739(12) 0.86643(10)
C69 C 0.55222(16) 0.36414(12) 0.84757(10)
H84 H 0.6383 0.3799 0.8326
H85 H 0.5559 0.3827 0.8980
C70 C 0.46105(17) 0.41302(13) 0.82192(11)
H86 H 0.4533 0.3904 0.7716
H87 H 0.3764 0.3988 0.8390
C71 C 0.50053(17) 0.51341(13) 0.84319(10)
H88 H 0.5860 0.5283 0.8273
H89 H 0.4411 0.5392 0.8212
C72 C 0.5113(2) 0.65135(15) 0.93995(13)
H90 H 0.5856 0.6777 0.9207
H91 H 0.5196 0.6743 0.9897
H92 H 0.4349 0.6668 0.9237
loop_
_geom_bond_atom_site_label_1
_geom_bond_atom_site_label_2
_geom_bond_site_symmetry_1
_geom_bond_site_symmetry_2
N1 C1 1_555 1_555
N2 H1 1_555 1_555
H2 N2 1_555 1_555
C1 C2 1_555 1_555
C2 H3 1_555 1_555
C3 C2 1_555 1_555
H4 C3 1_555 1_555
C4 C3 1_555 1_555
H5 C4 1_555 1_555
C5 C4 1_555 1_555
H6 C5 1_555 1_555
C6 C1 1_555 1_555
C7 C6 1_555 1_555
H7 C7 1_555 1_555
H8 C7 1_555 1_555
C8 C7 1_555 1_555
H9 C8 1_555 1_555
H10 C8 1_555 1_555
C9 C8 1_555 1_555
C10 C9 1_555 1_555
H11 C10 1_555 1_555
C11 C10 1_555 1_555
H12 C11 1_555 1_555
C12 C11 1_555 1_555
H13 C12 1_555 1_555
C13 C12 1_555 1_555
H14 C13 1_555 1_555
C14 N1 1_555 1_555
C15 N1 1_555 1_555
H15 C15 1_555 1_555
H16 C15 1_555 1_555
C16 C15 1_555 1_555
H17 C16 1_555 1_555
H18 C16 1_555 1_555
C17 N2 1_555 1_555
H19 C17 1_555 1_555
H20 C17 1_555 1_555
C18 N2 1_555 1_555
H21 C18 1_555 1_555
H22 C18 1_555 1_555
H23 C18 1_555 1_555
N3 C19 1_555 1_555
N4 H24 1_555 1_555
H25 N4 1_555 1_555
C19 C20 1_555 1_555
C20 H26 1_555 1_555
C21 C20 1_555 1_555
H27 C21 1_555 1_555
C22 C21 1_555 1_555
H28 C22 1_555 1_555
C23 C22 1_555 1_555
H29 C23 1_555 1_555
C24 C19 1_555 1_555
C25 C24 1_555 1_555
H30 C25 1_555 1_555
H31 C25 1_555 1_555
C26 C25 1_555 1_555
H32 C26 1_555 1_555
H33 C26 1_555 1_555
C27 C26 1_555 1_555
C28 C27 1_555 1_555
H34 C28 1_555 1_555
C29 C28 1_555 1_555
H35 C29 1_555 1_555
C30 C29 1_555 1_555
H36 C30 1_555 1_555
C31 C30 1_555 1_555
H37 C31 1_555 1_555
C32 N3 1_555 1_555
C33 N3 1_555 1_555
H38 C33 1_555 1_555
H39 C33 1_555 1_555
C34 C33 1_555 1_555
H40 C34 1_555 1_555
H41 C34 1_555 1_555
C35 N4 1_555 1_555
H42 C35 1_555 1_555
H43 C35 1_555 1_555
C36 N4 1_555 1_555
H44 C36 1_555 1_555
H45 C36 1_555 1_555
H46 C36 1_555 1_555
N5 C37 1_555 1_555
N6 H47 1_555 1_555
H48 N6 1_555 1_555
C37 C38 1_555 1_555
C38 H49 1_555 1_555
C39 C38 1_555 1_555
H50 C39 1_555 1_555
C40 C39 1_555 1_555
H51 C40 1_555 1_555
C41 C40 1_555 1_555
H52 C41 1_555 1_555
C42 C37 1_555 1_555
C43 C42 1_555 1_555
H53 C43 1_555 1_555
H54 C43 1_555 1_555
C44 C43 1_555 1_555
H55 C44 1_555 1_555
H56 C44 1_555 1_555
C45 C44 1_555 1_555
C46 C45 1_555 1_555
H57 C46 1_555 1_555
C47 C46 1_555 1_555
H58 C47 1_555 1_555
C48 C47 1_555 1_555
H59 C48 1_555 1_555
C49 C48 1_555 1_555
H60 C49 1_555 1_555
C50 N5 1_555 1_555
C51 N5 1_555 1_555
H61 C51 1_555 1_555
H62 C51 1_555 1_555
C52 C51 1_555 1_555
H63 C52 1_555 1_555
H64 C52 1_555 1_555
C53 N6 1_555 1_555
H65 C53 1_555 1_555
H66 C53 1_555 1_555
C54 N6 1_555 1_555
H67 C54 1_555 1_555
H68 C54 1_555 1_555
H69 C54 1_555 1_555
N7 C55 1_555 1_555
N8 H70 1_555 1_555
H71 N8 1_555 1_555
C55 C56 1_555 1_555
C56 H72 1_555 1_555
C57 C56 1_555 1_555
H73 C57 1_555 1_555
C58 C57 1_555 1_555
H74 C58 1_555 1_555
C59 C58 1_555 1_555
H75 C59 1_555 1_555
C60 C55 1_555 1_555
C61 C60 1_555 1_555
H76 C61 1_555 1_555
H77 C61 1_555 1_555
C62 C61 1_555 1_555
H78 C62 1_555 1_555
H79 C62 1_555 1_555
C63 C62 1_555 1_555
C64 C63 1_555 1_555
H80 C64 1_555 1_555
C65 C64 1_555 1_555
H81 C65 1_555 1_555
C66 C65 1_555 1_555
H82 C66 1_555 1_555
C67 C66 1_555 1_555
H83 C67 1_555 1_555
C68 N7 1_555 1_555
C69 N7 1_555 1_555
H84 C69 1_555 1_555
H85 C69 1_555 1_555
C70 C69 1_555 1_555
H86 C70 1_555 1_555
H87 C70 1_555 1_555
C71 N8 1_555 1_555
H88 C71 1_555 1_555
H89 C71 1_555 1_555
C72 N8 1_555 1_555
H90 C72 1_555 1_555
H91 C72 1_555 1_555
H92 C72 1_555 1_555
C5 C6 1_555 1_555
C9 C14 1_555 1_555
C13 C14 1_555 1_555
C16 C17 1_555 1_555
C23 C24 1_555 1_555
C27 C32 1_555 1_555
C31 C32 1_555 1_555
C34 C35 1_555 1_555
C41 C42 1_555 1_555
C45 C50 1_555 1_555
C49 C50 1_555 1_555
C52 C53 1_555 1_555
C59 C60 1_555 1_555
C63 C68 1_555 1_555
C67 C68 1_555 1_555
C70 C71 1_555 1_555

#END
