
#######################################################################
#
#                 Cambridge Crystallographic Data Centre
#                                CCDC 
#
#######################################################################
#
# If this CIF has been generated from an entry in the Cambridge 
# Structural Database, then it will include bibliographic, chemical, 
# crystal, experimental, refinement or atomic coordinate data resulting 
# from the CCDC's data processing and validation procedures.
#
#######################################################################

data_PUKKUC
_chemical_formula_moiety         'C20 H20 F6 N2 O1'
_chemical_name_systematic        
4-(3,3-Dimethylhexahydro[1,3]oxazolo[3,4-a]pyridin-1-yl)-2,8-bis(trifluoromethyl)quinoline
_symmetry_cell_setting           triclinic
_symmetry_space_group_name_H-M   'P -1'
_symmetry_Int_Tables_number      2
_space_group_name_Hall           '-P 1'
loop_
_symmetry_equiv_pos_site_id
_symmetry_equiv_pos_as_xyz
1 x,y,z
2 -x,-y,-z
_cell_length_a                   8.4192(3)
_cell_length_b                   9.1833(4)
_cell_length_c                   12.4424(4)
_cell_angle_alpha                87.912(2)
_cell_angle_beta                 86.666(2)
_cell_angle_gamma                78.804(2)
_cell_volume                     941.781
_exptl_crystal_colour            colorless
_exptl_crystal_description       block
_chemical_melting_point          '424-426 K'
_cell_formula_units_Z            2
_exptl_crystal_recrystallization_method ethanol
loop_
_atom_site_label
_atom_site_type_symbol
_atom_site_fract_x
_atom_site_fract_y
_atom_site_fract_z
F1 F 0.24470(15) 0.13631(13) 0.70186(12)
F2 F 0.48941(14) 0.02882(12) 0.72734(10)
F3 F 0.31274(17) 0.05404(14) 0.85902(11)
F4 F 1.00086(13) 0.26530(14) 0.94688(10)
F5 F 0.90320(13) 0.18513(14) 0.80980(9)
F6 F 0.80523(14) 0.14596(13) 0.96979(9)
O1 O 0.04978(14) 0.65337(14) 0.77211(9)
N1 N 0.54732(17) 0.26383(16) 0.83292(11)
N2 N 0.13591(17) 0.69425(16) 0.59985(11)
C1 C 0.4030(2) 0.27072(19) 0.79573(13)
C2 C 0.2882(2) 0.40134(19) 0.77803(13)
H1 H 0.1866 0.3973 0.7501
C3 C 0.3263(2) 0.53470(19) 0.80200(13)
C4 C 0.4797(2) 0.53404(19) 0.84578(13)
C5 C 0.5296(2) 0.6653(2) 0.87684(13)
H2 H 0.4579 0.7585 0.8709
C6 C 0.6799(2) 0.6584(2) 0.91518(14)
H3 H 0.7114 0.7467 0.9360
C7 C 0.7882(2) 0.5216(2) 0.92398(14)
H4 H 0.8934 0.5188 0.9488
C8 C 0.7437(2) 0.3925(2) 0.89724(13)
C9 C 0.5868(2) 0.3955(2) 0.85806(13)
C10 C 0.3631(2) 0.1221(2) 0.77122(16)
C11 C 0.8617(2) 0.2472(2) 0.90593(15)
C12 C 0.2119(2) 0.67903(19) 0.77676(14)
H5 H 0.2150 0.7518 0.8341
C13 C -0.0137(2) 0.7020(2) 0.66828(14)
C14 C -0.1190(2) 0.8573(2) 0.67829(16)
H6 H -0.2044 0.8555 0.7351
H7 H -0.1685 0.8881 0.6097
H8 H -0.0516 0.9277 0.6966
C15 C -0.1106(2) 0.5903(2) 0.63459(16)
H9 H -0.0419 0.4911 0.6343
H10 H -0.1486 0.6169 0.5622
H11 H -0.2040 0.5908 0.6854
C16 C 0.2497(2) 0.7487(2) 0.66532(13)
H12 H 0.2174 0.8591 0.6692
C17 C 0.4194(2) 0.7103(2) 0.61295(14)
H13 H 0.4541 0.6012 0.6094
H14 H 0.4965 0.7488 0.6563
C18 C 0.4196(2) 0.7800(2) 0.49901(15)
H15 H 0.4013 0.8895 0.5037
H16 H 0.5269 0.7463 0.4617
C19 C 0.2881(2) 0.7372(2) 0.43406(15)
H17 H 0.2825 0.7929 0.3643
H18 H 0.3165 0.6299 0.4189
C20 C 0.1239(2) 0.7705(2) 0.49433(14)
H19 H 0.0896 0.8789 0.5035
H20 H 0.0420 0.7359 0.4529
loop_
_geom_bond_atom_site_label_1
_geom_bond_atom_site_label_2
_geom_bond_site_symmetry_1
_geom_bond_site_symmetry_2
F1 C10 1_555 1_555
F2 C10 1_555 1_555
F3 C10 1_555 1_555
F4 C11 1_555 1_555
F5 C11 1_555 1_555
F6 C11 1_555 1_555
O1 C12 1_555 1_555
N1 C1 1_555 1_555
N2 C13 1_555 1_555
C1 C2 1_555 1_555
C2 H1 1_555 1_555
C3 C2 1_555 1_555
C4 C3 1_555 1_555
C5 C4 1_555 1_555
H2 C5 1_555 1_555
C6 C5 1_555 1_555
H3 C6 1_555 1_555
C7 C6 1_555 1_555
H4 C7 1_555 1_555
C8 C7 1_555 1_555
C9 N1 1_555 1_555
C10 C1 1_555 1_555
C11 C8 1_555 1_555
C12 C3 1_555 1_555
H5 C12 1_555 1_555
C13 O1 1_555 1_555
C14 C13 1_555 1_555
H6 C14 1_555 1_555
H7 C14 1_555 1_555
H8 C14 1_555 1_555
C15 C13 1_555 1_555
H9 C15 1_555 1_555
H10 C15 1_555 1_555
H11 C15 1_555 1_555
C16 N2 1_555 1_555
H12 C16 1_555 1_555
C17 C16 1_555 1_555
H13 C17 1_555 1_555
H14 C17 1_555 1_555
C18 C17 1_555 1_555
H15 C18 1_555 1_555
H16 C18 1_555 1_555
C19 C18 1_555 1_555
H17 C19 1_555 1_555
H18 C19 1_555 1_555
C20 N2 1_555 1_555
H19 C20 1_555 1_555
H20 C20 1_555 1_555
C4 C9 1_555 1_555
C8 C9 1_555 1_555
C12 C16 1_555 1_555
C19 C20 1_555 1_555

#END
