
#######################################################################
#
#                 Cambridge Crystallographic Data Centre
#                                CCDC 
#
#######################################################################
#
# If this CIF has been generated from an entry in the Cambridge 
# Structural Database, then it will include bibliographic, chemical, 
# crystal, experimental, refinement or atomic coordinate data resulting 
# from the CCDC's data processing and validation procedures.
#
#######################################################################

data_PUKPER
_chemical_formula_moiety         'C7 H6 O2,C6 H4 N2'
_chemical_name_systematic        'Isonicotinonitrile benzoic acid'
_symmetry_cell_setting           triclinic
_symmetry_space_group_name_H-M   'P -1'
_symmetry_Int_Tables_number      2
_space_group_name_Hall           '-P 1'
loop_
_symmetry_equiv_pos_site_id
_symmetry_equiv_pos_as_xyz
1 x,y,z
2 -x,-y,-z
_cell_length_a                   7.4274(15)
_cell_length_b                   7.7389(15)
_cell_length_c                   11.668(2)
_cell_angle_alpha                85.26(3)
_cell_angle_beta                 76.44(3)
_cell_angle_gamma                62.79(2)
_cell_volume                     579.596
_exptl_crystal_colour            colorless
_exptl_crystal_description       block
_cell_formula_units_Z            2
loop_
_atom_site_label
_atom_site_type_symbol
_atom_site_fract_x
_atom_site_fract_y
_atom_site_fract_z
O1 O 0.3710(2) 0.8106(2) 0.47118(13)
H1 H 0.4865 0.8033 0.4202
O2 O 0.5897(2) 0.6595(2) 0.58797(14)
C1 C 0.2396(3) 0.7201(3) 0.65759(17)
C2 C 0.4176(3) 0.7263(3) 0.56976(18)
C4 C 0.0455(3) 0.7920(3) 0.63365(19)
H3 H 0.0224 0.8473 0.5614
C8 C 0.2716(3) 0.6398(3) 0.76576(18)
H6 H 0.4022 0.5920 0.7825
C11 C -0.1155(4) 0.7817(3) 0.7179(2)
H8 H -0.2463 0.8285 0.7015
C12 C -0.0823(4) 0.7023(3) 0.8254(2)
H9 H -0.1913 0.6979 0.8821
C13 C 0.1099(4) 0.6302(3) 0.8492(2)
H10 H 0.1325 0.5747 0.9215
N1 N 0.7138(3) 0.8082(2) 0.32068(15)
C3 C 1.0739(3) 0.7156(3) 0.29472(19)
H2 H 1.1922 0.6611 0.3257
C5 C 0.9010(3) 0.8656(3) 0.13992(18)
H4 H 0.9012 0.9140 0.0643
C6 C 0.8875(3) 0.7304(3) 0.35995(18)
H5 H 0.8827 0.6831 0.4359
C7 C 1.0797(3) 0.7841(3) 0.18209(18)
C9 C 0.7228(3) 0.8737(3) 0.21192(19)
H7 H 0.6022 0.9278 0.1832
C10 C 1.2710(3) 0.7712(3) 0.1076(2)
N2 N 1.4213(3) 0.7615(3) 0.04740(19)
loop_
_geom_bond_atom_site_label_1
_geom_bond_atom_site_label_2
_geom_bond_site_symmetry_1
_geom_bond_site_symmetry_2
O1 H1 1_555 1_555
O2 C2 1_555 1_555
N1 C6 1_555 1_555
C1 C2 1_555 1_555
C2 O1 1_555 1_555
C3 H2 1_555 1_555
C4 C1 1_555 1_555
H3 C4 1_555 1_555
C5 H4 1_555 1_555
C6 C3 1_555 1_555
H5 C6 1_555 1_555
C7 C3 1_555 1_555
C8 C1 1_555 1_555
H6 C8 1_555 1_555
C9 N1 1_555 1_555
H7 C9 1_555 1_555
C10 C7 1_555 1_555
C11 C4 1_555 1_555
H8 C11 1_555 1_555
N2 C10 1_555 1_555
C12 C11 1_555 1_555
H9 C12 1_555 1_555
C13 C8 1_555 1_555
H10 C13 1_555 1_555
C5 C7 1_555 1_555
C5 C9 1_555 1_555
C12 C13 1_555 1_555

#END
