
#######################################################################
#
#                 Cambridge Crystallographic Data Centre
#                                CCDC 
#
#######################################################################
#
# If this CIF has been generated from an entry in the Cambridge 
# Structural Database, then it will include bibliographic, chemical, 
# crystal, experimental, refinement or atomic coordinate data resulting 
# from the CCDC's data processing and validation procedures.
#
#######################################################################

data_PULCIJ
_chemical_formula_moiety         'C46 H40 O2 S12 Si4,2(C1 H1 Cl3)'
_chemical_name_systematic        
"rac-2,5,13,16-tetrakis(trimethylsilyl)thieno[2,3-b]tristhieno[3'''',2'''':4''',5''']thieno[3''',2''':4'',5'']thieno[2'',3'':4',5';2''',3''':9',10';3'''',2'''':6',7']cyclodeca[1',2':4,5]thieno[3,2-d]thiophene-9,20-dione chloroform solvate"
_symmetry_cell_setting           triclinic
_symmetry_space_group_name_H-M   'P -1'
_symmetry_Int_Tables_number      2
_space_group_name_Hall           '-P 1'
loop_
_symmetry_equiv_pos_site_id
_symmetry_equiv_pos_as_xyz
1 x,y,z
2 -x,-y,-z
_cell_length_a                   12.9084(8)
_cell_length_b                   12.9205(8)
_cell_length_c                   38.481(2)
_cell_angle_alpha                91.9850(10)
_cell_angle_beta                 97.3640(10)
_cell_angle_gamma                91.0750(10)
_cell_volume                     6359.48
_exptl_crystal_colour            yellow
_exptl_crystal_description       block
_cell_formula_units_Z            4
loop_
_atom_site_label
_atom_site_type_symbol
_atom_site_fract_x
_atom_site_fract_y
_atom_site_fract_z
C1 C -0.0807(4) 0.5204(4) 0.36002(14)
C2 C 0.0261(4) 0.5093(4) 0.36504(13)
C3 C -0.0191(5) 0.4409(5) 0.30801(15)
C4 C 0.0619(4) 0.4635(4) 0.33453(13)
C5 C 0.1468(5) 0.3956(6) 0.28999(17)
C6 C 0.1610(4) 0.4370(5) 0.32366(15)
C7 C 0.3345(5) 0.4119(5) 0.3142(2)
C8 C 0.2684(5) 0.4458(5) 0.33703(17)
H1 H 0.2920 0.4724 0.3595
C9 C 0.5130(11) 0.4636(12) 0.3682(4)
H2 H 0.5865 0.4569 0.3753
H3 H 0.4747 0.4235 0.3830
H4 H 0.4948 0.5351 0.3702
C10 C 0.5346(10) 0.5067(10) 0.2945(3)
H5 H 0.5203 0.4828 0.2705
H6 H 0.6088 0.5128 0.3012
H7 H 0.5039 0.5731 0.2973
C11 C 0.5317(12) 0.2878(10) 0.3156(4)
H8 H 0.5091 0.2622 0.2921
H9 H 0.5069 0.2417 0.3319
H10 H 0.6067 0.2919 0.3195
C12 C 0.1799(4) 0.5992(5) 0.40255(14)
C13 C 0.0939(4) 0.5329(4) 0.39840(13)
C14 C 0.1665(4) 0.5052(5) 0.45584(14)
C15 C 0.0841(4) 0.4792(4) 0.42984(14)
C16 C 0.0458(5) 0.3829(5) 0.47671(15)
C17 C 0.0116(4) 0.4075(5) 0.44214(14)
C18 C -0.1242(5) 0.2974(5) 0.45492(17)
C19 C -0.0861(5) 0.3573(5) 0.43031(16)
H11 H -0.1212 0.3643 0.4079
C20 C -0.2706(9) 0.1425(10) 0.4132(3)
H12 H -0.2807 0.1832 0.3927
H13 H -0.3304 0.0977 0.4138
H14 H -0.2095 0.1015 0.4126
C21 C -0.2534(8) 0.1485(7) 0.4921(2)
H15 H -0.1996 0.0982 0.4924
H16 H -0.3200 0.1136 0.4914
H17 H -0.2407 0.1925 0.5129
C22 C -0.3531(7) 0.3303(9) 0.4527(3)
H18 H -0.3383 0.3731 0.4737
H19 H -0.4211 0.2982 0.4519
H20 H -0.3514 0.3721 0.4327
C23 C -0.0993(4) 0.6750(4) 0.39838(14)
C24 C -0.0219(4) 0.7390(4) 0.38929(13)
C25 C -0.0767(5) 0.8323(5) 0.43595(14)
C26 C -0.0069(4) 0.8295(4) 0.41145(13)
C27 C 0.0358(5) 0.9870(5) 0.44132(16)
C28 C 0.0596(4) 0.9204(4) 0.41463(14)
C29 C 0.1812(5) 1.0554(5) 0.41238(18)
C30 C 0.1445(5) 0.9619(5) 0.39822(16)
H21 H 0.1716 0.9282 0.3798
C31 C 0.4118(11) 1.0862(12) 0.4162(4)
H22 H 0.4181 1.0893 0.4413
H23 H 0.4677 1.1261 0.4086
H24 H 0.4155 1.0154 0.4080
C32 C 0.2772(10) 1.1303(10) 0.3492(3)
H25 H 0.3283 1.1761 0.3414
H26 H 0.2085 1.1504 0.3395
H27 H 0.2888 1.0606 0.3414
C33 C 0.2752(9) 1.2716(8) 0.4146(3)
H28 H 0.2844 1.2742 0.4398
H29 H 0.2068 1.2952 0.4061
H30 H 0.3271 1.3153 0.4064
C34 C 0.1319(4) 0.7153(5) 0.35328(14)
C35 C 0.0287(4) 0.7343(4) 0.35621(13)
C36 C 0.0396(4) 0.7797(5) 0.29900(14)
C37 C -0.0249(4) 0.7702(4) 0.32481(13)
C38 C -0.1372(5) 0.8294(5) 0.27877(15)
C39 C -0.1304(4) 0.7995(4) 0.31296(14)
C40 C -0.3060(5) 0.8392(5) 0.30309(16)
C41 C -0.2268(4) 0.8069(5) 0.32656(15)
H31 H -0.2351 0.7910 0.3494
C42 C -0.5339(10) 0.7946(11) 0.2738(3)
H32 H -0.5052 0.7295 0.2676
H33 H -0.5407 0.8376 0.2538
H34 H -0.6013 0.7828 0.2811
C43 C -0.4714(10) 0.9992(8) 0.3104(3)
H35 H -0.5446 1.0093 0.3112
H36 H -0.4514 1.0280 0.2895
H37 H -0.4320 1.0332 0.3306
C44 C -0.4617(9) 0.8068(10) 0.3522(3)
H38 H -0.4228 0.8484 0.3707
H39 H -0.4368 0.7373 0.3528
H40 H -0.5345 0.8063 0.3551
C89 C -0.1457(4) 0.5780(5) 0.38151(15)
C90 C 0.2138(4) 0.6740(5) 0.37825(15)
O1 O -0.2348(3) 0.5500(4) 0.38542(15)
O2 O 0.3060(3) 0.7001(4) 0.37912(14)
S1 S -0.13916(11) 0.47021(14) 0.31938(4)
S2 S 0.01852(16) 0.38565(19) 0.27015(5)
S3 S 0.26331(17) 0.36814(18) 0.27452(6)
S4 S 0.25444(11) 0.59205(14) 0.44331(4)
S5 S 0.16251(13) 0.44370(15) 0.49483(4)
S6 S -0.03837(13) 0.30178(15) 0.49385(4)
S7 S -0.15885(11) 0.72633(13) 0.43320(4)
S8 S -0.06462(14) 0.94189(13) 0.46340(4)
S9 S 0.11308(16) 1.09625(13) 0.44635(5)
S10 S 0.16530(11) 0.74575(14) 0.31222(4)
S11 S -0.02199(13) 0.82399(15) 0.25990(4)
S12 S -0.26210(13) 0.86463(14) 0.26297(4)
Si1 Si 0.47982(17) 0.4156(2) 0.32198(8)
Si2 Si -0.25339(16) 0.22860(18) 0.45248(6)
Si3 Si 0.2889(2) 1.13785(18) 0.39854(8)
Si4 Si -0.44505(16) 0.86040(18) 0.31044(6)
C45 C 0.8491(5) 0.4503(4) 0.10021(14)
C46 C 0.7906(5) 0.5324(4) 0.10937(13)
C47 C 0.6800(5) 0.4549(5) 0.06331(14)
C48 C 0.6936(5) 0.5370(4) 0.08767(14)
C49 C 0.5285(5) 0.5653(5) 0.05800(16)
C50 C 0.6049(5) 0.6028(4) 0.08450(14)
C51 C 0.4746(5) 0.7259(5) 0.08693(18)
C52 C 0.5715(5) 0.6946(5) 0.10083(16)
H41 H 0.6119 0.7303 0.1193
C53 C 0.4446(10) 0.9547(8) 0.0764(4)
H42 H 0.5180 0.9679 0.0830
H43 H 0.4066 1.0145 0.0824
H44 H 0.4311 0.9401 0.0516
C54 C 0.2607(7) 0.8146(9) 0.0884(3)
H45 H 0.2459 0.7987 0.0637
H46 H 0.2224 0.8742 0.0944
H47 H 0.2404 0.7566 0.1012
C55 C 0.4368(11) 0.8635(10) 0.1486(3)
H48 H 0.3964 0.8165 0.1605
H49 H 0.4219 0.9335 0.1551
H50 H 0.5099 0.8515 0.1549
C56 C 0.8309(4) 0.7050(4) 0.14468(13)
C57 C 0.8099(4) 0.5996(4) 0.14208(13)
C58 C 0.7951(5) 0.6381(4) 0.20077(14)
C59 C 0.7903(4) 0.5603(4) 0.17467(14)
C60 C 0.7582(5) 0.4696(4) 0.22269(15)
C61 C 0.7675(5) 0.4623(4) 0.18781(15)
C62 C 0.7289(5) 0.2896(5) 0.19864(17)
C63 C 0.7494(5) 0.3576(4) 0.17396(16)
H51 H 0.7515 0.3384 0.1505
C64 C 0.6728(12) 0.1215(11) 0.1430(3)
H52 H 0.6710 0.0481 0.1382
H53 H 0.7268 0.1533 0.1318
H54 H 0.6065 0.1496 0.1343
C65 C 0.8206(10) 0.0756(9) 0.2063(3)
H55 H 0.8325 0.0797 0.2315
H56 H 0.8794 0.1059 0.1971
H57 H 0.8119 0.0043 0.1984
C66 C 0.5991(8) 0.1084(8) 0.2176(3)
H58 H 0.5815 0.0364 0.2130
H59 H 0.5380 0.1489 0.2120
H60 H 0.6255 0.1197 0.2419
C67 C 1.0167(5) 0.4891(4) 0.13828(15)
C68 C 1.0309(4) 0.5931(4) 0.13383(14)
C69 C 1.1180(6) 0.5728(5) 0.18968(15)
C70 C 1.0889(5) 0.6430(4) 0.16416(14)
C71 C 1.1794(5) 0.7452(5) 0.20880(16)
C72 C 1.1232(5) 0.7460(5) 0.17543(14)
C73 C 1.1579(5) 0.9222(5) 0.18701(17)
C74 C 1.1125(5) 0.8488(4) 0.16399(15)
H61 H 1.0770 0.8643 0.1423
C75 C 1.0587(10) 1.0900(9) 0.1439(3)
H62 H 1.0593 1.1624 0.1389
H63 H 0.9907 1.0694 0.1490
H64 H 1.0753 1.0504 0.1239
C76 C 1.1173(10) 1.1296(9) 0.2222(3)
H65 H 1.1698 1.1194 0.2418
H66 H 1.0521 1.0995 0.2268
H67 H 1.1093 1.2025 0.2189
C77 C 1.2858(10) 1.1179(11) 0.1749(4)
H68 H 1.3326 1.1171 0.1964
H69 H 1.2793 1.1877 0.1672
H70 H 1.3127 1.0756 0.1573
C78 C 0.9349(5) 0.7281(4) 0.09523(14)
C79 C 1.0006(4) 0.6445(4) 0.10021(14)
C80 C 1.0148(5) 0.6867(4) 0.04278(14)
C81 C 1.0448(4) 0.6188(4) 0.06949(14)
C82 C 1.1285(5) 0.5552(4) 0.02283(15)
C83 C 1.1123(4) 0.5402(4) 0.05739(13)
C84 C 1.2152(5) 0.3985(5) 0.04590(16)
C85 C 1.1634(5) 0.4501(5) 0.06994(16)
H71 H 1.1620 0.4279 0.0926
C86 C 1.3804(9) 0.2788(8) 0.0895(3)
H72 H 1.4231 0.3402 0.0890
H73 H 1.4235 0.2190 0.0896
H74 H 1.3460 0.2810 0.1102
C87 C 1.1748(9) 0.1735(7) 0.0543(3)
H75 H 1.1421 0.1912 0.0747
H76 H 1.2044 0.1060 0.0568
H77 H 1.1237 0.1730 0.0339
C88 C 1.3434(7) 0.2419(7) 0.0100(2)
H78 H 1.2921 0.2433 -0.0104
H79 H 1.3733 0.1745 0.0115
H80 H 1.3974 0.2929 0.0082
C91 C 0.9491(5) 0.4130(4) 0.11596(17)
C92 C 0.8661(5) 0.7744(4) 0.11890(15)
O3 O 0.9733(5) 0.3229(3) 0.11210(16)
O4 O 0.8416(4) 0.8646(3) 0.11746(13)
S13 S 0.78368(15) 0.37391(12) 0.06571(4)
S14 S 0.56241(15) 0.45320(15) 0.03621(5)
S15 S 0.42078(14) 0.64061(16) 0.05306(5)
S16 S 0.82068(14) 0.75811(11) 0.18613(4)
S17 S 0.77484(18) 0.59443(13) 0.24142(4)
S18 S 0.72978(17) 0.35226(13) 0.23936(4)
S19 S 1.07790(17) 0.44786(13) 0.17824(4)
S20 S 1.19096(18) 0.62531(16) 0.22720(4)
S21 S 1.21795(15) 0.86781(15) 0.22483(5)
S22 S 0.93388(13) 0.78077(11) 0.05442(4)
S23 S 1.06588(14) 0.66156(13) 0.00392(4)
S24 S 1.20241(14) 0.46212(13) 0.00648(4)
Si5 Si 0.40228(17) 0.84199(18) 0.10009(7)
Si6 Si 0.6995(2) 0.14759(15) 0.19059(6)
Si7 Si 1.15704(19) 1.06686(16) 0.18216(7)
Si8 Si 1.28063(18) 0.27112(15) 0.04984(6)
C93 C 0.5725(16) 0.7423(15) 0.4535(6)
H81 H 0.5973 0.7228 0.4312
Cl1 Cl 0.4560(7) 0.8082(8) 0.4491(3)
Cl2 Cl 0.6614(5) 0.8353(6) 0.4820(2)
Cl3 Cl 0.5621(7) 0.6410(7) 0.4807(3)
C94 C 0.4599(15) 0.5054(11) 0.1668(4)
H82 H 0.5112 0.4855 0.1513
Cl4 Cl 0.5110(4) 0.6043(4) 0.19396(12)
Cl5 Cl 0.3458(3) 0.5447(3) 0.14106(11)
Cl6 Cl 0.4288(7) 0.3994(4) 0.18928(16)
C95 C 0.9185(8) 0.0997(11) 0.3360(3)
H83 H 0.9056 0.0398 0.3499
Cl7 Cl 0.9749(4) 0.2046(4) 0.36223(11)
Cl8 Cl 0.8025(4) 0.1457(6) 0.31362(15)
Cl9 Cl 1.0017(4) 0.0711(5) 0.30526(15)
C96 C 0.8097(10) 0.1187(9) 0.0359(3)
H84 H 0.8506 0.1817 0.0438
Cl10 Cl 0.6770(5) 0.1459(6) 0.0209(2)
Cl11 Cl 0.8034(12) 0.0360(11) 0.0688(2)
Cl12 Cl 0.8613(7) 0.0526(5) 0.00304(18)
loop_
_geom_bond_atom_site_label_1
_geom_bond_atom_site_label_2
_geom_bond_site_symmetry_1
_geom_bond_site_symmetry_2
C1 C2 1_555 1_555
C2 C4 1_555 1_555
C3 C4 1_555 1_555
C4 C6 1_555 1_555
C5 C6 1_555 1_555
C6 C8 1_555 1_555
C7 C8 1_555 1_555
C8 H1 1_555 1_555
C9 H2 1_555 1_555
H3 C9 1_555 1_555
H4 C9 1_555 1_555
C10 H5 1_555 1_555
H6 C10 1_555 1_555
H7 C10 1_555 1_555
C11 H8 1_555 1_555
H9 C11 1_555 1_555
H10 C11 1_555 1_555
C12 C13 1_555 1_555
C13 C2 1_555 1_555
C14 C15 1_555 1_555
C15 C13 1_555 1_555
C16 C17 1_555 1_555
C17 C15 1_555 1_555
C18 C19 1_555 1_555
C19 C17 1_555 1_555
H11 C19 1_555 1_555
C20 H12 1_555 1_555
H13 C20 1_555 1_555
H14 C20 1_555 1_555
C21 H15 1_555 1_555
H16 C21 1_555 1_555
H17 C21 1_555 1_555
C22 H18 1_555 1_555
H19 C22 1_555 1_555
H20 C22 1_555 1_555
C23 C24 1_555 1_555
C24 C26 1_555 1_555
C25 C26 1_555 1_555
C26 C28 1_555 1_555
C27 C28 1_555 1_555
C28 C30 1_555 1_555
C29 C30 1_555 1_555
C30 H21 1_555 1_555
C31 H22 1_555 1_555
H23 C31 1_555 1_555
H24 C31 1_555 1_555
C32 H25 1_555 1_555
H26 C32 1_555 1_555
H27 C32 1_555 1_555
C33 H28 1_555 1_555
H29 C33 1_555 1_555
H30 C33 1_555 1_555
C34 C35 1_555 1_555
C35 C24 1_555 1_555
C36 C37 1_555 1_555
C37 C35 1_555 1_555
C38 C39 1_555 1_555
C39 C37 1_555 1_555
C40 C41 1_555 1_555
C41 C39 1_555 1_555
H31 C41 1_555 1_555
C42 H32 1_555 1_555
H33 C42 1_555 1_555
H34 C42 1_555 1_555
C43 H35 1_555 1_555
H36 C43 1_555 1_555
H37 C43 1_555 1_555
C44 H38 1_555 1_555
H39 C44 1_555 1_555
H40 C44 1_555 1_555
C45 C46 1_555 1_555
C46 C48 1_555 1_555
C47 C48 1_555 1_555
C48 C50 1_555 1_555
C49 C50 1_555 1_555
C50 C52 1_555 1_555
C51 C52 1_555 1_555
C52 H41 1_555 1_555
C53 H42 1_555 1_555
H43 C53 1_555 1_555
H44 C53 1_555 1_555
C54 H45 1_555 1_555
H46 C54 1_555 1_555
H47 C54 1_555 1_555
C55 H48 1_555 1_555
H49 C55 1_555 1_555
H50 C55 1_555 1_555
C56 C57 1_555 1_555
C57 C46 1_555 1_555
C58 C59 1_555 1_555
C59 C57 1_555 1_555
C60 C61 1_555 1_555
C61 C59 1_555 1_555
C62 C63 1_555 1_555
C63 C61 1_555 1_555
H51 C63 1_555 1_555
C64 H52 1_555 1_555
H53 C64 1_555 1_555
H54 C64 1_555 1_555
C65 H55 1_555 1_555
H56 C65 1_555 1_555
H57 C65 1_555 1_555
C66 H58 1_555 1_555
H59 C66 1_555 1_555
H60 C66 1_555 1_555
C67 C68 1_555 1_555
C68 C70 1_555 1_555
C69 C70 1_555 1_555
C70 C72 1_555 1_555
C71 C72 1_555 1_555
C72 C74 1_555 1_555
C73 C74 1_555 1_555
C74 H61 1_555 1_555
C75 H62 1_555 1_555
H63 C75 1_555 1_555
H64 C75 1_555 1_555
C76 H65 1_555 1_555
H66 C76 1_555 1_555
H67 C76 1_555 1_555
C77 H68 1_555 1_555
H69 C77 1_555 1_555
H70 C77 1_555 1_555
C78 C79 1_555 1_555
C79 C68 1_555 1_555
C80 C81 1_555 1_555
C81 C79 1_555 1_555
C82 C83 1_555 1_555
C83 C81 1_555 1_555
C84 C85 1_555 1_555
C85 C83 1_555 1_555
H71 C85 1_555 1_555
C86 H72 1_555 1_555
H73 C86 1_555 1_555
H74 C86 1_555 1_555
C87 H75 1_555 1_555
H76 C87 1_555 1_555
H77 C87 1_555 1_555
C88 H78 1_555 1_555
H79 C88 1_555 1_555
H80 C88 1_555 1_555
C89 C1 1_555 1_555
C90 C12 1_555 1_555
C91 C45 1_555 1_555
C92 C56 1_555 1_555
C93 H81 1_555 1_555
C94 H82 1_555 1_555
C95 H83 1_555 1_555
C96 H84 1_555 1_555
Cl1 C93 1_555 1_555
Cl2 C93 1_555 1_555
Cl3 C93 1_555 1_555
Cl4 C94 1_555 1_555
Cl5 C94 1_555 1_555
Cl6 C94 1_555 1_555
Cl7 C95 1_555 1_555
Cl8 C95 1_555 1_555
Cl9 C95 1_555 1_555
Cl10 C96 1_555 1_555
Cl11 C96 1_555 1_555
Cl12 C96 1_555 1_555
O1 C89 1_555 1_555
O2 C90 1_555 1_555
O3 C91 1_555 1_555
O4 C92 1_555 1_555
S1 C1 1_555 1_555
S2 C3 1_555 1_555
S3 C5 1_555 1_555
S4 C12 1_555 1_555
S5 C14 1_555 1_555
S6 C16 1_555 1_555
S7 C23 1_555 1_555
S8 C25 1_555 1_555
S9 C27 1_555 1_555
S10 C34 1_555 1_555
S11 C36 1_555 1_555
S12 C38 1_555 1_555
S13 C45 1_555 1_555
S14 C47 1_555 1_555
S15 C49 1_555 1_555
S16 C56 1_555 1_555
S17 C58 1_555 1_555
S18 C60 1_555 1_555
S19 C67 1_555 1_555
S20 C69 1_555 1_555
S21 C71 1_555 1_555
S22 C78 1_555 1_555
S23 C80 1_555 1_555
S24 C82 1_555 1_555
Si1 C7 1_555 1_555
Si2 C18 1_555 1_555
Si3 C29 1_555 1_555
Si4 C40 1_555 1_555
Si5 C51 1_555 1_555
Si6 C62 1_555 1_555
Si7 C73 1_555 1_555
Si8 C84 1_555 1_555
C3 S1 1_555 1_555
C5 S2 1_555 1_555
C7 S3 1_555 1_555
C9 Si1 1_555 1_555
C10 Si1 1_555 1_555
C11 Si1 1_555 1_555
C14 S4 1_555 1_555
C16 S5 1_555 1_555
C18 S6 1_555 1_555
C20 Si2 1_555 1_555
C21 Si2 1_555 1_555
C22 Si2 1_555 1_555
C23 C89 1_555 1_555
C25 S7 1_555 1_555
C27 S8 1_555 1_555
C29 S9 1_555 1_555
C31 Si3 1_555 1_555
C32 Si3 1_555 1_555
C33 Si3 1_555 1_555
C34 C90 1_555 1_555
C36 S10 1_555 1_555
C38 S11 1_555 1_555
C40 S12 1_555 1_555
C42 Si4 1_555 1_555
C43 Si4 1_555 1_555
C44 Si4 1_555 1_555
C47 S13 1_555 1_555
C49 S14 1_555 1_555
C51 S15 1_555 1_555
C53 Si5 1_555 1_555
C54 Si5 1_555 1_555
C55 Si5 1_555 1_555
C58 S16 1_555 1_555
C60 S17 1_555 1_555
C62 S18 1_555 1_555
C64 Si6 1_555 1_555
C65 Si6 1_555 1_555
C66 Si6 1_555 1_555
C67 C91 1_555 1_555
C69 S19 1_555 1_555
C71 S20 1_555 1_555
C73 S21 1_555 1_555
C75 Si7 1_555 1_555
C76 Si7 1_555 1_555
C77 Si7 1_555 1_555
C78 C92 1_555 1_555
C80 S22 1_555 1_555
C82 S23 1_555 1_555
C84 S24 1_555 1_555
C86 Si8 1_555 1_555
C87 Si8 1_555 1_555
C88 Si8 1_555 1_555

#END
