
#######################################################################
#
#                 Cambridge Crystallographic Data Centre
#                                CCDC 
#
#######################################################################
#
# If this CIF has been generated from an entry in the Cambridge 
# Structural Database, then it will include bibliographic, chemical, 
# crystal, experimental, refinement or atomic coordinate data resulting 
# from the CCDC's data processing and validation procedures.
#
#######################################################################

data_PULCOP01
_chemical_formula_moiety         'C24 H22 S6 Si2'
_chemical_name_systematic        
Thieno[3',2':4,5]thieno[2,3-b]thieno[3'',2'':4',5']thieno[3',2':4,5]thieno[3,2-e][1]benzothiene-2,11-diylbis(trimethylsilane)
_symmetry_cell_setting           triclinic
_symmetry_space_group_name_H-M   'P -1'
_symmetry_Int_Tables_number      2
_space_group_name_Hall           '-P 1'
loop_
_symmetry_equiv_pos_site_id
_symmetry_equiv_pos_as_xyz
1 x,y,z
2 -x,-y,-z
_cell_length_a                   8.5149(14)
_cell_length_b                   10.6494(17)
_cell_length_c                   16.510(3)
_cell_angle_alpha                74.370(2)
_cell_angle_beta                 89.326(2)
_cell_angle_gamma                69.807(2)
_cell_volume                     1347.65
_exptl_crystal_colour            colorless
_exptl_crystal_description       block
_cell_formula_units_Z            2
loop_
_atom_site_label
_atom_site_type_symbol
_atom_site_fract_x
_atom_site_fract_y
_atom_site_fract_z
C1 C -0.0983(3) 0.9238(3) 0.42438(18)
C2 C -0.2352(4) 0.9952(3) 0.46360(19)
C3 C -0.2668(4) 0.9404(3) 0.5459(2)
H1 H -0.3610 0.9892 0.5687
C4 C -0.1578(4) 0.8139(3) 0.5932(2)
H2 H -0.1706 0.7796 0.6500
C5 C -0.0271(4) 0.7373(3) 0.55449(18)
C6 C -0.0013(3) 0.7835(3) 0.46876(17)
C7 C 0.1941(4) 0.5568(3) 0.51109(18)
C8 C 0.1214(3) 0.6714(3) 0.44265(17)
C9 C 0.2872(4) 0.5033(3) 0.38036(19)
C10 C 0.1685(3) 0.6368(3) 0.36488(17)
C11 C 0.1893(4) 0.6097(3) 0.22847(19)
C12 C 0.1147(4) 0.6947(3) 0.27703(17)
H3 H 0.0350 0.7834 0.2547
C13 C 0.0532(6) 0.8252(4) 0.0623(3)
H4 H -0.0503 0.8679 0.0844
H5 H 0.0337 0.8415 0.0026
H6 H 0.1339 0.8647 0.0728
C14 C 0.3218(6) 0.5415(6) 0.0676(3)
H7 H 0.2941 0.5579 0.0086
H8 H 0.3573 0.4433 0.0955
H9 H 0.4110 0.5746 0.0745
C15 C -0.0329(5) 0.5618(4) 0.1084(3)
H10 H -0.1272 0.6063 0.1359
H11 H 0.0100 0.4633 0.1358
H12 H -0.0677 0.5778 0.0502
C16 C -0.2119(4) 1.1420(3) 0.32421(19)
C17 C -0.0811(3) 1.0149(3) 0.34488(18)
C18 C -0.0021(4) 1.1438(3) 0.22399(19)
C19 C 0.0468(4) 1.0188(3) 0.28734(18)
C20 C 0.2939(4) 0.9968(3) 0.21899(19)
C21 C 0.2180(4) 0.9373(3) 0.28358(18)
H13 H 0.2732 0.8508 0.3220
C22 C 0.6352(5) 0.7956(5) 0.2880(3)
H14 H 0.5888 0.7237 0.3080
H15 H 0.6314 0.8431 0.3303
H16 H 0.7497 0.7547 0.2767
C23 C 0.5068(6) 0.8357(6) 0.1076(4)
H17 H 0.4217 0.8984 0.0632
H18 H 0.4817 0.7528 0.1313
H19 H 0.6142 0.8116 0.0851
C24 C 0.5948(6) 1.0635(5) 0.1503(3)
H20 H 0.7114 1.0246 0.1417
H21 H 0.5829 1.1156 0.1906
H22 H 0.5331 1.1241 0.0977
S1 S -0.35310(10) 1.16166(9) 0.39967(6)
S2 S -0.19443(11) 1.26337(8) 0.23451(6)
S3 S 0.15456(11) 1.15902(9) 0.16044(5)
S4 S 0.11396(12) 0.57050(8) 0.60543(5)
S5 S 0.33582(11) 0.41265(8) 0.48645(5)
S6 S 0.33372(11) 0.45288(8) 0.29025(5)
Si1 Si 0.51193(12) 0.92109(11) 0.19033(6)
Si2 Si 0.13480(13) 0.63531(9) 0.11455(6)
loop_
_geom_bond_atom_site_label_1
_geom_bond_atom_site_label_2
_geom_bond_site_symmetry_1
_geom_bond_site_symmetry_2
C1 C2 1_555 1_555
C2 C3 1_555 1_555
C3 H1 1_555 1_555
C4 C3 1_555 1_555
H2 C4 1_555 1_555
C5 C4 1_555 1_555
C6 C1 1_555 1_555
C7 C8 1_555 1_555
C8 C6 1_555 1_555
C9 C10 1_555 1_555
C10 C8 1_555 1_555
C11 C12 1_555 1_555
C12 C10 1_555 1_555
H3 C12 1_555 1_555
C13 H4 1_555 1_555
H5 C13 1_555 1_555
H6 C13 1_555 1_555
C14 H7 1_555 1_555
H8 C14 1_555 1_555
H9 C14 1_555 1_555
C15 H10 1_555 1_555
H11 C15 1_555 1_555
H12 C15 1_555 1_555
C16 C17 1_555 1_555
C17 C1 1_555 1_555
C18 C19 1_555 1_555
C19 C17 1_555 1_555
C20 C21 1_555 1_555
C21 C19 1_555 1_555
H13 C21 1_555 1_555
C22 H14 1_555 1_555
H15 C22 1_555 1_555
H16 C22 1_555 1_555
C23 H17 1_555 1_555
H18 C23 1_555 1_555
H19 C23 1_555 1_555
C24 H20 1_555 1_555
H21 C24 1_555 1_555
H22 C24 1_555 1_555
S1 C2 1_555 1_555
S2 C16 1_555 1_555
S3 C18 1_555 1_555
S4 C5 1_555 1_555
S5 C7 1_555 1_555
S6 C9 1_555 1_555
Si1 C20 1_555 1_555
Si2 C11 1_555 1_555
C5 C6 1_555 1_555
C7 S4 1_555 1_555
C9 S5 1_555 1_555
C11 S6 1_555 1_555
C13 Si2 1_555 1_555
C14 Si2 1_555 1_555
C15 Si2 1_555 1_555
C16 S1 1_555 1_555
C18 S2 1_555 1_555
C20 S3 1_555 1_555
C22 Si1 1_555 1_555
C23 Si1 1_555 1_555
C24 Si1 1_555 1_555

#END
