
#######################################################################
#
#                 Cambridge Crystallographic Data Centre
#                                CCDC 
#
#######################################################################
#
# If this CIF has been generated from an entry in the Cambridge 
# Structural Database, then it will include bibliographic, chemical, 
# crystal, experimental, refinement or atomic coordinate data resulting 
# from the CCDC's data processing and validation procedures.
#
#######################################################################

data_PULDEG
_chemical_formula_moiety         'C24 H22 O2 S6 Si2,1.5(H2 O1)'
_chemical_name_systematic        
"5,5'-bis(trimethylsilyl)-3,3'-bibisthieno[2,3-b:3',2'-d]thiophene-2,2'-dicarbaldehyde sesquihydrate"
_symmetry_cell_setting           monoclinic
_symmetry_space_group_name_H-M   'C 2/c'
_symmetry_Int_Tables_number      15
_space_group_name_Hall           '-C 2yn'
loop_
_symmetry_equiv_pos_site_id
_symmetry_equiv_pos_as_xyz
1 x,y,z
2 -x,y,1/2-z
3 1/2+x,1/2+y,z
4 1/2-x,1/2+y,1/2-z
5 -x,-y,-z
6 x,-y,1/2+z
7 1/2-x,1/2-y,-z
8 1/2+x,1/2-y,1/2+z
_cell_length_a                   37.99(3)
_cell_length_b                   17.583(13)
_cell_length_c                   10.968(8)
_cell_angle_alpha                90
_cell_angle_beta                 102.348(18)
_cell_angle_gamma                90
_cell_volume                     7156.9
_exptl_crystal_colour            orange
_exptl_crystal_description       block
_cell_formula_units_Z            8
loop_
_atom_site_label
_atom_site_type_symbol
_atom_site_fract_x
_atom_site_fract_y
_atom_site_fract_z
S1 S 0.121981(15) 0.45246(3) 0.14182(6)
S2 S 0.160319(15) 0.57757(3) 0.32830(5)
S3 S 0.215201(14) 0.58221(3) 0.58258(5)
S4 S 0.254980(13) 0.23056(3) 0.68312(6)
S5 S 0.179146(14) 0.16257(3) 0.68032(6)
S6 S 0.099037(14) 0.21943(3) 0.60913(7)
Si1 Si 0.113537(18) 0.27859(4) 0.08330(7)
Si2 Si 0.047528(15) 0.35304(4) 0.49794(7)
O1 O 0.26185(4) 0.54970(9) 0.82899(16)
O2 O 0.31709(3) 0.32994(9) 0.65339(17)
C1 C 0.15036(8) 0.23541(16) 0.0181(3)
H1 H 0.1593 0.2722 -0.0325
H2 H 0.1412 0.1921 -0.0319
H3 H 0.1696 0.2197 0.0853
C2 C 0.09449(8) 0.21095(17) 0.1823(3)
H4 H 0.0756 0.2355 0.2133
H5 H 0.1131 0.1950 0.2513
H6 H 0.0849 0.1674 0.1336
C3 C 0.07867(8) 0.3157(2) -0.0458(3)
H7 H 0.0894 0.3509 -0.0941
H8 H 0.0604 0.3411 -0.0126
H9 H 0.0680 0.2743 -0.0980
C4 C 0.13265(5) 0.35866(11) 0.18559(19)
C5 C 0.15700(5) 0.35703(11) 0.29754(18)
H10 H 0.1663 0.3120 0.3359
C6 C 0.16671(4) 0.42932(10) 0.34967(17)
C7 C 0.14977(5) 0.48542(11) 0.27392(19)
C8 C 0.18957(4) 0.46088(10) 0.46033(18)
C9 C 0.18862(5) 0.53997(10) 0.45773(18)
C10 C 0.21309(4) 0.43438(10) 0.57120(18)
C11 C 0.22838(5) 0.49432(10) 0.64484(18)
C12 C 0.25022(5) 0.49213(12) 0.7707(2)
H11 H 0.2557 0.4451 0.8088
C13 C 0.28763(5) 0.35911(12) 0.6230(2)
H12 H 0.2865 0.4076 0.5886
C14 C 0.25471(5) 0.32504(10) 0.63568(19)
C15 C 0.22058(5) 0.35473(10) 0.60400(17)
C16 C 0.19369(5) 0.29972(10) 0.61470(18)
C17 C 0.20946(5) 0.23041(10) 0.65780(19)
C18 C 0.15541(5) 0.29701(10) 0.59837(18)
C19 C 0.14467(5) 0.22718(11) 0.6305(2)
C20 C 0.12530(4) 0.34448(11) 0.55478(18)
H13 H 0.1274 0.3943 0.5286
C21 C 0.09327(5) 0.31120(12) 0.5546(2)
C22 C 0.01650(7) 0.2734(2) 0.4369(4)
H14 H 0.0151 0.2390 0.5037
H15 H 0.0254 0.2467 0.3734
H16 H -0.0070 0.2933 0.4021
C23 C 0.03288(6) 0.4038(2) 0.6263(3)
H17 H 0.0311 0.3684 0.6914
H18 H 0.0098 0.4268 0.5952
H19 H 0.0501 0.4425 0.6590
C24 C 0.05099(7) 0.42075(18) 0.3705(3)
H20 H 0.0590 0.3941 0.3051
H21 H 0.0680 0.4601 0.4028
H22 H 0.0278 0.4430 0.3380
O3 O 0.16932(8) 0.03331(13) 0.9430(3)
O4 O 0.09331(14) -0.0402(3) 0.9312(6)
loop_
_geom_bond_atom_site_label_1
_geom_bond_atom_site_label_2
_geom_bond_site_symmetry_1
_geom_bond_site_symmetry_2
S1 C4 1_555 1_555
S2 C7 1_555 1_555
S3 C9 1_555 1_555
S4 C14 1_555 1_555
S5 C17 1_555 1_555
S6 C19 1_555 1_555
Si1 C1 1_555 1_555
Si2 C21 1_555 1_555
O1 C12 1_555 1_555
O2 C13 1_555 1_555
C1 H1 1_555 1_555
H2 C1 1_555 1_555
H3 C1 1_555 1_555
C2 Si1 1_555 1_555
H4 C2 1_555 1_555
H5 C2 1_555 1_555
H6 C2 1_555 1_555
C3 Si1 1_555 1_555
H7 C3 1_555 1_555
H8 C3 1_555 1_555
H9 C3 1_555 1_555
C4 Si1 1_555 1_555
C5 C4 1_555 1_555
H10 C5 1_555 1_555
C6 C5 1_555 1_555
C7 S1 1_555 1_555
C8 C6 1_555 1_555
C9 S2 1_555 1_555
C10 C8 1_555 1_555
C11 S3 1_555 1_555
C12 C11 1_555 1_555
H11 C12 1_555 1_555
C13 H12 1_555 1_555
C14 C13 1_555 1_555
C15 C10 1_555 1_555
C16 C15 1_555 1_555
C17 S4 1_555 1_555
C18 C16 1_555 1_555
C19 S5 1_555 1_555
C20 C18 1_555 1_555
H13 C20 1_555 1_555
C21 S6 1_555 1_555
C22 Si2 1_555 1_555
H14 C22 1_555 1_555
H15 C22 1_555 1_555
H16 C22 1_555 1_555
C23 Si2 1_555 1_555
H17 C23 1_555 1_555
H18 C23 1_555 1_555
H19 C23 1_555 1_555
C24 Si2 1_555 1_555
H20 C24 1_555 1_555
H21 C24 1_555 1_555
H22 C24 1_555 1_555
C6 C7 1_555 1_555
C8 C9 1_555 1_555
C10 C11 1_555 1_555
C14 C15 1_555 1_555
C16 C17 1_555 1_555
C18 C19 1_555 1_555
C20 C21 1_555 1_555

#END
