
#######################################################################
#
#                 Cambridge Crystallographic Data Centre
#                                CCDC 
#
#######################################################################
#
# If this CIF has been generated from an entry in the Cambridge 
# Structural Database, then it will include bibliographic, chemical, 
# crystal, experimental, refinement or atomic coordinate data resulting 
# from the CCDC's data processing and validation procedures.
#
#######################################################################

data_PULFUZ
_chemical_formula_moiety         'C30 H23 N1 O2'
_chemical_name_systematic        
(1-methyl-2-(4-methylphenyl)-1H-indole-4,6-diyl)bis(phenylmethanone)
_symmetry_cell_setting           triclinic
_symmetry_space_group_name_H-M   'P -1'
_symmetry_Int_Tables_number      2
_space_group_name_Hall           '-P 1'
loop_
_symmetry_equiv_pos_site_id
_symmetry_equiv_pos_as_xyz
1 x,y,z
2 -x,-y,-z
_cell_length_a                   8.8044(12)
_cell_length_b                   9.6097(13)
_cell_length_c                   13.3333(18)
_cell_angle_alpha                93.346(3)
_cell_angle_beta                 95.699(3)
_cell_angle_gamma                90.433(3)
_cell_volume                     1120.51
_exptl_crystal_colour            yellow
_exptl_crystal_description       prismatic
_cell_formula_units_Z            2
loop_
_atom_site_label
_atom_site_type_symbol
_atom_site_fract_x
_atom_site_fract_y
_atom_site_fract_z
N1 N 0.20295(17) 0.94518(16) 0.00358(10)
O1 O 0.19071(19) 1.14620(14) 0.35553(10)
O2 O 0.03662(18) 0.46850(15) 0.13150(11)
C1 C 0.2561(2) 1.0779(2) 0.03422(13)
C2 C 0.2501(2) 1.0980(2) 0.13708(12)
H1 H 0.2773 1.1794 0.1762
C3 C 0.1959(2) 0.97434(19) 0.17230(12)
C4 C 0.1654(2) 0.8793(2) 0.08652(12)
C5 C 0.1091(2) 0.7458(2) 0.09347(12)
H2 H 0.0891 0.6860 0.0362
C6 C 0.0832(2) 0.70320(19) 0.18825(12)
C7 C 0.1212(2) 0.79268(18) 0.27462(13)
H3 H 0.1088 0.7606 0.3378
C8 C 0.1762(2) 0.92599(18) 0.26859(12)
C9 C 0.2069(2) 1.02128(18) 0.36022(12)
C10 C 0.2607(2) 0.96451(17) 0.45897(12)
C11 C 0.2130(2) 1.0278(2) 0.54632(13)
H4 H 0.1396 1.0968 0.5419
C12 C 0.2735(3) 0.9890(2) 0.63947(14)
H5 H 0.2395 1.0303 0.6979
C13 C 0.3841(3) 0.8893(2) 0.64610(15)
H6 H 0.4267 0.8648 0.7092
C14 C 0.4323(2) 0.8255(2) 0.56077(14)
H7 H 0.5075 0.7581 0.5659
C15 C 0.3693(2) 0.86130(19) 0.46687(13)
H8 H 0.3999 0.8159 0.4089
C16 C 0.0216(2) 0.56061(19) 0.19688(13)
C17 C -0.0582(2) 0.52978(18) 0.28646(13)
C18 C -0.1525(2) 0.6255(2) 0.33035(14)
H9 H -0.1675 0.7122 0.3037
C19 C -0.2240(3) 0.5927(2) 0.41319(17)
H10 H -0.2876 0.6570 0.4420
C20 C -0.2018(3) 0.4658(3) 0.45333(18)
H11 H -0.2488 0.4448 0.5102
C21 C -0.1109(3) 0.3699(2) 0.41008(18)
H12 H -0.0967 0.2834 0.4373
C22 C -0.0399(3) 0.4005(2) 0.32636(16)
H13 H 0.0205 0.3342 0.2965
C23 C 0.3141(2) 1.1778(2) -0.03191(12)
C24 C 0.4164(2) 1.1418(2) -0.10240(13)
H14 H 0.4431 1.0491 -0.1128
C25 C 0.4781(2) 1.2414(3) -0.15663(14)
H15 H 0.5450 1.2141 -0.2036
C26 C 0.4440(2) 1.3804(2) -0.14345(14)
C27 C 0.3417(2) 1.4160(2) -0.07374(15)
H16 H 0.3154 1.5090 -0.0636
C28 C 0.2785(2) 1.3175(2) -0.01928(14)
H17 H 0.2105 1.3451 0.0269
C29 C 0.5136(3) 1.4892(3) -0.20200(19)
H18 H 0.5916 1.5399 -0.1590
H19 H 0.4360 1.5524 -0.2259
H20 H 0.5576 1.4449 -0.2585
C30 C 0.1794(3) 0.8832(3) -0.09907(13)
H21 H 0.2679 0.8310 -0.1139
H22 H 0.1632 0.9555 -0.1455
H23 H 0.0918 0.8221 -0.1055
loop_
_geom_bond_atom_site_label_1
_geom_bond_atom_site_label_2
_geom_bond_site_symmetry_1
_geom_bond_site_symmetry_2
N1 C1 1_555 1_555
O1 C9 1_555 1_555
O2 C16 1_555 1_555
C1 C2 1_555 1_555
C2 H1 1_555 1_555
C3 C2 1_555 1_555
C4 N1 1_555 1_555
C5 C4 1_555 1_555
H2 C5 1_555 1_555
C6 C5 1_555 1_555
C7 C6 1_555 1_555
H3 C7 1_555 1_555
C8 C3 1_555 1_555
C9 C8 1_555 1_555
C10 C9 1_555 1_555
C11 C10 1_555 1_555
H4 C11 1_555 1_555
C12 C11 1_555 1_555
H5 C12 1_555 1_555
C13 C12 1_555 1_555
H6 C13 1_555 1_555
C14 C13 1_555 1_555
H7 C14 1_555 1_555
C15 C10 1_555 1_555
H8 C15 1_555 1_555
C16 C6 1_555 1_555
C17 C16 1_555 1_555
C18 C17 1_555 1_555
H9 C18 1_555 1_555
C19 C18 1_555 1_555
H10 C19 1_555 1_555
C20 C19 1_555 1_555
H11 C20 1_555 1_555
C21 C20 1_555 1_555
H12 C21 1_555 1_555
C22 C17 1_555 1_555
H13 C22 1_555 1_555
C23 C1 1_555 1_555
C24 C23 1_555 1_555
H14 C24 1_555 1_555
C25 C24 1_555 1_555
H15 C25 1_555 1_555
C26 C25 1_555 1_555
C27 C26 1_555 1_555
H16 C27 1_555 1_555
C28 C23 1_555 1_555
H17 C28 1_555 1_555
C29 C26 1_555 1_555
H18 C29 1_555 1_555
H19 C29 1_555 1_555
H20 C29 1_555 1_555
C30 N1 1_555 1_555
H21 C30 1_555 1_555
H22 C30 1_555 1_555
H23 C30 1_555 1_555
C3 C4 1_555 1_555
C7 C8 1_555 1_555
C14 C15 1_555 1_555
C21 C22 1_555 1_555
C27 C28 1_555 1_555

#END
