
#######################################################################
#
#                 Cambridge Crystallographic Data Centre
#                                CCDC 
#
#######################################################################
#
# If this CIF has been generated from an entry in the Cambridge 
# Structural Database, then it will include bibliographic, chemical, 
# crystal, experimental, refinement or atomic coordinate data resulting 
# from the CCDC's data processing and validation procedures.
#
#######################################################################

data_PULHOV
_chemical_formula_moiety         'C22 H19 N3 O4 S2'
_chemical_name_systematic        
3-((4-methylphenyl)sulfonyl)-2-(((4-methylphenyl)sulfonyl)diazenyl)-1H-indole
_symmetry_cell_setting           monoclinic
_symmetry_space_group_name_H-M   'P 21/c'
_symmetry_Int_Tables_number      14
_space_group_name_Hall           '-P 2ybc'
loop_
_symmetry_equiv_pos_site_id
_symmetry_equiv_pos_as_xyz
1 x,y,z
2 -x,1/2+y,1/2-z
3 -x,-y,-z
4 x,1/2-y,1/2+z
_cell_length_a                   10.0474(9)
_cell_length_b                   16.5840(14)
_cell_length_c                   13.7955(12)
_cell_angle_alpha                90
_cell_angle_beta                 105.968(2)
_cell_angle_gamma                90
_cell_volume                     2210
_exptl_crystal_colour            red
_exptl_crystal_description       block
_cell_formula_units_Z            4
loop_
_atom_site_label
_atom_site_type_symbol
_atom_site_fract_x
_atom_site_fract_y
_atom_site_fract_z
N1 N 0.2149(3) -0.02501(19) 0.0823(3)
H1 H 0.2595 -0.0457 0.0434
N2 N 0.3571(4) 0.0942(2) 0.1325(3)
N3 N 0.4316(4) 0.0688(2) 0.0786(3)
O1 O 0.3016(3) 0.16284(16) 0.3143(2)
O2 O 0.0796(3) 0.11556(16) 0.3393(2)
O3 O 0.5964(4) 0.12740(17) -0.0083(3)
O4 O 0.6780(3) 0.09907(17) 0.1735(3)
S1 S 0.16001(14) 0.13923(7) 0.27309(10)
S2 S 0.57370(15) 0.12980(7) 0.08874(14)
C1 C 0.2487(5) 0.0447(3) 0.1363(3)
C2 C 0.1543(4) 0.0589(2) 0.1903(3)
C3 C 0.0566(5) -0.0050(2) 0.1683(3)
C4 C 0.0980(5) -0.0564(3) 0.1006(3)
C5 C 0.0266(5) -0.1268(2) 0.0627(4)
H2 H 0.0563 -0.1606 0.0190
C6 C -0.0886(5) -0.1435(3) 0.0927(4)
H3 H -0.1376 -0.1906 0.0700
C7 C -0.1353(5) -0.0927(3) 0.1560(4)
H4 H -0.2171 -0.1053 0.1717
C8 C -0.0646(5) -0.0244(3) 0.1961(3)
H5 H -0.0955 0.0082 0.2404
C9 C 0.0731(5) 0.2189(2) 0.1968(3)
C10 C -0.0603(5) 0.2367(3) 0.1945(4)
H6 H -0.1056 0.2068 0.2328
C11 C -0.1283(5) 0.3002(3) 0.1339(4)
H7 H -0.2190 0.3129 0.1324
C12 C -0.0615(6) 0.3437(3) 0.0768(4)
C13 C 0.0724(5) 0.3249(3) 0.0801(4)
H8 H 0.1182 0.3543 0.0416
C14 C 0.1394(5) 0.2629(3) 0.1399(4)
H9 H 0.2305 0.2506 0.1419
C15 C -0.1374(5) 0.4117(3) 0.0114(4)
H10 H -0.2297 0.3947 -0.0226
H11 H -0.0893 0.4259 -0.0374
H12 H -0.1412 0.4576 0.0529
C16 C 0.5291(4) 0.2271(3) 0.1142(4)
C17 C 0.5529(5) 0.2535(3) 0.2113(4)
H13 H 0.5906 0.2185 0.2643
C18 C 0.5214(5) 0.3317(4) 0.2314(4)
H14 H 0.5383 0.3491 0.2978
C19 C 0.4654(5) 0.3837(3) 0.1539(5)
C20 C 0.4400(4) 0.3572(3) 0.0575(4)
H15 H 0.4003 0.3923 0.0049
C21 C 0.4715(4) 0.2789(3) 0.0350(4)
H16 H 0.4544 0.2618 -0.0315
C22 C 0.4289(6) 0.4694(3) 0.1768(5)
H17 H 0.4612 0.5065 0.1349
H18 H 0.4723 0.4814 0.2464
H19 H 0.3303 0.4743 0.1635
loop_
_geom_bond_atom_site_label_1
_geom_bond_atom_site_label_2
_geom_bond_site_symmetry_1
_geom_bond_site_symmetry_2
N1 H1 1_555 1_555
N2 N3 1_555 1_555
N3 S2 1_555 1_555
O1 S1 1_555 1_555
O2 S1 1_555 1_555
O3 S2 1_555 1_555
O4 S2 1_555 1_555
S1 C2 1_555 1_555
S2 C16 1_555 1_555
C1 N1 1_555 1_555
C2 C1 1_555 1_555
C3 C2 1_555 1_555
C4 N1 1_555 1_555
C5 C4 1_555 1_555
H2 C5 1_555 1_555
C6 C5 1_555 1_555
H3 C6 1_555 1_555
C7 C6 1_555 1_555
H4 C7 1_555 1_555
C8 C3 1_555 1_555
H5 C8 1_555 1_555
C9 S1 1_555 1_555
C10 C9 1_555 1_555
H6 C10 1_555 1_555
C11 C10 1_555 1_555
H7 C11 1_555 1_555
C12 C11 1_555 1_555
C13 C12 1_555 1_555
H8 C13 1_555 1_555
C14 C9 1_555 1_555
H9 C14 1_555 1_555
C15 C12 1_555 1_555
H10 C15 1_555 1_555
H11 C15 1_555 1_555
H12 C15 1_555 1_555
C16 C17 1_555 1_555
C17 H13 1_555 1_555
C18 C17 1_555 1_555
H14 C18 1_555 1_555
C19 C18 1_555 1_555
C20 C19 1_555 1_555
H15 C20 1_555 1_555
C21 C16 1_555 1_555
H16 C21 1_555 1_555
C22 C19 1_555 1_555
H17 C22 1_555 1_555
H18 C22 1_555 1_555
H19 C22 1_555 1_555
N2 C1 1_555 1_555
C3 C4 1_555 1_555
C7 C8 1_555 1_555
C13 C14 1_555 1_555
C20 C21 1_555 1_555

#END
