
#######################################################################
#
#                 Cambridge Crystallographic Data Centre
#                                CCDC 
#
#######################################################################
#
# If this CIF has been generated from an entry in the Cambridge 
# Structural Database, then it will include bibliographic, chemical, 
# crystal, experimental, refinement or atomic coordinate data resulting 
# from the CCDC's data processing and validation procedures.
#
#######################################################################

data_PULHUB
_chemical_formula_moiety         'C15 H13 N3 O2 S1'
_chemical_name_systematic        
3-methyl-2-((phenylsulfonyl)diazenyl)-1H-indole
_symmetry_cell_setting           triclinic
_symmetry_space_group_name_H-M   'P -1'
_symmetry_Int_Tables_number      2
_space_group_name_Hall           '-P 1'
loop_
_symmetry_equiv_pos_site_id
_symmetry_equiv_pos_as_xyz
1 x,y,z
2 -x,-y,-z
_cell_length_a                   7.1000(8)
_cell_length_b                   9.2299(11)
_cell_length_c                   12.3601(13)
_cell_angle_alpha                94.1800(10)
_cell_angle_beta                 104.161(2)
_cell_angle_gamma                111.952(3)
_cell_volume                     716.164
_exptl_crystal_colour            red
_exptl_crystal_description       block
_cell_formula_units_Z            2
loop_
_atom_site_label
_atom_site_type_symbol
_atom_site_fract_x
_atom_site_fract_y
_atom_site_fract_z
S1 S 0.3765(6) 0.9616(4) 0.2438(3)
N1 N 0.2927(13) 0.6491(10) 0.4978(7)
H1 H 0.3199 0.7425 0.5319
N2 N 0.3105(14) 0.7032(10) 0.3097(7)
N3 N 0.3559(15) 0.8496(10) 0.3470(7)
O1 O 0.5622(16) 1.1053(9) 0.2982(7)
O2 O 0.1763(15) 0.9674(10) 0.2053(8)
C1 C 0.2818(17) 0.6101(13) 0.3877(9)
C2 C 0.2313(16) 0.4447(12) 0.3632(9)
C3 C 0.2083(16) 0.3902(12) 0.4626(9)
C4 C 0.2544(16) 0.5193(12) 0.5446(10)
C5 C 0.2449(17) 0.5008(14) 0.6563(9)
H2 H 0.2683 0.5861 0.7103
C6 C 0.2001(17) 0.3531(14) 0.6805(10)
H3 H 0.1961 0.3386 0.7537
C7 C 0.1603(17) 0.2236(13) 0.6025(11)
H4 H 0.1284 0.1249 0.6242
C8 C 0.1662(17) 0.2361(12) 0.4933(10)
H5 H 0.1441 0.1489 0.4414
C9 C 0.194(2) 0.3524(14) 0.2504(10)
H6 H 0.2565 0.2767 0.2602
H7 H 0.2563 0.4235 0.2039
H8 H 0.0435 0.2974 0.2144
C10 C 0.424(2) 0.8638(15) 0.1357(10)
C11 C 0.252(2) 0.7415(15) 0.0517(11)
H9 H 0.1118 0.7154 0.0519
C12 C 0.298(3) 0.6649(17) -0.0282(11)
H10 H 0.1872 0.5823 -0.0821
C13 C 0.499(3) 0.7027(18) -0.0337(11)
H11 H 0.5226 0.6438 -0.0892
C14 C 0.668(2) 0.8267(18) 0.0418(13)
H12 H 0.8051 0.8555 0.0363
C15 C 0.627(3) 0.9085(16) 0.1271(11)
H13 H 0.7385 0.9938 0.1786
loop_
_geom_bond_atom_site_label_1
_geom_bond_atom_site_label_2
_geom_bond_site_symmetry_1
_geom_bond_site_symmetry_2
S1 N3 1_555 1_555
N1 H1 1_555 1_555
N2 N3 1_555 1_555
O1 S1 1_555 1_555
O2 S1 1_555 1_555
C1 N1 1_555 1_555
C2 C1 1_555 1_555
C3 C2 1_555 1_555
C4 N1 1_555 1_555
C5 C4 1_555 1_555
H2 C5 1_555 1_555
C6 C5 1_555 1_555
H3 C6 1_555 1_555
C7 C6 1_555 1_555
H4 C7 1_555 1_555
C8 C3 1_555 1_555
H5 C8 1_555 1_555
C9 C2 1_555 1_555
H6 C9 1_555 1_555
H7 C9 1_555 1_555
H8 C9 1_555 1_555
C10 S1 1_555 1_555
C11 C10 1_555 1_555
H9 C11 1_555 1_555
C12 C11 1_555 1_555
H10 C12 1_555 1_555
C13 C12 1_555 1_555
H11 C13 1_555 1_555
C14 C13 1_555 1_555
H12 C14 1_555 1_555
C15 C10 1_555 1_555
H13 C15 1_555 1_555
N2 C1 1_555 1_555
C3 C4 1_555 1_555
C7 C8 1_555 1_555
C14 C15 1_555 1_555

#END
