
#######################################################################
#
#                 Cambridge Crystallographic Data Centre
#                                CCDC 
#
#######################################################################
#
# If this CIF has been generated from an entry in the Cambridge 
# Structural Database, then it will include bibliographic, chemical, 
# crystal, experimental, refinement or atomic coordinate data resulting 
# from the CCDC's data processing and validation procedures.
#
#######################################################################

data_PULJIR
_chemical_formula_moiety         'C20 H18 Br1 F1 N2 O5'
_chemical_name_systematic        
'ethyl 6-(4-bromophenyl)-3-fluoro-5-nitro-2-oxo-4-phenylpiperidine-3-carboxylate'
_symmetry_cell_setting           monoclinic
_symmetry_space_group_name_H-M   'C 2'
_symmetry_Int_Tables_number      5
_space_group_name_Hall           'C 2y'
loop_
_symmetry_equiv_pos_site_id
_symmetry_equiv_pos_as_xyz
1 x,y,z
2 -x,y,-z
3 1/2+x,1/2+y,z
4 1/2-x,1/2+y,-z
_cell_length_a                   22.744(3)
_cell_length_b                   7.5503(4)
_cell_length_c                   16.0634(18)
_cell_angle_alpha                90
_cell_angle_beta                 131.075(18)
_cell_angle_gamma                90
_cell_volume                     2079.47
_exptl_crystal_colour            colorless
_exptl_crystal_description       prism
_cell_formula_units_Z            4
_exptl_crystal_recrystallization_method 'dichloromethane/ hexanes'
loop_
_atom_site_label
_atom_site_type_symbol
_atom_site_fract_x
_atom_site_fract_y
_atom_site_fract_z
Br1 Br -0.19087(3) 0.58663(11) -0.07922(5)
F1 F 0.31525(19) 0.7926(4) 0.3454(2)
O1 O 0.3060(2) 0.6510(7) 0.5054(3)
O2 O 0.3848(2) 1.0447(6) 0.5781(3)
O3 O 0.4423(2) 0.8836(6) 0.5324(3)
O4 O 0.0946(3) 1.1481(7) 0.0786(4)
O5 O 0.1141(3) 1.2639(6) 0.2166(5)
N1 N 0.1881(2) 0.7714(7) 0.3698(3)
H1 H 0.1663 0.6846 0.3777
N2 N 0.1222(2) 1.1458(6) 0.1732(4)
C1 C 0.2655(3) 0.7619(8) 0.4332(4)
C2 C 0.3034(3) 0.8920(7) 0.4073(4)
C3 C 0.2541(2) 1.0547(7) 0.3394(4)
H2 H 0.2513 1.1315 0.3875
C4 C 0.1715(3) 0.9891(7) 0.2438(4)
H3 H 0.1726 0.8996 0.1989
C5 C 0.1349(3) 0.9078(7) 0.2889(4)
H4 H 0.1292 1.0026 0.3267
C6 C 0.0552(3) 0.8265(7) 0.1977(4)
C7 C -0.0111(3) 0.9252(8) 0.1529(4)
H5 H -0.0064 1.0420 0.1785
C8 C -0.0850(3) 0.8521(9) 0.0695(5)
H6 H -0.1307 0.9195 0.0378
C9 C -0.0907(3) 0.6843(9) 0.0344(4)
C10 C -0.0258(3) 0.5836(9) 0.0778(4)
H7 H -0.0311 0.4667 0.0518
C11 C 0.0486(3) 0.6566(7) 0.1612(4)
H8 H 0.0940 0.5889 0.1922
C12 C 0.2910(3) 1.1633(7) 0.3043(4)
C13 C 0.2863(3) 1.1110(8) 0.2172(4)
H9 H 0.2576 1.0080 0.1759
C14 C 0.3235(4) 1.2090(9) 0.1903(5)
H10 H 0.3201 1.1733 0.1305
C15 C 0.3658(4) 1.3592(9) 0.2510(6)
H11 H 0.3914 1.4257 0.2327
C16 C 0.3710(4) 1.4127(9) 0.3378(7)
H12 H 0.4002 1.5152 0.3794
C17 C 0.3328(3) 1.3144(8) 0.3637(5)
H13 H 0.3356 1.3515 0.4227
C18 C 0.3817(3) 0.9497(7) 0.5162(4)
C19 C 0.5186(3) 0.9350(11) 0.6367(5)
H14 H 0.5172 1.0606 0.6530
H15 H 0.5587 0.9226 0.6301
C20 C 0.5394(4) 0.8208(12) 0.7285(5)
H16 H 0.5952 0.8321 0.7923
H17 H 0.5272 0.6970 0.7041
H18 H 0.5094 0.8582 0.7494
loop_
_geom_bond_atom_site_label_1
_geom_bond_atom_site_label_2
_geom_bond_site_symmetry_1
_geom_bond_site_symmetry_2
Br1 C9 1_555 1_555
F1 C2 1_555 1_555
O1 C1 1_555 1_555
O2 C18 1_555 1_555
O3 C18 1_555 1_555
O4 N2 1_555 1_555
O5 N2 1_555 1_555
N1 H1 1_555 1_555
N2 C4 1_555 1_555
C1 N1 1_555 1_555
C2 C1 1_555 1_555
C3 C2 1_555 1_555
H2 C3 1_555 1_555
C4 C3 1_555 1_555
H3 C4 1_555 1_555
C5 N1 1_555 1_555
H4 C5 1_555 1_555
C6 C5 1_555 1_555
C7 C6 1_555 1_555
H5 C7 1_555 1_555
C8 C7 1_555 1_555
H6 C8 1_555 1_555
C9 C8 1_555 1_555
C10 C9 1_555 1_555
H7 C10 1_555 1_555
C11 C6 1_555 1_555
H8 C11 1_555 1_555
C12 C3 1_555 1_555
C13 C12 1_555 1_555
H9 C13 1_555 1_555
C14 C13 1_555 1_555
H10 C14 1_555 1_555
C15 C14 1_555 1_555
H11 C15 1_555 1_555
C16 C15 1_555 1_555
H12 C16 1_555 1_555
C17 C12 1_555 1_555
H13 C17 1_555 1_555
C18 C2 1_555 1_555
C19 O3 1_555 1_555
H14 C19 1_555 1_555
H15 C19 1_555 1_555
C20 C19 1_555 1_555
H16 C20 1_555 1_555
H17 C20 1_555 1_555
H18 C20 1_555 1_555
C4 C5 1_555 1_555
C10 C11 1_555 1_555
C16 C17 1_555 1_555

#END
