
#######################################################################
#
#                 Cambridge Crystallographic Data Centre
#                                CCDC 
#
#######################################################################
#
# If this CIF has been generated from an entry in the Cambridge 
# Structural Database, then it will include bibliographic, chemical, 
# crystal, experimental, refinement or atomic coordinate data resulting 
# from the CCDC's data processing and validation procedures.
#
#######################################################################

data_PULQEU
_chemical_formula_moiety         'C27 H19 N3 O3'
_chemical_name_systematic        
1,1''-dimethyl-2,2''-dioxo-5'-phenyl-1,1'',2,2''-tetrahydrodispiro[indole-3,2'-furan-3',3''-indole]-4'-carbonitrile
_symmetry_cell_setting           monoclinic
_symmetry_space_group_name_H-M   'C 2/c'
_symmetry_Int_Tables_number      15
_space_group_name_Hall           '-C 2yn'
loop_
_symmetry_equiv_pos_site_id
_symmetry_equiv_pos_as_xyz
1 x,y,z
2 -x,y,1/2-z
3 1/2+x,1/2+y,z
4 1/2-x,1/2+y,1/2-z
5 -x,-y,-z
6 x,-y,1/2+z
7 1/2-x,1/2-y,-z
8 1/2+x,1/2-y,1/2+z
_cell_length_a                   21.917(6)
_cell_length_b                   9.529(2)
_cell_length_c                   23.123(8)
_cell_angle_alpha                90
_cell_angle_beta                 115.112(4)
_cell_angle_gamma                90
_cell_volume                     4372.72
_exptl_crystal_colour            colorless
_exptl_crystal_description       block
_cell_formula_units_Z            8
loop_
_atom_site_label
_atom_site_type_symbol
_atom_site_fract_x
_atom_site_fract_y
_atom_site_fract_z
N1 N 0.44875(7) 0.47961(14) 0.07253(7)
N2 N 0.33049(8) 0.06556(15) 0.05750(7)
N3 N 0.64576(9) 0.1984(2) 0.10174(9)
O1 O 0.51575(7) 0.43808(13) 0.17827(6)
O2 O 0.48479(6) 0.08421(12) 0.18107(5)
O3 O 0.42182(7) -0.06043(13) 0.06220(7)
C1 C 0.43100(8) 0.40560(17) 0.01536(8)
C2 C 0.44996(8) 0.26556(17) 0.02811(8)
C3 C 0.44057(9) 0.1755(2) -0.02136(8)
H1 H 0.4531 0.0817 -0.0134
C4 C 0.41226(10) 0.2268(2) -0.08316(9)
H2 H 0.4059 0.1669 -0.1170
C5 C 0.39346(10) 0.3645(3) -0.09508(10)
H3 H 0.3744 0.3965 -0.1370
C6 C 0.40211(9) 0.4573(2) -0.04628(10)
H4 H 0.3890 0.5507 -0.0546
C7 C 0.48072(8) 0.24494(16) 0.09966(8)
C8 C 0.48553(8) 0.39834(18) 0.12370(9)
C9 C 0.43561(10) 0.62790(18) 0.07653(11)
H5 H 0.4565 0.6574 0.1204
H6 H 0.3879 0.6432 0.0597
H7 H 0.4537 0.6811 0.0522
C10 C 0.54684(8) 0.16711(17) 0.13204(8)
C11 C 0.54522(8) 0.08310(17) 0.17770(8)
C12 C 0.43656(8) 0.15480(16) 0.12497(7)
C13 C 0.39702(10) 0.03839(17) 0.07734(8)
C14 C 0.38229(8) 0.22824(16) 0.13641(8)
C15 C 0.32067(9) 0.17543(18) 0.09353(8)
C16 C 0.26105(10) 0.2255(2) 0.09141(11)
H8 H 0.2198 0.1914 0.0618
C17 C 0.26438(11) 0.3286(2) 0.13480(12)
H9 H 0.2246 0.3653 0.1338
C18 C 0.32483(11) 0.3778(2) 0.17907(11)
H10 H 0.3257 0.4450 0.2086
C19 C 0.38489(9) 0.32819(19) 0.18034(9)
H11 H 0.4260 0.3618 0.2102
C20 C 0.27787(11) -0.0296(2) 0.01639(11)
H12 H 0.2960 -0.0913 -0.0053
H13 H 0.2415 0.0237 -0.0145
H14 H 0.2615 -0.0840 0.0418
C21 C 0.60209(9) 0.18404(19) 0.11610(9)
C22 C 0.59535(9) -0.01358(18) 0.22212(8)
C23 C 0.66293(10) 0.0181(2) 0.25011(10)
H15 H 0.6781 0.1038 0.2421
C24 C 0.70841(12) -0.0790(3) 0.29048(12)
H16 H 0.7542 -0.0578 0.3098
C25 C 0.68607(14) -0.2056(3) 0.30191(12)
H17 H 0.7168 -0.2701 0.3290
C26 C 0.61914(13) -0.2381(3) 0.27396(12)
H18 H 0.6043 -0.3245 0.2817
C27 C 0.57370(10) -0.1423(2) 0.23432(9)
H19 H 0.5280 -0.1641 0.2155
loop_
_geom_bond_atom_site_label_1
_geom_bond_atom_site_label_2
_geom_bond_site_symmetry_1
_geom_bond_site_symmetry_2
N1 C1 1_555 1_555
N2 C13 1_555 1_555
N3 C21 1_555 1_555
O1 C8 1_555 1_555
O2 C11 1_555 1_555
O3 C13 1_555 1_555
C1 C2 1_555 1_555
C2 C3 1_555 1_555
C3 H1 1_555 1_555
C4 C3 1_555 1_555
H2 C4 1_555 1_555
C5 C4 1_555 1_555
H3 C5 1_555 1_555
C6 C1 1_555 1_555
H4 C6 1_555 1_555
C7 C2 1_555 1_555
C8 N1 1_555 1_555
C9 N1 1_555 1_555
H5 C9 1_555 1_555
H6 C9 1_555 1_555
H7 C9 1_555 1_555
C10 C7 1_555 1_555
C11 C10 1_555 1_555
C12 O2 1_555 1_555
C13 C12 1_555 1_555
C14 C12 1_555 1_555
C15 N2 1_555 1_555
C16 C15 1_555 1_555
H8 C16 1_555 1_555
C17 C16 1_555 1_555
H9 C17 1_555 1_555
C18 C17 1_555 1_555
H10 C18 1_555 1_555
C19 C14 1_555 1_555
H11 C19 1_555 1_555
C20 N2 1_555 1_555
H12 C20 1_555 1_555
H13 C20 1_555 1_555
H14 C20 1_555 1_555
C21 C10 1_555 1_555
C22 C11 1_555 1_555
C23 C22 1_555 1_555
H15 C23 1_555 1_555
C24 C23 1_555 1_555
H16 C24 1_555 1_555
C25 C24 1_555 1_555
H17 C25 1_555 1_555
C26 C25 1_555 1_555
H18 C26 1_555 1_555
C27 C22 1_555 1_555
H19 C27 1_555 1_555
C5 C6 1_555 1_555
C7 C8 1_555 1_555
C7 C12 1_555 1_555
C14 C15 1_555 1_555
C18 C19 1_555 1_555
C26 C27 1_555 1_555

#END
