
#######################################################################
#
#                 Cambridge Crystallographic Data Centre
#                                CCDC 
#
#######################################################################
#
# If this CIF has been generated from an entry in the Cambridge 
# Structural Database, then it will include bibliographic, chemical, 
# crystal, experimental, refinement or atomic coordinate data resulting 
# from the CCDC's data processing and validation procedures.
#
#######################################################################

data_PULSIZ
_chemical_name_common            
'(E)-Methyl 2-(4-fluorostyryl)-5-oxo-3-phenyl-2,5-dihydrofuran-2-carboxylate'
_chemical_formula_moiety         'C20 H15 F1 O4'
_chemical_name_systematic        
'(E)-Methyl 2-(2-(4-fluorophenyl)vinyl)-5-oxo-3-phenyl-2,5-dihydrofuran-2-carboxylate'
_symmetry_cell_setting           triclinic
_symmetry_space_group_name_H-M   'P -1'
_symmetry_Int_Tables_number      2
_space_group_name_Hall           '-P 1'
loop_
_symmetry_equiv_pos_site_id
_symmetry_equiv_pos_as_xyz
1 x,y,z
2 -x,-y,-z
_cell_length_a                   6.4007(4)
_cell_length_b                   8.3512(7)
_cell_length_c                   15.9954(14)
_cell_angle_alpha                93.237(3)
_cell_angle_beta                 90.240(3)
_cell_angle_gamma                102.451(4)
_cell_volume                     833.452
_exptl_crystal_colour            colorless
_exptl_crystal_description       platelet
_chemical_melting_point          110-111deg.C
_cell_formula_units_Z            2
loop_
_atom_site_label
_atom_site_type_symbol
_atom_site_fract_x
_atom_site_fract_y
_atom_site_fract_z
F1 F -0.0439(6) 0.9145(4) 0.63910(18)
O1 O -0.1717(4) 0.3077(4) 0.09165(19)
O2 O 0.0512(3) 0.3478(2) 0.20278(14)
O3 O 0.3664(4) 0.1927(3) 0.19686(18)
O4 O 0.5260(4) 0.3526(3) 0.30585(17)
C1 C 0.2616(5) 0.4448(4) 0.2255(2)
C2 C 0.3345(5) 0.5343(4) 0.1468(2)
C3 C 0.1809(6) 0.4890(5) 0.0893(2)
C4 C 0.0001(6) 0.3748(5) 0.1224(2)
C5 C 0.5370(5) 0.6525(4) 0.1381(2)
C6 C 0.5714(7) 0.7372(5) 0.0653(2)
C7 C 0.7638(8) 0.8496(6) 0.0556(2)
C8 C 0.9170(7) 0.8851(5) 0.1179(3)
C9 C 0.8865(6) 0.8031(5) 0.1893(2)
C10 C 0.6977(6) 0.6871(4) 0.1994(2)
C11 C 0.3994(5) 0.3260(4) 0.2487(2)
C12 C 0.4912(8) 0.0714(5) 0.2155(3)
C13 C 0.2427(5) 0.5582(4) 0.3008(2)
C14 C 0.0649(5) 0.5573(4) 0.3430(2)
C15 C 0.0430(6) 0.6587(4) 0.4191(2)
C16 C 0.2132(7) 0.7599(5) 0.4621(2)
C17 C 0.1898(8) 0.8460(6) 0.5358(2)
C18 C -0.0109(10) 0.8309(5) 0.5653(2)
C19 C -0.1897(8) 0.7351(6) 0.5263(2)
C20 C -0.1579(7) 0.6480(5) 0.4526(2)
H1 H 0.1875 0.5252 0.0353
H2 H 0.4666 0.7189 0.0232
H3 H 0.7888 0.9018 0.0057
H4 H 1.0410 0.9648 0.1113
H5 H 0.9913 0.8244 0.2313
H6 H 0.6786 0.6312 0.2484
H7 H 0.3652 0.6343 0.3189
H8 H -0.0583 0.4852 0.3224
H9 H 0.3494 0.7701 0.4402
H10 H 0.3071 0.9120 0.5643
H11 H -0.3255 0.7288 0.5480
H12 H -0.2753 0.5803 0.4250
H13 H 0.6409 0.1193 0.2111
H14 H 0.4528 -0.0220 0.1763
H15 H 0.4619 0.0371 0.2713
loop_
_geom_bond_atom_site_label_1
_geom_bond_atom_site_label_2
_geom_bond_site_symmetry_1
_geom_bond_site_symmetry_2
F1 C18 1_555 1_555
O1 C4 1_555 1_555
O2 C1 1_555 1_555
O3 C11 1_555 1_555
O4 C11 1_555 1_555
C1 C2 1_555 1_555
C2 C3 1_555 1_555
C3 C4 1_555 1_555
C4 O2 1_555 1_555
C5 C2 1_555 1_555
C6 C5 1_555 1_555
C7 C6 1_555 1_555
C8 C7 1_555 1_555
C9 C8 1_555 1_555
C10 C5 1_555 1_555
C11 C1 1_555 1_555
C12 O3 1_555 1_555
C13 C1 1_555 1_555
C14 C13 1_555 1_555
C15 C14 1_555 1_555
C16 C15 1_555 1_555
C17 C16 1_555 1_555
C18 C17 1_555 1_555
C19 C18 1_555 1_555
C20 C15 1_555 1_555
H1 C3 1_555 1_555
H2 C6 1_555 1_555
H3 C7 1_555 1_555
H4 C8 1_555 1_555
H5 C9 1_555 1_555
H6 C10 1_555 1_555
H7 C13 1_555 1_555
H8 C14 1_555 1_555
H9 C16 1_555 1_555
H10 C17 1_555 1_555
H11 C19 1_555 1_555
H12 C20 1_555 1_555
H13 C12 1_555 1_555
H14 C12 1_555 1_555
H15 C12 1_555 1_555
C9 C10 1_555 1_555
C19 C20 1_555 1_555

#END
