
#######################################################################
#
#                 Cambridge Crystallographic Data Centre
#                                CCDC 
#
#######################################################################
#
# If this CIF has been generated from an entry in the Cambridge 
# Structural Database, then it will include bibliographic, chemical, 
# crystal, experimental, refinement or atomic coordinate data resulting 
# from the CCDC's data processing and validation procedures.
#
#######################################################################

data_PULYOM
_chemical_formula_moiety         'C22 H31 N3'
_chemical_name_systematic        
4,4'-(1-methylpiperidine-4,4-diyl)bis(2,6-dimethylaniline)
_symmetry_cell_setting           monoclinic
_symmetry_space_group_name_H-M   'P 21/n'
_symmetry_Int_Tables_number      14
_space_group_name_Hall           '-P 2yn'
loop_
_symmetry_equiv_pos_site_id
_symmetry_equiv_pos_as_xyz
1 x,y,z
2 1/2-x,1/2+y,1/2-z
3 -x,-y,-z
4 1/2+x,1/2-y,1/2+z
_cell_length_a                   10.917(1)
_cell_length_b                   9.919(1)
_cell_length_c                   18.850(1)
_cell_angle_alpha                90
_cell_angle_beta                 103.81(1)
_cell_angle_gamma                90
_cell_volume                     1982.18
_exptl_crystal_colour            yellow
_exptl_crystal_description       block
_cell_formula_units_Z            4
loop_
_atom_site_label
_atom_site_type_symbol
_atom_site_fract_x
_atom_site_fract_y
_atom_site_fract_z
C1 C 0.3677(2) 0.3063(3) 0.41181(14)
C2 C 0.3538(2) 0.1514(3) 0.41765(16)
H1 H 0.3368 0.1127 0.3690
H2 H 0.4329 0.1142 0.4455
C3 C 0.2494(3) 0.1113(3) 0.45378(17)
H3 H 0.1693 0.1442 0.4248
H4 H 0.2447 0.0138 0.4559
N1 N 0.2716(2) 0.1663(3) 0.52748(14)
C4 C 0.1754(3) 0.1224(4) 0.5642(2)
H5 H 0.0938 0.1493 0.5361
H6 H 0.1908 0.1630 0.6118
H7 H 0.1782 0.0260 0.5691
C5 C 0.2753(3) 0.3131(3) 0.52471(16)
H8 H 0.2893 0.3492 0.5738
H9 H 0.1949 0.3467 0.4966
C6 C 0.3800(3) 0.3602(3) 0.49002(15)
H10 H 0.4605 0.3315 0.5204
H11 H 0.3800 0.4580 0.4887
C7 C 0.4888(2) 0.3405(3) 0.38731(15)
C8 C 0.4887(3) 0.4204(3) 0.32635(15)
H12 H 0.4122 0.4548 0.2998
C9 C 0.5973(3) 0.4511(3) 0.30340(16)
C10 C 0.5895(3) 0.5379(4) 0.23720(19)
H13 H 0.5036 0.5648 0.2177
H14 H 0.6189 0.4879 0.2009
H15 H 0.6411 0.6166 0.2507
C11 C 0.7127(3) 0.3997(3) 0.34265(18)
N2 N 0.8234(3) 0.4290(4) 0.3216(2)
H16 H 0.898(3) 0.398(5) 0.347(3)
H17 H 0.821(5) 0.472(5) 0.2793(17)
C12 C 0.7179(2) 0.3222(3) 0.40532(17)
C13 C 0.8429(3) 0.2733(4) 0.4498(2)
H18 H 0.8301 0.2205 0.4901
H19 H 0.8957 0.3492 0.4679
H20 H 0.8829 0.2188 0.4197
C14 C 0.6073(2) 0.2941(3) 0.42584(16)
H21 H 0.6117 0.2417 0.4673
C15 C 0.2536(2) 0.3672(3) 0.35741(15)
C16 C 0.2034(2) 0.3047(3) 0.29035(16)
H22 H 0.2353 0.2212 0.2812
C17 C 0.1076(3) 0.3623(3) 0.23653(16)
C18 C 0.0621(3) 0.2912(4) 0.16458(18)
H23 H 0.1092 0.2095 0.1647
H24 H 0.0738 0.3486 0.1258
H25 H -0.0258 0.2700 0.1574
C19 C 0.0569(2) 0.4856(3) 0.25061(17)
N3 N -0.0493(3) 0.5393(4) 0.19998(17)
H26 H -0.049(4) 0.631(2) 0.204(2)
H27 H -0.060(4) 0.499(4) 0.1566(15)
C20 C 0.1057(3) 0.5526(3) 0.31626(17)
C21 C 0.0552(4) 0.6874(4) 0.3320(2)
H28 H 0.0636 0.7505 0.2948
H29 H 0.1020 0.7191 0.3787
H30 H -0.0322 0.6786 0.3324
C22 C 0.2029(3) 0.4917(3) 0.36785(16)
H31 H 0.2353 0.5370 0.4115
loop_
_geom_bond_atom_site_label_1
_geom_bond_atom_site_label_2
_geom_bond_site_symmetry_1
_geom_bond_site_symmetry_2
C1 C2 1_555 1_555
C2 H1 1_555 1_555
H2 C2 1_555 1_555
C3 C2 1_555 1_555
H3 C3 1_555 1_555
H4 C3 1_555 1_555
N1 C3 1_555 1_555
C4 N1 1_555 1_555
H5 C4 1_555 1_555
H6 C4 1_555 1_555
H7 C4 1_555 1_555
C5 N1 1_555 1_555
H8 C5 1_555 1_555
H9 C5 1_555 1_555
C6 C1 1_555 1_555
H10 C6 1_555 1_555
H11 C6 1_555 1_555
C7 C1 1_555 1_555
C8 C7 1_555 1_555
H12 C8 1_555 1_555
C9 C8 1_555 1_555
C10 C9 1_555 1_555
H13 C10 1_555 1_555
H14 C10 1_555 1_555
H15 C10 1_555 1_555
C11 C9 1_555 1_555
N2 C11 1_555 1_555
H16 N2 1_555 1_555
H17 N2 1_555 1_555
C12 C11 1_555 1_555
C13 C12 1_555 1_555
H18 C13 1_555 1_555
H19 C13 1_555 1_555
H20 C13 1_555 1_555
C14 C7 1_555 1_555
H21 C14 1_555 1_555
C15 C1 1_555 1_555
C16 C15 1_555 1_555
H22 C16 1_555 1_555
C17 C16 1_555 1_555
C18 C17 1_555 1_555
H23 C18 1_555 1_555
H24 C18 1_555 1_555
H25 C18 1_555 1_555
C19 C17 1_555 1_555
N3 C19 1_555 1_555
H26 N3 1_555 1_555
H27 N3 1_555 1_555
C20 C19 1_555 1_555
C21 C20 1_555 1_555
H28 C21 1_555 1_555
H29 C21 1_555 1_555
H30 C21 1_555 1_555
C22 C15 1_555 1_555
H31 C22 1_555 1_555
C5 C6 1_555 1_555
C12 C14 1_555 1_555
C20 C22 1_555 1_555

#END
