
#######################################################################
#
#                 Cambridge Crystallographic Data Centre
#                                CCDC 
#
#######################################################################
#
# If this CIF has been generated from an entry in the Cambridge 
# Structural Database, then it will include bibliographic, chemical, 
# crystal, experimental, refinement or atomic coordinate data resulting 
# from the CCDC's data processing and validation procedures.
#
#######################################################################

data_PUMFOU
_chemical_name_common            'n-Pentyl (S)-naproxenate'
_chemical_formula_moiety         'C19 H24 O3'
_chemical_name_systematic        
'n-Pentyl (S)-2-(6-methoxy-2-naphthyl)propanoate'
_symmetry_cell_setting           orthorhombic
_symmetry_space_group_name_H-M   'P 21 21 21'
_symmetry_Int_Tables_number      19
_space_group_name_Hall           'P 2ac 2ab'
loop_
_symmetry_equiv_pos_site_id
_symmetry_equiv_pos_as_xyz
1 x,y,z
2 1/2-x,-y,1/2+z
3 -x,1/2+y,1/2-z
4 1/2+x,1/2-y,-z
_cell_length_a                   5.806(4)
_cell_length_b                   8.297(6)
_cell_length_c                   37.02(2)
_cell_angle_alpha                90
_cell_angle_beta                 90
_cell_angle_gamma                90
_cell_volume                     1783.34
_exptl_crystal_colour            colorless
_exptl_crystal_description       bar
_cell_formula_units_Z            4
loop_
_atom_site_label
_atom_site_type_symbol
_atom_site_fract_x
_atom_site_fract_y
_atom_site_fract_z
C1 C 0.1081(6) 0.5311(4) 1.03963(9)
C2 C -0.0278(6) 0.5728(4) 1.01085(9)
H1 H -0.1594 0.6346 1.0145
C3 C 0.0328(5) 0.5212(3) 0.97533(9)
C4 C 0.2381(5) 0.4298(3) 0.96968(10)
C5 C 0.3758(5) 0.3933(4) 1.00005(10)
H2 H 0.5107 0.3346 0.9969
C6 C 0.3152(6) 0.4423(4) 1.03412(11)
H3 H 0.4094 0.4175 1.0537
C7 C -0.1090(6) 0.5548(4) 0.94467(10)
H4 H -0.2428 0.6151 0.9475
C8 C -0.0500(6) 0.4991(4) 0.91125(10)
H5 H -0.1441 0.5233 0.8917
C9 C 0.1526(6) 0.4045(4) 0.90554(10)
C10 C 0.2905(5) 0.3730(4) 0.93432(10)
H6 H 0.4234 0.3125 0.9308
C11 C 0.2175(8) 0.3455(5) 0.86744(11)
H7 H 0.3481 0.2713 0.8696
C12 C 0.0144(9) 0.2535(6) 0.85132(13)
C13 C -0.1573(13) -0.0100(9) 0.84643(17)
H8 H -0.1916 -0.0890 0.8650
H9 H -0.2962 0.0518 0.8420
C14 C -0.0929(13) -0.0910(9) 0.81435(18)
H10 H 0.0544 -0.1431 0.8184
H11 H -0.0706 -0.0111 0.7955
C15 C -0.2573(12) -0.2138(8) 0.80089(18)
H12 H -0.4129 -0.1716 0.8024
H13 H -0.2485 -0.3090 0.8160
C16 C -0.2057(14) -0.2592(10) 0.7624(2)
H14 H -0.1933 -0.1619 0.7480
H15 H -0.0582 -0.3139 0.7615
C17 C -0.3833(14) -0.3647(12) 0.7463(2)
H16 H -0.3390 -0.3932 0.7222
H17 H -0.5280 -0.3089 0.7458
H18 H -0.3981 -0.4607 0.7606
C18 C -0.1442(8) 0.6552(5) 1.08315(12)
H19 H -0.1530 0.6747 1.1087
H20 H -0.2741 0.5918 1.0757
H21 H -0.1452 0.7562 1.0705
C19 C 0.2891(12) 0.4862(7) 0.84247(13)
H22 H 0.3288 0.4447 0.8191
H23 H 0.4197 0.5407 0.8527
H24 H 0.1632 0.5605 0.8402
O1 O -0.1379(9) 0.3143(6) 0.83364(14)
O2 O 0.0232(7) 0.0979(5) 0.85941(10)
O3 O 0.0657(5) 0.5695(3) 1.07501(7)
loop_
_geom_bond_atom_site_label_1
_geom_bond_atom_site_label_2
_geom_bond_site_symmetry_1
_geom_bond_site_symmetry_2
C1 C2 1_555 1_555
C2 H1 1_555 1_555
C3 C2 1_555 1_555
C4 C3 1_555 1_555
C5 C4 1_555 1_555
H2 C5 1_555 1_555
C6 C1 1_555 1_555
H3 C6 1_555 1_555
C7 C3 1_555 1_555
H4 C7 1_555 1_555
C8 C7 1_555 1_555
H5 C8 1_555 1_555
C9 C8 1_555 1_555
C10 C4 1_555 1_555
H6 C10 1_555 1_555
C11 C9 1_555 1_555
H7 C11 1_555 1_555
C12 C11 1_555 1_555
C13 H8 1_555 1_555
H9 C13 1_555 1_555
C14 C13 1_555 1_555
H10 C14 1_555 1_555
H11 C14 1_555 1_555
C15 C14 1_555 1_555
H12 C15 1_555 1_555
H13 C15 1_555 1_555
C16 C15 1_555 1_555
H14 C16 1_555 1_555
H15 C16 1_555 1_555
C17 C16 1_555 1_555
H16 C17 1_555 1_555
H17 C17 1_555 1_555
H18 C17 1_555 1_555
C18 H19 1_555 1_555
H20 C18 1_555 1_555
H21 C18 1_555 1_555
C19 C11 1_555 1_555
H22 C19 1_555 1_555
H23 C19 1_555 1_555
H24 C19 1_555 1_555
O1 C12 1_555 1_555
O2 C12 1_555 1_555
O3 C1 1_555 1_555
C5 C6 1_555 1_555
C9 C10 1_555 1_555
C13 O2 1_555 1_555
C18 O3 1_555 1_555

#END
