
#######################################################################
#
#                 Cambridge Crystallographic Data Centre
#                                CCDC 
#
#######################################################################
#
# If this CIF has been generated from an entry in the Cambridge 
# Structural Database, then it will include bibliographic, chemical, 
# crystal, experimental, refinement or atomic coordinate data resulting 
# from the CCDC's data processing and validation procedures.
#
#######################################################################

data_PUMHUB
_chemical_formula_moiety         'C28 H24 O1'
_chemical_name_systematic        
1-(Diphenylmethylene)-6-phenyl-1,3,3a,4,5,6-hexahydro-2H-inden-2-one
_symmetry_cell_setting           triclinic
_symmetry_space_group_name_H-M   'P -1'
_symmetry_Int_Tables_number      2
_space_group_name_Hall           '-P 1'
loop_
_symmetry_equiv_pos_site_id
_symmetry_equiv_pos_as_xyz
1 x,y,z
2 -x,-y,-z
_cell_length_a                   9.7357(11)
_cell_length_b                   10.5387(12)
_cell_length_c                   10.8870(12)
_cell_angle_alpha                71.062(2)
_cell_angle_beta                 82.357(2)
_cell_angle_gamma                88.115(2)
_cell_volume                     1047.11
_exptl_crystal_colour            colorless
_exptl_crystal_description       prismatic
_cell_formula_units_Z            2
loop_
_atom_site_label
_atom_site_type_symbol
_atom_site_fract_x
_atom_site_fract_y
_atom_site_fract_z
O1 O 0.99683(12) 0.65105(12) 0.35567(12)
C1 C 0.92387(16) 0.55671(16) 0.36469(16)
C2 C 0.78501(16) 0.52577(17) 0.44892(17)
H1 H 0.7154 0.5871 0.4079
H2 H 0.7907 0.5342 0.5342
C3 C 0.74782(15) 0.38147(16) 0.46264(16)
H3 H 0.7872 0.3207 0.5383
C4 C 0.59488(16) 0.34802(18) 0.47676(18)
H4 H 0.5524 0.3384 0.5651
H5 H 0.5491 0.4204 0.4166
C5 C 0.57717(17) 0.21897(18) 0.44779(18)
H6 H 0.4796 0.1949 0.4633
H7 H 0.6253 0.1474 0.5065
C6 C 0.63423(15) 0.23323(16) 0.30570(16)
H8 H 0.5703 0.2912 0.2502
C7 C 0.77277(15) 0.30358(15) 0.26786(16)
H9 H 0.8242 0.3043 0.1893
C8 C 0.82587(14) 0.36461(15) 0.33987(15)
C9 C 0.95220(15) 0.44914(15) 0.30224(15)
C10 C 1.07511(15) 0.42359(15) 0.24085(15)
C11 C 1.19110(16) 0.52121(16) 0.18366(15)
C12 C 1.16950(18) 0.65414(17) 0.11497(16)
H10 H 1.0795 0.6853 0.1077
C13 C 1.2800(2) 0.74134(19) 0.05694(17)
H11 H 1.2638 0.8304 0.0106
C14 C 1.4136(2) 0.6971(2) 0.06734(18)
H12 H 1.4877 0.7561 0.0281
C15 C 1.43717(18) 0.5662(2) 0.13545(19)
H13 H 1.5276 0.5363 0.1433
C16 C 1.32759(16) 0.47822(17) 0.19257(17)
H14 H 1.3448 0.3890 0.2376
C17 C 1.10156(15) 0.28704(17) 0.22935(17)
C18 C 1.13002(19) 0.2659(2) 0.1102(2)
H15 H 1.1353 0.3382 0.0330
C19 C 1.1510(2) 0.1348(3) 0.1053(3)
H16 H 1.1680 0.1200 0.0250
C20 C 1.1465(2) 0.0288(3) 0.2194(3)
H17 H 1.1592 -0.0579 0.2161
C21 C 1.1237(2) 0.0492(2) 0.3365(3)
H18 H 1.1239 -0.0230 0.4133
C22 C 1.10019(17) 0.17676(18) 0.3424(2)
H19 H 1.0830 0.1894 0.4237
C23 C 0.63673(15) 0.10137(15) 0.27979(15)
C24 C 0.75274(18) 0.02079(18) 0.29147(18)
H20 H 0.8307 0.0476 0.3180
C25 C 0.7550(2) -0.09792(19) 0.2646(2)
H21 H 0.8340 -0.1505 0.2733
C26 C 0.6417(2) -0.13922(19) 0.22513(19)
H22 H 0.6436 -0.2192 0.2061
C27 C 0.5250(2) -0.06157(19) 0.21390(18)
H23 H 0.4475 -0.0891 0.1873
C28 C 0.52237(17) 0.05657(17) 0.24176(16)
H24 H 0.4422 0.1075 0.2350
loop_
_geom_bond_atom_site_label_1
_geom_bond_atom_site_label_2
_geom_bond_site_symmetry_1
_geom_bond_site_symmetry_2
O1 C1 1_555 1_555
C1 C2 1_555 1_555
C2 H1 1_555 1_555
H2 C2 1_555 1_555
C3 C2 1_555 1_555
H3 C3 1_555 1_555
C4 C3 1_555 1_555
H4 C4 1_555 1_555
H5 C4 1_555 1_555
C5 C4 1_555 1_555
H6 C5 1_555 1_555
H7 C5 1_555 1_555
C6 C5 1_555 1_555
H8 C6 1_555 1_555
C7 C6 1_555 1_555
H9 C7 1_555 1_555
C8 C3 1_555 1_555
C9 C1 1_555 1_555
C10 C9 1_555 1_555
C11 C10 1_555 1_555
C12 C11 1_555 1_555
H10 C12 1_555 1_555
C13 C12 1_555 1_555
H11 C13 1_555 1_555
C14 C13 1_555 1_555
H12 C14 1_555 1_555
C15 C14 1_555 1_555
H13 C15 1_555 1_555
C16 C11 1_555 1_555
H14 C16 1_555 1_555
C17 C10 1_555 1_555
C18 C17 1_555 1_555
H15 C18 1_555 1_555
C19 C18 1_555 1_555
H16 C19 1_555 1_555
C20 C19 1_555 1_555
H17 C20 1_555 1_555
C21 C20 1_555 1_555
H18 C21 1_555 1_555
C22 C17 1_555 1_555
H19 C22 1_555 1_555
C23 C6 1_555 1_555
C24 C23 1_555 1_555
H20 C24 1_555 1_555
C25 C24 1_555 1_555
H21 C25 1_555 1_555
C26 C25 1_555 1_555
H22 C26 1_555 1_555
C27 C26 1_555 1_555
H23 C27 1_555 1_555
C28 C23 1_555 1_555
H24 C28 1_555 1_555
C7 C8 1_555 1_555
C8 C9 1_555 1_555
C15 C16 1_555 1_555
C21 C22 1_555 1_555
C27 C28 1_555 1_555

#END
