
#######################################################################
#
#                 Cambridge Crystallographic Data Centre
#                                CCDC 
#
#######################################################################
#
# If this CIF has been generated from an entry in the Cambridge 
# Structural Database, then it will include bibliographic, chemical, 
# crystal, experimental, refinement or atomic coordinate data resulting 
# from the CCDC's data processing and validation procedures.
#
#######################################################################

data_PUMJEN
_chemical_formula_moiety         'C27 H23 Br1'
_chemical_name_systematic        
3-(4-Bromophenyl)-8-(diphenylmethylene)tricyclo[4.2.0.0^1,3^]octane
_symmetry_cell_setting           monoclinic
_symmetry_space_group_name_H-M   'P 21/n'
_symmetry_Int_Tables_number      14
_space_group_name_Hall           '-P 2yn'
loop_
_symmetry_equiv_pos_site_id
_symmetry_equiv_pos_as_xyz
1 x,y,z
2 1/2-x,1/2+y,1/2-z
3 -x,-y,-z
4 1/2+x,1/2-y,1/2+z
_cell_length_a                   11.8933(15)
_cell_length_b                   8.0980(10)
_cell_length_c                   22.252(3)
_cell_angle_alpha                90
_cell_angle_beta                 103.831(2)
_cell_angle_gamma                90
_cell_volume                     2080.99
_exptl_crystal_colour            colorless
_exptl_crystal_description       prismatic
_cell_formula_units_Z            4
loop_
_atom_site_label
_atom_site_type_symbol
_atom_site_fract_x
_atom_site_fract_y
_atom_site_fract_z
Br1 Br 0.68832(3) 0.90518(4) 0.240766(16)
C1 C 0.1782(2) 0.4463(3) 0.10208(12)
C2 C 0.1284(2) 0.3271(4) 0.14208(14)
H1 H 0.0456 0.3099 0.1276
H2 H 0.1489 0.3542 0.1858
C3 C 0.2021(3) 0.1865(4) 0.12422(13)
H3 H 0.1571 0.1074 0.0947
C4 C 0.2623(2) 0.3186(3) 0.09427(12)
C5 C 0.3460(2) 0.2927(4) 0.05490(13)
H4 H 0.3581 0.3833 0.0287
H5 H 0.3494 0.1838 0.0373
C6 C 0.3922(2) 0.3116(3) 0.12348(13)
C7 C 0.4115(3) 0.1515(4) 0.16170(15)
H6 H 0.4375 0.0639 0.1386
H7 H 0.4696 0.1684 0.2000
C8 C 0.2958(3) 0.1060(4) 0.17531(15)
H8 H 0.2915 0.1473 0.2156
H9 H 0.2860 -0.0129 0.1748
C9 C 0.1503(2) 0.5957(3) 0.07793(11)
C10 C 0.0561(2) 0.6974(3) 0.09217(12)
C11 C 0.0237(2) 0.6846(4) 0.14746(13)
H10 H 0.0636 0.6122 0.1776
C12 C -0.0662(3) 0.7761(4) 0.15927(15)
H11 H -0.0876 0.7632 0.1966
C13 C -0.1241(3) 0.8862(4) 0.11607(16)
H12 H -0.1835 0.9501 0.1244
C14 C -0.0944(2) 0.9016(4) 0.06117(15)
H13 H -0.1346 0.9748 0.0315
C15 C -0.0047(2) 0.8090(3) 0.04921(13)
H14 H 0.0153 0.8217 0.0116
C16 C 0.2110(2) 0.6609(3) 0.03174(13)
C17 C 0.1781(2) 0.6134(4) -0.02931(14)
H15 H 0.1163 0.5410 -0.0420
C18 C 0.2358(3) 0.6720(5) -0.07208(15)
H16 H 0.2121 0.6400 -0.1133
C19 C 0.3277(3) 0.7771(5) -0.0536(2)
H17 H 0.3673 0.8158 -0.0821
C20 C 0.3606(3) 0.8241(4) 0.0062(2)
H18 H 0.4228 0.8959 0.0188
C21 C 0.3031(2) 0.7672(3) 0.04887(14)
H19 H 0.3269 0.8011 0.0899
C22 C 0.4594(2) 0.4595(3) 0.14956(14)
C23 C 0.5351(2) 0.5380(4) 0.12045(14)
H20 H 0.5412 0.5002 0.0819
C24 C 0.6016(2) 0.6705(4) 0.14671(14)
H21 H 0.6520 0.7203 0.1261
C25 C 0.5933(2) 0.7276(3) 0.20245(15)
C26 C 0.5180(3) 0.6568(4) 0.23275(15)
H22 H 0.5115 0.6973 0.2709
C27 C 0.4515(3) 0.5240(4) 0.20566(15)
H23 H 0.3997 0.4767 0.2260
loop_
_geom_bond_atom_site_label_1
_geom_bond_atom_site_label_2
_geom_bond_site_symmetry_1
_geom_bond_site_symmetry_2
Br1 C25 1_555 1_555
C1 C2 1_555 1_555
C2 H1 1_555 1_555
H2 C2 1_555 1_555
C3 C2 1_555 1_555
H3 C3 1_555 1_555
C4 C1 1_555 1_555
C5 C4 1_555 1_555
H4 C5 1_555 1_555
H5 C5 1_555 1_555
C6 C4 1_555 1_555
C7 C6 1_555 1_555
H6 C7 1_555 1_555
H7 C7 1_555 1_555
C8 C3 1_555 1_555
H8 C8 1_555 1_555
H9 C8 1_555 1_555
C9 C1 1_555 1_555
C10 C9 1_555 1_555
C11 C10 1_555 1_555
H10 C11 1_555 1_555
C12 C11 1_555 1_555
H11 C12 1_555 1_555
C13 C12 1_555 1_555
H12 C13 1_555 1_555
C14 C13 1_555 1_555
H13 C14 1_555 1_555
C15 C10 1_555 1_555
H14 C15 1_555 1_555
C16 C9 1_555 1_555
C17 C16 1_555 1_555
H15 C17 1_555 1_555
C18 C17 1_555 1_555
H16 C18 1_555 1_555
C19 C18 1_555 1_555
H17 C19 1_555 1_555
C20 C19 1_555 1_555
H18 C20 1_555 1_555
C21 C16 1_555 1_555
H19 C21 1_555 1_555
C22 C6 1_555 1_555
C23 C22 1_555 1_555
H20 C23 1_555 1_555
C24 C23 1_555 1_555
H21 C24 1_555 1_555
C25 C24 1_555 1_555
C26 C25 1_555 1_555
H22 C26 1_555 1_555
C27 C22 1_555 1_555
H23 C27 1_555 1_555
C3 C4 1_555 1_555
C5 C6 1_555 1_555
C7 C8 1_555 1_555
C14 C15 1_555 1_555
C20 C21 1_555 1_555
C26 C27 1_555 1_555

#END
