
#######################################################################
#
#                 Cambridge Crystallographic Data Centre
#                                CCDC 
#
#######################################################################
#
# If this CIF has been generated from an entry in the Cambridge 
# Structural Database, then it will include bibliographic, chemical, 
# crystal, experimental, refinement or atomic coordinate data resulting 
# from the CCDC's data processing and validation procedures.
#
#######################################################################

data_PUMLUF
_chemical_formula_moiety         'C16 H17 N1 O3 S2'
_chemical_name_systematic        
3-(1,3-Dithiolan-2-ylidene)-6-(4-methoxyphenyl)-1-methylpiperidine-2,4-dione
_symmetry_cell_setting           orthorhombic
_symmetry_space_group_name_H-M   'P n a 21'
_symmetry_Int_Tables_number      33
_space_group_name_Hall           'P 2c -2n'
loop_
_symmetry_equiv_pos_site_id
_symmetry_equiv_pos_as_xyz
1 x,y,z
2 -x,-y,1/2+z
3 1/2-x,1/2+y,1/2+z
4 1/2+x,1/2-y,z
_cell_length_a                   11.860(5)
_cell_length_b                   21.361(5)
_cell_length_c                   6.275(5)
_cell_angle_alpha                90
_cell_angle_beta                 90
_cell_angle_gamma                90
_cell_volume                     1589.72
_cell_formula_units_Z            4
loop_
_atom_site_label
_atom_site_type_symbol
_atom_site_fract_x
_atom_site_fract_y
_atom_site_fract_z
S1 S 0.58909(8) 0.15714(5) -0.20956(18)
S2 S 0.39741(8) 0.20577(5) -0.4485(2)
O1 O 0.5193(3) 0.09992(13) 0.1314(5)
O2 O 0.0836(2) -0.15454(13) -0.2627(5)
C1 C 0.1899(3) 0.00356(17) 0.0649(7)
C2 C 0.3710(3) 0.13539(16) -0.0864(7)
C3 C 0.2496(4) 0.14090(19) -0.1130(10)
C4 C 0.2251(4) 0.06260(18) 0.1834(7)
H1 H 0.1897 0.0606 0.3244
N1 N 0.3459(3) 0.06673(15) 0.2182(5)
C5 C 0.4432(3) 0.16260(14) -0.2301(7)
C6 C 0.1229(3) -0.10206(16) -0.1626(6)
C7 C 0.2504(3) -0.01918(19) -0.1061(7)
H2 H 0.3162 0.0015 -0.1449
C8 C 0.0947(3) -0.02893(18) 0.1186(7)
H3 H 0.0513 -0.0149 0.2324
C9 C 0.0610(3) -0.08193(18) 0.0093(8)
H4 H -0.0030 -0.1038 0.0518
C10 C 0.4170(3) 0.10039(17) 0.0960(6)
C11 C 0.2188(3) -0.07064(17) -0.2221(7)
H5 H 0.2613 -0.0839 -0.3382
C12 C 0.5347(4) 0.2364(2) -0.5233(8)
H6 H 0.5366 0.2450 -0.6750
H7 H 0.5496 0.2750 -0.4472
C13 C 0.1815(4) 0.12268(19) 0.0759(10)
H8 H 0.1039 0.1164 0.0321
H9 H 0.1827 0.1566 0.1786
O3 O 0.2058(3) 0.16126(14) -0.2757(7)
C14 C 0.3935(4) 0.0279(2) 0.3845(8)
H10 H 0.3339 0.0068 0.4590
H11 H 0.4349 0.0536 0.4825
H12 H 0.4433 -0.0025 0.3221
C15 C 0.1423(4) -0.1775(2) -0.4423(9)
H13 H 0.1047 -0.2141 -0.4960
H14 H 0.2180 -0.1882 -0.4020
H15 H 0.1441 -0.1459 -0.5510
C16 C 0.6201(3) 0.1892(2) -0.4687(9)
H16 H 0.6943 0.2082 -0.4677
H17 H 0.6198 0.1560 -0.5744
loop_
_geom_bond_atom_site_label_1
_geom_bond_atom_site_label_2
_geom_bond_site_symmetry_1
_geom_bond_site_symmetry_2
S1 C5 1_555 1_555
S2 C5 1_555 1_555
O1 C10 1_555 1_555
O2 C6 1_555 1_555
C1 C4 1_555 1_555
C2 C3 1_555 1_555
C3 C13 1_555 1_555
C4 H1 1_555 1_555
N1 C4 1_555 1_555
C5 C2 1_555 1_555
C6 C9 1_555 1_555
C7 C1 1_555 1_555
H2 C7 1_555 1_555
C8 C1 1_555 1_555
H3 C8 1_555 1_555
C9 C8 1_555 1_555
H4 C9 1_555 1_555
C10 C2 1_555 1_555
C11 C6 1_555 1_555
H5 C11 1_555 1_555
C12 S2 1_555 1_555
H6 C12 1_555 1_555
H7 C12 1_555 1_555
C13 C4 1_555 1_555
H8 C13 1_555 1_555
H9 C13 1_555 1_555
O3 C3 1_555 1_555
C14 N1 1_555 1_555
H10 C14 1_555 1_555
H11 C14 1_555 1_555
H12 C14 1_555 1_555
C15 O2 1_555 1_555
H13 C15 1_555 1_555
H14 C15 1_555 1_555
H15 C15 1_555 1_555
C16 S1 1_555 1_555
H16 C16 1_555 1_555
H17 C16 1_555 1_555
N1 C10 1_555 1_555
C7 C11 1_555 1_555
C12 C16 1_555 1_555

#END
