
#######################################################################
#
#                 Cambridge Crystallographic Data Centre
#                                CCDC 
#
#######################################################################
#
# If this CIF has been generated from an entry in the Cambridge 
# Structural Database, then it will include bibliographic, chemical, 
# crystal, experimental, refinement or atomic coordinate data resulting 
# from the CCDC's data processing and validation procedures.
#
#######################################################################

data_PUMMAM
_chemical_formula_moiety         'C21 H18 Br1 N1 O2 S2'
_chemical_name_systematic        
1-Benzyl-5-(4-bromobenzyl)-3-(1,3-dithiolan-2-ylidene)pyrrolidine-2,4-dione
_symmetry_cell_setting           triclinic
_symmetry_space_group_name_H-M   'P -1'
_symmetry_Int_Tables_number      2
_space_group_name_Hall           '-P 1'
loop_
_symmetry_equiv_pos_site_id
_symmetry_equiv_pos_as_xyz
1 x,y,z
2 -x,-y,-z
_cell_length_a                   8.833(2)
_cell_length_b                   10.334(3)
_cell_length_c                   11.603(3)
_cell_angle_alpha                84.817(4)
_cell_angle_beta                 80.553(4)
_cell_angle_gamma                79.659(4)
_cell_volume                     1025.77
_cell_formula_units_Z            2
loop_
_atom_site_label
_atom_site_type_symbol
_atom_site_fract_x
_atom_site_fract_y
_atom_site_fract_z
Br1 Br 0.75909(7) 0.03455(4) 0.33657(5)
S1 S 0.82054(11) 0.72056(10) 0.50623(7)
S2 S 1.11488(11) 0.65820(11) 0.34847(9)
C1 C 0.5858(3) 0.4625(3) 0.1904(3)
O1 O 0.5658(3) 0.7209(2) 0.36447(18)
C2 C 0.8341(3) 0.6805(3) 0.2770(2)
C3 C 0.6364(3) 0.6994(3) 0.1557(2)
H1 H 0.5875 0.7875 0.1293
N1 N 0.7923(3) 0.6690(2) 0.0895(2)
C4 C 0.9133(4) 0.6858(3) 0.3669(3)
C5 C 0.7787(4) 0.8043(3) -0.0975(3)
C6 C 0.6679(3) 0.7031(3) 0.2801(3)
O2 O 1.0477(3) 0.6431(2) 0.1181(2)
C7 C 0.8221(4) 0.6706(3) -0.0382(3)
H2 H 0.7638 0.6101 -0.0636
H3 H 0.9318 0.6389 -0.0629
C8 C 0.9077(4) 0.6609(3) 0.1552(3)
C9 C 0.5295(4) 0.4176(3) 0.3027(3)
H4 H 0.4557 0.4738 0.3498
C10 C 0.6925(5) 0.8196(4) -0.1862(3)
H5 H 0.6547 0.7475 -0.2060
C11 C 0.6954(4) 0.3753(3) 0.1231(3)
H6 H 0.7345 0.4027 0.0472
C12 C 0.5300(4) 0.6001(3) 0.1448(3)
H7 H 0.4272 0.6306 0.1868
H8 H 0.5200 0.5985 0.0629
C13 C 0.8295(5) 0.9143(4) -0.0685(3)
H9 H 0.8865 0.9073 -0.0069
C14 C 0.7479(4) 0.2494(4) 0.1655(3)
H10 H 0.8222 0.1927 0.1193
C15 C 0.7112(5) 1.0454(4) -0.2195(3)
H11 H 0.6889 1.1260 -0.2611
C16 C 0.6598(5) 0.9396(4) -0.2474(4)
H12 H 0.6017 0.9471 -0.3084
C17 C 0.5808(4) 0.2911(4) 0.3461(3)
H13 H 0.5421 0.2623 0.4216
C18 C 0.6892(4) 0.2089(3) 0.2767(3)
C19 C 0.7969(5) 1.0346(4) -0.1295(4)
H14 H 0.8327 1.1078 -0.1097
C20 C 1.1310(7) 0.6857(7) 0.4942(5)
H15 H 1.1883 0.6062 0.5279
H16 H 1.1923 0.7552 0.4919
C21 C 0.9934(7) 0.7196(8) 0.5674(5)
H17 H 0.9906 0.8067 0.5934
H18 H 0.9925 0.6585 0.6360
loop_
_geom_bond_atom_site_label_1
_geom_bond_atom_site_label_2
_geom_bond_site_symmetry_1
_geom_bond_site_symmetry_2
Br1 C18 1_555 1_555
S1 C4 1_555 1_555
S2 C4 1_555 1_555
C1 C9 1_555 1_555
O1 C6 1_555 1_555
C2 C4 1_555 1_555
C3 H1 1_555 1_555
N1 C3 1_555 1_555
C5 C7 1_555 1_555
C6 C2 1_555 1_555
O2 C8 1_555 1_555
C7 N1 1_555 1_555
H2 C7 1_555 1_555
H3 C7 1_555 1_555
C8 C2 1_555 1_555
C9 H4 1_555 1_555
C10 C5 1_555 1_555
H5 C10 1_555 1_555
C11 C1 1_555 1_555
H6 C11 1_555 1_555
C12 C1 1_555 1_555
H7 C12 1_555 1_555
H8 C12 1_555 1_555
C13 C5 1_555 1_555
H9 C13 1_555 1_555
C14 C11 1_555 1_555
H10 C14 1_555 1_555
C15 H11 1_555 1_555
C16 C10 1_555 1_555
H12 C16 1_555 1_555
C17 C9 1_555 1_555
H13 C17 1_555 1_555
C18 C14 1_555 1_555
C19 C13 1_555 1_555
H14 C19 1_555 1_555
C20 S2 1_555 1_555
H15 C20 1_555 1_555
H16 C20 1_555 1_555
C21 S1 1_555 1_555
H17 C21 1_555 1_555
H18 C21 1_555 1_555
C3 C6 1_555 1_555
C3 C12 1_555 1_555
N1 C8 1_555 1_555
C15 C16 1_555 1_555
C15 C19 1_555 1_555
C17 C18 1_555 1_555
C20 C21 1_555 1_555

#END
