
#######################################################################
#
#                 Cambridge Crystallographic Data Centre
#                                CCDC 
#
#######################################################################
#
# If this CIF has been generated from an entry in the Cambridge 
# Structural Database, then it will include bibliographic, chemical, 
# crystal, experimental, refinement or atomic coordinate data resulting 
# from the CCDC's data processing and validation procedures.
#
#######################################################################

data_PUMMEQ
_chemical_formula_moiety         'C44 H42 N2 O4 S4,C2 H6 O1'
_chemical_name_systematic        
'2-(1,3-Dithiolan-2-ylidene)-5-(5-(1,3-dithiolan-2-ylidene)-1,2-bis(4-methylphenyl)-4,6-dioxopiperidin-3-yl)-N,5-bis(4-methylphenyl)-3-oxopentanamide ethanol solvate'
_symmetry_cell_setting           triclinic
_symmetry_space_group_name_H-M   'P -1'
_symmetry_Int_Tables_number      2
_space_group_name_Hall           '-P 1'
loop_
_symmetry_equiv_pos_site_id
_symmetry_equiv_pos_as_xyz
1 x,y,z
2 -x,-y,-z
_cell_length_a                   10.9558(13)
_cell_length_b                   11.5826(14)
_cell_length_c                   19.238(2)
_cell_angle_alpha                90.415(2)
_cell_angle_beta                 96.827(2)
_cell_angle_gamma                114.341(2)
_cell_volume                     2204.19
_cell_formula_units_Z            2
loop_
_atom_site_label
_atom_site_type_symbol
_atom_site_fract_x
_atom_site_fract_y
_atom_site_fract_z
C1 C 0.6012(8) 1.3490(8) -0.2964(4)
O1 O 0.8763(8) 1.4786(8) -0.3248(4)
C2 C 0.741(3) 1.410(3) -0.2647(15)
S1 S 0.6838(2) 0.8832(2) 0.03043(12)
S2 S 0.5859(3) 0.5751(2) -0.07975(12)
S3 S 0.4858(3) 0.7830(3) 0.12890(11)
S4 S 0.8237(3) 0.7192(3) -0.14874(13)
O2 O 0.5540(6) 0.9032(5) -0.0918(2)
N1 N 0.5458(6) 0.8020(6) -0.3064(3)
O3 O 0.3691(6) 0.5809(5) -0.1512(3)
O4 O 0.1867(6) 0.6537(5) -0.0160(3)
N2 N 0.2468(7) 0.8263(6) 0.0606(3)
O5 O 0.7551(6) 0.8374(6) -0.2537(3)
C3 C 0.3973(7) 0.7324(7) -0.3140(4)
H1 H 0.3604 0.7880 -0.3376
C4 C 0.5693(7) 0.6978(7) -0.1986(4)
C5 C 0.3554(7) 0.8381(7) -0.2089(3)
H2 H 0.4484 0.9026 -0.2065
C6 C 0.2644(8) 0.8842(7) -0.2544(4)
C7 C 0.6010(8) 0.8931(8) -0.3572(4)
C8 C 0.3489(7) 0.7137(7) -0.2426(3)
H3 H 0.2538 0.6529 -0.2496
C9 C 0.4121(7) 0.8172(7) -0.0073(4)
C10 C 0.1412(8) 0.7856(8) 0.1027(4)
C11 C -0.0396(9) 0.7172(8) 0.2029(4)
C12 C 0.6490(8) 0.6662(7) -0.1491(4)
C13 C 0.4372(8) 0.8497(7) -0.0779(4)
C14 C 0.0425(8) 0.6636(7) 0.1013(4)
H4 H 0.0348 0.6036 0.0667
C15 C 0.4269(8) 0.6554(7) -0.1936(4)
C16 C 0.2711(8) 0.7560(7) 0.0110(4)
C17 C 0.2372(10) 1.0389(8) -0.3327(4)
H5 H 0.2758 1.1123 -0.3564
C18 C 0.5159(8) 0.8288(7) 0.0449(4)
C19 C 0.0972(9) 0.9745(8) -0.3394(4)
C20 C 0.3202(9) 0.9951(8) -0.2912(4)
H6 H 0.4136 1.0395 -0.2876
C21 C 0.3182(8) 0.8220(8) -0.1342(4)
H7 H 0.2755 0.8780 -0.1251
H8 H 0.2526 0.7355 -0.1312
C22 C 0.6296(8) 0.7830(7) -0.2538(4)
C23 C 0.2148(8) 0.5650(8) -0.3961(4)
H9 H 0.1604 0.6058 -0.3871
C24 C -0.0468(9) 0.6296(8) 0.1521(4)
H10 H -0.1117 0.5465 0.1513
C25 C 0.3434(8) 0.6095(7) -0.3612(4)
C26 C 0.1436(9) 0.8775(8) 0.1523(4)
H11 H 0.2055 0.9615 0.1520
C27 C 0.0441(9) 0.8672(10) -0.3024(5)
H12 H -0.0493 0.8228 -0.3061
C28 C 0.0549(9) 0.8430(8) 0.2010(4)
H13 H 0.0576 0.9043 0.2333
C29 C 0.1252(8) 0.8237(8) -0.2601(4)
H14 H 0.0853 0.7523 -0.2351
C30 C 0.5818(9) 0.8599(9) -0.4276(4)
H15 H 0.5325 0.7752 -0.4433
C31 C 0.6691(9) 1.0212(8) -0.3363(4)
H16 H 0.6800 1.0477 -0.2893
C32 C 0.7080(10) 1.0724(10) -0.4540(5)
C33 C 0.1632(10) 0.4623(9) -0.4440(4)
H17 H 0.0752 0.4346 -0.4666
C34 C 0.6332(11) 0.9481(11) -0.4752(5)
H18 H 0.6170 0.9230 -0.5227
C35 C 0.7207(10) 1.1093(9) -0.3851(5)
H19 H 0.7648 1.1950 -0.3707
C36 C 0.4224(10) 0.5454(9) -0.3738(5)
H20 H 0.5093 0.5717 -0.3499
C37 C 0.7489(11) 0.8641(10) 0.1212(5)
H21 H 0.8251 0.8421 0.1206
H22 H 0.7791 0.9432 0.1493
C38 C -0.1282(10) 0.6813(10) 0.2591(5)
H23 H -0.1078 0.7547 0.2896
H24 H -0.1130 0.6174 0.2857
H25 H -0.2211 0.6485 0.2384
C39 C 0.0060(11) 1.0180(10) -0.3839(5)
H26 H 0.0590 1.0940 -0.4053
H27 H -0.0516 1.0351 -0.3554
H28 H -0.0483 0.9531 -0.4197
C40 C 0.7676(12) 1.1721(12) -0.5084(6)
H29 H 0.7491 1.1299 -0.5541
H30 H 0.8635 1.2167 -0.4956
H31 H 0.7268 1.2314 -0.5092
C41 C 0.7436(11) 0.5972(10) -0.0319(5)
H32 H 0.7763 0.6719 0.0001
H33 H 0.7323 0.5244 -0.0044
C42 C 0.2410(12) 0.4012(9) -0.4582(5)
C43 C 0.6413(12) 0.7642(11) 0.1515(5)
H34 H 0.6636 0.7694 0.2021
H35 H 0.6306 0.6817 0.1334
C44 C 0.3706(11) 0.4422(9) -0.4221(6)
H36 H 0.4236 0.3996 -0.4305
C45 C 0.8419(14) 0.6124(14) -0.0802(6)
H37 H 0.8254 0.5305 -0.1017
H38 H 0.9328 0.6489 -0.0550
C46 C 0.1882(15) 0.2912(11) -0.5149(6)
H39 H 0.2553 0.2587 -0.5175
H40 H 0.1693 0.3214 -0.5594
H41 H 0.1069 0.2248 -0.5030
loop_
_geom_bond_atom_site_label_1
_geom_bond_atom_site_label_2
_geom_bond_site_symmetry_1
_geom_bond_site_symmetry_2
C1 C2 1_555 1_555
O1 C2 1_555 1_555
S1 C18 1_555 1_555
S2 C12 1_555 1_555
S3 C18 1_555 1_555
S4 C12 1_555 1_555
O2 C13 1_555 1_555
N1 C3 1_555 1_555
O3 C15 1_555 1_555
O4 C16 1_555 1_555
N2 C10 1_555 1_555
O5 C22 1_555 1_555
C3 H1 1_555 1_555
C4 C12 1_555 1_555
C5 H2 1_555 1_555
C6 C5 1_555 1_555
C7 N1 1_555 1_555
C8 C3 1_555 1_555
H3 C8 1_555 1_555
C9 C13 1_555 1_555
C10 C14 1_555 1_555
C11 C24 1_555 1_555
C13 C21 1_555 1_555
C14 H4 1_555 1_555
C15 C4 1_555 1_555
C16 N2 1_555 1_555
C17 H5 1_555 1_555
C18 C9 1_555 1_555
C19 C17 1_555 1_555
C20 C6 1_555 1_555
H6 C20 1_555 1_555
C21 C5 1_555 1_555
H7 C21 1_555 1_555
H8 C21 1_555 1_555
C22 N1 1_555 1_555
C23 H9 1_555 1_555
C24 C14 1_555 1_555
H10 C24 1_555 1_555
C25 C3 1_555 1_555
C26 C10 1_555 1_555
H11 C26 1_555 1_555
C27 C19 1_555 1_555
H12 C27 1_555 1_555
C28 C11 1_555 1_555
H13 C28 1_555 1_555
C29 C6 1_555 1_555
H14 C29 1_555 1_555
C30 C7 1_555 1_555
H15 C30 1_555 1_555
C31 C7 1_555 1_555
H16 C31 1_555 1_555
C32 C34 1_555 1_555
C33 C23 1_555 1_555
H17 C33 1_555 1_555
C34 C30 1_555 1_555
H18 C34 1_555 1_555
C35 C31 1_555 1_555
H19 C35 1_555 1_555
C36 C25 1_555 1_555
H20 C36 1_555 1_555
C37 S1 1_555 1_555
H21 C37 1_555 1_555
H22 C37 1_555 1_555
C38 C11 1_555 1_555
H23 C38 1_555 1_555
H24 C38 1_555 1_555
H25 C38 1_555 1_555
C39 C19 1_555 1_555
H26 C39 1_555 1_555
H27 C39 1_555 1_555
H28 C39 1_555 1_555
C40 C32 1_555 1_555
H29 C40 1_555 1_555
H30 C40 1_555 1_555
H31 C40 1_555 1_555
C41 S2 1_555 1_555
H32 C41 1_555 1_555
H33 C41 1_555 1_555
C42 C33 1_555 1_555
C43 S3 1_555 1_555
H34 C43 1_555 1_555
H35 C43 1_555 1_555
C44 C36 1_555 1_555
H36 C44 1_555 1_555
C45 S4 1_555 1_555
H37 C45 1_555 1_555
H38 C45 1_555 1_555
C46 C42 1_555 1_555
H39 C46 1_555 1_555
H40 C46 1_555 1_555
H41 C46 1_555 1_555
C4 C22 1_555 1_555
C5 C8 1_555 1_555
C8 C15 1_555 1_555
C9 C16 1_555 1_555
C17 C20 1_555 1_555
C23 C25 1_555 1_555
C26 C28 1_555 1_555
C27 C29 1_555 1_555
C32 C35 1_555 1_555
C37 C43 1_555 1_555
C41 C45 1_555 1_555
C42 C44 1_555 1_555

#END
