
#######################################################################
#
#                 Cambridge Crystallographic Data Centre
#                                CCDC 
#
#######################################################################
#
# If this CIF has been generated from an entry in the Cambridge 
# Structural Database, then it will include bibliographic, chemical, 
# crystal, experimental, refinement or atomic coordinate data resulting 
# from the CCDC's data processing and validation procedures.
#
#######################################################################

data_PUMNER
_chemical_formula_moiety         'C10 H16 N4 2+,2(C6 H2 N3 O7 1-)'
_chemical_name_systematic        
"1,1'-Butane-1,4-diylbis(1H-imidazol-3-ium) picrate"
_symmetry_cell_setting           triclinic
_symmetry_space_group_name_H-M   'P -1'
_symmetry_Int_Tables_number      2
_space_group_name_Hall           '-P 1'
loop_
_symmetry_equiv_pos_site_id
_symmetry_equiv_pos_as_xyz
1 x,y,z
2 -x,-y,-z
_cell_length_a                   7.0236(14)
_cell_length_b                   8.2831(17)
_cell_length_c                   12.053(2)
_cell_angle_alpha                106.05(3)
_cell_angle_beta                 99.13(3)
_cell_angle_gamma                98.84(3)
_cell_volume                     650.76
_exptl_crystal_colour            yellow
_exptl_crystal_description       plate
_cell_formula_units_Z            1
loop_
_atom_site_label
_atom_site_type_symbol
_atom_site_fract_x
_atom_site_fract_y
_atom_site_fract_z
N1 N 0.3983(3) 0.0359(2) 0.83695(16)
N2 N 0.5956(2) 0.2542(2) 0.96702(14)
C1 C 0.5706(3) 0.1415(3) 0.86046(18)
H1 H 0.6597 0.1378 0.8108
C2 C 0.3105(3) 0.0816(3) 0.93091(19)
H2 H 0.1882 0.0279 0.9373
C3 C 0.4329(3) 0.2182(3) 1.01238(18)
H3 H 0.4114 0.2771 1.0855
C4 C 0.7630(3) 0.3982(3) 1.03190(19)
H4 H 0.8222 0.3784 1.1040
H5 H 0.7136 0.5031 1.0540
C5 C 0.9178(3) 0.4224(3) 0.96345(19)
H6 H 0.8601 0.4407 0.8904
H7 H 0.9724 0.3200 0.9436
H10 H 0.358(4) -0.060(4) 0.778(2)
N1A N 1.6017(3) 0.9641(2) 1.16305(16)
N2A N 1.4044(2) 0.7458(2) 1.03298(14)
C1A C 1.4294(3) 0.8585(3) 1.13954(18)
H1A H 1.3403 0.8622 1.1892
C2A C 1.6895(3) 0.9184(3) 1.06909(19)
H2A H 1.8118 0.9721 1.0627
C3A C 1.5671(3) 0.7818(3) 0.98762(18)
H3A H 1.5886 0.7229 0.9145
C4A C 1.2370(3) 0.6018(3) 0.96810(19)
H4A H 1.1778 0.6216 0.8960
H5A H 1.2864 0.4969 0.9460
C5A C 1.0822(3) 0.5776(3) 1.03655(19)
H6A H 1.1399 0.5593 1.1096
H7A H 1.0276 0.6800 1.0564
H10A H 1.642(4) 1.060(4) 1.222(2)
N3 N 0.2891(3) 0.3645(2) 0.69264(14)
N4 N 0.1387(2) 0.2055(2) 0.26300(14)
N5 N 0.2823(2) 0.8089(2) 0.49040(16)
O1 O 0.3241(2) 0.70319(19) 0.70405(12)
O2 O 0.4492(2) 0.4169(2) 0.76122(13)
O3 O 0.1490(3) 0.2762(2) 0.70946(15)
O4 O 0.1193(3) 0.0545(2) 0.25906(14)
O5 O 0.1126(2) 0.2496(2) 0.17348(13)
O6 O 0.3242(3) 0.8414(2) 0.40374(16)
O7 O 0.2539(3) 0.9181(2) 0.57496(16)
C6 C 0.2606(3) 0.6321(2) 0.49163(17)
C7 C 0.2159(3) 0.5067(3) 0.38400(17)
H8 H 0.2022 0.5375 0.3150
C8 C 0.1914(3) 0.3361(2) 0.37713(16)
C9 C 0.2142(3) 0.2867(2) 0.47947(16)
H9 H 0.1966 0.1715 0.4757
C10 C 0.2635(3) 0.4142(2) 0.58503(16)
C11 C 0.2864(3) 0.5958(2) 0.60298(16)
loop_
_geom_bond_atom_site_label_1
_geom_bond_atom_site_label_2
_geom_bond_site_symmetry_1
_geom_bond_site_symmetry_2
N1 C1 1_555 1_555
N2 C1 1_555 1_555
N3 O2 1_555 1_555
N4 O4 1_555 1_555
N5 O6 1_555 1_555
O1 C11 1_555 1_555
O3 N3 1_555 1_555
O5 N4 1_555 1_555
O7 N5 1_555 1_555
C1 H1 1_555 1_555
C2 N1 1_555 1_555
H2 C2 1_555 1_555
C3 N2 1_555 1_555
H3 C3 1_555 1_555
C4 N2 1_555 1_555
H4 C4 1_555 1_555
H5 C4 1_555 1_555
C5 C4 1_555 1_555
H6 C5 1_555 1_555
H7 C5 1_555 1_555
C6 N5 1_555 1_555
C7 C6 1_555 1_555
H8 C7 1_555 1_555
C8 N4 1_555 1_555
C9 C8 1_555 1_555
H9 C9 1_555 1_555
C10 N3 1_555 1_555
C11 C6 1_555 1_555
H10 N1 1_555 1_555
N1A C1A 1_555 1_555
N2A C1A 1_555 1_555
C1A H1A 1_555 1_555
C2A N1A 1_555 1_555
H2A C2A 1_555 1_555
C3A N2A 1_555 1_555
H3A C3A 1_555 1_555
C4A N2A 1_555 1_555
H4A C4A 1_555 1_555
H5A C4A 1_555 1_555
C5A C5 1_555 1_555
H6A C5A 1_555 1_555
H7A C5A 1_555 1_555
H10A N1A 1_555 1_555
C2 C3 1_555 1_555
C7 C8 1_555 1_555
C9 C10 1_555 1_555
C10 C11 1_555 1_555
C2A C3A 1_555 1_555
C4A C5A 1_555 1_555

#END
