
#######################################################################
#
#                 Cambridge Crystallographic Data Centre
#                                CCDC 
#
#######################################################################
#
# If this CIF has been generated from an entry in the Cambridge 
# Structural Database, then it will include bibliographic, chemical, 
# crystal, experimental, refinement or atomic coordinate data resulting 
# from the CCDC's data processing and validation procedures.
#
#######################################################################

data_PUMRUK
_chemical_formula_moiety         'C10 H8 S8 1+,H1 Cl2 1-'
_chemical_name_systematic        
"\e'-bis(Ethylenedithio)tetrathiafulvalene hydrogen dichloride"
_symmetry_cell_setting           monoclinic
_symmetry_space_group_name_H-M   'P 21/c'
_symmetry_Int_Tables_number      14
_space_group_name_Hall           '-P 2ybc'
loop_
_symmetry_equiv_pos_site_id
_symmetry_equiv_pos_as_xyz
1 x,y,z
2 -x,1/2+y,1/2-z
3 -x,-y,-z
4 x,1/2-y,1/2+z
_cell_length_a                   12.7112(1)
_cell_length_b                   11.5778(2)
_cell_length_c                   11.3583(1)
_cell_angle_alpha                90
_cell_angle_beta                 101.194(1)
_cell_angle_gamma                90
_cell_volume                     1639.77
_exptl_crystal_colour            black
_exptl_crystal_description       needles
_cell_formula_units_Z            4
_chemical_properties_physical    Air-sensitive
loop_
_atom_site_label
_atom_site_type_symbol
_atom_site_fract_x
_atom_site_fract_y
_atom_site_fract_z
Cl1 Cl 0.7242(1) 0.3800(1) 0.3587(1)
Cl2 Cl 0.7792(1) 0.1199(1) 0.3955(1)
H1 H 0.7643(35) 0.2440(29) 0.3684(38)
S1 S 0.6696(1) 0.6242(1) 0.2142(1)
S2 S 0.8348(1) 0.6307(1) 0.0331(1)
S3 S 0.6668(1) 0.8764(1) 0.2196(1)
S4 S 0.8276(1) 0.8827(1) 0.0321(1)
S5 S 0.5266(1) 0.5959(1) 0.3906(1)
S6 S 0.9703(1) 0.6088(1) -0.1473(1)
S7 S 0.5303(1) 0.8971(1) 0.3992(1)
S8 S 0.9671(1) 0.9091(1) -0.1477(1)
C1 C 0.7141(2) 0.7522(2) 0.1653(3)
C2 C 0.7842(2) 0.7551(2) 0.0853(3)
C3 C 0.5947(2) 0.6883(2) 0.3096(2)
C4 C 0.9054(2) 0.7003(2) -0.0629(2)
C5 C 0.5930(2) 0.8055(2) 0.3124(2)
C6 C 0.9021(2) 0.8178(2) -0.0629(2)
C7 C 0.4126(2) 0.6896(3) 0.3952(3)
C8 C 1.0568(3) 0.7057(3) -0.2126(3)
C9 C 0.4427(3) 0.7995(3) 0.4626(3)
C10 C 1.0833(2) 0.8197(3) -0.1495(3)
H2 H 0.3773(2) 0.7079(3) 0.3143(3)
H3 H 0.3618(2) 0.6485(3) 0.4336(3)
H4 H 1.1236(2) 0.6660(3) -0.2141(3)
H5 H 1.0227(2) 0.7215(3) -0.2948(3)
H6 H 0.4769(2) 0.7810(3) 0.5436(3)
H7 H 0.3767(2) 0.8412(3) 0.4664(3)
H8 H 1.1326(2) 0.8614(3) -0.1889(3)
H9 H 1.1190(2) 0.8049(3) -0.0675(3)
loop_
_geom_bond_atom_site_label_1
_geom_bond_atom_site_label_2
_geom_bond_site_symmetry_1
_geom_bond_site_symmetry_2
Cl1 H1 1_555 1_555
Cl2 H1 1_555 1_555
S1 C1 1_555 1_555
S2 C2 1_555 1_555
S3 C1 1_555 1_555
S4 C2 1_555 1_555
S5 C3 1_555 1_555
S6 C4 1_555 1_555
S7 C5 1_555 1_555
S8 C6 1_555 1_555
C1 C2 1_555 1_555
C3 S1 1_555 1_555
C4 S2 1_555 1_555
C5 S3 1_555 1_555
C6 S4 1_555 1_555
C7 S5 1_555 1_555
C8 S6 1_555 1_555
C9 S7 1_555 1_555
C10 S8 1_555 1_555
H2 C7 1_555 1_555
H3 C7 1_555 1_555
H4 C8 1_555 1_555
H5 C8 1_555 1_555
H6 C9 1_555 1_555
H7 C9 1_555 1_555
H8 C10 1_555 1_555
H9 C10 1_555 1_555
C3 C5 1_555 1_555
C4 C6 1_555 1_555
C7 C9 1_555 1_555
C8 C10 1_555 1_555

#END
