
#######################################################################
#
#                 Cambridge Crystallographic Data Centre
#                                CCDC 
#
#######################################################################
#
# If this CIF has been generated from an entry in the Cambridge 
# Structural Database, then it will include bibliographic, chemical, 
# crystal, experimental, refinement or atomic coordinate data resulting 
# from the CCDC's data processing and validation procedures.
#
#######################################################################

data_PUMWOL
_chemical_formula_moiety         'C22 H16 Br1 N1 O2'
_chemical_name_systematic        
4-Bromo-7-methoxy-2,3-diphenylisoquinolin-1(2H)-one
_symmetry_cell_setting           monoclinic
_symmetry_space_group_name_H-M   'P 21/c'
_symmetry_Int_Tables_number      14
_space_group_name_Hall           '-P 2ybc'
loop_
_symmetry_equiv_pos_site_id
_symmetry_equiv_pos_as_xyz
1 x,y,z
2 -x,1/2+y,1/2-z
3 -x,-y,-z
4 x,1/2-y,1/2+z
_cell_length_a                   13.2465(3)
_cell_length_b                   15.5614(2)
_cell_length_c                   26.0100(5)
_cell_angle_alpha                90
_cell_angle_beta                 95.0690(17)
_cell_angle_gamma                90
_cell_volume                     5340.58
_exptl_crystal_colour            yellow
_exptl_crystal_description       block
_cell_formula_units_Z            12
loop_
_atom_site_label
_atom_site_type_symbol
_atom_site_fract_x
_atom_site_fract_y
_atom_site_fract_z
Br1 Br 0.20487(3) 0.73504(2) 0.604828(13)
O1 O 0.1456(2) 0.62050(16) 0.38545(9)
O2 O 0.0991(2) 0.34890(15) 0.49218(10)
N1 N 0.1614(2) 0.72679(17) 0.44570(10)
C1 C 0.1754(2) 0.7553(2) 0.49752(13)
C2 C 0.1904(2) 0.8492(2) 0.50542(11)
C3 C 0.1775(2) 0.6969(2) 0.53562(11)
C4 C 0.1479(2) 0.7893(2) 0.40484(12)
C5 C 0.1494(2) 0.5792(2) 0.47372(12)
C6 C 0.1613(2) 0.6063(2) 0.52568(12)
C7 C 0.1527(2) 0.6405(2) 0.43142(12)
C8 C 0.1199(3) 0.4342(2) 0.49960(13)
C9 C 0.1296(3) 0.4930(2) 0.46078(12)
H1 H 0.1232 0.4758 0.4264
C10 C 0.2826(3) 0.8873(2) 0.49830(13)
H2 H 0.3360 0.8536 0.4888
C11 C 0.1320(3) 0.4604(2) 0.55147(13)
H3 H 0.1251 0.4204 0.5775
C12 C 0.1123(3) 0.8996(2) 0.52106(13)
H4 H 0.0504 0.8746 0.5266
C13 C 0.1539(3) 0.5439(2) 0.56405(13)
H5 H 0.1641 0.5597 0.5986
C14 C 0.1264(3) 0.9876(2) 0.52851(14)
H6 H 0.0743 1.0212 0.5394
C15 C 0.2286(3) 0.8123(2) 0.37767(14)
H7 H 0.2912 0.7857 0.3845
C16 C 0.0545(3) 0.8261(2) 0.39393(14)
H8 H 0.0001 0.8091 0.4118
C17 C 0.2962(3) 0.9752(3) 0.50517(13)
H9 H 0.3581 1.0004 0.5000
C18 C 0.2156(3) 0.8755(3) 0.34002(15)
H10 H 0.2699 0.8923 0.3220
C19 C 0.2176(3) 1.0247(2) 0.51963(13)
H11 H 0.2260 1.0838 0.5234
C20 C 0.1221(3) 0.9135(2) 0.32931(14)
H12 H 0.1134 0.9558 0.3041
C21 C 0.0864(3) 0.3201(2) 0.43975(16)
H13 H 0.0318 0.3512 0.4215
H14 H 0.0710 0.2598 0.4390
H15 H 0.1478 0.3300 0.4236
C22 C 0.0416(3) 0.8890(3) 0.35583(16)
H16 H -0.0215 0.9144 0.3483
Br2 Br 0.50424(3) 0.74861(2) 0.743764(15)
O3 O 0.52639(18) 0.88455(14) 0.53092(8)
O4 O 0.4942(2) 1.14891(15) 0.64523(10)
N2 N 0.5215(2) 0.77201(16) 0.58659(10)
C23 C 0.5315(2) 0.71453(19) 0.54380(11)
C24 C 0.5068(2) 0.9165(2) 0.61875(12)
C25 C 0.4995(2) 0.8843(2) 0.66870(12)
C26 C 0.5277(2) 0.6429(2) 0.64180(11)
C27 C 0.5153(2) 0.7377(2) 0.63628(13)
C28 C 0.5186(2) 0.85971(19) 0.57515(12)
C29 C 0.5049(2) 1.00545(19) 0.60944(12)
H17 H 0.5090 1.0263 0.5762
C30 C 0.4605(3) 0.5025(2) 0.65771(13)
H18 H 0.4063 0.4676 0.6646
C31 C 0.4970(3) 1.0615(2) 0.64965(13)
C32 C 0.5036(2) 0.7919(2) 0.67540(12)
C33 C 0.4465(3) 0.5911(2) 0.65242(12)
H19 H 0.3834 0.6154 0.6560
C34 C 0.4907(3) 0.9432(2) 0.70887(12)
H20 H 0.4853 0.9232 0.7422
C35 C 0.6219(3) 0.6057(2) 0.63699(12)
H21 H 0.6766 0.6402 0.6302
C36 C 0.4490(3) 0.6668(2) 0.52399(13)
H22 H 0.3861 0.6736 0.5368
C37 C 0.4900(3) 1.0299(2) 0.69955(13)
H23 H 0.4848 1.0682 0.7267
C38 C 0.6243(3) 0.7075(2) 0.52383(13)
H24 H 0.6785 0.7417 0.5364
C39 C 0.6350(3) 0.5175(2) 0.64232(13)
H25 H 0.6980 0.4928 0.6389
C40 C 0.5538(3) 0.4666(2) 0.65272(13)
H26 H 0.5624 0.4075 0.6564
C41 C 0.4869(3) 1.1827(2) 0.59399(15)
H27 H 0.4267 1.1611 0.5751
H28 H 0.5452 1.1655 0.5771
H29 H 0.4839 1.2443 0.5953
C42 C 0.6355(3) 0.6489(3) 0.48478(14)
H30 H 0.6978 0.6431 0.4712
C43 C 0.4619(4) 0.6088(2) 0.48482(16)
H31 H 0.4071 0.5762 0.4711
C44 C 0.5547(4) 0.5990(3) 0.46596(14)
H32 H 0.5631 0.5586 0.4404
Br3 Br 0.76529(4) 0.75516(3) 0.878942(17)
O5 O 0.86118(18) 0.61430(15) 0.67608(8)
O6 O 0.7774(2) 0.35184(16) 0.78492(10)
N3 N 0.8396(2) 0.72780(17) 0.72919(10)
C45 C 0.8193(2) 0.7620(2) 0.77719(13)
C46 C 0.8590(2) 0.7859(2) 0.68767(12)
C47 C 0.8102(2) 0.5834(2) 0.75973(12)
C48 C 0.8390(2) 0.6396(2) 0.71838(12)
C49 C 0.8348(3) 0.8565(2) 0.78501(12)
C50 C 0.8083(3) 0.4945(2) 0.75061(12)
H33 H 0.8242 0.4727 0.7190
C51 C 0.7825(3) 0.4398(2) 0.78906(13)
C52 C 0.7850(2) 0.6170(2) 0.80713(12)
C53 C 0.8948(3) 0.9002(2) 0.60985(13)
H34 H 0.9067 0.9391 0.5839
C54 C 0.7783(3) 0.8200(2) 0.65739(13)
H35 H 0.7122 0.8049 0.6630
C55 C 0.7578(3) 0.4726(2) 0.83628(13)
H36 H 0.7407 0.4351 0.8620
C56 C 0.9748(3) 0.8649(2) 0.64025(14)
H37 H 1.0408 0.8800 0.6346
C57 C 0.7919(3) 0.7090(2) 0.81442(13)
C58 C 0.9579(2) 0.8070(2) 0.67922(13)
H38 H 1.0121 0.7828 0.6993
C59 C 0.7967(3) 0.8774(2) 0.61830(14)
H39 H 0.7425 0.9007 0.5977
C60 C 0.7585(3) 0.5593(2) 0.84509(13)
H40 H 0.7412 0.5802 0.8766
C61 C 0.7580(3) 0.9146(2) 0.77164(14)
H41 H 0.6953 0.8954 0.7573
C62 C 0.9441(3) 0.9733(3) 0.81497(14)
H42 H 1.0064 0.9930 0.8296
C63 C 0.9282(3) 0.8855(2) 0.80717(13)
H43 H 0.9797 0.8466 0.8167
C64 C 0.8677(4) 1.0309(3) 0.80100(14)
H44 H 0.8787 1.0895 0.8059
C65 C 0.7751(4) 1.0020(2) 0.77979(15)
H45 H 0.7234 1.0411 0.7708
C66 C 0.7872(3) 0.3158(2) 0.73510(15)
H46 H 0.7348 0.3382 0.7109
H47 H 0.7811 0.2544 0.7368
H48 H 0.8523 0.3305 0.7241
loop_
_geom_bond_atom_site_label_1
_geom_bond_atom_site_label_2
_geom_bond_site_symmetry_1
_geom_bond_site_symmetry_2
Br1 C3 1_555 1_555
O1 C7 1_555 1_555
O2 C8 1_555 1_555
N1 C1 1_555 1_555
C1 C2 1_555 1_555
C2 C10 1_555 1_555
C3 C1 1_555 1_555
C4 N1 1_555 1_555
C5 C6 1_555 1_555
C6 C3 1_555 1_555
C7 N1 1_555 1_555
C8 C9 1_555 1_555
C9 C5 1_555 1_555
H1 C9 1_555 1_555
C10 H2 1_555 1_555
C11 C8 1_555 1_555
H3 C11 1_555 1_555
C12 C2 1_555 1_555
H4 C12 1_555 1_555
C13 C6 1_555 1_555
H5 C13 1_555 1_555
C14 C12 1_555 1_555
H6 C14 1_555 1_555
C15 C4 1_555 1_555
H7 C15 1_555 1_555
C16 C4 1_555 1_555
H8 C16 1_555 1_555
C17 C10 1_555 1_555
H9 C17 1_555 1_555
C18 C15 1_555 1_555
H10 C18 1_555 1_555
C19 C14 1_555 1_555
H11 C19 1_555 1_555
C20 C18 1_555 1_555
H12 C20 1_555 1_555
C21 O2 1_555 1_555
H13 C21 1_555 1_555
H14 C21 1_555 1_555
H15 C21 1_555 1_555
C22 C16 1_555 1_555
H16 C22 1_555 1_555
Br2 C32 1_555 1_555
O3 C28 1_555 1_555
O4 C31 1_555 1_555
N2 C23 1_555 1_555
C23 C36 1_555 1_555
C24 C25 1_555 1_555
C25 C32 1_555 1_555
C26 C27 1_555 1_555
C27 N2 1_555 1_555
C28 N2 1_555 1_555
C29 C24 1_555 1_555
H17 C29 1_555 1_555
C30 H18 1_555 1_555
C31 C29 1_555 1_555
C32 C27 1_555 1_555
C33 C26 1_555 1_555
H19 C33 1_555 1_555
C34 C25 1_555 1_555
H20 C34 1_555 1_555
C35 C26 1_555 1_555
H21 C35 1_555 1_555
C36 H22 1_555 1_555
C37 C31 1_555 1_555
H23 C37 1_555 1_555
C38 C23 1_555 1_555
H24 C38 1_555 1_555
C39 C35 1_555 1_555
H25 C39 1_555 1_555
C40 C30 1_555 1_555
H26 C40 1_555 1_555
C41 O4 1_555 1_555
H27 C41 1_555 1_555
H28 C41 1_555 1_555
H29 C41 1_555 1_555
C42 C38 1_555 1_555
H30 C42 1_555 1_555
C43 C36 1_555 1_555
H31 C43 1_555 1_555
C44 C42 1_555 1_555
H32 C44 1_555 1_555
Br3 C57 1_555 1_555
O5 C48 1_555 1_555
O6 C51 1_555 1_555
N3 C45 1_555 1_555
C45 C49 1_555 1_555
C46 N3 1_555 1_555
C47 C48 1_555 1_555
C48 N3 1_555 1_555
C49 C61 1_555 1_555
C50 C47 1_555 1_555
H33 C50 1_555 1_555
C51 C50 1_555 1_555
C52 C47 1_555 1_555
C53 H34 1_555 1_555
C54 C46 1_555 1_555
H35 C54 1_555 1_555
C55 C51 1_555 1_555
H36 C55 1_555 1_555
C56 C53 1_555 1_555
H37 C56 1_555 1_555
C57 C45 1_555 1_555
C58 C46 1_555 1_555
H38 C58 1_555 1_555
C59 C53 1_555 1_555
H39 C59 1_555 1_555
C60 C52 1_555 1_555
H40 C60 1_555 1_555
C61 H41 1_555 1_555
C62 H42 1_555 1_555
C63 C49 1_555 1_555
H43 C63 1_555 1_555
C64 C62 1_555 1_555
H44 C64 1_555 1_555
C65 C61 1_555 1_555
H45 C65 1_555 1_555
C66 O6 1_555 1_555
H46 C66 1_555 1_555
H47 C66 1_555 1_555
H48 C66 1_555 1_555
C5 C7 1_555 1_555
C11 C13 1_555 1_555
C17 C19 1_555 1_555
C20 C22 1_555 1_555
C24 C28 1_555 1_555
C30 C33 1_555 1_555
C34 C37 1_555 1_555
C39 C40 1_555 1_555
C43 C44 1_555 1_555
C52 C57 1_555 1_555
C54 C59 1_555 1_555
C55 C60 1_555 1_555
C56 C58 1_555 1_555
C62 C63 1_555 1_555
C64 C65 1_555 1_555

#END
