
#######################################################################
#
#                 Cambridge Crystallographic Data Centre
#                                CCDC 
#
#######################################################################
#
# If this CIF has been generated from an entry in the Cambridge 
# Structural Database, then it will include bibliographic, chemical, 
# crystal, experimental, refinement or atomic coordinate data resulting 
# from the CCDC's data processing and validation procedures.
#
#######################################################################

data_PUMWIF
_chemical_formula_moiety         'C21 H15 N1 O1'
_chemical_name_systematic        2,3-Diphenylisoquinolin-1(2H)-one
_symmetry_cell_setting           triclinic
_symmetry_space_group_name_H-M   'P -1'
_symmetry_Int_Tables_number      2
_space_group_name_Hall           '-P 1'
loop_
_symmetry_equiv_pos_site_id
_symmetry_equiv_pos_as_xyz
1 x,y,z
2 -x,-y,-z
_cell_length_a                   8.1409(7)
_cell_length_b                   9.6717(8)
_cell_length_c                   11.2801(9)
_cell_angle_alpha                97.712(7)
_cell_angle_beta                 108.486(8)
_cell_angle_gamma                107.290(8)
_cell_volume                     778.254
_exptl_crystal_colour            colorless
_exptl_crystal_description       block
_cell_formula_units_Z            2
loop_
_atom_site_label
_atom_site_type_symbol
_atom_site_fract_x
_atom_site_fract_y
_atom_site_fract_z
O1 O 0.14180(12) 0.72819(10) 0.31581(8)
N1 N 0.06657(14) 0.74980(11) 0.49381(9)
C1 C 0.09090(19) 0.79614(18) 0.95706(13)
H1 H 0.1213 0.8069 1.0454
C2 C 0.39146(18) 0.91440(14) 0.60305(12)
H2 H 0.3625 0.9887 0.5661
C3 C 0.11689(19) 0.90080(15) 0.77988(13)
H3 H 0.1659 0.9820 0.7496
C4 C 0.29818(17) 0.66268(14) 0.62648(12)
H4 H 0.2068 0.5686 0.6053
C5 C 0.57072(18) 0.94255(15) 0.68694(13)
H5 H 0.6625 1.0360 0.7065
C6 C -0.3966(2) 0.68097(17) 0.07597(13)
H6 H -0.4305 0.6707 -0.0125
C7 C -0.5248(2) 0.68317(16) 0.13270(14)
H7 H -0.6440 0.6745 0.0817
C8 C 0.61339(18) 0.83172(15) 0.74166(12)
H8 H 0.7331 0.8515 0.7996
C9 C -0.47753(19) 0.69799(15) 0.26334(13)
H9 H -0.5649 0.6984 0.3001
C10 C 0.1640(2) 0.91627(17) 0.91158(13)
H10 H 0.2449 1.0075 0.9693
C11 C -0.0271(2) 0.66042(17) 0.87165(13)
H11 H -0.0749 0.5794 0.9025
C12 C -0.29672(18) 0.71251(13) 0.34148(12)
C13 C -0.00306(17) 0.76490(14) 0.69301(12)
C14 C -0.07483(18) 0.64419(15) 0.73949(12)
H12 H -0.1549 0.5525 0.6821
C15 C 0.47808(18) 0.69139(15) 0.71033(12)
H13 H 0.5078 0.6163 0.7455
C16 C -0.06410(17) 0.74758(13) 0.55086(12)
C17 C -0.2198(2) 0.69388(15) 0.15032(13)
H14 H -0.1348 0.6912 0.1119
C18 C 0.25621(16) 0.77540(13) 0.57467(11)
C19 C -0.23960(17) 0.72915(14) 0.47780(12)
H15 H -0.3250 0.7272 0.5167
C20 C -0.16756(17) 0.71103(13) 0.28376(12)
C21 C 0.02339(17) 0.72962(13) 0.36121(12)
loop_
_geom_bond_atom_site_label_1
_geom_bond_atom_site_label_2
_geom_bond_site_symmetry_1
_geom_bond_site_symmetry_2
O1 C21 1_555 1_555
N1 C16 1_555 1_555
C1 H1 1_555 1_555
C2 H2 1_555 1_555
C3 H3 1_555 1_555
C4 H4 1_555 1_555
C5 C2 1_555 1_555
H5 C5 1_555 1_555
C6 H6 1_555 1_555
C7 C6 1_555 1_555
H7 C7 1_555 1_555
C8 C5 1_555 1_555
H8 C8 1_555 1_555
C9 C7 1_555 1_555
H9 C9 1_555 1_555
C10 C1 1_555 1_555
H10 C10 1_555 1_555
C11 C1 1_555 1_555
H11 C11 1_555 1_555
C12 C9 1_555 1_555
C13 C3 1_555 1_555
C14 C11 1_555 1_555
H12 C14 1_555 1_555
C15 C4 1_555 1_555
H13 C15 1_555 1_555
C16 C13 1_555 1_555
C17 C6 1_555 1_555
H14 C17 1_555 1_555
C18 N1 1_555 1_555
C19 C12 1_555 1_555
H15 C19 1_555 1_555
C20 C12 1_555 1_555
C21 N1 1_555 1_555
C2 C18 1_555 1_555
C3 C10 1_555 1_555
C4 C18 1_555 1_555
C8 C15 1_555 1_555
C13 C14 1_555 1_555
C16 C19 1_555 1_555
C17 C20 1_555 1_555
C20 C21 1_555 1_555

#END
