
#######################################################################
#
#                 Cambridge Crystallographic Data Centre
#                                CCDC 
#
#######################################################################
#
# If this CIF has been generated from an entry in the Cambridge 
# Structural Database, then it will include bibliographic, chemical, 
# crystal, experimental, refinement or atomic coordinate data resulting 
# from the CCDC's data processing and validation procedures.
#
#######################################################################

data_PUMXAW
_chemical_formula_moiety         'C8 H8 N2 S4'
_chemical_name_systematic        
1-(N-Cyanoimino)-2-(4,5-bis(methylsulfanyl)-1,3-dithiol-2-ylidene)ethane
_symmetry_cell_setting           orthorhombic
_symmetry_space_group_name_H-M   'P c a 21'
_symmetry_Int_Tables_number      29
_space_group_name_Hall           'P 2c -2ac'
loop_
_symmetry_equiv_pos_site_id
_symmetry_equiv_pos_as_xyz
1 x,y,z
2 -x,-y,1/2+z
3 1/2-x,y,1/2+z
4 1/2+x,-y,z
_cell_length_a                   15.791(1)
_cell_length_b                   8.140(1)
_cell_length_c                   8.878(1)
_cell_angle_alpha                90
_cell_angle_beta                 90
_cell_angle_gamma                90
_cell_volume                     1141.17
_exptl_crystal_colour            orange
_chemical_melting_point          127-128deg.C
_cell_formula_units_Z            4
_exptl_crystal_recrystallization_method dichloromethane
loop_
_atom_site_label
_atom_site_type_symbol
_atom_site_fract_x
_atom_site_fract_y
_atom_site_fract_z
S1 S 0.6951(1) 0.6685(2) 0.5348(2)
S2 S 0.8779(1) 0.7130(2) 0.5110(2)
S3 S 0.7098(1) 0.3735(3) 0.7382(2)
S4 S 0.9210(1) 0.4259(3) 0.7094(2)
N1 N 0.6176(4) 0.9104(7) 0.3748(7)
N2 N 0.4756(4) 1.0153(9) 0.3016(8)
C1 C 0.7779(4) 0.7815(9) 0.4576(8)
C2 C 0.7592(5) 0.5274(9) 0.6305(9)
C3 C 0.8440(5) 0.5479(9) 0.6205(8)
C4 C 0.6285(9) 0.3051(18) 0.6123(15)
C5 C 0.9569(5) 0.3065(11) 0.5516(10)
C6 C 0.7674(5) 0.9145(9) 0.3639(9)
C7 C 0.6879(5) 0.9760(10) 0.3239(9)
C8 C 0.5426(5) 0.9711(9) 0.3310(8)
H1 H 0.6065(68) 0.231(13) 0.665(14)
H2 H 0.6599(71) 0.266(16) 0.531(16)
H3 H 0.5798(58) 0.382(12) 0.630(12)
H4 H 0.9980(48) 0.228(11) 0.5905(95)
H5 H 0.9774(57) 0.389(12) 0.466(11)
H6 H 0.9081(48) 0.232(10) 0.522(11)
H7 H 0.8181(47) 0.9742(90) 0.3431(82)
H8 H 0.6868(33) 1.0647(69) 0.2546(59)
loop_
_geom_bond_atom_site_label_1
_geom_bond_atom_site_label_2
_geom_bond_site_symmetry_1
_geom_bond_site_symmetry_2
S1 C1 1_555 1_555
S2 C1 1_555 1_555
S3 C2 1_555 1_555
S4 C3 1_555 1_555
N1 C7 1_555 1_555
N2 C8 1_555 1_555
C1 C6 1_555 1_555
C2 S1 1_555 1_555
C3 S2 1_555 1_555
C4 S3 1_555 1_555
C5 S4 1_555 1_555
C6 C7 1_555 1_555
C7 H8 1_555 1_555
C8 N1 1_555 1_555
H1 C4 1_555 1_555
H2 C4 1_555 1_555
H3 C4 1_555 1_555
H4 C5 1_555 1_555
H5 C5 1_555 1_555
H6 C5 1_555 1_555
H7 C6 1_555 1_555
C2 C3 1_555 1_555

#END
