
#######################################################################
#
#                 Cambridge Crystallographic Data Centre
#                                CCDC 
#
#######################################################################
#
# If this CIF has been generated from an entry in the Cambridge 
# Structural Database, then it will include bibliographic, chemical, 
# crystal, experimental, refinement or atomic coordinate data resulting 
# from the CCDC's data processing and validation procedures.
#
#######################################################################

data_PUNJOZ
_chemical_name_common            
4-(4-chlorophenyl)-2-phenyl-2-(1H-1,2,4-triazol-1-ylmethyl)butanenitrile
_chemical_formula_moiety         'C19 H17 Cl1 N4'
_chemical_name_systematic        
4-(4-chlorophenyl)-2-phenyl-2-(1H-1,2,4-triazol-1-ylmethyl)butyronitrile
_chemical_properties_biological  'antifungal activity'
_symmetry_cell_setting           monoclinic
_symmetry_space_group_name_H-M   'P 21/n'
_symmetry_Int_Tables_number      14
_space_group_name_Hall           '-P 2yn'
loop_
_symmetry_equiv_pos_site_id
_symmetry_equiv_pos_as_xyz
1 x,y,z
2 1/2-x,1/2+y,1/2-z
3 -x,-y,-z
4 1/2+x,1/2-y,1/2+z
_cell_length_a                   12.4606(3)
_cell_length_b                   6.7404(2)
_cell_length_c                   20.5394(5)
_cell_angle_alpha                90
_cell_angle_beta                 95.455(2)
_cell_angle_gamma                90
_cell_volume                     1717.28
_exptl_crystal_colour            brown
_exptl_crystal_description       plate
_cell_formula_units_Z            4
loop_
_atom_site_label
_atom_site_type_symbol
_atom_site_fract_x
_atom_site_fract_y
_atom_site_fract_z
Cl1 Cl 0.02411(4) 0.19334(10) 1.12090(3)
N1 N 0.42210(11) 1.1422(2) 0.92410(6)
N2 N 0.63664(9) 0.7989(2) 0.86689(5)
N3 N 0.66105(11) 0.9948(2) 0.87314(6)
N4 N 0.71532(12) 0.8721(2) 0.77946(7)
C1 C 0.17939(13) 0.3822(3) 0.97206(8)
H1 H 0.2005 0.3286 0.9325
C2 C 0.12369(14) 0.2639(3) 1.01229(9)
H2 H 0.1056 0.1311 1.0003
C3 C 0.09501(12) 0.3415(3) 1.06994(8)
C4 C 0.12079(14) 0.5320(3) 1.08810(8)
H3 H 0.1014 0.5833 1.1284
C5 C 0.17565(13) 0.6493(3) 1.04672(8)
H4 H 0.1933 0.7822 1.0589
C6 C 0.20501(10) 0.5763(2) 0.98807(7)
C7 C 0.26520(11) 0.7035(3) 0.94298(7)
H5 H 0.2559 0.8451 0.9541
H6 H 0.2341 0.6831 0.8973
C8 C 0.38533(11) 0.6541(2) 0.94830(6)
H7 H 0.3937 0.5096 0.9418
H8 H 0.4171 0.6864 0.9931
C9 C 0.44939(10) 0.7655(2) 0.89855(6)
C10 C 0.41229(10) 0.7205(2) 0.82676(6)
C11 C 0.38360(12) 0.5284(2) 0.80795(7)
H9 H 0.3807 0.4280 0.8402
C12 C 0.35906(13) 0.4822(3) 0.74246(7)
H10 H 0.3390 0.3506 0.7301
C13 C 0.36370(13) 0.6264(3) 0.69533(7)
H11 H 0.3467 0.5943 0.6505
C14 C 0.39293(13) 0.8170(3) 0.71325(7)
H12 H 0.3968 0.9162 0.6807
C15 C 0.41687(12) 0.8646(2) 0.77900(6)
H13 H 0.4364 0.9967 0.7912
C16 C 0.43710(11) 0.9796(2) 0.91178(6)
C17 C 0.56995(11) 0.7062(2) 0.91202(6)
H14 H 0.5963 0.7450 0.9572
H15 H 0.5765 0.5603 0.9086
C18 C 0.70813(15) 1.0295(3) 0.81948(8)
H16 H 0.7352 1.1567 0.8096
C19 C 0.66923(13) 0.7306(3) 0.81087(7)
H17 H 0.6603 0.5979 0.7958
loop_
_geom_bond_atom_site_label_1
_geom_bond_atom_site_label_2
_geom_bond_site_symmetry_1
_geom_bond_site_symmetry_2
Cl1 C3 1_555 1_555
N1 C16 1_555 1_555
N2 N3 1_555 1_555
N3 C18 1_555 1_555
N4 C18 1_555 1_555
C1 H1 1_555 1_555
C2 C1 1_555 1_555
H2 C2 1_555 1_555
C3 C2 1_555 1_555
C4 C3 1_555 1_555
H3 C4 1_555 1_555
C5 C4 1_555 1_555
H4 C5 1_555 1_555
C6 C1 1_555 1_555
C7 C6 1_555 1_555
H5 C7 1_555 1_555
H6 C7 1_555 1_555
C8 C7 1_555 1_555
H7 C8 1_555 1_555
H8 C8 1_555 1_555
C9 C8 1_555 1_555
C10 C9 1_555 1_555
C11 C10 1_555 1_555
H9 C11 1_555 1_555
C12 C11 1_555 1_555
H10 C12 1_555 1_555
C13 C12 1_555 1_555
H11 C13 1_555 1_555
C14 C13 1_555 1_555
H12 C14 1_555 1_555
C15 C10 1_555 1_555
H13 C15 1_555 1_555
C16 C9 1_555 1_555
C17 N2 1_555 1_555
H14 C17 1_555 1_555
H15 C17 1_555 1_555
C18 H16 1_555 1_555
C19 N2 1_555 1_555
H17 C19 1_555 1_555
N4 C19 1_555 1_555
C5 C6 1_555 1_555
C9 C17 1_555 1_555
C14 C15 1_555 1_555

#END
