
#######################################################################
#
#                 Cambridge Crystallographic Data Centre
#                                CCDC 
#
#######################################################################
#
# If this CIF has been generated from an entry in the Cambridge 
# Structural Database, then it will include bibliographic, chemical, 
# crystal, experimental, refinement or atomic coordinate data resulting 
# from the CCDC's data processing and validation procedures.
#
#######################################################################

data_PUNNIW
_chemical_formula_moiety         
'C44 H48 N24 O12,C9 H9 N2 O1 1+,Cl1 1-,13(H2 O1)'
_chemical_name_systematic        
'sym-bis(butano)-cucurbit[6]uril 1-(4-hydroxyphenyl)-1H-imidazol-3-ium clathrate chloride tridecahydrate'
_symmetry_cell_setting           monoclinic
_symmetry_space_group_name_H-M   'P 21/n'
_symmetry_Int_Tables_number      14
_space_group_name_Hall           '-P 2yn'
loop_
_symmetry_equiv_pos_site_id
_symmetry_equiv_pos_as_xyz
1 x,y,z
2 1/2-x,1/2+y,1/2-z
3 -x,-y,-z
4 1/2+x,1/2-y,1/2+z
_cell_length_a                   14.9267(4)
_cell_length_b                   15.4676(4)
_cell_length_c                   28.0120(7)
_cell_angle_alpha                90
_cell_angle_beta                 95.2640(10)
_cell_angle_gamma                90
_cell_volume                     6440.14
_cell_formula_units_Z            4
loop_
_atom_site_label
_atom_site_type_symbol
_atom_site_fract_x
_atom_site_fract_y
_atom_site_fract_z
O1 O 0.14236(15) 0.42537(16) 1.06216(10)
O2 O -0.0225(3) -0.1365(2) 0.85155(13)
O3 O -0.0269(3) 0.0971(2) 1.04688(13)
O4 O 0.2099(4) 0.7346(2) 0.88259(13)
O5 O -0.2491(4) 0.2041(3) 0.61979(17)
O6 O 0.2088(3) 0.1272(3) 1.15142(17)
O7 O -0.1780(3) 0.2033(3) 1.02928(14)
O8 O 0.3886(5) 0.6987(3) 0.93421(19)
O9 O 0.0150(5) 0.6978(3) 0.8649(2)
O10 O -0.0774(6) 0.2591(4) 0.59076(17)
O11 O 0.4609(5) 0.0564(3) 1.0903(2)
O12 O 0.6641(6) 0.1283(5) 0.9901(3)
O13 O 0.4369(5) -0.0324(5) 0.9695(3)
Cl1 Cl 0.2433(3) 0.0051(2) 1.06492(13)
C1 C -0.10941(19) 0.25790(18) 0.71141(10)
H1 H -0.0906 0.2089 0.6932
H2 H -0.1647 0.2802 0.6951
C2 C 0.04672(19) 0.30787(18) 0.70453(10)
C3 C 0.17576(19) 0.3924(2) 0.68219(10)
H3 H 0.1894 0.3370 0.6683
H4 H 0.1690 0.4344 0.6564
C4 C 0.32544(19) 0.36757(19) 0.72475(11)
C5 C 0.47887(19) 0.3843(2) 0.76565(10)
H5 H 0.5209 0.4295 0.7588
H6 H 0.4903 0.3349 0.7458
C6 C 0.48970(17) 0.27428(18) 0.82909(10)
C7 C 0.50081(18) 0.18775(17) 0.90300(10)
H7 H 0.5101 0.1412 0.8808
H8 H 0.5494 0.1854 0.9284
C8 C 0.21655(18) 0.04639(18) 0.92777(11)
H9 H 0.2298 0.0083 0.9018
H10 H 0.2192 0.0123 0.9569
C9 C 0.07185(19) 0.05474(17) 0.87817(10)
C10 C -0.09080(19) 0.06504(17) 0.84978(10)
H11 H -0.0755 0.0190 0.8285
H12 H -0.1403 0.0449 0.8670
C11 C -0.09278(18) 0.15159(17) 0.77672(10)
C12 C 0.07478(18) 0.11028(17) 0.95595(10)
H13 H 0.0795 0.0703 0.9832
C13 C -0.02280(19) 0.11449(18) 0.93174(10)
H14 H -0.0638 0.0788 0.9488
C14 C -0.18636(18) 0.20370(17) 0.83346(10)
C15 C -0.19348(17) 0.26475(17) 0.78835(10)
C16 C -0.06030(19) 0.41502(17) 0.71549(10)
H15 H -0.1075 0.4332 0.6909
C17 C 0.03083(18) 0.45843(18) 0.70825(10)
H16 H 0.0268 0.4950 0.6796
C18 C 0.26552(18) 0.50654(18) 0.73126(10)
H17 H 0.2610 0.5469 0.7042
C19 C 0.36173(18) 0.50434(18) 0.75709(10)
H18 H 0.4023 0.5438 0.7422
C20 C 0.52424(18) 0.41628(18) 0.85562(10)
C21 C 0.53340(18) 0.35194(17) 0.90000(10)
C22 C 0.40095(18) 0.19912(17) 0.97113(10)
H19 H 0.4486 0.1787 0.9949
C23 C 0.30904(18) 0.15667(18) 0.97862(10)
H20 H 0.3144 0.1156 1.0054
C24 C 0.01997(19) 0.25118(19) 0.96160(10)
C25 C 0.16547(18) 0.21964(19) 1.00725(10)
H21 H 0.1698 0.1744 1.0313
H22 H 0.1507 0.2730 1.0229
C26 C 0.29878(19) 0.30608(19) 0.99021(10)
C27 C 0.45315(19) 0.35501(18) 0.97878(10)
H23 H 0.5082 0.3303 0.9941
H24 H 0.4361 0.4028 0.9985
C28 C 0.43424(17) 0.46458(18) 0.91462(10)
C29 C 0.42257(19) 0.55092(18) 0.84045(10)
H25 H 0.4034 0.5953 0.8618
H26 H 0.4715 0.5745 0.8240
C30 C 0.2607(2) 0.55118(18) 0.81069(11)
C31 C 0.12202(18) 0.57223(18) 0.75750(11)
H27 H 0.1225 0.6055 0.7282
H28 H 0.1101 0.6119 0.7830
C32 C -0.01617(19) 0.50187(18) 0.78181(11)
C33 C -0.16427(19) 0.42959(18) 0.78238(11)
H29 H -0.2118 0.4301 0.7563
H30 H -0.1751 0.4774 0.8035
C34 C -0.15265(17) 0.34619(18) 0.85763(10)
C35 C -0.13542(19) 0.23772(19) 0.92258(10)
H31 H -0.1443 0.2879 0.9424
H32 H -0.1780 0.1938 0.9305
C36 C 0.62915(18) 0.35032(19) 0.92449(11)
H33 H 0.6306 0.3148 0.9531
H34 H 0.6689 0.3243 0.9030
C37 C 0.6629(2) 0.4408(2) 0.93823(12)
H35 H 0.7265 0.4379 0.9489
H36 H 0.6316 0.4616 0.9648
C38 C 0.6486(2) 0.5052(2) 0.89638(13)
H37 H 0.6071 0.5498 0.9047
H38 H 0.7055 0.5329 0.8918
C39 C 0.6120(2) 0.4631(2) 0.84947(12)
H39 H 0.6019 0.5070 0.8248
H40 H 0.6558 0.4223 0.8393
C40 C -0.27692(19) 0.16276(19) 0.84135(11)
H41 H -0.2687 0.1218 0.8676
H42 H -0.3178 0.2074 0.8504
C41 C -0.3188(2) 0.1164(2) 0.79685(13)
H43 H -0.3798 0.0994 0.8021
H44 H -0.2849 0.0641 0.7921
C42 C -0.3213(2) 0.1719(2) 0.75130(13)
H45 H -0.2838 0.1452 0.7289
H46 H -0.3824 0.1736 0.7362
C43 C -0.28864(19) 0.2641(2) 0.76166(12)
H47 H -0.3301 0.2933 0.7810
H48 H -0.2878 0.2955 0.7317
C52 C 0.35093(18) 0.11969(17) 0.90271(10)
N1 N -0.12741(15) 0.22841(14) 0.75877(8)
N2 N -0.04120(15) 0.32399(15) 0.71203(9)
N3 N 0.09073(15) 0.38536(15) 0.70379(8)
N4 N 0.25048(15) 0.41773(15) 0.71566(9)
N5 N 0.38856(15) 0.41479(15) 0.75249(8)
N6 N 0.49605(15) 0.35957(15) 0.81564(8)
N7 N 0.50574(15) 0.26946(15) 0.87801(8)
N8 N 0.41719(15) 0.17322(15) 0.92341(8)
N9 N 0.28468(15) 0.11325(15) 0.93330(8)
N10 N 0.12622(15) 0.08001(15) 0.91776(8)
N11 N -0.01383(15) 0.08178(15) 0.88404(8)
N12 N -0.12033(15) 0.13920(15) 0.82136(8)
N13 N 0.25236(15) 0.22949(15) 0.98849(9)
N14 N 0.38344(15) 0.29049(15) 0.97677(9)
N15 N 0.47065(15) 0.38821(15) 0.93175(8)
N16 N 0.45571(15) 0.47681(15) 0.86892(8)
N17 N 0.34853(16) 0.53035(15) 0.80547(8)
N18 N 0.21031(15) 0.53368(15) 0.76874(8)
N19 N 0.04958(15) 0.50884(15) 0.75161(9)
N20 N -0.07914(16) 0.44381(15) 0.76266(9)
N21 N -0.16985(15) 0.34912(14) 0.80891(8)
N22 N -0.15496(15) 0.26180(15) 0.87217(8)
N23 N -0.04525(15) 0.20534(15) 0.93418(8)
N24 N 0.09341(15) 0.19870(15) 0.97127(8)
O14 O 0.07988(14) 0.23661(14) 0.69984(9)
O15 O 0.33614(15) 0.29450(15) 0.70976(10)
O16 O 0.47586(14) 0.21324(13) 0.80199(7)
O17 O 0.35187(14) 0.08323(14) 0.86411(7)
O18 O 0.09519(14) 0.01398(13) 0.84409(7)
O19 O -0.04616(14) 0.10199(13) 0.75566(7)
O20 O 0.27063(14) 0.37661(13) 1.00196(8)
O21 O 0.39029(13) 0.51440(13) 0.93752(7)
O22 O 0.23301(15) 0.58088(15) 0.84727(8)
O23 O -0.02015(14) 0.54081(13) 0.81981(8)
O24 O -0.13966(13) 0.40900(13) 0.88415(7)
O25 O 0.01285(14) 0.32597(13) 0.97491(7)
C44 C 0.14422(19) 0.39664(18) 0.88424(10)
C45 C 0.0757(2) 0.3535(2) 0.85757(13)
H49 H 0.0161 0.3673 0.8613
C46 C 0.0955(2) 0.2898(2) 0.82530(13)
H50 H 0.0489 0.2604 0.8079
C47 C 0.1832(2) 0.26969(19) 0.81871(11)
C48 C 0.2509(2) 0.3111(2) 0.84627(13)
H51 H 0.3105 0.2967 0.8430
C49 C 0.2316(2) 0.3741(2) 0.87889(12)
H52 H 0.2783 0.4015 0.8973
C50 C 0.0412(2) 0.4906(2) 0.92441(12)
H53 H -0.0121 0.4653 0.9114
C51 C 0.1355(2) 0.5769(2) 0.96487(12)
H54 H 0.1582 0.6215 0.9847
C53 C 0.1836(2) 0.5197(2) 0.94155(11)
H55 H 0.2460 0.5173 0.9424
N25 N 0.12358(15) 0.46530(15) 0.91621(9)
N26 N 0.04722(17) 0.55706(16) 0.95389(10)
H56 H 0.0025 0.5837 0.9645
O26 O 0.20431(16) 0.20929(14) 0.78584(8)
H57 H 0.1844 0.2247 0.7589
Cl2? Cl 0.3027(9) 0.0310(5) 1.0913(3)
Cl3? Cl 0.2753(11) -0.0441(17) 1.0490(8)
loop_
_geom_bond_atom_site_label_1
_geom_bond_atom_site_label_2
_geom_bond_site_symmetry_1
_geom_bond_site_symmetry_2
C1 H1 1_555 1_555
H2 C1 1_555 1_555
C2 N2 1_555 1_555
C3 H3 1_555 1_555
H4 C3 1_555 1_555
C4 N4 1_555 1_555
C5 H5 1_555 1_555
H6 C5 1_555 1_555
C6 N6 1_555 1_555
C7 H7 1_555 1_555
H8 C7 1_555 1_555
C8 H9 1_555 1_555
H10 C8 1_555 1_555
C9 N10 1_555 1_555
C10 H11 1_555 1_555
H12 C10 1_555 1_555
C11 N1 1_555 1_555
C12 H13 1_555 1_555
C13 C12 1_555 1_555
H14 C13 1_555 1_555
C14 C15 1_555 1_555
C15 C43 1_555 1_555
C16 H15 1_555 1_555
C17 C16 1_555 1_555
H16 C17 1_555 1_555
C18 H17 1_555 1_555
C19 C18 1_555 1_555
H18 C19 1_555 1_555
C20 C21 1_555 1_555
C21 C36 1_555 1_555
C22 H19 1_555 1_555
C23 C22 1_555 1_555
H20 C23 1_555 1_555
C24 N23 1_555 1_555
C25 H21 1_555 1_555
H22 C25 1_555 1_555
C26 N13 1_555 1_555
C27 H23 1_555 1_555
H24 C27 1_555 1_555
C28 N15 1_555 1_555
C29 H25 1_555 1_555
H26 C29 1_555 1_555
C30 N17 1_555 1_555
C31 H27 1_555 1_555
H28 C31 1_555 1_555
C32 N19 1_555 1_555
C33 H29 1_555 1_555
H30 C33 1_555 1_555
C34 N21 1_555 1_555
C35 H31 1_555 1_555
H32 C35 1_555 1_555
C36 H33 1_555 1_555
H34 C36 1_555 1_555
C37 C36 1_555 1_555
H35 C37 1_555 1_555
H36 C37 1_555 1_555
C38 C37 1_555 1_555
H37 C38 1_555 1_555
H38 C38 1_555 1_555
C39 C20 1_555 1_555
H39 C39 1_555 1_555
H40 C39 1_555 1_555
C40 C14 1_555 1_555
H41 C40 1_555 1_555
H42 C40 1_555 1_555
C41 C40 1_555 1_555
H43 C41 1_555 1_555
H44 C41 1_555 1_555
C42 C41 1_555 1_555
H45 C42 1_555 1_555
H46 C42 1_555 1_555
C43 C42 1_555 1_555
H47 C43 1_555 1_555
H48 C43 1_555 1_555
C44 C45 1_555 1_555
C45 H49 1_555 1_555
C46 C45 1_555 1_555
H50 C46 1_555 1_555
C47 C46 1_555 1_555
C48 C47 1_555 1_555
H51 C48 1_555 1_555
C49 C44 1_555 1_555
H52 C49 1_555 1_555
C50 H53 1_555 1_555
C51 H54 1_555 1_555
C52 N8 1_555 1_555
C53 C51 1_555 1_555
H55 C53 1_555 1_555
N1 C1 1_555 1_555
N2 C1 1_555 1_555
N3 C2 1_555 1_555
N4 C3 1_555 1_555
N5 C4 1_555 1_555
N6 C5 1_555 1_555
N7 C6 1_555 1_555
N8 C7 1_555 1_555
N9 C8 1_555 1_555
N10 C8 1_555 1_555
N11 C9 1_555 1_555
N12 C10 1_555 1_555
N13 C23 1_555 1_555
N14 C22 1_555 1_555
N15 C21 1_555 1_555
N16 C20 1_555 1_555
N17 C19 1_555 1_555
N18 C18 1_555 1_555
N19 C17 1_555 1_555
N20 C16 1_555 1_555
N21 C15 1_555 1_555
N22 C14 1_555 1_555
N23 C13 1_555 1_555
N24 C12 1_555 1_555
N25 C44 1_555 1_555
N26 C50 1_555 1_555
H56 N26 1_555 1_555
O14 C2 1_555 1_555
O15 C4 1_555 1_555
O16 C6 1_555 1_555
O17 C52 1_555 1_555
O18 C9 1_555 1_555
O19 C11 1_555 1_555
O20 C26 1_555 1_555
O21 C28 1_555 1_555
O22 C30 1_555 1_555
O23 C32 1_555 1_555
O24 C34 1_555 1_555
O25 C24 1_555 1_555
O26 C47 1_555 1_555
H57 O26 1_555 1_555
C3 N3 1_555 1_555
C5 N5 1_555 1_555
C7 N7 1_555 1_555
C10 N11 1_555 1_555
C11 N12 1_555 1_555
C12 N10 1_555 1_555
C13 N11 1_555 1_555
C14 N12 1_555 1_555
C15 N1 1_555 1_555
C16 N2 1_555 1_555
C17 N3 1_555 1_555
C18 N4 1_555 1_555
C19 N5 1_555 1_555
C20 N6 1_555 1_555
C21 N7 1_555 1_555
C22 N8 1_555 1_555
C23 N9 1_555 1_555
C24 N24 1_555 1_555
C25 N13 1_555 1_555
C25 N24 1_555 1_555
C26 N14 1_555 1_555
C27 N14 1_555 1_555
C27 N15 1_555 1_555
C28 N16 1_555 1_555
C29 N16 1_555 1_555
C29 N17 1_555 1_555
C30 N18 1_555 1_555
C31 N18 1_555 1_555
C31 N19 1_555 1_555
C32 N20 1_555 1_555
C33 N20 1_555 1_555
C33 N21 1_555 1_555
C34 N22 1_555 1_555
C35 N22 1_555 1_555
C35 N23 1_555 1_555
C38 C39 1_555 1_555
C48 C49 1_555 1_555
C50 N25 1_555 1_555
C51 N26 1_555 1_555
C52 N9 1_555 1_555
C53 N25 1_555 1_555

#END
