
#######################################################################
#
#                 Cambridge Crystallographic Data Centre
#                                CCDC 
#
#######################################################################
#
# If this CIF has been generated from an entry in the Cambridge 
# Structural Database, then it will include bibliographic, chemical, 
# crystal, experimental, refinement or atomic coordinate data resulting 
# from the CCDC's data processing and validation procedures.
#
#######################################################################

data_PUNPAQ
_chemical_formula_moiety         'C24 H35 Br1 N1 O3 1+,Cl1 1-'
_chemical_name_systematic        
'10-(1-((4-Bromobenzoyl)oxy)propan-2-yl)-8-ethyl-9-hydroxydodecahydroazepino[3,2,1-hi]indolium chloride'
_symmetry_cell_setting           orthorhombic
_symmetry_space_group_name_H-M   'P 21 21 21'
_symmetry_Int_Tables_number      19
_space_group_name_Hall           'P 2ac 2ab'
loop_
_symmetry_equiv_pos_site_id
_symmetry_equiv_pos_as_xyz
1 x,y,z
2 1/2-x,-y,1/2+z
3 -x,1/2+y,1/2-z
4 1/2+x,1/2-y,-z
_cell_length_a                   7.9485(6)
_cell_length_b                   12.8211(9)
_cell_length_c                   24.1928(17)
_cell_angle_alpha                90
_cell_angle_beta                 90
_cell_angle_gamma                90
_cell_volume                     2465.45
_exptl_crystal_colour            colorless
_exptl_crystal_description       plate
_cell_formula_units_Z            4
loop_
_atom_site_label
_atom_site_type_symbol
_atom_site_fract_x
_atom_site_fract_y
_atom_site_fract_z
Br1 Br 1.26694(8) 0.67562(5) 0.00728(3)
O1 O 0.5890(3) 0.36889(19) 0.18001(9)
H1 H 0.6601 0.4150 0.1825
O2 O 0.5488(3) 0.3978(2) 0.03704(10)
O3 O 0.5218(4) 0.4311(2) -0.05255(11)
C1 C 0.2806(4) 0.2494(2) 0.18478(13)
H2 H 0.3795 0.2067 0.1934
C2 C 0.1313(4) 0.1781(3) 0.17252(14)
H3 H 0.1361 0.1521 0.1349
H4 H 0.1291 0.1193 0.1977
C3 C -0.0203(4) 0.2466(3) 0.18074(16)
H5 H -0.1191 0.2053 0.1893
H6 H -0.0427 0.2879 0.1479
N1 N 0.0274(3) 0.3158(2) 0.22902(11)
H7 H 0.0057 0.3833 0.2199
C4 C -0.0712(5) 0.2884(3) 0.27954(14)
H8 H -0.0377 0.2194 0.2917
H9 H -0.1894 0.2852 0.2698
C5 C -0.0506(5) 0.3632(3) 0.32711(15)
H10 H -0.1075 0.3338 0.3590
H11 H -0.1083 0.4274 0.3177
C6 C 0.1273(6) 0.3905(3) 0.34412(14)
H12 H 0.1907 0.3265 0.3489
H13 H 0.1239 0.4259 0.3795
C7 C 0.2190(5) 0.4597(3) 0.30261(14)
H14 H 0.3027 0.5001 0.3224
H15 H 0.1384 0.5084 0.2871
C8 C 0.3071(4) 0.4029(3) 0.25453(13)
H16 H 0.4175 0.3816 0.2686
C9 C 0.2183(4) 0.3028(3) 0.23754(13)
H17 H 0.2334 0.2529 0.2678
C10 C 0.3420(4) 0.4741(3) 0.20504(13)
H18 H 0.2326 0.4946 0.1899
C11 C 0.4342(4) 0.4126(3) 0.15957(14)
H19 H 0.4598 0.4598 0.1289
C12 C 0.3237(4) 0.3243(3) 0.13831(12)
H20 H 0.2171 0.3570 0.1277
C13 C 0.3869(5) 0.2667(3) 0.08614(14)
H21 H 0.2989 0.2156 0.0778
C14 C 0.3965(5) 0.3350(4) 0.03550(15)
H22 H 0.3966 0.2918 0.0026
H23 H 0.2988 0.3802 0.0340
C15 C 0.5470(5) 0.2027(3) 0.09258(16)
H24 H 0.5379 0.1592 0.1248
H25 H 0.6415 0.2486 0.0966
H26 H 0.5624 0.1597 0.0605
C16 C 0.4353(4) 0.5748(3) 0.22028(15)
H27 H 0.3733 0.6102 0.2493
H28 H 0.5451 0.5568 0.2349
C17 C 0.4582(5) 0.6490(3) 0.17230(16)
H29 H 0.5170 0.7101 0.1846
H30 H 0.3500 0.6687 0.1580
H31 H 0.5221 0.6153 0.1437
C18 C 0.5980(5) 0.4396(3) -0.01060(16)
C19 C 0.7604(5) 0.4961(3) -0.00453(14)
C20 C 0.8403(5) 0.5090(3) 0.04539(17)
H32 H 0.7918 0.4813 0.0771
C21 C 0.9892(6) 0.5615(4) 0.04948(18)
H33 H 1.0415 0.5701 0.0836
C22 C 1.0609(5) 0.6017(3) 0.0018(2)
C23 C 0.9846(7) 0.5898(3) -0.04818(18)
H34 H 1.0344 0.6166 -0.0799
C24 C 0.8330(5) 0.5377(3) -0.05150(16)
H35 H 0.7795 0.5306 -0.0855
Cl1 Cl 0.88558(10) 0.52730(7) 0.19180(4)
loop_
_geom_bond_atom_site_label_1
_geom_bond_atom_site_label_2
_geom_bond_site_symmetry_1
_geom_bond_site_symmetry_2
Br1 C22 1_555 1_555
O1 H1 1_555 1_555
O2 C14 1_555 1_555
O3 C18 1_555 1_555
C1 H2 1_555 1_555
C2 C1 1_555 1_555
H3 C2 1_555 1_555
H4 C2 1_555 1_555
C3 C2 1_555 1_555
H5 C3 1_555 1_555
H6 C3 1_555 1_555
N1 C3 1_555 1_555
H7 N1 1_555 1_555
C4 N1 1_555 1_555
H8 C4 1_555 1_555
H9 C4 1_555 1_555
C5 C4 1_555 1_555
H10 C5 1_555 1_555
H11 C5 1_555 1_555
C6 C5 1_555 1_555
H12 C6 1_555 1_555
H13 C6 1_555 1_555
C7 C6 1_555 1_555
H14 C7 1_555 1_555
H15 C7 1_555 1_555
C8 C7 1_555 1_555
H16 C8 1_555 1_555
C9 C1 1_555 1_555
H17 C9 1_555 1_555
C10 C8 1_555 1_555
H18 C10 1_555 1_555
C11 O1 1_555 1_555
H19 C11 1_555 1_555
C12 C1 1_555 1_555
H20 C12 1_555 1_555
C13 C12 1_555 1_555
H21 C13 1_555 1_555
C14 C13 1_555 1_555
H22 C14 1_555 1_555
H23 C14 1_555 1_555
C15 C13 1_555 1_555
H24 C15 1_555 1_555
H25 C15 1_555 1_555
H26 C15 1_555 1_555
C16 C10 1_555 1_555
H27 C16 1_555 1_555
H28 C16 1_555 1_555
C17 C16 1_555 1_555
H29 C17 1_555 1_555
H30 C17 1_555 1_555
H31 C17 1_555 1_555
C18 O2 1_555 1_555
C19 C18 1_555 1_555
C20 C19 1_555 1_555
H32 C20 1_555 1_555
C21 C20 1_555 1_555
H33 C21 1_555 1_555
C22 C21 1_555 1_555
C23 C22 1_555 1_555
H34 C23 1_555 1_555
C24 C19 1_555 1_555
H35 C24 1_555 1_555
N1 C9 1_555 1_555
C8 C9 1_555 1_555
C10 C11 1_555 1_555
C11 C12 1_555 1_555
C23 C24 1_555 1_555

#END
