
#######################################################################
#
#                 Cambridge Crystallographic Data Centre
#                                CCDC 
#
#######################################################################
#
# If this CIF has been generated from an entry in the Cambridge 
# Structural Database, then it will include bibliographic, chemical, 
# crystal, experimental, refinement or atomic coordinate data resulting 
# from the CCDC's data processing and validation procedures.
#
#######################################################################

data_PUNPEU
_chemical_formula_moiety         'C18 H34 N1 O2 1+,I1 1-'
_chemical_name_systematic        
'8-Ethyl-9-hydroxy-10-(1-hydroxypropan-2-yl)-3-methyldodecahydroazepino[3,2,1-hi]indolium iodide'
_symmetry_cell_setting           orthorhombic
_symmetry_space_group_name_H-M   'P 21 21 21'
_symmetry_Int_Tables_number      19
_space_group_name_Hall           'P 2ac 2ab'
loop_
_symmetry_equiv_pos_site_id
_symmetry_equiv_pos_as_xyz
1 x,y,z
2 1/2-x,-y,1/2+z
3 -x,1/2+y,1/2-z
4 1/2+x,1/2-y,-z
_cell_length_a                   9.2760(6)
_cell_length_b                   13.6623(9)
_cell_length_c                   14.7928(10)
_cell_angle_alpha                90
_cell_angle_beta                 90
_cell_angle_gamma                90
_cell_volume                     1874.71
_exptl_crystal_colour            colorless
_exptl_crystal_description       plate
_cell_formula_units_Z            4
loop_
_atom_site_label
_atom_site_type_symbol
_atom_site_fract_x
_atom_site_fract_y
_atom_site_fract_z
O1 O 0.7719(6) 0.2748(4) 0.2412(4)
H1 H 0.8480 0.2946 0.2198
O2 O 0.8056(10) 0.1944(8) 0.5755(5)
H2 H 0.7715 0.1788 0.6246
C1 C 0.5436(7) 0.1496(6) 0.3360(5)
H3 H 0.5279 0.2164 0.3581
C2 C 0.4631(9) 0.0795(8) 0.4010(6)
H4 H 0.5306 0.0458 0.4402
H5 H 0.3948 0.1153 0.4380
C3 C 0.395(4) 0.016(2) 0.3478(18)
H6 H 0.2986 0.0082 0.3716
H7 H 0.4436 -0.0462 0.3540
N1 N 0.3823(7) 0.0360(4) 0.2537(4)
C4 C 0.246(2) 0.0335(16) 0.2010(14)
H8 H 0.1987 0.0969 0.2013
H9 H 0.1799 -0.0151 0.2250
C5 C 0.303(2) 0.0020(17) 0.0922(14)
H10 H 0.3369 -0.0651 0.0947
H11 H 0.2187 0.0025 0.0535
C6 C 0.430(2) 0.0668(14) 0.0401(12)
H12 H 0.5199 0.0308 0.0411
H13 H 0.4026 0.0764 -0.0226
C7 C 0.4492(17) 0.1557(14) 0.0804(10)
H14 H 0.3547 0.1814 0.0953
H15 H 0.4910 0.1994 0.0358
C8 C 0.5370(9) 0.1611(7) 0.1608(6)
H16 H 0.5482 0.2321 0.1665
C9 C 0.4571(8) 0.1384(6) 0.2481(6)
H17 H 0.3791 0.1867 0.2519
C10 C 0.6949(8) 0.1291(5) 0.1608(5)
H18 H 0.6962 0.0575 0.1652
C11 C 0.7731(7) 0.1690(5) 0.2436(4)
H19 H 0.8736 0.1470 0.2411
C12 C 0.7066(7) 0.1325(5) 0.3335(4)
H20 H 0.7221 0.0616 0.3362
C13 C 0.7878(9) 0.1780(6) 0.4139(5)
H21 H 0.7799 0.2493 0.4086
C14 C 0.7279(10) 0.1488(9) 0.5064(6)
H22 H 0.6273 0.1675 0.5103
H23 H 0.7339 0.0783 0.5134
C15 C 0.9482(9) 0.1518(10) 0.4119(7)
H24 H 0.9958 0.1811 0.4628
H25 H 0.9905 0.1759 0.3570
H26 H 0.9591 0.0820 0.4146
C16 C 0.7787(12) 0.1573(9) 0.0734(6)
H27 H 0.7280 0.1300 0.0219
H28 H 0.7766 0.2280 0.0673
C17 C 0.9312(15) 0.1246(8) 0.0693(8)
H29 H 0.9736 0.1462 0.0136
H30 H 0.9350 0.0545 0.0724
H31 H 0.9836 0.1520 0.1192
C18 C 0.449(2) -0.0448(14) 0.2107(13)
H32 H 0.5439 -0.0543 0.2357
H33 H 0.4573 -0.0322 0.1471
H34 H 0.3926 -0.1026 0.2202
I1 I 0.13314(6) 0.35337(4) 0.21817(4)
loop_
_geom_bond_atom_site_label_1
_geom_bond_atom_site_label_2
_geom_bond_site_symmetry_1
_geom_bond_site_symmetry_2
O1 H1 1_555 1_555
O2 H2 1_555 1_555
C1 H3 1_555 1_555
C2 C1 1_555 1_555
H4 C2 1_555 1_555
H5 C2 1_555 1_555
C3 C2 1_555 1_555
H6 C3 1_555 1_555
H7 C3 1_555 1_555
N1 C3 1_555 1_555
C4 N1 1_555 1_555
H8 C4 1_555 1_555
H9 C4 1_555 1_555
C5 C4 1_555 1_555
H10 C5 1_555 1_555
H11 C5 1_555 1_555
C6 C5 1_555 1_555
H12 C6 1_555 1_555
H13 C6 1_555 1_555
C7 C6 1_555 1_555
H14 C7 1_555 1_555
H15 C7 1_555 1_555
C8 C7 1_555 1_555
H16 C8 1_555 1_555
C9 C1 1_555 1_555
H17 C9 1_555 1_555
C10 C8 1_555 1_555
H18 C10 1_555 1_555
C11 O1 1_555 1_555
H19 C11 1_555 1_555
C12 C1 1_555 1_555
H20 C12 1_555 1_555
C13 C12 1_555 1_555
H21 C13 1_555 1_555
C14 O2 1_555 1_555
H22 C14 1_555 1_555
H23 C14 1_555 1_555
C15 C13 1_555 1_555
H24 C15 1_555 1_555
H25 C15 1_555 1_555
H26 C15 1_555 1_555
C16 C10 1_555 1_555
H27 C16 1_555 1_555
H28 C16 1_555 1_555
C17 C16 1_555 1_555
H29 C17 1_555 1_555
H30 C17 1_555 1_555
H31 C17 1_555 1_555
C18 N1 1_555 1_555
H32 C18 1_555 1_555
H33 C18 1_555 1_555
H34 C18 1_555 1_555
N1 C9 1_555 1_555
C8 C9 1_555 1_555
C10 C11 1_555 1_555
C11 C12 1_555 1_555
C13 C14 1_555 1_555

#END
