
#######################################################################
#
#                 Cambridge Crystallographic Data Centre
#                                CCDC 
#
#######################################################################
#
# If this CIF has been generated from an entry in the Cambridge 
# Structural Database, then it will include bibliographic, chemical, 
# crystal, experimental, refinement or atomic coordinate data resulting 
# from the CCDC's data processing and validation procedures.
#
#######################################################################

data_PUNQAQ
_chemical_formula_moiety         'C42 H67 N1 O8 Si3'
_chemical_name_systematic        
"(1S*,2R*,3R*,4R*)-4,6-bis(t-Butyldimethylsilyloxy)-4-cyano-3-hydroxymethyl-7-isopropyl-1-(4'-t-butyldimethylsiloxy-3',5'-dimethoxyphenyl)-1,2,3,4-tetrahydronaphthalene-2-carboxylic acid lactone"
_symmetry_cell_setting           triclinic
_symmetry_space_group_name_H-M   'P -1'
_symmetry_Int_Tables_number      2
_space_group_name_Hall           '-P 1'
loop_
_symmetry_equiv_pos_site_id
_symmetry_equiv_pos_as_xyz
1 x,y,z
2 -x,-y,-z
_cell_length_a                   7.183(4)
_cell_length_b                   17.383(3)
_cell_length_c                   19.708(3)
_cell_angle_alpha                81.52(1)
_cell_angle_beta                 83.34(4)
_cell_angle_gamma                84.21(4)
_cell_volume                     2408.65
_exptl_crystal_colour            white
_exptl_crystal_description       needles
_chemical_melting_point          '162-164 deg.C'
_cell_formula_units_Z            2
_exptl_crystal_recrystallization_method methanol
loop_
_atom_site_label
_atom_site_type_symbol
_atom_site_fract_x
_atom_site_fract_y
_atom_site_fract_z
Si1 Si 0.0610(5) 0.3792(2) 0.6476(2)
Si2 Si -0.0064(5) -0.0224(2) 0.1889(2)
Si3 Si 0.3320(14) 0.2721(5) 0.0475(4)
O1 O -0.0174(8) 0.3126(4) 0.6077(3)
O2 O -0.1982(9) 0.3220(4) 0.4977(3)
O3 O 0.3191(10) 0.2339(4) 0.6165(3)
O4 O 0.1735(9) -0.0697(4) 0.4516(3)
O5 O 0.2789(9) 0.0026(4) 0.5207(3)
O6 O 0.1236(7) 0.0232(3) 0.2315(3)
O7 O 0.4538(10) 0.3443(4) 0.2080(3)
O8 O 0.2577(13) 0.2876(5) 0.1219(4)
N1 N -0.2691(13) 0.0976(6) 0.3193(5)
C1 C 0.2130(11) 0.1896(5) 0.4482(4)
C2 C 0.0429(11) 0.2350(5) 0.4436(4)
C3 C -0.0300(11) 0.2771(5) 0.4966(4)
C4 C 0.0653(12) 0.2750(5) 0.5546(5)
C5 C 0.2347(13) 0.2312(5) 0.5572(4)
C6 C 0.3114(12) 0.1882(5) 0.5049(4)
C7 C 0.2523(16) 0.4261(7) 0.5956(7)
C8 C 0.1405(21) 0.3300(8) 0.7342(6)
C9 C -0.1391(20) 0.4442(10) 0.6672(10)
C10 C -0.2022(20) 0.4868(8) 0.5954(8)
C11 C -0.2999(19) 0.3938(10) 0.7107(9)
C12 C -0.0985(21) 0.5033(10) 0.7145(10)
C13 C -0.3035(14) 0.3272(6) 0.4409(5)
C14 C 0.5008(15) 0.1950(8) 0.6225(6)
C15 C 0.2830(10) 0.1347(4) 0.3955(4)
C16 C 0.1696(11) 0.0623(5) 0.4101(4)
C17 C 0.1850(11) 0.0171(4) 0.3499(4)
C18 C 0.0951(11) 0.0637(5) 0.2892(4)
C19 C 0.1046(13) -0.0583(5) 0.3843(5)
C20 C 0.2199(12) -0.0013(6) 0.4681(5)
C21 C -0.1139(16) 0.0832(5) 0.3069(5)
C22 C -0.1669(20) -0.0868(8) 0.2488(7)
C23 C -0.1508(19) 0.0494(9) 0.1332(8)
C24 C 0.1750(24) -0.0812(10) 0.1378(8)
C25 C 0.2966(25) -0.1359(10) 0.1861(10)
C26 C 0.2969(25) -0.0235(12) 0.0885(8)
C27 C 0.0842(29) -0.1299(11) 0.0944(8)
C28 C 0.1879(11) 0.1411(5) 0.2734(4)
C29 C 0.2718(11) 0.1727(5) 0.3217(4)
C30 C 0.3597(11) 0.2412(5) 0.2994(4)
C31 C 0.3650(13) 0.2779(5) 0.2336(5)
C32 C 0.2736(14) 0.2475(6) 0.1869(5)
C33 C 0.1894(13) 0.1813(6) 0.2057(4)
C34 C 0.5988(16) 0.3666(6) 0.2428(6)
C35 C 0.7684(15) 0.3100(6) 0.2433(6)
C36 C 0.6449(19) 0.4456(6) 0.2030(7)
C37 C 0.2720(29) 0.3341(15) -0.0172(6)
C38 C 0.3730(45) 0.3476(17) -0.0848(9)
C39 C 0.0705(43) 0.3537(25) -0.0193(17)
C40 C 0.6015(30) 0.2779(40) 0.0568(14)
C41 C 0.2700(73) 0.1938(21) 0.0104(19)
H1 H -0.0217(11) 0.2371(5) 0.4050(4)
H2 H 0.4268(12) 0.1590(5) 0.5080(4)
H3 H 0.3653(28) 0.3916(18) 0.5975(30)
H4 H 0.2703(67) 0.4733(23) 0.6129(23)
H5 H 0.2230(47) 0.4382(39) 0.5487(10)
H6 H 0.180(10) 0.3687(11) 0.7584(18)
H7 H 0.2436(71) 0.2917(33) 0.7264(6)
H8 H 0.0378(37) 0.3052(37) 0.7614(16)
H9 H -0.3187(56) 0.5179(35) 0.6031(9)
H10 H -0.219(10) 0.4484(8) 0.5666(16)
H11 H -0.1072(51) 0.5196(33) 0.5729(19)
H12 H -0.3289(77) 0.3550(31) 0.6844(18)
H13 H -0.4110(38) 0.4276(13) 0.7203(33)
H14 H -0.2559(41) 0.3686(35) 0.7532(19)
H15 H -0.0588(98) 0.4755(10) 0.7569(17)
H16 H -0.2108(37) 0.5365(31) 0.7242(34)
H17 H -0.0010(78) 0.5346(29) 0.6915(17)
H18 H -0.4202(47) 0.3580(37) 0.4495(17)
H19 H -0.3286(89) 0.2758(7) 0.4342(24)
H20 H -0.2334(46) 0.3514(38) 0.4003(9)
H21 H 0.5406(47) 0.2005(38) 0.6662(17)
H22 H 0.5879(25) 0.2176(29) 0.5861(24)
H23 H 0.4971(26) 0.1407(10) 0.6191(38)
H24 H 0.4150(10) 0.1174(4) 0.4013(4)
H25 H 0.0368(11) 0.0804(5) 0.4198(4)
H26 H 0.3188(11) 0.0053(4) 0.3354(4)
H27 H -0.0318(13) -0.0529(5) 0.3882(5)
H28 H 0.1503(13) -0.1013(5) 0.3588(5)
H29 H -0.2306(82) -0.1162(33) 0.2225(8)
H30 H -0.2577(66) -0.0551(8) 0.2747(28)
H31 H -0.0942(22) -0.1219(30) 0.2800(26)
H32 H -0.2236(82) 0.0222(9) 0.1080(30)
H33 H -0.0699(19) 0.0816(30) 0.1014(26)
H34 H -0.2337(74) 0.0815(29) 0.1613(8)
H35 H 0.3738(80) -0.1058(11) 0.2068(32)
H36 H 0.3753(80) -0.1718(31) 0.1604(12)
H37 H 0.2171(25) -0.1644(32) 0.2215(24)
H38 H 0.2173(27) 0.0125(29) 0.0606(28)
H39 H 0.3861(72) -0.0521(12) 0.0594(28)
H40 H 0.3629(87) 0.0047(35) 0.1152(8)
H41 H 0.053(10) -0.0982(17) 0.0525(20)
H42 H -0.0280(61) -0.1489(37) 0.1199(18)
H43 H 0.1706(46) -0.1733(27) 0.0836(33)
H44 H 0.4174(11) 0.2628(5) 0.3311(4)
H45 H 0.1304(13) 0.1612(6) 0.1733(4)
H46 H 0.5498(16) 0.3731(6) 0.2903(6)
H47 H 0.8664(37) 0.3311(19) 0.2621(35)
H48 H 0.8105(61) 0.3005(33) 0.1970(7)
H49 H 0.7377(30) 0.2619(16) 0.2710(31)
H50 H 0.7062(91) 0.4385(8) 0.1581(16)
H51 H 0.7268(86) 0.4692(20) 0.2275(20)
H52 H 0.5308(22) 0.4789(15) 0.1982(33)
Si4? Si 0.3631(12) 0.3326(6) 0.0581(3)
C42? C 0.280(11) 0.4298(16) 0.0592(44)
loop_
_geom_bond_atom_site_label_1
_geom_bond_atom_site_label_2
_geom_bond_site_symmetry_1
_geom_bond_site_symmetry_2
Si1 O1 1_555 1_555
Si2 O6 1_555 1_555
Si3 O8 1_555 1_555
O1 C4 1_555 1_555
O2 C3 1_555 1_555
O3 C5 1_555 1_555
O4 C19 1_555 1_555
O5 C20 1_555 1_555
O6 C18 1_555 1_555
O7 C31 1_555 1_555
O8 C32 1_555 1_555
N1 C21 1_555 1_555
C1 C2 1_555 1_555
C2 C3 1_555 1_555
C3 C4 1_555 1_555
C4 C5 1_555 1_555
C5 C6 1_555 1_555
C6 C1 1_555 1_555
C7 Si1 1_555 1_555
C8 Si1 1_555 1_555
C9 Si1 1_555 1_555
C10 C9 1_555 1_555
C11 C9 1_555 1_555
C12 C9 1_555 1_555
C13 O2 1_555 1_555
C14 O3 1_555 1_555
C15 C1 1_555 1_555
C16 C15 1_555 1_555
C17 C16 1_555 1_555
C18 C17 1_555 1_555
C19 C17 1_555 1_555
C20 O4 1_555 1_555
C21 C18 1_555 1_555
C22 Si2 1_555 1_555
C23 Si2 1_555 1_555
C24 Si2 1_555 1_555
C25 C24 1_555 1_555
C26 C24 1_555 1_555
C27 C24 1_555 1_555
C28 C18 1_555 1_555
C29 C15 1_555 1_555
C30 C29 1_555 1_555
C31 C30 1_555 1_555
C32 C31 1_555 1_555
C33 C28 1_555 1_555
C34 O7 1_555 1_555
C35 C34 1_555 1_555
C36 C34 1_555 1_555
C37 Si3 1_555 1_555
C38 C37 1_555 1_555
C39 C37 1_555 1_555
C40 Si3 1_555 1_555
C41 Si3 1_555 1_555
H1 C2 1_555 1_555
H2 C6 1_555 1_555
H3 C7 1_555 1_555
H4 C7 1_555 1_555
H5 C7 1_555 1_555
H6 C8 1_555 1_555
H7 C8 1_555 1_555
H8 C8 1_555 1_555
H9 C10 1_555 1_555
H10 C10 1_555 1_555
H11 C10 1_555 1_555
H12 C11 1_555 1_555
H13 C11 1_555 1_555
H14 C11 1_555 1_555
H15 C12 1_555 1_555
H16 C12 1_555 1_555
H17 C12 1_555 1_555
H18 C13 1_555 1_555
H19 C13 1_555 1_555
H20 C13 1_555 1_555
H21 C14 1_555 1_555
H22 C14 1_555 1_555
H23 C14 1_555 1_555
H24 C15 1_555 1_555
H25 C16 1_555 1_555
H26 C17 1_555 1_555
H27 C19 1_555 1_555
H28 C19 1_555 1_555
H29 C22 1_555 1_555
H30 C22 1_555 1_555
H31 C22 1_555 1_555
H32 C23 1_555 1_555
H33 C23 1_555 1_555
H34 C23 1_555 1_555
H35 C25 1_555 1_555
H36 C25 1_555 1_555
H37 C25 1_555 1_555
H38 C26 1_555 1_555
H39 C26 1_555 1_555
H40 C26 1_555 1_555
H41 C27 1_555 1_555
H42 C27 1_555 1_555
H43 C27 1_555 1_555
H44 C30 1_555 1_555
H45 C33 1_555 1_555
H46 C34 1_555 1_555
H47 C35 1_555 1_555
H48 C35 1_555 1_555
H49 C35 1_555 1_555
H50 C36 1_555 1_555
H51 C36 1_555 1_555
H52 C36 1_555 1_555
C16 C20 1_555 1_555
C28 C29 1_555 1_555
C32 C33 1_555 1_555

#END
