
#######################################################################
#
#                 Cambridge Crystallographic Data Centre
#                                CCDC 
#
#######################################################################
#
# If this CIF has been generated from an entry in the Cambridge 
# Structural Database, then it will include bibliographic, chemical, 
# crystal, experimental, refinement or atomic coordinate data resulting 
# from the CCDC's data processing and validation procedures.
#
#######################################################################

data_PUNREV01
_chemical_formula_moiety         'C20 H30 Mg2 N8 O9'
_chemical_name_systematic        
bis(\m~2~-Acetato-O,O')-(\m~2~-aqua)-bis(acetoxy-bis(imidazole)-magnesium(ii))
_symmetry_cell_setting           orthorhombic
_symmetry_space_group_name_H-M   'A b a 2'
_symmetry_Int_Tables_number      41
_space_group_name_Hall           'A 2 -2ab'
loop_
_symmetry_equiv_pos_site_id
_symmetry_equiv_pos_as_xyz
1 x,y,z
2 -x,-y,z
3 1/2-x,1/2+y,z
4 1/2+x,1/2-y,z
5 x,1/2+y,1/2+z
6 -x,1/2-y,1/2+z
7 1/2-x,y,1/2+z
8 1/2+x,-y,1/2+z
_cell_length_a                   8.698(3)
_cell_length_b                   19.131(5)
_cell_length_c                   16.852(4)
_cell_angle_alpha                90
_cell_angle_beta                 90
_cell_angle_gamma                90
_cell_volume                     2804.2
_exptl_crystal_colour            colorless
_exptl_crystal_description       sheet
_cell_formula_units_Z            4
_exptl_crystal_recrystallization_method 'methanol/diethyl ether'
loop_
_atom_site_label
_atom_site_type_symbol
_atom_site_fract_x
_atom_site_fract_y
_atom_site_fract_z
Mg1 Mg 0.1005(2) 0.0839(1) 0.5000
O1 O 0.0000 0.0000 0.5673(4)
O2 O -0.0956(4) 0.0876(2) 0.4283(3)
O3 O 0.2103(4) 0.0159(2) 0.4280(3)
C1 C -0.1961(6) 0.0455(2) 0.4053(4)
C2 C -0.3100(10) 0.0701(3) 0.3435(6)
N1 N 0.2119(5) 0.1685(2) 0.4358(3)
C3 C 0.2263(7) 0.2339(3) 0.4599(4)
N2 N 0.3240(6) 0.2695(2) 0.4162(4)
C4 C 0.3778(8) 0.2262(3) 0.3599(4)
C5 C 0.3088(7) 0.1638(3) 0.3721(4)
N3 N 0.2898(5) 0.0829(2) 0.5873(3)
C6 C 0.4420(7) 0.0843(3) 0.5758(5)
N4 N 0.5193(5) 0.0870(2) 0.6438(4)
C7 C 0.4149(8) 0.0866(3) 0.7036(4)
C8 C 0.2758(3) 0.0846(1) 0.6687(2)
O4 O -0.0040(3) 0.1583(1) 0.5716(2)
C9 C -0.1061(3) 0.1518(1) 0.6228(2)
O5 O -0.1649(3) 0.0950(1) 0.6431(2)
C10 C -0.1613(3) 0.2178(1) 0.6635(2)
H1 H 0.0675(75) -0.0304(34) 0.6029(42)
H2 H -0.3796 0.0330 0.3301
H3 H -0.3669 0.1088 0.3648
H4 H -0.2559 0.0848 0.2967
H5 H 0.1728 0.2525 0.5051
H6 H 0.3495 0.3148 0.4223
H7 H 0.4506 0.2373 0.3190
H8 H 0.3248 0.1223 0.3412
H9 H 0.4875 0.0826 0.5239
H10 H 0.6219 0.0891 0.6484
H11 H 0.4378 0.0877 0.7593
H12 H 0.1792 0.0840 0.6963
H13 H -0.2395 0.2060 0.7014
H14 H -0.0768 0.2399 0.6902
H15 H -0.2031 0.2492 0.6246
Mg1A Mg -0.1005(2) -0.0839(1) 0.5000
O2A O 0.0956(4) -0.0876(2) 0.4283(3)
C1A C 0.1961(6) -0.0455(2) 0.4053(4)
O3A O -0.2103(4) -0.0159(2) 0.4280(3)
N1A N -0.2119(5) -0.1685(2) 0.4358(3)
C3A C -0.2263(7) -0.2339(3) 0.4599(4)
N2A N -0.3240(6) -0.2695(2) 0.4162(4)
C4A C -0.3778(8) -0.2262(3) 0.3599(4)
C5A C -0.3088(7) -0.1638(3) 0.3721(4)
H8A H -0.3248 -0.1223 0.3412
H7A H -0.4506 -0.2373 0.3190
H6A H -0.3495 -0.3148 0.4223
H5A H -0.1728 -0.2525 0.5051
N3A N -0.2898(5) -0.0829(2) 0.5873(3)
C6A C -0.4420(7) -0.0843(3) 0.5758(5)
N4A N -0.5193(5) -0.0870(2) 0.6438(4)
C7A C -0.4149(8) -0.0866(3) 0.7036(4)
C8A C -0.2758(3) -0.0846(1) 0.6687(2)
H12A H -0.1792 -0.0840 0.6963
H11A H -0.4378 -0.0877 0.7593
H10A H -0.6219 -0.0891 0.6484
H9A H -0.4875 -0.0826 0.5239
O4A O 0.0040(3) -0.1583(1) 0.5716(2)
C9A C 0.1061(3) -0.1518(1) 0.6228(2)
O5A O 0.1649(3) -0.0950(1) 0.6431(2)
C10A C 0.1613(3) -0.2178(1) 0.6635(2)
H13A H 0.2395 -0.2060 0.7014
H14A H 0.0768 -0.2399 0.6902
H15A H 0.2031 -0.2492 0.6246
C2A C 0.3100(10) -0.0701(3) 0.3435(6)
H2A H 0.3796 -0.0330 0.3301
H3A H 0.3669 -0.1088 0.3648
H4A H 0.2559 -0.0848 0.2967
H1A H -0.0675(75) 0.0304(34) 0.6029(42)
loop_
_geom_bond_atom_site_label_1
_geom_bond_atom_site_label_2
_geom_bond_site_symmetry_1
_geom_bond_site_symmetry_2
Mg1 O1 1_555 1_555
O1 H1 1_555 1_555
O2 Mg1 1_555 1_555
O3 Mg1 1_555 1_555
C1 O2 1_555 1_555
C2 C1 1_555 1_555
N1 Mg1 1_555 1_555
C3 N1 1_555 1_555
N2 C3 1_555 1_555
C4 N2 1_555 1_555
C5 N1 1_555 1_555
N3 Mg1 1_555 1_555
C6 N3 1_555 1_555
N4 C6 1_555 1_555
C7 N4 1_555 1_555
C8 N3 1_555 1_555
O4 Mg1 1_555 1_555
C9 O4 1_555 1_555
O5 C9 1_555 1_555
C10 C9 1_555 1_555
H2 C2 1_555 1_555
H3 C2 1_555 1_555
H4 C2 1_555 1_555
H5 C3 1_555 1_555
H6 N2 1_555 1_555
H7 C4 1_555 1_555
H8 C5 1_555 1_555
H9 C6 1_555 1_555
H10 N4 1_555 1_555
H11 C7 1_555 1_555
H12 C8 1_555 1_555
H13 C10 1_555 1_555
H14 C10 1_555 1_555
H15 C10 1_555 1_555
Mg1A O1 1_555 1_555
O2A Mg1A 1_555 1_555
C1A O3 1_555 1_555
O3A C1 1_555 1_555
N1A Mg1A 1_555 1_555
C3A N1A 1_555 1_555
N2A C3A 1_555 1_555
C4A N2A 1_555 1_555
C5A N1A 1_555 1_555
H8A C5A 1_555 1_555
H7A C4A 1_555 1_555
H6A N2A 1_555 1_555
H5A C3A 1_555 1_555
N3A Mg1A 1_555 1_555
C6A N3A 1_555 1_555
N4A C6A 1_555 1_555
C7A N4A 1_555 1_555
C8A N3A 1_555 1_555
H12A C8A 1_555 1_555
H11A C7A 1_555 1_555
H10A N4A 1_555 1_555
H9A C6A 1_555 1_555
O4A Mg1A 1_555 1_555
C9A O4A 1_555 1_555
O5A C9A 1_555 1_555
C10A C9A 1_555 1_555
H13A C10A 1_555 1_555
H14A C10A 1_555 1_555
H15A C10A 1_555 1_555
C2A C1A 1_555 1_555
H2A C2A 1_555 1_555
H3A C2A 1_555 1_555
H4A C2A 1_555 1_555
H1A O1 1_555 1_555
C4 C5 1_555 1_555
C7 C8 1_555 1_555
Mg1A O3A 1_555 1_555
O2A C1A 1_555 1_555
C4A C5A 1_555 1_555
C7A C8A 1_555 1_555

#END
