
#######################################################################
#
#                 Cambridge Crystallographic Data Centre
#                                CCDC 
#
#######################################################################
#
# If this CIF has been generated from an entry in the Cambridge 
# Structural Database, then it will include bibliographic, chemical, 
# crystal, experimental, refinement or atomic coordinate data resulting 
# from the CCDC's data processing and validation procedures.
#
#######################################################################

data_PUNREV
_chemical_formula_moiety         'C20 H30 Mg2 N8 O9'
_chemical_name_systematic        
(\m~2~-Aqua)-bis((\m~2~-acetato-O,O')-acetoxy-bis(imidazol-3-yl)-magnesium(ii))
_symmetry_cell_setting           orthorhombic
_symmetry_space_group_name_H-M   'A b a 2'
_symmetry_Int_Tables_number      41
_space_group_name_Hall           'A 2 -2ab'
loop_
_symmetry_equiv_pos_site_id
_symmetry_equiv_pos_as_xyz
1 x,y,z
2 -x,-y,z
3 1/2-x,1/2+y,z
4 1/2+x,1/2-y,z
5 x,1/2+y,1/2+z
6 -x,1/2-y,1/2+z
7 1/2-x,y,1/2+z
8 1/2+x,-y,1/2+z
_cell_length_a                   8.698(3)
_cell_length_b                   19.131(5)
_cell_length_c                   16.852(4)
_cell_angle_alpha                90
_cell_angle_beta                 90
_cell_angle_gamma                90
_cell_volume                     2804.2
_exptl_crystal_colour            colorless
_cell_formula_units_Z            4
_exptl_crystal_recrystallization_method 'diethyl ether/methanol'
loop_
_atom_site_label
_atom_site_type_symbol
_atom_site_fract_x
_atom_site_fract_y
_atom_site_fract_z
Mg1 Mg 0.6007(2) 0.5839(1) 0.5001(1)
O1 O 0.5000 0.5000 0.5666(4)
O2 O 0.4043(5) 0.5876(2) 0.4279(3)
O3 O 0.7098(5) 0.5160(2) 0.4278(3)
C1 C 0.3043(6) 0.5457(2) 0.4045(3)
C2 C 0.1901(9) 0.5709(3) 0.3438(5)
N1 N 0.7120(5) 0.6686(2) 0.4358(3)
C3 C 0.7261(7) 0.7339(3) 0.4599(4)
N2 N 0.8240(6) 0.7693(2) 0.4154(4)
C4 C 0.8774(8) 0.7257(3) 0.3602(5)
C5 C 0.8090(8) 0.6637(3) 0.3722(4)
N3 N 0.7894(5) 0.5829(2) 0.5874(3)
C6 C 0.9404(7) 0.5841(3) 0.5758(5)
N4 N 1.0179(6) 0.5870(3) 0.6430(4)
C7 C 0.9147(8) 0.5861(3) 0.7032(5)
C8 C 0.7762(8) 0.5843(3) 0.6686(4)
O4 O 0.4966(4) 0.6584(2) 0.5713(2)
C9 C 0.3938(6) 0.6519(3) 0.6231(4)
O5 O 0.3351(4) 0.5949(2) 0.6431(3)
C10 C 0.3361(8) 0.7179(3) 0.6621(5)
H1 H 0.4384(84) 0.5285(38) 0.6005(45)
H2 H 0.2118(9) 0.6187(3) 0.3306(5)
H3 H 0.0881(9) 0.5675(3) 0.3652(5)
H4 H 0.1975(9) 0.5426(3) 0.2969(5)
H5 H 0.6735(7) 0.7527(3) 0.5029(4)
H6 H 0.8487(6) 0.8125(2) 0.4211(4)
H7 H 0.9487(8) 0.7362(3) 0.3208(5)
H8 H 0.8251(8) 0.6237(3) 0.3420(4)
H9 H 0.9863(7) 0.5831(3) 0.5259(5)
H10 H 1.1163(6) 0.5890(3) 0.6478(4)
H11 H 0.9357(8) 0.5865(3) 0.7574(5)
H12 H 0.6833(8) 0.5841(3) 0.6959(4)
H13 H 0.3907(8) 0.7574(3) 0.6411(5)
H14 H 0.3526(8) 0.7151(3) 0.7183(5)
H15 H 0.2282(8) 0.7232(3) 0.6516(5)
Mg1A Mg 0.3993(2) 0.4161(1) 0.5001(1)
O2A O 0.5957(5) 0.4124(2) 0.4279(3)
C1A C 0.6957(6) 0.4543(2) 0.4045(3)
O3A O 0.2902(5) 0.4840(2) 0.4278(3)
N1A N 0.2880(5) 0.3314(2) 0.4358(3)
C3A C 0.2739(7) 0.2661(3) 0.4599(4)
N2A N 0.1760(6) 0.2307(2) 0.4154(4)
C4A C 0.1226(8) 0.2743(3) 0.3602(5)
C5A C 0.1910(8) 0.3363(3) 0.3722(4)
H8A H 0.1749(8) 0.3763(3) 0.3420(4)
H7A H 0.0513(8) 0.2638(3) 0.3208(5)
H6A H 0.1513(6) 0.1875(2) 0.4211(4)
H5A H 0.3265(7) 0.2473(3) 0.5029(4)
N3A N 0.2106(5) 0.4171(2) 0.5874(3)
C6A C 0.0596(7) 0.4159(3) 0.5758(5)
N4A N -0.0179(6) 0.4130(3) 0.6430(4)
C7A C 0.0853(8) 0.4139(3) 0.7032(5)
C8A C 0.2238(8) 0.4157(3) 0.6686(4)
H12A H 0.3167(8) 0.4159(3) 0.6959(4)
H11A H 0.0643(8) 0.4135(3) 0.7574(5)
H10A H -0.1163(6) 0.4110(3) 0.6478(4)
H9A H 0.0137(7) 0.4169(3) 0.5259(5)
O4A O 0.5034(4) 0.3416(2) 0.5713(2)
C9A C 0.6062(6) 0.3481(3) 0.6231(4)
O5A O 0.6649(4) 0.4051(2) 0.6431(3)
C10A C 0.6639(8) 0.2821(3) 0.6621(5)
H13A H 0.6093(8) 0.2426(3) 0.6411(5)
H14A H 0.6474(8) 0.2849(3) 0.7183(5)
H15A H 0.7718(8) 0.2768(3) 0.6516(5)
C2A C 0.8099(9) 0.4291(3) 0.3438(5)
H2A H 0.7882(9) 0.3813(3) 0.3306(5)
H3A H 0.9119(9) 0.4325(3) 0.3652(5)
H4A H 0.8025(9) 0.4574(3) 0.2969(5)
H1A H 0.5616(84) 0.4715(38) 0.6005(45)
loop_
_geom_bond_atom_site_label_1
_geom_bond_atom_site_label_2
_geom_bond_site_symmetry_1
_geom_bond_site_symmetry_2
Mg1 O1 1_555 1_555
O1 H1 1_555 1_555
O2 Mg1 1_555 1_555
O3 Mg1 1_555 1_555
C1 O2 1_555 1_555
C2 C1 1_555 1_555
N1 Mg1 1_555 1_555
C3 N1 1_555 1_555
N2 C3 1_555 1_555
C4 N2 1_555 1_555
C5 N1 1_555 1_555
N3 Mg1 1_555 1_555
C6 N3 1_555 1_555
N4 C6 1_555 1_555
C7 N4 1_555 1_555
C8 N3 1_555 1_555
O4 Mg1 1_555 1_555
C9 O4 1_555 1_555
O5 C9 1_555 1_555
C10 C9 1_555 1_555
H2 C2 1_555 1_555
H3 C2 1_555 1_555
H4 C2 1_555 1_555
H5 C3 1_555 1_555
H6 N2 1_555 1_555
H7 C4 1_555 1_555
H8 C5 1_555 1_555
H9 C6 1_555 1_555
H10 N4 1_555 1_555
H11 C7 1_555 1_555
H12 C8 1_555 1_555
H13 C10 1_555 1_555
H14 C10 1_555 1_555
H15 C10 1_555 1_555
Mg1A O1 1_555 1_555
O2A Mg1A 1_555 1_555
C1A O3 1_555 1_555
O3A C1 1_555 1_555
N1A Mg1A 1_555 1_555
C3A N1A 1_555 1_555
N2A C3A 1_555 1_555
C4A N2A 1_555 1_555
C5A N1A 1_555 1_555
H8A C5A 1_555 1_555
H7A C4A 1_555 1_555
H6A N2A 1_555 1_555
H5A C3A 1_555 1_555
N3A Mg1A 1_555 1_555
C6A N3A 1_555 1_555
N4A C6A 1_555 1_555
C7A N4A 1_555 1_555
C8A N3A 1_555 1_555
H12A C8A 1_555 1_555
H11A C7A 1_555 1_555
H10A N4A 1_555 1_555
H9A C6A 1_555 1_555
O4A Mg1A 1_555 1_555
C9A O4A 1_555 1_555
O5A C9A 1_555 1_555
C10A C9A 1_555 1_555
H13A C10A 1_555 1_555
H14A C10A 1_555 1_555
H15A C10A 1_555 1_555
C2A C1A 1_555 1_555
H2A C2A 1_555 1_555
H3A C2A 1_555 1_555
H4A C2A 1_555 1_555
H1A O1 1_555 1_555
C4 C5 1_555 1_555
C7 C8 1_555 1_555
Mg1A O3A 1_555 1_555
O2A C1A 1_555 1_555
C4A C5A 1_555 1_555
C7A C8A 1_555 1_555

#END
