
#######################################################################
#
#                 Cambridge Crystallographic Data Centre
#                                CCDC 
#
#######################################################################
#
# If this CIF has been generated from an entry in the Cambridge 
# Structural Database, then it will include bibliographic, chemical, 
# crystal, experimental, refinement or atomic coordinate data resulting 
# from the CCDC's data processing and validation procedures.
#
#######################################################################

data_PUNVIE03
_chemical_formula_moiety         'C36 H26'
_chemical_name_systematic        1,2,3,4,5-pentaphenylbenzene
_symmetry_cell_setting           triclinic
_symmetry_space_group_name_H-M   'P -1'
_symmetry_Int_Tables_number      2
_space_group_name_Hall           '-P 1'
loop_
_symmetry_equiv_pos_site_id
_symmetry_equiv_pos_as_xyz
1 x,y,z
2 -x,-y,-z
_cell_length_a                   10.355(15)
_cell_length_b                   12.000(17)
_cell_length_c                   12.897(18)
_cell_angle_alpha                63.27(2)
_cell_angle_beta                 68.47(3)
_cell_angle_gamma                65.42(2)
_cell_volume                     1269.29
_cell_formula_units_Z            2
loop_
_atom_site_label
_atom_site_type_symbol
_atom_site_fract_x
_atom_site_fract_y
_atom_site_fract_z
C1 C 0.7906(7) 0.7533(4) -0.1121(5)
H1 H 0.8887 0.7054 -0.1235
C2 C 0.7229(4) 0.4749(3) 0.1115(4)
C3 C 0.6598(5) 0.5456(3) 0.1962(4)
C4 C 0.7338(4) 0.5437(3) -0.0090(4)
C5 C 0.8940(5) 0.2633(3) -0.1233(4)
C6 C 0.8043(5) 0.5515(3) -0.2186(4)
C7 C 0.8245(5) 0.2780(3) 0.0717(4)
H2 H 0.8559 0.1870 0.0993
C8 C 0.7906(4) 0.4789(3) -0.0901(4)
C9 C 0.5441(6) 0.7584(4) -0.0391(5)
H3 H 0.4732 0.7156 -0.0002
C10 C 0.8366(5) 0.3431(3) -0.0475(4)
C11 C 0.6868(5) 0.6888(3) -0.0552(4)
C12 C 0.7689(5) 0.3389(3) 0.1532(4)
C13 C 0.7656(5) 0.2554(4) 0.2783(4)
C14 C 0.8140(5) 0.2769(4) -0.1954(4)
H4 H 0.7236 0.3400 -0.1996
C15 C 1.0268(5) 0.1693(4) -0.1202(5)
H5 H 1.0825 0.1589 -0.0722
C16 C 0.6840(5) 0.6366(4) -0.2662(4)
H6 H 0.5921 0.6511 -0.2161
C17 C 0.5373(5) 0.5278(4) 0.2842(4)
H7 H 0.4947 0.4694 0.2910
C18 C 0.7216(5) 0.6313(4) 0.1902(5)
H8 H 0.8043 0.6460 0.1316
C19 C 0.9362(5) 0.5331(4) -0.2958(5)
H9 H 1.0182 0.4748 -0.2657
C20 C 1.0783(6) 0.0921(4) -0.1845(5)
H10 H 1.1685 0.0284 -0.1805
C21 C 0.8670(6) 0.1982(4) -0.2602(5)
H11 H 0.8121 0.2075 -0.3083
C22 C 0.9979(6) 0.1071(4) -0.2561(5)
H12 H 1.0337 0.0543 -0.3017
C23 C 0.6613(6) 0.6947(4) 0.2705(5)
H13 H 0.7050 0.7501 0.2678
C24 C 0.6995(6) 0.6996(4) -0.3868(5)
H14 H 0.6178 0.7561 -0.4180
C25 C 0.6951(6) 0.1614(4) 0.3314(5)
H15 H 0.6430 0.1566 0.2890
C26 C 0.8421(6) 0.2616(4) 0.3419(5)
H16 H 0.8882 0.3259 0.3086
C27 C 0.4786(6) 0.5921(5) 0.3595(5)
H17 H 0.3949 0.5793 0.4175
C28 C 0.9523(6) 0.5974(5) -0.4161(5)
H18 H 1.0439 0.5848 -0.4668
C29 C 0.8309(7) 0.6806(5) -0.4603(5)
H19 H 0.8398 0.7243 -0.5419
C30 C 0.7780(8) 0.0810(6) 0.5064(6)
H20 H 0.7824 0.0228 0.5837
C31 C 0.5037(10) 0.8953(6) -0.0813(7)
H21 H 0.4062 0.9450 -0.0715
C32 C 0.7000(7) 0.0749(5) 0.4452(6)
H22 H 0.6506 0.0128 0.4802
C33 C 0.6129(12) 0.9545(5) -0.1379(7)
H23 H 0.5878 1.0454 -0.1668
C34 C 0.5404(7) 0.6772(5) 0.3524(6)
H24 H 0.4979 0.7229 0.4048
C35 C 0.8504(8) 0.1736(6) 0.4537(6)
H25 H 0.9056 0.1759 0.4952
C36 C 0.7514(10) 0.8857(6) -0.1518(6)
H26 H 0.8226 0.9280 -0.1890
loop_
_geom_bond_atom_site_label_1
_geom_bond_atom_site_label_2
_geom_bond_site_symmetry_1
_geom_bond_site_symmetry_2
C1 H1 1_555 1_555
C2 C3 1_555 1_555
C3 C17 1_555 1_555
C4 C2 1_555 1_555
C5 C10 1_555 1_555
C6 C8 1_555 1_555
C7 H2 1_555 1_555
C8 C4 1_555 1_555
C9 H3 1_555 1_555
C10 C7 1_555 1_555
C11 C1 1_555 1_555
C12 C2 1_555 1_555
C13 C12 1_555 1_555
C14 C5 1_555 1_555
H4 C14 1_555 1_555
C15 C5 1_555 1_555
H5 C15 1_555 1_555
C16 C6 1_555 1_555
H6 C16 1_555 1_555
C17 H7 1_555 1_555
C18 C3 1_555 1_555
H8 C18 1_555 1_555
C19 C6 1_555 1_555
H9 C19 1_555 1_555
C20 C15 1_555 1_555
H10 C20 1_555 1_555
C21 C14 1_555 1_555
H11 C21 1_555 1_555
C22 C20 1_555 1_555
H12 C22 1_555 1_555
C23 C18 1_555 1_555
H13 C23 1_555 1_555
C24 C16 1_555 1_555
H14 C24 1_555 1_555
C25 C13 1_555 1_555
H15 C25 1_555 1_555
C26 C13 1_555 1_555
H16 C26 1_555 1_555
C27 C17 1_555 1_555
H17 C27 1_555 1_555
C28 C19 1_555 1_555
H18 C28 1_555 1_555
C29 C24 1_555 1_555
H19 C29 1_555 1_555
C30 H20 1_555 1_555
C31 C9 1_555 1_555
H21 C31 1_555 1_555
C32 C25 1_555 1_555
H22 C32 1_555 1_555
C33 C31 1_555 1_555
H23 C33 1_555 1_555
C34 C23 1_555 1_555
H24 C34 1_555 1_555
C35 C26 1_555 1_555
H25 C35 1_555 1_555
C36 C1 1_555 1_555
H26 C36 1_555 1_555
C4 C11 1_555 1_555
C7 C12 1_555 1_555
C8 C10 1_555 1_555
C9 C11 1_555 1_555
C21 C22 1_555 1_555
C27 C34 1_555 1_555
C28 C29 1_555 1_555
C30 C32 1_555 1_555
C30 C35 1_555 1_555
C33 C36 1_555 1_555

#END
