
#######################################################################
#
#                 Cambridge Crystallographic Data Centre
#                                CCDC 
#
#######################################################################
#
# If this CIF has been generated from an entry in the Cambridge 
# Structural Database, then it will include bibliographic, chemical, 
# crystal, experimental, refinement or atomic coordinate data resulting 
# from the CCDC's data processing and validation procedures.
#
#######################################################################

data_PUNWUS
_chemical_formula_moiety         'C72 H54 N2 O8,2(C4 H8 O2)'
_chemical_name_systematic        
'(1,3,6,8-tetraoxo-1,3,6,8-tetrahydrobenzo[lmn][3,8]phenanthroline-2,7-diyl)bis-4-(2-methylbutan-2-yl)-2,1-phenylene bis(pyren-1-ylacetate) 1,4-dioxane solvate'
_symmetry_cell_setting           monoclinic
_symmetry_space_group_name_H-M   'P 21/c'
_symmetry_Int_Tables_number      14
_space_group_name_Hall           '-P 2ybc'
loop_
_symmetry_equiv_pos_site_id
_symmetry_equiv_pos_as_xyz
1 x,y,z
2 -x,1/2+y,1/2-z
3 -x,-y,-z
4 x,1/2-y,1/2+z
_cell_length_a                   16.978(2)
_cell_length_b                   16.7517(19)
_cell_length_c                   10.8751(13)
_cell_angle_alpha                90
_cell_angle_beta                 92.952(4)
_cell_angle_gamma                90
_cell_volume                     3088.89
_exptl_crystal_colour            red
_exptl_crystal_description       plate
_cell_formula_units_Z            2
loop_
_atom_site_label
_atom_site_type_symbol
_atom_site_fract_x
_atom_site_fract_y
_atom_site_fract_z
O1 O 0.27440(8) 0.42267(8) 0.58541(13)
O2 O 0.33820(8) 0.68543(8) 0.54976(14)
O3 O 0.18437(8) 0.53631(8) 0.40608(12)
O4 O 0.10510(8) 0.42849(9) 0.41365(15)
N1 N 0.30781(9) 0.55394(9) 0.57303(14)
C1 C 0.32471(11) 0.47192(11) 0.56655(17)
C2 C 0.40636(11) 0.45011(11) 0.53814(16)
C3 C 0.46107(11) 0.51069(11) 0.51351(16)
C4 C 0.43995(11) 0.59216(11) 0.51536(16)
C5 C 0.35934(11) 0.61631(11) 0.54624(17)
C6 C 0.42811(11) 0.37109(11) 0.53620(17)
H1 H 0.3908 0.3308 0.5531
C7 C 0.49460(12) 0.65012(11) 0.49071(18)
H2 H 0.4799 0.7048 0.4919
C8 C 0.22894(11) 0.57463(11) 0.60632(18)
C9 C 0.16622(11) 0.56090(11) 0.52415(17)
C10 C 0.09018(11) 0.57654(12) 0.55741(18)
H3 H 0.0466 0.5674 0.5008
C11 C 0.07830(12) 0.60561(13) 0.67402(19)
H4 H 0.0260 0.6156 0.6969
C12 C 0.14097(12) 0.62072(13) 0.75922(19)
C13 C 0.21662(12) 0.60520(12) 0.72161(18)
H5 H 0.2607 0.6159 0.7765
C14 C 0.15082(12) 0.46779(13) 0.35991(19)
C15 C 0.17961(12) 0.45142(15) 0.2335(2)
H6 H 0.1741 0.5007 0.1836
H7 H 0.1456 0.4101 0.1931
C16 C 0.26523(12) 0.42350(13) 0.23454(18)
C17 C 0.32811(12) 0.47611(12) 0.21652(17)
C18 C 0.31956(13) 0.56153(13) 0.20756(19)
H8 H 0.2694 0.5847 0.2193
C19 C 0.38052(14) 0.60959(13) 0.18298(19)
H9 H 0.3721 0.6656 0.1777
C20 C 0.45778(13) 0.57845(12) 0.16463(18)
C21 C 0.46956(12) 0.49479(12) 0.17621(17)
C22 C 0.40544(12) 0.44405(12) 0.20401(17)
C23 C 0.41823(12) 0.36017(12) 0.21370(17)
C24 C 0.35477(13) 0.31091(12) 0.23753(19)
H10 H 0.3631 0.2552 0.2479
C25 C 0.27956(13) 0.34205(13) 0.24635(19)
H11 H 0.2370 0.3070 0.2608
C26 C 0.52071(15) 0.62663(13) 0.13287(19)
H12 H 0.5133 0.6827 0.1260
C27 C 0.59379(14) 0.59404(14) 0.1111(2)
H13 H 0.6356 0.6277 0.0885
C28 C 0.60595(13) 0.51280(14) 0.12234(19)
H14 H 0.6563 0.4911 0.1078
C29 C 0.54484(12) 0.46205(12) 0.15488(17)
C30 C 0.55510(13) 0.37701(13) 0.16553(18)
H15 H 0.6051 0.3543 0.1516
C31 C 0.49570(13) 0.32920(12) 0.19467(18)
H16 H 0.5049 0.2735 0.2030
C32 C 0.12509(13) 0.65201(16) 0.8883(2)
C33 C 0.07676(19) 0.58779(16) 0.9556(2)
H17 H 0.0257 0.5799 0.9110
H18 H 0.0682 0.6057 1.0397
H19 H 0.1060 0.5373 0.9586
C34 C 0.20154(16) 0.6665(3) 0.9648(3)
H20 H 0.2330 0.6174 0.9682
H21 H 0.1893 0.6823 1.0484
H22 H 0.2316 0.7091 0.9269
C35 C 0.07615(14) 0.72856(13) 0.8778(2)
H23 H 0.0232 0.7154 0.8411
H24 H 0.0693 0.7499 0.9615
C36 C 0.1123(2) 0.79246(17) 0.8012(3)
H25 H 0.1657 0.8042 0.8345
H26 H 0.0801 0.8409 0.8031
H27 H 0.1146 0.7738 0.7160
O1B O 0.72560(8) 0.57733(8) 0.41459(13)
O2B O 0.66180(8) 0.31457(8) 0.45024(14)
O3B O 0.81563(8) 0.46369(8) 0.59392(12)
O4B O 0.89490(8) 0.57151(9) 0.58635(15)
N1B N 0.69219(9) 0.44606(9) 0.42697(14)
C1B C 0.67529(11) 0.52808(11) 0.43345(17)
C2B C 0.59364(11) 0.54989(11) 0.46186(16)
C3B C 0.53893(11) 0.48931(11) 0.48649(16)
C4B C 0.56005(11) 0.40784(11) 0.48464(16)
C5B C 0.64066(11) 0.38369(11) 0.45376(17)
C6B C 0.57189(11) 0.62891(11) 0.46380(17)
H1B H 0.6092 0.6692 0.4469
C7B C 0.50540(12) 0.34988(11) 0.50929(18)
H2B H 0.5201 0.2952 0.5081
C8B C 0.77106(11) 0.42537(11) 0.39368(18)
C9B C 0.83378(11) 0.43910(11) 0.47585(17)
C10B C 0.90982(11) 0.42346(12) 0.44259(18)
H3B H 0.9534 0.4326 0.4992
C11B C 0.92170(12) 0.39439(13) 0.32598(19)
H4B H 0.9740 0.3844 0.3031
C12B C 0.85903(12) 0.37928(13) 0.24078(19)
C13B C 0.78338(12) 0.39480(12) 0.27839(18)
H5B H 0.7393 0.3841 0.2235
C14B C 0.84918(12) 0.53221(13) 0.64009(19)
C15B C 0.82039(12) 0.54858(15) 0.7665(2)
H6B H 0.8259 0.4993 0.8164
H7B H 0.8544 0.5899 0.8069
C16B C 0.73477(12) 0.57650(13) 0.76546(18)
C17B C 0.67189(12) 0.52389(12) 0.78348(17)
C18B C 0.68044(13) 0.43847(13) 0.79244(19)
H8B H 0.7306 0.4153 0.7807
C19B C 0.61948(14) 0.39041(13) 0.81702(19)
H9B H 0.6279 0.3344 0.8223
C20B C 0.54222(13) 0.42155(12) 0.83537(18)
C21B C 0.53044(12) 0.50521(12) 0.82379(17)
C22B C 0.59456(12) 0.55595(12) 0.79599(17)
C23B C 0.58177(12) 0.63983(12) 0.78630(17)
C24B C 0.64523(13) 0.68909(12) 0.76247(19)
H10B H 0.6369 0.7448 0.7521
C25B C 0.72044(13) 0.65795(13) 0.75365(19)
H11B H 0.7630 0.6930 0.7392
C26B C 0.47929(15) 0.37337(13) 0.86713(19)
H12B H 0.4867 0.3173 0.8740
C27B C 0.40621(14) 0.40596(14) 0.8889(2)
H13B H 0.3644 0.3723 0.9115
C28B C 0.39405(13) 0.48720(14) 0.87766(19)
H14B H 0.3437 0.5089 0.8922
C29B C 0.45516(12) 0.53795(12) 0.84512(17)
C30B C 0.44490(13) 0.62299(13) 0.83447(18)
H15B H 0.3949 0.6457 0.8484
C31B C 0.50430(13) 0.67080(12) 0.80533(18)
H16B H 0.4951 0.7265 0.7970
C32B C 0.87491(13) 0.34799(16) 0.1117(2)
C33B C 0.92324(19) 0.41221(16) 0.0444(2)
H17B H 0.9743 0.4201 0.0890
H18B H 0.9318 0.3943 -0.0397
H19B H 0.8940 0.4627 0.0414
C34B C 0.79846(16) 0.3335(3) 0.0352(3)
H20B H 0.7670 0.3826 0.0318
H21B H 0.8107 0.3177 -0.0484
H22B H 0.7684 0.2909 0.0731
C35B C 0.92385(14) 0.27144(13) 0.1222(2)
H23B H 0.9768 0.2846 0.1589
H24B H 0.9307 0.2501 0.0385
C36B C 0.8877(2) 0.20754(17) 0.1988(3)
H25B H 0.8343 0.1958 0.1655
H26B H 0.9199 0.1591 0.1969
H27B H 0.8854 0.2262 0.2840
O5 O 0.10857(9) 0.22211(10) 0.26275(14)
O6 O 0.16512(14) 0.11581(10) 0.44787(16)
C37 C 0.08826(15) 0.23068(14) 0.3874(2)
H28 H 0.0380 0.2025 0.3997
H29 H 0.0805 0.2879 0.4059
C38 C 0.15087(19) 0.19770(15) 0.4728(2)
H30 H 0.2001 0.2284 0.4645
H31 H 0.1349 0.2035 0.5586
C39 C 0.18435(17) 0.10689(16) 0.3229(2)
H32 H 0.1919 0.0496 0.3047
H33 H 0.2345 0.1349 0.3096
C40 C 0.12103(14) 0.13988(15) 0.2372(2)
H34 H 0.1363 0.1336 0.1512
H35 H 0.0715 0.1099 0.2468
loop_
_geom_bond_atom_site_label_1
_geom_bond_atom_site_label_2
_geom_bond_site_symmetry_1
_geom_bond_site_symmetry_2
O1 C1 1_555 1_555
O2 C5 1_555 1_555
O3 C9 1_555 1_555
O4 C14 1_555 1_555
N1 C1 1_555 1_555
C1 C2 1_555 1_555
C2 C3 1_555 1_555
C3 C4 1_555 1_555
C4 C5 1_555 1_555
C5 N1 1_555 1_555
C6 C2 1_555 1_555
H1 C6 1_555 1_555
C7 C4 1_555 1_555
H2 C7 1_555 1_555
C8 N1 1_555 1_555
C9 C8 1_555 1_555
C10 C9 1_555 1_555
H3 C10 1_555 1_555
C11 C10 1_555 1_555
H4 C11 1_555 1_555
C12 C11 1_555 1_555
C13 C8 1_555 1_555
H5 C13 1_555 1_555
C14 O3 1_555 1_555
C15 C14 1_555 1_555
H6 C15 1_555 1_555
H7 C15 1_555 1_555
C16 C15 1_555 1_555
C17 C16 1_555 1_555
C18 C17 1_555 1_555
H8 C18 1_555 1_555
C19 C18 1_555 1_555
H9 C19 1_555 1_555
C20 C19 1_555 1_555
C21 C20 1_555 1_555
C22 C17 1_555 1_555
C23 C22 1_555 1_555
C24 C23 1_555 1_555
H10 C24 1_555 1_555
C25 C16 1_555 1_555
H11 C25 1_555 1_555
C26 C20 1_555 1_555
H12 C26 1_555 1_555
C27 C26 1_555 1_555
H13 C27 1_555 1_555
C28 C27 1_555 1_555
H14 C28 1_555 1_555
C29 C21 1_555 1_555
C30 C29 1_555 1_555
H15 C30 1_555 1_555
C31 C23 1_555 1_555
H16 C31 1_555 1_555
C32 C12 1_555 1_555
C33 C32 1_555 1_555
H17 C33 1_555 1_555
H18 C33 1_555 1_555
H19 C33 1_555 1_555
C34 C32 1_555 1_555
H20 C34 1_555 1_555
H21 C34 1_555 1_555
H22 C34 1_555 1_555
C35 C32 1_555 1_555
H23 C35 1_555 1_555
H24 C35 1_555 1_555
C36 C35 1_555 1_555
H25 C36 1_555 1_555
H26 C36 1_555 1_555
H27 C36 1_555 1_555
O5 C37 1_555 1_555
O6 C38 1_555 1_555
C37 H28 1_555 1_555
H29 C37 1_555 1_555
C38 C37 1_555 1_555
H30 C38 1_555 1_555
H31 C38 1_555 1_555
C39 O6 1_555 1_555
H32 C39 1_555 1_555
H33 C39 1_555 1_555
C40 O5 1_555 1_555
H34 C40 1_555 1_555
H35 C40 1_555 1_555
O1B C1B 1_555 1_555
O2B C5B 1_555 1_555
O3B C9B 1_555 1_555
O4B C14B 1_555 1_555
N1B C1B 1_555 1_555
C1B C2B 1_555 1_555
C2B C3B 1_555 1_555
C3B C3 1_555 1_555
C4B C3B 1_555 1_555
C5B N1B 1_555 1_555
C6B C7 1_555 1_555
H1B C6B 1_555 1_555
C7B C6 1_555 1_555
H2B C7B 1_555 1_555
C8B N1B 1_555 1_555
C9B C8B 1_555 1_555
C10B C9B 1_555 1_555
H3B C10B 1_555 1_555
C11B C10B 1_555 1_555
H4B C11B 1_555 1_555
C12B C11B 1_555 1_555
C13B C8B 1_555 1_555
H5B C13B 1_555 1_555
C14B O3B 1_555 1_555
C15B C14B 1_555 1_555
H6B C15B 1_555 1_555
H7B C15B 1_555 1_555
C16B C15B 1_555 1_555
C17B C16B 1_555 1_555
C18B C17B 1_555 1_555
H8B C18B 1_555 1_555
C19B C18B 1_555 1_555
H9B C19B 1_555 1_555
C20B C19B 1_555 1_555
C21B C20B 1_555 1_555
C22B C17B 1_555 1_555
C23B C22B 1_555 1_555
C24B C23B 1_555 1_555
H10B C24B 1_555 1_555
C25B C16B 1_555 1_555
H11B C25B 1_555 1_555
C26B C20B 1_555 1_555
H12B C26B 1_555 1_555
C27B C26B 1_555 1_555
H13B C27B 1_555 1_555
C28B C27B 1_555 1_555
H14B C28B 1_555 1_555
C29B C21B 1_555 1_555
C30B C29B 1_555 1_555
H15B C30B 1_555 1_555
C31B C23B 1_555 1_555
H16B C31B 1_555 1_555
C32B C12B 1_555 1_555
C33B C32B 1_555 1_555
H17B C33B 1_555 1_555
H18B C33B 1_555 1_555
H19B C33B 1_555 1_555
C34B C32B 1_555 1_555
H20B C34B 1_555 1_555
H21B C34B 1_555 1_555
H22B C34B 1_555 1_555
C35B C32B 1_555 1_555
H23B C35B 1_555 1_555
H24B C35B 1_555 1_555
C36B C35B 1_555 1_555
H25B C36B 1_555 1_555
H26B C36B 1_555 1_555
H27B C36B 1_555 1_555
C12 C13 1_555 1_555
C21 C22 1_555 1_555
C24 C25 1_555 1_555
C28 C29 1_555 1_555
C30 C31 1_555 1_555
C39 C40 1_555 1_555
C2B C6B 1_555 1_555
C4B C5B 1_555 1_555
C4B C7B 1_555 1_555
C12B C13B 1_555 1_555
C21B C22B 1_555 1_555
C24B C25B 1_555 1_555
C28B C29B 1_555 1_555
C30B C31B 1_555 1_555

#END
