
#######################################################################
#
#                 Cambridge Crystallographic Data Centre
#                                CCDC 
#
#######################################################################
#
# If this CIF has been generated from an entry in the Cambridge 
# Structural Database, then it will include bibliographic, chemical, 
# crystal, experimental, refinement or atomic coordinate data resulting 
# from the CCDC's data processing and validation procedures.
#
#######################################################################

data_PUNXUT
_chemical_formula_moiety         'C40 H38 N2 O8'
_chemical_name_systematic        
'(1,3,6,8-tetraoxo-1,3,6,8-tetrahydrobenzo[lmn][3,8]phenanthroline-2,7-diyl)bis-4-(2-methylbutan-2-yl)-2,1-phenylene diacetate'
_symmetry_cell_setting           monoclinic
_symmetry_space_group_name_H-M   'P 21/c'
_symmetry_Int_Tables_number      14
_space_group_name_Hall           '-P 2ybc'
loop_
_symmetry_equiv_pos_site_id
_symmetry_equiv_pos_as_xyz
1 x,y,z
2 -x,1/2+y,1/2-z
3 -x,-y,-z
4 x,1/2-y,1/2+z
_cell_length_a                   9.0743(16)
_cell_length_b                   15.186(3)
_cell_length_c                   12.460(2)
_cell_angle_alpha                90
_cell_angle_beta                 106.575(3)
_cell_angle_gamma                90
_cell_volume                     1645.67
_exptl_crystal_colour            colorless
_exptl_crystal_description       tablet
_cell_formula_units_Z            2
loop_
_atom_site_label
_atom_site_type_symbol
_atom_site_fract_x
_atom_site_fract_y
_atom_site_fract_z
O1 O 0.59026(13) 0.29513(7) 0.30137(9)
O2 O 0.29191(13) 0.53012(7) 0.15483(8)
O3 O 0.61860(12) 0.44308(7) 0.08850(9)
O4 O 0.79494(14) 0.33735(8) 0.09400(11)
N1 N 0.43605(14) 0.41108(8) 0.22969(9)
C1 C 0.53311(16) 0.36347(10) 0.31903(12)
C2 C 0.55488(16) 0.40068(10) 0.43284(11)
C3 C 0.48887(15) 0.48269(9) 0.44559(11)
C4 C 0.40089(16) 0.53105(9) 0.35186(11)
C5 C 0.37049(16) 0.49340(10) 0.23759(12)
C6 C 0.63780(17) 0.35384(10) 0.52536(12)
H1 H 0.6806 0.2983 0.5158
C7 C 0.34081(17) 0.61214(10) 0.36648(12)
H2 H 0.2848 0.6451 0.3032
C8 C 0.40133(17) 0.37043(10) 0.11992(12)
C9 C 0.49676(17) 0.38413(10) 0.05258(12)
C10 C 0.46232(17) 0.34487(10) -0.05178(12)
H3 H 0.5264 0.3545 -0.0991
C11 C 0.33377(17) 0.29136(10) -0.08694(12)
H4 H 0.3113 0.2646 -0.1587
C12 C 0.23619(16) 0.27552(10) -0.02017(12)
C13 C 0.27317(17) 0.31756(10) 0.08415(12)
H5 H 0.2085 0.3095 0.1313
C14 C 0.76487(18) 0.41340(11) 0.09879(12)
C15 C 0.87435(18) 0.48877(11) 0.11534(13)
H6 H 0.8632 0.5257 0.1771
H7 H 0.8520 0.5239 0.0466
H8 H 0.9798 0.4663 0.1332
C16 C 0.08973(17) 0.22049(11) -0.06132(12)
C17 C -0.0426(2) 0.28373(14) -0.11360(18)
H9 H -0.0206 0.3155 -0.1757
H10 H -0.0537 0.3259 -0.0569
H11 H -0.1382 0.2503 -0.1416
C18 C 0.1014(2) 0.15422(14) -0.15136(16)
H12 H 0.1973 0.1207 -0.1248
H13 H 0.1007 0.1858 -0.2201
H14 H 0.0138 0.1137 -0.1668
C19 C 0.0533(2) 0.16945(12) 0.03455(14)
H15 H 0.0388 0.2123 0.0905
H16 H -0.0453 0.1379 0.0041
C20 C 0.1750(3) 0.10313(15) 0.09380(19)
H17 H 0.2734 0.1334 0.1246
H18 H 0.1862 0.0582 0.0403
H19 H 0.1437 0.0751 0.1547
O1B O 0.40974(13) 0.70487(7) 0.69863(9)
O2B O 0.70809(13) 0.46988(7) 0.84517(8)
O3B O 0.38140(12) 0.55692(7) 0.91150(9)
O4B O 0.20506(14) 0.66265(8) 0.90600(11)
N1B N 0.56395(14) 0.58892(8) 0.77031(9)
C1B C 0.46689(16) 0.63653(10) 0.68097(12)
C2B C 0.44512(16) 0.59932(10) 0.56716(11)
C3B C 0.51113(15) 0.51731(9) 0.55441(11)
C4B C 0.59911(16) 0.46895(9) 0.64814(11)
C5B C 0.62951(16) 0.50660(10) 0.76241(12)
C6B C 0.36220(17) 0.64616(10) 0.47464(12)
H1B H 0.3194 0.7017 0.4842
C7B C 0.65919(17) 0.38786(10) 0.63352(12)
H2B H 0.7152 0.3549 0.6968
C8B C 0.59867(17) 0.62957(10) 0.88008(12)
C9B C 0.50324(17) 0.61587(10) 0.94742(12)
C10B C 0.53768(17) 0.65513(10) 1.05178(12)
H3B H 0.4736 0.6455 1.0991
C11B C 0.66623(17) 0.70864(10) 1.08694(12)
H4B H 0.6887 0.7354 1.1587
C12B C 0.76381(16) 0.72448(10) 1.02017(12)
C13B C 0.72683(17) 0.68244(10) 0.91585(12)
H5B H 0.7915 0.6905 0.8687
C14B C 0.23513(18) 0.58660(11) 0.90121(12)
C15B C 0.12565(18) 0.51123(11) 0.88466(13)
H6B H 0.1368 0.4743 0.8229
H7B H 0.1480 0.4761 0.9534
H8B H 0.0202 0.5337 0.8668
C16B C 0.91027(17) 0.77951(11) 1.06132(12)
C17B C 1.0426(2) 0.71627(14) 1.11360(18)
H9B H 1.0206 0.6845 1.1757
H10B H 1.0537 0.6741 1.0569
H11B H 1.1382 0.7497 1.1416
C18B C 0.8986(2) 0.84578(14) 1.15136(16)
H12B H 0.8027 0.8793 1.1248
H13B H 0.8993 0.8142 1.2201
H14B H 0.9862 0.8863 1.1668
C19B C 0.9467(2) 0.83055(12) 0.96545(14)
H15B H 0.9612 0.7877 0.9095
H16B H 1.0453 0.8621 0.9959
C20B C 0.8250(3) 0.89687(15) 0.90620(19)
H17B H 0.7266 0.8666 0.8754
H18B H 0.8138 0.9418 0.9597
H19B H 0.8563 0.9249 0.8453
loop_
_geom_bond_atom_site_label_1
_geom_bond_atom_site_label_2
_geom_bond_site_symmetry_1
_geom_bond_site_symmetry_2
O1 C1 1_555 1_555
O2 C5 1_555 1_555
O3 C9 1_555 1_555
O4 C14 1_555 1_555
N1 C1 1_555 1_555
C1 C2 1_555 1_555
C2 C3 1_555 1_555
C3 C4 1_555 1_555
C4 C5 1_555 1_555
C5 N1 1_555 1_555
C6 C2 1_555 1_555
H1 C6 1_555 1_555
C7 C4 1_555 1_555
H2 C7 1_555 1_555
C8 N1 1_555 1_555
C9 C8 1_555 1_555
C10 C9 1_555 1_555
H3 C10 1_555 1_555
C11 C10 1_555 1_555
H4 C11 1_555 1_555
C12 C11 1_555 1_555
C13 C8 1_555 1_555
H5 C13 1_555 1_555
C14 O3 1_555 1_555
C15 C14 1_555 1_555
H6 C15 1_555 1_555
H7 C15 1_555 1_555
H8 C15 1_555 1_555
C16 C12 1_555 1_555
C17 C16 1_555 1_555
H9 C17 1_555 1_555
H10 C17 1_555 1_555
H11 C17 1_555 1_555
C18 C16 1_555 1_555
H12 C18 1_555 1_555
H13 C18 1_555 1_555
H14 C18 1_555 1_555
C19 C16 1_555 1_555
H15 C19 1_555 1_555
H16 C19 1_555 1_555
C20 C19 1_555 1_555
H17 C20 1_555 1_555
H18 C20 1_555 1_555
H19 C20 1_555 1_555
O1B C1B 1_555 1_555
O2B C5B 1_555 1_555
O3B C9B 1_555 1_555
O4B C14B 1_555 1_555
N1B C1B 1_555 1_555
C1B C2B 1_555 1_555
C2B C3B 1_555 1_555
C3B C3 1_555 1_555
C4B C3B 1_555 1_555
C5B N1B 1_555 1_555
C6B C7 1_555 1_555
H1B C6B 1_555 1_555
C7B C6 1_555 1_555
H2B C7B 1_555 1_555
C8B N1B 1_555 1_555
C9B C8B 1_555 1_555
C10B C9B 1_555 1_555
H3B C10B 1_555 1_555
C11B C10B 1_555 1_555
H4B C11B 1_555 1_555
C12B C11B 1_555 1_555
C13B C8B 1_555 1_555
H5B C13B 1_555 1_555
C14B O3B 1_555 1_555
C15B C14B 1_555 1_555
H6B C15B 1_555 1_555
H7B C15B 1_555 1_555
H8B C15B 1_555 1_555
C16B C12B 1_555 1_555
C17B C16B 1_555 1_555
H9B C17B 1_555 1_555
H10B C17B 1_555 1_555
H11B C17B 1_555 1_555
C18B C16B 1_555 1_555
H12B C18B 1_555 1_555
H13B C18B 1_555 1_555
H14B C18B 1_555 1_555
C19B C16B 1_555 1_555
H15B C19B 1_555 1_555
H16B C19B 1_555 1_555
C20B C19B 1_555 1_555
H17B C20B 1_555 1_555
H18B C20B 1_555 1_555
H19B C20B 1_555 1_555
C12 C13 1_555 1_555
C2B C6B 1_555 1_555
C4B C5B 1_555 1_555
C4B C7B 1_555 1_555
C12B C13B 1_555 1_555

#END
