
#######################################################################
#
#                 Cambridge Crystallographic Data Centre
#                                CCDC 
#
#######################################################################
#
# If this CIF has been generated from an entry in the Cambridge 
# Structural Database, then it will include bibliographic, chemical, 
# crystal, experimental, refinement or atomic coordinate data resulting 
# from the CCDC's data processing and validation procedures.
#
#######################################################################

data_PUNXAZ
_chemical_formula_moiety         'C72 H54 N2 O8,2(C1 H2 Cl2)'
_chemical_name_systematic        
'(1,3,6,8-tetraoxo-1,3,6,8-tetrahydrobenzo[lmn][3,8]phenanthroline-2,7-diyl)bis-4-(2-methylbutan-2-yl)-2,1-phenylene bis(pyren-1-ylacetate) dichloromethane solvate'
_symmetry_cell_setting           monoclinic
_symmetry_space_group_name_H-M   'P 21/n'
_symmetry_Int_Tables_number      14
_space_group_name_Hall           '-P 2yn'
loop_
_symmetry_equiv_pos_site_id
_symmetry_equiv_pos_as_xyz
1 x,y,z
2 1/2-x,1/2+y,1/2-z
3 -x,-y,-z
4 1/2+x,1/2-y,1/2+z
_cell_length_a                   17.1824(9)
_cell_length_b                   10.3899(5)
_cell_length_c                   17.8902(9)
_cell_angle_alpha                90
_cell_angle_beta                 113.491(2)
_cell_angle_gamma                90
_cell_volume                     2929.12
_exptl_crystal_colour            red
_exptl_crystal_description       plate
_cell_formula_units_Z            2
loop_
_atom_site_label
_atom_site_type_symbol
_atom_site_fract_x
_atom_site_fract_y
_atom_site_fract_z
O1 O 0.23846(5) 0.42254(10) 0.40083(5)
O2 O 0.39149(6) 0.47726(10) 0.67250(5)
O3 O 0.19983(5) 0.63327(8) 0.51330(5)
O4 O 0.09042(6) 0.61474(10) 0.38992(6)
N1 N 0.31690(6) 0.44037(10) 0.53703(6)
C1 C 0.30744(7) 0.44137(11) 0.45548(7)
C2 C 0.38535(7) 0.46456(11) 0.44106(7)
C3 C 0.46298(7) 0.48996(10) 0.50745(7)
C4 C 0.46825(7) 0.49635(11) 0.58822(7)
C5 C 0.39169(7) 0.47213(11) 0.60502(7)
C6 C 0.38165(7) 0.45925(11) 0.36264(7)
H1 H 0.3291 0.4427 0.3184
C7 C 0.54469(7) 0.52172(12) 0.65203(7)
H2 H 0.5476 0.5264 0.7061
C8 C 0.24192(7) 0.41671(12) 0.55277(7)
C9 C 0.18252(7) 0.51352(12) 0.53871(7)
C10 C 0.11189(7) 0.49448(12) 0.55595(7)
H3 H 0.0716 0.5616 0.5469
C11 C 0.10006(7) 0.37623(12) 0.58662(8)
H4 H 0.0515 0.3638 0.5987
C12 C 0.15793(7) 0.27563(12) 0.60007(7)
C13 C 0.22978(7) 0.29936(12) 0.58302(7)
H5 H 0.2709 0.2333 0.5925
C14 C 0.14919(7) 0.67460(13) 0.43674(8)
C15 C 0.17865(8) 0.80566(13) 0.42234(9)
H6 H 0.1848 0.8624 0.4688
H7 H 0.1347 0.8436 0.3727
C16 C 0.26244(8) 0.80173(12) 0.41238(8)
C17 C 0.3426(2) 0.815(2) 0.4768(2)
C18 C 0.35526(17) 0.8262(7) 0.5607(2)
H8 H 0.3076 0.8226 0.5749
C19 C 0.43388(15) 0.8422(3) 0.62037(16)
H9 H 0.4400 0.8491 0.6754
C20 C 0.50773(13) 0.8488(2) 0.60221(14)
C21 C 0.49772(13) 0.8358(2) 0.52011(14)
C22 C 0.41525(17) 0.8173(4) 0.45681(13)
C23 C 0.40635(14) 0.8054(3) 0.37497(14)
C24 C 0.32551(14) 0.7908(3) 0.31320(14)
H10 H 0.3190 0.7812 0.2582
C25 C 0.25444(14) 0.7904(5) 0.33215(15)
H11 H 0.1996 0.7824 0.2896
C26 C 0.58907(13) 0.8709(2) 0.66290(15)
H12 H 0.5964 0.8806 0.7181
C27 C 0.65880(13) 0.8786(2) 0.64214(19)
H13 H 0.7136 0.8927 0.6837
C28 C 0.64998(12) 0.86605(19) 0.56257(19)
H14 H 0.6986 0.8718 0.5500
C29 C 0.57004(12) 0.84488(19) 0.49976(18)
C30 C 0.55800(14) 0.83394(19) 0.41651(19)
H15 H 0.6057 0.8412 0.4026
C31 C 0.48107(15) 0.8137(2) 0.35733(16)
H16 H 0.4757 0.8047 0.3026
C32 C 0.14735(8) 0.14429(12) 0.63419(8)
C33 C 0.06239(9) 0.13284(14) 0.64300(9)
H17 H 0.0585 0.2005 0.6795
H18 H 0.0587 0.0483 0.6657
H19 H 0.0157 0.1424 0.5894
C34 C 0.15091(10) 0.03675(14) 0.57666(10)
H20 H 0.1051 0.0490 0.5228
H21 H 0.1442 -0.0469 0.5987
H22 H 0.2057 0.0396 0.5718
C35 C 0.22132(9) 0.12303(14) 0.71826(9)
H23 H 0.2134 0.0386 0.7399
H24 H 0.2751 0.1191 0.7103
C36 C 0.22964(11) 0.22512(17) 0.78101(9)
H25 H 0.2363 0.3096 0.7599
H26 H 0.2794 0.2068 0.8311
H27 H 0.1786 0.2253 0.7928
O1B O 0.76154(5) 0.57746(10) 0.59917(5)
O2B O 0.60851(6) 0.52274(10) 0.32750(5)
O3B O 0.80017(5) 0.36673(8) 0.48670(5)
O4B O 0.90958(6) 0.38526(10) 0.61008(6)
N1B N 0.68310(6) 0.55963(10) 0.46297(6)
C1B C 0.69256(7) 0.55863(11) 0.54452(7)
C2B C 0.61465(7) 0.53544(11) 0.55894(7)
C3B C 0.53702(7) 0.51004(10) 0.49255(7)
C4B C 0.53175(7) 0.50365(11) 0.41178(7)
C5B C 0.60831(7) 0.52787(11) 0.39498(7)
C6B C 0.61835(7) 0.54075(11) 0.63736(7)
H1B H 0.6709 0.5573 0.6816
C7B C 0.45531(7) 0.47828(12) 0.34797(7)
H2B H 0.4524 0.4736 0.2939
C8B C 0.75808(7) 0.58329(12) 0.44723(7)
C9B C 0.81748(7) 0.48648(12) 0.46129(7)
C10B C 0.88811(7) 0.50552(12) 0.44405(7)
H3B H 0.9284 0.4384 0.4531
C11B C 0.89994(7) 0.62377(12) 0.41338(8)
H4B H 0.9485 0.6362 0.4013
C12B C 0.84207(7) 0.72437(12) 0.39993(7)
C13B C 0.77022(7) 0.70064(12) 0.41698(7)
H5B H 0.7291 0.7667 0.4075
C14B C 0.85081(7) 0.32540(13) 0.56326(8)
C15B C 0.82135(8) 0.19434(13) 0.57766(9)
H6B H 0.8152 0.1376 0.5312
H7B H 0.8653 0.1564 0.6273
C16B C 0.73756(8) 0.19827(12) 0.58762(8)
C17B C 0.6574(2) 0.185(2) 0.5232(2)
C18B C 0.64474(17) 0.1738(7) 0.4393(2)
H8B H 0.6924 0.1774 0.4251
C19B C 0.56612(15) 0.1578(3) 0.37963(16)
H9B H 0.5600 0.1509 0.3246
C20B C 0.49227(13) 0.1512(2) 0.39779(14)
C21B C 0.50228(13) 0.1642(2) 0.47989(14)
C22B C 0.58475(17) 0.1827(4) 0.54319(13)
C23B C 0.59365(14) 0.1946(3) 0.62503(14)
C24B C 0.67449(14) 0.2092(3) 0.68680(14)
H10B H 0.6810 0.2188 0.7418
C25B C 0.74556(14) 0.2096(5) 0.66785(15)
H11B H 0.8004 0.2176 0.7104
C26B C 0.41093(13) 0.1291(2) 0.33710(15)
H12B H 0.4036 0.1194 0.2819
C27B C 0.34120(13) 0.1214(2) 0.35786(19)
H13B H 0.2864 0.1073 0.3163
C28B C 0.35002(12) 0.13395(19) 0.43743(19)
H14B H 0.3014 0.1282 0.4500
C29B C 0.42996(12) 0.15512(19) 0.50024(18)
C30B C 0.44200(14) 0.16606(19) 0.58349(19)
H15B H 0.3943 0.1588 0.5974
C31B C 0.51893(15) 0.1863(2) 0.64267(16)
H16B H 0.5243 0.1953 0.6974
C32B C 0.85265(8) 0.85571(12) 0.36581(8)
C33B C 0.93761(9) 0.86716(14) 0.35700(9)
H17B H 0.9415 0.7995 0.3205
H18B H 0.9413 0.9517 0.3343
H19B H 0.9843 0.8576 0.4106
C34B C 0.84909(10) 0.96325(14) 0.42334(10)
H20B H 0.8949 0.9510 0.4772
H21B H 0.8558 1.0469 0.4013
H22B H 0.7943 0.9604 0.4282
C35B C 0.77868(9) 0.87697(14) 0.28174(9)
H23B H 0.7866 0.9614 0.2601
H24B H 0.7249 0.8809 0.2897
C36B C 0.77036(11) 0.77488(17) 0.21899(9)
H25B H 0.7637 0.6904 0.2401
H26B H 0.7206 0.7932 0.1689
H27B H 0.8214 0.7747 0.2072
C52 C 0.43202(11) 0.7836(2) 0.12585(13)
H37 H 0.4161 0.7967 0.0668
H38 H 0.4109 0.8581 0.1468
Cl1 Cl 0.54342(3) 0.77581(13) 0.17595(5)
Cl2 Cl 0.38365(6) 0.64047(10) 0.14112(7)
C37? C 0.3393(6) 0.814(7) 0.4833(7)
C38? C 0.3406(7) 0.831(2) 0.5638(7)
H28? H 0.2888 0.8271 0.5708
C39? C 0.4140(5) 0.8542(11) 0.6299(6)
H29? H 0.4114 0.8660 0.6815
C40? C 0.4937(4) 0.8606(8) 0.6246(5)
C41? C 0.4973(5) 0.8441(9) 0.5480(5)
C42? C 0.4206(6) 0.8182(17) 0.4776(5)
C43? C 0.4246(5) 0.8051(11) 0.4009(5)
C44? C 0.3514(5) 0.7863(10) 0.3338(5)
H30? H 0.3539 0.7750 0.2821
C45? C 0.2733(6) 0.7835(19) 0.3395(5)
H31? H 0.2242 0.7682 0.2912
C46? C 0.5712(4) 0.8861(7) 0.6918(5)
H32? H 0.5718 0.8960 0.7449
C47? C 0.6463(4) 0.8966(7) 0.6800(5)
H33? H 0.6974 0.9152 0.7257
C48? C 0.6495(5) 0.8814(9) 0.6053(6)
H34? H 0.7020 0.8890 0.5997
C49? C 0.5750(4) 0.8545(7) 0.5371(5)
C50? C 0.5746(5) 0.8400(7) 0.4584(6)
H35? H 0.6268 0.8489 0.4523
C51? C 0.5051(5) 0.8148(8) 0.3928(5)
H36? H 0.5079 0.8033 0.3413
C53? C 0.4319(6) 0.8170(11) 0.1418(11)
H39? H 0.4145 0.8430 0.0842
H40? H 0.4043 0.8758 0.1675
Cl3? Cl 0.5429(2) 0.8280(7) 0.1930(3)
Cl4? Cl 0.3990(5) 0.6566(8) 0.1466(5)
loop_
_geom_bond_atom_site_label_1
_geom_bond_atom_site_label_2
_geom_bond_site_symmetry_1
_geom_bond_site_symmetry_2
O1 C1 1_555 1_555
O2 C5 1_555 1_555
O3 C9 1_555 1_555
O4 C14 1_555 1_555
N1 C1 1_555 1_555
C1 C2 1_555 1_555
C2 C3 1_555 1_555
C3 C4 1_555 1_555
C4 C5 1_555 1_555
C5 N1 1_555 1_555
C6 C2 1_555 1_555
H1 C6 1_555 1_555
C7 C4 1_555 1_555
H2 C7 1_555 1_555
C8 N1 1_555 1_555
C9 C8 1_555 1_555
C10 C9 1_555 1_555
H3 C10 1_555 1_555
C11 C10 1_555 1_555
H4 C11 1_555 1_555
C12 C11 1_555 1_555
C13 C8 1_555 1_555
H5 C13 1_555 1_555
C14 O3 1_555 1_555
C15 C14 1_555 1_555
H6 C15 1_555 1_555
H7 C15 1_555 1_555
C16 C15 1_555 1_555
C17 C16 1_555 1_555
C18 C17 1_555 1_555
H8 C18 1_555 1_555
C19 C18 1_555 1_555
H9 C19 1_555 1_555
C20 C19 1_555 1_555
C21 C20 1_555 1_555
C22 C17 1_555 1_555
C23 C22 1_555 1_555
C24 C23 1_555 1_555
H10 C24 1_555 1_555
C25 C16 1_555 1_555
H11 C25 1_555 1_555
C26 C20 1_555 1_555
H12 C26 1_555 1_555
C27 C26 1_555 1_555
H13 C27 1_555 1_555
C28 C27 1_555 1_555
H14 C28 1_555 1_555
C29 C21 1_555 1_555
C30 C29 1_555 1_555
H15 C30 1_555 1_555
C31 C23 1_555 1_555
H16 C31 1_555 1_555
C32 C12 1_555 1_555
C33 C32 1_555 1_555
H17 C33 1_555 1_555
H18 C33 1_555 1_555
H19 C33 1_555 1_555
C34 C32 1_555 1_555
H20 C34 1_555 1_555
H21 C34 1_555 1_555
H22 C34 1_555 1_555
C35 C32 1_555 1_555
H23 C35 1_555 1_555
H24 C35 1_555 1_555
C36 C35 1_555 1_555
H25 C36 1_555 1_555
H26 C36 1_555 1_555
H27 C36 1_555 1_555
C52 H37 1_555 1_555
H38 C52 1_555 1_555
Cl1 C52 1_555 1_555
Cl2 C52 1_555 1_555
O1B C1B 1_555 1_555
O2B C5B 1_555 1_555
O3B C9B 1_555 1_555
O4B C14B 1_555 1_555
N1B C1B 1_555 1_555
C1B C2B 1_555 1_555
C2B C3B 1_555 1_555
C3B C3 1_555 1_555
C4B C3B 1_555 1_555
C5B N1B 1_555 1_555
C6B C7 1_555 1_555
H1B C6B 1_555 1_555
C7B C6 1_555 1_555
H2B C7B 1_555 1_555
C8B N1B 1_555 1_555
C9B C8B 1_555 1_555
C10B C9B 1_555 1_555
H3B C10B 1_555 1_555
C11B C10B 1_555 1_555
H4B C11B 1_555 1_555
C12B C11B 1_555 1_555
C13B C8B 1_555 1_555
H5B C13B 1_555 1_555
C14B O3B 1_555 1_555
C15B C14B 1_555 1_555
H6B C15B 1_555 1_555
H7B C15B 1_555 1_555
C16B C15B 1_555 1_555
C17B C16B 1_555 1_555
C18B C17B 1_555 1_555
H8B C18B 1_555 1_555
C19B C18B 1_555 1_555
H9B C19B 1_555 1_555
C20B C19B 1_555 1_555
C21B C20B 1_555 1_555
C22B C17B 1_555 1_555
C23B C22B 1_555 1_555
C24B C23B 1_555 1_555
H10B C24B 1_555 1_555
C25B C16B 1_555 1_555
H11B C25B 1_555 1_555
C26B C20B 1_555 1_555
H12B C26B 1_555 1_555
C27B C26B 1_555 1_555
H13B C27B 1_555 1_555
C28B C27B 1_555 1_555
H14B C28B 1_555 1_555
C29B C21B 1_555 1_555
C30B C29B 1_555 1_555
H15B C30B 1_555 1_555
C31B C23B 1_555 1_555
H16B C31B 1_555 1_555
C32B C12B 1_555 1_555
C33B C32B 1_555 1_555
H17B C33B 1_555 1_555
H18B C33B 1_555 1_555
H19B C33B 1_555 1_555
C34B C32B 1_555 1_555
H20B C34B 1_555 1_555
H21B C34B 1_555 1_555
H22B C34B 1_555 1_555
C35B C32B 1_555 1_555
H23B C35B 1_555 1_555
H24B C35B 1_555 1_555
C36B C35B 1_555 1_555
H25B C36B 1_555 1_555
H26B C36B 1_555 1_555
H27B C36B 1_555 1_555
C12 C13 1_555 1_555
C21 C22 1_555 1_555
C24 C25 1_555 1_555
C28 C29 1_555 1_555
C30 C31 1_555 1_555
C2B C6B 1_555 1_555
C4B C5B 1_555 1_555
C4B C7B 1_555 1_555
C12B C13B 1_555 1_555
C21B C22B 1_555 1_555
C24B C25B 1_555 1_555
C28B C29B 1_555 1_555
C30B C31B 1_555 1_555

#END
