
#######################################################################
#
#                 Cambridge Crystallographic Data Centre
#                                CCDC 
#
#######################################################################
#
# If this CIF has been generated from an entry in the Cambridge 
# Structural Database, then it will include bibliographic, chemical, 
# crystal, experimental, refinement or atomic coordinate data resulting 
# from the CCDC's data processing and validation procedures.
#
#######################################################################

data_PUPBIL
_chemical_formula_moiety         'C8 H11 Br1 N1 1+,C18 H19 O2 1-'
_chemical_name_systematic        
'p-Bromophenylethyl-1-ammonium 2-(3-biphenyl)-4-methyl-valerate'
_symmetry_cell_setting           monoclinic
_symmetry_space_group_name_H-M   'P 21'
_symmetry_Int_Tables_number      4
_space_group_name_Hall           'P 2yb'
loop_
_symmetry_equiv_pos_site_id
_symmetry_equiv_pos_as_xyz
1 x,y,z
2 -x,1/2+y,-z
_cell_length_a                   14.337(7)
_cell_length_b                   6.477(3)
_cell_length_c                   14.386(6)
_cell_angle_alpha                90
_cell_angle_beta                 113.41(7)
_cell_angle_gamma                90
_cell_volume                     1225.93
_exptl_crystal_colour            colorless
_exptl_crystal_description       needles
_cell_formula_units_Z            2
loop_
_atom_site_label
_atom_site_type_symbol
_atom_site_fract_x
_atom_site_fract_y
_atom_site_fract_z
Br1 Br 0.35132(8) 0.1885(2) 0.53612(6)
N1 N 0.5781(5) -0.4451(9) 0.9631(5)
H1 H 0.6089(40) -0.5380(72) 1.0074(33)
H2 H 0.5172(36) -0.4467(88) 0.9608(38)
H3 H 0.6030(39) -0.3312(76) 0.9925(34)
C1 C 0.5842(5) -0.4738(12) 0.8622(5)
H4 H 0.6558(5) -0.4699(12) 0.8721(5)
C2 C 0.5410(8) -0.6914(12) 0.8222(7)
H5 H 0.5779(8) -0.7939(12) 0.8712(7)
H6 H 0.5480(8) -0.7178(12) 0.7596(7)
H7 H 0.4704(8) -0.6969(12) 0.8112(7)
C3 C 0.4183(6) -0.0209(12) 0.6329(5)
C4 C 0.5104(8) -0.1011(13) 0.6373(6)
H8 H 0.5358(8) -0.0606(13) 0.5899(6)
C5 C 0.5636(7) -0.2406(13) 0.7123(7)
H9 H 0.6248(7) -0.2929(13) 0.7146(7)
C6 C 0.5271(5) -0.3061(15) 0.7859(4)
C7 C 0.4341(6) -0.2278(11) 0.7778(6)
H10 H 0.4070(6) -0.2702(11) 0.8237(6)
C8 C 0.3803(7) -0.0861(13) 0.7020(6)
H11 H 0.3182(7) -0.0354(13) 0.6982(6)
O1 O 0.6131(3) -1.0446(8) 1.0376(4)
O2 O 0.7121(4) -0.7600(8) 1.0775(4)
C9 C 0.8136(5) -1.0606(11) 0.9493(5)
H12 H 0.7869(5) -0.9281(11) 0.9429(5)
C10 C 0.8245(6) -1.1796(12) 1.0358(6)
C11 C 0.8646(6) -1.3805(12) 1.0442(6)
H13 H 0.8701(6) -1.4635(12) 1.0989(6)
C12 C 0.8963(7) -1.4551(14) 0.9700(7)
H14 H 0.9260(7) -1.5851(14) 0.9779(7)
C13 C 0.8841(6) -1.3389(14) 0.8851(6)
H15 H 0.9036(6) -1.3934(14) 0.8357(6)
C14 C 0.8422(5) -1.1374(11) 0.8730(6)
C15 C 0.8286(5) -1.0112(12) 0.7816(5)
C16 C 0.7610(9) -0.8512(20) 0.7500(7)
H16 H 0.7233(9) -0.8174(20) 0.7876(7)
C17 C 0.7466(11) -0.7363(17) 0.6627(9)
H17 H 0.7002(11) -0.6279(17) 0.6446(9)
C18 C 0.7976(7) -0.7782(19) 0.6046(6)
H18 H 0.7859(7) -0.7052(19) 0.5453(6)
C19 C 0.8663(11) -0.9302(22) 0.6360(8)
H19 H 0.9036(11) -0.9622(22) 0.5978(8)
C20 C 0.8837(9) -1.0412(21) 0.7233(7)
H20 H 0.9348(9) -1.1404(21) 0.7435(7)
C21 C 0.7934(5) -1.0980(11) 1.1185(5)
H21 H 0.7730(5) -1.2176(11) 1.1478(5)
C22 C 0.6993(5) -0.9533(11) 1.0747(5)
C23 C 0.8809(5) -0.9923(13) 1.2050(5)
H22 H 0.8954(5) -0.8616(13) 1.1806(5)
H23 H 0.9412(5) -1.0778(13) 1.2235(5)
C24 C 0.8598(7) -0.9519(18) 1.3009(6)
H24 H 0.7944(7) -0.8800(18) 1.2788(6)
C25 C 0.8496(15) -1.1442(30) 1.3510(9)
H25 H 0.7992(15) -1.2309(30) 1.3028(9)
H26 H 0.8294(15) -1.1116(30) 1.4054(9)
H27 H 0.9137(15) -1.2152(30) 1.3774(9)
C26 C 0.9395(9) -0.8094(31) 1.3753(7)
H28 H 0.9446(9) -0.6857(31) 1.3409(7)
H29 H 1.0041(9) -0.8783(31) 1.4018(7)
H30 H 0.9199(9) -0.7747(31) 1.4298(7)
loop_
_geom_bond_atom_site_label_1
_geom_bond_atom_site_label_2
_geom_bond_site_symmetry_1
_geom_bond_site_symmetry_2
Br1 C3 1_555 1_555
N1 H1 1_555 1_555
H2 N1 1_555 1_555
H3 N1 1_555 1_555
C1 N1 1_555 1_555
H4 C1 1_555 1_555
C2 C1 1_555 1_555
H5 C2 1_555 1_555
H6 C2 1_555 1_555
H7 C2 1_555 1_555
C3 C4 1_555 1_555
C4 H8 1_555 1_555
C5 C4 1_555 1_555
H9 C5 1_555 1_555
C6 C1 1_555 1_555
C7 C6 1_555 1_555
H10 C7 1_555 1_555
C8 C3 1_555 1_555
H11 C8 1_555 1_555
O1 C22 1_555 1_555
O2 C22 1_555 1_555
C9 H12 1_555 1_555
C10 C9 1_555 1_555
C11 C10 1_555 1_555
H13 C11 1_555 1_555
C12 C11 1_555 1_555
H14 C12 1_555 1_555
C13 C12 1_555 1_555
H15 C13 1_555 1_555
C14 C9 1_555 1_555
C15 C14 1_555 1_555
C16 C15 1_555 1_555
H16 C16 1_555 1_555
C17 C16 1_555 1_555
H17 C17 1_555 1_555
C18 C17 1_555 1_555
H18 C18 1_555 1_555
C19 C18 1_555 1_555
H19 C19 1_555 1_555
C20 C15 1_555 1_555
H20 C20 1_555 1_555
C21 C10 1_555 1_555
H21 C21 1_555 1_555
C22 C21 1_555 1_555
C23 C21 1_555 1_555
H22 C23 1_555 1_555
H23 C23 1_555 1_555
C24 C23 1_555 1_555
H24 C24 1_555 1_555
C25 C24 1_555 1_555
H25 C25 1_555 1_555
H26 C25 1_555 1_555
H27 C25 1_555 1_555
C26 C24 1_555 1_555
H28 C26 1_555 1_555
H29 C26 1_555 1_555
H30 C26 1_555 1_555
C5 C6 1_555 1_555
C7 C8 1_555 1_555
C13 C14 1_555 1_555
C19 C20 1_555 1_555

#END
