
#######################################################################
#
#                 Cambridge Crystallographic Data Centre
#                                CCDC 
#
#######################################################################
#
# If this CIF has been generated from an entry in the Cambridge 
# Structural Database, then it will include bibliographic, chemical, 
# crystal, experimental, refinement or atomic coordinate data resulting 
# from the CCDC's data processing and validation procedures.
#
#######################################################################

data_PUPSOK
_chemical_compound_source        'Nauclea officinalis.'
_chemical_name_common            'Naucleofficine I monohydrate'
_chemical_formula_moiety         'C20 H22 N2 O3,H2 O1'
_chemical_name_systematic        
'16-(hydroxymethyl)-17-methyl-19,20-didehydro-18-oxayohimban-21-one monohydrate'
_chemical_properties_biological  
'Moderate cytotoxic activities against human colon cancer (HT29), human gastric cancer (SGC7901), and human hepatoma (PLC/PRF/5) cells.'
_symmetry_cell_setting           rhombohedral
_symmetry_space_group_name_H-M   'R 3'
_symmetry_Int_Tables_number      146
_space_group_name_Hall           'R 3'
loop_
_symmetry_equiv_pos_site_id
_symmetry_equiv_pos_as_xyz
1 x,y,z
2 -y,x-y,z
3 -x+y,-x,z
4 2/3+x,1/3+y,1/3+z
5 2/3-y,1/3+x-y,1/3+z
6 2/3-x+y,1/3-x,1/3+z
7 1/3+x,2/3+y,2/3+z
8 1/3-y,2/3+x-y,2/3+z
9 1/3-x+y,2/3-x,2/3+z
_cell_length_a                   24.930(3)
_cell_length_b                   24.930(3)
_cell_length_c                   7.8172(15)
_cell_angle_alpha                90
_cell_angle_beta                 90
_cell_angle_gamma                120
_cell_volume                     4207.52
_exptl_crystal_colour            yellow
_exptl_crystal_description       block
_chemical_melting_point          '257-259 deg.C'
_cell_formula_units_Z            9
loop_
_atom_site_label
_atom_site_type_symbol
_atom_site_fract_x
_atom_site_fract_y
_atom_site_fract_z
O1 O 0.7167(3) 0.4541(3) 0.4083(7)
H1 H 0.6801 0.4336 0.4358
C1 C 0.6311(3) 0.4662(5) 0.0733(12)
H2 H 0.6367 0.5072 0.0749
H3 H 0.6126 0.4456 0.1789
H4 H 0.6046 0.4433 -0.0203
O2 O 0.7074(2) 0.4854(3) -0.1270(6)
O3 O 0.8797(3) 0.5313(5) -0.3000(6)
N1 N 0.9244(2) 0.5127(2) 0.3835(5)
H5 H 0.9043 0.5211 0.4581
N2 N 0.9244(2) 0.5710(3) -0.0482(6)
C2 C 0.7290(3) 0.5121(3) 0.3488(7)
H6 H 0.7630 0.5443 0.4137
H7 H 0.6929 0.5164 0.3666
C3 C 0.7458(3) 0.5201(3) 0.1572(6)
H8 H 0.7518 0.5603 0.1210
C4 C 0.6930(3) 0.4702(4) 0.0518(8)
H9 H 0.6890 0.4298 0.0756
C5 C 0.7650(4) 0.5030(4) -0.1737(8)
H10 H 0.7725 0.5031 -0.2903
C6 C 0.8143(3) 0.5208(3) -0.0676(7)
C7 C 0.8059(2) 0.5197(3) 0.1215(6)
H11 H 0.8022 0.4815 0.1674
C8 C 0.8621(3) 0.5736(3) 0.1942(7)
H12 H 0.8595 0.5705 0.3180
H13 H 0.8618 0.6111 0.1625
C9 C 0.9225(3) 0.5802(3) 0.1402(7)
H14 H 0.9553 0.6223 0.1682
C10 C 0.8735(3) 0.5399(4) -0.1421(8)
C11 C 0.9856(4) 0.5823(5) -0.1003(9)
H15 H 1.0173 0.6210 -0.0511
H16 H 0.9892 0.5860 -0.2238
C12 C 0.9953(4) 0.5305(5) -0.0423(9)
H17 H 1.0390 0.5433 -0.0481
H18 H 0.9729 0.4948 -0.1164
C13 C 0.9723(3) 0.5133(4) 0.1412(8)
C14 C 0.9389(2) 0.5361(3) 0.2194(6)
C15 C 0.9480(3) 0.4732(3) 0.4065(9)
C16 C 0.9796(3) 0.4734(3) 0.2562(9)
C17 C 1.0089(4) 0.4396(4) 0.2437(12)
H19 H 1.0308 0.4407 0.1462
C18 C 1.0044(5) 0.4047(4) 0.3786(17)
H20 H 1.0241 0.3815 0.3723
C19 C 0.9725(5) 0.4009(4) 0.5270(15)
H21 H 0.9705 0.3750 0.6156
C20 C 0.9431(4) 0.4362(4) 0.5435(11)
H22 H 0.9214 0.4348 0.6419
O4 O 0.5976(3) 0.3822(3) 0.5035(11)
H23 H 0.6058 0.3801 0.6080
H24 H 0.5994 0.3525 0.4554
loop_
_geom_bond_atom_site_label_1
_geom_bond_atom_site_label_2
_geom_bond_site_symmetry_1
_geom_bond_site_symmetry_2
O1 H1 1_555 1_555
C1 H2 1_555 1_555
H3 C1 1_555 1_555
H4 C1 1_555 1_555
O2 C4 1_555 1_555
O3 C10 1_555 1_555
N1 H5 1_555 1_555
N2 C9 1_555 1_555
C2 O1 1_555 1_555
H6 C2 1_555 1_555
H7 C2 1_555 1_555
C3 C2 1_555 1_555
H8 C3 1_555 1_555
C4 C1 1_555 1_555
H9 C4 1_555 1_555
C5 O2 1_555 1_555
H10 C5 1_555 1_555
C6 C5 1_555 1_555
C7 C3 1_555 1_555
H11 C7 1_555 1_555
C8 C7 1_555 1_555
H12 C8 1_555 1_555
H13 C8 1_555 1_555
C9 C8 1_555 1_555
H14 C9 1_555 1_555
C10 N2 1_555 1_555
C11 N2 1_555 1_555
H15 C11 1_555 1_555
H16 C11 1_555 1_555
C12 C11 1_555 1_555
H17 C12 1_555 1_555
H18 C12 1_555 1_555
C13 C12 1_555 1_555
C14 N1 1_555 1_555
C15 N1 1_555 1_555
C16 C13 1_555 1_555
C17 C16 1_555 1_555
H19 C17 1_555 1_555
C18 C17 1_555 1_555
H20 C18 1_555 1_555
C19 C18 1_555 1_555
H21 C19 1_555 1_555
C20 C15 1_555 1_555
H22 C20 1_555 1_555
O4 H23 1_555 1_555
H24 O4 1_555 1_555
C3 C4 1_555 1_555
C6 C7 1_555 1_555
C6 C10 1_555 1_555
C9 C14 1_555 1_555
C13 C14 1_555 1_555
C15 C16 1_555 1_555
C19 C20 1_555 1_555

#END
