
#######################################################################
#
#                 Cambridge Crystallographic Data Centre
#                                CCDC 
#
#######################################################################
#
# If this CIF has been generated from an entry in the Cambridge 
# Structural Database, then it will include bibliographic, chemical, 
# crystal, experimental, refinement or atomic coordinate data resulting 
# from the CCDC's data processing and validation procedures.
#
#######################################################################

data_PUPWUU
_chemical_formula_moiety         'C21 H18 Cl1 N3 O3'
_chemical_name_systematic        
5-chloro-1,5'-dimethyl-3'-phenyl-3a',6a'-dihydro-2'H-spiro[indole-3,1'-pyrrolo[3,4-c]pyrrole]-2,4',6'(1H,3'H,5'H)-trione
_symmetry_cell_setting           orthorhombic
_symmetry_space_group_name_H-M   'P 21 21 21'
_symmetry_Int_Tables_number      19
_space_group_name_Hall           'P 2ac 2ab'
loop_
_symmetry_equiv_pos_site_id
_symmetry_equiv_pos_as_xyz
1 x,y,z
2 1/2+x,1/2-y,-z
3 -x,1/2+y,1/2-z
4 1/2-x,-y,1/2+z
_cell_length_a                   8.3195(18)
_cell_length_b                   12.098(3)
_cell_length_c                   18.430(4)
_cell_angle_alpha                90
_cell_angle_beta                 90
_cell_angle_gamma                90
_cell_volume                     1854.97
_exptl_crystal_colour            colorless
_exptl_crystal_description       prism
_cell_formula_units_Z            4
loop_
_atom_site_label
_atom_site_type_symbol
_atom_site_fract_x
_atom_site_fract_y
_atom_site_fract_z
Cl1 Cl 0.37159(10) 0.33466(6) 0.35607(3)
O1 O 0.9446(2) 0.47737(18) 0.65865(13)
O2 O 0.4217(3) 0.62596(17) 0.52736(10)
O3 O 0.4183(3) 0.67640(16) 0.77132(10)
N1 N 0.5888(3) 0.39823(17) 0.64792(11)
N2 N 0.9328(3) 0.4214(2) 0.53916(15)
N3 N 0.3780(3) 0.64687(17) 0.64933(11)
C1 C 0.6824(3) 0.4606(2) 0.59524(13)
C2 C 0.6611(3) 0.4206(2) 0.51835(13)
C3 C 0.5236(3) 0.4001(2) 0.47851(13)
H1 H 0.4199 0.4131 0.4983
C4 C 0.5423(4) 0.3597(2) 0.40829(14)
C5 C 0.6929(4) 0.3387(2) 0.37890(15)
H2 H 0.7013 0.3109 0.3308
C6 C 0.8308(4) 0.3577(2) 0.41891(16)
H3 H 0.9342 0.3434 0.3992
C7 C 0.8130(3) 0.3986(2) 0.48885(15)
C8 C 0.8682(3) 0.4542(2) 0.60422(16)
C9 C 0.6343(3) 0.5807(2) 0.61548(12)
H4 H 0.7191 0.6344 0.6002
C10 C 0.4693(3) 0.6174(2) 0.58940(14)
C11 C 0.4636(4) 0.6395(2) 0.71358(13)
C12 C 0.6173(3) 0.5782(2) 0.69860(13)
H5 H 0.7112 0.6142 0.7229
C13 C 0.6040(4) 0.4518(2) 0.71973(13)
H6 H 0.7067 0.4276 0.7430
C14 C 0.4647(4) 0.4204(2) 0.76824(13)
C15 C 0.3099(4) 0.4056(2) 0.74153(14)
H7 H 0.2906 0.4150 0.6911
C16 C 0.1828(4) 0.3775(2) 0.78681(16)
H8 H 0.0779 0.3685 0.7674
C17 C 0.2094(5) 0.3628(2) 0.86053(16)
H9 H 0.1231 0.3433 0.8917
C18 C 0.3612(5) 0.3764(2) 0.88790(15)
H10 H 0.3794 0.3659 0.9383
C19 C 0.4899(4) 0.4056(2) 0.84302(14)
H11 H 0.5941 0.4153 0.8630
C20 C 1.1040(3) 0.4068(3) 0.5265(2)
H12 H 1.1638 0.4297 0.5698
H13 H 1.1372 0.4520 0.4850
H14 H 1.1263 0.3288 0.5162
C21 C 0.2173(3) 0.6933(3) 0.64495(18)
H15 H 0.2042 0.7500 0.6825
H16 H 0.1377 0.6347 0.6524
H17 H 0.2013 0.7266 0.5970
H18 H 0.613(3) 0.325(3) 0.6490(14)
loop_
_geom_bond_atom_site_label_1
_geom_bond_atom_site_label_2
_geom_bond_site_symmetry_1
_geom_bond_site_symmetry_2
Cl1 C4 1_555 1_555
O1 C8 1_555 1_555
O2 C10 1_555 1_555
O3 C11 1_555 1_555
N1 C1 1_555 1_555
N2 C7 1_555 1_555
N3 C10 1_555 1_555
C1 C2 1_555 1_555
C2 C3 1_555 1_555
C3 H1 1_555 1_555
C4 C3 1_555 1_555
C5 C4 1_555 1_555
H2 C5 1_555 1_555
C6 C5 1_555 1_555
H3 C6 1_555 1_555
C7 C2 1_555 1_555
C8 N2 1_555 1_555
C9 C1 1_555 1_555
H4 C9 1_555 1_555
C10 C9 1_555 1_555
C11 N3 1_555 1_555
C12 C9 1_555 1_555
H5 C12 1_555 1_555
C13 N1 1_555 1_555
H6 C13 1_555 1_555
C14 C13 1_555 1_555
C15 C14 1_555 1_555
H7 C15 1_555 1_555
C16 C15 1_555 1_555
H8 C16 1_555 1_555
C17 C16 1_555 1_555
H9 C17 1_555 1_555
C18 C17 1_555 1_555
H10 C18 1_555 1_555
C19 C14 1_555 1_555
H11 C19 1_555 1_555
C20 N2 1_555 1_555
H12 C20 1_555 1_555
H13 C20 1_555 1_555
H14 C20 1_555 1_555
C21 N3 1_555 1_555
H15 C21 1_555 1_555
H16 C21 1_555 1_555
H17 C21 1_555 1_555
H18 N1 1_555 1_555
C1 C8 1_555 1_555
C6 C7 1_555 1_555
C11 C12 1_555 1_555
C12 C13 1_555 1_555
C18 C19 1_555 1_555

#END
