
#######################################################################
#
#                 Cambridge Crystallographic Data Centre
#                                CCDC 
#
#######################################################################
#
# If this CIF has been generated from an entry in the Cambridge 
# Structural Database, then it will include bibliographic, chemical, 
# crystal, experimental, refinement or atomic coordinate data resulting 
# from the CCDC's data processing and validation procedures.
#
#######################################################################

data_PUPZOR
_chemical_formula_moiety         'C26 H34 O7,H2 O1'
_chemical_name_systematic        
'16-hydroxy-4,4,8-trimethyl-3,20-dioxo-14,15:16,21-diepoxypregn-1-en-7-yl acetate monohydrate'
_symmetry_cell_setting           triclinic
_symmetry_space_group_name_H-M   'P 1'
_symmetry_Int_Tables_number      1
_space_group_name_Hall           'P 1'
loop_
_symmetry_equiv_pos_site_id
_symmetry_equiv_pos_as_xyz
1 x,y,z
_cell_length_a                   6.7216(10)
_cell_length_b                   8.7403(13)
_cell_length_c                   10.3335(15)
_cell_angle_alpha                83.990(2)
_cell_angle_beta                 78.885(2)
_cell_angle_gamma                82.352(2)
_cell_volume                     588.441
_exptl_crystal_colour            colorless
_exptl_crystal_description       piece
_cell_formula_units_Z            1
loop_
_atom_site_label
_atom_site_type_symbol
_atom_site_fract_x
_atom_site_fract_y
_atom_site_fract_z
O1 O 0.3082(2) 0.10150(13) 0.61587(12)
H1 H 0.362(5) 0.163(3) 0.552(3)
H2 H 0.200(4) 0.159(3) 0.647(3)
O2 O -0.1056(2) 1.16725(17) 0.25891(13)
O3 O -0.04385(18) 0.90362(13) 0.53345(10)
O4 O 0.29693(19) 0.82343(13) 0.51943(11)
H3 H 0.3039 0.8984 0.5592
O5 O -0.02051(15) 0.76986(13) 0.28989(10)
O6 O 0.50233(15) 0.50531(11) 0.24223(9)
O7 O 0.42765(19) 0.30944(14) 0.39453(12)
O8 O 0.9941(2) 0.35107(16) -0.32465(15)
C1 C 0.8599(2) 0.42091(18) -0.24808(14)
C2 C 0.7211(2) 0.33235(15) -0.13862(13)
C3 C 0.5889(2) 0.44686(14) -0.04301(12)
H4 H 0.6850 0.4814 0.0049
C4 C 0.4337(2) 0.37014(15) 0.06461(13)
H5 H 0.3253 0.3426 0.0248
H6 H 0.5006 0.2755 0.1026
C5 C 0.3417(2) 0.47647(15) 0.17422(12)
H7 H 0.2372 0.4260 0.2375
C6 C 0.24687(19) 0.63512(14) 0.12177(13)
C7 C 0.19645(19) 0.74935(15) 0.23183(13)
C8 C 0.2789(2) 0.90757(14) 0.20621(13)
C9 C 0.1689(2) 0.98850(15) 0.33207(14)
H8 H 0.2557 1.0612 0.3523
C10 C -0.0454(3) 1.06841(19) 0.33727(16)
C11 C -0.1751(3) 1.0107(2) 0.46538(17)
H9 H -0.2333 1.0964 0.5185
H10 H -0.2855 0.9601 0.4471
C12 C 0.1441(2) 0.85825(16) 0.44574(13)
C13 C 0.1259(2) 0.71852(16) 0.37479(14)
H11 H 0.1363 0.6133 0.4182
C14 C 0.5235(2) 0.41733(16) 0.35439(13)
C15 C 0.6736(3) 0.4730(2) 0.42214(16)
H12 H 0.6127 0.5651 0.4643
H13 H 0.7921 0.4957 0.3583
H14 H 0.7125 0.3943 0.4875
C16 C 0.8618(3) 0.2196(2) -0.06331(17)
H15 H 0.9544 0.1562 -0.1244
H16 H 0.7813 0.1549 0.0013
H17 H 0.9380 0.2769 -0.0197
C17 C 0.8268(2) 0.59015(18) -0.26360(14)
H18 H 0.9266 0.6433 -0.3181
C18 C 0.6592(2) 0.67100(16) -0.20268(14)
H19 H 0.6457 0.7783 -0.2184
C19 C 0.4894(2) 0.59731(15) -0.10904(13)
C20 C 0.3335(2) 0.57394(18) -0.19596(15)
H20 H 0.2395 0.6663 -0.2012
H21 H 0.2598 0.4885 -0.1573
H22 H 0.4046 0.5525 -0.2832
C21 C 0.4016(2) 0.70564(14) 0.00583(13)
H23 H 0.5196 0.7168 0.0454
C22 C 0.3225(3) 0.87240(16) -0.03977(15)
H24 H 0.2235 0.8678 -0.0958
H25 H 0.4358 0.9211 -0.0932
C23 C 0.2226(2) 0.97572(16) 0.07342(14)
H26 H 0.2667 1.0781 0.0525
H27 H 0.0754 0.9864 0.0807
C24 C 0.5997(3) 0.2373(2) -0.20658(17)
H28 H 0.6919 0.1608 -0.2550
H29 H 0.5286 0.3050 -0.2663
H30 H 0.5030 0.1869 -0.1408
C25 C 0.0452(2) 0.61150(19) 0.07985(15)
H31 H 0.0721 0.5357 0.0159
H32 H -0.0131 0.7079 0.0416
H33 H -0.0486 0.5763 0.1560
C26 C 0.5098(2) 0.90177(18) 0.20700(16)
H34 H 0.5862 0.8766 0.1219
H35 H 0.5476 0.8242 0.2736
H36 H 0.5386 1.0009 0.2259
loop_
_geom_bond_atom_site_label_1
_geom_bond_atom_site_label_2
_geom_bond_site_symmetry_1
_geom_bond_site_symmetry_2
O1 H1 1_555 1_555
H2 O1 1_555 1_555
O2 C10 1_555 1_555
O3 C11 1_555 1_555
O4 H3 1_555 1_555
O5 C7 1_555 1_555
O6 C5 1_555 1_555
O7 C14 1_555 1_555
O8 C1 1_555 1_555
C1 C2 1_555 1_555
C2 C3 1_555 1_555
C3 H4 1_555 1_555
C4 C3 1_555 1_555
H5 C4 1_555 1_555
H6 C4 1_555 1_555
C5 C4 1_555 1_555
H7 C5 1_555 1_555
C6 C5 1_555 1_555
C7 C6 1_555 1_555
C8 C7 1_555 1_555
C9 C8 1_555 1_555
H8 C9 1_555 1_555
C10 C9 1_555 1_555
C11 C10 1_555 1_555
H9 C11 1_555 1_555
H10 C11 1_555 1_555
C12 O3 1_555 1_555
C13 O5 1_555 1_555
H11 C13 1_555 1_555
C14 O6 1_555 1_555
C15 C14 1_555 1_555
H12 C15 1_555 1_555
H13 C15 1_555 1_555
H14 C15 1_555 1_555
C16 C2 1_555 1_555
H15 C16 1_555 1_555
H16 C16 1_555 1_555
H17 C16 1_555 1_555
C17 C1 1_555 1_555
H18 C17 1_555 1_555
C18 C17 1_555 1_555
H19 C18 1_555 1_555
C19 C3 1_555 1_555
C20 C19 1_555 1_555
H20 C20 1_555 1_555
H21 C20 1_555 1_555
H22 C20 1_555 1_555
C21 C6 1_555 1_555
H23 C21 1_555 1_555
C22 C21 1_555 1_555
H24 C22 1_555 1_555
H25 C22 1_555 1_555
C23 C8 1_555 1_555
H26 C23 1_555 1_555
H27 C23 1_555 1_555
C24 C2 1_555 1_555
H28 C24 1_555 1_555
H29 C24 1_555 1_555
H30 C24 1_555 1_555
C25 C6 1_555 1_555
H31 C25 1_555 1_555
H32 C25 1_555 1_555
H33 C25 1_555 1_555
C26 C8 1_555 1_555
H34 C26 1_555 1_555
H35 C26 1_555 1_555
H36 C26 1_555 1_555
O4 C12 1_555 1_555
C7 C13 1_555 1_555
C9 C12 1_555 1_555
C12 C13 1_555 1_555
C18 C19 1_555 1_555
C19 C21 1_555 1_555
C22 C23 1_555 1_555

#END
