
#######################################################################
#
#                 Cambridge Crystallographic Data Centre
#                                CCDC 
#
#######################################################################
#
# If this CIF has been generated from an entry in the Cambridge 
# Structural Database, then it will include bibliographic, chemical, 
# crystal, experimental, refinement or atomic coordinate data resulting 
# from the CCDC's data processing and validation procedures.
#
#######################################################################

data_PUQGAL
_chemical_formula_moiety         'C4 H12 N1 O7 P2 1-,2(H2 O1),Rb1 1+'
_chemical_name_systematic        
'Rubidium (4-ammonio-1-hydroxybutane-1,1-diyl)bis(hydrogen phosphonate) dihydrate'
_symmetry_cell_setting           monoclinic
_symmetry_space_group_name_H-M   'C 2/c'
_symmetry_Int_Tables_number      15
_space_group_name_Hall           '-C 2yn'
loop_
_symmetry_equiv_pos_site_id
_symmetry_equiv_pos_as_xyz
1 x,y,z
2 -x,y,1/2-z
3 1/2+x,1/2+y,z
4 1/2-x,1/2+y,1/2-z
5 -x,-y,-z
6 x,-y,1/2+z
7 1/2-x,1/2-y,-z
8 1/2+x,1/2-y,1/2+z
_cell_length_a                   28.1623(12)
_cell_length_b                   7.0020(3)
_cell_length_c                   24.8850(11)
_cell_angle_alpha                90
_cell_angle_beta                 90.024(4)
_cell_angle_gamma                90
_cell_volume                     4907.13
_exptl_crystal_colour            colorless
_exptl_crystal_description       prism
_cell_formula_units_Z            16
loop_
_atom_site_label
_atom_site_type_symbol
_atom_site_fract_x
_atom_site_fract_y
_atom_site_fract_z
Rb1 Rb 0.149990(8) 0.61642(3) 0.417601(9)
Rb2 Rb 0.071159(8) 0.22368(3) 0.229644(10)
P1 P 0.17792(2) 0.20055(8) 0.32802(2)
P2 P 0.20727(2) 0.10066(8) 0.44409(2)
O1 O 0.17489(6) 0.0969(2) 0.27472(6)
H1 H 0.1101(9) 0.273(3) 0.3510(12)
O2 O 0.12899(6) 0.1839(2) 0.35779(7)
O3 O 0.19238(6) 0.4079(2) 0.32464(7)
O4 O 0.16297(6) -0.0089(2) 0.45776(7)
O5 O 0.20556(6) 0.3126(2) 0.45597(7)
O6 O 0.25086(6) 0.0057(2) 0.47263(7)
H2 H 0.2610(10) 0.070(4) 0.4969(10)
O7 O 0.21262(6) -0.1317(2) 0.36137(7)
H3 H 0.2365(7) -0.175(3) 0.3491(11)
N1 N 0.34839(7) 0.2046(3) 0.23544(8)
H4 H 0.3804(6) 0.215(4) 0.2334(11)
H5 H 0.3348(9) 0.319(3) 0.2252(11)
H6 H 0.3372(9) 0.106(3) 0.2151(10)
C1 C 0.22012(8) 0.0694(3) 0.37188(9)
C2 C 0.27178(8) 0.1299(3) 0.36043(9)
H7 H 0.2767 0.2597 0.3751
H8 H 0.2933 0.0423 0.3800
C3 C 0.28587(8) 0.1305(3) 0.30121(9)
H9 H 0.2787 0.0042 0.2853
H10 H 0.2668 0.2275 0.2819
C4 C 0.33825(8) 0.1740(3) 0.29374(9)
H11 H 0.3468 0.2899 0.3143
H12 H 0.3575 0.0663 0.3074
P3 P 0.03711(2) 0.86208(8) 0.32410(2)
P4 P 0.03260(2) 0.47899(8) 0.38227(2)
O8 O 0.07660(6) 0.8807(2) 0.36891(7)
H13 H 0.0942(9) 0.970(3) 0.3634(11)
O9 O 0.05798(5) 0.8001(2) 0.27122(6)
O10 O 0.00961(6) 1.0473(2) 0.31866(6)
O11 O 0.05058(6) 0.5248(2) 0.43751(6)
O12 O 0.07159(6) 0.4376(2) 0.34044(7)
O13 O -0.00169(6) 0.3036(2) 0.38590(7)
H14 H 0.0059(10) 0.223(3) 0.3646(10)
O14 O -0.02922(6) 0.5860(2) 0.31046(7)
H15 H -0.0331(10) 0.663(4) 0.2856(9)
N2 N -0.08416(7) 0.8230(3) 0.50626(9)
H16 H -0.1055(9) 0.879(4) 0.5271(10)
H17 H -0.0687(9) 0.727(3) 0.5244(11)
H18 H -0.0629(8) 0.909(3) 0.4984(11)
C5 C -0.00245(8) 0.6755(3) 0.35291(9)
C6 C -0.03521(8) 0.7721(3) 0.39402(9)
H19 H -0.0153 0.8351 0.4217
H20 H -0.0537 0.8729 0.3755
C7 C -0.06990(8) 0.6367(3) 0.42211(10)
H21 H -0.0868 0.5602 0.3946
H22 H -0.0518 0.5474 0.4451
C8 C -0.10610(8) 0.7414(4) 0.45639(10)
H23 H -0.1204 0.8459 0.4351
H24 H -0.1318 0.6519 0.4666
O15 O 0.16468(7) 0.7163(3) 0.53704(8)
H25 H 0.1666(11) 0.8265(14) 0.5248(4)
H26 H 0.1927(5) 0.678(4) 0.5405(13)
O16 O 0.13290(7) 0.1814(4) 0.14040(9)
H27 H 0.1586(9) 0.133(5) 0.1503(14)
H28 H 0.1349(13) 0.207(6) 0.1087(8)
O17 O 0.22458(6) 0.1199(3) 0.18244(7)
H29 H 0.2130(10) 0.117(4) 0.2135(8)
H30 H 0.2465(8) 0.040(3) 0.1815(11)
O18 O 0.03695(8) 0.8264(3) 0.51125(8)
H31 H 0.0406(12) 0.733(4) 0.4900(11)
H32 H 0.0288(12) 0.785(4) 0.5412(8)
loop_
_geom_bond_atom_site_label_1
_geom_bond_atom_site_label_2
_geom_bond_site_symmetry_1
_geom_bond_site_symmetry_2
P1 O1 1_555 1_555
P2 O4 1_555 1_555
H1 O2 1_555 1_555
O2 P1 1_555 1_555
O3 P1 1_555 1_555
O5 P2 1_555 1_555
O6 P2 1_555 1_555
H2 O6 1_555 1_555
O7 H3 1_555 1_555
N1 H4 1_555 1_555
H5 N1 1_555 1_555
H6 N1 1_555 1_555
C1 P1 1_555 1_555
C2 C1 1_555 1_555
H7 C2 1_555 1_555
H8 C2 1_555 1_555
C3 C2 1_555 1_555
H9 C3 1_555 1_555
H10 C3 1_555 1_555
C4 N1 1_555 1_555
H11 C4 1_555 1_555
H12 C4 1_555 1_555
P3 O8 1_555 1_555
P4 O11 1_555 1_555
O8 H13 1_555 1_555
O9 P3 1_555 1_555
O10 P3 1_555 1_555
O12 P4 1_555 1_555
O13 P4 1_555 1_555
H14 O13 1_555 1_555
O14 H15 1_555 1_555
N2 H16 1_555 1_555
H17 N2 1_555 1_555
H18 N2 1_555 1_555
C5 P3 1_555 1_555
C6 C5 1_555 1_555
H19 C6 1_555 1_555
H20 C6 1_555 1_555
C7 C6 1_555 1_555
H21 C7 1_555 1_555
H22 C7 1_555 1_555
C8 N2 1_555 1_555
H23 C8 1_555 1_555
H24 C8 1_555 1_555
O15 H25 1_555 1_555
H26 O15 1_555 1_555
O16 H27 1_555 1_555
H28 O16 1_555 1_555
O17 H29 1_555 1_555
H30 O17 1_555 1_555
O18 H31 1_555 1_555
H32 O18 1_555 1_555
P2 C1 1_555 1_555
O7 C1 1_555 1_555
C3 C4 1_555 1_555
P4 C5 1_555 1_555
O14 C5 1_555 1_555
C7 C8 1_555 1_555

#END
