
#######################################################################
#
#                 Cambridge Crystallographic Data Centre
#                                CCDC 
#
#######################################################################
#
# If this CIF has been generated from an entry in the Cambridge 
# Structural Database, then it will include bibliographic, chemical, 
# crystal, experimental, refinement or atomic coordinate data resulting 
# from the CCDC's data processing and validation procedures.
#
#######################################################################

data_PUQGUF
_chemical_formula_moiety         
'C4 H12 N1 O7 P2 1-,2(H2 O1),Cs1 1+,C4 H13 N1 O7 P2'
_chemical_name_systematic        
'Cesium (4-ammonio-1-hydroxybutane-1,1-diyl)bis(hydrogen phosphonate) trihydrogen (4-ammonio-1-hydroxybutane-1,1-diyl)diphosphonate dihydrate'
_symmetry_cell_setting           triclinic
_symmetry_space_group_name_H-M   'P -1'
_symmetry_Int_Tables_number      2
_space_group_name_Hall           '-P 1'
loop_
_symmetry_equiv_pos_site_id
_symmetry_equiv_pos_as_xyz
1 x,y,z
2 -x,-y,-z
_cell_length_a                   7.3560(4)
_cell_length_b                   7.3955(4)
_cell_length_c                   19.7674(9)
_cell_angle_alpha                90.296(4)
_cell_angle_beta                 90.613(4)
_cell_angle_gamma                97.621(5)
_cell_volume                     1065.79
_exptl_crystal_colour            colorless
_exptl_crystal_description       prism
_cell_formula_units_Z            2
loop_
_atom_site_label
_atom_site_type_symbol
_atom_site_fract_x
_atom_site_fract_y
_atom_site_fract_z
Cs1 Cs 0.757975(17) 0.779611(19) 0.747636(7)
P1 P 1.17094(7) 0.94711(8) 0.86304(3)
P2 P 1.24845(7) 0.56153(8) 0.81943(3)
O1 O 1.1901(2) 0.9743(2) 0.78437(8)
H1 H 1.300(2) 1.008(3) 0.7738(13)
O2 O 0.97046(18) 0.9057(2) 0.87755(8)
O3 O 1.2749(2) 1.1078(2) 0.90016(8)
O4 O 1.04626(19) 0.4949(2) 0.81341(8)
O5 O 1.3635(2) 0.4158(2) 0.84751(8)
H2 H 1.322(3) 0.322(3) 0.8663(13)
O6 O 1.33897(19) 0.6255(2) 0.75367(7)
O7 O 1.48106(18) 0.8116(2) 0.87940(8)
H3 H 1.536(3) 0.771(4) 0.9113(10)
N1 N 1.2926(3) 0.8442(3) 1.13333(10)
H4 H 1.198(3) 0.911(3) 1.1351(13)
H5 H 1.307(3) 0.798(4) 1.1738(9)
H6 H 1.396(3) 0.917(3) 1.1265(13)
C1 C 1.2875(3) 0.7468(3) 0.88277(10)
C2 C 1.2348(3) 0.6658(3) 0.95241(10)
H7 H 1.1044 0.6114 0.9506
H8 H 1.3089 0.5660 0.9616
C3 C 1.2612(3) 0.8010(3) 1.01110(10)
H9 H 1.3792 0.8811 1.0059
H10 H 1.1615 0.8787 1.0102
C4 C 1.2609(3) 0.7042(3) 1.07857(11)
H11 H 1.1416 0.6274 1.0851
H12 H 1.3588 0.6244 1.0797
P3 P 0.89674(7) 0.34030(8) 0.64533(3)
P4 P 0.49482(7) 0.21425(8) 0.67687(3)
O8 O 0.88698(19) 0.5387(2) 0.63271(8)
O9 O 0.9200(2) 0.2889(2) 0.72001(8)
H13 H 0.973(3) 0.366(3) 0.7462(12)
O10 O 1.0497(2) 0.2727(2) 0.60291(8)
H14 H 1.135(3) 0.228(4) 0.6164(13)
O11 O 0.5091(2) 0.4234(2) 0.68527(8)
H15 H 0.443(3) 0.474(4) 0.7106(12)
O12 O 0.51967(19) 0.1127(2) 0.74094(8)
O13 O 0.31725(18) 0.1388(2) 0.63991(8)
O14 O 0.7131(2) 0.0108(2) 0.62119(8)
H16 H 0.752(3) -0.019(4) 0.5849(10)
N2 N 0.7802(3) 0.2365(3) 0.36477(10)
H17 H 0.897(2) 0.294(3) 0.3673(13)
H18 H 0.771(3) 0.113(2) 0.3635(13)
H19 H 0.732(3) 0.269(4) 0.3254(10)
C5 C 0.6844(3) 0.1986(3) 0.61751(10)
C6 C 0.6207(3) 0.2531(3) 0.54725(10)
H20 H 0.5053 0.1737 0.5356
H21 H 0.5917 0.3798 0.5502
C7 C 0.7543(3) 0.2427(3) 0.48916(11)
H22 H 0.8661 0.3306 0.4976
H23 H 0.7910 0.1188 0.4871
C8 C 0.6676(3) 0.2858(3) 0.42208(11)
H24 H 0.5429 0.2171 0.4182
H25 H 0.6563 0.4176 0.4203
O15 O 0.7309(2) 0.7307(2) 0.97016(8)
H26 H 0.814(3) 0.786(4) 0.9468(12)
H27 H 0.734(3) 0.785(4) 1.0080(9)
O16 O 0.7909(2) 0.7629(3) 0.53013(9)
H28 H 0.810(4) 0.684(3) 0.5579(12)
H29 H 0.840(4) 0.744(4) 0.4953(10)
loop_
_geom_bond_atom_site_label_1
_geom_bond_atom_site_label_2
_geom_bond_site_symmetry_1
_geom_bond_site_symmetry_2
P1 O1 1_555 1_555
P2 O4 1_555 1_555
O1 H1 1_555 1_555
O2 P1 1_555 1_555
O3 P1 1_555 1_555
O5 P2 1_555 1_555
H2 O5 1_555 1_555
O6 P2 1_555 1_555
O7 H3 1_555 1_555
N1 H4 1_555 1_555
H5 N1 1_555 1_555
H6 N1 1_555 1_555
C1 P1 1_555 1_555
C2 C1 1_555 1_555
H7 C2 1_555 1_555
H8 C2 1_555 1_555
C3 C2 1_555 1_555
H9 C3 1_555 1_555
H10 C3 1_555 1_555
C4 N1 1_555 1_555
H11 C4 1_555 1_555
H12 C4 1_555 1_555
P3 O8 1_555 1_555
P4 O11 1_555 1_555
O9 P3 1_555 1_555
H13 O9 1_555 1_555
O10 P3 1_555 1_555
H14 O10 1_555 1_555
O11 H15 1_555 1_555
O12 P4 1_555 1_555
O13 P4 1_555 1_555
O14 H16 1_555 1_555
N2 H17 1_555 1_555
H18 N2 1_555 1_555
H19 N2 1_555 1_555
C5 P3 1_555 1_555
C6 C5 1_555 1_555
H20 C6 1_555 1_555
H21 C6 1_555 1_555
C7 C6 1_555 1_555
H22 C7 1_555 1_555
H23 C7 1_555 1_555
C8 N2 1_555 1_555
H24 C8 1_555 1_555
H25 C8 1_555 1_555
O15 H26 1_555 1_555
H27 O15 1_555 1_555
O16 H28 1_555 1_555
H29 O16 1_555 1_555
P2 C1 1_555 1_555
O7 C1 1_555 1_555
C3 C4 1_555 1_555
P4 C5 1_555 1_555
O14 C5 1_555 1_555
C7 C8 1_555 1_555

#END
