
#######################################################################
#
#                 Cambridge Crystallographic Data Centre
#                                CCDC 
#
#######################################################################
#
# If this CIF has been generated from an entry in the Cambridge 
# Structural Database, then it will include bibliographic, chemical, 
# crystal, experimental, refinement or atomic coordinate data resulting 
# from the CCDC's data processing and validation procedures.
#
#######################################################################

data_PUQGOZ
_chemical_formula_moiety         
'C4 H12 N1 O7 P2 1-,2(H2 O1),Rb1 1+,C4 H13 N1 O7 P2'
_chemical_name_systematic        
'Rubidium (4-ammonio-1-hydroxybutane-1,1-diyl)bis(hydrogen phosphonate) trihydrogen (4-ammonio-1-hydroxybutane-1,1-diyl)diphosphonate dihydrate'
_symmetry_cell_setting           monoclinic
_symmetry_space_group_name_H-M   'P 21/c'
_symmetry_Int_Tables_number      14
_space_group_name_Hall           '-P 2ybc'
loop_
_symmetry_equiv_pos_site_id
_symmetry_equiv_pos_as_xyz
1 x,y,z
2 -x,1/2+y,1/2-z
3 -x,-y,-z
4 x,1/2-y,1/2+z
_cell_length_a                   20.4874(11)
_cell_length_b                   7.2929(3)
_cell_length_c                   14.7879(9)
_cell_angle_alpha                90
_cell_angle_beta                 109.949(6)
_cell_angle_gamma                90
_cell_volume                     2076.92
_exptl_crystal_colour            colorless
_exptl_crystal_description       plate
_cell_formula_units_Z            4
loop_
_atom_site_label
_atom_site_type_symbol
_atom_site_fract_x
_atom_site_fract_y
_atom_site_fract_z
Rb1 Rb 0.749051(13) 0.23001(3) 0.496852(17)
P1 P 0.64228(3) 0.06163(8) 0.65672(4)
P2 P 0.68402(3) 0.45833(8) 0.71430(4)
O1 O 0.63690(9) 0.0866(2) 0.55359(12)
O2 O 0.59777(9) -0.0932(2) 0.67422(13)
O3 O 0.72028(9) 0.0285(2) 0.71917(12)
H1 H 0.7257(15) -0.005(4) 0.7749(10)
O4 O 0.69516(9) 0.4917(2) 0.62048(12)
O5 O 0.75008(8) 0.4015(2) 0.79654(12)
O6 O 0.65394(9) 0.6255(2) 0.75240(12)
H2 H 0.6382(14) 0.721(2) 0.7199(18)
O7 O 0.62665(9) 0.2386(2) 0.80348(12)
H3 H 0.5883(9) 0.248(4) 0.812(2)
N1 N 0.35658(11) 0.2076(3) 0.56835(15)
H4 H 0.3165(9) 0.273(3) 0.545(2)
H5 H 0.3563(15) 0.117(3) 0.5263(16)
H6 H 0.3569(15) 0.153(4) 0.6235(12)
C1 C 0.61917(12) 0.2754(3) 0.70474(16)
C2 C 0.54758(12) 0.3525(3) 0.64585(17)
H7 H 0.5390 0.4622 0.6796
H8 H 0.5494 0.3939 0.5830
C3 C 0.48538(12) 0.2234(3) 0.62678(18)
H9 H 0.4866 0.1292 0.5792
H10 H 0.4879 0.1602 0.6871
C4 C 0.41799(12) 0.3315(3) 0.58868(18)
H11 H 0.4167 0.4247 0.6367
H12 H 0.4160 0.3962 0.5289
P3 P 0.82167(3) 0.68683(8) 0.42911(4)
P4 P 0.85311(3) 0.77567(8) 0.64018(4)
O8 O 0.87750(9) 0.4551(2) 0.57275(12)
H13 H 0.9151(9) 0.398(3) 0.584(2)
O9 O 0.81153(9) 0.8950(2) 0.42606(12)
H14 H 0.7838(12) 0.934(3) 0.3748(12)
O10 O 0.75699(9) 0.5739(2) 0.40730(12)
O11 O 0.77168(9) 0.7600(2) 0.60020(13)
H15 H 0.7529(13) 0.671(3) 0.617(2)
O12 O 0.87229(9) 0.9745(2) 0.64104(12)
O13 O 0.88291(9) 0.6741(2) 0.73599(12)
O14 O 0.86248(9) 0.6273(2) 0.36239(13)
H16 H 0.8711(16) 0.706(3) 0.3263(18)
N2 N 1.13529(11) 0.7731(3) 0.74318(15)
H17 H 1.1336(14) 0.668(2) 0.7751(18)
H18 H 1.1775(8) 0.796(4) 0.738(2)
H19 H 1.1258(14) 0.866(3) 0.7776(17)
C5 C 0.88197(12) 0.6477(3) 0.55206(16)
C6 C 0.95510(12) 0.7076(3) 0.55598(17)
H20 H 0.9700 0.6254 0.5134
H21 H 0.9517 0.8329 0.5290
C7 C 1.01176(12) 0.7079(3) 0.65481(17)
H22 H 0.9984 0.7911 0.6985
H23 H 1.0172 0.5829 0.6825
C8 C 1.08010(12) 0.7711(3) 0.64606(17)
H24 H 1.0937 0.6872 0.6030
H25 H 1.0745 0.8957 0.6178
O15 O 0.53450(10) 0.2575(2) 0.89449(14)
H26 H 0.5618(12) 0.302(4) 0.9449(14)
H27 H 0.4956(8) 0.306(4) 0.878(2)
O16 O 0.97539(10) 0.1902(2) 0.61072(14)
H28 H 0.9469(12) 0.115(3) 0.618(2)
H29 H 1.0131(9) 0.188(4) 0.6572(16)
loop_
_geom_bond_atom_site_label_1
_geom_bond_atom_site_label_2
_geom_bond_site_symmetry_1
_geom_bond_site_symmetry_2
P1 O1 1_555 1_555
P2 O4 1_555 1_555
O2 P1 1_555 1_555
O3 P1 1_555 1_555
H1 O3 1_555 1_555
O5 P2 1_555 1_555
O6 P2 1_555 1_555
H2 O6 1_555 1_555
O7 H3 1_555 1_555
N1 H4 1_555 1_555
H5 N1 1_555 1_555
H6 N1 1_555 1_555
C1 P1 1_555 1_555
C2 C1 1_555 1_555
H7 C2 1_555 1_555
H8 C2 1_555 1_555
C3 C2 1_555 1_555
H9 C3 1_555 1_555
H10 C3 1_555 1_555
C4 N1 1_555 1_555
H11 C4 1_555 1_555
H12 C4 1_555 1_555
P3 O9 1_555 1_555
P4 O11 1_555 1_555
O8 H13 1_555 1_555
O9 H14 1_555 1_555
O10 P3 1_555 1_555
O11 H15 1_555 1_555
O12 P4 1_555 1_555
O13 P4 1_555 1_555
O14 P3 1_555 1_555
H16 O14 1_555 1_555
N2 H17 1_555 1_555
H18 N2 1_555 1_555
H19 N2 1_555 1_555
C5 P3 1_555 1_555
C6 C5 1_555 1_555
H20 C6 1_555 1_555
H21 C6 1_555 1_555
C7 C6 1_555 1_555
H22 C7 1_555 1_555
H23 C7 1_555 1_555
C8 N2 1_555 1_555
H24 C8 1_555 1_555
H25 C8 1_555 1_555
O15 H26 1_555 1_555
H27 O15 1_555 1_555
O16 H28 1_555 1_555
H29 O16 1_555 1_555
P2 C1 1_555 1_555
O7 C1 1_555 1_555
C3 C4 1_555 1_555
P4 C5 1_555 1_555
O8 C5 1_555 1_555
C7 C8 1_555 1_555

#END
