
#######################################################################
#
#                 Cambridge Crystallographic Data Centre
#                                CCDC 
#
#######################################################################
#
# If this CIF has been generated from an entry in the Cambridge 
# Structural Database, then it will include bibliographic, chemical, 
# crystal, experimental, refinement or atomic coordinate data resulting 
# from the CCDC's data processing and validation procedures.
#
#######################################################################

data_PUQHUG
_chemical_formula_moiety         'C4 H11 N1 O7 P2 2-,5.5(H2 O1),2(Cs1 1+)'
_chemical_name_systematic        
'Di-cesium (4-ammonio-1-hydroxy-1-(hydroxyphosphinato)butyl)phosphonate hydrate'
_symmetry_cell_setting           triclinic
_symmetry_space_group_name_H-M   'P -1'
_symmetry_Int_Tables_number      2
_space_group_name_Hall           '-P 1'
loop_
_symmetry_equiv_pos_site_id
_symmetry_equiv_pos_as_xyz
1 x,y,z
2 -x,-y,-z
_cell_length_a                   6.9204(4)
_cell_length_b                   14.4826(8)
_cell_length_c                   17.7931(11)
_cell_angle_alpha                81.983(5)
_cell_angle_beta                 82.274(5)
_cell_angle_gamma                88.484(5)
_cell_volume                     1749.81
_exptl_crystal_colour            colorless
_exptl_crystal_description       plate
_cell_formula_units_Z            4
loop_
_atom_site_label
_atom_site_type_symbol
_atom_site_fract_x
_atom_site_fract_y
_atom_site_fract_z
Cs1 Cs 1.24667(5) 0.62174(2) -0.05194(2)
Cs2 Cs 0.70751(6) 0.54129(3) 0.26083(2)
Cs3 Cs 0.31852(6) 0.64938(3) 0.48486(2)
Cs4 Cs 0.38312(5) 0.80570(2) 0.257390(18)
P1 P 0.7784(2) 0.78480(9) -0.11801(7)
P2 P 0.7353(2) 0.69900(10) 0.05398(8)
O1 O 0.9982(6) 0.7924(3) -0.1264(2)
O2 O 0.7116(6) 0.6876(3) -0.1287(2)
O3 O 0.6836(6) 0.8621(3) -0.1690(2)
O4 O 0.9440(6) 0.7068(3) 0.0663(2)
O5 O 0.7060(6) 0.6092(3) 0.0139(2)
H1 H 0.723(3) 0.621(3) -0.0342(6)
O6 O 0.5868(6) 0.6940(3) 0.1242(2)
O7 O 0.4678(6) 0.7986(3) -0.0194(2)
H2 H 0.415(6) 0.808(5) 0.0244(17)
N1 N 0.7055(7) 1.0674(3) 0.1421(3)
H3 H 0.721(11) 1.035(5) 0.189(2)
H4 H 0.803(8) 1.109(4) 0.136(4)
H5 H 0.584(5) 1.090(5) 0.136(4)
C1 C 0.6762(8) 0.7980(4) -0.0179(3)
C2 C 0.7487(9) 0.8908(4) -0.0006(3)
H6 H 0.7210 0.9395 -0.0427
H7 H 0.8922 0.8860 -0.0028
C3 C 0.6682(9) 0.9260(4) 0.0755(3)
H8 H 0.5259 0.9376 0.0782
H9 H 0.6932 0.8797 0.1196
C4 C 0.7757(8) 1.0162(4) 0.0757(3)
H10 H 0.9161 1.0017 0.0762
H11 H 0.7620 1.0578 0.0276
P3 P 0.8487(2) 0.74014(10) 0.35461(8)
P4 P 0.7343(2) 0.94794(10) 0.35230(7)
O8 O 0.9315(7) 0.7716(3) 0.2666(2)
H12 H 0.900(11) 0.826(2) 0.250(3)
O9 O 0.9863(7) 0.6671(3) 0.3852(2)
O10 O 0.6410(6) 0.7107(3) 0.3616(2)
O11 O 0.7724(6) 0.9384(3) 0.2663(2)
O12 O 0.5188(6) 0.9392(3) 0.3819(2)
O13 O 0.8270(6) 1.0365(3) 0.3679(2)
O14 O 1.0697(6) 0.8706(3) 0.3872(2)
H13 H 1.110(7) 0.866(6) 0.4301(15)
N2 N 0.7554(8) 0.9321(3) 0.6680(3)
H14 H 0.722(11) 0.909(5) 0.7184(16)
H15 H 0.881(5) 0.952(5) 0.661(4)
H16 H 0.666(9) 0.977(4) 0.656(4)
C5 C 0.8675(8) 0.8467(4) 0.3996(3)
C6 C 0.7933(8) 0.8194(4) 0.4854(3)
H17 H 0.6595 0.7948 0.4900
H18 H 0.8767 0.7681 0.5061
C7 C 0.7893(9) 0.8968(4) 0.5352(3)
H19 H 0.9173 0.9282 0.5260
H20 H 0.6888 0.9436 0.5214
C8 C 0.7448(9) 0.8579(4) 0.6191(3)
H21 H 0.6126 0.8306 0.6291
H22 H 0.8396 0.8077 0.6321
O15 O 1.2348(7) 0.6167(3) 0.1407(3)
H23 H 1.146(7) 0.652(4) 0.125(5)
H24 H 1.337(6) 0.649(4) 0.134(5)
O16 O 1.4783(7) 0.6603(3) -0.2335(3)
H25 H 1.551(10) 0.672(5) -0.202(4)
H26 H 1.401(10) 0.705(4) -0.243(5)
O17 O 0.9769(7) 0.5455(3) -0.1529(3)
H27 H 0.915(8) 0.596(2) -0.160(4)
H28 H 0.900(8) 0.501(3) -0.150(6)
O18 O 0.2496(7) 0.5808(3) 0.2950(3)
H29 H 0.244(12) 0.593(6) 0.2477(10)
H30 H 0.154(8) 0.606(6) 0.319(4)
O19 O 0.7392(8) 0.5578(4) 0.5051(3)
H31 H 0.746(14) 0.564(7) 0.5509(15)
H32 H 0.826(11) 0.589(6) 0.475(4)
O20 O 0.1358(8) 0.6427(4) 0.6504(3)
H33 H 0.155(11) 0.686(5) 0.675(5)
H34 H 0.014(3) 0.635(6) 0.655(5)
O21 O 0.2847(6) 0.8604(3) 0.5094(2)
H35 H 0.375(8) 0.889(5) 0.480(3)
H36 H 0.265(11) 0.885(5) 0.550(2)
O22 O 0.1892(6) 0.8389(3) 0.0943(2)
H37 H 0.090(6) 0.806(4) 0.095(4)
H38 H 0.160(10) 0.883(4) 0.120(4)
O23 O 0.1408(6) 0.9706(3) 0.1904(2)
H39 H 0.169(10) 1.0273(15) 0.185(4)
H40 H 0.030(5) 0.961(5) 0.216(4)
O24 O 0.2609(8) 0.3963(4) 0.3483(3)
H41 H 0.307(9) 0.361(4) 0.316(4)
H42 H 0.261(15) 0.4523(18) 0.328(4)
O25 O 0.8024(7) 1.2041(3) 0.2728(2)
H43 H 0.890(9) 1.200(5) 0.236(3)
H44 H 0.806(12) 1.157(3) 0.306(3)
loop_
_geom_bond_atom_site_label_1
_geom_bond_atom_site_label_2
_geom_bond_site_symmetry_1
_geom_bond_site_symmetry_2
P1 O1 1_555 1_555
P2 O4 1_555 1_555
O2 P1 1_555 1_555
O3 P1 1_555 1_555
O5 P2 1_555 1_555
H1 O5 1_555 1_555
O6 P2 1_555 1_555
O7 H2 1_555 1_555
N1 H3 1_555 1_555
H4 N1 1_555 1_555
H5 N1 1_555 1_555
C1 P1 1_555 1_555
C2 C1 1_555 1_555
H6 C2 1_555 1_555
H7 C2 1_555 1_555
C3 C2 1_555 1_555
H8 C3 1_555 1_555
H9 C3 1_555 1_555
C4 N1 1_555 1_555
H10 C4 1_555 1_555
H11 C4 1_555 1_555
P3 O8 1_555 1_555
P4 O11 1_555 1_555
O8 H12 1_555 1_555
O9 P3 1_555 1_555
O10 P3 1_555 1_555
O12 P4 1_555 1_555
O13 P4 1_555 1_555
O14 H13 1_555 1_555
N2 H14 1_555 1_555
H15 N2 1_555 1_555
H16 N2 1_555 1_555
C5 P3 1_555 1_555
C6 C5 1_555 1_555
H17 C6 1_555 1_555
H18 C6 1_555 1_555
C7 C6 1_555 1_555
H19 C7 1_555 1_555
H20 C7 1_555 1_555
C8 N2 1_555 1_555
H21 C8 1_555 1_555
H22 C8 1_555 1_555
O15 H23 1_555 1_555
H24 O15 1_555 1_555
O16 H25 1_555 1_555
H26 O16 1_555 1_555
O17 H27 1_555 1_555
H28 O17 1_555 1_555
O18 H29 1_555 1_555
H30 O18 1_555 1_555
O19 H31 1_555 1_555
H32 O19 1_555 1_555
O20 H33 1_555 1_555
H34 O20 1_555 1_555
O21 H35 1_555 1_555
H36 O21 1_555 1_555
O22 H37 1_555 1_555
H38 O22 1_555 1_555
O23 H39 1_555 1_555
H40 O23 1_555 1_555
O24 H41 1_555 1_555
H42 O24 1_555 1_555
O25 H43 1_555 1_555
H44 O25 1_555 1_555
P2 C1 1_555 1_555
O7 C1 1_555 1_555
C3 C4 1_555 1_555
P4 C5 1_555 1_555
O14 C5 1_555 1_555
C7 C8 1_555 1_555

#END
