
#######################################################################
#
#                 Cambridge Crystallographic Data Centre
#                                CCDC 
#
#######################################################################
#
# If this CIF has been generated from an entry in the Cambridge 
# Structural Database, then it will include bibliographic, chemical, 
# crystal, experimental, refinement or atomic coordinate data resulting 
# from the CCDC's data processing and validation procedures.
#
#######################################################################

data_PUQLUK
_chemical_formula_moiety         'C39 H27 N1 O1'
_chemical_name_systematic        
4-(10-(4-(diphenylamino)phenyl)-9-anthryl)benzaldehyde
_symmetry_cell_setting           triclinic
_symmetry_space_group_name_H-M   'P -1'
_symmetry_Int_Tables_number      2
_space_group_name_Hall           '-P 1'
loop_
_symmetry_equiv_pos_site_id
_symmetry_equiv_pos_as_xyz
1 x,y,z
2 -x,-y,-z
_cell_length_a                   7.7432(15)
_cell_length_b                   9.5790(19)
_cell_length_c                   21.157(4)
_cell_angle_alpha                95.62(3)
_cell_angle_beta                 99.49(3)
_cell_angle_gamma                108.71(3)
_cell_volume                     1446.76
_exptl_crystal_colour            yellow
_exptl_crystal_description       block
_cell_formula_units_Z            2
_chemical_properties_physical    Photo-sensitive
_exptl_crystal_recrystallization_method sublimation
_exptl_crystal_preparation       Luminescent
loop_
_atom_site_label
_atom_site_type_symbol
_atom_site_fract_x
_atom_site_fract_y
_atom_site_fract_z
C1 C 0.3296(3) 0.4296(2) 0.09182(10)
C2 C 0.2783(3) 0.2988(2) 0.11773(12)
H1 H 0.3490 0.2910 0.1564
C3 C 0.1206(3) 0.1789(2) 0.08584(15)
H2 H 0.0872 0.0907 0.1030
C4 C 0.0137(3) 0.1907(3) 0.02871(15)
H3 H -0.0905 0.1101 0.0071
C5 C 0.0621(3) 0.3210(3) 0.00431(13)
H4 H -0.0112 0.3298 -0.0336
C6 C 0.2173(3) 0.4391(3) 0.03488(11)
H5 H 0.2483 0.5271 0.0174
C7 C 0.4841(3) 0.6994(2) 0.12092(10)
C8 C 0.3460(3) 0.7396(3) 0.14204(11)
H6 H 0.2557 0.6710 0.1581
C9 C 0.3405(4) 0.8811(3) 0.13955(15)
H7 H 0.2455 0.9066 0.1537
C10 C 0.4690(5) 0.9822(3) 0.11724(18)
H8 H 0.4636 1.0775 0.1159
C11 C 0.6064(4) 0.9456(3) 0.09663(19)
H9 H 0.6965 1.0163 0.0813
C12 C 0.6152(3) 0.8027(3) 0.09800(15)
H10 H 0.7101 0.7781 0.0833
C13 C 0.6456(2) 0.53135(19) 0.15994(9)
C14 C 0.7089(2) 0.5935(2) 0.22468(9)
H11 H 0.6513 0.6532 0.2437
C15 C 0.8577(2) 0.56767(19) 0.26154(9)
H12 H 0.8978 0.6093 0.3053
C16 C 0.9480(2) 0.48045(18) 0.23411(8)
C17 C 0.8856(2) 0.4217(2) 0.16849(9)
H13 H 0.9454 0.3647 0.1489
C18 C 0.7362(3) 0.4464(2) 0.13190(9)
H14 H 0.6962 0.4056 0.0881
C19 C 1.1006(2) 0.44400(19) 0.27510(9)
C20 C 1.2678(2) 0.5581(2) 0.30751(9)
C21 C 1.3047(3) 0.7118(2) 0.30208(10)
H15 H 1.2144 0.7387 0.2765
C22 C 1.4666(3) 0.8200(2) 0.33289(11)
H16 H 1.4855 0.9191 0.3283
C23 C 1.6068(3) 0.7830(2) 0.37189(11)
H17 H 1.7179 0.8576 0.3929
C24 C 1.5794(2) 0.6388(2) 0.37870(10)
H18 H 1.6729 0.6161 0.4046
C25 C 1.4116(2) 0.5207(2) 0.34732(9)
C26 C 1.3836(2) 0.3713(2) 0.35399(9)
C27 C 1.2163(2) 0.2576(2) 0.32230(9)
C28 C 1.1811(3) 0.1047(2) 0.33004(12)
H19 H 1.2723 0.0797 0.3560
C29 C 1.0193(3) -0.0039(2) 0.30073(13)
H20 H 1.0005 -0.1022 0.3066
C30 C 0.8784(3) 0.0310(2) 0.26110(12)
H21 H 0.7673 -0.0445 0.2409
C31 C 0.9046(3) 0.1745(2) 0.25234(10)
H22 H 0.8098 0.1954 0.2263
C32 C 1.0732(2) 0.2942(2) 0.28189(9)
C33 C 1.5312(2) 0.3310(2) 0.39559(10)
C34 C 1.5293(4) 0.3191(4) 0.45960(12)
H23 H 1.4371 0.3397 0.4779
C35 C 1.6612(4) 0.2774(4) 0.49731(13)
H24 H 1.6570 0.2702 0.5406
C36 C 1.7983(3) 0.2463(3) 0.47167(12)
C37 C 1.8017(3) 0.2570(3) 0.40812(12)
H25 H 1.8935 0.2351 0.3900
C38 C 1.6695(3) 0.3003(3) 0.37010(11)
H26 H 1.6748 0.3085 0.3270
N1 N 0.4875(2) 0.55313(17) 0.12237(9)
C39 C 1.9388(4) 0.1976(4) 0.51075(17)
H27 H 2.0241 0.1736 0.4895
O1 O 1.9529(4) 0.1864(5) 0.56566(17)
C40? C 1.9388(4) 0.1976(4) 0.51075(17)
H28? H 1.9260 0.1911 0.5534
O2? O 2.0564(15) 0.1675(16) 0.4978(6)
loop_
_geom_bond_atom_site_label_1
_geom_bond_atom_site_label_2
_geom_bond_site_symmetry_1
_geom_bond_site_symmetry_2
C1 C2 1_555 1_555
C2 H1 1_555 1_555
C3 C2 1_555 1_555
H2 C3 1_555 1_555
C4 C3 1_555 1_555
H3 C4 1_555 1_555
C5 C4 1_555 1_555
H4 C5 1_555 1_555
C6 C1 1_555 1_555
H5 C6 1_555 1_555
C7 C8 1_555 1_555
C8 H6 1_555 1_555
C9 C8 1_555 1_555
H7 C9 1_555 1_555
C10 C9 1_555 1_555
H8 C10 1_555 1_555
C11 C10 1_555 1_555
H9 C11 1_555 1_555
C12 C7 1_555 1_555
H10 C12 1_555 1_555
C13 C14 1_555 1_555
C14 H11 1_555 1_555
C15 C14 1_555 1_555
H12 C15 1_555 1_555
C16 C15 1_555 1_555
C17 C16 1_555 1_555
H13 C17 1_555 1_555
C18 C13 1_555 1_555
H14 C18 1_555 1_555
C19 C16 1_555 1_555
C20 C19 1_555 1_555
C21 C20 1_555 1_555
H15 C21 1_555 1_555
C22 C21 1_555 1_555
H16 C22 1_555 1_555
C23 C22 1_555 1_555
H17 C23 1_555 1_555
C24 C23 1_555 1_555
H18 C24 1_555 1_555
C25 C20 1_555 1_555
C26 C25 1_555 1_555
C27 C26 1_555 1_555
C28 C27 1_555 1_555
H19 C28 1_555 1_555
C29 C28 1_555 1_555
H20 C29 1_555 1_555
C30 C29 1_555 1_555
H21 C30 1_555 1_555
C31 C30 1_555 1_555
H22 C31 1_555 1_555
C32 C19 1_555 1_555
C33 C26 1_555 1_555
C34 C33 1_555 1_555
H23 C34 1_555 1_555
C35 C34 1_555 1_555
H24 C35 1_555 1_555
C36 C35 1_555 1_555
C37 C36 1_555 1_555
H25 C37 1_555 1_555
C38 C33 1_555 1_555
H26 C38 1_555 1_555
N1 C1 1_555 1_555
C39 C36 1_555 1_555
H27 C39 1_555 1_555
O1 C39 1_555 1_555
C5 C6 1_555 1_555
C7 N1 1_555 1_555
C11 C12 1_555 1_555
C13 N1 1_555 1_555
C17 C18 1_555 1_555
C24 C25 1_555 1_555
C27 C32 1_555 1_555
C31 C32 1_555 1_555
C37 C38 1_555 1_555

#END
