
#######################################################################
#
#                 Cambridge Crystallographic Data Centre
#                                CCDC 
#
#######################################################################
#
# If this CIF has been generated from an entry in the Cambridge 
# Structural Database, then it will include bibliographic, chemical, 
# crystal, experimental, refinement or atomic coordinate data resulting 
# from the CCDC's data processing and validation procedures.
#
#######################################################################

data_PUQLOE
_chemical_formula_moiety         'C42 H27 N3'
_chemical_name_systematic        
(4-(10-(4-(diphenylamino)phenyl)-9-anthryl)benzylidene)malononitrile
_symmetry_cell_setting           monoclinic
_symmetry_space_group_name_H-M   'P 21/c'
_symmetry_Int_Tables_number      14
_space_group_name_Hall           '-P 2ybc'
loop_
_symmetry_equiv_pos_site_id
_symmetry_equiv_pos_as_xyz
1 x,y,z
2 -x,1/2+y,1/2-z
3 -x,-y,-z
4 x,1/2-y,1/2+z
_cell_length_a                   34.719(7)
_cell_length_b                   7.6271(15)
_cell_length_c                   11.943(2)
_cell_angle_alpha                90
_cell_angle_beta                 97.05(3)
_cell_angle_gamma                90
_cell_volume                     3138.66
_exptl_crystal_colour            yellow
_exptl_crystal_description       block
_cell_formula_units_Z            4
_chemical_properties_physical    Photo-sensitive
_exptl_crystal_preparation       Luminescent
loop_
_atom_site_label
_atom_site_type_symbol
_atom_site_fract_x
_atom_site_fract_y
_atom_site_fract_z
C1 C 0.45551(4) 1.57385(19) 0.37062(13)
C2 C 0.25919(3) 0.89852(16) 0.39290(11)
C3 C 0.14858(3) 0.65015(16) 0.40410(11)
C4 C 0.22178(3) 0.80449(17) 0.40149(11)
C5 C 0.10871(3) 0.42555(16) 0.47885(11)
C6 C 0.25996(4) 1.02353(18) 0.30699(12)
C7 C 0.36070(4) 1.22434(18) 0.38201(12)
C8 C 0.29199(4) 0.87178(16) 0.47207(11)
C9 C 0.32629(3) 0.97680(17) 0.46674(11)
C10 C 0.29383(4) 1.13092(18) 0.30296(12)
C11 C 0.32632(4) 1.10576(18) 0.38337(11)
C12 C 0.07741(3) 0.67337(16) 0.37458(10)
C13 C 0.42284(4) 1.45540(18) 0.37742(11)
C14 C 0.47246(4) 1.67924(19) 0.45197(13)
C15 C 0.35889(4) 0.9491(2) 0.55027(13)
C16 C 0.17843(4) 0.55835(19) 0.36573(14)
C17 C 0.29231(4) 0.7499(2) 0.56285(14)
C18 C 0.35766(5) 0.8312(2) 0.63399(15)
C19 C 0.10189(5) 0.1498(2) 0.62617(15)
C20 C 0.38967(4) 1.1890(2) 0.31580(14)
C21 C 0.12750(4) 0.4312(2) 0.58800(12)
C22 C 0.22792(4) 1.0488(2) 0.22131(14)
C23 C 0.04542(4) 0.66102(19) 0.43291(13)
C24 C 0.39364(4) 1.4902(2) 0.44371(15)
C25 C 0.08304(5) 0.14312(19) 0.51828(15)
C26 C 0.08633(4) 0.28037(18) 0.44368(13)
C27 C 0.36296(4) 1.3756(2) 0.44566(15)
C28 C 0.21476(4) 0.63480(19) 0.36448(14)
C29 C 0.42019(4) 1.3048(2) 0.31228(13)
C30 C 0.46334(4) 1.6772(2) 0.56577(15)
C31 C 0.32378(5) 0.7312(2) 0.64081(16)
C32 C 0.19168(4) 0.8939(2) 0.44189(16)
C33 C 0.01160(5) 0.8796(2) 0.31469(17)
C34 C 0.50422(4) 1.7916(2) 0.43157(14)
C35 C 0.07574(5) 0.7896(2) 0.28449(12)
C36 C 0.29318(5) 1.2576(2) 0.21523(15)
C37 C 0.22895(5) 1.1687(3) 0.13861(18)
C38 C 0.12397(5) 0.2933(2) 0.66109(15)
C39 C 0.15557(4) 0.8183(2) 0.44383(16)
C40 C 0.01290(4) 0.7637(2) 0.40238(17)
C41 C 0.04331(6) 0.8923(2) 0.25608(15)
C42 C 0.26204(6) 1.2754(3) 0.13615(19)
H1 H 0.2694(5) 0.683(2) 0.5640(13)
H2 H 0.3819(4) 1.017(2) 0.5461(12)
H3 H 0.0460(5) 0.581(2) 0.4940(14)
H4 H 0.3796(5) 0.815(2) 0.6958(15)
H5 H 0.2051(5) 0.976(2) 0.2240(14)
H6 H 0.1732(5) 0.440(2) 0.3397(13)
H7 H 0.0680(5) 0.046(2) 0.4939(14)
H8 H 0.1430(5) 0.540(2) 0.6117(14)
H9 H 0.0988(5) 0.795(2) 0.2427(15)
H10 H 0.2351(5) 0.569(2) 0.3318(14)
H11 H 0.3228(5) 0.654(3) 0.7031(16)
H12 H 0.3415(5) 1.403(2) 0.4887(15)
H13 H 0.4401(5) 1.284(2) 0.2606(16)
H14 H 0.1355(5) 0.884(2) 0.4755(15)
H15 H 0.3157(5) 1.334(3) 0.2133(15)
H16 H 0.3938(5) 1.597(2) 0.4904(15)
H17 H 0.1959(6) 1.012(3) 0.4684(16)
H18 H -0.0098(6) 0.955(3) 0.2949(16)
H19 H 0.3885(5) 1.083(3) 0.2680(16)
H20 H 0.2634(6) 1.356(3) 0.080(2)
H21 H 0.0728(5) 0.282(2) 0.3678(15)
H22 H 0.4670(5) 1.573(2) 0.2991(14)
H23 H 0.0989(5) 0.056(3) 0.6753(16)
H24 H -0.0092(6) 0.751(3) 0.4463(16)
H25 H 0.0438(6) 0.974(3) 0.1963(18)
H26 H 0.1375(6) 0.300(3) 0.7402(18)
H27 H 0.2067(6) 1.184(3) 0.0790(18)
N1 N 0.11111(3) 0.56969(14) 0.40350(9)
N2 N 0.52961(5) 1.8790(2) 0.41609(15)
N3 N 0.45738(5) 1.6685(2) 0.65753(14)
loop_
_geom_bond_atom_site_label_1
_geom_bond_atom_site_label_2
_geom_bond_site_symmetry_1
_geom_bond_site_symmetry_2
C1 C13 1_555 1_555
C2 C4 1_555 1_555
C3 C16 1_555 1_555
C4 C28 1_555 1_555
C5 C21 1_555 1_555
C6 C2 1_555 1_555
C7 C11 1_555 1_555
C8 C2 1_555 1_555
C9 C8 1_555 1_555
C10 C6 1_555 1_555
C11 C9 1_555 1_555
C12 C23 1_555 1_555
C13 C24 1_555 1_555
C14 C1 1_555 1_555
C15 C9 1_555 1_555
C16 C28 1_555 1_555
C17 C8 1_555 1_555
C18 C15 1_555 1_555
C19 C25 1_555 1_555
C20 C7 1_555 1_555
C21 C38 1_555 1_555
C22 C6 1_555 1_555
C23 C40 1_555 1_555
C24 C27 1_555 1_555
C25 C26 1_555 1_555
C26 C5 1_555 1_555
C27 C7 1_555 1_555
C28 H10 1_555 1_555
C29 C13 1_555 1_555
C30 C14 1_555 1_555
C31 C17 1_555 1_555
C32 C4 1_555 1_555
C33 C40 1_555 1_555
C34 C14 1_555 1_555
C35 C12 1_555 1_555
C36 C10 1_555 1_555
C37 C22 1_555 1_555
C38 C19 1_555 1_555
C39 C3 1_555 1_555
C40 H24 1_555 1_555
C41 C33 1_555 1_555
C42 C36 1_555 1_555
H1 C17 1_555 1_555
H2 C15 1_555 1_555
H3 C23 1_555 1_555
H4 C18 1_555 1_555
H5 C22 1_555 1_555
H6 C16 1_555 1_555
H7 C25 1_555 1_555
H8 C21 1_555 1_555
H9 C35 1_555 1_555
H11 C31 1_555 1_555
H12 C27 1_555 1_555
H13 C29 1_555 1_555
H14 C39 1_555 1_555
H15 C36 1_555 1_555
H16 C24 1_555 1_555
H17 C32 1_555 1_555
H18 C33 1_555 1_555
H19 C20 1_555 1_555
H20 C42 1_555 1_555
H21 C26 1_555 1_555
H22 C1 1_555 1_555
H23 C19 1_555 1_555
H25 C41 1_555 1_555
H26 C38 1_555 1_555
H27 C37 1_555 1_555
N1 C3 1_555 1_555
N2 C34 1_555 1_555
N3 C30 1_555 1_555
C5 N1 1_555 1_555
C10 C11 1_555 1_555
C12 N1 1_555 1_555
C18 C31 1_555 1_555
C20 C29 1_555 1_555
C32 C39 1_555 1_555
C35 C41 1_555 1_555
C37 C42 1_555 1_555

#END
