
#######################################################################
#
#                 Cambridge Crystallographic Data Centre
#                                CCDC 
#
#######################################################################
#
# If this CIF has been generated from an entry in the Cambridge 
# Structural Database, then it will include bibliographic, chemical, 
# crystal, experimental, refinement or atomic coordinate data resulting 
# from the CCDC's data processing and validation procedures.
#
#######################################################################

data_PUQROJ
_chemical_name_common            'Andrographiside monohydrate'
_chemical_formula_moiety         'C26 H40 O10,H2 O1'
_chemical_name_systematic        
'4-Hydroxy-3-(2-(6-hydroxy-5,8a-dimethyl-2-methylene-5-(((3,4,5-trihydroxy-6-(hydroxymethyl)tetrahydro-2H-pyran-2-yl)oxy)methyl)decahydronaphthalen-1-yl)ethylidene)dihydrofuran-2(3H)-one monohydrate'
_symmetry_cell_setting           monoclinic
_symmetry_space_group_name_H-M   'P 21'
_symmetry_Int_Tables_number      4
_space_group_name_Hall           'P 2yb'
loop_
_symmetry_equiv_pos_site_id
_symmetry_equiv_pos_as_xyz
1 x,y,z
2 -x,1/2+y,-z
_cell_length_a                   6.543(2)
_cell_length_b                   7.624(2)
_cell_length_c                   26.738(3)
_cell_angle_alpha                90
_cell_angle_beta                 95.74(2)
_cell_angle_gamma                90
_cell_volume                     1327.11
_cell_formula_units_Z            2
loop_
_atom_site_label
_atom_site_type_symbol
_atom_site_fract_x
_atom_site_fract_y
_atom_site_fract_z
O1 O 0.6417(9) 0.4271(7) 0.8750(2)
O2 O 0.4200(10) 0.0296(9) 0.9246(2)
H1 H 0.3825 0.0406 0.9528
O3 O 0.8658(9) 0.4736(10) 1.0086(2)
H2 H 0.7892 0.4458 1.0297
O4 O 0.7509(10) 0.1044(9) 1.0027(2)
H3 H 0.8295 0.0442 0.9879
O5 O 0.4379(9) 0.2234(8) 0.8325(2)
O6 O 0.3132(11) -0.0302(9) 0.7632(3)
H4 H 0.3912 0.0251 0.7834
O7 O 1.0330(10) 0.6175(9) 0.9044(2)
H5 H 1.0700 0.6650 0.8793
O9 O -0.7998(10) 0.6749(11) 0.5260(3)
O10 O -0.1940(13) 0.7649(11) 0.4829(3)
H6 H -0.1885 0.7957 0.4536
O11 O -0.6648(10) 0.6380(11) 0.4529(3)
C1 C 0.1183(14) 0.2456(14) 0.7723(3)
C2 C 0.1657(14) 0.0864(14) 0.7383(3)
H7 H 0.0375 0.0195 0.7329
C3 C -0.0233(13) 0.3724(13) 0.7406(3)
H8 H -0.1547 0.3099 0.7359
C4 C 0.6583(14) 0.2359(13) 0.9690(3)
H9 H 0.5404 0.2826 0.9847
C5 C 0.4859(15) 0.2988(13) 0.8806(4)
H10 H 0.3641 0.3536 0.8924
C6 C 0.0206(14) 0.4210(14) 0.6867(4)
C7 C -0.1803(14) 0.5098(14) 0.6597(3)
H11 H -0.2901 0.4248 0.6635
C8 C 0.7986(14) 0.3900(13) 0.9616(3)
H12 H 0.9208 0.3439 0.9478
C9 C 0.8293(14) 0.6723(13) 0.9114(4)
H13 H 0.7703 0.7318 0.8813
H14 H 0.8345 0.7552 0.9390
C10 C 0.5721(14) 0.1576(13) 0.9174(3)
H15 H 0.6853 0.0990 0.9027
C11 C -0.2377(14) 0.6665(16) 0.6881(4)
C12 C 0.3182(15) 0.3302(13) 0.7953(4)
H16 H 0.4025 0.3572 0.7685
H17 H 0.2851 0.4401 0.8109
C13 C 0.0593(14) 0.2496(15) 0.6560(3)
H18 H -0.0681 0.1847 0.6494
H19 H 0.1070 0.2810 0.6240
C14 C -0.3950(16) 0.5752(15) 0.5761(4)
H20 H -0.5032 0.5761 0.5962
C15 C 0.0105(12) 0.1742(13) 0.8187(3)
H21 H 0.1003 0.0928 0.8374
H22 H -0.1152 0.1160 0.8068
H23 H -0.0189 0.2704 0.8400
C16 C 0.6926(14) 0.5191(12) 0.9225(3)
H24 H 0.5663 0.5638 0.9347
C17 C 0.1964(12) 0.5519(15) 0.6821(3)
H25 H 0.1677 0.6592 0.6988
H26 H 0.2086 0.5753 0.6472
H27 H 0.3228 0.5029 0.6973
C18 C -0.2549(13) 0.6371(16) 0.7429(3)
H28 H -0.3794 0.5711 0.7464
H29 H -0.2684 0.7500 0.7590
C19 C -0.0728(14) 0.5391(14) 0.7705(3)
H30 H -0.1058 0.5059 0.8038
H31 H 0.0465 0.6153 0.7743
C20 C 0.2223(14) 0.1335(16) 0.6863(3)
H32 H 0.2402 0.0264 0.6677
H33 H 0.3526 0.1952 0.6897
C21 C -0.4391(15) 0.6084(15) 0.5278(4)
C22 C -0.1819(14) 0.5358(15) 0.6016(3)
H34 H -0.0904 0.6316 0.5952
H35 H -0.1299 0.4303 0.5870
C23 C -0.2628(15) 0.8259(16) 0.6662(4)
H36 H -0.2441 0.8396 0.6324
H37 H -0.2988 0.9218 0.6850
C24 C -0.3074(15) 0.6084(16) 0.4838(4)
H38 H -0.2155 0.5066 0.4857
C25 C -0.4647(16) 0.5962(18) 0.4370(4)
H39 H -0.4299 0.6784 0.4115
H40 H -0.4654 0.4788 0.4230
C26 C -0.6501(17) 0.6386(15) 0.5040(5)
O8 O 0.3322(10) 0.7815(9) 0.8546(2)
H41 H 0.3483 0.8399 0.8807
H42 H 0.3003 0.8285 0.8269
loop_
_geom_bond_atom_site_label_1
_geom_bond_atom_site_label_2
_geom_bond_site_symmetry_1
_geom_bond_site_symmetry_2
O1 C5 1_555 1_555
O2 H1 1_555 1_555
O3 H2 1_555 1_555
O4 H3 1_555 1_555
O5 C5 1_555 1_555
O6 H4 1_555 1_555
O7 H5 1_555 1_555
O8 H41 1_555 1_555
O9 C26 1_555 1_555
O10 H6 1_555 1_555
O11 C25 1_555 1_555
C1 C2 1_555 1_555
C2 O6 1_555 1_555
H7 C2 1_555 1_555
C3 C1 1_555 1_555
H8 C3 1_555 1_555
C4 O4 1_555 1_555
H9 C4 1_555 1_555
C5 H10 1_555 1_555
C6 C3 1_555 1_555
C7 C6 1_555 1_555
H11 C7 1_555 1_555
C8 O3 1_555 1_555
H12 C8 1_555 1_555
C9 O7 1_555 1_555
H13 C9 1_555 1_555
H14 C9 1_555 1_555
C10 O2 1_555 1_555
H15 C10 1_555 1_555
C11 C7 1_555 1_555
C12 O5 1_555 1_555
H16 C12 1_555 1_555
H17 C12 1_555 1_555
C13 C6 1_555 1_555
H18 C13 1_555 1_555
H19 C13 1_555 1_555
C14 H20 1_555 1_555
C15 C1 1_555 1_555
H21 C15 1_555 1_555
H22 C15 1_555 1_555
H23 C15 1_555 1_555
C16 O1 1_555 1_555
H24 C16 1_555 1_555
C17 C6 1_555 1_555
H25 C17 1_555 1_555
H26 C17 1_555 1_555
H27 C17 1_555 1_555
C18 C11 1_555 1_555
H28 C18 1_555 1_555
H29 C18 1_555 1_555
C19 C3 1_555 1_555
H30 C19 1_555 1_555
H31 C19 1_555 1_555
C20 C2 1_555 1_555
H32 C20 1_555 1_555
H33 C20 1_555 1_555
C21 C14 1_555 1_555
C22 C7 1_555 1_555
H34 C22 1_555 1_555
H35 C22 1_555 1_555
C23 C11 1_555 1_555
H36 C23 1_555 1_555
H37 C23 1_555 1_555
C24 O10 1_555 1_555
H38 C24 1_555 1_555
C25 C24 1_555 1_555
H39 C25 1_555 1_555
H40 C25 1_555 1_555
C26 O11 1_555 1_555
H42 O8 1_555 1_555
C1 C12 1_555 1_555
C4 C8 1_555 1_555
C4 C10 1_555 1_555
C5 C10 1_555 1_555
C8 C16 1_555 1_555
C9 C16 1_555 1_555
C13 C20 1_555 1_555
C14 C22 1_555 1_555
C18 C19 1_555 1_555
C21 C24 1_555 1_555
C21 C26 1_555 1_555

#END
