
#######################################################################
#
#                 Cambridge Crystallographic Data Centre
#                                CCDC 
#
#######################################################################
#
# If this CIF has been generated from an entry in the Cambridge 
# Structural Database, then it will include bibliographic, chemical, 
# crystal, experimental, refinement or atomic coordinate data resulting 
# from the CCDC's data processing and validation procedures.
#
#######################################################################

data_PUQSIF
_chemical_formula_moiety         'C24 H18 Cl2 F6 N2 O1'
_chemical_name_systematic        
4-(3-(2,3-dichlorophenyl)hexahydro[1,3]oxazolo[3,4-a]pyridin-1-yl)-2,8-bis(trifluoromethyl)quinoline
_symmetry_cell_setting           triclinic
_symmetry_space_group_name_H-M   'P -1'
_symmetry_Int_Tables_number      2
_space_group_name_Hall           '-P 1'
loop_
_symmetry_equiv_pos_site_id
_symmetry_equiv_pos_as_xyz
1 x,y,z
2 -x,-y,-z
_cell_length_a                   10.62840(10)
_cell_length_b                   15.4140(3)
_cell_length_c                   15.7174(3)
_cell_angle_alpha                116.8780(10)
_cell_angle_beta                 95.3190(10)
_cell_angle_gamma                92.1880(10)
_cell_volume                     2277.55
_exptl_crystal_colour            colorless
_cell_formula_units_Z            4
loop_
_atom_site_label
_atom_site_type_symbol
_atom_site_fract_x
_atom_site_fract_y
_atom_site_fract_z
Cl1 Cl 0.03314(5) 1.12297(3) 0.24605(4)
Cl2 Cl 0.10306(5) 1.18469(4) 0.08957(4)
F1 F 0.89545(11) 0.85184(9) 0.50157(9)
F2 F 0.84842(11) 0.78528(9) 0.34801(9)
F3 F 0.87510(10) 0.94252(9) 0.43117(9)
O1 O 0.20036(12) 0.97912(9) 0.30226(9)
F4 F 0.67852(18) 1.00942(11) 0.20077(12)
N1 N 0.12877(13) 0.82314(10) 0.19261(10)
F5 F 0.53729(15) 0.90825(18) 0.09760(12)
N2 N 0.64783(14) 0.89108(11) 0.30572(11)
F6 F 0.70875(17) 0.85937(13) 0.13094(12)
C1 C 0.43635(17) 0.91643(13) 0.25552(13)
H1 H 0.3849 0.9302 0.2128
C2 C 0.68675(17) 0.86239(13) 0.44265(13)
C3 C 0.06335(17) 0.65002(13) 0.10933(13)
H2 H 0.1325 0.6367 0.0702
H3 H -0.0072 0.6016 0.0724
C4 C 0.02310(16) 0.75120(13) 0.13251(13)
H4 H 0.0019 0.7563 0.0737
H5 H -0.0511 0.7629 0.1664
C5 C 0.60027(16) 0.87959(12) 0.37802(12)
C6 C 0.20682(17) 0.72405(13) 0.26720(13)
H6 H 0.2245 0.7218 0.3278
H7 H 0.2848 0.7162 0.2380
C7 C 0.10588(18) 0.64155(13) 0.20046(14)
H8 H 0.1401 0.5791 0.1832
H9 H 0.0331 0.6438 0.2342
C8 C 0.24710(16) 0.91561(13) 0.33995(13)
H10 H 0.2374 0.9438 0.4085
C9 C 0.13537(16) 0.95302(13) 0.14154(13)
C10 C 0.64403(18) 0.84757(13) 0.51493(14)
H11 H 0.7011 0.8365 0.5568
C11 C 0.15839(16) 0.82139(13) 0.28459(12)
H12 H 0.0808 0.8289 0.3155
C12 C 0.46940(16) 0.88382(12) 0.39115(12)
C13 C 0.56602(17) 0.90755(13) 0.24763(13)
C14 C 0.19267(17) 0.89098(14) 0.06219(13)
H13 H 0.2141 0.8307 0.0563
C15 C 0.13461(16) 1.07140(13) 0.07969(14)
C16 C 0.42924(17) 0.86750(13) 0.46708(13)
H14 H 0.3441 0.8695 0.4764
C17 C 0.38655(16) 0.90446(12) 0.32743(12)
C18 C 0.10598(16) 1.04414(13) 0.14938(13)
C19 C 0.21807(18) 0.91795(15) -0.00809(14)
H15 H 0.2545 0.8751 -0.0612
C20 C 0.10917(16) 0.92408(12) 0.21872(12)
H16 H 0.0228 0.9373 0.2350
C21 C 0.18949(17) 1.00811(15) 0.00047(14)
H17 H 0.2069 1.0261 -0.0465
C22 C 0.62361(19) 0.92039(16) 0.16906(15)
C23 C 0.51380(18) 0.84901(14) 0.52635(13)
H18 H 0.4854 0.8372 0.5747
C24 C 0.82572(18) 0.86088(14) 0.43074(15)
Cl3 Cl 0.42339(5) 0.67071(4) 0.06088(4)
Cl4 Cl 0.54509(4) 0.64135(3) 0.23549(3)
F7 F -0.25654(10) 0.37267(8) 0.43285(9)
O2 O 0.38154(12) 0.51027(9) 0.31825(9)
F8 F -0.19971(11) 0.22765(8) 0.35621(9)
F9 F -0.16964(11) 0.32109(10) 0.14390(9)
F10 F -0.14474(14) 0.47760(10) 0.21053(9)
F11 F -0.01781(11) 0.39318(10) 0.11334(8)
F12 F -0.21766(12) 0.28734(11) 0.50675(10)
N3 N 0.42806(13) 0.35445(11) 0.22481(11)
N4 N -0.05460(13) 0.37324(10) 0.32360(10)
C25 C 0.02892(18) 0.35277(14) 0.54392(14)
H19 H -0.0108 0.3357 0.5852
C26 C 0.20970(16) 0.42952(12) 0.35505(12)
C27 C 0.40298(16) 0.46626(13) 0.15275(13)
C28 C 0.15166(16) 0.40495(12) 0.42048(12)
C29 C 0.13344(16) 0.42754(13) 0.27860(12)
H20 H 0.1673 0.4449 0.2354
C30 C 0.37816(17) 0.26708(14) 0.31489(14)
H21 H 0.2910 0.2504 0.2846
H22 H 0.3802 0.2722 0.3788
C31 C 0.47348(18) 0.18499(14) 0.15821(14)
H23 H 0.5338 0.1391 0.1256
H24 H 0.3921 0.1629 0.1184
C32 C 0.43853(16) 0.55129(13) 0.14636(13)
C33 C 0.00306(16) 0.39878(12) 0.26681(12)
C34 C 0.35191(16) 0.45403(13) 0.36717(13)
H25 H 0.3830 0.4916 0.4357
C35 C 0.38791(17) 0.56352(13) 0.06767(14)
C36 C 0.01917(16) 0.37613(12) 0.40081(12)
C37 C 0.32035(16) 0.39373(13) 0.07837(13)
H26 H 0.2954 0.3372 0.0822
C38 C -0.04021(17) 0.34853(13) 0.46413(13)
C39 C 0.15978(18) 0.38273(14) 0.56428(13)
H27 H 0.2055 0.3859 0.6192
C40 C 0.30698(17) 0.49017(15) -0.00649(14)
H28 H 0.2746 0.4982 -0.0593
C41 C -0.08269(17) 0.39705(14) 0.18364(13)
C42 C 0.27492(17) 0.40510(14) -0.00133(14)
H29 H 0.2225 0.3551 -0.0517
C43 C 0.46099(18) 0.18699(15) 0.25543(15)
H30 H 0.5446 0.1986 0.2910
H31 H 0.4236 0.1240 0.2449
C44 C 0.22001(17) 0.40714(13) 0.50407(13)
H32 H 0.3068 0.4254 0.5177
C45 C 0.42764(16) 0.36399(13) 0.32169(13)
H33 H 0.5148 0.3809 0.3542
C46 C -0.17745(18) 0.30933(14) 0.43950(14)
C47 C 0.51778(17) 0.28575(14) 0.17133(14)
H34 H 0.6023 0.3061 0.2066
H35 H 0.5206 0.2843 0.1092
C48 C 0.45183(16) 0.45332(13) 0.23967(13)
H36 H 0.5427 0.4745 0.2578
loop_
_geom_bond_atom_site_label_1
_geom_bond_atom_site_label_2
_geom_bond_site_symmetry_1
_geom_bond_site_symmetry_2
Cl1 C18 1_555 1_555
Cl2 C15 1_555 1_555
F1 C24 1_555 1_555
F2 C24 1_555 1_555
F3 C24 1_555 1_555
O1 C8 1_555 1_555
F4 C22 1_555 1_555
N1 C4 1_555 1_555
F5 C22 1_555 1_555
N2 C5 1_555 1_555
F6 C22 1_555 1_555
C1 H1 1_555 1_555
C2 C5 1_555 1_555
C3 H2 1_555 1_555
H3 C3 1_555 1_555
C4 C3 1_555 1_555
H4 C4 1_555 1_555
H5 C4 1_555 1_555
C5 C12 1_555 1_555
C6 H6 1_555 1_555
H7 C6 1_555 1_555
C7 C3 1_555 1_555
H8 C7 1_555 1_555
H9 C7 1_555 1_555
C8 H10 1_555 1_555
C9 C14 1_555 1_555
C10 C2 1_555 1_555
H11 C10 1_555 1_555
C11 N1 1_555 1_555
H12 C11 1_555 1_555
C12 C16 1_555 1_555
C13 N2 1_555 1_555
C14 H13 1_555 1_555
C15 C18 1_555 1_555
C16 H14 1_555 1_555
C17 C1 1_555 1_555
C18 C9 1_555 1_555
C19 C14 1_555 1_555
H15 C19 1_555 1_555
C20 O1 1_555 1_555
H16 C20 1_555 1_555
C21 C15 1_555 1_555
H17 C21 1_555 1_555
C22 C13 1_555 1_555
C23 C10 1_555 1_555
H18 C23 1_555 1_555
C24 C2 1_555 1_555
Cl3 C35 1_555 1_555
Cl4 C32 1_555 1_555
F7 C46 1_555 1_555
O2 C34 1_555 1_555
F8 C46 1_555 1_555
F9 C41 1_555 1_555
F10 C41 1_555 1_555
F11 C41 1_555 1_555
F12 C46 1_555 1_555
N3 C45 1_555 1_555
N4 C33 1_555 1_555
C25 H19 1_555 1_555
C26 C28 1_555 1_555
C27 C32 1_555 1_555
C28 C36 1_555 1_555
C29 C26 1_555 1_555
H20 C29 1_555 1_555
C30 H21 1_555 1_555
H22 C30 1_555 1_555
C31 H23 1_555 1_555
H24 C31 1_555 1_555
C32 C35 1_555 1_555
C33 C29 1_555 1_555
C34 C26 1_555 1_555
H25 C34 1_555 1_555
C35 C40 1_555 1_555
C36 N4 1_555 1_555
C37 C27 1_555 1_555
H26 C37 1_555 1_555
C38 C25 1_555 1_555
C39 C25 1_555 1_555
H27 C39 1_555 1_555
C40 H28 1_555 1_555
C41 C33 1_555 1_555
C42 C37 1_555 1_555
H29 C42 1_555 1_555
C43 C30 1_555 1_555
H30 C43 1_555 1_555
H31 C43 1_555 1_555
C44 C28 1_555 1_555
H32 C44 1_555 1_555
C45 C30 1_555 1_555
H33 C45 1_555 1_555
C46 C38 1_555 1_555
C47 N3 1_555 1_555
H34 C47 1_555 1_555
H35 C47 1_555 1_555
C48 O2 1_555 1_555
H36 C48 1_555 1_555
N1 C20 1_555 1_555
C1 C13 1_555 1_555
C6 C7 1_555 1_555
C6 C11 1_555 1_555
C8 C11 1_555 1_555
C8 C17 1_555 1_555
C9 C20 1_555 1_555
C12 C17 1_555 1_555
C16 C23 1_555 1_555
C19 C21 1_555 1_555
N3 C48 1_555 1_555
C27 C48 1_555 1_555
C31 C43 1_555 1_555
C31 C47 1_555 1_555
C34 C45 1_555 1_555
C36 C38 1_555 1_555
C39 C44 1_555 1_555
C40 C42 1_555 1_555

#END
