
#######################################################################
#
#                 Cambridge Crystallographic Data Centre
#                                CCDC 
#
#######################################################################
#
# If this CIF has been generated from an entry in the Cambridge 
# Structural Database, then it will include bibliographic, chemical, 
# crystal, experimental, refinement or atomic coordinate data resulting 
# from the CCDC's data processing and validation procedures.
#
#######################################################################

data_PUQSOL
_chemical_formula_moiety         'C24 H18 Cl2 F6 N2 O1'
_chemical_name_systematic        
4-(3-(2,4-dichlorophenyl)hexahydro[1,3]oxazolo[3,4-a]pyridin-1-yl)-2,8-bis(trifluoromethyl)quinoline
_symmetry_cell_setting           triclinic
_symmetry_space_group_name_H-M   'P -1'
_symmetry_Int_Tables_number      2
_space_group_name_Hall           '-P 1'
loop_
_symmetry_equiv_pos_site_id
_symmetry_equiv_pos_as_xyz
1 x,y,z
2 -x,-y,-z
_cell_length_a                   10.2577(2)
_cell_length_b                   10.3880(2)
_cell_length_c                   12.3262(3)
_cell_angle_alpha                84.9990(10)
_cell_angle_beta                 86.4140(10)
_cell_angle_gamma                62.0480(10)
_cell_volume                     1155.45
_exptl_crystal_colour            colorless
_exptl_crystal_description       block
_cell_formula_units_Z            2
loop_
_atom_site_label
_atom_site_type_symbol
_atom_site_fract_x
_atom_site_fract_y
_atom_site_fract_z
Cl1 Cl 0.90209(6) 0.34458(6) 0.02228(5)
Cl2 Cl 1.26621(6) -0.20390(6) 0.16327(5)
F1 F 0.36147(18) 0.31449(17) 0.81398(12)
F2 F 0.2640(2) 0.20481(18) 0.73555(14)
F3 F 0.12570(19) 0.40689(19) 0.80826(14)
N1 N 0.53522(18) 0.25780(19) 0.16082(14)
O1 O 0.63653(16) 0.38184(16) 0.23449(12)
F4 F 0.8514(2) 0.0380(2) 0.5689(2)
F5 F 0.7132(2) -0.02784(19) 0.66014(15)
C1 C 1.0669(2) 0.0683(2) 0.09793(17)
H1 H 1.1462 0.0781 0.0652
F6 F 0.7559(3) -0.0699(2) 0.49282(19)
N2 N 0.4896(2) 0.2265(2) 0.60001(16)
C2 C 1.0876(2) -0.0614(2) 0.15339(17)
C3 C 0.4102(2) 0.3912(2) 0.19783(17)
H2 H 0.3771 0.4650 0.1366
C4 C 0.9710(2) -0.0794(2) 0.20056(19)
H3 H 0.9864 -0.1682 0.2356
C5 C 0.3691(2) 0.4342(2) 0.46749(18)
C6 C 0.4989(2) 0.2068(3) 0.06560(18)
H4 H 0.5849 0.1213 0.0407
H5 H 0.4681 0.2825 0.0068
C7 C 0.8305(2) 0.0379(2) 0.19444(18)
H6 H 0.7514 0.0271 0.2266
C8 C 0.6514(2) 0.2993(2) 0.14241(17)
H7 H 0.6354 0.3610 0.0746
C9 C 0.3748(3) 0.1691(3) 0.0978(2)
H8 H 0.4096 0.0871 0.1517
H9 H 0.3459 0.1403 0.0345
C10 C 0.8042(2) 0.1717(2) 0.14144(17)
C11 C 0.2510(3) 0.4196(3) 0.64375(19)
C12 C 0.2517(3) 0.3371(3) 0.7499(2)
C13 C 0.4910(2) 0.3675(2) 0.39275(17)
C14 C 0.6072(2) 0.2367(2) 0.42606(18)
H10 H 0.6899 0.1913 0.3807
C15 C 0.4890(2) 0.4349(2) 0.27917(17)
H11 H 0.4418 0.5414 0.2806
C16 C 0.2836(2) 0.3601(2) 0.23660(19)
H12 H 0.1994 0.4494 0.2583
H13 H 0.3133 0.2902 0.2993
C17 C 0.3732(2) 0.3582(2) 0.56965(18)
C18 C 0.1324(3) 0.5516(3) 0.6179(2)
H14 H 0.0528 0.5908 0.6668
C19 C 0.9249(2) 0.1830(2) 0.09256(17)
C20 C 0.2444(2) 0.5716(2) 0.4438(2)
H15 H 0.2406 0.6232 0.3775
C21 C 0.1301(3) 0.6283(3) 0.5177(2)
H16 H 0.0498 0.7189 0.5016
C22 C 0.2411(2) 0.2986(2) 0.14444(19)
H17 H 0.1686 0.2679 0.1718
H18 H 0.1963 0.3747 0.0869
C23 C 0.7275(3) 0.0262(3) 0.5633(2)
C24 C 0.5995(2) 0.1724(2) 0.52964(19)
loop_
_geom_bond_atom_site_label_1
_geom_bond_atom_site_label_2
_geom_bond_site_symmetry_1
_geom_bond_site_symmetry_2
Cl1 C19 1_555 1_555
Cl2 C2 1_555 1_555
F1 C12 1_555 1_555
F2 C12 1_555 1_555
F3 C12 1_555 1_555
N1 C3 1_555 1_555
O1 C8 1_555 1_555
F4 C23 1_555 1_555
F5 C23 1_555 1_555
C1 H1 1_555 1_555
F6 C23 1_555 1_555
N2 C17 1_555 1_555
C2 C1 1_555 1_555
C3 H2 1_555 1_555
C4 C2 1_555 1_555
H3 C4 1_555 1_555
C5 C13 1_555 1_555
C6 N1 1_555 1_555
H4 C6 1_555 1_555
H5 C6 1_555 1_555
C7 C4 1_555 1_555
H6 C7 1_555 1_555
C8 N1 1_555 1_555
H7 C8 1_555 1_555
C9 C6 1_555 1_555
H8 C9 1_555 1_555
H9 C9 1_555 1_555
C10 C7 1_555 1_555
C11 C12 1_555 1_555
C13 C14 1_555 1_555
C14 H10 1_555 1_555
C15 O1 1_555 1_555
H11 C15 1_555 1_555
C16 C3 1_555 1_555
H12 C16 1_555 1_555
H13 C16 1_555 1_555
C17 C5 1_555 1_555
C18 C11 1_555 1_555
H14 C18 1_555 1_555
C19 C1 1_555 1_555
C20 C5 1_555 1_555
H15 C20 1_555 1_555
C21 C18 1_555 1_555
H16 C21 1_555 1_555
C22 C9 1_555 1_555
H17 C22 1_555 1_555
H18 C22 1_555 1_555
C23 C24 1_555 1_555
C24 N2 1_555 1_555
C3 C15 1_555 1_555
C8 C10 1_555 1_555
C10 C19 1_555 1_555
C11 C17 1_555 1_555
C13 C15 1_555 1_555
C14 C24 1_555 1_555
C16 C22 1_555 1_555
C20 C21 1_555 1_555

#END
