
#######################################################################
#
#                 Cambridge Crystallographic Data Centre
#                                CCDC 
#
#######################################################################
#
# If this CIF has been generated from an entry in the Cambridge 
# Structural Database, then it will include bibliographic, chemical, 
# crystal, experimental, refinement or atomic coordinate data resulting 
# from the CCDC's data processing and validation procedures.
#
#######################################################################

data_PUQVEE
_chemical_name_common            
'2-(t-butyl(diphenyl)silyl)phenyl sulfurofluoridate'
_chemical_formula_moiety         'C22 H23 F1 O3 S1 Si1'
_chemical_name_systematic        
'2-(t-butyldiphenylsilyl)phenyl sulfofluoridate'
_symmetry_cell_setting           triclinic
_symmetry_space_group_name_H-M   'P -1'
_symmetry_Int_Tables_number      2
_space_group_name_Hall           '-P 1'
loop_
_symmetry_equiv_pos_site_id
_symmetry_equiv_pos_as_xyz
1 x,y,z
2 -x,-y,-z
_cell_length_a                   9.5146(5)
_cell_length_b                   10.4175(8)
_cell_length_c                   22.0011(16)
_cell_angle_alpha                91.882(6)
_cell_angle_beta                 95.119(5)
_cell_angle_gamma                93.892(5)
_cell_volume                     2165.34
_exptl_crystal_colour            'light colorless'
_exptl_crystal_description       block
_chemical_melting_point          '363-365 K'
_cell_formula_units_Z            4
loop_
_atom_site_label
_atom_site_type_symbol
_atom_site_fract_x
_atom_site_fract_y
_atom_site_fract_z
S1 S 0.68382(14) 0.33772(15) 0.27728(6)
Si1 Si 0.37384(10) 0.25309(11) 0.40646(5)
F1 F 0.8135(4) 0.2773(4) 0.26247(18)
O1 O 0.6225(3) 0.2475(3) 0.32427(13)
O2 O 0.7269(4) 0.4595(4) 0.30523(16)
O3 O 0.5856(4) 0.3278(5) 0.22567(15)
C1 C 0.2372(4) 0.3800(5) 0.4986(2)
H1 H 0.2431 0.4501 0.4737
C2 C 0.1756(5) 0.3927(6) 0.5535(2)
H2 H 0.1415 0.4709 0.5646
C3 C 0.1652(5) 0.2920(7) 0.5910(2)
H3 H 0.1236 0.3006 0.6275
C4 C 0.2163(5) 0.1786(7) 0.5745(2)
H4 H 0.2100 0.1096 0.6001
C5 C 0.2778(4) 0.1639(5) 0.5201(2)
H5 H 0.3118 0.0851 0.5099
C6 C 0.2897(4) 0.2654(4) 0.48021(18)
C7 C 0.5715(4) 0.2579(4) 0.42855(18)
C8 C 0.6258(4) 0.2606(5) 0.4895(2)
H6 H 0.5637 0.2685 0.5196
C9 C 0.7683(5) 0.2520(5) 0.5075(2)
H7 H 0.8004 0.2550 0.5488
C10 C 0.8607(5) 0.2392(5) 0.4645(3)
H8 H 0.9559 0.2312 0.4764
C11 C 0.8145(4) 0.2381(5) 0.4032(3)
H9 H 0.8772 0.2285 0.3735
C12 C 0.6741(4) 0.2514(4) 0.3872(2)
C13 C 0.3303(4) 0.3988(4) 0.36344(17)
C14 C 0.1975(5) 0.4116(5) 0.3336(2)
H10 H 0.1301 0.3425 0.3325
C15 C 0.1614(7) 0.5222(7) 0.3055(3)
H11 H 0.0707 0.5277 0.2865
C16 C 0.2595(8) 0.6231(6) 0.3057(3)
H12 H 0.2367 0.6973 0.2857
C17 C 0.3919(7) 0.6168(5) 0.3352(3)
H13 H 0.4584 0.6866 0.3360
C18 C 0.4251(5) 0.5049(5) 0.3638(2)
H14 H 0.5148 0.5013 0.3841
C19 C 0.3109(4) 0.0943(4) 0.3630(2)
C20 C 0.1573(4) 0.0535(5) 0.3742(2)
H15 H 0.1511 0.0428 0.4171
H16 H 0.1282 -0.0264 0.3523
H17 H 0.0968 0.1187 0.3603
C21 C 0.4043(5) -0.0118(5) 0.3844(2)
H18 H 0.4989 0.0081 0.3739
H19 H 0.3678 -0.0924 0.3648
H20 H 0.4049 -0.0178 0.4278
C22 C 0.3159(5) 0.1041(5) 0.2936(2)
H21 H 0.2639 0.1751 0.2797
H22 H 0.2743 0.0258 0.2734
H23 H 0.4124 0.1176 0.2845
S2 S -0.1536(2) 0.9079(2) 0.24001(7)
Si2 Si -0.15405(10) 0.74748(11) 0.05637(5)
F2 F -0.0658(5) 1.0226(5) 0.2278(2)
O4 O -0.2333(3) 0.8578(3) 0.17924(14)
O5 O -0.0862(6) 0.8037(5) 0.2655(2)
O6 O -0.2618(5) 0.9524(6) 0.27652(18)
C23 C 0.0310(4) 0.7699(4) 0.09448(17)
C24 C 0.0933(4) 0.8926(4) 0.11016(18)
H24 H 0.0414 0.9636 0.1021
C25 C 0.2298(4) 0.9120(5) 0.1373(2)
H25 H 0.2686 0.9953 0.1471
C26 C 0.3075(4) 0.8106(6) 0.1497(2)
H26 H 0.3993 0.8238 0.1683
C27 C 0.2499(5) 0.6873(5) 0.1347(2)
H27 H 0.3033 0.6175 0.1432
C28 C 0.1135(4) 0.6663(4) 0.10697(19)
H28 H 0.0765 0.5828 0.0966
C29 C -0.1429(4) 0.7394(4) -0.02860(17)
C30 C -0.2602(4) 0.7073(5) -0.0709(2)
H29 H -0.3488 0.6915 -0.0568
C31 C -0.2474(6) 0.6986(5) -0.1325(2)
H30 H -0.3273 0.6776 -0.1594
C32 C -0.1183(6) 0.7206(5) -0.1549(2)
H31 H -0.1099 0.7128 -0.1966
C33 C -0.0018(5) 0.7544(5) -0.1148(2)
H32 H 0.0860 0.7725 -0.1294
C34 C -0.0151(4) 0.7614(4) -0.05304(18)
H33 H 0.0656 0.7818 -0.0265
C35 C -0.2458(3) 0.8989(4) 0.07347(18)
C36 C -0.2884(4) 0.9796(4) 0.0270(2)
H34 H -0.2694 0.9588 -0.0127
C37 C -0.3580(4) 1.0896(5) 0.0377(3)
H35 H -0.3830 1.1421 0.0057
C38 C -0.3900(4) 1.1210(5) 0.0961(3)
H36 H -0.4388 1.1936 0.1033
C39 C -0.3500(5) 1.0453(5) 0.1436(2)
H37 H -0.3710 1.0648 0.1832
C40 C -0.2780(4) 0.9401(4) 0.1305(2)
C41 C -0.2566(4) 0.5962(4) 0.0804(2)
C42 C -0.2141(6) 0.5607(5) 0.1459(2)
H38 H -0.1133 0.5564 0.1516
H39 H -0.2597 0.4786 0.1535
H40 H -0.2424 0.6250 0.1737
C43 C -0.2298(5) 0.4810(4) 0.0378(2)
H41 H -0.2681 0.4954 -0.0030
H42 H -0.2747 0.4035 0.0518
H43 H -0.1299 0.4725 0.0383
C44 C -0.4165(4) 0.6156(5) 0.0744(3)
H44 H -0.4352 0.6853 0.1014
H45 H -0.4679 0.5382 0.0849
H46 H -0.4460 0.6354 0.0331
loop_
_geom_bond_atom_site_label_1
_geom_bond_atom_site_label_2
_geom_bond_site_symmetry_1
_geom_bond_site_symmetry_2
S1 F1 1_555 1_555
Si1 C6 1_555 1_555
O1 S1 1_555 1_555
O2 S1 1_555 1_555
O3 S1 1_555 1_555
C1 H1 1_555 1_555
C2 C1 1_555 1_555
H2 C2 1_555 1_555
C3 C2 1_555 1_555
H3 C3 1_555 1_555
C4 C3 1_555 1_555
H4 C4 1_555 1_555
C5 C4 1_555 1_555
H5 C5 1_555 1_555
C6 C1 1_555 1_555
C7 Si1 1_555 1_555
C8 C7 1_555 1_555
H6 C8 1_555 1_555
C9 C8 1_555 1_555
H7 C9 1_555 1_555
C10 C9 1_555 1_555
H8 C10 1_555 1_555
C11 C10 1_555 1_555
H9 C11 1_555 1_555
C12 O1 1_555 1_555
C13 Si1 1_555 1_555
C14 C13 1_555 1_555
H10 C14 1_555 1_555
C15 C14 1_555 1_555
H11 C15 1_555 1_555
C16 C15 1_555 1_555
H12 C16 1_555 1_555
C17 C16 1_555 1_555
H13 C17 1_555 1_555
C18 C13 1_555 1_555
H14 C18 1_555 1_555
C19 Si1 1_555 1_555
C20 C19 1_555 1_555
H15 C20 1_555 1_555
H16 C20 1_555 1_555
H17 C20 1_555 1_555
C21 C19 1_555 1_555
H18 C21 1_555 1_555
H19 C21 1_555 1_555
H20 C21 1_555 1_555
C22 C19 1_555 1_555
H21 C22 1_555 1_555
H22 C22 1_555 1_555
H23 C22 1_555 1_555
S2 F2 1_555 1_555
Si2 C23 1_555 1_555
O4 S2 1_555 1_555
O5 S2 1_555 1_555
O6 S2 1_555 1_555
C23 C24 1_555 1_555
C24 H24 1_555 1_555
C25 C24 1_555 1_555
H25 C25 1_555 1_555
C26 C25 1_555 1_555
H26 C26 1_555 1_555
C27 C26 1_555 1_555
H27 C27 1_555 1_555
C28 C23 1_555 1_555
H28 C28 1_555 1_555
C29 Si2 1_555 1_555
C30 C29 1_555 1_555
H29 C30 1_555 1_555
C31 C30 1_555 1_555
H30 C31 1_555 1_555
C32 C31 1_555 1_555
H31 C32 1_555 1_555
C33 C32 1_555 1_555
H32 C33 1_555 1_555
C34 C29 1_555 1_555
H33 C34 1_555 1_555
C35 Si2 1_555 1_555
C36 C35 1_555 1_555
H34 C36 1_555 1_555
C37 C36 1_555 1_555
H35 C37 1_555 1_555
C38 C37 1_555 1_555
H36 C38 1_555 1_555
C39 C38 1_555 1_555
H37 C39 1_555 1_555
C40 O4 1_555 1_555
C41 Si2 1_555 1_555
C42 C41 1_555 1_555
H38 C42 1_555 1_555
H39 C42 1_555 1_555
H40 C42 1_555 1_555
C43 C41 1_555 1_555
H41 C43 1_555 1_555
H42 C43 1_555 1_555
H43 C43 1_555 1_555
C44 C41 1_555 1_555
H44 C44 1_555 1_555
H45 C44 1_555 1_555
H46 C44 1_555 1_555
C5 C6 1_555 1_555
C7 C12 1_555 1_555
C11 C12 1_555 1_555
C17 C18 1_555 1_555
C27 C28 1_555 1_555
C33 C34 1_555 1_555
C35 C40 1_555 1_555
C39 C40 1_555 1_555

#END
