
#######################################################################
#
#                 Cambridge Crystallographic Data Centre
#                                CCDC 
#
#######################################################################
#
# If this CIF has been generated from an entry in the Cambridge 
# Structural Database, then it will include bibliographic, chemical, 
# crystal, experimental, refinement or atomic coordinate data resulting 
# from the CCDC's data processing and validation procedures.
#
#######################################################################

data_PUQVAA
_chemical_formula_moiety         'C18 H15 N1 O3 S1'
_chemical_name_systematic        
(3S,3aR,6aR)-3-Hydroxy-3a,5-diphenyldihydro-2H-thieno[2,3-c]-pyrrole-4,6(5H,6aH)-dione
_symmetry_cell_setting           monoclinic
_symmetry_space_group_name_H-M   'P 21/c'
_symmetry_Int_Tables_number      14
_space_group_name_Hall           '-P 2ybc'
loop_
_symmetry_equiv_pos_site_id
_symmetry_equiv_pos_as_xyz
1 x,y,z
2 -x,1/2+y,1/2-z
3 -x,-y,-z
4 x,1/2-y,1/2+z
_cell_length_a                   12.7684(12)
_cell_length_b                   5.9698(4)
_cell_length_c                   20.444(3)
_cell_angle_alpha                90
_cell_angle_beta                 100.819(11)
_cell_angle_gamma                90
_cell_volume                     1530.64
_exptl_crystal_colour            'light colorless'
_exptl_crystal_description       block
_cell_formula_units_Z            4
loop_
_atom_site_label
_atom_site_type_symbol
_atom_site_fract_x
_atom_site_fract_y
_atom_site_fract_z
S1 S 0.45497(10) 0.1515(2) 0.41729(7)
N1 N 0.7342(3) 0.0777(5) 0.47064(19)
O1 O 0.6671(3) 0.4060(5) 0.50619(17)
O2 O 0.4753(3) -0.0298(6) 0.27848(16)
H1 H 0.4404 -0.1300 0.2572
O3 O 0.7549(3) -0.2462(4) 0.41333(16)
C1 C 1.0050(4) 0.0068(9) 0.6193(3)
H2 H 1.0665 -0.0108 0.6515
C2 C 0.8104(5) 0.2377(9) 0.2139(3)
H3 H 0.8497 0.2792 0.1819
C3 C 0.9306(4) -0.1610(8) 0.6095(3)
H4 H 0.9415 -0.2899 0.6354
C4 C 0.4739(4) -0.1336(8) 0.3933(3)
H5 H 0.5127 -0.2180 0.4306
H6 H 0.4057 -0.2059 0.3778
C5 C 0.7558(4) 0.0403(9) 0.2079(2)
H7 H 0.7580 -0.0527 0.1717
C6 C 0.9002(4) 0.2238(8) 0.5347(3)
H8 H 0.8894 0.3540 0.5093
C7 C 0.9905(4) 0.1994(9) 0.5828(3)
H9 H 1.0412 0.3131 0.5904
C8 C 0.5857(3) 0.2348(7) 0.4010(2)
H10 H 0.5801 0.3745 0.3754
C9 C 0.5369(4) -0.1205(7) 0.3380(2)
H11 H 0.5648 -0.2684 0.3295
C10 C 0.6640(3) 0.2602(6) 0.4654(2)
C11 C 0.6906(3) 0.1164(6) 0.3088(2)
C12 C 0.7125(3) -0.0678(6) 0.4166(2)
C13 C 0.6278(3) 0.0424(6) 0.3617(2)
C14 C 0.6971(4) -0.0227(7) 0.2551(2)
H12 H 0.6616 -0.1594 0.2510
C15 C 0.8251(3) 0.0520(7) 0.5241(2)
C16 C 0.8073(4) 0.3749(8) 0.2672(3)
H13 H 0.8455 0.5084 0.2717
C17 C 0.8392(4) -0.1404(7) 0.5611(2)
H14 H 0.7887 -0.2545 0.5540
C18 C 0.7472(3) 0.3157(7) 0.3148(3)
H15 H 0.7451 0.4103 0.3506
loop_
_geom_bond_atom_site_label_1
_geom_bond_atom_site_label_2
_geom_bond_site_symmetry_1
_geom_bond_site_symmetry_2
S1 C4 1_555 1_555
N1 C10 1_555 1_555
O1 C10 1_555 1_555
O2 H1 1_555 1_555
O3 C12 1_555 1_555
C1 H2 1_555 1_555
C2 H3 1_555 1_555
C3 C1 1_555 1_555
H4 C3 1_555 1_555
C4 H5 1_555 1_555
H6 C4 1_555 1_555
C5 C2 1_555 1_555
H7 C5 1_555 1_555
C6 H8 1_555 1_555
C7 C1 1_555 1_555
H9 C7 1_555 1_555
C8 S1 1_555 1_555
H10 C8 1_555 1_555
C9 O2 1_555 1_555
H11 C9 1_555 1_555
C10 C8 1_555 1_555
C11 C13 1_555 1_555
C12 N1 1_555 1_555
C13 C8 1_555 1_555
C14 C5 1_555 1_555
H12 C14 1_555 1_555
C15 N1 1_555 1_555
C16 C2 1_555 1_555
H13 C16 1_555 1_555
C17 C3 1_555 1_555
H14 C17 1_555 1_555
C18 C11 1_555 1_555
H15 C18 1_555 1_555
C4 C9 1_555 1_555
C6 C7 1_555 1_555
C6 C15 1_555 1_555
C9 C13 1_555 1_555
C11 C14 1_555 1_555
C12 C13 1_555 1_555
C15 C17 1_555 1_555
C16 C18 1_555 1_555

#END
