
#######################################################################
#
#                 Cambridge Crystallographic Data Centre
#                                CCDC 
#
#######################################################################
#
# If this CIF has been generated from an entry in the Cambridge 
# Structural Database, then it will include bibliographic, chemical, 
# crystal, experimental, refinement or atomic coordinate data resulting 
# from the CCDC's data processing and validation procedures.
#
#######################################################################

data_PUQYOQ02
_chemical_formula_moiety         'C13 H13 N3 O1 S1'
_chemical_name_systematic        
1-(3-(methylsulfanyl)phenyl)-3-(pyridin-2-yl)urea
_symmetry_cell_setting           orthorhombic
_symmetry_space_group_name_H-M   'P c a 21'
_symmetry_Int_Tables_number      29
_space_group_name_Hall           'P 2c -2ac'
loop_
_symmetry_equiv_pos_site_id
_symmetry_equiv_pos_as_xyz
1 x,y,z
2 -x,-y,1/2+z
3 1/2+x,-y,z
4 1/2-x,y,1/2+z
_cell_length_a                   17.2320(14)
_cell_length_b                   5.4830(4)
_cell_length_c                   26.478(2)
_cell_angle_alpha                90
_cell_angle_beta                 90
_cell_angle_gamma                90
_cell_volume                     2501.72
_exptl_crystal_colour            colorless
_exptl_crystal_description       needle
_chemical_melting_point          '140 deg.C'
_cell_formula_units_Z            8
loop_
_atom_site_label
_atom_site_type_symbol
_atom_site_fract_x
_atom_site_fract_y
_atom_site_fract_z
S1 S 0.29827(11) 0.4506(3) 0.23272(5)
O1 O 0.18635(18) 0.3450(6) 0.05807(12)
N1 N 0.2545(2) 0.6971(7) 0.04366(14)
N2 N 0.1781(4) 0.5205(7) -0.0184(2)
N3 N 0.2365(2) 0.8757(7) -0.05038(14)
C1 C 0.2251(3) 0.2353(9) 0.21396(19)
C2 C 0.3148(3) 0.6300(8) 0.17852(17)
C3 C 0.2783(3) 0.5812(10) 0.1320(2)
C4 C 0.2907(2) 0.7335(8) 0.09131(16)
C5 C 0.3388(3) 0.9374(9) 0.0960(2)
C6 C 0.3764(4) 0.9790(9) 0.1421(3)
C7 C 0.3639(3) 0.8270(9) 0.18257(18)
C8 C 0.2051(4) 0.5152(8) 0.0298(3)
C9 C 0.1920(2) 0.6825(8) -0.05812(17)
C10 C 0.1570(3) 0.6270(8) -0.10507(18)
C11 C 0.1707(3) 0.7865(9) -0.14481(18)
C12 C 0.2167(4) 0.9903(8) -0.1367(3)
C13 C 0.2487(5) 1.0274(9) -0.0897(3)
H1 H 0.264(3) 0.809(8) 0.0193(18)
H2 H 0.148(3) 0.388(9) -0.0222(19)
H3 H 0.170(3) 0.357(8) 0.2079(17)
H4 H 0.240(3) 0.124(8) 0.1878(16)
H5 H 0.220(3) 0.139(7) 0.2506(17)
H6 H 0.245(3) 0.401(9) 0.131(2)
H7 H 0.342(3) 1.052(8) 0.071(2)
H8 H 0.407(3) 1.116(8) 0.1444(17)
H9 H 0.393(3) 0.862(8) 0.2149(18)
H10 H 0.119(4) 0.457(8) -0.105(2)
H11 H 0.146(3) 0.749(8) -0.1816(17)
H12 H 0.227(3) 1.141(8) -0.1682(17)
H13 H 0.280(3) 1.187(8) -0.0825(18)
S2 S -0.05042(11) -0.0172(2) -0.21937(5)
O2 O 0.06337(18) 0.1594(5) -0.04383(12)
N4 N -0.0058(2) -0.1891(7) -0.02612(15)
N5 N 0.0706(4) -0.0031(7) 0.0347(2)
N6 N 0.0115(2) -0.3528(6) 0.06836(14)
C14 C 0.0230(3) 0.2049(9) -0.2061(2)
C15 C -0.0641(3) -0.1731(8) -0.16175(16)
C16 C -0.0285(3) -0.1031(10) -0.11690(18)
C17 C -0.0407(2) -0.2454(8) -0.07356(17)
C18 C -0.0870(3) -0.4524(9) -0.0750(2)
C19 C -0.1213(4) -0.5162(8) -0.1199(3)
C20 C -0.1112(3) -0.3808(8) -0.16397(19)
C21 C 0.0412(4) -0.0042(8) -0.0152(2)
C22 C 0.0582(2) -0.1599(8) 0.07439(16)
C23 C 0.0970(3) -0.1123(9) 0.12016(17)
C24 C 0.0857(3) -0.2699(8) 0.15967(19)
C25 C 0.0368(4) -0.4691(9) 0.1546(3)
C26 C 0.0023(5) -0.5036(8) 0.1077(3)
H14 H -0.014(3) -0.296(9) 0.0029(18)
H15 H 0.101(3) 0.109(9) 0.038(2)
H16 H 0.063(3) 0.123(9) -0.1964(18)
H17 H 0.033(3) 0.285(8) -0.2370(19)
H18 H 0.015(3) 0.329(9) -0.1832(17)
H19 H -0.002(3) 0.056(8) -0.117(2)
H20 H -0.095(3) -0.542(8) -0.0442(18)
H21 H -0.156(3) -0.662(8) -0.1208(16)
H22 H -0.139(3) -0.435(8) -0.1953(17)
H23 H 0.129(4) 0.058(9) 0.122(2)
H24 H 0.114(3) -0.241(8) 0.1912(17)
H25 H 0.030(3) -0.579(8) 0.1802(18)
H26 H -0.030(3) -0.661(9) 0.1015(17)
loop_
_geom_bond_atom_site_label_1
_geom_bond_atom_site_label_2
_geom_bond_site_symmetry_1
_geom_bond_site_symmetry_2
S1 C1 1_555 1_555
O1 C8 1_555 1_555
N1 C4 1_555 1_555
N2 C8 1_555 1_555
N3 C9 1_555 1_555
C1 H3 1_555 1_555
C2 S1 1_555 1_555
C3 C2 1_555 1_555
C4 C3 1_555 1_555
C5 C4 1_555 1_555
C6 C5 1_555 1_555
C7 C2 1_555 1_555
C8 N1 1_555 1_555
C9 N2 1_555 1_555
C10 C9 1_555 1_555
C11 C10 1_555 1_555
C12 C11 1_555 1_555
C13 N3 1_555 1_555
H1 N1 1_555 1_555
H2 N2 1_555 1_555
H4 C1 1_555 1_555
H5 C1 1_555 1_555
H6 C3 1_555 1_555
H7 C5 1_555 1_555
H8 C6 1_555 1_555
H9 C7 1_555 1_555
H10 C10 1_555 1_555
H11 C11 1_555 1_555
H12 C12 1_555 1_555
H13 C13 1_555 1_555
S2 C14 1_555 1_555
O2 C21 1_555 1_555
N4 C17 1_555 1_555
N5 C21 1_555 1_555
N6 C22 1_555 1_555
C14 H16 1_555 1_555
C15 S2 1_555 1_555
C16 C15 1_555 1_555
C17 C16 1_555 1_555
C18 C17 1_555 1_555
C19 C18 1_555 1_555
C20 C15 1_555 1_555
C21 N4 1_555 1_555
C22 N5 1_555 1_555
C23 C22 1_555 1_555
C24 C23 1_555 1_555
C25 C24 1_555 1_555
C26 N6 1_555 1_555
H14 N4 1_555 1_555
H15 N5 1_555 1_555
H17 C14 1_555 1_555
H18 C14 1_555 1_555
H19 C16 1_555 1_555
H20 C18 1_555 1_555
H21 C19 1_555 1_555
H22 C20 1_555 1_555
H23 C23 1_555 1_555
H24 C24 1_555 1_555
H25 C25 1_555 1_555
H26 C26 1_555 1_555
C6 C7 1_555 1_555
C12 C13 1_555 1_555
C19 C20 1_555 1_555
C25 C26 1_555 1_555

#END
