
#######################################################################
#
#                 Cambridge Crystallographic Data Centre
#                                CCDC 
#
#######################################################################
#
# If this CIF has been generated from an entry in the Cambridge 
# Structural Database, then it will include bibliographic, chemical, 
# crystal, experimental, refinement or atomic coordinate data resulting 
# from the CCDC's data processing and validation procedures.
#
#######################################################################

data_PUQYOQ01
_chemical_formula_moiety         'C13 H13 N3 O1 S1'
_chemical_name_systematic        
1-(3-(methylsulfanyl)phenyl)-3-(pyridin-2-yl)urea
_symmetry_cell_setting           monoclinic
_symmetry_space_group_name_H-M   'P 21/n'
_symmetry_Int_Tables_number      14
_space_group_name_Hall           '-P 2yn'
loop_
_symmetry_equiv_pos_site_id
_symmetry_equiv_pos_as_xyz
1 x,y,z
2 1/2-x,1/2+y,1/2-z
3 -x,-y,-z
4 1/2+x,1/2-y,1/2+z
_cell_length_a                   5.4862(3)
_cell_length_b                   13.9388(8)
_cell_length_c                   16.1959(9)
_cell_angle_alpha                90
_cell_angle_beta                 93.59(2)
_cell_angle_gamma                90
_cell_volume                     1236.09
_exptl_crystal_colour            colorless
_exptl_crystal_description       cube
_chemical_melting_point          '144 deg.C'
_cell_formula_units_Z            4
loop_
_atom_site_label
_atom_site_type_symbol
_atom_site_fract_x
_atom_site_fract_y
_atom_site_fract_z
S1 S 0.20018(8) 0.62706(3) 0.40054(3)
O1 O 0.0829(2) 0.50259(8) 0.10673(7)
N1 N 0.4452(3) 0.42760(10) 0.14356(8)
N2 N 0.2695(2) 0.41958(9) 0.00938(8)
N3 N 0.6267(2) 0.32520(9) 0.01879(8)
C1 C -0.0154(3) 0.67008(13) 0.32043(11)
C2 C 0.3823(3) 0.54474(11) 0.34795(10)
C3 C 0.3263(3) 0.51780(11) 0.26595(10)
C4 C 0.4823(3) 0.45520(11) 0.22710(9)
C5 C 0.6890(3) 0.41845(11) 0.27139(10)
C6 C 0.7384(3) 0.44422(12) 0.35356(10)
C7 C 0.5871(3) 0.50747(12) 0.39225(10)
C8 C 0.2583(3) 0.45286(11) 0.08934(9)
C9 C 0.4369(3) 0.36019(10) -0.02708(9)
C10 C 0.3937(3) 0.33991(11) -0.11170(10)
C11 C 0.5567(3) 0.28132(12) -0.14854(10)
C12 C 0.7544(3) 0.24284(12) -0.10183(11)
C13 C 0.7824(3) 0.26724(11) -0.01933(11)
H1 H 0.543(4) 0.3955(16) 0.1246(14)
H2 H 0.150(4) 0.4429(14) -0.0262(13)
H3 H -0.109(4) 0.6134(14) 0.2971(13)
H4 H -0.125(4) 0.7129(16) 0.3454(13)
H5 H 0.077(4) 0.7086(15) 0.2769(13)
H6 H 0.187(3) 0.5424(12) 0.2353(11)
H7 H 0.790(3) 0.3806(12) 0.2408(11)
H8 H 0.885(3) 0.4213(13) 0.3855(12)
H9 H 0.629(3) 0.5303(13) 0.4466(13)
H10 H 0.251(3) 0.3689(12) -0.1413(11)
H11 H 0.538(3) 0.2691(13) -0.2072(12)
H12 H 0.870(3) 0.2050(13) -0.1259(11)
H13 H 0.907(4) 0.2403(13) 0.0152(11)
loop_
_geom_bond_atom_site_label_1
_geom_bond_atom_site_label_2
_geom_bond_site_symmetry_1
_geom_bond_site_symmetry_2
S1 C1 1_555 1_555
O1 C8 1_555 1_555
N1 C4 1_555 1_555
N2 C8 1_555 1_555
N3 C9 1_555 1_555
C1 H3 1_555 1_555
C2 S1 1_555 1_555
C3 C2 1_555 1_555
C4 C3 1_555 1_555
C5 C4 1_555 1_555
C6 C5 1_555 1_555
C7 C2 1_555 1_555
C8 N1 1_555 1_555
C9 N2 1_555 1_555
C10 C9 1_555 1_555
C11 C10 1_555 1_555
C12 C11 1_555 1_555
C13 N3 1_555 1_555
H1 N1 1_555 1_555
H2 N2 1_555 1_555
H4 C1 1_555 1_555
H5 C1 1_555 1_555
H6 C3 1_555 1_555
H7 C5 1_555 1_555
H8 C6 1_555 1_555
H9 C7 1_555 1_555
H10 C10 1_555 1_555
H11 C11 1_555 1_555
H12 C12 1_555 1_555
H13 C13 1_555 1_555
C6 C7 1_555 1_555
C12 C13 1_555 1_555

#END
