
#######################################################################
#
#                 Cambridge Crystallographic Data Centre
#                                CCDC 
#
#######################################################################
#
# If this CIF has been generated from an entry in the Cambridge 
# Structural Database, then it will include bibliographic, chemical, 
# crystal, experimental, refinement or atomic coordinate data resulting 
# from the CCDC's data processing and validation procedures.
#
#######################################################################

data_PURCUC
_chemical_formula_moiety         'C19 H18 Cl1 N3 O2'
_chemical_name_systematic        
7-chloro-4-((2,3-dimethoxybenzylidene)hydrazono)-1-methyl-1,4-dihydroquinoline
_symmetry_cell_setting           triclinic
_symmetry_space_group_name_H-M   'P -1'
_symmetry_Int_Tables_number      2
_space_group_name_Hall           '-P 1'
loop_
_symmetry_equiv_pos_site_id
_symmetry_equiv_pos_as_xyz
1 x,y,z
2 -x,-y,-z
_cell_length_a                   7.80950(10)
_cell_length_b                   14.1996(3)
_cell_length_c                   16.2498(11)
_cell_angle_alpha                79.216(7)
_cell_angle_beta                 78.661(7)
_cell_angle_gamma                89.432(6)
_cell_volume                     1734.92
_exptl_crystal_colour            yellow
_exptl_crystal_description       Block
_cell_formula_units_Z            4
loop_
_atom_site_label
_atom_site_type_symbol
_atom_site_fract_x
_atom_site_fract_y
_atom_site_fract_z
Cl1 Cl 0.82366(6) 0.91777(3) 1.00903(3)
O1 O -0.06665(12) 0.38239(7) 0.91849(6)
O2 O -0.18961(13) 0.23195(7) 0.86790(6)
N1 N 0.41950(15) 0.50122(8) 0.82325(7)
N2 N 0.46202(15) 0.56797(8) 0.86993(7)
N3 N 0.78346(14) 0.79956(8) 0.73473(7)
C1 C 0.73616(18) 0.73155(10) 0.69343(8)
H1 H 0.7742 0.7406 0.6332
C2 C 0.57370(17) 0.63544(9) 0.82419(8)
C3 C 0.63815(18) 0.65202(10) 0.73357(8)
H2 H 0.6117 0.6067 0.7014
C4 C 0.63542(17) 0.70495(9) 0.86920(8)
C5 C 0.59403(19) 0.69180(10) 0.95878(9)
H3 H 0.5273 0.6365 0.9903
C6 C 0.6480(2) 0.75728(11) 1.00220(9)
H4 H 0.6183 0.7480 1.0628
C7 C 0.74686(19) 0.83703(10) 0.95491(9)
C8 C 0.79279(18) 0.85340(10) 0.86706(9)
H5 H 0.8604 0.9088 0.8367
C9 C 0.73751(17) 0.78620(10) 0.82309(8)
C10 C 0.27297(18) 0.45730(9) 0.85821(8)
H6 H 0.2038 0.4765 0.9069
C11 C 0.20997(17) 0.37809(9) 0.82463(8)
C12 C 0.03917(18) 0.34188(9) 0.85715(8)
C13 C -0.02126(18) 0.26120(10) 0.83119(8)
C14 C 0.0898(2) 0.21716(11) 0.77315(9)
H7 H 0.0503 0.1624 0.7557
C15 C 0.2599(2) 0.25370(11) 0.74045(10)
H8 H 0.3355 0.2236 0.7004
C16 C 0.32002(19) 0.33287(11) 0.76536(9)
H9 H 0.4361 0.3569 0.7424
C17 C 0.88587(18) 0.88467(10) 0.68574(9)
H10 H 0.9025 0.8835 0.6246
H11 H 1.0000 0.8850 0.7022
H12 H 0.8237 0.9424 0.6976
C18 C -0.1903(2) 0.44747(12) 0.88652(10)
H13 H -0.1279 0.5009 0.8446
H14 H -0.2621 0.4723 0.9339
H15 H -0.2656 0.4137 0.8592
C19 C -0.2511(2) 0.14486(12) 0.85040(10)
H16 H -0.2508 0.1525 0.7892
H17 H -0.3702 0.1297 0.8830
H18 H -0.1744 0.0927 0.8670
Cl2 Cl 0.86464(5) 0.41292(3) 0.33680(2)
O3 O -0.09374(12) -0.16057(7) 0.48954(6)
O4 O -0.26502(13) -0.32506(7) 0.49743(7)
N4 N 0.73855(15) 0.17607(8) 0.15398(7)
N5 N 0.46124(15) -0.00848(8) 0.36630(7)
N6 N 0.39538(15) -0.09397(8) 0.35190(7)
C20 C 0.67638(19) 0.08971(10) 0.14627(9)
H19 H 0.6930 0.0749 0.0907
C21 C 0.55821(16) 0.04291(9) 0.29785(8)
C22 C 0.59235(19) 0.02348(10) 0.21268(9)
H20 H 0.5557 -0.0363 0.2028
C23 C 0.62541(17) 0.15665(9) 0.38824(8)
H21 H 0.5684 0.1130 0.4375
C24 C 0.63638(16) 0.13297(9) 0.30724(8)
C25 C 0.69524(18) 0.24157(10) 0.39795(9)
H22 H 0.6869 0.2567 0.4531
C26 C 0.77858(18) 0.30489(9) 0.32496(9)
C27 C 0.79474(17) 0.28489(9) 0.24441(8)
H23 H 0.8531 0.3291 0.1959
C28 C 0.72378(16) 0.19808(9) 0.23472(8)
C29 C 0.25190(17) -0.12216(9) 0.40401(8)
H24 H 0.2016 -0.0832 0.4436
C30 C 0.16296(17) -0.21290(9) 0.40441(8)
C31 C -0.00931(17) -0.22961(9) 0.44822(8)
C32 C -0.09631(18) -0.31689(10) 0.45271(8)
C33 C -0.0105(2) -0.38708(10) 0.41280(10)
H25 H -0.0685 -0.4465 0.4160
C34 C 0.1613(2) -0.37001(11) 0.36797(10)
H26 H 0.2194 -0.4178 0.3399
C35 C 0.24800(19) -0.28461(10) 0.36398(9)
H27 H 0.3655 -0.2742 0.3338
C36 C 0.81593(18) 0.24648(10) 0.07721(8)
H28 H 0.8053 0.2217 0.0260
H29 H 0.9396 0.2577 0.0771
H30 H 0.7543 0.3069 0.0775
C37 C -0.2121(2) -0.10505(11) 0.44372(10)
H31 H -0.1463 -0.0686 0.3897
H32 H -0.2727 -0.0606 0.4783
H33 H -0.2978 -0.1481 0.4320
C38 C -0.3629(2) -0.40973(12) 0.49795(12)
H34 H -0.3679 -0.4147 0.4391
H35 H -0.4817 -0.4064 0.5307
H36 H -0.3062 -0.4661 0.5244
loop_
_geom_bond_atom_site_label_1
_geom_bond_atom_site_label_2
_geom_bond_site_symmetry_1
_geom_bond_site_symmetry_2
Cl1 C7 1_555 1_555
O1 C12 1_555 1_555
O2 C13 1_555 1_555
N1 N2 1_555 1_555
N2 C2 1_555 1_555
N3 C1 1_555 1_555
C1 H1 1_555 1_555
C2 C3 1_555 1_555
C3 C1 1_555 1_555
H2 C3 1_555 1_555
C4 C2 1_555 1_555
C5 C4 1_555 1_555
H3 C5 1_555 1_555
C6 C5 1_555 1_555
H4 C6 1_555 1_555
C7 C6 1_555 1_555
C8 C7 1_555 1_555
H5 C8 1_555 1_555
C9 N3 1_555 1_555
C10 N1 1_555 1_555
H6 C10 1_555 1_555
C11 C10 1_555 1_555
C12 C11 1_555 1_555
C13 C12 1_555 1_555
C14 C13 1_555 1_555
H7 C14 1_555 1_555
C15 C14 1_555 1_555
H8 C15 1_555 1_555
C16 C11 1_555 1_555
H9 C16 1_555 1_555
C17 N3 1_555 1_555
H10 C17 1_555 1_555
H11 C17 1_555 1_555
H12 C17 1_555 1_555
C18 O1 1_555 1_555
H13 C18 1_555 1_555
H14 C18 1_555 1_555
H15 C18 1_555 1_555
C19 O2 1_555 1_555
H16 C19 1_555 1_555
H17 C19 1_555 1_555
H18 C19 1_555 1_555
Cl2 C26 1_555 1_555
O3 C31 1_555 1_555
O4 C32 1_555 1_555
N4 C20 1_555 1_555
N5 N6 1_555 1_555
N6 C29 1_555 1_555
C20 H19 1_555 1_555
C21 N5 1_555 1_555
C22 C20 1_555 1_555
H20 C22 1_555 1_555
C23 H21 1_555 1_555
C24 C21 1_555 1_555
C25 C23 1_555 1_555
H22 C25 1_555 1_555
C26 C25 1_555 1_555
C27 C26 1_555 1_555
H23 C27 1_555 1_555
C28 N4 1_555 1_555
C29 H24 1_555 1_555
C30 C29 1_555 1_555
C31 C30 1_555 1_555
C32 C31 1_555 1_555
C33 C32 1_555 1_555
H25 C33 1_555 1_555
C34 C33 1_555 1_555
H26 C34 1_555 1_555
C35 C30 1_555 1_555
H27 C35 1_555 1_555
C36 N4 1_555 1_555
H28 C36 1_555 1_555
H29 C36 1_555 1_555
H30 C36 1_555 1_555
C37 O3 1_555 1_555
H31 C37 1_555 1_555
H32 C37 1_555 1_555
H33 C37 1_555 1_555
C38 O4 1_555 1_555
H34 C38 1_555 1_555
H35 C38 1_555 1_555
H36 C38 1_555 1_555
C4 C9 1_555 1_555
C8 C9 1_555 1_555
C15 C16 1_555 1_555
C21 C22 1_555 1_555
C23 C24 1_555 1_555
C24 C28 1_555 1_555
C27 C28 1_555 1_555
C34 C35 1_555 1_555

#END
