
#######################################################################
#
#                 Cambridge Crystallographic Data Centre
#                                CCDC 
#
#######################################################################
#
# If this CIF has been generated from an entry in the Cambridge 
# Structural Database, then it will include bibliographic, chemical, 
# crystal, experimental, refinement or atomic coordinate data resulting 
# from the CCDC's data processing and validation procedures.
#
#######################################################################

data_PURDAJ
_chemical_formula_moiety         'C18 H16 Cl1 N3 O1'
_chemical_name_systematic        
7-chloro-4-((3-methoxybenzylidene)hydrazono)-1-methyl-1,4-dihydroquinoline
_symmetry_cell_setting           triclinic
_symmetry_space_group_name_H-M   'P -1'
_symmetry_Int_Tables_number      2
_space_group_name_Hall           '-P 1'
loop_
_symmetry_equiv_pos_site_id
_symmetry_equiv_pos_as_xyz
1 x,y,z
2 -x,-y,-z
_cell_length_a                   8.8352(3)
_cell_length_b                   8.9684(5)
_cell_length_c                   10.3083(7)
_cell_angle_alpha                83.525(6)
_cell_angle_beta                 76.717(5)
_cell_angle_gamma                79.485(6)
_cell_volume                     779.459
_exptl_crystal_colour            orange
_exptl_crystal_description       Block
_cell_formula_units_Z            2
loop_
_atom_site_label
_atom_site_type_symbol
_atom_site_fract_x
_atom_site_fract_y
_atom_site_fract_z
Cl1 Cl 0.35245(6) 0.27521(6) 0.11799(5)
O1 O 0.83170(18) -0.05022(17) 1.28458(14)
N1 N 0.6648(2) 0.2261(2) 0.65870(17)
N2 N 0.74501(19) 0.2522(2) 0.75465(16)
N3 N 0.71136(19) 0.52678(19) 0.31855(16)
C1 C 0.4495(2) 0.2892(2) 0.2439(2)
C2 C 0.5366(2) 0.4044(2) 0.23076(19)
H1 H 0.5422 0.4758 0.1550
C3 C 0.6043(2) 0.3110(2) 0.44587(19)
C4 C 0.9400(2) 0.1789(2) 1.1868(2)
H2 H 0.9889 0.1820 1.2592
C5 C 0.8837(2) 0.2866(2) 0.9735(2)
H3 H 0.8937 0.3630 0.9018
C6 C 0.5106(2) 0.1976(2) 0.45494(19)
H4 H 0.4987 0.1288 0.5324
C7 C 0.7977(2) 0.1698(2) 0.97206(19)
C8 C 0.6869(2) 0.3216(2) 0.55215(19)
C9 C 0.6177(2) 0.4150(2) 0.33177(19)
C10 C 0.8542(2) 0.0646(2) 1.18580(19)
C11 C 0.7849(2) 0.4379(2) 0.5271(2)
H5 H 0.8453 0.4479 0.5900
C12 C 0.9006(3) -0.0471(2) 1.3970(2)
H6 H 1.0151 -0.0544 1.3668
H7 H 0.8764 -0.1330 1.4614
H8 H 0.8574 0.0484 1.4396
C13 C 0.7234(2) 0.1606(2) 0.85983(19)
H9 H 0.6583 0.0857 0.8653
C14 C 0.7922(2) 0.5334(2) 0.4150(2)
H10 H 0.8574 0.6093 0.4029
C15 C 0.9535(2) 0.2898(2) 1.0797(2)
H11 H 1.0119 0.3688 1.0800
C16 C 0.4355(2) 0.1834(2) 0.3545(2)
H12 H 0.3760 0.1038 0.3605
C17 C 0.7829(2) 0.0609(2) 1.0786(2)
H13 H 0.7234 -0.0174 1.0789
C18 C 0.7201(2) 0.6403(2) 0.2041(2)
H14 H 0.7942 0.7073 0.2094
H15 H 0.6155 0.7006 0.2055
H16 H 0.7565 0.5887 0.1210
loop_
_geom_bond_atom_site_label_1
_geom_bond_atom_site_label_2
_geom_bond_site_symmetry_1
_geom_bond_site_symmetry_2
Cl1 C1 1_555 1_555
O1 C10 1_555 1_555
N1 N2 1_555 1_555
N2 C13 1_555 1_555
N3 C9 1_555 1_555
C1 C2 1_555 1_555
C2 H1 1_555 1_555
C3 C6 1_555 1_555
C4 H2 1_555 1_555
C5 H3 1_555 1_555
C6 H4 1_555 1_555
C7 C5 1_555 1_555
C8 N1 1_555 1_555
C9 C2 1_555 1_555
C10 C4 1_555 1_555
C11 C8 1_555 1_555
H5 C11 1_555 1_555
C12 O1 1_555 1_555
H6 C12 1_555 1_555
H7 C12 1_555 1_555
H8 C12 1_555 1_555
C13 C7 1_555 1_555
H9 C13 1_555 1_555
C14 N3 1_555 1_555
H10 C14 1_555 1_555
C15 C4 1_555 1_555
H11 C15 1_555 1_555
C16 C1 1_555 1_555
H12 C16 1_555 1_555
C17 C7 1_555 1_555
H13 C17 1_555 1_555
C18 N3 1_555 1_555
H14 C18 1_555 1_555
H15 C18 1_555 1_555
H16 C18 1_555 1_555
C3 C8 1_555 1_555
C3 C9 1_555 1_555
C5 C15 1_555 1_555
C6 C16 1_555 1_555
C10 C17 1_555 1_555
C11 C14 1_555 1_555

#END
