
#######################################################################
#
#                 Cambridge Crystallographic Data Centre
#                                CCDC 
#
#######################################################################
#
# If this CIF has been generated from an entry in the Cambridge 
# Structural Database, then it will include bibliographic, chemical, 
# crystal, experimental, refinement or atomic coordinate data resulting 
# from the CCDC's data processing and validation procedures.
#
#######################################################################

data_PURGAM
_chemical_formula_moiety         'C21 H41 N3 O4 Si2'
_chemical_name_systematic        
6-((3,4-bis((t-butyl(dimethyl)silyl)oxy)pyrrolidin-1-yl)methyl)pyrimidine-2,4(1H,3H)-dione
_symmetry_cell_setting           monoclinic
_symmetry_space_group_name_H-M   'P 21'
_symmetry_Int_Tables_number      4
_space_group_name_Hall           'P 2yb'
loop_
_symmetry_equiv_pos_site_id
_symmetry_equiv_pos_as_xyz
1 x,y,z
2 -x,1/2+y,-z
_cell_length_a                   6.7380(3)
_cell_length_b                   10.5506(4)
_cell_length_c                   19.1623(8)
_cell_angle_alpha                90
_cell_angle_beta                 99.501(2)
_cell_angle_gamma                90
_cell_volume                     1343.56
_exptl_crystal_colour            colorless
_exptl_crystal_description       plate
_cell_formula_units_Z            2
loop_
_atom_site_label
_atom_site_type_symbol
_atom_site_fract_x
_atom_site_fract_y
_atom_site_fract_z
Si1 Si 0.69989(12) 0.49698(7) 0.80226(4)
Si2 Si 0.99516(13) 0.09799(7) 0.63920(4)
O1 O 0.7951(3) 0.35232(17) 0.80294(10)
O2 O 0.8086(3) 0.11636(19) 0.68435(10)
O3 O 1.3040(3) -0.1762(2) 1.00453(12)
O4 O 0.7459(3) -0.33538(19) 1.07524(11)
N1 N 0.7246(3) 0.0792(2) 0.86249(11)
N2 N 1.0228(4) -0.2543(2) 1.03844(12)
H1 H 1.0990 -0.3071 1.0666
N3 N 0.9898(4) -0.0871(2) 0.95359(14)
H2 H 1.0419 -0.0318 0.9274
C1 C 0.9223(6) 0.6059(4) 0.70613(18)
H3 H 1.0035 0.5284 0.7117
H4 H 0.9772 0.6671 0.7428
H5 H 0.9253 0.6426 0.6593
C2 C 0.7041(5) 0.5742(3) 0.71336(16)
C3 C 0.6855(4) 0.2424(2) 0.77603(14)
H6 H 0.5856 0.2640 0.7331
C4 C 0.5809(4) 0.1783(3) 0.83196(14)
H7 H 0.5563 0.2398 0.8686
H8 H 0.4510 0.1405 0.8101
C5 C 0.6349(4) -0.0090(3) 0.90659(14)
H9 H 0.5377 -0.0637 0.8759
H10 H 0.5598 0.0394 0.9380
C6 C 0.7896(4) -0.0919(2) 0.95144(13)
C7 C 0.7067(3) -0.1784(2) 0.99213(12)
H11 H 0.5644 -0.1812 0.9883
C8 C 0.8200(4) -0.2608(2) 1.03793(14)
C9 C 0.6187(6) 0.4869(3) 0.65206(16)
H12 H 0.6215 0.5305 0.6071
H13 H 0.4796 0.4646 0.6557
H14 H 0.7001 0.4096 0.6541
C10 C 0.4402(5) 0.4926(3) 0.8228(2)
H15 H 0.3530 0.4450 0.7859
H16 H 0.3892 0.5794 0.8247
H17 H 0.4413 0.4513 0.8687
C11 C 0.8693(6) 0.5827(3) 0.87297(16)
H18 H 0.8397 0.5570 0.9193
H19 H 0.8482 0.6742 0.8669
H20 H 1.0096 0.5622 0.8700
C12 C 0.8354(4) 0.1405(3) 0.75825(13)
H21 H 0.9767 0.1687 0.7755
C13 C 0.8634(6) 0.0663(3) 0.54617(16)
C14 C 1.0208(9) 0.0540(4) 0.4972(2)
H22 H 0.9530 0.0375 0.4488
H23 H 1.1120 -0.0163 0.5133
H24 H 1.0979 0.1329 0.4983
C15 C 0.7425(7) -0.0572(3) 0.54413(19)
H25 H 0.6478 -0.0517 0.5777
H26 H 0.8347 -0.1284 0.5571
H27 H 0.6679 -0.0704 0.4963
C16 C 0.7211(7) 0.1753(4) 0.5214(2)
H28 H 0.7977 0.2544 0.5228
H29 H 0.6201 0.1825 0.5525
H30 H 0.6539 0.1591 0.4728
C17 C 1.1491(6) 0.2452(3) 0.64476(19)
H31 H 1.0681 0.3145 0.6208
H32 H 1.2670 0.2311 0.6219
H33 H 1.1933 0.2675 0.6945
C18 C 1.1595(6) -0.0359(3) 0.6763(2)
H34 H 1.2118 -0.0194 0.7263
H35 H 1.2719 -0.0442 0.6501
H36 H 1.0812 -0.1146 0.6721
C19 C 0.7880(4) 0.0236(2) 0.79945(14)
H37 H 0.6786 -0.0271 0.7719
H38 H 0.9084 -0.0306 0.8124
C20 C 1.1188(4) -0.1725(3) 0.99881(15)
C21 C 0.5781(7) 0.6977(3) 0.7080(2)
H39 H 0.5936 0.7431 0.6646
H40 H 0.6250 0.7515 0.7491
H41 H 0.4360 0.6766 0.7069
loop_
_geom_bond_atom_site_label_1
_geom_bond_atom_site_label_2
_geom_bond_site_symmetry_1
_geom_bond_site_symmetry_2
Si1 O1 1_555 1_555
Si2 O2 1_555 1_555
O1 C3 1_555 1_555
O2 C12 1_555 1_555
O3 C20 1_555 1_555
O4 C8 1_555 1_555
N1 C4 1_555 1_555
N2 H1 1_555 1_555
N3 H2 1_555 1_555
C1 H3 1_555 1_555
H4 C1 1_555 1_555
H5 C1 1_555 1_555
C2 Si1 1_555 1_555
C3 H6 1_555 1_555
C4 C3 1_555 1_555
H7 C4 1_555 1_555
H8 C4 1_555 1_555
C5 N1 1_555 1_555
H9 C5 1_555 1_555
H10 C5 1_555 1_555
C6 N3 1_555 1_555
C7 C6 1_555 1_555
H11 C7 1_555 1_555
C8 N2 1_555 1_555
C9 C2 1_555 1_555
H12 C9 1_555 1_555
H13 C9 1_555 1_555
H14 C9 1_555 1_555
C10 Si1 1_555 1_555
H15 C10 1_555 1_555
H16 C10 1_555 1_555
H17 C10 1_555 1_555
C11 Si1 1_555 1_555
H18 C11 1_555 1_555
H19 C11 1_555 1_555
H20 C11 1_555 1_555
C12 C3 1_555 1_555
H21 C12 1_555 1_555
C13 Si2 1_555 1_555
C14 C13 1_555 1_555
H22 C14 1_555 1_555
H23 C14 1_555 1_555
H24 C14 1_555 1_555
C15 C13 1_555 1_555
H25 C15 1_555 1_555
H26 C15 1_555 1_555
H27 C15 1_555 1_555
C16 C13 1_555 1_555
H28 C16 1_555 1_555
H29 C16 1_555 1_555
H30 C16 1_555 1_555
C17 Si2 1_555 1_555
H31 C17 1_555 1_555
H32 C17 1_555 1_555
H33 C17 1_555 1_555
C18 Si2 1_555 1_555
H34 C18 1_555 1_555
H35 C18 1_555 1_555
H36 C18 1_555 1_555
C19 N1 1_555 1_555
H37 C19 1_555 1_555
H38 C19 1_555 1_555
C20 N2 1_555 1_555
C21 C2 1_555 1_555
H39 C21 1_555 1_555
H40 C21 1_555 1_555
H41 C21 1_555 1_555
N3 C20 1_555 1_555
C1 C2 1_555 1_555
C5 C6 1_555 1_555
C7 C8 1_555 1_555
C12 C19 1_555 1_555

#END
