
#######################################################################
#
#                 Cambridge Crystallographic Data Centre
#                                CCDC 
#
#######################################################################
#
# If this CIF has been generated from an entry in the Cambridge 
# Structural Database, then it will include bibliographic, chemical, 
# crystal, experimental, refinement or atomic coordinate data resulting 
# from the CCDC's data processing and validation procedures.
#
#######################################################################

data_PURJUJ
_chemical_formula_moiety         'C15 H18 N2'
_chemical_name_systematic        2-(1-benzylpyrrolidin-2-yl)-1H-pyrrole
_symmetry_cell_setting           orthorhombic
_symmetry_space_group_name_H-M   'P 21 21 21'
_symmetry_Int_Tables_number      19
_space_group_name_Hall           'P 2ac 2ab'
loop_
_symmetry_equiv_pos_site_id
_symmetry_equiv_pos_as_xyz
1 x,y,z
2 1/2-x,-y,1/2+z
3 -x,1/2+y,1/2-z
4 1/2+x,1/2-y,-z
_cell_length_a                   5.537(3)
_cell_length_b                   8.819(5)
_cell_length_c                   25.832(16)
_cell_angle_alpha                90
_cell_angle_beta                 90
_cell_angle_gamma                90
_cell_volume                     1261.4
_exptl_crystal_colour            colorless
_exptl_crystal_description       prism
_cell_formula_units_Z            4
loop_
_atom_site_label
_atom_site_type_symbol
_atom_site_fract_x
_atom_site_fract_y
_atom_site_fract_z
C1 C 1.5251(10) 0.4023(6) 0.07015(16)
H1 H 1.6664 0.3463 0.0737
C2 C 1.3202(10) 0.3562(6) 0.04534(17)
H2 H 1.2963 0.2634 0.0290
C3 C 1.1514(9) 0.4755(6) 0.04898(16)
H3 H 0.9958 0.4752 0.0354
C4 C 1.2564(8) 0.5921(6) 0.07600(14)
C5 C 1.1575(7) 0.7410(6) 0.09330(14)
H4 H 1.2900 0.8015 0.1077
C6 C 1.0306(10) 0.8348(6) 0.05157(16)
H5 H 0.9471 0.7694 0.0273
H6 H 1.1460 0.8965 0.0327
C7 C 0.8505(9) 0.9351(7) 0.08105(16)
H7 H 0.8962 1.0411 0.0788
H8 H 0.6886 0.9231 0.0673
C8 C 0.8635(9) 0.8793(5) 0.13671(15)
H9 H 0.9664 0.9448 0.1573
H10 H 0.7039 0.8769 0.1522
C9 C 1.0694(7) 0.6755(5) 0.18265(13)
H11 H 1.1983 0.7445 0.1923
H12 H 1.1403 0.5760 0.1777
C10 C 0.8896(7) 0.6673(5) 0.22657(14)
C11 C 0.6858(8) 0.5776(5) 0.22399(15)
H13 H 0.6534 0.5237 0.1938
C12 C 0.5287(8) 0.5665(6) 0.26556(16)
H14 H 0.3934 0.5043 0.2634
C13 C 0.5741(8) 0.6482(5) 0.31018(17)
H15 H 0.4678 0.6424 0.3380
C14 C 0.7742(9) 0.7370(5) 0.31342(15)
H16 H 0.8059 0.7909 0.3436
C15 C 0.9311(7) 0.7474(5) 0.27171(15)
H17 H 1.0665 0.8094 0.2741
N1 N 1.4864(6) 0.5438(5) 0.08872(11)
H18 H 1.5900 0.5961 0.1059
N2 N 0.9654(6) 0.7261(4) 0.13350(10)
loop_
_geom_bond_atom_site_label_1
_geom_bond_atom_site_label_2
_geom_bond_site_symmetry_1
_geom_bond_site_symmetry_2
C1 H1 1_555 1_555
C2 C1 1_555 1_555
H2 C2 1_555 1_555
C3 C2 1_555 1_555
H3 C3 1_555 1_555
C4 C3 1_555 1_555
C5 C4 1_555 1_555
H4 C5 1_555 1_555
C6 C5 1_555 1_555
H5 C6 1_555 1_555
H6 C6 1_555 1_555
C7 C6 1_555 1_555
H7 C7 1_555 1_555
H8 C7 1_555 1_555
C8 C7 1_555 1_555
H9 C8 1_555 1_555
H10 C8 1_555 1_555
C9 H11 1_555 1_555
H12 C9 1_555 1_555
C10 C9 1_555 1_555
C11 C10 1_555 1_555
H13 C11 1_555 1_555
C12 C11 1_555 1_555
H14 C12 1_555 1_555
C13 C12 1_555 1_555
H15 C13 1_555 1_555
C14 C13 1_555 1_555
H16 C14 1_555 1_555
C15 C10 1_555 1_555
H17 C15 1_555 1_555
N1 C1 1_555 1_555
H18 N1 1_555 1_555
N2 C5 1_555 1_555
C4 N1 1_555 1_555
C8 N2 1_555 1_555
C9 N2 1_555 1_555
C14 C15 1_555 1_555

#END
