
#######################################################################
#
#                 Cambridge Crystallographic Data Centre
#                                CCDC 
#
#######################################################################
#
# If this CIF has been generated from an entry in the Cambridge 
# Structural Database, then it will include bibliographic, chemical, 
# crystal, experimental, refinement or atomic coordinate data resulting 
# from the CCDC's data processing and validation procedures.
#
#######################################################################

data_PURREB
_chemical_formula_moiety         'C13 H10 N2 O1 S1'
_chemical_name_systematic        5-Amino-2-(1,3-benzothiazol-2-yl)phenol
_symmetry_cell_setting           orthorhombic
_symmetry_space_group_name_H-M   'P 21 21 21'
_symmetry_Int_Tables_number      19
_space_group_name_Hall           'P 2ac 2ab'
loop_
_symmetry_equiv_pos_site_id
_symmetry_equiv_pos_as_xyz
1 x,y,z
2 1/2-x,-y,1/2+z
3 -x,1/2+y,1/2-z
4 1/2+x,1/2-y,-z
_cell_length_a                   5.9034(6)
_cell_length_b                   8.5222(9)
_cell_length_c                   22.681(2)
_cell_angle_alpha                90
_cell_angle_beta                 90
_cell_angle_gamma                90
_cell_volume                     1141.08
_exptl_crystal_colour            yellow
_exptl_crystal_description       plate
_cell_formula_units_Z            4
loop_
_atom_site_label
_atom_site_type_symbol
_atom_site_fract_x
_atom_site_fract_y
_atom_site_fract_z
C1 C 0.4711(3) 0.0005(2) 1.02900(8)
C2 C 0.3950(4) -0.0522(3) 1.08363(8)
H1 H 0.2562 -0.0201 1.0988
C3 C 0.5331(4) -0.1540(3) 1.11441(10)
H2 H 0.4849 -0.1925 1.1507
C4 C 0.7429(4) -0.2004(3) 1.09246(10)
H3 H 0.8328 -0.2681 1.1145
C5 C 0.8192(4) -0.1482(2) 1.03892(9)
H4 H 0.9599 -0.1791 1.0246
C6 C 0.6807(3) -0.0471(2) 1.00623(8)
C7 C 0.5703(3) 0.1055(2) 0.93179(8)
C8 C 0.5883(3) 0.1922(2) 0.87736(8)
C9 C 0.7841(3) 0.1747(2) 0.84133(8)
C10 C 0.8088(3) 0.2635(2) 0.79069(8)
H5 H 0.9370 0.2501 0.7674
C11 C 0.6456(3) 0.3725(3) 0.77403(9)
C12 C 0.4497(3) 0.3873(3) 0.80862(9)
H6 H 0.3364 0.4570 0.7974
C13 C 0.4249(3) 0.2998(2) 0.85863(9)
H7 H 0.2942 0.3122 0.8811
N1 N 0.7305(3) 0.01271(18) 0.95124(6)
N2 N 0.6718(4) 0.4621(3) 0.72461(10)
O1 O 0.9497(2) 0.07116(19) 0.85465(6)
H8 H 0.808(2) 0.465(3) 0.7117(10)
H9 H 0.577(4) 0.537(2) 0.7177(11)
H10 H 0.915(5) 0.035(3) 0.8872(7)
S1 S 0.33710(7) 0.12404(6) 0.97900(2)
loop_
_geom_bond_atom_site_label_1
_geom_bond_atom_site_label_2
_geom_bond_site_symmetry_1
_geom_bond_site_symmetry_2
C1 C2 1_555 1_555
C2 H1 1_555 1_555
C3 C2 1_555 1_555
H2 C3 1_555 1_555
C4 C3 1_555 1_555
H3 C4 1_555 1_555
C5 C4 1_555 1_555
H4 C5 1_555 1_555
C6 C1 1_555 1_555
C7 C8 1_555 1_555
C8 C9 1_555 1_555
C9 C10 1_555 1_555
C10 H5 1_555 1_555
C11 C10 1_555 1_555
C12 C11 1_555 1_555
H6 C12 1_555 1_555
C13 C8 1_555 1_555
H7 C13 1_555 1_555
N1 C6 1_555 1_555
N2 C11 1_555 1_555
O1 C9 1_555 1_555
H8 N2 1_555 1_555
H9 N2 1_555 1_555
H10 O1 1_555 1_555
S1 C1 1_555 1_555
C5 C6 1_555 1_555
C7 N1 1_555 1_555
C7 S1 1_555 1_555
C12 C13 1_555 1_555

#END
