
#######################################################################
#
#                 Cambridge Crystallographic Data Centre
#                                CCDC 
#
#######################################################################
#
# If this CIF has been generated from an entry in the Cambridge 
# Structural Database, then it will include bibliographic, chemical, 
# crystal, experimental, refinement or atomic coordinate data resulting 
# from the CCDC's data processing and validation procedures.
#
#######################################################################

data_PURWAC
_chemical_formula_moiety         'C13 H12 N2 O2'
_chemical_name_systematic        N'-(2-furylmethylene)-2-phenylacetohydrazide
_symmetry_cell_setting           monoclinic
_symmetry_space_group_name_H-M   'P 21/c'
_symmetry_Int_Tables_number      14
_space_group_name_Hall           '-P 2ybc'
loop_
_symmetry_equiv_pos_site_id
_symmetry_equiv_pos_as_xyz
1 x,y,z
2 -x,1/2+y,1/2-z
3 -x,-y,-z
4 x,1/2-y,1/2+z
_cell_length_a                   11.619(3)
_cell_length_b                   13.598(3)
_cell_length_c                   7.9216(19)
_cell_angle_alpha                90
_cell_angle_beta                 109.307(4)
_cell_angle_gamma                90
_cell_volume                     1181.19
_exptl_crystal_colour            'light yellow'
_exptl_crystal_description       block
_cell_formula_units_Z            4
loop_
_atom_site_label
_atom_site_type_symbol
_atom_site_fract_x
_atom_site_fract_y
_atom_site_fract_z
O1 O -0.10371(19) 0.91648(17) -0.0017(3)
O2 O 0.34518(15) 0.65322(12) 0.3645(2)
N1 N 0.16754(16) 0.77339(13) 0.1746(2)
N2 N 0.24643(17) 0.72682(13) 0.1042(2)
H1 H 0.2403 0.7357 -0.0059
C1 C -0.1683(3) 0.9610(3) 0.0910(6)
H2 H -0.2397 0.9965 0.0398
C2 C -0.1176(4) 0.9473(3) 0.2572(6)
H3 H -0.1456 0.9707 0.3469
C3 C -0.0084(3) 0.8887(2) 0.2843(4)
H4 H 0.0470 0.8669 0.3917
C4 C -0.0060(2) 0.87385(17) 0.1210(3)
C5 C 0.0822(2) 0.82149(16) 0.0643(3)
H5 H 0.0764 0.8229 -0.0555
C6 C 0.33262(19) 0.66760(14) 0.2082(3)
C7 C 0.4106(2) 0.61729(15) 0.1147(3)
H6 H 0.3931 0.6448 -0.0042
H7 H 0.4960 0.6289 0.1808
C8 C 0.38605(18) 0.50803(14) 0.1006(3)
C9 C 0.4447(2) 0.44642(16) 0.2411(3)
H8 H 0.5016 0.4723 0.3435
C10 C 0.4203(3) 0.34784(17) 0.2322(4)
H9 H 0.4602 0.3075 0.3286
C11 C 0.3386(3) 0.30874(18) 0.0842(4)
H10 H 0.3224 0.2416 0.0791
C12 C 0.2796(3) 0.3674(2) -0.0582(4)
H11 H 0.2239 0.3402 -0.1604
C13 C 0.3031(2) 0.46760(17) -0.0501(3)
H12 H 0.2627 0.5076 -0.1468
loop_
_geom_bond_atom_site_label_1
_geom_bond_atom_site_label_2
_geom_bond_site_symmetry_1
_geom_bond_site_symmetry_2
O1 C1 1_555 1_555
O2 C6 1_555 1_555
N1 N2 1_555 1_555
N2 H1 1_555 1_555
C1 H2 1_555 1_555
C2 C1 1_555 1_555
H3 C2 1_555 1_555
C3 C2 1_555 1_555
H4 C3 1_555 1_555
C4 O1 1_555 1_555
C5 N1 1_555 1_555
H5 C5 1_555 1_555
C6 N2 1_555 1_555
C7 C6 1_555 1_555
H6 C7 1_555 1_555
H7 C7 1_555 1_555
C8 C7 1_555 1_555
C9 C8 1_555 1_555
H8 C9 1_555 1_555
C10 C9 1_555 1_555
H9 C10 1_555 1_555
C11 C10 1_555 1_555
H10 C11 1_555 1_555
C12 C11 1_555 1_555
H11 C12 1_555 1_555
C13 C8 1_555 1_555
H12 C13 1_555 1_555
C3 C4 1_555 1_555
C4 C5 1_555 1_555
C12 C13 1_555 1_555

#END
