
#######################################################################
#
#                 Cambridge Crystallographic Data Centre
#                                CCDC 
#
#######################################################################
#
# If this CIF has been generated from an entry in the Cambridge 
# Structural Database, then it will include bibliographic, chemical, 
# crystal, experimental, refinement or atomic coordinate data resulting 
# from the CCDC's data processing and validation procedures.
#
#######################################################################

data_PUSDIS
_chemical_name_common            
10b-butyl-1-iodo-5,6-dihydropyrrolo[2,1-a]isoquinolin-3(10bH)-one
_chemical_formula_moiety         'C16 H18 I1 N1 O1'
_chemical_name_systematic        
10b-butyl-1-iodo-6,10b-dihydropyrrolo[2,1-a]isoquinolin-3(5H)-one
_symmetry_cell_setting           monoclinic
_symmetry_space_group_name_H-M   'P 21/c'
_symmetry_Int_Tables_number      14
_space_group_name_Hall           '-P 2ybc'
loop_
_symmetry_equiv_pos_site_id
_symmetry_equiv_pos_as_xyz
1 x,y,z
2 -x,1/2+y,1/2-z
3 -x,-y,-z
4 x,1/2-y,1/2+z
_cell_length_a                   8.3222(17)
_cell_length_b                   16.610(3)
_cell_length_c                   11.557(2)
_cell_angle_alpha                90
_cell_angle_beta                 97.27(3)
_cell_angle_gamma                90
_cell_volume                     1584.7
_exptl_crystal_colour            white
_chemical_melting_point          '384-386 K'
_cell_formula_units_Z            4
_exptl_crystal_recrystallization_method 'ethyl acetate/petroleum ether'
loop_
_atom_site_label
_atom_site_type_symbol
_atom_site_fract_x
_atom_site_fract_y
_atom_site_fract_z
I1 I 0.51880(2) 0.179252(13) 0.373483(19)
O1 O -0.1260(3) 0.16253(14) 0.3934(2)
N1 N 0.0120(3) 0.19852(14) 0.2403(2)
C1 C 0.0805(5) 0.4427(2) 0.1821(3)
H1 H -0.0093 0.4765 0.1739
C2 C 0.2320(5) 0.4751(2) 0.1784(4)
H2 H 0.2440 0.5303 0.1689
C3 C 0.3645(5) 0.4260(2) 0.1885(3)
H3 H 0.4671 0.4478 0.1861
C4 C 0.3464(4) 0.34418(19) 0.2024(3)
H4 H 0.4371 0.3110 0.2073
C5 C 0.1947(4) 0.31019(15) 0.2093(3)
C6 C 0.0589(4) 0.36045(18) 0.1980(3)
C7 C -0.1096(4) 0.32885(19) 0.1994(4)
H5 H -0.1838 0.3586 0.1436
H6 H -0.1423 0.3370 0.2762
C8 C -0.1196(3) 0.24030(19) 0.1695(3)
H7 H -0.2230 0.2187 0.1850
H8 H -0.1104 0.2327 0.0874
C9 C 0.1795(3) 0.21890(15) 0.2232(2)
C10 C 0.2691(3) 0.18642(15) 0.3374(3)
C11 C 0.1654(3) 0.15716(18) 0.4058(3)
H9 H 0.1935 0.1318 0.4773
C12 C -0.0010(3) 0.17163(16) 0.3495(3)
C13 C 0.2288(4) 0.17439(16) 0.1158(3)
H10 H 0.1593 0.1927 0.0471
H11 H 0.3389 0.1897 0.1064
C14 C 0.2200(4) 0.08273(18) 0.1206(3)
H12 H 0.2956 0.0635 0.1854
H13 H 0.1119 0.0668 0.1345
C15 C 0.2586(5) 0.0441(2) 0.0102(3)
H14 H 0.3651 0.0618 -0.0048
H15 H 0.1809 0.0624 -0.0540
C16 C 0.2561(6) -0.0478(2) 0.0134(4)
H16 H 0.2825 -0.0686 -0.0593
H17 H 0.1500 -0.0660 0.0257
H18 H 0.3340 -0.0667 0.0759
loop_
_geom_bond_atom_site_label_1
_geom_bond_atom_site_label_2
_geom_bond_site_symmetry_1
_geom_bond_site_symmetry_2
I1 C10 1_555 1_555
O1 C12 1_555 1_555
N1 C8 1_555 1_555
C1 H1 1_555 1_555
C2 C1 1_555 1_555
H2 C2 1_555 1_555
C3 C2 1_555 1_555
H3 C3 1_555 1_555
C4 C3 1_555 1_555
H4 C4 1_555 1_555
C5 C4 1_555 1_555
C6 C1 1_555 1_555
C7 C6 1_555 1_555
H5 C7 1_555 1_555
H6 C7 1_555 1_555
C8 C7 1_555 1_555
H7 C8 1_555 1_555
H8 C8 1_555 1_555
C9 N1 1_555 1_555
C10 C9 1_555 1_555
C11 C10 1_555 1_555
H9 C11 1_555 1_555
C12 N1 1_555 1_555
C13 C9 1_555 1_555
H10 C13 1_555 1_555
H11 C13 1_555 1_555
C14 C13 1_555 1_555
H12 C14 1_555 1_555
H13 C14 1_555 1_555
C15 C14 1_555 1_555
H14 C15 1_555 1_555
H15 C15 1_555 1_555
C16 C15 1_555 1_555
H16 C16 1_555 1_555
H17 C16 1_555 1_555
H18 C16 1_555 1_555
C5 C6 1_555 1_555
C5 C9 1_555 1_555
C11 C12 1_555 1_555

#END
