
#######################################################################
#
#                 Cambridge Crystallographic Data Centre
#                                CCDC 
#
#######################################################################
#
# If this CIF has been generated from an entry in the Cambridge 
# Structural Database, then it will include bibliographic, chemical, 
# crystal, experimental, refinement or atomic coordinate data resulting 
# from the CCDC's data processing and validation procedures.
#
#######################################################################

data_PUSDUE
_chemical_formula_moiety         'C72 H96 N8 O2 Si4'
_chemical_name_systematic        
3-(3-oxo-5,12-bis((tri-isopropylsilyl)ethynyl)-3,4-dihydropyrazino[2,3-b]phenazin-2(1H)-ylidene)-5,12-bis((tri-isopropylsilyl)ethynyl)-3,4-dihydropyrazino[2,3-b]phenazin-2(1H)-one
_symmetry_cell_setting           triclinic
_symmetry_space_group_name_H-M   'P -1'
_symmetry_Int_Tables_number      2
_space_group_name_Hall           '-P 1'
loop_
_symmetry_equiv_pos_site_id
_symmetry_equiv_pos_as_xyz
1 x,y,z
2 -x,-y,-z
_cell_length_a                   7.5111(10)
_cell_length_b                   14.653(2)
_cell_length_c                   17.269(2)
_cell_angle_alpha                96.828(3)
_cell_angle_beta                 90.896(3)
_cell_angle_gamma                100.215(3)
_cell_volume                     1855.92
_cell_formula_units_Z            1
loop_
_atom_site_label
_atom_site_type_symbol
_atom_site_fract_x
_atom_site_fract_y
_atom_site_fract_z
O1 O 0.584657 0.504272 0.357682
C1 C 0.581955 0.446915 0.403388
C2 C 0.526485 0.460166 0.484861
N1 N 0.525386 0.385735 0.529048
H1 H 0.480615 0.390717 0.575835
C3 C 0.589436 0.30584 0.504123
C4 C 0.598539 0.239756 0.55412
C5 C 0.660249 0.154282 0.52581
N2 N 0.666016 0.090119 0.574194
C6 C 0.720349 0.012841 0.54405
C7 C 0.730833 -0.058617 0.593054
H2 H 0.695661 -0.050291 0.645658
C8 C 0.790004 -0.137498 0.565394
H3 H 0.799564 -0.183191 0.599182
C9 C 0.838504 -0.153148 0.485823
H4 H 0.876421 -0.209842 0.466625
C10 C 0.830382 -0.086645 0.437345
H5 H 0.863451 -0.097133 0.384593
C11 C 0.773594 -0.00316 0.465014
N3 N 0.767311 0.062005 0.416059
C12 C 0.713192 0.140734 0.445527
C13 C 0.707364 0.212487 0.39684
C14 C 0.64342 0.290699 0.425293
N4 N 0.632585 0.36209 0.379999
H6 H 0.661244 0.35204 0.330892
C15 C 0.540933 0.254217 0.632614
C16 C 0.483158 0.26929 0.696369
Si1 Si 0.393451 0.278467 0.794354
C17 C 0.422674 0.167085 0.833605
H7 H 0.550699 0.180652 0.854616
C18 C 0.308723 0.159483 0.908127
H8 H 0.18176 0.160119 0.894651
H9 H 0.355048 0.212526 0.947596
H10 H 0.317812 0.10103 0.928928
C19 C 0.414158 0.081897 0.778959
H11 H 0.455912 0.033832 0.805787
H12 H 0.491836 0.095436 0.735156
H13 H 0.289025 0.059387 0.759348
C20 C 0.17679 0.31977 0.789979
H14 H 0.221925 0.385887 0.780835
C21 C 0.097766 0.336249 0.866524
H15 H 0.188737 0.336223 0.907822
H16 H -0.006394 0.286661 0.871126
H17 H 0.058231 0.39686 0.871696
C22 C 0.068638 0.28773 0.720165
H18 H 0.022511 0.220557 0.7181
H19 H 0.142338 0.29942 0.674833
H20 H -0.033263 0.321194 0.71958
C23 C 0.516575 0.383777 0.853706
H21 H 0.424697 0.405635 0.889226
C24 C 0.656139 0.361557 0.906379
H22 H 0.606892 0.304962 0.92961
H23 H 0.691627 0.413784 0.947825
H24 H 0.762236 0.351224 0.876551
C25 C 0.602162 0.465277 0.821946
H25 H 0.509646 0.497438 0.802792
H26 H 0.676713 0.447194 0.77869
H27 H 0.678929 0.507192 0.862537
C26 C 0.769913 0.205856 0.318897
C27 C 0.824968 0.208931 0.253911
Si2 Si 0.929266 0.211743 0.158012
C28 C 1.15703 0.185144 0.172373
H28 H 1.21607 0.18532 0.120876
C29 C 1.14475 0.082713 0.197518
H29 H 1.26713 0.07023 0.205788
H30 H 1.08039 0.036448 0.156198
H31 H 1.07923 0.078683 0.245979
C30 C 1.27785 0.266139 0.232457
H32 H 1.21785 0.271729 0.282343
H33 H 1.29167 0.325705 0.210723
H34 H 1.39741 0.250168 0.240792
C31 C 0.784629 0.120297 0.087473
H35 H 0.780791 0.061018 0.11124
C32 C 0.863052 0.101621 0.009634
H36 H 0.802698 0.040563 -0.016245
H37 H 0.992852 0.101672 0.016423
H38 H 0.84515 0.150352 -0.022435
C33 C 0.591603 0.130205 0.080045
H39 H 0.580586 0.177823 0.045803
H40 H 0.5482 0.149024 0.131696
H41 H 0.518858 0.070294 0.057742
C34 C 0.935737 0.333602 0.132346
H42 H 1.01091 0.375867 0.175025
C35 C 0.757564 0.365658 0.131633
H43 H 0.767451 0.420681 0.103708
H44 H 0.723469 0.381866 0.185392
H45 H 0.66499 0.31544 0.105333
C36 C 1.03723 0.349658 0.057247
H46 H 0.969862 0.309886 0.012855
H47 H 1.15809 0.33395 0.062116
H48 H 1.04852 0.415385 0.048844
O1A O 0.415343 0.495728 0.642318
C1A C 0.418045 0.553085 0.596612
C2A C 0.473515 0.539834 0.515139
N1A N 0.474614 0.614265 0.470952
H1A H 0.519385 0.609283 0.424165
C3A C 0.410564 0.69416 0.495877
C4A C 0.401461 0.760244 0.44588
C5A C 0.339751 0.845718 0.47419
N2A N 0.333984 0.909881 0.425806
C6A C 0.279651 0.987159 0.45595
C7A C 0.269167 1.058617 0.406946
H2A H 0.304339 1.050291 0.354342
C8A C 0.209996 1.137498 0.434606
H3A H 0.200436 1.183191 0.400818
C9A C 0.161496 1.153148 0.514177
H4A H 0.123579 1.209842 0.533375
C10A C 0.169618 1.086645 0.562655
H5A H 0.136549 1.097133 0.615407
C11A C 0.226406 1.00316 0.534986
N3A N 0.232689 0.937995 0.583941
C12A C 0.286808 0.859266 0.554473
C13A C 0.292636 0.787513 0.60316
C14A C 0.35658 0.709301 0.574707
N4A N 0.367415 0.63791 0.620001
H6A H 0.338756 0.64796 0.669108
C15A C 0.459067 0.745783 0.367386
C16A C 0.516842 0.73071 0.303631
Si1A Si 0.606549 0.721533 0.205646
C17A C 0.577326 0.832915 0.166395
H7A H 0.449301 0.819348 0.145384
C18A C 0.691277 0.840517 0.091873
H8A H 0.81824 0.839881 0.105349
H9A H 0.644952 0.787474 0.052404
H10A H 0.682188 0.89897 0.071072
C19A C 0.585842 0.918103 0.221041
H11A H 0.544088 0.966168 0.194213
H12A H 0.508164 0.904564 0.264844
H13A H 0.710975 0.940613 0.240652
C20A C 0.82321 0.68023 0.210021
H14A H 0.778075 0.614113 0.219165
C21A C 0.902234 0.663751 0.133476
H15A H 0.811263 0.663777 0.092178
H16A H 1.006394 0.713339 0.128874
H17A H 0.941769 0.60314 0.128304
C22A C 0.931362 0.71227 0.279835
H18A H 0.977489 0.779443 0.2819
H19A H 0.857662 0.70058 0.325167
H20A H 1.033263 0.678806 0.28042
C23A C 0.483425 0.616223 0.146294
H21A H 0.575303 0.594365 0.110774
C24A C 0.343861 0.638443 0.093621
H22A H 0.393108 0.695038 0.07039
H23A H 0.308373 0.586216 0.052175
H24A H 0.237764 0.648776 0.123449
C25A C 0.397838 0.534723 0.178054
H25A H 0.490354 0.502562 0.197208
H26A H 0.323287 0.552806 0.22131
H27A H 0.321071 0.492808 0.137463
C26A C 0.230087 0.794144 0.681103
C27A C 0.175032 0.791069 0.746089
Si2A Si 0.070734 0.788257 0.841988
C28A C -0.15703 0.814856 0.827627
H28A H -0.21607 0.81468 0.879124
C29A C -0.14475 0.917287 0.802482
H29A H -0.26713 0.92977 0.794212
H30A H -0.08039 0.963552 0.843802
H31A H -0.07923 0.921317 0.754021
C30A C -0.27785 0.733861 0.767543
H32A H -0.21785 0.728271 0.717657
H33A H -0.29167 0.674295 0.789277
H34A H -0.39741 0.749832 0.759208
C31A C 0.215371 0.879703 0.912527
H35A H 0.219209 0.938982 0.88876
C32A C 0.136948 0.898379 0.990366
H36A H 0.197302 0.959437 1.016245
H37A H 0.007148 0.898328 0.983577
H38A H 0.15485 0.849648 1.022435
C33A C 0.408397 0.869795 0.919955
H39A H 0.419414 0.822177 0.954197
H40A H 0.4518 0.850976 0.868304
H41A H 0.481142 0.929706 0.942258
C34A C 0.064263 0.666398 0.867654
H42A H -0.01091 0.624133 0.824975
C35A C 0.242436 0.634342 0.868367
H43A H 0.232549 0.579319 0.896292
H44A H 0.276531 0.618134 0.814608
H45A H 0.33501 0.68456 0.894667
C36A C -0.03723 0.650342 0.942753
H46A H 0.030138 0.690114 0.987145
H47A H -0.15809 0.66605 0.937884
H48A H -0.04852 0.584615 0.951156
loop_
_geom_bond_atom_site_label_1
_geom_bond_atom_site_label_2
_geom_bond_site_symmetry_1
_geom_bond_site_symmetry_2
O1 C1 1_555 1_555
C1 C2 1_555 1_555
C2 N1 1_555 1_555
N1 H1 1_555 1_555
C3 N1 1_555 1_555
C4 C3 1_555 1_555
C5 C4 1_555 1_555
N2 C5 1_555 1_555
C6 N2 1_555 1_555
C7 C6 1_555 1_555
H2 C7 1_555 1_555
C8 C7 1_555 1_555
H3 C8 1_555 1_555
C9 C8 1_555 1_555
H4 C9 1_555 1_555
C10 C9 1_555 1_555
H5 C10 1_555 1_555
C11 C6 1_555 1_555
N3 C11 1_555 1_555
C12 C5 1_555 1_555
C13 C12 1_555 1_555
C14 C3 1_555 1_555
N4 C1 1_555 1_555
H6 N4 1_555 1_555
C15 C4 1_555 1_555
C16 C15 1_555 1_555
Si1 C16 1_555 1_555
C17 Si1 1_555 1_555
H7 C17 1_555 1_555
C18 C17 1_555 1_555
H8 C18 1_555 1_555
H9 C18 1_555 1_555
H10 C18 1_555 1_555
C19 C17 1_555 1_555
H11 C19 1_555 1_555
H12 C19 1_555 1_555
H13 C19 1_555 1_555
C20 Si1 1_555 1_555
H14 C20 1_555 1_555
C21 C20 1_555 1_555
H15 C21 1_555 1_555
H16 C21 1_555 1_555
H17 C21 1_555 1_555
C22 C20 1_555 1_555
H18 C22 1_555 1_555
H19 C22 1_555 1_555
H20 C22 1_555 1_555
C23 Si1 1_555 1_555
H21 C23 1_555 1_555
C24 C23 1_555 1_555
H22 C24 1_555 1_555
H23 C24 1_555 1_555
H24 C24 1_555 1_555
C25 C23 1_555 1_555
H25 C25 1_555 1_555
H26 C25 1_555 1_555
H27 C25 1_555 1_555
C26 C13 1_555 1_555
C27 C26 1_555 1_555
Si2 C27 1_555 1_555
C28 Si2 1_555 1_555
H28 C28 1_555 1_555
C29 C28 1_555 1_555
H29 C29 1_555 1_555
H30 C29 1_555 1_555
H31 C29 1_555 1_555
C30 C28 1_555 1_555
H32 C30 1_555 1_555
H33 C30 1_555 1_555
H34 C30 1_555 1_555
C31 Si2 1_555 1_555
H35 C31 1_555 1_555
C32 C31 1_555 1_555
H36 C32 1_555 1_555
H37 C32 1_555 1_555
H38 C32 1_555 1_555
C33 C31 1_555 1_555
H39 C33 1_555 1_555
H40 C33 1_555 1_555
H41 C33 1_555 1_555
C34 Si2 1_555 1_555
H42 C34 1_555 1_555
C35 C34 1_555 1_555
H43 C35 1_555 1_555
H44 C35 1_555 1_555
H45 C35 1_555 1_555
C36 C34 1_555 1_555
H46 C36 1_555 1_555
H47 C36 1_555 1_555
H48 C36 1_555 1_555
O1A C1A 1_555 1_555
C1A C2A 1_555 1_555
C2A C2 1_555 1_555
N1A C2A 1_555 1_555
H1A N1A 1_555 1_555
C3A N1A 1_555 1_555
C4A C3A 1_555 1_555
C5A C4A 1_555 1_555
N2A C5A 1_555 1_555
C6A N2A 1_555 1_555
C7A C6A 1_555 1_555
H2A C7A 1_555 1_555
C8A C7A 1_555 1_555
H3A C8A 1_555 1_555
C9A C8A 1_555 1_555
H4A C9A 1_555 1_555
C10A C9A 1_555 1_555
H5A C10A 1_555 1_555
C11A C6A 1_555 1_555
N3A C11A 1_555 1_555
C12A C5A 1_555 1_555
C13A C12A 1_555 1_555
C14A C3A 1_555 1_555
N4A C1A 1_555 1_555
H6A N4A 1_555 1_555
C15A C4A 1_555 1_555
C16A C15A 1_555 1_555
Si1A C16A 1_555 1_555
C17A Si1A 1_555 1_555
H7A C17A 1_555 1_555
C18A C17A 1_555 1_555
H8A C18A 1_555 1_555
H9A C18A 1_555 1_555
H10A C18A 1_555 1_555
C19A C17A 1_555 1_555
H11A C19A 1_555 1_555
H12A C19A 1_555 1_555
H13A C19A 1_555 1_555
C20A Si1A 1_555 1_555
H14A C20A 1_555 1_555
C21A C20A 1_555 1_555
H15A C21A 1_555 1_555
H16A C21A 1_555 1_555
H17A C21A 1_555 1_555
C22A C20A 1_555 1_555
H18A C22A 1_555 1_555
H19A C22A 1_555 1_555
H20A C22A 1_555 1_555
C23A Si1A 1_555 1_555
H21A C23A 1_555 1_555
C24A C23A 1_555 1_555
H22A C24A 1_555 1_555
H23A C24A 1_555 1_555
H24A C24A 1_555 1_555
C25A C23A 1_555 1_555
H25A C25A 1_555 1_555
H26A C25A 1_555 1_555
H27A C25A 1_555 1_555
C26A C13A 1_555 1_555
C27A C26A 1_555 1_555
Si2A C27A 1_555 1_555
C28A Si2A 1_555 1_555
H28A C28A 1_555 1_555
C29A C28A 1_555 1_555
H29A C29A 1_555 1_555
H30A C29A 1_555 1_555
H31A C29A 1_555 1_555
C30A C28A 1_555 1_555
H32A C30A 1_555 1_555
H33A C30A 1_555 1_555
H34A C30A 1_555 1_555
C31A Si2A 1_555 1_555
H35A C31A 1_555 1_555
C32A C31A 1_555 1_555
H36A C32A 1_555 1_555
H37A C32A 1_555 1_555
H38A C32A 1_555 1_555
C33A C31A 1_555 1_555
H39A C33A 1_555 1_555
H40A C33A 1_555 1_555
H41A C33A 1_555 1_555
C34A Si2A 1_555 1_555
H42A C34A 1_555 1_555
C35A C34A 1_555 1_555
H43A C35A 1_555 1_555
H44A C35A 1_555 1_555
H45A C35A 1_555 1_555
C36A C34A 1_555 1_555
H46A C36A 1_555 1_555
H47A C36A 1_555 1_555
H48A C36A 1_555 1_555
C10 C11 1_555 1_555
N3 C12 1_555 1_555
C13 C14 1_555 1_555
C14 N4 1_555 1_555
C10A C11A 1_555 1_555
N3A C12A 1_555 1_555
C13A C14A 1_555 1_555
C14A N4A 1_555 1_555

#END
