
#######################################################################
#
#                 Cambridge Crystallographic Data Centre
#                                CCDC 
#
#######################################################################
#
# If this CIF has been generated from an entry in the Cambridge 
# Structural Database, then it will include bibliographic, chemical, 
# crystal, experimental, refinement or atomic coordinate data resulting 
# from the CCDC's data processing and validation procedures.
#
#######################################################################

data_PUSGER
_chemical_formula_moiety         'C92 H114 N8 Si4,2(C7 H8)'
_chemical_name_systematic        
"2,15-di-t-butyl-5,12,18,25-tetrakis((triisopropylsilyl)ethynyl)quinoxalino[2,3-i]quinoxalino[2'',3'':6',7']quinoxalino[2',3':9,10]phenanthro[4,5-abc]phenazine toluene solvate"
_symmetry_cell_setting           triclinic
_symmetry_space_group_name_H-M   'P -1'
_symmetry_Int_Tables_number      2
_space_group_name_Hall           '-P 1'
loop_
_symmetry_equiv_pos_site_id
_symmetry_equiv_pos_as_xyz
1 x,y,z
2 -x,-y,-z
_cell_length_a                   7.2837(12)
_cell_length_b                   16.691(3)
_cell_length_c                   20.047(3)
_cell_angle_alpha                101.820(3)
_cell_angle_beta                 96.972(3)
_cell_angle_gamma                90.375(3)
_cell_volume                     2366.6
_exptl_crystal_colour            red
_exptl_crystal_description       prism
_cell_formula_units_Z            1
loop_
_atom_site_label
_atom_site_type_symbol
_atom_site_fract_x
_atom_site_fract_y
_atom_site_fract_z
C1 C 0.4821(3) 0.04607(14) 0.13119(12)
C2 C 0.4372(3) 0.04681(14) 0.24273(12)
C3 C 0.4450(3) 0.08868(14) 0.31156(12)
C4 C 0.3747(3) 0.04827(14) 0.36000(12)
C5 C 0.3134(3) 0.04993(15) 0.46996(12)
C6 C 0.3168(3) 0.09032(15) 0.54003(13)
H1 H 0.3624 0.1454 0.5547
C7 C 0.2547(3) 0.05004(16) 0.58589(13)
H2 H 0.2581 0.0772 0.6326
C8 C 0.1840(3) -0.03293(15) 0.56473(13)
H3 H 0.1412 -0.0597 0.5977
C9 C 0.1773(3) -0.07380(15) 0.49857(13)
H4 H 0.1304 -0.1288 0.4855
C10 C 0.2412(3) -0.03369(14) 0.44845(12)
C11 C 0.3010(3) -0.03467(14) 0.33884(12)
C12 C 0.3003(3) -0.07733(14) 0.26987(12)
C13 C 0.3703(3) -0.03701(14) 0.22248(12)
C14 C 0.4291(3) -0.04067(14) 0.11219(12)
C15 C 0.4332(3) -0.08586(14) 0.04157(12)
C16 C 0.3926(3) -0.17044(14) 0.02420(12)
H5 H 0.3659 -0.1981 0.0590
C17 C 0.3905(3) -0.21464(15) -0.04226(13)
C18 C 0.4298(3) -0.17201(15) -0.09306(12)
H6 H 0.4270 -0.2011 -0.1392
C19 C 0.4726(3) -0.08836(14) -0.07725(12)
C20 C 0.4769(3) -0.04380(14) -0.00900(12)
C21 C 0.3425(4) -0.30676(15) -0.06311(14)
C22 C 0.3109(5) -0.34306(17) -0.00081(15)
H7 H 0.4229 -0.3342 0.0326
H8 H 0.2825 -0.4019 -0.0158
H9 H 0.2071 -0.3162 0.0206
C23 C 0.1660(4) -0.32008(18) -0.11440(16)
H10 H 0.0637 -0.2924 -0.0926
H11 H 0.1358 -0.3789 -0.1290
H12 H 0.1854 -0.2975 -0.1545
C24 C 0.5033(4) -0.35151(17) -0.09581(16)
H13 H 0.5253 -0.3301 -0.1362
H14 H 0.4721 -0.4102 -0.1097
H15 H 0.6152 -0.3428 -0.0624
C25 C 0.5261(3) 0.16961(15) 0.33543(12)
C26 C 0.5994(4) 0.23577(16) 0.36085(14)
C27 C 0.6225(10) 0.3646(4) 0.4935(2)
H16 H 0.4983 0.3892 0.4874
C28 C 0.6010(11) 0.2902(4) 0.5271(3)
H17 H 0.7235 0.2698 0.5398
H18 H 0.5267 0.2467 0.4944
H19 H 0.5392 0.3067 0.5683
C29 C 0.7531(5) 0.42888(18) 0.54381(16)
H20 H 0.7044 0.4427 0.5881
H21 H 0.7614 0.4783 0.5249
H22 H 0.8764 0.4064 0.5504
C30 C 0.9636(4) 0.32938(19) 0.40431(17)
H23 H 1.0212 0.3829 0.4305
C31 C 1.0422(6) 0.2624(2) 0.4414(2)
H24 H 0.9767 0.2101 0.4207
H25 H 1.0258 0.2775 0.4901
H26 H 1.1743 0.2571 0.4369
C32 C 1.0164(5) 0.3169(2) 0.3314(2)
H27 H 1.1492 0.3073 0.3324
H28 H 0.9874 0.3659 0.3128
H29 H 0.9463 0.2695 0.3022
C33 C 0.5927(6) 0.4158(2) 0.3613(3)
H30 H 0.4679 0.4250 0.3770
C34 C 0.5622(7) 0.3865(2) 0.2825(2)
H31 H 0.4817 0.4243 0.2621
H32 H 0.5038 0.3315 0.2707
H33 H 0.6816 0.3851 0.2645
C35 C 0.6989(5) 0.49898(18) 0.37969(19)
H34 H 0.8243 0.4918 0.3669
H35 H 0.7056 0.5208 0.4292
H36 H 0.6343 0.5373 0.3547
C36 C 0.2204(3) -0.15827(15) 0.24865(12)
C37 C 0.1458(3) -0.22552(15) 0.23260(12)
C38 C -0.1804(4) -0.30660(16) 0.27085(14)
H37 H -0.2571 -0.3585 0.2613
C39 C -0.3080(4) -0.23768(17) 0.25528(15)
H38 H -0.4039 -0.2306 0.2861
H39 H -0.3664 -0.2522 0.2075
H40 H -0.2350 -0.1865 0.2623
C40 C -0.1018(4) -0.28828(19) 0.34725(14)
H41 H -0.0183 -0.2399 0.3571
H42 H -0.0334 -0.3354 0.3580
H43 H -0.2036 -0.2779 0.3754
C41 C 0.1764(4) -0.40118(16) 0.24132(14)
H44 H 0.2371 -0.3762 0.2885
C42 C 0.3320(4) -0.41692(19) 0.19565(17)
H45 H 0.4252 -0.4506 0.2152
H46 H 0.3895 -0.3646 0.1931
H47 H 0.2807 -0.4457 0.1494
C43 C 0.0829(5) -0.48199(18) 0.24672(19)
H48 H 0.0335 -0.5121 0.2007
H49 H -0.0184 -0.4703 0.2749
H50 H 0.1739 -0.5152 0.2680
C44 C -0.0710(4) -0.34997(16) 0.11969(14)
H51 H 0.0365 -0.3741 0.0969
C45 C -0.1264(4) -0.27593(17) 0.08775(15)
H52 H -0.1509 -0.2936 0.0377
H53 H -0.0255 -0.2344 0.0996
H54 H -0.2382 -0.2526 0.1056
C46 C -0.2260(4) -0.41652(18) 0.10132(15)
H55 H -0.3370 -0.3951 0.1210
H56 H -0.1856 -0.4643 0.1200
H57 H -0.2542 -0.4326 0.0513
N1 N 0.4885(3) 0.08736(12) 0.19457(10)
N2 N 0.3777(3) 0.08988(12) 0.42557(10)
N3 N 0.2331(3) -0.07452(12) 0.38361(10)
N4 N 0.3727(3) -0.07999(12) 0.15698(10)
Si1 Si 0.70632(12) 0.33620(5) 0.40559(4)
Si2 Si 0.01242(9) -0.32304(4) 0.21487(4)
C1A C 0.5179(3) -0.04607(14) -0.13119(12)
C2A C 0.5628(3) -0.04681(14) -0.24273(12)
C3A C 0.5550(3) -0.08868(14) -0.31156(12)
C4A C 0.6253(3) -0.04827(14) -0.36000(12)
C5A C 0.6866(3) -0.04993(15) -0.46996(12)
C6A C 0.6832(3) -0.09032(15) -0.54003(13)
H1A H 0.6376 -0.1454 -0.5547
C7A C 0.7453(3) -0.05004(16) -0.58589(13)
H2A H 0.7419 -0.0772 -0.6326
C8A C 0.8160(3) 0.03293(15) -0.56473(13)
H3A H 0.8588 0.0597 -0.5977
C9A C 0.8227(3) 0.07380(15) -0.49857(13)
H4A H 0.8696 0.1288 -0.4855
C10A C 0.7588(3) 0.03369(14) -0.44845(12)
C11A C 0.6990(3) 0.03467(14) -0.33884(12)
C12A C 0.6997(3) 0.07733(14) -0.26987(12)
C13A C 0.6297(3) 0.03701(14) -0.22248(12)
C14A C 0.5709(3) 0.04067(14) -0.11219(12)
C15A C 0.5668(3) 0.08586(14) -0.04157(12)
C16A C 0.6074(3) 0.17044(14) -0.02420(12)
H5A H 0.6341 0.1981 -0.0590
C17A C 0.6095(3) 0.21464(15) 0.04226(13)
C18A C 0.5702(3) 0.17201(15) 0.09306(12)
H6A H 0.5730 0.2011 0.1392
C19A C 0.5274(3) 0.08836(14) 0.07725(12)
C20A C 0.5231(3) 0.04380(14) 0.00900(12)
C21A C 0.6575(4) 0.30676(15) 0.06311(14)
C22A C 0.6891(5) 0.34306(17) 0.00081(15)
H7A H 0.5771 0.3342 -0.0326
H8A H 0.7175 0.4019 0.0158
H9A H 0.7929 0.3162 -0.0206
C23A C 0.8340(4) 0.32008(18) 0.11440(16)
H10A H 0.9363 0.2924 0.0926
H11A H 0.8642 0.3789 0.1290
H12A H 0.8146 0.2975 0.1545
C24A C 0.4967(4) 0.35151(17) 0.09581(16)
H13A H 0.4747 0.3301 0.1362
H14A H 0.5279 0.4102 0.1097
H15A H 0.3848 0.3428 0.0624
C25A C 0.4739(3) -0.16961(15) -0.33543(12)
C26A C 0.4006(4) -0.23577(16) -0.36085(14)
C27A C 0.3775(10) -0.3646(4) -0.4935(2)
H16A H 0.5017 -0.3892 -0.4874
C28A C 0.3990(11) -0.2902(4) -0.5271(3)
H17A H 0.2765 -0.2698 -0.5398
H18A H 0.4733 -0.2467 -0.4944
H19A H 0.4608 -0.3067 -0.5683
C29A C 0.2469(5) -0.42888(18) -0.54381(16)
H20A H 0.2956 -0.4427 -0.5881
H21A H 0.2386 -0.4783 -0.5249
H22A H 0.1236 -0.4064 -0.5504
C30A C 0.0364(4) -0.32938(19) -0.40431(17)
H23A H -0.0212 -0.3829 -0.4305
C31A C -0.0422(6) -0.2624(2) -0.4414(2)
H24A H 0.0233 -0.2101 -0.4207
H25A H -0.0258 -0.2775 -0.4901
H26A H -0.1743 -0.2571 -0.4369
C32A C -0.0164(5) -0.3169(2) -0.3314(2)
H27A H -0.1492 -0.3073 -0.3324
H28A H 0.0126 -0.3659 -0.3128
H29A H 0.0537 -0.2695 -0.3022
C33A C 0.4073(6) -0.4158(2) -0.3613(3)
H30A H 0.5321 -0.4250 -0.3770
C34A C 0.4378(7) -0.3865(2) -0.2825(2)
H31A H 0.5183 -0.4243 -0.2621
H32A H 0.4962 -0.3315 -0.2707
H33A H 0.3184 -0.3851 -0.2645
C35A C 0.3011(5) -0.49898(18) -0.37969(19)
H34A H 0.1757 -0.4918 -0.3669
H35A H 0.2944 -0.5208 -0.4292
H36A H 0.3657 -0.5373 -0.3547
C36A C 0.7796(3) 0.15827(15) -0.24865(12)
C37A C 0.8542(3) 0.22552(15) -0.23260(12)
C38A C 1.1804(4) 0.30660(16) -0.27085(14)
H37A H 1.2571 0.3585 -0.2613
C39A C 1.3080(4) 0.23768(17) -0.25528(15)
H38A H 1.4039 0.2306 -0.2861
H39A H 1.3664 0.2522 -0.2075
H40A H 1.2350 0.1865 -0.2623
C40A C 1.1018(4) 0.28828(19) -0.34725(14)
H41A H 1.0183 0.2399 -0.3571
H42A H 1.0334 0.3354 -0.3580
H43A H 1.2036 0.2779 -0.3754
C41A C 0.8236(4) 0.40118(16) -0.24132(14)
H44A H 0.7629 0.3762 -0.2885
C42A C 0.6680(4) 0.41692(19) -0.19565(17)
H45A H 0.5748 0.4506 -0.2152
H46A H 0.6105 0.3646 -0.1931
H47A H 0.7193 0.4457 -0.1494
C43A C 0.9171(5) 0.48199(18) -0.24672(19)
H48A H 0.9665 0.5121 -0.2007
H49A H 1.0184 0.4703 -0.2749
H50A H 0.8261 0.5152 -0.2680
C44A C 1.0710(4) 0.34997(16) -0.11969(14)
H51A H 0.9635 0.3741 -0.0969
C45A C 1.1264(4) 0.27593(17) -0.08775(15)
H52A H 1.1509 0.2936 -0.0377
H53A H 1.0255 0.2344 -0.0996
H54A H 1.2382 0.2526 -0.1056
C46A C 1.2260(4) 0.41652(18) -0.10132(15)
H55A H 1.3370 0.3951 -0.1210
H56A H 1.1856 0.4643 -0.1200
H57A H 1.2542 0.4326 -0.0513
N1A N 0.5115(3) -0.08736(12) -0.19457(10)
N2A N 0.6223(3) -0.08988(12) -0.42557(10)
N3A N 0.7669(3) 0.07452(12) -0.38361(10)
N4A N 0.6273(3) 0.07999(12) -0.15698(10)
Si1A Si 0.29368(12) -0.33620(5) -0.40559(4)
Si2A Si 0.98758(9) 0.32304(4) -0.21487(4)
C51 C -0.0078(4) 0.06302(19) 0.13321(15)
C52 C 0.0043(4) 0.11150(19) 0.19812(16)
H72 H 0.0491 0.1666 0.2055
C53 C -0.0478(4) 0.08155(19) 0.25290(15)
H73 H -0.0383 0.1161 0.2973
C54 C -0.1132(4) 0.00191(18) 0.24323(15)
H74 H -0.1488 -0.0184 0.2809
C55 C -0.1272(4) -0.04841(19) 0.17882(15)
H75 H -0.1728 -0.1033 0.1722
C56 C -0.0748(4) -0.01915(19) 0.12374(15)
H76 H -0.0838 -0.0541 0.0796
C57 C 0.0451(4) 0.0955(2) 0.07325(16)
H77 H -0.0671 0.1065 0.0447
H78 H 0.1170 0.0548 0.0458
H79 H 0.1197 0.1463 0.0902
C47? C 0.705(3) 0.3389(9) 0.5012(6)
H58? H 0.7984 0.3005 0.5165
C48? C 0.515(3) 0.3145(11) 0.5142(9)
H59? H 0.5148 0.3165 0.5634
H60? H 0.4823 0.2587 0.4884
H61? H 0.4245 0.3524 0.4992
H62? H 0.6689 0.4670 0.5256
H63? H 0.8810 0.4441 0.5400
H64? H 0.7389 0.4312 0.5922
C49? C 0.651(4) 0.4084(15) 0.3416(14)
H65? H 0.7300 0.3939 0.3038
C50? C 0.461(3) 0.3980(14) 0.3122(13)
H66? H 0.3818 0.4045 0.3489
H67? H 0.4402 0.3431 0.2830
H68? H 0.4317 0.4392 0.2844
H69? H 0.6818 0.5350 0.3467
H70? H 0.8279 0.5034 0.4010
H71? H 0.6172 0.5152 0.4152
loop_
_geom_bond_atom_site_label_1
_geom_bond_atom_site_label_2
_geom_bond_site_symmetry_1
_geom_bond_site_symmetry_2
C1 C14 1_555 1_555
C2 C3 1_555 1_555
C3 C4 1_555 1_555
C4 C11 1_555 1_555
C5 C6 1_555 1_555
C6 H1 1_555 1_555
C7 C6 1_555 1_555
H2 C7 1_555 1_555
C8 C7 1_555 1_555
H3 C8 1_555 1_555
C9 C8 1_555 1_555
H4 C9 1_555 1_555
C10 C5 1_555 1_555
C11 C12 1_555 1_555
C12 C13 1_555 1_555
C13 C2 1_555 1_555
C14 C15 1_555 1_555
C15 C16 1_555 1_555
C16 H5 1_555 1_555
C17 C16 1_555 1_555
C18 C17 1_555 1_555
H6 C18 1_555 1_555
C19 C18 1_555 1_555
C20 C15 1_555 1_555
C21 C17 1_555 1_555
C22 C21 1_555 1_555
H7 C22 1_555 1_555
H8 C22 1_555 1_555
H9 C22 1_555 1_555
C23 C21 1_555 1_555
H10 C23 1_555 1_555
H11 C23 1_555 1_555
H12 C23 1_555 1_555
C24 C21 1_555 1_555
H13 C24 1_555 1_555
H14 C24 1_555 1_555
H15 C24 1_555 1_555
C25 C3 1_555 1_555
C26 C25 1_555 1_555
C27 H16 1_555 1_555
C28 C27 1_555 1_555
H17 C28 1_555 1_555
H18 C28 1_555 1_555
H19 C28 1_555 1_555
C29 C27 1_555 1_555
H20 C29 1_555 1_555
H21 C29 1_555 1_555
H22 C29 1_555 1_555
C30 H23 1_555 1_555
C31 C30 1_555 1_555
H24 C31 1_555 1_555
H25 C31 1_555 1_555
H26 C31 1_555 1_555
C32 C30 1_555 1_555
H27 C32 1_555 1_555
H28 C32 1_555 1_555
H29 C32 1_555 1_555
C33 H30 1_555 1_555
C34 C33 1_555 1_555
H31 C34 1_555 1_555
H32 C34 1_555 1_555
H33 C34 1_555 1_555
C35 C33 1_555 1_555
H34 C35 1_555 1_555
H35 C35 1_555 1_555
H36 C35 1_555 1_555
C36 C12 1_555 1_555
C37 C36 1_555 1_555
C38 H37 1_555 1_555
C39 C38 1_555 1_555
H38 C39 1_555 1_555
H39 C39 1_555 1_555
H40 C39 1_555 1_555
C40 C38 1_555 1_555
H41 C40 1_555 1_555
H42 C40 1_555 1_555
H43 C40 1_555 1_555
C41 H44 1_555 1_555
C42 C41 1_555 1_555
H45 C42 1_555 1_555
H46 C42 1_555 1_555
H47 C42 1_555 1_555
C43 C41 1_555 1_555
H48 C43 1_555 1_555
H49 C43 1_555 1_555
H50 C43 1_555 1_555
C44 H51 1_555 1_555
C45 C44 1_555 1_555
H52 C45 1_555 1_555
H53 C45 1_555 1_555
H54 C45 1_555 1_555
C46 C44 1_555 1_555
H55 C46 1_555 1_555
H56 C46 1_555 1_555
H57 C46 1_555 1_555
N1 C1 1_555 1_555
N2 C4 1_555 1_555
N3 C10 1_555 1_555
N4 C13 1_555 1_555
Si1 C26 1_555 1_555
Si2 C37 1_555 1_555
C51 C52 1_555 1_555
C52 H72 1_555 1_555
C53 C52 1_555 1_555
H73 C53 1_555 1_555
C54 C53 1_555 1_555
H74 C54 1_555 1_555
C55 C54 1_555 1_555
H75 C55 1_555 1_555
C56 C51 1_555 1_555
H76 C56 1_555 1_555
C57 C51 1_555 1_555
H77 C57 1_555 1_555
H78 C57 1_555 1_555
H79 C57 1_555 1_555
C1A C19 1_555 1_555
C2A C3A 1_555 1_555
C3A C4A 1_555 1_555
C4A C11A 1_555 1_555
C5A C6A 1_555 1_555
C6A H1A 1_555 1_555
C7A C6A 1_555 1_555
H2A C7A 1_555 1_555
C8A C7A 1_555 1_555
H3A C8A 1_555 1_555
C9A C8A 1_555 1_555
H4A C9A 1_555 1_555
C10A C5A 1_555 1_555
C11A C12A 1_555 1_555
C12A C13A 1_555 1_555
C13A C2A 1_555 1_555
C14A C1A 1_555 1_555
C15A C14A 1_555 1_555
C16A C15A 1_555 1_555
H5A C16A 1_555 1_555
C17A C16A 1_555 1_555
C18A C17A 1_555 1_555
H6A C18A 1_555 1_555
C19A C1 1_555 1_555
C20A C20 1_555 1_555
C21A C17A 1_555 1_555
C22A C21A 1_555 1_555
H7A C22A 1_555 1_555
H8A C22A 1_555 1_555
H9A C22A 1_555 1_555
C23A C21A 1_555 1_555
H10A C23A 1_555 1_555
H11A C23A 1_555 1_555
H12A C23A 1_555 1_555
C24A C21A 1_555 1_555
H13A C24A 1_555 1_555
H14A C24A 1_555 1_555
H15A C24A 1_555 1_555
C25A C3A 1_555 1_555
C26A C25A 1_555 1_555
C27A H16A 1_555 1_555
C28A C27A 1_555 1_555
H17A C28A 1_555 1_555
H18A C28A 1_555 1_555
H19A C28A 1_555 1_555
C29A C27A 1_555 1_555
H20A C29A 1_555 1_555
H21A C29A 1_555 1_555
H22A C29A 1_555 1_555
C30A H23A 1_555 1_555
C31A C30A 1_555 1_555
H24A C31A 1_555 1_555
H25A C31A 1_555 1_555
H26A C31A 1_555 1_555
C32A C30A 1_555 1_555
H27A C32A 1_555 1_555
H28A C32A 1_555 1_555
H29A C32A 1_555 1_555
C33A H30A 1_555 1_555
C34A C33A 1_555 1_555
H31A C34A 1_555 1_555
H32A C34A 1_555 1_555
H33A C34A 1_555 1_555
C35A C33A 1_555 1_555
H34A C35A 1_555 1_555
H35A C35A 1_555 1_555
H36A C35A 1_555 1_555
C36A C12A 1_555 1_555
C37A C36A 1_555 1_555
C38A H37A 1_555 1_555
C39A C38A 1_555 1_555
H38A C39A 1_555 1_555
H39A C39A 1_555 1_555
H40A C39A 1_555 1_555
C40A C38A 1_555 1_555
H41A C40A 1_555 1_555
H42A C40A 1_555 1_555
H43A C40A 1_555 1_555
C41A H44A 1_555 1_555
C42A C41A 1_555 1_555
H45A C42A 1_555 1_555
H46A C42A 1_555 1_555
H47A C42A 1_555 1_555
C43A C41A 1_555 1_555
H48A C43A 1_555 1_555
H49A C43A 1_555 1_555
H50A C43A 1_555 1_555
C44A H51A 1_555 1_555
C45A C44A 1_555 1_555
H52A C45A 1_555 1_555
H53A C45A 1_555 1_555
H54A C45A 1_555 1_555
C46A C44A 1_555 1_555
H55A C46A 1_555 1_555
H56A C46A 1_555 1_555
H57A C46A 1_555 1_555
N1A C1A 1_555 1_555
N2A C4A 1_555 1_555
N3A C10A 1_555 1_555
N4A C13A 1_555 1_555
Si1A C26A 1_555 1_555
Si2A C37A 1_555 1_555
C2 N1 1_555 1_555
C5 N2 1_555 1_555
C9 C10 1_555 1_555
C11 N3 1_555 1_555
C14 N4 1_555 1_555
C19 C20 1_555 1_555
C27 Si1 1_555 1_555
C30 Si1 1_555 1_555
C33 Si1 1_555 1_555
C38 Si2 1_555 1_555
C41 Si2 1_555 1_555
C44 Si2 1_555 1_555
C55 C56 1_555 1_555
C2A N1A 1_555 1_555
C5A N2A 1_555 1_555
C9A C10A 1_555 1_555
C11A N3A 1_555 1_555
C14A N4A 1_555 1_555
C15A C20A 1_555 1_555
C18A C19A 1_555 1_555
C19A C20A 1_555 1_555
C27A Si1A 1_555 1_555
C30A Si1A 1_555 1_555
C33A Si1A 1_555 1_555
C38A Si2A 1_555 1_555
C41A Si2A 1_555 1_555
C44A Si2A 1_555 1_555

#END
