
#######################################################################
#
#                 Cambridge Crystallographic Data Centre
#                                CCDC 
#
#######################################################################
#
# If this CIF has been generated from an entry in the Cambridge 
# Structural Database, then it will include bibliographic, chemical, 
# crystal, experimental, refinement or atomic coordinate data resulting 
# from the CCDC's data processing and validation procedures.
#
#######################################################################

data_PUSGIV
_chemical_formula_moiety         'C88 H114 N4 Si4'
_chemical_name_systematic        
2,13-di-t-butyl-5,10,16,21-tetrakis((triisopropylsilyl)ethynyl)benzo[i]benzo[6',7']quinoxalino[2',3':9,10]phenanthro[4,5-abc]phenazine
_symmetry_cell_setting           monoclinic
_symmetry_space_group_name_H-M   'P 21/c'
_symmetry_Int_Tables_number      14
_space_group_name_Hall           '-P 2ybc'
loop_
_symmetry_equiv_pos_site_id
_symmetry_equiv_pos_as_xyz
1 x,y,z
2 -x,1/2+y,1/2-z
3 -x,-y,-z
4 x,1/2-y,1/2+z
_cell_length_a                   17.667(3)
_cell_length_b                   11.0438(19)
_cell_length_c                   61.235(11)
_cell_angle_alpha                90
_cell_angle_beta                 90.711(3)
_cell_angle_gamma                90
_cell_volume                     11946.7
_cell_formula_units_Z            6
loop_
_atom_site_label
_atom_site_type_symbol
_atom_site_fract_x
_atom_site_fract_y
_atom_site_fract_z
C1 C 0.7766(5) 0.4533(8) 0.2710(1)
C2 C 0.8365(5) 0.4453(9) 0.2557(1)
C3 C 0.8192(6) 0.4358(10) 0.2331(2)
C4 C 0.8777(7) 0.4301(13) 0.2170(2)
H1 H 0.9288 0.4430 0.2214
C5 C 0.8617(7) 0.4071(12) 0.1960(2)
H2 H 0.9014 0.3915 0.1860
C6 C 0.7852(7) 0.4062(14) 0.1885(2)
H3 H 0.7736 0.3907 0.1735
C7 C 0.7301(7) 0.4272(12) 0.2025(2)
H4 H 0.6799 0.4364 0.1971
C8 C 0.7440(6) 0.4366(10) 0.2260(2)
C9 C 0.6830(5) 0.4410(9) 0.2406(1)
C10 C 0.6987(5) 0.4493(8) 0.2631(1)
C11 C 0.6587(5) 0.4681(8) 0.2987(2)
C12 C 0.5957(5) 0.4811(8) 0.3138(1)
C13 C 0.5217(5) 0.4756(9) 0.3068(2)
H5 H 0.5118 0.4634 0.2917
C14 C 0.4607(5) 0.4870(9) 0.3207(1)
C15 C 0.4772(5) 0.5103(9) 0.3426(2)
H6 H 0.4368 0.5212 0.3525
C16 C 0.5519(5) 0.5182(8) 0.3504(1)
C17 C 0.5668(5) 0.5397(8) 0.3738(1)
C18 C 0.5260(5) 0.5743(9) 0.4085(2)
C19 C 0.4663(5) 0.5946(9) 0.4232(1)
C20 C 0.4819(5) 0.6089(9) 0.4453(2)
C21 C 0.4232(6) 0.6305(10) 0.4608(2)
H7 H 0.3722 0.6356 0.4558
C22 C 0.4389(6) 0.6440(12) 0.4824(2)
H8 H 0.3988 0.6586 0.4923
C23 C 0.5143(6) 0.6364(12) 0.4905(2)
H9 H 0.5244 0.6444 0.5057
C24 C 0.5712(6) 0.6181(10) 0.4767(2)
H10 H 0.6215 0.6164 0.4824
C25 C 0.5590(5) 0.6007(10) 0.4534(2)
C26 C 0.6181(5) 0.5779(8) 0.4390(2)
C27 C 0.6019(5) 0.5661(9) 0.4164(2)
C28 C 0.6442(5) 0.5344(8) 0.3819(1)
C29 C 0.7059(5) 0.5177(8) 0.3664(1)
C30 C 0.7821(5) 0.5176(9) 0.3738(2)
H11 H 0.7923 0.5292 0.3889
C31 C 0.8424(4) 0.5012(7) 0.3598(1)
C32 C 0.8259(5) 0.4887(8) 0.3377(2)
H12 H 0.8664 0.4813 0.3277
C33 C 0.7508(5) 0.4868(9) 0.3296(1)
C34 C 0.7350(5) 0.4727(8) 0.3063(1)
C35 C 0.6902(5) 0.5025(8) 0.3442(2)
C36 C 0.6113(5) 0.5012(8) 0.3363(1)
C37 C 0.9144(6) 0.4463(9) 0.2627(2)
C38 C 0.9827(6) 0.4505(9) 0.2651(2)
C39 C 1.1210(6) 0.4589(11) 0.2943(2)
H13 H 1.1774 0.4534 0.2940
C40 C 1.1014(7) 0.5803(13) 0.3054(2)
H14 H 1.1201 0.6475 0.2965
H15 H 1.0464 0.5871 0.3069
H16 H 1.1254 0.5835 0.3199
C41 C 1.0925(7) 0.3476(14) 0.3078(2)
H17 H 1.1059 0.2725 0.3003
H18 H 1.1163 0.3485 0.3224
H19 H 1.0374 0.3522 0.3093
C42 C 1.1152(7) 0.3055(12) 0.2515(2)
H20 H 1.0869 0.2418 0.2597
C43 C 1.1972(7) 0.2747(14) 0.2555(3)
H21 H 1.2100 0.2877 0.2710
H22 H 1.2060 0.1897 0.2517
H23 H 1.2291 0.3266 0.2465
C44 C 1.0909(8) 0.2879(11) 0.2281(2)
H24 H 1.0373 0.3092 0.2264
H25 H 1.1213 0.3401 0.2187
H26 H 1.0982 0.2031 0.2239
C45 C 1.1154(5) 0.5943(11) 0.2509(2)
H27 H 1.0922 0.6615 0.2595
C46 C 1.2027(7) 0.6171(14) 0.2523(3)
H28 H 1.2206 0.6056 0.2673
H29 H 1.2287 0.5599 0.2427
H30 H 1.2137 0.7001 0.2476
C47 C 1.0859(8) 0.6116(11) 0.2275(2)
H31 H 1.0312 0.5970 0.2270
H32 H 1.0963 0.6946 0.2228
H33 H 1.1113 0.5544 0.2179
C48 C 0.6057(6) 0.4445(9) 0.2329(2)
C49 C 0.5435(6) 0.4453(9) 0.2247(2)
C50 C 0.4761(8) 0.4830(11) 0.1805(2)
H34 H 0.4277 0.4966 0.1722
C51 C 0.5243(10) 0.5968(13) 0.1784(2)
H35 H 0.4977 0.6656 0.1849
H36 H 0.5728 0.5847 0.1861
H37 H 0.5335 0.6133 0.1629
C52 C 0.5156(8) 0.3728(12) 0.1706(2)
H38 H 0.4833 0.3012 0.1721
H39 H 0.5247 0.3877 0.1550
H40 H 0.5640 0.3590 0.1781
C53 C 0.4034(6) 0.3043(10) 0.2129(2)
H41 H 0.4380 0.2415 0.2068
C54 C 0.3289(7) 0.2957(12) 0.2001(2)
H42 H 0.3375 0.3159 0.1848
H43 H 0.3091 0.2130 0.2011
H44 H 0.2923 0.3525 0.2062
C55 C 0.3921(7) 0.2731(12) 0.2371(2)
H45 H 0.4406 0.2793 0.2449
H46 H 0.3558 0.3298 0.2434
H47 H 0.3726 0.1903 0.2383
C56 C 0.3944(8) 0.5792(12) 0.2219(2)
H48 H 0.3601 0.5339 0.2319
C57 C 0.4308(9) 0.6612(13) 0.2365(2)
H49 H 0.4653 0.6164 0.2462
H50 H 0.4595 0.7209 0.2282
H51 H 0.3926 0.7027 0.2452
C58 C 0.3389(6) 0.6341(9) 0.2057(2)
H52 H 0.3173 0.5700 0.1965
H53 H 0.2983 0.6749 0.2136
H54 H 0.3652 0.6930 0.1965
C59 C 0.3899(6) 0.6047(10) 0.4151(2)
C60 C 0.3228(6) 0.6197(9) 0.4102(2)
C61 C 0.1697(6) 0.5188(10) 0.3974(2)
H55 H 0.1175 0.5461 0.3933
C62 C 0.2011(8) 0.4514(16) 0.3777(2)
H56 H 0.2057 0.5076 0.3654
H57 H 0.2510 0.4180 0.3814
H58 H 0.1666 0.3854 0.3736
C63 C 0.1616(8) 0.4363(12) 0.4167(3)
H59 H 0.1414 0.4820 0.4290
H60 H 0.1268 0.3702 0.4129
H61 H 0.2112 0.4028 0.4207
C64 C 0.2241(11) 0.7915(19) 0.3851(4)
H62 H 0.2248 0.8645 0.3947
C65 C 0.1476(12) 0.798(2) 0.3705(4)
H63 H 0.1036 0.7915 0.3800
H64 H 0.1457 0.8751 0.3626
H65 H 0.1469 0.7310 0.3600
C66 C 0.1850(5) 0.7384(16) 0.4264(2)
H66 H 0.1775 0.6623 0.4349
C67 C 0.2276(7) 0.7965(17) 0.4442(2)
H67 H 0.2810 0.7733 0.4434
H68 H 0.2231 0.8846 0.4429
H69 H 0.2072 0.7704 0.4582
C68 C 0.1012(5) 0.7627(12) 0.4247(2)
H70 H 0.0798 0.7186 0.4122
H71 H 0.0767 0.7354 0.4381
H72 H 0.0926 0.8497 0.4228
C69 C 0.2915(7) 0.8015(13) 0.3701(2)
H73 H 0.3384 0.7977 0.3788
H74 H 0.2905 0.7345 0.3596
H75 H 0.2893 0.8787 0.3622
C70 C 0.6949(5) 0.5652(8) 0.4471(2)
C71 C 0.7571(5) 0.5537(8) 0.4555(1)
C72 C 0.8448(6) 0.4864(9) 0.4962(2)
H76 H 0.8973 0.4733 0.5020
C73 C 0.8079(7) 0.5860(11) 0.5105(2)
H77 H 0.8361 0.6618 0.5090
H78 H 0.7553 0.5984 0.5057
H79 H 0.8089 0.5605 0.5258
C74 C 0.8024(7) 0.3647(11) 0.4980(2)
H80 H 0.8272 0.3042 0.4888
H81 H 0.8034 0.3374 0.5132
H82 H 0.7498 0.3753 0.4931
C75 C 0.9040(5) 0.4224(9) 0.4494(1)
H83 H 0.9245 0.4683 0.4367
C76 C 0.9720(6) 0.3635(10) 0.4609(2)
H84 H 1.0048 0.4266 0.4671
H85 H 0.9542 0.3107 0.4726
H86 H 1.0005 0.3156 0.4504
C77 C 0.8533(6) 0.3224(10) 0.4399(2)
H87 H 0.8095 0.3591 0.4325
H88 H 0.8821 0.2746 0.4294
H89 H 0.8359 0.2697 0.4517
C78 C 0.8998(5) 0.6862(9) 0.4648(2)
H90 H 0.8680 0.7437 0.4733
C79 C 0.9000(5) 0.7331(9) 0.4417(2)
H91 H 0.8485 0.7297 0.4356
H92 H 0.9179 0.8171 0.4417
H93 H 0.9336 0.6832 0.4329
C80 C 0.9793(5) 0.6893(10) 0.4753(2)
H94 H 0.9769 0.6581 0.4903
H95 H 1.0137 0.6389 0.4668
H96 H 0.9980 0.7728 0.4756
C81 C 0.3782(6) 0.4797(10) 0.3131(2)
C82 C 0.3711(6) 0.4269(14) 0.2900(2)
H97 H 0.3176 0.4234 0.2856
H98 H 0.3986 0.4785 0.2797
H99 H 0.3926 0.3451 0.2898
C83 C 0.3428(7) 0.6073(12) 0.3136(2)
H100 H 0.2898 0.6028 0.3088
H101 H 0.3454 0.6393 0.3285
H102 H 0.3707 0.6610 0.3039
C84 C 0.3318(6) 0.3965(13) 0.3287(2)
H103 H 0.2790 0.3929 0.3236
H104 H 0.3535 0.3148 0.3287
H105 H 0.3338 0.4295 0.3435
C85 C 0.9236(5) 0.5027(10) 0.3685(2)
C86 C 0.9371(6) 0.623(1) 0.3810(2)
H106 H 0.8983 0.6327 0.3922
H107 H 0.9873 0.6213 0.3880
H108 H 0.9344 0.6910 0.3707
N1 N 0.7932(4) 0.4632(7) 0.2926(1)
N2 N 0.6413(4) 0.4583(7) 0.2774(1)
N3 N 0.5090(4) 0.5586(7) 0.3866(1)
N4 N 0.6600(4) 0.5458(7) 0.4028(1)
Si1 Si 1.0866(2) 0.4525(3) 0.2651
Si2 Si 0.4520(2) 0.4535(3) 0.2098
Si3 Si 0.2252(2) 0.6565(3) 0.4032
Si4 Si 0.8532(1) 0.5358(2) 0.4668
C87 C 0.9801(4) 0.4834(13) 0.3515(2)
H109 H 1.0309 0.4855 0.3581
H110 H 0.9716 0.4045 0.3446
H111 H 0.9756 0.5475 0.3405
C88 C 0.9300(6) 0.3990(11) 0.3863(2)
H112 H 0.8920 0.4124 0.3976
H113 H 0.9212 0.3202 0.3794
H114 H 0.9807 0.4004 0.3930
C89 C 0.9782(5) 0.9302(8) 0.5774(2)
C90 C 1.0030(5) 0.9223(8) 0.5995(1)
C91 C 0.9480(5) 0.9069(8) 0.6154(1)
C92 C 0.9693(6) 0.9019(9) 0.6386(2)
H115 H 1.0207 0.9118 0.6429
C93 C 0.9159(6) 0.8834(10) 0.6538(2)
H116 H 0.9310 0.8793 0.6687
C94 C 0.8382(5) 0.8697(10) 0.6483(2)
H117 H 0.8023 0.8555 0.6594
C95 C 0.8155(6) 0.8768(9) 0.6274(2)
H118 H 0.7632 0.8705 0.6238
C96 C 0.8699(5) 0.8941(9) 0.6103(2)
C97 C 0.8463(5) 0.8994(8) 0.5879(2)
C98 C 0.9009(5) 0.9188(8) 0.5718(2)
C99 C 0.9289(5) 0.9541(9) 0.5357(2)
C100 C 0.9049(5) 0.9747(8) 0.5127(2)
C101 C 0.8288(5) 0.9710(8) 0.5070(2)
H119 H 0.7925 0.9563 0.5180
C102 C 0.8038(5) 0.9887(9) 0.4850(2)
C103 C 0.8604(6) 1.0133(9) 0.4697(2)
H120 H 0.8461 1.0268 0.4549
C104 C 0.9365(5) 1.0188(8) 0.4754(1)
C105 C 0.9595(5) 0.9988(8) 0.4969(2)
C106 C 1.0079(5) 0.9603(7) 0.5414(1)
C107 C 0.7673(6) 0.8853(9) 0.5824(2)
C108 C 0.6993(5) 0.8738(9) 0.5797(2)
C109 C 0.5704(6) 1.0144(13) 0.5617(2)
H121 H 0.5988 1.0790 0.5698
C110 C 0.4858(6) 1.0473(14) 0.5632(3)
H122 H 0.4698 1.0422 0.5784
H123 H 0.4779 1.1299 0.5578
H124 H 0.4559 0.9907 0.5543
C111 C 0.5768(7) 0.7280(13) 0.5584(2)
H125 H 0.5827 0.6619 0.5695
C112 C 0.6326(7) 0.6932(14) 0.5417(2)
H126 H 0.6839 0.7040 0.5477
H127 H 0.6250 0.6082 0.5377
H128 H 0.6258 0.7445 0.5288
C113 C 0.4940(6) 0.7167(11) 0.5519(2)
H129 H 0.4623 0.7419 0.5641
H130 H 0.4835 0.7687 0.5392
H131 H 0.4827 0.6324 0.5481
C114 C 0.5530(7) 0.8500(11) 0.6020(2)
H132 H 0.4971 0.8438 0.5996
C115 C 0.5781(8) 0.7373(13) 0.6151(2)
H133 H 0.5689 0.6645 0.6063
H134 H 0.6322 0.7434 0.6186
H135 H 0.5492 0.7323 0.6286
C116 C 0.5679(9) 0.9643(13) 0.6161(2)
H136 H 0.5521 1.0366 0.6080
H137 H 0.5390 0.9588 0.6297
H138 H 0.6220 0.9699 0.6197
C117 C 1.0806(5) 0.9340(9) 0.6053(2)
C118 C 1.1456(6) 0.9426(10) 0.6122(2)
C119 C 1.2884(5) 1.0914(10) 0.6120(2)
H139 H 1.3107 1.0556 0.5985
C120 C 1.3576(6) 1.1358(10) 0.6247(2)
H140 H 1.3876 1.0661 0.6297
H141 H 1.3885 1.1871 0.6153
H142 H 1.3412 1.1827 0.6374
C121 C 1.2380(9) 1.1835(13) 0.6035(2)
H143 H 1.1958 1.1450 0.5956
H144 H 1.2184 1.2318 0.6156
H145 H 1.2657 1.2362 0.5935
C122 C 1.2236(6) 0.9807(10) 0.6545(2)
H146 H 1.2743 0.9930 0.6616
C123 C 1.1754(7) 1.0917(13) 0.6598(2)
H147 H 1.1979 1.1637 0.6531
H148 H 1.1240 1.0800 0.6539
H149 H 1.1735 1.1025 0.6756
C124 C 1.1879(6) 0.8676(12) 0.6650(2)
H150 H 1.2186 0.7962 0.6617
H151 H 1.1860 0.8786 0.6809
H152 H 1.1365 0.8562 0.6592
C125 C 1.2926(5) 0.8121(9) 0.6202(2)
H153 H 1.2577 0.7455 0.6247
C126 C 1.3639(6) 0.7984(10) 0.6345(2)
H154 H 1.3512 0.8129 0.6498
H155 H 1.3842 0.7163 0.6329
H156 H 1.4020 0.8573 0.6298
C127 C 1.3093(6) 0.7904(11) 0.5962(2)
H157 H 1.2626 0.7998 0.5876
H158 H 1.3469 0.8492 0.5913
H159 H 1.3290 0.7082 0.5944
C128 C 0.7201(6) 0.9822(11) 0.4785(2)
C129 C 0.7156(8) 0.9572(18) 0.4529(2)
H160 H 0.7409 0.8805 0.4496
H161 H 0.6624 0.9525 0.4482
H162 H 0.7406 1.0232 0.4451
C130 C 0.6828(7) 1.0943(12) 0.4829(3)
H163 H 0.7105 1.1607 0.4760
H164 H 0.6310 1.0915 0.4770
H165 H 0.6814 1.1078 0.4987
C131 C 0.6850(7) 0.8702(13) 0.4880(3)
H166 H 0.7151 0.7993 0.4840
H167 H 0.6837 0.8773 0.5039
H168 H 0.6333 0.8610 0.4823
N5 N 1.0315(4) 0.9486(7) 0.5620(1)
N6 N 0.8772(4) 0.9302(7) 0.5505(1)
Si5 Si 1.2396(2) 0.9583(3) 0.625
Si6 Si 0.5972(2) 0.8665(3) 0.575
C132 C 0.5948(11) 1.0222(18) 0.5384(2)
H169 H 0.6486 1.0013 0.5375
H170 H 0.5649 0.9656 0.5295
H171 H 0.5870 1.1048 0.5330
C89B C 1.0218(5) 1.0698(8) 0.4226(2)
C90B C 0.9970(5) 1.0777(8) 0.4005(1)
C91B C 1.0520(5) 1.0931(8) 0.3846(1)
C92B C 1.0307(6) 1.0981(9) 0.3614(2)
H115B H 0.9793 1.0882 0.3571
C93B C 1.0841(6) 1.1166(10) 0.3462(2)
H116B H 1.0690 1.1207 0.3313
C94B C 1.1618(5) 1.1303(10) 0.3517(2)
H117B H 1.1977 1.1445 0.3406
C95B C 1.1845(6) 1.1232(9) 0.3726(2)
H118B H 1.2368 1.1295 0.3762
C96B C 1.1301(5) 1.1059(9) 0.3897(2)
C97B C 1.1537(5) 1.1006(8) 0.4121(2)
C98B C 1.0991(5) 1.0812(8) 0.4282(2)
C99B C 1.0711(5) 1.0459(9) 0.4643(2)
C100B C 1.0951(5) 1.0253(8) 0.4873(2)
C101B C 1.1712(5) 1.0290(8) 0.4930(2)
H119B H 1.2075 1.0437 0.4820
C102B C 1.1962(5) 1.0113(9) 0.5150(2)
C103B C 1.1396(6) 0.9867(9) 0.5303(2)
H120B H 1.1539 0.9732 0.5451
C104B C 1.0635(5) 0.9812(8) 0.5246(1)
C105B C 1.0405(5) 1.0012(8) 0.5031(2)
C106B C 0.9921(5) 1.0397(7) 0.4586(1)
C107B C 1.2327(6) 1.1147(9) 0.4176(2)
C108B C 1.3007(5) 1.1262(9) 0.4203(2)
C109B C 1.4296(6) 0.9856(13) 0.4383(2)
H121B H 1.4012 0.9210 0.4302
C110B C 1.5142(6) 0.9527(14) 0.4368(3)
H122B H 1.5302 0.9578 0.4216
H123B H 1.5221 0.8701 0.4422
H124B H 1.5441 1.0093 0.4457
C111B C 1.4232(7) 1.2720(13) 0.4416(2)
H125B H 1.4173 1.3381 0.4305
C112B C 1.3674(7) 1.3068(14) 0.4583(2)
H126B H 1.3161 1.2960 0.4523
H127B H 1.3750 1.3918 0.4623
H128B H 1.3742 1.2555 0.4712
C113B C 1.5060(6) 1.2833(11) 0.4481(2)
H129B H 1.5377 1.2581 0.4359
H130B H 1.5165 1.2313 0.4608
H131B H 1.5173 1.3676 0.4519
C114B C 1.4470(7) 1.1500(11) 0.3980(2)
H132B H 1.5029 1.1562 0.4004
C115B C 1.4219(8) 1.2627(13) 0.3849(2)
H133B H 1.4311 1.3355 0.3937
H134B H 1.3678 1.2566 0.3814
H135B H 1.4508 1.2677 0.3714
C116B C 1.4321(9) 1.0357(13) 0.3839(2)
H136B H 1.4479 0.9634 0.3920
H137B H 1.4610 1.0412 0.3703
H138B H 1.3780 1.0301 0.3803
C117B C 0.9194(5) 1.0660(9) 0.3947(2)
C118B C 0.8544(6) 1.0574(10) 0.3878(2)
C119B C 0.7116(5) 0.9086(10) 0.3880(2)
H139B H 0.6893 0.9444 0.4015
C120B C 0.6424(6) 0.8642(10) 0.3753(2)
H140B H 0.6124 0.9339 0.3703
H141B H 0.6115 0.8129 0.3847
H142B H 0.6588 0.8173 0.3626
C121B C 0.7620(9) 0.8165(13) 0.3965(2)
H143B H 0.8042 0.8550 0.4044
H144B H 0.7816 0.7682 0.3844
H145B H 0.7343 0.7638 0.4065
C122B C 0.7764(6) 1.0193(10) 0.3455(2)
H146B H 0.7257 1.0070 0.3384
C123B C 0.8246(7) 0.9083(13) 0.3402(2)
H147B H 0.8021 0.8363 0.3469
H148B H 0.8760 0.9200 0.3461
H149B H 0.8265 0.8975 0.3244
C124B C 0.8121(6) 1.1324(12) 0.3350(2)
H150B H 0.7814 1.2038 0.3383
H151B H 0.8140 1.1214 0.3191
H152B H 0.8635 1.1438 0.3408
C125B C 0.7074(5) 1.1879(9) 0.3798(2)
H153B H 0.7423 1.2545 0.3753
C126B C 0.6361(6) 1.2016(10) 0.3655(2)
H154B H 0.6488 1.1871 0.3502
H155B H 0.6158 1.2837 0.3671
H156B H 0.5980 1.1427 0.3702
C127B C 0.6907(6) 1.2096(11) 0.4038(2)
H157B H 0.7374 1.2002 0.4124
H158B H 0.6531 1.1508 0.4087
H159B H 0.6710 1.2918 0.4056
C128B C 1.2799(6) 1.0178(11) 0.5215(2)
C129B C 1.2844(8) 1.0428(18) 0.5471(2)
H160B H 1.2591 1.1195 0.5504
H161B H 1.3376 1.0475 0.5518
H162B H 1.2594 0.9768 0.5549
C130B C 1.3172(7) 0.9057(12) 0.5171(3)
H163B H 1.2895 0.8393 0.5240
H164B H 1.3690 0.9085 0.5230
H165B H 1.3186 0.8922 0.5013
C131B C 1.3150(7) 1.1298(13) 0.5120(3)
H166B H 1.2849 1.2007 0.5160
H167B H 1.3163 1.1227 0.4961
H168B H 1.3667 1.1390 0.5177
N5B N 0.9685(4) 1.0514(7) 0.4380(1)
N6B N 1.1228(4) 1.0698(7) 0.4495(1)
Si5B Si 0.7604(2) 1.0417(3) 0.375
Si6B Si 1.4028(2) 1.1335(3) 0.425
C132B C 1.4052(11) 0.9778(18) 0.4616(2)
H169B H 1.3514 0.9987 0.4625
H170B H 1.4351 1.0344 0.4705
H171B H 1.4130 0.8952 0.4670
C133? C 0.2337(12) 0.716(2) 0.3743(3)
H172? H 0.2498 0.6433 0.3658
C134? C 0.1586(14) 0.752(2) 0.3632(4)
H173? H 0.1199 0.6916 0.3664
H174? H 0.1424 0.8314 0.3688
H175? H 0.1655 0.7574 0.3474
H176? H 0.3386 0.7756 0.3774
H177? H 0.2996 0.8069 0.3543
H178? H 0.2765 0.8809 0.3757
loop_
_geom_bond_atom_site_label_1
_geom_bond_atom_site_label_2
_geom_bond_site_symmetry_1
_geom_bond_site_symmetry_2
C1 C2 1_555 1_555
C2 C3 1_555 1_555
C3 C4 1_555 1_555
C4 H1 1_555 1_555
C5 C4 1_555 1_555
H2 C5 1_555 1_555
C6 C5 1_555 1_555
H3 C6 1_555 1_555
C7 C6 1_555 1_555
H4 C7 1_555 1_555
C8 C3 1_555 1_555
C9 C8 1_555 1_555
C10 C1 1_555 1_555
C11 C12 1_555 1_555
C12 C13 1_555 1_555
C13 H5 1_555 1_555
C14 C13 1_555 1_555
C15 C14 1_555 1_555
H6 C15 1_555 1_555
C16 C15 1_555 1_555
C17 C16 1_555 1_555
C18 C19 1_555 1_555
C19 C20 1_555 1_555
C20 C21 1_555 1_555
C21 H7 1_555 1_555
C22 C21 1_555 1_555
H8 C22 1_555 1_555
C23 C22 1_555 1_555
H9 C23 1_555 1_555
C24 C23 1_555 1_555
H10 C24 1_555 1_555
C25 C20 1_555 1_555
C26 C25 1_555 1_555
C27 C18 1_555 1_555
C28 C17 1_555 1_555
C29 C28 1_555 1_555
C30 C29 1_555 1_555
H11 C30 1_555 1_555
C31 C30 1_555 1_555
C32 C31 1_555 1_555
H12 C32 1_555 1_555
C33 C32 1_555 1_555
C34 C11 1_555 1_555
C35 C29 1_555 1_555
C36 C12 1_555 1_555
C37 C2 1_555 1_555
C38 C37 1_555 1_555
C39 H13 1_555 1_555
C40 C39 1_555 1_555
H14 C40 1_555 1_555
H15 C40 1_555 1_555
H16 C40 1_555 1_555
C41 C39 1_555 1_555
H17 C41 1_555 1_555
H18 C41 1_555 1_555
H19 C41 1_555 1_555
C42 H20 1_555 1_555
C43 C42 1_555 1_555
H21 C43 1_555 1_555
H22 C43 1_555 1_555
H23 C43 1_555 1_555
C44 C42 1_555 1_555
H24 C44 1_555 1_555
H25 C44 1_555 1_555
H26 C44 1_555 1_555
C45 H27 1_555 1_555
C46 C45 1_555 1_555
H28 C46 1_555 1_555
H29 C46 1_555 1_555
H30 C46 1_555 1_555
C47 C45 1_555 1_555
H31 C47 1_555 1_555
H32 C47 1_555 1_555
H33 C47 1_555 1_555
C48 C9 1_555 1_555
C49 C48 1_555 1_555
C50 H34 1_555 1_555
C51 C50 1_555 1_555
H35 C51 1_555 1_555
H36 C51 1_555 1_555
H37 C51 1_555 1_555
C52 C50 1_555 1_555
H38 C52 1_555 1_555
H39 C52 1_555 1_555
H40 C52 1_555 1_555
C53 H41 1_555 1_555
C54 C53 1_555 1_555
H42 C54 1_555 1_555
H43 C54 1_555 1_555
H44 C54 1_555 1_555
C55 C53 1_555 1_555
H45 C55 1_555 1_555
H46 C55 1_555 1_555
H47 C55 1_555 1_555
C56 H48 1_555 1_555
C57 C56 1_555 1_555
H49 C57 1_555 1_555
H50 C57 1_555 1_555
H51 C57 1_555 1_555
C58 C56 1_555 1_555
H52 C58 1_555 1_555
H53 C58 1_555 1_555
H54 C58 1_555 1_555
C59 C19 1_555 1_555
C60 C59 1_555 1_555
C61 H55 1_555 1_555
C62 C61 1_555 1_555
H56 C62 1_555 1_555
H57 C62 1_555 1_555
H58 C62 1_555 1_555
C63 C61 1_555 1_555
H59 C63 1_555 1_555
H60 C63 1_555 1_555
H61 C63 1_555 1_555
C64 H62 1_555 1_555
C65 C64 1_555 1_555
H63 C65 1_555 1_555
H64 C65 1_555 1_555
H65 C65 1_555 1_555
C66 H66 1_555 1_555
C67 C66 1_555 1_555
H67 C67 1_555 1_555
H68 C67 1_555 1_555
H69 C67 1_555 1_555
C68 C66 1_555 1_555
H70 C68 1_555 1_555
H71 C68 1_555 1_555
H72 C68 1_555 1_555
C69 C64 1_555 1_555
H73 C69 1_555 1_555
H74 C69 1_555 1_555
H75 C69 1_555 1_555
C70 C26 1_555 1_555
C71 C70 1_555 1_555
C72 H76 1_555 1_555
C73 C72 1_555 1_555
H77 C73 1_555 1_555
H78 C73 1_555 1_555
H79 C73 1_555 1_555
C74 C72 1_555 1_555
H80 C74 1_555 1_555
H81 C74 1_555 1_555
H82 C74 1_555 1_555
C75 H83 1_555 1_555
C76 C75 1_555 1_555
H84 C76 1_555 1_555
H85 C76 1_555 1_555
H86 C76 1_555 1_555
C77 C75 1_555 1_555
H87 C77 1_555 1_555
H88 C77 1_555 1_555
H89 C77 1_555 1_555
C78 H90 1_555 1_555
C79 C78 1_555 1_555
H91 C79 1_555 1_555
H92 C79 1_555 1_555
H93 C79 1_555 1_555
C80 C78 1_555 1_555
H94 C80 1_555 1_555
H95 C80 1_555 1_555
H96 C80 1_555 1_555
C81 C14 1_555 1_555
C82 C81 1_555 1_555
H97 C82 1_555 1_555
H98 C82 1_555 1_555
H99 C82 1_555 1_555
C83 C81 1_555 1_555
H100 C83 1_555 1_555
H101 C83 1_555 1_555
H102 C83 1_555 1_555
C84 C81 1_555 1_555
H103 C84 1_555 1_555
H104 C84 1_555 1_555
H105 C84 1_555 1_555
C85 C31 1_555 1_555
C86 C85 1_555 1_555
H106 C86 1_555 1_555
H107 C86 1_555 1_555
H108 C86 1_555 1_555
N1 C1 1_555 1_555
N2 C10 1_555 1_555
N3 C17 1_555 1_555
N4 C27 1_555 1_555
Si1 C38 1_555 1_555
Si2 C49 1_555 1_555
Si3 C60 1_555 1_555
Si4 C71 1_555 1_555
C87 C85 1_555 1_555
H109 C87 1_555 1_555
H110 C87 1_555 1_555
H111 C87 1_555 1_555
C88 C85 1_555 1_555
H112 C88 1_555 1_555
H113 C88 1_555 1_555
H114 C88 1_555 1_555
C89 C90 1_555 1_555
C90 C91 1_555 1_555
C91 C92 1_555 1_555
C92 H115 1_555 1_555
C93 C92 1_555 1_555
H116 C93 1_555 1_555
C94 C93 1_555 1_555
H117 C94 1_555 1_555
C95 C94 1_555 1_555
H118 C95 1_555 1_555
C96 C91 1_555 1_555
C97 C96 1_555 1_555
C98 C89 1_555 1_555
C99 C100 1_555 1_555
C100 C101 1_555 1_555
C101 H119 1_555 1_555
C102 C101 1_555 1_555
C103 C102 1_555 1_555
H120 C103 1_555 1_555
C104 C103 1_555 1_555
C105 C100 1_555 1_555
C106 C99 1_555 1_555
C107 C97 1_555 1_555
C108 C107 1_555 1_555
C109 H121 1_555 1_555
C110 C109 1_555 1_555
H122 C110 1_555 1_555
H123 C110 1_555 1_555
H124 C110 1_555 1_555
C111 H125 1_555 1_555
C112 C111 1_555 1_555
H126 C112 1_555 1_555
H127 C112 1_555 1_555
H128 C112 1_555 1_555
C113 C111 1_555 1_555
H129 C113 1_555 1_555
H130 C113 1_555 1_555
H131 C113 1_555 1_555
C114 H132 1_555 1_555
C115 C114 1_555 1_555
H133 C115 1_555 1_555
H134 C115 1_555 1_555
H135 C115 1_555 1_555
C116 C114 1_555 1_555
H136 C116 1_555 1_555
H137 C116 1_555 1_555
H138 C116 1_555 1_555
C117 C90 1_555 1_555
C118 C117 1_555 1_555
C119 H139 1_555 1_555
C120 C119 1_555 1_555
H140 C120 1_555 1_555
H141 C120 1_555 1_555
H142 C120 1_555 1_555
C121 C119 1_555 1_555
H143 C121 1_555 1_555
H144 C121 1_555 1_555
H145 C121 1_555 1_555
C122 H146 1_555 1_555
C123 C122 1_555 1_555
H147 C123 1_555 1_555
H148 C123 1_555 1_555
H149 C123 1_555 1_555
C124 C122 1_555 1_555
H150 C124 1_555 1_555
H151 C124 1_555 1_555
H152 C124 1_555 1_555
C125 H153 1_555 1_555
C126 C125 1_555 1_555
H154 C126 1_555 1_555
H155 C126 1_555 1_555
H156 C126 1_555 1_555
C127 C125 1_555 1_555
H157 C127 1_555 1_555
H158 C127 1_555 1_555
H159 C127 1_555 1_555
C128 C102 1_555 1_555
C129 C128 1_555 1_555
H160 C129 1_555 1_555
H161 C129 1_555 1_555
H162 C129 1_555 1_555
C130 C128 1_555 1_555
H163 C130 1_555 1_555
H164 C130 1_555 1_555
H165 C130 1_555 1_555
C131 C128 1_555 1_555
H166 C131 1_555 1_555
H167 C131 1_555 1_555
H168 C131 1_555 1_555
N5 C89 1_555 1_555
N6 C98 1_555 1_555
Si5 C118 1_555 1_555
Si6 C108 1_555 1_555
C132 C109 1_555 1_555
H169 C132 1_555 1_555
H170 C132 1_555 1_555
H171 C132 1_555 1_555
C89B C90B 1_555 1_555
C90B C91B 1_555 1_555
C91B C92B 1_555 1_555
C92B H115B 1_555 1_555
C93B C92B 1_555 1_555
H116B C93B 1_555 1_555
C94B C93B 1_555 1_555
H117B C94B 1_555 1_555
C95B C94B 1_555 1_555
H118B C95B 1_555 1_555
C96B C91B 1_555 1_555
C97B C96B 1_555 1_555
C98B C89B 1_555 1_555
C99B C100B 1_555 1_555
C100B C101B 1_555 1_555
C101B H119B 1_555 1_555
C102B C101B 1_555 1_555
C103B C102B 1_555 1_555
H120B C103B 1_555 1_555
C104B C106 1_555 1_555
C105B C105 1_555 1_555
C106B C104 1_555 1_555
C107B C97B 1_555 1_555
C108B C107B 1_555 1_555
C109B H121B 1_555 1_555
C110B C109B 1_555 1_555
H122B C110B 1_555 1_555
H123B C110B 1_555 1_555
H124B C110B 1_555 1_555
C111B H125B 1_555 1_555
C112B C111B 1_555 1_555
H126B C112B 1_555 1_555
H127B C112B 1_555 1_555
H128B C112B 1_555 1_555
C113B C111B 1_555 1_555
H129B C113B 1_555 1_555
H130B C113B 1_555 1_555
H131B C113B 1_555 1_555
C114B H132B 1_555 1_555
C115B C114B 1_555 1_555
H133B C115B 1_555 1_555
H134B C115B 1_555 1_555
H135B C115B 1_555 1_555
C116B C114B 1_555 1_555
H136B C116B 1_555 1_555
H137B C116B 1_555 1_555
H138B C116B 1_555 1_555
C117B C90B 1_555 1_555
C118B C117B 1_555 1_555
C119B H139B 1_555 1_555
C120B C119B 1_555 1_555
H140B C120B 1_555 1_555
H141B C120B 1_555 1_555
H142B C120B 1_555 1_555
C121B C119B 1_555 1_555
H143B C121B 1_555 1_555
H144B C121B 1_555 1_555
H145B C121B 1_555 1_555
C122B H146B 1_555 1_555
C123B C122B 1_555 1_555
H147B C123B 1_555 1_555
H148B C123B 1_555 1_555
H149B C123B 1_555 1_555
C124B C122B 1_555 1_555
H150B C124B 1_555 1_555
H151B C124B 1_555 1_555
H152B C124B 1_555 1_555
C125B H153B 1_555 1_555
C126B C125B 1_555 1_555
H154B C126B 1_555 1_555
H155B C126B 1_555 1_555
H156B C126B 1_555 1_555
C127B C125B 1_555 1_555
H157B C127B 1_555 1_555
H158B C127B 1_555 1_555
H159B C127B 1_555 1_555
C128B C102B 1_555 1_555
C129B C128B 1_555 1_555
H160B C129B 1_555 1_555
H161B C129B 1_555 1_555
H162B C129B 1_555 1_555
C130B C128B 1_555 1_555
H163B C130B 1_555 1_555
H164B C130B 1_555 1_555
H165B C130B 1_555 1_555
C131B C128B 1_555 1_555
H166B C131B 1_555 1_555
H167B C131B 1_555 1_555
H168B C131B 1_555 1_555
N5B C89B 1_555 1_555
N6B C98B 1_555 1_555
Si5B C118B 1_555 1_555
Si6B C108B 1_555 1_555
C132B C109B 1_555 1_555
H169B C132B 1_555 1_555
H170B C132B 1_555 1_555
H171B C132B 1_555 1_555
C7 C8 1_555 1_555
C9 C10 1_555 1_555
C11 N2 1_555 1_555
C16 C36 1_555 1_555
C18 N3 1_555 1_555
C24 C25 1_555 1_555
C26 C27 1_555 1_555
C28 N4 1_555 1_555
C33 C34 1_555 1_555
C33 C35 1_555 1_555
C34 N1 1_555 1_555
C35 C36 1_555 1_555
C39 Si1 1_555 1_555
C42 Si1 1_555 1_555
C45 Si1 1_555 1_555
C50 Si2 1_555 1_555
C53 Si2 1_555 1_555
C56 Si2 1_555 1_555
C61 Si3 1_555 1_555
C64 Si3 1_555 1_555
C66 Si3 1_555 1_555
C72 Si4 1_555 1_555
C75 Si4 1_555 1_555
C78 Si4 1_555 1_555
C95 C96 1_555 1_555
C97 C98 1_555 1_555
C99 N6 1_555 1_555
C104 C105 1_555 1_555
C106 N5 1_555 1_555
C109 Si6 1_555 1_555
C111 Si6 1_555 1_555
C114 Si6 1_555 1_555
C119 Si5 1_555 1_555
C122 Si5 1_555 1_555
C125 Si5 1_555 1_555
C95B C96B 1_555 1_555
C97B C98B 1_555 1_555
C99B C106B 1_555 1_555
C99B N6B 1_555 1_555
C100B C105B 1_555 1_555
C103B C104B 1_555 1_555
C104B C105B 1_555 1_555
C106B N5B 1_555 1_555
C109B Si6B 1_555 1_555
C111B Si6B 1_555 1_555
C114B Si6B 1_555 1_555
C119B Si5B 1_555 1_555
C122B Si5B 1_555 1_555
C125B Si5B 1_555 1_555

#END
