
#######################################################################
#
#                 Cambridge Crystallographic Data Centre
#                                CCDC 
#
#######################################################################
#
# If this CIF has been generated from an entry in the Cambridge 
# Structural Database, then it will include bibliographic, chemical, 
# crystal, experimental, refinement or atomic coordinate data resulting 
# from the CCDC's data processing and validation procedures.
#
#######################################################################

data_PUSGAN
_chemical_formula_moiety         'C92 H114 N8 Si4,C1 H1 Cl3'
_chemical_name_systematic        
"2,15-di-t-butyl-5,12,18,25-tetrakis((triisopropylsilyl)ethynyl)quinoxalino[2,3-i]quinoxalino[2'',3'':6',7']quinoxalino[2',3':9,10]phenanthro[4,5-abc]phenazine chloroform solvate"
_symmetry_cell_setting           triclinic
_symmetry_space_group_name_H-M   'P -1'
_symmetry_Int_Tables_number      2
_space_group_name_Hall           '-P 1'
loop_
_symmetry_equiv_pos_site_id
_symmetry_equiv_pos_as_xyz
1 x,y,z
2 -x,-y,-z
_cell_length_a                   11.056(8)
_cell_length_b                   13.089(9)
_cell_length_c                   16.660(11)
_cell_angle_alpha                79.406(10)
_cell_angle_beta                 73.183(9)
_cell_angle_gamma                68.036(9)
_cell_volume                     2132.51
_exptl_crystal_colour            green
_exptl_crystal_description       prism
_cell_formula_units_Z            1
loop_
_atom_site_label
_atom_site_type_symbol
_atom_site_fract_x
_atom_site_fract_y
_atom_site_fract_z
C1 C 0.1042(6) 0.5135(5) 0.5717(4)
C2 C -0.0359(7) 0.5562(6) 0.6117(4)
H1 H -0.0724 0.5187 0.6617
C3 C -0.1159(7) 0.6498(6) 0.5782(4)
H2 H -0.2089 0.6773 0.6050
C4 C -0.0640(7) 0.7081(6) 0.5036(4)
H3 H -0.1227 0.7739 0.4814
C5 C 0.0675(7) 0.6711(5) 0.4641(4)
H4 H 0.1008 0.7120 0.4150
C6 C 0.1577(7) 0.5710(5) 0.4952(4)
C7 C 0.3647(6) 0.4386(5) 0.4853(3)
C8 C 0.5001(6) 0.3940(5) 0.4413(3)
C9 C 0.5875(6) 0.2982(4) 0.4759(3)
C10 C 0.7984(6) 0.1675(5) 0.4679(3)
C11 C 0.9402(5) 0.1216(4) 0.4230(3)
C12 C 0.9886(6) 0.1710(4) 0.3449(3)
H5 H 0.9297 0.2359 0.3220
C13 C 1.1205(6) 0.1275(5) 0.3001(3)
C14 C 1.2064(6) 0.0339(5) 0.3362(3)
H6 H 1.2975 0.0034 0.3066
C15 C 1.1602(6) -0.0157(4) 0.4154(3)
C16 C 1.0261(5) 0.0268(4) 0.4591(3)
C17 C 0.7482(6) 0.1131(4) 0.5481(3)
C18 C 0.5367(6) 0.2434(5) 0.5553(3)
C19 C 0.4002(6) 0.2822(5) 0.5965(3)
C20 C 0.3136(6) 0.3811(5) 0.5633(3)
C21 C 0.5441(5) 0.4423(5) 0.3581(4)
C22 C 0.5697(6) 0.4806(5) 0.2853(4)
C23 C 0.4848(18) 0.4748(10) 0.1324(7)
H7 H 0.4777 0.5134 0.0754
C24 C 0.3444(14) 0.4902(12) 0.1829(9)
H8 H 0.2954 0.5689 0.1900
H9 H 0.2991 0.4626 0.1535
H10 H 0.3464 0.4491 0.2382
C25 C 0.565(2) 0.3554(12) 0.1193(8)
H11 H 0.6561 0.3486 0.0861
H12 H 0.5691 0.3130 0.1741
H13 H 0.5218 0.3266 0.0894
C26 C 0.4861(11) 0.6924(8) 0.1811(6)
H14 H 0.5507 0.7233 0.1903
C27 C 0.4491(15) 0.7524(9) 0.0964(7)
H15 H 0.5292 0.7319 0.0498
H16 H 0.3793 0.7301 0.0870
H17 H 0.4157 0.8326 0.0995
C28 C 0.364(2) 0.7222(11) 0.2554(10)
H18 H 0.3893 0.6838 0.3074
H19 H 0.3297 0.8023 0.2595
H20 H 0.2933 0.6998 0.2469
C29 C 0.7574(12) 0.5100(12) 0.1220(6)
H21 H 0.7987 0.4276 0.1246
C30 C 0.7764(12) 0.5529(13) 0.0283(6)
H22 H 0.7280 0.5246 0.0018
H23 H 0.7409 0.6339 0.0233
H24 H 0.8723 0.5273 0.0001
C31 C 0.8350(11) 0.5537(14) 0.1695(7)
H25 H 0.8206 0.5247 0.2287
H26 H 0.9314 0.5281 0.1427
H27 H 0.8001 0.6347 0.1658
C32 C 1.1725(6) 0.1766(6) 0.2108(4)
C33 C 1.0704(13) 0.2861(10) 0.1899(7)
H28 H 1.0524 0.3377 0.2312
H29 H 1.1058 0.3166 0.1335
H30 H 0.9869 0.2751 0.1913
C34 C 1.2990(11) 0.2015(10) 0.2131(6)
H31 H 1.2727 0.2573 0.2527
H32 H 1.3652 0.1335 0.2311
H33 H 1.3385 0.2294 0.1567
C35 C 1.2060(14) 0.0942(10) 0.1528(6)
H34 H 1.2724 0.0255 0.1699
H35 H 1.1247 0.0800 0.1536
H36 H 1.2437 0.1215 0.0958
C36 C 0.3460(6) 0.2202(5) 0.6693(4)
N1 N 0.2857(5) 0.5335(4) 0.4525(3)
N2 N 0.7195(5) 0.2569(4) 0.4337(3)
N3 N 0.6205(5) 0.1506(4) 0.5882(2)
N4 N 0.1818(5) 0.4210(4) 0.6045(3)
Si1 Si 0.5735(2) 0.54427(17) 0.17738(11)
H37 H 0.1859 -0.0715 0.9465
H38 H 0.2753 -0.0524 0.9987
H39 H 0.1516 0.0489 0.9743
Si2 Si 0.1798(5) 0.1276(5) 0.8210(2)
C37 C 0.2842(16) 0.1865(16) 0.7301(10)
C38 C 0.2704(15) 0.0476(14) 0.8971(10)
H40 H 0.2240 0.1062 0.9374
C39 C 0.2102(17) -0.0448(19) 0.9647(14)
C40 C 0.3982(14) 0.0382(14) 0.9031(8)
H41 H 0.4292 0.0933 0.8628
H42 H 0.3932 0.0511 0.9603
H43 H 0.4613 -0.0361 0.8904
C41 C 0.0519(16) 0.2455(13) 0.8776(8)
H44 H 0.1056 0.2771 0.8985
C42 C -0.0468(16) 0.2249(15) 0.9543(11)
H45 H -0.0005 0.1636 0.9903
H46 H -0.0912 0.2916 0.9849
H47 H -0.1141 0.2060 0.9385
C43 C -0.0238(15) 0.3440(15) 0.8206(10)
H48 H 0.0408 0.3583 0.7695
H49 H -0.0913 0.3247 0.8052
H50 H -0.0683 0.4103 0.8516
C44 C 0.090(3) 0.053(2) 0.7881(19)
H51 H 0.0134 0.0444 0.8350
C45 C 0.186(3) -0.062(2) 0.7573(16)
H52 H 0.2245 -0.1081 0.8033
H53 H 0.1356 -0.0975 0.7396
H54 H 0.2586 -0.0518 0.7097
C46 C 0.038(4) 0.117(3) 0.704(2)
H55 H -0.0249 0.1913 0.7164
H56 H 0.1144 0.1213 0.6581
H57 H -0.0086 0.0756 0.6880
C1A C 1.8958(6) -0.5135(5) 0.4283(4)
C2A C 2.0359(7) -0.5562(6) 0.3883(4)
H1A H 2.0724 -0.5187 0.3383
C3A C 2.1159(7) -0.6498(6) 0.4218(4)
H2A H 2.2089 -0.6773 0.3950
C4A C 2.0640(7) -0.7081(6) 0.4964(4)
H3A H 2.1227 -0.7739 0.5186
C5A C 1.9325(7) -0.6711(5) 0.5359(4)
H4A H 1.8992 -0.7120 0.5850
C6A C 1.8423(7) -0.5710(5) 0.5048(4)
C7A C 1.6353(6) -0.4386(5) 0.5147(3)
C8A C 1.4999(6) -0.3940(5) 0.5587(3)
C9A C 1.4125(6) -0.2982(4) 0.5241(3)
C10A C 1.2016(6) -0.1675(5) 0.5321(3)
C11A C 1.0598(5) -0.1216(4) 0.5770(3)
C12A C 1.0114(6) -0.1710(4) 0.6551(3)
H5A H 1.0703 -0.2359 0.6780
C13A C 0.8795(6) -0.1275(5) 0.6999(3)
C14A C 0.7936(6) -0.0339(5) 0.6638(3)
H6A H 0.7025 -0.0034 0.6934
C15A C 0.8398(6) 0.0157(4) 0.5846(3)
C16A C 0.9739(5) -0.0268(4) 0.5409(3)
C17A C 1.2518(6) -0.1131(4) 0.4519(3)
C18A C 1.4633(6) -0.2434(5) 0.4447(3)
C19A C 1.5998(6) -0.2822(5) 0.4035(3)
C20A C 1.6864(6) -0.3811(5) 0.4367(3)
C21A C 1.4559(5) -0.4423(5) 0.6419(4)
C22A C 1.4303(6) -0.4806(5) 0.7147(4)
C23A C 1.5152(18) -0.4748(10) 0.8676(7)
H7A H 1.5223 -0.5134 0.9246
C24A C 1.6556(14) -0.4902(12) 0.8171(9)
H8A H 1.7046 -0.5689 0.8100
H9A H 1.7009 -0.4626 0.8465
H10A H 1.6536 -0.4491 0.7618
C25A C 1.435(2) -0.3554(12) 0.8807(8)
H11A H 1.3439 -0.3486 0.9139
H12A H 1.4309 -0.3130 0.8259
H13A H 1.4782 -0.3266 0.9106
C26A C 1.5139(11) -0.6924(8) 0.8189(6)
H14A H 1.4493 -0.7233 0.8097
C27A C 1.5509(15) -0.7524(9) 0.9036(7)
H15A H 1.4708 -0.7319 0.9502
H16A H 1.6207 -0.7301 0.9130
H17A H 1.5843 -0.8326 0.9005
C28A C 1.636(2) -0.7222(11) 0.7446(10)
H18A H 1.6107 -0.6838 0.6926
H19A H 1.6703 -0.8023 0.7405
H20A H 1.7067 -0.6998 0.7531
C29A C 1.2426(12) -0.5100(12) 0.8780(6)
H21A H 1.2013 -0.4276 0.8754
C30A C 1.2236(12) -0.5529(13) 0.9717(6)
H22A H 1.2720 -0.5246 0.9982
H23A H 1.2591 -0.6339 0.9767
H24A H 1.1277 -0.5273 0.9999
C31A C 1.1650(11) -0.5537(14) 0.8305(7)
H25A H 1.1794 -0.5247 0.7713
H26A H 1.0686 -0.5281 0.8573
H27A H 1.1999 -0.6347 0.8342
C32A C 0.8275(6) -0.1766(6) 0.7892(4)
C33A C 0.9296(13) -0.2861(10) 0.8101(7)
H28A H 0.9476 -0.3377 0.7688
H29A H 0.8942 -0.3166 0.8665
H30A H 1.0131 -0.2751 0.8087
C34A C 0.7010(11) -0.2015(10) 0.7869(6)
H31A H 0.7273 -0.2573 0.7473
H32A H 0.6348 -0.1335 0.7689
H33A H 0.6615 -0.2294 0.8433
C35A C 0.7940(14) -0.0942(10) 0.8472(6)
H34A H 0.7276 -0.0255 0.8301
H35A H 0.8753 -0.0800 0.8464
H36A H 0.7563 -0.1215 0.9042
C36A C 1.6540(6) -0.2202(5) 0.3307(4)
N1A N 1.7143(5) -0.5335(4) 0.5475(3)
N2A N 1.2805(5) -0.2569(4) 0.5663(3)
N3A N 1.3795(5) -0.1506(4) 0.4118(2)
N4A N 1.8182(5) -0.4210(4) 0.3955(3)
Si1A Si 1.4265(2) -0.54427(17) 0.82262(11)
H37A H 1.8141 0.0715 0.0535
H38A H 1.7247 0.0524 0.0013
H39A H 1.8484 -0.0489 0.0257
Si2A Si 1.8202(5) -0.1276(5) 0.1790(2)
C37A C 1.7158(16) -0.1865(16) 0.2699(10)
C38A C 1.7296(15) -0.0476(14) 0.1029(10)
H40A H 1.7760 -0.1062 0.0626
C39A C 1.7898(17) 0.0448(19) 0.0353(14)
C40A C 1.6018(14) -0.0382(14) 0.0969(8)
H41A H 1.5708 -0.0933 0.1372
H42A H 1.6068 -0.0511 0.0397
H43A H 1.5387 0.0361 0.1096
C41A C 1.9481(16) -0.2455(13) 0.1224(8)
H44A H 1.8944 -0.2771 0.1015
C42A C 2.0468(16) -0.2249(15) 0.0457(11)
H45A H 2.0005 -0.1636 0.0097
H46A H 2.0912 -0.2916 0.0151
H47A H 2.1141 -0.2060 0.0615
C43A C 2.0238(15) -0.3440(15) 0.1794(10)
H48A H 1.9592 -0.3583 0.2305
H49A H 2.0913 -0.3247 0.1948
H50A H 2.0683 -0.4103 0.1484
C44A C 1.910(3) -0.053(2) 0.2119(19)
H51A H 1.9866 -0.0444 0.1650
C45A C 1.814(3) 0.062(2) 0.2427(16)
H52A H 1.7755 0.1081 0.1967
H53A H 1.8644 0.0975 0.2604
H54A H 1.7414 0.0518 0.2903
C46A C 1.962(4) -0.117(3) 0.296(2)
H55A H 2.0249 -0.1913 0.2836
H56A H 1.8856 -0.1213 0.3419
H57A H 2.0086 -0.0756 0.3120
C47? C 0.561(4) 0.453(3) 0.112(3)
H58? H 0.5554 0.4942 0.0557
C48? C 0.426(5) 0.432(5) 0.151(4)
H59? H 0.3517 0.5024 0.1554
H60? H 0.4145 0.3865 0.1148
H61? H 0.4271 0.3927 0.2070
C49? C 0.694(6) 0.351(4) 0.099(4)
H62? H 0.7711 0.3762 0.0740
H63? H 0.7041 0.3090 0.1533
H64? H 0.6916 0.3028 0.0611
C50? C 0.398(3) 0.664(2) 0.1929(15)
H65? H 0.3241 0.6334 0.2169
C51? C 0.377(3) 0.736(3) 0.1110(19)
H66? H 0.3812 0.6904 0.0694
H67? H 0.2895 0.7951 0.1220
H68? H 0.4483 0.7691 0.0893
C52? C 0.390(8) 0.748(5) 0.251(4)
H69? H 0.4022 0.7094 0.3062
H70? H 0.4603 0.7806 0.2260
H71? H 0.3016 0.8065 0.2587
C53? C 0.712(3) 0.598(3) 0.1420(19)
H72? H 0.6990 0.6562 0.1783
C54? C 0.751(8) 0.638(6) 0.047(3)
H73? H 0.6801 0.7055 0.0344
H74? H 0.8357 0.6524 0.0353
H75? H 0.7627 0.5802 0.0129
C55? C 0.832(4) 0.487(3) 0.160(3)
H76? H 0.8108 0.4595 0.2190
H77? H 0.8430 0.4307 0.1242
H78? H 0.9160 0.5029 0.1466
C56? C 1.159(2) 0.2929(15) 0.2085(10)
H79? H 1.0675 0.3341 0.2388
H80? H 1.2240 0.2981 0.2352
H81? H 1.1750 0.3242 0.1499
C57? C 1.316(2) 0.1108(15) 0.1632(11)
H82? H 1.3243 0.0331 0.1651
H83? H 1.3324 0.1417 0.1045
H84? H 1.3815 0.1156 0.1899
C58? C 1.073(2) 0.1776(19) 0.1521(9)
H85? H 1.0766 0.1018 0.1506
H86? H 0.9799 0.2231 0.1764
H87? H 1.1026 0.2083 0.0947
Si3? Si 0.2401(5) 0.0461(5) 0.7926(3)
C59? C 0.310(2) 0.1444(16) 0.7212(14)
C60? C 0.311(2) 0.0054(18) 0.8788(13)
H88? H 0.3921 -0.0627 0.8659
C61? C 0.224(4) -0.019(3) 0.956(2)
C62? C 0.355(2) 0.0923(15) 0.9178(12)
H89? H 0.4179 0.1203 0.8732
H90? H 0.2747 0.1543 0.9392
H91? H 0.3984 0.0530 0.9636
C63? C 0.059(2) 0.1107(19) 0.797(2)
H92? H 0.0225 0.0551 0.8354
C64? C -0.0136(16) 0.2100(17) 0.8433(13)
H93? H 0.0202 0.2010 0.8934
H94? H 0.0003 0.2746 0.8070
H95? H -0.1098 0.2205 0.8605
C65? C 0.021(4) 0.111(3) 0.722(2)
H96? H 0.0750 0.0419 0.6966
H97? H -0.0745 0.1194 0.7364
H98? H 0.0356 0.1735 0.6829
C66? C 0.312(2) -0.0834(16) 0.7473(13)
H99? H 0.3863 -0.1201 0.7773
C67? C 0.383(3) -0.084(2) 0.6721(18)
H100? H 0.4252 -0.0273 0.6614
H101? H 0.4533 -0.1568 0.6637
H102? H 0.3258 -0.0687 0.6331
C68? C 0.241(2) -0.1650(16) 0.7750(11)
H103? H 0.1897 -0.1566 0.8337
H104? H 0.1786 -0.1520 0.7393
H105? H 0.3061 -0.2401 0.7700
H106? H 0.1212 -0.0354 0.9584
H107? H 0.2713 -0.1199 0.9526
H108? H 0.2032 -0.0327 1.0225
C69? C 0.5126(19) -0.0441(14) 0.5803(14)
H109? H 0.5238 0.0061 0.6140
Cl1? Cl 0.4990(8) -0.1573(6) 0.6462(5)
Cl2? Cl 0.634(3) -0.053(3) 0.487(2)
Cl3? Cl 0.3573(3) 0.0483(5) 0.5266(4)
loop_
_geom_bond_atom_site_label_1
_geom_bond_atom_site_label_2
_geom_bond_site_symmetry_1
_geom_bond_site_symmetry_2
C1 C2 1_555 1_555
C2 H1 1_555 1_555
C3 C2 1_555 1_555
H2 C3 1_555 1_555
C4 C3 1_555 1_555
H3 C4 1_555 1_555
C5 C4 1_555 1_555
H4 C5 1_555 1_555
C6 C1 1_555 1_555
C7 C8 1_555 1_555
C8 C9 1_555 1_555
C9 C18 1_555 1_555
C10 C11 1_555 1_555
C11 C12 1_555 1_555
C12 H5 1_555 1_555
C13 C12 1_555 1_555
C14 C13 1_555 1_555
H6 C14 1_555 1_555
C15 C14 1_555 1_555
C16 C11 1_555 1_555
C17 C10 1_555 1_555
C18 C19 1_555 1_555
C19 C20 1_555 1_555
C20 C7 1_555 1_555
C21 C8 1_555 1_555
C22 C21 1_555 1_555
C23 H7 1_555 1_555
C24 C23 1_555 1_555
H8 C24 1_555 1_555
H9 C24 1_555 1_555
H10 C24 1_555 1_555
C25 C23 1_555 1_555
H11 C25 1_555 1_555
H12 C25 1_555 1_555
H13 C25 1_555 1_555
C26 H14 1_555 1_555
C27 C26 1_555 1_555
H15 C27 1_555 1_555
H16 C27 1_555 1_555
H17 C27 1_555 1_555
C28 C26 1_555 1_555
H18 C28 1_555 1_555
H19 C28 1_555 1_555
H20 C28 1_555 1_555
C29 H21 1_555 1_555
C30 C29 1_555 1_555
H22 C30 1_555 1_555
H23 C30 1_555 1_555
H24 C30 1_555 1_555
C31 C29 1_555 1_555
H25 C31 1_555 1_555
H26 C31 1_555 1_555
H27 C31 1_555 1_555
C32 C13 1_555 1_555
C33 C32 1_555 1_555
H28 C33 1_555 1_555
H29 C33 1_555 1_555
H30 C33 1_555 1_555
C34 C32 1_555 1_555
H31 C34 1_555 1_555
H32 C34 1_555 1_555
H33 C34 1_555 1_555
C35 C32 1_555 1_555
H34 C35 1_555 1_555
H35 C35 1_555 1_555
H36 C35 1_555 1_555
C36 C19 1_555 1_555
N1 C6 1_555 1_555
N2 C9 1_555 1_555
N3 C17 1_555 1_555
N4 C1 1_555 1_555
Si1 C22 1_555 1_555
H37 C39 1_555 1_555
H38 C39 1_555 1_555
H39 C39 1_555 1_555
Si2 C37 1_555 1_555
C37 C36 1_555 1_555
C38 Si2 1_555 1_555
H40 C38 1_555 1_555
C39 C38 1_555 1_555
C40 C38 1_555 1_555
H41 C40 1_555 1_555
H42 C40 1_555 1_555
H43 C40 1_555 1_555
C41 Si2 1_555 1_555
H44 C41 1_555 1_555
C42 C41 1_555 1_555
H45 C42 1_555 1_555
H46 C42 1_555 1_555
H47 C42 1_555 1_555
C43 C41 1_555 1_555
H48 C43 1_555 1_555
H49 C43 1_555 1_555
H50 C43 1_555 1_555
C44 Si2 1_555 1_555
H51 C44 1_555 1_555
C45 C44 1_555 1_555
H52 C45 1_555 1_555
H53 C45 1_555 1_555
H54 C45 1_555 1_555
C46 C44 1_555 1_555
H55 C46 1_555 1_555
H56 C46 1_555 1_555
H57 C46 1_555 1_555
C1A C2A 1_555 1_555
C2A H1A 1_555 1_555
C3A C2A 1_555 1_555
H2A C3A 1_555 1_555
C4A C3A 1_555 1_555
H3A C4A 1_555 1_555
C5A C4A 1_555 1_555
H4A C5A 1_555 1_555
C6A C1A 1_555 1_555
C7A C8A 1_555 1_555
C8A C9A 1_555 1_555
C9A C18A 1_555 1_555
C10A C11A 1_555 1_555
C11A C12A 1_555 1_555
C12A H5A 1_555 1_555
C13A C12A 1_555 1_555
C14A C13A 1_555 1_555
H6A C14A 1_555 1_555
C15A C17 1_555 1_555
C16A C16 1_555 1_555
C17A C15 1_555 1_555
C18A C19A 1_555 1_555
C19A C20A 1_555 1_555
C20A C7A 1_555 1_555
C21A C8A 1_555 1_555
C22A C21A 1_555 1_555
C23A H7A 1_555 1_555
C24A C23A 1_555 1_555
H8A C24A 1_555 1_555
H9A C24A 1_555 1_555
H10A C24A 1_555 1_555
C25A C23A 1_555 1_555
H11A C25A 1_555 1_555
H12A C25A 1_555 1_555
H13A C25A 1_555 1_555
C26A H14A 1_555 1_555
C27A C26A 1_555 1_555
H15A C27A 1_555 1_555
H16A C27A 1_555 1_555
H17A C27A 1_555 1_555
C28A C26A 1_555 1_555
H18A C28A 1_555 1_555
H19A C28A 1_555 1_555
H20A C28A 1_555 1_555
C29A H21A 1_555 1_555
C30A C29A 1_555 1_555
H22A C30A 1_555 1_555
H23A C30A 1_555 1_555
H24A C30A 1_555 1_555
C31A C29A 1_555 1_555
H25A C31A 1_555 1_555
H26A C31A 1_555 1_555
H27A C31A 1_555 1_555
C32A C13A 1_555 1_555
C33A C32A 1_555 1_555
H28A C33A 1_555 1_555
H29A C33A 1_555 1_555
H30A C33A 1_555 1_555
C34A C32A 1_555 1_555
H31A C34A 1_555 1_555
H32A C34A 1_555 1_555
H33A C34A 1_555 1_555
C35A C32A 1_555 1_555
H34A C35A 1_555 1_555
H35A C35A 1_555 1_555
H36A C35A 1_555 1_555
C36A C19A 1_555 1_555
N1A C6A 1_555 1_555
N2A C9A 1_555 1_555
N3A C17A 1_555 1_555
N4A C1A 1_555 1_555
Si1A C22A 1_555 1_555
H37A C39A 1_555 1_555
H38A C39A 1_555 1_555
H39A C39A 1_555 1_555
Si2A C37A 1_555 1_555
C37A C36A 1_555 1_555
C38A Si2A 1_555 1_555
H40A C38A 1_555 1_555
C39A C38A 1_555 1_555
C40A C38A 1_555 1_555
H41A C40A 1_555 1_555
H42A C40A 1_555 1_555
H43A C40A 1_555 1_555
C41A Si2A 1_555 1_555
H44A C41A 1_555 1_555
C42A C41A 1_555 1_555
H45A C42A 1_555 1_555
H46A C42A 1_555 1_555
H47A C42A 1_555 1_555
C43A C41A 1_555 1_555
H48A C43A 1_555 1_555
H49A C43A 1_555 1_555
H50A C43A 1_555 1_555
C44A Si2A 1_555 1_555
H51A C44A 1_555 1_555
C45A C44A 1_555 1_555
H52A C45A 1_555 1_555
H53A C45A 1_555 1_555
H54A C45A 1_555 1_555
C46A C44A 1_555 1_555
H55A C46A 1_555 1_555
H56A C46A 1_555 1_555
H57A C46A 1_555 1_555
C5 C6 1_555 1_555
C7 N1 1_555 1_555
C10 N2 1_555 1_555
C15 C16 1_555 1_555
C18 N3 1_555 1_555
C20 N4 1_555 1_555
C23 Si1 1_555 1_555
C26 Si1 1_555 1_555
C29 Si1 1_555 1_555
C5A C6A 1_555 1_555
C7A N1A 1_555 1_555
C10A C17A 1_555 1_555
C10A N2A 1_555 1_555
C11A C16A 1_555 1_555
C14A C15A 1_555 1_555
C15A C16A 1_555 1_555
C18A N3A 1_555 1_555
C20A N4A 1_555 1_555
C23A Si1A 1_555 1_555
C26A Si1A 1_555 1_555
C29A Si1A 1_555 1_555

#END
