
#######################################################################
#
#                 Cambridge Crystallographic Data Centre
#                                CCDC 
#
#######################################################################
#
# If this CIF has been generated from an entry in the Cambridge 
# Structural Database, then it will include bibliographic, chemical, 
# crystal, experimental, refinement or atomic coordinate data resulting 
# from the CCDC's data processing and validation procedures.
#
#######################################################################

data_PUSMUN
_chemical_formula_moiety         'C18 H20 N2 O2'
_chemical_name_systematic        
'4-((4-(Diethylamino)benzylidene)amino)benzoic acid'
_symmetry_cell_setting           triclinic
_symmetry_space_group_name_H-M   'P -1'
_symmetry_Int_Tables_number      2
_space_group_name_Hall           '-P 1'
loop_
_symmetry_equiv_pos_site_id
_symmetry_equiv_pos_as_xyz
1 x,y,z
2 -x,-y,-z
_cell_length_a                   7.7720(7)
_cell_length_b                   11.4066(10)
_cell_length_c                   19.0232(17)
_cell_angle_alpha                85.723(5)
_cell_angle_beta                 87.476(5)
_cell_angle_gamma                72.054(5)
_cell_volume                     1599.53
_exptl_crystal_colour            yellow
_cell_formula_units_Z            4
_chemical_properties_physical    Acid-sensitive
_exptl_crystal_recrystallization_method ethanol/tetrahydrofuran
_exptl_crystal_preparation       Luminescent
loop_
_atom_site_label
_atom_site_type_symbol
_atom_site_fract_x
_atom_site_fract_y
_atom_site_fract_z
O1 O 0.01831(18) 0.57963(15) 0.14915(8)
O2 O 0.25810(18) 0.47995(14) 0.21131(8)
N1 N 0.6123(4) 0.7851(2) -0.02280(13)
N2 N 1.1888(2) 0.96913(16) -0.20433(9)
C1 C 0.1865(2) 0.54815(17) 0.15884(10)
C2 C 0.3019(2) 0.59388(17) 0.10799(10)
C3 C 0.2256(3) 0.68198(19) 0.05473(11)
H1 H 0.1012 0.7068 0.0488
C4 C 0.3322(3) 0.7332(2) 0.01059(12)
H2 H 0.2800 0.7937 -0.0243
C5 C 0.5179(3) 0.6937(3) 0.01855(12)
C6 C 0.5934(3) 0.6029(3) 0.06970(14)
H3 H 0.7185 0.5746 0.0740
C7 C 0.4875(3) 0.5535(2) 0.11447(12)
H4 H 0.5405 0.4929 0.1492
C8 C 0.7295(4) 0.7160(3) -0.04402(13)
H5 H 0.7585 0.6304 -0.0405
C9 C 0.8444(3) 0.8062(2) -0.08512(11)
C10 C 0.8246(3) 0.9306(3) -0.08353(12)
H6 H 0.7310 0.9794 -0.0564
C11 C 0.9402(3) 0.9849(2) -0.12124(12)
H7 H 0.9244 1.0686 -0.1180
C12 C 1.0799(2) 0.91597(19) -0.16401(10)
C13 C 1.0992(3) 0.7892(2) -0.16469(11)
H8 H 1.1915 0.7390 -0.1917
C14 C 0.9832(3) 0.7389(2) -0.12589(12)
H9 H 1.0001 0.6548 -0.1275
C15 C 1.3333(3) 0.8958(2) -0.25051(12)
H10 H 1.2891 0.8373 -0.2729
H11 H 1.3627 0.9505 -0.2874
C16 C 1.4988(4) 0.8279(3) -0.21224(16)
H12 H 1.5443 0.8853 -0.1904
H13 H 1.5885 0.7825 -0.2447
H14 H 1.4716 0.7716 -0.1767
C17 C 1.1825(3) 1.0961(2) -0.19654(13)
H15 H 1.0570 1.1467 -0.1937
H16 H 1.2370 1.1256 -0.2383
C18 C 1.2772(4) 1.1127(3) -0.13316(16)
H17 H 1.2284 1.0801 -0.0917
H18 H 1.2600 1.1990 -0.1293
H19 H 1.4041 1.0697 -0.1378
H20 H 0.1880 0.4515 0.2461
O3 O -0.18138(17) 0.49834(14) 0.24326(8)
O4 O 0.05916(16) 0.40185(14) 0.30658(8)
N3 N -0.5436(2) 0.23511(16) 0.48721(9)
N4 N -1.1890(3) 0.12012(18) 0.67681(12)
C19 C -0.1093(2) 0.43167(17) 0.29605(10)
C20 C -0.2241(2) 0.38555(17) 0.34716(9)
C21 C -0.1503(2) 0.3106(2) 0.40628(11)
H21 H -0.0277 0.2925 0.4147
C22 C -0.2565(3) 0.2628(2) 0.45229(11)
H22 H -0.2046 0.2114 0.4910
C23 C -0.4403(2) 0.29050(19) 0.44154(10)
C24 C -0.5143(2) 0.3662(2) 0.38286(11)
H23 H -0.6374 0.3854 0.3749
C25 C -0.4082(2) 0.4128(2) 0.33655(10)
H24 H -0.4601 0.4634 0.2976
C26 C -0.6882(3) 0.3031(2) 0.51516(10)
H25 H -0.7152 0.3883 0.5079
C27 C -0.8133(3) 0.25424(19) 0.55795(10)
C28 C -0.7946(2) 0.12855(19) 0.56563(10)
H26 H -0.6960 0.0731 0.5442
C29 C -0.9176(3) 0.0844(2) 0.60385(10)
H27 H -0.9016 -0.0001 0.6073
C30 C -1.0676(3) 0.1642(2) 0.63798(11)
C31 C -1.0844(3) 0.2908(2) 0.63054(12)
H28 H -1.1810 0.3465 0.6528
C32 C -0.9620(3) 0.3340(2) 0.59135(12)
H29 H -0.9786 0.4185 0.5869
C33 C -1.1807(3) -0.0084(2) 0.68028(12)
H30 H -1.2453 -0.0261 0.7225
H31 H -1.0553 -0.0588 0.6843
C34 C -1.2591(3) -0.0445(3) 0.61771(15)
H32 H -1.3837 0.0042 0.6136
H33 H -1.2507 -0.1304 0.6237
H34 H -1.1929 -0.0304 0.5758
C35 C -1.4538(5) 0.2387(4) 0.6842(2)
H35 H -1.4112 0.2835 0.6461
H36 H -1.5672 0.2898 0.7022
H37 H -1.4699 0.1657 0.6672
C36 C -1.3332(6) 0.2070(4) 0.7353(2)
H38 H -1.3661 0.1599 0.7753
H39 H -1.2964 0.2750 0.7503
H40 H -0.1184 0.5277 0.2077
loop_
_geom_bond_atom_site_label_1
_geom_bond_atom_site_label_2
_geom_bond_site_symmetry_1
_geom_bond_site_symmetry_2
O1 C1 1_555 1_555
O2 C1 1_555 1_555
N1 C5 1_555 1_555
N2 C12 1_555 1_555
C1 C2 1_555 1_555
C2 C3 1_555 1_555
C3 H1 1_555 1_555
C4 C3 1_555 1_555
H2 C4 1_555 1_555
C5 C4 1_555 1_555
C6 C5 1_555 1_555
H3 C6 1_555 1_555
C7 C2 1_555 1_555
H4 C7 1_555 1_555
C8 N1 1_555 1_555
H5 C8 1_555 1_555
C9 C8 1_555 1_555
C10 C9 1_555 1_555
H6 C10 1_555 1_555
C11 C10 1_555 1_555
H7 C11 1_555 1_555
C12 C11 1_555 1_555
C13 C12 1_555 1_555
H8 C13 1_555 1_555
C14 C9 1_555 1_555
H9 C14 1_555 1_555
C15 N2 1_555 1_555
H10 C15 1_555 1_555
H11 C15 1_555 1_555
C16 C15 1_555 1_555
H12 C16 1_555 1_555
H13 C16 1_555 1_555
H14 C16 1_555 1_555
C17 N2 1_555 1_555
H15 C17 1_555 1_555
H16 C17 1_555 1_555
C18 C17 1_555 1_555
H17 C18 1_555 1_555
H18 C18 1_555 1_555
H19 C18 1_555 1_555
H20 O2 1_555 1_555
O3 C19 1_555 1_555
O4 C19 1_555 1_555
N3 C23 1_555 1_555
N4 C30 1_555 1_555
C19 C20 1_555 1_555
C20 C21 1_555 1_555
C21 H21 1_555 1_555
C22 C21 1_555 1_555
H22 C22 1_555 1_555
C23 C22 1_555 1_555
C24 C23 1_555 1_555
H23 C24 1_555 1_555
C25 C20 1_555 1_555
H24 C25 1_555 1_555
C26 N3 1_555 1_555
H25 C26 1_555 1_555
C27 C26 1_555 1_555
C28 C27 1_555 1_555
H26 C28 1_555 1_555
C29 C28 1_555 1_555
H27 C29 1_555 1_555
C30 C29 1_555 1_555
C31 C30 1_555 1_555
H28 C31 1_555 1_555
C32 C27 1_555 1_555
H29 C32 1_555 1_555
C33 N4 1_555 1_555
H30 C33 1_555 1_555
H31 C33 1_555 1_555
C34 C33 1_555 1_555
H32 C34 1_555 1_555
H33 C34 1_555 1_555
H34 C34 1_555 1_555
C35 H35 1_555 1_555
H36 C35 1_555 1_555
H37 C35 1_555 1_555
C36 N4 1_555 1_555
H38 C36 1_555 1_555
H39 C36 1_555 1_555
H40 O3 1_555 1_555
C6 C7 1_555 1_555
C13 C14 1_555 1_555
C24 C25 1_555 1_555
C31 C32 1_555 1_555
C35 C36 1_555 1_555

#END
