
#######################################################################
#
#                 Cambridge Crystallographic Data Centre
#                                CCDC 
#
#######################################################################
#
# If this CIF has been generated from an entry in the Cambridge 
# Structural Database, then it will include bibliographic, chemical, 
# crystal, experimental, refinement or atomic coordinate data resulting 
# from the CCDC's data processing and validation procedures.
#
#######################################################################

data_PUSPUQ
_chemical_formula_moiety         'C28 H34 N6 O2'
_chemical_name_systematic        
2,3-bis((4-(dimethylamino)-2-propoxybenzylidene)amino)but-2-enedinitrile
_symmetry_cell_setting           triclinic
_symmetry_space_group_name_H-M   'P -1'
_symmetry_Int_Tables_number      2
_space_group_name_Hall           '-P 1'
loop_
_symmetry_equiv_pos_site_id
_symmetry_equiv_pos_as_xyz
1 x,y,z
2 -x,-y,-z
_cell_length_a                   8.7038(4)
_cell_length_b                   9.2191(4)
_cell_length_c                   10.0892(5)
_cell_angle_alpha                110.554(3)
_cell_angle_beta                 110.343(2)
_cell_angle_gamma                97.368(3)
_cell_volume                     681.258
_exptl_crystal_colour            purple
_exptl_crystal_description       needle
_cell_formula_units_Z            1
loop_
_atom_site_label
_atom_site_type_symbol
_atom_site_fract_x
_atom_site_fract_y
_atom_site_fract_z
O1 O 0.5731(7) 0.2602(7) 0.4533(6)
N1 N 0.2056(9) 0.3434(9) 0.7124(10)
N2 N 0.1466(8) -0.0167(7) 0.4080(7)
N3 N 0.6239(9) -0.1630(9) 0.0425(8)
C1 C 0.1404(10) 0.2117(14) 0.6229(12)
C2 C 0.0719(9) 0.0437(11) 0.5061(11)
C3 C 0.2875(10) 0.0674(9) 0.4223(9)
H1 H 0.3372 0.1722 0.5009
C4 C 0.3704(9) 0.0068(10) 0.3228(10)
C5 C 0.3117(11) -0.1523(10) 0.2078(10)
H2 H 0.2140 -0.2216 0.1938
C6 C 0.3931(10) -0.2085(9) 0.1164(9)
H3 H 0.3485 -0.3145 0.0401
C7 C 0.5438(10) -0.1106(11) 0.1335(11)
C8 C 0.6038(10) 0.0514(10) 0.2488(10)
H4 H 0.6998 0.1217 0.2613
C9 C 0.5213(10) 0.1046(10) 0.3417(10)
C10 C 0.7393(10) 0.3624(9) 0.5027(9)
H5 H 0.7462 0.3877 0.4190
H6 H 0.8264 0.3099 0.5335
C11 C 0.7638(10) 0.5154(10) 0.6411(10)
H7 H 0.6767 0.5670 0.6079
H8 H 0.7507 0.4874 0.7215
C12 C 0.9378(11) 0.6313(10) 0.7073(10)
H9 H 0.9528 0.6553 0.6266
H10 H 1.0239 0.5834 0.7474
H11 H 0.9476 0.7293 0.7901
C13 C 0.5654(11) -0.3298(10) -0.0776(10)
H12 H 0.4427 -0.3647 -0.1275
H13 H 0.6062 -0.3991 -0.0298
H14 H 0.6089 -0.3348 -0.1539
C14 C 0.7798(10) -0.0648(9) 0.0612(8)
H15 H 0.8719 -0.0495 0.1561
H16 H 0.7659 0.0383 0.0659
H17 H 0.8052 -0.1179 -0.0259
O1A O -0.5731(7) -0.2602(7) 0.5467(6)
N1A N -0.2056(9) -0.3434(9) 0.2876(10)
N2A N -0.1466(8) 0.0167(7) 0.5920(7)
N3A N -0.6239(9) 0.1630(9) 0.9575(8)
C1A C -0.1404(10) -0.2117(14) 0.3771(12)
C2A C -0.0719(9) -0.0437(11) 0.4939(11)
C3A C -0.2875(10) -0.0674(9) 0.5777(9)
H1A H -0.3372 -0.1722 0.4991
C4A C -0.3704(9) -0.0068(10) 0.6772(10)
C5A C -0.3117(11) 0.1523(10) 0.7922(10)
H2A H -0.2140 0.2216 0.8062
C6A C -0.3931(10) 0.2085(9) 0.8836(9)
H3A H -0.3485 0.3145 0.9599
C7A C -0.5438(10) 0.1106(11) 0.8665(11)
C8A C -0.6038(10) -0.0514(10) 0.7512(10)
H4A H -0.6998 -0.1217 0.7387
C9A C -0.5213(10) -0.1046(10) 0.6583(10)
C10A C -0.7393(10) -0.3624(9) 0.4973(9)
H5A H -0.7462 -0.3877 0.5810
H6A H -0.8264 -0.3099 0.4665
C11A C -0.7638(10) -0.5154(10) 0.3589(10)
H7A H -0.6767 -0.5670 0.3921
H8A H -0.7507 -0.4874 0.2785
C12A C -0.9378(11) -0.6313(10) 0.2927(10)
H9A H -0.9528 -0.6553 0.3734
H10A H -1.0239 -0.5834 0.2526
H11A H -0.9476 -0.7293 0.2099
C13A C -0.5654(11) 0.3298(10) 1.0776(10)
H12A H -0.4427 0.3647 1.1275
H13A H -0.6062 0.3991 1.0298
H14A H -0.6089 0.3348 1.1539
C14A C -0.7798(10) 0.0648(9) 0.9388(8)
H15A H -0.8719 0.0495 0.8439
H16A H -0.7659 -0.0383 0.9341
H17A H -0.8052 0.1179 1.0259
loop_
_geom_bond_atom_site_label_1
_geom_bond_atom_site_label_2
_geom_bond_site_symmetry_1
_geom_bond_site_symmetry_2
O1 C9 1_555 1_555
N1 C1 1_555 1_555
N2 C2 1_555 1_555
N3 C7 1_555 1_555
C1 C2 1_555 1_555
C2 C2A 1_555 1_555
C3 N2 1_555 1_555
H1 C3 1_555 1_555
C4 C3 1_555 1_555
C5 C4 1_555 1_555
H2 C5 1_555 1_555
C6 C5 1_555 1_555
H3 C6 1_555 1_555
C7 C6 1_555 1_555
C8 C7 1_555 1_555
H4 C8 1_555 1_555
C9 C4 1_555 1_555
C10 O1 1_555 1_555
H5 C10 1_555 1_555
H6 C10 1_555 1_555
C11 C10 1_555 1_555
H7 C11 1_555 1_555
H8 C11 1_555 1_555
C12 C11 1_555 1_555
H9 C12 1_555 1_555
H10 C12 1_555 1_555
H11 C12 1_555 1_555
C13 N3 1_555 1_555
H12 C13 1_555 1_555
H13 C13 1_555 1_555
H14 C13 1_555 1_555
C14 N3 1_555 1_555
H15 C14 1_555 1_555
H16 C14 1_555 1_555
H17 C14 1_555 1_555
O1A C9A 1_555 1_555
N1A C1A 1_555 1_555
N2A C2A 1_555 1_555
N3A C7A 1_555 1_555
C1A C2A 1_555 1_555
C3A N2A 1_555 1_555
H1A C3A 1_555 1_555
C4A C3A 1_555 1_555
C5A C4A 1_555 1_555
H2A C5A 1_555 1_555
C6A C5A 1_555 1_555
H3A C6A 1_555 1_555
C7A C6A 1_555 1_555
C8A C7A 1_555 1_555
H4A C8A 1_555 1_555
C9A C4A 1_555 1_555
C10A O1A 1_555 1_555
H5A C10A 1_555 1_555
H6A C10A 1_555 1_555
C11A C10A 1_555 1_555
H7A C11A 1_555 1_555
H8A C11A 1_555 1_555
C12A C11A 1_555 1_555
H9A C12A 1_555 1_555
H10A C12A 1_555 1_555
H11A C12A 1_555 1_555
C13A N3A 1_555 1_555
H12A C13A 1_555 1_555
H13A C13A 1_555 1_555
H14A C13A 1_555 1_555
C14A N3A 1_555 1_555
H15A C14A 1_555 1_555
H16A C14A 1_555 1_555
H17A C14A 1_555 1_555
C8 C9 1_555 1_555
C8A C9A 1_555 1_555

#END
