
#######################################################################
#
#                 Cambridge Crystallographic Data Centre
#                                CCDC 
#
#######################################################################
#
# If this CIF has been generated from an entry in the Cambridge 
# Structural Database, then it will include bibliographic, chemical, 
# crystal, experimental, refinement or atomic coordinate data resulting 
# from the CCDC's data processing and validation procedures.
#
#######################################################################

data_PUSPOK
_chemical_formula_moiety         'C24 H26 N6 O2'
_chemical_name_systematic        
2,3-bis((4-(dimethylamino)-2-methoxybenzylidene)amino)but-2-enedinitrile
_symmetry_cell_setting           triclinic
_symmetry_space_group_name_H-M   'P -1'
_symmetry_Int_Tables_number      2
_space_group_name_Hall           '-P 1'
loop_
_symmetry_equiv_pos_site_id
_symmetry_equiv_pos_as_xyz
1 x,y,z
2 -x,-y,-z
_cell_length_a                   7.47796(15)
_cell_length_b                   8.79150(16)
_cell_length_c                   10.00729(18)
_cell_angle_alpha                67.6476(10)
_cell_angle_beta                 72.0277(10)
_cell_angle_gamma                80.1605(10)
_cell_volume                     577.708
_exptl_crystal_colour            purple
_cell_formula_units_Z            1
loop_
_atom_site_label
_atom_site_type_symbol
_atom_site_fract_x
_atom_site_fract_y
_atom_site_fract_z
O1 O 0.3178(3) -0.12900(19) 0.54836(19)
N1 N 0.1328(4) 0.2967(3) 0.7694(3)
N2 N 0.0869(3) 0.3351(3) 0.4226(3)
N3 N 0.3396(4) -0.1862(3) 0.0833(3)
C1 C 0.0888(4) 0.3548(3) 0.6611(4)
C2 C 0.0424(4) 0.4218(3) 0.5189(3)
C3 C 0.1594(4) 0.1855(3) 0.4626(3)
C4 C 0.2060(4) 0.0919(3) 0.3663(3)
C5 C 0.1709(4) 0.1544(3) 0.2248(3)
C6 C 0.2114(4) 0.0658(3) 0.1315(3)
C7 C 0.2942(4) -0.0965(3) 0.1758(3)
C8 C 0.3303(4) -0.1624(3) 0.3176(3)
C9 C 0.2873(4) -0.0705(3) 0.4097(3)
C10 C 0.3765(5) -0.2972(3) 0.6087(4)
C11 C 0.2880(5) -0.1287(4) -0.0565(4)
C12 C 0.4273(5) -0.3514(4) 0.1276(4)
H1 H 0.1817 0.1378 0.5568
H2 H 0.1176 0.2611 0.1928
H3 H 0.1845 0.1122 0.0389
H4 H 0.3838 -0.2691 0.3495
H5 H 0.3963 -0.3192 0.7049
H6 H 0.4919 -0.3214 0.5424
H7 H 0.2812 -0.3649 0.6198
H8 H 0.2793 -0.0104 -0.0949
H9 H 0.1685 -0.1689 -0.0397
H10 H 0.3821 -0.1686 -0.1276
H11 H 0.5340 -0.3510 0.1617
H12 H 0.4681 -0.3880 0.0434
H13 H 0.3381 -0.4245 0.2072
O1A O -0.3178(3) 1.12900(19) 0.45164(19)
N1A N -0.1328(4) 0.7033(3) 0.2306(3)
N2A N -0.0869(3) 0.6649(3) 0.5774(3)
N3A N -0.3396(4) 1.1862(3) 0.9167(3)
C1A C -0.0888(4) 0.6452(3) 0.3389(4)
C2A C -0.0424(4) 0.5782(3) 0.4811(3)
C3A C -0.1594(4) 0.8145(3) 0.5374(3)
C4A C -0.2060(4) 0.9081(3) 0.6337(3)
C5A C -0.1709(4) 0.8456(3) 0.7752(3)
C6A C -0.2114(4) 0.9342(3) 0.8685(3)
C7A C -0.2942(4) 1.0965(3) 0.8242(3)
C8A C -0.3303(4) 1.1624(3) 0.6824(3)
C9A C -0.2873(4) 1.0705(3) 0.5903(3)
C10A C -0.3765(5) 1.2972(3) 0.3913(4)
C11A C -0.2880(5) 1.1287(4) 1.0565(4)
C12A C -0.4273(5) 1.3514(4) 0.8724(4)
H1A H -0.1817 0.8622 0.4432
H2A H -0.1176 0.7389 0.8072
H3A H -0.1845 0.8878 0.9611
H4A H -0.3838 1.2691 0.6505
H5A H -0.3963 1.3192 0.2951
H6A H -0.4919 1.3214 0.4576
H7A H -0.2812 1.3649 0.3802
H8A H -0.2793 1.0104 1.0949
H9A H -0.1685 1.1689 1.0397
H10A H -0.3821 1.1686 1.1276
H11A H -0.5340 1.3510 0.8383
H12A H -0.4681 1.3880 0.9566
H13A H -0.3381 1.4245 0.7928
loop_
_geom_bond_atom_site_label_1
_geom_bond_atom_site_label_2
_geom_bond_site_symmetry_1
_geom_bond_site_symmetry_2
O1 C9 1_555 1_555
N1 C1 1_555 1_555
N2 C2 1_555 1_555
N3 C7 1_555 1_555
C1 C2 1_555 1_555
C2 C2A 1_555 1_555
C3 N2 1_555 1_555
C4 C3 1_555 1_555
C5 C4 1_555 1_555
C6 C5 1_555 1_555
C7 C6 1_555 1_555
C8 C7 1_555 1_555
C9 C4 1_555 1_555
C10 O1 1_555 1_555
C11 N3 1_555 1_555
C12 N3 1_555 1_555
H1 C3 1_555 1_555
H2 C5 1_555 1_555
H3 C6 1_555 1_555
H4 C8 1_555 1_555
H5 C10 1_555 1_555
H6 C10 1_555 1_555
H7 C10 1_555 1_555
H8 C11 1_555 1_555
H9 C11 1_555 1_555
H10 C11 1_555 1_555
H11 C12 1_555 1_555
H12 C12 1_555 1_555
H13 C12 1_555 1_555
O1A C9A 1_555 1_555
N1A C1A 1_555 1_555
N2A C2A 1_555 1_555
N3A C7A 1_555 1_555
C1A C2A 1_555 1_555
C3A N2A 1_555 1_555
C4A C3A 1_555 1_555
C5A C4A 1_555 1_555
C6A C5A 1_555 1_555
C7A C6A 1_555 1_555
C8A C7A 1_555 1_555
C9A C4A 1_555 1_555
C10A O1A 1_555 1_555
C11A N3A 1_555 1_555
C12A N3A 1_555 1_555
H1A C3A 1_555 1_555
H2A C5A 1_555 1_555
H3A C6A 1_555 1_555
H4A C8A 1_555 1_555
H5A C10A 1_555 1_555
H6A C10A 1_555 1_555
H7A C10A 1_555 1_555
H8A C11A 1_555 1_555
H9A C11A 1_555 1_555
H10A C11A 1_555 1_555
H11A C12A 1_555 1_555
H12A C12A 1_555 1_555
H13A C12A 1_555 1_555
C8 C9 1_555 1_555
C8A C9A 1_555 1_555

#END
