
#######################################################################
#
#                 Cambridge Crystallographic Data Centre
#                                CCDC 
#
#######################################################################
#
# If this CIF has been generated from an entry in the Cambridge 
# Structural Database, then it will include bibliographic, chemical, 
# crystal, experimental, refinement or atomic coordinate data resulting 
# from the CCDC's data processing and validation procedures.
#
#######################################################################

data_PUSTII
_chemical_formula_moiety         'C63 H39 Cl4 N5 O12,3(C2 H3 N1)'
_chemical_name_systematic        
'4,19,25,40-tetrachloro-47,47,49,49-tetramethoxy-44-(pyren-1-ylmethyl)-46,48-dioxa-6,17,27,38,44-pentaazapentadecacyclo[20.20.3.1^2,21^.1^4,19^.1^23,42^.1^25,40^.0^1,22^.0^3,20^.0^5,18^.0^7,16^.0^9,14^.0^24,41^.0^26,39^.0^28,37^.0^30,35^]nonatetraconta-5(18),6,9,11,13,16,26(39),27,30,32,34,37-dodecaene-8,15,29,36,43,45-hexone acetonitrile solvate'
_symmetry_cell_setting           triclinic
_symmetry_space_group_name_H-M   'P -1'
_symmetry_Int_Tables_number      2
_space_group_name_Hall           '-P 1'
loop_
_symmetry_equiv_pos_site_id
_symmetry_equiv_pos_as_xyz
1 x,y,z
2 -x,-y,-z
_cell_length_a                   13.3266(12)
_cell_length_b                   14.8685(13)
_cell_length_c                   16.6558(15)
_cell_angle_alpha                85.657(2)
_cell_angle_beta                 67.128(2)
_cell_angle_gamma                83.677(2)
_cell_volume                     3020.35
_exptl_crystal_colour            yellow
_exptl_crystal_description       pillar
_cell_formula_units_Z            2
loop_
_atom_site_label
_atom_site_type_symbol
_atom_site_fract_x
_atom_site_fract_y
_atom_site_fract_z
Cl1 Cl 0.50220(7) 1.11387(5) 0.60156(5)
Cl2 Cl 0.60483(6) 1.00446(5) 0.89459(5)
Cl3 Cl 0.37824(6) 0.56221(5) 0.56181(5)
Cl4 Cl 0.46983(6) 0.44972(5) 0.85707(5)
O1 O 0.0920(2) 1.1369(3) 0.80137(18)
O2 O 0.17533(18) 1.03495(18) 1.08394(15)
O3 O 0.56017(18) 1.17462(14) 0.75738(15)
O4 O 0.69730(17) 1.06173(15) 0.69159(14)
O5 O 0.39398(15) 0.88946(13) 0.78832(12)
O6 O 0.35421(15) 0.71991(13) 0.77934(12)
O7 O 0.38380(16) 0.39829(14) 0.71800(13)
O8 O 0.54908(16) 0.45875(13) 0.63458(13)
O9 O -0.01567(18) 0.68623(18) 0.77038(15)
O10 O 0.06623(18) 0.57156(16) 1.05379(14)
O11 O 0.63019(17) 0.78806(14) 0.52748(13)
O12 O 0.69575(17) 0.71760(15) 0.77550(14)
N1 N 0.3032(2) 1.09287(18) 0.77672(17)
N2 N 0.3505(2) 1.03951(16) 0.92851(16)
N3 N 0.18778(19) 0.60838(17) 0.74394(16)
N4 N 0.23530(19) 0.55344(16) 0.89544(16)
N5 N 0.68591(19) 0.74318(17) 0.64025(16)
C1 C -0.0814(3) 1.1641(3) 0.9632(3)
H1 H -0.096(3) 1.181(2) 0.913(2)
C2 C -0.1619(3) 1.1733(3) 1.0451(3)
H2 H -0.230(3) 1.196(2) 1.050(2)
C3 C -0.1405(3) 1.1468(3) 1.1179(3)
H3 H -0.197(3) 1.152(2) 1.176(2)
C4 C -0.0372(3) 1.1108(2) 1.1102(2)
H4 H -0.018(2) 1.087(2) 1.161(2)
C5 C 0.0462(2) 1.1026(2) 1.0281(2)
C6 C 0.0242(3) 1.1292(2) 0.9543(2)
C7 C 0.1112(3) 1.1210(3) 0.8655(2)
C8 C 0.2247(3) 1.0915(2) 0.8589(2)
C9 C 0.2476(2) 1.0657(2) 0.9318(2)
C10 C 0.1571(3) 1.0646(2) 1.0211(2)
C11 C 0.4250(2) 1.0421(2) 0.8490(2)
C12 C 0.4011(3) 1.0679(2) 0.7748(2)
C13 C 0.5071(2) 1.0559(2) 0.69664(19)
C14 C 0.5867(3) 1.0840(2) 0.7376(2)
C15 C 0.6139(4) 1.2087(2) 0.8082(3)
H5 H 0.5793 1.1880 0.8692
H6 H 0.6075 1.2751 0.8044
H7 H 0.6914 1.1861 0.7852
C16 C 0.7460(3) 1.1139(3) 0.6112(3)
H8 H 0.715(4) 1.089(3) 0.565(3)
H9 H 0.821(3) 1.096(2) 0.596(2)
H10 H 0.719(4) 1.178(3) 0.618(3)
C17 C 0.5449(2) 1.0140(2) 0.8170(2)
C18 C 0.5666(2) 0.9245(2) 0.7681(2)
H11 H 0.633(2) 0.9000(18) 0.7574(17)
C19 C 0.5427(2) 0.9528(2) 0.6850(2)
H12 H 0.604(2) 0.9486(18) 0.6296(18)
C20 C 0.4527(2) 0.8923(2) 0.69508(19)
H13 H 0.401(2) 0.9177(19) 0.6676(18)
C21 C 0.4837(2) 0.8542(2) 0.8122(2)
H14 H 0.462(2) 0.8492(16) 0.8714(17)
C22 C 0.5224(2) 0.7653(2) 0.76189(18)
C23 C 0.4996(2) 0.7926(2) 0.67902(18)
C24 C 0.4126(2) 0.7279(2) 0.68580(19)
H15 H 0.363(2) 0.7495(19) 0.6593(18)
C25 C 0.4463(2) 0.6880(2) 0.8019(2)
H16 H 0.419(2) 0.6777(18) 0.8632(19)
C26 C 0.4918(2) 0.6031(2) 0.74736(19)
H17 H 0.564(2) 0.5862(17) 0.7376(16)
C27 C 0.4667(2) 0.6322(2) 0.66443(19)
H18 H 0.529(2) 0.6253(17) 0.6103(17)
C28 C 0.3894(2) 0.5623(2) 0.66354(18)
C29 C 0.4277(2) 0.5181(2) 0.78280(19)
C30 C 0.4431(2) 0.4737(2) 0.69529(19)
C31 C 0.3771(3) 0.3507(3) 0.6482(2)
H19 H 0.447(3) 0.349(2) 0.597(2)
H20 H 0.349(3) 0.292(2) 0.672(2)
H21 H 0.325(3) 0.381(2) 0.631(2)
C32 C 0.6154(3) 0.3828(2) 0.6530(2)
H22 H 0.652(3) 0.399(2) 0.689(2)
H23 H 0.571(3) 0.336(2) 0.678(2)
H24 H 0.673(3) 0.364(2) 0.598(2)
C33 C 0.3071(2) 0.54684(19) 0.81554(19)
C34 C 0.2832(2) 0.57390(19) 0.74107(18)
C35 C 0.1118(2) 0.6167(2) 0.82710(19)
C36 C 0.1348(2) 0.5901(2) 0.89979(19)
C37 C 0.0482(2) 0.5999(2) 0.9903(2)
C38 C -0.0611(2) 0.6439(2) 0.9977(2)
C39 C -0.0836(2) 0.6705(2) 0.9236(2)
C40 C 0.0019(2) 0.6603(2) 0.8345(2)
C41 C -0.1879(3) 0.7090(2) 0.9333(2)
H25 H -0.199(2) 0.7216(19) 0.8849(19)
C42 C -0.2686(3) 0.7200(2) 1.0151(2)
H26 H -0.336(3) 0.747(2) 1.017(2)
C43 C -0.2455(3) 0.6945(2) 1.0882(2)
H27 H -0.299(3) 0.695(2) 1.140(2)
C44 C -0.1436(3) 0.6562(2) 1.0804(2)
H28 H -0.127(3) 0.636(2) 1.130(2)
C45 C 0.6099(2) 0.77579(19) 0.6045(2)
C46 C 0.6432(2) 0.7382(2) 0.7310(2)
C47 C 0.8027(2) 0.7191(2) 0.5864(2)
H29 H 0.842(2) 0.7268(19) 0.6231(19)
H30 H 0.823(3) 0.767(2) 0.535(2)
C48 C 0.8238(2) 0.6249(2) 0.5534(2)
C49 C 0.8193(3) 0.6132(2) 0.4731(2)
H31 H 0.805(3) 0.664(2) 0.437(2)
C50 C 0.8405(3) 0.5288(2) 0.4370(2)
H32 H 0.838(2) 0.520(2) 0.378(2)
C51 C 0.8666(2) 0.4523(2) 0.4810(2)
C52 C 0.8741(2) 0.4621(2) 0.5629(2)
C53 C 0.8527(2) 0.5496(2) 0.5993(2)
C54 C 0.8665(3) 0.5567(3) 0.6800(2)
H33 H 0.856(3) 0.615(2) 0.704(2)
C55 C 0.8972(3) 0.4833(3) 0.7212(2)
H34 H 0.906(3) 0.490(2) 0.777(2)
C56 C 0.9149(3) 0.3948(3) 0.6873(2)
C57 C 0.9037(2) 0.3857(2) 0.6066(2)
C58 C 0.9265(2) 0.2986(2) 0.5693(2)
C59 C 0.9151(3) 0.2915(2) 0.4879(2)
H35 H 0.929(2) 0.228(2) 0.4631(18)
C60 C 0.8875(3) 0.3638(3) 0.4460(2)
H36 H 0.882(2) 0.359(2) 0.391(2)
C61 C 0.9593(3) 0.2245(3) 0.6130(3)
H37 H 0.978(3) 0.163(3) 0.584(2)
C62 C 0.9681(3) 0.2354(3) 0.6916(3)
H38 H 0.990(3) 0.183(3) 0.717(3)
C63 C 0.9462(3) 0.3185(3) 0.7286(3)
H39 H 0.965(3) 0.326(3) 0.781(3)
N6 N 0.8923(4) 0.9193(3) 0.5657(3)
C64 C 0.8980(4) 0.9161(3) 0.6314(3)
C65 C 0.9046(5) 0.9108(6) 0.7151(4)
H40 H 0.969(5) 0.932(4) 0.709(4)
H41 H 0.860(5) 0.936(5) 0.750(4)
H42 H 0.916(6) 0.843(5) 0.736(4)
N7 N 0.6143(4) 0.3353(3) 0.9781(3)
C66 C 0.6465(4) 0.4043(4) 0.9547(3)
C67 C 0.6838(4) 0.4935(4) 0.9261(3)
H43 H 0.731(4) 0.506(3) 0.951(3)
H44 H 0.621(4) 0.546(4) 0.949(3)
H45 H 0.710(3) 0.495(3) 0.865(3)
N8 N 0.7930(3) 1.1062(3) 0.3454(3)
C68 C 0.7864(3) 1.0330(3) 0.3707(3)
C69 C 0.7758(3) 0.9402(3) 0.4028(3)
H46 H 0.6984 0.9314 0.4356
H47 H 0.8162 0.9264 0.4410
H48 H 0.8056 0.8998 0.3535
loop_
_geom_bond_atom_site_label_1
_geom_bond_atom_site_label_2
_geom_bond_site_symmetry_1
_geom_bond_site_symmetry_2
Cl1 C13 1_555 1_555
Cl2 C17 1_555 1_555
Cl3 C28 1_555 1_555
Cl4 C29 1_555 1_555
O1 C7 1_555 1_555
O2 C10 1_555 1_555
O3 C14 1_555 1_555
O4 C14 1_555 1_555
O5 C20 1_555 1_555
O6 C24 1_555 1_555
O7 C30 1_555 1_555
O8 C30 1_555 1_555
O9 C40 1_555 1_555
O10 C37 1_555 1_555
O11 C45 1_555 1_555
O12 C46 1_555 1_555
N1 C8 1_555 1_555
N2 C9 1_555 1_555
N3 C34 1_555 1_555
N4 C33 1_555 1_555
N5 C45 1_555 1_555
C1 H1 1_555 1_555
C2 C1 1_555 1_555
H2 C2 1_555 1_555
C3 C2 1_555 1_555
H3 C3 1_555 1_555
C4 C3 1_555 1_555
H4 C4 1_555 1_555
C5 C4 1_555 1_555
C6 C1 1_555 1_555
C7 C6 1_555 1_555
C8 C7 1_555 1_555
C9 C8 1_555 1_555
C10 C5 1_555 1_555
C11 N2 1_555 1_555
C12 N1 1_555 1_555
C13 C12 1_555 1_555
C14 C13 1_555 1_555
C15 O3 1_555 1_555
H5 C15 1_555 1_555
H6 C15 1_555 1_555
H7 C15 1_555 1_555
C16 O4 1_555 1_555
H8 C16 1_555 1_555
H9 C16 1_555 1_555
H10 C16 1_555 1_555
C17 C11 1_555 1_555
C18 C17 1_555 1_555
H11 C18 1_555 1_555
C19 C13 1_555 1_555
H12 C19 1_555 1_555
C20 C19 1_555 1_555
H13 C20 1_555 1_555
C21 O5 1_555 1_555
H14 C21 1_555 1_555
C22 C21 1_555 1_555
C23 C20 1_555 1_555
C24 C23 1_555 1_555
H15 C24 1_555 1_555
C25 O6 1_555 1_555
H16 C25 1_555 1_555
C26 C25 1_555 1_555
H17 C26 1_555 1_555
C27 C24 1_555 1_555
H18 C27 1_555 1_555
C28 C27 1_555 1_555
C29 C26 1_555 1_555
C30 C28 1_555 1_555
C31 O7 1_555 1_555
H19 C31 1_555 1_555
H20 C31 1_555 1_555
H21 C31 1_555 1_555
C32 O8 1_555 1_555
H22 C32 1_555 1_555
H23 C32 1_555 1_555
H24 C32 1_555 1_555
C33 C29 1_555 1_555
C34 C28 1_555 1_555
C35 N3 1_555 1_555
C36 N4 1_555 1_555
C37 C36 1_555 1_555
C38 C37 1_555 1_555
C39 C38 1_555 1_555
C40 C35 1_555 1_555
C41 C39 1_555 1_555
H25 C41 1_555 1_555
C42 C41 1_555 1_555
H26 C42 1_555 1_555
C43 C42 1_555 1_555
H27 C43 1_555 1_555
C44 C38 1_555 1_555
H28 C44 1_555 1_555
C45 C23 1_555 1_555
C46 N5 1_555 1_555
C47 N5 1_555 1_555
H29 C47 1_555 1_555
H30 C47 1_555 1_555
C48 C47 1_555 1_555
C49 C48 1_555 1_555
H31 C49 1_555 1_555
C50 C49 1_555 1_555
H32 C50 1_555 1_555
C51 C50 1_555 1_555
C52 C51 1_555 1_555
C53 C48 1_555 1_555
C54 C53 1_555 1_555
H33 C54 1_555 1_555
C55 C54 1_555 1_555
H34 C55 1_555 1_555
C56 C55 1_555 1_555
C57 C52 1_555 1_555
C58 C57 1_555 1_555
C59 C58 1_555 1_555
H35 C59 1_555 1_555
C60 C51 1_555 1_555
H36 C60 1_555 1_555
C61 C58 1_555 1_555
H37 C61 1_555 1_555
C62 C61 1_555 1_555
H38 C62 1_555 1_555
C63 C56 1_555 1_555
H39 C63 1_555 1_555
N6 C64 1_555 1_555
C64 C65 1_555 1_555
C65 H40 1_555 1_555
H41 C65 1_555 1_555
H42 C65 1_555 1_555
N7 C66 1_555 1_555
C66 C67 1_555 1_555
C67 H43 1_555 1_555
H44 C67 1_555 1_555
H45 C67 1_555 1_555
N8 C68 1_555 1_555
C68 C69 1_555 1_555
C69 H46 1_555 1_555
H47 C69 1_555 1_555
H48 C69 1_555 1_555
C5 C6 1_555 1_555
C9 C10 1_555 1_555
C11 C12 1_555 1_555
C14 C17 1_555 1_555
C18 C19 1_555 1_555
C18 C21 1_555 1_555
C22 C23 1_555 1_555
C22 C25 1_555 1_555
C22 C46 1_555 1_555
C26 C27 1_555 1_555
C29 C30 1_555 1_555
C33 C34 1_555 1_555
C35 C36 1_555 1_555
C39 C40 1_555 1_555
C43 C44 1_555 1_555
C52 C53 1_555 1_555
C56 C57 1_555 1_555
C59 C60 1_555 1_555
C62 C63 1_555 1_555

#END
