
#######################################################################
#
#                 Cambridge Crystallographic Data Centre
#                                CCDC 
#
#######################################################################
#
# If this CIF has been generated from an entry in the Cambridge 
# Structural Database, then it will include bibliographic, chemical, 
# crystal, experimental, refinement or atomic coordinate data resulting 
# from the CCDC's data processing and validation procedures.
#
#######################################################################

data_PUSTUU
_chemical_formula_moiety         'C55 H39 Cl4 N5 O8'
_chemical_name_systematic        
4,15,21,32-tetrachloro-39,39,41,41-tetramethoxy-36-(pyren-1-ylmethyl)-38,40-dioxa-6,13,23,30,36-pentaazatridecacyclo[16.16.3.1^2,17^.1^4,15^.1^19,34^.1^21,32^.0^1,18^.0^3,16^.0^5,14^.0^7,12^.0^20,33^.0^22,31^.0^24,29^]hentetraconta-5(14),6,8,10,12,22(31),23,25,27,29-decaene-35,37-dione
_symmetry_cell_setting           triclinic
_symmetry_space_group_name_H-M   'P -1'
_symmetry_Int_Tables_number      2
_space_group_name_Hall           '-P 1'
loop_
_symmetry_equiv_pos_site_id
_symmetry_equiv_pos_as_xyz
1 x,y,z
2 -x,-y,-z
_cell_length_a                   14.6598(17)
_cell_length_b                   17.626(2)
_cell_length_c                   26.061(3)
_cell_angle_alpha                77.188(2)
_cell_angle_beta                 85.993(2)
_cell_angle_gamma                87.337(2)
_cell_volume                     6546.97
_cell_formula_units_Z            4
loop_
_atom_site_label
_atom_site_type_symbol
_atom_site_fract_x
_atom_site_fract_y
_atom_site_fract_z
C1 C -0.0723(3) 0.9403(2) 0.26261(15)
C2 C -0.1467(3) 1.0028(2) 0.27193(16)
C3 C -0.1196(3) 0.9954(3) 0.32967(16)
C4 C -0.0168(3) 1.0149(2) 0.32091(16)
H1 H -0.0078 1.0711 0.3116
C5 C 0.0437(3) 0.9736(2) 0.36506(16)
H2 H 0.0192 0.9761 0.4006
C6 C 0.1451(3) 0.9994(2) 0.35210(16)
C7 C 0.2081(3) 0.9607(3) 0.39725(16)
H3 H 0.1833 0.9630 0.4328
C8 C 0.3055(3) 0.9888(3) 0.38401(16)
H4 H 0.3064 1.0458 0.3740
C9 C 0.3750(3) 0.9554(3) 0.42696(18)
C10 C 0.4672(3) 0.9572(3) 0.3895(2)
C11 C 0.4250(3) 0.9039(3) 0.35642(17)
C12 C 0.3384(3) 0.9521(2) 0.33760(17)
H5 H 0.3514 0.9915 0.3053
C13 C 0.2540(3) 0.9034(2) 0.33320(15)
H6 H 0.2686 0.8589 0.3169
C14 C 0.1771(3) 0.9577(2) 0.30800(15)
C15 C 0.0888(3) 0.9150(2) 0.30248(15)
H7 H 0.1000 0.8702 0.2861
C16 C 0.0165(3) 0.9752(2) 0.27550(15)
H8 H 0.0433 1.0123 0.2450
C17 C -0.1001(3) 0.8737(3) 0.30749(16)
C18 C -0.1240(3) 0.7554(3) 0.35882(17)
C19 C -0.1220(3) 0.6741(3) 0.36615(19)
H9 H -0.1023 0.6507 0.3385
C20 C -0.1493(3) 0.6297(3) 0.4142(2)
H10 H -0.1485 0.5758 0.4187
C21 C -0.1785(3) 0.6630(3) 0.4569(2)
H11 H -0.1949 0.6312 0.4894
C22 C -0.1829(3) 0.7421(3) 0.45072(18)
H12 H -0.2045 0.7644 0.4786
C23 C -0.1535(3) 0.7907(3) 0.40043(16)
C24 C -0.1299(3) 0.9084(3) 0.35050(18)
C25 C 0.3981(3) 0.8348(3) 0.40060(18)
C26 C 0.3573(3) 0.7189(3) 0.4467(2)
C27 C 0.3501(4) 0.6366(4) 0.4495(3)
H13 H 0.3691 0.6154 0.4208
C28 C 0.3156(4) 0.5918(4) 0.4940(3)
H14 H 0.3112 0.5388 0.4959
C29 C 0.2863(5) 0.6215(5) 0.5373(3)
H15 H 0.2618 0.5883 0.5674
C30 C 0.2927(4) 0.7013(5) 0.5367(2)
H16 H 0.2737 0.7212 0.5660
C31 C 0.3292(3) 0.7497(4) 0.4899(2)
C32 C 0.3653(3) 0.8685(3) 0.44364(19)
C33 C -0.1870(4) 1.1371(3) 0.2399(2)
H17 H -0.2009 1.1652 0.2052
H18 H -0.1577 1.1709 0.2576
H19 H -0.2426 1.1191 0.2596
C34 C -0.2738(3) 0.9666(4) 0.2296(2)
H20 H -0.2567 1.0069 0.1996
H21 H -0.3392 0.9652 0.2343
H22 H -0.2496 0.9173 0.2240
C35 C 0.6232(3) 0.9095(3) 0.4014(2)
H23 H 0.6312 0.9425 0.3669
H24 H 0.6301 0.8560 0.3989
H25 H 0.6683 0.9208 0.4234
C36 C 0.5297(4) 1.0856(3) 0.3797(2)
H26 H 0.4934 1.1331 0.3726
H27 H 0.5909 1.0954 0.3648
H28 H 0.5309 1.0663 0.4171
C37 C 0.2079(3) 1.0205(3) 0.26259(17)
C38 C 0.1571(3) 1.0843(3) 0.32935(18)
C39 C 0.2127(3) 1.1690(3) 0.24219(19)
H29 H 0.2488 1.1970 0.2613
H30 H 0.2497 1.1611 0.2114
C40 C 0.1299(4) 1.2179(3) 0.22456(19)
C41 C 0.1104(5) 1.2827(3) 0.2463(2)
H31 H 0.1477 1.2933 0.2712
C42 C 0.0335(6) 1.3328(3) 0.2306(3)
H32 H 0.0206 1.3753 0.2459
C43 C -0.0218(5) 1.3198(3) 0.1934(3)
C44 C -0.1017(6) 1.3695(4) 0.1780(3)
H33 H -0.1156 1.4119 0.1932
C45 C -0.1536(6) 1.3552(5) 0.1433(3)
H34 H -0.2024 1.3894 0.1328
C46 C -0.1387(5) 1.2906(4) 0.1213(3)
C47 C -0.1981(6) 1.2715(5) 0.0871(3)
H35 H -0.2498 1.3031 0.0783
C48 C -0.1820(5) 1.2071(6) 0.0661(3)
H36 H -0.2223 1.1970 0.0426
C49 C -0.1078(5) 1.1568(4) 0.0787(2)
H37 H -0.0985 1.1131 0.0642
C50 C -0.0470(4) 1.1729(4) 0.1137(2)
C51 C 0.0330(4) 1.1242(3) 0.1261(2)
H38 H 0.0461 1.0822 0.1103
C52 C 0.0902(4) 1.1403(3) 0.16154(19)
H39 H 0.1417 1.1081 0.1696
C53 C 0.0741(3) 1.2048(3) 0.18684(18)
C54 C -0.0031(4) 1.2559(3) 0.1714(2)
C55 C -0.0618(4) 1.2401(4) 0.1353(2)
N1 N -0.0961(2) 0.7998(2) 0.30973(12)
N2 N -0.1565(2) 0.8718(2) 0.39693(13)
N3 N 0.3947(2) 0.7628(3) 0.39927(15)
N4 N 0.3324(3) 0.8287(3) 0.48782(15)
N5 N 0.1911(2) 1.0914(2) 0.27663(13)
O1 O 0.05129(17) 0.89542(15) 0.35516(10)
O2 O 0.22024(17) 0.88243(16) 0.38767(10)
O3 O -0.12746(19) 1.07213(17) 0.23602(11)
O4 O -0.23796(19) 0.98201(17) 0.27515(12)
O5 O 0.5347(2) 0.9231(2) 0.42357(13)
O6 O 0.4896(2) 1.0273(2) 0.35595(13)
O7 O 0.24172(19) 1.01276(17) 0.22023(12)
O8 O 0.1454(2) 1.13831(18) 0.35042(12)
Cl1 Cl -0.05860(8) 0.91538(7) 0.19938(4)
Cl2 Cl -0.18427(8) 1.05375(7) 0.36732(5)
Cl3 Cl 0.37346(9) 1.00404(9) 0.47842(5)
Cl4 Cl 0.49477(8) 0.88006(8) 0.30372(5)
C56 C 0.7042(3) 0.6125(3) 0.17023(18)
C57 C 0.6604(3) 0.6865(3) 0.1372(2)
C58 C 0.7077(3) 0.7413(3) 0.16614(19)
C59 C 0.8112(3) 0.7178(2) 0.15656(16)
H40 H 0.8381 0.7472 0.1230
C60 C 0.8714(3) 0.7179(2) 0.20339(17)
H41 H 0.8610 0.7636 0.2189
C61 C 0.9733(3) 0.7028(2) 0.18609(15)
C62 C 1.0412(3) 0.7055(3) 0.22724(16)
H42 H 1.0364 0.7531 0.2410
C63 C 1.1398(3) 0.6850(2) 0.20683(15)
H43 H 1.1522 0.7104 0.1697
C64 C 1.2178(3) 0.6964(2) 0.24079(16)
C65 C 1.2847(3) 0.6264(3) 0.23645(18)
C66 C 1.2073(3) 0.5662(3) 0.25610(18)
C67 C 1.1372(3) 0.5960(2) 0.21443(17)
H44 H 1.1542 0.5793 0.1815
C68 C 1.0377(3) 0.5804(3) 0.23241(16)
H45 H 1.0264 0.5263 0.2502
C69 C 0.9729(3) 0.6143(2) 0.18659(16)
C70 C 0.8701(3) 0.5950(3) 0.20332(17)
H46 H 0.8601 0.5401 0.2196
C71 C 0.8097(3) 0.6284(3) 0.15841(18)
H47 H 0.8334 0.6155 0.1251
C72 C 0.6767(3) 0.6243(3) 0.22464(19)
C73 C 0.6413(3) 0.6034(3) 0.3110(2)
C74 C 0.6179(3) 0.5528(4) 0.3602(2)
H48 H 0.6141 0.4997 0.3621
C75 C 0.6011(4) 0.5812(5) 0.4044(3)
H49 H 0.5862 0.5475 0.4364
C76 C 0.6060(4) 0.6602(5) 0.4019(3)
H50 H 0.5930 0.6791 0.4323
C77 C 0.6293(3) 0.7103(4) 0.3561(2)
H51 H 0.6343 0.7629 0.3554
C78 C 0.6457(3) 0.6827(3) 0.3100(2)
C79 C 0.6779(3) 0.7047(3) 0.22205(19)
C80 C 1.1786(3) 0.5885(3) 0.30795(18)
C81 C 1.1307(3) 0.5865(3) 0.39187(17)
C82 C 1.1015(3) 0.5473(3) 0.4421(2)
H52 H 1.0977 0.4934 0.4494
C83 C 1.0785(3) 0.5861(3) 0.4809(2)
H53 H 1.0609 0.5583 0.5145
C84 C 1.0807(3) 0.6651(3) 0.47125(19)
H54 H 1.0623 0.6908 0.4980
C85 C 1.1100(3) 0.7074(3) 0.42238(19)
H55 H 1.1135 0.7613 0.4162
C86 C 1.1347(3) 0.6673(3) 0.38153(17)
C87 C 1.1857(3) 0.6704(3) 0.29833(17)
C88 C 0.6536(4) 0.6610(3) 0.0499(2)
H56 H 0.7004 0.6241 0.0429
H57 H 0.6372 0.6945 0.0173
H58 H 0.6008 0.6337 0.0671
C89 C 0.5104(4) 0.7503(3) 0.1247(3)
H59 H 0.5123 0.7875 0.1464
H60 H 0.4484 0.7356 0.1238
H61 H 0.5338 0.7729 0.0896
C90 C 1.4193(4) 0.6629(3) 0.2719(2)
H62 H 1.4476 0.6772 0.2369
H63 H 1.4649 0.6411 0.2962
H64 H 1.3909 0.7082 0.2817
C91 C 1.3805(4) 0.5743(3) 0.1729(2)
H65 H 1.4067 0.5463 0.2047
H66 H 1.4284 0.5964 0.1478
H67 H 1.3469 0.5393 0.1585
C92 C 1.0072(3) 0.6084(3) 0.1316(2)
C93 C 1.0027(3) 0.7405(3) 0.12976(18)
C94 C 1.0532(4) 0.6970(3) 0.04510(16)
H68 H 1.1101 0.6672 0.0429
H69 H 1.0669 0.7516 0.0333
C95 C 0.9895(4) 0.6765(3) 0.00831(19)
C96 C 1.0109(5) 0.6118(3) -0.0119(2)
H70 H 1.0618 0.5806 -0.0007
C97 C 0.9577(6) 0.5919(4) -0.0490(3)
H71 H 0.9757 0.5488 -0.0627
C98 C 0.8820(5) 0.6322(4) -0.0656(2)
C99 C 0.8265(6) 0.6131(4) -0.1028(3)
H72 H 0.8421 0.5683 -0.1152
C100 C 0.7545(7) 0.6544(6) -0.1211(3)
H73 H 0.7219 0.6394 -0.1463
C101 C 0.7237(5) 0.7284(5) -0.1005(2)
C102 C 0.6468(6) 0.7768(7) -0.1155(4)
H74 H 0.6091 0.7630 -0.1390
C103 C 0.6251(8) 0.8398(6) -0.0985(4)
H75 H 0.5749 0.8711 -0.1108
C104 C 0.6780(5) 0.8587(4) -0.0621(3)
H76 H 0.6612 0.9032 -0.0496
C105 C 0.7559(5) 0.8156(4) -0.0422(2)
C106 C 0.8132(5) 0.8381(4) -0.0067(2)
H77 H 0.7984 0.8833 0.0054
C107 C 0.8897(5) 0.7948(4) 0.0102(2)
H78 H 0.9265 0.8106 0.0332
C108 C 0.9137(4) 0.7211(3) -0.0089(2)
C109 C 0.8570(4) 0.7035(4) -0.0453(2)
C110 C 0.7806(4) 0.7460(4) -0.0625(2)
N6 N 0.6565(2) 0.5722(2) 0.26707(17)
N7 N 0.6643(2) 0.7375(2) 0.26182(17)
N8 N 1.1631(2) 0.7118(2) 0.33341(14)
N9 N 1.1518(2) 0.5449(2) 0.35347(15)
N10 N 1.0182(2) 0.6828(2) 0.10088(14)
O9 O 0.84925(17) 0.64691(16) 0.23821(10)
O10 O 1.01977(17) 0.63566(16) 0.26598(10)
O11 O 0.6873(2) 0.7073(2) 0.08368(13)
O12 O 0.5658(2) 0.68215(19) 0.14612(13)
O13 O 1.3508(2) 0.60594(19) 0.27323(13)
O14 O 1.3190(2) 0.63616(19) 0.18485(13)
O15 O 1.0246(2) 0.5488(2) 0.11633(13)
O16 O 1.0142(2) 0.80943(19) 0.11209(12)
Cl5 Cl 0.67555(9) 0.52153(8) 0.15921(6)
Cl6 Cl 0.68877(9) 0.84313(7) 0.14569(6)
Cl7 Cl 1.25970(8) 0.79188(7) 0.22280(5)
Cl8 Cl 1.23596(9) 0.46563(7) 0.26356(5)
loop_
_geom_bond_atom_site_label_1
_geom_bond_atom_site_label_2
_geom_bond_site_symmetry_1
_geom_bond_site_symmetry_2
C1 C2 1_555 1_555
C2 C3 1_555 1_555
C3 C4 1_555 1_555
C4 H1 1_555 1_555
C5 C4 1_555 1_555
H2 C5 1_555 1_555
C6 C5 1_555 1_555
C7 C6 1_555 1_555
H3 C7 1_555 1_555
C8 C7 1_555 1_555
H4 C8 1_555 1_555
C9 C8 1_555 1_555
C10 C9 1_555 1_555
C11 C10 1_555 1_555
C12 C8 1_555 1_555
H5 C12 1_555 1_555
C13 C12 1_555 1_555
H6 C13 1_555 1_555
C14 C6 1_555 1_555
C15 C14 1_555 1_555
H7 C15 1_555 1_555
C16 C1 1_555 1_555
H8 C16 1_555 1_555
C17 C1 1_555 1_555
C18 C19 1_555 1_555
C19 H9 1_555 1_555
C20 C19 1_555 1_555
H10 C20 1_555 1_555
C21 C20 1_555 1_555
H11 C21 1_555 1_555
C22 C21 1_555 1_555
H12 C22 1_555 1_555
C23 C18 1_555 1_555
C24 C3 1_555 1_555
C25 C11 1_555 1_555
C26 C27 1_555 1_555
C27 H13 1_555 1_555
C28 C27 1_555 1_555
H14 C28 1_555 1_555
C29 C28 1_555 1_555
H15 C29 1_555 1_555
C30 C29 1_555 1_555
H16 C30 1_555 1_555
C31 C26 1_555 1_555
C32 C9 1_555 1_555
C33 H17 1_555 1_555
H18 C33 1_555 1_555
H19 C33 1_555 1_555
C34 H20 1_555 1_555
H21 C34 1_555 1_555
H22 C34 1_555 1_555
C35 H23 1_555 1_555
H24 C35 1_555 1_555
H25 C35 1_555 1_555
C36 H26 1_555 1_555
H27 C36 1_555 1_555
H28 C36 1_555 1_555
C37 C14 1_555 1_555
C38 C6 1_555 1_555
C39 H29 1_555 1_555
H30 C39 1_555 1_555
C40 C39 1_555 1_555
C41 C40 1_555 1_555
H31 C41 1_555 1_555
C42 C41 1_555 1_555
H32 C42 1_555 1_555
C43 C42 1_555 1_555
C44 C43 1_555 1_555
H33 C44 1_555 1_555
C45 C44 1_555 1_555
H34 C45 1_555 1_555
C46 C45 1_555 1_555
C47 C46 1_555 1_555
H35 C47 1_555 1_555
C48 C47 1_555 1_555
H36 C48 1_555 1_555
C49 C48 1_555 1_555
H37 C49 1_555 1_555
C50 C49 1_555 1_555
C51 C50 1_555 1_555
H38 C51 1_555 1_555
C52 C51 1_555 1_555
H39 C52 1_555 1_555
C53 C40 1_555 1_555
C54 C43 1_555 1_555
C55 C46 1_555 1_555
N1 C17 1_555 1_555
N2 C23 1_555 1_555
N3 C25 1_555 1_555
N4 C31 1_555 1_555
N5 C37 1_555 1_555
O1 C5 1_555 1_555
O2 C7 1_555 1_555
O3 C2 1_555 1_555
O4 C2 1_555 1_555
O5 C10 1_555 1_555
O6 C10 1_555 1_555
O7 C37 1_555 1_555
O8 C38 1_555 1_555
Cl1 C1 1_555 1_555
Cl2 C3 1_555 1_555
Cl3 C9 1_555 1_555
Cl4 C11 1_555 1_555
C56 C57 1_555 1_555
C57 C58 1_555 1_555
C58 C59 1_555 1_555
C59 H40 1_555 1_555
C60 C59 1_555 1_555
H41 C60 1_555 1_555
C61 C60 1_555 1_555
C62 C61 1_555 1_555
H42 C62 1_555 1_555
C63 C62 1_555 1_555
H43 C63 1_555 1_555
C64 C63 1_555 1_555
C65 C64 1_555 1_555
C66 C65 1_555 1_555
C67 C63 1_555 1_555
H44 C67 1_555 1_555
C68 C67 1_555 1_555
H45 C68 1_555 1_555
C69 C61 1_555 1_555
C70 C69 1_555 1_555
H46 C70 1_555 1_555
C71 C56 1_555 1_555
H47 C71 1_555 1_555
C72 C56 1_555 1_555
C73 C74 1_555 1_555
C74 H48 1_555 1_555
C75 C74 1_555 1_555
H49 C75 1_555 1_555
C76 C75 1_555 1_555
H50 C76 1_555 1_555
C77 C76 1_555 1_555
H51 C77 1_555 1_555
C78 C73 1_555 1_555
C79 C58 1_555 1_555
C80 C66 1_555 1_555
C81 C82 1_555 1_555
C82 H52 1_555 1_555
C83 C82 1_555 1_555
H53 C83 1_555 1_555
C84 C83 1_555 1_555
H54 C84 1_555 1_555
C85 C84 1_555 1_555
H55 C85 1_555 1_555
C86 C81 1_555 1_555
C87 C64 1_555 1_555
C88 H56 1_555 1_555
H57 C88 1_555 1_555
H58 C88 1_555 1_555
C89 H59 1_555 1_555
H60 C89 1_555 1_555
H61 C89 1_555 1_555
C90 H62 1_555 1_555
H63 C90 1_555 1_555
H64 C90 1_555 1_555
C91 H65 1_555 1_555
H66 C91 1_555 1_555
H67 C91 1_555 1_555
C92 C69 1_555 1_555
C93 C61 1_555 1_555
C94 H68 1_555 1_555
H69 C94 1_555 1_555
C95 C94 1_555 1_555
C96 C95 1_555 1_555
H70 C96 1_555 1_555
C97 C96 1_555 1_555
H71 C97 1_555 1_555
C98 C97 1_555 1_555
C99 C98 1_555 1_555
H72 C99 1_555 1_555
C100 C99 1_555 1_555
H73 C100 1_555 1_555
C101 C100 1_555 1_555
C102 C101 1_555 1_555
H74 C102 1_555 1_555
C103 C102 1_555 1_555
H75 C103 1_555 1_555
C104 C103 1_555 1_555
H76 C104 1_555 1_555
C105 C104 1_555 1_555
C106 C105 1_555 1_555
H77 C106 1_555 1_555
C107 C106 1_555 1_555
H78 C107 1_555 1_555
C108 C95 1_555 1_555
C109 C98 1_555 1_555
C110 C101 1_555 1_555
N6 C72 1_555 1_555
N7 C78 1_555 1_555
N8 C86 1_555 1_555
N9 C80 1_555 1_555
N10 C92 1_555 1_555
O9 C60 1_555 1_555
O10 C62 1_555 1_555
O11 C57 1_555 1_555
O12 C57 1_555 1_555
O13 C65 1_555 1_555
O14 C65 1_555 1_555
O15 C92 1_555 1_555
O16 C93 1_555 1_555
Cl5 C56 1_555 1_555
Cl6 C58 1_555 1_555
Cl7 C64 1_555 1_555
Cl8 C66 1_555 1_555
C4 C16 1_555 1_555
C11 C12 1_555 1_555
C13 C14 1_555 1_555
C13 O2 1_555 1_555
C15 C16 1_555 1_555
C15 O1 1_555 1_555
C17 C24 1_555 1_555
C18 N1 1_555 1_555
C22 C23 1_555 1_555
C24 N2 1_555 1_555
C25 C32 1_555 1_555
C26 N3 1_555 1_555
C30 C31 1_555 1_555
C32 N4 1_555 1_555
C33 O3 1_555 1_555
C34 O4 1_555 1_555
C35 O5 1_555 1_555
C36 O6 1_555 1_555
C38 N5 1_555 1_555
C39 N5 1_555 1_555
C50 C55 1_555 1_555
C52 C53 1_555 1_555
C53 C54 1_555 1_555
C54 C55 1_555 1_555
C59 C71 1_555 1_555
C66 C67 1_555 1_555
C68 C69 1_555 1_555
C68 O10 1_555 1_555
C70 C71 1_555 1_555
C70 O9 1_555 1_555
C72 C79 1_555 1_555
C73 N6 1_555 1_555
C77 C78 1_555 1_555
C79 N7 1_555 1_555
C80 C87 1_555 1_555
C81 N9 1_555 1_555
C85 C86 1_555 1_555
C87 N8 1_555 1_555
C88 O11 1_555 1_555
C89 O12 1_555 1_555
C90 O13 1_555 1_555
C91 O14 1_555 1_555
C93 N10 1_555 1_555
C94 N10 1_555 1_555
C105 C110 1_555 1_555
C107 C108 1_555 1_555
C108 C109 1_555 1_555
C109 C110 1_555 1_555

#END
