
#######################################################################
#
#                 Cambridge Crystallographic Data Centre
#                                CCDC 
#
#######################################################################
#
# If this CIF has been generated from an entry in the Cambridge 
# Structural Database, then it will include bibliographic, chemical, 
# crystal, experimental, refinement or atomic coordinate data resulting 
# from the CCDC's data processing and validation procedures.
#
#######################################################################

data_PUSWOQ
_chemical_formula_moiety         'C11 H14 N2 O2'
_chemical_name_systematic        3-Acetamido-N,N-dimethylbenzamide
_symmetry_cell_setting           monoclinic
_symmetry_space_group_name_H-M   'P 21'
_symmetry_Int_Tables_number      4
_space_group_name_Hall           'P 2yb'
loop_
_symmetry_equiv_pos_site_id
_symmetry_equiv_pos_as_xyz
1 x,y,z
2 -x,1/2+y,-z
_cell_length_a                   6.545(5)
_cell_length_b                   9.091(5)
_cell_length_c                   9.249(5)
_cell_angle_alpha                90
_cell_angle_beta                 96.382(5)
_cell_angle_gamma                90
_cell_volume                     546.911
_exptl_crystal_colour            colorless
_cell_formula_units_Z            2
loop_
_atom_site_label
_atom_site_type_symbol
_atom_site_fract_x
_atom_site_fract_y
_atom_site_fract_z
C1 C 0.0997(5) 0.1954(4) 0.8255(3)
C2 C 0.0096(4) 0.2223(4) 0.9519(3)
H1 H 0.0727 0.2867 1.0212
C3 C -0.1724(5) 0.1547(3) 0.9762(3)
C4 C -0.2820(5) 0.1994(4) 1.1050(3)
C5 C 0.0050(5) 0.0970(4) 0.7234(4)
H2 H 0.0639 0.0769 0.6386
C6 C -0.2690(5) 0.0584(3) 0.8732(4)
H3 H -0.3932 0.0142 0.8879
C7 C 0.0134(6) 0.1101(5) 1.2732(4)
H4 H 0.0607 0.0747 1.1849
H5 H -0.0071 0.0284 1.3357
H6 H 0.1141 0.1754 1.3215
C8 C 0.5535(6) 0.3947(5) 0.6999(5)
H7 H 0.5849 0.4293 0.6068
H8 H 0.6572 0.3262 0.7384
H9 H 0.5500 0.4764 0.7652
C9 C 0.3474(5) 0.3196(4) 0.6828(4)
C10 C -0.1773(6) 0.0296(4) 0.7490(4)
H10 H -0.2392 -0.0365 0.6809
C11 C -0.2723(6) 0.2491(5) 1.3626(4)
H11 H -0.3974 0.2997 1.3289
H12 H -0.1779 0.3167 1.4142
H13 H -0.3019 0.1706 1.4265
N1 N -0.1811(4) 0.1890(3) 1.2387(3)
N2 N 0.2868(4) 0.2657(4) 0.8084(3)
H14 H 0.3720 0.2757 0.8856
O1 O -0.4580(3) 0.2497(3) 1.0843(3)
O2 O 0.2431(5) 0.3107(4) 0.5667(3)
loop_
_geom_bond_atom_site_label_1
_geom_bond_atom_site_label_2
_geom_bond_site_symmetry_1
_geom_bond_site_symmetry_2
C1 C2 1_555 1_555
C2 H1 1_555 1_555
C3 C2 1_555 1_555
C4 C3 1_555 1_555
C5 C1 1_555 1_555
H2 C5 1_555 1_555
C6 C3 1_555 1_555
H3 C6 1_555 1_555
C7 H4 1_555 1_555
H5 C7 1_555 1_555
H6 C7 1_555 1_555
C8 H7 1_555 1_555
H8 C8 1_555 1_555
H9 C8 1_555 1_555
C9 C8 1_555 1_555
C10 C5 1_555 1_555
H10 C10 1_555 1_555
C11 H11 1_555 1_555
H12 C11 1_555 1_555
H13 C11 1_555 1_555
N1 C4 1_555 1_555
N2 C1 1_555 1_555
H14 N2 1_555 1_555
O1 C4 1_555 1_555
O2 C9 1_555 1_555
C6 C10 1_555 1_555
C7 N1 1_555 1_555
C9 N2 1_555 1_555
C11 N1 1_555 1_555

#END
