
#######################################################################
#
#                 Cambridge Crystallographic Data Centre
#                                CCDC 
#
#######################################################################
#
# If this CIF has been generated from an entry in the Cambridge 
# Structural Database, then it will include bibliographic, chemical, 
# crystal, experimental, refinement or atomic coordinate data resulting 
# from the CCDC's data processing and validation procedures.
#
#######################################################################

data_PUSZUA
_chemical_formula_moiety         'C32 H32 N1 O4 P1'
_chemical_name_systematic        
11,12-dimethyl-N,N-bis(1-phenylethyl)-11,12-dihydro[1,3,2]benzodioxaphosphepino[6,5,4-efg][1,4]benzodioxocin-5-amine
_symmetry_cell_setting           orthorhombic
_symmetry_space_group_name_H-M   'P 21 21 21'
_symmetry_Int_Tables_number      19
_space_group_name_Hall           'P 2ac 2ab'
loop_
_symmetry_equiv_pos_site_id
_symmetry_equiv_pos_as_xyz
1 x,y,z
2 1/2-x,-y,1/2+z
3 -x,1/2+y,1/2-z
4 1/2+x,1/2-y,-z
_cell_length_a                   8.4161(2)
_cell_length_b                   13.3624(3)
_cell_length_c                   24.8701(5)
_cell_angle_alpha                90
_cell_angle_beta                 90
_cell_angle_gamma                90
_cell_volume                     2796.87
_exptl_crystal_colour            colorless
_exptl_crystal_description       block
_cell_formula_units_Z            4
loop_
_atom_site_label
_atom_site_type_symbol
_atom_site_fract_x
_atom_site_fract_y
_atom_site_fract_z
P1 P 0.42724(5) 0.63361(3) 0.156249(17)
O1 O 0.56250(12) 0.62951(6) 0.10770(4)
O2 O 0.52517(13) 0.70918(7) 0.19805(4)
O3 O 0.81169(12) 0.95174(7) 0.10679(4)
O4 O 1.02749(12) 0.80684(7) 0.12293(4)
N1 N 0.44998(16) 0.51729(9) 0.17758(5)
C1 C 0.59650(17) 0.71951(10) 0.08189(6)
C2 C 0.69789(17) 0.78713(10) 0.10705(6)
C3 C 0.72893(17) 0.87714(10) 0.08003(6)
C4 C 0.6695(2) 0.89431(12) 0.02930(6)
H1 H 0.6885(17) 0.9579(11) 0.0126(6)
C5 C 0.5762(2) 0.82313(13) 0.00468(7)
H2 H 0.546(2) 0.8331(13) -0.0297(7)
C6 C 0.5369(2) 0.73579(12) 0.03103(7)
H3 H 0.465(2) 0.6877(11) 0.0169(6)
C7 C 0.77376(17) 0.76328(9) 0.15911(6)
C8 C 0.6877(2) 0.72390(10) 0.20230(6)
C9 C 0.7600(2) 0.70775(11) 0.25186(7)
H4 H 0.698(2) 0.6825(12) 0.2805(6)
C10 C 0.9188(3) 0.72825(12) 0.25821(7)
H5 H 0.969(2) 0.7171(13) 0.2924(7)
C11 C 1.0081(2) 0.76261(12) 0.21559(7)
H6 H 1.117(2) 0.7682(13) 0.2205(6)
C12 C 0.93618(19) 0.77923(10) 0.16652(6)
C13 C 1.0848(2) 0.90903(12) 0.12295(7)
H7 H 1.0828(19) 0.9334(11) 0.1595(6)
C14 C 0.9722(2) 0.97056(11) 0.08910(7)
H8 H 0.9754(18) 0.9477(11) 0.0516(6)
C15 C 1.2532(2) 0.90723(17) 0.10135(12)
H9 H 1.2947 0.9741 0.1005
H10 H 1.2531 0.8800 0.0656
H11 H 1.3184 0.8665 0.1242
C16 C 1.0007(3) 1.08273(13) 0.09466(10)
H12 H 1.1103 1.0973 0.0874
H13 H 0.9751 1.1035 0.1306
H14 H 0.9347 1.1181 0.0695
C17 C 0.3048(2) 0.46275(11) 0.19649(7)
H15 H 0.3455(19) 0.3982(12) 0.2049(6)
C18 C 0.18227(18) 0.45087(11) 0.15239(7)
C19 C 0.0649(2) 0.52098(13) 0.14281(7)
H16 H 0.055(2) 0.5740(13) 0.1654(7)
C20 C -0.0409(2) 0.51071(16) 0.10106(9)
H17 H -0.123(3) 0.5627(15) 0.0966(8)
C21 C -0.0315(3) 0.42844(17) 0.06863(8)
H18 H -0.1022 0.4211 0.0402
C22 C 0.0814(3) 0.35668(16) 0.07779(8)
H19 H 0.0868 0.3006 0.0557
C23 C 0.1869(2) 0.36732(13) 0.11957(7)
H20 H 0.263(2) 0.3183(13) 0.1278(7)
C24 C 0.2390(3) 0.50696(14) 0.24854(7)
H21 H 0.1544 0.4654 0.2616
H22 H 0.1992 0.5731 0.2417
H23 H 0.3220 0.5102 0.2750
C25 C 0.6029(2) 0.46293(12) 0.18157(7)
H24 H 0.6833(18) 0.5099(12) 0.1637(6)
C26 C 0.59883(19) 0.36978(12) 0.14681(7)
C27 C 0.5719(3) 0.37984(14) 0.09212(8)
H25 H 0.562(3) 0.4449(15) 0.0785(8)
C28 C 0.5630(3) 0.29842(16) 0.05915(9)
H26 H 0.534(3) 0.3061(15) 0.0212(9)
C29 C 0.5817(3) 0.20281(16) 0.07956(9)
H27 H 0.561(3) 0.1449(16) 0.0566(8)
C30 C 0.6068(3) 0.19131(14) 0.13296(9)
H28 H 0.612(3) 0.1260(17) 0.1479(8)
C31 C 0.6162(2) 0.27356(13) 0.16655(8)
H29 H 0.6344 0.2640 0.2031
C32 C 0.6495(3) 0.44331(15) 0.24006(8)
H30 H 0.5993 0.3830 0.2523
H31 H 0.6158 0.4985 0.2620
H32 H 0.7628 0.4362 0.2426
loop_
_geom_bond_atom_site_label_1
_geom_bond_atom_site_label_2
_geom_bond_site_symmetry_1
_geom_bond_site_symmetry_2
P1 O1 1_555 1_555
O1 C1 1_555 1_555
O2 P1 1_555 1_555
O3 C3 1_555 1_555
O4 C12 1_555 1_555
N1 P1 1_555 1_555
C1 C2 1_555 1_555
C2 C3 1_555 1_555
C3 C4 1_555 1_555
C4 H1 1_555 1_555
C5 C4 1_555 1_555
H2 C5 1_555 1_555
C6 C1 1_555 1_555
H3 C6 1_555 1_555
C7 C2 1_555 1_555
C8 O2 1_555 1_555
C9 C8 1_555 1_555
H4 C9 1_555 1_555
C10 C9 1_555 1_555
H5 C10 1_555 1_555
C11 C10 1_555 1_555
H6 C11 1_555 1_555
C12 C7 1_555 1_555
C13 O4 1_555 1_555
H7 C13 1_555 1_555
C14 O3 1_555 1_555
H8 C14 1_555 1_555
C15 C13 1_555 1_555
H9 C15 1_555 1_555
H10 C15 1_555 1_555
H11 C15 1_555 1_555
C16 C14 1_555 1_555
H12 C16 1_555 1_555
H13 C16 1_555 1_555
H14 C16 1_555 1_555
C17 N1 1_555 1_555
H15 C17 1_555 1_555
C18 C17 1_555 1_555
C19 C18 1_555 1_555
H16 C19 1_555 1_555
C20 C19 1_555 1_555
H17 C20 1_555 1_555
C21 C20 1_555 1_555
H18 C21 1_555 1_555
C22 C21 1_555 1_555
H19 C22 1_555 1_555
C23 C18 1_555 1_555
H20 C23 1_555 1_555
C24 C17 1_555 1_555
H21 C24 1_555 1_555
H22 C24 1_555 1_555
H23 C24 1_555 1_555
C25 N1 1_555 1_555
H24 C25 1_555 1_555
C26 C25 1_555 1_555
C27 C26 1_555 1_555
H25 C27 1_555 1_555
C28 C27 1_555 1_555
H26 C28 1_555 1_555
C29 C28 1_555 1_555
H27 C29 1_555 1_555
C30 C29 1_555 1_555
H28 C30 1_555 1_555
C31 C26 1_555 1_555
H29 C31 1_555 1_555
C32 C25 1_555 1_555
H30 C32 1_555 1_555
H31 C32 1_555 1_555
H32 C32 1_555 1_555
C5 C6 1_555 1_555
C7 C8 1_555 1_555
C11 C12 1_555 1_555
C13 C14 1_555 1_555
C22 C23 1_555 1_555
C30 C31 1_555 1_555

#END
