
#######################################################################
#
#                 Cambridge Crystallographic Data Centre
#                                CCDC 
#
#######################################################################
#
# If this CIF has been generated from an entry in the Cambridge 
# Structural Database, then it will include bibliographic, chemical, 
# crystal, experimental, refinement or atomic coordinate data resulting 
# from the CCDC's data processing and validation procedures.
#
#######################################################################

data_PUTBOX
_chemical_formula_moiety         'C28 H23 N1 O3'
_chemical_name_systematic        
6-benzyl-2-(2-oxo-2-phenylethyl)-4-phenyl-5,6-dihydropyrano[2,3-c]pyrrol-7(4H)-one
_symmetry_cell_setting           orthorhombic
_symmetry_space_group_name_H-M   'P 21 21 21'
_symmetry_Int_Tables_number      19
_space_group_name_Hall           'P 2ac 2ab'
loop_
_symmetry_equiv_pos_site_id
_symmetry_equiv_pos_as_xyz
1 x,y,z
2 1/2-x,-y,1/2+z
3 1/2+x,1/2-y,-z
4 -x,1/2+y,1/2-z
_cell_length_a                   4.98554(7)
_cell_length_b                   20.3658(4)
_cell_length_c                   21.6733(3)
_cell_angle_alpha                90
_cell_angle_beta                 90
_cell_angle_gamma                90
_cell_volume                     2200.59
_exptl_crystal_colour            'dark yellow'
_exptl_crystal_description       needle
_cell_formula_units_Z            4
loop_
_atom_site_label
_atom_site_type_symbol
_atom_site_fract_x
_atom_site_fract_y
_atom_site_fract_z
O1 O 0.9454(3) -0.12265(7) -0.16407(6)
O2 O 0.5766(4) -0.17122(8) -0.26104(8)
O3 O 0.8034(4) -0.06917(9) -0.03390(8)
N1 N 0.7175(4) -0.07880(9) -0.31306(8)
C1 C 0.7115(5) -0.12145(10) -0.26481(9)
C2 C 0.9014(4) -0.09344(10) -0.21963(8)
C3 C 1.1450(4) -0.09186(11) -0.12971(9)
C4 C 1.2735(4) -0.03877(12) -0.14699(9)
H1 H 1.4101 -0.0237 -0.1214
C5 C 1.2180(4) 0.00005(11) -0.20508(9)
H2 H 1.3842 0.0038 -0.2290
C6 C 1.0199(4) -0.03996(10) -0.24102(8)
C7 C 0.9098(5) -0.02620(11) -0.30388(9)
H3 H 0.8229 0.0164 -0.3053
H4 H 1.0502 -0.0276 -0.3349
C8 C 0.5975(5) -0.09181(13) -0.37330(10)
H5 H 0.5076 -0.0525 -0.3878
H6 H 0.4639 -0.1262 -0.3692
C9 C 0.8046(5) -0.11259(11) -0.42002(8)
C10 C 0.9067(5) -0.17520(11) -0.41981(10)
H7 H 0.8407 -0.2057 -0.3917
C11 C 1.1053(6) -0.19355(13) -0.46056(12)
H8 H 1.1707 -0.2363 -0.4597
C12 C 1.2071(6) -0.14981(16) -0.50204(10)
H9 H 1.3424 -0.1623 -0.5291
C13 C 1.1078(8) -0.08763(16) -0.50321(11)
H10 H 1.1753 -0.0575 -0.5315
C14 C 0.9059(7) -0.06859(12) -0.46252(10)
H11 H 0.8390 -0.0260 -0.4640
C15 C 1.1073(4) 0.06861(10) -0.19294(8)
C16 C 0.9028(5) 0.07833(11) -0.15039(11)
H12 H 0.8442 0.0434 -0.1263
C17 C 0.7857(6) 0.13913(13) -0.14351(12)
H13 H 0.6469 0.1448 -0.1153
C18 C 0.8737(7) 0.19153(12) -0.17823(13)
H14 H 0.7926 0.2324 -0.1741
C19 C 1.0794(8) 0.18325(13) -0.21857(13)
H15 H 1.1418 0.2189 -0.2413
C20 C 1.1974(6) 0.12190(12) -0.22621(11)
H16 H 1.3380 0.1168 -0.2540
C21 C 1.1839(5) -0.12717(12) -0.06997(10)
H17 H 1.3576 -0.1155 -0.0531
H18 H 1.1840 -0.1741 -0.0777
C22 C 0.9694(4) -0.11140(10) -0.02305(9)
C23 C 0.9647(5) -0.14824(10) 0.03654(9)
C24 C 1.1362(6) -0.19980(13) 0.04934(12)
H19 H 1.2649 -0.2122 0.0206
C25 C 1.1167(7) -0.23317(15) 0.10515(14)
H20 H 1.2311 -0.2682 0.1132
C26 C 0.9313(7) -0.21497(14) 0.14817(12)
H21 H 0.9205 -0.2372 0.1856
C27 C 0.7616(8) -0.16384(16) 0.13598(13)
H22 H 0.6349 -0.1514 0.1652
C28 C 0.7768(7) -0.13039(14) 0.08021(11)
H23 H 0.6599 -0.0958 0.0723
loop_
_geom_bond_atom_site_label_1
_geom_bond_atom_site_label_2
_geom_bond_site_symmetry_1
_geom_bond_site_symmetry_2
O1 C2 1_555 1_555
O2 C1 1_555 1_555
O3 C22 1_555 1_555
N1 C1 1_555 1_555
C1 C2 1_555 1_555
C2 C6 1_555 1_555
C3 O1 1_555 1_555
C4 C3 1_555 1_555
H1 C4 1_555 1_555
C5 C4 1_555 1_555
H2 C5 1_555 1_555
C6 C5 1_555 1_555
C7 N1 1_555 1_555
H3 C7 1_555 1_555
H4 C7 1_555 1_555
C8 N1 1_555 1_555
H5 C8 1_555 1_555
H6 C8 1_555 1_555
C9 C8 1_555 1_555
C10 C9 1_555 1_555
H7 C10 1_555 1_555
C11 C10 1_555 1_555
H8 C11 1_555 1_555
C12 C11 1_555 1_555
H9 C12 1_555 1_555
C13 C12 1_555 1_555
H10 C13 1_555 1_555
C14 C9 1_555 1_555
H11 C14 1_555 1_555
C15 C5 1_555 1_555
C16 C15 1_555 1_555
H12 C16 1_555 1_555
C17 C16 1_555 1_555
H13 C17 1_555 1_555
C18 C17 1_555 1_555
H14 C18 1_555 1_555
C19 C18 1_555 1_555
H15 C19 1_555 1_555
C20 C15 1_555 1_555
H16 C20 1_555 1_555
C21 C3 1_555 1_555
H17 C21 1_555 1_555
H18 C21 1_555 1_555
C22 C21 1_555 1_555
C23 C22 1_555 1_555
C24 C23 1_555 1_555
H19 C24 1_555 1_555
C25 C24 1_555 1_555
H20 C25 1_555 1_555
C26 C25 1_555 1_555
H21 C26 1_555 1_555
C27 C26 1_555 1_555
H22 C27 1_555 1_555
C28 C23 1_555 1_555
H23 C28 1_555 1_555
C6 C7 1_555 1_555
C13 C14 1_555 1_555
C19 C20 1_555 1_555
C27 C28 1_555 1_555

#END
