
#######################################################################
#
#                 Cambridge Crystallographic Data Centre
#                                CCDC 
#
#######################################################################
#
# If this CIF has been generated from an entry in the Cambridge 
# Structural Database, then it will include bibliographic, chemical, 
# crystal, experimental, refinement or atomic coordinate data resulting 
# from the CCDC's data processing and validation procedures.
#
#######################################################################

data_PUTBIR
_chemical_formula_moiety         'C38 H45 N1 O12 S1'
_chemical_name_systematic        
'triethyl 2-(3,4-dimethoxyphenyl)-6a-ethoxy-5-((4-methylphenyl)sulfonyl)-4-phenyldihydro-2H-furo[2,3-c]pyrrole-3a,6,6(3H,6aH)-tricarboxylate'
_symmetry_cell_setting           triclinic
_symmetry_space_group_name_H-M   'P -1'
_symmetry_Int_Tables_number      2
_space_group_name_Hall           '-P 1'
loop_
_symmetry_equiv_pos_site_id
_symmetry_equiv_pos_as_xyz
1 x,y,z
2 -x,-y,-z
_cell_length_a                   11.1990(4)
_cell_length_b                   12.1908(4)
_cell_length_c                   15.6001(5)
_cell_angle_alpha                84.885(2)
_cell_angle_beta                 73.475(2)
_cell_angle_gamma                67.0370(10)
_cell_volume                     1879.46
_exptl_crystal_colour            colorless
_exptl_crystal_description       block
_chemical_melting_point          '388 K'
_cell_formula_units_Z            2
loop_
_atom_site_label
_atom_site_type_symbol
_atom_site_fract_x
_atom_site_fract_y
_atom_site_fract_z
S1 S -0.28552(4) -0.31993(4) 0.93870(3)
O1 O 0.02911(11) -0.17300(11) 0.80210(9)
O2 O -0.00540(11) -0.26169(10) 0.65742(8)
O3 O -0.38198(12) -0.07484(10) 0.85032(9)
O4 O -0.22655(13) -0.26633(11) 0.98424(8)
O5 O 0.53169(13) -0.70517(13) 0.53419(9)
O6 O 0.36538(12) -0.66557(12) 0.69277(9)
O7 O -0.42884(12) -0.27710(11) 0.95813(9)
O8 O -0.19672(13) -0.08677(11) 0.67406(9)
O9 O -0.24854(14) -0.19888(13) 0.53830(10)
O10 O 0.04108(11) -0.35777(11) 0.83845(8)
N1 N -0.21709(13) -0.30764(12) 0.82980(9)
O11 O -0.22641(14) -0.01861(12) 0.87447(11)
O12 O -0.43546(13) -0.15541(13) 0.65242(11)
C1 C -0.16111(16) -0.21402(14) 0.80563(12)
C2 C -0.21852(16) -0.27750(15) 0.67757(12)
C3 C -0.22696(17) -0.47428(15) 0.95548(11)
C4 C -0.29771(16) -0.30716(15) 0.76810(12)
H1 H -0.3848 -0.2402 0.7864
C5 C -0.09051(17) -0.54228(16) 0.93754(12)
H2 H -0.0279 -0.5065 0.9206
C6 C 0.17328(17) -0.21274(17) 0.78938(13)
H3 H 0.2220 -0.2727 0.7417
H4 H 0.1968 -0.2466 0.8438
C7 C 0.01353(17) -0.34041(16) 0.58603(12)
H5 H 0.0031 -0.2955 0.5315
C8 C 0.19206(17) -0.50516(16) 0.64058(12)
H6 H 0.1321 -0.4912 0.6974
C9 C -0.10122(17) -0.38362(16) 0.62250(12)
H7 H -0.0753 -0.4520 0.6600
H8 H -0.1264 -0.4059 0.5741
C10 C 0.31838(17) -0.59386(16) 0.62753(12)
C11 C -0.02013(16) -0.25806(15) 0.82032(11)
C12 C 0.24263(18) -0.45650(17) 0.48596(12)
H9 H 0.2179 -0.4101 0.4385
C13 C 0.40934(17) -0.61475(17) 0.54117(13)
C14 C -0.1409(2) -0.71941(17) 0.97025(13)
C15 C 0.15244(17) -0.43570(16) 0.56966(12)
C16 C -0.32031(18) -0.52661(17) 0.98462(14)
H10 H -0.4120 -0.4798 0.9994
C17 C -0.14262(16) -0.20465(15) 0.70063(12)
C18 C -0.32528(18) -0.41938(16) 0.76929(12)
C19 C -0.25740(17) -0.09013(15) 0.84900(13)
C20 C -0.2768(2) -0.64861(18) 0.99161(14)
H11 H -0.3398 -0.6838 1.0110
C21 C -0.31508(19) -0.20292(17) 0.62325(14)
C22 C 0.36996(19) -0.54612(18) 0.47195(12)
H12 H 0.4294 -0.5599 0.4149
C23 C -0.2299(2) -0.53394(17) 0.76646(13)
H13 H -0.1423 -0.5457 0.7657
C24 C -0.2642(3) -0.6317(2) 0.76479(15)
H14 H -0.1999 -0.7086 0.7630
C25 C -0.04908(18) -0.66392(17) 0.94527(13)
H15 H 0.0426 -0.7102 0.9335
C26 C -0.48746(18) 0.04141(16) 0.87778(16)
H16 H -0.4709 0.1016 0.8365
H17 H -0.4921 0.0633 0.9373
C27 C -0.4562(2) -0.4050(2) 0.77234(14)
H18 H -0.5221 -0.3286 0.7757
C28 C -0.6154(2) 0.0299(2) 0.87689(18)
H19 H -0.6895 0.1048 0.8946
H20 H -0.6088 0.0078 0.8177
H21 H -0.6299 -0.0302 0.9178
C29 C 0.2738(2) -0.6492(2) 0.77971(14)
H22 H 0.3174 -0.7040 0.8198
H23 H 0.2457 -0.5691 0.8009
H24 H 0.1965 -0.6636 0.7770
C30 C -0.0923(3) -0.85316(19) 0.97332(17)
H25 H 0.0045 -0.8869 0.9565
H26 H -0.1258 -0.8763 1.0329
H27 H -0.1244 -0.8816 0.9326
C31 C 0.2075(2) -0.10484(19) 0.76553(17)
H28 H 0.3025 -0.1268 0.7564
H29 H 0.1836 -0.0723 0.7117
H30 H 0.1584 -0.0463 0.8132
C32 C 0.6234(2) -0.7296(2) 0.44668(15)
H31 H 0.7058 -0.7942 0.4490
H32 H 0.5840 -0.7510 0.4069
H33 H 0.6418 -0.6599 0.4254
C33 C -0.4898(3) -0.5018(3) 0.77051(17)
H34 H -0.5776 -0.4906 0.7725
C34 C -0.3271(3) -0.1268(2) 0.47956(18)
H35 H -0.3667 -0.0437 0.4987
H36 H -0.3991 -0.1526 0.4803
C35 C -0.1131(3) -0.0190(2) 0.65088(19)
H37 H -0.0273 -0.0652 0.6100
H38 H -0.0962 0.0001 0.7042
C36 C -0.3945(3) -0.6138(2) 0.76583(17)
H39 H -0.4170 -0.6790 0.7633
C37 C -0.2332(4) -0.1425(3) 0.3880(2)
H40 H -0.2817 -0.0958 0.3469
H41 H -0.1625 -0.1166 0.3883
H42 H -0.1948 -0.2250 0.3699
C38 C -0.1799(3) 0.0892(2) 0.6092(3)
H43 H -0.1242 0.1350 0.5936
H44 H -0.1958 0.0698 0.5562
H45 H -0.2644 0.1349 0.6501
loop_
_geom_bond_atom_site_label_1
_geom_bond_atom_site_label_2
_geom_bond_site_symmetry_1
_geom_bond_site_symmetry_2
S1 O4 1_555 1_555
O1 C6 1_555 1_555
O2 C7 1_555 1_555
O3 C19 1_555 1_555
O5 C13 1_555 1_555
O6 C10 1_555 1_555
O7 S1 1_555 1_555
O8 C17 1_555 1_555
O9 C21 1_555 1_555
O10 C11 1_555 1_555
N1 S1 1_555 1_555
O11 C19 1_555 1_555
O12 C21 1_555 1_555
C1 N1 1_555 1_555
C2 C4 1_555 1_555
C3 S1 1_555 1_555
C4 N1 1_555 1_555
H1 C4 1_555 1_555
C5 C3 1_555 1_555
H2 C5 1_555 1_555
C6 H3 1_555 1_555
H4 C6 1_555 1_555
C7 H5 1_555 1_555
C8 H6 1_555 1_555
C9 C2 1_555 1_555
H7 C9 1_555 1_555
H8 C9 1_555 1_555
C10 C8 1_555 1_555
C11 O1 1_555 1_555
C12 H9 1_555 1_555
C13 C10 1_555 1_555
C14 C20 1_555 1_555
C15 C7 1_555 1_555
C16 C3 1_555 1_555
H10 C16 1_555 1_555
C17 O2 1_555 1_555
C18 C4 1_555 1_555
C19 C1 1_555 1_555
C20 C16 1_555 1_555
H11 C20 1_555 1_555
C21 C2 1_555 1_555
C22 C12 1_555 1_555
H12 C22 1_555 1_555
C23 C18 1_555 1_555
H13 C23 1_555 1_555
C24 C23 1_555 1_555
H14 C24 1_555 1_555
C25 C5 1_555 1_555
H15 C25 1_555 1_555
C26 O3 1_555 1_555
H16 C26 1_555 1_555
H17 C26 1_555 1_555
C27 C18 1_555 1_555
H18 C27 1_555 1_555
C28 C26 1_555 1_555
H19 C28 1_555 1_555
H20 C28 1_555 1_555
H21 C28 1_555 1_555
C29 O6 1_555 1_555
H22 C29 1_555 1_555
H23 C29 1_555 1_555
H24 C29 1_555 1_555
C30 C14 1_555 1_555
H25 C30 1_555 1_555
H26 C30 1_555 1_555
H27 C30 1_555 1_555
C31 C6 1_555 1_555
H28 C31 1_555 1_555
H29 C31 1_555 1_555
H30 C31 1_555 1_555
C32 O5 1_555 1_555
H31 C32 1_555 1_555
H32 C32 1_555 1_555
H33 C32 1_555 1_555
C33 C27 1_555 1_555
H34 C33 1_555 1_555
C34 O9 1_555 1_555
H35 C34 1_555 1_555
H36 C34 1_555 1_555
C35 O8 1_555 1_555
H37 C35 1_555 1_555
H38 C35 1_555 1_555
C36 C24 1_555 1_555
H39 C36 1_555 1_555
C37 C34 1_555 1_555
H40 C37 1_555 1_555
H41 C37 1_555 1_555
H42 C37 1_555 1_555
C38 C35 1_555 1_555
H43 C38 1_555 1_555
H44 C38 1_555 1_555
H45 C38 1_555 1_555
C1 C11 1_555 1_555
C1 C17 1_555 1_555
C2 C17 1_555 1_555
C7 C9 1_555 1_555
C8 C15 1_555 1_555
C12 C15 1_555 1_555
C13 C22 1_555 1_555
C14 C25 1_555 1_555
C33 C36 1_555 1_555

#END
