
#######################################################################
#
#                 Cambridge Crystallographic Data Centre
#                                CCDC 
#
#######################################################################
#
# If this CIF has been generated from an entry in the Cambridge 
# Structural Database, then it will include bibliographic, chemical, 
# crystal, experimental, refinement or atomic coordinate data resulting 
# from the CCDC's data processing and validation procedures.
#
#######################################################################

data_PUTBAJ
_chemical_formula_moiety         'C16 H16 Cl1 N1 O3 S1'
_chemical_name_systematic        
'methyl (2-chlorophenyl)(2-oxo-2,6,7,7a-tetrahydrothieno[3,2-c]pyridin-5(4H)-yl)acetate'
_symmetry_cell_setting           monoclinic
_symmetry_space_group_name_H-M   'P 21'
_symmetry_Int_Tables_number      4
_space_group_name_Hall           'P 2yb'
loop_
_symmetry_equiv_pos_site_id
_symmetry_equiv_pos_as_xyz
1 x,y,z
2 -x,1/2+y,-z
_cell_length_a                   6.6560(11)
_cell_length_b                   15.213(3)
_cell_length_c                   8.0795(14)
_cell_angle_alpha                90
_cell_angle_beta                 102.591(9)
_cell_angle_gamma                90
_cell_volume                     798.437
_exptl_crystal_colour            colorless
_exptl_crystal_description       plate
_cell_formula_units_Z            2
loop_
_atom_site_label
_atom_site_type_symbol
_atom_site_fract_x
_atom_site_fract_y
_atom_site_fract_z
C1 C 0.8340(4) 0.40289(19) -0.3362(4)
C2 C 0.6532(5) 0.45334(18) -0.3168(4)
H1 H 0.5843 0.4913 -0.4005
C3 C 0.5947(4) 0.44134(16) -0.1729(3)
C4 C 0.7191(4) 0.37769(18) -0.0504(3)
H2 H 0.6307 0.3283 -0.0342
C5 C 0.7956(4) 0.42323(19) 0.1191(4)
H3 H 0.8612 0.3807 0.2030
H4 H 0.8968 0.4675 0.1081
C6 C 0.6170(5) 0.46606(19) 0.1765(4)
H5 H 0.5204 0.4211 0.1940
H6 H 0.6675 0.4956 0.2839
C7 C 0.4242(4) 0.48571(19) -0.1126(3)
H7 H 0.3579 0.5284 -0.1960
H8 H 0.3221 0.4427 -0.0975
C8 C 0.3452(4) 0.57312(17) 0.1164(3)
H9 H 0.2591 0.5282 0.1535
C9 C 0.2129(4) 0.62944(16) -0.0210(3)
C10 C -0.1294(5) 0.6604(2) -0.1637(4)
H10 H -0.1044 0.6482 -0.2740
H11 H -0.1104 0.7221 -0.1400
H12 H -0.2680 0.6441 -0.1609
C11 C 0.4319(4) 0.63419(17) 0.2642(3)
C12 C 0.3416(4) 0.64438(18) 0.4022(3)
C13 C 0.4103(5) 0.7068(2) 0.5268(3)
H13 H 0.3466 0.7128 0.6178
C14 C 0.5734(5) 0.7595(2) 0.5141(4)
H14 H 0.6184 0.8024 0.5958
C15 C 0.6714(5) 0.7495(2) 0.3814(4)
H15 H 0.7846 0.7843 0.3755
C16 C 0.6000(5) 0.68743(19) 0.2571(4)
H16 H 0.6656 0.6812 0.1672
Cl1 Cl 0.13539(12) 0.57737(6) 0.42512(9)
N1 N 0.5099(3) 0.53026(14) 0.0506(3)
O1 O 0.9192(4) 0.40337(16) -0.4541(3)
O2 O 0.2774(3) 0.68464(12) -0.1022(2)
O3 O 0.0137(3) 0.61038(12) -0.0368(2)
S1 S 0.91954(11) 0.33735(4) -0.15043(8)
loop_
_geom_bond_atom_site_label_1
_geom_bond_atom_site_label_2
_geom_bond_site_symmetry_1
_geom_bond_site_symmetry_2
C1 C2 1_555 1_555
C2 H1 1_555 1_555
C3 C2 1_555 1_555
C4 C3 1_555 1_555
H2 C4 1_555 1_555
C5 C4 1_555 1_555
H3 C5 1_555 1_555
H4 C5 1_555 1_555
C6 C5 1_555 1_555
H5 C6 1_555 1_555
H6 C6 1_555 1_555
C7 C3 1_555 1_555
H7 C7 1_555 1_555
H8 C7 1_555 1_555
C8 H9 1_555 1_555
C9 C8 1_555 1_555
C10 H10 1_555 1_555
H11 C10 1_555 1_555
H12 C10 1_555 1_555
C11 C8 1_555 1_555
C12 C11 1_555 1_555
C13 C12 1_555 1_555
H13 C13 1_555 1_555
C14 C13 1_555 1_555
H14 C14 1_555 1_555
C15 C14 1_555 1_555
H15 C15 1_555 1_555
C16 C11 1_555 1_555
H16 C16 1_555 1_555
Cl1 C12 1_555 1_555
N1 C6 1_555 1_555
O1 C1 1_555 1_555
O2 C9 1_555 1_555
O3 C9 1_555 1_555
S1 C1 1_555 1_555
C4 S1 1_555 1_555
C7 N1 1_555 1_555
C8 N1 1_555 1_555
C10 O3 1_555 1_555
C15 C16 1_555 1_555

#END
