
#######################################################################
#
#                 Cambridge Crystallographic Data Centre
#                                CCDC 
#
#######################################################################
#
# If this CIF has been generated from an entry in the Cambridge 
# Structural Database, then it will include bibliographic, chemical, 
# crystal, experimental, refinement or atomic coordinate data resulting 
# from the CCDC's data processing and validation procedures.
#
#######################################################################

data_PUTLAS
_chemical_formula_moiety         
'C27 H30 N6 O2 4+,0.55(C2 H6 O1 S1),H2 O1,4(Cl1 1-)'
_chemical_name_systematic        
"1,1''-(1,3-Propanediyl)bis(1'-carbamoylmethyl)-4,4'-bipyridinium tetrachloride dimethylsulfoxide solvate monohydrate"
_symmetry_cell_setting           monoclinic
_symmetry_space_group_name_H-M   'C 2/c'
_symmetry_Int_Tables_number      15
_space_group_name_Hall           '-C 2yn'
loop_
_symmetry_equiv_pos_site_id
_symmetry_equiv_pos_as_xyz
1 x,y,z
2 -x,y,1/2-z
3 1/2+x,1/2+y,z
4 1/2-x,1/2+y,1/2-z
5 -x,-y,-z
6 x,-y,1/2+z
7 1/2-x,1/2-y,-z
8 1/2+x,1/2-y,1/2+z
_cell_length_a                   15.533(5)
_cell_length_b                   12.135(2)
_cell_length_c                   36.868(7)
_cell_angle_alpha                90
_cell_angle_beta                 99.88(2)
_cell_angle_gamma                90
_cell_volume                     6846.29
_exptl_crystal_colour            yellow
_exptl_crystal_description       platelet
_cell_formula_units_Z            8
loop_
_atom_site_label
_atom_site_type_symbol
_atom_site_fract_x
_atom_site_fract_y
_atom_site_fract_z
Cl1 Cl 1.3888(1) 0.3438(1) 0.69147(4)
Cl2 Cl 1.0084(1) 0.3449(1) 0.61545(5)
Cl3 Cl 1.1307(1) 0.1896(2) 0.47839(5)
Cl4 Cl 1.2404(2) 0.0457(2) 0.6010(1)
S1 S 0.3287(5) 0.2071(7) 0.2021(2)
O4 O 0.353(1) 0.104(2) 0.2062(5)
C28 C 0.403(1) 0.295(2) 0.2129(5)
C29 C 0.286(1) 0.219(2) 0.1536(6)
O1 O 0.7754(3) 0.5194(3) 0.3955(1)
O2 O 1.4435(3) 0.2222(4) 0.8837(1)
N1 N 0.7499(3) 0.6981(4) 0.3837(1)
N2 N 0.8589(3) 0.5530(4) 0.4651(1)
N3 N 0.9199(4) 0.0718(4) 0.5705(1)
N4 N 1.0696(3) 0.0898(4) 0.6831(1)
N5 N 1.4392(4) 0.1008(5) 0.8210(2)
N6 N 1.5770(4) 0.1562(5) 0.9095(2)
C1 C 0.7841(4) 0.6163(5) 0.4043(2)
C2 C 0.8400(5) 0.6489(5) 0.4406(2)
C3 C 0.9127(4) 0.4740(6) 0.4565(2)
C4 C 0.9238(4) 0.3805(6) 0.4765(2)
C5 C 0.8821(4) 0.3620(5) 0.5057(2)
C6 C 0.8926(4) 0.2582(5) 0.5276(2)
C7 C 0.9621(5) 0.1873(6) 0.5255(2)
C8 C 0.9758(5) 0.0950(6) 0.5474(2)
C9 C 0.8523(4) 0.1350(6) 0.5715(2)
C10 C 0.8360(4) 0.2288(6) 0.5505(2)
C11 C 0.8302(5) 0.4465(6) 0.5154(2)
C12 C 0.8184(4) 0.5417(5) 0.4938(2)
C13 C 0.9381(5) -0.0258(6) 0.5951(2)
C14 C 1.0159(4) -0.0069(5) 0.6255(2)
C15 C 0.9952(4) 0.0784(6) 0.6526(2)
C16 C 1.0762(5) 0.0217(7) 0.7120(2)
C17 C 1.1462(5) 0.0244(7) 0.7397(2)
C18 C 1.2143(5) 0.1000(6) 0.7387(2)
C19 C 1.2910(4) 0.1017(6) 0.7681(2)
C20 C 1.2973(5) 0.0359(6) 0.7991(2)
C21 C 1.3710(5) 0.0366(7) 0.8253(2)
C22 C 1.4327(5) 0.1670(6) 0.7924(2)
C23 C 1.3610(6) 0.1691(6) 0.7659(2)
C24 C 1.2048(5) 0.1676(6) 0.7081(2)
C25 C 1.1325(5) 0.1620(6) 0.6810(2)
C26 C 1.5193(4) 0.0982(6) 0.8490(2)
C27 C 1.5074(5) 0.1660(6) 0.8828(2)
H1 H 0.7157 0.6840 0.3603
H2 H 0.7591 0.7718 0.3922
H3 H 1.6241 0.1096 0.9062
H4 H 1.5793 0.1958 0.9319
H5 H 0.8098 0.7027 0.4523
H6 H 0.8935 0.6791 0.4359
H7 H 0.9429 0.4841 0.4364
H8 H 0.9619 0.3254 0.4700
H9 H 1.0006 0.2029 0.5088
H10 H 1.0242 0.0481 0.5462
H11 H 0.8127 0.1154 0.5874
H12 H 0.7861 0.2727 0.5520
H13 H 0.8031 0.4396 0.5365
H14 H 0.7812 0.5987 0.4997
H15 H 0.8880 -0.0407 0.6059
H16 H 0.9499 -0.0874 0.5808
H17 H 1.0640 0.0179 0.6149
H18 H 1.0307 -0.0743 0.6381
H19 H 0.9449 0.0560 0.6622
H20 H 0.9841 0.1472 0.6405
H21 H 1.0307 -0.0299 0.7131
H22 H 1.1491 -0.0249 0.7599
H23 H 1.2497 -0.0102 0.8023
H24 H 1.3742 -0.0084 0.8466
H25 H 1.4799 0.2149 0.7904
H26 H 1.3589 0.2175 0.7455
H27 H 1.2495 0.2193 0.7058
H28 H 1.1275 0.2103 0.6604
H29 H 1.5321 0.0241 0.8562
H30 H 1.5664 0.1280 0.8388
O3 O 0.1386(5) 0.1576(6) 0.0631(2)
O5? O 0.260(2) 0.130(2) 0.1818(7)
O6? O 0.399(2) 0.119(2) 0.2318(7)
loop_
_geom_bond_atom_site_label_1
_geom_bond_atom_site_label_2
_geom_bond_site_symmetry_1
_geom_bond_site_symmetry_2
S1 O4 1_555 1_555
O1 C1 1_555 1_555
O2 C27 1_555 1_555
N1 C1 1_555 1_555
N2 C2 1_555 1_555
N3 C8 1_555 1_555
N4 C15 1_555 1_555
N5 C21 1_555 1_555
N6 C27 1_555 1_555
C1 C2 1_555 1_555
C2 H5 1_555 1_555
C3 N2 1_555 1_555
C4 C3 1_555 1_555
C5 C4 1_555 1_555
C6 C5 1_555 1_555
C7 C6 1_555 1_555
C8 C7 1_555 1_555
C9 N3 1_555 1_555
C10 C6 1_555 1_555
C11 C5 1_555 1_555
C12 N2 1_555 1_555
C13 N3 1_555 1_555
C14 C13 1_555 1_555
C15 C14 1_555 1_555
C16 N4 1_555 1_555
C17 C16 1_555 1_555
C18 C17 1_555 1_555
C19 C18 1_555 1_555
C20 C19 1_555 1_555
C21 C20 1_555 1_555
C22 N5 1_555 1_555
C23 C19 1_555 1_555
C24 C18 1_555 1_555
C25 N4 1_555 1_555
C26 N5 1_555 1_555
C27 C26 1_555 1_555
C28 S1 1_555 1_555
C29 S1 1_555 1_555
H1 N1 1_555 1_555
H2 N1 1_555 1_555
H3 N6 1_555 1_555
H4 N6 1_555 1_555
H6 C2 1_555 1_555
H7 C3 1_555 1_555
H8 C4 1_555 1_555
H9 C7 1_555 1_555
H10 C8 1_555 1_555
H11 C9 1_555 1_555
H12 C10 1_555 1_555
H13 C11 1_555 1_555
H14 C12 1_555 1_555
H15 C13 1_555 1_555
H16 C13 1_555 1_555
H17 C14 1_555 1_555
H18 C14 1_555 1_555
H19 C15 1_555 1_555
H20 C15 1_555 1_555
H21 C16 1_555 1_555
H22 C17 1_555 1_555
H23 C20 1_555 1_555
H24 C21 1_555 1_555
H25 C22 1_555 1_555
H26 C23 1_555 1_555
H27 C24 1_555 1_555
H28 C25 1_555 1_555
H29 C26 1_555 1_555
H30 C26 1_555 1_555
C9 C10 1_555 1_555
C11 C12 1_555 1_555
C22 C23 1_555 1_555
C24 C25 1_555 1_555

#END
