
#######################################################################
#
#                 Cambridge Crystallographic Data Centre
#                                CCDC 
#
#######################################################################
#
# If this CIF has been generated from an entry in the Cambridge 
# Structural Database, then it will include bibliographic, chemical, 
# crystal, experimental, refinement or atomic coordinate data resulting 
# from the CCDC's data processing and validation procedures.
#
#######################################################################

data_PUTNOJ
_chemical_formula_moiety         'C27 H21 N3 O4'
_chemical_name_systematic        
5-methyl-2-(4-nitrophenyl)-10-phenyl-4,5,10,10a-tetrahydropyrrolo[3,4-b]carbazole-1,3(2H,3aH)-dione
_symmetry_cell_setting           monoclinic
_symmetry_space_group_name_H-M   'P 21/n'
_symmetry_Int_Tables_number      14
_space_group_name_Hall           '-P 2yn'
loop_
_symmetry_equiv_pos_site_id
_symmetry_equiv_pos_as_xyz
1 x,y,z
2 1/2-x,1/2+y,1/2-z
3 -x,-y,-z
4 1/2+x,1/2-y,1/2+z
_cell_length_a                   9.5446(9)
_cell_length_b                   10.7769(11)
_cell_length_c                   21.277(2)
_cell_angle_alpha                90
_cell_angle_beta                 91.269(3)
_cell_angle_gamma                90
_cell_volume                     2188.04
_exptl_crystal_colour            yellow
_exptl_crystal_description       block
_cell_formula_units_Z            4
loop_
_atom_site_label
_atom_site_type_symbol
_atom_site_fract_x
_atom_site_fract_y
_atom_site_fract_z
O1 O -0.00857(16) 0.05094(14) 0.15428(8)
O2 O 0.01073(16) 0.47117(14) 0.13002(7)
O3 O 0.27064(18) 0.42762(18) 0.41848(8)
O4 O 0.41076(17) 0.27656(17) 0.39913(8)
N1 N -0.38004(18) 0.38730(16) -0.04513(8)
N2 N 0.02261(17) 0.26263(15) 0.15569(8)
N3 N 0.30867(19) 0.3415(2) 0.38612(9)
C1 C -0.4823(2) 0.22648(18) 0.00442(9)
C2 C -0.5927(2) 0.1458(2) 0.01735(11)
H1 H -0.5830 0.0854 0.0483
C3 C -0.7163(2) 0.1578(2) -0.01679(12)
H2 H -0.7907 0.1052 -0.0083
C4 C -0.7321(2) 0.2466(2) -0.06366(12)
H3 H -0.8169 0.2522 -0.0859
C5 C -0.6249(2) 0.3268(2) -0.07794(11)
H4 H -0.6352 0.3851 -0.1099
C6 C -0.5011(2) 0.3172(2) -0.04290(10)
C7 C -0.2864(2) 0.34178(19) 0.00003(9)
C8 C -0.3432(2) 0.24336(18) 0.03015(9)
C9 C -0.2690(2) 0.17440(18) 0.08233(9)
H5 H -0.2970 0.0871 0.0793
C10 C -0.1079(2) 0.18149(18) 0.07021(10)
H6 H -0.0836 0.1226 0.0371
C11 C -0.0262(2) 0.1508(2) 0.12992(10)
C12 C -0.0063(2) 0.3636(2) 0.11577(10)
C13 C -0.0542(2) 0.31119(18) 0.05332(9)
H7 H 0.0313 0.2976 0.0296
C14 C -0.1461(2) 0.3975(2) 0.01254(10)
H8 H -0.1569 0.4764 0.0338
H9 H -0.1006 0.4129 -0.0270
C15 C 0.0903(2) 0.27579(19) 0.21612(10)
C16 C 0.2071(2) 0.2057(2) 0.23115(11)
H10 H 0.2387 0.1460 0.2033
C17 C 0.2770(2) 0.2248(2) 0.28799(11)
H11 H 0.3554 0.1777 0.2989
C18 C 0.2291(2) 0.3139(2) 0.32790(10)
C19 C 0.1094(2) 0.3807(2) 0.31445(11)
H12 H 0.0763 0.4387 0.3429
C20 C 0.0397(2) 0.3604(2) 0.25823(11)
H13 H -0.0421 0.4040 0.2487
C21 C -0.3578(2) 0.4930(2) -0.08596(11)
H14 H -0.4386 0.5045 -0.1130
H15 H -0.2770 0.4783 -0.1110
H16 H -0.3430 0.5661 -0.0609
C22 C -0.3082(2) 0.22099(18) 0.14732(9)
C23 C -0.3171(2) 0.1396(2) 0.19737(10)
H17 H -0.3019 0.0554 0.1909
C24 C -0.3483(2) 0.1816(2) 0.25688(11)
H18 H -0.3522 0.1259 0.2902
C25 C -0.3735(2) 0.3060(2) 0.26706(11)
H19 H -0.3944 0.3343 0.3071
C26 C -0.3676(2) 0.3876(2) 0.21767(10)
H20 H -0.3860 0.4714 0.2240
C27 C -0.3344(2) 0.34520(19) 0.15862(10)
H21 H -0.3294 0.4015 0.1256
loop_
_geom_bond_atom_site_label_1
_geom_bond_atom_site_label_2
_geom_bond_site_symmetry_1
_geom_bond_site_symmetry_2
O1 C11 1_555 1_555
O2 C12 1_555 1_555
O3 N3 1_555 1_555
O4 N3 1_555 1_555
N1 C6 1_555 1_555
N2 C11 1_555 1_555
N3 C18 1_555 1_555
C1 C2 1_555 1_555
C2 H1 1_555 1_555
C3 C2 1_555 1_555
H2 C3 1_555 1_555
C4 C3 1_555 1_555
H3 C4 1_555 1_555
C5 C4 1_555 1_555
H4 C5 1_555 1_555
C6 C1 1_555 1_555
C7 N1 1_555 1_555
C8 C1 1_555 1_555
C9 C8 1_555 1_555
H5 C9 1_555 1_555
C10 C9 1_555 1_555
H6 C10 1_555 1_555
C11 C10 1_555 1_555
C12 N2 1_555 1_555
C13 C10 1_555 1_555
H7 C13 1_555 1_555
C14 C7 1_555 1_555
H8 C14 1_555 1_555
H9 C14 1_555 1_555
C15 N2 1_555 1_555
C16 C15 1_555 1_555
H10 C16 1_555 1_555
C17 C16 1_555 1_555
H11 C17 1_555 1_555
C18 C17 1_555 1_555
C19 C18 1_555 1_555
H12 C19 1_555 1_555
C20 C15 1_555 1_555
H13 C20 1_555 1_555
C21 N1 1_555 1_555
H14 C21 1_555 1_555
H15 C21 1_555 1_555
H16 C21 1_555 1_555
C22 C9 1_555 1_555
C23 C22 1_555 1_555
H17 C23 1_555 1_555
C24 C23 1_555 1_555
H18 C24 1_555 1_555
C25 C24 1_555 1_555
H19 C25 1_555 1_555
C26 C25 1_555 1_555
H20 C26 1_555 1_555
C27 C22 1_555 1_555
H21 C27 1_555 1_555
C5 C6 1_555 1_555
C7 C8 1_555 1_555
C12 C13 1_555 1_555
C13 C14 1_555 1_555
C19 C20 1_555 1_555
C26 C27 1_555 1_555

#END
