
#######################################################################
#
#                 Cambridge Crystallographic Data Centre
#                                CCDC 
#
#######################################################################
#
# If this CIF has been generated from an entry in the Cambridge 
# Structural Database, then it will include bibliographic, chemical, 
# crystal, experimental, refinement or atomic coordinate data resulting 
# from the CCDC's data processing and validation procedures.
#
#######################################################################

data_PUTPAV03
_chemical_formula_moiety         'C6 H12 N2,2(C6 H5 N1 O3)'
_chemical_name_systematic        
'bis(4-Nitrophenol) 1,4-diazabicyclo[2.2.2]octane'
_symmetry_cell_setting           monoclinic
_symmetry_space_group_name_H-M   'P 21/c'
_symmetry_Int_Tables_number      14
_space_group_name_Hall           '-P 2ybc'
loop_
_symmetry_equiv_pos_site_id
_symmetry_equiv_pos_as_xyz
1 x,y,z
2 -x,1/2+y,1/2-z
3 -x,-y,-z
4 x,1/2-y,1/2+z
_cell_length_a                   9.984(6)
_cell_length_b                   8.890(5)
_cell_length_c                   10.791(7)
_cell_angle_alpha                90
_cell_angle_beta                 99.593(9)
_cell_angle_gamma                90
_cell_volume                     944.392
_exptl_crystal_colour            yellow
_exptl_crystal_description       block
_cell_formula_units_Z            2
loop_
_atom_site_label
_atom_site_type_symbol
_atom_site_fract_x
_atom_site_fract_y
_atom_site_fract_z
N2 N -0.05040(12) -0.49208(12) 0.38254(11)
C7 C 0.0997(3) -0.4585(5) 0.3996(3)
H6 H 0.1138 -0.3591 0.3695
C8 C 0.1601(4) -0.4701(5) 0.5406(3)
H7 H 0.2028 -0.3767 0.5690
C9 C -0.1165(5) -0.3882(5) 0.4517(3)
H8 H -0.1079 -0.2887 0.4194
H9 H 0.0777 -0.3153 0.3855
H10 H -0.0152 -0.2997 0.6170
H11 H 0.0148 -0.2850 0.6170
C10 C -0.0547(5) -0.3958(5) 0.5921(3)
N2B N 0.05040(12) -0.50792(12) 0.61746(11)
C7B C -0.0997(3) -0.5415(5) 0.6004(3)
H6B H -0.1138 -0.6409 0.6305
C8B C -0.1601(4) -0.5299(5) 0.4594(3)
H7B H -0.2028 -0.6233 0.4310
C9B C 0.1165(5) -0.6118(5) 0.5483(3)
H8B H 0.1079 -0.7113 0.5806
H9B H -0.0777 -0.6847 0.6145
H10B H 0.0152 -0.7003 0.3830
H11B H -0.0148 -0.7150 0.3830
C10B C 0.0547(5) -0.6042(5) 0.4079(3)
H12 H -0.1579 -0.6757 0.4128
O1 O 0.88996(12) 0.01963(14) 0.63701(11)
H1 H 0.8835 0.0251 0.7181
O2 O 0.39055(15) -0.19277(18) 0.25307(14)
O3 O 0.38101(17) -0.3503(2) 0.40201(16)
N1 N 0.43373(16) -0.2439(2) 0.35668(16)
C1 C 0.55494(15) -0.17567(18) 0.42993(14)
C2 C 0.59230(17) -0.2183(2) 0.55334(15)
H2 H 0.5429 -0.2911 0.5882
C3 C 0.70366(16) -0.15178(18) 0.62449(14)
H3 H 0.7283 -0.1783 0.7086
C4 C 0.77960(16) -0.04571(17) 0.57236(14)
C5 C 0.7403(2) -0.00619(18) 0.44626(16)
H4 H 0.7911 0.0637 0.4098
C6 C 0.62742(18) -0.06970(19) 0.37587(15)
H5 H 0.6002 -0.0414 0.2925
C11? C -0.0068(5) -0.6550(4) 0.5693(3)
C12? C -0.0640(4) -0.6467(4) 0.4277(3)
H13? H -0.0857 -0.2798 0.4172
H14? H 0.2198 -0.5673 0.5562
H15? H -0.2114 -0.4123 0.4422
H16? H 0.1435 -0.5291 0.3521
H17? H -0.1244 -0.4153 0.6415
loop_
_geom_bond_atom_site_label_1
_geom_bond_atom_site_label_2
_geom_bond_site_symmetry_1
_geom_bond_site_symmetry_2
O1 H1 1_555 1_555
O2 N1 1_555 1_555
O3 N1 1_555 1_555
N1 C1 1_555 1_555
C1 C2 1_555 1_555
C2 H2 1_555 1_555
C3 C2 1_555 1_555
H3 C3 1_555 1_555
C4 O1 1_555 1_555
C5 C4 1_555 1_555
H4 C5 1_555 1_555
C6 C1 1_555 1_555
H5 C6 1_555 1_555
N2 C7 1_555 1_555
C7 H6 1_555 1_555
C8 C7 1_555 1_555
H7 C8 1_555 1_555
C9 N2 1_555 1_555
H8 C9 1_555 1_555
H9 C7 1_555 1_555
H10 C10 1_555 1_555
H11 C10 1_555 1_555
C10 C9 1_555 1_555
N2B C8 1_555 1_555
C7B C10 1_555 1_555
H6B C7B 1_555 1_555
C8B N2 1_555 1_555
H7B C8B 1_555 1_555
C9B C8 1_555 1_555
H8B C9B 1_555 1_555
H9B C7B 1_555 1_555
H10B C10B 1_555 1_555
H11B C10B 1_555 1_555
C10B N2 1_555 1_555
C3 C4 1_555 1_555
C5 C6 1_555 1_555
C7 C10B 1_555 1_555
C9 C8B 1_555 1_555
C10 N2B 1_555 1_555
N2B C7B 1_555 1_555
N2B C9B 1_555 1_555
C7B C8B 1_555 1_555
C9B C10B 1_555 1_555

#END
