
#######################################################################
#
#                 Cambridge Crystallographic Data Centre
#                                CCDC 
#
#######################################################################
#
# If this CIF has been generated from an entry in the Cambridge 
# Structural Database, then it will include bibliographic, chemical, 
# crystal, experimental, refinement or atomic coordinate data resulting 
# from the CCDC's data processing and validation procedures.
#
#######################################################################

data_PUTQUS
_chemical_formula_moiety         'C38 H28 Br1 O4 P1'
_chemical_name_systematic        
'methyl 3-benzoyl-2-(4-bromophenyl)-4-hydroxy-5-(triphenylphosphoranylidene)cyclopenta-1,3-diene-1-carboxylate'
_symmetry_cell_setting           monoclinic
_symmetry_space_group_name_H-M   'P 21/c'
_symmetry_Int_Tables_number      14
_space_group_name_Hall           '-P 2ybc'
loop_
_symmetry_equiv_pos_site_id
_symmetry_equiv_pos_as_xyz
1 x,y,z
2 -x,1/2+y,1/2-z
3 -x,-y,-z
4 x,1/2-y,1/2+z
_cell_length_a                   16.365(2)
_cell_length_b                   14.3818(19)
_cell_length_c                   15.0640(19)
_cell_angle_alpha                90
_cell_angle_beta                 111.577(4)
_cell_angle_gamma                90
_cell_volume                     3296.99
_exptl_crystal_colour            colorless
_exptl_crystal_description       block
_cell_formula_units_Z            4
loop_
_atom_site_label
_atom_site_type_symbol
_atom_site_fract_x
_atom_site_fract_y
_atom_site_fract_z
Br1 Br 0.25128(4) 0.87848(3) 0.19674(4)
C1 C 0.4414(2) 0.2182(2) 0.0864(2)
C2 C 0.4894(2) 0.1365(3) 0.0964(3)
H1 H 0.4645 0.0800 0.1028
C3 C 0.5738(3) 0.1389(4) 0.0968(3)
H2 H 0.6066 0.0846 0.1052
C4 C 0.6084(3) 0.2222(4) 0.0848(3)
H3 H 0.6648 0.2239 0.0838
C5 C 0.5620(3) 0.3029(3) 0.0742(3)
H4 H 0.5873 0.3590 0.0674
C6 C 0.4776(2) 0.3013(3) 0.0737(2)
H5 H 0.4453 0.3560 0.0648
C7 C 0.3293(2) 0.1567(2) 0.1907(2)
C8 C 0.4022(2) 0.1187(2) 0.2599(3)
H6 H 0.4564 0.1204 0.2531
C9 C 0.3944(3) 0.0779(3) 0.3394(3)
H7 H 0.4432 0.0507 0.3854
C10 C 0.3154(3) 0.0776(3) 0.3508(3)
H8 H 0.3112 0.0526 0.4060
C11 C 0.2433(3) 0.1132(3) 0.2824(3)
H9 H 0.1893 0.1103 0.2895
C12 C 0.2489(2) 0.1537(3) 0.2027(2)
H10 H 0.1990 0.1791 0.1565
C13 C 0.2779(2) 0.1291(2) -0.0123(2)
C14 C 0.2517(3) 0.0427(2) 0.0065(3)
H11 H 0.2575 0.0272 0.0685
C15 C 0.2169(3) -0.0208(3) -0.0661(4)
H12 H 0.1987 -0.0787 -0.0529
C16 C 0.2090(3) 0.0002(3) -0.1563(3)
H13 H 0.1854 -0.0432 -0.2048
C17 C 0.2357(3) 0.0852(4) -0.1767(3)
H14 H 0.2299 0.0996 -0.2389
C18 C 0.2713(2) 0.1496(3) -0.1041(3)
H15 H 0.2907 0.2068 -0.1174
C19 C 0.2749(2) 0.3176(2) 0.0595(2)
C20 C 0.1917(2) 0.3343(2) -0.0098(2)
C21 C 0.17114(19) 0.4308(2) -0.0128(2)
C22 C 0.0914(2) 0.4649(2) -0.0823(2)
C23 C 0.0762(2) 0.5666(2) -0.1039(2)
C24 C -0.0033(3) 0.6051(3) -0.1131(3)
H16 H -0.0468 0.5684 -0.1048
C25 C -0.0187(3) 0.6987(3) -0.1347(4)
H17 H -0.0718 0.7250 -0.1387
C26 C 0.0436(4) 0.7529(3) -0.1504(4)
H18 H 0.0322 0.8152 -0.1669
C27 C 0.1227(3) 0.7142(3) -0.1414(3)
H19 H 0.1658 0.7505 -0.1509
C28 C 0.1384(2) 0.6223(2) -0.1185(3)
H20 H 0.1924 0.5969 -0.1126
C29 C 0.2436(2) 0.4752(2) 0.0599(2)
C30 C 0.2451(2) 0.5720(2) 0.0911(2)
C31 C 0.1775(2) 0.6084(2) 0.1154(2)
H21 H 0.1305 0.5702 0.1116
C32 C 0.1778(2) 0.6987(2) 0.1449(2)
H22 H 0.1314 0.7212 0.1603
C33 C 0.2464(3) 0.7549(2) 0.1514(3)
C34 C 0.3143(3) 0.7234(3) 0.1272(3)
H23 H 0.3602 0.7630 0.1302
C35 C 0.3139(2) 0.6317(2) 0.0979(3)
H24 H 0.3607 0.6099 0.0827
C36 C 0.3804(2) 0.4218(2) 0.1937(3)
C37 C 0.4741(3) 0.3495(3) 0.3355(3)
H25 H 0.5262 0.3732 0.3286
H26 H 0.4859 0.2891 0.3647
H27 H 0.4562 0.3909 0.3750
C38 C 0.3062(2) 0.4075(2) 0.1048(2)
O1 O 0.13780(14) 0.27114(15) -0.06748(18)
H28 H 0.0915 0.2963 -0.1001
O2 O 0.03179(15) 0.41022(17) -0.12904(19)
O3 O 0.41767(19) 0.49342(19) 0.2245(2)
O4 O 0.40474(15) 0.34232(17) 0.24283(17)
P1 P 0.32977(5) 0.21071(6) 0.08256(6)
loop_
_geom_bond_atom_site_label_1
_geom_bond_atom_site_label_2
_geom_bond_site_symmetry_1
_geom_bond_site_symmetry_2
Br1 C33 1_555 1_555
C1 C2 1_555 1_555
C2 H1 1_555 1_555
C3 C2 1_555 1_555
H2 C3 1_555 1_555
C4 C3 1_555 1_555
H3 C4 1_555 1_555
C5 C4 1_555 1_555
H4 C5 1_555 1_555
C6 C1 1_555 1_555
H5 C6 1_555 1_555
C7 C8 1_555 1_555
C8 H6 1_555 1_555
C9 C8 1_555 1_555
H7 C9 1_555 1_555
C10 C9 1_555 1_555
H8 C10 1_555 1_555
C11 C10 1_555 1_555
H9 C11 1_555 1_555
C12 C7 1_555 1_555
H10 C12 1_555 1_555
C13 C14 1_555 1_555
C14 H11 1_555 1_555
C15 C14 1_555 1_555
H12 C15 1_555 1_555
C16 C15 1_555 1_555
H13 C16 1_555 1_555
C17 C16 1_555 1_555
H14 C17 1_555 1_555
C18 C13 1_555 1_555
H15 C18 1_555 1_555
C19 C20 1_555 1_555
C20 C21 1_555 1_555
C21 C22 1_555 1_555
C22 C23 1_555 1_555
C23 C24 1_555 1_555
C24 H16 1_555 1_555
C25 C24 1_555 1_555
H17 C25 1_555 1_555
C26 C25 1_555 1_555
H18 C26 1_555 1_555
C27 C26 1_555 1_555
H19 C27 1_555 1_555
C28 C23 1_555 1_555
H20 C28 1_555 1_555
C29 C21 1_555 1_555
C30 C29 1_555 1_555
C31 C30 1_555 1_555
H21 C31 1_555 1_555
C32 C31 1_555 1_555
H22 C32 1_555 1_555
C33 C32 1_555 1_555
C34 C33 1_555 1_555
H23 C34 1_555 1_555
C35 C30 1_555 1_555
H24 C35 1_555 1_555
C36 C38 1_555 1_555
C37 H25 1_555 1_555
H26 C37 1_555 1_555
H27 C37 1_555 1_555
C38 C19 1_555 1_555
O1 C20 1_555 1_555
H28 O1 1_555 1_555
O2 C22 1_555 1_555
O3 C36 1_555 1_555
O4 C36 1_555 1_555
P1 C1 1_555 1_555
C5 C6 1_555 1_555
C7 P1 1_555 1_555
C11 C12 1_555 1_555
C13 P1 1_555 1_555
C17 C18 1_555 1_555
C19 P1 1_555 1_555
C27 C28 1_555 1_555
C29 C38 1_555 1_555
C34 C35 1_555 1_555
C37 O4 1_555 1_555

#END
