
#######################################################################
#
#                 Cambridge Crystallographic Data Centre
#                                CCDC 
#
#######################################################################
#
# If this CIF has been generated from an entry in the Cambridge 
# Structural Database, then it will include bibliographic, chemical, 
# crystal, experimental, refinement or atomic coordinate data resulting 
# from the CCDC's data processing and validation procedures.
#
#######################################################################

data_PUVHAQ
_chemical_formula_moiety         'C24 H44 P2 S2,1.5(C1 H4 O1)'
_chemical_name_systematic        
"(1S,1'S,2S,2'S,3aS,3a'S,7aS,7a'S)-2,2'-Di-t-butylhexadecahydro-1H,1'H-1,1'-biisophosphindole 2,2'-disulfide methanol solvate"
_symmetry_cell_setting           tetragonal
_symmetry_space_group_name_H-M   'I 4'
_symmetry_Int_Tables_number      79
_space_group_name_Hall           'I 4'
loop_
_symmetry_equiv_pos_site_id
_symmetry_equiv_pos_as_xyz
1 x,y,z
2 -x,-y,z
3 -y,x,z
4 y,-x,z
5 1/2+x,1/2+y,1/2+z
6 1/2-x,1/2-y,1/2+z
7 1/2-y,1/2+x,1/2+z
8 1/2+y,1/2-x,1/2+z
_cell_length_a                   18.1332(10)
_cell_length_b                   18.1332(10)
_cell_length_c                   17.2136(18)
_cell_angle_alpha                90
_cell_angle_beta                 90
_cell_angle_gamma                90
_cell_volume                     5660.05
_exptl_crystal_colour            colorless
_exptl_crystal_description       rod
_cell_formula_units_Z            8
_exptl_crystal_recrystallization_method dichloromethane/methanol
loop_
_atom_site_label
_atom_site_type_symbol
_atom_site_fract_x
_atom_site_fract_y
_atom_site_fract_z
S1 S 0.34975(3) 0.02496(2) 0.25381(4)
S2 S 0.28156(3) 0.23811(3) -0.00774(4)
P1 P 0.30453(2) 0.12312(2) 0.24994(4)
P2 P 0.36034(2) 0.16475(2) 0.0053
C1 C 0.33763(9) 0.18374(9) 0.16930(9)
H1 H 0.2931 0.2026 0.1414
C2 C 0.37322(8) 0.25002(8) 0.21184(9)
H2 H 0.4256 0.2362 0.2229
C3 C 0.37505(10) 0.32198(9) 0.16601(11)
H3 H 0.3992 0.3138 0.1151
H4 H 0.3241 0.3395 0.1565
C4 C 0.41766(11) 0.37953(10) 0.21209(13)
H5 H 0.4172 0.4268 0.1834
H6 H 0.4696 0.3635 0.2174
C5 C 0.38447(11) 0.39142(10) 0.29344(13)
H7 H 0.4159 0.4261 0.3230
H8 H 0.3349 0.4138 0.2883
C6 C 0.37833(11) 0.31905(11) 0.33800(11)
H9 H 0.3528 0.3277 0.3880
H10 H 0.4283 0.2999 0.3494
C7 C 0.33549(9) 0.26215(9) 0.29042(9)
H11 H 0.2847 0.2816 0.2809
C8 C 0.32918(10) 0.18624(10) 0.32866(10)
H12 H 0.2906 0.1865 0.3693
H13 H 0.3767 0.1717 0.3526
C9 C 0.20165(9) 0.11904(10) 0.24896(13)
C10 C 0.17672(13) 0.08080(16) 0.17443(15)
H14 H 0.2007 0.0325 0.1704
H15 H 0.1903 0.1111 0.1295
H16 H 0.1231 0.0742 0.1755
C11 C 0.17725(14) 0.07337(15) 0.32000(14)
H17 H 0.1234 0.0691 0.3204
H18 H 0.1937 0.0979 0.3677
H19 H 0.1992 0.0241 0.3171
C12 C 0.16624(10) 0.19630(12) 0.25372(16)
H20 H 0.1124 0.1916 0.2524
H21 H 0.1827 0.2261 0.2095
H22 H 0.1811 0.2203 0.3023
C13 C 0.38780(8) 0.14536(8) 0.10796(9)
H23 H 0.3840 0.0909 0.1163
C14 C 0.47094(8) 0.16636(8) 0.11071(9)
H24 H 0.4738 0.2200 0.1238
C15 C 0.51704(8) 0.12527(9) 0.17089(10)
H25 H 0.5180 0.0720 0.1583
H26 H 0.4948 0.1313 0.2230
C16 C 0.59578(9) 0.15604(9) 0.17106(11)
H27 H 0.5948 0.2079 0.1890
H28 H 0.6262 0.1274 0.2081
C17 C 0.63118(10) 0.15261(11) 0.09049(12)
H29 H 0.6398 0.1004 0.0763
H30 H 0.6796 0.1779 0.0920
C18 C 0.58268(11) 0.18880(12) 0.02859(12)
H31 H 0.5802 0.2426 0.0381
H32 H 0.6049 0.1810 -0.0233
C19 C 0.50505(9) 0.15676(9) 0.02967(10)
H33 H 0.5084 0.1028 0.0181
C20 C 0.45168(11) 0.19189(10) -0.02852(10)
H34 H 0.4609 0.1732 -0.0817
H35 H 0.4569 0.2462 -0.0286
C21 C 0.33712(10) 0.07642(10) -0.04363(10)
C22 C 0.26985(11) 0.04217(13) -0.00325(14)
H36 H 0.2542 -0.0019 -0.0318
H37 H 0.2295 0.0781 -0.0022
H38 H 0.2830 0.0285 0.0501
C23 C 0.31869(13) 0.09343(14) -0.12830(11)
H39 H 0.3068 0.0475 -0.1556
H40 H 0.3612 0.1170 -0.1532
H41 H 0.2762 0.1268 -0.1305
C24 C 0.40172(10) 0.02167(10) -0.04163(12)
H42 H 0.4180 0.0148 0.0122
H43 H 0.4427 0.0411 -0.0727
H44 H 0.3857 -0.0258 -0.0631
O1? O 0.07759(18) -0.0215(3) -0.0003(3)
H45? H 0.0937 -0.0303 0.0441
C25? C 0.0384(8) 0.0552(6) -0.0013(10)
H46? H 0.0036 0.0587 0.0427
H47? H 0.0124 0.0632 -0.0497
H48? H 0.0758 0.0951 0.0054
O2? O 0.40211(18) 0.4778(2) 0.01951(18)
H49? H 0.4002 0.5159 -0.0069
C26? C 0.4631(5) 0.4220(3) -0.0169(5)
H50? H 0.4865 0.4435 -0.0631
H51? H 0.4422 0.3740 -0.0297
H52? H 0.5039 0.4133 0.0223
loop_
_geom_bond_atom_site_label_1
_geom_bond_atom_site_label_2
_geom_bond_site_symmetry_1
_geom_bond_site_symmetry_2
S1 P1 1_555 1_555
S2 P2 1_555 1_555
P1 C1 1_555 1_555
P2 C13 1_555 1_555
C1 H1 1_555 1_555
C2 C1 1_555 1_555
H2 C2 1_555 1_555
C3 C2 1_555 1_555
H3 C3 1_555 1_555
H4 C3 1_555 1_555
C4 C3 1_555 1_555
H5 C4 1_555 1_555
H6 C4 1_555 1_555
C5 C4 1_555 1_555
H7 C5 1_555 1_555
H8 C5 1_555 1_555
C6 C5 1_555 1_555
H9 C6 1_555 1_555
H10 C6 1_555 1_555
C7 C2 1_555 1_555
H11 C7 1_555 1_555
C8 P1 1_555 1_555
H12 C8 1_555 1_555
H13 C8 1_555 1_555
C9 P1 1_555 1_555
C10 C9 1_555 1_555
H14 C10 1_555 1_555
H15 C10 1_555 1_555
H16 C10 1_555 1_555
C11 C9 1_555 1_555
H17 C11 1_555 1_555
H18 C11 1_555 1_555
H19 C11 1_555 1_555
C12 C9 1_555 1_555
H20 C12 1_555 1_555
H21 C12 1_555 1_555
H22 C12 1_555 1_555
C13 C1 1_555 1_555
H23 C13 1_555 1_555
C14 C13 1_555 1_555
H24 C14 1_555 1_555
C15 C14 1_555 1_555
H25 C15 1_555 1_555
H26 C15 1_555 1_555
C16 C15 1_555 1_555
H27 C16 1_555 1_555
H28 C16 1_555 1_555
C17 C16 1_555 1_555
H29 C17 1_555 1_555
H30 C17 1_555 1_555
C18 C17 1_555 1_555
H31 C18 1_555 1_555
H32 C18 1_555 1_555
C19 C14 1_555 1_555
H33 C19 1_555 1_555
C20 P2 1_555 1_555
H34 C20 1_555 1_555
H35 C20 1_555 1_555
C21 P2 1_555 1_555
C22 C21 1_555 1_555
H36 C22 1_555 1_555
H37 C22 1_555 1_555
H38 C22 1_555 1_555
C23 C21 1_555 1_555
H39 C23 1_555 1_555
H40 C23 1_555 1_555
H41 C23 1_555 1_555
C24 C21 1_555 1_555
H42 C24 1_555 1_555
H43 C24 1_555 1_555
H44 C24 1_555 1_555
C6 C7 1_555 1_555
C7 C8 1_555 1_555
C18 C19 1_555 1_555
C19 C20 1_555 1_555

#END
