
#######################################################################
#
#                 Cambridge Crystallographic Data Centre
#                                CCDC 
#
#######################################################################
#
# If this CIF has been generated from an entry in the Cambridge 
# Structural Database, then it will include bibliographic, chemical, 
# crystal, experimental, refinement or atomic coordinate data resulting 
# from the CCDC's data processing and validation procedures.
#
#######################################################################

data_PUVKIB
_chemical_formula_moiety         'C50 H38 O4'
_chemical_name_systematic        
2,3,6,7-Tetramethoxy-9,10-bis(4-(1-naphthyl)phenyl)anthracene
_symmetry_cell_setting           triclinic
_symmetry_space_group_name_H-M   'P -1'
_symmetry_Int_Tables_number      2
_space_group_name_Hall           '-P 1'
loop_
_symmetry_equiv_pos_site_id
_symmetry_equiv_pos_as_xyz
1 x,y,z
2 -x,-y,-z
_cell_length_a                   9.3331(11)
_cell_length_b                   10.1235(12)
_cell_length_c                   10.4203(12)
_cell_angle_alpha                70.577(2)
_cell_angle_beta                 74.534(2)
_cell_angle_gamma                88.290(2)
_cell_volume                     893.017
_exptl_crystal_colour            yellow
_exptl_crystal_description       block
_cell_formula_units_Z            1
loop_
_atom_site_label
_atom_site_type_symbol
_atom_site_fract_x
_atom_site_fract_y
_atom_site_fract_z
C1 C 1.05874(16) 0.39609(15) 0.23731(15)
H1 H 0.9601 0.4231 0.2386
C2 C 1.17039(17) 0.43856(16) 0.10766(16)
H2 H 1.1474 0.4954 0.0236
C3 C 1.31240(17) 0.39745(16) 0.10338(16)
H3 H 1.3866 0.4226 0.0154
C4 C 1.34940(15) 0.31772(15) 0.22929(16)
C5 C 1.49527(17) 0.27388(18) 0.22799(19)
H4 H 1.5701 0.2968 0.1405
C6 C 1.53019(18) 0.19990(19) 0.3491(2)
H5 H 1.6288 0.1718 0.3458
C7 C 1.42112(17) 0.16462(17) 0.47932(18)
H6 H 1.4475 0.1151 0.5639
C8 C 1.27716(16) 0.20049(15) 0.48657(16)
H7 H 1.2042 0.1734 0.5754
C9 C 1.23643(15) 0.27869(15) 0.36068(15)
C10 C 1.08804(15) 0.31715(14) 0.36138(14)
C11 C 0.96287(15) 0.26206(15) 0.49424(15)
C12 C 0.86801(16) 0.15164(16) 0.50927(15)
H8 H 0.8830 0.1134 0.4352
C13 C 0.75186(15) 0.09625(15) 0.63037(15)
H9 H 0.6886 0.0206 0.6381
C14 C 0.72644(14) 0.14982(14) 0.74089(14)
C15 C 0.82032(16) 0.26080(16) 0.72651(15)
H10 H 0.8041 0.2998 0.8001
C16 C 0.93825(17) 0.31561(16) 0.60512(16)
H11 H 1.0026 0.3903 0.5978
C17 C 0.60934(14) 0.07684(14) 0.87504(14)
C18 C 0.46261(14) 0.11955(14) 0.89959(14)
C19 C 0.35206(14) 0.04134(14) 1.02551(14)
C20 C 0.20277(14) 0.08573(15) 1.04695(15)
H12 H 0.1285 0.0346 1.1301
C21 C 0.16554(15) 0.19924(15) 0.95091(15)
C22 C 0.27652(15) 0.27987(15) 0.82632(15)
C23 C 0.41950(15) 0.24020(15) 0.80170(14)
H13 H 0.4919 0.2936 0.7181
C24 C 0.33188(18) 0.48062(17) 0.61878(17)
H14 H 0.2830 0.5591 0.5664
H15 H 0.3757 0.4251 0.5586
H16 H 0.4105 0.5172 0.6466
C25 C -0.08751(16) 0.17344(18) 1.08567(17)
H17 H -0.1819 0.2178 1.0827
H18 H -0.0602 0.1745 1.1699
H19 H -0.0986 0.0762 1.0893
O1 O 0.22519(12) 0.39438(11) 0.74178(11)
O2 O 0.02633(11) 0.24879(12) 0.96211(11)
C1A C -0.05874(16) -0.39609(15) 1.76269(15)
H1A H 0.0399 -0.4231 1.7614
C2A C -0.17039(17) -0.43856(16) 1.89234(16)
H2A H -0.1474 -0.4954 1.9764
C3A C -0.31240(17) -0.39745(16) 1.89662(16)
H3A H -0.3866 -0.4226 1.9846
C4A C -0.34940(15) -0.31772(15) 1.77071(16)
C5A C -0.49527(17) -0.27388(18) 1.77201(19)
H4A H -0.5701 -0.2968 1.8595
C6A C -0.53019(18) -0.19990(19) 1.6509(2)
H5A H -0.6288 -0.1718 1.6542
C7A C -0.42112(17) -0.16462(17) 1.52068(18)
H6A H -0.4475 -0.1151 1.4361
C8A C -0.27716(16) -0.20049(15) 1.51343(16)
H7A H -0.2042 -0.1734 1.4246
C9A C -0.23643(15) -0.27869(15) 1.63932(15)
C10A C -0.08804(15) -0.31715(14) 1.63862(14)
C11A C 0.03713(15) -0.26206(15) 1.50576(15)
C12A C 0.13199(16) -0.15164(16) 1.49073(15)
H8A H 0.1170 -0.1134 1.5648
C13A C 0.24814(15) -0.09625(15) 1.36963(15)
H9A H 0.3114 -0.0206 1.3619
C14A C 0.27356(14) -0.14982(14) 1.25911(14)
C15A C 0.17968(16) -0.26080(16) 1.27349(15)
H10A H 0.1959 -0.2998 1.1999
C16A C 0.06175(17) -0.31561(16) 1.39488(16)
H11A H -0.0026 -0.3903 1.4022
C17A C 0.39066(14) -0.07684(14) 1.12496(14)
C18A C 0.53739(14) -0.11955(14) 1.10041(14)
C19A C 0.64794(14) -0.04134(14) 0.97449(14)
C20A C 0.79723(14) -0.08573(15) 0.95305(15)
H12A H 0.8715 -0.0346 0.8699
C21A C 0.83446(15) -0.19924(15) 1.04909(15)
C22A C 0.72348(15) -0.27987(15) 1.17368(15)
C23A C 0.58050(15) -0.24020(15) 1.19830(14)
H13A H 0.5081 -0.2936 1.2819
C24A C 0.66812(18) -0.48062(17) 1.38122(17)
H14A H 0.7170 -0.5591 1.4336
H15A H 0.6243 -0.4251 1.4414
H16A H 0.5895 -0.5172 1.3534
C25A C 1.08751(16) -0.17344(18) 0.91433(17)
H17A H 1.1819 -0.2178 0.9173
H18A H 1.0602 -0.1745 0.8301
H19A H 1.0986 -0.0762 0.9107
O1A O 0.77481(12) -0.39438(11) 1.25822(11)
O2A O 0.97367(11) -0.24879(12) 1.03789(11)
loop_
_geom_bond_atom_site_label_1
_geom_bond_atom_site_label_2
_geom_bond_site_symmetry_1
_geom_bond_site_symmetry_2
C1 H1 1_555 1_555
C2 C1 1_555 1_555
H2 C2 1_555 1_555
C3 C2 1_555 1_555
H3 C3 1_555 1_555
C4 C3 1_555 1_555
C5 C4 1_555 1_555
H4 C5 1_555 1_555
C6 C5 1_555 1_555
H5 C6 1_555 1_555
C7 C6 1_555 1_555
H6 C7 1_555 1_555
C8 C7 1_555 1_555
H7 C8 1_555 1_555
C9 C4 1_555 1_555
C10 C1 1_555 1_555
C11 C10 1_555 1_555
C12 C11 1_555 1_555
H8 C12 1_555 1_555
C13 C12 1_555 1_555
H9 C13 1_555 1_555
C14 C13 1_555 1_555
C15 C14 1_555 1_555
H10 C15 1_555 1_555
C16 C11 1_555 1_555
H11 C16 1_555 1_555
C17 C14 1_555 1_555
C18 C17 1_555 1_555
C19 C18 1_555 1_555
C20 C19 1_555 1_555
H12 C20 1_555 1_555
C21 C20 1_555 1_555
C22 C21 1_555 1_555
C23 C18 1_555 1_555
H13 C23 1_555 1_555
C24 H14 1_555 1_555
H15 C24 1_555 1_555
H16 C24 1_555 1_555
C25 H17 1_555 1_555
H18 C25 1_555 1_555
H19 C25 1_555 1_555
O1 C22 1_555 1_555
O2 C21 1_555 1_555
C1A H1A 1_555 1_555
C2A C1A 1_555 1_555
H2A C2A 1_555 1_555
C3A C2A 1_555 1_555
H3A C3A 1_555 1_555
C4A C3A 1_555 1_555
C5A C4A 1_555 1_555
H4A C5A 1_555 1_555
C6A C5A 1_555 1_555
H5A C6A 1_555 1_555
C7A C6A 1_555 1_555
H6A C7A 1_555 1_555
C8A C7A 1_555 1_555
H7A C8A 1_555 1_555
C9A C4A 1_555 1_555
C10A C1A 1_555 1_555
C11A C10A 1_555 1_555
C12A C11A 1_555 1_555
H8A C12A 1_555 1_555
C13A C12A 1_555 1_555
H9A C13A 1_555 1_555
C14A C13A 1_555 1_555
C15A C14A 1_555 1_555
H10A C15A 1_555 1_555
C16A C11A 1_555 1_555
H11A C16A 1_555 1_555
C17A C19 1_555 1_555
C18A C17A 1_555 1_555
C19A C17 1_555 1_555
C20A C19A 1_555 1_555
H12A C20A 1_555 1_555
C21A C20A 1_555 1_555
C22A C21A 1_555 1_555
C23A C18A 1_555 1_555
H13A C23A 1_555 1_555
C24A H14A 1_555 1_555
H15A C24A 1_555 1_555
H16A C24A 1_555 1_555
C25A H17A 1_555 1_555
H18A C25A 1_555 1_555
H19A C25A 1_555 1_555
O1A C22A 1_555 1_555
O2A C21A 1_555 1_555
C8 C9 1_555 1_555
C9 C10 1_555 1_555
C15 C16 1_555 1_555
C22 C23 1_555 1_555
C24 O1 1_555 1_555
C25 O2 1_555 1_555
C8A C9A 1_555 1_555
C9A C10A 1_555 1_555
C14A C17A 1_555 1_555
C15A C16A 1_555 1_555
C18A C19A 1_555 1_555
C22A C23A 1_555 1_555
C24A O1A 1_555 1_555
C25A O2A 1_555 1_555

#END
