
#######################################################################
#
#                 Cambridge Crystallographic Data Centre
#                                CCDC 
#
#######################################################################
#
# If this CIF has been generated from an entry in the Cambridge 
# Structural Database, then it will include bibliographic, chemical, 
# crystal, experimental, refinement or atomic coordinate data resulting 
# from the CCDC's data processing and validation procedures.
#
#######################################################################

data_PUVLOJ
_chemical_formula_moiety         'C20 H20 N2 O2 S6'
_chemical_name_systematic        
2-(4,5-bis(n-Propylsulfanyl)-1,3-dithiol-2-ylidene)-5-(4-nitrophenyl)-5H-[1,3]dithiolo[4,5-c]pyrrole
_symmetry_cell_setting           monoclinic
_symmetry_space_group_name_H-M   'P 21/c'
_symmetry_Int_Tables_number      14
_space_group_name_Hall           '-P 2ybc'
loop_
_symmetry_equiv_pos_site_id
_symmetry_equiv_pos_as_xyz
1 x,y,z
2 -x,1/2+y,1/2-z
3 -x,-y,-z
4 x,1/2-y,1/2+z
_cell_length_a                   10.9203(13)
_cell_length_b                   11.8068(14)
_cell_length_c                   34.711(4)
_cell_angle_alpha                90
_cell_angle_beta                 91.759(4)
_cell_angle_gamma                90
_cell_volume                     4473.31
_exptl_crystal_colour            red
_exptl_crystal_description       plate
_chemical_melting_point          '513 K'
_cell_formula_units_Z            8
_exptl_crystal_recrystallization_method chloroform/heptane
loop_
_atom_site_label
_atom_site_type_symbol
_atom_site_fract_x
_atom_site_fract_y
_atom_site_fract_z
C1 C 0.6448(6) 0.9439(6) 0.11319(19)
C2 C 0.5961(6) 0.8494(6) 0.12791(19)
C3 C 0.7896(6) 0.8939(5) 0.17168(19)
C4 C 0.8833(7) 0.8927(6) 0.19692(19)
C5 C 1.1941(6) 0.9700(6) 0.25191(19)
H1 H 1.2449 1.0327 0.2461
C6 C 1.0865(6) 0.9416(5) 0.23365(19)
C7 C 1.0410(6) 0.8417(6) 0.25135(19)
C8 C 1.1203(7) 0.8104(6) 0.28025(19)
H2 H 1.1125 0.7472 0.2969
C9 C 1.3165(6) 0.8911(6) 0.30709(18)
C10 C 1.3936(6) 0.9852(6) 0.3094(2)
H3 H 1.3770 1.0490 0.2934
C11 C 1.4935(6) 0.9866(6) 0.3347(2)
H4 H 1.5473 1.0498 0.3357
C12 C 1.5138(7) 0.8939(6) 0.35848(19)
C13 C 1.4397(6) 0.7993(6) 0.35684(19)
H5 H 1.4570 0.7365 0.3732
C14 C 1.3396(7) 0.7964(6) 0.33122(19)
H6 H 1.2876 0.7319 0.3299
C15 C 0.6896(7) 1.1217(6) 0.0623(2)
H7 H 0.7131 1.1682 0.0851
H8 H 0.7637 1.0828 0.0532
C16 C 0.6341(7) 1.1964(6) 0.0303(2)
H9 H 0.6138 1.1492 0.0074
H10 H 0.5571 1.2307 0.0392
C17 C 0.7225(8) 1.2901(7) 0.0192(3)
H11 H 0.8020 1.2568 0.0133
H12 H 0.7330 1.3435 0.0406
H13 H 0.6894 1.3302 -0.0036
C18 C 0.5218(7) 0.6669(6) 0.0832(2)
H14 H 0.5810 0.6235 0.0995
H15 H 0.4537 0.6153 0.0757
C19 C 0.5852(7) 0.7058(7) 0.0469(2)
H16 H 0.6524 0.7586 0.0542
H17 H 0.5257 0.7474 0.0301
C20 C 0.6372(9) 0.6063(8) 0.0246(3)
H18 H 0.6641 0.6327 -0.0006
H19 H 0.5738 0.5483 0.0208
H20 H 0.7072 0.5740 0.0392
N1 N 1.2157(5) 0.8894(5) 0.28076(15)
N2 N 1.6180(5) 0.8954(5) 0.38584(17)
O1 O 1.6897(5) 0.9765(5) 0.38460(17)
O2 O 1.6298(5) 0.8171(5) 0.40897(16)
S1 S 0.57381(17) 1.01863(15) 0.07474(5)
S2 S 0.46142(16) 0.78346(15) 0.11126(5)
S3 S 0.77512(16) 1.00104(14) 0.13623(5)
S4 S 0.66862(15) 0.79492(14) 0.17033(5)
S5 S 0.99687(16) 1.00054(14) 0.19647(5)
S6 S 0.89860(15) 0.79015(14) 0.23417(5)
C21 C 0.1519(7) 1.0867(6) 0.11235(19)
C22 C 0.1061(7) 1.1833(6) 0.12559(19)
C23 C 0.2972(6) 1.1421(6) 0.17096(19)
C24 C 0.3872(6) 1.1437(5) 0.19713(19)
C25 C 0.6902(6) 1.0620(6) 0.25472(18)
H21 H 0.7381 0.9967 0.2499
C26 C 0.5854(6) 1.0917(6) 0.23600(19)
C27 C 0.5421(6) 1.1947(6) 0.25188(19)
C28 C 0.6240(6) 1.2264(5) 0.28046(18)
H22 H 0.6191 1.2922 0.2961
C29 C 0.8194(6) 1.1460(6) 0.30792(18)
C30 C 0.8374(7) 1.2336(6) 0.3344(2)
H23 H 0.7790 1.2931 0.3354
C31 C 0.9377(7) 1.2353(6) 0.3588(2)
H24 H 0.9493 1.2951 0.3769
C32 C 1.0217(6) 1.1485(6) 0.35685(19)
C33 C 1.0078(7) 1.0608(6) 0.3306(2)
H25 H 1.0679 1.0028 0.3293
C34 C 0.9047(6) 1.0593(6) 0.3064(2)
H26 H 0.8924 0.9986 0.2887
C35 C 0.2116(7) 0.9865(7) 0.0434(2)
H27 H 0.2849 0.9602 0.0583
H28 H 0.1900 0.9273 0.0242
C36 C 0.2437(7) 1.0949(7) 0.0222(2)
H29 H 0.3177 1.0816 0.0071
H30 H 0.2633 1.1549 0.0414
C37 C 0.1402(8) 1.1362(7) -0.0049(2)
H31 H 0.1625 1.2096 -0.0158
H32 H 0.0649 1.1444 0.0096
H33 H 0.1268 1.0811 -0.0257
C38 C 0.0163(8) 1.3856(6) 0.0932(2)
H34 H -0.0559 1.4364 0.0928
H35 H 0.0769 1.4164 0.1122
C39 C 0.0716(7) 1.3878(7) 0.0539(2)
H36 H 0.0140 1.3531 0.0348
H37 H 0.1484 1.3433 0.0544
C40 C 0.0985(8) 1.5114(7) 0.0424(3)
H38 H 0.1269 1.5132 0.0158
H39 H 0.1621 1.5428 0.0598
H40 H 0.0237 1.5567 0.0441
N3 N 0.7158(5) 1.1446(5) 0.28247(16)
N4 N 1.1296(6) 1.1487(6) 0.38299(17)
O3 O 1.2015(5) 1.0690(5) 0.38149(16)
O4 O 1.1411(5) 1.2281(5) 0.40588(15)
S7 S 0.08492(17) 1.00280(15) 0.07606(5)
S8 S -0.03131(17) 1.24554(15) 0.10937(5)
S9 S 0.28031(16) 1.02973(14) 0.13752(5)
S10 S 0.17635(16) 1.24177(14) 0.16790(5)
S11 S 0.49640(16) 1.03134(14) 0.19877(5)
S12 S 0.40544(15) 1.24936(14) 0.23313(5)
loop_
_geom_bond_atom_site_label_1
_geom_bond_atom_site_label_2
_geom_bond_site_symmetry_1
_geom_bond_site_symmetry_2
C1 C2 1_555 1_555
C2 S2 1_555 1_555
C3 C4 1_555 1_555
C4 S5 1_555 1_555
C5 H1 1_555 1_555
C6 C5 1_555 1_555
C7 C6 1_555 1_555
C8 C7 1_555 1_555
H2 C8 1_555 1_555
C9 C10 1_555 1_555
C10 H3 1_555 1_555
C11 C10 1_555 1_555
H4 C11 1_555 1_555
C12 C11 1_555 1_555
C13 C12 1_555 1_555
H5 C13 1_555 1_555
C14 C9 1_555 1_555
H6 C14 1_555 1_555
C15 H7 1_555 1_555
H8 C15 1_555 1_555
C16 C15 1_555 1_555
H9 C16 1_555 1_555
H10 C16 1_555 1_555
C17 C16 1_555 1_555
H11 C17 1_555 1_555
H12 C17 1_555 1_555
H13 C17 1_555 1_555
C18 H14 1_555 1_555
H15 C18 1_555 1_555
C19 C18 1_555 1_555
H16 C19 1_555 1_555
H17 C19 1_555 1_555
C20 C19 1_555 1_555
H18 C20 1_555 1_555
H19 C20 1_555 1_555
H20 C20 1_555 1_555
N1 C5 1_555 1_555
N2 C12 1_555 1_555
O1 N2 1_555 1_555
O2 N2 1_555 1_555
S1 C1 1_555 1_555
S2 C18 1_555 1_555
S3 C1 1_555 1_555
S4 C2 1_555 1_555
S5 C6 1_555 1_555
S6 C4 1_555 1_555
C21 C22 1_555 1_555
C22 S8 1_555 1_555
C23 C24 1_555 1_555
C24 S11 1_555 1_555
C25 H21 1_555 1_555
C26 C25 1_555 1_555
C27 C26 1_555 1_555
C28 C27 1_555 1_555
H22 C28 1_555 1_555
C29 C30 1_555 1_555
C30 H23 1_555 1_555
C31 C30 1_555 1_555
H24 C31 1_555 1_555
C32 C31 1_555 1_555
C33 C32 1_555 1_555
H25 C33 1_555 1_555
C34 C29 1_555 1_555
H26 C34 1_555 1_555
C35 H27 1_555 1_555
H28 C35 1_555 1_555
C36 C35 1_555 1_555
H29 C36 1_555 1_555
H30 C36 1_555 1_555
C37 C36 1_555 1_555
H31 C37 1_555 1_555
H32 C37 1_555 1_555
H33 C37 1_555 1_555
C38 H34 1_555 1_555
H35 C38 1_555 1_555
C39 C38 1_555 1_555
H36 C39 1_555 1_555
H37 C39 1_555 1_555
C40 C39 1_555 1_555
H38 C40 1_555 1_555
H39 C40 1_555 1_555
H40 C40 1_555 1_555
N3 C25 1_555 1_555
N4 C32 1_555 1_555
O3 N4 1_555 1_555
O4 N4 1_555 1_555
S7 C21 1_555 1_555
S8 C38 1_555 1_555
S9 C21 1_555 1_555
S10 C22 1_555 1_555
S11 C26 1_555 1_555
S12 C24 1_555 1_555
C3 S3 1_555 1_555
C3 S4 1_555 1_555
C7 S6 1_555 1_555
C8 N1 1_555 1_555
C9 N1 1_555 1_555
C13 C14 1_555 1_555
C15 S1 1_555 1_555
C23 S9 1_555 1_555
C23 S10 1_555 1_555
C27 S12 1_555 1_555
C28 N3 1_555 1_555
C29 N3 1_555 1_555
C33 C34 1_555 1_555
C35 S7 1_555 1_555

#END
