
#######################################################################
#
#                 Cambridge Crystallographic Data Centre
#                                CCDC 
#
#######################################################################
#
# If this CIF has been generated from an entry in the Cambridge 
# Structural Database, then it will include bibliographic, chemical, 
# crystal, experimental, refinement or atomic coordinate data resulting 
# from the CCDC's data processing and validation procedures.
#
#######################################################################

data_PUVNID
_chemical_formula_moiety         'C6 H6 O2,C6 H8 N2,0.5(H2 O1)'
_chemical_name_systematic        'o-Phenylenediamine pyrocatechol hemihydrate'
_symmetry_cell_setting           monoclinic
_symmetry_space_group_name_H-M   'P 2/c'
_symmetry_Int_Tables_number      13
_space_group_name_Hall           '-P 2yc'
loop_
_symmetry_equiv_pos_site_id
_symmetry_equiv_pos_as_xyz
1 x,y,z
2 -x,y,1/2-z
3 -x,-y,-z
4 x,-y,1/2+z
_cell_length_a                   9.0498(2)
_cell_length_b                   5.2275(1)
_cell_length_c                   25.0771(2)
_cell_angle_alpha                90
_cell_angle_beta                 97.71
_cell_angle_gamma                90
_cell_volume                     1175.62
_exptl_crystal_colour            colorless
_exptl_crystal_description       'thin plate'
_cell_formula_units_Z            4
loop_
_atom_site_label
_atom_site_type_symbol
_atom_site_fract_x
_atom_site_fract_y
_atom_site_fract_z
O1 O 0.14028(13) 0.3317(3) 0.79384(4)
O2 O 0.31302(14) 0.7177(2) 0.77498(4)
C1 C 0.2357(2) 0.3374(3) 0.88909(6)
C2 C 0.3270(2) 0.4523(4) 0.93123(6)
C3 C 0.4149(2) 0.6565(4) 0.92126(6)
C4 C 0.4133(2) 0.7475(3) 0.86931(6)
C5 C 0.32189(14) 0.6346(3) 0.82708(5)
C6 C 0.23165(14) 0.4281(3) 0.83721(5)
H1 H 0.0825(24) 0.1988(43) 0.8040(8)
H2 H 0.3795(25) 0.8430(42) 0.7716(8)
H3 H 0.1727(17) 0.1893(32) 0.8957(6)
H4 H 0.3278(21) 0.3845(37) 0.9679(7)
H5 H 0.4806(21) 0.7392(39) 0.9509(7)
H6 H 0.4741(18) 0.8927(34) 0.8605(6)
O3 O 0.5000 0.0847(3) 0.7500
H7 H 0.5618(22) 0.1826(40) 0.7720(8)
H7A H 0.4382(22) 0.1826(40) 0.7280(8)
N1 N 0.0534(2) -0.0708(3) 0.68937(5)
N2 N 0.2664(2) 0.3174(3) 0.68079(6)
C7 C 0.0724(2) -0.1942(3) 0.59639(6)
C8 C 0.11620(13) -0.0389(3) 0.64043(5)
C9 C 0.21536(14) 0.1617(3) 0.63568(5)
C10 C 0.2681(2) 0.1981(3) 0.58642(7)
C11 C 0.2229(2) 0.0411(4) 0.54290(7)
C12 C 0.1247(2) -0.1550(4) 0.54779(6)
H8 H 0.0033(24) -0.2309(47) 0.6900(8)
H9 H 0.1210(22) -0.0719(36) 0.7182(8)
H10 H 0.2015(25) 0.3371(43) 0.7067(9)
H11 H 0.3038(22) 0.4603(42) 0.6697(8)
H12 H 0.0013(19) -0.3341(35) 0.6001(7)
H13 H 0.3362(20) 0.3358(38) 0.5848(7)
H14 H 0.2575(19) 0.0701(37) 0.5090(8)
H15 H 0.0900(19) -0.2640(39) 0.5160(7)
loop_
_geom_bond_atom_site_label_1
_geom_bond_atom_site_label_2
_geom_bond_site_symmetry_1
_geom_bond_site_symmetry_2
O1 C6 1_555 1_555
O2 C5 1_555 1_555
C1 C2 1_555 1_555
C2 C3 1_555 1_555
C3 C4 1_555 1_555
C4 C5 1_555 1_555
C5 C6 1_555 1_555
C6 C1 1_555 1_555
H1 O1 1_555 1_555
H2 O2 1_555 1_555
H3 C1 1_555 1_555
H4 C2 1_555 1_555
H5 C3 1_555 1_555
H6 C4 1_555 1_555
O3 H7 1_555 1_555
N1 C8 1_555 1_555
N2 C9 1_555 1_555
C7 C8 1_555 1_555
C8 C9 1_555 1_555
C9 C10 1_555 1_555
C10 C11 1_555 1_555
C11 C12 1_555 1_555
C12 C7 1_555 1_555
H8 N1 1_555 1_555
H9 N1 1_555 1_555
H10 N2 1_555 1_555
H11 N2 1_555 1_555
H12 C7 1_555 1_555
H13 C10 1_555 1_555
H14 C11 1_555 1_555
H15 C12 1_555 1_555
H7A O3 1_555 1_555

#END
