
#######################################################################
#
#                 Cambridge Crystallographic Data Centre
#                                CCDC 
#
#######################################################################
#
# If this CIF has been generated from an entry in the Cambridge 
# Structural Database, then it will include bibliographic, chemical, 
# crystal, experimental, refinement or atomic coordinate data resulting 
# from the CCDC's data processing and validation procedures.
#
#######################################################################

data_PUVNAW
_chemical_formula_moiety         'C28 H24 O4'
_chemical_name_systematic        
1,1'-((1,2-Diphenylethene-1,2-diyl)bis(5-methylfuran-2,4-diyl))diethanone
_symmetry_cell_setting           monoclinic
_symmetry_space_group_name_H-M   'C 2/c'
_symmetry_Int_Tables_number      15
_space_group_name_Hall           '-C 2yn'
loop_
_symmetry_equiv_pos_site_id
_symmetry_equiv_pos_as_xyz
1 x,y,z
2 -x,y,1/2-z
3 1/2+x,1/2+y,z
4 1/2-x,1/2+y,1/2-z
5 -x,-y,-z
6 x,-y,1/2+z
7 1/2-x,1/2-y,-z
8 1/2+x,1/2-y,1/2+z
_cell_length_a                   11.4578(11)
_cell_length_b                   10.3648(11)
_cell_length_c                   19.930(2)
_cell_angle_alpha                90
_cell_angle_beta                 98.379(3)
_cell_angle_gamma                90
_cell_volume                     2341.58
_exptl_crystal_colour            yellow
_exptl_crystal_description       block
_cell_formula_units_Z            4
loop_
_atom_site_label
_atom_site_type_symbol
_atom_site_fract_x
_atom_site_fract_y
_atom_site_fract_z
C1 C -0.06734(19) -0.3354(2) 0.30676(11)
C2 C -0.1419(2) -0.4160(3) 0.26428(12)
H1 H -0.1649 -0.3921 0.2193
C3 C -0.1822(2) -0.5299(3) 0.28725(14)
H2 H -0.2316 -0.5826 0.2579
C4 C -0.1498(3) -0.5663(3) 0.35349(15)
H3 H -0.1763 -0.6441 0.3690
C5 C -0.0784(3) -0.4876(3) 0.39657(14)
H4 H -0.0573 -0.5117 0.4417
C6 C -0.0370(2) -0.3728(3) 0.37397(12)
H5 H 0.0114 -0.3202 0.4039
C7 C -0.0228(2) -0.2139(2) 0.27996(11)
C8 C -0.0327(2) -0.1006(2) 0.32123(12)
C9 C -0.0997(2) -0.0735(3) 0.36946(12)
H6 H -0.1597 -0.1240 0.3824
C10 C -0.0590(2) 0.0511(2) 0.39718(12)
C11 C 0.0271(2) 0.0902(3) 0.36287(14)
C12 C 0.1049(3) 0.2063(3) 0.3665(2)
H7 H 0.1556 0.2005 0.3323
H8 H 0.1520 0.2107 0.4104
H9 H 0.0572 0.2826 0.3591
C13 C -0.1033(3) 0.1198(3) 0.45376(14)
C14 C -0.2066(4) 0.0597(4) 0.4803(2)
H10 H -0.2281 0.1117 0.5165
H11 H -0.1856 -0.0253 0.4970
H12 H -0.2721 0.0542 0.4445
O1 O -0.0562(2) 0.2191(2) 0.47683(11)
O2 O 0.04553(16) 0.00041(18) 0.31696(10)
C1A C 0.06734(19) -0.3354(2) 0.19324(11)
C2A C 0.1419(2) -0.4160(3) 0.23572(12)
H1A H 0.1649 -0.3921 0.2807
C3A C 0.1822(2) -0.5299(3) 0.21275(14)
H2A H 0.2316 -0.5826 0.2421
C4A C 0.1498(3) -0.5663(3) 0.14651(15)
H3A H 0.1763 -0.6441 0.1310
C5A C 0.0784(3) -0.4876(3) 0.10343(14)
H4A H 0.0573 -0.5117 0.0583
C6A C 0.0370(2) -0.3728(3) 0.12603(12)
H5A H -0.0114 -0.3202 0.0961
C7A C 0.0228(2) -0.2139(2) 0.22004(11)
C8A C 0.0327(2) -0.1006(2) 0.17877(12)
C9A C 0.0997(2) -0.0735(3) 0.13054(12)
H6A H 0.1597 -0.1240 0.1176
C10A C 0.0590(2) 0.0511(2) 0.10282(12)
C11A C -0.0271(2) 0.0902(3) 0.13713(14)
C12A C -0.1049(3) 0.2063(3) 0.1335(2)
H7A H -0.1556 0.2005 0.1677
H8A H -0.1520 0.2107 0.0896
H9A H -0.0572 0.2826 0.1409
C13A C 0.1033(3) 0.1198(3) 0.04624(14)
C14A C 0.2066(4) 0.0597(4) 0.0197(2)
H10A H 0.2281 0.1117 -0.0165
H11A H 0.1856 -0.0253 0.0030
H12A H 0.2721 0.0542 0.0555
O1A O 0.0562(2) 0.2191(2) 0.02317(11)
O2A O -0.04553(16) 0.00041(18) 0.18304(10)
loop_
_geom_bond_atom_site_label_1
_geom_bond_atom_site_label_2
_geom_bond_site_symmetry_1
_geom_bond_site_symmetry_2
C1 C2 1_555 1_555
C2 H1 1_555 1_555
C3 C2 1_555 1_555
H2 C3 1_555 1_555
C4 C3 1_555 1_555
H3 C4 1_555 1_555
C5 C4 1_555 1_555
H4 C5 1_555 1_555
C6 C1 1_555 1_555
H5 C6 1_555 1_555
C7 C1 1_555 1_555
C8 C7 1_555 1_555
C9 C8 1_555 1_555
H6 C9 1_555 1_555
C10 C9 1_555 1_555
C11 C10 1_555 1_555
C12 C11 1_555 1_555
H7 C12 1_555 1_555
H8 C12 1_555 1_555
H9 C12 1_555 1_555
C13 C10 1_555 1_555
C14 C13 1_555 1_555
H10 C14 1_555 1_555
H11 C14 1_555 1_555
H12 C14 1_555 1_555
O1 C13 1_555 1_555
O2 C8 1_555 1_555
C1A C2A 1_555 1_555
C2A H1A 1_555 1_555
C3A C2A 1_555 1_555
H2A C3A 1_555 1_555
C4A C3A 1_555 1_555
H3A C4A 1_555 1_555
C5A C4A 1_555 1_555
H4A C5A 1_555 1_555
C6A C1A 1_555 1_555
H5A C6A 1_555 1_555
C7A C7 1_555 1_555
C8A C7A 1_555 1_555
C9A C8A 1_555 1_555
H6A C9A 1_555 1_555
C10A C9A 1_555 1_555
C11A C10A 1_555 1_555
C12A C11A 1_555 1_555
H7A C12A 1_555 1_555
H8A C12A 1_555 1_555
H9A C12A 1_555 1_555
C13A C10A 1_555 1_555
C14A C13A 1_555 1_555
H10A C14A 1_555 1_555
H11A C14A 1_555 1_555
H12A C14A 1_555 1_555
O1A C13A 1_555 1_555
O2A C8A 1_555 1_555
C5 C6 1_555 1_555
C11 O2 1_555 1_555
C1A C7A 1_555 1_555
C5A C6A 1_555 1_555
C11A O2A 1_555 1_555

#END
