
#######################################################################
#
#                 Cambridge Crystallographic Data Centre
#                                CCDC 
#
#######################################################################
#
# If this CIF has been generated from an entry in the Cambridge 
# Structural Database, then it will include bibliographic, chemical, 
# crystal, experimental, refinement or atomic coordinate data resulting 
# from the CCDC's data processing and validation procedures.
#
#######################################################################

data_PUVNAX
_chemical_formula_moiety         'C21 H15 I1 O2'
_chemical_name_systematic        
4-Iodo-3-(4-methylphenyl)-5-(2-naphthyl)furan-2(5H)-one
_symmetry_cell_setting           orthorhombic
_symmetry_space_group_name_H-M   'P 21 21 21'
_symmetry_Int_Tables_number      19
_space_group_name_Hall           'P 2ac 2ab'
loop_
_symmetry_equiv_pos_site_id
_symmetry_equiv_pos_as_xyz
1 x,y,z
2 1/2-x,-y,1/2+z
3 -x,1/2+y,1/2-z
4 1/2+x,1/2-y,-z
_cell_length_a                   5.8267(5)
_cell_length_b                   8.4523(7)
_cell_length_c                   35.472(3)
_cell_angle_alpha                90
_cell_angle_beta                 90
_cell_angle_gamma                90
_cell_volume                     1746.96
_exptl_crystal_colour            colorless
_exptl_crystal_description       prismatic
_cell_formula_units_Z            4
loop_
_atom_site_label
_atom_site_type_symbol
_atom_site_fract_x
_atom_site_fract_y
_atom_site_fract_z
I1 I 0.59139(6) 1.13014(3) 0.856840(7)
O1 O 0.6104(8) 0.4916(3) 0.85064(9)
O2 O 0.7955(5) 0.6618(3) 0.88758(7)
C1 C 0.6465(7) 0.6251(4) 0.85982(10)
C2 C 0.5549(7) 0.7730(4) 0.84311(9)
C3 C 0.6462(6) 0.8910(4) 0.86241(9)
C4 C 0.8109(7) 0.8320(4) 0.89168(10)
H1 H 0.9665 0.8666 0.8852
C5 C 0.7569(6) 0.8810(4) 0.93159(9)
C6 C 0.9049(7) 0.9721(4) 0.95124(10)
H2 H 1.0406 1.0049 0.9399
C7 C 0.8581(5) 1.0187(4) 0.98888(9)
C8 C 0.6507(6) 0.9703(4) 1.00545(10)
C9 C 0.4988(6) 0.8748(5) 0.98416(10)
H3 H 0.3620 0.8409 0.9950
C10 C 0.5486(6) 0.8318(4) 0.94837(10)
H4 H 0.4459 0.7698 0.9348
C11 C 1.0121(6) 1.1123(5) 1.00995(11)
H5 H 1.1472 1.1481 0.9989
C12 C 0.9643(7) 1.1505(6) 1.04640(12)
H6 H 1.0687 1.2103 1.0602
C13 C 0.7597(8) 1.1006(6) 1.06338(11)
H7 H 0.7295 1.1261 1.0884
C14 C 0.6051(8) 1.0145(5) 1.04312(10)
H8 H 0.4674 0.9844 1.0543
C15 C 0.3955(7) 0.7702(4) 0.81083(10)
C16 C 0.1952(8) 0.6833(6) 0.81251(13)
H9 H 0.1582 0.6270 0.8342
C17 C 0.0495(8) 0.6803(6) 0.78164(14)
H10 H -0.0882 0.6252 0.7833
C18 C 0.1040(8) 0.7572(6) 0.74850(12)
C19 C 0.3047(7) 0.8406(6) 0.74695(12)
H11 H 0.3460 0.8914 0.7247
C20 C 0.4474(7) 0.8504(5) 0.77806(11)
H12 H 0.5797 0.9117 0.7768
C21 C -0.0583(10) 0.7463(8) 0.71502(15)
H13 H 0.0165 0.7870 0.6929
H14 H -0.1938 0.8073 0.7201
H15 H -0.0999 0.6378 0.7109
loop_
_geom_bond_atom_site_label_1
_geom_bond_atom_site_label_2
_geom_bond_site_symmetry_1
_geom_bond_site_symmetry_2
I1 C3 1_555 1_555
O1 C1 1_555 1_555
O2 C1 1_555 1_555
C1 C2 1_555 1_555
C2 C3 1_555 1_555
C3 C4 1_555 1_555
C4 O2 1_555 1_555
H1 C4 1_555 1_555
C5 C4 1_555 1_555
C6 C5 1_555 1_555
H2 C6 1_555 1_555
C7 C6 1_555 1_555
C8 C7 1_555 1_555
C9 C8 1_555 1_555
H3 C9 1_555 1_555
C10 C5 1_555 1_555
H4 C10 1_555 1_555
C11 C7 1_555 1_555
H5 C11 1_555 1_555
C12 C11 1_555 1_555
H6 C12 1_555 1_555
C13 C12 1_555 1_555
H7 C13 1_555 1_555
C14 C8 1_555 1_555
H8 C14 1_555 1_555
C15 C2 1_555 1_555
C16 C15 1_555 1_555
H9 C16 1_555 1_555
C17 C16 1_555 1_555
H10 C17 1_555 1_555
C18 C17 1_555 1_555
C19 C18 1_555 1_555
H11 C19 1_555 1_555
C20 C15 1_555 1_555
H12 C20 1_555 1_555
C21 C18 1_555 1_555
H13 C21 1_555 1_555
H14 C21 1_555 1_555
H15 C21 1_555 1_555
C9 C10 1_555 1_555
C13 C14 1_555 1_555
C19 C20 1_555 1_555

#END
