
#######################################################################
#
#                 Cambridge Crystallographic Data Centre
#                                CCDC 
#
#######################################################################
#
# If this CIF has been generated from an entry in the Cambridge 
# Structural Database, then it will include bibliographic, chemical, 
# crystal, experimental, refinement or atomic coordinate data resulting 
# from the CCDC's data processing and validation procedures.
#
#######################################################################

data_PUVQAA
_chemical_formula_moiety         'C17 H25 N1 O2 Si2'
_chemical_name_systematic        
2-mesityl-3,3-dimethyl-3-phenyldisilazane-1,1-diol
_symmetry_cell_setting           triclinic
_symmetry_space_group_name_H-M   'P -1'
_symmetry_Int_Tables_number      2
_space_group_name_Hall           '-P 1'
loop_
_symmetry_equiv_pos_site_id
_symmetry_equiv_pos_as_xyz
1 x,y,z
2 -x,-y,-z
_cell_length_a                   10.4955(7)
_cell_length_b                   12.9201(11)
_cell_length_c                   16.0791(11)
_cell_angle_alpha                109.295(7)
_cell_angle_beta                 106.762(6)
_cell_angle_gamma                97.856(6)
_cell_volume                     1904.44
_exptl_crystal_colour            colorless
_exptl_crystal_description       block
_cell_formula_units_Z            4
loop_
_atom_site_label
_atom_site_type_symbol
_atom_site_fract_x
_atom_site_fract_y
_atom_site_fract_z
Si1 Si 0.57920(6) -0.95049(6) 0.16150(4)
Si2 Si 0.47323(7) -1.16531(6) 0.19688(5)
O1 O 0.41998(16) -0.97566(16) 0.09453(12)
H1 H 0.393(3) -1.005(3) 0.0376(18)
O2 O 0.67019(16) -0.95253(16) 0.09407(12)
H2 H 0.751(3) -0.939(3) 0.116(2)
N1 N 0.59714(18) -1.04991(16) 0.20980(13)
C1 C 0.5530(3) -1.2220(3) 0.2862(2)
H3 H 0.5815 -1.1627 0.3495
H4 H 0.6335 -1.2460 0.2756
H5 H 0.4858 -1.2870 0.2804
C2 C 0.3196(3) -1.1204(3) 0.2159(2)
H6 H 0.3482 -1.0579 0.2776
H7 H 0.2550 -1.1846 0.2136
H8 H 0.2748 -1.0951 0.1664
C3 C 0.4056(5) -1.2774(3) 0.0757(4)
C4 C 0.4246(6) -1.2598(4) -0.0011(5)
H9 H 0.4760 -1.1883 0.0073
C5 C 0.3682(6) -1.3468(6) -0.0902(4)
H10 H 0.3811 -1.3348 -0.1427
C6 C 0.2928(5) -1.4514(5) -0.1025(3)
H11 H 0.2543 -1.5109 -0.1635
C7 C 0.2739(5) -1.4690(3) -0.0257(3)
H12 H 0.2224 -1.5405 -0.0341
C8 C 0.3303(5) -1.3820(4) 0.0634(3)
H13 H 0.3174 -1.3941 0.1159
C9 C 0.7403(2) -1.0264(2) 0.27153(16)
C10 C 0.7876(3) -0.9446(2) 0.36298(17)
C11 C 0.9669(2) -1.0559(2) 0.29614(18)
H14 H 1.0276 -1.0961 0.2739
C12 C 0.9274(3) -0.9167(2) 0.41799(18)
H15 H 0.9605 -0.8591 0.4797
C13 C 1.0186(3) -0.9705(2) 0.38525(19)
C14 C 0.8295(2) -1.0856(2) 0.23748(17)
C15 C 0.6924(3) -0.8859(3) 0.40527(19)
H16 H 0.7062 -0.8895 0.4671
H17 H 0.5967 -0.9239 0.3635
H18 H 0.7128 -0.8064 0.4126
C16 C 1.1703(3) -0.9345(3) 0.4447(2)
H19 H 1.2131 -0.9958 0.4224
H20 H 1.1813 -0.9179 0.5108
H21 H 1.2147 -0.8664 0.4393
C17 C 0.7814(3) -1.1774(2) 0.14051(18)
H22 H 0.7375 -1.1480 0.0937
H23 H 0.7150 -1.2417 0.1365
H24 H 0.8604 -1.2026 0.1280
H25 H 0.617(2) -0.8414(19) 0.2313(16)
Si3 Si 0.09987(6) -0.89021(6) 0.16535(4)
Si4 Si 0.16201(7) -0.65903(6) 0.15573(5)
O3 O -0.06429(16) -0.94359(15) 0.10323(12)
H31 H -0.096(3) -0.979(2) 0.0419(19)
O4 O 0.17168(16) -0.93446(15) 0.08654(12)
H32 H 0.248(3) -0.938(3) 0.105(2)
N2 N 0.14818(18) -0.74533(16) 0.21870(13)
C24 C 0.3269(3) -0.6494(3) 0.1338(2)
H33 H 0.4037 -0.6059 0.1935
H34 H 0.3257 -0.6114 0.0900
H35 H 0.3382 -0.7259 0.1062
C25 C 0.0162(3) -0.7213(2) 0.04043(18)
H36 H 0.0204 -0.7978 0.0045
H37 H 0.0228 -0.6736 0.0047
H38 H -0.0711 -0.7254 0.0514
C26 C 0.1564(3) -0.5127(2) 0.22633(18)
C27 C 0.0495(4) -0.4669(3) 0.1956(2)
H39 H -0.0233 -0.5110 0.1373
C28 C 0.0451(4) -0.3587(3) 0.2474(3)
H40 H -0.0299 -0.3298 0.2242
C29 C 0.1481(4) -0.2935(3) 0.3316(2)
H41 H 0.1444 -0.2199 0.3678
C30 C 0.2572(4) -0.3357(3) 0.3632(2)
H42 H 0.3305 -0.2905 0.4209
C31 C 0.2606(3) -0.4438(2) 0.3113(2)
H43 H 0.3366 -0.4718 0.3346
C32 C 0.1792(2) -0.69667(19) 0.31998(16)
C33 C 0.0764(2) -0.6679(2) 0.35539(17)
C34 C 0.1089(3) -0.6212(2) 0.45272(19)
H44 H 0.0386 -0.6022 0.4766
C35 C 0.2397(3) -0.6017(2) 0.51575(18)
C36 C 0.3392(3) -0.6312(2) 0.47904(19)
H45 H 0.4299 -0.6180 0.5213
C37 C 0.3120(3) -0.6792(2) 0.38299(18)
C38 C -0.0687(3) -0.6886(3) 0.2902(2)
H46 H -0.0686 -0.6448 0.2507
H47 H -0.1264 -0.6650 0.3275
H48 H -0.1053 -0.7696 0.2499
C39 C 0.2713(4) -0.5518(3) 0.6213(2)
H49 H 0.3494 -0.5756 0.6531
H50 H 0.1905 -0.5787 0.6348
H51 H 0.2942 -0.4688 0.6443
C40 C 0.4247(3) -0.7141(3) 0.3479(2)
H52 H 0.4303 -0.6837 0.3004
H53 H 0.4039 -0.7971 0.3197
H54 H 0.5128 -0.6842 0.4008
H55 H 0.142(2) -0.9319(18) 0.2343(15)
C18? C 0.4212(6) -1.2899(3) 0.0735(4)
C19? C 0.3794(7) -1.2671(4) -0.0074(5)
H26? H 0.3742 -1.1925 -0.0025
C20? C 0.3453(6) -1.3533(6) -0.0956(4)
H27? H 0.3167 -1.3377 -0.1509
C21? C 0.3529(5) -1.4623(5) -0.1028(3)
H28? H 0.3296 -1.5212 -0.1630
C22? C 0.3947(6) -1.4851(3) -0.0218(3)
H29? H 0.3999 -1.5596 -0.0268
C23? C 0.4289(6) -1.3989(4) 0.0663(3)
H30? H 0.4574 -1.4145 0.1216
loop_
_geom_bond_atom_site_label_1
_geom_bond_atom_site_label_2
_geom_bond_site_symmetry_1
_geom_bond_site_symmetry_2
Si1 O1 1_555 1_555
Si2 N1 1_555 1_555
O1 H1 1_555 1_555
O2 Si1 1_555 1_555
H2 O2 1_555 1_555
N1 Si1 1_555 1_555
C1 Si2 1_555 1_555
H3 C1 1_555 1_555
H4 C1 1_555 1_555
H5 C1 1_555 1_555
C2 Si2 1_555 1_555
H6 C2 1_555 1_555
H7 C2 1_555 1_555
H8 C2 1_555 1_555
C3 Si2 1_555 1_555
C4 C3 1_555 1_555
H9 C4 1_555 1_555
C5 C4 1_555 1_555
H10 C5 1_555 1_555
C6 C5 1_555 1_555
H11 C6 1_555 1_555
C7 C6 1_555 1_555
H12 C7 1_555 1_555
C8 C3 1_555 1_555
H13 C8 1_555 1_555
C9 N1 1_555 1_555
C10 C9 1_555 1_555
C11 H14 1_555 1_555
C12 C10 1_555 1_555
H15 C12 1_555 1_555
C13 C11 1_555 1_555
C14 C9 1_555 1_555
C15 C10 1_555 1_555
H16 C15 1_555 1_555
H17 C15 1_555 1_555
H18 C15 1_555 1_555
C16 C13 1_555 1_555
H19 C16 1_555 1_555
H20 C16 1_555 1_555
H21 C16 1_555 1_555
C17 C14 1_555 1_555
H22 C17 1_555 1_555
H23 C17 1_555 1_555
H24 C17 1_555 1_555
H25 Si1 1_555 1_555
Si3 O3 1_555 1_555
Si4 N2 1_555 1_555
O3 H31 1_555 1_555
O4 Si3 1_555 1_555
H32 O4 1_555 1_555
N2 Si3 1_555 1_555
C24 Si4 1_555 1_555
H33 C24 1_555 1_555
H34 C24 1_555 1_555
H35 C24 1_555 1_555
C25 Si4 1_555 1_555
H36 C25 1_555 1_555
H37 C25 1_555 1_555
H38 C25 1_555 1_555
C26 Si4 1_555 1_555
C27 C26 1_555 1_555
H39 C27 1_555 1_555
C28 C27 1_555 1_555
H40 C28 1_555 1_555
C29 C28 1_555 1_555
H41 C29 1_555 1_555
C30 C29 1_555 1_555
H42 C30 1_555 1_555
C31 C26 1_555 1_555
H43 C31 1_555 1_555
C32 N2 1_555 1_555
C33 C32 1_555 1_555
C34 C33 1_555 1_555
H44 C34 1_555 1_555
C35 C34 1_555 1_555
C36 C35 1_555 1_555
H45 C36 1_555 1_555
C37 C32 1_555 1_555
C38 C33 1_555 1_555
H46 C38 1_555 1_555
H47 C38 1_555 1_555
H48 C38 1_555 1_555
C39 C35 1_555 1_555
H49 C39 1_555 1_555
H50 C39 1_555 1_555
H51 C39 1_555 1_555
C40 C37 1_555 1_555
H52 C40 1_555 1_555
H53 C40 1_555 1_555
H54 C40 1_555 1_555
H55 Si3 1_555 1_555
C7 C8 1_555 1_555
C11 C14 1_555 1_555
C12 C13 1_555 1_555
C30 C31 1_555 1_555
C36 C37 1_555 1_555

#END
