
#######################################################################
#
#                 Cambridge Crystallographic Data Centre
#                                CCDC 
#
#######################################################################
#
# If this CIF has been generated from an entry in the Cambridge 
# Structural Database, then it will include bibliographic, chemical, 
# crystal, experimental, refinement or atomic coordinate data resulting 
# from the CCDC's data processing and validation procedures.
#
#######################################################################

data_PUWMEA
_chemical_formula_moiety         'C18 H11 Cl2 N3 O2,C1 H2 Cl2'
_chemical_name_systematic        
'(+-)-cis-3,4-Dichloro-7-(4-(dimethylamino)phenyl)-2-oxo-1-oxaspiro[4.4]nona-3,6,8-triene-6,9-dicarbonitrile dichloromethane solvate'
_symmetry_cell_setting           triclinic
_symmetry_space_group_name_H-M   'P -1'
_symmetry_Int_Tables_number      2
_space_group_name_Hall           '-P 1'
loop_
_symmetry_equiv_pos_site_id
_symmetry_equiv_pos_as_xyz
1 x,y,z
2 -x,-y,-z
_cell_length_a                   7.9835(4)
_cell_length_b                   10.2535(6)
_cell_length_c                   14.1012(9)
_cell_angle_alpha                92.915(2)
_cell_angle_beta                 105.832(3)
_cell_angle_gamma                108.796(3)
_cell_volume                     1039.03
_exptl_crystal_colour            'dark red'
_exptl_crystal_description       plate
_cell_formula_units_Z            2
loop_
_atom_site_label
_atom_site_type_symbol
_atom_site_fract_x
_atom_site_fract_y
_atom_site_fract_z
Cl1 Cl 0.01998(12) 0.81767(9) 0.61929(7)
Cl2 Cl 0.33323(15) 1.05862(13) 0.53402(7)
O1 O 0.3035(3) 1.1781(2) 0.79487(17)
O2 O 0.4871(4) 1.3096(3) 0.7151(2)
N1 N -0.0893(4) 0.5234(3) 1.1604(2)
N2 N -0.1704(5) 1.1918(4) 0.6605(3)
N3 N 0.5036(4) 0.9032(3) 0.8884(2)
C1 C -0.0568(5) 0.6146(4) 1.0958(3)
C2 C -0.1967(5) 0.6567(4) 1.0366(3)
C3 C -0.1614(4) 0.7513(4) 0.9719(3)
C4 C 0.0185(4) 0.8094(3) 0.9616(2)
C5 C 0.1575(4) 0.7651(4) 1.0199(2)
C6 C 0.1254(5) 0.6718(4) 1.0852(2)
C7 C -0.2774(7) 0.4659(5) 1.1705(4)
C8 C 0.0542(7) 0.4816(5) 1.2228(3)
C9 C 0.0505(4) 0.9038(3) 0.8914(2)
C10 C 0.2003(4) 0.9531(3) 0.8558(2)
C11 C 0.1628(4) 1.0406(3) 0.7757(2)
C12 C -0.0250(4) 1.0461(4) 0.7765(2)
C13 C -0.0878(4) 0.9648(4) 0.8402(2)
C14 C 0.1608(4) 0.9809(3) 0.6747(2)
C15 C 0.2818(4) 1.0733(4) 0.6420(2)
C16 C 0.3733(4) 1.2021(4) 0.7165(3)
C17 C 0.3667(4) 0.9225(3) 0.8765(2)
C18 C -0.1098(5) 1.1271(4) 0.7134(3)
H1 H -0.3229 0.6179 1.0414
H2 H -0.2626 0.7788 0.9323
H3 H 0.2828 0.8023 1.0136
H4 H 0.2269 0.6445 1.1246
H5 H -0.3224 0.5503 1.1881
H6 H -0.2750 0.4028 1.2295
H7 H -0.3726 0.4025 1.1012
H8 H 0.1137 0.4346 1.1766
H9 H -0.0048 0.4069 1.2667
H10 H 0.1611 0.5718 1.2718
H11 H -0.2085 0.9482 0.8513
Cl3 Cl 0.4859(2) 0.75329(15) 0.64297(10)
Cl4 Cl 0.2447(3) 0.47826(18) 0.53906(15)
C19 C 0.3545(8) 0.6495(5) 0.5267(4)
H12 H 0.2514 0.6920 0.4889
H13 H 0.4447 0.6521 0.4814
loop_
_geom_bond_atom_site_label_1
_geom_bond_atom_site_label_2
_geom_bond_site_symmetry_1
_geom_bond_site_symmetry_2
Cl1 C14 1_555 1_555
Cl2 C15 1_555 1_555
O1 C11 1_555 1_555
O2 C16 1_555 1_555
N1 C1 1_555 1_555
N2 C18 1_555 1_555
N3 C17 1_555 1_555
C1 C2 1_555 1_555
C2 C3 1_555 1_555
C3 C4 1_555 1_555
C4 C5 1_555 1_555
C5 C6 1_555 1_555
C6 C1 1_555 1_555
C7 N1 1_555 1_555
C8 N1 1_555 1_555
C9 C4 1_555 1_555
C10 C9 1_555 1_555
C11 C10 1_555 1_555
C12 C11 1_555 1_555
C13 C9 1_555 1_555
C14 C11 1_555 1_555
C15 C14 1_555 1_555
C16 O1 1_555 1_555
C17 C10 1_555 1_555
C18 C12 1_555 1_555
H1 C2 1_555 1_555
H2 C3 1_555 1_555
H3 C5 1_555 1_555
H4 C6 1_555 1_555
H5 C7 1_555 1_555
H6 C7 1_555 1_555
H7 C7 1_555 1_555
H8 C8 1_555 1_555
H9 C8 1_555 1_555
H10 C8 1_555 1_555
H11 C13 1_555 1_555
Cl3 C19 1_555 1_555
Cl4 C19 1_555 1_555
C19 H12 1_555 1_555
H13 C19 1_555 1_555
C12 C13 1_555 1_555
C15 C16 1_555 1_555

#END
