
#######################################################################
#
#                 Cambridge Crystallographic Data Centre
#                                CCDC 
#
#######################################################################
#
# If this CIF has been generated from an entry in the Cambridge 
# Structural Database, then it will include bibliographic, chemical, 
# crystal, experimental, refinement or atomic coordinate data resulting 
# from the CCDC's data processing and validation procedures.
#
#######################################################################

data_PUWNOL
_chemical_formula_moiety         'C40 H48 O2 Si2'
_chemical_name_systematic        
((6,13-Dimethoxy-13-((tri-isopropylsilyl)ethynyl)-6,13-dihydropentacen-6-yl)ethynyl)(trimethyl)silane
_symmetry_cell_setting           triclinic
_symmetry_space_group_name_H-M   'P -1'
_symmetry_Int_Tables_number      2
_space_group_name_Hall           '-P 1'
loop_
_symmetry_equiv_pos_site_id
_symmetry_equiv_pos_as_xyz
1 x,y,z
2 -x,-y,-z
_cell_length_a                   11.1579(5)
_cell_length_b                   13.4855(6)
_cell_length_c                   14.8300(7)
_cell_angle_alpha                113.4660(6)
_cell_angle_beta                 110.9717(6)
_cell_angle_gamma                96.7199(6)
_cell_volume                     1821.47
_exptl_crystal_colour            colorless
_exptl_crystal_description       prism
_chemical_melting_point          '176-178 deg.C'
_cell_formula_units_Z            2
_exptl_crystal_recrystallization_method dichloromethane/methanol
loop_
_atom_site_label
_atom_site_type_symbol
_atom_site_fract_x
_atom_site_fract_y
_atom_site_fract_z
Si1 Si 0.26848(12) 0.56863(11) 0.31555(10)
Si2 Si -0.40937(5) -0.03286(5) 0.20344(4)
O1 O -0.03917(11) 0.25486(10) 0.30123(9)
O2 O 0.07839(13) -0.01859(9) 0.40192(10)
C1 C 0.10477(16) 0.27303(13) 0.35287(13)
C2 C 0.14513(16) 0.28421(13) 0.46714(13)
C3 C 0.20534(17) 0.38709(14) 0.56020(14)
H1 H 0.2313 0.4533 0.5547
C4 C 0.22992(18) 0.39711(15) 0.66459(14)
C5 C 0.2931(2) 0.50217(15) 0.76252(15)
H2 H 0.3208 0.5697 0.7595
C6 C 0.3146(2) 0.50731(17) 0.86130(16)
H3 H 0.3565 0.5784 0.9263
C7 C 0.2753(2) 0.40856(18) 0.86721(16)
H4 H 0.2917 0.4131 0.9364
C8 C 0.2136(2) 0.30575(17) 0.77482(15)
H5 H 0.1870 0.2395 0.7800
C9 C 0.18922(19) 0.29755(15) 0.67106(14)
C10 C 0.12665(18) 0.19208(14) 0.57386(14)
H6 H 0.0982 0.1253 0.5777
C11 C 0.10633(17) 0.18446(13) 0.47432(13)
C12 C 0.04472(17) 0.06747(13) 0.37259(13)
C13 C 0.08805(16) 0.06543(14) 0.28514(13)
C14 C 0.09116(17) -0.03485(14) 0.21172(13)
H7 H 0.0687 -0.1016 0.2174
C15 C 0.12705(17) -0.04114(15) 0.12770(14)
C16 C 0.1280(2) -0.14440(16) 0.04946(15)
H8 H 0.1090 -0.2116 0.0551
C17 C 0.1560(2) -0.14795(18) -0.03390(15)
H9 H 0.1563 -0.2177 -0.0858
C18 C 0.18444(19) -0.04929(18) -0.04372(15)
H10 H 0.2013 -0.0533 -0.1033
C19 C 0.18787(18) 0.05154(17) 0.03141(15)
H11 H 0.2095 0.1179 0.0250
C20 C 0.15947(16) 0.05895(15) 0.11979(14)
C21 C 0.15638(16) 0.16091(14) 0.19631(13)
H12 H 0.1787 0.2283 0.1916
C22 C 0.12184(16) 0.16569(14) 0.27783(13)
C23 C 0.17600(18) 0.37433(14) 0.35504(14)
C24 C 0.22451(19) 0.45360(15) 0.34797(15)
C25 C 0.3826(8) 0.5294(4) 0.2472(5)
H13 H 0.4727 0.5480 0.3081
C26 C 0.3481(5) 0.4064(3) 0.1682(4)
H14 H 0.3354 0.3602 0.2030
H15 H 0.4215 0.3941 0.1478
H16 H 0.2649 0.3845 0.1024
C27 C 0.4050(4) 0.6048(3) 0.1962(3)
H17 H 0.4248 0.6843 0.2485
H18 H 0.3235 0.5830 0.1291
H19 H 0.4809 0.5952 0.1785
C28 C 0.0998(5) 0.5739(4) 0.2257(3)
H20 H 0.0443 0.5824 0.2669
C29 C 0.0214(4) 0.4628(3) 0.1166(3)
H21 H 0.0146 0.3984 0.1316
H22 H 0.0690 0.4542 0.0710
H23 H -0.0691 0.4653 0.0778
C30 C 0.1096(4) 0.6738(3) 0.2026(3)
H24 H 0.1582 0.7445 0.2720
H25 H 0.0188 0.6755 0.1631
H26 H 0.1580 0.6659 0.1577
C31 C 0.3516(3) 0.7048(2) 0.4480(3)
H27 H 0.3703 0.7678 0.4309
C32 C 0.4812(5) 0.7069(4) 0.5259(3)
H28 H 0.5425 0.6950 0.4918
H29 H 0.4653 0.6466 0.5451
H30 H 0.5214 0.7806 0.5925
C33 C 0.2537(4) 0.7256(3) 0.4998(3)
H31 H 0.1686 0.7234 0.4468
H32 H 0.2933 0.8001 0.5654
H33 H 0.2367 0.6666 0.5203
C34 C -0.10401(18) 0.03449(13) 0.32405(13)
C35 C -0.22517(19) 0.00644(15) 0.28136(15)
C36 C -0.4636(3) -0.1671(2) 0.0747(2)
H34 H -0.4178 -0.1558 0.0325
H35 H -0.5612 -0.1894 0.0310
H36 H -0.4402 -0.2270 0.0926
C37 C -0.4463(2) 0.0838(2) 0.1731(2)
H37 H -0.4010 0.0934 0.1301
H38 H -0.4136 0.1543 0.2421
H39 H -0.5437 0.0655 0.1312
C38 C -0.4947(2) -0.0534(2) 0.2844(2)
H40 H -0.4754 -0.1161 0.2988
H41 H -0.5922 -0.0713 0.2429
H42 H -0.4617 0.0162 0.3542
C39 C -0.0838(2) 0.34636(17) 0.35296(18)
H43 H -0.1817 0.3267 0.3121
H44 H -0.0399 0.4145 0.3541
H45 H -0.0607 0.3610 0.4283
C40 C 0.2186(2) -0.00698(17) 0.45057(16)
H46 H 0.2308 -0.0703 0.4660
H47 H 0.2651 0.0647 0.5192
H48 H 0.2561 -0.0074 0.4000
C41? C 0.397(2) 0.5364(14) 0.2566(14)
C42? C 0.3193(17) 0.4254(11) 0.1521(14)
C43? C 0.4399(17) 0.6316(12) 0.2338(13)
C44? C 0.1927(8) 0.6469(7) 0.3124(6)
C45? C 0.1328(10) 0.6877(9) 0.3929(8)
C46? C 0.0835(16) 0.5687(15) 0.1970(8)
C47? C 0.4734(10) 0.6615(7) 0.4828(6)
C48? C 0.4669(11) 0.6550(9) 0.5796(8)
C49? C 0.5226(11) 0.7821(8) 0.5031(9)
H49? H 0.4825 0.5247 0.2971
H50? H 0.3001 0.3648 0.1701
H51? H 0.3731 0.4079 0.1113
H52? H 0.2345 0.4316 0.1070
H53? H 0.4991 0.6998 0.3033
H54? H 0.3602 0.6480 0.1942
H55? H 0.4884 0.6085 0.1891
H56? H 0.2386 0.7150 0.3122
H57? H 0.2041 0.7438 0.4654
H58? H 0.0910 0.6232 0.3978
H59? H 0.0645 0.7225 0.3674
H60? H 0.1239 0.5485 0.1459
H61? H 0.0176 0.6073 0.1765
H62? H 0.0385 0.4998 0.1939
H63? H 0.5450 0.6269 0.4725
H64? H 0.4439 0.5755 0.5635
H65? H 0.3980 0.6878 0.5947
H66? H 0.5547 0.6975 0.6438
H67? H 0.5349 0.7799 0.4402
H68? H 0.6086 0.8227 0.5695
H69? H 0.4560 0.8213 0.5128
Si3? Si 0.3201(3) 0.5754(3) 0.3500(3)
loop_
_geom_bond_atom_site_label_1
_geom_bond_atom_site_label_2
_geom_bond_site_symmetry_1
_geom_bond_site_symmetry_2
Si1 C24 1_555 1_555
Si2 C35 1_555 1_555
O1 C1 1_555 1_555
O2 C12 1_555 1_555
C1 C2 1_555 1_555
C2 C3 1_555 1_555
C3 H1 1_555 1_555
C4 C3 1_555 1_555
C5 C4 1_555 1_555
H2 C5 1_555 1_555
C6 C5 1_555 1_555
H3 C6 1_555 1_555
C7 C6 1_555 1_555
H4 C7 1_555 1_555
C8 C7 1_555 1_555
H5 C8 1_555 1_555
C9 C4 1_555 1_555
C10 C9 1_555 1_555
H6 C10 1_555 1_555
C11 C2 1_555 1_555
C12 C11 1_555 1_555
C13 C12 1_555 1_555
C14 C13 1_555 1_555
H7 C14 1_555 1_555
C15 C14 1_555 1_555
C16 C15 1_555 1_555
H8 C16 1_555 1_555
C17 C16 1_555 1_555
H9 C17 1_555 1_555
C18 C17 1_555 1_555
H10 C18 1_555 1_555
C19 C18 1_555 1_555
H11 C19 1_555 1_555
C20 C15 1_555 1_555
C21 C20 1_555 1_555
H12 C21 1_555 1_555
C22 C1 1_555 1_555
C23 C1 1_555 1_555
C24 C23 1_555 1_555
C25 Si1 1_555 1_555
H13 C25 1_555 1_555
C26 C25 1_555 1_555
H14 C26 1_555 1_555
H15 C26 1_555 1_555
H16 C26 1_555 1_555
C27 C25 1_555 1_555
H17 C27 1_555 1_555
H18 C27 1_555 1_555
H19 C27 1_555 1_555
C28 Si1 1_555 1_555
H20 C28 1_555 1_555
C29 C28 1_555 1_555
H21 C29 1_555 1_555
H22 C29 1_555 1_555
H23 C29 1_555 1_555
C30 C28 1_555 1_555
H24 C30 1_555 1_555
H25 C30 1_555 1_555
H26 C30 1_555 1_555
C31 Si1 1_555 1_555
H27 C31 1_555 1_555
C32 C31 1_555 1_555
H28 C32 1_555 1_555
H29 C32 1_555 1_555
H30 C32 1_555 1_555
C33 C31 1_555 1_555
H31 C33 1_555 1_555
H32 C33 1_555 1_555
H33 C33 1_555 1_555
C34 C12 1_555 1_555
C35 C34 1_555 1_555
C36 Si2 1_555 1_555
H34 C36 1_555 1_555
H35 C36 1_555 1_555
H36 C36 1_555 1_555
C37 Si2 1_555 1_555
H37 C37 1_555 1_555
H38 C37 1_555 1_555
H39 C37 1_555 1_555
C38 Si2 1_555 1_555
H40 C38 1_555 1_555
H41 C38 1_555 1_555
H42 C38 1_555 1_555
C39 O1 1_555 1_555
H43 C39 1_555 1_555
H44 C39 1_555 1_555
H45 C39 1_555 1_555
C40 O2 1_555 1_555
H46 C40 1_555 1_555
H47 C40 1_555 1_555
H48 C40 1_555 1_555
C8 C9 1_555 1_555
C10 C11 1_555 1_555
C13 C22 1_555 1_555
C19 C20 1_555 1_555
C21 C22 1_555 1_555

#END
