
#######################################################################
#
#                 Cambridge Crystallographic Data Centre
#                                CCDC 
#
#######################################################################
#
# If this CIF has been generated from an entry in the Cambridge 
# Structural Database, then it will include bibliographic, chemical, 
# crystal, experimental, refinement or atomic coordinate data resulting 
# from the CCDC's data processing and validation procedures.
#
#######################################################################

data_PUWPON
_chemical_formula_moiety         'C28 H18 Br2 O2'
_chemical_name_systematic        
6,13-bis(Bromoethynyl)-6,13-dimethoxy-6,13-dihydropentacene
_symmetry_cell_setting           triclinic
_symmetry_space_group_name_H-M   'P -1'
_symmetry_Int_Tables_number      2
_space_group_name_Hall           '-P 1'
loop_
_symmetry_equiv_pos_site_id
_symmetry_equiv_pos_as_xyz
1 x,y,z
2 -x,-y,-z
_cell_length_a                   6.7326(3)
_cell_length_b                   8.1605(3)
_cell_length_c                   10.5872(4)
_cell_angle_alpha                81.0901(4)
_cell_angle_beta                 76.5743(4)
_cell_angle_gamma                80.5215(4)
_cell_volume                     553.915
_exptl_crystal_colour            colorless
_exptl_crystal_description       prism
_cell_formula_units_Z            1
_exptl_crystal_recrystallization_method chloroform
loop_
_atom_site_label
_atom_site_type_symbol
_atom_site_fract_x
_atom_site_fract_y
_atom_site_fract_z
Br1 Br 0.44630(2) 0.472178(18) -0.302251(14)
O1 O -0.22508(15) 0.30742(12) -0.03939(10)
C1 C -0.0438(2) 0.18448(15) -0.05461(13)
C2 C 0.0235(2) 0.12889(16) 0.07534(12)
C3 C 0.0423(2) 0.25228(17) 0.14568(13)
H1 H 0.0077 0.3663 0.1137
C4 C 0.1119(2) 0.21277(17) 0.26413(13)
C5 C 0.1228(2) 0.33848(19) 0.34101(14)
H2 H 0.0836 0.4530 0.3124
C6 C 0.1893(2) 0.2950(2) 0.45572(14)
H3 H 0.1930 0.3796 0.5072
C7 C 0.2525(2) 0.1258(2) 0.49864(14)
H4 H 0.3007 0.0977 0.5778
C8 C 0.2446(2) 0.00214(19) 0.42665(14)
H5 H 0.2885 -0.1112 0.4559
C9 C 0.1713(2) 0.04220(17) 0.30853(13)
C10 C 0.1488(2) -0.08185(17) 0.23545(13)
H6 H 0.1862 -0.1963 0.2649
C11 C 0.0739(2) -0.04090(16) 0.12248(12)
C12 C 0.1186(2) 0.27527(16) -0.14214(13)
C13 C 0.2522(2) 0.34858(17) -0.20793(14)
C14 C -0.4050(2) 0.2443(2) 0.04040(16)
H7 H -0.5217 0.3341 0.0461
H8 H -0.3807 0.2031 0.1283
H9 H -0.4358 0.1525 0.0015
Br1A Br -0.44630(2) -0.472178(18) 0.302251(14)
O1A O 0.22508(15) -0.30742(12) 0.03939(10)
C1A C 0.0438(2) -0.18448(15) 0.05461(13)
C2A C -0.0235(2) -0.12889(16) -0.07534(12)
C3A C -0.0423(2) -0.25228(17) -0.14568(13)
H1A H -0.0077 -0.3663 -0.1137
C4A C -0.1119(2) -0.21277(17) -0.26413(13)
C5A C -0.1228(2) -0.33848(19) -0.34101(14)
H2A H -0.0836 -0.4530 -0.3124
C6A C -0.1893(2) -0.2950(2) -0.45572(14)
H3A H -0.1930 -0.3796 -0.5072
C7A C -0.2525(2) -0.1258(2) -0.49864(14)
H4A H -0.3007 -0.0977 -0.5778
C8A C -0.2446(2) -0.00214(19) -0.42665(14)
H5A H -0.2885 0.1112 -0.4559
C9A C -0.1713(2) -0.04220(17) -0.30853(13)
C10A C -0.1488(2) 0.08185(17) -0.23545(13)
H6A H -0.1862 0.1963 -0.2649
C11A C -0.0739(2) 0.04090(16) -0.12248(12)
C12A C -0.1186(2) -0.27527(16) 0.14214(13)
C13A C -0.2522(2) -0.34858(17) 0.20793(14)
C14A C 0.4050(2) -0.2443(2) -0.04040(16)
H7A H 0.5217 -0.3341 -0.0461
H8A H 0.3807 -0.2031 -0.1283
H9A H 0.4358 -0.1525 -0.0015
loop_
_geom_bond_atom_site_label_1
_geom_bond_atom_site_label_2
_geom_bond_site_symmetry_1
_geom_bond_site_symmetry_2
Br1 C13 1_555 1_555
O1 C1 1_555 1_555
C1 C2 1_555 1_555
C2 C3 1_555 1_555
C3 H1 1_555 1_555
C4 C3 1_555 1_555
C5 C4 1_555 1_555
H2 C5 1_555 1_555
C6 C5 1_555 1_555
H3 C6 1_555 1_555
C7 C6 1_555 1_555
H4 C7 1_555 1_555
C8 C7 1_555 1_555
H5 C8 1_555 1_555
C9 C4 1_555 1_555
C10 C9 1_555 1_555
H6 C10 1_555 1_555
C11 C2 1_555 1_555
C12 C1 1_555 1_555
C13 C12 1_555 1_555
C14 O1 1_555 1_555
H7 C14 1_555 1_555
H8 C14 1_555 1_555
H9 C14 1_555 1_555
Br1A C13A 1_555 1_555
O1A C1A 1_555 1_555
C1A C11 1_555 1_555
C2A C1A 1_555 1_555
C3A C2A 1_555 1_555
H1A C3A 1_555 1_555
C4A C3A 1_555 1_555
C5A C4A 1_555 1_555
H2A C5A 1_555 1_555
C6A C5A 1_555 1_555
H3A C6A 1_555 1_555
C7A C6A 1_555 1_555
H4A C7A 1_555 1_555
C8A C7A 1_555 1_555
H5A C8A 1_555 1_555
C9A C4A 1_555 1_555
C10A C9A 1_555 1_555
H6A C10A 1_555 1_555
C11A C1 1_555 1_555
C12A C1A 1_555 1_555
C13A C12A 1_555 1_555
C14A O1A 1_555 1_555
H7A C14A 1_555 1_555
H8A C14A 1_555 1_555
H9A C14A 1_555 1_555
C8 C9 1_555 1_555
C10 C11 1_555 1_555
C2A C11A 1_555 1_555
C8A C9A 1_555 1_555
C10A C11A 1_555 1_555

#END
