
#######################################################################
#
#                 Cambridge Crystallographic Data Centre
#                                CCDC 
#
#######################################################################
#
# If this CIF has been generated from an entry in the Cambridge 
# Structural Database, then it will include bibliographic, chemical, 
# crystal, experimental, refinement or atomic coordinate data resulting 
# from the CCDC's data processing and validation procedures.
#
#######################################################################

data_PUWPIH
_chemical_formula_moiety         'C34 H34 O2 Si1'
_chemical_name_systematic        
t-Butyl((13-ethynyl-6,13-dimethoxy-6,13-dihydropentacen-6-yl)ethynyl)dimethylsilane
_symmetry_cell_setting           monoclinic
_symmetry_space_group_name_H-M   'P 21/n'
_symmetry_Int_Tables_number      14
_space_group_name_Hall           '-P 2yn'
loop_
_symmetry_equiv_pos_site_id
_symmetry_equiv_pos_as_xyz
1 x,y,z
2 1/2-x,1/2+y,1/2-z
3 -x,-y,-z
4 1/2+x,1/2-y,1/2+z
_cell_length_a                   11.4401(3)
_cell_length_b                   13.6643(4)
_cell_length_c                   18.5691(6)
_cell_angle_alpha                90
_cell_angle_beta                 106.9346(3)
_cell_angle_gamma                90
_cell_volume                     2776.87
_exptl_crystal_colour            colorless
_chemical_melting_point          '164-166 deg.C'
_cell_formula_units_Z            4
_exptl_crystal_recrystallization_method dichloromethane
loop_
_atom_site_label
_atom_site_type_symbol
_atom_site_fract_x
_atom_site_fract_y
_atom_site_fract_z
Si1 Si -0.04729(3) 0.42279(2) 0.316040(16)
O1 O -0.02105(7) 0.18127(6) 0.10938(5)
O2 O 0.10519(8) 0.29872(7) -0.09874(5)
C1 C -0.00321(10) 0.28628(8) 0.10351(6)
C2 C -0.08902(10) 0.32317(8) 0.02938(6)
C3 C -0.20021(10) 0.36433(8) 0.02603(6)
H1 H -0.2197 0.3770 0.0715
C4 C -0.28645(11) 0.38835(8) -0.04355(7)
C5 C -0.40322(12) 0.42750(9) -0.04780(8)
H2 H -0.4242 0.4408 -0.0029
C6 C -0.48584(12) 0.44620(10) -0.11627(8)
H3 H -0.5638 0.4723 -0.1186
C7 C -0.45588(12) 0.42701(10) -0.18346(8)
H4 H -0.5141 0.4399 -0.2306
C8 C -0.34414(12) 0.39009(10) -0.18136(7)
H5 H -0.3251 0.3776 -0.2270
C9 C -0.25586(11) 0.37012(8) -0.11120(6)
C10 C -0.13989(11) 0.33016(8) -0.10647(6)
H6 H -0.1181 0.3192 -0.1514
C11 C -0.05790(10) 0.30680(8) -0.03845(6)
C12 C 0.06519(10) 0.26210(8) -0.03739(6)
C13 C 0.16299(10) 0.27898(8) 0.03759(6)
C14 C 0.28370(10) 0.27795(9) 0.03933(6)
H7 H 0.3044 0.2659 -0.0058
C15 C 0.37800(10) 0.29448(8) 0.10688(6)
C16 C 0.50370(11) 0.29124(9) 0.11035(7)
H8 H 0.5267 0.2787 0.0660
C17 C 0.59210(11) 0.30619(10) 0.17758(8)
H9 H 0.6759 0.3033 0.1795
C18 C 0.55937(12) 0.32575(10) 0.24365(7)
H10 H 0.6213 0.3360 0.2898
C19 C 0.43899(11) 0.33006(10) 0.24176(7)
H11 H 0.4179 0.3441 0.2865
C20 C 0.34549(10) 0.31378(8) 0.17353(6)
C21 C 0.22044(10) 0.31325(9) 0.17066(6)
H12 H 0.1984 0.3256 0.2153
C22 C 0.13025(10) 0.29529(8) 0.10470(6)
C23 C -0.02457(10) 0.33570(8) 0.16953(6)
C24 C -0.03926(10) 0.37073(9) 0.22566(6)
C25 C -0.09167(13) 0.32295(11) 0.37131(8)
H13 H -0.0300 0.2710 0.3809
H14 H -0.1711 0.2962 0.3427
H15 H -0.0972 0.3492 0.4193
C26 C -0.16470(13) 0.52144(11) 0.29625(8)
H16 H -0.2449 0.4935 0.2704
H17 H -0.1437 0.5714 0.2642
H18 H -0.1673 0.5513 0.3437
C27 C 0.10951(11) 0.47191(9) 0.36614(7)
C28 C 0.20071(12) 0.38677(12) 0.38636(8)
H19 H 0.2019 0.3522 0.3403
H20 H 0.1760 0.3415 0.4202
H21 H 0.2825 0.4123 0.4115
C29 C 0.10707(13) 0.52321(11) 0.43963(8)
H22 H 0.0798 0.4768 0.4716
H23 H 0.0506 0.5788 0.4277
H24 H 0.1893 0.5466 0.4663
C30 C 0.15046(15) 0.54497(12) 0.31583(9)
H25 H 0.1503 0.5129 0.2686
H26 H 0.2331 0.5681 0.3417
H27 H 0.0942 0.6007 0.3049
C31 C 0.04878(10) 0.15564(9) -0.05163(6)
C32 C 0.03157(12) 0.07071(10) -0.06256(8)
H28 H 0.0178 0.0026 -0.0713
C33 C -0.13873(11) 0.15443(9) 0.11485(8)
H29 H -0.1440 0.0830 0.1176
H30 H -0.2018 0.1783 0.0704
H31 H -0.1512 0.1836 0.1603
C34 C 0.12622(14) 0.40210(11) -0.09693(8)
H32 H 0.1528 0.4212 -0.1406
H33 H 0.1898 0.4193 -0.0506
H34 H 0.0505 0.4366 -0.0984
loop_
_geom_bond_atom_site_label_1
_geom_bond_atom_site_label_2
_geom_bond_site_symmetry_1
_geom_bond_site_symmetry_2
Si1 C24 1_555 1_555
O1 C1 1_555 1_555
O2 C12 1_555 1_555
C1 C2 1_555 1_555
C2 C3 1_555 1_555
C3 H1 1_555 1_555
C4 C3 1_555 1_555
C5 C4 1_555 1_555
H2 C5 1_555 1_555
C6 C5 1_555 1_555
H3 C6 1_555 1_555
C7 C6 1_555 1_555
H4 C7 1_555 1_555
C8 C7 1_555 1_555
H5 C8 1_555 1_555
C9 C4 1_555 1_555
C10 C9 1_555 1_555
H6 C10 1_555 1_555
C11 C2 1_555 1_555
C12 C11 1_555 1_555
C13 C12 1_555 1_555
C14 C13 1_555 1_555
H7 C14 1_555 1_555
C15 C14 1_555 1_555
C16 C15 1_555 1_555
H8 C16 1_555 1_555
C17 C16 1_555 1_555
H9 C17 1_555 1_555
C18 C17 1_555 1_555
H10 C18 1_555 1_555
C19 C18 1_555 1_555
H11 C19 1_555 1_555
C20 C15 1_555 1_555
C21 C20 1_555 1_555
H12 C21 1_555 1_555
C22 C1 1_555 1_555
C23 C1 1_555 1_555
C24 C23 1_555 1_555
C25 Si1 1_555 1_555
H13 C25 1_555 1_555
H14 C25 1_555 1_555
H15 C25 1_555 1_555
C26 Si1 1_555 1_555
H16 C26 1_555 1_555
H17 C26 1_555 1_555
H18 C26 1_555 1_555
C27 Si1 1_555 1_555
C28 C27 1_555 1_555
H19 C28 1_555 1_555
H20 C28 1_555 1_555
H21 C28 1_555 1_555
C29 C27 1_555 1_555
H22 C29 1_555 1_555
H23 C29 1_555 1_555
H24 C29 1_555 1_555
C30 C27 1_555 1_555
H25 C30 1_555 1_555
H26 C30 1_555 1_555
H27 C30 1_555 1_555
C31 C12 1_555 1_555
C32 C31 1_555 1_555
H28 C32 1_555 1_555
C33 O1 1_555 1_555
H29 C33 1_555 1_555
H30 C33 1_555 1_555
H31 C33 1_555 1_555
C34 O2 1_555 1_555
H32 C34 1_555 1_555
H33 C34 1_555 1_555
H34 C34 1_555 1_555
C8 C9 1_555 1_555
C10 C11 1_555 1_555
C13 C22 1_555 1_555
C19 C20 1_555 1_555
C21 C22 1_555 1_555

#END
