
#######################################################################
#
#                 Cambridge Crystallographic Data Centre
#                                CCDC 
#
#######################################################################
#
# If this CIF has been generated from an entry in the Cambridge 
# Structural Database, then it will include bibliographic, chemical, 
# crystal, experimental, refinement or atomic coordinate data resulting 
# from the CCDC's data processing and validation procedures.
#
#######################################################################

data_PUXGIA
_chemical_formula_moiety         'C20 H34 O3'
_chemical_name_systematic        
1-(3-(hydroxymethyl)-2-methyloxiran-2-yl)-2-(2,5,5,8a-tetramethyl-1,4,4a,5,6,7,8,8a-octahydronaphthalen-1-yl)ethanol
_chemical_properties_biological  'phytotoxic activity'
_symmetry_cell_setting           triclinic
_symmetry_space_group_name_H-M   'P 1'
_symmetry_Int_Tables_number      1
_space_group_name_Hall           'P 1'
loop_
_symmetry_equiv_pos_site_id
_symmetry_equiv_pos_as_xyz
1 x,y,z
_cell_length_a                   7.656(4)
_cell_length_b                   8.170(5)
_cell_length_c                   17.060(10)
_cell_angle_alpha                90.276(9)
_cell_angle_beta                 97.280(9)
_cell_angle_gamma                115.602(8)
_cell_volume                     952.448
_exptl_crystal_colour            colorless
_exptl_crystal_description       sheet
_cell_formula_units_Z            2
loop_
_atom_site_label
_atom_site_type_symbol
_atom_site_fract_x
_atom_site_fract_y
_atom_site_fract_z
O1 O 1.2547(5) 0.2646(5) 0.6286(2)
H1 H 1.3510 0.3578 0.6181
O2 O 0.8974(5) 0.3515(5) 0.6522(2)
O3 O 0.5973(5) 0.4949(5) 0.5811(2)
H2 H 0.5491 0.4001 0.6055
C1 C 1.0831(8) 0.2357(7) 0.5727(3)
H3 H 0.9775 0.1133 0.5777
H4 H 1.1153 0.2413 0.5181
C2 C 1.0144(7) 0.3754(7) 0.5876(3)
H5 H 1.1105 0.5036 0.5820
C3 C 0.8034(7) 0.3400(7) 0.5717(3)
C4 C 0.7681(7) 0.5036(7) 0.5499(3)
H6 H 0.8844 0.6159 0.5739
C5 C 0.7406(7) 0.5162(7) 0.4602(3)
H7 H 0.6222 0.4077 0.4364
H8 H 0.8541 0.5137 0.4390
C6 C 0.7198(7) 0.6892(7) 0.4339(3)
H9 H 0.6644 0.7275 0.4767
C7 C 0.5712(7) 0.6497(7) 0.3562(3)
C8 C 0.5677(7) 0.8317(7) 0.3353(3)
H10 H 0.5494 0.8828 0.3853
C9 C 0.3966(7) 0.8233(7) 0.2719(3)
C10 C 0.4145(8) 0.7859(8) 0.1862(3)
H11 H 0.5482 0.8621 0.1760
H12 H 0.3221 0.8142 0.1504
H13 H 0.3847 0.6574 0.1771
C11 C 0.6343(8) 0.5652(8) 0.2906(3)
H14 H 0.7635 0.6520 0.2794
H15 H 0.5390 0.5364 0.2424
H16 H 0.6404 0.4536 0.3082
C12 C 0.3652(7) 0.5140(7) 0.3729(3)
H17 H 0.3632 0.3929 0.3795
H18 H 0.3405 0.5546 0.4234
C13 C 0.2005(8) 0.4959(8) 0.3076(4)
H19 H 0.2170 0.4441 0.2581
H20 H 0.0732 0.4113 0.3229
C14 C 0.2002(8) 0.6793(8) 0.2933(4)
H21 H 0.1712 0.7249 0.3415
H22 H 0.0945 0.6630 0.2497
C15 C 0.7695(7) 0.9717(7) 0.3158(4)
H23 H 0.7861 0.9419 0.2618
H24 H 0.7749 1.0950 0.3172
C16 C 0.9327(8) 0.9696(8) 0.3747(3)
H25 H 1.0592 1.0661 0.3741
C17 C 0.9181(7) 0.8488(7) 0.4265(3)
C18 C 0.3886(9) 1.0107(7) 0.2767(4)
H26 H 0.2786 1.0064 0.2391
H27 H 0.5110 1.1063 0.2636
H28 H 0.3712 1.0372 0.3305
C19 C 0.6454(8) 0.1563(7) 0.5429(3)
H29 H 0.5225 0.1419 0.5601
H30 H 0.6812 0.0625 0.5647
H31 H 0.6288 0.1441 0.4849
C20 C 1.0950(7) 0.8700(8) 0.4839(3)
H32 H 1.2106 0.9754 0.4715
H33 H 1.1156 0.7601 0.4793
H34 H 1.0736 0.8880 0.5380
O4 O -0.6729(6) -0.2317(6) 0.6678(3)
H35 H -0.7250 -0.1713 0.6866
O5 O -0.2429(5) -0.1605(5) 0.6579(2)
O6 O 0.1833(5) -0.0076(5) 0.7249(2)
H36 H 0.2139 0.0622 0.6879
C21 C -0.5386(8) -0.2518(8) 0.7284(4)
H37 H -0.5501 -0.3770 0.7241
H38 H -0.5699 -0.2310 0.7810
C22 C -0.3323(7) -0.1167(7) 0.7203(3)
H39 H -0.3061 0.0140 0.7264
C23 C -0.1603(7) -0.1521(7) 0.7403(3)
C24 C 0.0366(7) 0.0162(7) 0.7617(3)
H40 H 0.0237 0.1259 0.7417
C25 C 0.0980(8) 0.0442(7) 0.8520(3)
H41 H 0.1102 -0.0650 0.8713
H42 H -0.0069 0.0549 0.8769
C26 C 0.2928(7) 0.2135(7) 0.8795(3)
H43 H 0.3721 0.2374 0.8350
C27 C 0.4140(8) 0.1776(7) 0.9523(3)
C28 C 0.5941(7) 0.3622(7) 0.9808(3)
H44 H 0.6507 0.4122 0.9317
C29 C 0.7669(8) 0.3532(8) 1.0377(3)
C30 C 0.7347(9) 0.3206(9) 1.1242(3)
H45 H 0.7003 0.4129 1.1453
H46 H 0.8550 0.3286 1.1555
H47 H 0.6282 0.1994 1.1272
C31 C -0.1742(8) -0.3314(7) 0.7699(3)
H48 H -0.0655 -0.3523 0.7551
H49 H -0.2986 -0.4305 0.7461
H50 H -0.1673 -0.3274 0.8277
C32 C 0.4882(8) 0.0422(8) 0.9236(3)
H51 H 0.3756 -0.0787 0.9110
H52 H 0.5453 0.0834 0.8743
C33 C 0.6417(8) 0.0236(8) 0.9848(3)
H53 H 0.5843 -0.0221 1.0337
H54 H 0.6825 -0.0655 0.9637
C34 C 0.8172(8) 0.2044(8) 1.0041(4)
H55 H 0.8776 0.2458 0.9555
H56 H 0.9149 0.1888 1.0434
C35 C 0.5286(8) 0.4978(8) 1.0108(3)
H57 H 0.4797 0.4612 1.0620
H58 H 0.6418 0.6191 1.0202
C36 C 0.3701(8) 0.5098(8) 0.9531(3)
H59 H 0.3444 0.6127 0.9589
C37 C 0.2635(7) 0.3854(7) 0.8944(3)
C38 C 0.1183(8) 0.4182(8) 0.8350(3)
H60 H 0.1517 0.4152 0.7816
H61 H 0.1237 0.5375 0.8480
H62 H -0.0140 0.3232 0.8372
C39 C 0.9492(8) 0.5367(8) 1.0383(4)
H63 H 1.0657 0.5244 1.0625
H64 H 0.9337 0.6302 1.0689
H65 H 0.9640 0.5718 0.9838
C40 C 0.2854(8) 0.0987(8) 1.0176(3)
H66 H 0.2371 0.1849 1.0340
H67 H 0.3630 0.0774 1.0632
H68 H 0.1743 -0.0166 0.9973
loop_
_geom_bond_atom_site_label_1
_geom_bond_atom_site_label_2
_geom_bond_site_symmetry_1
_geom_bond_site_symmetry_2
O1 H1 1_555 1_555
O2 C2 1_555 1_555
O3 H2 1_555 1_555
C1 O1 1_555 1_555
H3 C1 1_555 1_555
H4 C1 1_555 1_555
C2 C1 1_555 1_555
H5 C2 1_555 1_555
C3 O2 1_555 1_555
C4 O3 1_555 1_555
H6 C4 1_555 1_555
C5 C4 1_555 1_555
H7 C5 1_555 1_555
H8 C5 1_555 1_555
C6 C5 1_555 1_555
H9 C6 1_555 1_555
C7 C6 1_555 1_555
C8 C7 1_555 1_555
H10 C8 1_555 1_555
C9 C8 1_555 1_555
C10 C9 1_555 1_555
H11 C10 1_555 1_555
H12 C10 1_555 1_555
H13 C10 1_555 1_555
C11 C7 1_555 1_555
H14 C11 1_555 1_555
H15 C11 1_555 1_555
H16 C11 1_555 1_555
C12 C7 1_555 1_555
H17 C12 1_555 1_555
H18 C12 1_555 1_555
C13 C12 1_555 1_555
H19 C13 1_555 1_555
H20 C13 1_555 1_555
C14 C9 1_555 1_555
H21 C14 1_555 1_555
H22 C14 1_555 1_555
C15 C8 1_555 1_555
H23 C15 1_555 1_555
H24 C15 1_555 1_555
C16 C15 1_555 1_555
H25 C16 1_555 1_555
C17 C6 1_555 1_555
C18 C9 1_555 1_555
H26 C18 1_555 1_555
H27 C18 1_555 1_555
H28 C18 1_555 1_555
C19 C3 1_555 1_555
H29 C19 1_555 1_555
H30 C19 1_555 1_555
H31 C19 1_555 1_555
C20 C17 1_555 1_555
H32 C20 1_555 1_555
H33 C20 1_555 1_555
H34 C20 1_555 1_555
O4 H35 1_555 1_555
O5 C22 1_555 1_555
O6 H36 1_555 1_555
C21 O4 1_555 1_555
H37 C21 1_555 1_555
H38 C21 1_555 1_555
C22 C21 1_555 1_555
H39 C22 1_555 1_555
C23 O5 1_555 1_555
C24 O6 1_555 1_555
H40 C24 1_555 1_555
C25 C24 1_555 1_555
H41 C25 1_555 1_555
H42 C25 1_555 1_555
C26 C25 1_555 1_555
H43 C26 1_555 1_555
C27 C26 1_555 1_555
C28 C27 1_555 1_555
H44 C28 1_555 1_555
C29 C28 1_555 1_555
C30 C29 1_555 1_555
H45 C30 1_555 1_555
H46 C30 1_555 1_555
H47 C30 1_555 1_555
C31 C23 1_555 1_555
H48 C31 1_555 1_555
H49 C31 1_555 1_555
H50 C31 1_555 1_555
C32 C27 1_555 1_555
H51 C32 1_555 1_555
H52 C32 1_555 1_555
C33 C32 1_555 1_555
H53 C33 1_555 1_555
H54 C33 1_555 1_555
C34 C29 1_555 1_555
H55 C34 1_555 1_555
H56 C34 1_555 1_555
C35 C28 1_555 1_555
H57 C35 1_555 1_555
H58 C35 1_555 1_555
C36 C35 1_555 1_555
H59 C36 1_555 1_555
C37 C26 1_555 1_555
C38 C37 1_555 1_555
H60 C38 1_555 1_555
H61 C38 1_555 1_555
H62 C38 1_555 1_555
C39 C29 1_555 1_555
H63 C39 1_555 1_555
H64 C39 1_555 1_555
H65 C39 1_555 1_555
C40 C27 1_555 1_555
H66 C40 1_555 1_555
H67 C40 1_555 1_555
H68 C40 1_555 1_555
C2 C3 1_555 1_555
C3 C4 1_555 1_555
C13 C14 1_555 1_555
C16 C17 1_555 1_555
C22 C23 1_555 1_555
C23 C24 1_555 1_555
C33 C34 1_555 1_555
C36 C37 1_555 1_555

#END
