
#######################################################################
#
#                 Cambridge Crystallographic Data Centre
#                                CCDC 
#
#######################################################################
#
# If this CIF has been generated from an entry in the Cambridge 
# Structural Database, then it will include bibliographic, chemical, 
# crystal, experimental, refinement or atomic coordinate data resulting 
# from the CCDC's data processing and validation procedures.
#
#######################################################################

data_PUXLID
_chemical_formula_moiety         'C20 H18 N2 O1'
_chemical_name_systematic        
N-((2-Hydroxy-5-methylphenyl)(phenyl)methylene)-o-phenylenediamine
_symmetry_cell_setting           monoclinic
_symmetry_space_group_name_H-M   'P 21/c'
_symmetry_Int_Tables_number      14
_space_group_name_Hall           '-P 2ybc'
loop_
_symmetry_equiv_pos_site_id
_symmetry_equiv_pos_as_xyz
1 x,y,z
2 -x,1/2+y,1/2-z
3 -x,-y,-z
4 x,1/2-y,1/2+z
_cell_length_a                   10.340(6)
_cell_length_b                   10.920(3)
_cell_length_c                   14.720(4)
_cell_angle_alpha                90
_cell_angle_beta                 107.89(3)
_cell_angle_gamma                90
_cell_volume                     1581.71
_cell_formula_units_Z            4
loop_
_atom_site_label
_atom_site_type_symbol
_atom_site_fract_x
_atom_site_fract_y
_atom_site_fract_z
O1 O 0.6581(2) 0.2273(2) 0.0214(2)
N1 N 0.4468(2) 0.2700(2) 0.0572(2)
N2 N 0.3726(3) 0.0300(3) 0.0634(3)
C1 C 0.3778(3) 0.3630(4) 0.2349(2)
C2 C 0.3063(4) 0.4241(5) 0.2841(3)
C3 C 0.2806(4) 0.5448(6) 0.2702(4)
C4 C 0.3263(4) 0.6091(4) 0.2052(4)
C5 C 0.3995(3) 0.5485(3) 0.1556(3)
C6 C 0.4248(3) 0.4252(3) 0.1701(2)
C7 C 0.4994(3) 0.3562(2) 0.1162(2)
C8 C 0.3096(3) 0.2403(3) 0.0263(2)
C9 C 0.2123(3) 0.3265(3) -0.0094(2)
C10 C 0.0827(3) 0.2908(3) -0.0499(2)
C11 C 0.0515(3) 0.1685(4) -0.0555(2)
C12 C 0.1467(3) 0.0823(3) -0.0184(2)
C13 C 0.2783(3) 0.1158(3) 0.0241(2)
C14 C 0.6409(3) 0.3814(2) 0.1335(2)
C15 C 0.7134(3) 0.3152(3) 0.0846(2)
C16 C 0.8478(3) 0.3392(3) 0.1037(3)
C17 C 0.9077(3) 0.4274(3) 0.1680(2)
C18 C 0.8397(3) 0.4969(3) 0.2172(2)
C19 C 0.9038(3) 0.5991(3) 0.2820(2)
C20 C 0.7066(3) 0.4704(3) 0.1987(2)
loop_
_geom_bond_atom_site_label_1
_geom_bond_atom_site_label_2
_geom_bond_site_symmetry_1
_geom_bond_site_symmetry_2
O1 C15 1_555 1_555
N1 C7 1_555 1_555
N2 C13 1_555 1_555
C1 C2 1_555 1_555
C2 C3 1_555 1_555
C3 C4 1_555 1_555
C4 C5 1_555 1_555
C5 C6 1_555 1_555
C6 C1 1_555 1_555
C7 C6 1_555 1_555
C8 N1 1_555 1_555
C9 C8 1_555 1_555
C10 C9 1_555 1_555
C11 C10 1_555 1_555
C12 C11 1_555 1_555
C13 C8 1_555 1_555
C14 C7 1_555 1_555
C15 C14 1_555 1_555
C16 C15 1_555 1_555
C17 C16 1_555 1_555
C18 C17 1_555 1_555
C19 C18 1_555 1_555
C20 C14 1_555 1_555
C12 C13 1_555 1_555
C18 C20 1_555 1_555

#END
