
#######################################################################
#
#                 Cambridge Crystallographic Data Centre
#                                CCDC 
#
#######################################################################
#
# If this CIF has been generated from an entry in the Cambridge 
# Structural Database, then it will include bibliographic, chemical, 
# crystal, experimental, refinement or atomic coordinate data resulting 
# from the CCDC's data processing and validation procedures.
#
#######################################################################

data_PUXNIH
_chemical_formula_moiety         'C15 H11 F1 N4 O1 S1'
_chemical_name_systematic        
2-(7-fluoro-2-oxo-1,2-dihydro-3H-indol-3-ylidene)-N-phenylhydrazinecarbothioamide
_chemical_properties_biological  'antibacterial activity'
_symmetry_cell_setting           triclinic
_symmetry_space_group_name_H-M   'P -1'
_symmetry_Int_Tables_number      2
_space_group_name_Hall           '-P 1'
loop_
_symmetry_equiv_pos_site_id
_symmetry_equiv_pos_as_xyz
1 x,y,z
2 -x,-y,-z
_cell_length_a                   5.705(4)
_cell_length_b                   7.946(6)
_cell_length_c                   16.545(13)
_cell_angle_alpha                81.164(13)
_cell_angle_beta                 86.809(13)
_cell_angle_gamma                71.644(5)
_cell_volume                     703.385
_exptl_crystal_colour            colorless
_exptl_crystal_description       Prism
_cell_formula_units_Z            2
loop_
_atom_site_label
_atom_site_type_symbol
_atom_site_fract_x
_atom_site_fract_y
_atom_site_fract_z
S1 S -0.50669(7) 0.62334(5) 0.21694(2)
F1 F 0.72953(17) -0.33465(12) 0.48200(5)
O1 O -0.09539(19) 0.19140(14) 0.42051(5)
N1 N 0.2850(2) -0.03112(17) 0.43894(7)
N2 N 0.1513(2) 0.30149(16) 0.26459(7)
N3 N -0.0869(2) 0.39946(17) 0.27203(8)
N4 N -0.0478(3) 0.56339(17) 0.14989(7)
C1 C 0.5083(3) -0.0770(2) 0.39460(8)
C2 C 0.7211(3) -0.2179(2) 0.41259(9)
C3 C 0.9227(3) -0.2388(2) 0.36031(9)
H1 H 1.0700 -0.3354 0.3727
C4 C 0.9076(3) -0.1167(2) 0.28932(9)
H2 H 1.0462 -0.1311 0.2535
C5 C 0.6949(3) 0.0255(2) 0.26967(9)
H3 H 0.6861 0.1076 0.2209
C6 C 0.4943(3) 0.04477(19) 0.32336(8)
C7 C 0.2460(3) 0.17216(19) 0.32250(8)
C8 C 0.1186(3) 0.1166(2) 0.39896(8)
C9 C -0.2029(3) 0.52944(19) 0.20941(9)
C10 C -0.1316(4) 0.6634(3) 0.06960(9)
C11 C 0.0043(3) 0.7760(3) 0.03726(12)
H4 H 0.1330 0.7864 0.0683
C12 C -0.0481(4) 0.8733(3) -0.04045(12)
H5 H 0.0448 0.9503 -0.0626
C13 C -0.2364(4) 0.8580(3) -0.08580(9)
H6 H -0.2722 0.9246 -0.1389
C14 C -0.3723(3) 0.7454(3) -0.05345(10)
H7 H -0.5010 0.7350 -0.0845
C15 C -0.3199(4) 0.6481(2) 0.02425(11)
H8 H -0.4128 0.5711 0.0464
H9 H -0.171(3) 0.378(2) 0.3104(9)
H10 H 0.104(3) 0.506(2) 0.1601(9)
H11 H 0.253(3) -0.091(2) 0.4817(10)
C16? C -0.0654(4) 0.6700(3) 0.07405(9)
C17? C 0.1467(3) 0.6486(3) 0.02596(11)
H12? H 0.3017 0.5738 0.0476
C18? C 0.1322(3) 0.7367(3) -0.05385(11)
H13? H 0.2772 0.7221 -0.0867
C19? C -0.0946(4) 0.8462(3) -0.08556(9)
H14? H -0.1045 0.9064 -0.1401
C20? C -0.3068(3) 0.8676(3) -0.03747(13)
H15? H -0.4617 0.9424 -0.0591
C21? C -0.2922(3) 0.7794(3) 0.04234(12)
H16? H -0.4372 0.7941 0.0752
loop_
_geom_bond_atom_site_label_1
_geom_bond_atom_site_label_2
_geom_bond_site_symmetry_1
_geom_bond_site_symmetry_2
S1 C9 1_555 1_555
F1 C2 1_555 1_555
O1 C8 1_555 1_555
N1 C1 1_555 1_555
N2 N3 1_555 1_555
N3 C9 1_555 1_555
N4 C9 1_555 1_555
C1 C2 1_555 1_555
C2 C3 1_555 1_555
C3 H1 1_555 1_555
C4 C3 1_555 1_555
H2 C4 1_555 1_555
C5 C4 1_555 1_555
H3 C5 1_555 1_555
C6 C1 1_555 1_555
C7 N2 1_555 1_555
C8 N1 1_555 1_555
C10 N4 1_555 1_555
C11 C10 1_555 1_555
H4 C11 1_555 1_555
C12 C11 1_555 1_555
H5 C12 1_555 1_555
C13 C12 1_555 1_555
H6 C13 1_555 1_555
C14 C13 1_555 1_555
H7 C14 1_555 1_555
C15 C10 1_555 1_555
H8 C15 1_555 1_555
H9 N3 1_555 1_555
H10 N4 1_555 1_555
H11 N1 1_555 1_555
C5 C6 1_555 1_555
C6 C7 1_555 1_555
C7 C8 1_555 1_555
C14 C15 1_555 1_555

#END
