
#######################################################################
#
#                 Cambridge Crystallographic Data Centre
#                                CCDC 
#
#######################################################################
#
# If this CIF has been generated from an entry in the Cambridge 
# Structural Database, then it will include bibliographic, chemical, 
# crystal, experimental, refinement or atomic coordinate data resulting 
# from the CCDC's data processing and validation procedures.
#
#######################################################################

data_PUXNIF
_chemical_formula_moiety         'C24 H22 O4'
_chemical_name_systematic        3,3'-(9,10-Anthrylene)bis(pentane-2,4-dione)
_symmetry_cell_setting           monoclinic
_symmetry_space_group_name_H-M   'P 21/a'
_symmetry_Int_Tables_number      14
_space_group_name_Hall           '-P 2yab'
loop_
_symmetry_equiv_pos_site_id
_symmetry_equiv_pos_as_xyz
1 x,y,z
2 1/2-x,1/2+y,-z
3 -x,-y,-z
4 1/2+x,1/2-y,z
_cell_length_a                   7.393(4)
_cell_length_b                   14.308(5)
_cell_length_c                   10.099(5)
_cell_angle_alpha                90
_cell_angle_beta                 110.8(4)
_cell_angle_gamma                90
_cell_volume                     998.639
_chemical_melting_point          340deg.C(dec.)
_cell_formula_units_Z            2
loop_
_atom_site_label
_atom_site_type_symbol
_atom_site_fract_x
_atom_site_fract_y
_atom_site_fract_z
O1 O 0.3615(3) 0.6512(1) 0.4772(2)
O2 O 0.6129(3) 0.5726(1) 0.4124(2)
C1 C 0.2045(4) 0.6688(2) 0.0049(3)
C2 C 0.1034(3) 0.5837(1) 0.0050(2)
C3 C 0.1371(3) 0.5318(2) 0.1308(2)
C4 C 0.0333(3) 0.4489(2) 0.1263(2)
C5 C 0.0609(3) 0.3942(2) 0.2509(2)
C6 C -0.0382(4) 0.3137(2) 0.2454(3)
C7 C 0.1724(4) 0.7180(2) -0.1151(3)
C8 C 0.0293(6) 0.6468(3) 0.3361(5)
C9 C 0.2330(4) 0.6204(2) 0.3607(3)
C10 C 0.2853(3) 0.5650(2) 0.2663(2)
C11 C 0.4812(4) 0.5416(2) 0.2998(3)
C12 C 0.5492(5) 0.4790(2) 0.2085(4)
C6B C 0.0382(4) 0.6863(2) -0.2454(3)
C5B C -0.0609(3) 0.6058(2) -0.2509(2)
C4B C -0.0333(3) 0.5511(2) -0.1263(2)
C3B C -0.1371(3) 0.4682(2) -0.1308(2)
C2B C -0.1034(3) 0.4163(1) -0.0050(2)
C1B C -0.2045(4) 0.3312(2) -0.0049(3)
C7B C -0.1724(4) 0.2820(2) 0.1151(3)
C10B C -0.2853(3) 0.4350(2) -0.2663(2)
C9B C -0.2330(4) 0.3796(2) -0.3607(3)
O1B O -0.3615(3) 0.3488(1) -0.4772(2)
C8B C -0.0293(6) 0.3532(3) -0.3361(5)
C11B C -0.4812(4) 0.4584(2) -0.2998(3)
O2B O -0.6129(3) 0.4274(1) -0.4124(2)
C12B C -0.5492(5) 0.5210(2) -0.2085(4)
loop_
_geom_bond_atom_site_label_1
_geom_bond_atom_site_label_2
_geom_bond_site_symmetry_1
_geom_bond_site_symmetry_2
O1 C9 1_555 1_555
O2 C11 1_555 1_555
C1 C2 1_555 1_555
C2 C3 1_555 1_555
C3 C4 1_555 1_555
C4 C5 1_555 1_555
C5 C6 1_555 1_555
C6 C7B 1_555 1_555
C7 C1 1_555 1_555
C8 C9 1_555 1_555
C9 C10 1_555 1_555
C10 C3 1_555 1_555
C11 C10 1_555 1_555
C12 C11 1_555 1_555
C6B C7 1_555 1_555
C5B C6B 1_555 1_555
C4B C2 1_555 1_555
C3B C4B 1_555 1_555
C2B C4 1_555 1_555
C1B C2B 1_555 1_555
C7B C1B 1_555 1_555
C10B C3B 1_555 1_555
C9B C10B 1_555 1_555
O1B C9B 1_555 1_555
C8B C9B 1_555 1_555
C11B C10B 1_555 1_555
O2B C11B 1_555 1_555
C12B C11B 1_555 1_555
C5B C4B 1_555 1_555
C3B C2B 1_555 1_555

#END
