
#######################################################################
#
#                 Cambridge Crystallographic Data Centre
#                                CCDC 
#
#######################################################################
#
# If this CIF has been generated from an entry in the Cambridge 
# Structural Database, then it will include bibliographic, chemical, 
# crystal, experimental, refinement or atomic coordinate data resulting 
# from the CCDC's data processing and validation procedures.
#
#######################################################################

data_PUXREH
_chemical_formula_moiety         'C33 H20 O1'
_chemical_name_systematic        spiro[dibenzo[a,j]xanthene-14,9'-fluorene]
_symmetry_cell_setting           orthorhombic
_symmetry_space_group_name_H-M   'P b c n'
_symmetry_Int_Tables_number      60
_space_group_name_Hall           '-P 2n 2ab'
loop_
_symmetry_equiv_pos_site_id
_symmetry_equiv_pos_as_xyz
1 x,y,z
2 1/2-x,1/2-y,1/2+z
3 1/2+x,1/2-y,-z
4 -x,y,1/2-z
5 -x,-y,-z
6 1/2+x,1/2+y,1/2-z
7 1/2-x,1/2+y,z
8 x,-y,1/2+z
_cell_length_a                   16.599(2)
_cell_length_b                   7.8609(11)
_cell_length_c                   33.867(5)
_cell_angle_alpha                90
_cell_angle_beta                 90
_cell_angle_gamma                90
_cell_volume                     4419.07
_exptl_crystal_colour            colorless
_exptl_crystal_description       block
_cell_formula_units_Z            8
loop_
_atom_site_label
_atom_site_type_symbol
_atom_site_fract_x
_atom_site_fract_y
_atom_site_fract_z
O1 O 0.61730(19) 0.5673(4) 0.45440(10)
C1 C 0.5878(2) 0.5532(5) 0.38463(15)
C2 C 0.6176(2) 0.4916(6) 0.34689(15)
C3 C 0.5779(2) 0.5250(6) 0.31002(16)
C4 C 0.6096(2) 0.4634(7) 0.27479(17)
C5 C 0.6801(3) 0.3606(7) 0.27401(17)
C6 C 0.7188(3) 0.3254(7) 0.30939(19)
C7 C 0.6898(2) 0.3915(6) 0.34519(17)
C8 C 0.7316(2) 0.3501(6) 0.38054(17)
C9 C 0.7039(2) 0.4086(7) 0.41636(18)
C10 C 0.6332(2) 0.5132(6) 0.41687(16)
C11 C 0.5476(2) 0.6596(6) 0.46202(16)
C12 C 0.5434(3) 0.6994(7) 0.50214(16)
C13 C 0.4770(3) 0.7838(7) 0.51552(17)
C14 C 0.4152(3) 0.8286(6) 0.48807(16)
C15 C 0.3457(3) 0.9185(7) 0.50327(17)
C16 C 0.2843(3) 0.9662(7) 0.47778(19)
C17 C 0.2911(2) 0.9289(7) 0.43735(18)
C18 C 0.3565(2) 0.8396(6) 0.42246(16)
C19 C 0.4214(2) 0.7900(6) 0.44717(15)
C20 C 0.4933(2) 0.6966(6) 0.43357(14)
C21 C 0.5059(2) 0.6486(6) 0.38963(14)
C22 C 0.4985(2) 0.8000(5) 0.36171(14)
C23 C 0.5474(3) 0.9459(7) 0.36076(17)
C24 C 0.5311(3) 1.0673(7) 0.3316(2)
C25 C 0.4682(3) 1.0428(7) 0.30399(19)
C26 C 0.4198(3) 0.8974(7) 0.30546(16)
C27 C 0.4361(2) 0.7761(5) 0.33503(14)
C28 C 0.3982(2) 0.6114(6) 0.34270(14)
C29 C 0.3333(2) 0.5302(7) 0.32369(15)
C30 C 0.3114(3) 0.3682(7) 0.33755(19)
C31 C 0.3520(3) 0.2904(7) 0.36860(17)
C32 C 0.4166(2) 0.3715(6) 0.38772(15)
C33 C 0.4373(2) 0.5324(6) 0.37447(13)
loop_
_geom_bond_atom_site_label_1
_geom_bond_atom_site_label_2
_geom_bond_site_symmetry_1
_geom_bond_site_symmetry_2
O1 C10 1_555 1_555
C1 C2 1_555 1_555
C2 C3 1_555 1_555
C3 C4 1_555 1_555
C4 C5 1_555 1_555
C5 C6 1_555 1_555
C6 C7 1_555 1_555
C7 C2 1_555 1_555
C8 C7 1_555 1_555
C9 C8 1_555 1_555
C10 C1 1_555 1_555
C11 O1 1_555 1_555
C12 C11 1_555 1_555
C13 C12 1_555 1_555
C14 C13 1_555 1_555
C15 C14 1_555 1_555
C16 C15 1_555 1_555
C17 C16 1_555 1_555
C18 C17 1_555 1_555
C19 C14 1_555 1_555
C20 C11 1_555 1_555
C21 C1 1_555 1_555
C22 C21 1_555 1_555
C23 C22 1_555 1_555
C24 C23 1_555 1_555
C25 C24 1_555 1_555
C26 C25 1_555 1_555
C27 C22 1_555 1_555
C28 C27 1_555 1_555
C29 C28 1_555 1_555
C30 C29 1_555 1_555
C31 C30 1_555 1_555
C32 C31 1_555 1_555
C33 C21 1_555 1_555
C9 C10 1_555 1_555
C18 C19 1_555 1_555
C19 C20 1_555 1_555
C20 C21 1_555 1_555
C26 C27 1_555 1_555
C28 C33 1_555 1_555
C32 C33 1_555 1_555

#END
