
#######################################################################
#
#                 Cambridge Crystallographic Data Centre
#                                CCDC 
#
#######################################################################
#
# If this CIF has been generated from an entry in the Cambridge 
# Structural Database, then it will include bibliographic, chemical, 
# crystal, experimental, refinement or atomic coordinate data resulting 
# from the CCDC's data processing and validation procedures.
#
#######################################################################

data_PUXWIQ
_chemical_compound_source        'root of Aconitum sinomontanum'
_chemical_formula_moiety         'C32 H45 N2 O8 1+,H2 O1,Cl1 1-'
_chemical_name_systematic        
'20-ethyl-8,9-dihydroxy-1,14,16-trimethoxyaconitan-20-ium-4-yl 2-acetamidobenzoate chloride monohydrate'
_chemical_properties_biological  'antinociceptive activity'
_symmetry_cell_setting           monoclinic
_symmetry_space_group_name_H-M   'P 21'
_symmetry_Int_Tables_number      4
_space_group_name_Hall           'P 2yb'
loop_
_symmetry_equiv_pos_site_id
_symmetry_equiv_pos_as_xyz
1 x,y,z
2 -x,1/2+y,-z
_cell_length_a                   10.665(7)
_cell_length_b                   12.178(7)
_cell_length_c                   12.214(7)
_cell_angle_alpha                90
_cell_angle_beta                 91.003(10)
_cell_angle_gamma                90
_cell_volume                     1586.09
_exptl_crystal_colour            colorless
_exptl_crystal_description       block
_cell_formula_units_Z            2
loop_
_atom_site_label
_atom_site_type_symbol
_atom_site_fract_x
_atom_site_fract_y
_atom_site_fract_z
Cl1 Cl 0.48769(9) 0.45506(7) 0.39771(6)
C1 C 0.1315(2) 0.5645(2) 0.9472(2)
H1 H 0.1157 0.5245 0.8788
C2 C 0.1783(2) 0.6809(2) 0.9199(2)
H2 H 0.1366 0.7316 0.9685
H3 H 0.1495 0.6979 0.8461
C3 C 0.3215(2) 0.7066(2) 0.92654(18)
C4 C 0.3939(2) 0.62495(19) 1.00390(17)
C5 C 0.3067(2) 0.5739(2) 1.08937(18)
H4 H 0.3573 0.5283 1.1394
C6 C 0.2240(2) 0.4988(2) 1.01861(19)
H5 H 0.1791 0.4462 1.0644
C7 C 0.3235(2) 0.4397(2) 0.95046(19)
H6 H 0.2898 0.4215 0.8784
H7 H 0.3503 0.3725 0.9865
C8 C 0.4359(2) 0.52130(19) 0.94088(18)
H8 H 0.5064 0.4894 0.9825
C9 C 0.4797(2) 0.53540(19) 0.82156(17)
C10 C 0.3758(2) 0.59730(18) 0.75756(17)
H9 H 0.2939 0.5631 0.7689
C11 C 0.3825(2) 0.71145(19) 0.81288(18)
H10 H 0.3418 0.7672 0.7667
C12 C 0.5243(2) 0.73425(19) 0.82502(19)
H11 H 0.5445 0.7637 0.8970
H12 H 0.5516 0.7859 0.7699
C13 C 0.5866(2) 0.62099(19) 0.80894(17)
H13 H 0.6539 0.6088 0.8632
C14 C 0.6355(2) 0.61078(19) 0.69181(17)
C15 C 0.6887(2) 0.4957(2) 0.6682(2)
H14 H 0.6582 0.4713 0.5970
H15 H 0.7794 0.5000 0.6656
C16 C 0.6521(2) 0.4117(2) 0.7541(2)
H16 H 0.6713 0.3387 0.7276
H17 H 0.7017 0.4242 0.8203
C17 C 0.5148(2) 0.41733(19) 0.78132(18)
H18 H 0.4987 0.3653 0.8406
C18 C 0.5326(2) 0.6488(2) 0.61014(17)
H19 H 0.5263 0.7283 0.6122
H20 H 0.5554 0.6275 0.5366
C19 C 0.2051(3) 0.6188(3) 1.2526(2)
H21 H 0.1351 0.5704 1.2405
H22 H 0.1795 0.6797 1.2967
H23 H 0.2715 0.5797 1.2896
C20 C -0.0873(6) 0.5897(15) 0.9482(7)
H24 H -0.0843 0.5479 0.8817
H25 H -0.0968 0.6662 0.9308
H26 H -0.1572 0.5658 0.9906
C21 C 0.4409(3) 0.2786(2) 0.6558(3)
H27 H 0.5204 0.2658 0.6224
H28 H 0.3746 0.2633 0.6039
H29 H 0.4327 0.2316 0.7183
C22 C 0.3063(2) 0.6488(2) 0.56381(19)
H30 H 0.2871 0.7221 0.5896
H31 H 0.3379 0.6552 0.4901
C23 C 0.1886(3) 0.5816(3) 0.5612(3)
H32 H 0.2085 0.5070 0.5432
H33 H 0.1315 0.6108 0.5070
H34 H 0.1503 0.5840 0.6317
C24 C 0.8001(2) 0.7042(2) 0.5950(2)
C25 C 0.9056(2) 0.7842(2) 0.6032(2)
C26 C 0.9437(3) 0.8242(2) 0.7051(2)
H35 H 0.9000 0.8037 0.7671
C27 C 1.0458(3) 0.8943(3) 0.7160(3)
H36 H 1.0715 0.9189 0.7849
C28 C 1.1087(3) 0.9269(3) 0.6246(3)
H37 H 1.1764 0.9746 0.6312
C29 C 1.0711(3) 0.8887(3) 0.5225(3)
H38 H 1.1141 0.9118 0.4610
C30 C 0.9706(2) 0.8163(2) 0.5093(2)
C31 C 0.9552(3) 0.8149(3) 0.3041(2)
C32 C 0.9021(3) 0.7476(3) 0.2131(3)
H39 H 0.8460 0.7918 0.1693
H40 H 0.8571 0.6864 0.2426
H41 H 0.9689 0.7211 0.1685
N1 N 0.40707(18) 0.59911(18) 0.63714(14)
N2 N 0.9342(2) 0.7736(2) 0.4063(2)
O1 O 0.33299(17) 0.81781(13) 0.96724(13)
H42 H 0.3272 0.8177 1.0341
O2 O 0.49506(15) 0.68168(13) 1.05569(13)
H43 H 0.5348 0.6390 1.0949
O3 O 0.24789(16) 0.65768(14) 1.15105(12)
O4 O 0.01622(18) 0.5752(2) 1.00433(18)
O5 O 0.43340(16) 0.39021(13) 0.68950(13)
O6 O 0.73725(14) 0.69369(14) 0.68820(12)
O7 O 0.77272(16) 0.65126(16) 0.51269(14)
O8 O 1.0118(3) 0.9011(2) 0.28851(19)
H44 H 0.413(2) 0.532(2) 0.6190(18)
H45 H 0.886(3) 0.712(3) 0.410(2)
O9 O 0.6294(3) 0.5231(2) 0.1827(3)
H49 H 0.645(5) 0.466(5) 0.151(4)
H50 H 0.599(4) 0.504(4) 0.241(4)
C33? C -0.0747(10) 0.5030(16) 0.9750(9)
H46? H -0.1507 0.5212 1.0119
H47? H -0.0489 0.4301 0.9951
H48? H -0.0889 0.5065 0.8973
loop_
_geom_bond_atom_site_label_1
_geom_bond_atom_site_label_2
_geom_bond_site_symmetry_1
_geom_bond_site_symmetry_2
C1 H1 1_555 1_555
C2 C1 1_555 1_555
H2 C2 1_555 1_555
H3 C2 1_555 1_555
C3 C2 1_555 1_555
C4 C3 1_555 1_555
C5 C4 1_555 1_555
H4 C5 1_555 1_555
C6 C1 1_555 1_555
H5 C6 1_555 1_555
C7 C6 1_555 1_555
H6 C7 1_555 1_555
H7 C7 1_555 1_555
C8 C4 1_555 1_555
H8 C8 1_555 1_555
C9 C8 1_555 1_555
C10 C9 1_555 1_555
H9 C10 1_555 1_555
C11 C3 1_555 1_555
H10 C11 1_555 1_555
C12 C11 1_555 1_555
H11 C12 1_555 1_555
H12 C12 1_555 1_555
C13 C9 1_555 1_555
H13 C13 1_555 1_555
C14 C13 1_555 1_555
C15 C14 1_555 1_555
H14 C15 1_555 1_555
H15 C15 1_555 1_555
C16 C15 1_555 1_555
H16 C16 1_555 1_555
H17 C16 1_555 1_555
C17 C9 1_555 1_555
H18 C17 1_555 1_555
C18 C14 1_555 1_555
H19 C18 1_555 1_555
H20 C18 1_555 1_555
C19 H21 1_555 1_555
H22 C19 1_555 1_555
H23 C19 1_555 1_555
C20 H24 1_555 1_555
H25 C20 1_555 1_555
H26 C20 1_555 1_555
C21 H27 1_555 1_555
H28 C21 1_555 1_555
H29 C21 1_555 1_555
C22 H30 1_555 1_555
H31 C22 1_555 1_555
C23 C22 1_555 1_555
H32 C23 1_555 1_555
H33 C23 1_555 1_555
H34 C23 1_555 1_555
C24 C25 1_555 1_555
C25 C26 1_555 1_555
C26 H35 1_555 1_555
C27 C26 1_555 1_555
H36 C27 1_555 1_555
C28 C27 1_555 1_555
H37 C28 1_555 1_555
C29 C28 1_555 1_555
H38 C29 1_555 1_555
C30 C25 1_555 1_555
C31 C32 1_555 1_555
C32 H39 1_555 1_555
H40 C32 1_555 1_555
H41 C32 1_555 1_555
N1 C10 1_555 1_555
N2 C30 1_555 1_555
O1 C3 1_555 1_555
H42 O1 1_555 1_555
O2 C4 1_555 1_555
H43 O2 1_555 1_555
O3 C5 1_555 1_555
O4 C1 1_555 1_555
O5 C17 1_555 1_555
O6 C14 1_555 1_555
O7 C24 1_555 1_555
O8 C31 1_555 1_555
H44 N1 1_555 1_555
H45 N2 1_555 1_555
O9 H49 1_555 1_555
H50 O9 1_555 1_555
C5 C6 1_555 1_555
C7 C8 1_555 1_555
C10 C11 1_555 1_555
C12 C13 1_555 1_555
C16 C17 1_555 1_555
C18 N1 1_555 1_555
C19 O3 1_555 1_555
C20 O4 1_555 1_555
C21 O5 1_555 1_555
C22 N1 1_555 1_555
C24 O6 1_555 1_555
C29 C30 1_555 1_555
C31 N2 1_555 1_555

#END
