
#######################################################################
#
#                 Cambridge Crystallographic Data Centre
#                                CCDC 
#
#######################################################################
#
# If this CIF has been generated from an entry in the Cambridge 
# Structural Database, then it will include bibliographic, chemical, 
# crystal, experimental, refinement or atomic coordinate data resulting 
# from the CCDC's data processing and validation procedures.
#
#######################################################################

data_PUXYUE
_chemical_formula_moiety         'C19 H12 F4 N3 1+,H2 O1,Br1 1-'
_chemical_name_systematic        
'1-(2,3,5,6-Tetrafluoropyridyl)-3-(2-naphthylmethyl)imidazolium bromide monohydrate'
_symmetry_cell_setting           monoclinic
_symmetry_space_group_name_H-M   'P 21'
_symmetry_Int_Tables_number      4
_space_group_name_Hall           'P 2yb'
loop_
_symmetry_equiv_pos_site_id
_symmetry_equiv_pos_as_xyz
1 x,y,z
2 -x,1/2+y,-z
_cell_length_a                   8.1985(2)
_cell_length_b                   26.1678(7)
_cell_length_c                   17.5064(4)
_cell_angle_alpha                90
_cell_angle_beta                 90.1060(10)
_cell_angle_gamma                90
_cell_volume                     3755.76
_exptl_crystal_colour            'pale yellow'
_exptl_crystal_description       plate
_cell_formula_units_Z            8
_exptl_crystal_recrystallization_method Methanol
loop_
_atom_site_label
_atom_site_type_symbol
_atom_site_fract_x
_atom_site_fract_y
_atom_site_fract_z
N1 N -0.1705(7) 0.1895(2) 0.8606(3)
N2 N -0.0167(6) 0.1787(2) 0.7653(3)
N3 N -0.3348(8) 0.2092(2) 1.0863(3)
C1 C -0.0149(8) 0.1852(2) 0.8408(3)
C2 C -0.2690(7) 0.1843(3) 0.7975(4)
C3 C -0.1742(8) 0.1765(3) 0.7389(3)
C4 C -0.2211(7) 0.1976(2) 0.9381(3)
C5 C -0.1735(8) 0.1643(3) 0.9958(3)
C6 C -0.2306(8) 0.1727(3) 1.0691(3)
C7 C -0.3810(8) 0.2404(3) 1.0320(3)
C8 C -0.3306(7) 0.2366(2) 0.9571(3)
C9 C 0.1333(7) 0.1708(2) 0.7181(3)
C10 C 0.1807(8) 0.2183(2) 0.6749(3)
C11 C 0.1267(9) 0.2257(3) 0.6011(4)
C12 C 0.1829(8) 0.2695(2) 0.5591(3)
C13 C 0.2959(7) 0.3041(2) 0.5924(3)
C14 C 0.3478(9) 0.2960(3) 0.6674(4)
C15 C 0.2924(8) 0.2539(2) 0.7097(3)
C16 C 0.1267(8) 0.2784(2) 0.4829(3)
C17 C 0.1869(9) 0.3191(3) 0.4414(4)
C18 C 0.3025(9) 0.3523(3) 0.4745(4)
C19 C 0.3566(9) 0.3447(3) 0.5498(4)
F1 F -0.0687(5) 0.12643(16) 0.9816(2)
F2 F -0.1826(6) 0.14179(18) 1.1249(2)
F3 F -0.4852(6) 0.27655(19) 1.0513(3)
F4 F -0.3841(5) 0.26856(15) 0.9040(2)
H1 H 0.0780 0.1874 0.8732
H2 H -0.3848 0.1860 0.7972
H3 H -0.2080 0.1711 0.6876
H4 H 0.1134 0.1441 0.6825
H5 H 0.2210 0.1614 0.7508
H6 H 0.0536 0.2020 0.5783
H7 H 0.4226 0.3188 0.6909
H8 H 0.3272 0.2488 0.7609
H9 H 0.0483 0.2563 0.4604
H10 H 0.1507 0.3247 0.3905
H11 H 0.3443 0.3800 0.4453
H12 H 0.4342 0.3676 0.5711
N4 N 0.3281(6) 0.49647(19) 0.3791(3)
N5 N 0.4769(6) 0.5067(2) 0.4765(3)
N6 N 0.1722(7) 0.4893(2) 0.1494(3)
C20 C 0.4786(8) 0.5077(3) 0.4014(3)
C21 C 0.2383(7) 0.4896(2) 0.4403(3)
C22 C 0.3312(7) 0.4956(3) 0.5008(3)
C23 C 0.2779(8) 0.4942(2) 0.2995(3)
C24 C 0.3255(7) 0.5311(3) 0.2474(3)
C25 C 0.2660(7) 0.5266(3) 0.1739(3)
C26 C 0.1289(9) 0.4548(3) 0.1998(4)
C27 C 0.1785(8) 0.4546(2) 0.2747(3)
C28 C 0.6256(7) 0.5163(2) 0.5254(3)
C29 C 0.6793(7) 0.4688(2) 0.5673(3)
C30 C 0.6263(7) 0.4600(2) 0.6415(3)
C31 C 0.6851(7) 0.4169(2) 0.6827(3)
C32 C 0.8000(7) 0.3830(2) 0.6477(4)
C33 C 0.8480(8) 0.3916(3) 0.5723(3)
C34 C 0.7858(8) 0.4338(2) 0.5308(3)
C35 C 0.6346(8) 0.4080(3) 0.7593(3)
C36 C 0.6956(9) 0.3668(2) 0.7996(4)
C37 C 0.8119(10) 0.3331(3) 0.7645(4)
C38 C 0.8588(10) 0.3424(3) 0.6879(4)
F5 F 0.4214(6) 0.56986(16) 0.2672(2)
F6 F 0.3096(6) 0.56171(17) 0.1215(2)
F7 F 0.0306(6) 0.41765(18) 0.1762(3)
F8 F 0.1298(5) 0.41783(15) 0.3231(2)
H13 H 0.5693 0.5147 0.3694
H14 H 0.1253 0.4815 0.4401
H15 H 0.2990 0.4926 0.5527
H16 H 0.7132 0.5280 0.4945
H17 H 0.5989 0.5419 0.5619
H18 H 0.5510 0.4828 0.6646
H19 H 0.9220 0.3690 0.5479
H20 H 0.8159 0.4390 0.4790
H21 H 0.5592 0.4306 0.7828
H22 H 0.6606 0.3608 0.8505
H23 H 0.8534 0.3048 0.7924
H24 H 0.9361 0.3199 0.6656
N7 N 0.4159(7) 0.1983(2) 0.3669(3)
N8 N 0.2590(6) 0.1843(2) 0.2669(3)
N9 N 0.5942(7) 0.2074(2) 0.5883(3)
C39 C 0.5308(8) 0.2034(3) 0.2942(3)
C40 C 0.2667(8) 0.1871(3) 0.3411(3)
C41 C 0.4374(8) 0.1949(3) 0.2359(4)
C42 C 0.4730(7) 0.2024(2) 0.4399(3)
C43 C 0.5807(8) 0.2405(2) 0.4622(3)
C44 C 0.6368(9) 0.2407(3) 0.5367(3)
C45 C 0.4914(8) 0.1715(3) 0.5677(3)
C46 C 0.4254(7) 0.1676(2) 0.4955(3)
C47 C 0.1203(8) 0.1753(2) 0.2165(3)
C48 C 0.0700(8) 0.2229(2) 0.1751(3)
C49 C -0.0377(8) 0.2586(2) 0.2098(4)
C50 C -0.0953(9) 0.3010(3) 0.1679(4)
C51 C -0.0455(8) 0.3080(3) 0.0926(4)
C52 C 0.0642(8) 0.2729(2) 0.0577(3)
C53 C 0.1190(8) 0.2299(2) 0.1012(3)
C54 C -0.1113(10) 0.3485(3) 0.0500(4)
C55 C -0.0572(10) 0.3560(3) -0.0254(4)
C56 C 0.0551(9) 0.3224(3) -0.0595(4)
C57 C 0.1153(8) 0.2820(2) -0.0187(3)
F9 F 0.7432(6) 0.27640(17) 0.5580(3)
F10 F 0.6332(5) 0.27600(16) 0.4126(2)
F11 F 0.3183(5) 0.13108(16) 0.4782(2)
F12 F 0.4466(6) 0.13762(17) 0.6208(2)
H25 H 0.6443 0.2107 0.2934
H26 H 0.1752 0.1815 0.3732
H27 H 0.4693 0.1953 0.1837
H28 H 0.1455 0.1494 0.1804
H29 H 0.0331 0.1641 0.2481
H30 H -0.0694 0.2539 0.2615
H31 H -0.1686 0.3242 0.1916
H32 H 0.1906 0.2059 0.0783
H33 H -0.1873 0.3717 0.0718
H34 H -0.0997 0.3836 -0.0546
H35 H 0.0897 0.3278 -0.1107
H36 H 0.1925 0.2598 -0.0418
N10 N 0.9272(6) 0.4977(2) -0.1233(3)
N11 N 0.7686(6) 0.5095(2) -0.0280(3)
N12 N 1.0973(8) 0.4769(3) -0.3469(3)
C58 C 0.7721(7) 0.5022(2) -0.1011(3)
C59 C 1.0184(9) 0.5011(3) -0.0591(4)
C60 C 0.9264(8) 0.5079(2) -0.0009(3)
C61 C 0.9797(7) 0.4900(2) -0.2005(3)
C62 C 0.9285(7) 0.5219(2) -0.2586(3)
C63 C 0.9926(8) 0.5139(2) -0.3310(3)
C64 C 1.1449(9) 0.4475(3) -0.2911(4)
C65 C 1.0887(8) 0.4511(3) -0.2171(3)
C66 C 0.6152(7) 0.5176(2) 0.0175(3)
C67 C 0.5677(7) 0.4710(2) 0.0618(3)
C68 C 0.6216(8) 0.4641(2) 0.1358(3)
C69 C 0.5679(7) 0.4214(2) 0.1797(3)
C70 C 0.4567(8) 0.3859(2) 0.1468(4)
C71 C 0.4063(10) 0.3925(3) 0.0722(4)
C72 C 0.4600(8) 0.4345(2) 0.0294(3)
C73 C 0.6218(9) 0.4151(3) 0.2574(3)
C74 C 0.5645(9) 0.3745(3) 0.2997(4)
C75 C 0.4492(10) 0.3396(3) 0.2666(4)
C76 C 0.3990(11) 0.3460(3) 0.1898(4)
F13 F 0.8230(6) 0.55957(15) -0.2460(2)
F14 F 0.9471(6) 0.54415(17) -0.3885(2)
F15 F 1.2502(6) 0.41102(18) -0.3081(3)
F16 F 1.1411(5) 0.41944(17) -0.1633(2)
H37 H 0.6798 0.5015 -0.1340
H38 H 1.1339 0.4985 -0.0574
H39 H 0.9580 0.5120 0.0510
H40 H 0.5287 0.5263 -0.0163
H41 H 0.6330 0.5450 0.0522
H42 H 0.6958 0.4880 0.1575
H43 H 0.3342 0.3687 0.0492
H44 H 0.4250 0.4388 -0.0220
H45 H 0.6974 0.4384 0.2793
H46 H 0.6012 0.3696 0.3507
H47 H 0.4069 0.3125 0.2967
H48 H 0.3248 0.3219 0.1688
O1 O 0.3614(8) 0.1206(2) 0.0968(3)
H49 H 0.4219 0.1099 0.1096
H50 H 0.3654 0.1206 0.0503
Br1 Br 0.36596(8) 0.15739(4) 0.91188(3)
Br2 Br 0.12322(8) 0.03125(5) 0.65799(3)
Br3 Br 0.87863(8) 0.16338(4) 0.40347(4)
O2 O 0.1060(8) 0.0687(2) 0.8398(3)
H51 H 0.1490 0.0980 0.8549
H52 H 0.1178 0.0653 0.7885
O3 O 0.8467(8) 0.1145(2) 0.5811(3)
H53 H 0.8855 0.1001 0.5423
H54 H 0.9282 0.1205 0.6149
Br4 Br 0.61198(8) 0.03132(5) 0.17232(4)
O4 O 0.5912(9) 0.0786(3) 0.3527(4)
H55 H 0.6705 0.1000 0.3590
H56 H 0.5932 0.0677 0.3101
loop_
_geom_bond_atom_site_label_1
_geom_bond_atom_site_label_2
_geom_bond_site_symmetry_1
_geom_bond_site_symmetry_2
N1 C1 1_555 1_555
N2 C1 1_555 1_555
N3 C6 1_555 1_555
C1 H1 1_555 1_555
C2 N1 1_555 1_555
C3 N2 1_555 1_555
C4 N1 1_555 1_555
C5 C4 1_555 1_555
C6 C5 1_555 1_555
C7 N3 1_555 1_555
C8 C4 1_555 1_555
C9 N2 1_555 1_555
C10 C9 1_555 1_555
C11 C10 1_555 1_555
C12 C11 1_555 1_555
C13 C12 1_555 1_555
C14 C13 1_555 1_555
C15 C10 1_555 1_555
C16 C12 1_555 1_555
C17 C16 1_555 1_555
C18 C17 1_555 1_555
C19 C13 1_555 1_555
F1 C5 1_555 1_555
F2 C6 1_555 1_555
F3 C7 1_555 1_555
F4 C8 1_555 1_555
H2 C2 1_555 1_555
H3 C3 1_555 1_555
H4 C9 1_555 1_555
H5 C9 1_555 1_555
H6 C11 1_555 1_555
H7 C14 1_555 1_555
H8 C15 1_555 1_555
H9 C16 1_555 1_555
H10 C17 1_555 1_555
H11 C18 1_555 1_555
H12 C19 1_555 1_555
N4 C20 1_555 1_555
N5 C20 1_555 1_555
N6 C25 1_555 1_555
C20 H13 1_555 1_555
C21 N4 1_555 1_555
C22 N5 1_555 1_555
C23 N4 1_555 1_555
C24 C23 1_555 1_555
C25 C24 1_555 1_555
C26 N6 1_555 1_555
C27 C23 1_555 1_555
C28 N5 1_555 1_555
C29 C28 1_555 1_555
C30 C29 1_555 1_555
C31 C30 1_555 1_555
C32 C31 1_555 1_555
C33 C32 1_555 1_555
C34 C29 1_555 1_555
C35 C31 1_555 1_555
C36 C35 1_555 1_555
C37 C36 1_555 1_555
C38 C32 1_555 1_555
F5 C24 1_555 1_555
F6 C25 1_555 1_555
F7 C26 1_555 1_555
F8 C27 1_555 1_555
H14 C21 1_555 1_555
H15 C22 1_555 1_555
H16 C28 1_555 1_555
H17 C28 1_555 1_555
H18 C30 1_555 1_555
H19 C33 1_555 1_555
H20 C34 1_555 1_555
H21 C35 1_555 1_555
H22 C36 1_555 1_555
H23 C37 1_555 1_555
H24 C38 1_555 1_555
N7 C39 1_555 1_555
N8 C40 1_555 1_555
N9 C44 1_555 1_555
C39 C41 1_555 1_555
C40 N7 1_555 1_555
C41 N8 1_555 1_555
C42 N7 1_555 1_555
C43 C42 1_555 1_555
C44 C43 1_555 1_555
C45 N9 1_555 1_555
C46 C42 1_555 1_555
C47 N8 1_555 1_555
C48 C47 1_555 1_555
C49 C48 1_555 1_555
C50 C49 1_555 1_555
C51 C50 1_555 1_555
C52 C51 1_555 1_555
C53 C48 1_555 1_555
C54 C51 1_555 1_555
C55 C54 1_555 1_555
C56 C55 1_555 1_555
C57 C52 1_555 1_555
F9 C44 1_555 1_555
F10 C43 1_555 1_555
F11 C46 1_555 1_555
F12 C45 1_555 1_555
H25 C39 1_555 1_555
H26 C40 1_555 1_555
H27 C41 1_555 1_555
H28 C47 1_555 1_555
H29 C47 1_555 1_555
H30 C49 1_555 1_555
H31 C50 1_555 1_555
H32 C53 1_555 1_555
H33 C54 1_555 1_555
H34 C55 1_555 1_555
H35 C56 1_555 1_555
H36 C57 1_555 1_555
N10 C58 1_555 1_555
N11 C58 1_555 1_555
N12 C63 1_555 1_555
C58 H37 1_555 1_555
C59 N10 1_555 1_555
C60 N11 1_555 1_555
C61 N10 1_555 1_555
C62 C61 1_555 1_555
C63 C62 1_555 1_555
C64 N12 1_555 1_555
C65 C61 1_555 1_555
C66 N11 1_555 1_555
C67 C66 1_555 1_555
C68 C67 1_555 1_555
C69 C68 1_555 1_555
C70 C69 1_555 1_555
C71 C70 1_555 1_555
C72 C67 1_555 1_555
C73 C69 1_555 1_555
C74 C73 1_555 1_555
C75 C74 1_555 1_555
C76 C70 1_555 1_555
F13 C62 1_555 1_555
F14 C63 1_555 1_555
F15 C64 1_555 1_555
F16 C65 1_555 1_555
H38 C59 1_555 1_555
H39 C60 1_555 1_555
H40 C66 1_555 1_555
H41 C66 1_555 1_555
H42 C68 1_555 1_555
H43 C71 1_555 1_555
H44 C72 1_555 1_555
H45 C73 1_555 1_555
H46 C74 1_555 1_555
H47 C75 1_555 1_555
H48 C76 1_555 1_555
O1 H49 1_555 1_555
H50 O1 1_555 1_555
O2 H51 1_555 1_555
H52 O2 1_555 1_555
O3 H53 1_555 1_555
H54 O3 1_555 1_555
O4 H55 1_555 1_555
H56 O4 1_555 1_555
C2 C3 1_555 1_555
C7 C8 1_555 1_555
C14 C15 1_555 1_555
C18 C19 1_555 1_555
C21 C22 1_555 1_555
C26 C27 1_555 1_555
C33 C34 1_555 1_555
C37 C38 1_555 1_555
C45 C46 1_555 1_555
C52 C53 1_555 1_555
C56 C57 1_555 1_555
C59 C60 1_555 1_555
C64 C65 1_555 1_555
C71 C72 1_555 1_555
C75 C76 1_555 1_555

#END
