
#######################################################################
#
#                 Cambridge Crystallographic Data Centre
#                                CCDC 
#
#######################################################################
#
# If this CIF has been generated from an entry in the Cambridge 
# Structural Database, then it will include bibliographic, chemical, 
# crystal, experimental, refinement or atomic coordinate data resulting 
# from the CCDC's data processing and validation procedures.
#
#######################################################################

data_PUYMEC01
_chemical_formula_moiety         'C32 H26'
_chemical_name_systematic        9,10-bis[2-(4-methylphenyl)ethenyl]anthracene
_symmetry_cell_setting           monoclinic
_symmetry_space_group_name_H-M   'P 21/c'
_symmetry_Int_Tables_number      14
_space_group_name_Hall           '-P 2ybc'
loop_
_symmetry_equiv_pos_site_id
_symmetry_equiv_pos_as_xyz
1 x,y,z
2 -x,1/2+y,1/2-z
3 -x,-y,-z
4 x,1/2-y,1/2+z
_cell_length_a                   5.4239(4)
_cell_length_b                   9.7379(6)
_cell_length_c                   21.8801(15)
_cell_angle_alpha                90
_cell_angle_beta                 94.832(3)
_cell_angle_gamma                90
_cell_volume                     1151.54
_exptl_crystal_colour            green
_exptl_crystal_description       needle
_cell_formula_units_Z            2
loop_
_atom_site_label
_atom_site_type_symbol
_atom_site_fract_x
_atom_site_fract_y
_atom_site_fract_z
C1 C -0.0080(3) 0.36622(17) 0.47553(7)
C2 C 0.1801(3) 0.40431(17) 0.52267(7)
C3 C 0.1857(3) 0.53712(18) 0.54722(7)
C4 C 0.3761(3) 0.57890(19) 0.59625(8)
H1 H 0.4924 0.6460 0.5858
C5 C -0.0064(4) 0.23001(19) 0.45227(9)
H2 H -0.1312 0.2027 0.4216
C6 C 0.5828(4) 0.5758(2) 0.70204(8)
C7 C 0.3632(4) 0.3042(2) 0.54162(9)
H3 H 0.4923 0.3281 0.5718
C8 C 0.3995(4) 0.5325(2) 0.65242(8)
H4 H 0.2860 0.4633 0.6623
C9 C 0.1688(4) 0.1382(2) 0.47278(10)
H5 H 0.1647 0.0475 0.4568
C10 C 0.9258(4) 0.6570(3) 0.79907(9)
C11 C 0.3572(4) 0.1767(2) 0.51779(10)
H6 H 0.4812 0.1122 0.5314
C12 C 0.5787(5) 0.5207(3) 0.75997(10)
H7 H 0.4578 0.4535 0.7674
C13 C 0.7473(5) 0.5613(3) 0.80753(10)
H8 H 0.7388 0.5218 0.8470
C14 C 0.7626(4) 0.6716(3) 0.69374(10)
H9 H 0.7718 0.7119 0.6544
C15 C 0.9301(5) 0.7105(3) 0.74158(11)
H10 H 1.0526 0.7767 0.7342
C16 C 1.1111(4) 0.7023(3) 0.85063(11)
H11 H 1.0773 0.6547 0.8885
H12 H 1.0973 0.8017 0.8565
H13 H 1.2787 0.6799 0.8402
C1B C 0.0080(3) 0.63378(17) 0.52447(7)
C2B C -0.1801(3) 0.59569(17) 0.47733(7)
C3B C -0.1857(3) 0.46288(18) 0.45278(7)
C4B C -0.3761(3) 0.42110(19) 0.40375(8)
H1B H -0.4924 0.3540 0.4142
C5B C 0.0064(4) 0.76999(19) 0.54773(9)
H2B H 0.1312 0.7973 0.5784
C6B C -0.5828(4) 0.4242(2) 0.29796(8)
C7B C -0.3632(4) 0.6958(2) 0.45838(9)
H3B H -0.4923 0.6719 0.4282
C8B C -0.3995(4) 0.4675(2) 0.34758(8)
H4B H -0.2860 0.5367 0.3377
C9B C -0.1688(4) 0.8618(2) 0.52722(10)
H5B H -0.1647 0.9525 0.5432
C10B C -0.9258(4) 0.3430(3) 0.20093(9)
C11B C -0.3572(4) 0.8233(2) 0.48221(10)
H6B H -0.4812 0.8878 0.4686
C12B C -0.5787(5) 0.4793(3) 0.24003(10)
H7B H -0.4578 0.5465 0.2326
C13B C -0.7473(5) 0.4387(3) 0.19247(10)
H8B H -0.7388 0.4782 0.1530
C14B C -0.7626(4) 0.3284(3) 0.30626(10)
H9B H -0.7718 0.2881 0.3456
C15B C -0.9301(5) 0.2895(3) 0.25842(11)
H10B H -1.0526 0.2233 0.2658
C16B C -1.1111(4) 0.2977(3) 0.14937(11)
H11B H -1.0773 0.3453 0.1115
H12B H -1.0973 0.1983 0.1435
H13B H -1.2787 0.3201 0.1598
loop_
_geom_bond_atom_site_label_1
_geom_bond_atom_site_label_2
_geom_bond_site_symmetry_1
_geom_bond_site_symmetry_2
C1 C2 1_555 1_555
C2 C3 1_555 1_555
C3 C4 1_555 1_555
C4 H1 1_555 1_555
C5 C1 1_555 1_555
H2 C5 1_555 1_555
C6 C8 1_555 1_555
C7 C2 1_555 1_555
H3 C7 1_555 1_555
C8 C4 1_555 1_555
H4 C8 1_555 1_555
C9 C5 1_555 1_555
H5 C9 1_555 1_555
C10 C13 1_555 1_555
C11 C7 1_555 1_555
H6 C11 1_555 1_555
C12 C6 1_555 1_555
H7 C12 1_555 1_555
C13 C12 1_555 1_555
H8 C13 1_555 1_555
C14 C6 1_555 1_555
H9 C14 1_555 1_555
C15 C10 1_555 1_555
H10 C15 1_555 1_555
C16 C10 1_555 1_555
H11 C16 1_555 1_555
H12 C16 1_555 1_555
H13 C16 1_555 1_555
C1B C3 1_555 1_555
C2B C1B 1_555 1_555
C3B C1 1_555 1_555
C4B C3B 1_555 1_555
H1B C4B 1_555 1_555
C5B C1B 1_555 1_555
H2B C5B 1_555 1_555
C6B C8B 1_555 1_555
C7B C2B 1_555 1_555
H3B C7B 1_555 1_555
C8B C4B 1_555 1_555
H4B C8B 1_555 1_555
C9B C5B 1_555 1_555
H5B C9B 1_555 1_555
C10B C13B 1_555 1_555
C11B C7B 1_555 1_555
H6B C11B 1_555 1_555
C12B C6B 1_555 1_555
H7B C12B 1_555 1_555
C13B C12B 1_555 1_555
H8B C13B 1_555 1_555
C14B C6B 1_555 1_555
H9B C14B 1_555 1_555
C15B C10B 1_555 1_555
H10B C15B 1_555 1_555
C16B C10B 1_555 1_555
H11B C16B 1_555 1_555
H12B C16B 1_555 1_555
H13B C16B 1_555 1_555
C9 C11 1_555 1_555
C14 C15 1_555 1_555
C2B C3B 1_555 1_555
C9B C11B 1_555 1_555
C14B C15B 1_555 1_555

#END
