
#######################################################################
#
#                 Cambridge Crystallographic Data Centre
#                                CCDC 
#
#######################################################################
#
# If this CIF has been generated from an entry in the Cambridge 
# Structural Database, then it will include bibliographic, chemical, 
# crystal, experimental, refinement or atomic coordinate data resulting 
# from the CCDC's data processing and validation procedures.
#
#######################################################################

data_PUYPOQ
_chemical_formula_moiety         'C18 H18 N2 O5'
_chemical_name_systematic        
'2-(1-oxy-2-(4-methylphenyl)diazen-1-yl)-5-methyl-1,3-phenylene diacetate'
_symmetry_cell_setting           monoclinic
_symmetry_space_group_name_H-M   'P 21/c'
_symmetry_Int_Tables_number      14
_space_group_name_Hall           '-P 2ybc'
loop_
_symmetry_equiv_pos_site_id
_symmetry_equiv_pos_as_xyz
1 x,y,z
2 -x,1/2+y,1/2-z
3 -x,-y,-z
4 x,1/2-y,1/2+z
_cell_length_a                   10.154(3)
_cell_length_b                   8.093(2)
_cell_length_c                   21.720(6)
_cell_angle_alpha                90
_cell_angle_beta                 99.834(5)
_cell_angle_gamma                90
_cell_volume                     1758.64
_exptl_crystal_colour            'light yellow'
_exptl_crystal_description       block
_cell_formula_units_Z            4
loop_
_atom_site_label
_atom_site_type_symbol
_atom_site_fract_x
_atom_site_fract_y
_atom_site_fract_z
O1 O 0.31984(16) 0.6307(2) -0.00198(7)
O2 O 0.04590(15) 0.56747(18) 0.08984(6)
O3 O 0.0053(2) 0.7662(2) 0.15641(8)
O4 O 0.18699(15) 0.9129(2) -0.06361(7)
O5 O 0.14250(19) 0.7796(3) -0.15514(8)
N1 N 0.28988(18) 0.7311(2) 0.09296(8)
N2 N 0.25276(18) 0.6975(2) 0.03537(8)
C1 C 0.7841(3) 0.5658(4) 0.24983(13)
H1 H 0.8144 0.4582 0.2400
H2 H 0.7691 0.5670 0.2923
H3 H 0.8506 0.6466 0.2448
C2 C 0.6556(2) 0.6060(3) 0.20665(11)
C3 C 0.5549(2) 0.6941(3) 0.22729(11)
H4 H 0.5662 0.7281 0.2688
C4 C 0.4376(2) 0.7327(3) 0.18745(10)
H5 H 0.3712 0.7916 0.2025
C5 C 0.4178(2) 0.6844(3) 0.12490(10)
C6 C 0.5196(2) 0.5973(3) 0.10320(10)
H6 H 0.5097 0.5651 0.0616
C7 C 0.6346(2) 0.5598(3) 0.14413(11)
H7 H 0.7013 0.5008 0.1293
C8 C 0.1143(2) 0.7375(3) 0.01121(9)
C9 C 0.0126(2) 0.6740(2) 0.03927(9)
C10 C -0.1183(2) 0.7045(3) 0.01419(10)
H8 H -0.1859 0.6601 0.0331
C11 C -0.1514(2) 0.8013(3) -0.03944(10)
C12 C -0.0498(2) 0.8683(3) -0.06624(10)
H9 H -0.0703 0.9356 -0.1013
C13 C 0.0815(2) 0.8361(3) -0.04145(9)
C14 C -0.2956(3) 0.8313(4) -0.06628(13)
H10 H -0.3022 0.9204 -0.0958
H11 H -0.3434 0.8596 -0.0333
H12 H -0.3334 0.7331 -0.0869
C15 C 0.0462(2) 0.6314(3) 0.14821(10)
C16 C 0.1060(3) 0.5092(4) 0.19600(11)
H13 H 0.1117 0.5565 0.2369
H14 H 0.1939 0.4800 0.1890
H15 H 0.0510 0.4120 0.1929
C17 C 0.2095(3) 0.8732(3) -0.12169(10)
C18 C 0.3292(3) 0.9632(5) -0.13470(15)
H16 H 0.3440 0.9369 -0.1761
H17 H 0.4059 0.9309 -0.1049
H18 H 0.3152 1.0800 -0.1316
loop_
_geom_bond_atom_site_label_1
_geom_bond_atom_site_label_2
_geom_bond_site_symmetry_1
_geom_bond_site_symmetry_2
O1 N2 1_555 1_555
O2 C9 1_555 1_555
O3 C15 1_555 1_555
O4 C13 1_555 1_555
O5 C17 1_555 1_555
N1 N2 1_555 1_555
N2 C8 1_555 1_555
C1 H1 1_555 1_555
H2 C1 1_555 1_555
H3 C1 1_555 1_555
C2 C1 1_555 1_555
C3 C2 1_555 1_555
H4 C3 1_555 1_555
C4 C3 1_555 1_555
H5 C4 1_555 1_555
C5 N1 1_555 1_555
C6 C5 1_555 1_555
H6 C6 1_555 1_555
C7 C2 1_555 1_555
H7 C7 1_555 1_555
C8 C9 1_555 1_555
C9 C10 1_555 1_555
C10 H8 1_555 1_555
C11 C10 1_555 1_555
C12 C11 1_555 1_555
H9 C12 1_555 1_555
C13 C8 1_555 1_555
C14 C11 1_555 1_555
H10 C14 1_555 1_555
H11 C14 1_555 1_555
H12 C14 1_555 1_555
C15 O2 1_555 1_555
C16 C15 1_555 1_555
H13 C16 1_555 1_555
H14 C16 1_555 1_555
H15 C16 1_555 1_555
C17 O4 1_555 1_555
C18 C17 1_555 1_555
H16 C18 1_555 1_555
H17 C18 1_555 1_555
H18 C18 1_555 1_555
C4 C5 1_555 1_555
C6 C7 1_555 1_555
C12 C13 1_555 1_555

#END
