
#######################################################################
#
#                 Cambridge Crystallographic Data Centre
#                                CCDC 
#
#######################################################################
#
# If this CIF has been generated from an entry in the Cambridge 
# Structural Database, then it will include bibliographic, chemical, 
# crystal, experimental, refinement or atomic coordinate data resulting 
# from the CCDC's data processing and validation procedures.
#
#######################################################################

data_PUYPUV
_chemical_formula_moiety         'C6 H1 Cl9 N10 P3 1+,Cl1 1-,C2 H4 Cl2'
_chemical_name_systematic        
'2,5,8-tris(trichlorophosphinimino)-1,3,4,6,7,9,9b-heptaazaphenalen-1-ium chloride 1,2-dichloroethane solvate'
_symmetry_cell_setting           monoclinic
_symmetry_space_group_name_H-M   'P 21/n'
_symmetry_Int_Tables_number      14
_space_group_name_Hall           '-P 2yn'
loop_
_symmetry_equiv_pos_site_id
_symmetry_equiv_pos_as_xyz
1 x,y,z
2 1/2-x,1/2+y,1/2-z
3 -x,-y,-z
4 1/2+x,1/2-y,1/2+z
_cell_length_a                   14.1973(2)
_cell_length_b                   13.6585(2)
_cell_length_c                   14.7835(3)
_cell_angle_alpha                90
_cell_angle_beta                 111.9380(10)
_cell_angle_gamma                90
_cell_volume                     2659.14
_exptl_crystal_colour            colorless
_exptl_crystal_description       polyhedron
_cell_formula_units_Z            4
loop_
_atom_site_label
_atom_site_type_symbol
_atom_site_fract_x
_atom_site_fract_y
_atom_site_fract_z
Cl1 Cl 0.19224(4) 0.53450(4) 0.62268(4)
Cl2 Cl 0.20439(6) 0.54526(4) 0.83787(5)
Cl3 Cl -0.00944(5) 0.55802(5) 0.66266(6)
Cl4 Cl -0.05488(4) 1.12629(4) 0.51936(4)
Cl5 Cl 0.11686(4) 1.26862(5) 0.64249(5)
Cl6 Cl -0.10945(4) 1.32974(3) 0.58792(4)
Cl7 Cl -0.20495(4) 0.70365(4) 1.11036(4)
Cl8 Cl -0.00387(4) 0.62221(4) 1.09768(4)
Cl9 Cl -0.20547(4) 0.61603(4) 0.91282(4)
P1 P 0.13387(5) 0.60235(4) 0.70640(5)
P2 P -0.01746(4) 1.21659(4) 0.63203(4)
P3 P -0.12697(4) 0.69968(4) 1.02588(4)
N1 N 0.11150(12) 0.87465(11) 0.71943(13)
N2 N 0.05327(12) 1.03024(11) 0.72987(13)
N3 N -0.04592(13) 1.06024(11) 0.82883(13)
N4 N -0.07172(13) 0.93247(12) 0.91978(13)
H1 H -0.1132(18) 0.9723(17) 0.9408(18)
N5 N -0.01718(13) 0.77086(11) 0.90741(13)
N6 N 0.06908(13) 0.74251(11) 0.80573(13)
N7 N 0.01551(12) 0.90197(11) 0.81757(12)
N8 N 0.14764(13) 0.71503(11) 0.69567(13)
N9 N -0.02831(13) 1.17898(12) 0.72705(13)
N10 N -0.11264(13) 0.80852(11) 1.00167(13)
C1 C 0.10826(14) 0.77956(14) 0.74187(15)
C2 C 0.06243(14) 0.93607(13) 0.75550(15)
C3 C -0.00455(15) 1.08662(14) 0.76243(15)
C4 C -0.03332(14) 0.96835(13) 0.85532(15)
C5 C -0.06519(14) 0.83522(14) 0.94198(15)
C6 C 0.02368(15) 0.80342(13) 0.84455(15)
Cl10 Cl 0.23970(4) 0.64444(5) 0.23717(4)
Cl11 Cl 0.35295(4) 0.63149(5) 0.07753(5)
C7 C 0.23701(18) 0.73923(17) 0.15213(18)
H2 H 0.1752 0.7795 0.1382
H3 H 0.2968 0.7824 0.1815
C8 C 0.23775(17) 0.69721(17) 0.05891(17)
H4 H 0.2302 0.7508 0.0117
H5 H 0.1792 0.6525 0.0308
Cl12 Cl 0.78948(4) 0.05286(4) 0.98557(4)
loop_
_geom_bond_atom_site_label_1
_geom_bond_atom_site_label_2
_geom_bond_site_symmetry_1
_geom_bond_site_symmetry_2
Cl1 P1 1_555 1_555
Cl2 P1 1_555 1_555
Cl3 P1 1_555 1_555
Cl4 P2 1_555 1_555
Cl5 P2 1_555 1_555
Cl6 P2 1_555 1_555
Cl7 P3 1_555 1_555
Cl8 P3 1_555 1_555
Cl9 P3 1_555 1_555
P1 N8 1_555 1_555
P2 N9 1_555 1_555
P3 N10 1_555 1_555
N1 C1 1_555 1_555
N2 C2 1_555 1_555
N3 C3 1_555 1_555
N4 H1 1_555 1_555
N5 C5 1_555 1_555
N6 C1 1_555 1_555
N7 C2 1_555 1_555
N8 C1 1_555 1_555
N9 C3 1_555 1_555
N10 C5 1_555 1_555
C2 N1 1_555 1_555
C3 N2 1_555 1_555
C4 N3 1_555 1_555
C5 N4 1_555 1_555
C6 N5 1_555 1_555
Cl10 C7 1_555 1_555
Cl11 C8 1_555 1_555
C7 H2 1_555 1_555
H3 C7 1_555 1_555
C8 C7 1_555 1_555
H4 C8 1_555 1_555
H5 C8 1_555 1_555
N4 C4 1_555 1_555
N6 C6 1_555 1_555
N7 C4 1_555 1_555
N7 C6 1_555 1_555

#END
