
#######################################################################
#
#                 Cambridge Crystallographic Data Centre
#                                CCDC 
#
#######################################################################
#
# If this CIF has been generated from an entry in the Cambridge 
# Structural Database, then it will include bibliographic, chemical, 
# crystal, experimental, refinement or atomic coordinate data resulting 
# from the CCDC's data processing and validation procedures.
#
#######################################################################

data_PUYQAC
_chemical_formula_moiety         'C3 Cl9 N6 P3'
_chemical_name_systematic        
2,4,6-tris(trichlorophosphinimino)-1,3,5-triazine
_symmetry_cell_setting           triclinic
_symmetry_space_group_name_H-M   'P -1'
_symmetry_Int_Tables_number      2
_space_group_name_Hall           '-P 1'
loop_
_symmetry_equiv_pos_site_id
_symmetry_equiv_pos_as_xyz
1 x,y,z
2 -x,-y,-z
_cell_length_a                   10.2641(7)
_cell_length_b                   11.7367(8)
_cell_length_c                   15.4861(11)
_cell_angle_alpha                80.333(3)
_cell_angle_beta                 80.019(3)
_cell_angle_gamma                76.390(3)
_cell_volume                     1769.91
_exptl_crystal_colour            colorless
_exptl_crystal_description       plate
_cell_formula_units_Z            4
loop_
_atom_site_label
_atom_site_type_symbol
_atom_site_fract_x
_atom_site_fract_y
_atom_site_fract_z
Cl1 Cl 1.15999(4) 0.09376(4) -0.03078(3)
Cl2 Cl 1.11499(4) 0.31550(4) 0.06871(3)
Cl3 Cl 1.01162(4) 0.34320(4) -0.11379(3)
Cl4 Cl 0.40356(4) 0.30668(3) 0.17520(3)
Cl5 Cl 0.45298(4) 0.09164(3) 0.07142(3)
Cl6 Cl 0.27516(4) 0.08782(4) 0.25616(3)
Cl7 Cl 0.86900(4) -0.07150(3) 0.47574(2)
Cl8 Cl 0.93604(4) -0.26173(3) 0.34621(3)
Cl9 Cl 1.17101(4) -0.18086(3) 0.40868(3)
P1 P 1.02183(4) 0.23836(4) -0.00096(3)
P2 P 0.44405(4) 0.13050(3) 0.19293(2)
P3 P 0.99186(4) -0.11976(3) 0.36803(2)
N1 N 0.71765(12) 0.14642(11) 0.13997(8)
N2 N 0.78446(12) 0.01702(11) 0.26836(8)
N3 N 0.95010(12) 0.09717(11) 0.16248(8)
N4 N 0.87712(13) 0.22203(12) 0.03782(9)
N5 N 0.56061(12) 0.06485(11) 0.24553(8)
N6 N 1.01299(12) -0.02454(11) 0.28769(8)
C1 C 0.84832(14) 0.15267(13) 0.11627(10)
C2 C 0.69256(14) 0.07712(13) 0.21619(10)
C3 C 0.91135(14) 0.03151(12) 0.23759(9)
Cl10 Cl 0.54964(4) 0.88867(3) 0.40853(3)
Cl11 Cl 0.37883(4) 0.80265(3) 0.58545(3)
Cl12 Cl 0.49034(4) 0.63570(3) 0.43899(3)
Cl13 Cl 0.42519(4) 0.24474(4) 0.85313(3)
Cl14 Cl 0.58423(5) 0.37936(4) 0.94376(3)
Cl15 Cl 0.74126(4) 0.18140(3) 0.83131(3)
Cl16 Cl 1.05154(4) 0.75794(3) 0.66436(3)
Cl17 Cl 1.15706(4) 0.55160(3) 0.54735(3)
Cl18 Cl 1.25894(4) 0.53082(4) 0.72860(3)
P4 P 0.54280(4) 0.75087(3) 0.49999(2)
P5 P 0.58547(4) 0.31818(3) 0.83166(3)
P6 P 1.09350(4) 0.58257(3) 0.67179(3)
N7 N 0.62248(12) 0.55663(11) 0.63960(8)
N8 N 0.77949(12) 0.46005(11) 0.74026(8)
N9 N 0.83336(12) 0.61508(11) 0.62810(8)
N10 N 0.67991(12) 0.71462(11) 0.53606(8)
N11 N 0.56944(12) 0.40909(11) 0.74802(8)
N12 N 0.98582(12) 0.51429(11) 0.72456(8)
C4 C 0.71142(13) 0.62572(12) 0.60322(9)
C5 C 0.66156(14) 0.47751(12) 0.70800(9)
C6 C 0.86158(13) 0.53085(12) 0.69601(9)
loop_
_geom_bond_atom_site_label_1
_geom_bond_atom_site_label_2
_geom_bond_site_symmetry_1
_geom_bond_site_symmetry_2
Cl1 P1 1_555 1_555
Cl2 P1 1_555 1_555
Cl3 P1 1_555 1_555
Cl4 P2 1_555 1_555
Cl5 P2 1_555 1_555
Cl6 P2 1_555 1_555
Cl7 P3 1_555 1_555
Cl8 P3 1_555 1_555
Cl9 P3 1_555 1_555
P1 N4 1_555 1_555
P2 N5 1_555 1_555
P3 N6 1_555 1_555
N1 C1 1_555 1_555
N2 C2 1_555 1_555
N3 C1 1_555 1_555
N4 C1 1_555 1_555
N5 C2 1_555 1_555
N6 C3 1_555 1_555
C2 N1 1_555 1_555
C3 N2 1_555 1_555
Cl10 P4 1_555 1_555
Cl11 P4 1_555 1_555
Cl12 P4 1_555 1_555
Cl13 P5 1_555 1_555
Cl14 P5 1_555 1_555
Cl15 P5 1_555 1_555
Cl16 P6 1_555 1_555
Cl17 P6 1_555 1_555
Cl18 P6 1_555 1_555
P4 N10 1_555 1_555
P5 N11 1_555 1_555
P6 N12 1_555 1_555
N7 C4 1_555 1_555
N8 C5 1_555 1_555
N9 C4 1_555 1_555
N10 C4 1_555 1_555
N11 C5 1_555 1_555
N12 C6 1_555 1_555
C5 N7 1_555 1_555
C6 N8 1_555 1_555
N3 C3 1_555 1_555
N9 C6 1_555 1_555

#END
