
#######################################################################
#
#                 Cambridge Crystallographic Data Centre
#                                CCDC 
#
#######################################################################
#
# If this CIF has been generated from an entry in the Cambridge 
# Structural Database, then it will include bibliographic, chemical, 
# crystal, experimental, refinement or atomic coordinate data resulting 
# from the CCDC's data processing and validation procedures.
#
#######################################################################

data_PUYQOQ
_chemical_formula_moiety         
'C18 H15 Cl1 P1 1+,0.79(Br1 1-),0.21(Cl1 1-),C2 H4 Cl2'
_chemical_name_systematic        
'Chloro(triphenyl)phosphonium bromide chloride 1,2-dichloroethane solvate'
_symmetry_cell_setting           cubic
_symmetry_space_group_name_H-M   'P a -3'
_symmetry_Int_Tables_number      205
_space_group_name_Hall           '-P 2ac 2ab 3'
loop_
_symmetry_equiv_pos_site_id
_symmetry_equiv_pos_as_xyz
1 x,y,z
2 1/2-x,-y,1/2+z
3 -x,1/2+y,1/2-z
4 1/2+x,1/2-y,-z
5 z,x,y
6 1/2+z,1/2-x,-y
7 1/2-z,-x,1/2+y
8 -z,1/2+x,1/2-y
9 y,z,x
10 -y,1/2+z,1/2-x
11 1/2+y,1/2-z,-x
12 1/2-y,-z,1/2+x
13 -x,-y,-z
14 1/2+x,y,1/2-z
15 x,1/2-y,1/2+z
16 1/2-x,1/2+y,z
17 -z,-x,-y
18 1/2-z,1/2+x,y
19 1/2+z,x,1/2-y
20 z,1/2-x,1/2+y
21 -y,-z,-x
22 y,1/2-z,1/2+x
23 1/2-y,1/2+z,x
24 1/2+y,z,1/2-x
_cell_length_a                   16.2023(4)
_cell_length_b                   16.2023(4)
_cell_length_c                   16.2023(4)
_cell_angle_alpha                90
_cell_angle_beta                 90
_cell_angle_gamma                90
_cell_volume                     4253.34
_exptl_crystal_colour            colorless
_exptl_crystal_description       piece
_cell_formula_units_Z            8
loop_
_atom_site_label
_atom_site_type_symbol
_atom_site_fract_x
_atom_site_fract_y
_atom_site_fract_z
Br2 Br 0.5000 1.0000 0.0000
Cl3 Cl 0.11919(3) 0.38081(3) 0.61919(3)
P1 P 0.19064(3) 0.30936(3) 0.69064(3)
C1 C 0.27518(14) 0.36985(14) 0.72646(14)
C2 C 0.32092(15) 0.41635(15) 0.67019(15)
H1 H 0.3050 0.4184 0.6138
C3 C 0.38961(15) 0.45947(15) 0.69692(16)
H2 H 0.4209 0.4915 0.6591
C4 C 0.41242(16) 0.45570(16) 0.77912(17)
H3 H 0.4596 0.4852 0.7975
C5 C 0.36745(17) 0.4096(2) 0.83454(16)
H4 H 0.3840 0.4071 0.8907
C6 C 0.29827(16) 0.36691(18) 0.80850(16)
H5 H 0.2668 0.3357 0.8469
C1E C 0.22646(14) 0.22482(14) 0.63015(14)
C1K C 0.13015(14) 0.27354(14) 0.77518(14)
C2E C 0.17019(15) 0.17908(15) 0.58365(15)
C2K C 0.08365(15) 0.32981(15) 0.82092(15)
H1E H 0.1138 0.1950 0.5816
H1K H 0.0816 0.3862 0.8050
C3E C 0.19692(16) 0.11039(15) 0.54053(15)
C3K C 0.04053(15) 0.30308(16) 0.88961(15)
H2E H 0.1591 0.0791 0.5085
H2K H 0.0085 0.3409 0.9209
C4E C 0.27912(17) 0.08758(16) 0.54430(16)
C4K C 0.04430(16) 0.22088(17) 0.91242(16)
H3E H 0.2975 0.0404 0.5148
H3K H 0.0148 0.2025 0.9596
C5E C 0.33454(16) 0.13255(17) 0.5904(2)
C5K C 0.0904(2) 0.16546(16) 0.86745(17)
H4E H 0.3907 0.1160 0.5929
H4K H 0.0929 0.1093 0.8840
C6E C 0.30850(16) 0.20173(16) 0.63309(18)
C6K C 0.13309(18) 0.19150(16) 0.79827(16)
H5E H 0.3469 0.2332 0.6643
H5K H 0.1643 0.1531 0.7668
Br1 Br 1.0000 1.0000 1.0000
Cl1? Cl 1.0000 1.0000 1.0000
Cl2? Cl 0.5000 1.0000 0.0000
Cl4? Cl 0.3674(7) 0.2153(7) 0.9658(7)
C7? C 0.396(3) 0.162(3) 0.879(4)
H6? H 0.3990 0.1989 0.8307
H7? H 0.4510 0.1357 0.8870
C8? C 0.3274(17) 0.0937(19) 0.866(2)
H8? H 0.2721 0.1198 0.8651
H9? H 0.3289 0.0534 0.9121
Cl5? Cl 0.3465(7) 0.0449(5) 0.7742(6)
C9? C 0.352(2) 0.0787(15) 0.8518(18)
C10? C 0.387(3) 0.164(3) 0.883(3)
Cl6? Cl 0.3261(8) 0.1929(7) 0.9644(6)
Cl7? Cl 0.3922(6) 0.0510(6) 0.7577(5)
H10? H 0.2912 0.0824 0.8473
H11? H 0.3652 0.0353 0.8928
H12? H 0.3847 0.2059 0.8383
H13? H 0.4454 0.1581 0.9007
loop_
_geom_bond_atom_site_label_1
_geom_bond_atom_site_label_2
_geom_bond_site_symmetry_1
_geom_bond_site_symmetry_2
Cl3 P1 1_555 1_555
P1 C1 1_555 1_555
C1 C2 1_555 1_555
C2 H1 1_555 1_555
C3 C2 1_555 1_555
H2 C3 1_555 1_555
C4 C3 1_555 1_555
H3 C4 1_555 1_555
C5 C4 1_555 1_555
H4 C5 1_555 1_555
C6 C1 1_555 1_555
H5 C6 1_555 1_555
C1E P1 1_555 1_555
C1K P1 1_555 1_555
C2E C1E 1_555 1_555
C2K C1K 1_555 1_555
H1E C2E 1_555 1_555
H1K C2K 1_555 1_555
C3E C2E 1_555 1_555
C3K C2K 1_555 1_555
H2E C3E 1_555 1_555
H2K C3K 1_555 1_555
C4E C3E 1_555 1_555
C4K C3K 1_555 1_555
H3E C4E 1_555 1_555
H3K C4K 1_555 1_555
C5E C4E 1_555 1_555
C5K C4K 1_555 1_555
H4E C5E 1_555 1_555
H4K C5K 1_555 1_555
C6E C1E 1_555 1_555
C6K C1K 1_555 1_555
H5E C6E 1_555 1_555
H5K C6K 1_555 1_555
C5 C6 1_555 1_555
C5E C6E 1_555 1_555
C5K C6K 1_555 1_555

#END
