
#######################################################################
#
#                 Cambridge Crystallographic Data Centre
#                                CCDC 
#
#######################################################################
#
# If this CIF has been generated from an entry in the Cambridge 
# Structural Database, then it will include bibliographic, chemical, 
# crystal, experimental, refinement or atomic coordinate data resulting 
# from the CCDC's data processing and validation procedures.
#
#######################################################################

data_PUYQUW
_chemical_formula_moiety         
'C39 H33 N6 P2 1+,C6 H16 N1 1+,1.5(C6 H4 Cl2),2(Br1 1-)'
_chemical_name_systematic        
'2-amino-4,6-bis(triphenylphosphinimino)-1,3,5-triazin-5-ium triethylammonium dibromide 1,2-dichlorobenzene solvate'
_symmetry_cell_setting           triclinic
_symmetry_space_group_name_H-M   'P -1'
_symmetry_Int_Tables_number      2
_space_group_name_Hall           '-P 1'
loop_
_symmetry_equiv_pos_site_id
_symmetry_equiv_pos_as_xyz
1 x,y,z
2 -x,-y,-z
_cell_length_a                   14.0193(5)
_cell_length_b                   14.1055(6)
_cell_length_c                   15.1516(6)
_cell_angle_alpha                103.179(2)
_cell_angle_beta                 96.281(2)
_cell_angle_gamma                112.2370(10)
_cell_volume                     2635.91
_exptl_crystal_colour            colorless
_exptl_crystal_description       polyhedron
_cell_formula_units_Z            2
loop_
_atom_site_label
_atom_site_type_symbol
_atom_site_fract_x
_atom_site_fract_y
_atom_site_fract_z
Br1 Br 0.70925(2) 0.15535(2) 0.316490(19)
Br2 Br 0.93600(2) 0.82176(2) 0.02842(2)
P1 P 0.30354(5) -0.13979(5) 0.31115(5)
P2 P 0.51628(5) 0.32803(5) 0.12029(5)
N1 N 0.44960(17) 0.10645(17) 0.23543(15)
H1 H 0.500(2) 0.116(2) 0.2624(19)
N2 N 0.26854(16) -0.00704(16) 0.19234(14)
N3 N 0.34088(16) 0.14860(16) 0.13814(14)
N4 N 0.52386(16) 0.25375(16) 0.18453(15)
N5 N 0.38933(16) -0.03881(16) 0.29000(14)
H2 H 0.156(2) 0.079(2) 0.0726(18)
H3 H 0.113(2) -0.019(2) 0.0969(18)
N6 N 0.16435(18) 0.0412(2) 0.10175(16)
C1 C 0.3654(2) 0.01715(19) 0.23864(17)
C2 C 0.2608(2) 0.06092(19) 0.14479(17)
C3 C 0.43657(19) 0.1704(2) 0.18481(17)
C4 C 0.64884(19) 0.4279(2) 0.14016(18)
C5 C 0.7298(2) 0.4311(2) 0.20444(19)
H4 H 0.7168 0.3777 0.2358
C6 C 0.8305(2) 0.5137(2) 0.2223(2)
H5 H 0.8865 0.5166 0.2658
C7 C 0.8489(2) 0.5915(2) 0.1766(2)
H6 H 0.9171 0.6486 0.1903
C8 C 0.7695(2) 0.5870(2) 0.1116(2)
H7 H 0.7829 0.6398 0.0797
C9 C 0.6701(2) 0.5047(2) 0.09311(19)
H8 H 0.6155 0.5007 0.0474
C10 C 0.4385(2) 0.4035(2) 0.14860(18)
C11 C 0.4862(2) 0.5019(2) 0.21653(18)
H9 H 0.5596 0.5310 0.2428
C12 C 0.4275(2) 0.5580(2) 0.24630(19)
H10 H 0.4604 0.6249 0.2933
C13 C 0.3205(2) 0.5162(2) 0.20728(19)
H11 H 0.2801 0.5546 0.2274
C14 C 0.2730(2) 0.4189(2) 0.1393(2)
H12 H 0.1998 0.3909 0.1123
C15 C 0.3309(2) 0.3614(2) 0.10979(19)
H13 H 0.2974 0.2939 0.0636
C16 C 0.4731(2) 0.2548(2) -0.00149(18)
C17 C 0.4382(2) 0.2952(2) -0.06773(19)
H14 H 0.4353 0.3629 -0.0492
C18 C 0.4079(2) 0.2369(2) -0.1607(2)
H15 H 0.3845 0.2651 -0.2056
C19 C 0.4114(2) 0.1389(2) -0.1885(2)
H16 H 0.3897 0.0991 -0.2524
C20 C 0.4468(2) 0.0981(2) -0.1231(2)
H17 H 0.4499 0.0306 -0.1422
C21 C 0.4773(2) 0.1556(2) -0.03060(19)
H18 H 0.5015 0.1273 0.0139
C22 C 0.3804(2) -0.1762(2) 0.38907(17)
C23 C 0.4899(2) -0.1168(2) 0.41722(18)
H19 H 0.5237 -0.0565 0.3962
C24 C 0.5486(2) -0.1467(2) 0.4760(2)
H20 H 0.6229 -0.1066 0.4951
C25 C 0.4998(2) -0.2345(2) 0.50700(19)
H21 H 0.5405 -0.2542 0.5476
C26 C 0.3916(2) -0.2935(2) 0.4786(2)
H22 H 0.3581 -0.3537 0.5000
C27 C 0.3321(2) -0.2654(2) 0.41961(19)
H23 H 0.2581 -0.3069 0.3997
C28 C 0.23418(19) -0.2562(2) 0.21191(18)
C29 C 0.2786(2) -0.2661(2) 0.13391(18)
H24 H 0.3426 -0.2102 0.1327
C30 C 0.2299(2) -0.3564(2) 0.05887(19)
H25 H 0.2601 -0.3624 0.0059
C31 C 0.1364(2) -0.4390(2) 0.06043(19)
H26 H 0.1031 -0.5015 0.0087
C32 C 0.0924(2) -0.4299(2) 0.13717(19)
H27 H 0.0287 -0.4864 0.1382
C33 C 0.1400(2) -0.3395(2) 0.21252(18)
H28 H 0.1089 -0.3337 0.2650
C34 C 0.20192(19) -0.1194(2) 0.36575(18)
C35 C 0.2118(2) -0.0995(2) 0.46143(19)
H29 H 0.2740 -0.0931 0.4991
C36 C 0.1304(2) -0.0889(2) 0.5018(2)
H30 H 0.1378 -0.0736 0.5673
C37 C 0.0391(2) -0.1008(2) 0.4470(2)
H31 H -0.0171 -0.0958 0.4747
C38 C 0.0286(2) -0.1198(2) 0.3519(2)
H32 H -0.0344 -0.1272 0.3147
C39 C 0.1098(2) -0.1281(2) 0.31076(19)
H33 H 0.1032 -0.1397 0.2457
N7 N 0.8739(2) 0.1571(2) 0.17560(18)
H34 H 0.826(2) 0.160(2) 0.221(2)
C40 C 0.8632(3) 0.0437(3) 0.1430(2)
H35 H 0.9171 0.0419 0.1062
H36 H 0.7928 -0.0017 0.1016
C41 C 0.8763(3) -0.0028(3) 0.2223(2)
H37 H 0.8219 -0.0032 0.2579
H38 H 0.9463 0.0412 0.2630
H39 H 0.8691 -0.0762 0.1972
C42 C 0.9855(3) 0.2300(3) 0.2262(2)
H40 H 1.0067 0.2003 0.2742
H41 H 1.0323 0.2311 0.1817
C43 C 1.0017(3) 0.3420(3) 0.2714(3)
H42 H 1.0700 0.3797 0.3156
H43 H 0.9452 0.3411 0.3044
H44 H 1.0007 0.3789 0.2240
C44 C 0.8394(2) 0.1929(3) 0.0972(2)
H45 H 0.8785 0.1817 0.0480
H46 H 0.8577 0.2706 0.1197
C45 C 0.7222(2) 0.1336(3) 0.0560(2)
H47 H 0.6831 0.1419 0.1049
H48 H 0.7046 0.0574 0.0287
H49 H 0.7030 0.1631 0.0078
Cl1 Cl 0.60462(6) 0.51547(6) 0.43018(5)
Cl2 Cl 0.73512(6) 0.72751(6) 0.38024(5)
C46 C 0.6803(2) 0.6342(2) 0.5168(2)
C47 C 0.7356(2) 0.7278(2) 0.49505(19)
C48 C 0.7913(2) 0.8230(2) 0.56492(19)
H50 H 0.8279 0.8871 0.5499
C49 C 0.7938(2) 0.8246(2) 0.6567(2)
H51 H 0.8319 0.8900 0.7047
C50 C 0.7408(2) 0.7310(2) 0.6788(2)
H52 H 0.7437 0.7321 0.7420
C51 C 0.6836(2) 0.6359(2) 0.6089(2)
H53 H 0.6466 0.5719 0.6240
Cl3? Cl 0.81949(12) 0.46363(14) 0.44767(12)
Cl4? Cl 1.02845(15) 0.66506(13) 0.47361(13)
C52? C 0.9403(3) 0.4631(4) 0.4871(3)
C53? C 1.0321(4) 0.5529(3) 0.5001(4)
C54? C 1.1282(5) 0.5546(4) 0.5339(4)
H54? H 1.1912 0.6174 0.5445
C55? C 1.1320(4) 0.4648(3) 0.5522(4)
H55? H 1.1982 0.4655 0.5753
C56? C 1.0407(3) 0.3739(4) 0.5372(4)
H56? H 1.0439 0.3119 0.5495
C57? C 0.9448(4) 0.3730(5) 0.5043(4)
H57? H 0.8817 0.3102 0.4934
Br3? Br 0.9160(7) 0.8594(8) 0.0780(8)
loop_
_geom_bond_atom_site_label_1
_geom_bond_atom_site_label_2
_geom_bond_site_symmetry_1
_geom_bond_site_symmetry_2
P1 N5 1_555 1_555
P2 N4 1_555 1_555
N1 H1 1_555 1_555
N2 C1 1_555 1_555
N3 C2 1_555 1_555
N4 C3 1_555 1_555
N5 C1 1_555 1_555
H2 N6 1_555 1_555
H3 N6 1_555 1_555
N6 C2 1_555 1_555
C1 N1 1_555 1_555
C2 N2 1_555 1_555
C3 N1 1_555 1_555
C4 P2 1_555 1_555
C5 C4 1_555 1_555
H4 C5 1_555 1_555
C6 C5 1_555 1_555
H5 C6 1_555 1_555
C7 C6 1_555 1_555
H6 C7 1_555 1_555
C8 C7 1_555 1_555
H7 C8 1_555 1_555
C9 C4 1_555 1_555
H8 C9 1_555 1_555
C10 P2 1_555 1_555
C11 C10 1_555 1_555
H9 C11 1_555 1_555
C12 C11 1_555 1_555
H10 C12 1_555 1_555
C13 C12 1_555 1_555
H11 C13 1_555 1_555
C14 C13 1_555 1_555
H12 C14 1_555 1_555
C15 C10 1_555 1_555
H13 C15 1_555 1_555
C16 P2 1_555 1_555
C17 C16 1_555 1_555
H14 C17 1_555 1_555
C18 C17 1_555 1_555
H15 C18 1_555 1_555
C19 C18 1_555 1_555
H16 C19 1_555 1_555
C20 C19 1_555 1_555
H17 C20 1_555 1_555
C21 C16 1_555 1_555
H18 C21 1_555 1_555
C22 P1 1_555 1_555
C23 C22 1_555 1_555
H19 C23 1_555 1_555
C24 C23 1_555 1_555
H20 C24 1_555 1_555
C25 C24 1_555 1_555
H21 C25 1_555 1_555
C26 C25 1_555 1_555
H22 C26 1_555 1_555
C27 C22 1_555 1_555
H23 C27 1_555 1_555
C28 P1 1_555 1_555
C29 C28 1_555 1_555
H24 C29 1_555 1_555
C30 C29 1_555 1_555
H25 C30 1_555 1_555
C31 C30 1_555 1_555
H26 C31 1_555 1_555
C32 C31 1_555 1_555
H27 C32 1_555 1_555
C33 C28 1_555 1_555
H28 C33 1_555 1_555
C34 P1 1_555 1_555
C35 C34 1_555 1_555
H29 C35 1_555 1_555
C36 C35 1_555 1_555
H30 C36 1_555 1_555
C37 C36 1_555 1_555
H31 C37 1_555 1_555
C38 C37 1_555 1_555
H32 C38 1_555 1_555
C39 C34 1_555 1_555
H33 C39 1_555 1_555
N7 H34 1_555 1_555
C40 N7 1_555 1_555
H35 C40 1_555 1_555
H36 C40 1_555 1_555
C41 C40 1_555 1_555
H37 C41 1_555 1_555
H38 C41 1_555 1_555
H39 C41 1_555 1_555
C42 N7 1_555 1_555
H40 C42 1_555 1_555
H41 C42 1_555 1_555
C43 C42 1_555 1_555
H42 C43 1_555 1_555
H43 C43 1_555 1_555
H44 C43 1_555 1_555
C44 N7 1_555 1_555
H45 C44 1_555 1_555
H46 C44 1_555 1_555
C45 C44 1_555 1_555
H47 C45 1_555 1_555
H48 C45 1_555 1_555
H49 C45 1_555 1_555
Cl1 C46 1_555 1_555
Cl2 C47 1_555 1_555
C46 C47 1_555 1_555
C47 C48 1_555 1_555
C48 H50 1_555 1_555
C49 C48 1_555 1_555
H51 C49 1_555 1_555
C50 C49 1_555 1_555
H52 C50 1_555 1_555
C51 C46 1_555 1_555
H53 C51 1_555 1_555
N3 C3 1_555 1_555
C8 C9 1_555 1_555
C14 C15 1_555 1_555
C20 C21 1_555 1_555
C26 C27 1_555 1_555
C32 C33 1_555 1_555
C38 C39 1_555 1_555
C50 C51 1_555 1_555

#END
