
#######################################################################
#
#                 Cambridge Crystallographic Data Centre
#                                CCDC 
#
#######################################################################
#
# If this CIF has been generated from an entry in the Cambridge 
# Structural Database, then it will include bibliographic, chemical, 
# crystal, experimental, refinement or atomic coordinate data resulting 
# from the CCDC's data processing and validation procedures.
#
#######################################################################

data_PUYXOY
_chemical_formula_moiety         'C19 H13 N1 O1'
_chemical_name_systematic        1-(quinolin-8-yl)-2-naphthol
_symmetry_cell_setting           triclinic
_symmetry_space_group_name_H-M   'P -1'
_symmetry_Int_Tables_number      2
_space_group_name_Hall           '-P 1'
loop_
_symmetry_equiv_pos_site_id
_symmetry_equiv_pos_as_xyz
1 x,y,z
2 -x,-y,-z
_cell_length_a                   9.3146(7)
_cell_length_b                   12.5039(10)
_cell_length_c                   13.0244(11)
_cell_angle_alpha                101.811(4)
_cell_angle_beta                 107.920(4)
_cell_angle_gamma                90.902(3)
_cell_volume                     1407.73
_exptl_crystal_colour            colorless
_exptl_crystal_description       cut-block
_cell_formula_units_Z            4
loop_
_atom_site_label
_atom_site_type_symbol
_atom_site_fract_x
_atom_site_fract_y
_atom_site_fract_z
O1 O 1.11660(14) 0.51683(11) 0.15795(11)
N1 N 1.01258(17) 0.25289(12) 0.09511(13)
C1 C 1.0532(3) 0.16625(17) 0.0374(2)
C2 C 1.1627(3) 0.0987(2) 0.0853(3)
C3 C 1.2296(3) 0.1228(2) 0.1963(3)
C4 C 1.1905(2) 0.21447(17) 0.26204(19)
C5 C 1.08053(18) 0.27940(15) 0.20759(15)
C6 C 1.03837(18) 0.37307(15) 0.27013(15)
C7 C 1.1040(2) 0.39750(19) 0.38336(17)
C8 C 1.2133(2) 0.3340(2) 0.4376(2)
C9 C 1.2553(2) 0.2448(2) 0.3785(2)
C10 C 0.92732(18) 0.44443(14) 0.21446(14)
C11 C 0.97185(19) 0.51695(14) 0.16111(14)
C12 C 0.8704(2) 0.58801(15) 0.11123(16)
C13 C 0.7255(2) 0.58452(16) 0.11296(17)
C14 C 0.6719(2) 0.50918(15) 0.16344(15)
C15 C 0.77475(19) 0.43919(14) 0.21595(14)
C16 C 0.7196(2) 0.36309(16) 0.26486(15)
C17 C 0.5710(2) 0.35635(19) 0.26128(18)
C18 C 0.4698(2) 0.4252(2) 0.2091(2)
C19 C 0.5194(2) 0.49990(19) 0.16175(19)
H1 H 1.002(2) 0.1485(17) -0.0438(19)
H2 H 1.139(3) 0.573(2) 0.1279(19)
H3 H 1.185(3) 0.037(2) 0.033(2)
H4 H 1.304(3) 0.078(2) 0.235(2)
H5 H 1.070(2) 0.4611(18) 0.4286(18)
H6 H 1.259(3) 0.3590(18) 0.521(2)
H7 H 1.330(3) 0.197(2) 0.413(2)
H8 H 0.907(2) 0.6373(15) 0.0742(15)
H9 H 0.653(2) 0.6324(17) 0.0748(17)
H10 H 0.789(2) 0.3120(14) 0.2970(14)
H11 H 0.534(2) 0.3004(17) 0.2929(17)
H12 H 0.363(3) 0.4194(18) 0.2063(18)
H13 H 0.448(2) 0.5469(17) 0.1215(17)
O2 O 0.20634(15) 0.67704(10) 0.06320(11)
N2 N 0.1001(2) 0.85472(17) 0.24949(16)
C20 C -0.0289(3) 0.8791(3) 0.2656(3)
C21 C -0.0859(4) 0.8399(3) 0.3394(3)
C22 C -0.0046(3) 0.7724(3) 0.3985(2)
C23 C 0.1352(2) 0.74168(18) 0.38605(17)
C24 C 0.1839(2) 0.78586(16) 0.30838(15)
C25 C 0.3240(2) 0.75942(14) 0.29325(14)
C26 C 0.4098(2) 0.69226(17) 0.35359(16)
C27 C 0.3625(3) 0.6488(2) 0.43068(18)
C28 C 0.2269(3) 0.67353(19) 0.44564(18)
C29 C 0.37703(19) 0.80506(14) 0.21267(14)
C30 C 0.31941(19) 0.76102(14) 0.10120(14)
C31 C 0.3785(2) 0.79761(15) 0.02575(16)
C32 C 0.4891(2) 0.88158(15) 0.06172(16)
C33 C 0.54468(19) 0.93536(14) 0.17464(15)
C34 C 0.48927(19) 0.89546(14) 0.25150(14)
C35 C 0.5446(2) 0.95004(16) 0.36440(16)
C36 C 0.6473(3) 1.03923(18) 0.39924(19)
C37 C 0.7023(3) 1.07894(18) 0.32372(19)
C38 C 0.6521(2) 1.02816(16) 0.21442(18)
H14 H -0.095(4) 0.937(3) 0.218(3)
H15 H 0.138(3) 0.6868(19) 0.001(2)
H16 H -0.190(4) 0.871(3) 0.347(3)
H17 H -0.037(3) 0.741(2) 0.449(2)
H18 H 0.507(2) 0.6729(16) 0.3438(16)
H19 H 0.424(3) 0.599(2) 0.472(2)
H20 H 0.191(2) 0.6452(17) 0.5003(18)
H21 H 0.339(2) 0.7596(15) -0.0515(16)
H22 H 0.531(2) 0.9066(16) 0.0099(17)
H23 H 0.506(2) 0.9216(17) 0.4179(17)
H24 H 0.684(2) 1.0765(18) 0.481(2)
H25 H 0.777(3) 1.146(2) 0.3503(19)
H26 H 0.692(2) 1.0522(16) 0.1609(16)
loop_
_geom_bond_atom_site_label_1
_geom_bond_atom_site_label_2
_geom_bond_site_symmetry_1
_geom_bond_site_symmetry_2
O1 C11 1_555 1_555
N1 C1 1_555 1_555
C1 C2 1_555 1_555
C2 C3 1_555 1_555
C3 C4 1_555 1_555
C4 C5 1_555 1_555
C5 N1 1_555 1_555
C6 C5 1_555 1_555
C7 C6 1_555 1_555
C8 C7 1_555 1_555
C9 C4 1_555 1_555
C10 C6 1_555 1_555
C11 C10 1_555 1_555
C12 C11 1_555 1_555
C13 C12 1_555 1_555
C14 C13 1_555 1_555
C15 C10 1_555 1_555
C16 C15 1_555 1_555
C17 C16 1_555 1_555
C18 C17 1_555 1_555
C19 C14 1_555 1_555
H1 C1 1_555 1_555
H2 O1 1_555 1_555
H3 C2 1_555 1_555
H4 C3 1_555 1_555
H5 C7 1_555 1_555
H6 C8 1_555 1_555
H7 C9 1_555 1_555
H8 C12 1_555 1_555
H9 C13 1_555 1_555
H10 C16 1_555 1_555
H11 C17 1_555 1_555
H12 C18 1_555 1_555
H13 C19 1_555 1_555
O2 C30 1_555 1_555
N2 C20 1_555 1_555
C20 C21 1_555 1_555
C21 C22 1_555 1_555
C22 C23 1_555 1_555
C23 C24 1_555 1_555
C24 N2 1_555 1_555
C25 C24 1_555 1_555
C26 C25 1_555 1_555
C27 C26 1_555 1_555
C28 C23 1_555 1_555
C29 C25 1_555 1_555
C30 C29 1_555 1_555
C31 C30 1_555 1_555
C32 C31 1_555 1_555
C33 C32 1_555 1_555
C34 C29 1_555 1_555
C35 C34 1_555 1_555
C36 C35 1_555 1_555
C37 C36 1_555 1_555
C38 C33 1_555 1_555
H14 C20 1_555 1_555
H15 O2 1_555 1_555
H16 C21 1_555 1_555
H17 C22 1_555 1_555
H18 C26 1_555 1_555
H19 C27 1_555 1_555
H20 C28 1_555 1_555
H21 C31 1_555 1_555
H22 C32 1_555 1_555
H23 C35 1_555 1_555
H24 C36 1_555 1_555
H25 C37 1_555 1_555
H26 C38 1_555 1_555
C8 C9 1_555 1_555
C14 C15 1_555 1_555
C18 C19 1_555 1_555
C27 C28 1_555 1_555
C33 C34 1_555 1_555
C37 C38 1_555 1_555

#END
