
#######################################################################
#
#                 Cambridge Crystallographic Data Centre
#                                CCDC 
#
#######################################################################
#
# If this CIF has been generated from an entry in the Cambridge 
# Structural Database, then it will include bibliographic, chemical, 
# crystal, experimental, refinement or atomic coordinate data resulting 
# from the CCDC's data processing and validation procedures.
#
#######################################################################

data_PUZBUI
_chemical_formula_moiety         'C22 H20 N8'
_chemical_name_systematic        
2,6-dimethyl-2,4,6,8-tetraaza-1,3,5,7(2,6)-tetrapyridinacyclooctaphane
_symmetry_cell_setting           monoclinic
_symmetry_space_group_name_H-M   'C 2/c'
_symmetry_Int_Tables_number      15
_space_group_name_Hall           '-C 2yn'
loop_
_symmetry_equiv_pos_site_id
_symmetry_equiv_pos_as_xyz
1 x,y,z
2 -x,y,1/2-z
3 1/2+x,1/2+y,z
4 1/2-x,1/2+y,1/2-z
5 -x,-y,-z
6 x,-y,1/2+z
7 1/2-x,1/2-y,-z
8 1/2+x,1/2-y,1/2+z
_cell_length_a                   22.734(5)
_cell_length_b                   10.295(2)
_cell_length_c                   17.953(4)
_cell_angle_alpha                90
_cell_angle_beta                 112.86(3)
_cell_angle_gamma                90
_cell_volume                     3871.81
_exptl_crystal_colour            colorless
_exptl_crystal_description       block
_cell_formula_units_Z            8
loop_
_atom_site_label
_atom_site_type_symbol
_atom_site_fract_x
_atom_site_fract_y
_atom_site_fract_z
N1 N 0.48959(11) 0.6103(2) 0.11327(14)
N2 N 0.52995(11) 0.4135(2) 0.17596(14)
H1 H 0.5620 0.3675 0.2093
N3 N 0.43644(11) 0.3009(2) 0.15623(13)
N4 N 0.34007(11) 0.1995(2) 0.14409(14)
N5 N 0.29656(11) 0.4038(2) 0.11132(14)
N6 N 0.26109(12) 0.6128(2) 0.07580(16)
H2 H 0.2395 0.6809 0.0806
N7 N 0.34836(11) 0.7025(2) 0.05653(14)
N8 N 0.43985(12) 0.7945(2) 0.04611(15)
C1 C 0.48916(14) 0.7406(3) 0.11280(16)
C2 C 0.53392(15) 0.8145(3) 0.17318(18)
H3 H 0.5338 0.9067 0.1705
C3 C 0.57860(15) 0.7482(3) 0.23737(18)
H4 H 0.6090 0.7958 0.2806
C4 C 0.57982(15) 0.6144(3) 0.23977(18)
H5 H 0.6108 0.5685 0.2833
C5 C 0.53356(13) 0.5492(3) 0.17543(16)
C6 C 0.47436(13) 0.3517(3) 0.12242(17)
C7 C 0.38218(14) 0.2448(3) 0.10705(17)
C8 C 0.36396(14) 0.2346(3) 0.02427(17)
H6 H 0.3251 0.1933 -0.0085
C9 C 0.40433(14) 0.2867(3) -0.00917(17)
H7 H 0.3935 0.2812 -0.0658
C10 C 0.46003(14) 0.3463(3) 0.03982(17)
H8 H 0.4881 0.3829 0.0178
C11 C 0.36764(16) 0.1081(3) 0.2110(2)
H9 H 0.3352 0.0835 0.2318
H10 H 0.4038 0.1492 0.2542
H11 H 0.3824 0.0304 0.1919
C12 C 0.29708(13) 0.2916(3) 0.14934(16)
C13 C 0.25773(15) 0.2695(3) 0.19171(18)
H12 H 0.2589 0.1895 0.2186
C14 C 0.21699(15) 0.3687(3) 0.19284(18)
H13 H 0.1893 0.3564 0.2205
C15 C 0.21602(14) 0.4851(3) 0.15458(17)
H14 H 0.1883 0.5536 0.1554
C16 C 0.25761(13) 0.4983(3) 0.11437(17)
C17 C 0.29865(14) 0.6233(3) 0.02868(18)
C18 C 0.28152(14) 0.5544(3) -0.04332(18)
H15 H 0.2462 0.4966 -0.0603
C19 C 0.31736(15) 0.5724(3) -0.08930(18)
H16 H 0.3063 0.5287 -0.1395
C20 C 0.36966(14) 0.6549(3) -0.06154(17)
H17 H 0.3950 0.6693 -0.0922
C21 C 0.38387(14) 0.7154(3) 0.01203(17)
C22 C 0.42817(18) 0.9338(3) 0.0455(2)
H18 H 0.4690 0.9799 0.0693
H19 H 0.4023 0.9522 0.0771
H20 H 0.4053 0.9632 -0.0103
loop_
_geom_bond_atom_site_label_1
_geom_bond_atom_site_label_2
_geom_bond_site_symmetry_1
_geom_bond_site_symmetry_2
N1 C1 1_555 1_555
N2 H1 1_555 1_555
N3 C6 1_555 1_555
N4 C7 1_555 1_555
N5 C12 1_555 1_555
N6 H2 1_555 1_555
N7 C17 1_555 1_555
N8 C1 1_555 1_555
C1 C2 1_555 1_555
C2 H3 1_555 1_555
C3 C2 1_555 1_555
H4 C3 1_555 1_555
C4 C3 1_555 1_555
H5 C4 1_555 1_555
C5 N1 1_555 1_555
C6 N2 1_555 1_555
C7 N3 1_555 1_555
C8 C7 1_555 1_555
H6 C8 1_555 1_555
C9 C8 1_555 1_555
H7 C9 1_555 1_555
C10 C6 1_555 1_555
H8 C10 1_555 1_555
C11 N4 1_555 1_555
H9 C11 1_555 1_555
H10 C11 1_555 1_555
H11 C11 1_555 1_555
C12 N4 1_555 1_555
C13 C12 1_555 1_555
H12 C13 1_555 1_555
C14 C13 1_555 1_555
H13 C14 1_555 1_555
C15 C14 1_555 1_555
H14 C15 1_555 1_555
C16 N5 1_555 1_555
C17 N6 1_555 1_555
C18 C17 1_555 1_555
H15 C18 1_555 1_555
C19 C18 1_555 1_555
H16 C19 1_555 1_555
C20 C19 1_555 1_555
H17 C20 1_555 1_555
C21 N7 1_555 1_555
C22 N8 1_555 1_555
H18 C22 1_555 1_555
H19 C22 1_555 1_555
H20 C22 1_555 1_555
N2 C5 1_555 1_555
N6 C16 1_555 1_555
N8 C21 1_555 1_555
C4 C5 1_555 1_555
C9 C10 1_555 1_555
C15 C16 1_555 1_555
C20 C21 1_555 1_555

#END
