
#######################################################################
#
#                 Cambridge Crystallographic Data Centre
#                                CCDC 
#
#######################################################################
#
# If this CIF has been generated from an entry in the Cambridge 
# Structural Database, then it will include bibliographic, chemical, 
# crystal, experimental, refinement or atomic coordinate data resulting 
# from the CCDC's data processing and validation procedures.
#
#######################################################################

data_PUZCIY
_chemical_formula_moiety         'C15 H15 N5 O1'
_chemical_name_systematic        
N-(1H-Benzimidazol-2-ylmethyl)-1-phenylhydrazinecarboxamide
_symmetry_cell_setting           monoclinic
_symmetry_space_group_name_H-M   'P 21/c'
_symmetry_Int_Tables_number      14
_space_group_name_Hall           '-P 2ybc'
loop_
_symmetry_equiv_pos_site_id
_symmetry_equiv_pos_as_xyz
1 x,y,z
2 -x,1/2+y,1/2-z
3 -x,-y,-z
4 x,1/2-y,1/2+z
_cell_length_a                   14.0940(3)
_cell_length_b                   10.0209(2)
_cell_length_c                   10.1067(2)
_cell_angle_alpha                90
_cell_angle_beta                 104.088(2)
_cell_angle_gamma                90
_cell_volume                     1384.48
_cell_formula_units_Z            4
loop_
_atom_site_label
_atom_site_type_symbol
_atom_site_fract_x
_atom_site_fract_y
_atom_site_fract_z
O1 O 0.50114(12) 0.39309(14) 0.35195(15)
N1 N 0.42184(12) 0.05912(15) 0.34030(16)
H1 H 0.4605 0.0332 0.4154
H2 H 0.3821 0.0034 0.2909
N2 N 0.42361(11) 0.19315(15) 0.29822(15)
N3 N 0.54128(11) 0.22056(16) 0.49906(16)
H3 H 0.5364 0.1362 0.5114
N4 N 0.76845(11) 0.25963(15) 0.55290(15)
H4 H 0.7556 0.3000 0.4755
N5 N 0.74743(12) 0.18188(17) 0.75079(15)
C1 C 0.48906(13) 0.27620(18) 0.38247(19)
C2 C 0.60504(14) 0.2991(2) 0.6035(2)
H5 H 0.5801 0.2985 0.6849
H6 H 0.6048 0.3907 0.5725
C3 C 0.70776(14) 0.24792(18) 0.63849(18)
C4 C 0.85465(13) 0.19434(18) 0.61364(18)
C5 C 0.94013(15) 0.1712(2) 0.5734(2)
H7 H 0.9498 0.2049 0.4919
C6 C 1.01036(17) 0.0956(3) 0.6600(3)
H8 H 1.0694 0.0797 0.6371
C7 C 0.99596(18) 0.0428(3) 0.7798(2)
H9 H 1.0447 -0.0097 0.8341
C8 C 0.91114(16) 0.0659(2) 0.8205(2)
H10 H 0.9017 0.0301 0.9012
C9 C 0.84010(14) 0.1449(2) 0.73676(18)
C10 C 0.35462(13) 0.23419(19) 0.17781(19)
C11 C 0.32230(17) 0.3648(2) 0.1560(3)
H11 H 0.3477 0.4305 0.2198
C12 C 0.2522(2) 0.3967(3) 0.0391(3)
H12 H 0.2318 0.4849 0.0247
C13 C 0.21182(19) 0.3026(3) -0.0560(3)
H13 H 0.1636 0.3255 -0.1332
C14 C 0.24419(19) 0.1748(3) -0.0348(3)
H14 H 0.2184 0.1098 -0.0992
C15 C 0.31468(16) 0.1395(2) 0.0808(2)
H15 H 0.3354 0.0513 0.0934
loop_
_geom_bond_atom_site_label_1
_geom_bond_atom_site_label_2
_geom_bond_site_symmetry_1
_geom_bond_site_symmetry_2
O1 C1 1_555 1_555
N1 H1 1_555 1_555
H2 N1 1_555 1_555
N2 N1 1_555 1_555
N3 H3 1_555 1_555
N4 H4 1_555 1_555
N5 C3 1_555 1_555
C1 N2 1_555 1_555
C2 N3 1_555 1_555
H5 C2 1_555 1_555
H6 C2 1_555 1_555
C3 N4 1_555 1_555
C4 N4 1_555 1_555
C5 C4 1_555 1_555
H7 C5 1_555 1_555
C6 C5 1_555 1_555
H8 C6 1_555 1_555
C7 C6 1_555 1_555
H9 C7 1_555 1_555
C8 C7 1_555 1_555
H10 C8 1_555 1_555
C9 N5 1_555 1_555
C10 N2 1_555 1_555
C11 C10 1_555 1_555
H11 C11 1_555 1_555
C12 C11 1_555 1_555
H12 C12 1_555 1_555
C13 C12 1_555 1_555
H13 C13 1_555 1_555
C14 C13 1_555 1_555
H14 C14 1_555 1_555
C15 C10 1_555 1_555
H15 C15 1_555 1_555
N3 C1 1_555 1_555
C2 C3 1_555 1_555
C4 C9 1_555 1_555
C8 C9 1_555 1_555
C14 C15 1_555 1_555

#END
