
#######################################################################
#
#                 Cambridge Crystallographic Data Centre
#                                CCDC 
#
#######################################################################
#
# If this CIF has been generated from an entry in the Cambridge 
# Structural Database, then it will include bibliographic, chemical, 
# crystal, experimental, refinement or atomic coordinate data resulting 
# from the CCDC's data processing and validation procedures.
#
#######################################################################

data_PUZCAP
_chemical_formula_moiety         'C21 H18 N8,2(C1 H4 O1),H2 O1'
_chemical_name_systematic        
'2-methyl-2,4,6,8-tetraaza-1,3,5,7(2,6)-tetrapyridinacyclooctaphane methanol solvate monohydrate'
_symmetry_cell_setting           monoclinic
_symmetry_space_group_name_H-M   'P 21/c'
_symmetry_Int_Tables_number      14
_space_group_name_Hall           '-P 2ybc'
loop_
_symmetry_equiv_pos_site_id
_symmetry_equiv_pos_as_xyz
1 x,y,z
2 -x,1/2+y,1/2-z
3 -x,-y,-z
4 x,1/2-y,1/2+z
_cell_length_a                   13.971(3)
_cell_length_b                   9.757(2)
_cell_length_c                   17.757(4)
_cell_angle_alpha                90
_cell_angle_beta                 102.14(3)
_cell_angle_gamma                90
_cell_volume                     2366.41
_exptl_crystal_colour            colorless
_exptl_crystal_description       block
_cell_formula_units_Z            4
loop_
_atom_site_label
_atom_site_type_symbol
_atom_site_fract_x
_atom_site_fract_y
_atom_site_fract_z
O1 O 0.38127(9) 1.39660(13) 0.33451(7)
H1 H 0.3403 1.4574 0.3067
H2 H 0.3539 1.3185 0.3186
O2 O 0.57217(9) 1.33671(13) 0.39208(8)
H3 H 0.5037 1.3685 0.3668
C22 C 0.57186(19) 1.3283(3) 0.47212(13)
H23 H 0.6269 1.2716 0.4980
H24 H 0.5103 1.2871 0.4789
H25 H 0.5782 1.4205 0.4945
O3 O 1.06041(9) 1.24242(13) 0.19940(7)
H4 H 1.1009 1.2921 0.2360
C23 C 1.09427(13) 1.25822(19) 0.13001(10)
H26 H 1.0591 1.3339 0.1000
H27 H 1.0826 1.1734 0.1000
H28 H 1.1646 1.2783 0.1421
N1 N 0.92112(10) 1.04778(14) 0.22565(8)
H5 H 0.9736 1.1014 0.2229
N2 N 0.83548(9) 0.86474(13) 0.15788(7)
N3 N 0.74921(11) 0.68070(14) 0.09396(7)
N4 N 0.70932(9) 0.63804(13) 0.21404(7)
N5 N 0.65739(10) 0.58795(14) 0.32834(8)
H6 H 0.6359 0.5151 0.3521
N6 N 0.65212(9) 0.82695(13) 0.33443(7)
N7 N 0.65159(10) 1.06515(14) 0.34455(8)
H7 H 0.6186 1.1391 0.3574
N8 N 0.78788(9) 1.04750(13) 0.28699(7)
C1 C 0.81911(16) 1.0046(2) 0.02010(11)
H8 H 0.8156 1.0517 -0.0272
C2 C 0.86349(15) 1.0667(2) 0.08883(11)
H9 H 0.8884 1.1575 0.0899
C3 C 0.83251(14) 0.41117(18) 0.23707(11)
H10 H 0.8751 0.3342 0.2452
C4 C 0.45324(13) 0.8208(2) 0.33473(11)
H11 H 0.3856 0.8185 0.3358
C5 C 0.69462(16) 0.6152(2) 0.02452(11)
H12 H 0.6405 0.6748 0.0001
H13 H 0.6684 0.5275 0.0379
H14 H 0.7382 0.5993 -0.0113
C6 C 0.50321(13) 0.69984(19) 0.32928(11)
H15 H 0.4708 0.6138 0.3259
C7 C 0.87016(11) 0.99179(16) 0.15568(9)
C8 C 0.80882(13) 1.14063(17) 0.41500(10)
H16 H 0.7811 1.1615 0.4581
C9 C 0.90684(13) 1.16910(18) 0.41602(10)
H17 H 0.9469 1.2112 0.4597
C10 C 0.78031(14) 0.87577(19) 0.01999(10)
H18 H 0.7490 0.8329 -0.0268
C11 C 0.50140(12) 0.94416(19) 0.33858(10)
H19 H 0.4679 1.0281 0.3415
C12 C 0.82554(13) 0.49109(17) 0.17160(11)
H20 H 0.8621 0.4696 0.1337
C13 C 0.77769(13) 0.44402(17) 0.28980(10)
H21 H 0.7813 0.3899 0.3348
C14 C 0.94468(12) 1.13568(17) 0.35332(10)
H22 H 1.0113 1.1539 0.3528
C15 C 0.75301(11) 1.08125(15) 0.34959(9)
C16 C 0.71609(11) 0.55876(15) 0.27658(9)
C17 C 0.88269(11) 1.07376(15) 0.28953(9)
C18 C 0.60207(11) 0.70875(16) 0.32895(8)
C19 C 0.78814(11) 0.80893(16) 0.09090(9)
C20 C 0.60177(11) 0.94222(16) 0.33807(8)
C21 C 0.76386(12) 0.60270(15) 0.16323(9)
loop_
_geom_bond_atom_site_label_1
_geom_bond_atom_site_label_2
_geom_bond_site_symmetry_1
_geom_bond_site_symmetry_2
O1 H1 1_555 1_555
H2 O1 1_555 1_555
O2 H3 1_555 1_555
O3 H4 1_555 1_555
N1 H5 1_555 1_555
N2 C7 1_555 1_555
N3 C5 1_555 1_555
N4 C16 1_555 1_555
N5 H6 1_555 1_555
N6 C18 1_555 1_555
N7 H7 1_555 1_555
N8 C15 1_555 1_555
C1 H8 1_555 1_555
C2 C1 1_555 1_555
H9 C2 1_555 1_555
C3 H10 1_555 1_555
C4 H11 1_555 1_555
C5 H12 1_555 1_555
H13 C5 1_555 1_555
H14 C5 1_555 1_555
C6 C4 1_555 1_555
H15 C6 1_555 1_555
C7 N1 1_555 1_555
C8 H16 1_555 1_555
C9 C8 1_555 1_555
H17 C9 1_555 1_555
C10 C1 1_555 1_555
H18 C10 1_555 1_555
C11 C4 1_555 1_555
H19 C11 1_555 1_555
C12 C3 1_555 1_555
H20 C12 1_555 1_555
C13 C3 1_555 1_555
H21 C13 1_555 1_555
C14 C9 1_555 1_555
H22 C14 1_555 1_555
C15 N7 1_555 1_555
C16 N5 1_555 1_555
C17 N1 1_555 1_555
C18 N5 1_555 1_555
C19 N2 1_555 1_555
C20 N6 1_555 1_555
C21 N3 1_555 1_555
C22 O2 1_555 1_555
H23 C22 1_555 1_555
H24 C22 1_555 1_555
H25 C22 1_555 1_555
C23 O3 1_555 1_555
H26 C23 1_555 1_555
H27 C23 1_555 1_555
H28 C23 1_555 1_555
N3 C19 1_555 1_555
N4 C21 1_555 1_555
N7 C20 1_555 1_555
N8 C17 1_555 1_555
C2 C7 1_555 1_555
C6 C18 1_555 1_555
C8 C15 1_555 1_555
C10 C19 1_555 1_555
C11 C20 1_555 1_555
C12 C21 1_555 1_555
C13 C16 1_555 1_555
C14 C17 1_555 1_555

#END
