
#######################################################################
#
#                 Cambridge Crystallographic Data Centre
#                                CCDC 
#
#######################################################################
#
# If this CIF has been generated from an entry in the Cambridge 
# Structural Database, then it will include bibliographic, chemical, 
# crystal, experimental, refinement or atomic coordinate data resulting 
# from the CCDC's data processing and validation procedures.
#
#######################################################################

data_PUZCUK
_chemical_formula_moiety         'C22 H19 N5 O2,C2 H6 O1'
_chemical_name_systematic        
'N-(1H-Benzimidazol-2-ylmethyl)-2-(2-hydroxybenzylidene)-1-phenylhydrazinecarboxamide ethanol solvate'
_symmetry_cell_setting           triclinic
_symmetry_space_group_name_H-M   'P -1'
_symmetry_Int_Tables_number      2
_space_group_name_Hall           '-P 1'
loop_
_symmetry_equiv_pos_site_id
_symmetry_equiv_pos_as_xyz
1 x,y,z
2 -x,-y,-z
_cell_length_a                   10.3571(7)
_cell_length_b                   10.3772(8)
_cell_length_c                   10.7518(7)
_cell_angle_alpha                100.618(6)
_cell_angle_beta                 96.497(5)
_cell_angle_gamma                90.357(6)
_cell_volume                     1128.06
_cell_formula_units_Z            2
loop_
_atom_site_label
_atom_site_type_symbol
_atom_site_fract_x
_atom_site_fract_y
_atom_site_fract_z
O1 O 0.31444(17) 0.88470(19) 0.36873(16)
O2 O -0.10947(16) 0.78615(17) -0.20551(16)
H1 H -0.1672 0.7644 -0.2647
N1 N 0.1997(2) 0.90085(19) 0.05392(18)
N2 N 0.2023(2) 0.8636(2) 0.17216(18)
N3 N 0.3626(2) 1.0237(2) 0.24015(19)
H2 H 0.3456 1.0463 0.1671
N4 N 0.4865(2) 1.2678(2) 0.52591(19)
H3 H 0.5565 1.2379 0.5599
N5 N 0.31376(19) 1.2794(2) 0.3875(2)
C1 C 0.2957(2) 0.9234(2) 0.2670(2)
C2 C 0.4628(2) 1.0947(3) 0.3322(2)
H4 H 0.5312 1.1218 0.2872
H5 H 0.5002 1.0358 0.3860
C3 C 0.4165(2) 1.2128(2) 0.4149(2)
C4 C 0.4257(2) 1.3803(3) 0.5748(2)
C5 C 0.4550(3) 1.4763(3) 0.6830(3)
H6 H 0.5281 1.4717 0.7406
C6 C 0.3711(4) 1.5788(3) 0.7012(3)
H7 H 0.3879 1.6446 0.7729
C7 C 0.2626(3) 1.5860(3) 0.6155(3)
H8 H 0.2081 1.6567 0.6308
C8 C 0.2332(3) 1.4906(3) 0.5074(3)
H9 H 0.1601 1.4958 0.4499
C9 C 0.3171(2) 1.3867(3) 0.4880(2)
C10 C 0.1284(2) 0.7519(2) 0.1888(2)
C11 C 0.1712(3) 0.6277(3) 0.1456(3)
H10 H 0.2483 0.6172 0.1088
C12 C 0.0989(4) 0.5190(3) 0.1573(4)
H11 H 0.1275 0.4353 0.1284
C13 C -0.0143(4) 0.5344(3) 0.2111(3)
H12 H -0.0626 0.4613 0.2194
C14 C -0.0567(3) 0.6574(4) 0.2529(3)
H13 H -0.1337 0.6673 0.2901
C15 C 0.0132(3) 0.7676(3) 0.2407(3)
H14 H -0.0175 0.8511 0.2673
C16 C 0.1054(2) 0.8577(2) -0.0310(2)
H15 H 0.0383 0.8088 -0.0100
C17 C 0.1008(2) 0.8837(2) -0.1599(2)
C18 C 0.2039(2) 0.9444(3) -0.2014(3)
H16 H 0.2756 0.9761 -0.1434
C19 C 0.2019(3) 0.9583(3) -0.3265(3)
H17 H 0.2710 1.0002 -0.3524
C20 C 0.0964(3) 0.9096(3) -0.4131(2)
H18 H 0.0964 0.9157 -0.4984
C21 C -0.0083(3) 0.8525(3) -0.3751(2)
H19 H -0.0795 0.8220 -0.4342
C22 C -0.0086(2) 0.8398(2) -0.2477(2)
O3 O 0.4880(5) 1.1421(4) 0.0231(4)
H20 H 0.5526 1.1024 0.0019
C23 C 0.4602(6) 1.2393(6) -0.0536(6)
H21 H 0.5320 1.3023 -0.0434
H22 H 0.4413 1.1998 -0.1430
C24 C 0.3492(6) 1.2986(8) -0.0048(7)
H23 H 0.3221 1.3673 -0.0499
H24 H 0.3701 1.3348 0.0841
H25 H 0.2802 1.2340 -0.0155
loop_
_geom_bond_atom_site_label_1
_geom_bond_atom_site_label_2
_geom_bond_site_symmetry_1
_geom_bond_site_symmetry_2
O1 C1 1_555 1_555
O2 H1 1_555 1_555
N1 N2 1_555 1_555
N2 C1 1_555 1_555
N3 H2 1_555 1_555
N4 H3 1_555 1_555
N5 C3 1_555 1_555
C1 N3 1_555 1_555
C2 N3 1_555 1_555
H4 C2 1_555 1_555
H5 C2 1_555 1_555
C3 N4 1_555 1_555
C4 N4 1_555 1_555
C5 C4 1_555 1_555
H6 C5 1_555 1_555
C6 C5 1_555 1_555
H7 C6 1_555 1_555
C7 C6 1_555 1_555
H8 C7 1_555 1_555
C8 C7 1_555 1_555
H9 C8 1_555 1_555
C9 N5 1_555 1_555
C10 N2 1_555 1_555
C11 C10 1_555 1_555
H10 C11 1_555 1_555
C12 C11 1_555 1_555
H11 C12 1_555 1_555
C13 C12 1_555 1_555
H12 C13 1_555 1_555
C14 C13 1_555 1_555
H13 C14 1_555 1_555
C15 C10 1_555 1_555
H14 C15 1_555 1_555
C16 N1 1_555 1_555
H15 C16 1_555 1_555
C17 C16 1_555 1_555
C18 C17 1_555 1_555
H16 C18 1_555 1_555
C19 C18 1_555 1_555
H17 C19 1_555 1_555
C20 C19 1_555 1_555
H18 C20 1_555 1_555
C21 C20 1_555 1_555
H19 C21 1_555 1_555
C22 O2 1_555 1_555
O3 H20 1_555 1_555
C23 O3 1_555 1_555
H21 C23 1_555 1_555
H22 C23 1_555 1_555
C24 C23 1_555 1_555
H23 C24 1_555 1_555
H24 C24 1_555 1_555
H25 C24 1_555 1_555
C2 C3 1_555 1_555
C4 C9 1_555 1_555
C8 C9 1_555 1_555
C14 C15 1_555 1_555
C17 C22 1_555 1_555
C21 C22 1_555 1_555

#END
