
#######################################################################
#
#                 Cambridge Crystallographic Data Centre
#                                CCDC 
#
#######################################################################
#
# If this CIF has been generated from an entry in the Cambridge 
# Structural Database, then it will include bibliographic, chemical, 
# crystal, experimental, refinement or atomic coordinate data resulting 
# from the CCDC's data processing and validation procedures.
#
#######################################################################

data_PUZGUM
_chemical_formula_moiety         'C22 H18 N2 O4 S2'
_chemical_name_systematic        
1,7(1,2)-Dibenzena-4,10(2,4)-dithiazola-2,6,8,12-tetraoxacyclododecaphane
_symmetry_cell_setting           monoclinic
_symmetry_space_group_name_H-M   'P 21/c'
_symmetry_Int_Tables_number      14
_space_group_name_Hall           '-P 2ybc'
loop_
_symmetry_equiv_pos_site_id
_symmetry_equiv_pos_as_xyz
1 x,y,z
2 x,1/2-y,1/2+z
3 -x,-y,-z
4 -x,1/2+y,1/2-z
_cell_length_a                   13.0553(15)
_cell_length_b                   5.8297(7)
_cell_length_c                   52.182(5)
_cell_angle_alpha                90
_cell_angle_beta                 93.068(2)
_cell_angle_gamma                90
_cell_volume                     3965.8
_exptl_crystal_colour            colorless
_exptl_crystal_description       needle
_chemical_melting_point          '172-174 deg.C'
_cell_formula_units_Z            8
loop_
_atom_site_label
_atom_site_type_symbol
_atom_site_fract_x
_atom_site_fract_y
_atom_site_fract_z
S1 S 0.3629(2) -1.0351(4) 0.44655(5)
S2 S 0.0975(2) 0.2035(4) 0.46550(4)
O1 O 0.1522(4) -0.6234(9) 0.38591(10)
O2 O 0.3843(4) -0.4750(9) 0.47497(12)
O3 O 0.2143(4) -0.3043(9) 0.48736(9)
O4 O 0.0428(4) -0.2771(9) 0.39492(11)
N1 N 0.3345(5) -0.6781(11) 0.41890(14)
N2 N 0.0371(4) -0.1835(10) 0.44741(14)
C1 C 0.0325(6) -0.3579(15) 0.3701(2)
C2 C -0.0304(6) -0.2688(15) 0.3509(2)
H1 H -0.0714(6) -0.1426(15) 0.3541(2)
C3 C -0.0334(7) -0.3676(21) 0.3265(2)
H2 H -0.0752(7) -0.3048(21) 0.3133(2)
C4 C 0.0241(8) -0.5526(22) 0.3220(2)
H3 H 0.0207(8) -0.6187(22) 0.3058(2)
C5 C 0.0876(6) -0.6461(15) 0.3410(2)
H4 H 0.1272(6) -0.7740(15) 0.3376(2)
C6 C 0.0925(6) -0.5487(15) 0.3653(2)
C7 C 0.2198(6) -0.8151(14) 0.3827(2)
H5 H 0.2658(6) -0.7832(14) 0.3691(2)
H6 H 0.1803(6) -0.9512(14) 0.3780(2)
C8 C 0.2797(6) -0.8528(15) 0.4074(2)
C9 C 0.3816(6) -0.7536(13) 0.4401(2)
C10 C 0.2858(5) -1.0672(14) 0.4199(2)
H7 H 0.2533(5) -1.2017(14) 0.4144(2)
C11 C 0.4455(6) -0.6053(15) 0.4578(2)
H8 H 0.4934(6) -0.7006(15) 0.4679(2)
H9 H 0.4850(6) -0.5003(15) 0.4478(2)
C12 C 0.3403(7) -0.5812(15) 0.4951(2)
C13 C 0.3785(7) -0.7704(16) 0.5078(2)
H10 H 0.4376(7) -0.8414(16) 0.5026(2)
C14 C 0.3295(9) -0.8553(16) 0.5284(2)
H11 H 0.3569(9) -0.9822(16) 0.5372(2)
C15 C 0.2436(8) -0.7609(17) 0.53629(15)
H12 H 0.2114(8) -0.8236(17) 0.55013(15)
C16 C 0.2024(6) -0.5699(16) 0.5239(2)
H13 H 0.1436(6) -0.5010(16) 0.5296(2)
C17 C 0.2500(6) -0.4814(13) 0.5026(2)
C18 C 0.1149(6) -0.2167(14) 0.49169(15)
H14 H 0.1177(6) -0.1167(14) 0.50657(15)
H15 H 0.0678(6) -0.3414(14) 0.49468(15)
C19 C 0.0800(6) -0.0853(13) 0.4681(2)
C20 C 0.0185(5) -0.0201(14) 0.42896(15)
C21 C 0.0448(5) 0.2016(12) 0.43555(14)
H16 H 0.0348(5) 0.3295(12) 0.42507(14)
C22 C -0.0211(6) -0.0936(14) 0.4029(2)
H17 H -0.0916(6) -0.1453(14) 0.4035(2)
H18 H -0.0190(6) 0.0336(14) 0.3910(2)
S3 S 0.4609(2) -1.6246(4) 0.35489(4)
S4 S 0.6769(2) -0.4082(4) 0.31890(4)
O5 O 0.3093(3) -1.1290(8) 0.29407(9)
O6 O 0.5947(4) -1.1347(9) 0.36896(9)
O7 O 0.7291(4) -0.9649(8) 0.34121(11)
O8 O 0.4063(4) -0.8006(8) 0.27398(9)
N3 N 0.3752(5) -1.2342(10) 0.34725(11)
N4 N 0.6162(5) -0.7454(10) 0.29096(11)
C23 C 0.3066(6) -0.8187(13) 0.26589(13)
C24 C 0.2562(6) -0.6750(13) 0.24818(14)
H19 H 0.2910(6) -0.5553(13) 0.24068(14)
C25 C 0.1539(7) -0.7127(16) 0.24191(14)
H20 H 0.1202(7) -0.6174(16) 0.22990(14)
C26 C 0.1005(6) -0.8832(17) 0.2526(2)
H21 H 0.0310(6) -0.9022(17) 0.2482(2)
C27 C 0.1505(6) -1.0309(15) 0.2702(2)
H22 H 0.1148(6) -1.1512(15) 0.2773(2)
C28 C 0.2521(6) -0.9981(13) 0.27708(13)
C29 C 0.2565(5) -1.2894(13) 0.30970(13)
H23 H 0.2275(5) -1.4131(13) 0.29920(13)
H24 H 0.2013(5) -1.2132(13) 0.31806(13)
C30 C 0.3340(5) -1.3819(13) 0.32936(13)
C31 C 0.4440(6) -1.3423(12) 0.36209(14)
C32 C 0.3689(4) -1.6107(11) 0.33034(11)
H25 H 0.3464(4) -1.7306(11) 0.31972(11)
C33 C 0.5105(6) -1.2211(14) 0.38208(14)
H26 H 0.4731(6) -1.0970(14) 0.38971(14)
H27 H 0.5338(6) -1.3266(14) 0.39553(14)
C34 C 0.6519(6) -0.9667(13) 0.3802(2)
C35 C 0.6451(6) -0.8914(15) 0.4053(2)
H28 H 0.5993(6) -0.9599(15) 0.4161(2)
C36 C 0.7079(9) -0.7113(17) 0.4143(2)
H29 H 0.7023(9) -0.6559(17) 0.4309(2)
C37 C 0.7763(8) -0.6179(16) 0.3991(2)
H30 H 0.8189(8) -0.5008(16) 0.4054(2)
C38 C 0.7847(7) -0.6925(14) 0.3741(2)
H31 H 0.8311(7) -0.6228(14) 0.3637(2)
C39 C 0.7245(6) -0.8694(13) 0.3649(2)
C40 C 0.7667(5) -0.8388(13) 0.3199(2)
H32 H 0.7877(5) -0.9458(13) 0.3070(2)
H33 H 0.8264(5) -0.7505(13) 0.3258(2)
C41 C 0.6873(6) -0.6805(12) 0.30823(14)
C42 C 0.5499(6) -0.5653(14) 0.28612(13)
C43 C 0.5706(4) -0.3594(11) 0.29989(11)
H34 H 0.5329(4) -0.2241(11) 0.29869(11)
C44 C 0.4599(6) -0.5962(12) 0.26734(14)
H35 H 0.4146(6) -0.4648(12) 0.26795(14)
H36 H 0.4833(6) -0.6092(12) 0.25007(14)
loop_
_geom_bond_atom_site_label_1
_geom_bond_atom_site_label_2
_geom_bond_site_symmetry_1
_geom_bond_site_symmetry_2
S1 C9 1_555 1_555
S2 C19 1_555 1_555
S3 C31 1_555 1_555
S4 C41 1_555 1_555
O1 C6 1_555 1_555
O2 C11 1_555 1_555
O3 C17 1_555 1_555
O4 C1 1_555 1_555
O5 C28 1_555 1_555
O6 C33 1_555 1_555
O7 C39 1_555 1_555
O8 C23 1_555 1_555
N1 C8 1_555 1_555
N2 C19 1_555 1_555
N3 C30 1_555 1_555
N4 C41 1_555 1_555
C1 C2 1_555 1_555
C2 H1 1_555 1_555
C3 C2 1_555 1_555
H2 C3 1_555 1_555
C4 C3 1_555 1_555
H3 C4 1_555 1_555
C5 C4 1_555 1_555
H4 C5 1_555 1_555
C6 C1 1_555 1_555
C7 O1 1_555 1_555
H5 C7 1_555 1_555
H6 C7 1_555 1_555
C8 C7 1_555 1_555
C9 N1 1_555 1_555
C10 S1 1_555 1_555
H7 C10 1_555 1_555
C11 C9 1_555 1_555
H8 C11 1_555 1_555
H9 C11 1_555 1_555
C12 O2 1_555 1_555
C13 C12 1_555 1_555
H10 C13 1_555 1_555
C14 C13 1_555 1_555
H11 C14 1_555 1_555
C15 C14 1_555 1_555
H12 C15 1_555 1_555
C16 C15 1_555 1_555
H13 C16 1_555 1_555
C17 C12 1_555 1_555
C18 O3 1_555 1_555
H14 C18 1_555 1_555
H15 C18 1_555 1_555
C19 C18 1_555 1_555
C20 N2 1_555 1_555
C21 S2 1_555 1_555
H16 C21 1_555 1_555
C22 O4 1_555 1_555
H17 C22 1_555 1_555
H18 C22 1_555 1_555
C23 C24 1_555 1_555
C24 H19 1_555 1_555
C25 C24 1_555 1_555
H20 C25 1_555 1_555
C26 C25 1_555 1_555
H21 C26 1_555 1_555
C27 C26 1_555 1_555
H22 C27 1_555 1_555
C28 C23 1_555 1_555
C29 O5 1_555 1_555
H23 C29 1_555 1_555
H24 C29 1_555 1_555
C30 C29 1_555 1_555
C31 N3 1_555 1_555
C32 S3 1_555 1_555
H25 C32 1_555 1_555
C33 C31 1_555 1_555
H26 C33 1_555 1_555
H27 C33 1_555 1_555
C34 O6 1_555 1_555
C35 C34 1_555 1_555
H28 C35 1_555 1_555
C36 C35 1_555 1_555
H29 C36 1_555 1_555
C37 C36 1_555 1_555
H30 C37 1_555 1_555
C38 C37 1_555 1_555
H31 C38 1_555 1_555
C39 C34 1_555 1_555
C40 O7 1_555 1_555
H32 C40 1_555 1_555
H33 C40 1_555 1_555
C41 C40 1_555 1_555
C42 N4 1_555 1_555
C43 S4 1_555 1_555
H34 C43 1_555 1_555
C44 O8 1_555 1_555
H35 C44 1_555 1_555
H36 C44 1_555 1_555
C5 C6 1_555 1_555
C8 C10 1_555 1_555
C16 C17 1_555 1_555
C20 C22 1_555 1_555
C20 C21 1_555 1_555
C27 C28 1_555 1_555
C30 C32 1_555 1_555
C38 C39 1_555 1_555
C42 C44 1_555 1_555
C42 C43 1_555 1_555

#END
