
#######################################################################
#
#                 Cambridge Crystallographic Data Centre
#                                CCDC 
#
#######################################################################
#
# If this CIF has been generated from an entry in the Cambridge 
# Structural Database, then it will include bibliographic, chemical, 
# crystal, experimental, refinement or atomic coordinate data resulting 
# from the CCDC's data processing and validation procedures.
#
#######################################################################

data_PUZHEZ
_chemical_formula_moiety         'C33 H25 N3 O3'
_chemical_name_systematic        
2-Amino-4-(4-(bis(4-methylphenyl)amino)phenyl)-5-oxo-4H,5H-pyrano[3,2-c]chromene-3-carbonitrile
_symmetry_cell_setting           monoclinic
_symmetry_space_group_name_H-M   'P 21/c'
_symmetry_Int_Tables_number      14
_space_group_name_Hall           '-P 2ybc'
loop_
_symmetry_equiv_pos_site_id
_symmetry_equiv_pos_as_xyz
1 x,y,z
2 -x,1/2+y,1/2-z
3 -x,-y,-z
4 x,1/2-y,1/2+z
_cell_length_a                   16.9588(13)
_cell_length_b                   7.9246(4)
_cell_length_c                   21.2263(14)
_cell_angle_alpha                90
_cell_angle_beta                 109.207(7)
_cell_angle_gamma                90
_cell_volume                     2693.85
_exptl_crystal_colour            colorless
_exptl_crystal_description       prism
_cell_formula_units_Z            4
loop_
_atom_site_label
_atom_site_type_symbol
_atom_site_fract_x
_atom_site_fract_y
_atom_site_fract_z
C1 C 0.08814(14) 0.8940(3) 0.16432(11)
H1 H 0.0430 0.9755 0.1457
C2 C 0.05896(15) 0.7246(3) 0.13189(11)
C3 C 0.07026(15) 0.5798(3) 0.16662(12)
C4 C 0.10824(14) 0.7280(3) 0.26822(12)
C5 C 0.10174(14) 0.8782(3) 0.23775(12)
C6 C 0.10860(15) 1.0301(3) 0.27694(13)
C7 C 0.13804(16) 0.8567(3) 0.37565(13)
C8 C 0.12581(14) 0.7090(3) 0.33867(12)
C9 C 0.13094(17) 0.5543(3) 0.37137(14)
H2 H 0.1223 0.4541 0.3472
C10 C 0.1489(2) 0.5510(4) 0.43944(15)
H3 H 0.1514 0.4485 0.4614
C11 C 0.1634(2) 0.7004(5) 0.47532(15)
H4 H 0.1768 0.6968 0.5215
C12 C 0.15818(19) 0.8543(4) 0.44404(14)
H5 H 0.1680 0.9541 0.4685
C13 C 0.02082(17) 0.7143(3) 0.06236(14)
C14 C 0.16572(14) 0.9602(3) 0.15090(12)
C15 C 0.24354(17) 0.8877(3) 0.17923(14)
H6 H 0.2490 0.7956 0.2075
C16 C 0.31351(17) 0.9483(4) 0.16680(15)
H7 H 0.3647 0.8949 0.1860
C17 C 0.30839(17) 1.0876(3) 0.12607(14)
C18 C 0.23032(16) 1.1609(3) 0.09786(13)
H8 H 0.2246 1.2549 0.0704
C19 C 0.16146(15) 1.0966(3) 0.10994(12)
H9 H 0.1099 1.1473 0.0896
C20 C 0.46022(18) 1.0854(4) 0.14695(17)
C21 C 0.4989(3) 0.9953(5) 0.1119(2)
H10 H 0.4716 0.9756 0.0667
C22 C 0.5780(3) 0.9320(6) 0.1416(3)
H11 H 0.6029 0.8705 0.1159
C23 C 0.6202(2) 0.9563(5) 0.2064(3)
C24 C 0.5817(3) 1.0486(5) 0.2420(2)
H12 H 0.6095 1.0680 0.2871
C25 C 0.5020(2) 1.1148(5) 0.2128(2)
H13 H 0.4773 1.1786 0.2381
C26 C 0.7071(2) 0.8850(5) 0.2388(3)
H14 H 0.7279 0.9192 0.2847
H15 H 0.7434 0.9267 0.2159
H16 H 0.7049 0.7641 0.2362
C27 C 0.37262(19) 1.2734(4) 0.06257(18)
C28 C 0.3275(2) 1.2393(5) -0.0026(2)
H17 H 0.3000 1.1365 -0.0138
C29 C 0.3227(3) 1.3577(7) -0.0521(2)
H18 H 0.2902 1.3344 -0.0959
C30 C 0.3642(3) 1.5059(8) -0.0379(4)
C31 C 0.4091(3) 1.5354(6) 0.0253(4)
H19 H 0.4387 1.6362 0.0356
C32 C 0.4142(2) 1.4239(5) 0.0766(3)
H20 H 0.4456 1.4510 0.1203
C33 C 0.3585(3) 1.6352(8) -0.0929(3)
H21 H 0.3916 1.7324 -0.0738
H22 H 0.3014 1.6685 -0.1136
H23 H 0.3791 1.5857 -0.1258
O1 O 0.09993(11) 0.57737(19) 0.23508(8)
O2 O 0.13036(12) 1.0129(2) 0.34516(9)
O3 O 0.09812(12) 1.1716(2) 0.25538(9)
N1 N -0.01140(18) 0.7015(3) 0.00598(13)
N2 N 0.05503(14) 0.4223(2) 0.14386(11)
H24 H 0.0353 0.4038 0.1016
H25 H 0.0650 0.3392 0.1714
N3 N 0.37902(14) 1.1547(3) 0.11460(13)
loop_
_geom_bond_atom_site_label_1
_geom_bond_atom_site_label_2
_geom_bond_site_symmetry_1
_geom_bond_site_symmetry_2
C1 H1 1_555 1_555
C2 C1 1_555 1_555
C3 C2 1_555 1_555
C4 C5 1_555 1_555
C5 C1 1_555 1_555
C6 C5 1_555 1_555
C7 C8 1_555 1_555
C8 C4 1_555 1_555
C9 C8 1_555 1_555
H2 C9 1_555 1_555
C10 C9 1_555 1_555
H3 C10 1_555 1_555
C11 C10 1_555 1_555
H4 C11 1_555 1_555
C12 C7 1_555 1_555
H5 C12 1_555 1_555
C13 C2 1_555 1_555
C14 C1 1_555 1_555
C15 C14 1_555 1_555
H6 C15 1_555 1_555
C16 C15 1_555 1_555
H7 C16 1_555 1_555
C17 C16 1_555 1_555
C18 C17 1_555 1_555
H8 C18 1_555 1_555
C19 C14 1_555 1_555
H9 C19 1_555 1_555
C20 C21 1_555 1_555
C21 H10 1_555 1_555
C22 C21 1_555 1_555
H11 C22 1_555 1_555
C23 C22 1_555 1_555
C24 C23 1_555 1_555
H12 C24 1_555 1_555
C25 C20 1_555 1_555
H13 C25 1_555 1_555
C26 C23 1_555 1_555
H14 C26 1_555 1_555
H15 C26 1_555 1_555
H16 C26 1_555 1_555
C27 C28 1_555 1_555
C28 H17 1_555 1_555
C29 C28 1_555 1_555
H18 C29 1_555 1_555
C30 C29 1_555 1_555
C31 C30 1_555 1_555
H19 C31 1_555 1_555
C32 C27 1_555 1_555
H20 C32 1_555 1_555
C33 C30 1_555 1_555
H21 C33 1_555 1_555
H22 C33 1_555 1_555
H23 C33 1_555 1_555
O1 C3 1_555 1_555
O2 C6 1_555 1_555
O3 C6 1_555 1_555
N1 C13 1_555 1_555
N2 C3 1_555 1_555
H24 N2 1_555 1_555
H25 N2 1_555 1_555
N3 C17 1_555 1_555
C4 O1 1_555 1_555
C7 O2 1_555 1_555
C11 C12 1_555 1_555
C18 C19 1_555 1_555
C20 N3 1_555 1_555
C24 C25 1_555 1_555
C27 N3 1_555 1_555
C31 C32 1_555 1_555

#END
