
#######################################################################
#
#                 Cambridge Crystallographic Data Centre
#                                CCDC 
#
#######################################################################
#
# If this CIF has been generated from an entry in the Cambridge 
# Structural Database, then it will include bibliographic, chemical, 
# crystal, experimental, refinement or atomic coordinate data resulting 
# from the CCDC's data processing and validation procedures.
#
#######################################################################

data_PUZKOL
_chemical_formula_moiety         '2(C66 H72 N12),15(C1 H2 Cl2)'
_chemical_name_systematic        
'(2)-bis(5,11,19,25,33,39,47,53,58,64,69,75-Dodeca-azatridecacyclo[27.27.9.9^15,43^.1^3,55^.1^13,17^.1^27,31^.1^41,45^.0^6,10^.0^20,24^.0^34,38^.0^48,52^.0^59,63^.0^70,74^]octaheptaconta-1,3(66),4,11,13(78),14,16,18,25,27(77),28,30,32,39,41(67),42,44,46,53,55,57,64,68,75-tetracosaene) dichloromethane solvate'
_symmetry_cell_setting           orthorhombic
_symmetry_space_group_name_H-M   'C 2 2 21'
_symmetry_Int_Tables_number      20
_space_group_name_Hall           'C 2n 2'
loop_
_symmetry_equiv_pos_site_id
_symmetry_equiv_pos_as_xyz
1 x,y,z
2 -x,-y,1/2+z
3 x,-y,-z
4 -x,y,1/2-z
5 1/2+x,1/2+y,z
6 1/2-x,1/2-y,1/2+z
7 1/2+x,1/2-y,-z
8 1/2-x,1/2+y,1/2-z
_cell_length_a                   16.861(3)
_cell_length_b                   32.059(6)
_cell_length_c                   29.480(6)
_cell_angle_alpha                90
_cell_angle_beta                 90
_cell_angle_gamma                90
_cell_volume                     15935.3
_exptl_crystal_colour            colorless
_exptl_crystal_description       prism
_cell_formula_units_Z            4
loop_
_atom_site_label
_atom_site_type_symbol
_atom_site_fract_x
_atom_site_fract_y
_atom_site_fract_z
N1 N -0.0258(4) 0.37455(17) 0.3300(2)
N2 N 0.2532(4) 0.33550(17) 0.5510(2)
N3 N 0.0551(3) 0.56877(18) 0.5212(2)
N4 N 0.3408(4) 0.54169(19) 0.24107(19)
N5 N 0.5307(4) 0.3813(2) 0.3168(2)
N6 N 0.5331(4) 0.55497(18) 0.42983(19)
N7 N 0.0745(4) 0.30006(19) 0.3627(2)
N8 N 0.2677(4) 0.42078(17) 0.60323(19)
N9 N -0.0249(4) 0.55739(19) 0.4249(2)
N10 N 0.1615(3) 0.52804(17) 0.23683(19)
N11 N 0.4553(4) 0.3093(2) 0.3675(2)
N12 N 0.4351(4) 0.57950(18) 0.51507(19)
C1 C 0.0303(4) 0.4425(2) 0.3209(2)
C2 C 0.1841(5) 0.3134(2) 0.4141(3)
C3 C 0.2353(4) 0.4875(2) 0.5726(2)
C4 C 0.4197(4) 0.4983(2) 0.2919(2)
C5 C 0.0704(4) 0.4696(2) 0.2926(2)
C6 C 0.2034(5) 0.3223(2) 0.4596(3)
C7 C 0.1752(4) 0.5135(2) 0.5580(3)
C8 C 0.4538(4) 0.4603(2) 0.2987(3)
C9 C 0.0767(4) 0.51219(19) 0.3000(2)
C10 C 0.2809(4) 0.32615(19) 0.4729(2)
C11 C 0.1910(4) 0.5508(2) 0.5362(2)
C12 C 0.5060(5) 0.4519(2) 0.3350(3)
C13 C 0.0442(4) 0.5275(2) 0.3396(2)
C14 C 0.3406(5) 0.3224(2) 0.4402(3)
C15 C 0.2712(4) 0.5627(2) 0.5291(2)
C16 C 0.5193(5) 0.4851(2) 0.3653(2)
C17 C 0.0023(4) 0.5028(2) 0.3702(2)
C18 C 0.3210(5) 0.3142(3) 0.3944(3)
C19 C 0.3304(4) 0.5365(2) 0.5436(2)
C20 C 0.4825(5) 0.5243(2) 0.3599(2)
C21 C -0.0021(4) 0.4598(2) 0.3620(2)
C22 C 0.2406(5) 0.3107(3) 0.3826(3)
C23 C 0.3136(4) 0.4999(2) 0.5656(2)
C24 C 0.4338(4) 0.5300(2) 0.3228(2)
C25 C 0.0237(5) 0.4000(2) 0.3106(2)
C26 C 0.0986(5) 0.3118(2) 0.4015(3)
C27 C 0.2144(4) 0.4465(2) 0.5911(2)
C28 C 0.3675(4) 0.5059(2) 0.2526(2)
C29 C 0.1233(4) 0.5403(2) 0.2707(3)
C30 C 0.3031(5) 0.3352(2) 0.5194(2)
C31 C 0.1274(5) 0.5756(2) 0.5151(2)
C32 C 0.5395(5) 0.4115(2) 0.3428(2)
C33 C -0.0285(4) 0.5183(2) 0.4128(2)
C34 C 0.3837(5) 0.3100(3) 0.3592(3)
C35 C 0.4158(4) 0.5463(2) 0.5341(2)
C36 C 0.4936(4) 0.5582(2) 0.3931(2)
C37 C -0.0280(4) 0.3330(2) 0.3141(3)
C38 C 0.2820(4) 0.3443(2) 0.5971(2)
C39 C -0.0016(4) 0.5943(2) 0.4968(3)
C40 C 0.2891(5) 0.5450(2) 0.2016(3)
C41 C 0.5671(5) 0.3407(2) 0.3279(3)
C42 C 0.5401(5) 0.5922(3) 0.4567(3)
C43 C -0.1125(5) 0.3173(3) 0.3006(3)
C44 C 0.2596(6) 0.3061(2) 0.6286(3)
C45 C -0.0578(5) 0.6191(2) 0.5294(3)
C46 C 0.3184(5) 0.5783(2) 0.1683(3)
C47 C 0.6286(6) 0.3257(3) 0.2938(3)
C48 C 0.6257(6) 0.6074(3) 0.4573(3)
C49 C -0.1084(7) 0.2707(3) 0.3010(4)
C50 C 0.2605(7) 0.3258(3) 0.6773(3)
C51 C -0.1402(7) 0.6137(5) 0.5133(5)
C52 C 0.2439(5) 0.5857(3) 0.1379(3)
C53 C 0.6298(6) 0.2803(3) 0.2961(4)
C54 C 0.6295(6) 0.6331(4) 0.5028(4)
C55 C -0.0408(6) 0.2585(3) 0.3334(3)
C56 C 0.2598(6) 0.3729(3) 0.6704(3)
C57 C -0.1325(5) 0.5947(3) 0.4667(3)
C58 C 0.1747(5) 0.5679(3) 0.1644(3)
C59 C 0.5643(6) 0.2682(3) 0.3278(3)
C60 C 0.5538(5) 0.6251(3) 0.5280(3)
C61 C -0.0090(4) 0.3013(2) 0.3536(2)
C62 C 0.2395(4) 0.3806(2) 0.6205(2)
C63 C -0.0595(5) 0.5672(2) 0.4686(2)
C64 C 0.2062(4) 0.5598(2) 0.2126(2)
C65 C 0.5098(5) 0.3069(2) 0.3281(3)
C66 C 0.5209(5) 0.5847(2) 0.5071(2)
H1 H 0.09530 0.45830 0.26650
H2 H 0.16220 0.32550 0.48140
H3 H 0.12160 0.50570 0.56320
H4 H 0.44190 0.43850 0.27800
H5 H 0.05060 0.55630 0.34630
H6 H 0.39460 0.32530 0.44880
H7 H 0.28360 0.58840 0.51470
H8 H 0.55420 0.48100 0.39020
H9 H -0.02650 0.44200 0.38360
H10 H 0.22630 0.30630 0.35180
H11 H 0.35570 0.48280 0.57630
H12 H 0.40920 0.55640 0.31840
H13 H 0.05780 0.38910 0.28790
H14 H 0.06040 0.32000 0.42350
H15 H 0.16020 0.43900 0.59410
H16 H 0.35260 0.48260 0.23460
H17 H 0.12450 0.56920 0.27800
H18 H 0.35700 0.34110 0.52610
H19 H 0.14200 0.59810 0.49580
H20 H 0.57030 0.40760 0.36940
H21 H -0.05250 0.49890 0.43300
H22 H 0.36750 0.30760 0.32840
H23 H 0.45570 0.52700 0.54270
H24 H 0.46950 0.58430 0.38660
H25 H 0.01000 0.32920 0.28840
H26 H 0.34070 0.34890 0.59700
H27 H 0.02710 0.61410 0.47640
H28 H 0.28630 0.51750 0.18580
H29 H 0.59240 0.34260 0.35850
H30 H 0.50480 0.61450 0.44420
H31 H -0.05260 0.60840 0.56070
H32 H -0.04350 0.64900 0.52930
H33 H -0.15260 0.32730 0.32260
H34 H -0.12700 0.32750 0.27000
H35 H 0.20650 0.29500 0.62100
H36 H 0.29920 0.28340 0.62600
H37 H 0.36380 0.56800 0.15020
H38 H 0.33410 0.60410 0.18440
H39 H 0.63720 0.62540 0.43070
H40 H 0.66340 0.58380 0.45770
H41 H 0.61420 0.33500 0.26290
H42 H 0.68150 0.33710 0.30150
H43 H 0.21340 0.31690 0.69470
H44 H 0.30880 0.31720 0.69400
H45 H 0.67560 0.62410 0.52120
H46 H 0.63510 0.66320 0.49630
H47 H 0.23610 0.61580 0.13220
H48 H 0.24980 0.57120 0.10850
H49 H -0.09770 0.26000 0.27010
H50 H -0.15930 0.25890 0.31180
H51 H 0.68160 0.27040 0.30770
H52 H 0.62080 0.26820 0.26560
H53 H -0.16780 0.64090 0.51180
H54 H -0.17010 0.59500 0.53380
H55 H 0.31240 0.38490 0.67770
H56 H 0.21970 0.38610 0.69030
H57 H 0.15600 0.54160 0.15050
H58 H 0.13010 0.58800 0.16520
H59 H 0.00190 0.24370 0.31670
H60 H -0.06060 0.24010 0.35790
H61 H -0.12620 0.61670 0.44340
H62 H -0.18010 0.57790 0.45920
H63 H 0.51610 0.64840 0.52390
H64 H 0.56410 0.62140 0.56090
H65 H 0.58520 0.26230 0.35850
H66 H 0.53570 0.24330 0.31650
H67 H -0.03900 0.30890 0.38170
H68 H 0.18100 0.37820 0.61590
H69 H -0.07180 0.54090 0.48530
H70 H 0.20790 0.58640 0.23040
H71 H 0.47820 0.30770 0.29940
H72 H 0.55070 0.56000 0.51870
Cl1 Cl 0.49023(15) 0.64349(7) 0.29926(9)
C67 C 0.50000 0.6139(3) 0.25000
H73 H 0.54710 0.59560 0.25310
Cl1C Cl 0.50977(15) 0.64349(7) 0.20074(9)
H73C H 0.45290 0.59560 0.24690
Cl2 Cl 0.5232(2) 0.14619(9) 0.30993(12)
Cl3 Cl 0.4128(2) 0.18007(11) 0.37565(14)
C68 C 0.4979(7) 0.1508(4) 0.3633(5)
H74 H 0.54310 0.16360 0.37980
H75 H 0.49030 0.12250 0.37580
Cl4 Cl 0.5723(2) 0.21565(10) 0.45249(11)
Cl5 Cl 0.5027(4) 0.26729(14) 0.52146(17)
C69 C 0.4998(10) 0.2500(3) 0.4642(5)
H76 H 0.44770 0.23690 0.45820
H77 H 0.50500 0.27440 0.44380
loop_
_geom_bond_atom_site_label_1
_geom_bond_atom_site_label_2
_geom_bond_site_symmetry_1
_geom_bond_site_symmetry_2
N1 C25 1_555 1_555
N2 C30 1_555 1_555
N3 C31 1_555 1_555
N4 C28 1_555 1_555
N5 C32 1_555 1_555
N6 C36 1_555 1_555
N7 C26 1_555 1_555
N8 C27 1_555 1_555
N9 C33 1_555 1_555
N10 C29 1_555 1_555
N11 C34 1_555 1_555
N12 C35 1_555 1_555
C1 C5 1_555 1_555
C2 C6 1_555 1_555
C3 C7 1_555 1_555
C4 C8 1_555 1_555
C5 C9 1_555 1_555
C6 C10 1_555 1_555
C7 C11 1_555 1_555
C8 C12 1_555 1_555
C9 C13 1_555 1_555
C10 C14 1_555 1_555
C11 C15 1_555 1_555
C12 C16 1_555 1_555
C13 C17 1_555 1_555
C14 C18 1_555 1_555
C15 C19 1_555 1_555
C16 C20 1_555 1_555
C17 C21 1_555 1_555
C18 C22 1_555 1_555
C19 C23 1_555 1_555
C20 C24 1_555 1_555
C21 C1 1_555 1_555
C22 C2 1_555 1_555
C23 C3 1_555 1_555
C24 C4 1_555 1_555
C25 C1 1_555 1_555
C26 C2 1_555 1_555
C27 C3 1_555 1_555
C28 C4 1_555 1_555
C29 C9 1_555 1_555
C30 C10 1_555 1_555
C31 C11 1_555 1_555
C32 C12 1_555 1_555
C33 C17 1_555 1_555
C34 C18 1_555 1_555
C35 C19 1_555 1_555
C36 C20 1_555 1_555
C37 N1 1_555 1_555
C38 N2 1_555 1_555
C39 N3 1_555 1_555
C40 N4 1_555 1_555
C41 N5 1_555 1_555
C42 N6 1_555 1_555
C43 C37 1_555 1_555
C44 C38 1_555 1_555
C45 C39 1_555 1_555
C46 C40 1_555 1_555
C47 C41 1_555 1_555
C48 C42 1_555 1_555
C49 C43 1_555 1_555
C50 C44 1_555 1_555
C51 C45 1_555 1_555
C52 C46 1_555 1_555
C53 C47 1_555 1_555
C54 C48 1_555 1_555
C55 C49 1_555 1_555
C56 C50 1_555 1_555
C57 C51 1_555 1_555
C58 C52 1_555 1_555
C59 C53 1_555 1_555
C60 C54 1_555 1_555
C61 N7 1_555 1_555
C62 N8 1_555 1_555
C63 N9 1_555 1_555
C64 N10 1_555 1_555
C65 N11 1_555 1_555
C66 N12 1_555 1_555
Cl1 C67 1_555 1_555
C67 H73 1_555 1_555
Cl2 C68 1_555 1_555
Cl3 C68 1_555 1_555
C68 H74 1_555 1_555
Cl4 C69 1_555 1_555
Cl5 C69 1_555 1_555
C69 H76 1_555 1_555
H1 C5 1_555 1_555
H2 C6 1_555 1_555
H3 C7 1_555 1_555
H4 C8 1_555 1_555
H5 C13 1_555 1_555
H6 C14 1_555 1_555
H7 C15 1_555 1_555
H8 C16 1_555 1_555
H9 C21 1_555 1_555
H10 C22 1_555 1_555
H11 C23 1_555 1_555
H12 C24 1_555 1_555
H13 C25 1_555 1_555
H14 C26 1_555 1_555
H15 C27 1_555 1_555
H16 C28 1_555 1_555
H17 C29 1_555 1_555
H18 C30 1_555 1_555
H19 C31 1_555 1_555
H20 C32 1_555 1_555
H21 C33 1_555 1_555
H22 C34 1_555 1_555
H23 C35 1_555 1_555
H24 C36 1_555 1_555
H25 C37 1_555 1_555
H26 C38 1_555 1_555
H27 C39 1_555 1_555
H28 C40 1_555 1_555
H29 C41 1_555 1_555
H30 C42 1_555 1_555
H31 C45 1_555 1_555
H32 C45 1_555 1_555
H33 C43 1_555 1_555
H34 C43 1_555 1_555
H35 C44 1_555 1_555
H36 C44 1_555 1_555
H37 C46 1_555 1_555
H38 C46 1_555 1_555
H39 C48 1_555 1_555
H40 C48 1_555 1_555
H41 C47 1_555 1_555
H42 C47 1_555 1_555
H43 C50 1_555 1_555
H44 C50 1_555 1_555
H45 C54 1_555 1_555
H46 C54 1_555 1_555
H47 C52 1_555 1_555
H48 C52 1_555 1_555
H49 C49 1_555 1_555
H50 C49 1_555 1_555
H51 C53 1_555 1_555
H52 C53 1_555 1_555
H53 C51 1_555 1_555
H54 C51 1_555 1_555
H55 C56 1_555 1_555
H56 C56 1_555 1_555
H57 C58 1_555 1_555
H58 C58 1_555 1_555
H59 C55 1_555 1_555
H60 C55 1_555 1_555
H61 C57 1_555 1_555
H62 C57 1_555 1_555
H63 C60 1_555 1_555
H64 C60 1_555 1_555
H65 C59 1_555 1_555
H66 C59 1_555 1_555
H67 C61 1_555 1_555
H68 C62 1_555 1_555
H69 C63 1_555 1_555
H70 C64 1_555 1_555
H71 C65 1_555 1_555
H72 C66 1_555 1_555
H75 C68 1_555 1_555
H77 C69 1_555 1_555
Cl1C C67 1_555 1_555
H73C C67 1_555 1_555
C37 C61 1_555 1_555
C38 C62 1_555 1_555
C39 C63 1_555 1_555
C40 C64 1_555 1_555
C41 C65 1_555 1_555
C42 C66 1_555 1_555
C55 C61 1_555 1_555
C56 C62 1_555 1_555
C57 C63 1_555 1_555
C58 C64 1_555 1_555
C59 C65 1_555 1_555
C60 C66 1_555 1_555

#END
