
#######################################################################
#
#                 Cambridge Crystallographic Data Centre
#                                CCDC 
#
#######################################################################
#
# If this CIF has been generated from an entry in the Cambridge 
# Structural Database, then it will include bibliographic, chemical, 
# crystal, experimental, refinement or atomic coordinate data resulting 
# from the CCDC's data processing and validation procedures.
#
#######################################################################

data_PUZLAY
_chemical_formula_moiety         'C48 H48 N12,4(C9 H12)'
_chemical_name_systematic        
'5,8,16,19,27,30,38,41,46,49,54,57-Dodeca-azaheptacyclo[21.21.6.6^12,34^.1^3,43^.1^10,14^.1^21,25^.1^32,36^]hexaconta-1,3(51),4,8,10(60),11,13,15,19,21(59),22,24,26,30,32(52),33,35,37,41,43,45,49,53,57-tetracosaene mesitylene clathrate mesitylene solvate'
_symmetry_cell_setting           triclinic
_symmetry_space_group_name_H-M   'P -1'
_symmetry_Int_Tables_number      2
_space_group_name_Hall           '-P 1'
loop_
_symmetry_equiv_pos_site_id
_symmetry_equiv_pos_as_xyz
1 x,y,z
2 -x,-y,-z
_cell_length_a                   10.8757(17)
_cell_length_b                   14.151(2)
_cell_length_c                   26.065(4)
_cell_angle_alpha                92.550(3)
_cell_angle_beta                 99.061(3)
_cell_angle_gamma                104.570(3)
_cell_volume                     3819.13
_exptl_crystal_colour            colorless
_exptl_crystal_description       prism
_cell_formula_units_Z            2
loop_
_atom_site_label
_atom_site_type_symbol
_atom_site_fract_x
_atom_site_fract_y
_atom_site_fract_z
N1 N 1.2095(4) 1.0305(4) 0.12313(16)
N2 N 0.9738(4) 1.0634(3) 0.05907(16)
N3 N 0.3905(4) 0.6407(3) 0.10862(19)
N4 N 0.4431(5) 0.6576(3) 0.35859(17)
N5 N 0.6289(4) 1.2445(4) 0.19791(17)
N6 N 1.3084(4) 1.0420(3) 0.37447(17)
N7 N 0.3924(5) 0.8299(4) 0.06126(17)
N8 N 0.8607(5) 0.5137(3) 0.24814(18)
N9 N 1.1205(4) 0.6319(4) 0.23662(18)
C1 C 1.1940(5) 0.8069(4) 0.2576(2)
N10 N 0.6320(4) 1.2356(3) 0.31443(17)
N11 N 0.5643(4) 0.8378(3) 0.42846(15)
N12 N 1.1321(4) 1.1239(3) 0.42919(15)
C2 C 1.2594(5) 0.9792(4) 0.2851(2)
C3 C 1.2036(5) 0.9258(4) 0.1935(2)
C4 C 0.7979(5) 0.9880(4) 0.41979(18)
H1 H 0.8118 0.9334 0.4375
C5 C 1.0348(5) 1.0557(4) 0.43292(18)
H2 H 1.0473 0.9994 0.4493
C6 C 0.5568(5) 0.9154(4) 0.40720(19)
H3 H 0.4738 0.9240 0.3945
C7 C 0.9209(6) 1.1182(4) 0.0832(2)
H4 H 0.9701 1.1828 0.0959
C8 C 0.9017(5) 1.0605(4) 0.41265(19)
C9 C 0.6539(5) 1.0713(4) 0.37330(19)
H5 H 0.5690 1.0757 0.3604
C10 C 0.4416(5) 0.7691(4) 0.4332(2)
H6 H 0.3693 0.7883 0.4120
H7 H 0.4294 0.7712 0.4700
C11 C 0.6556(5) 0.5878(4) 0.2782(2)
H8 H 0.7156 0.5743 0.3056
C12 C 0.7416(6) 1.1409(4) 0.1258(2)
H9 H 0.7969 1.2004 0.1433
C13 C 0.7593(5) 1.1435(4) 0.3639(2)
C14 C 0.7865(6) 1.0861(4) 0.0923(2)
C15 C 0.4823(6) 0.6299(4) 0.1980(2)
C16 C 0.5525(6) 0.6198(4) 0.2900(2)
C17 C 1.2584(5) 1.1124(4) 0.45308(19)
H10 H 1.2479 1.0464 0.4658
H11 H 1.2957 1.1616 0.4833
C18 C 1.2334(5) 0.8825(4) 0.2967(2)
H12 H 1.2428 0.8680 0.3321
C19 C 1.1870(5) 0.9449(5) 0.1379(2)
H13 H 1.1582 0.8907 0.1122
C20 C 0.6710(5) 0.9924(4) 0.4014(2)
C21 C 1.1795(5) 0.8288(4) 0.2055(2)
H14 H 1.1532 0.7773 0.1782
C22 C 0.8818(5) 1.1384(4) 0.38473(19)
H15 H 0.9540 1.1891 0.3799
C23 C 0.7421(6) 1.2256(4) 0.33301(19)
H16 H 0.8165 1.2726 0.3269
C24 C 0.5871(5) 0.5989(4) 0.1873(2)
H17 H 0.6004 0.5937 0.1523
C25 C 1.1046(5) 1.1042(4) 0.05103(19)
H18 H 1.1409 1.1682 0.0719
H19 H 1.1040 1.1157 0.0138
C26 C 0.5576(5) 1.2926(4) 0.2300(2)
H20 H 0.4726 1.2471 0.2311
H21 H 0.5424 1.3515 0.2138
C27 C 0.7052(6) 0.9990(5) 0.0663(2)
H22 H 0.7363 0.9615 0.0427
C28 C 0.6307(5) 1.3219(4) 0.2847(2)
H23 H 0.7205 1.3586 0.2835
H24 H 0.5901 1.3659 0.3027
C29 C 0.5382(6) 0.6326(4) 0.3444(2)
H25 H 0.6032 0.6219 0.3706
C30 C 1.2441(5) 1.0008(4) 0.2333(2)
H26 H 1.2614 1.0672 0.2253
C31 C 0.5348(5) 1.0236(5) 0.1084(2)
H27 H 0.4478 1.0027 0.1135
C32 C 0.5807(6) 0.9674(4) 0.0747(2)
C33 C 0.4661(5) 0.6405(4) 0.2491(2)
H28 H 0.3948 0.6625 0.2568
C34 C 1.1621(5) 0.7040(5) 0.2712(2)
H29 H 1.1731 0.6916 0.3069
C35 C 0.6735(6) 0.5751(4) 0.2265(2)
C36 C 0.2809(5) 0.6599(4) 0.0730(2)
H30 H 0.2264 0.6866 0.0936
H31 H 0.2274 0.5976 0.0537
C37 C 1.2982(5) 1.0605(4) 0.3275(2)
H32 H 1.3154 1.1266 0.3191
C38 C 1.1895(5) 1.0362(4) 0.06657(19)
H33 H 1.1483 0.9700 0.0487
H34 H 1.2739 1.0608 0.0554
C39 C 0.7821(6) 0.5394(4) 0.2141(2)
H35 H 0.7938 0.5356 0.1788
C40 C 0.6146(6) 1.1099(4) 0.1346(2)
C41 C 1.0934(6) 0.5348(4) 0.2554(2)
H36 H 1.0986 0.5408 0.2938
H37 H 1.1586 0.5013 0.2474
C42 C 0.4419(6) 0.6655(4) 0.41441(19)
H38 H 0.5190 0.6490 0.4334
H39 H 0.3643 0.6182 0.4220
C43 C 0.5629(6) 1.1666(5) 0.1708(2)
H40 H 0.4747 1.1432 0.1740
C44 C 0.4998(6) 0.8711(5) 0.0495(2)
H41 H 0.5303 0.8390 0.0233
C45 C 0.3281(6) 0.7318(5) 0.0347(2)
H42 H 0.3894 0.7080 0.0165
H43 H 0.2541 0.7359 0.0082
C46 C 1.3485(5) 1.1255(4) 0.4139(2)
H44 H 1.3477 1.1866 0.3969
H45 H 1.4375 1.1312 0.4319
C47 C 0.3865(6) 0.6511(4) 0.1570(2)
H46 H 0.3180 0.6739 0.1671
C48 C 0.9616(5) 0.4758(4) 0.2301(2)
H47 H 0.9532 0.4773 0.1918
H48 H 0.9502 0.4067 0.2382
C49 C 0.7892(6) 0.5854(5) 0.0375(2)
C50 C 0.6534(6) 0.4490(5) 0.0707(2)
C51 C 0.6707(6) 0.5365(4) 0.0480(2)
H49 H 0.5992 0.5636 0.0394
C52 C 0.7593(6) 0.4106(4) 0.08327(19)
H50 H 0.7491 0.3508 0.0993
C53 C 0.8922(6) 0.5455(5) 0.0503(2)
H51 H 0.9744 0.5790 0.0433
C54 C 0.8785(6) 0.4582(5) 0.0728(2)
C55 C 0.8063(6) 0.6809(5) 0.0118(2)
H52 H 0.7987 0.6673 -0.0260
H53 H 0.8916 0.7244 0.0259
H54 H 0.7395 0.7126 0.0187
C56 C 0.5236(6) 0.3956(5) 0.0825(2)
H55 H 0.4823 0.3415 0.0556
H56 H 0.4691 0.4412 0.0830
H57 H 0.5353 0.3696 0.1167
C57 C 0.9935(6) 0.4166(5) 0.0867(3)
H58 H 1.0020 0.3764 0.0565
H59 H 0.9811 0.3760 0.1160
H60 H 1.0719 0.4703 0.0968
C58 C 0.1289(6) 0.2309(5) 0.2140(2)
H61 H 0.0887 0.1956 0.1813
C59 C 0.2287(6) 0.3137(5) 0.2156(2)
C60 C 0.0856(5) 0.1977(4) 0.2589(2)
C61 C 0.1488(6) 0.2495(4) 0.3061(2)
H62 H 0.1222 0.2270 0.3374
C62 C 0.2881(6) 0.3638(4) 0.2629(2)
H63 H 0.3573 0.4208 0.2642
C63 C 0.2494(6) 0.3330(4) 0.3089(2)
C64 C -0.0241(6) 0.1063(5) 0.2568(2)
H64 H -0.1064 0.1242 0.2521
H65 H -0.0131 0.0754 0.2895
H66 H -0.0239 0.0604 0.2276
C65 C 0.2734(6) 0.3462(5) 0.1660(2)
H67 H 0.3318 0.4123 0.1727
H68 H 0.1986 0.3468 0.1396
H69 H 0.3188 0.3007 0.1532
C66 C 0.3163(6) 0.3900(5) 0.3614(2)
H70 H 0.2747 0.3590 0.3894
H71 H 0.3097 0.4577 0.3609
H72 H 0.4075 0.3897 0.3676
C67 C 0.7968(6) 0.8323(4) 0.1903(2)
C68 C 0.8654(6) 0.8106(4) 0.2355(2)
H73 H 0.9342 0.7813 0.2335
C69 C 0.6621(6) 0.8920(4) 0.2412(2)
C70 C 0.8353(6) 0.8309(4) 0.2835(2)
C71 C 0.6945(6) 0.8710(4) 0.1943(2)
H74 H 0.6446 0.8837 0.1634
C72 C 0.7326(6) 0.8708(4) 0.2856(2)
H75 H 0.7102 0.8839 0.3185
C73 C 0.8277(6) 0.8065(5) 0.1379(2)
H76 H 0.8835 0.7617 0.1418
H77 H 0.8721 0.8664 0.1239
H78 H 0.7475 0.7747 0.1139
C74 C 0.5491(6) 0.9346(5) 0.2439(2)
H79 H 0.5808 1.0045 0.2556
H80 H 0.4979 0.9007 0.2686
H81 H 0.4952 0.9262 0.2093
C75 C 0.9094(6) 0.8050(5) 0.3333(2)
H82 H 0.9888 0.8572 0.3450
H83 H 0.9312 0.7431 0.3263
H84 H 0.8557 0.7980 0.3605
C76 C 0.2095(6) 0.6663(6) 0.5115(2)
H85 H 0.2546 0.7150 0.5389
C77 C 0.1307(6) 0.6905(5) 0.4700(2)
C78 C 0.0622(6) 0.6169(5) 0.4305(2)
H86 H 0.0070 0.6326 0.4021
C79 C 0.0733(6) 0.5226(5) 0.4323(2)
C80 C 0.2236(7) 0.5715(6) 0.5136(3)
C81 C 0.1540(6) 0.5011(5) 0.4739(3)
H87 H 0.1621 0.4359 0.4753
C82 C -0.0023(7) 0.4431(5) 0.3900(2)
H88 H 0.0574 0.4137 0.3746
H89 H -0.0514 0.4716 0.3630
H90 H -0.0619 0.3925 0.4052
C83 C 0.1138(8) 0.7931(5) 0.4677(3)
H91 H 0.0240 0.7917 0.4693
H92 H 0.1357 0.8186 0.4350
H93 H 0.1708 0.8356 0.4973
C84 C 0.3127(8) 0.5467(6) 0.5589(3)
H94 H 0.2619 0.5160 0.5845
H95 H 0.3758 0.6068 0.5753
H96 H 0.3579 0.5012 0.5460
loop_
_geom_bond_atom_site_label_1
_geom_bond_atom_site_label_2
_geom_bond_site_symmetry_1
_geom_bond_site_symmetry_2
N1 C19 1_555 1_555
N2 C7 1_555 1_555
N3 C36 1_555 1_555
N4 C29 1_555 1_555
N5 C26 1_555 1_555
N6 C37 1_555 1_555
N7 C44 1_555 1_555
N8 C39 1_555 1_555
N9 C34 1_555 1_555
C1 C18 1_555 1_555
N10 C23 1_555 1_555
N11 C6 1_555 1_555
N12 C5 1_555 1_555
C2 C18 1_555 1_555
C3 C19 1_555 1_555
C4 H1 1_555 1_555
C5 H2 1_555 1_555
C6 H3 1_555 1_555
C7 H4 1_555 1_555
C8 C4 1_555 1_555
C9 H5 1_555 1_555
C10 N11 1_555 1_555
H6 C10 1_555 1_555
H7 C10 1_555 1_555
C11 H8 1_555 1_555
C12 H9 1_555 1_555
C13 C9 1_555 1_555
C14 C7 1_555 1_555
C15 C24 1_555 1_555
C16 C11 1_555 1_555
C17 N12 1_555 1_555
H10 C17 1_555 1_555
H11 C17 1_555 1_555
C18 H12 1_555 1_555
C19 H13 1_555 1_555
C20 C4 1_555 1_555
C21 C1 1_555 1_555
H14 C21 1_555 1_555
C22 C8 1_555 1_555
H15 C22 1_555 1_555
C23 C13 1_555 1_555
H16 C23 1_555 1_555
C24 H17 1_555 1_555
C25 N2 1_555 1_555
H18 C25 1_555 1_555
H19 C25 1_555 1_555
C26 H20 1_555 1_555
H21 C26 1_555 1_555
C27 C14 1_555 1_555
H22 C27 1_555 1_555
C28 N10 1_555 1_555
H23 C28 1_555 1_555
H24 C28 1_555 1_555
C29 C16 1_555 1_555
H25 C29 1_555 1_555
C30 C2 1_555 1_555
H26 C30 1_555 1_555
C31 H27 1_555 1_555
C32 C27 1_555 1_555
C33 C15 1_555 1_555
H28 C33 1_555 1_555
C34 C1 1_555 1_555
H29 C34 1_555 1_555
C35 C11 1_555 1_555
C36 H30 1_555 1_555
H31 C36 1_555 1_555
C37 C2 1_555 1_555
H32 C37 1_555 1_555
C38 N1 1_555 1_555
H33 C38 1_555 1_555
H34 C38 1_555 1_555
C39 C35 1_555 1_555
H35 C39 1_555 1_555
C40 C12 1_555 1_555
C41 N9 1_555 1_555
H36 C41 1_555 1_555
H37 C41 1_555 1_555
C42 N4 1_555 1_555
H38 C42 1_555 1_555
H39 C42 1_555 1_555
C43 N5 1_555 1_555
H40 C43 1_555 1_555
C44 C32 1_555 1_555
H41 C44 1_555 1_555
C45 N7 1_555 1_555
H42 C45 1_555 1_555
H43 C45 1_555 1_555
C46 N6 1_555 1_555
H44 C46 1_555 1_555
H45 C46 1_555 1_555
C47 N3 1_555 1_555
H46 C47 1_555 1_555
C48 N8 1_555 1_555
H47 C48 1_555 1_555
H48 C48 1_555 1_555
C49 C51 1_555 1_555
C50 C51 1_555 1_555
C51 H49 1_555 1_555
C52 C50 1_555 1_555
H50 C52 1_555 1_555
C53 C49 1_555 1_555
H51 C53 1_555 1_555
C54 C52 1_555 1_555
C55 C49 1_555 1_555
H52 C55 1_555 1_555
H53 C55 1_555 1_555
H54 C55 1_555 1_555
C56 C50 1_555 1_555
H55 C56 1_555 1_555
H56 C56 1_555 1_555
H57 C56 1_555 1_555
C57 C54 1_555 1_555
H58 C57 1_555 1_555
H59 C57 1_555 1_555
H60 C57 1_555 1_555
C58 H61 1_555 1_555
C59 C58 1_555 1_555
C60 C58 1_555 1_555
C61 C60 1_555 1_555
H62 C61 1_555 1_555
C62 C59 1_555 1_555
H63 C62 1_555 1_555
C63 C61 1_555 1_555
C64 C60 1_555 1_555
H64 C64 1_555 1_555
H65 C64 1_555 1_555
H66 C64 1_555 1_555
C65 C59 1_555 1_555
H67 C65 1_555 1_555
H68 C65 1_555 1_555
H69 C65 1_555 1_555
C66 C63 1_555 1_555
H70 C66 1_555 1_555
H71 C66 1_555 1_555
H72 C66 1_555 1_555
C67 C68 1_555 1_555
C68 H73 1_555 1_555
C69 C71 1_555 1_555
C70 C68 1_555 1_555
C71 C67 1_555 1_555
H74 C71 1_555 1_555
C72 C69 1_555 1_555
H75 C72 1_555 1_555
C73 C67 1_555 1_555
H76 C73 1_555 1_555
H77 C73 1_555 1_555
H78 C73 1_555 1_555
C74 C69 1_555 1_555
H79 C74 1_555 1_555
H80 C74 1_555 1_555
H81 C74 1_555 1_555
C75 C70 1_555 1_555
H82 C75 1_555 1_555
H83 C75 1_555 1_555
H84 C75 1_555 1_555
C76 H85 1_555 1_555
C77 C76 1_555 1_555
C78 C77 1_555 1_555
H86 C78 1_555 1_555
C79 C78 1_555 1_555
C80 C76 1_555 1_555
C81 C79 1_555 1_555
H87 C81 1_555 1_555
C82 C79 1_555 1_555
H88 C82 1_555 1_555
H89 C82 1_555 1_555
H90 C82 1_555 1_555
C83 C77 1_555 1_555
H91 C83 1_555 1_555
H92 C83 1_555 1_555
H93 C83 1_555 1_555
C84 C80 1_555 1_555
H94 C84 1_555 1_555
H95 C84 1_555 1_555
H96 C84 1_555 1_555
C3 C21 1_555 1_555
C3 C30 1_555 1_555
C5 C8 1_555 1_555
C6 C20 1_555 1_555
C9 C20 1_555 1_555
C10 C42 1_555 1_555
C12 C14 1_555 1_555
C13 C22 1_555 1_555
C15 C47 1_555 1_555
C16 C33 1_555 1_555
C17 C46 1_555 1_555
C24 C35 1_555 1_555
C25 C38 1_555 1_555
C26 C28 1_555 1_555
C31 C32 1_555 1_555
C31 C40 1_555 1_555
C36 C45 1_555 1_555
C40 C43 1_555 1_555
C41 C48 1_555 1_555
C53 C54 1_555 1_555
C62 C63 1_555 1_555
C70 C72 1_555 1_555
C80 C81 1_555 1_555

#END
