
#######################################################################
#
#                 Cambridge Crystallographic Data Centre
#                                CCDC 
#
#######################################################################
#
# If this CIF has been generated from an entry in the Cambridge 
# Structural Database, then it will include bibliographic, chemical, 
# crystal, experimental, refinement or atomic coordinate data resulting 
# from the CCDC's data processing and validation procedures.
#
#######################################################################

data_PUZNEE
_chemical_formula_moiety         'C6 H6 O4'
_chemical_name_systematic        
(6S)-3-Methylene-6-methyl-1,4-dioxane-2,5-dione
_symmetry_cell_setting           monoclinic
_symmetry_space_group_name_H-M   'P 21'
_symmetry_Int_Tables_number      4
_space_group_name_Hall           'P 2yb'
loop_
_symmetry_equiv_pos_site_id
_symmetry_equiv_pos_as_xyz
1 x,y,z
2 -x,1/2+y,-z
_cell_length_a                   5.7525(12)
_cell_length_b                   7.0293(15)
_cell_length_c                   7.8151(16)
_cell_angle_alpha                90
_cell_angle_beta                 99.916(2)
_cell_angle_gamma                90
_cell_volume                     311.291
_exptl_crystal_colour            colorless
_exptl_crystal_description       block
_cell_formula_units_Z            2
loop_
_atom_site_label
_atom_site_type_symbol
_atom_site_fract_x
_atom_site_fract_y
_atom_site_fract_z
O1 O 0.7257(2) 0.5656(2) 0.34234(17)
O2 O 0.2724(2) 0.59780(19) 0.14447(17)
O3 O 0.3795(2) 0.8550(3) 0.0186(2)
O4 O 0.6313(3) 0.2965(3) 0.4527(2)
C1 C 0.4275(3) 0.7349(3) 0.1283(2)
C2 C 0.6610(3) 0.7297(3) 0.2463(2)
C3 C 0.5657(3) 0.4328(3) 0.3649(3)
C4 C 0.3088(3) 0.4651(3) 0.2882(2)
H1 H 0.2310 0.5200 0.3821
C5 C 0.8114(4) 0.8713(4) 0.2588(3)
H2 H 0.9607 0.8604 0.3321
H3 H 0.7711 0.9848 0.1945
C6 C 0.1821(3) 0.2832(3) 0.2294(3)
H4 H 0.0185 0.3118 0.1770
H5 H 0.1836 0.1989 0.3294
H6 H 0.2615 0.2205 0.1434
loop_
_geom_bond_atom_site_label_1
_geom_bond_atom_site_label_2
_geom_bond_site_symmetry_1
_geom_bond_site_symmetry_2
O1 C2 1_555 1_555
O2 C1 1_555 1_555
O3 C1 1_555 1_555
O4 C3 1_555 1_555
C1 C2 1_555 1_555
C2 C5 1_555 1_555
C3 O1 1_555 1_555
C4 O2 1_555 1_555
H1 C4 1_555 1_555
C5 H2 1_555 1_555
H3 C5 1_555 1_555
C6 C4 1_555 1_555
H4 C6 1_555 1_555
H5 C6 1_555 1_555
H6 C6 1_555 1_555
C3 C4 1_555 1_555

#END
