
#######################################################################
#
#                 Cambridge Crystallographic Data Centre
#                                CCDC 
#
#######################################################################
#
# If this CIF has been generated from an entry in the Cambridge 
# Structural Database, then it will include bibliographic, chemical, 
# crystal, experimental, refinement or atomic coordinate data resulting 
# from the CCDC's data processing and validation procedures.
#
#######################################################################

data_PUZNIJ
_chemical_name_common            Propanil
_chemical_formula_moiety         'C9 H9 Cl2 N1 O1'
_chemical_name_systematic        N-(3,4-Dichlorophenyl)propanamide
_symmetry_cell_setting           monoclinic
_symmetry_space_group_name_H-M   'P 21/c'
_symmetry_Int_Tables_number      14
_space_group_name_Hall           '-P 2ybc'
loop_
_symmetry_equiv_pos_site_id
_symmetry_equiv_pos_as_xyz
1 x,y,z
2 -x,1/2+y,1/2-z
3 -x,-y,-z
4 x,1/2-y,1/2+z
_cell_length_a                   17.822(5)
_cell_length_b                   11.576(3)
_cell_length_c                   9.786(3)
_cell_angle_alpha                90
_cell_angle_beta                 92.637(5)
_cell_angle_gamma                90
_cell_volume                     2016.79
_exptl_crystal_colour            colorless
_exptl_crystal_description       block
_cell_formula_units_Z            8
loop_
_atom_site_label
_atom_site_type_symbol
_atom_site_fract_x
_atom_site_fract_y
_atom_site_fract_z
Cl1 Cl 0.47823(7) 1.04799(10) 0.17076(11)
Cl2 Cl 0.46123(7) 1.25594(9) 0.37287(12)
O1 O 0.32488(17) 0.7109(2) 0.3080(2)
N1 N 0.34365(16) 0.7975(3) 0.5122(3)
H1 H 0.3391 0.7876 0.5985
C1 C 0.43455(19) 1.0290(3) 0.3225(3)
C2 C 0.4283(2) 1.1201(3) 0.4110(4)
C3 C 0.3951(2) 1.1015(4) 0.5323(4)
H2 H 0.3912 1.1621 0.5939
C4 C 0.3678(2) 0.9958(3) 0.5642(3)
H3 H 0.3453 0.9850 0.6471
C5 C 0.37303(18) 0.9045(3) 0.4747(3)
C6 C 0.40762(19) 0.9219(3) 0.3532(3)
H4 H 0.4126 0.8610 0.2924
C7 C 0.3216(2) 0.7081(3) 0.4327(3)
C8 C 0.2902(3) 0.6069(3) 0.5051(4)
H5 H 0.2688 0.6138 0.5896
C9 C 0.2953(3) 0.4963(4) 0.4346(5)
H6 H 0.2689 0.5010 0.3471
H7 H 0.2733 0.4369 0.4884
H8 H 0.3471 0.4782 0.4220
Cl3 Cl 0.08977(8) 1.17775(12) -0.01901(14)
Cl4 Cl 0.21865(9) 1.28583(12) 0.17183(15)
O2 O 0.1112(2) 0.7498(2) 0.0583(2)
N2 N 0.1122(2) 0.8152(3) 0.2729(3)
H9 H 0.1032 0.7980 0.3561
C10 C 0.1302(2) 1.1019(3) 0.1171(4)
C11 C 0.1053(2) 0.9911(3) 0.1395(3)
H10 H 0.0679 0.9590 0.0821
C12 C 0.13610(19) 0.9286(3) 0.2471(3)
C13 C 0.1893(2) 0.9778(4) 0.3332(4)
H11 H 0.2092 0.9364 0.4078
C14 C 0.2134(2) 1.0874(4) 0.3100(4)
H12 H 0.2500 1.1201 0.3687
C15 C 0.1847(2) 1.1495(3) 0.2026(4)
C16 C 0.1021(3) 0.7323(3) 0.1797(4)
C17 C 0.0773(5) 0.6166(4) 0.2329(5)
H13 H 0.0721 0.6060 0.3262
C18 C 0.0630(5) 0.5314(5) 0.1478(7)
H14 H 0.0681 0.5421 0.0545
H15 H 0.0477 0.4602 0.1807
loop_
_geom_bond_atom_site_label_1
_geom_bond_atom_site_label_2
_geom_bond_site_symmetry_1
_geom_bond_site_symmetry_2
Cl1 C1 1_555 1_555
Cl2 C2 1_555 1_555
O1 C7 1_555 1_555
N1 H1 1_555 1_555
C1 C2 1_555 1_555
C2 C3 1_555 1_555
C3 H2 1_555 1_555
C4 C3 1_555 1_555
H3 C4 1_555 1_555
C5 N1 1_555 1_555
C6 C1 1_555 1_555
H4 C6 1_555 1_555
C7 N1 1_555 1_555
C8 C7 1_555 1_555
H5 C8 1_555 1_555
C9 C8 1_555 1_555
H6 C9 1_555 1_555
H7 C9 1_555 1_555
H8 C9 1_555 1_555
Cl3 C10 1_555 1_555
Cl4 C15 1_555 1_555
O2 C16 1_555 1_555
N2 H9 1_555 1_555
C10 C11 1_555 1_555
C11 H10 1_555 1_555
C12 N2 1_555 1_555
C13 C12 1_555 1_555
H11 C13 1_555 1_555
C14 C13 1_555 1_555
H12 C14 1_555 1_555
C15 C10 1_555 1_555
C16 N2 1_555 1_555
C17 C16 1_555 1_555
H13 C17 1_555 1_555
C18 C17 1_555 1_555
H14 C18 1_555 1_555
H15 C18 1_555 1_555
C4 C5 1_555 1_555
C5 C6 1_555 1_555
C11 C12 1_555 1_555
C14 C15 1_555 1_555

#END
