
#######################################################################
#
#                 Cambridge Crystallographic Data Centre
#                                CCDC 
#
#######################################################################
#
# If this CIF has been generated from an entry in the Cambridge 
# Structural Database, then it will include bibliographic, chemical, 
# crystal, experimental, refinement or atomic coordinate data resulting 
# from the CCDC's data processing and validation procedures.
#
#######################################################################

data_PUZNAA
_chemical_formula_moiety         'C6 H7 Br1 O4'
_chemical_name_systematic        
(3R,6S)-3-Bromo-3,6-dimethyl-1,4-dioxane-2,5-dione
_symmetry_cell_setting           monoclinic
_symmetry_space_group_name_H-M   'P 21'
_symmetry_Int_Tables_number      4
_space_group_name_Hall           'P 2yb'
loop_
_symmetry_equiv_pos_site_id
_symmetry_equiv_pos_as_xyz
1 x,y,z
2 -x,1/2+y,-z
_cell_length_a                   8.349(3)
_cell_length_b                   5.2884(17)
_cell_length_c                   9.007(3)
_cell_angle_alpha                90
_cell_angle_beta                 101.900(4)
_cell_angle_gamma                90
_cell_volume                     389.138
_exptl_crystal_colour            colorless
_exptl_crystal_description       plate
_cell_formula_units_Z            2
loop_
_atom_site_label
_atom_site_type_symbol
_atom_site_fract_x
_atom_site_fract_y
_atom_site_fract_z
Br1 Br 0.88320(4) 0.39069(13) 0.37458(4)
O1 O 0.6629(4) -0.0020(6) 0.2725(3)
O2 O 0.5100(3) 0.4213(7) 0.1275(3)
O3 O 0.6990(4) 0.4337(7) -0.0109(3)
O4 O 0.4516(4) -0.0638(6) 0.3785(3)
C1 C 0.6553(5) 0.3552(10) 0.0993(4)
C2 C 0.7586(5) 0.1725(8) 0.2099(5)
C3 C 0.5236(5) 0.0818(8) 0.3124(4)
C4 C 0.4753(5) 0.3523(10) 0.2750(4)
H1 H 0.5396 0.4650 0.3547
C5 C 0.8792(6) 0.0229(9) 0.1407(6)
H2 H 0.8195 -0.0918 0.0632
H3 H 0.9505 -0.0756 0.2200
H4 H 0.9458 0.1392 0.0941
C6 C 0.2948(4) 0.3937(16) 0.2680(4)
H5 H 0.2645 0.5651 0.2311
H6 H 0.2715 0.3729 0.3696
H7 H 0.2313 0.2701 0.1988
loop_
_geom_bond_atom_site_label_1
_geom_bond_atom_site_label_2
_geom_bond_site_symmetry_1
_geom_bond_site_symmetry_2
Br1 C2 1_555 1_555
O1 C2 1_555 1_555
O2 C1 1_555 1_555
O3 C1 1_555 1_555
O4 C3 1_555 1_555
C1 C2 1_555 1_555
C2 C5 1_555 1_555
C3 O1 1_555 1_555
C4 O2 1_555 1_555
H1 C4 1_555 1_555
C5 H2 1_555 1_555
H3 C5 1_555 1_555
H4 C5 1_555 1_555
C6 C4 1_555 1_555
H5 C6 1_555 1_555
H6 C6 1_555 1_555
H7 C6 1_555 1_555
C3 C4 1_555 1_555

#END
