
#######################################################################
#
#                 Cambridge Crystallographic Data Centre
#                                CCDC 
#
#######################################################################
#
# If this CIF has been generated from an entry in the Cambridge 
# Structural Database, then it will include bibliographic, chemical, 
# crystal, experimental, refinement or atomic coordinate data resulting 
# from the CCDC's data processing and validation procedures.
#
#######################################################################

data_PUZXUF
_chemical_formula_moiety         'C24 H17 N1 O2'
_chemical_name_systematic        
(3E,4Z)-3,4-dibenzylidene-1-phenylpyrrolidine-2,5-dione
_symmetry_cell_setting           triclinic
_symmetry_space_group_name_H-M   'P -1'
_symmetry_Int_Tables_number      2
_space_group_name_Hall           '-P 1'
loop_
_symmetry_equiv_pos_site_id
_symmetry_equiv_pos_as_xyz
1 x,y,z
2 -x,-y,-z
_cell_length_a                   9.9453(7)
_cell_length_b                   14.2274(10)
_cell_length_c                   14.6341(10)
_cell_angle_alpha                62.892(3)
_cell_angle_beta                 80.139(4)
_cell_angle_gamma                83.229(4)
_cell_volume                     1814.09
_exptl_crystal_description       block
_cell_formula_units_Z            4
loop_
_atom_site_label
_atom_site_type_symbol
_atom_site_fract_x
_atom_site_fract_y
_atom_site_fract_z
O1 O 0.10165(15) 0.73920(11) 0.42021(10)
O2 O 0.23232(18) 1.02550(11) 0.43919(11)
N1 N 0.17769(15) 0.89297(12) 0.40619(11)
C1 C 0.06726(18) 0.78139(14) 0.56641(13)
C2 C 0.11407(18) 0.79648(14) 0.45880(13)
C3 C 0.11851(17) 0.86866(14) 0.57615(13)
C4 C 0.22837(19) 0.93865(14) 0.29795(13)
C5 C 0.18245(19) 0.94108(14) 0.47039(13)
C6 C 0.1456(2) 0.94656(15) 0.22818(14)
H1 H 0.0579 0.9214 0.2514
C7 C 0.3597(2) 0.97420(17) 0.26442(16)
H2 H 0.4164 0.9671 0.3118
C8 C 0.4054(2) 1.02041(18) 0.15940(17)
H3 H 0.4928 1.0460 0.1360
C9 C 0.1935(2) 0.99222(17) 0.12322(15)
H4 H 0.1379 0.9980 0.0757
C10 C 0.3234(2) 1.02902(18) 0.08941(16)
H5 H 0.3556 1.0598 0.0190
C11 C -0.07250(19) 0.66515(15) 0.73798(14)
C12 C -0.00493(19) 0.69674(15) 0.63103(14)
H6 H -0.0139 0.6503 0.6040
C13 C -0.1510(2) 0.73543(17) 0.76863(15)
H7 H -0.1606 0.8061 0.7214
C14 C -0.2155(2) 0.7009(2) 0.86937(17)
H8 H -0.2681 0.7487 0.8892
C15 C -0.1260(3) 0.52643(19) 0.91046(17)
H9 H -0.1165 0.4560 0.9584
C16 C -0.0631(2) 0.55958(17) 0.80954(16)
H10 H -0.0141 0.5107 0.7894
C17 C -0.2024(3) 0.5971(2) 0.94012(17)
H11 H -0.2451 0.5747 1.0079
C18 C 0.12143(18) 0.87209(15) 0.66633(13)
H12 H 0.0834 0.8133 0.7230
C19 C 0.16944(18) 0.94520(15) 0.69691(14)
C20 C 0.1711(2) 0.90832(17) 0.80340(16)
H13 H 0.1456 0.8399 0.8487
C21 C 0.2058(2) 1.04899(17) 0.63203(17)
H14 H 0.2041 1.0767 0.5611
C22 C 0.2444(3) 1.1111(2) 0.6725(2)
H15 H 0.2697 1.1799 0.6283
C23 C 0.2097(3) 0.9711(2) 0.8425(2)
H16 H 0.2112 0.9446 0.9133
C24 C 0.2458(3) 1.0725(2) 0.7773(2)
H17 H 0.2712 1.1151 0.8038
O3 O 0.47290(14) 0.67682(12) 0.39567(10)
O4 O 0.17142(17) 0.46775(13) 0.38234(10)
N2 N 0.33329(15) 0.58021(12) 0.36466(11)
C25 C 0.23524(19) 0.50413(15) 0.42058(13)
C26 C 0.22859(18) 0.47915(14) 0.53143(13)
C27 C 0.31510(17) 0.55370(13) 0.53550(13)
C28 C 0.38562(17) 0.61228(14) 0.42816(13)
C29 C 0.36844(17) 0.62329(15) 0.25433(13)
C30 C 0.37721(19) 0.73125(15) 0.19580(14)
H18 H 0.3619 0.7758 0.2276
C31 C 0.4091(2) 0.77243(18) 0.08914(15)
H19 H 0.4156 0.8450 0.0493
C32 C 0.3900(2) 0.55683(17) 0.20762(15)
H20 H 0.3834 0.4842 0.2472
C33 C 0.4218(2) 0.6000(2) 0.10032(16)
H21 H 0.4367 0.5558 0.0681
C34 C 0.4313(2) 0.7071(2) 0.04181(16)
H22 H 0.4527 0.7353 -0.0298
C35 C 0.15000(18) 0.39958(14) 0.60100(13)
H23 H 0.0988 0.3721 0.5720
C36 C 0.23574(18) 0.33327(14) 0.77286(14)
H24 H 0.3226 0.3558 0.7395
C37 C 0.13128(18) 0.34879(14) 0.71480(13)
C38 C 0.3775(2) 0.64505(15) 0.64117(15)
C39 C 0.2119(2) 0.28480(16) 0.87959(14)
H25 H 0.2824 0.2755 0.9178
C40 C 0.31262(19) 0.57308(14) 0.61793(13)
H26 H 0.2543 0.5291 0.6747
C41 C 0.00458(19) 0.30875(15) 0.76657(14)
H27 H -0.0647 0.3140 0.7289
C42 C -0.0191(2) 0.26117(18) 0.87364(16)
H28 H -0.1050 0.2367 0.9075
C43 C 0.0837(2) 0.25004(17) 0.92994(15)
H29 H 0.0672 0.2191 1.0019
C44 C 0.3397(2) 0.63636(18) 0.74092(17)
H30 H 0.2755 0.5879 0.7863
C45 C 0.3953(3) 0.6981(2) 0.7736(2)
H31 H 0.3694 0.6900 0.8409
C46 C 0.4870(3) 0.7703(3) 0.7089(3)
H32 H 0.5249 0.8117 0.7312
C47 C 0.4700(3) 0.7194(2) 0.5768(2)
H33 H 0.4975 0.7279 0.5096
C48 C 0.5231(4) 0.7818(3) 0.6104(3)
H34 H 0.5846 0.8326 0.5650
loop_
_geom_bond_atom_site_label_1
_geom_bond_atom_site_label_2
_geom_bond_site_symmetry_1
_geom_bond_site_symmetry_2
O1 C2 1_555 1_555
O2 C5 1_555 1_555
N1 C2 1_555 1_555
C1 C2 1_555 1_555
C3 C1 1_555 1_555
C4 N1 1_555 1_555
C5 N1 1_555 1_555
C6 C4 1_555 1_555
H1 C6 1_555 1_555
C7 C4 1_555 1_555
H2 C7 1_555 1_555
C8 C7 1_555 1_555
H3 C8 1_555 1_555
C9 C6 1_555 1_555
H4 C9 1_555 1_555
C10 C8 1_555 1_555
H5 C10 1_555 1_555
C11 C12 1_555 1_555
C12 C1 1_555 1_555
H6 C12 1_555 1_555
C13 C11 1_555 1_555
H7 C13 1_555 1_555
C14 C13 1_555 1_555
H8 C14 1_555 1_555
C15 H9 1_555 1_555
C16 C11 1_555 1_555
H10 C16 1_555 1_555
C17 C14 1_555 1_555
H11 C17 1_555 1_555
C18 C3 1_555 1_555
H12 C18 1_555 1_555
C19 C18 1_555 1_555
C20 C19 1_555 1_555
H13 C20 1_555 1_555
C21 C19 1_555 1_555
H14 C21 1_555 1_555
C22 C21 1_555 1_555
H15 C22 1_555 1_555
C23 C20 1_555 1_555
H16 C23 1_555 1_555
C24 C22 1_555 1_555
H17 C24 1_555 1_555
O3 C28 1_555 1_555
O4 C25 1_555 1_555
N2 C25 1_555 1_555
C25 C26 1_555 1_555
C26 C27 1_555 1_555
C27 C28 1_555 1_555
C28 N2 1_555 1_555
C29 N2 1_555 1_555
C30 C29 1_555 1_555
H18 C30 1_555 1_555
C31 C30 1_555 1_555
H19 C31 1_555 1_555
C32 C29 1_555 1_555
H20 C32 1_555 1_555
C33 C32 1_555 1_555
H21 C33 1_555 1_555
C34 C31 1_555 1_555
H22 C34 1_555 1_555
C35 C26 1_555 1_555
H23 C35 1_555 1_555
C36 H24 1_555 1_555
C37 C35 1_555 1_555
C38 C40 1_555 1_555
C39 C36 1_555 1_555
H25 C39 1_555 1_555
C40 C27 1_555 1_555
H26 C40 1_555 1_555
C41 C37 1_555 1_555
H27 C41 1_555 1_555
C42 C41 1_555 1_555
H28 C42 1_555 1_555
C43 C39 1_555 1_555
H29 C43 1_555 1_555
C44 C38 1_555 1_555
H30 C44 1_555 1_555
C45 C44 1_555 1_555
H31 C45 1_555 1_555
C46 C45 1_555 1_555
H32 C46 1_555 1_555
C47 C38 1_555 1_555
H33 C47 1_555 1_555
C48 C46 1_555 1_555
H34 C48 1_555 1_555
C3 C5 1_555 1_555
C9 C10 1_555 1_555
C15 C16 1_555 1_555
C15 C17 1_555 1_555
C23 C24 1_555 1_555
C33 C34 1_555 1_555
C36 C37 1_555 1_555
C42 C43 1_555 1_555
C47 C48 1_555 1_555

#END
