
#######################################################################
#
#                 Cambridge Crystallographic Data Centre
#                                CCDC 
#
#######################################################################
#
# If this CIF has been generated from an entry in the Cambridge 
# Structural Database, then it will include bibliographic, chemical, 
# crystal, experimental, refinement or atomic coordinate data resulting 
# from the CCDC's data processing and validation procedures.
#
#######################################################################

data_PYMCBZ01
_chemical_formula_moiety         'C7 H4 Cl1 O2 1-,C4 H8 D2 N1 1+'
_chemical_name_systematic        '1,1-dideuteropyrrolidinium 4-chlorobenzoate'
_symmetry_cell_setting           orthorhombic
_symmetry_space_group_name_H-M   'P b c a'
_symmetry_Int_Tables_number      61
_space_group_name_Hall           '-P 2ac 2ab'
loop_
_symmetry_equiv_pos_site_id
_symmetry_equiv_pos_as_xyz
1 x,y,z
2 1/2-x,-y,1/2+z
3 -x,1/2+y,1/2-z
4 1/2+x,1/2-y,-z
5 -x,-y,-z
6 1/2+x,y,1/2-z
7 x,1/2-y,1/2+z
8 1/2-x,1/2+y,z
_cell_length_a                   9.4198(5)
_cell_length_b                   9.1555(5)
_cell_length_c                   26.6266(14)
_cell_angle_alpha                90
_cell_angle_beta                 90
_cell_angle_gamma                90
_cell_volume                     2296.36
_exptl_crystal_colour            colorless
_exptl_crystal_description       block
_chemical_melting_point          '416.5 K'
_cell_formula_units_Z            8
loop_
_atom_site_label
_atom_site_type_symbol
_atom_site_fract_x
_atom_site_fract_y
_atom_site_fract_z
C1 C 0.16478(15) -0.01558(16) 0.72746(5)
C2 C 0.26754(16) 0.02599(16) 0.69339(6)
C3 C 0.25897(15) -0.02495(15) 0.64429(5)
C4 C 0.14951(13) -0.11765(14) 0.63002(5)
C5 C 0.04708(15) -0.15713(15) 0.66521(5)
C6 C 0.05372(16) -0.10616(17) 0.71417(5)
C7 C 0.13954(14) -0.17485(13) 0.57683(5)
Cl1 Cl 0.17648(5) 0.04930(5) 0.788886(14)
O1 O 0.22655(10) -0.12872(11) 0.54492(3)
O2 O 0.04155(11) -0.26498(11) 0.56793(4)
H1 H -0.0281(18) -0.2221(18) 0.6552(6)
H2 H 0.3283(17) 0.0071(18) 0.6197(6)
H3 H 0.3419(18) 0.0913(19) 0.7041(6)
H8 H -0.0155(19) -0.1339(18) 0.7376(6)
C8 C 0.01224(17) -0.16052(15) 0.44274(5)
C9 C 0.07739(19) -0.19766(18) 0.39262(6)
C10 C 0.18897(19) -0.30999(19) 0.40670(7)
C11 C 0.11822(16) -0.40203(15) 0.44723(6)
N1 N 0.00582(12) -0.30454(12) 0.46931(4)
D1 D 0.022(2) -0.2940(19) 0.5041(8)
H4 H 0.005(2) -0.242(2) 0.3691(8)
H5 H 0.0714(18) -0.0956(18) 0.4621(6)
D2 D -0.0852(18) -0.3424(17) 0.4648(6)
H6 H 0.0681(18) -0.4847(18) 0.4333(6)
H7 H 0.1825(19) -0.4311(18) 0.4743(7)
H9 H 0.1175(19) -0.1076(19) 0.3753(7)
H10 H -0.083(2) -0.1214(19) 0.4416(7)
H11 H 0.219(2) -0.372(2) 0.3789(7)
H12 H 0.273(3) -0.261(3) 0.4200(8)
loop_
_geom_bond_atom_site_label_1
_geom_bond_atom_site_label_2
_geom_bond_site_symmetry_1
_geom_bond_site_symmetry_2
C1 C2 1_555 1_555
C2 C3 1_555 1_555
C3 C4 1_555 1_555
C4 C5 1_555 1_555
C5 C6 1_555 1_555
C6 C1 1_555 1_555
C7 C4 1_555 1_555
C8 C9 1_555 1_555
C9 C10 1_555 1_555
C10 C11 1_555 1_555
C11 N1 1_555 1_555
Cl1 C1 1_555 1_555
N1 C8 1_555 1_555
O1 C7 1_555 1_555
O2 C7 1_555 1_555
H1 C5 1_555 1_555
H2 C3 1_555 1_555
D1 N1 1_555 1_555
H3 C2 1_555 1_555
H4 C9 1_555 1_555
H5 C8 1_555 1_555
D2 N1 1_555 1_555
H6 C11 1_555 1_555
H7 C11 1_555 1_555
H8 C6 1_555 1_555
H9 C9 1_555 1_555
H10 C8 1_555 1_555
H11 C10 1_555 1_555
H12 C10 1_555 1_555

#END
