
#######################################################################
#
#                 Cambridge Crystallographic Data Centre
#                                CCDC 
#
#######################################################################
#
# If this CIF has been generated from an entry in the Cambridge 
# Structural Database, then it will include bibliographic, chemical, 
# crystal, experimental, refinement or atomic coordinate data resulting 
# from the CCDC's data processing and validation procedures.
#
#######################################################################

data_PYRGLU12
_chemical_name_common            5-oxoproline
_chemical_formula_moiety         'C5 H7 N1 O3'
_chemical_name_systematic        'rac-pyroglutamic acid'
_symmetry_cell_setting           monoclinic
_symmetry_space_group_name_H-M   'P 21/n'
_symmetry_Int_Tables_number      14
_space_group_name_Hall           '-P 2yn'
loop_
_symmetry_equiv_pos_site_id
_symmetry_equiv_pos_as_xyz
1 x,y,z
2 1/2-x,1/2+y,1/2-z
3 -x,-y,-z
4 1/2+x,1/2-y,1/2+z
_cell_length_a                   7.9568(17)
_cell_length_b                   8.7449(19)
_cell_length_c                   9.098(2)
_cell_angle_alpha                90
_cell_angle_beta                 115.482(3)
_cell_angle_gamma                90
_cell_volume                     571.469
_exptl_crystal_colour            colorless
_exptl_crystal_description       block
_cell_formula_units_Z            4
loop_
_atom_site_label
_atom_site_type_symbol
_atom_site_fract_x
_atom_site_fract_y
_atom_site_fract_z
O1 O 0.34160(16) 0.55234(13) 0.30955(14)
O2 O 0.09581(17) 0.88844(14) 0.71726(16)
H1 H 0.0063 0.8955 0.7392
N1 N 0.23242(18) 0.61404(16) 0.49529(17)
O3 O -0.05861(18) 0.68809(16) 0.57233(19)
C1 C 0.3333(2) 0.63954(18) 0.41339(19)
C2 C 0.2584(2) 0.72778(17) 0.61958(19)
H2 H 0.3494 0.6892 0.7250
C3 C 0.0798(2) 0.76448(18) 0.63189(19)
C4 C 0.3446(2) 0.86292(18) 0.5683(2)
H3 H 0.2497 0.9358 0.5035
H4 H 0.4368 0.9149 0.6628
C5 C 0.4346(2) 0.78892(19) 0.4681(2)
H5 H 0.4186 0.8523 0.3755
H6 H 0.5665 0.7722 0.5338
H7 H 0.180(3) 0.529(2) 0.491(2)
loop_
_geom_bond_atom_site_label_1
_geom_bond_atom_site_label_2
_geom_bond_site_symmetry_1
_geom_bond_site_symmetry_2
O1 C1 1_555 1_555
O2 H1 1_555 1_555
N1 C1 1_555 1_555
O3 C3 1_555 1_555
C1 C5 1_555 1_555
C2 N1 1_555 1_555
H2 C2 1_555 1_555
C3 O2 1_555 1_555
C4 C2 1_555 1_555
H3 C4 1_555 1_555
H4 C4 1_555 1_555
C5 C4 1_555 1_555
H5 C5 1_555 1_555
H6 C5 1_555 1_555
H7 N1 1_555 1_555
C2 C3 1_555 1_555

#END
