
#######################################################################
#
#                 Cambridge Crystallographic Data Centre
#                                CCDC 
#
#######################################################################
#
# If this CIF has been generated from an entry in the Cambridge 
# Structural Database, then it will include bibliographic, chemical, 
# crystal, experimental, refinement or atomic coordinate data resulting 
# from the CCDC's data processing and validation procedures.
#
#######################################################################

data_PZISQU10
_chemical_formula_moiety         'C28 H20 N2'
_chemical_name_systematic        2-Methyl-5,6-diphenylanthra(2,1-b)pyrazole
_symmetry_cell_setting           triclinic
_symmetry_space_group_name_H-M   'P -1'
_symmetry_Int_Tables_number      2
_space_group_name_Hall           '-P 1'
loop_
_symmetry_equiv_pos_site_id
_symmetry_equiv_pos_as_xyz
1 x,y,z
2 -x,-y,-z
_cell_length_a                   12.572(3)
_cell_length_b                   14.832(3)
_cell_length_c                   12.122(2)
_cell_angle_alpha                111.64(1)
_cell_angle_beta                 92.56(2)
_cell_angle_gamma                88.64(2)
_cell_volume                     2098.89
_exptl_crystal_colour            yellow
_cell_formula_units_Z            4
loop_
_atom_site_label
_atom_site_type_symbol
_atom_site_fract_x
_atom_site_fract_y
_atom_site_fract_z
C1 C 0.36580 0.40000 0.32600
C2 C 0.38010 0.36630 0.41400
N1 N 0.45650 0.29320 0.40250
C3 C 0.52160 0.25540 0.30770
C4 C 0.61820 0.25060 -0.08380
C5 C 0.59910 0.28110 -0.17520
C6 C 0.51570 0.34660 -0.17300
C7 C 0.45530 0.38330 -0.07620
C8 C 0.57060 0.25430 0.11320
C9 C 0.41290 0.39250 0.12530
C10 C 0.42840 0.36210 0.21950
C11 C 0.50910 0.29070 0.21200
C12 C 0.55530 0.28630 0.01830
C13 C 0.47330 0.35550 0.02300
N2 N 0.47270 0.24960 0.48380
C14 C 0.54980 0.18370 0.43710
C15 C 0.58290 0.18610 0.33070
C16 C 0.58500 0.11650 0.49870
C17 C 0.28360 0.47610 0.33440
C18 C 0.18130 0.45060 0.29100
C19 C 0.10520 0.52190 0.29700
C20 C 0.13220 0.61770 0.34300
C21 C 0.23180 0.64380 0.38730
C22 C 0.30810 0.57330 0.38350
C23 C 0.32230 0.39890 0.52680
C24 C 0.23720 0.34850 0.54100
C25 C 0.18490 0.37690 0.64720
C26 C 0.21930 0.45780 0.73940
C27 C 0.30380 0.50790 0.72760
C28 C 0.35530 0.47920 0.62220
H1 H 0.67800 0.20000 -0.08600
H2 H 0.64300 0.25600 -0.24200
H3 H 0.50000 0.36600 -0.24200
H4 H 0.39800 0.43400 -0.06700
H5 H 0.62800 0.20500 0.11200
H6 H 0.35600 0.44000 0.12700
H7 H 0.64100 0.15100 0.28500
H8 H 0.54700 0.12500 0.57300
H9 H 0.65100 0.13400 0.52200
H10 H 0.57200 0.05100 0.44900
H11 H 0.16200 0.38100 0.26500
H12 H 0.04400 0.49900 0.26300
H13 H 0.08000 0.66900 0.35000
H14 H 0.25400 0.71600 0.43100
H15 H 0.38100 0.59400 0.41400
H16 H 0.21400 0.28800 0.47600
H17 H 0.13200 0.33300 0.66200
H18 H 0.19100 0.48000 0.81600
H19 H 0.32900 0.55900 0.79300
H20 H 0.41200 0.51700 0.60600
C29 C 0.89140 0.12810 0.91360
C30 C 0.85900 0.11490 1.01120
N3 N 0.78070 0.04580 0.99670
C31 C 0.73440 -0.01120 0.88970
C32 C 0.72920 -0.11230 0.45340
C33 C 0.76810 -0.10130 0.35540
C34 C 0.83850 -0.02660 0.36630
C35 C 0.87410 0.03440 0.47470
C36 C 0.72900 -0.05920 0.67180
C37 C 0.88000 0.08170 0.69310
C38 C 0.84700 0.07130 0.79560
C39 C 0.76910 -0.00090 0.78380
C40 C 0.76470 -0.04930 0.56910
C41 C 0.84010 0.02290 0.57980
N4 N 0.73750 0.03040 1.09010
C42 C 0.66380 -0.03690 1.03920
C43 C 0.65950 -0.06560 0.91580
C44 C 0.59700 -0.07120 1.11510
C45 C 0.97450 0.20240 0.92770
C46 C 0.94880 0.28680 0.90870
C47 C 1.02620 0.35740 0.92530
C48 C 1.12840 0.34070 0.95800
C49 C 1.15560 0.25740 0.97500
C50 C 1.07950 0.18820 0.95950
C51 C 0.89890 0.16910 1.13470
C52 C 0.86850 0.26410 1.19340
C53 C 0.90640 0.31540 1.30790
C54 C 0.97540 0.27220 1.36250
C55 C 1.00660 0.17850 1.30610
C56 C 0.96850 0.12630 1.19220
H21 H 0.67400 -0.16800 0.44500
H22 H 0.73800 -0.14800 0.27800
H23 H 0.86200 -0.01800 0.29100
H24 H 0.92600 0.09100 0.49100
H25 H 0.68200 -0.11100 0.66900
H26 H 0.93000 0.12900 0.69800
H27 H 0.61400 -0.11400 0.86000
H28 H 0.52400 -0.06400 1.09900
H29 H 0.60100 -0.13900 1.09300
H30 H 0.61800 -0.04400 1.19900
H31 H 0.86800 0.30500 0.89500
H32 H 1.00200 0.41800 0.91600
H33 H 1.18000 0.39500 0.97500
H34 H 1.23200 0.25100 1.00700
H35 H 1.095 0.126 0.973
H36 H 0.82100 0.29300 1.15500
H37 H 0.88500 0.38200 1.34400
H38 H 1.00500 0.30900 1.44000
H39 H 1.05400 0.14400 1.34200
H40 H 0.98400 0.05200 1.15100
loop_
_geom_bond_atom_site_label_1
_geom_bond_atom_site_label_2
_geom_bond_site_symmetry_1
_geom_bond_site_symmetry_2
C1 C2 1_555 1_555
C2 N1 1_555 1_555
N1 C3 1_555 1_555
C3 C11 1_555 1_555
C4 C5 1_555 1_555
C5 C6 1_555 1_555
C6 C7 1_555 1_555
C7 C13 1_555 1_555
C8 C11 1_555 1_555
C9 C10 1_555 1_555
C10 C1 1_555 1_555
C11 C10 1_555 1_555
C12 C4 1_555 1_555
C13 C9 1_555 1_555
N2 N1 1_555 1_555
C14 N2 1_555 1_555
C15 C3 1_555 1_555
C16 C14 1_555 1_555
C17 C1 1_555 1_555
C18 C17 1_555 1_555
C19 C18 1_555 1_555
C20 C19 1_555 1_555
C21 C20 1_555 1_555
C22 C17 1_555 1_555
C23 C2 1_555 1_555
C24 C23 1_555 1_555
C25 C24 1_555 1_555
C26 C25 1_555 1_555
C27 C26 1_555 1_555
C28 C23 1_555 1_555
H1 C4 1_555 1_555
H2 C5 1_555 1_555
H3 C6 1_555 1_555
H4 C7 1_555 1_555
H5 C8 1_555 1_555
H6 C9 1_555 1_555
H7 C15 1_555 1_555
H8 C16 1_555 1_555
H9 C16 1_555 1_555
H10 C16 1_555 1_555
H11 C18 1_555 1_555
H12 C19 1_555 1_555
H13 C20 1_555 1_555
H14 C21 1_555 1_555
H15 C22 1_555 1_555
H16 C24 1_555 1_555
H17 C25 1_555 1_555
H18 C26 1_555 1_555
H19 C27 1_555 1_555
H20 C28 1_555 1_555
C29 C30 1_555 1_555
C30 N3 1_555 1_555
N3 C31 1_555 1_555
C31 C39 1_555 1_555
C32 C33 1_555 1_555
C33 C34 1_555 1_555
C34 C35 1_555 1_555
C35 C41 1_555 1_555
C36 C39 1_555 1_555
C37 C38 1_555 1_555
C38 C29 1_555 1_555
C39 C38 1_555 1_555
C40 C32 1_555 1_555
C41 C37 1_555 1_555
N4 N3 1_555 1_555
C42 N4 1_555 1_555
C43 C31 1_555 1_555
C44 C42 1_555 1_555
C45 C29 1_555 1_555
C46 C45 1_555 1_555
C47 C46 1_555 1_555
C48 C47 1_555 1_555
C49 C48 1_555 1_555
C50 C45 1_555 1_555
C51 C30 1_555 1_555
C52 C51 1_555 1_555
C53 C52 1_555 1_555
C54 C53 1_555 1_555
C55 C54 1_555 1_555
C56 C51 1_555 1_555
H21 C32 1_555 1_555
H22 C33 1_555 1_555
H23 C34 1_555 1_555
H24 C35 1_555 1_555
H25 C36 1_555 1_555
H26 C37 1_555 1_555
H27 C43 1_555 1_555
H28 C44 1_555 1_555
H29 C44 1_555 1_555
H30 C44 1_555 1_555
H31 C46 1_555 1_555
H32 C47 1_555 1_555
H33 C48 1_555 1_555
H34 C49 1_555 1_555
H35 C50 1_555 1_555
H36 C52 1_555 1_555
H37 C53 1_555 1_555
H38 C54 1_555 1_555
H39 C55 1_555 1_555
H40 C56 1_555 1_555
C8 C12 1_555 1_555
C12 C13 1_555 1_555
C14 C15 1_555 1_555
C21 C22 1_555 1_555
C27 C28 1_555 1_555
C36 C40 1_555 1_555
C40 C41 1_555 1_555
C42 C43 1_555 1_555
C49 C50 1_555 1_555
C55 C56 1_555 1_555

#END
