
#######################################################################
#
#                 Cambridge Crystallographic Data Centre
#                                CCDC 
#
#######################################################################
#
# If this CIF has been generated from an entry in the Cambridge 
# Structural Database, then it will include bibliographic, chemical, 
# crystal, experimental, refinement or atomic coordinate data resulting 
# from the CCDC's data processing and validation procedures.
#
#######################################################################

data_QABFOR
_chemical_compound_source        'endophytic fungus Phomopsis sp. shj2'
_chemical_name_common            'Phomopchalasin C methanol solvate'
_chemical_formula_moiety         'C30 H39 N1 O6,C1 H4 O1'
_chemical_name_systematic        
'3-Benzyl-6-hydroperoxy-12-hydroxy-4,5,10,12-tetramethyl-1-oxo-2,3,3a,6,6a,9,10,11,12,15-decahydro-1H-cycloundeca[d]isoindol-15-yl acetate methanol solvate'
_symmetry_cell_setting           monoclinic
_symmetry_space_group_name_H-M   'P 21'
_symmetry_Int_Tables_number      4
_space_group_name_Hall           'P 2yb'
loop_
_symmetry_equiv_pos_site_id
_symmetry_equiv_pos_as_xyz
1 x,y,z
2 -x,1/2+y,-z
_cell_length_a                   9.7486(2)
_cell_length_b                   14.4556(3)
_cell_length_c                   10.3782(2)
_cell_angle_alpha                90
_cell_angle_beta                 102.0990(10)
_cell_angle_gamma                90
_cell_volume                     1430.03
_exptl_crystal_colour            colorless
_exptl_crystal_description       sheet
_cell_formula_units_Z            2
_exptl_crystal_recrystallization_method methanol
loop_
_atom_site_label
_atom_site_type_symbol
_atom_site_fract_x
_atom_site_fract_y
_atom_site_fract_z
O1 O 0.1143(3) 0.95101(19) 1.1070(2)
O2 O 0.0670(2) 0.71245(18) 0.8488(2)
O3 O 0.0959(3) 0.6959(2) 0.7176(3)
H1 H 0.0483 0.6507 0.6825
O4 O 0.7007(2) 1.07873(19) 1.0907(3)
H2 H 0.7193 1.1276 1.1348
O5 O 0.2755(2) 1.02212(17) 0.7505(2)
O6 O 0.2074(3) 1.1566(2) 0.6456(3)
N1 N -0.0674(3) 1.0301(2) 0.9806(3)
H3 H -0.1095 1.0438 1.0454
C1 C -0.4026(4) 1.2757(3) 0.4956(4)
H4 H -0.4655 1.3033 0.4235
C2 C -0.4494(4) 1.2496(3) 0.6073(5)
H5 H -0.5456 1.2563 0.6105
C3 C -0.3557(4) 1.2137(3) 0.7138(4)
H6 H -0.3881 1.1971 0.7908
C4 C -0.2148(3) 1.2012(3) 0.7111(4)
C5 C -0.1155(4) 1.1646(3) 0.8299(4)
H7 H -0.1363 1.1945 0.9095
H8 H -0.0186 1.1818 0.8243
C6 C -0.1234(3) 1.0579(3) 0.8453(3)
H9 H -0.2241 1.0388 0.8212
C7 C -0.0392(4) 0.9983(3) 0.7657(4)
H10 H -0.0154 1.0354 0.6921
C8 C 0.0977(3) 0.9728(3) 0.8682(3)
C9 C 0.1479(3) 0.8731(3) 0.8462(4)
H11 H 0.1646 0.8700 0.7544
C10 C 0.2814(3) 0.8418(3) 0.9388(4)
H12 H 0.2772 0.8282 1.0274
C11 C 0.4032(3) 0.8321(3) 0.9037(4)
H13 H 0.4063 0.8467 0.8151
C12 C 0.5373(4) 0.8002(3) 0.9918(4)
H14 H 0.5818 0.7544 0.9426
H15 H 0.5133 0.7676 1.0681
C13 C 0.6460(3) 0.8749(3) 1.0446(4)
H16 H 0.6587 0.9149 0.9693
C14 C 0.7863(4) 0.8268(3) 1.1022(4)
H17 H 0.7757 0.7882 1.1771
H18 H 0.8587 0.8736 1.1319
H19 H 0.8137 0.7880 1.0344
C15 C -0.1699(4) 1.2260(3) 0.5974(4)
H20 H -0.0741 1.2186 0.5932
C16 C -0.2649(5) 1.2616(4) 0.4893(4)
H21 H -0.2340 1.2762 0.4108
C17 C 0.0516(3) 0.9825(3) 0.9998(4)
C18 C -0.1292(4) 0.9162(3) 0.7111(4)
C19 C -0.2598(4) 0.9412(3) 0.6097(4)
H22 H -0.2692 0.8994 0.5340
H23 H -0.2523 1.0051 0.5805
H24 H -0.3424 0.9352 0.6492
C20 C -0.1052(4) 0.8295(3) 0.7546(4)
C21 C 0.0276(4) 0.8066(2) 0.8539(4)
H25 H 0.0054 0.8161 0.9428
C22 C 0.6015(4) 0.9365(3) 1.1496(4)
H26 H 0.5154 0.9096 1.1707
H27 H 0.6758 0.9329 1.2307
C23 C 0.5731(3) 1.0382(3) 1.1169(4)
C24 C 0.4618(3) 1.0461(3) 0.9913(4)
H28 H 0.4931 1.0458 0.9106
C25 C 0.3264(3) 1.0533(3) 0.9837(4)
H29 H 0.2967 1.0643 1.0638
C26 C 0.2134(3) 1.0459(3) 0.8610(3)
H30 H 0.1673 1.1077 0.8432
C27 C 0.2681(4) 1.0835(3) 0.6515(4)
C28 C 0.3426(4) 1.0477(3) 0.5498(4)
H31 H 0.2971 1.0717 0.4630
H32 H 0.3389 0.9800 0.5486
H33 H 0.4407 1.0680 0.5711
C29 C 0.5336(4) 1.0873(3) 1.2345(4)
H34 H 0.6112 1.0820 1.3114
H35 H 0.4494 1.0586 1.2544
H36 H 0.5151 1.1527 1.2132
C30 C -0.2073(4) 0.7509(3) 0.7122(5)
H37 H -0.3035 0.7738 0.7029
H38 H -0.1901 0.7018 0.7788
H39 H -0.1944 0.7263 0.6276
O7 O 0.0414(3) 1.0309(2) 0.3203(3)
H40 H 0.0478 1.0053 0.2492
C31 C -0.0016(6) 0.9668(4) 0.4021(5)
H41 H 0.0806 0.9353 0.4543
H42 H -0.0632 0.9213 0.3489
H43 H -0.0527 0.9983 0.4613
loop_
_geom_bond_atom_site_label_1
_geom_bond_atom_site_label_2
_geom_bond_site_symmetry_1
_geom_bond_site_symmetry_2
O1 C17 1_555 1_555
O2 O3 1_555 1_555
O3 H1 1_555 1_555
O4 H2 1_555 1_555
O5 C26 1_555 1_555
O6 C27 1_555 1_555
N1 H3 1_555 1_555
C1 H4 1_555 1_555
C2 C1 1_555 1_555
H5 C2 1_555 1_555
C3 C2 1_555 1_555
H6 C3 1_555 1_555
C4 C3 1_555 1_555
C5 C4 1_555 1_555
H7 C5 1_555 1_555
H8 C5 1_555 1_555
C6 N1 1_555 1_555
H9 C6 1_555 1_555
C7 C6 1_555 1_555
H10 C7 1_555 1_555
C8 C7 1_555 1_555
C9 C8 1_555 1_555
H11 C9 1_555 1_555
C10 C9 1_555 1_555
H12 C10 1_555 1_555
C11 C10 1_555 1_555
H13 C11 1_555 1_555
C12 C11 1_555 1_555
H14 C12 1_555 1_555
H15 C12 1_555 1_555
C13 C12 1_555 1_555
H16 C13 1_555 1_555
C14 C13 1_555 1_555
H17 C14 1_555 1_555
H18 C14 1_555 1_555
H19 C14 1_555 1_555
C15 C4 1_555 1_555
H20 C15 1_555 1_555
C16 C1 1_555 1_555
H21 C16 1_555 1_555
C17 N1 1_555 1_555
C18 C7 1_555 1_555
C19 C18 1_555 1_555
H22 C19 1_555 1_555
H23 C19 1_555 1_555
H24 C19 1_555 1_555
C20 C18 1_555 1_555
C21 O2 1_555 1_555
H25 C21 1_555 1_555
C22 C13 1_555 1_555
H26 C22 1_555 1_555
H27 C22 1_555 1_555
C23 O4 1_555 1_555
C24 C23 1_555 1_555
H28 C24 1_555 1_555
C25 C24 1_555 1_555
H29 C25 1_555 1_555
C26 C8 1_555 1_555
H30 C26 1_555 1_555
C27 O5 1_555 1_555
C28 C27 1_555 1_555
H31 C28 1_555 1_555
H32 C28 1_555 1_555
H33 C28 1_555 1_555
C29 C23 1_555 1_555
H34 C29 1_555 1_555
H35 C29 1_555 1_555
H36 C29 1_555 1_555
C30 C20 1_555 1_555
H37 C30 1_555 1_555
H38 C30 1_555 1_555
H39 C30 1_555 1_555
O7 H40 1_555 1_555
C31 O7 1_555 1_555
H41 C31 1_555 1_555
H42 C31 1_555 1_555
H43 C31 1_555 1_555
C5 C6 1_555 1_555
C8 C17 1_555 1_555
C9 C21 1_555 1_555
C15 C16 1_555 1_555
C20 C21 1_555 1_555
C22 C23 1_555 1_555
C25 C26 1_555 1_555

#END
