
#######################################################################
#
#                 Cambridge Crystallographic Data Centre
#                                CCDC 
#
#######################################################################
#
# If this CIF has been generated from an entry in the Cambridge 
# Structural Database, then it will include bibliographic, chemical, 
# crystal, experimental, refinement or atomic coordinate data resulting 
# from the CCDC's data processing and validation procedures.
#
#######################################################################

data_QABGAE
_chemical_formula_moiety         'C19 H15 N1 O2 S2'
_chemical_name_systematic        
"2',5-Dimethylspiro[1,2-benzothiazole-3,4'-indeno[1,2-b]thiophene] 1,1-dioxide"
_symmetry_cell_setting           monoclinic
_symmetry_space_group_name_H-M   'P 21/c'
_symmetry_Int_Tables_number      14
_space_group_name_Hall           '-P 2ybc'
loop_
_symmetry_equiv_pos_site_id
_symmetry_equiv_pos_as_xyz
1 x,y,z
2 -x,1/2+y,1/2-z
3 -x,-y,-z
4 x,1/2-y,1/2+z
_cell_length_a                   10.8844(2)
_cell_length_b                   14.4057(3)
_cell_length_c                   10.5669(3)
_cell_angle_alpha                90
_cell_angle_beta                 104.636(2)
_cell_angle_gamma                90
_cell_volume                     1603.1
_exptl_crystal_colour            colorless
_exptl_crystal_description       prism
_cell_formula_units_Z            4
loop_
_atom_site_label
_atom_site_type_symbol
_atom_site_fract_x
_atom_site_fract_y
_atom_site_fract_z
S1 S 0.86924(6) 1.01218(4) 0.68267(6)
S2 S 0.73111(5) 0.58144(4) 0.62316(5)
O1 O 0.67951(17) 0.54545(12) 0.49366(17)
O2 O 0.80952(17) 0.51780(12) 0.71411(17)
N1 N 0.7999(2) 0.68172(15) 0.6132(2)
C1 C 0.8713(2) 0.90161(17) 0.7370(2)
C2 C 0.9442(2) 0.84667(17) 0.8472(2)
C3 C 1.05008(18) 0.86798(14) 0.9568(2)
H1 H 1.08667(18) 0.92672(14) 0.9683(2)
C4 C 1.0943(2) 0.7961(2) 1.0440(3)
H2 H 1.1624(2) 0.8078(2) 1.1155(3)
C5 C 1.0429(2) 0.7088(2) 1.0302(3)
H3 H 1.0761(2) 0.6631(2) 1.0916(3)
C6 C 0.9406(2) 0.68791(18) 0.9239(2)
H4 H 0.9058(2) 0.62858(18) 0.9141(2)
C7 C 0.8918(2) 0.75651(17) 0.8338(2)
C8 C 0.7806(2) 0.75100(16) 0.7103(2)
C9 C 0.7776(2) 0.84918(17) 0.6586(2)
C10 C 0.6978(2) 0.89844(17) 0.5535(2)
H5 H 0.6292(2) 0.87250(17) 0.4930(2)
C11 C 0.7348(3) 0.98939(18) 0.5525(3)
C12 C 0.6551(2) 0.72104(16) 0.7365(2)
C13 C 0.5781(2) 0.77459(17) 0.7942(2)
H6 H 0.6032(2) 0.83405(17) 0.8241(2)
C14 C 0.4626(2) 0.73850(18) 0.8069(2)
C15 C 0.4271(2) 0.64821(18) 0.7608(2)
H7 H 0.3504(2) 0.62407(18) 0.7696(2)
C16 C 0.5031(2) 0.59428(18) 0.7027(2)
H8 H 0.4787(2) 0.53484(18) 0.6722(2)
C17 C 0.6173(2) 0.63263(17) 0.6920(2)
C18 C 0.3783(3) 0.7950(2) 0.8705(3)
H9 H 0.3947(15) 0.7786(11) 0.9613(6)
H10 H 0.3956(14) 0.8598(2) 0.8628(18)
H11 H 0.2910(3) 0.7826(11) 0.8280(14)
C19 C 0.6795(3) 1.06344(19) 0.4582(3)
H12 H 0.6997(18) 1.1229(2) 0.4991(7)
H13 H 0.7140(16) 1.0593(10) 0.3833(10)
H14 H 0.5890(3) 1.0561(9) 0.4312(16)
H15 H 0.872(4) 0.678(2) 0.605(3)
loop_
_geom_bond_atom_site_label_1
_geom_bond_atom_site_label_2
_geom_bond_site_symmetry_1
_geom_bond_site_symmetry_2
S1 C1 1_555 1_555
S2 O1 1_555 1_555
O2 S2 1_555 1_555
N1 S2 1_555 1_555
C1 C2 1_555 1_555
C2 C3 1_555 1_555
C3 H1 1_555 1_555
C4 C3 1_555 1_555
H2 C4 1_555 1_555
C5 C4 1_555 1_555
H3 C5 1_555 1_555
C6 C5 1_555 1_555
H4 C6 1_555 1_555
C7 C2 1_555 1_555
C8 N1 1_555 1_555
C9 C1 1_555 1_555
C10 C9 1_555 1_555
H5 C10 1_555 1_555
C11 S1 1_555 1_555
C12 C8 1_555 1_555
C13 C12 1_555 1_555
H6 C13 1_555 1_555
C14 C13 1_555 1_555
C15 C14 1_555 1_555
H7 C15 1_555 1_555
C16 C15 1_555 1_555
H8 C16 1_555 1_555
C17 S2 1_555 1_555
C18 C14 1_555 1_555
H9 C18 1_555 1_555
H10 C18 1_555 1_555
H11 C18 1_555 1_555
C19 C11 1_555 1_555
H12 C19 1_555 1_555
H13 C19 1_555 1_555
H14 C19 1_555 1_555
H15 N1 1_555 1_555
C6 C7 1_555 1_555
C7 C8 1_555 1_555
C8 C9 1_555 1_555
C10 C11 1_555 1_555
C12 C17 1_555 1_555
C16 C17 1_555 1_555

#END
