
#######################################################################
#
#                 Cambridge Crystallographic Data Centre
#                                CCDC 
#
#######################################################################
#
# If this CIF has been generated from an entry in the Cambridge 
# Structural Database, then it will include bibliographic, chemical, 
# crystal, experimental, refinement or atomic coordinate data resulting 
# from the CCDC's data processing and validation procedures.
#
#######################################################################

data_QABGIM
_chemical_compound_source        'endophytic fungus Phomopsis sp. shj2'
_chemical_name_common            'Phomopchalasin A monohydrate'
_chemical_formula_moiety         'C28 H37 N1 O4,H2 O1'
_chemical_name_systematic        
'3-Benzyl-6,7,13-trihydroxy-4,9,11-trimethyl-5-methylene-2,3,3a,4,5,6,6a,6b,7,8,9,10,12a,13-tetradecahydro-1H-cycloocta[3,4]cyclopenta[1,2-d]isoindol-1-one monohydrate'
_symmetry_cell_setting           orthorhombic
_symmetry_space_group_name_H-M   'P 21 21 21'
_symmetry_Int_Tables_number      19
_space_group_name_Hall           'P 2ac 2ab'
loop_
_symmetry_equiv_pos_site_id
_symmetry_equiv_pos_as_xyz
1 x,y,z
2 1/2+x,1/2-y,-z
3 -x,1/2+y,1/2-z
4 1/2-x,-y,1/2+z
_cell_length_a                   8.8230(16)
_cell_length_b                   9.7832(15)
_cell_length_c                   28.016(5)
_cell_angle_alpha                90
_cell_angle_beta                 90
_cell_angle_gamma                90
_cell_volume                     2418.26
_exptl_crystal_colour            colorless
_exptl_crystal_description       sheet
_cell_formula_units_Z            4
_exptl_crystal_recrystallization_method methanol/water
loop_
_atom_site_label
_atom_site_type_symbol
_atom_site_fract_x
_atom_site_fract_y
_atom_site_fract_z
O1 O 0.7288 0.6599 0.7602
H1 H 0.6709 0.6839 0.7380
C1 C 0.9375(15) 0.7511(9) 0.5530(3)
H2 H 1.0082 0.8241 0.5512
C2 C 0.8936(13) 0.7003(11) 0.5972(4)
C3 C 0.9591(14) 0.7538(9) 0.6423(3)
H3 H 1.0700 0.7638 0.6382
H4 H 0.9419 0.6859 0.6679
C4 C 0.8920(12) 0.8951(8) 0.6587(2)
H5 H 0.8718 0.9553 0.6306
C5 C 0.7475(10) 0.8784(7) 0.6896(2)
H6 H 0.7068 0.7835 0.6862
C6 C 0.8005(9) 0.9023(6) 0.7412(2)
C7 C 0.6966(8) 0.9937(6) 0.7711(2)
H7 H 0.5927 0.9529 0.7701
C8 C 0.7551(8) 0.9801(6) 0.8221(2)
H8 H 0.8582 1.0222 0.8243
C9 C 0.6559(11) 1.0344(8) 0.8635(2)
H9 H 0.5582 0.9828 0.8648
C10 C 0.7361(10) 1.0260(8) 0.9118(2)
H10 H 0.7250 1.1162 0.9275
H11 H 0.8455 1.0129 0.9055
C11 C 0.6884(10) 0.9171(8) 0.9482(2)
H12 H 0.5800 0.9347 0.9567
C12 C 0.7815(12) 0.9378(9) 0.9930(2)
H13 H 0.8867 0.9111 0.9869
H14 H 0.7400 0.8813 1.0188
H15 H 0.7779 1.0342 1.0024
C13 C 0.7704(9) 0.8216(7) 0.8253(2)
H16 H 0.6684 0.7820 0.8324
C14 C 0.8212(9) 0.7721(6) 0.77394(18)
H17 H 0.9302 0.7439 0.7745
C15 C 0.8829(8) 0.7671(6) 0.8616(2)
H18 H 0.9845 0.7539 0.8515
C16 C 0.8498(10) 0.7366(8) 0.9065(2)
C17 C 0.6988(10) 0.7692(8) 0.9285(2)
H19 H 0.6792 0.7041 0.9548
H20 H 0.6186 0.7561 0.9042
O2 O 0.6267(8) 1.1762(5) 0.85777(16)
H21 H 0.6194 1.1945 0.8286
C18 C 0.9699(12) 0.6745(9) 0.9383(2)
H22 H 0.9697 0.5749 0.9344
H23 H 0.9483 0.6975 0.9717
H24 H 1.0695 0.7108 0.9294
C19 C 0.6877(9) 1.1380(6) 0.7470(2)
H25 H 0.7841 1.1880 0.7539
C20 C 0.6708(9) 1.1252(8) 0.6928(3)
C21 C 0.6951(11) 1.2336(8) 0.6662(2)
H26 H 0.6822 1.2284 0.6326
H27 H 0.7257 1.3172 0.6805
C22 C 0.6220(10) 0.9857(7) 0.6752(2)
H28 H 0.5286 0.9609 0.6936
C23 C 0.5804(11) 0.9774(8) 0.6226(2)
H29 H 0.4819 1.0213 0.6174
H30 H 0.5746 0.8813 0.6129
H31 H 0.6578 1.0242 0.6036
O3 O 0.5637(6) 1.2165(5) 0.76595(17)
H32 H 0.4814 1.1787 0.7587
C24 C 0.9602(9) 0.9599(6) 0.7350(3)
N1 N 1.0005(8) 0.9584(6) 0.6909(2)
H33 H 1.0869 0.9930 0.6809
O4 O 1.0456(6) 1.0013(4) 0.76856(16)
C25 C 0.751(2) 0.518(2) 0.5672(7)
H34 H 0.7023 0.4318 0.5709
C26 C 0.8795(15) 0.6963(12) 0.5124(4)
H35 H 0.9042 0.7275 0.4813
C27 C 0.804(2) 0.5832(18) 0.6052(7)
H36 H 0.7825 0.5522 0.6366
C28 C 0.766(2) 0.5745(18) 0.5228(7)
H37 H 0.7065 0.5395 0.4973
O5 O 0.237(4) 0.018(6) 0.129(2)
loop_
_geom_bond_atom_site_label_1
_geom_bond_atom_site_label_2
_geom_bond_site_symmetry_1
_geom_bond_site_symmetry_2
O1 H1 1_555 1_555
C1 H2 1_555 1_555
C2 C1 1_555 1_555
C3 C2 1_555 1_555
H3 C3 1_555 1_555
H4 C3 1_555 1_555
C4 C3 1_555 1_555
H5 C4 1_555 1_555
C5 C4 1_555 1_555
H6 C5 1_555 1_555
C6 C5 1_555 1_555
C7 C6 1_555 1_555
H7 C7 1_555 1_555
C8 C7 1_555 1_555
H8 C8 1_555 1_555
C9 C8 1_555 1_555
H9 C9 1_555 1_555
C10 C9 1_555 1_555
H10 C10 1_555 1_555
H11 C10 1_555 1_555
C11 C10 1_555 1_555
H12 C11 1_555 1_555
C12 C11 1_555 1_555
H13 C12 1_555 1_555
H14 C12 1_555 1_555
H15 C12 1_555 1_555
C13 C8 1_555 1_555
H16 C13 1_555 1_555
C14 O1 1_555 1_555
H17 C14 1_555 1_555
C15 C13 1_555 1_555
H18 C15 1_555 1_555
C16 C15 1_555 1_555
C17 C11 1_555 1_555
H19 C17 1_555 1_555
H20 C17 1_555 1_555
O2 C9 1_555 1_555
H21 O2 1_555 1_555
C18 C16 1_555 1_555
H22 C18 1_555 1_555
H23 C18 1_555 1_555
H24 C18 1_555 1_555
C19 C7 1_555 1_555
H25 C19 1_555 1_555
C20 C19 1_555 1_555
C21 C20 1_555 1_555
H26 C21 1_555 1_555
H27 C21 1_555 1_555
C22 C5 1_555 1_555
H28 C22 1_555 1_555
C23 C22 1_555 1_555
H29 C23 1_555 1_555
H30 C23 1_555 1_555
H31 C23 1_555 1_555
O3 C19 1_555 1_555
H32 O3 1_555 1_555
C24 C6 1_555 1_555
N1 C4 1_555 1_555
H33 N1 1_555 1_555
O4 C24 1_555 1_555
C25 H34 1_555 1_555
C26 C1 1_555 1_555
H35 C26 1_555 1_555
C27 C2 1_555 1_555
H36 C27 1_555 1_555
C28 C25 1_555 1_555
H37 C28 1_555 1_555
C6 C14 1_555 1_555
C13 C14 1_555 1_555
C16 C17 1_555 1_555
C20 C22 1_555 1_555
C24 N1 1_555 1_555
C25 C27 1_555 1_555
C26 C28 1_555 1_555

#END
