
#######################################################################
#
#                 Cambridge Crystallographic Data Centre
#                                CCDC 
#
#######################################################################
#
# If this CIF has been generated from an entry in the Cambridge 
# Structural Database, then it will include bibliographic, chemical, 
# crystal, experimental, refinement or atomic coordinate data resulting 
# from the CCDC's data processing and validation procedures.
#
#######################################################################

data_QABLUD
_chemical_formula_moiety         'C22 H18 Br1 N1 O1'
_chemical_name_systematic        
4-benzyl-3-(4-bromophenyl)-2-methylene-3,4-dihydro-2H-1,4-benzoxazine
_symmetry_cell_setting           orthorhombic
_symmetry_space_group_name_H-M   'P 21 21 21'
_symmetry_Int_Tables_number      19
_space_group_name_Hall           'P 2ac 2ab'
loop_
_symmetry_equiv_pos_site_id
_symmetry_equiv_pos_as_xyz
1 x,y,z
2 1/2-x,-y,1/2+z
3 -x,1/2+y,1/2-z
4 1/2+x,1/2-y,-z
_cell_length_a                   9.7821(9)
_cell_length_b                   10.3912(9)
_cell_length_c                   35.968(3)
_cell_angle_alpha                90
_cell_angle_beta                 90
_cell_angle_gamma                90
_cell_volume                     3656.07
_exptl_crystal_colour            colorless
_exptl_crystal_description       block
_cell_formula_units_Z            8
loop_
_atom_site_label
_atom_site_type_symbol
_atom_site_fract_x
_atom_site_fract_y
_atom_site_fract_z
Br1 Br 0.79639(7) 0.74071(6) 0.09782(2)
N1 N 0.3407(4) 0.2545(4) 0.04925(10)
O1 O 0.1948(4) 0.4772(3) 0.03383(11)
C1 C 0.2006(6) 0.4288(5) 0.06955(16)
C2 C 0.1037(7) 0.4591(7) 0.09288(18)
H1 H 0.0325 0.5123 0.0853
H2 H 0.1058 0.4274 0.1171
C3 C 0.3253(6) 0.3515(5) 0.07790(13)
H3 H 0.3096 0.3067 0.1015
C4 C 0.3317(5) 0.2978(4) 0.01299(14)
C5 C 0.2624(5) 0.4113(5) 0.00583(14)
C6 C 0.2552(5) 0.4638(6) -0.02900(16)
H4 H 0.2135 0.5432 -0.0327
C7 C 0.3099(7) 0.3982(6) -0.05818(16)
H5 H 0.3031 0.4319 -0.0821
C8 C 0.3743(6) 0.2840(6) -0.05278(16)
H6 H 0.4104 0.2396 -0.0730
C9 C 0.3865(5) 0.2330(5) -0.01721(14)
H7 H 0.4315 0.1551 -0.0137
C10 C 0.4486(5) 0.4399(4) 0.08319(12)
C11 C 0.4414(6) 0.5341(6) 0.11047(14)
H8 H 0.3656 0.5381 0.1260
C12 C 0.5454(7) 0.6214(5) 0.11459(15)
H9 H 0.5392 0.6851 0.1327
C13 C 0.6571(6) 0.6153(5) 0.09247(16)
C14 C 0.6688(6) 0.5230(6) 0.06628(15)
H10 H 0.7461 0.5186 0.0513
C15 C 0.5633(6) 0.4343(5) 0.06208(14)
H11 H 0.5716 0.3697 0.0444
C16 C 0.4075(6) 0.1336(5) 0.05801(15)
H12 H 0.4246 0.1304 0.0846
H13 H 0.4952 0.1310 0.0455
C17 C 0.3264(5) 0.0163(4) 0.04702(12)
C18 C 0.3899(6) -0.1029(5) 0.04781(15)
H14 H 0.4816 -0.1089 0.0545
C19 C 0.3181(7) -0.2124(5) 0.03884(19)
H15 H 0.3621 -0.2917 0.0390
C20 C 0.1817(7) -0.2055(5) 0.02954(17)
H16 H 0.1327 -0.2798 0.0240
C21 C 0.1198(6) -0.0884(6) 0.02860(15)
H17 H 0.0280 -0.0827 0.0221
C22 C 0.1909(6) 0.0212(5) 0.03709(12)
H18 H 0.1467 0.1004 0.0361
Br2 Br 0.51647(7) -0.03103(6) 0.15351(2)
N2 N 0.1497(4) 0.4145(4) 0.25642(10)
O2 O 0.1666(4) 0.5614(3) 0.19198(9)
C23 C 0.2746(6) 0.5564(5) 0.21626(14)
C24 C 0.3620(7) 0.6501(6) 0.21723(17)
H19 H 0.3513 0.7204 0.2015
H20 H 0.4354 0.6470 0.2337
C25 C 0.2818(5) 0.4346(5) 0.23927(13)
H21 H 0.3480 0.4495 0.2593
C26 C 0.0365(5) 0.4264(5) 0.23400(12)
C27 C 0.0455(5) 0.4993(4) 0.20123(13)
C28 C -0.0619(6) 0.5150(5) 0.17797(13)
H22 H -0.0515 0.5631 0.1564
C29 C -0.1869(6) 0.4600(6) 0.18609(14)
H23 H -0.2612 0.4708 0.1702
C30 C -0.1990(6) 0.3888(5) 0.21826(15)
H24 H -0.2825 0.3512 0.2241
C31 C -0.0905(6) 0.3725(5) 0.24174(14)
H25 H -0.1018 0.3243 0.2633
C32 C 0.3326(5) 0.3198(5) 0.21664(13)
C33 C 0.2775(6) 0.1986(5) 0.22077(14)
H26 H 0.2030 0.1866 0.2365
C34 C 0.3311(6) 0.0951(5) 0.20199(15)
H27 H 0.2928 0.0139 0.2051
C35 C 0.4396(6) 0.1110(5) 0.17899(13)
C36 C 0.4951(5) 0.2304(5) 0.17380(14)
H28 H 0.5685 0.2414 0.1577
C37 C 0.4418(5) 0.3336(5) 0.19251(14)
H29 H 0.4798 0.4147 0.1889
C38 C 0.1387(5) 0.3585(5) 0.29323(12)
H30 H 0.2297 0.3469 0.3034
H31 H 0.0966 0.2743 0.2912
C39 C 0.0565(5) 0.4392(5) 0.31955(11)
C40 C 0.0776(6) 0.5701(5) 0.32161(14)
H32 H 0.1404 0.6086 0.3057
C41 C 0.0077(7) 0.6447(5) 0.34672(15)
H33 H 0.0230 0.7330 0.3477
C42 C -0.0845(7) 0.5884(7) 0.37026(14)
H34 H -0.1310 0.6385 0.3876
C43 C -0.1084(6) 0.4609(6) 0.36852(13)
H35 H -0.1723 0.4238 0.3844
C44 C -0.0382(5) 0.3843(5) 0.34321(13)
H36 H -0.0551 0.2963 0.3422
loop_
_geom_bond_atom_site_label_1
_geom_bond_atom_site_label_2
_geom_bond_site_symmetry_1
_geom_bond_site_symmetry_2
Br1 C13 1_555 1_555
N1 C3 1_555 1_555
O1 C1 1_555 1_555
C1 C2 1_555 1_555
C2 H1 1_555 1_555
H2 C2 1_555 1_555
C3 C1 1_555 1_555
H3 C3 1_555 1_555
C4 N1 1_555 1_555
C5 O1 1_555 1_555
C6 C5 1_555 1_555
H4 C6 1_555 1_555
C7 C6 1_555 1_555
H5 C7 1_555 1_555
C8 C7 1_555 1_555
H6 C8 1_555 1_555
C9 C4 1_555 1_555
H7 C9 1_555 1_555
C10 C3 1_555 1_555
C11 C10 1_555 1_555
H8 C11 1_555 1_555
C12 C11 1_555 1_555
H9 C12 1_555 1_555
C13 C12 1_555 1_555
C14 C13 1_555 1_555
H10 C14 1_555 1_555
C15 C10 1_555 1_555
H11 C15 1_555 1_555
C16 N1 1_555 1_555
H12 C16 1_555 1_555
H13 C16 1_555 1_555
C17 C16 1_555 1_555
C18 C17 1_555 1_555
H14 C18 1_555 1_555
C19 C18 1_555 1_555
H15 C19 1_555 1_555
C20 C19 1_555 1_555
H16 C20 1_555 1_555
C21 C20 1_555 1_555
H17 C21 1_555 1_555
C22 C17 1_555 1_555
H18 C22 1_555 1_555
Br2 C35 1_555 1_555
N2 C25 1_555 1_555
O2 C23 1_555 1_555
C23 C24 1_555 1_555
C24 H19 1_555 1_555
H20 C24 1_555 1_555
C25 C23 1_555 1_555
H21 C25 1_555 1_555
C26 N2 1_555 1_555
C27 O2 1_555 1_555
C28 C27 1_555 1_555
H22 C28 1_555 1_555
C29 C28 1_555 1_555
H23 C29 1_555 1_555
C30 C29 1_555 1_555
H24 C30 1_555 1_555
C31 C26 1_555 1_555
H25 C31 1_555 1_555
C32 C25 1_555 1_555
C33 C32 1_555 1_555
H26 C33 1_555 1_555
C34 C33 1_555 1_555
H27 C34 1_555 1_555
C35 C34 1_555 1_555
C36 C35 1_555 1_555
H28 C36 1_555 1_555
C37 C32 1_555 1_555
H29 C37 1_555 1_555
C38 N2 1_555 1_555
H30 C38 1_555 1_555
H31 C38 1_555 1_555
C39 C38 1_555 1_555
C40 C39 1_555 1_555
H32 C40 1_555 1_555
C41 C40 1_555 1_555
H33 C41 1_555 1_555
C42 C41 1_555 1_555
H34 C42 1_555 1_555
C43 C42 1_555 1_555
H35 C43 1_555 1_555
C44 C39 1_555 1_555
H36 C44 1_555 1_555
C4 C5 1_555 1_555
C8 C9 1_555 1_555
C14 C15 1_555 1_555
C21 C22 1_555 1_555
C26 C27 1_555 1_555
C30 C31 1_555 1_555
C36 C37 1_555 1_555
C43 C44 1_555 1_555

#END
