
#######################################################################
#
#                 Cambridge Crystallographic Data Centre
#                                CCDC 
#
#######################################################################
#
# If this CIF has been generated from an entry in the Cambridge 
# Structural Database, then it will include bibliographic, chemical, 
# crystal, experimental, refinement or atomic coordinate data resulting 
# from the CCDC's data processing and validation procedures.
#
#######################################################################

data_QABLOX
_chemical_formula_moiety         'C12 H14 N2 O5'
_chemical_name_systematic        
'dimethyl (2-(methyl(nitroso)amino)phenyl)malonate'
_symmetry_cell_setting           monoclinic
_symmetry_space_group_name_H-M   'P 21/c'
_symmetry_Int_Tables_number      14
_space_group_name_Hall           '-P 2ybc'
loop_
_symmetry_equiv_pos_site_id
_symmetry_equiv_pos_as_xyz
1 x,y,z
2 -x,1/2+y,1/2-z
3 -x,-y,-z
4 x,1/2-y,1/2+z
_cell_length_a                   8.9220(18)
_cell_length_b                   19.474(4)
_cell_length_c                   8.1800(16)
_cell_angle_alpha                90
_cell_angle_beta                 111.49(3)
_cell_angle_gamma                90
_cell_volume                     1322.45
_exptl_crystal_colour            colorless
_exptl_crystal_description       needle
_cell_formula_units_Z            4
loop_
_atom_site_label
_atom_site_type_symbol
_atom_site_fract_x
_atom_site_fract_y
_atom_site_fract_z
O1 O 0.3624(3) 0.38960(12) 0.0972(3)
N1 N 0.4156(3) 0.32838(12) 0.5858(3)
C1 C 0.2534(3) 0.32544(12) 0.4627(3)
O2 O 0.5355(2) 0.46072(10) 0.2892(3)
C2 C 0.1583(4) 0.27006(14) 0.4709(4)
H1 H 0.1997 0.2366 0.5567
N2 N 0.5283(3) 0.32697(16) 0.5186(4)
O3 O 0.1876(3) 0.53212(12) 0.1301(3)
C3 C 0.0031(4) 0.26478(15) 0.3523(4)
H2 H -0.0616 0.2284 0.3597
O4 O 0.1101(2) 0.51927(9) 0.3591(3)
C4 C -0.0561(3) 0.31298(15) 0.2233(4)
H3 H -0.1599 0.3084 0.1406
C5 C 0.0378(3) 0.36865(13) 0.2150(3)
H4 H -0.0041 0.4013 0.1270
O5 O 0.6657(3) 0.32386(17) 0.6253(4)
C6 C 0.1931(3) 0.37624(12) 0.3364(3)
C7 C 0.2946(3) 0.43887(12) 0.3314(3)
H5 H 0.3662 0.4490 0.4522
C8 C 0.3986(3) 0.42561(13) 0.2242(3)
C9 C 0.6513(4) 0.4496(2) 0.2051(5)
H6 H 0.7447 0.4775 0.2611
H7 H 0.6035 0.4617 0.0832
H8 H 0.6822 0.4021 0.2155
C10 C 0.1918(3) 0.50219(13) 0.2591(3)
C11 C 0.0078(4) 0.57912(15) 0.3077(5)
H9 H -0.0454 0.5862 0.3893
H10 H -0.0712 0.5723 0.1920
H11 H 0.0721 0.6186 0.3077
C12 C 0.4571(6) 0.3271(3) 0.7753(5)
H12 H 0.5720 0.3292 0.8331
H13 H 0.4175 0.2855 0.8078
H14 H 0.4091 0.3658 0.8098
loop_
_geom_bond_atom_site_label_1
_geom_bond_atom_site_label_2
_geom_bond_site_symmetry_1
_geom_bond_site_symmetry_2
O1 C8 1_555 1_555
N1 C1 1_555 1_555
C1 C2 1_555 1_555
O2 C8 1_555 1_555
C2 H1 1_555 1_555
N2 N1 1_555 1_555
O3 C10 1_555 1_555
C3 C2 1_555 1_555
H2 C3 1_555 1_555
O4 C10 1_555 1_555
C4 C3 1_555 1_555
H3 C4 1_555 1_555
C5 C4 1_555 1_555
H4 C5 1_555 1_555
O5 N2 1_555 1_555
C6 C1 1_555 1_555
C7 C6 1_555 1_555
H5 C7 1_555 1_555
C8 C7 1_555 1_555
C9 O2 1_555 1_555
H6 C9 1_555 1_555
H7 C9 1_555 1_555
H8 C9 1_555 1_555
C10 C7 1_555 1_555
C11 O4 1_555 1_555
H9 C11 1_555 1_555
H10 C11 1_555 1_555
H11 C11 1_555 1_555
C12 N1 1_555 1_555
H12 C12 1_555 1_555
H13 C12 1_555 1_555
H14 C12 1_555 1_555
C5 C6 1_555 1_555

#END
