
#######################################################################
#
#                 Cambridge Crystallographic Data Centre
#                                CCDC 
#
#######################################################################
#
# If this CIF has been generated from an entry in the Cambridge 
# Structural Database, then it will include bibliographic, chemical, 
# crystal, experimental, refinement or atomic coordinate data resulting 
# from the CCDC's data processing and validation procedures.
#
#######################################################################

data_QABQAN
_chemical_formula_moiety         
'2(C40 H44 N24 O12),C18 H28 N4 2+,2(Cl1 1-),36(H2 O1)'
_chemical_name_systematic        
"bis(\a,\a',\f,\f'-Tetramethylcucurbit(6)uril) N,N'-bis(2-pyridylmethyl)-1,6-hexanediamine dichloride hydrate"
_symmetry_cell_setting           triclinic
_symmetry_space_group_name_H-M   'P -1'
_symmetry_Int_Tables_number      2
_space_group_name_Hall           '-P 1'
loop_
_symmetry_equiv_pos_site_id
_symmetry_equiv_pos_as_xyz
1 x,y,z
2 -x,-y,-z
_cell_length_a                   11.8480(17)
_cell_length_b                   12.9541(19)
_cell_length_c                   23.084(3)
_cell_angle_alpha                103.445(4)
_cell_angle_beta                 91.127(5)
_cell_angle_gamma                93.743(5)
_cell_volume                     3436.27
_cell_formula_units_Z            1
loop_
_atom_site_label
_atom_site_type_symbol
_atom_site_fract_x
_atom_site_fract_y
_atom_site_fract_z
O1 O 0.6866(3) 1.3495(3) 0.45239(16)
O2 O 0.4055(4) 1.7254(4) 0.4560(2)
O3 O 0.4992(5) 0.9250(4) 0.4460(2)
O4 O 0.6537(4) 0.7739(4) 0.2821(2)
O5 O -0.2275(4) 1.3884(4) 0.0680(2)
O6 O -0.3259(5) 0.8011(4) 0.4059(2)
O7 O -0.3109(4) 0.7294(4) 0.1103(3)
O8 O 0.2932(5) 1.3862(4) 0.1321(4)
O9 O -0.4268(8) 1.5898(7) 0.2954(4)
O11 O 0.3107(6) 1.1639(6) 0.0406(2)
O12 O -0.0071(9) 0.5999(7) -0.0142(3)
O13 O -0.3799(7) 1.2080(7) 0.0384(4)
O14 O -0.5069(8) 1.1680(8) 0.0984(4)
O17 O 0.4376(8) 0.6857(6) 0.0343(5)
O18 O 0.4437(8) 0.4717(7) 0.0372(5)
O19 O -0.2155(10) 0.5769(9) 0.0065(5)
O21 O 0.5652(8) 0.8428(8) 0.0536(4)
O22 O -0.3487(10) 1.5363(7) 0.1412(5)
O23 O -0.3543(6) 1.0466(7) 0.0246(4)
Cl1 Cl 0.60773(14) 0.56559(13) 0.42975(7)
C1 C 0.1697(8) 1.0592(7) 0.2221(4)
H1 H 0.1995 1.0005 0.1966
C2 C 0.1975(5) 1.1548(8) 0.2126(3)
H2 H 0.2477 1.1634 0.1827
C3 C 0.1499(8) 1.2410(6) 0.2480(4)
H3 H 0.1638 1.3102 0.2425
C4 C 0.0791(7) 1.2195(5) 0.2934(3)
H4 H 0.0442 1.2744 0.3192
C5 C 0.0639(4) 1.1195(5) 0.2980(2)
C6 C -0.0215(6) 1.1032(6) 0.3501(4)
H5 H -0.0003 1.1541 0.3878
H6 H -0.0999 1.1118 0.3388
C7 C -0.1057(7) 0.9567(7) 0.3898(4)
H7 H -0.1759 0.9476 0.3654
H8 H -0.0893 0.8866 0.3957
C8 C -0.1236(7) 1.0246(7) 0.4461(3)
H9 H -0.1871 0.9925 0.4640
H10 H -0.1468 1.0923 0.4395
C9 C -0.0219(6) 1.0490(5) 0.4919(3)
H11 H 0.0401 1.0860 0.4756
H12 H -0.0447 1.0974 0.5284
N1 N 0.1058(6) 1.0400(5) 0.2632(3)
N2 N -0.0076(4) 0.9971(5) 0.3546(2)
H13 H 0.0598 0.9946 0.3736
H14 H -0.0068 0.9538 0.3175
C1A C -0.1697(8) 0.9408(7) 0.7779(4)
H1A H -0.1995 0.9995 0.8034
C2A C -0.1975(5) 0.8452(8) 0.7874(3)
H2A H -0.2477 0.8366 0.8173
C3A C -0.1499(8) 0.7590(6) 0.7520(4)
H3A H -0.1638 0.6898 0.7575
C4A C -0.0791(7) 0.7805(5) 0.7066(3)
H4A H -0.0442 0.7256 0.6808
C5A C -0.0639(4) 0.8805(5) 0.7020(2)
C6A C 0.0215(6) 0.8968(6) 0.6499(4)
H5A H 0.0003 0.8459 0.6122
H6A H 0.0999 0.8882 0.6612
C7A C 0.1057(7) 1.0433(7) 0.6102(4)
H7A H 0.1759 1.0524 0.6346
H8A H 0.0893 1.1134 0.6043
C8A C 0.1236(7) 0.9754(7) 0.5539(3)
H9A H 0.1871 1.0075 0.5360
H10A H 0.1468 0.9077 0.5605
C9A C 0.0219(6) 0.9510(5) 0.5081(3)
H11A H -0.0401 0.9140 0.5244
H12A H 0.0447 0.9026 0.4716
N1A N -0.1058(6) 0.9600(5) 0.7368(3)
N2A N 0.0076(4) 1.0029(5) 0.6454(2)
H13A H -0.0598 1.0054 0.6264
H14A H 0.0068 1.0462 0.6825
C10 C 0.1395(4) 0.7794(4) 0.2485(2)
C11 C 0.2007(4) 0.7341(4) 0.1491(2)
C12 C 0.3086(4) 0.7598(4) 0.1947(2)
C13 C 0.3174(4) 0.8765(4) 0.1297(2)
C14 C 0.3147(4) 0.8165(4) 0.3101(2)
H15 H 0.3811 0.7748 0.3091
H16 H 0.2647 0.7988 0.3402
C15 C 0.4767(4) 0.9010(4) 0.2021(2)
H17 H 0.5227 0.8466 0.2116
H18 H 0.5149 0.9292 0.1712
C16 C 0.3026(5) 0.9963(4) 0.3743(2)
C17 C 0.4614(4) 0.9703(4) 0.3150(2)
H19 H 0.5218 0.9277 0.3253
C18 C 0.4716(4) 1.0854(4) 0.3545(2)
H20 H 0.5408 1.0992 0.3806
C19 C 0.4834(4) 1.0915(4) 0.2541(2)
C20 C 0.3510(4) 1.1733(4) 0.4405(2)
H21 H 0.4218 1.1929 0.4644
H22 H 0.2953 1.1455 0.4649
C21 C 0.5103(4) 1.2632(4) 0.3278(2)
H23 H 0.5417 1.2842 0.2929
H24 H 0.5706 1.2751 0.3587
C22 C 0.2070(4) 1.3023(4) 0.4420(2)
C23 C 0.3858(4) 1.3502(4) 0.4115(2)
H25 H 0.4524 1.3686 0.4395
C24 C 0.3104(4) 1.4446(4) 0.4167(2)
H26 H 0.3405 1.5070 0.4479
C25 C 0.3833(4) 1.4037(4) 0.3210(2)
C26 C 0.1079(4) 1.4672(4) 0.4514(2)
H27 H 0.0623 1.4340 0.4780
H28 H 0.1383 1.5372 0.4745
C27 C 0.2678(4) 1.5602(4) 0.3448(2)
H29 H 0.3091 1.5790 0.3119
H30 H 0.2805 1.6199 0.3797
C28 C -0.0601(4) 1.4177(4) 0.3855(2)
C29 C 0.0527(4) 1.5636(4) 0.3691(2)
C30 C -0.0546(4) 1.5410(4) 0.3242(2)
C31 C 0.1126(4) 1.5210(4) 0.2694(2)
C32 C -0.2214(4) 1.3952(4) 0.3138(2)
H31 H -0.2606 1.3674 0.3445
H32 H -0.2667 1.4499 0.3039
C33 C -0.0619(4) 1.4843(4) 0.2084(2)
H33 H -0.0133 1.5039 0.1783
H34 H -0.1302 1.5234 0.2095
C34 C -0.2308(4) 1.2038(4) 0.2621(2)
C35 C -0.2046(4) 1.3268(4) 0.2016(2)
H35 H -0.2657 1.3684 0.1911
C36 C -0.2114(4) 1.2127(4) 0.1615(2)
H36 H -0.2778 1.1992 0.1334
C37 C -0.0428(5) 1.3045(4) 0.1450(2)
C38 C -0.2563(4) 1.0336(4) 0.1864(2)
H37 H -0.2882 1.0112 0.2207
H38 H -0.3163 1.0230 0.1553
C39 C -0.0879(4) 1.1272(4) 0.0781(2)
H39 H -0.0313 1.1550 0.0542
H40 H -0.1588 1.1100 0.0541
C40 C -0.1275(4) 0.8946(4) 0.1934(2)
C41 C -0.1296(4) 0.9479(4) 0.1038(2)
H41 H -0.1949 0.9318 0.0750
C42 C -0.0554(4) 0.8511(4) 0.0979(2)
H42 H -0.0890 0.7881 0.0682
C43 C 0.0530(4) 0.9924(4) 0.0732(2)
C44 C -0.0125(4) 0.7394(4) 0.1719(2)
H43 H -0.0565 0.7224 0.2044
H44 H -0.0253 0.6794 0.1372
C45 C 0.1481(4) 0.8252(4) 0.0645(2)
H45 H 0.1959 0.8560 0.0377
H46 H 0.1200 0.7536 0.0427
C46 C 0.1907(5) 0.6238(4) 0.1081(2)
H47 H 0.1771 0.5711 0.1314
H48 H 0.2603 0.6111 0.0870
H49 H 0.1281 0.6186 0.0795
C47 C 0.3855(4) 0.6693(4) 0.1901(2)
H50 H 0.3442 0.6091 0.2002
H51 H 0.4503 0.6925 0.2175
H52 H 0.4113 0.6483 0.1497
C48 C 0.0655(4) 1.6749(4) 0.4102(2)
H53 H 0.0018 1.6850 0.4361
H54 H 0.0678 1.7277 0.3864
H55 H 0.1352 1.6828 0.4341
C49 C -0.1322(4) 1.6307(4) 0.3302(2)
H56 H -0.0921 1.6915 0.3201
H57 H -0.1565 1.6507 0.3709
H58 H -0.1978 1.6075 0.3034
N3 N 0.1061(3) 0.7505(3) 0.18951(18)
N4 N 0.2556(3) 0.7852(3) 0.25238(16)
N5 N 0.2170(3) 0.8162(3) 0.11520(18)
N6 N 0.3674(3) 0.8510(3) 0.17817(17)
N7 N 0.3519(3) 0.9296(3) 0.32804(18)
N8 N 0.3705(3) 1.0902(3) 0.38839(17)
N9 N 0.4723(3) 0.9864(3) 0.25492(17)
N10 N 0.4740(3) 1.1504(3) 0.31133(17)
N11 N 0.3105(3) 1.2681(3) 0.42571(17)
N12 N 0.2018(3) 1.4023(3) 0.43192(17)
N13 N 0.4188(3) 1.3303(3) 0.34960(17)
N14 N 0.3131(3) 1.4670(3) 0.35803(17)
N15 N 0.0347(3) 1.4821(3) 0.40321(17)
N16 N -0.1111(3) 1.4448(3) 0.33820(18)
N17 N 0.1467(3) 1.5458(3) 0.32856(18)
N18 N -0.0028(3) 1.5172(3) 0.26598(18)
N19 N -0.2159(3) 1.3100(3) 0.26134(18)
N20 N -0.2193(3) 1.1458(3) 0.20401(19)
N21 N -0.0943(4) 1.3710(3) 0.19037(19)
N22 N -0.1059(3) 1.2089(3) 0.13086(17)
N23 N -0.1652(3) 0.9676(3) 0.16419(18)
N24 N -0.0545(3) 0.8331(3) 0.15722(17)
N25 N -0.0501(3) 1.0299(3) 0.09130(17)
N26 N 0.0528(3) 0.8891(3) 0.07935(18)
O25 O 0.0761(3) 0.7928(3) 0.29072(15)
O26 O 0.2165(3) 0.9758(3) 0.39926(15)
O27 O 0.1312(3) 1.2541(3) 0.46220(16)
O28 O -0.0966(3) 1.3468(3) 0.40939(15)
O29 O -0.2529(3) 1.1681(3) 0.30512(16)
O30 O -0.1535(3) 0.8863(3) 0.24386(16)
O31 O 0.3561(3) 0.9435(3) 0.10418(15)
O32 O 0.5021(3) 1.1272(3) 0.21006(15)
O33 O 0.4093(3) 1.4139(3) 0.27136(15)
O34 O 0.1751(3) 1.5075(3) 0.22712(15)
O35 O 0.0440(3) 1.3260(3) 0.12064(16)
O36 O 0.1278(3) 1.0403(3) 0.05262(15)
O10? O -0.3956(7) 1.5332(7) 0.2437(4)
O15? O 0.4770(8) 1.2568(8) 0.1318(4)
O16? O 0.5100(8) 1.3861(9) 0.1631(4)
O20? O -0.2512(9) 0.6789(8) -0.0024(4)
O24? O -0.4129(7) 1.0028(7) 0.0603(4)
loop_
_geom_bond_atom_site_label_1
_geom_bond_atom_site_label_2
_geom_bond_site_symmetry_1
_geom_bond_site_symmetry_2
C1 H1 1_555 1_555
C2 C1 1_555 1_555
H2 C2 1_555 1_555
C3 C2 1_555 1_555
H3 C3 1_555 1_555
C4 C3 1_555 1_555
H4 C4 1_555 1_555
C5 C4 1_555 1_555
C6 C5 1_555 1_555
H5 C6 1_555 1_555
H6 C6 1_555 1_555
C7 H7 1_555 1_555
H8 C7 1_555 1_555
C8 C7 1_555 1_555
H9 C8 1_555 1_555
H10 C8 1_555 1_555
C9 C8 1_555 1_555
H11 C9 1_555 1_555
H12 C9 1_555 1_555
N1 C1 1_555 1_555
N2 C6 1_555 1_555
H13 N2 1_555 1_555
H14 N2 1_555 1_555
C10 N3 1_555 1_555
C11 C12 1_555 1_555
C12 C47 1_555 1_555
C13 N5 1_555 1_555
C14 H15 1_555 1_555
H16 C14 1_555 1_555
C15 H17 1_555 1_555
H18 C15 1_555 1_555
C16 N7 1_555 1_555
C17 H19 1_555 1_555
C18 C17 1_555 1_555
H20 C18 1_555 1_555
C19 N9 1_555 1_555
C20 H21 1_555 1_555
H22 C20 1_555 1_555
C21 H23 1_555 1_555
H24 C21 1_555 1_555
C22 N11 1_555 1_555
C23 H25 1_555 1_555
C24 C23 1_555 1_555
H26 C24 1_555 1_555
C25 N13 1_555 1_555
C26 H27 1_555 1_555
H28 C26 1_555 1_555
C27 H29 1_555 1_555
H30 C27 1_555 1_555
C28 N15 1_555 1_555
C29 C30 1_555 1_555
C30 C49 1_555 1_555
C31 N17 1_555 1_555
C32 H31 1_555 1_555
H32 C32 1_555 1_555
C33 H33 1_555 1_555
H34 C33 1_555 1_555
C34 N19 1_555 1_555
C35 H35 1_555 1_555
C36 C35 1_555 1_555
H36 C36 1_555 1_555
C37 N21 1_555 1_555
C38 H37 1_555 1_555
H38 C38 1_555 1_555
C39 H39 1_555 1_555
H40 C39 1_555 1_555
C40 N23 1_555 1_555
C41 H41 1_555 1_555
C42 C41 1_555 1_555
H42 C42 1_555 1_555
C43 N25 1_555 1_555
C44 H43 1_555 1_555
H44 C44 1_555 1_555
C45 H45 1_555 1_555
H46 C45 1_555 1_555
C46 C11 1_555 1_555
H47 C46 1_555 1_555
H48 C46 1_555 1_555
H49 C46 1_555 1_555
C47 H50 1_555 1_555
H51 C47 1_555 1_555
H52 C47 1_555 1_555
C48 C29 1_555 1_555
H53 C48 1_555 1_555
H54 C48 1_555 1_555
H55 C48 1_555 1_555
C49 H56 1_555 1_555
H57 C49 1_555 1_555
H58 C49 1_555 1_555
N3 C11 1_555 1_555
N4 C10 1_555 1_555
N5 C11 1_555 1_555
N6 C12 1_555 1_555
N7 C14 1_555 1_555
N8 C16 1_555 1_555
N9 C15 1_555 1_555
N10 C18 1_555 1_555
N11 C20 1_555 1_555
N12 C22 1_555 1_555
N13 C21 1_555 1_555
N14 C24 1_555 1_555
N15 C26 1_555 1_555
N16 C28 1_555 1_555
N17 C27 1_555 1_555
N18 C30 1_555 1_555
N19 C32 1_555 1_555
N20 C34 1_555 1_555
N21 C33 1_555 1_555
N22 C36 1_555 1_555
N23 C38 1_555 1_555
N24 C40 1_555 1_555
N25 C39 1_555 1_555
N26 C42 1_555 1_555
O25 C10 1_555 1_555
O26 C16 1_555 1_555
O27 C22 1_555 1_555
O28 C28 1_555 1_555
O29 C34 1_555 1_555
O30 C40 1_555 1_555
O31 C13 1_555 1_555
O32 C19 1_555 1_555
O33 C25 1_555 1_555
O34 C31 1_555 1_555
O35 C37 1_555 1_555
O36 C43 1_555 1_555
C1A H1A 1_555 1_555
C2A C1A 1_555 1_555
H2A C2A 1_555 1_555
C3A C2A 1_555 1_555
H3A C3A 1_555 1_555
C4A C3A 1_555 1_555
H4A C4A 1_555 1_555
C5A C4A 1_555 1_555
C6A C5A 1_555 1_555
H5A C6A 1_555 1_555
H6A C6A 1_555 1_555
C7A H7A 1_555 1_555
H8A C7A 1_555 1_555
C8A C7A 1_555 1_555
H9A C8A 1_555 1_555
H10A C8A 1_555 1_555
C9A C9 1_555 1_555
H11A C9A 1_555 1_555
H12A C9A 1_555 1_555
N1A C1A 1_555 1_555
N2A C6A 1_555 1_555
H13A N2A 1_555 1_555
H14A N2A 1_555 1_555
C5 N1 1_555 1_555
C7 N2 1_555 1_555
C12 N4 1_555 1_555
C13 N6 1_555 1_555
C14 N4 1_555 1_555
C15 N6 1_555 1_555
C17 N7 1_555 1_555
C17 N9 1_555 1_555
C18 N8 1_555 1_555
C19 N10 1_555 1_555
C20 N8 1_555 1_555
C21 N10 1_555 1_555
C23 N11 1_555 1_555
C23 N13 1_555 1_555
C24 N12 1_555 1_555
C25 N14 1_555 1_555
C26 N12 1_555 1_555
C27 N14 1_555 1_555
C29 N15 1_555 1_555
C29 N17 1_555 1_555
C30 N16 1_555 1_555
C31 N18 1_555 1_555
C32 N16 1_555 1_555
C33 N18 1_555 1_555
C35 N19 1_555 1_555
C35 N21 1_555 1_555
C36 N20 1_555 1_555
C37 N22 1_555 1_555
C38 N20 1_555 1_555
C39 N22 1_555 1_555
C41 N23 1_555 1_555
C41 N25 1_555 1_555
C42 N24 1_555 1_555
C43 N26 1_555 1_555
C44 N3 1_555 1_555
C44 N24 1_555 1_555
C45 N5 1_555 1_555
C45 N26 1_555 1_555
C5A N1A 1_555 1_555
C7A N2A 1_555 1_555
C8A C9A 1_555 1_555

#END
