
#######################################################################
#
#                 Cambridge Crystallographic Data Centre
#                                CCDC 
#
#######################################################################
#
# If this CIF has been generated from an entry in the Cambridge 
# Structural Database, then it will include bibliographic, chemical, 
# crystal, experimental, refinement or atomic coordinate data resulting 
# from the CCDC's data processing and validation procedures.
#
#######################################################################

data_QABSEU
_chemical_formula_moiety         'C24 H16 O1'
_chemical_name_systematic        (4-methylphenyl)(pyren-2-yl)methanone
_symmetry_cell_setting           monoclinic
_symmetry_space_group_name_H-M   'P 21/c'
_symmetry_Int_Tables_number      14
_space_group_name_Hall           '-P 2ybc'
loop_
_symmetry_equiv_pos_site_id
_symmetry_equiv_pos_as_xyz
1 x,y,z
2 -x,1/2+y,1/2-z
3 -x,-y,-z
4 x,1/2-y,1/2+z
_cell_length_a                   13.642(3)
_cell_length_b                   10.787(2)
_cell_length_c                   11.551(2)
_cell_angle_alpha                90
_cell_angle_beta                 110.73(3)
_cell_angle_gamma                90
_cell_volume                     1589.75
_exptl_crystal_colour            yellow
_exptl_crystal_description       Block
_cell_formula_units_Z            4
loop_
_atom_site_label
_atom_site_type_symbol
_atom_site_fract_x
_atom_site_fract_y
_atom_site_fract_z
C1 C 0.28652(12) 0.00760(14) 0.39711(14)
C2 C 0.30871(12) -0.10420(15) 0.35114(15)
H1 H 0.3756 -0.1380 0.3846
C3 C 0.23155(12) -0.16614(14) 0.25517(14)
C4 C 0.25248(13) -0.27907(15) 0.20170(16)
H2 H 0.3191 -0.3138 0.2328
C5 C 0.17725(13) -0.33545(15) 0.10733(16)
H3 H 0.1935 -0.4079 0.0743
C6 C 0.07268(12) -0.28663(14) 0.05643(14)
C7 C -0.00614(13) -0.34240(15) -0.04257(15)
H4 H 0.0087 -0.4140 -0.0781
C8 C -0.10595(13) -0.29257(15) -0.08838(15)
H5 H -0.1573 -0.3311 -0.1542
C9 C -0.13042(13) -0.18568(15) -0.03722(15)
H6 H -0.1980 -0.1536 -0.0688
C10 C -0.05392(12) -0.12580(15) 0.06163(14)
C11 C -0.07496(12) -0.01315(15) 0.11493(14)
H7 H -0.1422 0.0200 0.0855
C12 C 0.00092(12) 0.04562(14) 0.20693(14)
H8 H -0.0149 0.1188 0.2391
C13 C 0.10566(12) -0.00287(14) 0.25598(14)
C14 C 0.18578(12) 0.05768(14) 0.34940(14)
H9 H 0.1718 0.1326 0.3803
C15 C 0.12884(12) -0.11554(14) 0.20733(13)
C16 C 0.04884(12) -0.17627(14) 0.10876(14)
C17 C 0.36966(12) 0.06747(16) 0.50390(14)
C18 C 0.37540(11) 0.20597(15) 0.51029(14)
C19 C 0.41809(12) 0.26372(16) 0.62553(15)
H10 H 0.4447 0.2157 0.6967
C20 C 0.42122(12) 0.39164(17) 0.63498(15)
H11 H 0.4489 0.4286 0.7125
C21 C 0.38333(12) 0.46567(16) 0.52956(16)
C22 C 0.34413(12) 0.40799(15) 0.41436(15)
H12 H 0.3207 0.4561 0.3430
C23 C 0.33954(12) 0.28008(15) 0.40474(14)
H13 H 0.3123 0.2432 0.3271
C24 C 0.38335(14) 0.60515(16) 0.53895(18)
H14 H 0.4058 0.6290 0.6245
H15 H 0.3138 0.6360 0.4963
H16 H 0.4304 0.6392 0.5021
O1 O 0.43029(10) 0.00423(12) 0.58578(11)
loop_
_geom_bond_atom_site_label_1
_geom_bond_atom_site_label_2
_geom_bond_site_symmetry_1
_geom_bond_site_symmetry_2
C1 C2 1_555 1_555
C2 H1 1_555 1_555
C3 C2 1_555 1_555
C4 C3 1_555 1_555
H2 C4 1_555 1_555
C5 C4 1_555 1_555
H3 C5 1_555 1_555
C6 C5 1_555 1_555
C7 C6 1_555 1_555
H4 C7 1_555 1_555
C8 C7 1_555 1_555
H5 C8 1_555 1_555
C9 C8 1_555 1_555
H6 C9 1_555 1_555
C10 C9 1_555 1_555
C11 C10 1_555 1_555
H7 C11 1_555 1_555
C12 C11 1_555 1_555
H8 C12 1_555 1_555
C13 C12 1_555 1_555
C14 C1 1_555 1_555
H9 C14 1_555 1_555
C15 C3 1_555 1_555
C16 C6 1_555 1_555
C17 C1 1_555 1_555
C18 C17 1_555 1_555
C19 C18 1_555 1_555
H10 C19 1_555 1_555
C20 C19 1_555 1_555
H11 C20 1_555 1_555
C21 C20 1_555 1_555
C22 C21 1_555 1_555
H12 C22 1_555 1_555
C23 C18 1_555 1_555
H13 C23 1_555 1_555
C24 C21 1_555 1_555
H14 C24 1_555 1_555
H15 C24 1_555 1_555
H16 C24 1_555 1_555
O1 C17 1_555 1_555
C10 C16 1_555 1_555
C13 C14 1_555 1_555
C13 C15 1_555 1_555
C15 C16 1_555 1_555
C22 C23 1_555 1_555

#END
