
#######################################################################
#
#                 Cambridge Crystallographic Data Centre
#                                CCDC 
#
#######################################################################
#
# If this CIF has been generated from an entry in the Cambridge 
# Structural Database, then it will include bibliographic, chemical, 
# crystal, experimental, refinement or atomic coordinate data resulting 
# from the CCDC's data processing and validation procedures.
#
#######################################################################

data_QABSES01
_chemical_formula_moiety         'C18 H14 N2 O1'
_chemical_name_systematic        
7,8,13,13b-tetrahydro-5H-benzo[1,2]indolizino[8,7-b]indol-5-one
_symmetry_cell_setting           monoclinic
_symmetry_space_group_name_H-M   'P 21/n'
_symmetry_Int_Tables_number      14
_space_group_name_Hall           '-P 2yn'
loop_
_symmetry_equiv_pos_site_id
_symmetry_equiv_pos_as_xyz
1 x,y,z
2 1/2-x,1/2+y,1/2-z
3 -x,-y,-z
4 1/2+x,1/2-y,1/2+z
_cell_length_a                   12.780(10)
_cell_length_b                   7.430(6)
_cell_length_c                   14.845(11)
_cell_angle_alpha                90
_cell_angle_beta                 103.704(15)
_cell_angle_gamma                90
_cell_volume                     1369.48
_exptl_crystal_colour            colorless
_exptl_crystal_description       irregular
_cell_formula_units_Z            4
loop_
_atom_site_label
_atom_site_type_symbol
_atom_site_fract_x
_atom_site_fract_y
_atom_site_fract_z
O1 O 0.41510(11) 1.05005(14) 0.75148(9)
C1 C 0.40020(12) 0.88687(19) 0.74483(11)
N1 N 0.39122(11) 0.78733(16) 0.66736(9)
C2 C 0.38628(11) 0.59358(18) 0.68385(10)
C3 C 0.48505(11) 0.51275(17) 0.66264(9)
N2 N 0.52800(9) 0.34742(15) 0.69280(8)
C4 C 0.62351(11) 0.3280(2) 0.66644(9)
C5 C 0.69912(13) 0.1908(2) 0.68452(10)
C6 C 0.79164(14) 0.2139(3) 0.65338(11)
C7 C 0.80810(14) 0.3672(3) 0.60539(12)
C8 C 0.73323(13) 0.5019(3) 0.58671(11)
C9 C 0.63889(11) 0.4848(2) 0.61799(9)
C10 C 0.54943(12) 0.60029(19) 0.61603(9)
C11 C 0.52790(15) 0.7854(2) 0.57691(11)
C12 C 0.41729(16) 0.8495(2) 0.58224(12)
C13 C 0.38100(11) 0.58876(19) 0.78419(10)
C14 C 0.38804(11) 0.76174(19) 0.81867(10)
C15 C 0.38490(14) 0.7975(3) 0.90958(12)
C16 C 0.37279(17) 0.6529(3) 0.96455(14)
C17 C 0.36409(16) 0.4801(3) 0.92943(15)
C18 C 0.36804(13) 0.4445(2) 0.83913(13)
H1 H 0.3166 0.5406 0.6423
H2 H 0.6878 0.0888 0.7170
H3 H 0.8431 0.1227 0.6643
H4 H 0.8723 0.3802 0.5850
H5 H 0.7445 0.6073 0.5544
H6 H 0.5815 0.8667 0.6130
H7 H 0.5330 0.7858 0.5117
H8 H 0.4140 0.9795 0.5830
H9 H 0.3625 0.8016 0.5282
H10 H 0.3922 0.9163 0.9323
H11 H 0.3717 0.6724 1.0267
H12 H 0.3553 0.3812 0.9685
H13 H 0.3623 0.3251 0.8149
H14 H 0.4979 0.2674 0.7192
loop_
_geom_bond_atom_site_label_1
_geom_bond_atom_site_label_2
_geom_bond_site_symmetry_1
_geom_bond_site_symmetry_2
O1 C1 1_555 1_555
C1 N1 1_555 1_555
N1 C2 1_555 1_555
C2 C3 1_555 1_555
C3 N2 1_555 1_555
N2 C4 1_555 1_555
C4 C5 1_555 1_555
C5 C6 1_555 1_555
C6 C7 1_555 1_555
C7 C8 1_555 1_555
C8 C9 1_555 1_555
C9 C4 1_555 1_555
C10 C3 1_555 1_555
C11 C10 1_555 1_555
C12 N1 1_555 1_555
C13 C2 1_555 1_555
C14 C1 1_555 1_555
C15 C14 1_555 1_555
C16 C15 1_555 1_555
C17 C16 1_555 1_555
C18 C13 1_555 1_555
H1 C2 1_555 1_555
H2 C5 1_555 1_555
H3 C6 1_555 1_555
H4 C7 1_555 1_555
H5 C8 1_555 1_555
H6 C11 1_555 1_555
H7 C11 1_555 1_555
H8 C12 1_555 1_555
H9 C12 1_555 1_555
H10 C15 1_555 1_555
H11 C16 1_555 1_555
H12 C17 1_555 1_555
H13 C18 1_555 1_555
H14 N2 1_555 1_555
C9 C10 1_555 1_555
C11 C12 1_555 1_555
C13 C14 1_555 1_555
C17 C18 1_555 1_555

#END
