
#######################################################################
#
#                 Cambridge Crystallographic Data Centre
#                                CCDC 
#
#######################################################################
#
# If this CIF has been generated from an entry in the Cambridge 
# Structural Database, then it will include bibliographic, chemical, 
# crystal, experimental, refinement or atomic coordinate data resulting 
# from the CCDC's data processing and validation procedures.
#
#######################################################################

data_QABTOE
_chemical_formula_moiety         'C38 H28 O2'
_chemical_name_systematic        
endo-5-Methyl-1,3,7,8-tetraphenyl-4,15-dioxatetracyclo[6.6.1.0^2,6^.0^9,14^]pentadeca-2,5,9,11,13-pentaene
_symmetry_cell_setting           orthorhombic
_symmetry_space_group_name_H-M   'P c a 21'
_symmetry_Int_Tables_number      29
_space_group_name_Hall           'P 2c -2ac'
loop_
_symmetry_equiv_pos_site_id
_symmetry_equiv_pos_as_xyz
1 x,y,z
2 -x,-y,1/2+z
3 1/2+x,-y,z
4 1/2-x,y,1/2+z
_cell_length_a                   16.4516(5)
_cell_length_b                   10.4221(3)
_cell_length_c                   15.5783(5)
_cell_angle_alpha                90
_cell_angle_beta                 90
_cell_angle_gamma                90
_cell_volume                     2671.06
_exptl_crystal_colour            colorless
_exptl_crystal_description       block
_cell_formula_units_Z            4
loop_
_atom_site_label
_atom_site_type_symbol
_atom_site_fract_x
_atom_site_fract_y
_atom_site_fract_z
O1 O 0.24784(5) 0.94216(8) 0.56507(6)
O2 O 0.12487(5) 1.11193(9) 0.79177(6)
C1 C 0.07756(9) 1.35853(14) 0.76961(10)
H1 H 0.0497 1.3048 0.8092
C2 C 0.06502(10) 1.48983(15) 0.77176(11)
H2 H 0.0289 1.5255 0.8129
C3 C 0.10470(9) 1.56950(14) 0.71454(12)
H3 H 0.0972 1.6598 0.7172
C4 C 0.15525(9) 1.51637(14) 0.65358(11)
H4 H 0.1814 1.5704 0.6130
C5 C 0.16836(8) 1.38555(13) 0.65075(10)
H5 H 0.2033 1.3507 0.6082
C6 C 0.13079(8) 1.30408(13) 0.70973(9)
C7 C 0.15091(7) 1.16741(13) 0.71615(8)
C8 C 0.15900(8) 0.99247(13) 0.79718(9)
C9 C 0.20596(8) 0.97040(12) 0.72772(9)
C10 C 0.19804(7) 1.08133(12) 0.67314(8)
C11 C 0.24242(7) 1.07762(11) 0.58757(8)
C12 C 0.33048(7) 1.10876(13) 0.60677(8)
C13 C 0.37083(8) 1.22496(13) 0.60771(10)
H6 H 0.3435 1.3019 0.5922
C14 C 0.45179(9) 1.22696(14) 0.63163(11)
H7 H 0.4811 1.3054 0.6307
C15 C 0.49017(9) 1.11507(15) 0.65692(11)
H8 H 0.5457 1.1178 0.6734
C16 C 0.44895(8) 0.99880(14) 0.65869(10)
H9 H 0.4753 0.9230 0.6780
C17 C 0.36882(8) 0.99553(12) 0.63175(8)
C18 C 0.30737(8) 0.88591(12) 0.62227(8)
C19 C 0.25843(8) 0.85537(12) 0.70713(9)
H10 H 0.2206 0.7833 0.6931
C20 C 0.33910(8) 0.76301(12) 0.58190(9)
C21 C 0.40872(9) 0.70200(14) 0.61224(10)
H11 H 0.4375 0.7378 0.6593
C22 C 0.43647(9) 0.58993(14) 0.57470(11)
H12 H 0.4843 0.5500 0.5959
C23 C 0.39525(10) 0.53604(14) 0.50700(11)
H13 H 0.4150 0.4601 0.4805
C24 C 0.32470(11) 0.59364(15) 0.47783(10)
H14 H 0.2951 0.5556 0.4321
C25 C 0.29682(9) 0.70606(13) 0.51465(9)
H15 H 0.2484 0.7447 0.4938
C26 C 0.35328(9) 0.89526(14) 0.83373(9)
H16 H 0.3488 0.9849 0.8238
C27 C 0.40216(9) 0.85058(16) 0.89994(10)
H17 H 0.4312 0.9098 0.9348
C28 C 0.40883(9) 0.72049(16) 0.91545(10)
H18 H 0.4423 0.6903 0.9609
C29 C 0.36689(10) 0.63497(15) 0.86495(10)
H19 H 0.3713 0.5454 0.8755
C30 C 0.31814(9) 0.67934(13) 0.79863(10)
H20 H 0.2893 0.6196 0.7641
C31 C 0.31077(8) 0.81004(13) 0.78180(8)
C32 C 0.24663(9) 1.19562(13) 0.44592(9)
H21 H 0.3042 1.1897 0.4472
C33 C 0.20845(10) 1.25433(15) 0.37673(10)
H22 H 0.2400 1.2887 0.3311
C34 C 0.12482(10) 1.26291(15) 0.37409(10)
H23 H 0.0987 1.3027 0.3266
C35 C 0.07922(9) 1.21358(15) 0.44060(10)
H24 H 0.0216 1.2201 0.4391
C36 C 0.11708(8) 1.15449(13) 0.50963(9)
H25 H 0.0852 1.1198 0.5549
C37 C 0.20131(8) 1.14555(12) 0.51315(8)
C38 C 0.13608(10) 0.91599(16) 0.87357(10)
H26 H 0.1637 0.8327 0.8716
H27 H 0.0771 0.9027 0.8740
H28 H 0.1523 0.9620 0.9257
loop_
_geom_bond_atom_site_label_1
_geom_bond_atom_site_label_2
_geom_bond_site_symmetry_1
_geom_bond_site_symmetry_2
O1 C11 1_555 1_555
O2 C7 1_555 1_555
C1 H1 1_555 1_555
C2 C1 1_555 1_555
H2 C2 1_555 1_555
C3 C2 1_555 1_555
H3 C3 1_555 1_555
C4 C3 1_555 1_555
H4 C4 1_555 1_555
C5 C4 1_555 1_555
H5 C5 1_555 1_555
C6 C1 1_555 1_555
C7 C6 1_555 1_555
C8 O2 1_555 1_555
C9 C8 1_555 1_555
C10 C7 1_555 1_555
C11 C10 1_555 1_555
C12 C11 1_555 1_555
C13 C12 1_555 1_555
H6 C13 1_555 1_555
C14 C13 1_555 1_555
H7 C14 1_555 1_555
C15 C14 1_555 1_555
H8 C15 1_555 1_555
C16 C15 1_555 1_555
H9 C16 1_555 1_555
C17 C12 1_555 1_555
C18 O1 1_555 1_555
C19 C9 1_555 1_555
H10 C19 1_555 1_555
C20 C18 1_555 1_555
C21 C20 1_555 1_555
H11 C21 1_555 1_555
C22 C21 1_555 1_555
H12 C22 1_555 1_555
C23 C22 1_555 1_555
H13 C23 1_555 1_555
C24 C23 1_555 1_555
H14 C24 1_555 1_555
C25 C20 1_555 1_555
H15 C25 1_555 1_555
C26 H16 1_555 1_555
C27 C26 1_555 1_555
H17 C27 1_555 1_555
C28 C27 1_555 1_555
H18 C28 1_555 1_555
C29 C28 1_555 1_555
H19 C29 1_555 1_555
C30 C29 1_555 1_555
H20 C30 1_555 1_555
C31 C19 1_555 1_555
C32 H21 1_555 1_555
C33 C32 1_555 1_555
H22 C33 1_555 1_555
C34 C33 1_555 1_555
H23 C34 1_555 1_555
C35 C34 1_555 1_555
H24 C35 1_555 1_555
C36 C35 1_555 1_555
H25 C36 1_555 1_555
C37 C11 1_555 1_555
C38 C8 1_555 1_555
H26 C38 1_555 1_555
H27 C38 1_555 1_555
H28 C38 1_555 1_555
C5 C6 1_555 1_555
C9 C10 1_555 1_555
C16 C17 1_555 1_555
C17 C18 1_555 1_555
C18 C19 1_555 1_555
C24 C25 1_555 1_555
C26 C31 1_555 1_555
C30 C31 1_555 1_555
C32 C37 1_555 1_555
C36 C37 1_555 1_555

#END
