
#######################################################################
#
#                 Cambridge Crystallographic Data Centre
#                                CCDC 
#
#######################################################################
#
# If this CIF has been generated from an entry in the Cambridge 
# Structural Database, then it will include bibliographic, chemical, 
# crystal, experimental, refinement or atomic coordinate data resulting 
# from the CCDC's data processing and validation procedures.
#
#######################################################################

data_QABTIY
_chemical_formula_moiety         'C38 H28 O2'
_chemical_name_systematic        
exo-5-Methyl-1,3,7,8-tetraphenyl-4,15-dioxatetracyclo[6.6.1.0^2,6^.0^9,14^]pentadeca-2,5,9,11,13-pentaene
_symmetry_cell_setting           orthorhombic
_symmetry_space_group_name_H-M   'P n a 21'
_symmetry_Int_Tables_number      33
_space_group_name_Hall           'P 2c -2n'
loop_
_symmetry_equiv_pos_site_id
_symmetry_equiv_pos_as_xyz
1 x,y,z
2 -x,-y,1/2+z
3 1/2+x,1/2-y,z
4 1/2-x,1/2+y,1/2+z
_cell_length_a                   20.5140(6)
_cell_length_b                   14.3651(4)
_cell_length_c                   9.3329(3)
_cell_angle_alpha                90
_cell_angle_beta                 90
_cell_angle_gamma                90
_cell_volume                     2750.27
_exptl_crystal_colour            colorless
_exptl_crystal_description       block
_cell_formula_units_Z            4
loop_
_atom_site_label
_atom_site_type_symbol
_atom_site_fract_x
_atom_site_fract_y
_atom_site_fract_z
O1 O 0.13279(5) 0.12423(7) 0.22651(12)
O2 O 0.23519(6) 0.17559(8) 0.64465(13)
C1 C 0.16467(11) 0.27524(14) 0.8338(2)
H1 H 0.2070 0.2555 0.8529
C2 C 0.13082(14) 0.32368(16) 0.9368(2)
H2 H 0.1501 0.3351 1.0253
C3 C 0.06886(13) 0.35535(16) 0.9103(2)
H3 H 0.0464 0.3890 0.9796
C4 C 0.04087(12) 0.33684(16) 0.7816(2)
H4 H -0.0011 0.3582 0.7627
C5 C 0.07393(10) 0.28673(15) 0.6785(2)
H5 H 0.0535 0.2739 0.5918
C6 C 0.13678(9) 0.25517(11) 0.70125(18)
C7 C 0.17364(8) 0.20023(11) 0.59694(19)
C8 C 0.26177(9) 0.11584(13) 0.5471(2)
C9 C 0.21991(8) 0.10245(11) 0.43798(19)
C10 C 0.16345(8) 0.15849(11) 0.46740(18)
C11 C 0.10584(8) 0.14639(11) 0.36649(17)
C12 C 0.07616(8) 0.05377(11) 0.40989(19)
C13 C 0.03074(9) 0.03190(13) 0.5141(2)
H6 H 0.0098 0.0785 0.5656
C14 C 0.01725(10) -0.06074(14) 0.5400(2)
H7 H -0.0133 -0.0768 0.6093
C15 C 0.04863(10) -0.12959(14) 0.4641(3)
H8 H 0.0386 -0.1917 0.4819
C16 C 0.09499(9) -0.10768(12) 0.3615(2)
H9 H 0.1163 -0.1545 0.3111
C17 C 0.10892(8) -0.01528(11) 0.33540(18)
C18 C 0.15842(8) 0.03074(10) 0.23587(18)
C19 C 0.22707(8) 0.04080(11) 0.30783(18)
H10 H 0.2411 -0.0209 0.3401
C20 C 0.16277(8) -0.01161(11) 0.08779(18)
C21 C 0.18864(9) -0.10046(12) 0.0700(2)
H11 H 0.2031 -0.1335 0.1496
C22 C 0.19313(11) -0.14004(13) -0.0640(3)
H12 H 0.2098 -0.1999 -0.0741
C23 C 0.17318(12) -0.09179(14) -0.1822(2)
H13 H 0.1763 -0.1185 -0.2728
C24 C 0.14834(11) -0.00321(14) -0.1664(2)
H14 H 0.1349 0.0300 -0.2467
C25 C 0.14324(9) 0.03638(12) -0.0325(2)
H15 H 0.1264 0.0962 -0.0232
C26 C 0.27427(9) 0.16767(13) 0.1513(2)
H16 H 0.2430 0.2084 0.1871
C27 C 0.31726(10) 0.19814(16) 0.0484(2)
H17 H 0.3147 0.2590 0.0149
C28 C 0.36372(11) 0.13923(19) -0.0049(2)
H18 H 0.3921 0.1595 -0.0761
C29 C 0.36826(11) 0.0504(2) 0.0468(3)
H19 H 0.4006 0.0109 0.0127
C30 C 0.32508(9) 0.01909(14) 0.1494(2)
H20 H 0.3284 -0.0416 0.1832
C31 C 0.27689(8) 0.07696(12) 0.20248(19)
C32 C -0.00450(9) 0.22313(13) 0.3360(2)
H21 H -0.0245 0.1655 0.3473
C33 C -0.04202(10) 0.30179(15) 0.3131(3)
H22 H -0.0872 0.2968 0.3101
C34 C -0.01316(12) 0.38700(14) 0.2949(2)
H23 H -0.0387 0.4399 0.2820
C35 C 0.05355(11) 0.39395(13) 0.2958(2)
H24 H 0.0733 0.4513 0.2797
C36 C 0.09138(10) 0.31634(11) 0.3204(2)
H25 H 0.1365 0.3219 0.3224
C37 C 0.06271(8) 0.23005(11) 0.34205(18)
C38 C 0.32770(11) 0.07962(17) 0.5813(3)
H26 H 0.3421 0.0393 0.5056
H27 H 0.3261 0.0454 0.6696
H28 H 0.3576 0.1307 0.5908
loop_
_geom_bond_atom_site_label_1
_geom_bond_atom_site_label_2
_geom_bond_site_symmetry_1
_geom_bond_site_symmetry_2
O1 C11 1_555 1_555
O2 C7 1_555 1_555
C1 H1 1_555 1_555
C2 C1 1_555 1_555
H2 C2 1_555 1_555
C3 C2 1_555 1_555
H3 C3 1_555 1_555
C4 C3 1_555 1_555
H4 C4 1_555 1_555
C5 C4 1_555 1_555
H5 C5 1_555 1_555
C6 C1 1_555 1_555
C7 C6 1_555 1_555
C8 O2 1_555 1_555
C9 C8 1_555 1_555
C10 C7 1_555 1_555
C11 C10 1_555 1_555
C12 C11 1_555 1_555
C13 C12 1_555 1_555
H6 C13 1_555 1_555
C14 C13 1_555 1_555
H7 C14 1_555 1_555
C15 C14 1_555 1_555
H8 C15 1_555 1_555
C16 C15 1_555 1_555
H9 C16 1_555 1_555
C17 C12 1_555 1_555
C18 O1 1_555 1_555
C19 C9 1_555 1_555
H10 C19 1_555 1_555
C20 C18 1_555 1_555
C21 C20 1_555 1_555
H11 C21 1_555 1_555
C22 C21 1_555 1_555
H12 C22 1_555 1_555
C23 C22 1_555 1_555
H13 C23 1_555 1_555
C24 C23 1_555 1_555
H14 C24 1_555 1_555
C25 C20 1_555 1_555
H15 C25 1_555 1_555
C26 H16 1_555 1_555
C27 C26 1_555 1_555
H17 C27 1_555 1_555
C28 C27 1_555 1_555
H18 C28 1_555 1_555
C29 C28 1_555 1_555
H19 C29 1_555 1_555
C30 C29 1_555 1_555
H20 C30 1_555 1_555
C31 C19 1_555 1_555
C32 H21 1_555 1_555
C33 C32 1_555 1_555
H22 C33 1_555 1_555
C34 C33 1_555 1_555
H23 C34 1_555 1_555
C35 C34 1_555 1_555
H24 C35 1_555 1_555
C36 C35 1_555 1_555
H25 C36 1_555 1_555
C37 C11 1_555 1_555
C38 C8 1_555 1_555
H26 C38 1_555 1_555
H27 C38 1_555 1_555
H28 C38 1_555 1_555
C5 C6 1_555 1_555
C9 C10 1_555 1_555
C16 C17 1_555 1_555
C17 C18 1_555 1_555
C18 C19 1_555 1_555
C24 C25 1_555 1_555
C26 C31 1_555 1_555
C30 C31 1_555 1_555
C32 C37 1_555 1_555
C36 C37 1_555 1_555

#END
