
#######################################################################
#
#                 Cambridge Crystallographic Data Centre
#                                CCDC 
#
#######################################################################
#
# If this CIF has been generated from an entry in the Cambridge 
# Structural Database, then it will include bibliographic, chemical, 
# crystal, experimental, refinement or atomic coordinate data resulting 
# from the CCDC's data processing and validation procedures.
#
#######################################################################

data_QACCAB
_chemical_formula_moiety         'C13 H9 N2 O3 1-,C3 H10 N1 1+'
_chemical_name_systematic        
'propan-2-aminium 2-hydroxy-5-(phenyldiazenyl)benzoate'
_symmetry_cell_setting           monoclinic
_symmetry_space_group_name_H-M   'P 21/n'
_symmetry_Int_Tables_number      14
_space_group_name_Hall           '-P 2yn'
loop_
_symmetry_equiv_pos_site_id
_symmetry_equiv_pos_as_xyz
1 x,y,z
2 1/2-x,1/2+y,1/2-z
3 -x,-y,-z
4 1/2+x,1/2-y,1/2+z
_cell_length_a                   9.2739(8)
_cell_length_b                   4.8837(3)
_cell_length_c                   35.222(3)
_cell_angle_alpha                90
_cell_angle_beta                 92.9800(10)
_cell_angle_gamma                90
_cell_volume                     1593.08
_exptl_crystal_colour            red
_exptl_crystal_description       block
_cell_formula_units_Z            4
loop_
_atom_site_label
_atom_site_type_symbol
_atom_site_fract_x
_atom_site_fract_y
_atom_site_fract_z
N1 N 0.6337(3) 0.3729(6) 0.46562(8)
H1 H 0.576(3) 0.540(7) 0.4577(9)
H2 H 0.644(3) 0.375(6) 0.4917(10)
H3 H 0.578(3) 0.218(7) 0.4588(9)
C1 C 0.8742(4) 0.1669(8) 0.46564(12)
H4 H 0.8292 -0.0102 0.4650
H5 H 0.8956 0.2203 0.4916
H6 H 0.9621 0.1594 0.4524
C2 C 0.7748(3) 0.3701(6) 0.44693(9)
H7 H 0.8187 0.5513 0.4506
C3 C 0.7492(4) 0.3271(10) 0.40524(10)
H8 H 0.7068 0.1500 0.4007
H9 H 0.8394 0.3378 0.3931
H10 H 0.6849 0.4659 0.3950
N2 N 0.6862(3) 0.5688(5) 0.67679(7)
N3 N 0.5706(3) 0.4752(5) 0.66524(7)
O1 O 0.5083(2) 1.1230(4) 0.55586(6)
O2 O 0.6962(2) 1.3823(4) 0.54409(6)
O3 O 0.9242(2) 1.3703(5) 0.58642(6)
H11 H 0.856(4) 1.420(7) 0.5676(11)
C4 C 0.6365(3) 1.1975(6) 0.56317(9)
C5 C 0.7210(3) 1.0788(5) 0.59671(7)
C6 C 0.8596(3) 1.1756(6) 0.60702(8)
C7 C 0.9324(3) 1.0768(7) 0.63938(9)
H12 H 1.0235 1.1454 0.6464
C8 C 0.8732(3) 0.8810(7) 0.66115(9)
H13 H 0.9239 0.8166 0.6828
C9 C 0.7377(3) 0.7775(6) 0.65112(9)
C10 C 0.6626(3) 0.8779(5) 0.61908(8)
H14 H 0.5712 0.8093 0.6125
C11 C 0.5163(3) 0.2620(6) 0.69120(9)
C12 C 0.5817(3) 0.1851(6) 0.72557(10)
H15 H 0.6666 0.2703 0.7344
C13 C 0.5214(4) -0.0181(7) 0.74685(9)
H16 H 0.5660 -0.0709 0.7700
C14 C 0.3942(4) -0.1435(6) 0.73378(10)
H17 H 0.3523 -0.2797 0.7480
C15 C 0.3315(3) -0.0630(7) 0.69955(11)
H18 H 0.2468 -0.1475 0.6904
C16 C 0.3911(3) 0.1398(6) 0.67848(9)
H19 H 0.3459 0.1938 0.6555
loop_
_geom_bond_atom_site_label_1
_geom_bond_atom_site_label_2
_geom_bond_site_symmetry_1
_geom_bond_site_symmetry_2
N1 H1 1_555 1_555
H2 N1 1_555 1_555
H3 N1 1_555 1_555
C1 H4 1_555 1_555
H5 C1 1_555 1_555
H6 C1 1_555 1_555
C2 N1 1_555 1_555
H7 C2 1_555 1_555
C3 C2 1_555 1_555
H8 C3 1_555 1_555
H9 C3 1_555 1_555
H10 C3 1_555 1_555
N2 N3 1_555 1_555
N3 C11 1_555 1_555
O1 C4 1_555 1_555
O2 C4 1_555 1_555
O3 H11 1_555 1_555
C4 C5 1_555 1_555
C5 C6 1_555 1_555
C6 O3 1_555 1_555
C7 C6 1_555 1_555
H12 C7 1_555 1_555
C8 C7 1_555 1_555
H13 C8 1_555 1_555
C9 N2 1_555 1_555
C10 C5 1_555 1_555
H14 C10 1_555 1_555
C11 C12 1_555 1_555
C12 H15 1_555 1_555
C13 C12 1_555 1_555
H16 C13 1_555 1_555
C14 C13 1_555 1_555
H17 C14 1_555 1_555
C15 C14 1_555 1_555
H18 C15 1_555 1_555
C16 C11 1_555 1_555
H19 C16 1_555 1_555
C1 C2 1_555 1_555
C8 C9 1_555 1_555
C9 C10 1_555 1_555
C15 C16 1_555 1_555

#END
