
#######################################################################
#
#                 Cambridge Crystallographic Data Centre
#                                CCDC 
#
#######################################################################
#
# If this CIF has been generated from an entry in the Cambridge 
# Structural Database, then it will include bibliographic, chemical, 
# crystal, experimental, refinement or atomic coordinate data resulting 
# from the CCDC's data processing and validation procedures.
#
#######################################################################

data_QACFIM
_chemical_formula_moiety         'C16 H21 Cl1 F1 N1 O3'
_chemical_name_systematic        
'(2R*,4R*,5R*)-t-butyl 2-(4-chlorophenyl)-4-fluoro-5-hydroxypiperidine-1-carboxylate'
_symmetry_cell_setting           monoclinic
_symmetry_space_group_name_H-M   'P 21/n'
_symmetry_Int_Tables_number      14
_space_group_name_Hall           '-P 2yn'
loop_
_symmetry_equiv_pos_site_id
_symmetry_equiv_pos_as_xyz
1 x,y,z
2 1/2-x,1/2+y,1/2-z
3 -x,-y,-z
4 1/2+x,1/2-y,1/2+z
_cell_length_a                   10.2113(8)
_cell_length_b                   10.8594(9)
_cell_length_c                   15.4503(12)
_cell_angle_alpha                90
_cell_angle_beta                 102.9460(10)
_cell_angle_gamma                90
_cell_volume                     1669.71
_exptl_crystal_colour            colorless
_exptl_crystal_description       block
_chemical_melting_point          '273 deg.C'
_cell_formula_units_Z            4
loop_
_atom_site_label
_atom_site_type_symbol
_atom_site_fract_x
_atom_site_fract_y
_atom_site_fract_z
Cl1 Cl 0.29284(7) 0.37102(8) -0.00528(4)
C1 C 0.59816(17) 0.56114(17) 0.20983(12)
C2 C 0.4919(2) 0.62569(19) 0.15774(13)
H1 H 0.4831 0.7094 0.1679
C3 C 0.3990(2) 0.5685(2) 0.09127(14)
H2 H 0.3281 0.6130 0.0571
C4 C 0.4127(2) 0.4450(2) 0.07619(13)
C5 C 0.5189(2) 0.3795(2) 0.12414(15)
H3 H 0.5289 0.2965 0.1122
C6 C 0.6109(2) 0.43784(19) 0.19028(14)
H4 H 0.6834 0.3933 0.2226
C7 C 0.70020(18) 0.62847(16) 0.28106(13)
H5 H 0.7443 0.6893 0.2503
N1 N 0.80664(15) 0.54796(15) 0.33071(11)
C8 C 0.6021(2) 0.6239(2) 0.41953(15)
H6 H 0.5717 0.6778 0.4620
C9 C 0.6356(2) 0.70055(19) 0.34655(14)
H7 H 0.6966 0.7656 0.3731
H8 H 0.5539 0.7392 0.3136
C10 C 0.7750(2) 0.47270(19) 0.40198(14)
H9 H 0.8554 0.4300 0.4328
H10 H 0.7086 0.4112 0.3765
C11 C 0.7216(2) 0.5503(2) 0.46743(14)
H11 H 0.6947 0.4967 0.5115
F1 F 0.49943(12) 0.53969(15) 0.38378(9)
C12 C 0.92678(18) 0.53339(18) 0.30933(13)
O1 O 1.00928(14) 0.45631(15) 0.34373(11)
O2 O 0.94468(12) 0.61197(13) 0.24657(9)
C13 C 1.0702(2) 0.6107(2) 0.21288(15)
C14 C 1.1911(2) 0.6346(3) 0.28714(19)
H12 H 1.2680 0.6500 0.2627
H13 H 1.2078 0.5639 0.3253
H14 H 1.1743 0.7049 0.3207
C15 C 1.0490(3) 0.7185(3) 0.14935(18)
H15 H 0.9694 0.7050 0.1037
H16 H 1.1251 0.7263 0.1228
H17 H 1.0389 0.7926 0.1811
C16 C 1.0774(3) 0.4913(3) 0.1644(2)
H18 H 1.1484 0.4958 0.1330
H19 H 0.9935 0.4772 0.1230
H20 H 1.0948 0.4248 0.2064
O3 O 0.8173(2) 0.63698(16) 0.51127(13)
H21 H 0.7952 0.7062 0.4923
loop_
_geom_bond_atom_site_label_1
_geom_bond_atom_site_label_2
_geom_bond_site_symmetry_1
_geom_bond_site_symmetry_2
Cl1 C4 1_555 1_555
C1 C2 1_555 1_555
C2 H1 1_555 1_555
C3 C2 1_555 1_555
H2 C3 1_555 1_555
C4 C3 1_555 1_555
C5 C4 1_555 1_555
H3 C5 1_555 1_555
C6 C1 1_555 1_555
H4 C6 1_555 1_555
C7 C1 1_555 1_555
H5 C7 1_555 1_555
N1 C7 1_555 1_555
C8 H6 1_555 1_555
C9 C7 1_555 1_555
H7 C9 1_555 1_555
H8 C9 1_555 1_555
C10 N1 1_555 1_555
H9 C10 1_555 1_555
H10 C10 1_555 1_555
C11 C8 1_555 1_555
H11 C11 1_555 1_555
F1 C8 1_555 1_555
C12 N1 1_555 1_555
O1 C12 1_555 1_555
O2 C12 1_555 1_555
C13 O2 1_555 1_555
C14 C13 1_555 1_555
H12 C14 1_555 1_555
H13 C14 1_555 1_555
H14 C14 1_555 1_555
C15 C13 1_555 1_555
H15 C15 1_555 1_555
H16 C15 1_555 1_555
H17 C15 1_555 1_555
C16 C13 1_555 1_555
H18 C16 1_555 1_555
H19 C16 1_555 1_555
H20 C16 1_555 1_555
O3 C11 1_555 1_555
H21 O3 1_555 1_555
C5 C6 1_555 1_555
C8 C9 1_555 1_555
C10 C11 1_555 1_555

#END
