
#######################################################################
#
#                 Cambridge Crystallographic Data Centre
#                                CCDC 
#
#######################################################################
#
# If this CIF has been generated from an entry in the Cambridge 
# Structural Database, then it will include bibliographic, chemical, 
# crystal, experimental, refinement or atomic coordinate data resulting 
# from the CCDC's data processing and validation procedures.
#
#######################################################################

data_QACFOS
_chemical_formula_moiety         'C17 H24 F1 N1 O3'
_chemical_name_systematic        
'(2R*,4R*,5R*)-t-butyl 4-fluoro-5-hydroxy-2-(p-tolyl)piperidine-1-carboxylate'
_symmetry_cell_setting           monoclinic
_symmetry_space_group_name_H-M   'P 21/n'
_symmetry_Int_Tables_number      14
_space_group_name_Hall           '-P 2yn'
loop_
_symmetry_equiv_pos_site_id
_symmetry_equiv_pos_as_xyz
1 x,y,z
2 1/2-x,1/2+y,1/2-z
3 -x,-y,-z
4 1/2+x,1/2-y,1/2+z
_cell_length_a                   10.0718(18)
_cell_length_b                   10.9443(19)
_cell_length_c                   15.782(3)
_cell_angle_alpha                90
_cell_angle_beta                 102.965(2)
_cell_angle_gamma                90
_cell_volume                     1695.28
_exptl_crystal_colour            colorless
_exptl_crystal_description       block
_cell_formula_units_Z            4
loop_
_atom_site_label
_atom_site_type_symbol
_atom_site_fract_x
_atom_site_fract_y
_atom_site_fract_z
C1 C 0.89814(15) 0.06665(14) 0.28370(10)
C2 C 1.00518(17) 0.13001(16) 0.33574(11)
H1 H 1.0167 0.2125 0.3252
C3 C 1.08255(18) -0.04961(18) 0.42057(11)
C4 C 0.88293(18) -0.05449(16) 0.30379(11)
H2 H 0.8102 -0.0988 0.2715
C5 C 1.09492(18) 0.07280(19) 0.40282(11)
H3 H 1.1655 0.1178 0.4369
C6 C 0.9735(2) -0.11111(18) 0.37084(12)
H4 H 0.9604 -0.1929 0.3827
C7 C 0.79884(15) 0.13320(14) 0.21200(11)
H5 H 0.7544 0.1956 0.2406
C8 C 0.90058(19) 0.12233(19) 0.07781(12)
H6 H 0.9336 0.1742 0.0363
C9 C 0.72047(18) -0.02204(16) 0.09443(12)
H7 H 0.6377 -0.0622 0.0638
H8 H 0.7854 -0.0848 0.1198
C10 C 0.86688(18) 0.20076(17) 0.14817(11)
H9 H 0.8069 0.2661 0.1212
H10 H 0.9503 0.2380 0.1806
C11 C 0.7784(2) 0.05238(18) 0.03089(12)
H11 H 0.8046 -0.0022 -0.0118
N1 N 0.69009(13) 0.05433(13) 0.16372(9)
C12 C 0.56988(16) 0.03917(15) 0.18616(11)
O1 O 0.55622(11) 0.11423(11) 0.25058(8)
O2 O 0.48419(13) -0.03480(13) 0.15237(9)
C13 C 0.42975(17) 0.11493(17) 0.28373(12)
C14 C 0.3093(2) 0.1481(2) 0.21300(16)
H12 H 0.3273 0.2233 0.1863
H13 H 0.2306 0.1580 0.2372
H14 H 0.2927 0.0844 0.1701
C15 C 0.4589(2) 0.2160(2) 0.35073(14)
H15 H 0.5410 0.1976 0.3929
H16 H 0.3844 0.2226 0.3792
H17 H 0.4696 0.2919 0.3226
C16 C 0.4146(3) -0.0061(2) 0.3260(2)
H18 H 0.3957 -0.0687 0.2824
H19 H 0.3410 -0.0015 0.3554
H20 H 0.4976 -0.0253 0.3673
O3 O 0.68511(17) 0.14091(13) -0.01285(10)
H21 H 0.6291 0.1078 -0.0519
F1 F 1.00172(11) 0.03744(12) 0.11376(8)
C17 C 1.1837(2) -0.1121(2) 0.49163(13)
H22 H 1.2687 -0.1211 0.4743
H23 H 1.1497 -0.1913 0.5023
H24 H 1.1975 -0.0640 0.5437
loop_
_geom_bond_atom_site_label_1
_geom_bond_atom_site_label_2
_geom_bond_site_symmetry_1
_geom_bond_site_symmetry_2
C1 C2 1_555 1_555
C2 H1 1_555 1_555
C3 C5 1_555 1_555
C4 C1 1_555 1_555
H2 C4 1_555 1_555
C5 C2 1_555 1_555
H3 C5 1_555 1_555
C6 C3 1_555 1_555
H4 C6 1_555 1_555
C7 C1 1_555 1_555
H5 C7 1_555 1_555
C8 H6 1_555 1_555
C9 H7 1_555 1_555
H8 C9 1_555 1_555
C10 C7 1_555 1_555
H9 C10 1_555 1_555
H10 C10 1_555 1_555
C11 C8 1_555 1_555
H11 C11 1_555 1_555
N1 C7 1_555 1_555
C12 N1 1_555 1_555
O1 C12 1_555 1_555
O2 C12 1_555 1_555
C13 O1 1_555 1_555
C14 C13 1_555 1_555
H12 C14 1_555 1_555
H13 C14 1_555 1_555
H14 C14 1_555 1_555
C15 C13 1_555 1_555
H15 C15 1_555 1_555
H16 C15 1_555 1_555
H17 C15 1_555 1_555
C16 C13 1_555 1_555
H18 C16 1_555 1_555
H19 C16 1_555 1_555
H20 C16 1_555 1_555
O3 C11 1_555 1_555
H21 O3 1_555 1_555
F1 C8 1_555 1_555
C17 C3 1_555 1_555
H22 C17 1_555 1_555
H23 C17 1_555 1_555
H24 C17 1_555 1_555
C4 C6 1_555 1_555
C8 C10 1_555 1_555
C9 C11 1_555 1_555
C9 N1 1_555 1_555

#END
