
#######################################################################
#
#                 Cambridge Crystallographic Data Centre
#                                CCDC 
#
#######################################################################
#
# If this CIF has been generated from an entry in the Cambridge 
# Structural Database, then it will include bibliographic, chemical, 
# crystal, experimental, refinement or atomic coordinate data resulting 
# from the CCDC's data processing and validation procedures.
#
#######################################################################

data_QACQUH
_chemical_formula_moiety         'C12 H14 N2 O5 S1,H2 O1'
_chemical_name_systematic        
'1-(4-Methoxybenzenesulfonyl)-5-oxopyrrolidine-2-carboxamide monohydrate'
_chemical_properties_biological  
'antineoplastic activity against Ehrlich Ascites carcinoma'
_symmetry_cell_setting           monoclinic
_symmetry_space_group_name_H-M   'P 21'
_symmetry_Int_Tables_number      4
_space_group_name_Hall           'P 2yb'
loop_
_symmetry_equiv_pos_site_id
_symmetry_equiv_pos_as_xyz
1 x,y,z
2 -x,1/2+y,-z
_cell_length_a                   9.661(4)
_cell_length_b                   7.246(3)
_cell_length_c                   11.378(5)
_cell_angle_alpha                90
_cell_angle_beta                 113.42(2)
_cell_angle_gamma                90
_cell_volume                     730.882
_exptl_crystal_colour            colorless
_exptl_crystal_description       prismatic
_cell_formula_units_Z            2
_exptl_crystal_recrystallization_method ethanol
loop_
_atom_site_label
_atom_site_type_symbol
_atom_site_fract_x
_atom_site_fract_y
_atom_site_fract_z
S1 S 0.7271(1) 0.4609(1) 0.4412(1)
N1 N 0.7648(5) 0.8523(5) 0.1862(3)
N2 N 0.8451(3) 0.4347(4) 0.3669(2)
O1 O 0.6765(3) 0.5665(4) 0.1124(2)
O2 O 0.8753(3) 0.1209(4) 0.3892(2)
O3 O 0.7005(3) 0.6562(4) 0.4362(2)
O4 O 0.7926(3) 0.3685(4) 0.5618(2)
O5 O 0.1693(3) 0.0912(5) 0.0992(2)
C1 C 0.7661(4) 0.6706(6) 0.1946(3)
C2 C 0.8953(4) 0.5925(6) 0.3107(3)
C3 C 1.0179(4) 0.5041(6) 0.2733(4)
C4 C 0.9960(5) 0.2972(6) 0.2741(4)
C5 C 0.9019(4) 0.2674(6) 0.3497(3)
C6 C 0.5618(4) 0.3468(6) 0.3438(3)
C7 C 0.5426(4) 0.1604(6) 0.3607(3)
C8 C 0.4133(4) 0.0685(7) 0.2807(3)
C9 C 0.3019(4) 0.1669(7) 0.1833(3)
C10 C 0.3207(4) 0.3530(7) 0.1663(4)
C11 C 0.4504(4) 0.4435(7) 0.2457(3)
C12 C 0.1460(6) -0.1005(8) 0.1108(4)
O6 O 0.6221(3) 1.1842(5) 0.0372(3)
loop_
_geom_bond_atom_site_label_1
_geom_bond_atom_site_label_2
_geom_bond_site_symmetry_1
_geom_bond_site_symmetry_2
S1 N2 1_555 1_555
N1 C1 1_555 1_555
N2 C2 1_555 1_555
O1 C1 1_555 1_555
O2 C5 1_555 1_555
O3 S1 1_555 1_555
O4 S1 1_555 1_555
O5 C9 1_555 1_555
C1 C2 1_555 1_555
C2 C3 1_555 1_555
C3 C4 1_555 1_555
C4 C5 1_555 1_555
C5 N2 1_555 1_555
C6 S1 1_555 1_555
C7 C6 1_555 1_555
C8 C7 1_555 1_555
C9 C8 1_555 1_555
C10 C9 1_555 1_555
C11 C6 1_555 1_555
C12 O5 1_555 1_555
C10 C11 1_555 1_555

#END
