
#######################################################################
#
#                 Cambridge Crystallographic Data Centre
#                                CCDC 
#
#######################################################################
#
# If this CIF has been generated from an entry in the Cambridge 
# Structural Database, then it will include bibliographic, chemical, 
# crystal, experimental, refinement or atomic coordinate data resulting 
# from the CCDC's data processing and validation procedures.
#
#######################################################################

data_QACVAT
_chemical_name_common            
'1-(Diethylamino)cyclobutanol N-ethylethanamine'
_chemical_formula_moiety         'C8 H17 N1 O1,C4 H11 N1'
_chemical_name_systematic        '1-diethylaminocyclobutanol diethylamine'
_symmetry_cell_setting           triclinic
_symmetry_space_group_name_H-M   'P -1'
_symmetry_Int_Tables_number      2
_space_group_name_Hall           '-P 1'
loop_
_symmetry_equiv_pos_site_id
_symmetry_equiv_pos_as_xyz
1 x,y,z
2 -x,-y,-z
_cell_length_a                   8.3657(7)
_cell_length_b                   9.1116(8)
_cell_length_c                   9.7795(9)
_cell_angle_alpha                99.11(2)
_cell_angle_beta                 103.12(2)
_cell_angle_gamma                93.20(2)
_cell_volume                     713.555
_exptl_crystal_colour            colorless
_exptl_crystal_description       cylinder
_cell_formula_units_Z            2
loop_
_atom_site_label
_atom_site_type_symbol
_atom_site_fract_x
_atom_site_fract_y
_atom_site_fract_z
O1 O 0.13587(10) 0.63075(7) 0.67659(7)
N1 N 0.37117(12) 0.78934(9) 0.82501(8)
C1 C 0.19934(14) 0.74196(10) 0.80091(9)
C2 C 0.08455(15) 0.86910(11) 0.81264(11)
C3 C 0.00017(18) 0.78427(14) 0.90528(13)
C4 C 0.14583(15) 0.68618(12) 0.92711(10)
C5 C 0.40835(16) 0.87732(12) 0.72096(11)
C6 C 0.57273(19) 0.97003(14) 0.77467(15)
C7 C 0.47769(16) 0.66681(12) 0.84443(11)
C8 C 0.59468(18) 0.69161(15) 0.99141(13)
H1 H 0.1008(19) 0.6686(16) 0.6011(16)
H3 H 0.0128(17) 0.8889(14) 0.7237(13)
H4 H 0.1487(17) 0.9614(14) 0.8643(13)
H5 H -0.109(2) 0.7206(18) 0.8447(17)
H6 H -0.019(2) 0.8417(17) 0.9905(16)
H7 H 0.1168(16) 0.5776(14) 0.9149(12)
H8 H 0.2284(18) 0.7213(14) 1.0157(14)
H9 H 0.4074(17) 0.8124(14) 0.6264(13)
H10 H 0.3189(18) 0.9427(15) 0.7027(13)
H11 H 0.666(2) 0.9060(18) 0.7876(15)
H12 H 0.587(2) 1.0323(16) 0.7052(15)
H13 H 0.575(2) 1.0322(18) 0.8684(17)
H14 H 0.4087(17) 0.5723(15) 0.8303(12)
H15 H 0.5439(17) 0.6570(14) 0.7691(13)
H16 H 0.6704(19) 0.6122(17) 0.9999(14)
H17 H 0.5275(19) 0.6904(16) 1.0645(14)
H18 H 0.6592(19) 0.7888(16) 1.0090(14)
N2 N -0.00436(13) 0.69604(10) 0.40846(8)
C9 C -0.14391(16) 0.78793(12) 0.39681(12)
C10 C -0.2735(2) 0.72915(16) 0.46344(15)
C11 C 0.11421(19) 0.73922(14) 0.32960(12)
C12 C 0.24010(19) 0.62785(16) 0.32330(13)
H2 H -0.0467(17) 0.6039(15) 0.3717(13)
H19 H -0.1931(17) 0.7942(14) 0.2948(14)
H20 H -0.0966(19) 0.8914(16) 0.4432(14)
H21 H -0.322(2) 0.6294(18) 0.4151(16)
H22 H -0.225(2) 0.7254(17) 0.5634(18)
H23 H -0.367(2) 0.7901(19) 0.4578(16)
H24 H 0.0522(19) 0.7495(15) 0.2342(15)
H25 H 0.1723(19) 0.8439(17) 0.3780(15)
H26 H 0.189(2) 0.5309(19) 0.2771(17)
H27 H 0.323(2) 0.6582(18) 0.2735(17)
H28 H 0.2998(19) 0.6146(15) 0.4197(15)
loop_
_geom_bond_atom_site_label_1
_geom_bond_atom_site_label_2
_geom_bond_site_symmetry_1
_geom_bond_site_symmetry_2
O1 C1 1_555 1_555
N1 C1 1_555 1_555
N2 C9 1_555 1_555
C1 C2 1_555 1_555
C2 C3 1_555 1_555
C3 C4 1_555 1_555
C4 C1 1_555 1_555
C5 N1 1_555 1_555
C6 C5 1_555 1_555
C7 N1 1_555 1_555
C8 C7 1_555 1_555
C9 C10 1_555 1_555
C10 H21 1_555 1_555
C11 N2 1_555 1_555
C12 C11 1_555 1_555
H1 O1 1_555 1_555
H2 N2 1_555 1_555
H3 C2 1_555 1_555
H4 C2 1_555 1_555
H5 C3 1_555 1_555
H6 C3 1_555 1_555
H7 C4 1_555 1_555
H8 C4 1_555 1_555
H9 C5 1_555 1_555
H10 C5 1_555 1_555
H11 C6 1_555 1_555
H12 C6 1_555 1_555
H13 C6 1_555 1_555
H14 C7 1_555 1_555
H15 C7 1_555 1_555
H16 C8 1_555 1_555
H17 C8 1_555 1_555
H18 C8 1_555 1_555
H19 C9 1_555 1_555
H20 C9 1_555 1_555
H22 C10 1_555 1_555
H23 C10 1_555 1_555
H24 C11 1_555 1_555
H25 C11 1_555 1_555
H26 C12 1_555 1_555
H27 C12 1_555 1_555
H28 C12 1_555 1_555

#END
