
#######################################################################
#
#                 Cambridge Crystallographic Data Centre
#                                CCDC 
#
#######################################################################
#
# If this CIF has been generated from an entry in the Cambridge 
# Structural Database, then it will include bibliographic, chemical, 
# crystal, experimental, refinement or atomic coordinate data resulting 
# from the CCDC's data processing and validation procedures.
#
#######################################################################

data_QACXOH01
_chemical_formula_moiety         'C17 H15 N1 O2'
_chemical_name_systematic        
5-Phenyl-1,5,10,10a-tetrahydro[1,3]oxazolo[3,4-b]isoquinolin-3-one
_symmetry_cell_setting           orthorhombic
_symmetry_space_group_name_H-M   'P 21 21 21'
_symmetry_Int_Tables_number      19
_space_group_name_Hall           'P 2ac 2ab'
loop_
_symmetry_equiv_pos_site_id
_symmetry_equiv_pos_as_xyz
1 x,y,z
2 1/2-x,-y,1/2+z
3 -x,1/2+y,1/2-z
4 1/2+x,1/2-y,-z
_cell_length_a                   7.6076(9)
_cell_length_b                   9.4013(11)
_cell_length_c                   18.964(2)
_cell_angle_alpha                90
_cell_angle_beta                 90
_cell_angle_gamma                90
_cell_volume                     1356.33
_exptl_crystal_colour            colorless
_exptl_crystal_description       block
_cell_formula_units_Z            4
loop_
_atom_site_label
_atom_site_type_symbol
_atom_site_fract_x
_atom_site_fract_y
_atom_site_fract_z
C1 C 0.6142(3) 0.3481(2) 0.04740(12)
H1 H 0.5691 0.4106 0.0139
C2 C 0.6399(3) 0.2073(3) 0.02982(13)
H2 H 0.6128 0.1751 -0.0153
C3 C 0.7061(4) 0.1143(2) 0.07958(16)
H3 H 0.7241 0.0193 0.0680
C4 C 0.7449(3) 0.1616(2) 0.14548(14)
H4 H 0.7891 0.0979 0.1786
C5 C 0.7200(2) 0.30338(19) 0.16469(10)
C6 C 0.7663(3) 0.3522(2) 0.23771(10)
H5 H 0.8915 0.3712 0.2400
H6 H 0.7401 0.2768 0.2710
C7 C 0.6674(3) 0.48380(19) 0.25850(10)
H7 H 0.5442 0.4606 0.2682
C8 C 0.7447(3) 0.5702(2) 0.31925(11)
H8 H 0.6604 0.5781 0.3574
H9 H 0.8502 0.5249 0.3372
C9 C 0.7438(3) 0.7126(2) 0.22188(10)
C10 C 0.6268(2) 0.55521(18) 0.12981(10)
H10 H 0.7064 0.6081 0.0988
C11 C 0.6550(2) 0.39806(19) 0.11464(10)
C12 C 0.4420(2) 0.60627(19) 0.11388(8)
C13 C 0.4172(3) 0.7357(2) 0.08083(9)
H11 H 0.5142 0.7903 0.0682
C14 C 0.2490(3) 0.7852(2) 0.06623(9)
H12 H 0.2340 0.8715 0.0430
C15 C 0.1061(3) 0.7073(3) 0.08602(10)
H13 H -0.0066 0.7411 0.0771
C16 C 0.1288(3) 0.5787(3) 0.11917(11)
H14 H 0.0312 0.5257 0.1326
C17 C 0.2948(3) 0.5280(2) 0.13259(9)
H15 H 0.3085 0.4402 0.1545
N1 N 0.6787(2) 0.58699(15) 0.20191(8)
O1 O 0.7667(2) 0.81754(13) 0.18643(8)
O2 O 0.7851(2) 0.70781(14) 0.29134(7)
loop_
_geom_bond_atom_site_label_1
_geom_bond_atom_site_label_2
_geom_bond_site_symmetry_1
_geom_bond_site_symmetry_2
C1 H1 1_555 1_555
C2 C1 1_555 1_555
H2 C2 1_555 1_555
C3 C2 1_555 1_555
H3 C3 1_555 1_555
C4 C3 1_555 1_555
H4 C4 1_555 1_555
C5 C4 1_555 1_555
C6 C5 1_555 1_555
H5 C6 1_555 1_555
H6 C6 1_555 1_555
C7 C6 1_555 1_555
H7 C7 1_555 1_555
C8 C7 1_555 1_555
H8 C8 1_555 1_555
H9 C8 1_555 1_555
C9 N1 1_555 1_555
C10 H10 1_555 1_555
C11 C1 1_555 1_555
C12 C10 1_555 1_555
C13 C12 1_555 1_555
H11 C13 1_555 1_555
C14 C13 1_555 1_555
H12 C14 1_555 1_555
C15 C14 1_555 1_555
H13 C15 1_555 1_555
C16 C15 1_555 1_555
H14 C16 1_555 1_555
C17 C12 1_555 1_555
H15 C17 1_555 1_555
N1 C7 1_555 1_555
O1 C9 1_555 1_555
O2 C8 1_555 1_555
C5 C11 1_555 1_555
C9 O2 1_555 1_555
C10 C11 1_555 1_555
C10 N1 1_555 1_555
C16 C17 1_555 1_555

#END
