
#######################################################################
#
#                 Cambridge Crystallographic Data Centre
#                                CCDC 
#
#######################################################################
#
# If this CIF has been generated from an entry in the Cambridge 
# Structural Database, then it will include bibliographic, chemical, 
# crystal, experimental, refinement or atomic coordinate data resulting 
# from the CCDC's data processing and validation procedures.
#
#######################################################################

data_QADBOP
_chemical_formula_moiety         'C38 H26 O2'
_chemical_name_systematic        
6-methyl-3-(2,3,4,5-tetraphenylcyclopenta-2,4-dien-1-ylidene)-2-benzofuran-1(3H)-one
_symmetry_cell_setting           triclinic
_symmetry_space_group_name_H-M   'P -1'
_symmetry_Int_Tables_number      2
_space_group_name_Hall           '-P 1'
loop_
_symmetry_equiv_pos_site_id
_symmetry_equiv_pos_as_xyz
1 x,y,z
2 -x,-y,-z
_cell_length_a                   9.837(2)
_cell_length_b                   10.766(2)
_cell_length_c                   13.710(3)
_cell_angle_alpha                87.68(3)
_cell_angle_beta                 77.40(3)
_cell_angle_gamma                71.54(3)
_cell_volume                     1343.44
_exptl_crystal_colour            orange
_exptl_crystal_description       Block
_cell_formula_units_Z            2
loop_
_atom_site_label
_atom_site_type_symbol
_atom_site_fract_x
_atom_site_fract_y
_atom_site_fract_z
O1 O 0.83929(14) 0.83835(12) 0.58364(9)
O2 O 1.06283(15) 0.76141(13) 0.48205(11)
C1 C 0.9448(2) 0.84327(18) 0.49960(14)
C2 C 0.8789(2) 0.95926(18) 0.44633(14)
C3 C 0.9413(2) 1.00533(19) 0.35700(13)
H1 H 1.0391 0.9614 0.3228
C4 C 0.8557(2) 1.1178(2) 0.31957(13)
C5 C 0.7076(2) 1.17180(19) 0.36769(14)
H2 H 0.6474 1.2439 0.3384
C6 C 0.6452(2) 1.12493(18) 0.45591(13)
H3 H 0.5444 1.1631 0.4865
C7 C 0.7355(2) 1.01971(18) 0.49830(13)
C8 C 0.7123(2) 0.94545(17) 0.58910(13)
C9 C 0.9206(3) 1.1820(2) 0.23039(15)
H4 H 0.9494 1.2533 0.2528
H5 H 0.8476 1.2173 0.1894
H6 H 1.0071 1.1172 0.1906
C10 C 0.6025(2) 0.95871(17) 0.67206(13)
C11 C 0.4744(2) 1.07385(17) 0.70968(13)
C12 C 0.40019(19) 1.04317(17) 0.79778(13)
C13 C 0.4744(2) 0.90613(17) 0.82047(13)
C14 C 0.5956(2) 0.85586(17) 0.74605(13)
C15 C 0.4325(2) 1.20704(16) 0.66810(12)
C16 C 0.5218(2) 1.28687(18) 0.65977(14)
H7 H 0.6150 1.2543 0.6769
C17 C 0.4751(2) 1.41306(19) 0.62677(14)
H8 H 0.5362 1.4670 0.6218
C18 C 0.3396(2) 1.46182(19) 0.60074(15)
H9 H 0.3085 1.5485 0.5777
C19 C 0.2500(2) 1.38375(18) 0.60842(14)
H10 H 0.1572 1.4166 0.5907
C20 C 0.2964(2) 1.25717(18) 0.64220(13)
H11 H 0.2346 1.2039 0.6478
C21 C 0.2664(2) 1.13086(17) 0.86254(12)
C22 C 0.2611(2) 1.25396(17) 0.89417(13)
H12 H 0.3443 1.2830 0.8733
C23 C 0.1355(2) 1.33423(18) 0.95580(14)
H13 H 0.1331 1.4180 0.9770
C24 C 0.0135(2) 1.29346(18) 0.98674(14)
H14 H -0.0723 1.3489 1.0292
C25 C 0.0165(2) 1.17149(18) 0.95570(14)
H15 H -0.0674 1.1434 0.9765
C26 C 0.1422(2) 1.09067(18) 0.89434(13)
H16 H 0.1441 1.0069 0.8736
C27 C 0.4239(2) 0.83933(18) 0.91087(14)
C28 C 0.3835(2) 0.9016(2) 1.00473(14)
H17 H 0.3833 0.9893 1.0100
C29 C 0.3434(2) 0.8375(2) 1.09067(15)
H18 H 0.3183 0.8805 1.1543
C30 C 0.3402(2) 0.7106(2) 1.08356(17)
H19 H 0.3139 0.6660 1.1423
C31 C 0.3751(2) 0.6493(2) 0.99126(17)
H20 H 0.3699 0.5632 0.9865
C32 C 0.4180(2) 0.71176(18) 0.90475(16)
H21 H 0.4433 0.6678 0.8415
C33 C 0.69488(19) 0.71897(17) 0.73731(13)
C34 C 0.7744(2) 0.66798(19) 0.80993(14)
H22 H 0.7678 0.7222 0.8649
C35 C 0.8634(2) 0.5385(2) 0.80262(15)
H23 H 0.9178 0.5047 0.8525
C36 C 0.8737(2) 0.45846(19) 0.72388(16)
H24 H 0.9339 0.3695 0.7199
C37 C 0.7959(2) 0.50797(19) 0.65022(15)
H25 H 0.8035 0.4533 0.5953
C38 C 0.7074(2) 0.63713(18) 0.65709(14)
H26 H 0.6542 0.6708 0.6066
loop_
_geom_bond_atom_site_label_1
_geom_bond_atom_site_label_2
_geom_bond_site_symmetry_1
_geom_bond_site_symmetry_2
O1 C1 1_555 1_555
O2 C1 1_555 1_555
C1 C2 1_555 1_555
C2 C3 1_555 1_555
C3 H1 1_555 1_555
C4 C3 1_555 1_555
C5 C4 1_555 1_555
H2 C5 1_555 1_555
C6 C5 1_555 1_555
H3 C6 1_555 1_555
C7 C2 1_555 1_555
C8 O1 1_555 1_555
C9 C4 1_555 1_555
H4 C9 1_555 1_555
H5 C9 1_555 1_555
H6 C9 1_555 1_555
C10 C8 1_555 1_555
C11 C10 1_555 1_555
C12 C11 1_555 1_555
C13 C12 1_555 1_555
C14 C10 1_555 1_555
C15 C11 1_555 1_555
C16 C15 1_555 1_555
H7 C16 1_555 1_555
C17 C16 1_555 1_555
H8 C17 1_555 1_555
C18 C17 1_555 1_555
H9 C18 1_555 1_555
C19 C18 1_555 1_555
H10 C19 1_555 1_555
C20 C15 1_555 1_555
H11 C20 1_555 1_555
C21 C12 1_555 1_555
C22 C21 1_555 1_555
H12 C22 1_555 1_555
C23 C22 1_555 1_555
H13 C23 1_555 1_555
C24 C23 1_555 1_555
H14 C24 1_555 1_555
C25 C24 1_555 1_555
H15 C25 1_555 1_555
C26 C21 1_555 1_555
H16 C26 1_555 1_555
C27 C13 1_555 1_555
C28 C27 1_555 1_555
H17 C28 1_555 1_555
C29 C28 1_555 1_555
H18 C29 1_555 1_555
C30 C29 1_555 1_555
H19 C30 1_555 1_555
C31 C30 1_555 1_555
H20 C31 1_555 1_555
C32 C27 1_555 1_555
H21 C32 1_555 1_555
C33 C14 1_555 1_555
C34 C33 1_555 1_555
H22 C34 1_555 1_555
C35 C34 1_555 1_555
H23 C35 1_555 1_555
C36 C35 1_555 1_555
H24 C36 1_555 1_555
C37 C36 1_555 1_555
H25 C37 1_555 1_555
C38 C33 1_555 1_555
H26 C38 1_555 1_555
C6 C7 1_555 1_555
C7 C8 1_555 1_555
C13 C14 1_555 1_555
C19 C20 1_555 1_555
C25 C26 1_555 1_555
C31 C32 1_555 1_555
C37 C38 1_555 1_555

#END
