
#######################################################################
#
#                 Cambridge Crystallographic Data Centre
#                                CCDC 
#
#######################################################################
#
# If this CIF has been generated from an entry in the Cambridge 
# Structural Database, then it will include bibliographic, chemical, 
# crystal, experimental, refinement or atomic coordinate data resulting 
# from the CCDC's data processing and validation procedures.
#
#######################################################################

data_QADGUY
_chemical_formula_moiety         'C18 H18 N2 O3 S1'
_chemical_name_systematic        
'3-Phenyl-5-(1-phenylethyl)-3a,5,6,6a-tetrahydro-isothiazolo(5,4-d)isoxazole 4,4-dioxide'
_symmetry_cell_setting           orthorhombic
_symmetry_space_group_name_H-M   'P 21 21 21'
_symmetry_Int_Tables_number      19
_space_group_name_Hall           'P 2ac 2ab'
loop_
_symmetry_equiv_pos_site_id
_symmetry_equiv_pos_as_xyz
1 x,y,z
2 1/2-x,-y,1/2+z
3 -x,1/2+y,1/2-z
4 1/2+x,1/2-y,-z
_cell_length_a                   23.1285(14)
_cell_length_b                   6.7790(4)
_cell_length_c                   10.7820(7)
_cell_angle_alpha                90
_cell_angle_beta                 90
_cell_angle_gamma                90
_cell_volume                     1690.49
_exptl_crystal_colour            colorless
_exptl_crystal_description       block
_cell_formula_units_Z            4
loop_
_atom_site_label
_atom_site_type_symbol
_atom_site_fract_x
_atom_site_fract_y
_atom_site_fract_z
C1 C 0.71143(7) 0.2726(3) -0.01145(17)
C2 C 0.67791(8) 0.4427(4) -0.0065(2)
C3 C 0.67681(9) 0.5557(3) 0.0994(3)
C4 C 0.70974(10) 0.5051(3) 0.1990(2)
C5 C 0.74366(9) 0.3384(3) 0.19524(15)
C6 C 0.74421(6) 0.2178(2) 0.09066(14)
C7 C 0.77811(6) 0.0358(2) 0.08933(13)
C8 C 0.80226(6) -0.0640(2) -0.02325(13)
C9 C 0.82696(7) -0.2528(2) 0.03108(16)
C10 C 0.88940(8) -0.2745(2) -0.0096(2)
C11 C 0.97236(6) -0.0637(3) -0.07084(15)
C12 C 0.99332(9) 0.1485(3) -0.0870(3)
C13 C 1.01287(7) -0.1785(3) 0.01220(16)
C14 C 1.02342(10) -0.1198(4) 0.13259(19)
C15 C 1.06339(15) -0.2299(8) 0.2036(3)
C16 C 1.09044(12) -0.3902(6) 0.1519(5)
C17 C 1.07962(11) -0.4452(5) 0.0361(5)
C18 C 1.04131(9) -0.3411(4) -0.0352(3)
H1 H 0.7125(8) 0.195(3) -0.0821(18)
H2 H 0.6581(11) 0.458(4) -0.074(2)
H3 H 0.6516(13) 0.668(4) 0.108(3)
H4 H 0.7081(10) 0.590(4) 0.274(2)
H5 H 0.7671(9) 0.313(3) 0.262(2)
H6 H 0.7779(8) -0.082(3) -0.0910(18)
H7 H 0.8067(7) -0.370(3) 0.0103(15)
H8 H 0.9106(8) -0.339(3) 0.0496(17)
H9 H 0.8919(8) -0.337(3) -0.0925(18)
H10 H 0.9707(8) -0.124(3) -0.1542(18)
H11 H 0.9926(10) 0.217(4) -0.011(2)
H12 H 0.9691(13) 0.225(4) -0.144(3)
H13 H 1.0310(13) 0.152(4) -0.125(2)
H14 H 0.9987(11) -0.010(4) 0.160(2)
H15 H 1.0631(15) -0.180(6) 0.265(3)
H16 H 1.1170(16) -0.474(5) 0.189(3)
H17 H 1.1002(13) -0.576(5) -0.002(3)
H18 H 1.034(2) -0.374(7) -0.120(5)
N1 N 0.79100(6) -0.0542(2) 0.19005(11)
N2 N 0.91294(5) -0.0716(2) -0.01655(12)
O1 O 0.82427(5) -0.22170(18) 0.16406(11)
O2 O 0.86640(6) 0.26437(16) -0.04339(13)
O3 O 0.86412(6) 0.0375(2) -0.21929(11)
S1 S 0.863489(16) 0.06621(5) -0.08795(3)
loop_
_geom_bond_atom_site_label_1
_geom_bond_atom_site_label_2
_geom_bond_site_symmetry_1
_geom_bond_site_symmetry_2
C1 C2 1_555 1_555
C2 C3 1_555 1_555
C3 C4 1_555 1_555
C4 C5 1_555 1_555
C5 C6 1_555 1_555
C6 C1 1_555 1_555
C7 C6 1_555 1_555
C8 C7 1_555 1_555
C9 C8 1_555 1_555
C10 C9 1_555 1_555
C11 C12 1_555 1_555
C12 H11 1_555 1_555
C13 C11 1_555 1_555
C14 C13 1_555 1_555
C15 C14 1_555 1_555
C16 C15 1_555 1_555
C17 C16 1_555 1_555
C18 C13 1_555 1_555
H1 C1 1_555 1_555
H2 C2 1_555 1_555
H3 C3 1_555 1_555
H4 C4 1_555 1_555
H5 C5 1_555 1_555
H6 C8 1_555 1_555
H7 C9 1_555 1_555
H8 C10 1_555 1_555
H9 C10 1_555 1_555
H10 C11 1_555 1_555
H12 C12 1_555 1_555
H13 C12 1_555 1_555
H14 C14 1_555 1_555
H15 C15 1_555 1_555
H16 C16 1_555 1_555
H17 C17 1_555 1_555
H18 C18 1_555 1_555
N1 C7 1_555 1_555
N2 C10 1_555 1_555
O1 C9 1_555 1_555
O2 S1 1_555 1_555
O3 S1 1_555 1_555
S1 C8 1_555 1_555
C11 N2 1_555 1_555
C17 C18 1_555 1_555
N1 O1 1_555 1_555
N2 S1 1_555 1_555

#END
