
#######################################################################
#
#                 Cambridge Crystallographic Data Centre
#                                CCDC 
#
#######################################################################
#
# If this CIF has been generated from an entry in the Cambridge 
# Structural Database, then it will include bibliographic, chemical, 
# crystal, experimental, refinement or atomic coordinate data resulting 
# from the CCDC's data processing and validation procedures.
#
#######################################################################

data_QADJOX
_chemical_formula_moiety         'C37 H25 N1 O3,0.25(C4 H8 O2)'
_chemical_name_systematic        
'2-(3-Hydroxy-2,3,4,5-tetraphenylcyclopenta-1,4-dien-1-yl)-1H-isoindole-1,3(2H)-dione ethyl acetate solvate'
_symmetry_cell_setting           triclinic
_symmetry_space_group_name_H-M   'P -1'
_symmetry_Int_Tables_number      2
_space_group_name_Hall           '-P 1'
loop_
_symmetry_equiv_pos_site_id
_symmetry_equiv_pos_as_xyz
1 x,y,z
2 -x,-y,-z
_cell_length_a                   12.8713(7)
_cell_length_b                   12.9061(8)
_cell_length_c                   18.4438(11)
_cell_angle_alpha                83.4910(10)
_cell_angle_beta                 70.2210(10)
_cell_angle_gamma                87.1970(10)
_cell_volume                     2864.33
_exptl_crystal_colour            yellow
_exptl_crystal_description       Block
_cell_formula_units_Z            4
loop_
_atom_site_label
_atom_site_type_symbol
_atom_site_fract_x
_atom_site_fract_y
_atom_site_fract_z
H26 H 0.559(2) 0.4905(19) 0.8381(11)
O4 O 0.08616(12) 0.38383(13) 1.01969(10)
O5 O 0.37794(12) 0.43933(12) 1.09786(8)
O6 O 0.53898(11) 0.46667(11) 0.80313(8)
N2 N 0.25137(13) 0.41020(12) 1.03896(9)
C38 C 0.13840(16) 0.38435(16) 1.06286(12)
C39 C 0.10402(17) 0.36035(17) 1.14791(12)
C40 C 0.00258(19) 0.3270(2) 1.20029(15)
H27 H -0.0584 0.3170 1.1839
C41 C -0.0055(2) 0.3092(2) 1.27739(15)
H28 H -0.0734 0.2855 1.3148
C42 C 0.0828(2) 0.32501(18) 1.30102(13)
H29 H 0.0742 0.3119 1.3545
C43 C 0.1839(2) 0.35959(17) 1.24903(12)
H30 H 0.2443 0.3710 1.2656
C44 C 0.19203(17) 0.37659(15) 1.17192(11)
C45 C 0.28726(16) 0.41239(15) 1.10240(11)
C46 C 0.31317(15) 0.45128(15) 0.96255(11)
C47 C 0.37296(15) 0.39689(14) 0.90454(10)
C48 C 0.42185(15) 0.47541(14) 0.83350(10)
C49 C 0.38158(15) 0.58132(14) 0.86375(11)
C50 C 0.31876(15) 0.56508(15) 0.93921(11)
C51 C 0.25976(16) 0.64130(15) 0.99377(11)
C52 C 0.14454(17) 0.64470(17) 1.02136(13)
H31 H 0.1042 0.5963 1.0064
C53 C 0.0885(2) 0.7182(2) 1.07042(14)
H32 H 0.0101 0.7198 1.0893
C54 C 0.1467(2) 0.7888(2) 1.09174(14)
H33 H 0.1084 0.8399 1.1246
C55 C 0.2614(2) 0.78555(19) 1.06529(14)
H34 H 0.3013 0.8344 1.0801
C56 C 0.31758(18) 0.71108(17) 1.01738(12)
H35 H 0.3959 0.7077 1.0006
C57 C 0.40477(16) 0.67829(15) 0.81132(11)
C58 C 0.34213(17) 0.76948(16) 0.82977(12)
H36 H 0.2834 0.7694 0.8778
C59 C 0.36456(19) 0.85976(16) 0.77911(13)
H37 H 0.3214 0.9209 0.7930
C60 C 0.44906(19) 0.86209(16) 0.70842(12)
H38 H 0.4649 0.9246 0.6743
C61 C 0.50988(18) 0.77246(16) 0.68817(12)
H39 H 0.5667 0.7729 0.6392
C62 C 0.48873(17) 0.68135(15) 0.73878(11)
H40 H 0.5317 0.6204 0.7240
C63 C 0.37317(15) 0.45594(14) 0.77143(11)
C64 C 0.26038(17) 0.47108(17) 0.78630(12)
H41 H 0.2148 0.4913 0.8351
C65 C 0.21432(19) 0.45684(18) 0.73042(13)
H42 H 0.1373 0.4680 0.7409
C66 C 0.27910(18) 0.42671(16) 0.65984(12)
H43 H 0.2473 0.4177 0.6214
C67 C 0.39077(18) 0.40962(16) 0.64523(12)
H44 H 0.4358 0.3881 0.5967
C68 C 0.43747(17) 0.42374(15) 0.70110(11)
H45 H 0.5142 0.4111 0.6908
C69 C 0.38810(17) 0.28361(15) 0.90182(11)
C70 C 0.29686(19) 0.21797(17) 0.92709(12)
H46 H 0.2247 0.2468 0.9472
C71 C 0.3103(2) 0.11117(18) 0.92313(14)
H47 H 0.2476 0.0674 0.9403
C72 C 0.4159(3) 0.06803(18) 0.89394(15)
H48 H 0.4255 -0.0051 0.8915
C73 C 0.5057(2) 0.13212(18) 0.86886(14)
H49 H 0.5777 0.1029 0.8487
C74 C 0.49323(19) 0.23895(16) 0.87247(12)
H50 H 0.5565 0.2821 0.8549
H1 H 0.2447(16) 0.076(2) 0.4420(13)
O1 O 0.00122(12) 0.03056(13) 0.78651(8)
O2 O -0.12105(11) -0.04941(11) 0.59462(8)
O3 O 0.29202(10) 0.08638(10) 0.46343(7)
N1 N -0.03342(12) -0.00534(11) 0.67696(8)
C1 C -0.05800(15) -0.00515(15) 0.75739(11)
C2 C -0.16820(15) -0.05411(15) 0.79395(11)
C3 C -0.23160(17) -0.07678(18) 0.87086(12)
H2 H -0.2064 -0.0615 0.9113
C4 C -0.33339(17) -0.12260(17) 0.88692(12)
H3 H -0.3786 -0.1392 0.9393
C5 C -0.37010(16) -0.14457(16) 0.82804(12)
H4 H -0.4402 -0.1758 0.8407
C6 C -0.30628(16) -0.12180(16) 0.75046(12)
H5 H -0.3315 -0.1365 0.7100
C7 C -0.20507(15) -0.07709(14) 0.73498(11)
C8 C -0.11964(15) -0.04502(14) 0.65954(11)
C9 C 0.05892(14) 0.04992(13) 0.62284(10)
C10 C 0.15587(14) 0.00832(13) 0.58439(10)
C11 C 0.23357(14) 0.09890(13) 0.54235(10)
C12 C 0.15633(14) 0.19460(13) 0.55498(10)
C13 C 0.05796(14) 0.16543(14) 0.60712(10)
C14 C -0.03453(15) 0.23147(14) 0.65103(10)
C15 C -0.14458(15) 0.21339(15) 0.65984(11)
H6 H -0.1622 0.1588 0.6356
C16 C -0.22813(16) 0.27523(16) 0.70405(12)
H7 H -0.3028 0.2629 0.7097
C17 C -0.20359(17) 0.35433(16) 0.73980(12)
H8 H -0.2612 0.3962 0.7700
C18 C -0.09507(17) 0.37255(16) 0.73154(12)
H9 H -0.0781 0.4272 0.7560
C19 C -0.01139(16) 0.31166(15) 0.68790(11)
H10 H 0.0629 0.3244 0.6828
C20 C 0.19123(15) 0.29696(14) 0.51244(10)
C21 C 0.11482(16) 0.36525(15) 0.49253(12)
H11 H 0.0393 0.3463 0.5092
C22 C 0.14783(18) 0.46015(16) 0.44890(12)
H12 H 0.0949 0.5054 0.4359
C23 C 0.25744(17) 0.48946(15) 0.42414(11)
H13 H 0.2799 0.5544 0.3942
C24 C 0.33372(16) 0.42316(15) 0.44343(11)
H14 H 0.4089 0.4431 0.4272
C25 C 0.30160(15) 0.32797(14) 0.48618(11)
H15 H 0.3555 0.2827 0.4980
C26 C 0.31804(15) 0.10846(13) 0.58404(10)
C27 C 0.28155(16) 0.12499(14) 0.66227(11)
H16 H 0.2047 0.1256 0.6906
C28 C 0.35649(17) 0.14039(15) 0.69868(12)
H17 H 0.3309 0.1521 0.7518
C29 C 0.46857(17) 0.13881(15) 0.65819(12)
H18 H 0.5199 0.1501 0.6833
C30 C 0.50595(16) 0.12066(14) 0.58064(12)
H19 H 0.5829 0.1185 0.5528
C31 C 0.43074(15) 0.10567(14) 0.54369(11)
H20 H 0.4565 0.0935 0.4906
C32 C 0.18936(14) -0.10211(13) 0.57802(10)
C33 C 0.14902(16) -0.16066(15) 0.53469(11)
H21 H 0.0966 -0.1305 0.5123
C34 C 0.18469(17) -0.26284(15) 0.52390(11)
H22 H 0.1575 -0.3019 0.4936
C35 C 0.25973(16) -0.30801(15) 0.55725(12)
H23 H 0.2844 -0.3778 0.5496
C36 C 0.29852(18) -0.25128(16) 0.60157(13)
H24 H 0.3489 -0.2826 0.6253
C37 C 0.26444(17) -0.14875(15) 0.61169(12)
H25 H 0.2924 -0.1100 0.6417
O7? O -0.0760(2) -0.0965(2) -0.01509(19)
O8? O 0.0254(3) 0.0288(2) 0.00306(19)
C75? C 0.1151(4) -0.0791(4) -0.0954(3)
H51? H 0.1030 -0.1402 -0.1184
H52? H 0.1739 -0.0946 -0.0730
H53? H 0.1367 -0.0199 -0.1354
C76? C 0.0105(4) -0.0522(4) -0.0330(3)
C77? C -0.0692(4) 0.0584(4) 0.0648(3)
H54? H -0.0925 -0.0003 0.1060
H55? H -0.1313 0.0775 0.0455
C78? C -0.0380(4) 0.1508(3) 0.0966(3)
H56? H 0.0288 0.1338 0.1099
H57? H -0.0985 0.1673 0.1431
H58? H -0.0241 0.2112 0.0574
loop_
_geom_bond_atom_site_label_1
_geom_bond_atom_site_label_2
_geom_bond_site_symmetry_1
_geom_bond_site_symmetry_2
H1 O3 1_555 1_555
O1 C1 1_555 1_555
O2 C8 1_555 1_555
O3 C11 1_555 1_555
N1 C1 1_555 1_555
C1 C2 1_555 1_555
C2 C3 1_555 1_555
C3 H2 1_555 1_555
C4 C3 1_555 1_555
H3 C4 1_555 1_555
C5 C4 1_555 1_555
H4 C5 1_555 1_555
C6 C5 1_555 1_555
H5 C6 1_555 1_555
C7 C2 1_555 1_555
C8 N1 1_555 1_555
C9 N1 1_555 1_555
C10 C9 1_555 1_555
C11 C10 1_555 1_555
C12 C11 1_555 1_555
C13 C9 1_555 1_555
C14 C13 1_555 1_555
C15 C14 1_555 1_555
H6 C15 1_555 1_555
C16 C15 1_555 1_555
H7 C16 1_555 1_555
C17 C16 1_555 1_555
H8 C17 1_555 1_555
C18 C17 1_555 1_555
H9 C18 1_555 1_555
C19 C14 1_555 1_555
H10 C19 1_555 1_555
C20 C12 1_555 1_555
C21 C20 1_555 1_555
H11 C21 1_555 1_555
C22 C21 1_555 1_555
H12 C22 1_555 1_555
C23 C22 1_555 1_555
H13 C23 1_555 1_555
C24 C23 1_555 1_555
H14 C24 1_555 1_555
C25 C20 1_555 1_555
H15 C25 1_555 1_555
C26 C11 1_555 1_555
C27 C26 1_555 1_555
H16 C27 1_555 1_555
C28 C27 1_555 1_555
H17 C28 1_555 1_555
C29 C28 1_555 1_555
H18 C29 1_555 1_555
C30 C29 1_555 1_555
H19 C30 1_555 1_555
C31 C26 1_555 1_555
H20 C31 1_555 1_555
C32 C10 1_555 1_555
C33 C32 1_555 1_555
H21 C33 1_555 1_555
C34 C33 1_555 1_555
H22 C34 1_555 1_555
C35 C34 1_555 1_555
H23 C35 1_555 1_555
C36 C35 1_555 1_555
H24 C36 1_555 1_555
C37 C32 1_555 1_555
H25 C37 1_555 1_555
H26 O6 1_555 1_555
O4 C38 1_555 1_555
O5 C45 1_555 1_555
O6 C48 1_555 1_555
N2 C38 1_555 1_555
C38 C39 1_555 1_555
C39 C40 1_555 1_555
C40 H27 1_555 1_555
C41 C40 1_555 1_555
H28 C41 1_555 1_555
C42 C41 1_555 1_555
H29 C42 1_555 1_555
C43 C42 1_555 1_555
H30 C43 1_555 1_555
C44 C39 1_555 1_555
C45 N2 1_555 1_555
C46 N2 1_555 1_555
C47 C46 1_555 1_555
C48 C47 1_555 1_555
C49 C48 1_555 1_555
C50 C46 1_555 1_555
C51 C50 1_555 1_555
C52 C51 1_555 1_555
H31 C52 1_555 1_555
C53 C52 1_555 1_555
H32 C53 1_555 1_555
C54 C53 1_555 1_555
H33 C54 1_555 1_555
C55 C54 1_555 1_555
H34 C55 1_555 1_555
C56 C51 1_555 1_555
H35 C56 1_555 1_555
C57 C49 1_555 1_555
C58 C57 1_555 1_555
H36 C58 1_555 1_555
C59 C58 1_555 1_555
H37 C59 1_555 1_555
C60 C59 1_555 1_555
H38 C60 1_555 1_555
C61 C60 1_555 1_555
H39 C61 1_555 1_555
C62 C57 1_555 1_555
H40 C62 1_555 1_555
C63 C48 1_555 1_555
C64 C63 1_555 1_555
H41 C64 1_555 1_555
C65 C64 1_555 1_555
H42 C65 1_555 1_555
C66 C65 1_555 1_555
H43 C66 1_555 1_555
C67 C66 1_555 1_555
H44 C67 1_555 1_555
C68 C63 1_555 1_555
H45 C68 1_555 1_555
C69 C47 1_555 1_555
C70 C69 1_555 1_555
H46 C70 1_555 1_555
C71 C70 1_555 1_555
H47 C71 1_555 1_555
C72 C71 1_555 1_555
H48 C72 1_555 1_555
C73 C72 1_555 1_555
H49 C73 1_555 1_555
C74 C69 1_555 1_555
H50 C74 1_555 1_555
C6 C7 1_555 1_555
C7 C8 1_555 1_555
C12 C13 1_555 1_555
C18 C19 1_555 1_555
C24 C25 1_555 1_555
C30 C31 1_555 1_555
C36 C37 1_555 1_555
C43 C44 1_555 1_555
C44 C45 1_555 1_555
C49 C50 1_555 1_555
C55 C56 1_555 1_555
C61 C62 1_555 1_555
C67 C68 1_555 1_555
C73 C74 1_555 1_555

#END
