
#######################################################################
#
#                 Cambridge Crystallographic Data Centre
#                                CCDC 
#
#######################################################################
#
# If this CIF has been generated from an entry in the Cambridge 
# Structural Database, then it will include bibliographic, chemical, 
# crystal, experimental, refinement or atomic coordinate data resulting 
# from the CCDC's data processing and validation procedures.
#
#######################################################################

data_QADJUD
_chemical_formula_moiety         'C37 H26 O2'
_chemical_name_systematic        
9-Hydroxy-1,2,3,9a-tetraphenyl-9,9a-dihydro-4H-cyclopenta[b]naphthalen-4-one
_symmetry_cell_setting           triclinic
_symmetry_space_group_name_H-M   'P -1'
_symmetry_Int_Tables_number      2
_space_group_name_Hall           '-P 1'
loop_
_symmetry_equiv_pos_site_id
_symmetry_equiv_pos_as_xyz
1 x,y,z
2 -x,-y,-z
_cell_length_a                   6.5140(9)
_cell_length_b                   11.9444(16)
_cell_length_c                   17.215(2)
_cell_angle_alpha                93.280(3)
_cell_angle_beta                 94.949(3)
_cell_angle_gamma                104.241(3)
_cell_volume                     1289.15
_exptl_crystal_colour            colorless
_exptl_crystal_description       Block
_cell_formula_units_Z            2
loop_
_atom_site_label
_atom_site_type_symbol
_atom_site_fract_x
_atom_site_fract_y
_atom_site_fract_z
O1 O 0.39008(14) 0.16693(8) 0.17437(5)
H1 H 0.2759 0.1404 0.1453
O2 O 0.99517(13) 0.07678(7) 0.09390(5)
C1 C 0.55203(19) 0.20599(10) 0.05430(7)
C2 C 0.4061(2) 0.21502(11) -0.00760(7)
H2 H 0.3011 0.2560 0.0010
C3 C 0.4127(2) 0.16460(11) -0.08174(7)
H3 H 0.3105 0.1696 -0.1233
C4 C 0.5689(2) 0.10681(11) -0.09518(7)
H4 H 0.5735 0.0729 -0.1461
C5 C 0.7174(2) 0.09850(10) -0.03493(7)
H5 H 0.8253 0.0600 -0.0445
C6 C 0.70823(18) 0.14697(10) 0.04008(7)
C7 C 0.86043(18) 0.13099(10) 0.10516(7)
C8 C 0.83894(18) 0.18291(10) 0.18192(7)
C9 C 0.74810(19) 0.28836(10) 0.18754(7)
C10 C 0.52942(19) 0.25191(10) 0.13618(7)
H6 H 0.4695 0.3211 0.1326
C11 C 0.72011(19) 0.29961(11) 0.27451(7)
C12 C 0.77150(19) 0.21015(11) 0.30934(7)
C13 C 0.84071(18) 0.13520(10) 0.25131(7)
C14 C 0.88347(19) 0.39711(10) 0.15682(7)
C15 C 1.0749(2) 0.39721(11) 0.12639(8)
H7 H 1.1265 0.3295 0.1273
C16 C 1.1919(2) 0.49422(12) 0.09477(8)
H8 H 1.3218 0.4922 0.0743
C17 C 1.1195(2) 0.59358(12) 0.09308(8)
H9 H 1.1984 0.6599 0.0711
C18 C 0.9309(2) 0.59560(12) 0.12379(8)
H10 H 0.8813 0.6640 0.1232
C19 C 0.8135(2) 0.49891(11) 0.15542(8)
H11 H 0.6844 0.5018 0.1763
C20 C 0.6448(2) 0.39267(11) 0.31463(7)
C21 C 0.4433(2) 0.40847(13) 0.29335(8)
H12 H 0.3556 0.3616 0.2507
C22 C 0.3689(3) 0.49184(15) 0.33373(10)
H13 H 0.2318 0.5022 0.3181
C23 C 0.4924(3) 0.55950(13) 0.39632(10)
H14 H 0.4402 0.6157 0.4244
C24 C 0.6933(3) 0.54516(13) 0.41818(9)
H15 H 0.7793 0.5921 0.4612
C25 C 0.7705(2) 0.46241(12) 0.37763(8)
H16 H 0.9089 0.4535 0.3929
C26 C 0.7510(2) 0.18492(11) 0.39196(7)
C27 C 0.5614(2) 0.18395(12) 0.42416(8)
H17 H 0.4465 0.2007 0.3931
C28 C 0.5389(2) 0.15883(12) 0.50106(8)
H18 H 0.4089 0.1581 0.5224
C29 C 0.7059(2) 0.13485(12) 0.54670(8)
H19 H 0.6910 0.1184 0.5996
C30 C 0.8944(2) 0.13480(13) 0.51547(8)
H20 H 1.0089 0.1183 0.5469
C31 C 0.9169(2) 0.15873(12) 0.43827(8)
H21 H 1.0459 0.1573 0.4168
C32 C 0.85776(19) 0.01619(11) 0.26575(7)
C33 C 1.0341(2) -0.02558(11) 0.25176(7)
H22 H 1.1575 0.0249 0.2359
C34 C 1.0298(2) -0.14114(12) 0.26107(8)
H23 H 1.1500 -0.1693 0.2509
C35 C 0.8519(2) -0.21552(11) 0.28500(7)
H24 H 0.8495 -0.2944 0.2908
C36 C 0.6769(2) -0.17404(11) 0.30043(7)
H25 H 0.5547 -0.2245 0.3171
C37 C 0.6805(2) -0.05892(11) 0.29152(7)
H26 H 0.5613 -0.0307 0.3030
loop_
_geom_bond_atom_site_label_1
_geom_bond_atom_site_label_2
_geom_bond_site_symmetry_1
_geom_bond_site_symmetry_2
O1 H1 1_555 1_555
O2 C7 1_555 1_555
C1 C2 1_555 1_555
C2 H2 1_555 1_555
C3 C2 1_555 1_555
H3 C3 1_555 1_555
C4 C3 1_555 1_555
H4 C4 1_555 1_555
C5 C4 1_555 1_555
H5 C5 1_555 1_555
C6 C1 1_555 1_555
C7 C6 1_555 1_555
C8 C7 1_555 1_555
C9 C8 1_555 1_555
C10 O1 1_555 1_555
H6 C10 1_555 1_555
C11 C9 1_555 1_555
C12 C11 1_555 1_555
C13 C8 1_555 1_555
C14 C9 1_555 1_555
C15 C14 1_555 1_555
H7 C15 1_555 1_555
C16 C15 1_555 1_555
H8 C16 1_555 1_555
C17 C16 1_555 1_555
H9 C17 1_555 1_555
C18 C17 1_555 1_555
H10 C18 1_555 1_555
C19 C14 1_555 1_555
H11 C19 1_555 1_555
C20 C11 1_555 1_555
C21 C20 1_555 1_555
H12 C21 1_555 1_555
C22 C21 1_555 1_555
H13 C22 1_555 1_555
C23 C22 1_555 1_555
H14 C23 1_555 1_555
C24 C23 1_555 1_555
H15 C24 1_555 1_555
C25 C20 1_555 1_555
H16 C25 1_555 1_555
C26 C12 1_555 1_555
C27 C26 1_555 1_555
H17 C27 1_555 1_555
C28 C27 1_555 1_555
H18 C28 1_555 1_555
C29 C28 1_555 1_555
H19 C29 1_555 1_555
C30 C29 1_555 1_555
H20 C30 1_555 1_555
C31 C26 1_555 1_555
H21 C31 1_555 1_555
C32 C13 1_555 1_555
C33 C32 1_555 1_555
H22 C33 1_555 1_555
C34 C33 1_555 1_555
H23 C34 1_555 1_555
C35 C34 1_555 1_555
H24 C35 1_555 1_555
C36 C35 1_555 1_555
H25 C36 1_555 1_555
C37 C32 1_555 1_555
H26 C37 1_555 1_555
C1 C10 1_555 1_555
C5 C6 1_555 1_555
C9 C10 1_555 1_555
C12 C13 1_555 1_555
C18 C19 1_555 1_555
C24 C25 1_555 1_555
C30 C31 1_555 1_555
C36 C37 1_555 1_555

#END
