
#######################################################################
#
#                 Cambridge Crystallographic Data Centre
#                                CCDC 
#
#######################################################################
#
# If this CIF has been generated from an entry in the Cambridge 
# Structural Database, then it will include bibliographic, chemical, 
# crystal, experimental, refinement or atomic coordinate data resulting 
# from the CCDC's data processing and validation procedures.
#
#######################################################################

data_QADLOY
_chemical_formula_moiety         'C14 H20 N1 O2 1+,C8 H7 O3 1-'
_chemical_name_systematic        
'(4aS,9aR)-(-)-cis-4a-Ethyl-6-methoxy-1,2,3,4,4a,9a-hexahydro[1]benzofuro[2,3-c]pyridin-2-ium (R)-(-)-mandelate'
_symmetry_cell_setting           monoclinic
_symmetry_space_group_name_H-M   'P 21'
_symmetry_Int_Tables_number      4
_space_group_name_Hall           'P 2yb'
loop_
_symmetry_equiv_pos_site_id
_symmetry_equiv_pos_as_xyz
1 x,y,z
2 -x,1/2+y,-z
_cell_length_a                   11.1970(7)
_cell_length_b                   6.2958(4)
_cell_length_c                   13.8939(9)
_cell_angle_alpha                90
_cell_angle_beta                 96.147(1)
_cell_angle_gamma                90
_cell_volume                     973.806
_exptl_crystal_colour            colorless
_exptl_crystal_description       'flat rod'
_chemical_melting_point          '50-51 deg.C'
_cell_formula_units_Z            2
loop_
_atom_site_label
_atom_site_type_symbol
_atom_site_fract_x
_atom_site_fract_y
_atom_site_fract_z
C1 C 0.63641(11) 0.1425(2) 0.35351(9)
H1 H 0.5946 0.2698 0.3749
H2 H 0.6024 0.1090 0.2865
N1 N 0.61503(10) -0.03891(18) 0.41771(8)
H3 H 0.6507(15) -0.006(3) 0.4813(13)
H4 H 0.5341(16) -0.058(3) 0.4218(12)
C2 C 0.67145(12) -0.2373(2) 0.38416(10)
H5 H 0.6410 -0.2667 0.3159
H6 H 0.6508 -0.3593 0.4241
C3 C 0.80651(12) -0.2071(2) 0.39330(9)
H7 H 0.8431 -0.3337 0.3660
H8 H 0.8364 -0.1999 0.4629
C4 C 0.84972(11) -0.00836(19) 0.34295(9)
C5 C 0.83832(11) -0.0190(2) 0.23295(9)
C6 C 0.86586(11) -0.1790(2) 0.17135(9)
H9 H 0.8916 -0.3143 0.1957
C7 C 0.85480(11) -0.1365(2) 0.07155(9)
C8 C 0.81917(11) 0.0626(2) 0.03581(9)
H10 H 0.8130 0.0888 -0.0319
C9 C 0.79232(11) 0.2246(2) 0.09898(9)
H11 H 0.7684 0.3615 0.0755
C10 C 0.80176(11) 0.1784(2) 0.19672(9)
O1 O 0.78019(8) 0.32174(14) 0.26928(6)
C11 C 0.77073(11) 0.1911(2) 0.35467(9)
H12 H 0.8006 0.2708 0.4147
C12 C 0.98204(12) 0.0307(2) 0.38402(9)
H13 H 0.9848 0.0488 0.4550
H14 H 1.0289 -0.0983 0.3723
C13 C 1.04439(12) 0.2214(3) 0.34318(10)
H15 H 1.1286 0.2255 0.3709
H16 H 1.0041 0.3524 0.3598
H17 H 1.0405 0.2086 0.2726
O2 O 0.88046(9) -0.30646(16) 0.01506(7)
C14 C 0.88472(13) -0.2666(2) -0.08559(9)
H18 H 0.9049 -0.3982 -0.1179
H19 H 0.9460 -0.1588 -0.0938
H20 H 0.8062 -0.2153 -0.1142
O3 O 0.62082(9) 0.37265(18) 0.57208(7)
O4 O 0.73676(10) 0.08373(18) 0.58750(7)
C15 C 0.69323(11) 0.2508(2) 0.61905(9)
C16 C 0.73415(11) 0.3015(2) 0.72603(9)
H21 H 0.7572 0.4548 0.7316
O5 O 0.83520(9) 0.1758(2) 0.76025(8)
H22 H 0.8439(19) 0.095(4) 0.7150(16)
C17 C 0.63073(12) 0.2616(2) 0.78632(9)
C18 C 0.58443(12) 0.0566(2) 0.79242(10)
H23 H 0.6175 -0.0565 0.7586
C19 C 0.49049(12) 0.0168(2) 0.84740(10)
H24 H 0.4600 -0.1233 0.8514
C20 C 0.44103(12) 0.1812(2) 0.89650(9)
H25 H 0.3762 0.1538 0.9336
C21 C 0.48635(12) 0.3864(2) 0.89147(10)
H26 H 0.4528 0.4993 0.9251
C22 C 0.58171(12) 0.4249(2) 0.83646(9)
H27 H 0.6133 0.5645 0.8334
loop_
_geom_bond_atom_site_label_1
_geom_bond_atom_site_label_2
_geom_bond_site_symmetry_1
_geom_bond_site_symmetry_2
C1 H1 1_555 1_555
H2 C1 1_555 1_555
N1 C1 1_555 1_555
H3 N1 1_555 1_555
H4 N1 1_555 1_555
C2 N1 1_555 1_555
H5 C2 1_555 1_555
H6 C2 1_555 1_555
C3 C2 1_555 1_555
H7 C3 1_555 1_555
H8 C3 1_555 1_555
C4 C3 1_555 1_555
C5 C4 1_555 1_555
C6 C5 1_555 1_555
H9 C6 1_555 1_555
C7 C6 1_555 1_555
C8 C7 1_555 1_555
H10 C8 1_555 1_555
C9 C8 1_555 1_555
H11 C9 1_555 1_555
C10 C5 1_555 1_555
O1 C10 1_555 1_555
C11 C1 1_555 1_555
H12 C11 1_555 1_555
C12 C4 1_555 1_555
H13 C12 1_555 1_555
H14 C12 1_555 1_555
C13 C12 1_555 1_555
H15 C13 1_555 1_555
H16 C13 1_555 1_555
H17 C13 1_555 1_555
O2 C7 1_555 1_555
C14 O2 1_555 1_555
H18 C14 1_555 1_555
H19 C14 1_555 1_555
H20 C14 1_555 1_555
O3 C15 1_555 1_555
O4 C15 1_555 1_555
C15 C16 1_555 1_555
C16 H21 1_555 1_555
O5 C16 1_555 1_555
H22 O5 1_555 1_555
C17 C16 1_555 1_555
C18 C17 1_555 1_555
H23 C18 1_555 1_555
C19 C18 1_555 1_555
H24 C19 1_555 1_555
C20 C19 1_555 1_555
H25 C20 1_555 1_555
C21 C20 1_555 1_555
H26 C21 1_555 1_555
C22 C17 1_555 1_555
H27 C22 1_555 1_555
C4 C11 1_555 1_555
C9 C10 1_555 1_555
O1 C11 1_555 1_555
C21 C22 1_555 1_555

#END
