
#######################################################################
#
#                 Cambridge Crystallographic Data Centre
#                                CCDC 
#
#######################################################################
#
# If this CIF has been generated from an entry in the Cambridge 
# Structural Database, then it will include bibliographic, chemical, 
# crystal, experimental, refinement or atomic coordinate data resulting 
# from the CCDC's data processing and validation procedures.
#
#######################################################################

data_QADLAK
_chemical_name_common            
cis-(6aR,2'R)-N-Methyl-2'-methyl-2',3'-dihydrofuro[m]aporphine
_chemical_formula_moiety         'C20 H21 N1 O1'
_chemical_name_systematic        
cis-(R,R)-2,7-Dimethyl-3,6,6a,7,8,9-hexahydro-2H-benzo[de][1]benzofuro[7,6-g]quinoline
_chemical_properties_biological  
'Selective serotonin 5-HT!1A$ receptor agonist activity'
_symmetry_cell_setting           orthorhombic
_symmetry_space_group_name_H-M   'P 21 21 21'
_symmetry_Int_Tables_number      19
_space_group_name_Hall           'P 2ac 2ab'
loop_
_symmetry_equiv_pos_site_id
_symmetry_equiv_pos_as_xyz
1 x,y,z
2 1/2-x,-y,1/2+z
3 -x,1/2+y,1/2-z
4 1/2+x,1/2-y,-z
_cell_length_a                   7.983(3)
_cell_length_b                   12.721(4)
_cell_length_c                   15.432(5)
_cell_angle_alpha                90
_cell_angle_beta                 90
_cell_angle_gamma                90
_cell_volume                     1567.15
_cell_formula_units_Z            4
_exptl_crystal_recrystallization_method chloroform
loop_
_atom_site_label
_atom_site_type_symbol
_atom_site_fract_x
_atom_site_fract_y
_atom_site_fract_z
N1 N 0.6575(3) 0.3253(2) 0.4090(1)
O1 O 0.7758(2) 0.2415(1) -0.0030(1)
C1 C 0.8412(3) 0.1769(2) -0.0740(2)
C2 C 0.8478(4) 0.0659(2) -0.0376(2)
C3 C 0.8601(3) 0.0865(2) 0.0579(2)
C4 C 0.8128(3) 0.1896(2) 0.0721(1)
C5 C 0.8022(3) 0.2339(2) 0.1547(1)
C6 C 0.8414(3) 0.1668(2) 0.2243(2)
C7 C 0.8918(3) 0.0641(2) 0.2097(2)
C8 C 0.9016(3) 0.0236(2) 0.1267(2)
C9 C 0.7606(2) 0.3455(2) 0.1726(1)
C10 C 0.7827(3) 0.4243(2) 0.1115(2)
C11 C 0.7442(3) 0.5269(2) 0.1301(2)
C12 C 0.6816(3) 0.5522(2) 0.2107(2)
C13 C 0.6600(3) 0.4762(2) 0.2736(1)
C14 C 0.7010(3) 0.3731(2) 0.2551(1)
C15 C 0.5952(4) 0.5046(2) 0.3623(2)
C16 C 0.5321(4) 0.4086(2) 0.4093(2)
C17 C 0.6805(3) 0.2852(2) 0.3212(2)
C18 C 0.8309(3) 0.2123(2) 0.3139(2)
C19 C 0.6059(4) 0.2407(3) 0.4678(2)
C20 C 0.7318(4) 0.1924(2) -0.1521(2)
H1 H 0.9552 0.1999 -0.0879
H2 H 0.7472 0.0267 -0.0517
H3 H 0.9449 0.0280 -0.0587
H4 H 0.9197 0.0217 0.2566
H5 H 0.9358 -0.0455 0.1176
H6 H 0.8243 0.4073 0.0570
H7 H 0.7603 0.5790 0.0887
H8 H 0.6534 0.6216 0.2229
H9 H 0.6842 0.5369 0.3958
H10 H 0.5050 0.5552 0.3567
H11 H 0.5048 0.4271 0.4686
H12 H 0.4307 0.3835 0.3815
H13 H 0.5803 0.2450 0.3056
H14 H 0.9326 0.2511 0.3265
H15 H 0.8208 0.1560 0.3559
H16 H 0.6921 0.1882 0.4703
H17 H 0.5040 0.2095 0.4469
H18 H 0.5876 0.2690 0.5247
H19 H 0.7223 0.2661 -0.1645
H20 H 0.6226 0.1638 -0.1408
H21 H 0.7805 0.1570 -0.2010
loop_
_geom_bond_atom_site_label_1
_geom_bond_atom_site_label_2
_geom_bond_site_symmetry_1
_geom_bond_site_symmetry_2
N1 C16 1_555 1_555
O1 C1 1_555 1_555
C1 C2 1_555 1_555
C2 C3 1_555 1_555
C3 C4 1_555 1_555
C4 O1 1_555 1_555
C5 C4 1_555 1_555
C6 C5 1_555 1_555
C7 C6 1_555 1_555
C8 C3 1_555 1_555
C9 C5 1_555 1_555
C10 C9 1_555 1_555
C11 C10 1_555 1_555
C12 C11 1_555 1_555
C13 C12 1_555 1_555
C14 C9 1_555 1_555
C15 C13 1_555 1_555
C16 C15 1_555 1_555
C17 N1 1_555 1_555
C18 C6 1_555 1_555
C19 N1 1_555 1_555
C20 C1 1_555 1_555
H1 C1 1_555 1_555
H2 C2 1_555 1_555
H3 C2 1_555 1_555
H4 C7 1_555 1_555
H5 C8 1_555 1_555
H6 C10 1_555 1_555
H7 C11 1_555 1_555
H8 C12 1_555 1_555
H9 C15 1_555 1_555
H10 C15 1_555 1_555
H11 C16 1_555 1_555
H12 C16 1_555 1_555
H13 C17 1_555 1_555
H14 C18 1_555 1_555
H15 C18 1_555 1_555
H16 C19 1_555 1_555
H17 C19 1_555 1_555
H18 C19 1_555 1_555
H19 C20 1_555 1_555
H20 C20 1_555 1_555
H21 C20 1_555 1_555
C7 C8 1_555 1_555
C13 C14 1_555 1_555
C14 C17 1_555 1_555
C17 C18 1_555 1_555

#END
