
#######################################################################
#
#                 Cambridge Crystallographic Data Centre
#                                CCDC 
#
#######################################################################
#
# If this CIF has been generated from an entry in the Cambridge 
# Structural Database, then it will include bibliographic, chemical, 
# crystal, experimental, refinement or atomic coordinate data resulting 
# from the CCDC's data processing and validation procedures.
#
#######################################################################

data_QADQOB
_chemical_compound_source        'Gorgonella umbraculum'
_chemical_formula_moiety         'C28 H37 Cl1 O11'
_chemical_name_systematic        Junceellin
_symmetry_cell_setting           orthorhombic
_symmetry_space_group_name_H-M   'P 21 21 2'
_symmetry_Int_Tables_number      18
_space_group_name_Hall           'P 2 2ab'
loop_
_symmetry_equiv_pos_site_id
_symmetry_equiv_pos_as_xyz
1 x,y,z
2 -x,-y,z
3 1/2+x,1/2-y,-z
4 1/2-x,1/2+y,-z
_cell_length_a                   16.6680(10)
_cell_length_b                   16.692(7)
_cell_length_c                   10.198(8)
_cell_angle_alpha                90
_cell_angle_beta                 90
_cell_angle_gamma                90
_cell_volume                     2837.31
_exptl_crystal_colour            colorless
_exptl_crystal_description       plates
_chemical_melting_point          240-242deg.C
_cell_formula_units_Z            4
_exptl_crystal_recrystallization_method chloroform
loop_
_atom_site_label
_atom_site_type_symbol
_atom_site_fract_x
_atom_site_fract_y
_atom_site_fract_z
Cl1 Cl 0.4830(1) 0.1553(1) 0.7681(2)
O1 O 0.2756(3) 0.2004(3) 1.5122(4)
O2 O 0.1552(3) 0.1556(4) 1.5813(5)
O3 O 0.1679(3) 0.1769(3) 1.2541(4)
O4 O 0.1761(4) 0.0476(3) 1.3198(5)
O5 O 0.2214(3) 0.1109(3) 1.0462(4)
O6 O 0.1933(4) 0.2074(4) 0.9003(6)
O7 O 0.4150(3) 0.1391(3) 1.1984(4)
O8 O 0.3666(3) 0.3108(3) 1.0767(4)
O9 O 0.4549(4) 0.4036(3) 1.0051(4)
O10 O 0.6382(3) 0.0972(3) 1.1951(5)
O11 O 0.5595(3) 0.1441(3) 1.0349(4)
C1 C 0.2556(4) 0.3423(5) 1.5237(6)
C2 C 0.3441(4) 0.3600(5) 1.5306(6)
C3 C 0.3769(4) 0.3657(4) 1.3915(6)
C4 C 0.3645(4) 0.2876(4) 1.3147(6)
C5 C 0.2722(4) 0.2681(4) 1.3015(6)
C6 C 0.2377(4) 0.2682(5) 1.4465(6)
C7 C 0.4129(4) 0.4309(4) 1.3485(6)
C8 C 0.2250(6) 0.1457(5) 1.5712(6)
C9 C 0.2755(5) 0.0759(5) 1.6159(7)
C10 C 0.2246(4) 0.3320(4) 1.2272(6)
C11 C 0.2543(4) 0.1818(4) 1.2486(6)
C12 C 0.2815(4) 0.1616(5) 1.1069(6)
C13 C 0.3562(4) 0.1097(4) 1.1093(6)
C14 C 0.4602(4) 0.2082(4) 1.1641(6)
C15 C 0.4167(4) 0.2883(4) 1.1882(6)
C16 C 0.4951(4) 0.2004(5) 1.0231(6)
C17 C 0.4354(4) 0.1686(5) 0.9239(6)
C18 C 0.3940(5) 0.0946(4) 0.9743(6)
C19 C 0.3872(5) 0.0251(4) 0.9136(6)
C20 C 0.5844(5) 0.1408(5) 1.1648(7)
C21 C 0.5374(4) 0.2003(4) 1.2432(6)
C22 C 0.5319(4) 0.1755(5) 1.3877(6)
C23 C 0.3912(5) 0.3725(5) 0.9950(7)
C24 C 0.3290(5) 0.3892(5) 0.8954(6)
C25 C 0.1829(5) 0.1407(6) 0.9388(7)
C26 C 0.1313(5) 0.0789(5) 0.8825(6)
C27 C 0.1374(5) 0.1065(6) 1.2935(7)
C28 C 0.0474(5) 0.1096(5) 1.3018(7)
H1 H 0.2348(4) 0.3360(5) 1.6120(6)
H2 H 0.2282(4) 0.3874(5) 1.4838(6)
H3 H 0.3715(4) 0.3176(5) 1.5780(6)
H4 H 0.3530(4) 0.4100(5) 1.5766(6)
H5 H 0.3251(4) 0.3860(4) 1.3603(6)
H6 H 0.3869(4) 0.2452(4) 1.3701(6)
H7 H 0.1795(4) 0.2598(5) 1.4437(6)
H8 H 0.4189(4) 0.4749(4) 1.4035(6)
H9 H 0.4324(4) 0.4329(4) 1.2631(6)
H10 H 0.3054(19) 0.0909(9) 1.6925(26)
H11 H 0.3119(18) 0.0609(17) 1.5472(17)
H12 H 0.2413(5) 0.0313(9) 1.6365(38)
H13 H 0.2454(15) 0.3841(4) 1.2482(29)
H14 H 0.1691(5) 0.3292(15) 1.2522(29)
H15 H 0.2294(19) 0.3229(14) 1.1346(6)
H16 H 0.2773(4) 0.1424(4) 1.3091(6)
H17 H 0.2903(4) 0.2104(5) 1.0555(6)
H18 H 0.3395(4) 0.0573(4) 1.1427(6)
H19 H 0.4578(4) 0.3298(4) 1.1989(6)
H20 H 0.5160(4) 0.2523(5) 0.9939(6)
H21 H 0.3941(4) 0.2098(5) 0.9126(6)
H22 H 0.4438(5) 0.0767(4) 1.0160(6)
H23 H 0.4094(5) 0.0183(4) 0.8306(6)
H24 H 0.3602(5) -0.0171(4) 0.9537(6)
H25 H 0.5656(4) 0.2518(4) 1.2391(6)
H26 H 0.4970(24) 0.1300(19) 1.3959(8)
H27 H 0.5108(28) 0.2192(11) 1.4384(9)
H28 H 0.5843(6) 0.1618(29) 1.4194(15)
H29 H 0.2914(15) 0.4274(19) 0.9297(17)
H30 H 0.3015(18) 0.3405(6) 0.8737(30)
H31 H 0.3538(6) 0.4107(25) 0.8181(17)
H32 H 0.0844(12) 0.0726(18) 0.9361(24)
H33 H 0.1600(9) 0.0291(7) 0.8788(36)
H34 H 0.1156(21) 0.0944(12) 0.7955(18)
H35 H 0.0289(5) 0.1608(10) 1.2713(40)
H36 H 0.0310(5) 0.1020(28) 1.3911(10)
H37 H 0.0249(5) 0.0681(17) 1.2481(36)
loop_
_geom_bond_atom_site_label_1
_geom_bond_atom_site_label_2
_geom_bond_site_symmetry_1
_geom_bond_site_symmetry_2
Cl1 C17 1_555 1_555
O1 C6 1_555 1_555
O2 C8 1_555 1_555
O3 C11 1_555 1_555
O4 C27 1_555 1_555
O5 C12 1_555 1_555
O6 C25 1_555 1_555
O7 C13 1_555 1_555
O8 C15 1_555 1_555
O9 C23 1_555 1_555
O10 C20 1_555 1_555
O11 C16 1_555 1_555
C1 C2 1_555 1_555
C2 C3 1_555 1_555
C3 C4 1_555 1_555
C4 C5 1_555 1_555
C5 C6 1_555 1_555
C6 C1 1_555 1_555
C7 C3 1_555 1_555
C8 O1 1_555 1_555
C9 C8 1_555 1_555
C10 C5 1_555 1_555
C11 C5 1_555 1_555
C12 C11 1_555 1_555
C13 C12 1_555 1_555
C14 O7 1_555 1_555
C15 C4 1_555 1_555
C16 C14 1_555 1_555
C17 C16 1_555 1_555
C18 C13 1_555 1_555
C19 C18 1_555 1_555
C20 O11 1_555 1_555
C21 C14 1_555 1_555
C22 C21 1_555 1_555
C23 O8 1_555 1_555
C24 C23 1_555 1_555
C25 O5 1_555 1_555
C26 C25 1_555 1_555
C27 O3 1_555 1_555
C28 C27 1_555 1_555
H1 C1 1_555 1_555
H2 C1 1_555 1_555
H3 C2 1_555 1_555
H4 C2 1_555 1_555
H5 C3 1_555 1_555
H6 C4 1_555 1_555
H7 C6 1_555 1_555
H8 C7 1_555 1_555
H9 C7 1_555 1_555
H10 C9 1_555 1_555
H11 C9 1_555 1_555
H12 C9 1_555 1_555
H13 C10 1_555 1_555
H14 C10 1_555 1_555
H15 C10 1_555 1_555
H16 C11 1_555 1_555
H17 C12 1_555 1_555
H18 C13 1_555 1_555
H19 C15 1_555 1_555
H20 C16 1_555 1_555
H21 C17 1_555 1_555
H22 C18 1_555 1_555
H23 C19 1_555 1_555
H24 C19 1_555 1_555
H25 C21 1_555 1_555
H26 C22 1_555 1_555
H27 C22 1_555 1_555
H28 C22 1_555 1_555
H29 C24 1_555 1_555
H30 C24 1_555 1_555
H31 C24 1_555 1_555
H32 C26 1_555 1_555
H33 C26 1_555 1_555
H34 C26 1_555 1_555
H35 C28 1_555 1_555
H36 C28 1_555 1_555
H37 C28 1_555 1_555
C14 C15 1_555 1_555
C17 C18 1_555 1_555
C20 C21 1_555 1_555

#END
