
#######################################################################
#
#                 Cambridge Crystallographic Data Centre
#                                CCDC 
#
#######################################################################
#
# If this CIF has been generated from an entry in the Cambridge 
# Structural Database, then it will include bibliographic, chemical, 
# crystal, experimental, refinement or atomic coordinate data resulting 
# from the CCDC's data processing and validation procedures.
#
#######################################################################

data_QADVIA
_chemical_compound_source        'Xylaria longiana (Rehm.)'
_chemical_name_common            Longianone
_chemical_formula_moiety         'C7 H6 O4'
_chemical_name_systematic        1,7-Dioxaspiro[4.4]non-2-ene-4,8-dione
_symmetry_cell_setting           monoclinic
_symmetry_space_group_name_H-M   'P 21'
_symmetry_Int_Tables_number      4
_space_group_name_Hall           'P 2yb'
loop_
_symmetry_equiv_pos_site_id
_symmetry_equiv_pos_as_xyz
1 x,y,z
2 -x,1/2+y,-z
_cell_length_a                   6.3316(13)
_cell_length_b                   17.483(4)
_cell_length_c                   6.3606(13)
_cell_angle_alpha                90
_cell_angle_beta                 97.70(3)
_cell_angle_gamma                90
_cell_volume                     697.74
_exptl_crystal_colour            colorless
_exptl_crystal_description       block
_chemical_melting_point          150deg.C
_cell_formula_units_Z            4
_exptl_crystal_recrystallization_method ethanol
loop_
_atom_site_label
_atom_site_type_symbol
_atom_site_fract_x
_atom_site_fract_y
_atom_site_fract_z
O1 O 0.3925(4) 0.9620(2) 0.8618(5)
O3 O 0.3061(6) 0.7684(2) 0.9638(6)
C1 C 0.5422(7) 0.9423(3) 1.0262(8)
O6 O -0.2083(5) 0.9565(2) 0.5036(6)
C3 C 0.5389(7) 0.8711(3) 1.0896(7)
C5 C 0.3704(7) 0.8335(2) 0.9613(8)
C7 C 0.2717(6) 0.8927(2) 0.8028(7)
C9 C 0.2852(9) 0.8736(4) 0.5731(8)
O7 O 0.1042(6) 0.9099(2) 0.4520(5)
C11 C -0.0440(9) 0.9279(2) 0.5778(9)
C13 C 0.0379(7) 0.9083(3) 0.8008(8)
H5 H 0.2640(80) 0.8210(30) 0.5610(80)
H6 H 0.4210(90) 0.8890(30) 0.5390(80)
H7 H -0.0460(50) 0.8621(14) 0.8340(50)
H8 H -0.0050(60) 0.9474(19) 0.9030(50)
H11 H 0.6360(60) 0.9810(20) 1.0810(60)
H12 H 0.6330(60) 0.8470(20) 1.1960(60)
O2 O -0.3530(5) 0.5823(2) 0.6684(5)
O4 O -0.2172(5) 0.7710(2) 0.5502(5)
C2 C -0.4954(8) 0.6042(3) 0.4998(8)
O5 O 0.0025(5) 0.6147(2) 1.2557(5)
C4 C -0.4750(7) 0.6746(3) 0.4296(7)
C6 C -0.2962(7) 0.7077(2) 0.5579(7)
C8 C -0.2153(6) 0.6466(2) 0.7204(6)
C10 C 0.0162(7) 0.6224(3) 0.7200(6)
O8 O 0.0888(5) 0.5975(2) 0.9344(4)
C12 C -0.0343(8) 0.6262(3) 1.0697(8)
C14 C -0.2154(7) 0.6702(3) 0.9495(6)
H1 H -0.1926 0.7248 0.9664
H2 H -0.3494 0.6569 0.9982
H3 H 0.0240(60) 0.5801(18) 0.6150(50)
H4 H 0.1130(60) 0.6660(18) 0.6930(70)
H9 H -0.5920(70) 0.5640(20) 0.4640(90)
H10 H -0.5680(60) 0.6930(20) 0.3130(50)
loop_
_geom_bond_atom_site_label_1
_geom_bond_atom_site_label_2
_geom_bond_site_symmetry_1
_geom_bond_site_symmetry_2
O1 C1 1_555 1_555
O2 C2 1_555 1_555
O3 C5 1_555 1_555
C1 C3 1_555 1_555
O4 C6 1_555 1_555
C2 C4 1_555 1_555
O5 C12 1_555 1_555
O6 C11 1_555 1_555
C3 C5 1_555 1_555
C4 C6 1_555 1_555
C5 C7 1_555 1_555
C6 C8 1_555 1_555
C7 O1 1_555 1_555
C8 O2 1_555 1_555
C9 C7 1_555 1_555
C10 C8 1_555 1_555
O7 C9 1_555 1_555
O8 C10 1_555 1_555
C11 O7 1_555 1_555
C12 O8 1_555 1_555
C13 C7 1_555 1_555
C14 C8 1_555 1_555
H1 C14 1_555 1_555
H2 C14 1_555 1_555
H3 C10 1_555 1_555
H4 C10 1_555 1_555
H5 C9 1_555 1_555
H6 C9 1_555 1_555
H7 C13 1_555 1_555
H8 C13 1_555 1_555
H9 C2 1_555 1_555
H10 C4 1_555 1_555
H11 C1 1_555 1_555
H12 C3 1_555 1_555
C11 C13 1_555 1_555
C12 C14 1_555 1_555

#END
