
#######################################################################
#
#                 Cambridge Crystallographic Data Centre
#                                CCDC 
#
#######################################################################
#
# If this CIF has been generated from an entry in the Cambridge 
# Structural Database, then it will include bibliographic, chemical, 
# crystal, experimental, refinement or atomic coordinate data resulting 
# from the CCDC's data processing and validation procedures.
#
#######################################################################

data_QAFBOQ
_chemical_name_common            
"2,8,14,20-Tetra-n-hexyl-4,24;12,16-O,O'-bis(quinoxaline-2,3-diyl)-6,10-O,O'-(6-(4-iodo-2,6-dimethylphenyl)-5,7-dioxo-5,6,7,7a-tetrahydro-4aH-pyrrolo[3,4-b]pyrazine-2,3-diyl)-22-(3-chloro-6-(4-iodo-2,6-dimethylphenyl)-5,7-dioxo-5,6,7,7a-tetrahydro-4aH-pyrrolo[3,4-b]pyrazin-2-yl)-calix(4)resorcinarene-18-ol cavitand dichloromethane solvate"
_chemical_formula_moiety         'C96 H89 Cl1 I2 N10 O12,4(C1 H2 Cl2)'
_chemical_name_systematic        
'2-((3-Chloro-6-(4-iodo-2,6-dimethylphenyl)-5,7-dioxo-6,7-dihydro-5H-pyrrolo[3,4-b]pyrazin-2-yl)oxy)-52,56,60,63-tetrahexyl-48-hydroxy-25-(4-iodo-2,6-dimethylphenyl)-5,16,20,30,34,45-hexaoxa-7,14,22,25,28,36,43-heptaazatetradecacyclo[47.13.1.0^4,61^.0^6,15^.0^8,13^.0^17,59^.0^19,57^.0^21,29^.0^23,27^.0^31,55^.0^33,53^.0^35,44^.0^37,42^.0^46,51^]trihexaconta-1,3,6,8,10,12,14,17(59),18,21(29),22,27,31(55),32,35,37,39,41,43,46,48,50,53,57,61-pentacosaene-24,26-dione dichloromethane solvate'
_symmetry_cell_setting           monoclinic
_symmetry_space_group_name_H-M   'P 21/c'
_symmetry_Int_Tables_number      14
_space_group_name_Hall           '-P 2ybc'
loop_
_symmetry_equiv_pos_site_id
_symmetry_equiv_pos_as_xyz
1 x,y,z
2 -x,1/2+y,1/2-z
3 -x,-y,-z
4 x,1/2-y,1/2+z
_cell_length_a                   18.2270(3)
_cell_length_b                   23.1041(5)
_cell_length_c                   24.2627(5)
_cell_angle_alpha                90
_cell_angle_beta                 104.9292(10)
_cell_angle_gamma                90
_cell_volume                     9872.58
_exptl_crystal_colour            'yellow green'
_exptl_crystal_description       plate
_cell_formula_units_Z            4
loop_
_atom_site_label
_atom_site_type_symbol
_atom_site_fract_x
_atom_site_fract_y
_atom_site_fract_z
I1 I 0.33881(9) 0.47479(7) 0.05505(5)
I2 I 0.38232(9) 0.31118(8) 0.17463(6)
O1 O -0.0537(6) -0.0047(5) -0.1419(4)
O2 O -0.1403(6) 0.0426(4) 0.0225(4)
O3 O -0.0606(6) 0.0582(5) -0.2367(5)
O4 O -0.1556(6) 0.2471(5) -0.3038(4)
O5 O 0.1187(7) 0.2924(6) -0.1651(6)
O6 O -0.0211(8) 0.4432(7) -0.1189(6)
O7 O -0.2375(7) 0.3321(5) -0.2699(5)
O8 O -0.3500(7) 0.3578(6) -0.1133(5)
O9 O -0.3540(6) 0.2995(5) -0.0162(5)
O10 O -0.2487(6) 0.1176(5) 0.0682(4)
O11 O -0.0096(7) 0.2453(6) 0.0587(5)
O12 O 0.0948(6) 0.1342(5) 0.2157(5)
Cl1 Cl -0.2008(3) 0.0402(2) 0.16156(16)
N1 N 0.0569(7) 0.0396(6) -0.0966(5)
N2 N 0.0464(8) 0.1092(7) -0.1933(6)
N3 N -0.0465(7) 0.2787(6) -0.2405(5)
N4 N 0.0661(8) 0.3708(7) -0.1276(6)
N5 N -0.1299(8) 0.3699(6) -0.2083(6)
N6 N -0.2267(8) 0.3926(6) -0.0661(6)
C1 C -0.1058(13) 0.4366(11) -0.0141(10)
C2 C -0.1248(11) 0.3831(9) 0.0840(8)
N7 N -0.2425(8) 0.3379(7) 0.0333(6)
N8 N -0.1345(8) 0.1657(6) 0.0759(5)
N9 N 0.0622(8) 0.1950(6) 0.1400(5)
N10 N -0.0758(7) 0.0967(6) 0.1707(5)
C3 C -0.2398(8) 0.0421(6) -0.1278(5)
C4 C -0.2299(9) 0.0469(7) -0.0688(6)
C5 C -0.1538(9) 0.0364(7) -0.0348(6)
C6 C -0.0979(8) 0.0208(6) -0.0599(5)
C7 C -0.1110(9) 0.0156(7) -0.1184(6)
C8 C -0.1828(9) 0.0267(7) -0.1537(6)
C9 C 0.0053(9) 0.0338(7) -0.1400(6)
C10 C 0.1103(9) 0.0830(8) -0.0970(7)
C11 C 0.1688(9) 0.0937(8) -0.0487(7)
C12 C 0.2214(12) 0.1351(10) -0.0473(9)
C13 C 0.2155(12) 0.1708(10) -0.0967(8)
C14 C 0.1550(11) 0.1618(9) -0.1439(8)
C15 C 0.1029(10) 0.1191(8) -0.1460(7)
C16 C -0.0044(8) 0.0705(6) -0.1905(6)
C17 C -0.2028(9) 0.0225(7) -0.2190(6)
C18 C -0.1910(8) 0.0812(6) -0.2443(6)
C19 C -0.1221(8) 0.0994(6) -0.2484(6)
C20 C -0.1076(8) 0.1548(7) -0.2675(6)
C21 C -0.1690(8) 0.1922(7) -0.2820(6)
C22 C -0.2450(8) 0.1775(7) -0.2821(6)
C23 C -0.2546(8) 0.1225(6) -0.2604(6)
C24 C -0.1177(10) 0.2852(8) -0.2606(7)
C25 C -0.0158(10) 0.3205(8) -0.2023(7)
C26 C 0.0652(10) 0.3229(8) -0.1653(7)
C27 C 0.1313(10) 0.3914(8) -0.0877(7)
C28 C 0.1660(10) 0.4425(8) -0.1021(7)
C29 C 0.1378(12) 0.4679(10) -0.1588(9)
C30 C 0.2281(9) 0.4649(7) -0.0612(7)
C31 C 0.2497(11) 0.4347(9) -0.0060(8)
C32 C 0.2118(11) 0.3883(9) 0.0024(8)
C33 C 0.1551(11) 0.3632(9) -0.0342(8)
C34 C 0.1124(12) 0.3092(9) -0.0202(9)
C35 C -0.0071(10) 0.3972(8) -0.1426(7)
C36 C -0.1637(9) 0.3295(7) -0.2468(6)
C37 C -0.2845(10) 0.3104(8) -0.2357(7)
C38 C -0.2909(8) 0.3463(7) -0.1914(6)
C39 C -0.3363(9) 0.3236(7) -0.1570(6)
C40 C -0.3712(9) 0.2698(7) -0.1657(6)
C41 C -0.3622(8) 0.2375(7) -0.2126(6)
C42 C -0.3154(9) 0.2569(7) -0.2477(6)
C43 C -0.2835(9) 0.3638(8) -0.0649(7)
C44 C -0.1747(9) 0.4008(8) -0.0178(7)
C45 C -0.0556(12) 0.4420(10) 0.0368(9)
C46 C -0.0621(13) 0.4160(10) 0.0824(9)
C47 C -0.1761(10) 0.3733(8) 0.0355(8)
C48 C -0.2935(9) 0.3322(7) -0.0134(6)
C49 C -0.4183(9) 0.2480(7) -0.1251(6)
C50 C -0.3676(9) 0.2141(7) -0.0769(6)
C51 C -0.3347(9) 0.2403(7) -0.0216(6)
C52 C -0.2972(9) 0.2101(8) 0.0245(7)
C53 C -0.2822(9) 0.1511(7) 0.0195(6)
C54 C -0.3075(9) 0.1236(7) -0.0340(6)
C55 C -0.0624(11) 0.3618(9) -0.1879(8)
C56 C -0.3451(9) 0.1557(7) -0.0792(6)
C57 C -0.1775(9) 0.1306(7) 0.0918(6)
C58 C -0.0662(9) 0.1723(7) 0.1040(7)
C59 C -0.0009(10) 0.2106(8) 0.0964(7)
C60 C 0.1333(8) 0.2249(6) 0.1447(6)
C61 C 0.1898(9) 0.1952(7) 0.1249(6)
C62 C 0.1700(10) 0.1368(8) 0.0941(7)
C63 C 0.2567(9) 0.2194(7) 0.1322(7)
C64 C 0.2746(10) 0.2722(8) 0.1609(8)
C65 C 0.2196(10) 0.2999(9) 0.1805(8)
C66 C 0.1455(9) 0.2763(7) 0.1731(7)
C67 C 0.0867(11) 0.3100(9) 0.1943(8)
C68 C 0.0488(9) 0.1517(7) 0.1750(6)
C69 C -0.0334(8) 0.1353(7) 0.1515(6)
C70 C -0.1449(10) 0.0905(8) 0.1431(7)
C71 C -0.2796(9) -0.0027(7) -0.2491(7)
C72 C -0.2847(9) -0.0694(7) -0.2355(7)
C73 C -0.4886(11) 0.2124(9) -0.1565(8)
C74 C -0.5389(12) 0.1981(10) -0.1134(9)
C75 C -0.6054(16) 0.1598(13) -0.1359(13)
C76 C -0.3638(12) -0.0946(10) -0.2685(9)
C77 C -0.3666(13) -0.1541(10) -0.2678(9)
C78 C -0.3055(14) -0.1772(12) -0.3503(10)
C79 C -0.3096(8) 0.2183(7) -0.2990(6)
C80 C -0.3835(9) 0.1917(7) -0.3304(6)
C81 C -0.3810(9) 0.1671(8) -0.3882(7)
C82 C -0.4609(11) 0.1547(9) -0.4267(8)
C83 C -0.5084(9) 0.2072(8) -0.4465(7)
C84 C -0.5829(14) 0.1926(12) -0.4834(11)
C85 C -0.6428(13) 0.2415(12) -0.4980(10)
C86 C -0.2945(8) 0.0583(6) -0.0409(5)
C87 C -0.3693(9) 0.0300(7) -0.0702(7)
C88 C -0.3586(12) -0.0350(10) -0.0756(9)
C89 C -0.4441(17) -0.0615(15) -0.1034(14)
C90 C -0.4454(15) -0.1291(13) -0.1175(12)
C91 C -0.5205(15) -0.1454(14) -0.1515(12)
C92 C -0.5849(16) -0.1417(14) -0.1201(13)
C96 C -0.3040(15) -0.1881(13) -0.2857(11)
C98 C -0.6339(18) 0.0507(16) -0.1350(14)
C99 C -0.586(2) 0.1014(17) -0.1479(16)
C100 C -0.601(3) 0.044(3) -0.069(2)
H1 H -0.1098 0.0144 0.0488
H2 H -0.2884 0.0498 -0.1536
H3 H -0.0475 0.0131 -0.0369
H4 H 0.1726 0.0714 -0.0148
H5 H 0.2621 0.1406 -0.0137
H6 H 0.2533 0.1998 -0.0965
H7 H 0.1485 0.1868 -0.1765
H8 H -0.1673 -0.0049 -0.2270
H9 H -0.0575 0.1651 -0.2699
H10 H -0.3037 0.1121 -0.2558
H11 H 0.1669 0.5020 -0.1613
H12 H 0.0853 0.4781 -0.1648
H13 H 0.1430 0.4406 -0.1875
H14 H 0.2540 0.4983 -0.0704
H15 H 0.2257 0.3694 0.0388
H16 H 0.1366 0.2962 0.0177
H17 H 0.1141 0.2790 -0.0470
H18 H 0.0605 0.3189 -0.0225
H19 H -0.2661 0.3842 -0.1844
H20 H -0.3882 0.2012 -0.2220
H21 H -0.0107 0.4648 0.0394
H22 H -0.0216 0.4208 0.1163
H23 H -0.4376 0.2813 -0.1098
H24 H -0.2811 0.2287 0.0610
H25 H -0.3568 0.1356 -0.1150
H26 H 0.2140 0.1225 0.0836
H27 H 0.1293 0.1421 0.0604
H28 H 0.1549 0.1094 0.1189
H29 H 0.2950 0.2008 0.1178
H30 H 0.2305 0.3360 0.2005
H31 H 0.1092 0.3447 0.2129
H32 H 0.0687 0.2866 0.2209
H33 H 0.0450 0.3197 0.1626
H34 H -0.3182 0.0173 -0.2362
H35 H -0.2885 0.0022 -0.2896
H36 H -0.2453 -0.0896 -0.2474
H37 H -0.2777 -0.0746 -0.1952
H38 H -0.5180 0.2338 -0.1885
H39 H -0.4713 0.1770 -0.1696
H40 H -0.5081 0.1783 -0.0808
H41 H -0.5570 0.2338 -0.1015
H42 H -0.6348 0.1570 -0.1083
H43 H -0.6359 0.1767 -0.1704
H44 H -0.4021 -0.0803 -0.2513
H45 H -0.3752 -0.0824 -0.3077
H46 H -0.4205 -0.1673 -0.2953
H47 H -0.3662 -0.1674 -0.2250
H48 H -0.2657 -0.1990 -0.3599
H49 H -0.2978 -0.1367 -0.3556
H50 H -0.3537 -0.1888 -0.3745
H51 H -0.2964 0.2419 -0.3275
H52 H -0.3965 0.1609 -0.3081
H53 H -0.4222 0.2209 -0.3368
H54 H -0.3564 0.1942 -0.4077
H55 H -0.3532 0.1314 -0.3827
H56 H -0.4570 0.1343 -0.4603
H57 H -0.4887 0.1316 -0.4061
H58 H -0.5158 0.2279 -0.4141
H59 H -0.4823 0.2315 -0.4673
H60 H -0.5925 0.1538 -0.4975
H61 H -0.6889 0.2265 -0.5224
H62 H -0.6241 0.2724 -0.5171
H63 H -0.6527 0.2560 -0.4635
H64 H -0.2785 0.0406 -0.0039
H65 H -0.4057 0.0368 -0.0485
H66 H -0.3875 0.0463 -0.1076
H67 H -0.3249 -0.0419 -0.0994
H68 H -0.3370 -0.0508 -0.0384
H69 H -0.4752 -0.0551 -0.0775
H70 H -0.4655 -0.0414 -0.1385
H71 H -0.4081 -0.1365 -0.1382
H72 H -0.4323 -0.1500 -0.0821
H73 H -0.5352 -0.1222 -0.1853
H74 H -0.5183 -0.1853 -0.1618
H75 H -0.6325 -0.1544 -0.1442
H76 H -0.5889 -0.1019 -0.1097
H77 H -0.5720 -0.1651 -0.0862
H84 H -0.2555 -0.1766 -0.2620
H85 H -0.3113 -0.2287 -0.2810
H88 H -0.6862 0.0624 -0.1449
H89 H -0.6283 0.0168 -0.1565
H90 H -0.5278 0.0940 -0.1242
H91 H -0.5872 0.0993 -0.1926
H92 H -0.6271 0.0134 -0.0546
H93 H -0.6060 0.0793 -0.0503
H94 H -0.5481 0.0337 -0.0619
Cl2 Cl -0.4915(4) 0.4064(3) -0.0884(2)
Cl3 Cl -0.5803(4) 0.5112(3) -0.0873(3)
C93 C -0.5649(16) 0.4393(13) -0.0616(12)
H78 H -0.6168 0.4147 -0.0754
H79 H -0.5483 0.4395 -0.0155
Cl4 Cl -0.0247(6) 0.1785(4) -0.0786(6)
Cl5 Cl -0.1545(9) 0.2562(8) -0.1079(6)
C94 C -0.1098(14) 0.2002(12) -0.0646(11)
H80 H -0.1478 0.1635 -0.0702
H81 H -0.0986 0.2137 -0.0206
Cl6 Cl -0.2565(5) 0.5325(4) -0.2268(3)
Cl9 Cl -0.1482(4) 0.5607(2) -0.1198(2)
C97 C -0.1909(19) 0.5074(15) -0.1646(14)
H86 H -0.2201 0.4789 -0.1420
H87 H -0.1478 0.4823 -0.1769
Cl7 Cl -0.5313(4) 0.5663(3) -0.2552(3)
Cl8 Cl -0.4361(6) 0.4631(4) -0.2232(5)
C95 C -0.463(2) 0.5289(17) -0.1997(16)
H82 H -0.4139 0.5559 -0.1847
H83 H -0.4879 0.5212 -0.1643
loop_
_geom_bond_atom_site_label_1
_geom_bond_atom_site_label_2
_geom_bond_site_symmetry_1
_geom_bond_site_symmetry_2
I1 C31 1_555 1_555
I2 C64 1_555 1_555
O1 C7 1_555 1_555
O2 C5 1_555 1_555
O3 C16 1_555 1_555
O4 C21 1_555 1_555
O5 C26 1_555 1_555
O6 C35 1_555 1_555
O7 C36 1_555 1_555
O8 C39 1_555 1_555
O9 C48 1_555 1_555
O10 C53 1_555 1_555
O11 C59 1_555 1_555
O12 C68 1_555 1_555
Cl1 C70 1_555 1_555
Cl2 C93 1_555 1_555
Cl3 C93 1_555 1_555
Cl4 C94 1_555 1_555
Cl5 C94 1_555 1_555
Cl6 C97 1_555 1_555
Cl7 C95 1_555 1_555
Cl8 C95 1_555 1_555
N1 C9 1_555 1_555
N2 C15 1_555 1_555
N3 C24 1_555 1_555
N4 C26 1_555 1_555
N5 C36 1_555 1_555
N6 C43 1_555 1_555
C1 C44 1_555 1_555
C2 C46 1_555 1_555
N7 C47 1_555 1_555
N8 C57 1_555 1_555
N9 C59 1_555 1_555
N10 C69 1_555 1_555
C3 C4 1_555 1_555
C4 C5 1_555 1_555
C5 C6 1_555 1_555
C6 C7 1_555 1_555
C7 C8 1_555 1_555
C8 C3 1_555 1_555
C9 O1 1_555 1_555
C10 N1 1_555 1_555
C11 C10 1_555 1_555
C12 C11 1_555 1_555
C13 C12 1_555 1_555
C14 C13 1_555 1_555
C15 C10 1_555 1_555
C16 N2 1_555 1_555
C17 C8 1_555 1_555
C18 C17 1_555 1_555
C19 O3 1_555 1_555
C20 C19 1_555 1_555
C21 C20 1_555 1_555
C22 C21 1_555 1_555
C23 C18 1_555 1_555
C24 O4 1_555 1_555
C25 N3 1_555 1_555
C26 C25 1_555 1_555
C27 N4 1_555 1_555
C28 C27 1_555 1_555
C29 C28 1_555 1_555
C30 C28 1_555 1_555
C31 C30 1_555 1_555
C32 C31 1_555 1_555
C33 C27 1_555 1_555
C34 C33 1_555 1_555
C35 N4 1_555 1_555
C36 C24 1_555 1_555
C37 O7 1_555 1_555
C38 C37 1_555 1_555
C39 C38 1_555 1_555
C40 C39 1_555 1_555
C41 C40 1_555 1_555
C42 C37 1_555 1_555
C43 O8 1_555 1_555
C44 N6 1_555 1_555
C45 C1 1_555 1_555
C46 C45 1_555 1_555
C47 C2 1_555 1_555
C48 N7 1_555 1_555
C49 C40 1_555 1_555
C50 C49 1_555 1_555
C51 O9 1_555 1_555
C52 C51 1_555 1_555
C53 C52 1_555 1_555
C54 C53 1_555 1_555
C55 N5 1_555 1_555
C56 C50 1_555 1_555
C57 O10 1_555 1_555
C58 N8 1_555 1_555
C59 C58 1_555 1_555
C60 N9 1_555 1_555
C61 C60 1_555 1_555
C62 C61 1_555 1_555
C63 C61 1_555 1_555
C64 C63 1_555 1_555
C65 C64 1_555 1_555
C66 C60 1_555 1_555
C67 C66 1_555 1_555
C68 N9 1_555 1_555
C69 C58 1_555 1_555
C70 N10 1_555 1_555
C71 C17 1_555 1_555
C72 C71 1_555 1_555
C73 C49 1_555 1_555
C74 C73 1_555 1_555
C75 C74 1_555 1_555
C76 C72 1_555 1_555
C77 C76 1_555 1_555
C78 C96 1_555 1_555
C79 C22 1_555 1_555
C80 C79 1_555 1_555
C81 C80 1_555 1_555
C82 C81 1_555 1_555
C83 C82 1_555 1_555
C84 C83 1_555 1_555
C85 C84 1_555 1_555
C86 C4 1_555 1_555
C87 C86 1_555 1_555
C88 C87 1_555 1_555
C89 C88 1_555 1_555
C90 C89 1_555 1_555
C91 C90 1_555 1_555
C92 C91 1_555 1_555
C93 H78 1_555 1_555
C94 H80 1_555 1_555
C95 H82 1_555 1_555
Cl9 C97 1_555 1_555
C96 C77 1_555 1_555
C97 H86 1_555 1_555
C98 C99 1_555 1_555
C99 C75 1_555 1_555
C100 C98 1_555 1_555
H1 O2 1_555 1_555
H2 C3 1_555 1_555
H3 C6 1_555 1_555
H4 C11 1_555 1_555
H5 C12 1_555 1_555
H6 C13 1_555 1_555
H7 C14 1_555 1_555
H8 C17 1_555 1_555
H9 C20 1_555 1_555
H10 C23 1_555 1_555
H11 C29 1_555 1_555
H12 C29 1_555 1_555
H13 C29 1_555 1_555
H14 C30 1_555 1_555
H15 C32 1_555 1_555
H16 C34 1_555 1_555
H17 C34 1_555 1_555
H18 C34 1_555 1_555
H19 C38 1_555 1_555
H20 C41 1_555 1_555
H21 C45 1_555 1_555
H22 C46 1_555 1_555
H23 C49 1_555 1_555
H24 C52 1_555 1_555
H25 C56 1_555 1_555
H26 C62 1_555 1_555
H27 C62 1_555 1_555
H28 C62 1_555 1_555
H29 C63 1_555 1_555
H30 C65 1_555 1_555
H31 C67 1_555 1_555
H32 C67 1_555 1_555
H33 C67 1_555 1_555
H34 C71 1_555 1_555
H35 C71 1_555 1_555
H36 C72 1_555 1_555
H37 C72 1_555 1_555
H38 C73 1_555 1_555
H39 C73 1_555 1_555
H40 C74 1_555 1_555
H41 C74 1_555 1_555
H42 C75 1_555 1_555
H43 C75 1_555 1_555
H44 C76 1_555 1_555
H45 C76 1_555 1_555
H46 C77 1_555 1_555
H47 C77 1_555 1_555
H48 C78 1_555 1_555
H49 C78 1_555 1_555
H50 C78 1_555 1_555
H51 C79 1_555 1_555
H52 C80 1_555 1_555
H53 C80 1_555 1_555
H54 C81 1_555 1_555
H55 C81 1_555 1_555
H56 C82 1_555 1_555
H57 C82 1_555 1_555
H58 C83 1_555 1_555
H59 C83 1_555 1_555
H60 C84 1_555 1_555
H61 C85 1_555 1_555
H62 C85 1_555 1_555
H63 C85 1_555 1_555
H64 C86 1_555 1_555
H65 C87 1_555 1_555
H66 C87 1_555 1_555
H67 C88 1_555 1_555
H68 C88 1_555 1_555
H69 C89 1_555 1_555
H70 C89 1_555 1_555
H71 C90 1_555 1_555
H72 C90 1_555 1_555
H73 C91 1_555 1_555
H74 C91 1_555 1_555
H75 C92 1_555 1_555
H76 C92 1_555 1_555
H77 C92 1_555 1_555
H79 C93 1_555 1_555
H81 C94 1_555 1_555
H83 C95 1_555 1_555
H84 C96 1_555 1_555
H85 C96 1_555 1_555
H87 C97 1_555 1_555
H88 C98 1_555 1_555
H89 C98 1_555 1_555
H90 C99 1_555 1_555
H91 C99 1_555 1_555
H92 C100 1_555 1_555
H93 C100 1_555 1_555
H94 C100 1_555 1_555
C9 C16 1_555 1_555
C14 C15 1_555 1_555
C18 C19 1_555 1_555
C22 C23 1_555 1_555
C25 C55 1_555 1_555
C32 C33 1_555 1_555
C35 C55 1_555 1_555
C41 C42 1_555 1_555
C42 C79 1_555 1_555
C43 C48 1_555 1_555
C44 C47 1_555 1_555
C50 C51 1_555 1_555
C54 C56 1_555 1_555
C54 C86 1_555 1_555
C57 C70 1_555 1_555
C65 C66 1_555 1_555
C68 C69 1_555 1_555

#END
