
#######################################################################
#
#                 Cambridge Crystallographic Data Centre
#                                CCDC 
#
#######################################################################
#
# If this CIF has been generated from an entry in the Cambridge 
# Structural Database, then it will include bibliographic, chemical, 
# crystal, experimental, refinement or atomic coordinate data resulting 
# from the CCDC's data processing and validation procedures.
#
#######################################################################

data_QAFGUC
_chemical_compound_source        'Marsdenia tenacissima'
_chemical_formula_moiety         'C28 H30 Br2 O10'
_chemical_name_systematic        
'4-methoxy-2-((4-methoxy-2-methyl-6-oxotetrahydro-2H-pyran-3-yl)oxy)-6-methyltetrahydro-2H-pyran-3,5-diyl bis(4-bromobenzoate)'
_chemical_properties_biological  'chemoresistance reversal activity'
_symmetry_cell_setting           orthorhombic
_symmetry_space_group_name_H-M   'P 21 21 21'
_symmetry_Int_Tables_number      19
_space_group_name_Hall           'P 2ac 2ab'
loop_
_symmetry_equiv_pos_site_id
_symmetry_equiv_pos_as_xyz
1 x,y,z
2 1/2+x,1/2-y,-z
3 -x,1/2+y,1/2-z
4 1/2-x,-y,1/2+z
_cell_length_a                   7.6121(5)
_cell_length_b                   17.2576(10)
_cell_length_c                   21.9680(13)
_cell_angle_alpha                90
_cell_angle_beta                 90
_cell_angle_gamma                90
_cell_volume                     2885.86
_exptl_crystal_colour            colorless
_exptl_crystal_description       block
_cell_formula_units_Z            4
loop_
_atom_site_label
_atom_site_type_symbol
_atom_site_fract_x
_atom_site_fract_y
_atom_site_fract_z
Br1 Br 0.19133(5) 0.374997(19) 0.127584(16)
Br2 Br 0.17490(5) 0.01233(2) 0.840460(16)
O1 O 0.5695(3) 0.19056(11) 0.36601(10)
O2 O 0.8691(3) 0.05932(11) 0.44324(10)
O3 O 0.9040(3) 0.02136(11) 0.54131(10)
O4 O 1.0674(3) -0.16465(12) 0.49454(11)
O5 O 0.4301(3) 0.09663(11) 0.46089(10)
O6 O 0.5893(3) 0.09044(11) 0.57451(10)
O7 O 0.5562(3) 0.21497(12) 0.60432(10)
O8 O 1.1665(3) -0.11616(11) 0.62011(10)
O9 O 1.4394(3) -0.14282(13) 0.59489(12)
O10 O 0.5695(3) 0.31056(12) 0.40662(11)
C1 C 0.2851(4) 0.34110(18) 0.20256(14)
C2 C 0.3246(4) 0.39452(16) 0.24766(14)
H1 H 0.3015 0.4469 0.2420
C3 C 0.3989(4) 0.36840(17) 0.30118(15)
H2 H 0.4253 0.4036 0.3319
C4 C 0.4349(4) 0.29022(17) 0.30985(15)
C5 C 0.5294(4) 0.26701(16) 0.36600(15)
C6 C 0.6777(4) 0.16310(15) 0.41593(13)
H3 H 0.7706 0.2009 0.4245
C7 C 0.7591(4) 0.08713(17) 0.39459(14)
H4 H 0.6662 0.0493 0.3862
C8 C 0.7780(4) 0.04149(17) 0.49791(14)
H5 H 0.6933 -0.0005 0.4917
C9 C 0.9520(4) -0.05906(17) 0.54663(15)
H6 H 0.8476 -0.0918 0.5425
C10 C 1.0916(4) -0.08374(18) 0.50073(16)
H7 H 1.0722 -0.0578 0.4616
C11 C 1.1891(5) -0.20137(18) 0.45358(17)
H8 H 1.2015 -0.1704 0.4176
H9 H 1.1457 -0.2517 0.4427
H10 H 1.3012 -0.2065 0.4732
C12 C 0.5673(4) 0.14990(16) 0.47328(14)
H11 H 0.5188 0.1991 0.4878
C13 C 0.2608(4) 0.1318(2) 0.45734(16)
H12 H 0.2380 0.1601 0.4941
H13 H 0.1730 0.0924 0.4522
H14 H 0.2574 0.1667 0.4233
C14 C 0.6879(4) 0.11456(15) 0.52146(13)
H15 H 0.7769 0.1526 0.5335
C15 C 0.5345(4) 0.14646(17) 0.61317(14)
C16 C 0.4458(4) 0.11306(17) 0.66763(14)
C17 C 0.3836(4) 0.16280(19) 0.71249(15)
H16 H 0.3959 0.2161 0.7076
C18 C 0.3031(5) 0.13375(19) 0.76462(15)
H17 H 0.2623 0.1668 0.7949
C19 C 0.2856(4) 0.05433(19) 0.77012(15)
C20 C 0.3457(4) 0.00349(18) 0.72621(15)
H18 H 0.3314 -0.0497 0.7310
C21 C 0.4277(4) 0.03320(17) 0.67485(15)
H19 H 0.4706 -0.0002 0.6452
C22 C 0.8750(4) 0.09622(19) 0.33910(16)
H20 H 0.9662 0.1331 0.3476
H21 H 0.8057 0.1142 0.3054
H22 H 0.9267 0.0471 0.3290
C23 C 1.2730(4) -0.06424(18) 0.52528(16)
H23 H 1.3616 -0.0767 0.4951
H24 H 1.2803 -0.0093 0.5342
C24 C 1.3050(5) -0.11002(16) 0.58200(15)
C25 C 1.0214(4) -0.06239(19) 0.61240(15)
H25 H 1.0637 -0.0105 0.6232
C26 C 0.8841(5) -0.0848(2) 0.65778(19)
H26 H 0.8482 -0.1374 0.6506
H27 H 0.7846 -0.0511 0.6538
H28 H 0.9314 -0.0805 0.6981
C27 C 0.3887(5) 0.23787(19) 0.26466(17)
H29 H 0.4089 0.1853 0.2706
C28 C 0.3129(5) 0.26299(18) 0.21083(16)
H30 H 0.2814 0.2277 0.1808
loop_
_geom_bond_atom_site_label_1
_geom_bond_atom_site_label_2
_geom_bond_site_symmetry_1
_geom_bond_site_symmetry_2
Br1 C1 1_555 1_555
Br2 C19 1_555 1_555
O1 C5 1_555 1_555
O2 C7 1_555 1_555
O3 C8 1_555 1_555
O4 C10 1_555 1_555
O5 C12 1_555 1_555
O6 C14 1_555 1_555
O7 C15 1_555 1_555
O8 C24 1_555 1_555
O9 C24 1_555 1_555
O10 C5 1_555 1_555
C1 C2 1_555 1_555
C2 H1 1_555 1_555
C3 C2 1_555 1_555
H2 C3 1_555 1_555
C4 C3 1_555 1_555
C5 C4 1_555 1_555
C6 O1 1_555 1_555
H3 C6 1_555 1_555
C7 C6 1_555 1_555
H4 C7 1_555 1_555
C8 O2 1_555 1_555
H5 C8 1_555 1_555
C9 O3 1_555 1_555
H6 C9 1_555 1_555
C10 C9 1_555 1_555
H7 C10 1_555 1_555
C11 O4 1_555 1_555
H8 C11 1_555 1_555
H9 C11 1_555 1_555
H10 C11 1_555 1_555
C12 C6 1_555 1_555
H11 C12 1_555 1_555
C13 O5 1_555 1_555
H12 C13 1_555 1_555
H13 C13 1_555 1_555
H14 C13 1_555 1_555
C14 C8 1_555 1_555
H15 C14 1_555 1_555
C15 O6 1_555 1_555
C16 C15 1_555 1_555
C17 C16 1_555 1_555
H16 C17 1_555 1_555
C18 C17 1_555 1_555
H17 C18 1_555 1_555
C19 C18 1_555 1_555
C20 C19 1_555 1_555
H18 C20 1_555 1_555
C21 C16 1_555 1_555
H19 C21 1_555 1_555
C22 C7 1_555 1_555
H20 C22 1_555 1_555
H21 C22 1_555 1_555
H22 C22 1_555 1_555
C23 C10 1_555 1_555
H23 C23 1_555 1_555
H24 C23 1_555 1_555
C24 C23 1_555 1_555
C25 O8 1_555 1_555
H25 C25 1_555 1_555
C26 C25 1_555 1_555
H26 C26 1_555 1_555
H27 C26 1_555 1_555
H28 C26 1_555 1_555
C27 C4 1_555 1_555
H29 C27 1_555 1_555
C28 C1 1_555 1_555
H30 C28 1_555 1_555
C9 C25 1_555 1_555
C12 C14 1_555 1_555
C20 C21 1_555 1_555
C27 C28 1_555 1_555

#END
