
#######################################################################
#
#                 Cambridge Crystallographic Data Centre
#                                CCDC 
#
#######################################################################
#
# If this CIF has been generated from an entry in the Cambridge 
# Structural Database, then it will include bibliographic, chemical, 
# crystal, experimental, refinement or atomic coordinate data resulting 
# from the CCDC's data processing and validation procedures.
#
#######################################################################

data_QAFLIV
_chemical_formula_moiety         'C8 H13 N1 O5 S1,0.5(H2 O1)'
_chemical_name_systematic        
'6,7,8,9-Tetrahydroxyhexahydro[1,3]thiazolo[3,2-a]azepin-3(2H)-one hemihydrate'
_chemical_properties_biological  
'reverse transcriptase (RT) inhibitory activity'
_symmetry_cell_setting           monoclinic
_symmetry_space_group_name_H-M   'C 2'
_symmetry_Int_Tables_number      5
_space_group_name_Hall           'C 2y'
loop_
_symmetry_equiv_pos_site_id
_symmetry_equiv_pos_as_xyz
1 x,y,z
2 -x,y,-z
3 1/2+x,1/2+y,z
4 1/2-x,1/2+y,-z
_cell_length_a                   12.8666(5)
_cell_length_b                   5.6830(2)
_cell_length_c                   13.9377(6)
_cell_angle_alpha                90
_cell_angle_beta                 91.6990(10)
_cell_angle_gamma                90
_cell_volume                     1018.69
_exptl_crystal_colour            colorless
_exptl_crystal_description       Block
_cell_formula_units_Z            4
loop_
_atom_site_label
_atom_site_type_symbol
_atom_site_fract_x
_atom_site_fract_y
_atom_site_fract_z
S1 S 0.26286(3) 0.27504(10) 0.59528(3)
N1 N 0.11660(9) 0.0290(3) 0.67551(9)
O1 O 0.31781(9) -0.2325(2) 0.78553(8)
H1 H 0.3616 -0.2793 0.7484
O2 O 0.19939(9) 0.3389(2) 0.83054(9)
H2 H 0.2470 0.4349 0.8311
O3 O 0.13725(8) 0.0526(2) 0.99052(7)
H3 H 0.1103 0.1832 0.9871
O4 O -0.02260(8) -0.1857(2) 0.88207(8)
H4 H -0.0546 -0.1098 0.9216
O5 O -0.02930(9) 0.2467(3) 0.64593(9)
C1 C 0.22845(11) 0.0172(3) 0.66650(10)
H5 H 0.2445 -0.1239 0.6293
C2 C 0.29118(10) 0.0050(3) 0.76302(11)
H6 H 0.3564 0.0903 0.7542
C3 C 0.24001(10) 0.1116(3) 0.85118(11)
H7 H 0.2949 0.1313 0.9008
C4 C 0.15379(10) -0.0347(3) 0.89569(10)
H8 H 0.1785 -0.1974 0.9014
C5 C 0.05138(10) -0.0369(3) 0.83786(10)
H9 H 0.0237 0.1235 0.8333
C6 C 0.06374(11) -0.1365(3) 0.73728(10)
H10 H 0.1032 -0.2817 0.7413
H11 H -0.0043 -0.1726 0.7093
C7 C 0.06429(12) 0.2096(3) 0.63576(11)
C8 C 0.13006(13) 0.3616(3) 0.57376(12)
H12 H 0.1209 0.5262 0.5900
H13 H 0.1104 0.3399 0.5066
O6 O 0.0000 0.4268(3) 0.0000
H14 H 0.003(2) 0.519(5) 0.0467(17)
H14A H -0.003(2) 0.519(5) -0.0467(17)
loop_
_geom_bond_atom_site_label_1
_geom_bond_atom_site_label_2
_geom_bond_site_symmetry_1
_geom_bond_site_symmetry_2
S1 C1 1_555 1_555
N1 C1 1_555 1_555
O1 H1 1_555 1_555
O2 H2 1_555 1_555
O3 H3 1_555 1_555
O4 H4 1_555 1_555
O5 C7 1_555 1_555
C1 H5 1_555 1_555
C2 O1 1_555 1_555
H6 C2 1_555 1_555
C3 O2 1_555 1_555
H7 C3 1_555 1_555
C4 O3 1_555 1_555
H8 C4 1_555 1_555
C5 O4 1_555 1_555
H9 C5 1_555 1_555
C6 N1 1_555 1_555
H10 C6 1_555 1_555
H11 C6 1_555 1_555
C7 N1 1_555 1_555
C8 S1 1_555 1_555
H12 C8 1_555 1_555
H13 C8 1_555 1_555
O6 H14 1_555 1_555
H14A O6 1_555 1_555
C1 C2 1_555 1_555
C2 C3 1_555 1_555
C3 C4 1_555 1_555
C4 C5 1_555 1_555
C5 C6 1_555 1_555
C7 C8 1_555 1_555

#END
