
#######################################################################
#
#                 Cambridge Crystallographic Data Centre
#                                CCDC 
#
#######################################################################
#
# If this CIF has been generated from an entry in the Cambridge 
# Structural Database, then it will include bibliographic, chemical, 
# crystal, experimental, refinement or atomic coordinate data resulting 
# from the CCDC's data processing and validation procedures.
#
#######################################################################

data_QAFPUL
_chemical_formula_moiety         'C18 H19 N2 O2 1+,C10 H15 O4 S1 1-'
_chemical_name_systematic        
'((-)-3aS)-1,1-Diphenyltetrahydro-1H-oxazolo(3,4-a)pyrazin-3(5H)-one (R)-camphorsulfonate'
_symmetry_cell_setting           monoclinic
_symmetry_space_group_name_H-M   'P 21'
_symmetry_Int_Tables_number      4
_space_group_name_Hall           'P 2yb'
loop_
_symmetry_equiv_pos_site_id
_symmetry_equiv_pos_as_xyz
1 x,y,z
2 -x,1/2+y,-z
_cell_length_a                   11.5583(6)
_cell_length_b                   7.2211(4)
_cell_length_c                   16.4478(9)
_cell_angle_alpha                90
_cell_angle_beta                 103.333(2)
_cell_angle_gamma                90
_cell_volume                     1335.79
_exptl_crystal_colour            colorless
_exptl_crystal_description       needle
_cell_formula_units_Z            2
loop_
_atom_site_label
_atom_site_type_symbol
_atom_site_fract_x
_atom_site_fract_y
_atom_site_fract_z
N1 N 0.5170(3) 0.3628(5) 0.7086(2)
O1 O 0.3860(3) 0.5731(6) 0.7443(2)
C1 C 0.4791(4) 0.4896(7) 0.7571(3)
O2 O 0.5629(3) 0.5099(4) 0.83021(19)
C2 C 0.6607(4) 0.3784(6) 0.8324(3)
C3 C 0.6430(3) 0.3319(7) 0.7377(2)
H1 H 0.6638 0.1999 0.7295
C4 C 0.7104(3) 0.4624(7) 0.6922(2)
H2 H 0.6998 0.5918 0.7091
H3 H 0.7963 0.4330 0.7078
N2 N 0.6652(3) 0.4430(6) 0.59975(17)
H4 H 0.7043 0.5261 0.5732
H5 H 0.6822 0.3257 0.5839
C5 C 0.5347(4) 0.4754(8) 0.5722(3)
H6 H 0.5086 0.4520 0.5114
H7 H 0.5172 0.6064 0.5825
C6 C 0.4661(4) 0.3508(8) 0.6183(3)
H8 H 0.3815 0.3891 0.6059
H9 H 0.4699 0.2213 0.5993
C7 C 0.6375(4) 0.2156(7) 0.8855(3)
C8 C 0.5658(4) 0.0672(8) 0.8536(3)
H10 H 0.5374 0.0557 0.7948
C9 C 0.5346(4) -0.0646(10) 0.9054(3)
H11 H 0.4822 -0.1625 0.8827
C10 C 0.5807(5) -0.0528(10) 0.9917(3)
H12 H 0.5621 -0.1456 1.0276
C11 C 0.6520(5) 0.0910(9) 1.0242(3)
H13 H 0.6826 0.0994 1.0829
C12 C 0.6803(4) 0.2252(8) 0.9721(3)
H14 H 0.7298 0.3259 0.9955
C13 C 0.7779(4) 0.4754(8) 0.8657(2)
C14 C 0.8830(4) 0.3731(7) 0.8764(3)
H15 H 0.8797 0.2437 0.8657
C15 C 0.9922(4) 0.4605(11) 0.9028(3)
H16 H 1.0634 0.3906 0.9092
C16 C 0.9984(5) 0.6460(11) 0.9196(3)
H17 H 1.0734 0.7046 0.9386
C17 C 0.8953(5) 0.7470(9) 0.9088(3)
H18 H 0.8989 0.8762 0.9199
C18 C 0.7857(5) 0.6606(9) 0.8818(3)
H19 H 0.7150 0.7320 0.8745
S1 S 0.74280(9) 0.93664(18) 0.59945(6)
O3 O 0.9457(3) 1.3384(5) 0.6377(2)
C19 C 1.0173(4) 1.2122(8) 0.6424(3)
C20 C 1.1487(4) 1.2305(8) 0.6439(3)
H20 H 1.1897 1.3122 0.6899
H21 H 1.1611 1.2787 0.5902
C21 C 1.1909(4) 1.0303(7) 0.6585(3)
H22 H 1.2781 1.0166 0.6829
C22 C 1.1464(4) 0.9297(9) 0.5749(3)
H23 H 1.1812 0.8041 0.5762
H24 H 1.1653 1.0006 0.5281
C23 C 1.0109(4) 0.9211(9) 0.5679(2)
H25 H 0.9825 0.7913 0.5624
H26 H 0.9675 0.9922 0.5188
C24 C 0.9919(4) 1.0084(6) 0.6501(3)
C25 C 1.1107(4) 0.9510(9) 0.7135(3)
C26 C 1.1277(4) 1.0468(9) 0.7986(3)
H27 H 1.2068 1.0177 0.8328
H28 H 1.0670 1.0030 0.8269
H29 H 1.1201 1.1811 0.7905
C27 C 1.1228(5) 0.7430(9) 0.7278(4)
H30 H 1.2031 0.7146 0.7603
H31 H 1.1089 0.6792 0.6739
H32 H 1.0643 0.7013 0.7585
C28 C 0.8787(3) 0.9611(7) 0.6775(2)
H33 H 0.8661 1.0583 0.7170
H34 H 0.8927 0.8435 0.7092
O4 O 0.7269(3) 1.1015(4) 0.54699(19)
O5 O 0.7545(3) 0.7688(4) 0.55194(19)
O6 O 0.6515(2) 0.9174(5) 0.64677(17)
loop_
_geom_bond_atom_site_label_1
_geom_bond_atom_site_label_2
_geom_bond_site_symmetry_1
_geom_bond_site_symmetry_2
N1 C1 1_555 1_555
O1 C1 1_555 1_555
C1 O2 1_555 1_555
O2 C2 1_555 1_555
C2 C3 1_555 1_555
C3 N1 1_555 1_555
H1 C3 1_555 1_555
C4 C3 1_555 1_555
H2 C4 1_555 1_555
H3 C4 1_555 1_555
N2 C4 1_555 1_555
H4 N2 1_555 1_555
H5 N2 1_555 1_555
C5 N2 1_555 1_555
H6 C5 1_555 1_555
H7 C5 1_555 1_555
C6 N1 1_555 1_555
H8 C6 1_555 1_555
H9 C6 1_555 1_555
C7 C2 1_555 1_555
C8 C7 1_555 1_555
H10 C8 1_555 1_555
C9 C8 1_555 1_555
H11 C9 1_555 1_555
C10 C9 1_555 1_555
H12 C10 1_555 1_555
C11 C10 1_555 1_555
H13 C11 1_555 1_555
C12 C7 1_555 1_555
H14 C12 1_555 1_555
C13 C2 1_555 1_555
C14 C13 1_555 1_555
H15 C14 1_555 1_555
C15 C14 1_555 1_555
H16 C15 1_555 1_555
C16 C15 1_555 1_555
H17 C16 1_555 1_555
C17 C16 1_555 1_555
H18 C17 1_555 1_555
C18 C13 1_555 1_555
H19 C18 1_555 1_555
S1 C28 1_555 1_555
O3 C19 1_555 1_555
C19 C20 1_555 1_555
C20 H20 1_555 1_555
H21 C20 1_555 1_555
C21 C20 1_555 1_555
H22 C21 1_555 1_555
C22 C21 1_555 1_555
H23 C22 1_555 1_555
H24 C22 1_555 1_555
C23 C22 1_555 1_555
H25 C23 1_555 1_555
H26 C23 1_555 1_555
C24 C19 1_555 1_555
C25 C21 1_555 1_555
C26 C25 1_555 1_555
H27 C26 1_555 1_555
H28 C26 1_555 1_555
H29 C26 1_555 1_555
C27 C25 1_555 1_555
H30 C27 1_555 1_555
H31 C27 1_555 1_555
H32 C27 1_555 1_555
C28 C24 1_555 1_555
H33 C28 1_555 1_555
H34 C28 1_555 1_555
O4 S1 1_555 1_555
O5 S1 1_555 1_555
O6 S1 1_555 1_555
C5 C6 1_555 1_555
C11 C12 1_555 1_555
C17 C18 1_555 1_555
C23 C24 1_555 1_555
C24 C25 1_555 1_555

#END
