
#######################################################################
#
#                 Cambridge Crystallographic Data Centre
#                                CCDC 
#
#######################################################################
#
# If this CIF has been generated from an entry in the Cambridge 
# Structural Database, then it will include bibliographic, chemical, 
# crystal, experimental, refinement or atomic coordinate data resulting 
# from the CCDC's data processing and validation procedures.
#
#######################################################################

data_QAFSEY
_chemical_formula_moiety         'C9 H11 N1 O1,C7 H4 N2 O6'
_chemical_name_systematic        
'3,5-dinitrobenzoic acid 4-(dimethylamino)benzaldehyde'
_symmetry_cell_setting           triclinic
_symmetry_space_group_name_H-M   'P -1'
_symmetry_Int_Tables_number      2
_space_group_name_Hall           '-P 1'
loop_
_symmetry_equiv_pos_site_id
_symmetry_equiv_pos_as_xyz
1 x,y,z
2 -x,-y,-z
_cell_length_a                   7.5790(6)
_cell_length_b                   8.7530(8)
_cell_length_c                   13.9060(12)
_cell_angle_alpha                101.0800(10)
_cell_angle_beta                 91.7900(10)
_cell_angle_gamma                112.180(2)
_cell_volume                     832.838
_exptl_crystal_colour            colorless
_exptl_crystal_description       block
_cell_formula_units_Z            2
loop_
_atom_site_label
_atom_site_type_symbol
_atom_site_fract_x
_atom_site_fract_y
_atom_site_fract_z
N1 N 0.6435(8) 0.4755(10) 0.4183(4)
N2 N 0.5284(9) 0.8716(10) 0.2433(6)
O1 O 0.2735(7) 0.3012(9) -0.0014(3)
O2 O 0.3240(11) 0.1334(9) 0.0798(5)
H1 H 0.2741 0.0661 0.0273
O3 O 0.6027(9) 0.3297(9) 0.4211(4)
O4 O 0.7348(7) 0.5968(8) 0.4842(3)
O5 O 0.6121(10) 0.9801(8) 0.3148(6)
O6 O 0.4528(8) 0.8886(8) 0.1697(6)
C1 C 0.3357(11) 0.2744(14) 0.0733(7)
C2 C 0.4237(7) 0.4136(9) 0.1628(4)
C3 C 0.4911(7) 0.3804(8) 0.2481(4)
H2 H 0.4809 0.2717 0.2498
C4 C 0.5712(8) 0.5089(8) 0.3278(4)
C5 C 0.5880(8) 0.6706(8) 0.3301(5)
H3 H 0.6446 0.7572 0.3856
C6 C 0.5164(8) 0.6985(8) 0.2455(5)
C7 C 0.4365(8) 0.5743(9) 0.1631(4)
H4 H 0.3907 0.5980 0.1072
N3 N 0.1198(8) 0.8313(7) 0.3470(4)
O7 O -0.1464(10) 0.0580(10) 0.1139(6)
C8 C -0.1535(13) 0.1845(14) 0.0945(8)
H5 H -0.2068 0.1765 0.0316
C9 C -0.0843(9) 0.3479(11) 0.1626(5)
C10 C -0.0865(9) 0.4861(12) 0.1307(5)
H6 H -0.1358 0.4699 0.0657
C11 C -0.0222(8) 0.6427(10) 0.1871(5)
H7 H -0.0267 0.7312 0.1607
C12 C 0.0534(7) 0.6749(9) 0.2877(4)
C13 C 0.0534(8) 0.5318(8) 0.3211(4)
H8 H 0.0987 0.5459 0.3865
C14 C -0.0096(8) 0.3763(9) 0.2620(4)
H9 H -0.0039 0.2865 0.2867
C15 C 0.1974(11) 0.8651(10) 0.4476(6)
H10 H 0.1006 0.8020 0.4839
H11 H 0.2391 0.9838 0.4761
H12 H 0.3045 0.8322 0.4504
C16 C 0.1148(11) 0.9769(9) 0.3111(6)
H13 H 0.1559 0.9735 0.2464
H14 H 0.1989 1.0797 0.3551
H15 H -0.0137 0.9728 0.3083
loop_
_geom_bond_atom_site_label_1
_geom_bond_atom_site_label_2
_geom_bond_site_symmetry_1
_geom_bond_site_symmetry_2
N1 O3 1_555 1_555
N2 O5 1_555 1_555
O1 C1 1_555 1_555
O2 H1 1_555 1_555
O4 N1 1_555 1_555
O6 N2 1_555 1_555
C1 O2 1_555 1_555
C2 C1 1_555 1_555
C3 C2 1_555 1_555
H2 C3 1_555 1_555
C4 N1 1_555 1_555
C5 C4 1_555 1_555
H3 C5 1_555 1_555
C6 N2 1_555 1_555
C7 C2 1_555 1_555
H4 C7 1_555 1_555
N3 C12 1_555 1_555
O7 C8 1_555 1_555
C8 H5 1_555 1_555
C9 C8 1_555 1_555
C10 C9 1_555 1_555
H6 C10 1_555 1_555
C11 C10 1_555 1_555
H7 C11 1_555 1_555
C12 C11 1_555 1_555
C13 C12 1_555 1_555
H8 C13 1_555 1_555
C14 C9 1_555 1_555
H9 C14 1_555 1_555
C15 N3 1_555 1_555
H10 C15 1_555 1_555
H11 C15 1_555 1_555
H12 C15 1_555 1_555
C16 N3 1_555 1_555
H13 C16 1_555 1_555
H14 C16 1_555 1_555
H15 C16 1_555 1_555
C3 C4 1_555 1_555
C5 C6 1_555 1_555
C6 C7 1_555 1_555
C13 C14 1_555 1_555

#END
