
#######################################################################
#
#                 Cambridge Crystallographic Data Centre
#                                CCDC 
#
#######################################################################
#
# If this CIF has been generated from an entry in the Cambridge 
# Structural Database, then it will include bibliographic, chemical, 
# crystal, experimental, refinement or atomic coordinate data resulting 
# from the CCDC's data processing and validation procedures.
#
#######################################################################

data_QAFSAU
_chemical_formula_moiety         'C9 H11 N1 O1,2(C7 H6 O4),2(H2 O1)'
_chemical_name_systematic        
'bis(3,5-dihydroxybenzoic acid) 4-(dimethylamino)benzaldehyde dihydrate'
_symmetry_cell_setting           triclinic
_symmetry_space_group_name_H-M   'P -1'
_symmetry_Int_Tables_number      2
_space_group_name_Hall           '-P 1'
loop_
_symmetry_equiv_pos_site_id
_symmetry_equiv_pos_as_xyz
1 x,y,z
2 -x,-y,-z
_cell_length_a                   7.3322(6)
_cell_length_b                   11.1451(9)
_cell_length_c                   15.6486(13)
_cell_angle_alpha                105.352(2)
_cell_angle_beta                 97.1670(10)
_cell_angle_gamma                103.924(2)
_cell_volume                     1172.39
_exptl_crystal_colour            colorless
_exptl_crystal_description       block
_cell_formula_units_Z            2
loop_
_atom_site_label
_atom_site_type_symbol
_atom_site_fract_x
_atom_site_fract_y
_atom_site_fract_z
N1 N 0.2739(8) 0.5267(6) 0.5685(4)
O1 O 0.1378(12) 0.4300(7) 0.1428(4)
C1 C 0.1474(14) 0.3702(11) 0.1900(7)
H1 H 0.1350 0.2829 0.1630
C2 C 0.1769(10) 0.4128(9) 0.2882(5)
C3 C 0.1931(10) 0.5416(8) 0.3374(5)
H2 H 0.1810 0.6011 0.3067
C4 C 0.2267(10) 0.5807(7) 0.4306(4)
H3 H 0.2403 0.6668 0.4620
C5 C 0.2406(9) 0.4923(7) 0.4784(4)
C6 C 0.2232(10) 0.3657(7) 0.4259(5)
H4 H 0.2330 0.3039 0.4548
C7 C 0.1933(11) 0.3311(8) 0.3366(5)
H5 H 0.1831 0.2454 0.3054
C8 C 0.2967(11) 0.6597(8) 0.6219(5)
H6 H 0.4044 0.7168 0.6099
H7 H 0.3182 0.6667 0.6850
H8 H 0.1827 0.6836 0.6060
C9 C 0.2837(12) 0.4336(8) 0.6164(5)
H9 H 0.1700 0.3613 0.5939
H10 H 0.2933 0.4738 0.6798
H11 H 0.3943 0.4037 0.6076
O2 O 0.8220(7) 1.0748(4) 0.4528(3)
H12 H 0.8299 1.0872 0.5074
O3 O 0.6354(7) 0.8835(4) 0.4484(3)
O4 O 0.7972(7) 1.0599(4) 0.1324(3)
H13 H 0.7690 1.0272 0.0773
O5 O 0.4352(7) 0.6372(4) 0.1209(3)
H14 H 0.4276 0.6271 0.0666
C10 C 0.7152(10) 0.9611(6) 0.4103(4)
C11 C 0.6804(9) 0.9220(6) 0.3093(4)
C12 C 0.5740(9) 0.7975(6) 0.2623(4)
H15 H 0.5265 0.7390 0.2925
C13 C 0.5383(9) 0.7604(6) 0.1682(4)
C14 C 0.6123(9) 0.8473(6) 0.1247(4)
H16 H 0.5875 0.8223 0.0618
C15 C 0.7215(9) 0.9694(6) 0.1729(4)
C16 C 0.7574(9) 1.0099(6) 0.2665(4)
H17 H 0.8311 1.0938 0.2995
O6 O 0.2980(7) 1.0475(4) 0.3752(3)
H18 H 0.3075 1.0577 0.4296
O7 O 0.1200(7) 0.8532(4) 0.3697(2)
O8 O -0.0965(8) 0.6193(4) 0.0417(3)
H19 H -0.1074 0.6098 -0.0127
O9 O 0.2714(7) 1.0333(4) 0.0501(3)
H20 H 0.3620 1.0930 0.0833
C17 C 0.1950(10) 0.9348(6) 0.3317(4)
C18 C 0.1609(9) 0.8975(6) 0.2318(4)
C19 C 0.0452(9) 0.7747(6) 0.1823(4)
H21 H -0.0081 0.7155 0.2109
C20 C 0.0108(10) 0.7422(7) 0.0890(4)
C21 C 0.0869(10) 0.8285(7) 0.0471(4)
H22 H 0.0617 0.8051 -0.0157
C22 C 0.2006(10) 0.9501(6) 0.0970(4)
C23 C 0.2383(9) 0.9854(6) 0.1906(4)
H23 H 0.3154 1.0679 0.2248
O10 O 0.5595(8) 0.2336(5) 0.1457(3)
H24 H 0.6383 0.1887 0.1387
H25 H 0.5953 0.2973 0.1255
O11 O 0.3563(11) 0.5524(6) 0.9057(6)
H26 H 0.3718 0.5791 0.9630
H27 H 0.4139 0.4944 0.8918
loop_
_geom_bond_atom_site_label_1
_geom_bond_atom_site_label_2
_geom_bond_site_symmetry_1
_geom_bond_site_symmetry_2
N1 C5 1_555 1_555
O1 C1 1_555 1_555
C1 H1 1_555 1_555
C2 C1 1_555 1_555
C3 C2 1_555 1_555
H2 C3 1_555 1_555
C4 C3 1_555 1_555
H3 C4 1_555 1_555
C5 C4 1_555 1_555
C6 C5 1_555 1_555
H4 C6 1_555 1_555
C7 C2 1_555 1_555
H5 C7 1_555 1_555
C8 N1 1_555 1_555
H6 C8 1_555 1_555
H7 C8 1_555 1_555
H8 C8 1_555 1_555
C9 N1 1_555 1_555
H9 C9 1_555 1_555
H10 C9 1_555 1_555
H11 C9 1_555 1_555
O2 H12 1_555 1_555
O3 C10 1_555 1_555
O4 H13 1_555 1_555
O5 H14 1_555 1_555
C10 O2 1_555 1_555
C11 C10 1_555 1_555
C12 C11 1_555 1_555
H15 C12 1_555 1_555
C13 O5 1_555 1_555
C14 C13 1_555 1_555
H16 C14 1_555 1_555
C15 O4 1_555 1_555
C16 C11 1_555 1_555
H17 C16 1_555 1_555
O6 H18 1_555 1_555
O7 C17 1_555 1_555
O8 H19 1_555 1_555
O9 H20 1_555 1_555
C17 O6 1_555 1_555
C18 C17 1_555 1_555
C19 C18 1_555 1_555
H21 C19 1_555 1_555
C20 O8 1_555 1_555
C21 C20 1_555 1_555
H22 C21 1_555 1_555
C22 O9 1_555 1_555
C23 C18 1_555 1_555
H23 C23 1_555 1_555
O10 H24 1_555 1_555
H25 O10 1_555 1_555
O11 H26 1_555 1_555
H27 O11 1_555 1_555
C6 C7 1_555 1_555
C12 C13 1_555 1_555
C14 C15 1_555 1_555
C15 C16 1_555 1_555
C19 C20 1_555 1_555
C21 C22 1_555 1_555
C22 C23 1_555 1_555

#END
