
#######################################################################
#
#                 Cambridge Crystallographic Data Centre
#                                CCDC 
#
#######################################################################
#
# If this CIF has been generated from an entry in the Cambridge 
# Structural Database, then it will include bibliographic, chemical, 
# crystal, experimental, refinement or atomic coordinate data resulting 
# from the CCDC's data processing and validation procedures.
#
#######################################################################

data_QAFWUS
_chemical_formula_moiety         'C30 H36 N6 O3,C1 H4 O1,H2 O1'
_chemical_name_systematic        
'8,22,33-trioxa-5,11,19,25,30,36-hexaazatetracyclo[13.13.9.1^3,27^.1^13,17^]nonatriaconta-1,3(38),4,11,13(39),14,16,18,25,27,29,36-dodecaene methanol solvate monohydrate'
_symmetry_cell_setting           triclinic
_symmetry_space_group_name_H-M   'P -1'
_symmetry_Int_Tables_number      2
_space_group_name_Hall           '-P 1'
loop_
_symmetry_equiv_pos_site_id
_symmetry_equiv_pos_as_xyz
1 x,y,z
2 -x,-y,-z
_cell_length_a                   8.2543(6)
_cell_length_b                   14.4388(8)
_cell_length_c                   15.1610(12)
_cell_angle_alpha                116.777(7)
_cell_angle_beta                 90.679(6)
_cell_angle_gamma                96.709(5)
_cell_volume                     1597.87
_exptl_crystal_colour            colorless
_exptl_crystal_description       prism
_cell_formula_units_Z            2
loop_
_atom_site_label
_atom_site_type_symbol
_atom_site_fract_x
_atom_site_fract_y
_atom_site_fract_z
O1 O 0.1956(2) 0.16993(16) 0.16400(15)
C1 C 0.0735(4) 0.1921(2) 0.2325(2)
C2 C -0.0885(4) 0.1377(2) 0.1745(2)
N1 N -0.1246(3) 0.17793(19) 0.10558(19)
C3 C -0.1474(4) 0.1127(2) 0.0142(2)
C4 C -0.1845(4) 0.1435(2) -0.0628(2)
C5 C -0.1711(4) 0.2476(2) -0.0447(2)
C6 C -0.2094(4) 0.2745(2) -0.1187(2)
C7 C -0.2634(4) 0.1940(2) -0.2144(2)
C8 C -0.2784(4) 0.0912(2) -0.2329(2)
C9 C -0.2369(4) 0.0658(2) -0.1579(2)
C10 C -0.3384(4) 0.0064(2) -0.3326(2)
N2 N -0.3660(3) -0.0873(2) -0.34789(19)
C11 C -0.4158(4) -0.1673(2) -0.4489(2)
C12 C -0.2843(4) -0.2386(2) -0.4847(2)
O2 O -0.1404(3) -0.17779(16) -0.48804(16)
C13 C -0.0049(4) -0.2351(2) -0.5157(3)
C14 C 0.1421(4) -0.1615(3) -0.5130(3)
N3 N 0.1959(3) -0.0839(2) -0.4108(2)
C15 C 0.2023(4) 0.0110(2) -0.3924(2)
C16 C 0.2566(4) 0.0987(2) -0.2930(2)
C17 C 0.2644(4) 0.2001(2) -0.2805(2)
C18 C 0.3167(4) 0.2856(2) -0.1876(2)
C19 C 0.3295(4) 0.3939(2) -0.1736(2)
N4 N 0.3222(3) 0.4167(2) -0.2446(2)
C20 C 0.3298(4) 0.5273(2) -0.2207(3)
C21 C 0.1634(4) 0.5499(2) -0.2415(2)
O3 O 0.0568(3) 0.53515(16) -0.17543(16)
C22 C -0.1021(4) 0.5611(3) -0.1845(3)
C23 C -0.2095(4) 0.5327(2) -0.1199(3)
N5 N -0.2344(3) 0.4193(2) -0.1548(2)
C24 C -0.1935(4) 0.3855(2) -0.0952(2)
C25 C 0.3582(4) 0.2669(2) -0.1095(2)
C26 C 0.3507(4) 0.1660(2) -0.1203(2)
C27 C 0.3022(4) 0.0816(2) -0.2130(2)
C28 C 0.3946(4) 0.1466(2) -0.0363(2)
N6 N 0.4303(3) 0.2210(2) 0.0508(2)
C29 C 0.4700(4) 0.1938(3) 0.1290(2)
C30 C 0.3518(4) 0.2286(2) 0.2077(2)
H1 H 0.0703 0.2642 0.2654
H2 H 0.0940 0.1677 0.2758
H3 H -0.1791 0.1488 0.2249
H4 H -0.0864 0.0690 0.1473
H5 H -0.1443 0.0369 -0.0079
H6 H -0.1363 0.2975 0.0127
H7 H -0.2872 0.2194 -0.2654
H8 H -0.2459 0.0012 -0.1701
H9 H -0.3486 0.0273 -0.3845
H10 H -0.4306 -0.1340 -0.4916
H11 H -0.5218 -0.2052 -0.4452
H12 H -0.3082 -0.2887 -0.5480
H13 H -0.2697 -0.2682 -0.4388
H14 H -0.0166 -0.2901 -0.5839
H15 H 0.0111 -0.2629 -0.4679
H16 H 0.1841 0.0328 -0.4479
H17 H 0.2340 0.2185 -0.3331
H18 H 0.3439 0.4480 -0.1041
H19 H 0.4115 0.5439 -0.2612
H20 H 0.3642 0.5732 -0.1460
H21 H 0.1718 0.6181 -0.2337
H22 H 0.1305 0.5007 -0.3085
H23 H -0.0920 0.6353 -0.1611
H24 H -0.1404 0.5202 -0.2533
H25 H -0.3020 0.5529 -0.1259
H26 H -0.1648 0.5699 -0.0503
H27 H -0.1571 0.4310 -0.0310
H28 H 0.3925 0.3205 -0.0503
H29 H 0.2977 0.0186 -0.2194
H30 H 0.3917 0.0696 -0.0482
H31 H 0.5776 0.2328 0.1578
H32 H 0.4750 0.1190 0.1057
H33 H 0.3475 0.3055 0.2265
H34 H 0.3839 0.2152 0.2635
H35 H 0.1144 -0.1260 -0.5496
H36 H 0.2288 -0.2006 -0.5422
O4 O 0.6172(4) 0.3446(3) -0.3462(2)
H37 H 0.515(3) 0.357(4) -0.332(3)
H38 H 0.679(4) 0.370(4) -0.2898(19)
C31 C 0.714(2) 0.4390(14) -0.5261(14)
O5 O 0.6579(14) 0.4737(7) -0.4432(8)
H39 H 0.694(5) 0.445(3) -0.413(3)
H40 H 0.6603 0.4623 -0.5673
H41 H 0.8285 0.4640 -0.5179
H42 H 0.7001 0.3638 -0.5576
loop_
_geom_bond_atom_site_label_1
_geom_bond_atom_site_label_2
_geom_bond_site_symmetry_1
_geom_bond_site_symmetry_2
O1 C1 1_555 1_555
C1 C2 1_555 1_555
C2 N1 1_555 1_555
N1 C3 1_555 1_555
C3 C4 1_555 1_555
C4 C5 1_555 1_555
C5 C6 1_555 1_555
C6 C7 1_555 1_555
C7 C8 1_555 1_555
C8 C9 1_555 1_555
C9 C4 1_555 1_555
C10 C8 1_555 1_555
N2 C10 1_555 1_555
C11 N2 1_555 1_555
C12 C11 1_555 1_555
O2 C12 1_555 1_555
C13 O2 1_555 1_555
C14 C13 1_555 1_555
N3 C14 1_555 1_555
C15 N3 1_555 1_555
C16 C15 1_555 1_555
C17 C16 1_555 1_555
C18 C17 1_555 1_555
C19 C18 1_555 1_555
N4 C19 1_555 1_555
C20 N4 1_555 1_555
C21 C20 1_555 1_555
O3 C21 1_555 1_555
C22 O3 1_555 1_555
C23 C22 1_555 1_555
N5 C23 1_555 1_555
C24 C6 1_555 1_555
C25 C18 1_555 1_555
C26 C25 1_555 1_555
C27 C16 1_555 1_555
C28 C26 1_555 1_555
N6 C28 1_555 1_555
C29 N6 1_555 1_555
C30 O1 1_555 1_555
H1 C1 1_555 1_555
H2 C1 1_555 1_555
H3 C2 1_555 1_555
H4 C2 1_555 1_555
H5 C3 1_555 1_555
H6 C5 1_555 1_555
H7 C7 1_555 1_555
H8 C9 1_555 1_555
H9 C10 1_555 1_555
H10 C11 1_555 1_555
H11 C11 1_555 1_555
H12 C12 1_555 1_555
H13 C12 1_555 1_555
H14 C13 1_555 1_555
H15 C13 1_555 1_555
H16 C15 1_555 1_555
H17 C17 1_555 1_555
H18 C19 1_555 1_555
H19 C20 1_555 1_555
H20 C20 1_555 1_555
H21 C21 1_555 1_555
H22 C21 1_555 1_555
H23 C22 1_555 1_555
H24 C22 1_555 1_555
H25 C23 1_555 1_555
H26 C23 1_555 1_555
H27 C24 1_555 1_555
H28 C25 1_555 1_555
H29 C27 1_555 1_555
H30 C28 1_555 1_555
H31 C29 1_555 1_555
H32 C29 1_555 1_555
H33 C30 1_555 1_555
H34 C30 1_555 1_555
H35 C14 1_555 1_555
H36 C14 1_555 1_555
O4 H37 1_555 1_555
H38 O4 1_555 1_555
C31 O5 1_555 1_555
O5 H39 1_555 1_555
H40 C31 1_555 1_555
H41 C31 1_555 1_555
H42 C31 1_555 1_555
N5 C24 1_555 1_555
C26 C27 1_555 1_555
C29 C30 1_555 1_555

#END
