
#######################################################################
#
#                 Cambridge Crystallographic Data Centre
#                                CCDC 
#
#######################################################################
#
# If this CIF has been generated from an entry in the Cambridge 
# Structural Database, then it will include bibliographic, chemical, 
# crystal, experimental, refinement or atomic coordinate data resulting 
# from the CCDC's data processing and validation procedures.
#
#######################################################################

data_QAGBOQ
_chemical_formula_moiety         'C21 H26 N2 O7'
_chemical_name_systematic        
(2S,3a'R,6'S,7a'R)-3-Acetyl-2',2',2'',2''-tetramethyl-5-phenyl-2,3-dihydro-1,3,4-oxadiazole-2-spiro-7'-(1',3'-dioxolano(4,5-c)pyrano)-6'-spiro-4''-(1'',3''-dioxolane)
_symmetry_cell_setting           orthorhombic
_symmetry_space_group_name_H-M   'P 21 21 21'
_symmetry_Int_Tables_number      19
_space_group_name_Hall           'P 2ac 2ab'
loop_
_symmetry_equiv_pos_site_id
_symmetry_equiv_pos_as_xyz
1 x,y,z
2 1/2-x,-y,1/2+z
3 1/2+x,1/2-y,-z
4 -x,1/2+y,1/2-z
_cell_length_a                   9.6810(10)
_cell_length_b                   11.216(2)
_cell_length_c                   20.163(3)
_cell_angle_alpha                90
_cell_angle_beta                 90
_cell_angle_gamma                90
_cell_volume                     2189.34
_chemical_melting_point          117-118deg.C
_cell_formula_units_Z            4
_exptl_crystal_recrystallization_method 'ethyl acetate/cyclohexane'
loop_
_atom_site_label
_atom_site_type_symbol
_atom_site_fract_x
_atom_site_fract_y
_atom_site_fract_z
O1 O 0.6105(2) 0.3732(1) -0.0507(1)
O2 O 0.4975(2) 0.5553(1) -0.0630(1)
O3 O 0.3265(2) 0.4266(2) -0.0912(1)
O4 O 0.5727(2) 0.3807(1) 0.0827(1)
O5 O 0.4896(2) 0.7442(1) 0.0450(1)
O6 O 0.7738(2) 0.5436(1) 0.1035(1)
O7 O 0.8729(2) 0.4062(1) 0.0360(1)
N1 N 0.4619(2) 0.5568(2) 0.0847(1)
N2 N 0.4030(2) 0.4821(2) 0.1330(1)
C1 C 0.3727(3) 0.3938(2) -0.0271(1)
C2 C 0.5128(3) 0.4532(2) -0.0236(1)
C3 C 0.5648(2) 0.4901(2) 0.0452(1)
C4 C 0.7065(2) 0.5505(2) 0.0413(1)
C5 C 0.8054(3) 0.4897(2) -0.0064(1)
C6 C 0.7402(3) 0.4284(2) -0.0648(1)
C7 C 0.3814(3) 0.5392(2) -0.1070(1)
C8 C 0.4329(4) 0.5344(3) -0.1776(1)
C9 C 0.2820(3) 0.6381(3) -0.0945(2)
C10 C 0.4699(2) 0.3844(2) 0.1288(1)
C11 C 0.4455(2) 0.2771(2) 0.1681(1)
C12 C 0.3350(3) 0.2742(2) 0.2122(1)
C13 C 0.3087(3) 0.1725(3) 0.2482(1)
C14 C 0.3899(4) 0.0742(3) 0.2410(1)
C15 C 0.4991(3) 0.0761(2) 0.1977(2)
C16 C 0.5269(3) 0.1777(2) 0.1610(1)
C17 C 0.4364(2) 0.6778(2) 0.0847(1)
C18 C 0.3365(3) 0.7211(2) 0.1372(2)
C19 C 0.8918(3) 0.4639(2) 0.0979(2)
C20 C 1.0222(3) 0.5388(3) 0.0987(2)
C21 C 0.8869(3) 0.3722(3) 0.1519(1)
loop_
_geom_bond_atom_site_label_1
_geom_bond_atom_site_label_2
_geom_bond_site_symmetry_1
_geom_bond_site_symmetry_2
O1 C2 1_555 1_555
O2 C2 1_555 1_555
O3 C1 1_555 1_555
O4 C3 1_555 1_555
O5 C17 1_555 1_555
O6 C4 1_555 1_555
O7 C5 1_555 1_555
N1 N2 1_555 1_555
N2 C10 1_555 1_555
C1 C2 1_555 1_555
C2 C3 1_555 1_555
C3 N1 1_555 1_555
C4 C3 1_555 1_555
C5 C4 1_555 1_555
C6 O1 1_555 1_555
C7 O2 1_555 1_555
C8 C7 1_555 1_555
C9 C7 1_555 1_555
C10 O4 1_555 1_555
C11 C10 1_555 1_555
C12 C11 1_555 1_555
C13 C12 1_555 1_555
C14 C13 1_555 1_555
C15 C14 1_555 1_555
C16 C11 1_555 1_555
C17 N1 1_555 1_555
C18 C17 1_555 1_555
C19 O6 1_555 1_555
C20 C19 1_555 1_555
C21 C19 1_555 1_555
O3 C7 1_555 1_555
O7 C19 1_555 1_555
C5 C6 1_555 1_555
C15 C16 1_555 1_555

#END
