
#######################################################################
#
#                 Cambridge Crystallographic Data Centre
#                                CCDC 
#
#######################################################################
#
# If this CIF has been generated from an entry in the Cambridge 
# Structural Database, then it will include bibliographic, chemical, 
# crystal, experimental, refinement or atomic coordinate data resulting 
# from the CCDC's data processing and validation procedures.
#
#######################################################################

data_QAGDEK
_chemical_formula_moiety         'C3 H3 N3 O3,C1 H3 N5,H2 O1'
_chemical_name_systematic        'Cyanuric acid 1H-tetrazol-5-amine monohydrate'
_symmetry_cell_setting           triclinic
_symmetry_space_group_name_H-M   'P -1'
_symmetry_Int_Tables_number      2
_space_group_name_Hall           '-P 1'
loop_
_symmetry_equiv_pos_site_id
_symmetry_equiv_pos_as_xyz
1 x,y,z
2 -x,-y,-z
_cell_length_a                   5.4748(11)
_cell_length_b                   9.655(2)
_cell_length_c                   9.881(2)
_cell_angle_alpha                66.29(2)
_cell_angle_beta                 75.35(3)
_cell_angle_gamma                72.33(3)
_cell_volume                     450.498
_exptl_crystal_colour            colorless
_exptl_crystal_description       prism
_cell_formula_units_Z            2
loop_
_atom_site_label
_atom_site_type_symbol
_atom_site_fract_x
_atom_site_fract_y
_atom_site_fract_z
O1 O 0.4217(3) 0.42584(19) 0.27799(19)
O2 O 0.2959(3) -0.06268(17) 0.43133(17)
O3 O -0.0899(3) 0.32230(17) 0.04774(17)
N1 N 0.3716(4) 0.1793(2) 0.3516(2)
N2 N 0.0998(4) 0.1287(2) 0.2395(2)
N3 N 0.1774(4) 0.3757(2) 0.1550(2)
C1 C 0.3291(4) 0.3333(3) 0.2621(3)
C2 C 0.2580(4) 0.0725(3) 0.3458(2)
C3 C 0.0536(4) 0.2788(2) 0.1407(2)
H1 H 0.481(5) 0.145(3) 0.430(3)
H2 H 0.141(5) 0.467(4) 0.093(3)
H3 H 0.030(5) 0.074(4) 0.233(3)
O4 O 0.2024(4) 0.6054(2) 0.5583(2)
H4 H 0.147(7) 0.670(5) 0.475(4)
H5 H 0.332(7) 0.632(5) 0.577(4)
N4 N 0.4913(4) 0.7629(2) 0.1083(2)
N5 N 0.7660(4) 0.6971(2) 0.2891(2)
N6 N 0.9042(4) 0.7741(2) 0.3198(2)
N7 N 0.8622(4) 0.9140(2) 0.2250(2)
N8 N 0.7003(4) 0.9347(2) 0.1312(2)
C4 C 0.6428(4) 0.7970(3) 0.1738(2)
H6 H 0.446(6) 0.672(4) 0.162(4)
H7 H 0.403(5) 0.836(3) 0.037(3)
H8 H 0.771(6) 0.588(5) 0.349(4)
loop_
_geom_bond_atom_site_label_1
_geom_bond_atom_site_label_2
_geom_bond_site_symmetry_1
_geom_bond_site_symmetry_2
O1 C1 1_555 1_555
O2 C2 1_555 1_555
O3 C3 1_555 1_555
N1 C1 1_555 1_555
N2 C2 1_555 1_555
N3 C1 1_555 1_555
C2 N1 1_555 1_555
C3 N2 1_555 1_555
H1 N1 1_555 1_555
H2 N3 1_555 1_555
H3 N2 1_555 1_555
O4 H4 1_555 1_555
H5 O4 1_555 1_555
N4 C4 1_555 1_555
N5 N6 1_555 1_555
N6 N7 1_555 1_555
N7 N8 1_555 1_555
N8 C4 1_555 1_555
C4 N5 1_555 1_555
H6 N4 1_555 1_555
H7 N4 1_555 1_555
H8 N5 1_555 1_555
N3 C3 1_555 1_555

#END
