
#######################################################################
#
#                 Cambridge Crystallographic Data Centre
#                                CCDC 
#
#######################################################################
#
# If this CIF has been generated from an entry in the Cambridge 
# Structural Database, then it will include bibliographic, chemical, 
# crystal, experimental, refinement or atomic coordinate data resulting 
# from the CCDC's data processing and validation procedures.
#
#######################################################################

data_QAGJUG
_chemical_formula_moiety         'C144 H132,4(C1 H1 Cl3)'
_chemical_name_systematic        
'1^2^,1^4^,1^6^,8^2^,8^4^,8^6^,15^2^,15^4^,15^6^,22^2^,22^4^,22^6^-Dodecaethyl-1,8,15,22(1,3,5),3,6,10,13,17,20,24,27,30,33,36,39(1,4)-hexadecabenzenatricyclo[14.14.7.7^8,22^]tetracontaphane-,4,11,18,25,31,17-hexyne chloroform solvate'
_symmetry_cell_setting           tetragonal
_symmetry_space_group_name_H-M   'I 41/a'
_symmetry_Int_Tables_number      88
_space_group_name_Hall           '-I 4ad'
loop_
_symmetry_equiv_pos_site_id
_symmetry_equiv_pos_as_xyz
1 x,y,z
2 1/2-x,-y,1/2+z
3 3/4-y,1/4+x,1/4+z
4 3/4+y,3/4-x,3/4+z
5 1/2+x,1/2+y,1/2+z
6 -x,1/2-y,z
7 1/4-y,3/4+x,3/4+z
8 1/4+y,1/4-x,1/4+z
9 -x,-y,-z
10 1/2+x,y,1/2-z
11 1/4+y,3/4-x,3/4-z
12 1/4-y,1/4+x,1/4-z
13 1/2-x,1/2-y,1/2-z
14 x,1/2+y,-z
15 3/4+y,1/4-x,1/4-z
16 3/4-y,3/4+x,3/4-z
_cell_length_a                   18.9935(5)
_cell_length_b                   18.9935(5)
_cell_length_c                   50.612(3)
_cell_angle_alpha                90
_cell_angle_beta                 90
_cell_angle_gamma                90
_cell_volume                     18258.4
_exptl_crystal_colour            colorless
_exptl_crystal_description       block
_cell_formula_units_Z            4
_exptl_crystal_recrystallization_method chloroform/toluene
loop_
_atom_site_label
_atom_site_type_symbol
_atom_site_fract_x
_atom_site_fract_y
_atom_site_fract_z
C1 C 0.2560(3) 0.3751(2) 0.52553(11)
C2 C 0.2874(3) 0.4059(3) 0.50286(11)
C3 C 0.2543(3) 0.4631(2) 0.49041(10)
C4 C 0.1938(2) 0.4924(2) 0.50120(10)
C5 C 0.1634(2) 0.4619(2) 0.52382(11)
C6 C 0.1954(3) 0.4048(2) 0.53655(11)
C7 C 0.2900(3) 0.3126(3) 0.53870(12)
H1 H 0.3171 0.2862 0.5252
H2 H 0.2524 0.2811 0.5453
C8 C 0.3388(3) 0.3299(3) 0.56144(10)
C9 C 0.3584(3) 0.2772(3) 0.57840(11)
H3 H 0.3393 0.2314 0.5760
C10 C 0.4045(3) 0.2885(3) 0.59872(12)
H4 H 0.4165 0.2508 0.6102
C11 C 0.4331(3) 0.3533(3) 0.60256(10)
C12 C 0.4138(3) 0.4086(3) 0.58606(12)
H5 H 0.4325 0.4544 0.5887
C13 C 0.3669(3) 0.3957(3) 0.56577(12)
H6 H 0.3536 0.4334 0.5545
C14 C 0.4862(3) 0.3632(3) 0.62305(12)
C15 C 0.5312(3) 0.3689(3) 0.63920(11)
C16 C 0.5859(4) 0.3648(6) 0.65912(15)
C17 C 0.6177(6) 0.3002(5) 0.6642(2)
H7 H 0.6019 0.2592 0.6552
C18 C 0.6725(6) 0.2957(5) 0.6823(2)
H8 H 0.6942 0.2516 0.6857
C19 C 0.6955(4) 0.3558(6) 0.69536(15)
C20 C 0.6637(7) 0.4204(5) 0.6903(3)
H9 H 0.6795 0.4614 0.6993
C21 C 0.6089(6) 0.4248(5) 0.6722(3)
H10 H 0.5872 0.4690 0.6688
C22 C 0.7573(3) 0.3460(3) 0.71461(11)
H11 H 0.7414 0.3157 0.7294
H12 H 0.7954 0.3205 0.7053
C23 C 0.3571(3) 0.3777(3) 0.49188(12)
H13 H 0.3861 0.3595 0.5066
H14 H 0.3833 0.4167 0.4834
C24 C 0.3453(5) 0.3176(4) 0.47127(15)
H15 H 0.3908 0.3030 0.4639
H16 H 0.3150 0.3348 0.4570
H17 H 0.3228 0.2773 0.4799
C25 C 0.2864(3) 0.4947(3) 0.46551(11)
H18 H 0.2478 0.5136 0.4544
H19 H 0.3093 0.4564 0.4554
C26 C 0.3405(3) 0.5533(3) 0.46973(11)
C27 C 0.3480(3) 0.5876(3) 0.49391(13)
H20 H 0.3203 0.5728 0.5085
C28 C 0.3949(3) 0.6426(3) 0.49705(14)
H21 H 0.3998 0.6648 0.5138
C29 C 0.4349(3) 0.6653(3) 0.47577(14)
C30 C 0.4270(3) 0.6307(3) 0.45208(14)
H22 H 0.4541 0.6451 0.4373
C31 C 0.3815(3) 0.5764(3) 0.44945(13)
H23 H 0.3779 0.5536 0.4328
C32 C 0.4814(3) 0.7246(3) 0.47786(14)
C33 C 0.1598(3) 0.5559(2) 0.48856(11)
H24 H 0.1969 0.5851 0.4803
H25 H 0.1371 0.5846 0.5025
C34 C 0.1042(3) 0.5374(3) 0.46744(13)
H26 H 0.0831 0.5808 0.4606
H27 H 0.0675 0.5080 0.4754
H28 H 0.1268 0.5117 0.4529
C35 C 0.1654(3) 0.3761(3) 0.56186(13)
H29 H 0.1427 0.4150 0.5717
H30 H 0.2044 0.3578 0.5729
C36 C 0.1107(4) 0.3165(4) 0.55759(17)
H31 H 0.0958 0.2978 0.5748
H32 H 0.1320 0.2787 0.5471
H33 H 0.0697 0.3354 0.5482
C1E C 0.7440(3) 1.1249(2) 0.52553(11)
C2E C 0.7126(3) 1.0941(3) 0.50286(11)
C3E C 0.7457(3) 1.0369(2) 0.49041(10)
C4E C 0.8062(2) 1.0076(2) 0.50120(10)
C5E C 0.8366(2) 1.0381(2) 0.52382(11)
C6E C 0.8046(3) 1.0952(2) 0.53655(11)
C7E C 0.7100(3) 1.1874(3) 0.53870(12)
H1E H 0.6829 1.2138 0.5252
H2E H 0.7476 1.2189 0.5453
C8E C 0.6612(3) 1.1701(3) 0.56144(10)
C9E C 0.6416(3) 1.2228(3) 0.57840(11)
H3E H 0.6607 1.2686 0.5760
C10E C 0.5955(3) 1.2115(3) 0.59872(12)
H4E H 0.5835 1.2492 0.6102
C11E C 0.5669(3) 1.1467(3) 0.60256(10)
C12E C 0.5862(3) 1.0914(3) 0.58606(12)
H5E H 0.5675 1.0456 0.5887
C13E C 0.6331(3) 1.1043(3) 0.56577(12)
H6E H 0.6464 1.0666 0.5545
C14E C 0.5138(3) 1.1368(3) 0.62305(12)
C15E C 0.4688(3) 1.1311(3) 0.63920(11)
C16E C 0.4141(4) 1.1352(6) 0.65912(15)
C17E C 0.3823(6) 1.1998(5) 0.6642(2)
H7E H 0.3981 1.2408 0.6552
C18E C 0.3275(6) 1.2043(5) 0.6823(2)
H8E H 0.3058 1.2484 0.6857
C19E C 0.3045(4) 1.1442(6) 0.69536(15)
C20E C 0.3363(7) 1.0796(5) 0.6903(3)
H9E H 0.3205 1.0386 0.6993
C21E C 0.3911(6) 1.0752(5) 0.6722(3)
H10E H 0.4128 1.0310 0.6688
C22E C 0.2427(3) 1.1540(3) 0.71461(11)
H11E H 0.2586 1.1843 0.7294
H12E H 0.2046 1.1795 0.7053
C23E C 0.6429(3) 1.1223(3) 0.49188(12)
H13E H 0.6139 1.1405 0.5066
H14E H 0.6167 1.0833 0.4834
C24E C 0.6547(5) 1.1824(4) 0.47127(15)
H15E H 0.6092 1.1970 0.4639
H16E H 0.6850 1.1652 0.4570
H17E H 0.6772 1.2227 0.4799
C25E C 0.7136(3) 1.0053(3) 0.46551(11)
H18E H 0.7522 0.9864 0.4544
H19E H 0.6907 1.0436 0.4554
C26E C 0.6595(3) 0.9467(3) 0.46973(11)
C27E C 0.6520(3) 0.9124(3) 0.49391(13)
H20E H 0.6797 0.9272 0.5085
C28E C 0.6051(3) 0.8574(3) 0.49705(14)
H21E H 0.6002 0.8352 0.5138
C29E C 0.5651(3) 0.8347(3) 0.47577(14)
C30E C 0.5730(3) 0.8693(3) 0.45208(14)
H22E H 0.5459 0.8549 0.4373
C31E C 0.6185(3) 0.9236(3) 0.44945(13)
H23E H 0.6221 0.9464 0.4328
C32E C 0.5186(3) 0.7754(3) 0.47786(14)
C33E C 0.8402(3) 0.9441(2) 0.48856(11)
H24E H 0.8031 0.9149 0.4803
H25E H 0.8629 0.9154 0.5025
C34E C 0.8958(3) 0.9626(3) 0.46744(13)
H26E H 0.9169 0.9192 0.4606
H27E H 0.9325 0.9920 0.4754
H28E H 0.8732 0.9883 0.4529
C35E C 0.8346(3) 1.1239(3) 0.56186(13)
H29E H 0.8573 1.0850 0.5717
H30E H 0.7956 1.1422 0.5729
C36E C 0.8893(4) 1.1835(4) 0.55759(17)
H31E H 0.9042 1.2022 0.5748
H32E H 0.8680 1.2213 0.5471
H33E H 0.9303 1.1646 0.5482
C1K C 0.8749(2) 0.5060(3) 0.72447(11)
C2K C 0.8441(3) 0.5374(3) 0.74714(11)
C3K C 0.7869(2) 0.5043(3) 0.75959(10)
C4K C 0.7576(2) 0.4438(2) 0.74880(10)
C5K C 0.7881(2) 0.4134(2) 0.72618(11)
C6K C 0.8452(2) 0.4454(3) 0.71345(11)
C7K C 0.9374(3) 0.5400(3) 0.71130(12)
H1K H 0.9638 0.5671 0.7248
H2K H 0.9689 0.5024 0.7047
C8K C 0.9201(3) 0.5888(3) 0.68856(10)
C9K C 0.9728(3) 0.6084(3) 0.67160(11)
H3K H 1.0186 0.5893 0.6740
C10K C 0.9615(3) 0.6545(3) 0.65128(12)
H4K H 0.9992 0.6665 0.6398
C11K C 0.8967(3) 0.6831(3) 0.64744(10)
C12K C 0.8414(3) 0.6638(3) 0.66394(12)
H5K H 0.7956 0.6825 0.6613
C13K C 0.8543(3) 0.6169(3) 0.68423(12)
H6K H 0.8166 0.6036 0.6955
C14K C 0.8868(3) 0.7362(3) 0.62695(12)
C15K C 0.8811(3) 0.7812(3) 0.61080(11)
C16K C 0.8852(6) 0.8359(4) 0.59088(15)
C17K C 0.9498(5) 0.8677(6) 0.5858(2)
H7K H 0.9908 0.8519 0.5948
C18K C 0.9543(5) 0.9225(6) 0.5677(2)
H8K H 0.9984 0.9442 0.5643
C19K C 0.8942(6) 0.9455(4) 0.55464(15)
C20K C 0.8296(5) 0.9137(7) 0.5597(3)
H9K H 0.7886 0.9295 0.5507
C21K C 0.8252(5) 0.8589(6) 0.5778(3)
H10K H 0.7810 0.8372 0.5812
C22K C 0.9040(3) 1.0073(3) 0.53539(11)
H11K H 0.9343 0.9914 0.5206
H12K H 0.9295 1.0454 0.5447
C23K C 0.8723(3) 0.6071(3) 0.75812(12)
H13K H 0.8905 0.6361 0.7434
H14K H 0.8333 0.6333 0.7666
C24K C 0.9324(4) 0.5953(5) 0.77873(15)
H15K H 0.9470 0.6408 0.7861
H16K H 0.9152 0.5650 0.7930
H17K H 0.9727 0.5728 0.7701
C25K C 0.7553(3) 0.5364(3) 0.78449(11)
H18K H 0.7364 0.4978 0.7956
H19K H 0.7936 0.5593 0.7946
C26K C 0.6967(3) 0.5905(3) 0.78027(11)
C27K C 0.6624(3) 0.5980(3) 0.75609(13)
H20K H 0.6772 0.5703 0.7415
C28K C 0.6074(3) 0.6449(3) 0.75295(14)
H21K H 0.5852 0.6498 0.7362
C29K C 0.5847(3) 0.6849(3) 0.77423(14)
C30K C 0.6193(3) 0.6770(3) 0.79792(14)
H22K H 0.6049 0.7041 0.8127
C31K C 0.6736(3) 0.6315(3) 0.80055(13)
H23K H 0.6964 0.6279 0.8172
C32K C 0.5254(3) 0.7314(3) 0.77214(14)
C33K C 0.6941(2) 0.4098(3) 0.76144(11)
H24K H 0.6649 0.4469 0.7697
H25K H 0.6654 0.3871 0.7475
C34K C 0.7126(3) 0.3542(3) 0.78256(13)
H26K H 0.6692 0.3331 0.7894
H27K H 0.7420 0.3175 0.7746
H28K H 0.7383 0.3768 0.7971
C35K C 0.8739(3) 0.4154(3) 0.68814(13)
H29K H 0.8350 0.3927 0.6783
H30K H 0.8922 0.4544 0.6771
C36K C 0.9335(4) 0.3607(4) 0.69241(17)
H31K H 0.9522 0.3458 0.6752
H32K H 0.9713 0.3820 0.7029
H33K H 0.9146 0.3197 0.7018
C1N C 0.1251(2) 0.9940(3) 0.72447(11)
C2N C 0.1559(3) 0.9626(3) 0.74714(11)
C3N C 0.2131(2) 0.9957(3) 0.75959(10)
C4N C 0.2424(2) 1.0562(2) 0.74880(10)
C5N C 0.2119(2) 1.0866(2) 0.72618(11)
C6N C 0.1548(2) 1.0546(3) 0.71345(11)
C7N C 0.0626(3) 0.9600(3) 0.71130(12)
H1N H 0.0362 0.9329 0.7248
H2N H 0.0311 0.9976 0.7047
C8N C 0.0799(3) 0.9112(3) 0.68856(10)
C9N C 0.0272(3) 0.8916(3) 0.67160(11)
H3N H -0.0186 0.9107 0.6740
C10N C 0.0385(3) 0.8455(3) 0.65128(12)
H4N H 0.0008 0.8335 0.6398
C11N C 0.1033(3) 0.8169(3) 0.64744(10)
C12N C 0.1586(3) 0.8362(3) 0.66394(12)
H5N H 0.2044 0.8175 0.6613
C13N C 0.1457(3) 0.8831(3) 0.68423(12)
H6N H 0.1834 0.8964 0.6955
C14N C 0.1132(3) 0.7638(3) 0.62695(12)
C15N C 0.1189(3) 0.7188(3) 0.61080(11)
C16N C 0.1148(6) 0.6641(4) 0.59088(15)
C17N C 0.0502(5) 0.6323(6) 0.5858(2)
H7N H 0.0092 0.6481 0.5948
C18N C 0.0457(5) 0.5775(6) 0.5677(2)
H8N H 0.0016 0.5558 0.5643
C19N C 0.1058(6) 0.5545(4) 0.55464(15)
C20N C 0.1704(5) 0.5863(7) 0.5597(3)
H9N H 0.2114 0.5705 0.5507
C21N C 0.1748(5) 0.6411(6) 0.5778(3)
H10N H 0.2190 0.6628 0.5812
C22N C 0.0960(3) 0.4927(3) 0.53539(11)
H11N H 0.0657 0.5086 0.5206
H12N H 0.0705 0.4546 0.5447
C23N C 0.1277(3) 0.8929(3) 0.75812(12)
H13N H 0.1095 0.8639 0.7434
H14N H 0.1667 0.8667 0.7666
C24N C 0.0676(4) 0.9047(5) 0.77873(15)
H15N H 0.0530 0.8592 0.7861
H16N H 0.0848 0.9350 0.7930
H17N H 0.0273 0.9272 0.7701
C25N C 0.2447(3) 0.9636(3) 0.78449(11)
H18N H 0.2636 1.0022 0.7956
H19N H 0.2064 0.9407 0.7946
C26N C 0.3033(3) 0.9095(3) 0.78027(11)
C27N C 0.3376(3) 0.9020(3) 0.75609(13)
H20N H 0.3228 0.9297 0.7415
C28N C 0.3926(3) 0.8551(3) 0.75295(14)
H21N H 0.4148 0.8502 0.7362
C29N C 0.4153(3) 0.8151(3) 0.77423(14)
C30N C 0.3807(3) 0.8230(3) 0.79792(14)
H22N H 0.3951 0.7959 0.8127
C31N C 0.3264(3) 0.8685(3) 0.80055(13)
H23N H 0.3036 0.8721 0.8172
C32N C 0.4746(3) 0.7686(3) 0.77214(14)
C33N C 0.3059(2) 1.0902(3) 0.76144(11)
H24N H 0.3351 1.0531 0.7697
H25N H 0.3346 1.1129 0.7475
C34N C 0.2874(3) 1.1458(3) 0.78256(13)
H26N H 0.3308 1.1669 0.7894
H27N H 0.2580 1.1825 0.7746
H28N H 0.2617 1.1232 0.7971
C35N C 0.1261(3) 1.0846(3) 0.68814(13)
H29N H 0.1650 1.1073 0.6783
H30N H 0.1078 1.0456 0.6771
C36N C 0.0665(4) 1.1393(4) 0.69241(17)
H31N H 0.0478 1.1542 0.6752
H32N H 0.0287 1.1180 0.7029
H33N H 0.0854 1.1803 0.7018
Cl1 Cl 0.58752(18) 0.1153(2) 0.69545(7)
Cl2 Cl 0.59258(17) 0.21246(18) 0.73990(8)
Cl3 Cl 0.48619(13) 0.1030(2) 0.73776(8)
C43 C 0.5728(4) 0.1255(5) 0.72955(18)
H38 H 0.6050 0.0926 0.7391
C37? C 0.5873(4) 0.3671(7) 0.65826(17)
C38? C 0.6014(6) 0.3027(6) 0.6702(3)
H34? H 0.5731 0.2628 0.6662
C39? C 0.6569(7) 0.2967(6) 0.6880(3)
H35? H 0.6665 0.2527 0.6962
C40? C 0.6982(4) 0.3551(6) 0.69381(18)
C41? C 0.6841(7) 0.4194(6) 0.6818(3)
H36? H 0.7124 0.4593 0.6858
C42? C 0.6286(7) 0.4254(5) 0.6641(3)
H37? H 0.6190 0.4694 0.6559
Cl4? Cl 0.5916(4) 0.0819(5) 0.68926(15)
Cl5? Cl 0.5690(5) 0.1906(4) 0.72925(19)
Cl6? Cl 0.4839(4) 0.0612(5) 0.72855(16)
C44? C 0.5658(7) 0.0998(8) 0.7219(3)
H39? H 0.6008 0.0762 0.7337
loop_
_geom_bond_atom_site_label_1
_geom_bond_atom_site_label_2
_geom_bond_site_symmetry_1
_geom_bond_site_symmetry_2
C1 C2 1_555 1_555
C2 C3 1_555 1_555
C3 C4 1_555 1_555
C4 C5 1_555 1_555
C5 C6 1_555 1_555
C6 C1 1_555 1_555
C7 C1 1_555 1_555
H1 C7 1_555 1_555
H2 C7 1_555 1_555
C8 C7 1_555 1_555
C9 C8 1_555 1_555
H3 C9 1_555 1_555
C10 C9 1_555 1_555
H4 C10 1_555 1_555
C11 C10 1_555 1_555
C12 C11 1_555 1_555
H5 C12 1_555 1_555
C13 C8 1_555 1_555
H6 C13 1_555 1_555
C14 C11 1_555 1_555
C15 C14 1_555 1_555
C16 C15 1_555 1_555
C17 C16 1_555 1_555
H7 C17 1_555 1_555
C18 C17 1_555 1_555
H8 C18 1_555 1_555
C19 C18 1_555 1_555
C20 C19 1_555 1_555
H9 C20 1_555 1_555
C21 C16 1_555 1_555
H10 C21 1_555 1_555
C22 C19 1_555 1_555
H11 C22 1_555 1_555
H12 C22 1_555 1_555
C23 C2 1_555 1_555
H13 C23 1_555 1_555
H14 C23 1_555 1_555
C24 C23 1_555 1_555
H15 C24 1_555 1_555
H16 C24 1_555 1_555
H17 C24 1_555 1_555
C25 C3 1_555 1_555
H18 C25 1_555 1_555
H19 C25 1_555 1_555
C26 C25 1_555 1_555
C27 C26 1_555 1_555
H20 C27 1_555 1_555
C28 C27 1_555 1_555
H21 C28 1_555 1_555
C29 C28 1_555 1_555
C30 C29 1_555 1_555
H22 C30 1_555 1_555
C31 C26 1_555 1_555
H23 C31 1_555 1_555
C32 C29 1_555 1_555
C33 C4 1_555 1_555
H24 C33 1_555 1_555
H25 C33 1_555 1_555
C34 C33 1_555 1_555
H26 C34 1_555 1_555
H27 C34 1_555 1_555
H28 C34 1_555 1_555
C35 C6 1_555 1_555
H29 C35 1_555 1_555
H30 C35 1_555 1_555
C36 C35 1_555 1_555
H31 C36 1_555 1_555
H32 C36 1_555 1_555
H33 C36 1_555 1_555
Cl1 C43 1_555 1_555
Cl2 C43 1_555 1_555
Cl3 C43 1_555 1_555
C43 H38 1_555 1_555
C1E C2E 1_555 1_555
C2E C3E 1_555 1_555
C3E C4E 1_555 1_555
C4E C5E 1_555 1_555
C5E C6E 1_555 1_555
C6E C1E 1_555 1_555
C7E C1E 1_555 1_555
H1E C7E 1_555 1_555
H2E C7E 1_555 1_555
C8E C7E 1_555 1_555
C9E C8E 1_555 1_555
H3E C9E 1_555 1_555
C10E C9E 1_555 1_555
H4E C10E 1_555 1_555
C11E C10E 1_555 1_555
C12E C11E 1_555 1_555
H5E C12E 1_555 1_555
C13E C8E 1_555 1_555
H6E C13E 1_555 1_555
C14E C11E 1_555 1_555
C15E C14E 1_555 1_555
C16E C15E 1_555 1_555
C17E C16E 1_555 1_555
H7E C17E 1_555 1_555
C18E C17E 1_555 1_555
H8E C18E 1_555 1_555
C19E C18E 1_555 1_555
C20E C19E 1_555 1_555
H9E C20E 1_555 1_555
C21E C16E 1_555 1_555
H10E C21E 1_555 1_555
C22E C19E 1_555 1_555
H11E C22E 1_555 1_555
H12E C22E 1_555 1_555
C23E C2E 1_555 1_555
H13E C23E 1_555 1_555
H14E C23E 1_555 1_555
C24E C23E 1_555 1_555
H15E C24E 1_555 1_555
H16E C24E 1_555 1_555
H17E C24E 1_555 1_555
C25E C3E 1_555 1_555
H18E C25E 1_555 1_555
H19E C25E 1_555 1_555
C26E C25E 1_555 1_555
C27E C26E 1_555 1_555
H20E C27E 1_555 1_555
C28E C27E 1_555 1_555
H21E C28E 1_555 1_555
C29E C28E 1_555 1_555
C30E C29E 1_555 1_555
H22E C30E 1_555 1_555
C31E C26E 1_555 1_555
H23E C31E 1_555 1_555
C32E C32 1_555 1_555
C33E C4E 1_555 1_555
H24E C33E 1_555 1_555
H25E C33E 1_555 1_555
C34E C33E 1_555 1_555
H26E C34E 1_555 1_555
H27E C34E 1_555 1_555
H28E C34E 1_555 1_555
C35E C6E 1_555 1_555
H29E C35E 1_555 1_555
H30E C35E 1_555 1_555
C36E C35E 1_555 1_555
H31E C36E 1_555 1_555
H32E C36E 1_555 1_555
H33E C36E 1_555 1_555
C1K C2K 1_555 1_555
C2K C3K 1_555 1_555
C3K C4K 1_555 1_555
C4K C5K 1_555 1_555
C5K C22 1_555 1_555
C6K C1K 1_555 1_555
C7K C1K 1_555 1_555
H1K C7K 1_555 1_555
H2K C7K 1_555 1_555
C8K C7K 1_555 1_555
C9K C8K 1_555 1_555
H3K C9K 1_555 1_555
C10K C9K 1_555 1_555
H4K C10K 1_555 1_555
C11K C10K 1_555 1_555
C12K C11K 1_555 1_555
H5K C12K 1_555 1_555
C13K C8K 1_555 1_555
H6K C13K 1_555 1_555
C14K C11K 1_555 1_555
C15K C14K 1_555 1_555
C16K C15K 1_555 1_555
C17K C16K 1_555 1_555
H7K C17K 1_555 1_555
C18K C17K 1_555 1_555
H8K C18K 1_555 1_555
C19K C18K 1_555 1_555
C20K C19K 1_555 1_555
H9K C20K 1_555 1_555
C21K C16K 1_555 1_555
H10K C21K 1_555 1_555
C22K C5E 1_555 1_555
H11K C22K 1_555 1_555
H12K C22K 1_555 1_555
C23K C2K 1_555 1_555
H13K C23K 1_555 1_555
H14K C23K 1_555 1_555
C24K C23K 1_555 1_555
H15K C24K 1_555 1_555
H16K C24K 1_555 1_555
H17K C24K 1_555 1_555
C25K C3K 1_555 1_555
H18K C25K 1_555 1_555
H19K C25K 1_555 1_555
C26K C25K 1_555 1_555
C27K C26K 1_555 1_555
H20K C27K 1_555 1_555
C28K C27K 1_555 1_555
H21K C28K 1_555 1_555
C29K C28K 1_555 1_555
C30K C29K 1_555 1_555
H22K C30K 1_555 1_555
C31K C26K 1_555 1_555
H23K C31K 1_555 1_555
C32K C29K 1_555 1_555
C33K C4K 1_555 1_555
H24K C33K 1_555 1_555
H25K C33K 1_555 1_555
C34K C33K 1_555 1_555
H26K C34K 1_555 1_555
H27K C34K 1_555 1_555
H28K C34K 1_555 1_555
C35K C6K 1_555 1_555
H29K C35K 1_555 1_555
H30K C35K 1_555 1_555
C36K C35K 1_555 1_555
H31K C36K 1_555 1_555
H32K C36K 1_555 1_555
H33K C36K 1_555 1_555
C1N C2N 1_555 1_555
C2N C3N 1_555 1_555
C3N C4N 1_555 1_555
C4N C5N 1_555 1_555
C5N C22E 1_555 1_555
C6N C1N 1_555 1_555
C7N C1N 1_555 1_555
H1N C7N 1_555 1_555
H2N C7N 1_555 1_555
C8N C7N 1_555 1_555
C9N C8N 1_555 1_555
H3N C9N 1_555 1_555
C10N C9N 1_555 1_555
H4N C10N 1_555 1_555
C11N C10N 1_555 1_555
C12N C11N 1_555 1_555
H5N C12N 1_555 1_555
C13N C8N 1_555 1_555
H6N C13N 1_555 1_555
C14N C11N 1_555 1_555
C15N C14N 1_555 1_555
C16N C15N 1_555 1_555
C17N C16N 1_555 1_555
H7N C17N 1_555 1_555
C18N C17N 1_555 1_555
H8N C18N 1_555 1_555
C19N C18N 1_555 1_555
C20N C19N 1_555 1_555
H9N C20N 1_555 1_555
C21N C16N 1_555 1_555
H10N C21N 1_555 1_555
C22N C5 1_555 1_555
H11N C22N 1_555 1_555
H12N C22N 1_555 1_555
C23N C2N 1_555 1_555
H13N C23N 1_555 1_555
H14N C23N 1_555 1_555
C24N C23N 1_555 1_555
H15N C24N 1_555 1_555
H16N C24N 1_555 1_555
H17N C24N 1_555 1_555
C25N C3N 1_555 1_555
H18N C25N 1_555 1_555
H19N C25N 1_555 1_555
C26N C25N 1_555 1_555
C27N C26N 1_555 1_555
H20N C27N 1_555 1_555
C28N C27N 1_555 1_555
H21N C28N 1_555 1_555
C29N C28N 1_555 1_555
C30N C29N 1_555 1_555
H22N C30N 1_555 1_555
C31N C26N 1_555 1_555
H23N C31N 1_555 1_555
C32N C32K 1_555 1_555
C33N C4N 1_555 1_555
H24N C33N 1_555 1_555
H25N C33N 1_555 1_555
C34N C33N 1_555 1_555
H26N C34N 1_555 1_555
H27N C34N 1_555 1_555
H28N C34N 1_555 1_555
C35N C6N 1_555 1_555
H29N C35N 1_555 1_555
H30N C35N 1_555 1_555
C36N C35N 1_555 1_555
H31N C36N 1_555 1_555
H32N C36N 1_555 1_555
H33N C36N 1_555 1_555
C12 C13 1_555 1_555
C20 C21 1_555 1_555
C30 C31 1_555 1_555
C12E C13E 1_555 1_555
C20E C21E 1_555 1_555
C29E C32E 1_555 1_555
C30E C31E 1_555 1_555
C5K C6K 1_555 1_555
C12K C13K 1_555 1_555
C19K C22K 1_555 1_555
C20K C21K 1_555 1_555
C30K C31K 1_555 1_555
C5N C6N 1_555 1_555
C12N C13N 1_555 1_555
C19N C22N 1_555 1_555
C20N C21N 1_555 1_555
C29N C32N 1_555 1_555
C30N C31N 1_555 1_555

#END
