
#######################################################################
#
#                 Cambridge Crystallographic Data Centre
#                                CCDC 
#
#######################################################################
#
# If this CIF has been generated from an entry in the Cambridge 
# Structural Database, then it will include bibliographic, chemical, 
# crystal, experimental, refinement or atomic coordinate data resulting 
# from the CCDC's data processing and validation procedures.
#
#######################################################################

data_QAGMUJ
_chemical_formula_moiety         'C17 H19 N1 O6'
_chemical_name_systematic        
'decahydrofuro[2,3-b][1]benzofuran-4-yl 4-nitrobenzoate'
_symmetry_cell_setting           monoclinic
_symmetry_space_group_name_H-M   'C c'
_symmetry_Int_Tables_number      9
_space_group_name_Hall           'C -2yc'
loop_
_symmetry_equiv_pos_site_id
_symmetry_equiv_pos_as_xyz
1 x,y,z
2 x,-y,1/2+z
3 1/2+x,1/2+y,z
4 1/2+x,1/2-y,1/2+z
_cell_length_a                   11.9797(5)
_cell_length_b                   18.6235(15)
_cell_length_c                   8.4983(5)
_cell_angle_alpha                90
_cell_angle_beta                 124.587(4)
_cell_angle_gamma                90
_cell_volume                     1560.91
_exptl_crystal_colour            colorless
_exptl_crystal_description       chunk
_cell_formula_units_Z            4
loop_
_atom_site_label
_atom_site_type_symbol
_atom_site_fract_x
_atom_site_fract_y
_atom_site_fract_z
O1 O 1.03440(15) 0.41334(8) 1.4933(2)
O2 O 1.07043(17) 0.52684(9) 1.5328(3)
O3 O 0.46852(11) 0.58707(6) 0.67984(15)
O4 O 0.43719(12) 0.73666(6) 0.77440(16)
O5 O 0.37128(14) 0.73452(8) 0.98616(17)
O6 O 0.46009(14) 0.47294(7) 0.58682(18)
N1 N 1.00542(14) 0.47522(8) 1.4372(2)
C1 C 0.88265(16) 0.48775(9) 1.2439(2)
C2 C 0.83985(16) 0.55749(9) 1.1867(3)
C3 C 0.72009(16) 0.56858(8) 1.0088(2)
C4 C 0.64694(16) 0.51062(9) 0.8919(2)
C5 C 0.51577(16) 0.52041(8) 0.7023(2)
C6 C 0.33593(16) 0.60351(9) 0.5026(2)
C7 C 0.26600(14) 0.65874(8) 0.5518(2)
C8 C 0.32021(18) 0.73496(9) 0.5786(2)
C9 C 0.40874(16) 0.69288(8) 0.8844(2)
C10 C 0.2270(2) 0.74007(12) 0.8747(3)
C11 C 0.17469(18) 0.67047(11) 0.7653(3)
C12 C 0.28848(15) 0.64425(8) 0.7454(2)
C13 C 0.3612(2) 0.75881(12) 0.4480(3)
C14 C 0.43964(19) 0.70122(13) 0.4225(3)
C15 C 0.36082(18) 0.63104(12) 0.3574(2)
C16 C 0.69508(17) 0.44107(9) 0.9522(2)
C17 C 0.81372(17) 0.42925(9) 1.1298(3)
H1 H 0.8899 0.5960 1.2653
H2 H 0.6886 0.6151 0.9675
H3 H 0.2810 0.5597 0.4540
H4 H 0.1685 0.6586 0.4516
H5 H 0.2522 0.7685 0.5649
H6 H 0.4881 0.6635 0.9735
H7 H 0.3100 0.5936 0.7816
H8 H 0.6472 0.4024 0.8727
H9 H 0.8463 0.3829 1.1713
H10 H 0.1965 0.7805 0.7877
H11 H 0.1954 0.7464 0.9566
H12 H 0.0912 0.6783 0.6406
H13 H 0.1580 0.6357 0.8347
H14 H 0.4168 0.8016 0.5006
H15 H 0.2805 0.7711 0.3241
H16 H 0.5268 0.6937 0.5425
H17 H 0.4559 0.7170 0.3284
H18 H 0.2746 0.6384 0.2360
H19 H 0.4113 0.5954 0.3387
loop_
_geom_bond_atom_site_label_1
_geom_bond_atom_site_label_2
_geom_bond_site_symmetry_1
_geom_bond_site_symmetry_2
O1 N1 1_555 1_555
O2 N1 1_555 1_555
O3 C5 1_555 1_555
O4 C8 1_555 1_555
O5 C9 1_555 1_555
O6 C5 1_555 1_555
N1 C1 1_555 1_555
C1 C2 1_555 1_555
C2 C3 1_555 1_555
C3 C4 1_555 1_555
C4 C5 1_555 1_555
C6 O3 1_555 1_555
C7 C6 1_555 1_555
C8 C7 1_555 1_555
C9 O4 1_555 1_555
C10 O5 1_555 1_555
C11 C10 1_555 1_555
C12 C7 1_555 1_555
C13 C8 1_555 1_555
C14 C13 1_555 1_555
C15 C6 1_555 1_555
C16 C4 1_555 1_555
C17 C1 1_555 1_555
H1 C2 1_555 1_555
H2 C3 1_555 1_555
H3 C6 1_555 1_555
H4 C7 1_555 1_555
H5 C8 1_555 1_555
H6 C9 1_555 1_555
H7 C12 1_555 1_555
H8 C16 1_555 1_555
H9 C17 1_555 1_555
H10 C10 1_555 1_555
H11 C10 1_555 1_555
H12 C11 1_555 1_555
H13 C11 1_555 1_555
H14 C13 1_555 1_555
H15 C13 1_555 1_555
H16 C14 1_555 1_555
H17 C14 1_555 1_555
H18 C15 1_555 1_555
H19 C15 1_555 1_555
C9 C12 1_555 1_555
C11 C12 1_555 1_555
C14 C15 1_555 1_555
C16 C17 1_555 1_555

#END
