
#######################################################################
#
#                 Cambridge Crystallographic Data Centre
#                                CCDC 
#
#######################################################################
#
# If this CIF has been generated from an entry in the Cambridge 
# Structural Database, then it will include bibliographic, chemical, 
# crystal, experimental, refinement or atomic coordinate data resulting 
# from the CCDC's data processing and validation procedures.
#
#######################################################################

data_QAGQAT
_chemical_formula_moiety         'C1 H8 N5 1+,C3 H2 N3 O3 1-'
_chemical_name_systematic        
'(amino(hydrazino)methylene)hydrazinium 2,4,6-trioxo-1,3,5-triazinan-1-ide'
_symmetry_cell_setting           triclinic
_symmetry_space_group_name_H-M   'P -1'
_symmetry_Int_Tables_number      2
_space_group_name_Hall           '-P 1'
loop_
_symmetry_equiv_pos_site_id
_symmetry_equiv_pos_as_xyz
1 x,y,z
2 -x,-y,-z
_cell_length_a                   6.7212(17)
_cell_length_b                   11.023(3)
_cell_length_c                   11.825(3)
_cell_angle_alpha                87.770(9)
_cell_angle_beta                 82.156(8)
_cell_angle_gamma                78.806(7)
_cell_volume                     851.31
_exptl_crystal_colour            colorless
_exptl_crystal_description       prism
_cell_formula_units_Z            4
loop_
_atom_site_label
_atom_site_type_symbol
_atom_site_fract_x
_atom_site_fract_y
_atom_site_fract_z
O1 O 0.34016(9) 0.73676(5) 0.87607(5)
O2 O 0.21415(10) 1.09977(5) 1.06416(5)
O3 O 0.28497(9) 1.09993(5) 0.67724(5)
N1 N 0.25025(10) 1.10938(5) 0.87078(5)
N2 N 0.27421(10) 0.91860(5) 0.97146(5)
N3 N 0.30553(10) 0.91903(5) 0.77596(5)
C1 C 0.30869(10) 0.85045(6) 0.87462(6)
C2 C 0.24461(11) 1.04648(6) 0.97082(6)
C3 C 0.27913(10) 1.04702(6) 0.77269(6)
H1 H 0.268(2) 0.8839(13) 1.0387(12)
H2 H 0.323(2) 0.8821(13) 0.7120(12)
O4 O 0.30419(10) 0.80462(5) 0.56675(5)
O5 O 0.21310(10) 1.16821(5) 0.36898(5)
O6 O 0.24595(9) 0.80740(5) 0.18952(5)
N4 N 0.25472(10) 0.98629(5) 0.46999(5)
N5 N 0.22361(10) 0.98826(5) 0.27868(5)
N6 N 0.26704(9) 0.79702(5) 0.37910(5)
C4 C 0.27648(10) 0.85844(6) 0.47403(6)
C5 C 0.22950(11) 1.05539(6) 0.37244(6)
C6 C 0.24546(10) 0.86082(6) 0.28051(6)
H3 H 0.269(2) 1.0217(13) 0.5341(12)
H4 H 0.214(2) 1.0244(13) 0.2119(12)
N7 N -0.08173(10) 0.41294(6) 0.82308(6)
N8 N 0.07826(10) 0.56838(5) 0.86693(6)
N9 N -0.08694(10) 0.65435(6) 0.83248(6)
N10 N 0.22411(10) 0.36464(6) 0.89802(6)
N11 N 0.38617(11) 0.40781(6) 0.93815(6)
C7 C 0.07323(10) 0.44856(6) 0.86324(6)
H5 H -0.091(2) 0.3324(14) 0.8285(12)
H6 H -0.1778(19) 0.4748(12) 0.7997(11)
H7 H 0.1856(18) 0.5898(11) 0.8873(10)
H8 H -0.121(2) 0.7186(13) 0.8817(12)
H9 H -0.047(2) 0.6889(13) 0.7606(12)
H10 H 0.234(2) 0.2827(13) 0.8871(12)
H11 H 0.389(2) 0.3831(12) 1.0135(12)
H12 H 0.503(2) 0.3671(14) 0.8993(12)
N12 N 0.21910(10) 0.56203(6) 0.58994(6)
N13 N 0.50431(10) 0.45161(6) 0.66600(6)
N14 N 0.58168(10) 0.55629(6) 0.68928(6)
N15 N 0.28102(10) 0.34834(6) 0.60146(6)
N16 N 0.10129(10) 0.34725(6) 0.55329(6)
C8 C 0.33305(10) 0.45676(6) 0.61863(6)
H13 H 0.267(2) 0.6337(12) 0.5875(11)
H14 H 0.112(2) 0.5608(12) 0.5580(11)
H15 H 0.590(2) 0.3832(14) 0.6596(12)
H16 H 0.597(2) 0.6042(14) 0.6253(13)
H17 H 0.499(2) 0.5995(13) 0.7435(12)
H18 H 0.338(2) 0.2793(13) 0.6385(12)
H19 H 0.015(2) 0.3230(13) 0.6079(12)
H20 H 0.133(2) 0.2867(13) 0.4998(12)
loop_
_geom_bond_atom_site_label_1
_geom_bond_atom_site_label_2
_geom_bond_site_symmetry_1
_geom_bond_site_symmetry_2
O1 C1 1_555 1_555
O2 C2 1_555 1_555
O3 C3 1_555 1_555
N1 C2 1_555 1_555
N2 C1 1_555 1_555
N3 C1 1_555 1_555
C2 N2 1_555 1_555
C3 N1 1_555 1_555
H1 N2 1_555 1_555
H2 N3 1_555 1_555
O4 C4 1_555 1_555
O5 C5 1_555 1_555
O6 C6 1_555 1_555
N4 C4 1_555 1_555
N5 C5 1_555 1_555
N6 C4 1_555 1_555
C5 N4 1_555 1_555
C6 N5 1_555 1_555
H3 N4 1_555 1_555
H4 N5 1_555 1_555
N7 C7 1_555 1_555
N8 N9 1_555 1_555
N9 H8 1_555 1_555
N10 N11 1_555 1_555
N11 H11 1_555 1_555
C7 N8 1_555 1_555
H5 N7 1_555 1_555
H6 N7 1_555 1_555
H7 N8 1_555 1_555
H9 N9 1_555 1_555
H10 N10 1_555 1_555
H12 N11 1_555 1_555
N12 C8 1_555 1_555
N13 N14 1_555 1_555
N14 H16 1_555 1_555
N15 N16 1_555 1_555
N16 H19 1_555 1_555
C8 N13 1_555 1_555
H13 N12 1_555 1_555
H14 N12 1_555 1_555
H15 N13 1_555 1_555
H17 N14 1_555 1_555
H18 N15 1_555 1_555
H20 N16 1_555 1_555
N3 C3 1_555 1_555
N6 C6 1_555 1_555
N10 C7 1_555 1_555
N15 C8 1_555 1_555

#END
