
#######################################################################
#
#                 Cambridge Crystallographic Data Centre
#                                CCDC 
#
#######################################################################
#
# If this CIF has been generated from an entry in the Cambridge 
# Structural Database, then it will include bibliographic, chemical, 
# crystal, experimental, refinement or atomic coordinate data resulting 
# from the CCDC's data processing and validation procedures.
#
#######################################################################

data_QAGQEX
_chemical_formula_moiety         'C30 H24 N4 O2 S1,C4 H8 O2'
_chemical_name_systematic        
"N-(1'-benzyl-2'-oxo-5-phenyl-2-thioxo-1',2'-dihydro-1H-spiro[imidazolidine-4,3'-indol]-1-yl)benzamide ethyl acetate solvate"
_symmetry_cell_setting           triclinic
_symmetry_space_group_name_H-M   'P -1'
_symmetry_Int_Tables_number      2
_space_group_name_Hall           '-P 1'
loop_
_symmetry_equiv_pos_site_id
_symmetry_equiv_pos_as_xyz
1 x,y,z
2 -x,-y,-z
_cell_length_a                   9.9840(13)
_cell_length_b                   12.9333(14)
_cell_length_c                   13.6529(18)
_cell_angle_alpha                117.420(7)
_cell_angle_beta                 99.869(13)
_cell_angle_gamma                96.128(10)
_cell_volume                     1506.58
_exptl_crystal_colour            colorless
_exptl_crystal_description       Prism
_cell_formula_units_Z            2
loop_
_atom_site_label
_atom_site_type_symbol
_atom_site_fract_x
_atom_site_fract_y
_atom_site_fract_z
S1 S 0.64161(3) 0.70274(3) 1.03651(2)
O1 O 0.73873(9) 0.48551(8) 0.80785(8)
O2 O 0.54338(9) 0.61566(8) 0.61934(7)
N1 N 0.55595(10) 0.43183(9) 0.86441(9)
H1 H 0.5159(14) 0.3931(12) 0.8945(11)
N2 N 0.48312(10) 0.50775(8) 0.84280(8)
N3 N 0.48157(10) 0.67828(8) 0.84538(8)
H2 H 0.4945(15) 0.7560(8) 0.8707(11)
N4 N 0.31175(10) 0.62302(8) 0.57932(8)
C1 C 0.68603(12) 0.42666(10) 0.84551(10)
C2 C 0.75784(12) 0.34470(10) 0.87414(10)
C3 C 0.68754(14) 0.25268(11) 0.88461(11)
H3 H 0.5895 0.2403 0.8743
C4 C 0.76074(16) 0.17892(13) 0.91022(13)
H4 H 0.7124 0.1161 0.9170
C5 C 0.90330(17) 0.19671(14) 0.92586(13)
H5 H 0.9530 0.1462 0.9433
C6 C 0.97362(15) 0.28840(15) 0.91612(13)
H6 H 1.0719 0.3013 0.9279
C7 C 0.90141(13) 0.36157(13) 0.88919(12)
H7 H 0.9501 0.4233 0.8810
C8 C 0.53548(11) 0.62932(10) 0.90599(10)
C9 C 0.42689(11) 0.47315(10) 0.72224(9)
H8 H 0.5043 0.4571 0.6831
C10 C 0.31040(12) 0.36483(10) 0.65819(10)
C11 C 0.22399(12) 0.32930(10) 0.71219(10)
H9 H 0.2394 0.3729 0.7927
C12 C 0.11528(13) 0.23011(11) 0.64838(11)
H10 H 0.0568 0.2061 0.6855
C13 C 0.09171(13) 0.16607(11) 0.53089(11)
H11 H 0.0166 0.0989 0.4874
C14 C 0.17864(13) 0.20061(11) 0.47707(11)
H12 H 0.1632 0.1565 0.3966
C15 C 0.28771(12) 0.29912(10) 0.54011(10)
H13 H 0.3471 0.3219 0.5028
C16 C 0.39007(11) 0.59227(10) 0.73432(9)
C17 C 0.23998(12) 0.60309(9) 0.72229(9)
C18 C 0.14709(12) 0.59912(10) 0.78551(10)
H14 H 0.1744 0.5873 0.8491
C19 C 0.01242(13) 0.61281(10) 0.75402(10)
H15 H -0.0533 0.6088 0.7956
C20 C -0.02599(13) 0.63227(10) 0.66196(11)
H16 H -0.1180 0.6417 0.6418
C21 C 0.06768(12) 0.63834(10) 0.59840(10)
H17 H 0.0418 0.6529 0.5363
C22 C 0.19933(12) 0.62228(9) 0.62998(9)
C23 C 0.42871(12) 0.61187(9) 0.63806(9)
C24 C 0.30826(13) 0.64168(10) 0.48166(10)
H18 H 0.2175 0.5983 0.4256
H19 H 0.3818 0.6075 0.4448
C25 C 0.32912(12) 0.77176(11) 0.51269(10)
C26 C 0.25847(14) 0.80333(12) 0.43731(12)
H20 H 0.1968 0.7435 0.3676
C27 C 0.27725(16) 0.92190(14) 0.46294(14)
H21 H 0.2285 0.9426 0.4106
C28 C 0.36577(17) 1.00929(14) 0.56334(16)
H22 H 0.3774 1.0904 0.5811
C29 C 0.43793(17) 0.97861(13) 0.63844(15)
H23 H 0.5001 1.0388 0.7077
C30 C 0.41998(15) 0.86028(12) 0.61324(13)
H24 H 0.4702 0.8399 0.6652
O3 O 0.38846(10) 0.07982(8) 1.07487(8)
O4 O 0.17512(10) 0.02306(8) 0.95914(8)
C31 C 0.20086(16) 0.16026(16) 1.15070(13)
H25 H 0.2478 0.1679 1.2236
H26 H 0.1022 0.1234 1.1311
H27 H 0.2094 0.2394 1.1570
C32 C 0.26655(13) 0.08413(11) 1.05978(11)
C33 C 0.22776(17) -0.04374(14) 0.85938(13)
H28 H 0.2186 -0.1280 0.8413
H29 H 0.3272 -0.0091 0.8742
C34 C 0.14394(17) -0.03611(14) 0.76280(13)
H30 H 0.0451 -0.0660 0.7520
H31 H 0.1727 -0.0843 0.6932
H32 H 0.1587 0.0471 0.7795
loop_
_geom_bond_atom_site_label_1
_geom_bond_atom_site_label_2
_geom_bond_site_symmetry_1
_geom_bond_site_symmetry_2
S1 C8 1_555 1_555
O1 C1 1_555 1_555
O2 C23 1_555 1_555
N1 H1 1_555 1_555
N2 N1 1_555 1_555
N3 H2 1_555 1_555
N4 C22 1_555 1_555
C1 N1 1_555 1_555
C2 C1 1_555 1_555
C3 C2 1_555 1_555
H3 C3 1_555 1_555
C4 C3 1_555 1_555
H4 C4 1_555 1_555
C5 C4 1_555 1_555
H5 C5 1_555 1_555
C6 C5 1_555 1_555
H6 C6 1_555 1_555
C7 C2 1_555 1_555
H7 C7 1_555 1_555
C8 N2 1_555 1_555
C9 N2 1_555 1_555
H8 C9 1_555 1_555
C10 C9 1_555 1_555
C11 C10 1_555 1_555
H9 C11 1_555 1_555
C12 C11 1_555 1_555
H10 C12 1_555 1_555
C13 C12 1_555 1_555
H11 C13 1_555 1_555
C14 C13 1_555 1_555
H12 C14 1_555 1_555
C15 C10 1_555 1_555
H13 C15 1_555 1_555
C16 N3 1_555 1_555
C17 C16 1_555 1_555
C18 C17 1_555 1_555
H14 C18 1_555 1_555
C19 C18 1_555 1_555
H15 C19 1_555 1_555
C20 C19 1_555 1_555
H16 C20 1_555 1_555
C21 C20 1_555 1_555
H17 C21 1_555 1_555
C22 C17 1_555 1_555
C23 N4 1_555 1_555
C24 N4 1_555 1_555
H18 C24 1_555 1_555
H19 C24 1_555 1_555
C25 C24 1_555 1_555
C26 C25 1_555 1_555
H20 C26 1_555 1_555
C27 C26 1_555 1_555
H21 C27 1_555 1_555
C28 C27 1_555 1_555
H22 C28 1_555 1_555
C29 C28 1_555 1_555
H23 C29 1_555 1_555
C30 C25 1_555 1_555
H24 C30 1_555 1_555
O3 C32 1_555 1_555
O4 C32 1_555 1_555
C31 H25 1_555 1_555
H26 C31 1_555 1_555
H27 C31 1_555 1_555
C32 C31 1_555 1_555
C33 O4 1_555 1_555
H28 C33 1_555 1_555
H29 C33 1_555 1_555
C34 C33 1_555 1_555
H30 C34 1_555 1_555
H31 C34 1_555 1_555
H32 C34 1_555 1_555
N3 C8 1_555 1_555
C6 C7 1_555 1_555
C9 C16 1_555 1_555
C14 C15 1_555 1_555
C16 C23 1_555 1_555
C21 C22 1_555 1_555
C29 C30 1_555 1_555

#END
