
#######################################################################
#
#                 Cambridge Crystallographic Data Centre
#                                CCDC 
#
#######################################################################
#
# If this CIF has been generated from an entry in the Cambridge 
# Structural Database, then it will include bibliographic, chemical, 
# crystal, experimental, refinement or atomic coordinate data resulting 
# from the CCDC's data processing and validation procedures.
#
#######################################################################

data_QAGVAV
_chemical_formula_moiety         'C20 H18 N2 2+,2(N1 O3 1-)'
_chemical_name_systematic        
'1,4-bis(2-(4-Pyridinium)ethenyl)benzene dinitrate'
_symmetry_cell_setting           monoclinic
_symmetry_space_group_name_H-M   'P 21/n'
_symmetry_Int_Tables_number      14
_space_group_name_Hall           '-P 2yn'
loop_
_symmetry_equiv_pos_site_id
_symmetry_equiv_pos_as_xyz
1 x,y,z
2 1/2+x,1/2-y,1/2+z
3 -x,-y,-z
4 1/2-x,1/2+y,1/2-z
_cell_length_a                   4.9125(10)
_cell_length_b                   15.747(5)
_cell_length_c                   12.111(3)
_cell_angle_alpha                90
_cell_angle_beta                 92.23(2)
_cell_angle_gamma                90
_cell_volume                     936.163
_exptl_crystal_colour            orange
_exptl_crystal_description       rod
_cell_formula_units_Z            2
loop_
_atom_site_label
_atom_site_type_symbol
_atom_site_fract_x
_atom_site_fract_y
_atom_site_fract_z
N1 N -0.3076(4) 0.83199(11) -0.09051(14)
H1 H -0.1732(4) 0.82002(11) -0.04291(14)
C1 C -0.4136(5) 0.77025(15) -0.1548(2)
H2 H -0.3427(5) 0.71428(15) -0.1482(2)
C2 C -0.6219(4) 0.78638(15) -0.2298(2)
H3 H -0.6943(4) 0.74176(15) -0.2748(2)
C3 C -0.7290(4) 0.86823(15) -0.2405(2)
C4 C -0.6135(5) 0.93151(14) -0.1710(2)
H4 H -0.6814(5) 0.98795(14) -0.1750(2)
C5 C -0.4024(4) 0.91177(14) -0.0973(2)
H5 H -0.3239(4) 0.95474(14) -0.0511(2)
C6 C -0.9477(4) 0.88317(15) -0.3248(2)
H6 H -0.9956(4) 0.83814(15) -0.3740(2)
C7 C -1.0816(4) 0.95598(14) -0.3359(2)
H7 H -1.0354(4) 0.99962(14) -0.2843(2)
C8 C -1.2955(4) 0.97541(14) -0.4208(2)
C9 C -1.3598(4) 0.92442(14) -0.5128(2)
H8 H -1.2653(4) 0.87244(14) -0.5222(2)
C10 C -1.4405(4) 1.05118(14) -0.4097(2)
H9 H -1.4012(4) 1.08668(14) -0.3477(2)
C10B C -1.5595(4) 0.94882(14) -0.5903(2)
C8B C -1.7045(4) 1.02459(14) -0.5792(2)
C7B C -1.9184(4) 1.04402(14) -0.6641(2)
C6B C -2.0523(4) 1.11683(15) -0.6752(2)
C3B C -2.2710(4) 1.13177(15) -0.7595(2)
C2B C -2.3781(4) 1.21362(15) -0.7702(2)
C1B C -2.5864(5) 1.22975(15) -0.8452(2)
N1B N -2.6924(4) 1.16801(11) -0.90949(14)
H1B H -2.8268(4) 1.17998(11) -0.95709(14)
C5B C -2.5976(4) 1.08823(14) -0.9027(2)
C4B C -2.3865(5) 1.06849(14) -0.8290(2)
H4B H -2.3186(5) 1.01205(14) -0.8250(2)
H5B H -2.6761(4) 1.04526(14) -0.9489(2)
H2B H -2.6573(5) 1.28572(15) -0.8518(2)
H3B H -2.3057(4) 1.25824(15) -0.7252(2)
H6B H -2.0044(4) 1.16186(15) -0.6260(2)
H7B H -1.9646(4) 1.00038(14) -0.7157(2)
C9B C -1.6402(4) 1.07558(14) -0.4872(2)
H8B H -1.7347(4) 1.12756(14) -0.4778(2)
H9B H -1.5988(4) 0.91332(14) -0.6523(2)
N2 N -1.2935(4) 0.65355(11) -0.40066(14)
O1 O -1.0834(4) 0.65579(12) -0.34082(15)
O2 O -1.4463(4) 0.59056(11) -0.4007(2)
O3 O -1.3539(3) 0.71528(10) -0.46385(12)
loop_
_geom_bond_atom_site_label_1
_geom_bond_atom_site_label_2
_geom_bond_site_symmetry_1
_geom_bond_site_symmetry_2
N1 H1 1_555 1_555
C1 N1 1_555 1_555
H2 C1 1_555 1_555
C2 C1 1_555 1_555
H3 C2 1_555 1_555
C3 C2 1_555 1_555
C4 C3 1_555 1_555
H4 C4 1_555 1_555
C5 N1 1_555 1_555
H5 C5 1_555 1_555
C6 C3 1_555 1_555
H6 C6 1_555 1_555
C7 C6 1_555 1_555
H7 C7 1_555 1_555
C8 C7 1_555 1_555
C9 C8 1_555 1_555
H8 C9 1_555 1_555
C10 C8 1_555 1_555
H9 C10 1_555 1_555
N2 O1 1_555 1_555
O2 N2 1_555 1_555
O3 N2 1_555 1_555
C10B C9 1_555 1_555
C8B C10B 1_555 1_555
C7B C8B 1_555 1_555
C6B C7B 1_555 1_555
C3B C6B 1_555 1_555
C2B C3B 1_555 1_555
C1B C2B 1_555 1_555
N1B C1B 1_555 1_555
H1B N1B 1_555 1_555
C5B N1B 1_555 1_555
C4B C3B 1_555 1_555
H4B C4B 1_555 1_555
H5B C5B 1_555 1_555
H2B C1B 1_555 1_555
H3B C2B 1_555 1_555
H6B C6B 1_555 1_555
H7B C7B 1_555 1_555
C9B C10 1_555 1_555
H8B C9B 1_555 1_555
H9B C10B 1_555 1_555
C4 C5 1_555 1_555
C8B C9B 1_555 1_555
C5B C4B 1_555 1_555

#END
