
#######################################################################
#
#                 Cambridge Crystallographic Data Centre
#                                CCDC 
#
#######################################################################
#
# If this CIF has been generated from an entry in the Cambridge 
# Structural Database, then it will include bibliographic, chemical, 
# crystal, experimental, refinement or atomic coordinate data resulting 
# from the CCDC's data processing and validation procedures.
#
#######################################################################

data_QAGXII
_chemical_formula_moiety         'C29 H23 N7,C1 H1 Cl3'
_chemical_name_systematic        
'5-(4-(dimethylamino)phenyl)-2-(4-(pyrrolidin-1-yl)phenyl)hexa-1,3,5-triene-1,1,3,6,6-pentacarbonitrile chloroform solvate'
_symmetry_cell_setting           triclinic
_symmetry_space_group_name_H-M   'P -1'
_symmetry_Int_Tables_number      2
_space_group_name_Hall           '-P 1'
loop_
_symmetry_equiv_pos_site_id
_symmetry_equiv_pos_as_xyz
1 x,y,z
2 -x,-y,-z
_cell_length_a                   9.1862(3)
_cell_length_b                   11.9442(5)
_cell_length_c                   14.8114(5)
_cell_angle_alpha                106.527(2)
_cell_angle_beta                 97.798(2)
_cell_angle_gamma                110.162(2)
_cell_volume                     1412.33
_exptl_crystal_colour            black
_cell_formula_units_Z            2
loop_
_atom_site_label
_atom_site_type_symbol
_atom_site_fract_x
_atom_site_fract_y
_atom_site_fract_z
Cl1 Cl 0.93879(8) 0.34089(6) 0.22748(4)
Cl2 Cl 0.66165(9) 0.18621(7) 0.06141(5)
Cl3 Cl 0.97106(9) 0.30838(7) 0.03078(5)
C1 C 0.8448(3) 0.3199(3) 0.10869(18)
H1 H 0.827(3) 0.393(3) 0.1141(18)
N1 N 0.1081(3) 0.4272(2) 0.45820(14)
N2 N -0.0522(3) 0.1350(2) 0.5789(2)
N3 N 0.8432(2) 0.86304(18) 0.77079(14)
N4 N 0.5287(2) 0.10971(18) 0.37781(13)
N5 N 0.6889(2) 0.4865(2) 1.01993(14)
N6 N 0.9371(3) 0.3654(2) 0.80970(14)
N7 N 0.3162(3) 0.2089(2) 0.92238(15)
C2 C 0.1358(3) 0.3988(2) 0.52383(17)
C3 C 0.1605(3) 0.3541(2) 0.60264(16)
C4 C 0.2875(3) 0.4152(2) 0.68513(15)
C5 C 0.2717(3) 0.3532(2) 0.75846(16)
H2 H 0.175(3) 0.334(2) 0.7799(17)
C6 C 0.3826(3) 0.3179(2) 0.79631(15)
C7 C 0.5340(3) 0.3307(2) 0.76684(15)
C8 C 0.6742(3) 0.3823(2) 0.83904(16)
C9 C 0.8195(3) 0.3741(2) 0.82111(16)
C10 C 0.0405(3) 0.2333(3) 0.58908(18)
C11 C 0.4262(3) 0.5308(2) 0.70519(15)
C12 C 0.4850(3) 0.5694(2) 0.63167(16)
H3 H 0.438(3) 0.517(2) 0.5618(19)
C13 C 0.6220(3) 0.6761(2) 0.65243(16)
H4 H 0.663(3) 0.696(2) 0.5991(16)
C14 C 0.7084(3) 0.7555(2) 0.75002(16)
C15 C 0.6477(3) 0.7185(2) 0.82396(16)
H5 H 0.700(3) 0.772(2) 0.8912(17)
C16 C 0.5141(3) 0.6095(2) 0.80193(16)
H6 H 0.473(3) 0.585(2) 0.8496(18)
C17 C 0.9263(3) 0.8872(3) 0.6970(2)
H7 H 0.861(3) 0.885(3) 0.642(2)
H8 H 1.008(5) 0.982(4) 0.736(3)
H9 H 0.966(4) 0.829(3) 0.678(2)
C18 C 0.9311(4) 0.9422(3) 0.8719(2)
H10 H 1.012(3) 1.018(3) 0.8714(18)
H11 H 0.977(3) 0.890(3) 0.9022(19)
H12 H 0.857(4) 0.967(3) 0.907(2)
C19 C 0.5269(3) 0.2831(2) 0.66466(15)
C20 C 0.3938(3) 0.1745(2) 0.59980(16)
H13 H 0.305(3) 0.139(2) 0.6238(16)
C21 C 0.3945(3) 0.1164(2) 0.50566(16)
H14 H 0.307(3) 0.041(2) 0.4675(17)
C22 C 0.5266(3) 0.1674(2) 0.46924(15)
C23 C 0.6549(3) 0.2827(2) 0.53176(16)
H15 H 0.741(3) 0.325(2) 0.5068(16)
C24 C 0.6537(3) 0.3359(2) 0.62639(16)
H16 H 0.731(3) 0.407(2) 0.6606(16)
C25 C 0.3960(3) -0.0085(2) 0.30825(17)
H17 H 0.298(3) 0.004(2) 0.3051(17)
H18 H 0.383(3) -0.080(2) 0.3353(17)
C26 C 0.4482(4) -0.0223(3) 0.21431(18)
H19 H 0.404(3) 0.025(3) 0.1779(19)
H20 H 0.406(4) -0.111(3) 0.171(2)
C27 C 0.6290(3) 0.0362(3) 0.24797(18)
H21 H 0.683(3) 0.062(2) 0.1998(18)
H22 H 0.667(3) -0.025(3) 0.2716(19)
C28 C 0.6645(3) 0.1521(3) 0.33665(18)
H23 H 0.767(3) 0.180(2) 0.3856(18)
H24 H 0.670(3) 0.225(2) 0.3204(17)
C29 C 0.6818(3) 0.4403(2) 0.93926(16)
C30 C 0.3471(3) 0.2596(2) 0.86823(16)
loop_
_geom_bond_atom_site_label_1
_geom_bond_atom_site_label_2
_geom_bond_site_symmetry_1
_geom_bond_site_symmetry_2
Cl1 C1 1_555 1_555
Cl2 C1 1_555 1_555
Cl3 C1 1_555 1_555
C1 H1 1_555 1_555
N1 C2 1_555 1_555
N2 C10 1_555 1_555
N3 C14 1_555 1_555
N4 C22 1_555 1_555
N5 C29 1_555 1_555
N6 C9 1_555 1_555
N7 C30 1_555 1_555
C2 C3 1_555 1_555
C3 C4 1_555 1_555
C4 C5 1_555 1_555
C5 H2 1_555 1_555
C6 C5 1_555 1_555
C7 C6 1_555 1_555
C8 C7 1_555 1_555
C9 C8 1_555 1_555
C10 C3 1_555 1_555
C11 C4 1_555 1_555
C12 C11 1_555 1_555
H3 C12 1_555 1_555
C13 C12 1_555 1_555
H4 C13 1_555 1_555
C14 C13 1_555 1_555
C15 C14 1_555 1_555
H5 C15 1_555 1_555
C16 C11 1_555 1_555
H6 C16 1_555 1_555
C17 N3 1_555 1_555
H7 C17 1_555 1_555
H8 C17 1_555 1_555
H9 C17 1_555 1_555
C18 N3 1_555 1_555
H10 C18 1_555 1_555
H11 C18 1_555 1_555
H12 C18 1_555 1_555
C19 C7 1_555 1_555
C20 C19 1_555 1_555
H13 C20 1_555 1_555
C21 C20 1_555 1_555
H14 C21 1_555 1_555
C22 C21 1_555 1_555
C23 C22 1_555 1_555
H15 C23 1_555 1_555
C24 C19 1_555 1_555
H16 C24 1_555 1_555
C25 N4 1_555 1_555
H17 C25 1_555 1_555
H18 C25 1_555 1_555
C26 C25 1_555 1_555
H19 C26 1_555 1_555
H20 C26 1_555 1_555
C27 C26 1_555 1_555
H21 C27 1_555 1_555
H22 C27 1_555 1_555
C28 N4 1_555 1_555
H23 C28 1_555 1_555
H24 C28 1_555 1_555
C29 C8 1_555 1_555
C30 C6 1_555 1_555
C15 C16 1_555 1_555
C23 C24 1_555 1_555
C27 C28 1_555 1_555

#END
