
#######################################################################
#
#                 Cambridge Crystallographic Data Centre
#                                CCDC 
#
#######################################################################
#
# If this CIF has been generated from an entry in the Cambridge 
# Structural Database, then it will include bibliographic, chemical, 
# crystal, experimental, refinement or atomic coordinate data resulting 
# from the CCDC's data processing and validation procedures.
#
#######################################################################

data_QAGXOO
_chemical_formula_moiety         'C37 H32 N8,C1 H2 Cl2'
_chemical_name_systematic        
'2,4,7-tris(4-(dimethylamino)phenyl)octa-1,3,5,7-tetraene-1,1,3,8,8-pentacarbonitrile dichloromethane solvate'
_symmetry_cell_setting           triclinic
_symmetry_space_group_name_H-M   'P -1'
_symmetry_Int_Tables_number      2
_space_group_name_Hall           '-P 1'
loop_
_symmetry_equiv_pos_site_id
_symmetry_equiv_pos_as_xyz
1 x,y,z
2 -x,-y,-z
_cell_length_a                   10.9767(4)
_cell_length_b                   11.4460(6)
_cell_length_c                   16.6130(8)
_cell_angle_alpha                94.177(2)
_cell_angle_beta                 93.6006(13)
_cell_angle_gamma                106.993(2)
_cell_volume                     1983.06
_exptl_crystal_colour            'dark red'
_exptl_crystal_description       needle
_cell_formula_units_Z            2
loop_
_atom_site_label
_atom_site_type_symbol
_atom_site_fract_x
_atom_site_fract_y
_atom_site_fract_z
N1 N 0.5657(5) -0.3540(6) -0.0151(3)
N2 N 0.3115(6) -0.1224(6) -0.0115(4)
N3 N 0.4959(5) 0.3115(5) 0.4649(3)
N4 N 0.7741(5) -0.1137(6) 0.4836(4)
N5 N 0.3935(5) -0.1313(6) 0.3914(3)
N6 N 1.0356(5) -0.1667(6) 0.2523(3)
N7 N 0.0368(5) 0.1884(6) 0.1602(3)
N8 N 1.1602(5) 0.4642(5) 0.4274(3)
C1 C 0.5395(5) -0.2738(6) 0.0163(3)
C2 C 0.5011(5) -0.1764(6) 0.0555(3)
C3 C 0.5637(5) -0.1145(6) 0.1291(3)
C4 C 0.5039(5) -0.0347(6) 0.1746(3)
C5 C 0.5642(5) 0.0488(6) 0.2363(3)
C6 C 0.5036(5) 0.1211(6) 0.2862(3)
C7 C 0.5601(5) 0.1651(5) 0.3623(3)
C8 C 0.5206(5) 0.2462(6) 0.4170(4)
C9 C 0.3946(6) -0.1483(6) 0.0175(4)
C10 C 0.6678(5) 0.1228(6) 0.3987(3)
C11 C 0.6305(5) 0.0044(6) 0.4171(3)
C12 C 0.7121(6) -0.0602(6) 0.4552(4)
C13 C 0.5004(5) -0.0691(6) 0.4036(4)
C14 C 0.6850(5) -0.1283(6) 0.1601(3)
C15 C 0.7057(5) -0.1504(6) 0.2424(3)
C16 C 0.8194(6) -0.1645(6) 0.2725(4)
C17 C 0.9229(6) -0.1558(6) 0.2226(4)
C18 C 0.9005(6) -0.1352(6) 0.1408(4)
C19 C 0.7843(5) -0.1231(6) 0.1110(4)
C20 C 1.0593(7) -0.1699(8) 0.3400(4)
C21 C 1.1393(6) -0.1637(7) 0.2010(4)
C22 C 0.3842(5) 0.1444(6) 0.2562(3)
C23 C 0.2816(5) 0.1376(6) 0.3041(4)
C24 C 0.1682(5) 0.1513(6) 0.2739(3)
C25 C 0.1500(6) 0.1763(6) 0.1922(3)
C26 C 0.2520(5) 0.1823(6) 0.1433(4)
C27 C 0.3651(6) 0.1665(6) 0.1740(4)
C28 C -0.0684(6) 0.1820(7) 0.2113(4)
C29 C 0.0142(7) 0.1954(8) 0.0751(4)
C30 C 0.7938(5) 0.2099(5) 0.4081(3)
C31 C 0.9050(5) 0.1833(6) 0.4435(3)
C32 C 1.0240(6) 0.2666(6) 0.4487(3)
C33 C 1.0434(5) 0.3857(6) 0.4219(4)
C34 C 0.9324(5) 0.4137(6) 0.3891(3)
C35 C 0.8160(5) 0.3277(6) 0.3831(3)
C36 C 1.2718(6) 0.4300(7) 0.4572(5)
C37 C 1.1794(6) 0.5922(6) 0.4031(4)
H1 H 0.4066 -0.0435 0.1577
H2 H 0.6635 0.0630 0.2495
H3 H 0.6317 -0.1561 0.2812
H4 H 0.8309 -0.1822 0.3338
H5 H 0.9740 -0.1288 0.1014
H6 H 0.7707 -0.1095 0.0491
H7 H 1.0532 -0.0861 0.3714
H8 H 1.1535 -0.1789 0.3534
H9 H 0.9886 -0.2473 0.3598
H10 H 1.1178 -0.2499 0.1639
H11 H 1.2273 -0.1491 0.2387
H12 H 1.1497 -0.0899 0.1626
H13 H 0.2925 0.1212 0.3657
H14 H 0.0928 0.1432 0.3120
H15 H 0.2413 0.1992 0.0818
H16 H 0.4394 0.1709 0.1354
H17 H -0.0866 0.0999 0.2425
H18 H -0.1534 0.1798 0.1739
H19 H -0.0430 0.2615 0.2551
H20 H 0.0680 0.2848 0.0596
H21 H -0.0865 0.1811 0.0598
H22 H 0.0442 0.1256 0.0416
H23 H 0.8941 0.0969 0.4661
H24 H 1.1036 0.2420 0.4731
H25 H 0.9412 0.5016 0.3694
H26 H 0.7366 0.3516 0.3577
H27 H 1.2668 0.4158 0.5206
H28 H 1.3577 0.5026 0.4497
H29 H 1.2736 0.3464 0.4234
H30 H 1.1562 0.5881 0.3386
H31 H 1.2779 0.6460 0.4184
H32 H 1.1178 0.6342 0.4350
Cl1 Cl 0.6915(8) 0.4047(5) 0.1840(3)
C38 C 0.7323(10) 0.5259(11) 0.1231(8)
Cl2 Cl 0.8926(6) 0.5255(8) 0.1241(11)
H33 H 0.7219 0.6102 0.1512
H34 H 0.6820 0.5040 0.0633
Cl4 Cl 0.6110(7) 0.3689(6) -0.2295(5)
C39 C 0.7102(19) 0.496(2) -0.1674(14)
Cl5 Cl 0.7700(8) 0.4428(8) -0.0849(5)
H35 H 0.6560 0.5569 -0.1483
H36 H 0.7874 0.5469 -0.2002
Cl3? Cl 0.8187(10) 0.5111(11) 0.0376(7)
Cl6? Cl 0.8755(12) 0.5114(12) -0.1738(8)
loop_
_geom_bond_atom_site_label_1
_geom_bond_atom_site_label_2
_geom_bond_site_symmetry_1
_geom_bond_site_symmetry_2
N1 C1 1_555 1_555
N2 C9 1_555 1_555
N3 C8 1_555 1_555
N4 C12 1_555 1_555
N5 C13 1_555 1_555
N6 C17 1_555 1_555
N7 C25 1_555 1_555
N8 C33 1_555 1_555
C1 C2 1_555 1_555
C2 C3 1_555 1_555
C3 C4 1_555 1_555
C4 C5 1_555 1_555
C5 C6 1_555 1_555
C6 C7 1_555 1_555
C7 C8 1_555 1_555
C9 C2 1_555 1_555
C10 C7 1_555 1_555
C11 C10 1_555 1_555
C12 C11 1_555 1_555
C13 C11 1_555 1_555
C14 C3 1_555 1_555
C15 C14 1_555 1_555
C16 C15 1_555 1_555
C17 C16 1_555 1_555
C18 C17 1_555 1_555
C19 C14 1_555 1_555
C20 N6 1_555 1_555
C21 N6 1_555 1_555
C22 C6 1_555 1_555
C23 C22 1_555 1_555
C24 C23 1_555 1_555
C25 C24 1_555 1_555
C26 C25 1_555 1_555
C27 C22 1_555 1_555
C28 N7 1_555 1_555
C29 N7 1_555 1_555
C30 C10 1_555 1_555
C31 C30 1_555 1_555
C32 C31 1_555 1_555
C33 C32 1_555 1_555
C34 C33 1_555 1_555
C35 C30 1_555 1_555
C36 N8 1_555 1_555
C37 N8 1_555 1_555
H1 C4 1_555 1_555
H2 C5 1_555 1_555
H3 C15 1_555 1_555
H4 C16 1_555 1_555
H5 C18 1_555 1_555
H6 C19 1_555 1_555
H7 C20 1_555 1_555
H8 C20 1_555 1_555
H9 C20 1_555 1_555
H10 C21 1_555 1_555
H11 C21 1_555 1_555
H12 C21 1_555 1_555
H13 C23 1_555 1_555
H14 C24 1_555 1_555
H15 C26 1_555 1_555
H16 C27 1_555 1_555
H17 C28 1_555 1_555
H18 C28 1_555 1_555
H19 C28 1_555 1_555
H20 C29 1_555 1_555
H21 C29 1_555 1_555
H22 C29 1_555 1_555
H23 C31 1_555 1_555
H24 C32 1_555 1_555
H25 C34 1_555 1_555
H26 C35 1_555 1_555
H27 C36 1_555 1_555
H28 C36 1_555 1_555
H29 C36 1_555 1_555
H30 C37 1_555 1_555
H31 C37 1_555 1_555
H32 C37 1_555 1_555
Cl1 C38 1_555 1_555
C38 Cl2 1_555 1_555
H33 C38 1_555 1_555
H34 C38 1_555 1_555
Cl4 C39 1_555 1_555
C39 Cl5 1_555 1_555
H35 C39 1_555 1_555
H36 C39 1_555 1_555
C18 C19 1_555 1_555
C26 C27 1_555 1_555
C34 C35 1_555 1_555

#END
