
#######################################################################
#
#                 Cambridge Crystallographic Data Centre
#                                CCDC 
#
#######################################################################
#
# If this CIF has been generated from an entry in the Cambridge 
# Structural Database, then it will include bibliographic, chemical, 
# crystal, experimental, refinement or atomic coordinate data resulting 
# from the CCDC's data processing and validation procedures.
#
#######################################################################

data_QAGXUU
_chemical_formula_moiety         'C38 H46 N6'
_chemical_name_systematic        
2,5-bis(4-(dibutylamino)phenyl)hexa-1,3,5-triene-1,1,6,6-tetracarbonitrile
_symmetry_cell_setting           monoclinic
_symmetry_space_group_name_H-M   'P 21/c'
_symmetry_Int_Tables_number      14
_space_group_name_Hall           '-P 2ybc'
loop_
_symmetry_equiv_pos_site_id
_symmetry_equiv_pos_as_xyz
1 x,y,z
2 -x,1/2+y,1/2-z
3 -x,-y,-z
4 x,1/2-y,1/2+z
_cell_length_a                   9.8523(3)
_cell_length_b                   28.5180(11)
_cell_length_c                   13.2470(5)
_cell_angle_alpha                90
_cell_angle_beta                 111.422(2)
_cell_angle_gamma                90
_cell_volume                     3464.85
_exptl_crystal_colour            black
_exptl_crystal_description       rod
_cell_formula_units_Z            4
loop_
_atom_site_label
_atom_site_type_symbol
_atom_site_fract_x
_atom_site_fract_y
_atom_site_fract_z
N1 N 0.7621(3) -0.11395(8) 0.8292(2)
N2 N 0.4850(3) -0.00176(8) 0.6557(2)
N3 N 0.7146(2) 0.20347(7) 0.84191(18)
C1 C 0.9601(3) -0.01097(8) 0.95394(19)
C2 C 0.8240(3) 0.00778(8) 0.87607(19)
C3 C 0.7246(3) -0.02408(8) 0.81179(19)
C4 C 0.7478(3) -0.07380(9) 0.8233(2)
C5 C 0.5912(3) -0.01096(9) 0.7254(2)
C6 C 0.7968(3) 0.05802(8) 0.86962(19)
C7 C 0.9080(3) 0.09066(8) 0.8789(2)
C8 C 0.8821(3) 0.13788(8) 0.8685(2)
C9 C 0.7419(3) 0.15670(8) 0.8510(2)
C10 C 0.6304(3) 0.12394(8) 0.8439(2)
C11 C 0.6569(3) 0.07659(8) 0.8513(2)
C12 C 0.5679(3) 0.22228(9) 0.8205(2)
C13 C 0.5349(3) 0.22752(9) 0.9245(2)
C14 C 0.3800(3) 0.24545(10) 0.9011(2)
C15 C 0.3496(4) 0.25237(13) 1.0051(3)
C16 C 0.8282(3) 0.23809(9) 0.8500(2)
C17 C 0.8480(3) 0.24589(9) 0.7422(2)
C18 C 0.9571(3) 0.28480(9) 0.7501(2)
C19 C 0.9729(3) 0.29389(10) 0.6406(2)
H1 H 0.9952 -0.0415 0.9378
H2 H 1.0081 0.0791 0.8933
H3 H 0.9630 0.1594 0.8733
H4 H 0.5313 0.1355 0.8333
H5 H 0.5755 0.0548 0.8436
H6 H 0.4883 0.1992 0.7652
H7 H 0.5582 0.2561 0.7818
H8 H 0.5484 0.1940 0.9648
H9 H 0.6121 0.2517 0.9786
H10 H 0.3652 0.2784 0.8582
H11 H 0.3027 0.2207 0.8496
H12 H 0.3634 0.2194 1.0479
H13 H 0.2392 0.2647 0.9852
H14 H 0.4248 0.2779 1.0559
H15 H 0.9303 0.2264 0.9096
H16 H 0.8002 0.2710 0.8776
H17 H 0.8854 0.2138 0.7178
H18 H 0.7441 0.2549 0.6808
H19 H 1.0620 0.2752 0.8094
H20 H 0.9218 0.3166 0.7773
H21 H 1.0128 0.2626 0.6148
H22 H 1.0490 0.3223 0.6492
H23 H 0.8681 0.3032 0.5809
N1B N 1.2379(3) 0.11395(8) 1.1708(2)
N2B N 1.5150(3) 0.00176(8) 1.3443(2)
N3B N 1.2854(2) -0.20347(7) 1.15809(18)
C1B C 1.0399(3) 0.01097(8) 1.04606(19)
C2B C 1.1760(3) -0.00778(8) 1.12393(19)
C3B C 1.2754(3) 0.02408(8) 1.18821(19)
C4B C 1.2522(3) 0.07380(9) 1.1767(2)
C5B C 1.4088(3) 0.01096(9) 1.2746(2)
C6B C 1.2032(3) -0.05802(8) 1.13038(19)
C7B C 1.0920(3) -0.09066(8) 1.1211(2)
C8B C 1.1179(3) -0.13788(8) 1.1315(2)
C9B C 1.2581(3) -0.15670(8) 1.1490(2)
C10B C 1.3696(3) -0.12394(8) 1.1561(2)
C11B C 1.3431(3) -0.07659(8) 1.1487(2)
C12B C 1.4321(3) -0.22228(9) 1.1795(2)
C13B C 1.4651(3) -0.22752(9) 1.0755(2)
C14B C 1.6200(3) -0.24545(10) 1.0989(2)
C15B C 1.6504(4) -0.25237(13) 0.9949(3)
C16B C 1.1718(3) -0.23809(9) 1.1500(2)
C17B C 1.1520(3) -0.24589(9) 1.2578(2)
C18B C 1.0429(3) -0.28480(9) 1.2499(2)
C19B C 1.0271(3) -0.29389(10) 1.3594(2)
H1B H 1.0048 0.0415 1.0622
H2B H 0.9919 -0.0791 1.1067
H3B H 1.0370 -0.1594 1.1267
H4B H 1.4687 -0.1355 1.1667
H5B H 1.4245 -0.0548 1.1564
H6B H 1.5117 -0.1992 1.2348
H7B H 1.4418 -0.2561 1.2182
H8B H 1.4516 -0.1940 1.0352
H9B H 1.3879 -0.2517 1.0214
H10B H 1.6348 -0.2784 1.1418
H11B H 1.6973 -0.2207 1.1504
H12B H 1.6366 -0.2194 0.9521
H13B H 1.7608 -0.2647 1.0148
H14B H 1.5752 -0.2779 0.9441
H15B H 1.0697 -0.2264 1.0904
H16B H 1.1998 -0.2710 1.1224
H17B H 1.1146 -0.2138 1.2822
H18B H 1.2559 -0.2549 1.3192
H19B H 0.9380 -0.2752 1.1906
H20B H 1.0782 -0.3166 1.2227
H21B H 0.9872 -0.2626 1.3852
H22B H 0.9510 -0.3223 1.3508
H23B H 1.1319 -0.3032 1.4191
N4 N 0.6097(2) 0.16571(8) 0.2197(2)
N5 N 0.2726(3) 0.11887(8) -0.0833(2)
N6 N 1.1324(2) 0.02333(7) 0.40344(17)
C20 C 0.5093(3) 0.09979(8) 0.0783(2)
C21 C 0.5711(3) 0.05571(8) 0.08635(19)
C22 C 0.4759(3) 0.01939(8) 0.01696(19)
C23 C 0.5681(3) 0.13626(9) 0.1565(2)
C24 C 0.3763(3) 0.11071(9) -0.0095(2)
C25 C 0.7193(3) 0.04571(8) 0.15940(19)
C26 C 0.8283(3) 0.08063(8) 0.1867(2)
C27 C 0.9655(3) 0.07320(8) 0.2636(2)
C28 C 1.0035(3) 0.02983(8) 0.31917(19)
C29 C 0.8990(3) -0.00655(9) 0.2837(2)
C30 C 0.7615(3) 0.00172(8) 0.2083(2)
C31 C 1.2451(3) 0.05978(9) 0.4432(2)
C32 C 1.2553(6) 0.08783(14) 0.5413(3)
C33 C 1.1309(4) 0.12374(14) 0.5158(3)
C34 C 1.1333(7) 0.15085(19) 0.6168(4)
C35 C 1.1612(3) -0.01971(9) 0.4697(2)
C36 C 1.2407(3) -0.05816(9) 0.4335(2)
C37 C 1.2734(3) -0.09979(9) 0.5100(3)
C38 C 1.3631(4) -0.13768(11) 0.4838(4)
H24 H 0.3692 0.0238 -0.0063
H25 H 0.8057 0.1114 0.1496
H26 H 1.0388 0.0986 0.2803
H27 H 0.9252 -0.0385 0.3136
H28 H 0.6900 -0.0243 0.1880
H29 H 1.2296 0.0842 0.3775
H30 H 1.3495 0.0431 0.4599
H31 H 1.3587 0.1060 0.5712
H32 H 1.2514 0.0644 0.6043
H33 H 1.0278 0.1057 0.4808
H34 H 1.1392 0.1484 0.4564
H35 H 1.1217 0.1265 0.6756
H36 H 1.0443 0.1757 0.5940
H37 H 1.2355 0.1694 0.6516
H38 H 1.0584 -0.0335 0.4683
H39 H 1.2252 -0.0106 0.5526
H40 H 1.1743 -0.0695 0.3527
H41 H 1.3415 -0.0444 0.4310
H42 H 1.3311 -0.0876 0.5916
H43 H 1.1716 -0.1149 0.5074
H44 H 1.3072 -0.1499 0.4019
H45 H 1.3780 -0.1666 0.5395
H46 H 1.4682 -0.1236 0.4915
N4B N 0.3903(2) -0.16571(8) -0.2197(2)
N5B N 0.7274(3) -0.11887(8) 0.0833(2)
N6B N -0.1324(2) -0.02333(7) -0.40344(17)
C20B C 0.4907(3) -0.09979(8) -0.0783(2)
C21B C 0.4289(3) -0.05571(8) -0.08635(19)
C22B C 0.5241(3) -0.01939(8) -0.01696(19)
C23B C 0.4319(3) -0.13626(9) -0.1565(2)
C24B C 0.6237(3) -0.11071(9) 0.0095(2)
C25B C 0.2807(3) -0.04571(8) -0.15940(19)
C26B C 0.1717(3) -0.08063(8) -0.1867(2)
C27B C 0.0345(3) -0.07320(8) -0.2636(2)
C28B C -0.0035(3) -0.02983(8) -0.31917(19)
C29B C 0.1010(3) 0.00655(9) -0.2837(2)
C30B C 0.2385(3) -0.00172(8) -0.2083(2)
C31B C -0.2451(3) -0.05978(9) -0.4432(2)
C32B C -0.2553(6) -0.08783(14) -0.5413(3)
C33B C -0.1309(4) -0.12374(14) -0.5158(3)
C34B C -0.1333(7) -0.15085(19) -0.6168(4)
C35B C -0.1612(3) 0.01971(9) -0.4697(2)
C36B C -0.2407(3) 0.05816(9) -0.4335(2)
C37B C -0.2734(3) 0.09979(9) -0.5100(3)
C38B C -0.3631(4) 0.13768(11) -0.4838(4)
H24B H 0.6308 -0.0238 0.0063
H25B H 0.1943 -0.1114 -0.1496
H26B H -0.0388 -0.0986 -0.2803
H27B H 0.0748 0.0385 -0.3136
H28B H 0.3100 0.0243 -0.1880
H29B H -0.2296 -0.0842 -0.3775
H30B H -0.3495 -0.0431 -0.4599
H31B H -0.3587 -0.1060 -0.5712
H32B H -0.2514 -0.0644 -0.6043
H33B H -0.0278 -0.1057 -0.4808
H34B H -0.1392 -0.1484 -0.4564
H35B H -0.1217 -0.1265 -0.6756
H36B H -0.0443 -0.1757 -0.5940
H37B H -0.2355 -0.1694 -0.6516
H38B H -0.0584 0.0335 -0.4683
H39B H -0.2252 0.0106 -0.5526
H40B H -0.1743 0.0695 -0.3527
H41B H -0.3415 0.0444 -0.4310
H42B H -0.3311 0.0876 -0.5916
H43B H -0.1716 0.1149 -0.5074
H44B H -0.3072 0.1499 -0.4019
H45B H -0.3780 0.1666 -0.5395
H46B H -0.4682 0.1236 -0.4915
C39? C 1.1781(14) 0.0904(4) 0.5174(9)
C40? C 1.2584(10) 0.1348(3) 0.5592(7)
C41? C 1.1865(14) 0.1631(5) 0.6242(11)
H47? H 1.0658 0.0987 0.4699
H48? H 1.1792 0.0693 0.5853
H49? H 1.2611 0.1557 0.4919
H50? H 1.3694 0.1268 0.6102
H51? H 1.0730 0.1689 0.5754
H52? H 1.2410 0.1965 0.6466
H53? H 1.1947 0.1440 0.6966
loop_
_geom_bond_atom_site_label_1
_geom_bond_atom_site_label_2
_geom_bond_site_symmetry_1
_geom_bond_site_symmetry_2
N1 C4 1_555 1_555
N2 C5 1_555 1_555
N3 C9 1_555 1_555
C1 C2 1_555 1_555
C2 C3 1_555 1_555
C3 C4 1_555 1_555
C5 C3 1_555 1_555
C6 C2 1_555 1_555
C7 C6 1_555 1_555
C8 C7 1_555 1_555
C9 C8 1_555 1_555
C10 C9 1_555 1_555
C11 C6 1_555 1_555
C12 N3 1_555 1_555
C13 C12 1_555 1_555
C14 C13 1_555 1_555
C15 C14 1_555 1_555
C16 N3 1_555 1_555
C17 C16 1_555 1_555
C18 C17 1_555 1_555
C19 C18 1_555 1_555
H1 C1 1_555 1_555
H2 C7 1_555 1_555
H3 C8 1_555 1_555
H4 C10 1_555 1_555
H5 C11 1_555 1_555
H6 C12 1_555 1_555
H7 C12 1_555 1_555
H8 C13 1_555 1_555
H9 C13 1_555 1_555
H10 C14 1_555 1_555
H11 C14 1_555 1_555
H12 C15 1_555 1_555
H13 C15 1_555 1_555
H14 C15 1_555 1_555
H15 C16 1_555 1_555
H16 C16 1_555 1_555
H17 C17 1_555 1_555
H18 C17 1_555 1_555
H19 C18 1_555 1_555
H20 C18 1_555 1_555
H21 C19 1_555 1_555
H22 C19 1_555 1_555
H23 C19 1_555 1_555
N4 C23 1_555 1_555
N5 C24 1_555 1_555
N6 C28 1_555 1_555
C20 C21 1_555 1_555
C21 C22 1_555 1_555
C22 H24 1_555 1_555
C23 C20 1_555 1_555
C24 C20 1_555 1_555
C25 C21 1_555 1_555
C26 C25 1_555 1_555
C27 C26 1_555 1_555
C28 C27 1_555 1_555
C29 C28 1_555 1_555
C30 C25 1_555 1_555
C31 N6 1_555 1_555
C32 C31 1_555 1_555
C33 C32 1_555 1_555
C34 C33 1_555 1_555
C35 N6 1_555 1_555
C36 C35 1_555 1_555
C37 C36 1_555 1_555
C38 C37 1_555 1_555
H25 C26 1_555 1_555
H26 C27 1_555 1_555
H27 C29 1_555 1_555
H28 C30 1_555 1_555
H29 C31 1_555 1_555
H30 C31 1_555 1_555
H31 C32 1_555 1_555
H32 C32 1_555 1_555
H33 C33 1_555 1_555
H34 C33 1_555 1_555
H35 C34 1_555 1_555
H36 C34 1_555 1_555
H37 C34 1_555 1_555
H38 C35 1_555 1_555
H39 C35 1_555 1_555
H40 C36 1_555 1_555
H41 C36 1_555 1_555
H42 C37 1_555 1_555
H43 C37 1_555 1_555
H44 C38 1_555 1_555
H45 C38 1_555 1_555
H46 C38 1_555 1_555
N1B C4B 1_555 1_555
N2B C5B 1_555 1_555
N3B C9B 1_555 1_555
C1B C1 1_555 1_555
C2B C1B 1_555 1_555
C3B C2B 1_555 1_555
C4B C3B 1_555 1_555
C5B C3B 1_555 1_555
C6B C2B 1_555 1_555
C7B C6B 1_555 1_555
C8B C7B 1_555 1_555
C9B C8B 1_555 1_555
C10B C9B 1_555 1_555
C11B C6B 1_555 1_555
C12B N3B 1_555 1_555
C13B C12B 1_555 1_555
C14B C13B 1_555 1_555
C15B C14B 1_555 1_555
C16B N3B 1_555 1_555
C17B C16B 1_555 1_555
C18B C17B 1_555 1_555
C19B C18B 1_555 1_555
H1B C1B 1_555 1_555
H2B C7B 1_555 1_555
H3B C8B 1_555 1_555
H4B C10B 1_555 1_555
H5B C11B 1_555 1_555
H6B C12B 1_555 1_555
H7B C12B 1_555 1_555
H8B C13B 1_555 1_555
H9B C13B 1_555 1_555
H10B C14B 1_555 1_555
H11B C14B 1_555 1_555
H12B C15B 1_555 1_555
H13B C15B 1_555 1_555
H14B C15B 1_555 1_555
H15B C16B 1_555 1_555
H16B C16B 1_555 1_555
H17B C17B 1_555 1_555
H18B C17B 1_555 1_555
H19B C18B 1_555 1_555
H20B C18B 1_555 1_555
H21B C19B 1_555 1_555
H22B C19B 1_555 1_555
H23B C19B 1_555 1_555
N4B C23B 1_555 1_555
N5B C24B 1_555 1_555
N6B C28B 1_555 1_555
C20B C21B 1_555 1_555
C21B C22B 1_555 1_555
C22B C22 1_555 1_555
C23B C20B 1_555 1_555
C24B C20B 1_555 1_555
C25B C21B 1_555 1_555
C26B C25B 1_555 1_555
C27B C26B 1_555 1_555
C28B C27B 1_555 1_555
C29B C28B 1_555 1_555
C30B C25B 1_555 1_555
C31B N6B 1_555 1_555
C32B C31B 1_555 1_555
C33B C32B 1_555 1_555
C34B C33B 1_555 1_555
C35B N6B 1_555 1_555
C36B C35B 1_555 1_555
C37B C36B 1_555 1_555
C38B C37B 1_555 1_555
H24B C22B 1_555 1_555
H25B C26B 1_555 1_555
H26B C27B 1_555 1_555
H27B C29B 1_555 1_555
H28B C30B 1_555 1_555
H29B C31B 1_555 1_555
H30B C31B 1_555 1_555
H31B C32B 1_555 1_555
H32B C32B 1_555 1_555
H33B C33B 1_555 1_555
H34B C33B 1_555 1_555
H35B C34B 1_555 1_555
H36B C34B 1_555 1_555
H37B C34B 1_555 1_555
H38B C35B 1_555 1_555
H39B C35B 1_555 1_555
H40B C36B 1_555 1_555
H41B C36B 1_555 1_555
H42B C37B 1_555 1_555
H43B C37B 1_555 1_555
H44B C38B 1_555 1_555
H45B C38B 1_555 1_555
H46B C38B 1_555 1_555
C10 C11 1_555 1_555
C29 C30 1_555 1_555
C10B C11B 1_555 1_555
C29B C30B 1_555 1_555

#END
