
#######################################################################
#
#                 Cambridge Crystallographic Data Centre
#                                CCDC 
#
#######################################################################
#
# If this CIF has been generated from an entry in the Cambridge 
# Structural Database, then it will include bibliographic, chemical, 
# crystal, experimental, refinement or atomic coordinate data resulting 
# from the CCDC's data processing and validation procedures.
#
#######################################################################

data_QAGYOP
_chemical_formula_moiety         'C29 H23 N7'
_chemical_name_systematic        
5-(4-(dimethylamino)phenyl)-2-(4-(pyrrolidin-1-yl)phenyl)hexa-1,3,5-triene-1,1,3,6,6-pentacarbonitrile
_symmetry_cell_setting           triclinic
_symmetry_space_group_name_H-M   'P -1'
_symmetry_Int_Tables_number      2
_space_group_name_Hall           '-P 1'
loop_
_symmetry_equiv_pos_site_id
_symmetry_equiv_pos_as_xyz
1 x,y,z
2 -x,-y,-z
_cell_length_a                   8.9930(8)
_cell_length_b                   9.8212(9)
_cell_length_c                   15.1041(14)
_cell_angle_alpha                94.013(5)
_cell_angle_beta                 96.665(4)
_cell_angle_gamma                109.521(4)
_cell_volume                     1240.39
_exptl_crystal_colour            bronze
_exptl_crystal_description       plate
_cell_formula_units_Z            2
loop_
_atom_site_label
_atom_site_type_symbol
_atom_site_fract_x
_atom_site_fract_y
_atom_site_fract_z
C1 C 0.7174(4) 0.3985(4) 0.0598(2)
C2 C 0.8912(4) 0.1840(4) -0.1396(2)
C3 C 0.7765(4) 0.3299(4) -0.0075(2)
N1 N 0.9462(4) 0.1152(4) -0.2017(2)
C4 C 0.8589(4) 0.1276(5) -0.0575(2)
H1 H 0.8749 0.0394 -0.0457
N2 N 0.2826(4) 0.4268(4) 0.4862(2)
C5 C 0.4495(4) 0.2114(5) 0.2921(2)
C6 C 0.8077(4) 0.3836(5) -0.0907(3)
H2 H 0.7904 0.4713 -0.1025
C7 C 0.6736(4) 0.3187(4) 0.1402(2)
C8 C 0.4981(4) 0.1347(5) 0.2223(2)
C9 C 0.8047(4) 0.1996(4) 0.0049(3)
H3 H 0.7849 0.1593 0.0596
N3 N 0.7711(4) 0.7198(4) -0.0500(2)
C10 C 0.5578(4) -0.0612(5) 0.1449(3)
C11 C 0.5078(4) -0.0005(5) 0.2205(2)
C12 C 0.5389(5) 0.2092(5) 0.1403(3)
C13 C 0.3318(5) 0.3923(5) 0.3344(3)
H4 H 0.2888 0.4642 0.3170
N4 N 0.5986(4) -0.1060(4) 0.0835(2)
C14 C 0.6999(4) 0.5319(4) 0.0638(2)
C15 C 0.7401(4) 0.6348(5) -0.0006(3)
C16 C 0.8612(4) 0.3145(5) -0.1542(3)
H5 H 0.8788 0.3540 -0.2093
C17 C 0.3888(5) 0.3213(5) 0.2723(3)
H6 H 0.3867 0.3480 0.2130
C18 C 0.6399(5) 0.5821(5) 0.1384(3)
C19 C 0.4681(5) -0.0949(5) 0.2895(3)
N5 N 0.4370(5) -0.1715(4) 0.3436(3)
C20 C 0.3371(5) 0.3591(5) 0.4237(3)
C21 C 0.9795(5) 0.1636(5) -0.2888(3)
H7 H 1.0390 0.2694 -0.2835
H8 H 0.8804 0.1395 -0.3321
C22 C 0.4561(5) 0.1804(5) 0.3820(3)
H9 H 0.4987 0.1081 0.3992
C23 C 0.9894(5) -0.0137(5) -0.1862(3)
H10 H 0.9023 -0.0882 -0.1636
H11 H 1.0876 0.0127 -0.1419
N6 N 0.5942(4) 0.6260(4) 0.1983(2)
C24 C 0.4024(5) 0.2521(5) 0.4451(3)
H12 H 0.4095 0.2287 0.5050
N7 N 0.8854(4) 0.4140(4) 0.2819(2)
C25 C 0.7891(5) 0.3710(4) 0.2200(3)
C26 C 0.2095(5) 0.5355(6) 0.4633(3)
H13 H 0.2823 0.6104 0.4338
H14 H 0.1884 0.5806 0.5182
H15 H 0.1090 0.4880 0.4227
C27 C 0.2739(7) 0.3825(6) 0.5757(3)
H16 H 0.2102 0.2789 0.5714
H17 H 0.2240 0.4394 0.6097
H18 H 0.3818 0.3993 0.6063
H19 H 0.469(4) 0.164(4) 0.081(2)
C28 C 1.0168(15) -0.0703(9) -0.2774(5)
H20 H 1.0945 -0.1219 -0.2714
H21 H 0.9160 -0.1349 -0.3140
C29 C 1.0839(11) 0.0731(9) -0.3157(6)
H22 H 1.0760 0.0570 -0.3817
H23 H 1.1972 0.1238 -0.2898
H24? H 1.0846 0.2421 -0.2829
H25? H 0.8962 0.1996 -0.3160
H26? H 0.8947 -0.1002 -0.1833
H27? H 1.0673 0.0035 -0.1310
C30? C 1.0639(16) -0.0273(17) -0.2709(6)
H28? H 1.1793 0.0306 -0.2602
H29? H 1.0509 -0.1302 -0.2883
C31? C 0.9788(15) 0.0289(10) -0.3448(6)
H30? H 1.0398 0.0528 -0.3955
H31? H 0.8694 -0.0393 -0.3672
loop_
_geom_bond_atom_site_label_1
_geom_bond_atom_site_label_2
_geom_bond_site_symmetry_1
_geom_bond_site_symmetry_2
C1 C3 1_555 1_555
C2 N1 1_555 1_555
C3 C6 1_555 1_555
N1 C21 1_555 1_555
C4 C2 1_555 1_555
H1 C4 1_555 1_555
N2 C20 1_555 1_555
C5 C8 1_555 1_555
C6 H2 1_555 1_555
C7 C1 1_555 1_555
C8 C11 1_555 1_555
C9 C3 1_555 1_555
H3 C9 1_555 1_555
N3 C15 1_555 1_555
C10 C11 1_555 1_555
C11 C19 1_555 1_555
C12 C7 1_555 1_555
C13 H4 1_555 1_555
N4 C10 1_555 1_555
C14 C1 1_555 1_555
C15 C14 1_555 1_555
C16 C2 1_555 1_555
H5 C16 1_555 1_555
C17 C5 1_555 1_555
H6 C17 1_555 1_555
C18 C14 1_555 1_555
C19 N5 1_555 1_555
C20 C13 1_555 1_555
C21 H7 1_555 1_555
H8 C21 1_555 1_555
C22 C5 1_555 1_555
H9 C22 1_555 1_555
C23 N1 1_555 1_555
H10 C23 1_555 1_555
H11 C23 1_555 1_555
N6 C18 1_555 1_555
C24 C20 1_555 1_555
H12 C24 1_555 1_555
N7 C25 1_555 1_555
C25 C7 1_555 1_555
C26 N2 1_555 1_555
H13 C26 1_555 1_555
H14 C26 1_555 1_555
H15 C26 1_555 1_555
C27 N2 1_555 1_555
H16 C27 1_555 1_555
H17 C27 1_555 1_555
H18 C27 1_555 1_555
H19 C12 1_555 1_555
C28 C23 1_555 1_555
H20 C28 1_555 1_555
H21 C28 1_555 1_555
C29 C21 1_555 1_555
H22 C29 1_555 1_555
H23 C29 1_555 1_555
C4 C9 1_555 1_555
C6 C16 1_555 1_555
C8 C12 1_555 1_555
C13 C17 1_555 1_555
C22 C24 1_555 1_555
C28 C29 1_555 1_555

#END
