
#######################################################################
#
#                 Cambridge Crystallographic Data Centre
#                                CCDC 
#
#######################################################################
#
# If this CIF has been generated from an entry in the Cambridge 
# Structural Database, then it will include bibliographic, chemical, 
# crystal, experimental, refinement or atomic coordinate data resulting 
# from the CCDC's data processing and validation procedures.
#
#######################################################################

data_QAGYAB
_chemical_formula_moiety         'C24 H16 N4 O2'
_chemical_name_systematic        
2,5-bis(4-methoxyphenyl)hexa-1,3,5-triene-1,1,6,6-tetracarbonitrile
_symmetry_cell_setting           triclinic
_symmetry_space_group_name_H-M   'P -1'
_symmetry_Int_Tables_number      2
_space_group_name_Hall           '-P 1'
loop_
_symmetry_equiv_pos_site_id
_symmetry_equiv_pos_as_xyz
1 x,y,z
2 -x,-y,-z
_cell_length_a                   7.461(2)
_cell_length_b                   9.4563(13)
_cell_length_c                   22.633(4)
_cell_angle_alpha                77.902(5)
_cell_angle_beta                 87.007(7)
_cell_angle_gamma                74.91(2)
_cell_volume                     1507.53
_exptl_crystal_colour            amber
_exptl_crystal_description       needle
_cell_formula_units_Z            3
loop_
_atom_site_label
_atom_site_type_symbol
_atom_site_fract_x
_atom_site_fract_y
_atom_site_fract_z
N1 N 0.536(3) 0.521(3) 0.1948(11)
N2 N 0.2574(18) 0.1643(18) 0.1940(7)
N3 N 1.3987(18) 0.1715(17) 0.4729(7)
N4 N 1.1363(15) -0.1781(15) 0.4682(6)
O1 O 0.5746(17) -0.4438(16) 0.3536(6)
O2 O 1.0880(15) 0.7761(14) 0.3119(6)
C1 C 0.505(3) 0.249(3) 0.2416(10)
C2 C 0.631(2) 0.1522(19) 0.2881(8)
C3 C 0.7587(18) 0.2093(18) 0.3147(6)
C4 C 0.898(2) 0.127(2) 0.3468(8)
C5 C 1.030(2) 0.188(2) 0.3763(9)
C6 C 1.136(2) 0.096(2) 0.4231(8)
C7 C 0.539(3) 0.397(3) 0.2166(10)
C8 C 0.386(2) 0.1917(19) 0.2137(8)
C9 C 0.627(2) -0.004(2) 0.3053(8)
C10 C 0.619(2) -0.069(2) 0.3644(8)
C11 C 0.6022(17) -0.2154(16) 0.3828(6)
C12 C 0.595(3) -0.296(3) 0.3365(10)
C13 C 0.6215(19) -0.0954(19) 0.2656(8)
C14 C 0.620(2) -0.237(2) 0.2762(8)
C15 C 0.542(3) -0.502(3) 0.4169(10)
C16 C 1.037(2) 0.341(2) 0.3609(9)
C17 C 1.034(2) 0.424(2) 0.4061(9)
C18 C 1.057(2) 0.571(2) 0.3836(8)
C19 C 1.080(2) 0.624(2) 0.3188(9)
C20 C 1.085(2) 0.544(2) 0.2813(8)
C21 C 1.049(3) 0.403(2) 0.2967(10)
C22 C 1.137(3) 0.838(2) 0.2541(9)
C23 C 1.287(2) 0.131(2) 0.4517(9)
C24 C 1.1372(17) -0.0580(16) 0.4457(6)
H1 H 0.7386 0.3181 0.3080
H2 H 0.9198 0.0186 0.3526
H3 H 0.6260 -0.0116 0.3952
H4 H 0.5957 -0.2609 0.4257
H5 H 0.6184 -0.0471 0.2228
H6 H 0.6357 -0.2959 0.2445
H7 H 0.4686 -0.5873 0.4203
H8 H 0.4604 -0.4117 0.4371
H9 H 0.6737 -0.5485 0.4402
H10 H 1.0182 0.3838 0.4491
H11 H 1.0561 0.6366 0.4117
H12 H 1.1162 0.5811 0.2393
H13 H 1.0330 0.3491 0.2658
H14 H 1.1434 0.9514 0.2525
H15 H 1.0341 0.8379 0.2222
H16 H 1.2707 0.7726 0.2427
N5 N 1.066(3) 0.504(2) 0.1394(10)
N6 N 0.796(2) 0.1498(19) 0.1345(8)
O3 O 0.7665(17) 1.1095(16) -0.0181(7)
C25 C 0.8202(18) 0.4197(18) 0.0906(7)
C26 C 0.705(2) 0.511(2) 0.0475(9)
C27 C 0.827(2) 0.269(2) 0.1164(8)
C28 C 0.585(3) 0.449(3) 0.0184(11)
C29 C 0.967(2) 0.463(2) 0.1174(8)
C30 C 0.712(2) 0.674(2) 0.0246(9)
C31 C 0.705(2) 0.762(2) 0.0704(9)
C32 C 0.728(2) 0.909(2) 0.0509(8)
C33 C 0.7426(16) 0.9699(16) -0.0068(6)
C34 C 0.751(3) 0.889(3) -0.0539(13)
C35 C 0.7362(19) 0.7407(18) -0.0337(7)
C36 C 0.778(2) 1.178(2) -0.0844(9)
H17 H 0.6120 0.3407 0.0220
H18 H 0.6845 0.7219 0.1130
H19 H 0.7325 0.9682 0.0813
H20 H 0.7657 0.9327 -0.0966
H21 H 0.7439 0.6802 -0.0645
H22 H 0.7770 1.2942 -0.0894
H23 H 0.6596 1.1696 -0.1079
H24 H 0.9040 1.1188 -0.1032
N5A N -0.066(3) 0.496(2) -0.1394(10)
N6A N 0.204(2) 0.8502(19) -0.1345(8)
O3A O 0.2335(17) -0.1095(16) 0.0181(7)
C25A C 0.1798(18) 0.5803(18) -0.0906(7)
C26A C 0.295(2) 0.489(2) -0.0475(9)
C27A C 0.173(2) 0.731(2) -0.1164(8)
C28A C 0.415(3) 0.551(3) -0.0184(11)
C29A C 0.033(2) 0.537(2) -0.1174(8)
C30A C 0.288(2) 0.326(2) -0.0246(9)
C31A C 0.295(2) 0.238(2) -0.0704(9)
C32A C 0.272(2) 0.091(2) -0.0509(8)
C33A C 0.2574(16) 0.0301(16) 0.0068(6)
C34A C 0.249(3) 0.111(3) 0.0539(13)
C35A C 0.2638(19) 0.2593(18) 0.0337(7)
C36A C 0.222(2) -0.178(2) 0.0844(9)
H17A H 0.3880 0.6593 -0.0220
H18A H 0.3155 0.2781 -0.1130
H19A H 0.2675 0.0318 -0.0813
H20A H 0.2343 0.0673 0.0966
H21A H 0.2561 0.3198 0.0645
H22A H 0.2230 -0.2942 0.0894
H23A H 0.3404 -0.1696 0.1079
H24A H 0.0960 -0.1188 0.1032
loop_
_geom_bond_atom_site_label_1
_geom_bond_atom_site_label_2
_geom_bond_site_symmetry_1
_geom_bond_site_symmetry_2
N1 C7 1_555 1_555
N2 C8 1_555 1_555
N3 C23 1_555 1_555
N4 C24 1_555 1_555
O1 C12 1_555 1_555
O2 C19 1_555 1_555
C1 C2 1_555 1_555
C2 C3 1_555 1_555
C3 C4 1_555 1_555
C4 C5 1_555 1_555
C5 C6 1_555 1_555
C6 C23 1_555 1_555
C7 C1 1_555 1_555
C8 C1 1_555 1_555
C9 C2 1_555 1_555
C10 C9 1_555 1_555
C11 C10 1_555 1_555
C12 C11 1_555 1_555
C13 C9 1_555 1_555
C14 C12 1_555 1_555
C15 O1 1_555 1_555
C16 C5 1_555 1_555
C17 C16 1_555 1_555
C18 C17 1_555 1_555
C19 C18 1_555 1_555
C20 C19 1_555 1_555
C21 C16 1_555 1_555
C22 O2 1_555 1_555
C24 C6 1_555 1_555
H1 C3 1_555 1_555
H2 C4 1_555 1_555
H3 C10 1_555 1_555
H4 C11 1_555 1_555
H5 C13 1_555 1_555
H6 C14 1_555 1_555
H7 C15 1_555 1_555
H8 C15 1_555 1_555
H9 C15 1_555 1_555
H10 C17 1_555 1_555
H11 C18 1_555 1_555
H12 C20 1_555 1_555
H13 C21 1_555 1_555
H14 C22 1_555 1_555
H15 C22 1_555 1_555
H16 C22 1_555 1_555
N5 C29 1_555 1_555
N6 C27 1_555 1_555
O3 C33 1_555 1_555
C25 C26 1_555 1_555
C26 C28 1_555 1_555
C27 C25 1_555 1_555
C28 H17 1_555 1_555
C29 C25 1_555 1_555
C30 C26 1_555 1_555
C31 C30 1_555 1_555
C32 C31 1_555 1_555
C33 C32 1_555 1_555
C34 C33 1_555 1_555
C35 C30 1_555 1_555
C36 O3 1_555 1_555
H18 C31 1_555 1_555
H19 C32 1_555 1_555
H20 C34 1_555 1_555
H21 C35 1_555 1_555
H22 C36 1_555 1_555
H23 C36 1_555 1_555
H24 C36 1_555 1_555
N5A C29A 1_555 1_555
N6A C27A 1_555 1_555
O3A C33A 1_555 1_555
C25A C26A 1_555 1_555
C26A C28A 1_555 1_555
C27A C25A 1_555 1_555
C28A C28 1_555 1_555
C29A C25A 1_555 1_555
C30A C26A 1_555 1_555
C31A C30A 1_555 1_555
C32A C31A 1_555 1_555
C33A C32A 1_555 1_555
C34A C33A 1_555 1_555
C35A C30A 1_555 1_555
C36A O3A 1_555 1_555
H17A C28A 1_555 1_555
H18A C31A 1_555 1_555
H19A C32A 1_555 1_555
H20A C34A 1_555 1_555
H21A C35A 1_555 1_555
H22A C36A 1_555 1_555
H23A C36A 1_555 1_555
H24A C36A 1_555 1_555
C13 C14 1_555 1_555
C20 C21 1_555 1_555
C34 C35 1_555 1_555
C34A C35A 1_555 1_555

#END
