
#######################################################################
#
#                 Cambridge Crystallographic Data Centre
#                                CCDC 
#
#######################################################################
#
# If this CIF has been generated from an entry in the Cambridge 
# Structural Database, then it will include bibliographic, chemical, 
# crystal, experimental, refinement or atomic coordinate data resulting 
# from the CCDC's data processing and validation procedures.
#
#######################################################################

data_QAGYEF
_chemical_formula_moiety         'C25 H19 N5 O1'
_chemical_name_systematic        
2-(4-(dimethylamino)phenyl)-5-(4-methoxyphenyl)hexa-1,3,5-triene-1,1,6,6-tetracarbonitrile
_symmetry_cell_setting           monoclinic
_symmetry_space_group_name_H-M   'P c'
_symmetry_Int_Tables_number      7
_space_group_name_Hall           'P -2yc'
loop_
_symmetry_equiv_pos_site_id
_symmetry_equiv_pos_as_xyz
1 x,y,z
2 x,-y,1/2+z
_cell_length_a                   11.2869(8)
_cell_length_b                   11.7092(8)
_cell_length_c                   7.9701(5)
_cell_angle_alpha                90
_cell_angle_beta                 95.891(3)
_cell_angle_gamma                90
_cell_volume                     1047.77
_cell_formula_units_Z            2
loop_
_atom_site_label
_atom_site_type_symbol
_atom_site_fract_x
_atom_site_fract_y
_atom_site_fract_z
O1 O 1.2746(2) 0.8020(3) 0.1181(4)
N1 N 0.8839(3) 1.1818(2) 0.2212(4)
N2 N 0.5619(3) 1.0404(3) 0.4008(5)
N3 N 0.6292(3) 0.3137(2) 0.4944(4)
N4 N 0.9448(3) 0.4542(2) 0.3081(4)
N5 N 0.2337(3) 0.6882(3) 0.5885(4)
C1 C 0.8382(3) 1.1016(3) 0.2624(4)
C2 C 0.7728(3) 1.0038(2) 0.3107(4)
C3 C 0.8144(2) 0.8941(2) 0.3016(3)
C4 C 0.7363(2) 0.7999(2) 0.3332(3)
H1 H 0.6414 0.8149 0.3184
C5 C 0.7752(3) 0.6954(2) 0.3795(3)
H2 H 0.8700 0.6795 0.3939
C6 C 0.6947(3) 0.6022(2) 0.4113(3)
C7 C 0.7394(3) 0.4932(2) 0.4027(4)
C8 C 0.6781(3) 0.3948(2) 0.4515(4)
C9 C 0.6549(3) 1.0258(3) 0.3634(4)
C10 C 0.9370(3) 0.8733(3) 0.2612(4)
C11 C 1.0335(3) 0.9321(3) 0.3331(4)
H3 H 1.0208 0.9956 0.4280
C12 C 1.1468(3) 0.9132(3) 0.2886(4)
H4 H 1.2202 0.9640 0.3451
C13 C 1.1672(3) 0.8294(3) 0.1717(4)
C14 C 1.0694(3) 0.7664(3) 0.0971(4)
H5 H 1.0829 0.7015 0.0047
C15 C 0.9550(3) 0.7876(3) 0.1423(4)
H6 H 0.8804 0.7382 0.0860
C16 C 1.3763(3) 0.8722(5) 0.1864(6)
H7 H 1.4569 0.8425 0.1356
H8 H 1.3874 0.8650 0.3235
H9 H 1.3601 0.9611 0.1509
C17 C 0.5751(3) 0.6259(2) 0.4542(4)
C18 C 0.5522(2) 0.7097(3) 0.5689(4)
H10 H 0.6253 0.7617 0.6238
C19 C 0.4415(3) 0.7292(3) 0.6151(4)
H11 H 0.4283 0.7947 0.7067
C20 C 0.3444(3) 0.6646(4) 0.5447(5)
C21 C 0.3636(3) 0.5806(4) 0.4243(5)
H12 H 0.2889 0.5331 0.3645
C22 C 0.4765(3) 0.5581(3) 0.3819(5)
H13 H 0.4910 0.4901 0.2948
C23 C 0.2082(4) 0.7790(5) 0.6931(6)
H14 H 0.2521 0.7647 0.8197
H15 H 0.1123 0.7846 0.6982
H16 H 0.2405 0.8585 0.6430
C24 C 0.1328(4) 0.6297(6) 0.5198(7)
H17 H 0.1089 0.6582 0.3906
H18 H 0.0592 0.6467 0.5947
H19 H 0.1512 0.5383 0.5204
C25 C 0.8528(3) 0.4720(3) 0.3534(4)
loop_
_geom_bond_atom_site_label_1
_geom_bond_atom_site_label_2
_geom_bond_site_symmetry_1
_geom_bond_site_symmetry_2
O1 C13 1_555 1_555
N1 C1 1_555 1_555
N2 C9 1_555 1_555
N3 C8 1_555 1_555
N4 C25 1_555 1_555
N5 C20 1_555 1_555
C1 C2 1_555 1_555
C2 C3 1_555 1_555
C3 C4 1_555 1_555
C4 H1 1_555 1_555
C5 C4 1_555 1_555
H2 C5 1_555 1_555
C6 C5 1_555 1_555
C7 C6 1_555 1_555
C8 C7 1_555 1_555
C9 C2 1_555 1_555
C10 C3 1_555 1_555
C11 C10 1_555 1_555
H3 C11 1_555 1_555
C12 C11 1_555 1_555
H4 C12 1_555 1_555
C13 C12 1_555 1_555
C14 C13 1_555 1_555
H5 C14 1_555 1_555
C15 C10 1_555 1_555
H6 C15 1_555 1_555
C16 O1 1_555 1_555
H7 C16 1_555 1_555
H8 C16 1_555 1_555
H9 C16 1_555 1_555
C17 C6 1_555 1_555
C18 C17 1_555 1_555
H10 C18 1_555 1_555
C19 C18 1_555 1_555
H11 C19 1_555 1_555
C20 C19 1_555 1_555
C21 C20 1_555 1_555
H12 C21 1_555 1_555
C22 C17 1_555 1_555
H13 C22 1_555 1_555
C23 N5 1_555 1_555
H14 C23 1_555 1_555
H15 C23 1_555 1_555
H16 C23 1_555 1_555
C24 N5 1_555 1_555
H17 C24 1_555 1_555
H18 C24 1_555 1_555
H19 C24 1_555 1_555
C25 C7 1_555 1_555
C14 C15 1_555 1_555
C21 C22 1_555 1_555

#END
