
#######################################################################
#
#                 Cambridge Crystallographic Data Centre
#                                CCDC 
#
#######################################################################
#
# If this CIF has been generated from an entry in the Cambridge 
# Structural Database, then it will include bibliographic, chemical, 
# crystal, experimental, refinement or atomic coordinate data resulting 
# from the CCDC's data processing and validation procedures.
#
#######################################################################

data_QAHMEU
_chemical_formula_moiety         'C38 H36 N10 O2 2+,4(C4 H8 O2),2(F6 P1 1-)'
_chemical_name_systematic        
'15,34-diformyl-3,12,15,22,31,34,41,45-octaaza-6,25-diazoniaheptacyclo[34.2.2.2^17,20^.1^3,6^.1^7,11^.1^22,25^.1^26,30^]hexatetraconta-1(38),4,6(46),7(45),8,10,13,17,19,23,25(42),26(41),27,29,32,36,39,43-octadecaene bis(hexafluorophosphate) 1,4-dioxane solvate'
_symmetry_cell_setting           triclinic
_symmetry_space_group_name_H-M   'P -1'
_symmetry_Int_Tables_number      2
_space_group_name_Hall           '-P 1'
loop_
_symmetry_equiv_pos_site_id
_symmetry_equiv_pos_as_xyz
1 x,y,z
2 -x,-y,-z
_cell_length_a                   10.032(2)
_cell_length_b                   10.288(2)
_cell_length_c                   15.459(3)
_cell_angle_alpha                80.45(3)
_cell_angle_beta                 80.06(3)
_cell_angle_gamma                80.81(3)
_cell_volume                     1535.61
_exptl_crystal_colour            yellow
_exptl_crystal_description       prism
_cell_formula_units_Z            1
loop_
_atom_site_label
_atom_site_type_symbol
_atom_site_fract_x
_atom_site_fract_y
_atom_site_fract_z
P1 P 0.09908(9) 0.16636(11) 0.25183(6)
F1 F 0.2288(3) 0.0751(3) 0.2846(2)
F2 F 0.0503(5) 0.0501(4) 0.2225(2)
F3 F 0.0178(2) 0.1342(3) 0.34867(15)
F4 F -0.0257(3) 0.2649(4) 0.2238(2)
F5 F 0.1551(3) 0.2849(3) 0.28405(18)
F6 F 0.1814(3) 0.2023(3) 0.15643(16)
O1 O 0.3080(2) -0.0092(2) 0.93158(15)
C1 C 0.3497(3) 0.0802(3) 0.9582(2)
H1 H 0.3048 0.1059 1.0118
C2 C 0.5337(3) 0.1120(3) 0.8353(2)
H2 H 0.6276 0.0906 0.8341
C3 C 0.4849(3) 0.1099(3) 0.7613(2)
H3 H 0.5490 0.0915 0.7122
C4 C 0.3087(3) 0.1435(3) 0.66667(19)
C5 C 0.1703(3) 0.1467(3) 0.6600(2)
H4 H 0.1049 0.1409 0.7106
C6 C 0.1339(3) 0.1586(3) 0.5773(2)
H5 H 0.0427 0.1613 0.5714
C7 C 0.2328(3) 0.1666(3) 0.5021(2)
H6 H 0.2106 0.1752 0.4453
C8 C 0.3646(3) 0.1612(3) 0.51662(18)
C9 C 0.4648(3) 0.1840(3) 0.35767(19)
H7 H 0.3844 0.1890 0.3343
C10 C 0.6113(3) 0.1660(3) 0.4516(2)
H8 H 0.6477 0.1567 0.5040
C11 C 0.6809(3) 0.1790(3) 0.3687(2)
H9 H 0.7745 0.1801 0.3532
C12 C 0.6195(4) 0.2089(3) 0.2126(2)
H10 H 0.5676 0.1542 0.1895
H11 H 0.7158 0.1797 0.1951
C13 C 0.5858(3) 0.3524(3) 0.17296(19)
C14 C 0.4593(3) 0.3996(3) 0.1487(2)
H12 H 0.3925 0.3434 0.1594
C15 C 0.4298(3) 0.5301(3) 0.1085(2)
H13 H 0.3442 0.5599 0.0918
C16 C 0.5272(3) 0.6157(3) 0.0933(2)
C17 C 0.6530(3) 0.5697(3) 0.1199(2)
H14 H 0.7185 0.6270 0.1117
C18 C 0.6825(3) 0.4386(3) 0.1588(2)
H15 H 0.7681 0.4085 0.1755
C19 C 0.4995(4) 0.7538(3) 0.0431(2)
H16 H 0.5458 0.7549 -0.0175
H17 H 0.4023 0.7757 0.0412
N1 N 0.4548(3) 0.1442(2) 0.91672(16)
N2 N 0.3500(3) 0.1318(3) 0.74856(16)
H18 H 0.2881 0.1385 0.7942
N3 N 0.4057(2) 0.1501(2) 0.59518(15)
N4 N 0.4754(2) 0.1694(2) 0.44393(15)
N5 N 0.5879(3) 0.1902(2) 0.31116(16)
O1A O 0.6920(2) 1.0092(2) 0.06842(15)
C1A C 0.6503(3) 0.9198(3) 0.0418(2)
H1A H 0.6952 0.8941 -0.0118
C2A C 0.4663(3) 0.8880(3) 0.1647(2)
H2A H 0.3724 0.9094 0.1659
C3A C 0.5151(3) 0.8901(3) 0.2387(2)
H3A H 0.4510 0.9085 0.2878
C4A C 0.6913(3) 0.8565(3) 0.33333(19)
C5A C 0.8297(3) 0.8533(3) 0.3400(2)
H4A H 0.8951 0.8591 0.2894
C6A C 0.8661(3) 0.8414(3) 0.4227(2)
H5A H 0.9573 0.8387 0.4286
C7A C 0.7672(3) 0.8334(3) 0.4979(2)
H6A H 0.7894 0.8248 0.5547
C8A C 0.6354(3) 0.8388(3) 0.48338(18)
C9A C 0.5352(3) 0.8160(3) 0.64233(19)
H7A H 0.6156 0.8110 0.6657
C10A C 0.3887(3) 0.8340(3) 0.5484(2)
H8A H 0.3523 0.8433 0.4960
C11A C 0.3191(3) 0.8210(3) 0.6313(2)
H9A H 0.2255 0.8199 0.6468
C12A C 0.3805(4) 0.7911(3) 0.7874(2)
H10A H 0.4324 0.8458 0.8105
H11A H 0.2842 0.8203 0.8049
C13A C 0.4142(3) 0.6476(3) 0.82704(19)
C14A C 0.5407(3) 0.6004(3) 0.8513(2)
H12A H 0.6075 0.6566 0.8406
C15A C 0.5702(3) 0.4699(3) 0.8915(2)
H13A H 0.6558 0.4401 0.9082
C16A C 0.4728(3) 0.3843(3) 0.9067(2)
C17A C 0.3470(3) 0.4303(3) 0.8801(2)
H14A H 0.2815 0.3730 0.8883
C18A C 0.3175(3) 0.5614(3) 0.8412(2)
H15A H 0.2319 0.5915 0.8245
C19A C 0.5005(4) 0.2462(3) 0.9569(2)
H16A H 0.4542 0.2451 1.0175
H17A H 0.5977 0.2243 0.9588
N1A N 0.5452(3) 0.8558(2) 0.08328(16)
N2A N 0.6500(3) 0.8682(3) 0.25144(16)
H18A H 0.7119 0.8615 0.2058
N3A N 0.5943(2) 0.8499(2) 0.40482(15)
N4A N 0.5246(2) 0.8306(2) 0.55607(15)
N5A N 0.4121(3) 0.8098(2) 0.68884(16)
O2 O 0.0904(3) 0.2353(2) 0.85939(16)
O3 O -0.1320(3) 0.3668(3) 0.96285(19)
C20 C -0.0026(4) 0.1629(4) 0.9230(3)
H19 H 0.0455 0.0789 0.9471
H20 H -0.0745 0.1440 0.8941
C21 C -0.0634(4) 0.2414(4) 0.9959(3)
H21 H -0.1275 0.1921 1.0377
H22 H 0.0081 0.2549 1.0271
C22 C -0.0411(4) 0.4389(4) 0.8994(3)
H23 H 0.0309 0.4586 0.9278
H24 H -0.0901 0.5226 0.8754
C23 C 0.0202(4) 0.3600(4) 0.8256(2)
H25 H -0.0513 0.3451 0.7949
H26 H 0.0835 0.4097 0.7833
O4 O 0.6291(4) 0.5379(3) 0.5687(2)
O5 O 0.8057(3) 0.2949(3) 0.5677(3)
C24 C 0.6098(5) 0.4276(4) 0.6367(3)
H27 H 0.5491 0.3739 0.6208
H28 H 0.5676 0.4598 0.6919
C25 C 0.7440(6) 0.3440(6) 0.6492(4)
H29 H 0.8043 0.3969 0.6665
H30 H 0.7297 0.2700 0.6960
C26 C 0.8290(5) 0.4047(5) 0.5010(4)
H31 H 0.8703 0.3731 0.4455
H32 H 0.8916 0.4556 0.5178
C27 C 0.6973(5) 0.4916(4) 0.4891(3)
H33 H 0.7152 0.5674 0.4444
H34 H 0.6381 0.4421 0.4677
loop_
_geom_bond_atom_site_label_1
_geom_bond_atom_site_label_2
_geom_bond_site_symmetry_1
_geom_bond_site_symmetry_2
P1 F1 1_555 1_555
F2 P1 1_555 1_555
F3 P1 1_555 1_555
F4 P1 1_555 1_555
F5 P1 1_555 1_555
F6 P1 1_555 1_555
O1 C1 1_555 1_555
C1 H1 1_555 1_555
C2 H2 1_555 1_555
C3 C2 1_555 1_555
H3 C3 1_555 1_555
C4 C5 1_555 1_555
C5 H4 1_555 1_555
C6 C5 1_555 1_555
H5 C6 1_555 1_555
C7 C6 1_555 1_555
H6 C7 1_555 1_555
C8 C7 1_555 1_555
C9 H7 1_555 1_555
C10 H8 1_555 1_555
C11 C10 1_555 1_555
H9 C11 1_555 1_555
C12 H10 1_555 1_555
H11 C12 1_555 1_555
C13 C12 1_555 1_555
C14 C13 1_555 1_555
H12 C14 1_555 1_555
C15 C14 1_555 1_555
H13 C15 1_555 1_555
C16 C15 1_555 1_555
C17 C16 1_555 1_555
H14 C17 1_555 1_555
C18 C13 1_555 1_555
H15 C18 1_555 1_555
C19 C16 1_555 1_555
H16 C19 1_555 1_555
H17 C19 1_555 1_555
N1 C1 1_555 1_555
N2 C3 1_555 1_555
H18 N2 1_555 1_555
N3 C4 1_555 1_555
N4 C8 1_555 1_555
N5 C9 1_555 1_555
O2 C20 1_555 1_555
O3 C21 1_555 1_555
C20 H19 1_555 1_555
H20 C20 1_555 1_555
C21 C20 1_555 1_555
H21 C21 1_555 1_555
H22 C21 1_555 1_555
C22 O3 1_555 1_555
H23 C22 1_555 1_555
H24 C22 1_555 1_555
C23 O2 1_555 1_555
H25 C23 1_555 1_555
H26 C23 1_555 1_555
O4 C24 1_555 1_555
O5 C25 1_555 1_555
C24 H27 1_555 1_555
H28 C24 1_555 1_555
C25 C24 1_555 1_555
H29 C25 1_555 1_555
H30 C25 1_555 1_555
C26 O5 1_555 1_555
H31 C26 1_555 1_555
H32 C26 1_555 1_555
C27 O4 1_555 1_555
H33 C27 1_555 1_555
H34 C27 1_555 1_555
O1A C1A 1_555 1_555
C1A H1A 1_555 1_555
C2A H2A 1_555 1_555
C3A C2A 1_555 1_555
H3A C3A 1_555 1_555
C4A C5A 1_555 1_555
C5A H4A 1_555 1_555
C6A C5A 1_555 1_555
H5A C6A 1_555 1_555
C7A C6A 1_555 1_555
H6A C7A 1_555 1_555
C8A C7A 1_555 1_555
C9A H7A 1_555 1_555
C10A H8A 1_555 1_555
C11A C10A 1_555 1_555
H9A C11A 1_555 1_555
C12A H10A 1_555 1_555
H11A C12A 1_555 1_555
C13A C12A 1_555 1_555
C14A C13A 1_555 1_555
H12A C14A 1_555 1_555
C15A C14A 1_555 1_555
H13A C15A 1_555 1_555
C16A C15A 1_555 1_555
C17A C16A 1_555 1_555
H14A C17A 1_555 1_555
C18A C13A 1_555 1_555
H15A C18A 1_555 1_555
C19A N1 1_555 1_555
H16A C19A 1_555 1_555
H17A C19A 1_555 1_555
N1A C19 1_555 1_555
N2A C3A 1_555 1_555
H18A N2A 1_555 1_555
N3A C4A 1_555 1_555
N4A C8A 1_555 1_555
N5A C9A 1_555 1_555
C2 N1 1_555 1_555
C4 N2 1_555 1_555
C8 N3 1_555 1_555
C9 N4 1_555 1_555
C10 N4 1_555 1_555
C11 N5 1_555 1_555
C12 N5 1_555 1_555
C17 C18 1_555 1_555
C22 C23 1_555 1_555
C26 C27 1_555 1_555
C1A N1A 1_555 1_555
C2A N1A 1_555 1_555
C4A N2A 1_555 1_555
C8A N3A 1_555 1_555
C9A N4A 1_555 1_555
C10A N4A 1_555 1_555
C11A N5A 1_555 1_555
C12A N5A 1_555 1_555
C16A C19A 1_555 1_555
C17A C18A 1_555 1_555

#END
