
#######################################################################
#
#                 Cambridge Crystallographic Data Centre
#                                CCDC 
#
#######################################################################
#
# If this CIF has been generated from an entry in the Cambridge 
# Structural Database, then it will include bibliographic, chemical, 
# crystal, experimental, refinement or atomic coordinate data resulting 
# from the CCDC's data processing and validation procedures.
#
#######################################################################

data_QAHVIH
_chemical_name_common            
2-Phenyl-5-(2-(4-(trifluoromethoxy)benzylidene)hydrazino)-1,3,4-thiadiazole
_chemical_formula_moiety         'C16 H11 F3 N4 O1 S1'
_chemical_name_systematic        
'4-(Trifluorometoxy)benzaldehyde (5-phenyl-1,3,4-thiadiazol-2-yl)hydrazone'
_symmetry_cell_setting           monoclinic
_symmetry_space_group_name_H-M   'P 21/c'
_symmetry_Int_Tables_number      14
_space_group_name_Hall           '-P 2ybc'
loop_
_symmetry_equiv_pos_site_id
_symmetry_equiv_pos_as_xyz
1 x,y,z
2 -x,1/2+y,1/2-z
3 -x,-y,-z
4 x,1/2-y,1/2+z
_cell_length_a                   16.262(12)
_cell_length_b                   5.487(4)
_cell_length_c                   18.459(13)
_cell_angle_alpha                90
_cell_angle_beta                 104.561(7)
_cell_angle_gamma                90
_cell_volume                     1594.19
_exptl_crystal_colour            colorless
_exptl_crystal_description       lath
_chemical_melting_point          '305-307 K'
_cell_formula_units_Z            4
loop_
_atom_site_label
_atom_site_type_symbol
_atom_site_fract_x
_atom_site_fract_y
_atom_site_fract_z
C1 C 0.7422(2) 1.6853(6) 0.3860(2)
H1 H 0.7766 1.8179 0.3784
C2 C 0.7664(2) 1.5436(6) 0.4511(2)
H2 H 0.8171 1.5807 0.4880
C3 C 0.7164(2) 1.3503(6) 0.4614(2)
H3 H 0.7334 1.2537 0.5054
C4 C 0.6412(2) 1.2944(6) 0.40822(18)
C5 C 0.6177(2) 1.4382(6) 0.34365(18)
H4 H 0.5668 1.4026 0.3068
C6 C 0.6677(2) 1.6307(6) 0.3330(2)
H5 H 0.6510 1.7267 0.2889
C7 C 0.5887(2) 1.0865(6) 0.42065(17)
C8 C 0.4877(2) 0.7710(5) 0.41954(17)
C9 C 0.2947(2) 0.4754(6) 0.34487(18)
H6 H 0.3022 0.3460 0.3801
C10 C 0.2160(2) 0.4912(6) 0.28555(18)
C11 C 0.2006(2) 0.6838(6) 0.23314(18)
H7 H 0.2421 0.8079 0.2363
C12 C 0.1256(2) 0.6938(6) 0.1771(2)
H8 H 0.1157 0.8235 0.1419
C13 C 0.0658(2) 0.5137(6) 0.1732(2)
C14 C 0.0779(2) 0.3225(7) 0.2240(2)
H9 H 0.0355 0.2011 0.2210
C15 C 0.1537(2) 0.3136(6) 0.2792(2)
H10 H 0.1632 0.1820 0.3138
C16 C -0.0493(2) 0.3565(7) 0.0785(2)
N1 N 0.61102(17) 0.9438(5) 0.47874(15)
N2 N 0.55289(17) 0.7601(4) 0.47862(14)
N3 N 0.42418(17) 0.6049(5) 0.40804(15)
H11 H 0.4280 0.4779 0.4378
N4 N 0.35414(17) 0.6360(5) 0.34986(14)
O1 O -0.00903(15) 0.5484(4) 0.11518(16)
S1 S 0.49046(5) 1.01229(14) 0.35946(4)
F1 F 0.00136(17) 0.1989(4) 0.05862(14)
F2 F -0.10367(15) 0.4368(4) 0.01668(14)
F3 F -0.09529(18) 0.2388(6) 0.11708(15)
loop_
_geom_bond_atom_site_label_1
_geom_bond_atom_site_label_2
_geom_bond_site_symmetry_1
_geom_bond_site_symmetry_2
C1 H1 1_555 1_555
C2 C1 1_555 1_555
H2 C2 1_555 1_555
C3 C2 1_555 1_555
H3 C3 1_555 1_555
C4 C3 1_555 1_555
C5 C4 1_555 1_555
H4 C5 1_555 1_555
C6 C1 1_555 1_555
H5 C6 1_555 1_555
C7 C4 1_555 1_555
C8 N2 1_555 1_555
C9 H6 1_555 1_555
C10 C9 1_555 1_555
C11 C10 1_555 1_555
H7 C11 1_555 1_555
C12 C11 1_555 1_555
H8 C12 1_555 1_555
C13 C12 1_555 1_555
C14 C13 1_555 1_555
H9 C14 1_555 1_555
C15 C10 1_555 1_555
H10 C15 1_555 1_555
C16 O1 1_555 1_555
N1 C7 1_555 1_555
N2 N1 1_555 1_555
N3 C8 1_555 1_555
H11 N3 1_555 1_555
N4 C9 1_555 1_555
O1 C13 1_555 1_555
S1 C7 1_555 1_555
F1 C16 1_555 1_555
F2 C16 1_555 1_555
F3 C16 1_555 1_555
C5 C6 1_555 1_555
C8 S1 1_555 1_555
C14 C15 1_555 1_555
N3 N4 1_555 1_555

#END
