
#######################################################################
#
#                 Cambridge Crystallographic Data Centre
#                                CCDC 
#
#######################################################################
#
# If this CIF has been generated from an entry in the Cambridge 
# Structural Database, then it will include bibliographic, chemical, 
# crystal, experimental, refinement or atomic coordinate data resulting 
# from the CCDC's data processing and validation procedures.
#
#######################################################################

data_QAHWAA
_chemical_name_common            
2-Methoxy-6-((5-phenyl-1,3,4-thiadiazol-2-yl)carbonohydrazonoyl)phenol
_chemical_formula_moiety         'C16 H14 N4 O2 S1'
_chemical_name_systematic        
'2-Hydroxy-3-metoxybenzaldehyde (5-phenyl-1,3,4-thiadiazol-2yl)hydrazone'
_symmetry_cell_setting           monoclinic
_symmetry_space_group_name_H-M   'P 21/c'
_symmetry_Int_Tables_number      14
_space_group_name_Hall           '-P 2ybc'
loop_
_symmetry_equiv_pos_site_id
_symmetry_equiv_pos_as_xyz
1 x,y,z
2 -x,1/2+y,1/2-z
3 -x,-y,-z
4 x,1/2-y,1/2+z
_cell_length_a                   5.5900(2)
_cell_length_b                   25.282(1)
_cell_length_c                   10.8061(4)
_cell_angle_alpha                90
_cell_angle_beta                 95.555(3)
_cell_angle_gamma                90
_cell_volume                     1520.01
_exptl_crystal_colour            yellow
_exptl_crystal_description       slab
_chemical_melting_point          '293-295 deg.C'
_cell_formula_units_Z            4
loop_
_atom_site_label
_atom_site_type_symbol
_atom_site_fract_x
_atom_site_fract_y
_atom_site_fract_z
C1 C 0.3279(5) 0.37186(9) -0.1393(2)
H1 H 0.2629 0.3535 -0.2116
C2 C 0.5562(4) 0.35969(9) -0.0841(2)
H2 H 0.6481 0.3329 -0.1189
C3 C 0.6509(4) 0.38657(8) 0.0217(2)
H3 H 0.8063 0.3777 0.0593
C4 C 0.5191(4) 0.42661(8) 0.07314(19)
C5 C 0.2898(4) 0.43822(9) 0.0180(2)
H4 H 0.1966 0.4649 0.0526
C6 C 0.1968(4) 0.41091(10) -0.0876(2)
H5 H 0.0404 0.4193 -0.1248
C7 C 0.6228(4) 0.45476(8) 0.18466(19)
C8 C 0.7138(4) 0.50957(8) 0.36337(19)
C9 C 0.5456(4) 0.60926(8) 0.55968(19)
H6 H 0.6752 0.6067 0.6231
C10 C 0.3556(4) 0.64728(7) 0.57210(19)
C11 C 0.1770(4) 0.65792(8) 0.47634(19)
C12 C 0.0018(4) 0.69658(8) 0.4925(2)
C13 C 0.0024(4) 0.72289(8) 0.6045(2)
H7 H -0.1165 0.7489 0.6153
C14 C 0.1753(4) 0.71151(9) 0.7008(2)
H8 H 0.1730 0.7292 0.7783
C15 C 0.3514(4) 0.67458(8) 0.6851(2)
H9 H 0.4712 0.6675 0.7515
C16 C -0.3317(4) 0.74610(9) 0.4010(3)
H10 H -0.4422 0.7471 0.3249
H11 H -0.2477 0.7801 0.4119
H12 H -0.4228 0.7395 0.4726
N1 N 0.8342(3) 0.44502(7) 0.24116(16)
N2 N 0.8883(3) 0.47616(7) 0.34479(16)
N3 N 0.7274(3) 0.54359(6) 0.45991(16)
H13 H 0.8496 0.5433 0.5177
N4 N 0.5417(3) 0.57867(6) 0.46361(16)
O1 O 0.1640(3) 0.63338(6) 0.36360(14)
H14 H 0.271(5) 0.6092(10) 0.372(2)
O2 O -0.1600(3) 0.70461(6) 0.39184(15)
S1 S 0.46533(9) 0.50473(2) 0.25544(5)
loop_
_geom_bond_atom_site_label_1
_geom_bond_atom_site_label_2
_geom_bond_site_symmetry_1
_geom_bond_site_symmetry_2
C1 H1 1_555 1_555
C2 C1 1_555 1_555
H2 C2 1_555 1_555
C3 C2 1_555 1_555
H3 C3 1_555 1_555
C4 C3 1_555 1_555
C5 C4 1_555 1_555
H4 C5 1_555 1_555
C6 C1 1_555 1_555
H5 C6 1_555 1_555
C7 C4 1_555 1_555
C8 N2 1_555 1_555
C9 H6 1_555 1_555
C10 C9 1_555 1_555
C11 C10 1_555 1_555
C12 C11 1_555 1_555
C13 C12 1_555 1_555
H7 C13 1_555 1_555
C14 C13 1_555 1_555
H8 C14 1_555 1_555
C15 C10 1_555 1_555
H9 C15 1_555 1_555
C16 H10 1_555 1_555
H11 C16 1_555 1_555
H12 C16 1_555 1_555
N1 C7 1_555 1_555
N2 N1 1_555 1_555
N3 C8 1_555 1_555
H13 N3 1_555 1_555
N4 C9 1_555 1_555
O1 C11 1_555 1_555
H14 O1 1_555 1_555
O2 C12 1_555 1_555
S1 C7 1_555 1_555
C5 C6 1_555 1_555
C8 S1 1_555 1_555
C14 C15 1_555 1_555
C16 O2 1_555 1_555
N3 N4 1_555 1_555

#END
