
#######################################################################
#
#                 Cambridge Crystallographic Data Centre
#                                CCDC 
#
#######################################################################
#
# If this CIF has been generated from an entry in the Cambridge 
# Structural Database, then it will include bibliographic, chemical, 
# crystal, experimental, refinement or atomic coordinate data resulting 
# from the CCDC's data processing and validation procedures.
#
#######################################################################

data_QAJBOU
_chemical_formula_moiety         'H12 Mg1 O6 2+,2(C6 H5 N5),2(Br1 1-)'
_chemical_name_systematic        
'Hexaaqua-magnesium(ii) dibromide bis(5-(pyridinium-3-yl)tetrazol-1-ide)'
_symmetry_cell_setting           triclinic
_symmetry_space_group_name_H-M   'P -1'
_symmetry_Int_Tables_number      2
_space_group_name_Hall           '-P 1'
loop_
_symmetry_equiv_pos_site_id
_symmetry_equiv_pos_as_xyz
1 x,y,z
2 -x,-y,-z
_cell_length_a                   7.3439(15)
_cell_length_b                   8.7786(18)
_cell_length_c                   9.5863(19)
_cell_angle_alpha                94.04(3)
_cell_angle_beta                 90.94(3)
_cell_angle_gamma                111.75(3)
_cell_volume                     571.994
_exptl_crystal_colour            colorless
_exptl_crystal_description       block
_cell_formula_units_Z            1
loop_
_atom_site_label
_atom_site_type_symbol
_atom_site_fract_x
_atom_site_fract_y
_atom_site_fract_z
N1 N 0.3716(3) 0.6009(3) 0.6076(3)
N2 N 0.2637(3) 0.5318(3) 0.3932(2)
C1 C 0.1639(4) 0.4135(3) 0.4740(3)
N3 N 0.2266(3) 0.4528(3) 0.6073(2)
C2 C 0.0038(4) 0.2612(3) 0.4229(3)
C3 C -0.1073(4) 0.1506(4) 0.5142(3)
H1 H -0.0792 0.1730 0.6101
N4 N -0.1923(4) 0.0847(4) 0.2374(3)
H2 H -0.2202 0.0642 0.1489
N5 N 0.3947(3) 0.6479(3) 0.4800(3)
C4 C -0.0427(5) 0.2234(4) 0.2822(3)
H3 H 0.0296 0.2941 0.2180
C5 C -0.3000(5) -0.0234(4) 0.3232(4)
H4 H -0.4017 -0.1188 0.2873
C6 C -0.2598(4) 0.0073(4) 0.4639(4)
H5 H -0.3335 -0.0668 0.5253
Mg1 Mg 0.5000 0.5000 1.0000
O1 O 0.2634(3) 0.3471(3) 0.8692(2)
H6 H 0.2453 0.3674 0.7906
H7 H 0.1806 0.2467 0.8849
O2 O 0.5507(3) 0.6851(2) 0.8697(2)
H8 H 0.5117 0.6602 0.7829
H9 H 0.6098 0.7777 0.8780
O3 O 0.3123(4) 0.5786(3) 1.1155(2)
H10 H 0.2760 0.6585 1.0834
H11 H 0.3030 0.5606 1.2130
O1A O 0.7366(3) 0.6529(3) 1.1308(2)
H6A H 0.7547 0.6326 1.2094
H7A H 0.8194 0.7533 1.1151
O2A O 0.4493(3) 0.3149(2) 1.1303(2)
H8A H 0.4883 0.3398 1.2171
H9A H 0.3902 0.2223 1.1220
O3A O 0.6877(4) 0.4214(3) 0.8845(2)
H10A H 0.7240 0.3415 0.9166
H11A H 0.6970 0.4394 0.7870
Br1 Br 0.79518(5) 0.08632(4) 0.89951(3)
loop_
_geom_bond_atom_site_label_1
_geom_bond_atom_site_label_2
_geom_bond_site_symmetry_1
_geom_bond_site_symmetry_2
N1 N3 1_555 1_555
N2 C1 1_555 1_555
C1 N3 1_555 1_555
C2 C1 1_555 1_555
C3 C2 1_555 1_555
H1 C3 1_555 1_555
N4 H2 1_555 1_555
N5 N1 1_555 1_555
C4 C2 1_555 1_555
H3 C4 1_555 1_555
C5 N4 1_555 1_555
H4 C5 1_555 1_555
C6 C3 1_555 1_555
H5 C6 1_555 1_555
Mg1 O1 1_555 1_555
O1 H6 1_555 1_555
H7 O1 1_555 1_555
O2 Mg1 1_555 1_555
H8 O2 1_555 1_555
H9 O2 1_555 1_555
O3 Mg1 1_555 1_555
H10 O3 1_555 1_555
H11 O3 1_555 1_555
O1A Mg1 1_555 1_555
H6A O1A 1_555 1_555
H7A O1A 1_555 1_555
O2A Mg1 1_555 1_555
H8A O2A 1_555 1_555
H9A O2A 1_555 1_555
O3A Mg1 1_555 1_555
H10A O3A 1_555 1_555
H11A O3A 1_555 1_555
N2 N5 1_555 1_555
N4 C4 1_555 1_555
C5 C6 1_555 1_555

#END
