
#######################################################################
#
#                 Cambridge Crystallographic Data Centre
#                                CCDC 
#
#######################################################################
#
# If this CIF has been generated from an entry in the Cambridge 
# Structural Database, then it will include bibliographic, chemical, 
# crystal, experimental, refinement or atomic coordinate data resulting 
# from the CCDC's data processing and validation procedures.
#
#######################################################################

data_QAJJET
_chemical_name_common            
'C-Methyl-5,11,17,23-tetrakis(benzylammoniomethyl)calix(4)resorcinarene tetrakis(triflate) 1,4-dioxane solvate'
_chemical_formula_moiety         
'C64 H72 N4 O8 4+,4(C1 F3 O3 S1 1-),2(C4 H8 O2)'
_chemical_name_systematic        
'2,8,14,20-Tetramethyl-5,11,17,23-tetrakis(benzylammoniomethyl)-4,6,10,12,16,18,22,24-octahydroxycalix(4)arene tetrakis(trifluoromethanesulfonate) 1,4-dioxane solvate'
_symmetry_cell_setting           monoclinic
_symmetry_space_group_name_H-M   'P 21/c'
_symmetry_Int_Tables_number      14
_space_group_name_Hall           '-P 2ybc'
loop_
_symmetry_equiv_pos_site_id
_symmetry_equiv_pos_as_xyz
1 x,y,z
2 -x,1/2+y,1/2-z
3 -x,-y,-z
4 x,1/2-y,1/2+z
_cell_length_a                   16.2661(7)
_cell_length_b                   21.2655(10)
_cell_length_c                   24.1846(13)
_cell_angle_alpha                90
_cell_angle_beta                 101.768(5)
_cell_angle_gamma                90
_cell_volume                     8189.78
_exptl_crystal_colour            colorless
_exptl_crystal_description       plate
_cell_formula_units_Z            4
loop_
_atom_site_label
_atom_site_type_symbol
_atom_site_fract_x
_atom_site_fract_y
_atom_site_fract_z
C1 C 0.6181(5) 0.6418(4) 0.7221(3)
C2 C 0.5808(5) 0.6979(4) 0.7340(3)
C3 C 0.6074(5) 0.7300(4) 0.7852(3)
C4 C 0.6760(5) 0.7046(4) 0.8248(3)
C5 C 0.7135(5) 0.6485(4) 0.8143(3)
C6 C 0.6825(4) 0.6182(4) 0.7634(3)
H1 H 0.7064 0.5800 0.7567
C7 C 0.5660(5) 0.7862(4) 0.8029(3)
H2 H 0.5124 0.7924 0.7773
H3 H 0.5551 0.7792 0.8404
C8 C 0.5718(6) 0.9048(4) 0.8121(4)
H4 H 0.6081 0.9402 0.8088
H5 H 0.5216 0.9087 0.7828
C9 C 0.5483(5) 0.9066(4) 0.8684(4)
C10 C 0.5994(6) 0.9343(5) 0.9151(4)
H6 H 0.6515 0.9501 0.9119
C11 C 0.5743(7) 0.9388(5) 0.9665(5)
H7 H 0.6083 0.9589 0.9969
C12 C 0.4989(8) 0.9132(5) 0.9718(5)
H8 H 0.4826 0.9146 1.0064
C13 C 0.4484(7) 0.8862(5) 0.9272(5)
H9 H 0.3971 0.8696 0.9312
C14 C 0.4717(6) 0.8827(4) 0.8758(4)
H10 H 0.4357 0.8641 0.8454
C15 C 0.7854(5) 0.6198(4) 0.8586(3)
H11 H 0.7742 0.6313 0.8956
C16 C 0.7877(5) 0.5481(4) 0.8571(4)
H12 H 0.7974 0.5344 0.8211
H13 H 0.7350 0.5316 0.8627
H14 H 0.8322 0.5330 0.8865
C17 C 0.8700(4) 0.6495(4) 0.8554(3)
C18 C 0.9066(4) 0.6960(4) 0.8940(3)
C19 C 0.9846(5) 0.7216(4) 0.8931(3)
C20 C 1.0269(4) 0.6986(4) 0.8529(3)
C21 C 0.9949(4) 0.6516(4) 0.8145(3)
C22 C 0.9154(5) 0.6284(4) 0.8168(3)
H15 H 0.8920 0.5974 0.7912
C23 C 1.0252(5) 0.7663(4) 0.9380(3)
H16 H 1.0738 0.7463 0.9612
H17 H 0.9860 0.7763 0.9620
C24 C 1.0879(6) 0.8747(4) 0.9584(4)
H18 H 1.1069 0.9109 0.9400
H19 H 1.0441 0.8885 0.9774
C25 C 1.1602(5) 0.8486(4) 1.0012(4)
C26 C 1.1481(5) 0.8299(4) 1.0547(4)
H20 H 1.0952 0.8332 1.0635
C27 C 1.2152(6) 0.8062(5) 1.0945(4)
H21 H 1.2075 0.7925 1.1296
C28 C 1.2952(6) 0.8037(6) 1.0805(4)
H22 H 1.3406 0.7878 1.1064
C29 C 1.3063(6) 0.8242(6) 1.0295(5)
H23 H 1.3595 0.8228 1.0209
C30 C 1.2390(6) 0.8472(6) 0.9901(5)
H24 H 1.2478 0.8619 0.9555
C31 C 1.0445(5) 0.6228(4) 0.7734(3)
H25 H 1.1027 0.6370 0.7855
C32 C 1.0458(5) 0.5505(4) 0.7767(4)
H26 H 0.9899 0.5345 0.7641
H27 H 1.0668 0.5376 0.8150
H28 H 1.0815 0.5342 0.7530
C33 C 1.0131(4) 0.6487(4) 0.7147(3)
C34 C 1.0417(4) 0.7059(4) 0.6995(3)
C35 C 1.0144(4) 0.7313(4) 0.6467(3)
C36 C 0.9517(4) 0.6999(3) 0.6082(3)
C37 C 0.9165(5) 0.6438(4) 0.6215(3)
C38 C 0.9506(4) 0.6186(4) 0.6749(3)
H29 H 0.9308 0.5798 0.6843
C39 C 1.0512(5) 0.7892(4) 0.6267(4)
H30 H 1.0682 0.7800 0.5913
H31 H 1.1012 0.8009 0.6541
C40 C 1.0302(5) 0.9059(4) 0.6070(3)
H32 H 0.9872 0.9382 0.6008
H33 H 1.0722 0.9177 0.6399
C41 C 1.0698(5) 0.9024(4) 0.5571(4)
C42 C 1.1519(5) 0.8820(4) 0.5608(4)
H34 H 1.1844 0.8732 0.5962
C43 C 1.1869(6) 0.8744(5) 0.5143(5)
H35 H 1.2418 0.8599 0.5185
C44 C 1.1396(6) 0.8884(5) 0.4602(4)
H36 H 1.1627 0.8830 0.4284
C45 C 1.0582(6) 0.9102(4) 0.4550(4)
H37 H 1.0268 0.9205 0.4196
C46 C 1.0232(5) 0.9170(4) 0.5030(4)
H38 H 0.9683 0.9313 0.4991
C47 C 0.8505(5) 0.6085(4) 0.5783(3)
H39 H 0.8614 0.6182 0.5408
C48 C 0.8557(5) 0.5378(4) 0.5851(4)
H40 H 0.9117 0.5240 0.5846
H41 H 0.8170 0.5182 0.5547
H42 H 0.8415 0.5262 0.6204
C49 C 0.7627(5) 0.6345(4) 0.5801(3)
C50 C 0.7228(4) 0.6774(4) 0.5389(3)
C51 C 0.6416(4) 0.7005(4) 0.5397(3)
C52 C 0.6012(4) 0.6777(4) 0.5810(3)
C53 C 0.6376(4) 0.6344(3) 0.6223(3)
C54 C 0.7189(4) 0.6145(3) 0.6201(3)
H43 H 0.7450 0.5860 0.6472
C55 C 0.5973(5) 0.7434(4) 0.4936(3)
H44 H 0.5491 0.7219 0.4713
H45 H 0.6350 0.7545 0.4688
C56 C 0.5240(5) 0.8502(4) 0.4757(4)
H46 H 0.5049 0.8855 0.4952
H47 H 0.5637 0.8661 0.4542
C57 C 0.4507(5) 0.8222(5) 0.4362(4)
C58 C 0.4578(6) 0.8116(5) 0.3805(4)
H48 H 0.5069 0.8218 0.3684
C59 C 0.3879(6) 0.7848(6) 0.3423(5)
H49 H 0.3910 0.7772 0.3050
C60 C 0.3162(7) 0.7701(6) 0.3610(5)
H50 H 0.2712 0.7522 0.3361
C61 C 0.3098(6) 0.7815(6) 0.4159(5)
H51 H 0.2603 0.7725 0.4279
C62 C 0.3771(5) 0.8063(6) 0.4526(4)
H52 H 0.3731 0.8127 0.4900
C63 C 0.5901(5) 0.6097(4) 0.6652(3)
H53 H 0.5310 0.6208 0.6516
C64 C 0.5946(5) 0.5369(4) 0.6691(4)
H54 H 0.5638 0.5190 0.6346
H55 H 0.5706 0.5230 0.7001
H56 H 0.6522 0.5237 0.6750
N1 N 0.6171(4) 0.8436(3) 0.8036(3)
H57 H 0.6361 0.8462 0.7682
H58 H 0.6665 0.8398 0.8336
N2 N 1.0521(4) 0.8259(3) 0.9140(3)
H59 H 1.0042 0.8440 0.8884
H60 H 1.0943 0.8160 0.8921
N3 N 0.9913(4) 0.8441(3) 0.6179(3)
H61 H 0.9459 0.8347 0.5863
H62 H 0.9671 0.8485 0.6512
N4 N 0.5686(4) 0.8027(3) 0.5195(3)
H63 H 0.6172 0.8229 0.5426
H64 H 0.5309 0.7909 0.5440
O1 O 0.5150(3) 0.7204(3) 0.6925(3)
H65 H 0.5068 0.7576 0.6984
O2 O 0.6989(3) 0.7406(3) 0.8722(2)
H66 H 0.7401 0.7250 0.8929
O3 O 0.8617(3) 0.7192(3) 0.9331(2)
H67 H 0.8664 0.6949 0.9599
O4 O 1.1062(3) 0.7246(3) 0.8548(2)
H68 H 1.1167 0.7242 0.8230
O5 O 1.1005(4) 0.7371(3) 0.7400(2)
H69 H 1.0951 0.7752 0.7352
O6 O 0.9275(3) 0.7296(3) 0.5564(2)
H70 H 0.8784 0.7209 0.5428
O7 O 0.7643(3) 0.7034(3) 0.5000(2)
H71 H 0.7707 0.6766 0.4769
O8 O 0.5194(3) 0.7010(3) 0.5778(2)
H72 H 0.5131 0.7107 0.6095
C65 C 0.6189(10) 1.0456(9) 0.6953(7)
H73 H 0.5835 1.0827 0.6901
H74 H 0.5902 1.0123 0.6715
C66 C 0.7013(9) 1.0596(7) 0.6796(6)
H75 H 0.7365 1.0224 0.6843
H76 H 0.6925 1.0727 0.6404
C67 C 0.7523(8) 1.0978(8) 0.7748(5)
H77 H 0.7740 1.1348 0.7963
H78 H 0.7917 1.0636 0.7856
C68 C 0.6662(11) 1.0801(9) 0.7866(8)
H79 H 0.6713 1.0702 0.8263
H80 H 0.6277 1.1152 0.7775
O9 O 0.6345(10) 1.0266(7) 0.7527(6)
O10 O 0.7417(8) 1.1099(6) 0.7164(5)
C69 C 0.7606(6) 0.7777(4) 0.7068(4)
H81 H 0.7380 0.7795 0.6665
H82 H 0.7402 0.7396 0.7214
C70 C 0.8551(5) 0.7764(4) 0.7174(4)
H83 H 0.8777 0.7735 0.7577
H84 H 0.8736 0.7399 0.6993
C71 C 0.8582(7) 0.8869(5) 0.7222(5)
H85 H 0.8770 0.9252 0.7067
H86 H 0.8822 0.8858 0.7623
C72 C 0.7654(7) 0.8869(4) 0.7132(4)
H87 H 0.7475 0.9231 0.7321
H88 H 0.7421 0.8909 0.6732
O11 O 0.7328(4) 0.8315(3) 0.7338(3)
O12 O 0.8858(3) 0.8334(3) 0.6951(2)
C73 C 0.4157(9) 0.9315(7) 0.6366(6)
F1 F 0.3863(12) 0.9562(8) 0.5843(7)
F2 F 0.3525(12) 0.8962(11) 0.6565(10)
F3 F 0.4453(13) 0.9778(10) 0.6707(9)
O13 O 0.4510(5) 0.8292(4) 0.5920(3)
O14 O 0.5158(8) 0.8486(5) 0.6906(4)
O15 O 0.5567(7) 0.9051(6) 0.6129(5)
S1 S 0.48960(18) 0.87179(14) 0.63540(14)
C74 C 0.8622(6) 0.9907(5) 0.9144(4)
F7 F 0.7983(4) 1.0126(3) 0.9344(3)
F8 F 0.9308(4) 0.9936(3) 0.9570(3)
F9 F 0.8764(5) 1.0280(3) 0.8759(4)
O18 O 0.9142(4) 0.8965(4) 0.8653(3)
O19 O 0.7646(4) 0.9162(4) 0.8498(3)
S2 S 0.84349(15) 0.91057(12) 0.89002(11)
O20 O 0.8403(7) 0.8768(4) 0.9391(4)
C75 C 1.2407(7) 0.8864(5) 0.7573(5)
F10 F 1.3017(4) 0.9107(4) 0.7892(4)
F11 F 1.2528(4) 0.8243(3) 0.7523(3)
F12 F 1.2305(5) 0.9112(4) 0.7057(3)
O21 O 1.1574(5) 0.8702(4) 0.8372(3)
O22 O 1.0812(4) 0.8649(3) 0.7410(3)
O23 O 1.1333(5) 0.9661(3) 0.7807(3)
S3 S 1.14070(15) 0.89892(12) 0.78346(10)
C76 C 0.7664(7) 0.9531(5) 0.5383(5)
F13 F 0.7914(5) 0.9852(3) 0.4973(3)
F14 F 0.6904(5) 0.9748(4) 0.5425(3)
F15 F 0.8200(4) 0.9671(3) 0.5882(3)
O24 O 0.8521(3) 0.8565(3) 0.5244(3)
O25 O 0.7092(4) 0.8642(3) 0.4713(2)
O26 O 0.7350(3) 0.8432(3) 0.5713(2)
S4 S 0.76482(13) 0.87060(11) 0.52579(10)
F4? F 0.3423(8) 0.9242(8) 0.6182(9)
F5? F 0.4174(13) 0.9613(10) 0.6872(9)
F6? F 0.446(2) 0.9816(12) 0.6025(12)
O16? O 0.450(2) 0.8396(13) 0.6780(11)
O17? O 0.5607(11) 0.8852(15) 0.6797(10)
loop_
_geom_bond_atom_site_label_1
_geom_bond_atom_site_label_2
_geom_bond_site_symmetry_1
_geom_bond_site_symmetry_2
C1 C2 1_555 1_555
C2 C3 1_555 1_555
C3 C4 1_555 1_555
C4 C5 1_555 1_555
C5 C6 1_555 1_555
C6 C1 1_555 1_555
H1 C6 1_555 1_555
C7 C3 1_555 1_555
H2 C7 1_555 1_555
H3 C7 1_555 1_555
C8 H4 1_555 1_555
H5 C8 1_555 1_555
C9 C8 1_555 1_555
C10 C9 1_555 1_555
H6 C10 1_555 1_555
C11 C10 1_555 1_555
H7 C11 1_555 1_555
C12 C11 1_555 1_555
H8 C12 1_555 1_555
C13 C12 1_555 1_555
H9 C13 1_555 1_555
C14 C9 1_555 1_555
H10 C14 1_555 1_555
C15 C5 1_555 1_555
H11 C15 1_555 1_555
C16 C15 1_555 1_555
H12 C16 1_555 1_555
H13 C16 1_555 1_555
H14 C16 1_555 1_555
C17 C15 1_555 1_555
C18 C17 1_555 1_555
C19 C18 1_555 1_555
C20 C19 1_555 1_555
C21 C20 1_555 1_555
C22 C17 1_555 1_555
H15 C22 1_555 1_555
C23 C19 1_555 1_555
H16 C23 1_555 1_555
H17 C23 1_555 1_555
C24 H18 1_555 1_555
H19 C24 1_555 1_555
C25 C24 1_555 1_555
C26 C25 1_555 1_555
H20 C26 1_555 1_555
C27 C26 1_555 1_555
H21 C27 1_555 1_555
C28 C27 1_555 1_555
H22 C28 1_555 1_555
C29 C28 1_555 1_555
H23 C29 1_555 1_555
C30 C25 1_555 1_555
H24 C30 1_555 1_555
C31 C21 1_555 1_555
H25 C31 1_555 1_555
C32 C31 1_555 1_555
H26 C32 1_555 1_555
H27 C32 1_555 1_555
H28 C32 1_555 1_555
C33 C31 1_555 1_555
C34 C33 1_555 1_555
C35 C34 1_555 1_555
C36 C35 1_555 1_555
C37 C36 1_555 1_555
C38 C33 1_555 1_555
H29 C38 1_555 1_555
C39 C35 1_555 1_555
H30 C39 1_555 1_555
H31 C39 1_555 1_555
C40 H32 1_555 1_555
H33 C40 1_555 1_555
C41 C40 1_555 1_555
C42 C41 1_555 1_555
H34 C42 1_555 1_555
C43 C42 1_555 1_555
H35 C43 1_555 1_555
C44 C43 1_555 1_555
H36 C44 1_555 1_555
C45 C44 1_555 1_555
H37 C45 1_555 1_555
C46 C41 1_555 1_555
H38 C46 1_555 1_555
C47 C37 1_555 1_555
H39 C47 1_555 1_555
C48 C47 1_555 1_555
H40 C48 1_555 1_555
H41 C48 1_555 1_555
H42 C48 1_555 1_555
C49 C47 1_555 1_555
C50 C49 1_555 1_555
C51 C50 1_555 1_555
C52 C51 1_555 1_555
C53 C52 1_555 1_555
C54 C49 1_555 1_555
H43 C54 1_555 1_555
C55 C51 1_555 1_555
H44 C55 1_555 1_555
H45 C55 1_555 1_555
C56 H46 1_555 1_555
H47 C56 1_555 1_555
C57 C56 1_555 1_555
C58 C57 1_555 1_555
H48 C58 1_555 1_555
C59 C58 1_555 1_555
H49 C59 1_555 1_555
C60 C59 1_555 1_555
H50 C60 1_555 1_555
C61 C60 1_555 1_555
H51 C61 1_555 1_555
C62 C57 1_555 1_555
H52 C62 1_555 1_555
C63 C1 1_555 1_555
H53 C63 1_555 1_555
C64 C63 1_555 1_555
H54 C64 1_555 1_555
H55 C64 1_555 1_555
H56 C64 1_555 1_555
N1 C7 1_555 1_555
H57 N1 1_555 1_555
H58 N1 1_555 1_555
N2 C23 1_555 1_555
H59 N2 1_555 1_555
H60 N2 1_555 1_555
N3 C39 1_555 1_555
H61 N3 1_555 1_555
H62 N3 1_555 1_555
N4 C55 1_555 1_555
H63 N4 1_555 1_555
H64 N4 1_555 1_555
O1 C2 1_555 1_555
H65 O1 1_555 1_555
O2 C4 1_555 1_555
H66 O2 1_555 1_555
O3 C18 1_555 1_555
H67 O3 1_555 1_555
O4 C20 1_555 1_555
H68 O4 1_555 1_555
O5 C34 1_555 1_555
H69 O5 1_555 1_555
O6 C36 1_555 1_555
H70 O6 1_555 1_555
O7 C50 1_555 1_555
H71 O7 1_555 1_555
O8 C52 1_555 1_555
H72 O8 1_555 1_555
C65 H73 1_555 1_555
H74 C65 1_555 1_555
C66 C65 1_555 1_555
H75 C66 1_555 1_555
H76 C66 1_555 1_555
C67 H77 1_555 1_555
H78 C67 1_555 1_555
C68 C67 1_555 1_555
H79 C68 1_555 1_555
H80 C68 1_555 1_555
O9 C65 1_555 1_555
O10 C66 1_555 1_555
C69 H81 1_555 1_555
H82 C69 1_555 1_555
C70 C69 1_555 1_555
H83 C70 1_555 1_555
H84 C70 1_555 1_555
C71 H85 1_555 1_555
H86 C71 1_555 1_555
C72 C71 1_555 1_555
H87 C72 1_555 1_555
H88 C72 1_555 1_555
O11 C69 1_555 1_555
O12 C70 1_555 1_555
C73 F1 1_555 1_555
F2 C73 1_555 1_555
F3 C73 1_555 1_555
O13 S1 1_555 1_555
O14 S1 1_555 1_555
O15 S1 1_555 1_555
S1 C73 1_555 1_555
C74 F7 1_555 1_555
F8 C74 1_555 1_555
F9 C74 1_555 1_555
O18 S2 1_555 1_555
O19 S2 1_555 1_555
S2 C74 1_555 1_555
O20 S2 1_555 1_555
C75 F10 1_555 1_555
F11 C75 1_555 1_555
F12 C75 1_555 1_555
O21 S3 1_555 1_555
O22 S3 1_555 1_555
O23 S3 1_555 1_555
S3 C75 1_555 1_555
C76 F13 1_555 1_555
F14 C76 1_555 1_555
F15 C76 1_555 1_555
O24 S4 1_555 1_555
O25 S4 1_555 1_555
O26 S4 1_555 1_555
S4 C76 1_555 1_555
C8 N1 1_555 1_555
C13 C14 1_555 1_555
C21 C22 1_555 1_555
C24 N2 1_555 1_555
C29 C30 1_555 1_555
C37 C38 1_555 1_555
C40 N3 1_555 1_555
C45 C46 1_555 1_555
C53 C54 1_555 1_555
C53 C63 1_555 1_555
C56 N4 1_555 1_555
C61 C62 1_555 1_555
C67 O10 1_555 1_555
C68 O9 1_555 1_555
C71 O12 1_555 1_555
C72 O11 1_555 1_555

#END
