
#######################################################################
#
#                 Cambridge Crystallographic Data Centre
#                                CCDC 
#
#######################################################################
#
# If this CIF has been generated from an entry in the Cambridge 
# Structural Database, then it will include bibliographic, chemical, 
# crystal, experimental, refinement or atomic coordinate data resulting 
# from the CCDC's data processing and validation procedures.
#
#######################################################################

data_QAJKES
_chemical_formula_moiety         'C18 H34 O12 P4'
_chemical_name_systematic        
1,2,4,5-tetrakis(Dimethoxyphosphorylmethyl)benzene
_symmetry_cell_setting           monoclinic
_symmetry_space_group_name_H-M   'P 21/c'
_symmetry_Int_Tables_number      14
_space_group_name_Hall           '-P 2ybc'
loop_
_symmetry_equiv_pos_site_id
_symmetry_equiv_pos_as_xyz
1 x,y,z
2 x,1/2-y,1/2+z
3 -x,-y,-z
4 -x,1/2+y,1/2-z
_cell_length_a                   12.368(2)
_cell_length_b                   20.224(2)
_cell_length_c                   16.027(3)
_cell_angle_alpha                90
_cell_angle_beta                 95.568(17)
_cell_angle_gamma                90
_cell_volume                     3989.93
_exptl_crystal_colour            colorless
_exptl_crystal_description       prism
_chemical_melting_point          183-185deg.C
_cell_formula_units_Z            6
loop_
_atom_site_label
_atom_site_type_symbol
_atom_site_fract_x
_atom_site_fract_y
_atom_site_fract_z
C1 C 0.0520(3) 0.00251(19) 0.6972(2)
C2 C 0.0656(3) 0.03566(19) 0.6223(2)
C3 C 0.1669(3) 0.0346(2) 0.5931(2)
H1 H 0.1759 0.0564 0.5432
C4 C 0.2555(3) 0.0029(2) 0.6342(2)
C5 C 0.2427(3) -0.0302(2) 0.7097(2)
C6 C 0.1413(3) -0.0293(2) 0.7398(2)
H2 H 0.1325 -0.0506 0.7901
C7 C -0.0567(3) -0.0002(2) 0.7348(3)
H3 H -0.0954 0.0409 0.7224
H4 H -0.0432 -0.0040 0.7952
C8 C -0.3420(5) -0.0920(4) 0.7266(4)
H5 H -0.3962 -0.0760 0.7606
H6 H -0.3260 -0.1374 0.7402
H7 H -0.3686 -0.0885 0.6685
C9 C -0.0760(5) -0.1443(3) 0.8248(4)
H8 H -0.0452 -0.1874 0.8356
H9 H -0.1448 -0.1416 0.8477
H10 H -0.0278 -0.1114 0.8506
C10 C -0.0265(3) 0.07204(19) 0.5724(2)
H11 H -0.0929 0.0467 0.5738
H12 H -0.0107 0.0751 0.5144
C11 C -0.1927(5) 0.2427(3) 0.5598(4)
H13 H -0.2475 0.2512 0.5144
H14 H -0.1391 0.2772 0.5621
H15 H -0.2255 0.2415 0.6116
C12 C 0.0882(5) 0.2107(3) 0.5159(4)
H16 H 0.1525 0.2375 0.5215
H17 H 0.0310 0.2340 0.4835
H18 H 0.1030 0.1700 0.4882
C13 C 0.3630(3) 0.0042(2) 0.5952(3)
H19 H 0.3482 0.0084 0.5349
H20 H 0.4000 -0.0376 0.6065
C14 C 0.3343(3) -0.0673(2) 0.7598(3)
H21 H 0.3190 -0.0692 0.8180
H22 H 0.4013 -0.0426 0.7575
O1 O -0.2448(2) -0.05312(18) 0.7425(2)
O2 O -0.0914(3) -0.13287(16) 0.7349(2)
O3 O -0.1596(3) -0.07365(18) 0.60530(18)
O4 O -0.1408(3) 0.17913(16) 0.5463(2)
O5 O 0.0551(3) 0.19636(15) 0.5981(2)
O6 O -0.0697(3) 0.15754(16) 0.6985(2)
O7 O 0.3990(3) 0.13628(16) 0.5978(2)
O8 O 0.5494(3) 0.0577(2) 0.5805(2)
O9 O 0.4778(3) 0.07319(19) 0.7234(2)
O10 O 0.4427(3) -0.17692(19) 0.7905(3)
O11 O 0.2495(3) -0.18959(18) 0.7406(2)
O12 O 0.3830(3) -0.15459(18) 0.6382(2)
P1 P -0.14074(9) -0.06741(6) 0.69631(7)
P2 P -0.04753(10) 0.15355(6) 0.61138(8)
P3 P 0.45108(9) 0.06994(6) 0.63315(7)
P4 P 0.35388(11) -0.14925(7) 0.72335(9)
C22 C 0.1550(10) -0.2005(6) 0.6944(18)
H34 H 0.0999 -0.2107 0.7307
H35 H 0.1630 -0.2370 0.6572
H36 H 0.1344 -0.1617 0.6622
C25 C 0.4921(10) -0.2420(7) 0.7839(8)
H43 H 0.5442 -0.2492 0.8314
H44 H 0.5280 -0.2441 0.7334
H45 H 0.4368 -0.2753 0.7824
C29 C 0.3864(8) 0.1449(5) 0.5043(6)
H55 H 0.3539 0.1871 0.4905
H56 H 0.3408 0.1104 0.4792
H57 H 0.4564 0.1426 0.4834
C30 C 0.6357(12) 0.1085(10) 0.5801(12)
H58 H 0.6901 0.0939 0.5454
H59 H 0.6684 0.1154 0.6362
H60 H 0.6047 0.1493 0.5584
C15 C 0.5171(3) 0.02843(19) 0.9249(2)
H23 H 0.5284 0.0475 0.8736
C16 C 0.4138(3) 0.03205(19) 0.9526(2)
C17 C 0.6039(3) -0.0026(2) 0.9710(2)
C18 C 0.7141(3) -0.0032(2) 0.9372(3)
H24 H 0.7526 -0.0430 0.9563
H25 H 0.7038 -0.0046 0.8765
C19 C 0.9944(4) 0.0943(3) 0.9325(4)
H26 H 1.0493 0.0769 0.9001
H27 H 0.9745 0.1379 0.9130
H28 H 1.0222 0.0962 0.9905
C20 C 0.7245(5) 0.1359(3) 0.8343(4)
H29 H 0.6912 0.1778 0.8200
H30 H 0.7929 0.1332 0.8108
H31 H 0.6778 0.1009 0.8120
C21 C 0.3250(3) 0.0675(2) 0.8973(3)
H32 H 0.2580 0.0426 0.8973
H33 H 0.3449 0.0684 0.8402
O13 O 0.2134(4) 0.1774(2) 0.8654(4)
O14 O 0.7420(3) 0.12972(16) 0.9242(2)
O15 O 0.8998(2) 0.05174(18) 0.9232(2)
O16 O 0.8148(3) 0.07862(18) 1.05837(18)
P5 P 0.30129(10) 0.15056(6) 0.93022(8)
P6 P 0.79545(9) 0.06689(6) 0.96884(7)
O17 O 0.4061(4) 0.1883(2) 0.9158(3)
O18 O 0.2817(9) 0.1602(3) 1.0209(5)
C27 C 0.4980(15) 0.1944(9) 0.9687(11)
H49 H 0.5499 0.2207 0.9425
H50 H 0.5280 0.1514 0.9815
H51 H 0.4811 0.2156 1.0194
C33 C 0.2113(10) 0.1798(7) 0.7774(4)
H67 H 0.1444 0.1995 0.7543
H68 H 0.2167 0.1358 0.7558
H69 H 0.2713 0.2058 0.7622
C17B C 0.3961(3) 0.0026(2) 1.0290(2)
C15B C 0.4829(3) -0.02843(19) 1.0751(2)
H23B H 0.4716 -0.0475 1.1264
C16B C 0.5862(3) -0.03205(19) 1.0474(2)
C21B C 0.6750(3) -0.0675(2) 1.1027(3)
H32B H 0.7420 -0.0426 1.1027
H33B H 0.6551 -0.0684 1.1598
P5B P 0.69871(10) -0.15056(6) 1.06978(8)
O13B O 0.7866(4) -0.1774(2) 1.1346(4)
C33B C 0.7887(10) -0.1798(7) 1.2226(4)
H67B H 0.8556 -0.1995 1.2457
H68B H 0.7833 -0.1358 1.2442
H69B H 0.7287 -0.2058 1.2378
O17B O 0.5939(4) -0.1883(2) 1.0842(3)
C27B C 0.5020(15) -0.1944(9) 1.0313(11)
H49B H 0.4501 -0.2207 1.0575
H50B H 0.4720 -0.1514 1.0185
H51B H 0.5189 -0.2156 0.9806
O18B O 0.7183(9) -0.1602(3) 0.9791(5)
C18B C 0.2859(3) 0.0032(2) 1.0628(3)
H24B H 0.2474 0.0430 1.0437
H25B H 0.2962 0.0046 1.1235
P6B P 0.20455(9) -0.06689(6) 1.03116(7)
O14B O 0.2580(3) -0.12972(16) 1.0758(2)
C20B C 0.2755(5) -0.1359(3) 1.1657(4)
H29B H 0.3088 -0.1778 1.1800
H30B H 0.2071 -0.1332 1.1892
H31B H 0.3222 -0.1009 1.1880
O15B O 0.1002(2) -0.05174(18) 1.0768(2)
C19B C 0.0056(4) -0.0943(3) 1.0675(4)
H26B H -0.0493 -0.0769 1.0999
H27B H 0.0255 -0.1379 1.0870
H28B H -0.0222 -0.0962 1.0095
O16B O 0.1852(3) -0.07862(18) 0.94163(18)
C23? C 0.1635(12) -0.1958(8) 0.660(2)
H37? H 0.1019 -0.2207 0.6746
H38? H 0.1965 -0.2179 0.6163
H39? H 0.1404 -0.1524 0.6419
C24? C 0.4455(12) -0.1730(8) 0.8827(9)
H40? H 0.5095 -0.1949 0.9078
H41? H 0.3822 -0.1942 0.9005
H42? H 0.4467 -0.1275 0.8997
O19? O 0.2363(14) 0.1550(5) 0.9965(8)
C26? C 0.4205(15) 0.2551(10) 0.9253(11)
H46? H 0.4927 0.2667 0.9135
H47? H 0.4102 0.2674 0.9819
H48? H 0.3686 0.2780 0.8873
C28? C 0.3507(15) 0.1829(9) 0.6574(11)
H52? H 0.3218 0.2210 0.6272
H53? H 0.4060 0.1966 0.7001
H54? H 0.2935 0.1608 0.6829
C31? C 0.6560(11) 0.0859(11) 0.6062(12)
H61? H 0.7056 0.0742 0.5662
H62? H 0.6822 0.0689 0.6603
H63? H 0.6502 0.1332 0.6090
C32? C 0.1634(15) 0.2292(7) 0.8172(13)
H64? H 0.0984 0.2132 0.7862
H65? H 0.2124 0.2453 0.7789
H66? H 0.1455 0.2644 0.8536
loop_
_geom_bond_atom_site_label_1
_geom_bond_atom_site_label_2
_geom_bond_site_symmetry_1
_geom_bond_site_symmetry_2
C1 C2 1_555 1_555
C2 C3 1_555 1_555
C3 H1 1_555 1_555
C4 C3 1_555 1_555
C5 C4 1_555 1_555
C6 C1 1_555 1_555
H2 C6 1_555 1_555
C7 C1 1_555 1_555
H3 C7 1_555 1_555
H4 C7 1_555 1_555
C8 H5 1_555 1_555
H6 C8 1_555 1_555
H7 C8 1_555 1_555
C9 H8 1_555 1_555
H9 C9 1_555 1_555
H10 C9 1_555 1_555
C10 C2 1_555 1_555
H11 C10 1_555 1_555
H12 C10 1_555 1_555
C11 H13 1_555 1_555
H14 C11 1_555 1_555
H15 C11 1_555 1_555
C12 H16 1_555 1_555
H17 C12 1_555 1_555
H18 C12 1_555 1_555
C13 C4 1_555 1_555
H19 C13 1_555 1_555
H20 C13 1_555 1_555
C14 C5 1_555 1_555
H21 C14 1_555 1_555
H22 C14 1_555 1_555
C15 H23 1_555 1_555
C16 C15 1_555 1_555
C17 C15 1_555 1_555
C18 C17 1_555 1_555
H24 C18 1_555 1_555
H25 C18 1_555 1_555
C19 H26 1_555 1_555
H27 C19 1_555 1_555
H28 C19 1_555 1_555
C20 H29 1_555 1_555
H30 C20 1_555 1_555
H31 C20 1_555 1_555
C21 C16 1_555 1_555
H32 C21 1_555 1_555
H33 C21 1_555 1_555
O1 C8 1_555 1_555
O2 C9 1_555 1_555
O3 P1 1_555 1_555
O4 C11 1_555 1_555
O5 C12 1_555 1_555
O6 P2 1_555 1_555
O7 P3 1_555 1_555
O8 P3 1_555 1_555
O9 P3 1_555 1_555
O10 P4 1_555 1_555
O11 P4 1_555 1_555
O12 P4 1_555 1_555
O13 P5 1_555 1_555
O14 C20 1_555 1_555
O15 C19 1_555 1_555
O16 P6 1_555 1_555
P1 C7 1_555 1_555
P2 C10 1_555 1_555
P3 C13 1_555 1_555
P4 C14 1_555 1_555
P5 C21 1_555 1_555
P6 C18 1_555 1_555
O17 P5 1_555 1_555
C22 O11 1_555 1_555
H34 C22 1_555 1_555
H35 C22 1_555 1_555
H36 C22 1_555 1_555
C25 O10 1_555 1_555
H43 C25 1_555 1_555
H44 C25 1_555 1_555
H45 C25 1_555 1_555
O18 P5 1_555 1_555
C27 O17 1_555 1_555
H49 C27 1_555 1_555
H50 C27 1_555 1_555
H51 C27 1_555 1_555
C29 O7 1_555 1_555
H55 C29 1_555 1_555
H56 C29 1_555 1_555
H57 C29 1_555 1_555
C30 O8 1_555 1_555
H58 C30 1_555 1_555
H59 C30 1_555 1_555
H60 C30 1_555 1_555
C33 O13 1_555 1_555
H67 C33 1_555 1_555
H68 C33 1_555 1_555
H69 C33 1_555 1_555
C17B C16 1_555 1_555
C15B C17B 1_555 1_555
H23B C15B 1_555 1_555
C16B C17 1_555 1_555
C21B C16B 1_555 1_555
H32B C21B 1_555 1_555
H33B C21B 1_555 1_555
P5B C21B 1_555 1_555
O13B P5B 1_555 1_555
C33B O13B 1_555 1_555
H67B C33B 1_555 1_555
H68B C33B 1_555 1_555
H69B C33B 1_555 1_555
O17B P5B 1_555 1_555
C27B O17B 1_555 1_555
H49B C27B 1_555 1_555
H50B C27B 1_555 1_555
H51B C27B 1_555 1_555
O18B P5B 1_555 1_555
C18B C17B 1_555 1_555
H24B C18B 1_555 1_555
H25B C18B 1_555 1_555
P6B C18B 1_555 1_555
O14B P6B 1_555 1_555
C20B O14B 1_555 1_555
H29B C20B 1_555 1_555
H30B C20B 1_555 1_555
H31B C20B 1_555 1_555
O15B P6B 1_555 1_555
C19B O15B 1_555 1_555
H26B C19B 1_555 1_555
H27B C19B 1_555 1_555
H28B C19B 1_555 1_555
O16B P6B 1_555 1_555
C5 C6 1_555 1_555
O1 P1 1_555 1_555
O2 P1 1_555 1_555
O4 P2 1_555 1_555
O5 P2 1_555 1_555
O14 P6 1_555 1_555
O15 P6 1_555 1_555
C15B C16B 1_555 1_555

#END
