
#######################################################################
#
#                 Cambridge Crystallographic Data Centre
#                                CCDC 
#
#######################################################################
#
# If this CIF has been generated from an entry in the Cambridge 
# Structural Database, then it will include bibliographic, chemical, 
# crystal, experimental, refinement or atomic coordinate data resulting 
# from the CCDC's data processing and validation procedures.
#
#######################################################################

data_QAJMET
_chemical_formula_moiety         'C118 H52 O24,3.5(C1 H2 Cl2)'
_chemical_name_systematic        
'rac-(1,2:7,21:13,30;55,60:23,50:41,42-bis(Methylenebis(3-e t h o x y c arbonylmethylenecarbonyloxymethyl)phenylmethoxycarbonyl)C60fullerene) dichloromethane solvate'
_symmetry_cell_setting           monoclinic
_symmetry_space_group_name_H-M   'P 21/c'
_symmetry_Int_Tables_number      14
_space_group_name_Hall           '-P 2ybc'
loop_
_symmetry_equiv_pos_site_id
_symmetry_equiv_pos_as_xyz
1 x,y,z
2 x,1/2-y,1/2+z
3 -x,-y,-z
4 -x,1/2+y,1/2-z
_cell_length_a                   20.332(3)
_cell_length_b                   19.860(3)
_cell_length_c                   23.696(3)
_cell_angle_alpha                90
_cell_angle_beta                 93.02(1)
_cell_angle_gamma                90
_cell_volume                     9555
_exptl_crystal_colour            red-black
_cell_formula_units_Z            4
_exptl_crystal_recrystallization_method dichloromethane/benzene/hexane
loop_
_atom_site_label
_atom_site_type_symbol
_atom_site_fract_x
_atom_site_fract_y
_atom_site_fract_z
C1 C 0.2488(3) 0.4036(3) 0.4546(2)
C2 C 0.2002(3) 0.3535(3) 0.4200(2)
C3 C 0.1405(3) 0.3846(3) 0.3950(2)
C4 C 0.1227(3) 0.4506(3) 0.4061(2)
C5 C 0.1669(3) 0.4967(3) 0.4388(2)
C6 C 0.2256(3) 0.4752(3) 0.4616(2)
C7 C 0.2855(3) 0.5188(3) 0.4630(2)
C8 C 0.3377(3) 0.4774(3) 0.4382(2)
C9 C 0.3159(3) 0.4094(3) 0.4335(2)
C10 C 0.3372(3) 0.3685(3) 0.3913(3)
C11 C 0.2928(3) 0.3212(3) 0.3598(2)
C12 C 0.2289(3) 0.3150(3) 0.3726(2)
C13 C 0.1748(3) 0.3053(3) 0.3281(2)
C14 C 0.1248(3) 0.3567(3) 0.3405(2)
C15 C 0.0921(3) 0.3936(3) 0.2981(2)
C16 C 0.0725(3) 0.4613(3) 0.3095(2)
C17 C 0.0882(3) 0.4890(3) 0.3631(2)
C18 C 0.1094(3) 0.5580(3) 0.3669(2)
C19 C 0.1583(3) 0.5639(3) 0.4131(2)
C20 C 0.2097(3) 0.6074(3) 0.4098(3)
C21 C 0.2764(3) 0.5934(3) 0.4350(3)
C22 C 0.3235(3) 0.6118(3) 0.3913(3)
C23 C 0.3755(3) 0.5722(3) 0.3788(2)
C24 C 0.3811(3) 0.5035(3) 0.4006(2)
C25 C 0.4049(3) 0.4616(3) 0.3576(3)
C26 C 0.3835(3) 0.3943(3) 0.3525(3)
C27 C 0.3687(3) 0.3661(3) 0.2978(3)
C28 C 0.3132(3) 0.3210(3) 0.3010(2)
C29 C 0.2673(3) 0.3154(3) 0.2562(2)
C30 C 0.1968(3) 0.3044(3) 0.2629(2)
C31 C 0.1607(3) 0.3522(3) 0.2237(2)
C32 C 0.1080(3) 0.3898(3) 0.2392(2)
C33 C 0.0901(3) 0.4542(3) 0.2126(2)
C34 C 0.0752(3) 0.5004(3) 0.2591(2)
C35 C 0.0973(3) 0.5667(3) 0.2629(3)
C36 C 0.1140(3) 0.5956(3) 0.3183(3)
C37 C 0.1700(3) 0.6394(3) 0.3126(3)
C38 C 0.2173(3) 0.6439(3) 0.3577(3)
C39 C 0.2854(3) 0.6468(3) 0.3461(2)
C40 C 0.3040(3) 0.6466(3) 0.2904(3)
C41 C 0.3656(3) 0.6164(3) 0.2737(3)
C42 C 0.4053(3) 0.5723(3) 0.3227(3)
C43 C 0.4164(3) 0.5008(3) 0.3081(3)
C44 C 0.3997(3) 0.4736(3) 0.2554(2)
C45 C 0.3768(3) 0.4060(3) 0.2501(2)
C46 C 0.3271(3) 0.4027(3) 0.2045(2)
C47 C 0.2736(3) 0.3591(3) 0.2080(2)
C48 C 0.2092(3) 0.3809(3) 0.1877(2)
C49 C 0.2016(3) 0.4453(3) 0.1638(2)
C50 C 0.1421(3) 0.4851(3) 0.1685(2)
C51 C 0.1652(3) 0.5549(3) 0.1799(2)
C52 C 0.1441(3) 0.5936(3) 0.2230(2)
C53 C 0.1895(3) 0.6380(3) 0.2556(2)
C54 C 0.2553(3) 0.6432(3) 0.2447(2)
C55 C 0.2842(3) 0.6085(3) 0.1968(2)
C56 C 0.3477(3) 0.5794(3) 0.2200(2)
C57 C 0.3647(3) 0.5144(3) 0.2111(2)
C58 C 0.3196(3) 0.4678(3) 0.1804(2)
C59 C 0.2571(3) 0.4878(3) 0.1600(2)
C60 C 0.2347(3) 0.5589(3) 0.1626(2)
C61 C 0.2192(3) 0.3423(3) 0.4821(2)
C62 C 0.2618(3) 0.2822(3) 0.4969(2)
O1 O 0.3204(3) 0.2820(3) 0.5044(2)
O2 O 0.2221(2) 0.2287(2) 0.50025(19)
C63 C 0.2504(4) 0.1655(3) 0.5226(3)
H1 H 0.2327 0.1563 0.5586
H2 H 0.2973 0.1702 0.5282
C64 C 0.2348(4) 0.1082(3) 0.4833(3)
C65 C 0.2230(3) 0.1167(3) 0.4262(3)
H3 H 0.2250 0.1612 0.4106
C66 C 0.2086(4) 0.0620(3) 0.3906(3)
C67 C 0.2052(5) -0.0023(4) 0.4142(3)
H4 H 0.1951 -0.0403 0.3902
C68 C 0.2171(6) -0.0111(4) 0.4718(4)
H5 H 0.2155 -0.0552 0.4881
C69 C 0.2317(5) 0.0437(4) 0.5058(3)
H6 H 0.2402 0.0380 0.5457
C70 C 0.1955(4) 0.0681(3) 0.3288(3)
H7 H 0.1689 0.0311 0.3150
H8 H 0.2370 0.0660 0.3113
O3 O 0.1637(2) 0.1313(2) 0.31330(19)
C71 C 0.2036(3) 0.1824(3) 0.3015(2)
O4 O 0.2623(2) 0.1805(2) 0.3027(2)
C72 C 0.1633(3) 0.2451(3) 0.2895(2)
C73 C 0.0922(3) 0.2309(3) 0.2695(2)
O5 O 0.0758(2) 0.2221(2) 0.22046(18)
O6 O 0.0528(2) 0.2292(2) 0.31211(17)
C74 C -0.0170(3) 0.2147(3) 0.2999(3)
H9 H -0.0344 0.1907 0.3310
H10 H -0.0220 0.1869 0.2668
C75 C -0.0543(4) 0.2787(4) 0.2911(4)
H11 H -0.1001 0.2693 0.2829
H12 H -0.0493 0.3061 0.3244
H13 H -0.0368 0.3022 0.2598
C76 C 0.1678(4) 0.3542(3) 0.5242(3)
O7 O 0.1125(3) 0.3698(3) 0.5140(2)
O8 O 0.1960(3) 0.3467(3) 0.57583(19)
C77 C 0.1514(5) 0.3529(4) 0.6227(3)
H14 H 0.1676 0.3248 0.6533
H15 H 0.1085 0.3370 0.6103
C78 C 0.1466(4) 0.4235(4) 0.6438(3)
C79 C 0.0984(4) 0.4364(4) 0.6828(3)
H16 H 0.0686 0.4014 0.6929
C80 C 0.0941(4) 0.5000(5) 0.7057(4)
H17 H 0.0621 0.5090 0.7331
C81 C 0.1354(4) 0.5503(4) 0.6898(3)
H18 H 0.1324 0.5944 0.7062
C82 C 0.1826(4) 0.5390(4) 0.6515(3)
C83 C 0.1878(4) 0.4756(4) 0.6277(3)
H19 H 0.2203 0.4674 0.6005
C84 C 0.2273(5) 0.5966(5) 0.6382(3)
H20 H 0.2548 0.6073 0.6711
H21 H 0.2014 0.6358 0.6283
O9 O 0.2686(3) 0.5808(3) 0.5912(2)
C85 C 0.2438(4) 0.5978(3) 0.5398(3)
O10 O 0.1914(3) 0.6212(3) 0.5295(2)
C86 C 0.2952(4) 0.5835(3) 0.4967(3)
C87 C 0.3616(4) 0.6096(5) 0.5177(3)
O11 O 0.3692(4) 0.6668(3) 0.5287(3)
O12 O 0.4059(3) 0.5628(3) 0.5238(3)
C88 C 0.4708(6) 0.5870(7) 0.5447(5)
H22 H 0.4958 0.5503 0.5611
H23 H 0.4651 0.6198 0.5738
C89 C 0.5088(7) 0.6177(10) 0.4987(7)
H24 H 0.5507 0.6332 0.5142
H25 H 0.5155 0.5849 0.4698
H26 H 0.4845 0.6552 0.4826
C90 C 0.2663(3) 0.6190(3) 0.1344(2)
C91 C 0.3201(3) 0.6071(3) 0.0943(3)
O13 O 0.3387(3) 0.5543(2) 0.0780(2)
O14 O 0.3433(2) 0.6672(2) 0.07876(19)
C92 C 0.3925(4) 0.6659(4) 0.0366(3)
H27 H 0.3875 0.7058 0.0140
H28 H 0.3850 0.6278 0.0123
C93 C 0.4611(4) 0.6642(4) 0.0612(3)
C94 C 0.4776(4) 0.6739(4) 0.1179(3)
H29 H 0.4437 0.6819 0.1437
C95 C 0.5428(4) 0.6729(4) 0.1389(3)
C96 C 0.5914(5) 0.6627(9) 0.1039(5)
H30 H 0.6362 0.6709 0.1170
C97 C 0.5751(6) 0.6489(13) 0.0479(6)
H31 H 0.6078 0.6308 0.0243
C98 C 0.5109(5) 0.6485(9) 0.0272(5)
H32 H 0.5002 0.6420 -0.0124
C99 C 0.5629(4) 0.6848(5) 0.1992(4)
H33 H 0.5851 0.7273 0.2032
H34 H 0.5932 0.6501 0.2116
O15 O 0.5075(3) 0.6838(3) 0.2355(2)
C100 C 0.4897(4) 0.6239(4) 0.2559(3)
O16 O 0.5131(3) 0.5720(3) 0.2420(3)
C101 C 0.4349(3) 0.6328(3) 0.2959(3)
C102 C 0.4476(4) 0.6937(4) 0.3330(3)
O17 O 0.4126(3) 0.7410(3) 0.3358(3)
O18 O 0.5054(3) 0.6851(3) 0.3611(2)
C103 C 0.5332(6) 0.7420(5) 0.3932(4)
H35 H 0.5543 0.7269 0.4282
H36 H 0.4987 0.7730 0.4013
C104 C 0.5798(8) 0.7777(7) 0.3588(5)
H37 H 0.5992 0.8159 0.3780
H38 H 0.6137 0.7458 0.3509
H39 H 0.5579 0.7921 0.3239
C105 C 0.2206(3) 0.6752(3) 0.1159(3)
O19 O 0.2029(3) 0.7210(2) 0.14367(19)
O20 O 0.2014(2) 0.6637(2) 0.06155(17)
C106 C 0.1605(4) 0.7154(4) 0.0339(3)
H40 H 0.1673 0.7147 -0.0059
H41 H 0.1740 0.7586 0.0484
C107 C 0.0890(3) 0.7060(3) 0.0424(3)
C108 C 0.0616(3) 0.6421(3) 0.0453(3)
H42 H 0.0893 0.6031 0.0437
C109 C -0.0054(3) 0.6328(3) 0.0511(2)
C110 C -0.0459(4) 0.6892(4) 0.0542(3)
H43 H -0.0923 0.6835 0.0582
C111 C -0.0180(4) 0.7539(4) 0.0511(3)
H44 H -0.0456 0.7931 0.0526
C112 C 0.0486(4) 0.7611(4) 0.0457(3)
H45 H 0.0671 0.8056 0.0451
C113 C -0.0360(3) 0.5636(3) 0.0531(3)
H46 H -0.0514 0.5505 0.0157
H47 H -0.0732 0.5654 0.0764
O21 O 0.0108(2) 0.5138(2) 0.07656(17)
C114 C 0.0214(3) 0.5153(3) 0.1325(2)
O22 O -0.0061(2) 0.5527(2) 0.16343(18)
C115 C 0.0722(3) 0.4627(3) 0.1503(2)
C116 C 0.0661(3) 0.3983(3) 0.1155(2)
O23 O 0.1039(2) 0.3807(2) 0.08224(19)
O24 O 0.0119(2) 0.3650(2) 0.12902(17)
C117 C 0.0008(4) 0.3002(3) 0.1008(3)
H48 H 0.0348 0.2693 0.1134
H49 H 0.0019 0.3052 0.0605
C118 C -0.06465(8) 0.27281(8) 0.11675(7)
H50 H -0.0735 0.2298 0.0995
H51 H -0.0649 0.2684 0.1571
H52 H -0.0979 0.3044 0.1040
Cl1 Cl 0.72893(8) 0.31204(8) 0.08875(7)
Cl2 Cl 0.78013(8) 0.34738(8) 0.19797(7)
C119 C 0.71269(8) 0.33023(8) 0.15923(7)
Cl3 Cl 0.35575(8) 0.08830(8) 0.08653(7)
Cl4 Cl 0.32362(8) 0.10133(8) 0.19705(7)
C120 C 0.37702(8) 0.04558(8) 0.14683(7)
Cl5 Cl 0.64831(8) 0.28215(8) 0.30609(7)
Cl6 Cl 0.56659(8) 0.39578(8) 0.29077(7)
C121 C 0.57224(8) 0.32397(8) 0.29334(7)
Cl8 Cl 0.61193(8) 0.47460(8) 0.09074(7)
Cl9 Cl 0.49083(8) 0.42680(8) 0.12984(7)
C123 C 0.53837(8) 0.48880(8) 0.12332(7)
Cl7? Cl 0.04289(8) 0.54068(8) 0.53529(7)
C122? C -0.00078(8) 0.52884(8) 0.48481(7)
loop_
_geom_bond_atom_site_label_1
_geom_bond_atom_site_label_2
_geom_bond_site_symmetry_1
_geom_bond_site_symmetry_2
C1 C2 1_555 1_555
C2 C3 1_555 1_555
C3 C4 1_555 1_555
C4 C5 1_555 1_555
C5 C6 1_555 1_555
C6 C1 1_555 1_555
C7 C6 1_555 1_555
C8 C7 1_555 1_555
C9 C1 1_555 1_555
C10 C9 1_555 1_555
C11 C10 1_555 1_555
C12 C2 1_555 1_555
C13 C12 1_555 1_555
C14 C3 1_555 1_555
C15 C14 1_555 1_555
C16 C15 1_555 1_555
C17 C4 1_555 1_555
C18 C17 1_555 1_555
C19 C5 1_555 1_555
C20 C19 1_555 1_555
C21 C7 1_555 1_555
C22 C21 1_555 1_555
C23 C22 1_555 1_555
C24 C8 1_555 1_555
C25 C24 1_555 1_555
C26 C10 1_555 1_555
C27 C26 1_555 1_555
C28 C11 1_555 1_555
C29 C28 1_555 1_555
C30 C13 1_555 1_555
C31 C30 1_555 1_555
C32 C15 1_555 1_555
C33 C32 1_555 1_555
C34 C16 1_555 1_555
C35 C34 1_555 1_555
C36 C18 1_555 1_555
C37 C36 1_555 1_555
C38 C20 1_555 1_555
C39 C22 1_555 1_555
C40 C39 1_555 1_555
C41 C40 1_555 1_555
C42 C23 1_555 1_555
C43 C25 1_555 1_555
C44 C43 1_555 1_555
C45 C27 1_555 1_555
C46 C45 1_555 1_555
C47 C29 1_555 1_555
C48 C31 1_555 1_555
C49 C48 1_555 1_555
C50 C33 1_555 1_555
C51 C50 1_555 1_555
C52 C35 1_555 1_555
C53 C37 1_555 1_555
C54 C40 1_555 1_555
C55 C54 1_555 1_555
C56 C41 1_555 1_555
C57 C44 1_555 1_555
C58 C46 1_555 1_555
C59 C49 1_555 1_555
C60 C51 1_555 1_555
C61 C1 1_555 1_555
C62 C61 1_555 1_555
O1 C62 1_555 1_555
O2 C62 1_555 1_555
C63 O2 1_555 1_555
H1 C63 1_555 1_555
H2 C63 1_555 1_555
C64 C63 1_555 1_555
C65 C64 1_555 1_555
H3 C65 1_555 1_555
C66 C65 1_555 1_555
C67 C66 1_555 1_555
H4 C67 1_555 1_555
C68 C67 1_555 1_555
H5 C68 1_555 1_555
C69 C64 1_555 1_555
H6 C69 1_555 1_555
C70 C66 1_555 1_555
H7 C70 1_555 1_555
H8 C70 1_555 1_555
O3 C70 1_555 1_555
C71 O3 1_555 1_555
O4 C71 1_555 1_555
C72 C13 1_555 1_555
C73 C72 1_555 1_555
O5 C73 1_555 1_555
O6 C73 1_555 1_555
C74 O6 1_555 1_555
H9 C74 1_555 1_555
H10 C74 1_555 1_555
C75 C74 1_555 1_555
H11 C75 1_555 1_555
H12 C75 1_555 1_555
H13 C75 1_555 1_555
C76 C61 1_555 1_555
O7 C76 1_555 1_555
O8 C76 1_555 1_555
C77 O8 1_555 1_555
H14 C77 1_555 1_555
H15 C77 1_555 1_555
C78 C77 1_555 1_555
C79 C78 1_555 1_555
H16 C79 1_555 1_555
C80 C79 1_555 1_555
H17 C80 1_555 1_555
C81 C80 1_555 1_555
H18 C81 1_555 1_555
C82 C81 1_555 1_555
C83 C78 1_555 1_555
H19 C83 1_555 1_555
C84 C82 1_555 1_555
H20 C84 1_555 1_555
H21 C84 1_555 1_555
O9 C84 1_555 1_555
C85 O9 1_555 1_555
O10 C85 1_555 1_555
C86 C7 1_555 1_555
C87 C86 1_555 1_555
O11 C87 1_555 1_555
O12 C87 1_555 1_555
C88 O12 1_555 1_555
H22 C88 1_555 1_555
H23 C88 1_555 1_555
C89 C88 1_555 1_555
H24 C89 1_555 1_555
H25 C89 1_555 1_555
H26 C89 1_555 1_555
C90 C55 1_555 1_555
C91 C90 1_555 1_555
O13 C91 1_555 1_555
O14 C91 1_555 1_555
C92 O14 1_555 1_555
H27 C92 1_555 1_555
H28 C92 1_555 1_555
C93 C92 1_555 1_555
C94 C93 1_555 1_555
H29 C94 1_555 1_555
C95 C94 1_555 1_555
C96 C95 1_555 1_555
H30 C96 1_555 1_555
C97 C96 1_555 1_555
H31 C97 1_555 1_555
C98 C93 1_555 1_555
H32 C98 1_555 1_555
C99 C95 1_555 1_555
H33 C99 1_555 1_555
H34 C99 1_555 1_555
O15 C99 1_555 1_555
C100 O15 1_555 1_555
O16 C100 1_555 1_555
C101 C41 1_555 1_555
C102 C101 1_555 1_555
O17 C102 1_555 1_555
O18 C102 1_555 1_555
C103 O18 1_555 1_555
H35 C103 1_555 1_555
H36 C103 1_555 1_555
C104 C103 1_555 1_555
H37 C104 1_555 1_555
H38 C104 1_555 1_555
H39 C104 1_555 1_555
C105 C90 1_555 1_555
O19 C105 1_555 1_555
O20 C105 1_555 1_555
C106 O20 1_555 1_555
H40 C106 1_555 1_555
H41 C106 1_555 1_555
C107 C106 1_555 1_555
C108 C107 1_555 1_555
H42 C108 1_555 1_555
C109 C108 1_555 1_555
C110 C109 1_555 1_555
H43 C110 1_555 1_555
C111 C110 1_555 1_555
H44 C111 1_555 1_555
C112 C107 1_555 1_555
H45 C112 1_555 1_555
C113 C109 1_555 1_555
H46 C113 1_555 1_555
H47 C113 1_555 1_555
O21 C113 1_555 1_555
C114 O21 1_555 1_555
O22 C114 1_555 1_555
C115 C33 1_555 1_555
C116 C115 1_555 1_555
O23 C116 1_555 1_555
O24 C116 1_555 1_555
C117 O24 1_555 1_555
H48 C117 1_555 1_555
H49 C117 1_555 1_555
C118 C117 1_555 1_555
H50 C118 1_555 1_555
H51 C118 1_555 1_555
H52 C118 1_555 1_555
Cl1 C119 1_555 1_555
Cl2 C119 1_555 1_555
Cl3 C120 1_555 1_555
Cl4 C120 1_555 1_555
Cl5 C121 1_555 1_555
Cl6 C121 1_555 1_555
Cl8 C123 1_555 1_555
Cl9 C123 1_555 1_555
C2 C61 1_555 1_555
C8 C9 1_555 1_555
C11 C12 1_555 1_555
C13 C14 1_555 1_555
C16 C17 1_555 1_555
C18 C19 1_555 1_555
C20 C21 1_555 1_555
C21 C86 1_555 1_555
C23 C24 1_555 1_555
C25 C26 1_555 1_555
C27 C28 1_555 1_555
C29 C30 1_555 1_555
C30 C72 1_555 1_555
C31 C32 1_555 1_555
C33 C34 1_555 1_555
C35 C36 1_555 1_555
C37 C38 1_555 1_555
C38 C39 1_555 1_555
C41 C42 1_555 1_555
C42 C43 1_555 1_555
C42 C101 1_555 1_555
C44 C45 1_555 1_555
C46 C47 1_555 1_555
C47 C48 1_555 1_555
C49 C50 1_555 1_555
C50 C115 1_555 1_555
C51 C52 1_555 1_555
C52 C53 1_555 1_555
C53 C54 1_555 1_555
C55 C60 1_555 1_555
C55 C56 1_555 1_555
C56 C57 1_555 1_555
C57 C58 1_555 1_555
C58 C59 1_555 1_555
C59 C60 1_555 1_555
C60 C90 1_555 1_555
C68 C69 1_555 1_555
C71 C72 1_555 1_555
C82 C83 1_555 1_555
C85 C86 1_555 1_555
C97 C98 1_555 1_555
C100 C101 1_555 1_555
C111 C112 1_555 1_555
C114 C115 1_555 1_555

#END
