
#######################################################################
#
#                 Cambridge Crystallographic Data Centre
#                                CCDC 
#
#######################################################################
#
# If this CIF has been generated from an entry in the Cambridge 
# Structural Database, then it will include bibliographic, chemical, 
# crystal, experimental, refinement or atomic coordinate data resulting 
# from the CCDC's data processing and validation procedures.
#
#######################################################################

data_QAJMAR
_chemical_name_common            
4-Bromo-2-(2-(4-ethoxyphenyl)propan-2-yl)-1-methylbenzene
_chemical_formula_moiety         'C18 H21 Br1 O1'
_chemical_name_systematic        
4-Bromo-2-[1-(4-ethoxyphenyl)-1-methylethyl]-1-methylbenzene
_symmetry_cell_setting           monoclinic
_symmetry_space_group_name_H-M   'P 21/n'
_symmetry_Int_Tables_number      14
_space_group_name_Hall           '-P 2yn'
loop_
_symmetry_equiv_pos_site_id
_symmetry_equiv_pos_as_xyz
1 x,y,z
2 1/2-x,1/2+y,1/2-z
3 -x,-y,-z
4 1/2+x,1/2-y,1/2+z
_cell_length_a                   11.164(2)
_cell_length_b                   9.5142(19)
_cell_length_c                   16.135(3)
_cell_angle_alpha                90
_cell_angle_beta                 110.21(3)
_cell_angle_gamma                90
_cell_volume                     1608.29
_exptl_crystal_colour            colorless
_exptl_crystal_description       prism
_cell_formula_units_Z            4
loop_
_atom_site_label
_atom_site_type_symbol
_atom_site_fract_x
_atom_site_fract_y
_atom_site_fract_z
Br1 Br 0.02586(4) 0.72212(4) 0.15240(3)
O1 O 0.1869(3) -0.2600(3) 0.39327(19)
C1 C -0.1877(4) 0.1214(4) 0.1522(3)
H1 H -0.2276 0.0963 0.0912
H2 H -0.2496 0.1180 0.1812
H3 H -0.1198 0.0566 0.1802
C2 C -0.1338(4) 0.2691(4) 0.1586(3)
C3 C -0.1463(4) 0.3354(5) 0.0805(3)
H4 H -0.1872 0.2878 0.0279
C4 C -0.1010(4) 0.4700(4) 0.0762(3)
H5 H -0.1120 0.5129 0.0222
C5 C -0.0388(3) 0.5377(4) 0.1551(2)
C6 C -0.0249(3) 0.4749(4) 0.2352(2)
H6 H 0.0166 0.5236 0.2872
C7 C -0.0716(3) 0.3405(4) 0.2397(2)
C8 C -0.0623(4) 0.2769(4) 0.3297(3)
C9 C -0.1980(4) 0.2698(4) 0.3348(3)
H7 H -0.2450 0.1953 0.2975
H8 H -0.2410 0.3575 0.3153
H9 H -0.1921 0.2522 0.3946
C10 C 0.0203(4) 0.3690(4) 0.4079(3)
H10 H 0.0296 0.3226 0.4626
H11 H -0.0206 0.4583 0.4062
H12 H 0.1029 0.3831 0.4034
C11 C 0.0025(3) 0.1309(4) 0.3436(2)
C12 C -0.0460(4) 0.0150(4) 0.3738(2)
H13 H -0.1226 0.0235 0.3843
C13 C 0.0171(4) -0.1130(4) 0.3887(3)
H14 H -0.0187 -0.1895 0.4075
C14 C 0.1324(4) -0.1283(4) 0.3759(2)
C15 C 0.1832(3) -0.0141(4) 0.3464(2)
H15 H 0.2603 -0.0225 0.3367
C16 C 0.1182(3) 0.1130(4) 0.3314(2)
H16 H 0.1539 0.1893 0.3123
C17 C 0.3065(4) -0.2787(4) 0.3818(3)
H17 H 0.3699 -0.2168 0.4211
H18 H 0.2990 -0.2568 0.3215
C18 C 0.3460(4) -0.4312(5) 0.4026(3)
H19 H 0.3480 -0.4533 0.4611
H20 H 0.4292 -0.4454 0.3991
H21 H 0.2856 -0.4913 0.3608
loop_
_geom_bond_atom_site_label_1
_geom_bond_atom_site_label_2
_geom_bond_site_symmetry_1
_geom_bond_site_symmetry_2
Br1 C5 1_555 1_555
O1 C14 1_555 1_555
C1 H1 1_555 1_555
H2 C1 1_555 1_555
H3 C1 1_555 1_555
C2 C1 1_555 1_555
C3 C2 1_555 1_555
H4 C3 1_555 1_555
C4 C3 1_555 1_555
H5 C4 1_555 1_555
C5 C4 1_555 1_555
C6 C5 1_555 1_555
H6 C6 1_555 1_555
C7 C2 1_555 1_555
C8 C7 1_555 1_555
C9 C8 1_555 1_555
H7 C9 1_555 1_555
H8 C9 1_555 1_555
H9 C9 1_555 1_555
C10 C8 1_555 1_555
H10 C10 1_555 1_555
H11 C10 1_555 1_555
H12 C10 1_555 1_555
C11 C8 1_555 1_555
C12 C11 1_555 1_555
H13 C12 1_555 1_555
C13 C12 1_555 1_555
H14 C13 1_555 1_555
C14 C13 1_555 1_555
C15 C14 1_555 1_555
H15 C15 1_555 1_555
C16 C11 1_555 1_555
H16 C16 1_555 1_555
C17 O1 1_555 1_555
H17 C17 1_555 1_555
H18 C17 1_555 1_555
C18 C17 1_555 1_555
H19 C18 1_555 1_555
H20 C18 1_555 1_555
H21 C18 1_555 1_555
C6 C7 1_555 1_555
C15 C16 1_555 1_555

#END
