
#######################################################################
#
#                 Cambridge Crystallographic Data Centre
#                                CCDC 
#
#######################################################################
#
# If this CIF has been generated from an entry in the Cambridge 
# Structural Database, then it will include bibliographic, chemical, 
# crystal, experimental, refinement or atomic coordinate data resulting 
# from the CCDC's data processing and validation procedures.
#
#######################################################################

data_QAJNEX
_chemical_formula_moiety         'C17 H17 N1 O4 S1'
_chemical_name_systematic        
N-(7-Methoxy-2,3-dihydro-4H-chromen-4-ylidene)-4-methylbenzenesulfonamide
_symmetry_cell_setting           monoclinic
_symmetry_space_group_name_H-M   'P 21/n'
_symmetry_Int_Tables_number      14
_space_group_name_Hall           '-P 2yn'
loop_
_symmetry_equiv_pos_site_id
_symmetry_equiv_pos_as_xyz
1 x,y,z
2 1/2-x,1/2+y,1/2-z
3 -x,-y,-z
4 1/2+x,1/2-y,1/2+z
_cell_length_a                   14.1222(10)
_cell_length_b                   8.1483(7)
_cell_length_c                   15.5407(10)
_cell_angle_alpha                90
_cell_angle_beta                 114.185(3)
_cell_angle_gamma                90
_cell_volume                     1631.33
_exptl_crystal_colour            colorless
_exptl_crystal_description       prism
_cell_formula_units_Z            4
loop_
_atom_site_label
_atom_site_type_symbol
_atom_site_fract_x
_atom_site_fract_y
_atom_site_fract_z
C1 C -0.0110(3) 0.1830(4) 0.1397(2)
C2 C -0.1087(3) 0.2377(4) 0.0827(2)
H1 H -0.1618 0.2400 0.1053
C3 C -0.1290(3) 0.2891(5) -0.0077(2)
H2 H -0.1963 0.3290 -0.0464
C4 C -0.0551(3) 0.2844(4) -0.0435(2)
C5 C -0.0783(3) 0.3417(5) -0.1427(2)
H3 H -0.1506 0.3786 -0.1730
H4 H -0.0674 0.2509 -0.1790
H5 H -0.0320 0.4328 -0.1404
C6 C 0.0417(3) 0.2263(6) 0.0146(2)
H6 H 0.0942 0.2212 -0.0087
C7 C 0.0644(3) 0.1756(5) 0.1054(2)
H7 H 0.1317 0.1357 0.1440
C8 C 0.0828(2) 0.3044(4) 0.4031(2)
C9 C 0.0843(3) 0.1643(4) 0.4662(2)
H8 H 0.0247 0.0909 0.4322
H9 H 0.1488 0.1001 0.4821
C10 C 0.0786(3) 0.2224(4) 0.5546(2)
H10 H 0.0081 0.2660 0.5391
H11 H 0.0890 0.1274 0.5972
C11 C 0.1603(2) 0.4703(4) 0.5489(2)
C12 C 0.1244(2) 0.4591(4) 0.45062(19)
C13 C 0.1397(2) 0.5959(4) 0.40274(19)
H12 H 0.1152 0.5920 0.3360
C14 C 0.1887(2) 0.7341(4) 0.4493(2)
H13 H 0.1980 0.8250 0.4152
C15 C 0.2253(2) 0.7413(4) 0.5480(2)
C16 C 0.2101(2) 0.6095(4) 0.5969(2)
H14 H 0.2340 0.6147 0.6636
C17 C 0.3176(3) 0.8910(4) 0.6900(2)
H15 H 0.3515 0.9976 0.7106
H16 H 0.3685 0.8030 0.7172
H17 H 0.2614 0.8789 0.7111
N1 N 0.05407(19) 0.2969(3) 0.31219(16)
O1 O 0.1041(3) 0.0119(3) 0.28596(17)
O2 O -0.0774(2) 0.0666(4) 0.26058(16)
O3 O 0.15153(18) 0.3445(3) 0.60306(13)
O4 O 0.27555(17) 0.8813(3) 0.58856(13)
S1 S 0.01634(8) 0.12154(12) 0.25588(6)
loop_
_geom_bond_atom_site_label_1
_geom_bond_atom_site_label_2
_geom_bond_site_symmetry_1
_geom_bond_site_symmetry_2
C1 C2 1_555 1_555
C2 H1 1_555 1_555
C3 C2 1_555 1_555
H2 C3 1_555 1_555
C4 C3 1_555 1_555
C5 C4 1_555 1_555
H3 C5 1_555 1_555
H4 C5 1_555 1_555
H5 C5 1_555 1_555
C6 C4 1_555 1_555
H6 C6 1_555 1_555
C7 C1 1_555 1_555
H7 C7 1_555 1_555
C8 C9 1_555 1_555
C9 H8 1_555 1_555
H9 C9 1_555 1_555
C10 C9 1_555 1_555
H10 C10 1_555 1_555
H11 C10 1_555 1_555
C11 C12 1_555 1_555
C12 C8 1_555 1_555
C13 C12 1_555 1_555
H12 C13 1_555 1_555
C14 C13 1_555 1_555
H13 C14 1_555 1_555
C15 C14 1_555 1_555
C16 C11 1_555 1_555
H14 C16 1_555 1_555
C17 H15 1_555 1_555
H16 C17 1_555 1_555
H17 C17 1_555 1_555
N1 C8 1_555 1_555
O1 S1 1_555 1_555
O2 S1 1_555 1_555
O3 C10 1_555 1_555
O4 C15 1_555 1_555
S1 C1 1_555 1_555
C6 C7 1_555 1_555
C11 O3 1_555 1_555
C15 C16 1_555 1_555
C17 O4 1_555 1_555
N1 S1 1_555 1_555

#END
