
#######################################################################
#
#                 Cambridge Crystallographic Data Centre
#                                CCDC 
#
#######################################################################
#
# If this CIF has been generated from an entry in the Cambridge 
# Structural Database, then it will include bibliographic, chemical, 
# crystal, experimental, refinement or atomic coordinate data resulting 
# from the CCDC's data processing and validation procedures.
#
#######################################################################

data_QAJQOJ01
_chemical_formula_moiety         'C13 H15 N3 O1,H2 O1'
_chemical_name_systematic        
'3-(5-methyl-3-phenyl-1H-pyrazol-1-yl)propanamide monohydrate'
_symmetry_cell_setting           orthorhombic
_symmetry_space_group_name_H-M   'P 21 21 21'
_symmetry_Int_Tables_number      19
_space_group_name_Hall           'P 2ac 2ab'
loop_
_symmetry_equiv_pos_site_id
_symmetry_equiv_pos_as_xyz
1 x,y,z
2 1/2-x,-y,1/2+z
3 -x,1/2+y,1/2-z
4 1/2+x,1/2-y,-z
_cell_length_a                   6.5482(13)
_cell_length_b                   12.609(3)
_cell_length_c                   16.605(3)
_cell_angle_alpha                90
_cell_angle_beta                 90
_cell_angle_gamma                90
_cell_volume                     1371.01
_exptl_crystal_colour            yellow
_exptl_crystal_description       prism
_cell_formula_units_Z            4
loop_
_atom_site_label
_atom_site_type_symbol
_atom_site_fract_x
_atom_site_fract_y
_atom_site_fract_z
O1 O 0.1505(3) 0.37330(15) 0.44462(13)
N1 N 0.4722(3) 0.58232(15) 0.29259(13)
N2 N 0.6169(3) 0.63179(16) 0.33822(13)
N3 N -0.1369(3) 0.46912(18) 0.43239(15)
H1 H -0.2067 0.4279 0.3987
H2 H -0.1668 0.5368 0.4228
C1 C 1.1844(6) 0.8988(3) 0.3757(3)
H3 H 1.2898 0.9416 0.3944
C2 C 1.0409(6) 0.8593(3) 0.4284(2)
H4 H 1.0499 0.8750 0.4831
C3 C 0.8845(5) 0.7968(2) 0.40033(19)
H5 H 0.7872 0.7713 0.4362
C4 C 0.8690(4) 0.77069(19) 0.31860(17)
C5 C 1.0164(5) 0.8105(2) 0.26675(19)
H6 H 1.0113 0.7940 0.2122
C6 C 1.1705(5) 0.8745(3) 0.2959(3)
H7 H 1.2670 0.9016 0.2604
C7 C 0.7043(4) 0.70222(19) 0.28833(16)
C8 C 0.6156(4) 0.6976(2) 0.21208(17)
H8 H 0.6503 0.7383 0.1674
C9 C 0.4662(4) 0.6207(2) 0.21620(17)
C10 C 0.3178(6) 0.5827(3) 0.15503(19)
H9 H 0.3380 0.5083 0.1459
H10 H 0.3381 0.6207 0.1056
H11 H 0.1813 0.5946 0.1741
C11 C 0.3499(4) 0.49866(19) 0.32840(18)
H12 H 0.4367 0.4550 0.3622
H13 H 0.2956 0.4540 0.2859
C12 C 0.1768(5) 0.5405(2) 0.3779(2)
H14 H 0.0834 0.5789 0.3432
H15 H 0.2299 0.5901 0.4174
C13 C 0.0615(4) 0.45404(19) 0.42089(16)
O2 O 0.0611(4) 0.17289(18) 0.50607(18)
H16 H 0.0874 0.2358 0.4875
H17 H -0.0547 0.1594 0.5220
loop_
_geom_bond_atom_site_label_1
_geom_bond_atom_site_label_2
_geom_bond_site_symmetry_1
_geom_bond_site_symmetry_2
O1 C13 1_555 1_555
N1 N2 1_555 1_555
N2 C7 1_555 1_555
N3 H1 1_555 1_555
H2 N3 1_555 1_555
C1 H3 1_555 1_555
C2 C1 1_555 1_555
H4 C2 1_555 1_555
C3 C2 1_555 1_555
H5 C3 1_555 1_555
C4 C3 1_555 1_555
C5 C4 1_555 1_555
H6 C5 1_555 1_555
C6 C1 1_555 1_555
H7 C6 1_555 1_555
C7 C4 1_555 1_555
C8 C7 1_555 1_555
H8 C8 1_555 1_555
C9 N1 1_555 1_555
C10 C9 1_555 1_555
H9 C10 1_555 1_555
H10 C10 1_555 1_555
H11 C10 1_555 1_555
C11 N1 1_555 1_555
H12 C11 1_555 1_555
H13 C11 1_555 1_555
C12 C11 1_555 1_555
H14 C12 1_555 1_555
H15 C12 1_555 1_555
C13 N3 1_555 1_555
O2 H16 1_555 1_555
H17 O2 1_555 1_555
C5 C6 1_555 1_555
C8 C9 1_555 1_555
C12 C13 1_555 1_555

#END
