
#######################################################################
#
#                 Cambridge Crystallographic Data Centre
#                                CCDC 
#
#######################################################################
#
# If this CIF has been generated from an entry in the Cambridge 
# Structural Database, then it will include bibliographic, chemical, 
# crystal, experimental, refinement or atomic coordinate data resulting 
# from the CCDC's data processing and validation procedures.
#
#######################################################################

data_QAJRID
_chemical_formula_moiety         'C28 H36 Br4 S6 Si4'
_chemical_name_systematic        
3,4,10,11-Tetrabromo-2,5,9,12-tetrakis(trimethylsilyl)-tetrakisthieno(2,3-b:2',3'-g:3'',2''-d:3''',2'''-i)(1,6)dithiencine
_symmetry_cell_setting           orthorhombic
_symmetry_space_group_name_H-M   'P b c a'
_symmetry_Int_Tables_number      61
_space_group_name_Hall           '-P 2ac 2ab'
loop_
_symmetry_equiv_pos_site_id
_symmetry_equiv_pos_as_xyz
1 x,y,z
2 1/2+x,y,1/2-z
3 1/2-x,1/2+y,z
4 x,1/2-y,1/2+z
5 -x,-y,-z
6 1/2-x,-y,1/2+z
7 1/2+x,1/2-y,-z
8 -x,1/2+y,1/2-z
_cell_length_a                   18.6063(6)
_cell_length_b                   23.7325(8)
_cell_length_c                   18.6074(6)
_cell_angle_alpha                90
_cell_angle_beta                 90
_cell_angle_gamma                90
_cell_volume                     8216.54
_exptl_crystal_colour            colorless
_exptl_crystal_description       'isometric sphere'
_cell_formula_units_Z            8
_exptl_crystal_recrystallization_method chloroform/methanol
loop_
_atom_site_label
_atom_site_type_symbol
_atom_site_fract_x
_atom_site_fract_y
_atom_site_fract_z
Br1 Br 0.560471(16) 0.178837(13) -0.082550(19)
Br2 Br 0.718159(17) 0.039352(12) -0.188421(17)
Br3 Br 0.841251(17) 0.069342(13) 0.199416(16)
Br4 Br 0.946836(17) 0.212880(12) 0.036202(17)
S1 S 0.61946(3) 0.04431(3) 0.06507(4)
S2 S 0.80949(4) 0.20447(3) -0.14432(3)
S3 S 0.69496(4) 0.20501(3) 0.14109(3)
S4 S 0.90423(3) 0.04632(3) -0.05091(3)
S5 S 0.74222(4) 0.23229(3) -0.00526(4)
S6 S 0.76636(4) 0.01790(3) 0.01874(4)
Si1 Si 0.47115(4) 0.10268(3) 0.06863(4)
Si2 Si 0.83488(4) 0.13735(3) -0.28512(4)
Si3 Si 0.68849(4) 0.14273(3) 0.28726(4)
Si4 Si 1.04336(4) 0.11624(3) -0.07956(4)
C1 C 0.68992(14) 0.06033(10) 0.00894(14)
C2 C 0.67359(14) 0.10404(11) -0.03675(14)
C3 C 0.72377(14) 0.13206(11) -0.08744(14)
C4 C 0.75319(15) 0.18442(11) -0.07602(14)
C5 C 0.75190(15) 0.18987(11) 0.07099(13)
C6 C 0.79751(14) 0.14585(11) 0.08717(14)
C7 C 0.84783(14) 0.11833(11) 0.03614(14)
C8 C 0.83656(14) 0.06567(11) 0.00668(14)
C9 C 0.60091(14) 0.12191(10) -0.02482(15)
C10 C 0.56295(14) 0.09413(10) 0.02754(14)
C11 C 0.47423(17) 0.16440(14) 0.13002(18)
H1 H 0.4277 0.1685 0.1542
H2 H 0.4846 0.1985 0.1022
H3 H 0.5120 0.1587 0.1660
C12 C 0.45375(16) 0.03667(13) 0.11988(17)
H4 H 0.4083 0.0402 0.1461
H5 H 0.4930 0.0303 0.1541
H6 H 0.4508 0.0048 0.0865
C13 C 0.40157(16) 0.11263(13) -0.00228(16)
H7 H 0.3537 0.1076 0.0187
H8 H 0.4088 0.0848 -0.0405
H9 H 0.4056 0.1507 -0.0224
C14 C 0.74828(14) 0.11036(10) -0.15433(14)
C15 C 0.79320(13) 0.14431(10) -0.19367(14)
C16 C 0.87894(17) 0.20632(13) -0.30428(17)
H10 H 0.9030 0.2046 -0.3511
H11 H 0.9144 0.2145 -0.2668
H12 H 0.8425 0.2362 -0.3051
C17 C 0.76248(17) 0.12427(16) -0.35179(17)
H13 H 0.7432 0.0862 -0.3450
H14 H 0.7821 0.1277 -0.4005
H15 H 0.7240 0.1520 -0.3451
C18 C 0.90242(17) 0.07968(13) -0.28368(16)
H16 H 0.8779 0.0434 -0.2774
H17 H 0.9359 0.0857 -0.2437
H18 H 0.9291 0.0795 -0.3291
C19 C 0.78468(14) 0.12727(10) 0.15914(14)
C20 C 0.73147(14) 0.15446(10) 0.19694(14)
C21 C 0.63103(16) 0.20580(13) 0.30458(16)
H19 H 0.6054 0.2009 0.3501
H20 H 0.5962 0.2101 0.2654
H21 H 0.6614 0.2395 0.3073
C22 C 0.75767(16) 0.13421(13) 0.35868(15)
H22 H 0.7343 0.1342 0.4059
H23 H 0.7920 0.1654 0.3560
H24 H 0.7831 0.0985 0.3517
C23 C 0.63126(18) 0.07843(13) 0.28088(17)
H25 H 0.6090 0.0709 0.3276
H26 H 0.6610 0.0462 0.2669
H27 H 0.5937 0.0844 0.2448
C24 C 0.91366(14) 0.14083(11) 0.00935(14)
C25 C 0.95228(14) 0.10746(10) -0.03689(14)
C26 C 1.11139(17) 0.12589(15) -0.00695(17)
H28 H 1.1598 0.1235 -0.0275
H29 H 1.1054 0.0963 0.0293
H30 H 1.1048 0.1629 0.0155
C27 C 1.04152(17) 0.17728(13) -0.14219(19)
H31 H 1.0869 0.1789 -0.1689
H32 H 1.0352 0.2122 -0.1147
H33 H 1.0015 0.1729 -0.1760
C28 C 1.06164(16) 0.04993(12) -0.13015(16)
H34 H 1.1080 0.0530 -0.1548
H35 H 1.0235 0.0438 -0.1657
H36 H 1.0630 0.0181 -0.0966
loop_
_geom_bond_atom_site_label_1
_geom_bond_atom_site_label_2
_geom_bond_site_symmetry_1
_geom_bond_site_symmetry_2
Br1 C9 1_555 1_555
Br2 C14 1_555 1_555
Br3 C19 1_555 1_555
Br4 C24 1_555 1_555
S1 C1 1_555 1_555
S2 C4 1_555 1_555
S3 C5 1_555 1_555
S4 C8 1_555 1_555
S5 C4 1_555 1_555
S6 C1 1_555 1_555
Si1 C10 1_555 1_555
Si2 C15 1_555 1_555
Si3 C20 1_555 1_555
Si4 C25 1_555 1_555
C1 C2 1_555 1_555
C2 C3 1_555 1_555
C3 C4 1_555 1_555
C5 S5 1_555 1_555
C6 C5 1_555 1_555
C7 C6 1_555 1_555
C8 S6 1_555 1_555
C9 C2 1_555 1_555
C10 S1 1_555 1_555
C11 Si1 1_555 1_555
H1 C11 1_555 1_555
H2 C11 1_555 1_555
H3 C11 1_555 1_555
C12 Si1 1_555 1_555
H4 C12 1_555 1_555
H5 C12 1_555 1_555
H6 C12 1_555 1_555
C13 Si1 1_555 1_555
H7 C13 1_555 1_555
H8 C13 1_555 1_555
H9 C13 1_555 1_555
C14 C3 1_555 1_555
C15 S2 1_555 1_555
C16 Si2 1_555 1_555
H10 C16 1_555 1_555
H11 C16 1_555 1_555
H12 C16 1_555 1_555
C17 Si2 1_555 1_555
H13 C17 1_555 1_555
H14 C17 1_555 1_555
H15 C17 1_555 1_555
C18 Si2 1_555 1_555
H16 C18 1_555 1_555
H17 C18 1_555 1_555
H18 C18 1_555 1_555
C19 C6 1_555 1_555
C20 S3 1_555 1_555
C21 Si3 1_555 1_555
H19 C21 1_555 1_555
H20 C21 1_555 1_555
H21 C21 1_555 1_555
C22 Si3 1_555 1_555
H22 C22 1_555 1_555
H23 C22 1_555 1_555
H24 C22 1_555 1_555
C23 Si3 1_555 1_555
H25 C23 1_555 1_555
H26 C23 1_555 1_555
H27 C23 1_555 1_555
C24 C7 1_555 1_555
C25 S4 1_555 1_555
C26 Si4 1_555 1_555
H28 C26 1_555 1_555
H29 C26 1_555 1_555
H30 C26 1_555 1_555
C27 Si4 1_555 1_555
H31 C27 1_555 1_555
H32 C27 1_555 1_555
H33 C27 1_555 1_555
C28 Si4 1_555 1_555
H34 C28 1_555 1_555
H35 C28 1_555 1_555
H36 C28 1_555 1_555
C7 C8 1_555 1_555
C9 C10 1_555 1_555
C14 C15 1_555 1_555
C19 C20 1_555 1_555
C24 C25 1_555 1_555

#END
