
#######################################################################
#
#                 Cambridge Crystallographic Data Centre
#                                CCDC 
#
#######################################################################
#
# If this CIF has been generated from an entry in the Cambridge 
# Structural Database, then it will include bibliographic, chemical, 
# crystal, experimental, refinement or atomic coordinate data resulting 
# from the CCDC's data processing and validation procedures.
#
#######################################################################

data_QAJRUP
_chemical_formula_moiety         'C44 H36 Br4 S14 Si4,C6 H6'
_chemical_name_systematic        
"3,4,14,15-Tetrabromo-2,5,13,16-tetrakis(trimethylsilyl)-tetrakisthieno(3'',2'':4',5')thieno(3',2':4,5)thieno(2,3-b:2',3'-g:3'',2''-d:3''',2'''-i)(1,6)dithiecine benzene solvate"
_symmetry_cell_setting           triclinic
_symmetry_space_group_name_H-M   'P -1'
_symmetry_Int_Tables_number      2
_space_group_name_Hall           '-P 1'
loop_
_symmetry_equiv_pos_site_id
_symmetry_equiv_pos_as_xyz
1 x,y,z
2 -x,-y,-z
_cell_length_a                   8.1993(3)
_cell_length_b                   10.5684(4)
_cell_length_c                   18.3955(7)
_cell_angle_alpha                91.3400(10)
_cell_angle_beta                 92.7710(10)
_cell_angle_gamma                110.6170(10)
_cell_volume                     1488.81
_exptl_crystal_colour            colorless
_exptl_crystal_description       plate
_cell_formula_units_Z            1
loop_
_atom_site_label
_atom_site_type_symbol
_atom_site_fract_x
_atom_site_fract_y
_atom_site_fract_z
Br1 Br 0.13092(3) 0.17514(2) 0.292517(14)
Br2 Br -0.42068(3) 0.33400(2) 0.254380(12)
S1 S -0.38341(7) -0.14281(5) 0.26729(3)
S2 S -0.55547(7) -0.00225(5) 0.37457(3)
S3 S -0.45975(6) 0.27589(5) 0.45805(3)
S4 S -0.19256(6) 0.55468(5) 0.48404(3)
S5 S -0.35223(6) 0.45471(5) 0.62505(3)
S6 S -0.28674(6) 0.46015(5) 0.79337(3)
S7 S 0.02909(7) 0.58237(5) 0.90776(3)
Si1 Si -0.06137(8) -0.13344(6) 0.18308(3)
Si2 Si 0.42847(8) 0.73618(6) 0.93727(3)
C1 C -0.1651(3) -0.0569(2) 0.25195(11)
C2 C -0.1066(3) 0.06500(19) 0.29059(11)
C3 C -0.2335(3) 0.09513(19) 0.33130(11)
C4 C -0.3891(3) -0.0141(2) 0.32390(11)
C5 C -0.2521(3) 0.19980(19) 0.37918(11)
C6 C -0.4178(3) 0.15657(19) 0.40575(11)
C7 C -0.1557(2) 0.33863(19) 0.40269(10)
C8 C -0.2506(2) 0.38890(18) 0.44717(10)
C9 C -0.1670(3) 0.53186(19) 0.57761(10)
C10 C 0.0159(2) 0.42123(18) 0.37800(10)
C11 C 0.0493(3) 0.45537(19) 0.30364(11)
C12 C -0.2264(3) 0.4795(2) 0.70464(11)
C13 C -0.0453(3) 0.42555(19) 0.23283(11)
C14 C -0.0700(3) 0.5391(2) 0.82225(11)
C15 C -0.2202(3) 0.3683(2) 0.20118(11)
C16 C 0.2351(3) 0.6465(2) 0.87334(11)
C17 C -0.2258(3) -0.3014(2) 0.15315(14)
H1 H -0.2534 -0.3596 0.1949
H2 H -0.1783 -0.3435 0.1156
H3 H -0.3321 -0.2895 0.1332
C18 C 0.1377(3) -0.1571(3) 0.22251(15)
H4 H 0.1088 -0.2122 0.2654
H5 H 0.2261 -0.0687 0.2368
H6 H 0.1835 -0.2031 0.1862
C19 C -0.0137(4) -0.0215(3) 0.10440(15)
H7 H 0.0690 0.0681 0.1206
H8 H -0.1222 -0.0130 0.0844
H9 H 0.0371 -0.0607 0.0667
C20 C 0.5144(3) 0.9156(2) 0.91083(15)
H10 H 0.5560 0.9200 0.8616
H11 H 0.6111 0.9679 0.9452
H12 H 0.4212 0.9535 0.9118
C21 C 0.3438(3) 0.7210(2) 1.03030(12)
H13 H 0.3005 0.6256 1.0427
H14 H 0.2485 0.7565 1.0312
H15 H 0.4381 0.7728 1.0658
C22 C 0.5992(3) 0.6587(3) 0.93368(13)
H16 H 0.6511 0.6741 0.8863
H17 H 0.5467 0.5612 0.9403
H18 H 0.6900 0.7000 0.9725
C15A C 0.2202(3) 0.6317(2) 0.79882(11)
Br2A Br 0.42068(3) 0.66600(2) 0.745620(12)
C13A C 0.0453(3) 0.57445(19) 0.76717(11)
C11A C -0.0493(3) 0.54463(19) 0.69636(11)
C10A C -0.0159(2) 0.57877(18) 0.62200(10)
C7A C 0.1557(2) 0.66137(19) 0.59731(10)
C5A C 0.2521(3) 0.80020(19) 0.62082(11)
C3A C 0.2335(3) 0.90487(19) 0.66870(11)
C2A C 0.1066(3) 0.93500(19) 0.70941(11)
Br1A Br -0.13092(3) 0.82486(2) 0.707483(14)
C1A C 0.1651(3) 1.0569(2) 0.74805(11)
S1A S 0.38341(7) 1.14281(5) 0.73271(3)
C4A C 0.3891(3) 1.0141(2) 0.67610(11)
S2A S 0.55547(7) 1.00225(5) 0.62543(3)
C6A C 0.4178(3) 0.84343(19) 0.59425(11)
S3A S 0.45975(6) 0.72411(5) 0.54195(3)
C8A C 0.2506(2) 0.61110(18) 0.55283(10)
S4A S 0.19256(6) 0.44532(5) 0.51596(3)
C9A C 0.1670(3) 0.46814(19) 0.42239(10)
S5A S 0.35223(6) 0.54529(5) 0.37495(3)
C12A C 0.2264(3) 0.5205(2) 0.29536(11)
S6A S 0.28674(6) 0.53985(5) 0.20663(3)
C14A C 0.0700(3) 0.4609(2) 0.17775(11)
S7A S -0.02909(7) 0.41763(5) 0.09224(3)
C16A C -0.2351(3) 0.3535(2) 0.12666(11)
Si2A Si -0.42847(8) 0.26382(6) 0.06273(3)
C20A C -0.5144(3) 0.0844(2) 0.08917(15)
H10A H -0.5560 0.0800 0.1384
H11A H -0.6111 0.0321 0.0548
H12A H -0.4212 0.0465 0.0882
C21A C -0.3438(3) 0.2790(2) -0.03030(12)
H13A H -0.3005 0.3744 -0.0427
H14A H -0.2485 0.2435 -0.0312
H15A H -0.4381 0.2272 -0.0658
C22A C -0.5992(3) 0.3413(3) 0.06632(13)
H16A H -0.6511 0.3259 0.1137
H17A H -0.5467 0.4388 0.0597
H18A H -0.6900 0.3000 0.0275
Si1A Si 0.06137(8) 1.13344(6) 0.81692(3)
C17A C 0.2258(3) 1.3014(2) 0.84685(14)
H1A H 0.2534 1.3596 0.8051
H2A H 0.1783 1.3435 0.8844
H3A H 0.3321 1.2895 0.8668
C18A C -0.1377(3) 1.1571(3) 0.77749(15)
H4A H -0.1088 1.2122 0.7346
H5A H -0.2261 1.0687 0.7632
H6A H -0.1835 1.2031 0.8138
C19A C 0.0137(4) 1.0215(3) 0.89560(15)
H7A H -0.0690 0.9319 0.8794
H8A H 0.1222 1.0130 0.9156
H9A H -0.0371 1.0607 0.9333
C23 C 0.0512(3) -0.0950(2) 0.46370(14)
H19 H 0.0867 -0.1598 0.4388
C24 C -0.1218(3) -0.1050(2) 0.45816(13)
H20 H -0.2056 -0.1768 0.4296
C25 C 0.1724(3) 0.0095(2) 0.50545(13)
H21 H 0.2910 0.0160 0.5093
C25A C -0.1724(3) -0.0095(2) 0.49455(13)
C23A C -0.0512(3) 0.0950(2) 0.53630(14)
H19A H -0.0867 0.1598 0.5612
C24A C 0.1218(3) 0.1050(2) 0.54184(13)
H20A H 0.2056 0.1768 0.5704
H21A H -0.2910 -0.0160 0.4907
loop_
_geom_bond_atom_site_label_1
_geom_bond_atom_site_label_2
_geom_bond_site_symmetry_1
_geom_bond_site_symmetry_2
Br1 C2 1_555 1_555
Br2 C15 1_555 1_555
S1 C1 1_555 1_555
S2 C4 1_555 1_555
S3 C6 1_555 1_555
S4 C8 1_555 1_555
S5 C9 1_555 1_555
S6 C12 1_555 1_555
S7 C14 1_555 1_555
Si1 C1 1_555 1_555
Si2 C16 1_555 1_555
C1 C2 1_555 1_555
C2 C3 1_555 1_555
C3 C4 1_555 1_555
C4 S1 1_555 1_555
C5 C3 1_555 1_555
C6 S2 1_555 1_555
C7 C5 1_555 1_555
C8 S3 1_555 1_555
C9 S4 1_555 1_555
C10 C7 1_555 1_555
C11 C10 1_555 1_555
C12 S5 1_555 1_555
C13 C11 1_555 1_555
C14 S6 1_555 1_555
C15 C13 1_555 1_555
C16 S7 1_555 1_555
C17 Si1 1_555 1_555
H1 C17 1_555 1_555
H2 C17 1_555 1_555
H3 C17 1_555 1_555
C18 Si1 1_555 1_555
H4 C18 1_555 1_555
H5 C18 1_555 1_555
H6 C18 1_555 1_555
C19 Si1 1_555 1_555
H7 C19 1_555 1_555
H8 C19 1_555 1_555
H9 C19 1_555 1_555
C20 Si2 1_555 1_555
H10 C20 1_555 1_555
H11 C20 1_555 1_555
H12 C20 1_555 1_555
C21 Si2 1_555 1_555
H13 C21 1_555 1_555
H14 C21 1_555 1_555
H15 C21 1_555 1_555
C22 Si2 1_555 1_555
H16 C22 1_555 1_555
H17 C22 1_555 1_555
H18 C22 1_555 1_555
C23 H19 1_555 1_555
C24 C23 1_555 1_555
H20 C24 1_555 1_555
C25 C23 1_555 1_555
H21 C25 1_555 1_555
C15A C16 1_555 1_555
Br2A C15A 1_555 1_555
C13A C14 1_555 1_555
C11A C12 1_555 1_555
C10A C9 1_555 1_555
C7A C10A 1_555 1_555
C5A C7A 1_555 1_555
C3A C5A 1_555 1_555
C2A C3A 1_555 1_555
Br1A C2A 1_555 1_555
C1A C2A 1_555 1_555
S1A C1A 1_555 1_555
C4A C3A 1_555 1_555
S2A C4A 1_555 1_555
C6A C5A 1_555 1_555
S3A C6A 1_555 1_555
C8A C7A 1_555 1_555
S4A C8A 1_555 1_555
C9A C10 1_555 1_555
S5A C9A 1_555 1_555
C12A C11 1_555 1_555
S6A C12A 1_555 1_555
C14A C13 1_555 1_555
S7A C14A 1_555 1_555
C16A C15 1_555 1_555
Si2A C16A 1_555 1_555
C20A Si2A 1_555 1_555
H10A C20A 1_555 1_555
H11A C20A 1_555 1_555
H12A C20A 1_555 1_555
C21A Si2A 1_555 1_555
H13A C21A 1_555 1_555
H14A C21A 1_555 1_555
H15A C21A 1_555 1_555
C22A Si2A 1_555 1_555
H16A C22A 1_555 1_555
H17A C22A 1_555 1_555
H18A C22A 1_555 1_555
Si1A C1A 1_555 1_555
C17A Si1A 1_555 1_555
H1A C17A 1_555 1_555
H2A C17A 1_555 1_555
H3A C17A 1_555 1_555
C18A Si1A 1_555 1_555
H4A C18A 1_555 1_555
H5A C18A 1_555 1_555
H6A C18A 1_555 1_555
C19A Si1A 1_555 1_555
H7A C19A 1_555 1_555
H8A C19A 1_555 1_555
H9A C19A 1_555 1_555
C25A C24 1_555 1_555
C23A C25A 1_555 1_555
H19A C23A 1_555 1_555
C24A C25 1_555 1_555
H20A C24A 1_555 1_555
H21A C25A 1_555 1_555
C5 C6 1_555 1_555
C7 C8 1_555 1_555
C15A C13A 1_555 1_555
C13A C11A 1_555 1_555
C11A C10A 1_555 1_555
S1A C4A 1_555 1_555
S2A C6A 1_555 1_555
S3A C8A 1_555 1_555
S4A C9A 1_555 1_555
S5A C12A 1_555 1_555
S6A C14A 1_555 1_555
S7A C16A 1_555 1_555
C23A C24A 1_555 1_555

#END
