
#######################################################################
#
#                 Cambridge Crystallographic Data Centre
#                                CCDC 
#
#######################################################################
#
# If this CIF has been generated from an entry in the Cambridge 
# Structural Database, then it will include bibliographic, chemical, 
# crystal, experimental, refinement or atomic coordinate data resulting 
# from the CCDC's data processing and validation procedures.
#
#######################################################################

data_QAJRIE
_chemical_formula_moiety         'C6 H6 N5 1+,Br1 1-'
_chemical_name_systematic        '4-(1H-Tetrazol-5-yl)pyridinium bromide'
_symmetry_cell_setting           monoclinic
_symmetry_space_group_name_H-M   'P 21'
_symmetry_Int_Tables_number      4
_space_group_name_Hall           'P 2yb'
loop_
_symmetry_equiv_pos_site_id
_symmetry_equiv_pos_as_xyz
1 x,y,z
2 -x,1/2+y,-z
_cell_length_a                   4.8688(10)
_cell_length_b                   7.6850(15)
_cell_length_c                   11.174(2)
_cell_angle_alpha                90
_cell_angle_beta                 92.38(3)
_cell_angle_gamma                90
_cell_volume                     417.734
_exptl_crystal_colour            colorless
_exptl_crystal_description       block
_cell_formula_units_Z            2
loop_
_atom_site_label
_atom_site_type_symbol
_atom_site_fract_x
_atom_site_fract_y
_atom_site_fract_z
Br1 Br 0.54779(5) 0.11064(8) 0.91219(2)
C1 C 0.9198(7) 0.6502(5) 0.8550(3)
H1 H 1.0123 0.6938 0.9230
C2 C 0.9881(7) 0.4908(5) 0.8113(3)
H2 H 1.1263 0.4251 0.8494
C3 C 0.9049(6) 0.2572(4) 0.6591(3)
N1 N 0.7207(5) 0.7439(4) 0.8003(2)
H3 H 0.6786 0.8433 0.8297
C4 C 0.8491(6) 0.4280(4) 0.7096(3)
N2 N 1.0851(7) 0.0009(4) 0.6315(3)
N3 N 1.1026(5) 0.1460(4) 0.6956(3)
H4 H 1.2233 0.1657 0.7524
C5 C 0.5854(8) 0.6883(5) 0.7017(3)
H5 H 0.4496 0.7575 0.6651
N4 N 0.8778(6) 0.0253(4) 0.5546(3)
C6 C 0.6457(7) 0.5292(5) 0.6541(3)
H6 H 0.5513 0.4897 0.5853
N5 N 0.7617(6) 0.1826(4) 0.5708(3)
loop_
_geom_bond_atom_site_label_1
_geom_bond_atom_site_label_2
_geom_bond_site_symmetry_1
_geom_bond_site_symmetry_2
C1 H1 1_555 1_555
C2 C1 1_555 1_555
H2 C2 1_555 1_555
C3 C4 1_555 1_555
N1 C1 1_555 1_555
H3 N1 1_555 1_555
C4 C2 1_555 1_555
N2 N3 1_555 1_555
N3 C3 1_555 1_555
H4 N3 1_555 1_555
C5 N1 1_555 1_555
H5 C5 1_555 1_555
N4 N2 1_555 1_555
C6 C4 1_555 1_555
H6 C6 1_555 1_555
N5 C3 1_555 1_555
C5 C6 1_555 1_555
N4 N5 1_555 1_555

#END
