
#######################################################################
#
#                 Cambridge Crystallographic Data Centre
#                                CCDC 
#
#######################################################################
#
# If this CIF has been generated from an entry in the Cambridge 
# Structural Database, then it will include bibliographic, chemical, 
# crystal, experimental, refinement or atomic coordinate data resulting 
# from the CCDC's data processing and validation procedures.
#
#######################################################################

data_QAJRUQ
_chemical_name_common            
2-Amino-4-(4-fluorophenyl)-6-(1-naphthyl)nicotinonitrile
_chemical_formula_moiety         'C22 H14 F1 N3'
_chemical_name_systematic        
2-Amino-4-(4-fluorophenyl)-6-(naphthalen-1-yl)pyridine-3-carbonitrile
_symmetry_cell_setting           monoclinic
_symmetry_space_group_name_H-M   'P 21/c'
_symmetry_Int_Tables_number      14
_space_group_name_Hall           '-P 2ybc'
loop_
_symmetry_equiv_pos_site_id
_symmetry_equiv_pos_as_xyz
1 x,y,z
2 -x,1/2+y,1/2-z
3 -x,-y,-z
4 x,1/2-y,1/2+z
_cell_length_a                   14.531(3)
_cell_length_b                   8.0900(16)
_cell_length_c                   15.516(3)
_cell_angle_alpha                90
_cell_angle_beta                 110.04(3)
_cell_angle_gamma                90
_cell_volume                     1713.56
_exptl_crystal_colour            colorless
_exptl_crystal_description       block
_chemical_melting_point          '422.15 K'
_cell_formula_units_Z            4
_exptl_crystal_recrystallization_method methanol
loop_
_atom_site_label
_atom_site_type_symbol
_atom_site_fract_x
_atom_site_fract_y
_atom_site_fract_z
F1 F 0.33760(12) 0.1683(3) 0.00030(15)
N1 N 0.91754(14) 0.3544(2) 0.03593(12)
C1 C 0.5928(2) 0.2725(4) 0.0869(2)
H1 H 0.6403 0.3032 0.1419
N2 N 0.87074(16) 0.4912(3) -0.10104(14)
H2 H 0.9316 0.5106 -0.0915
H3 H 0.8267 0.5267 -0.1502
C2 C 0.4983(2) 0.2457(4) 0.0839(2)
H4 H 0.4811 0.2591 0.1360
N3 N 0.6218(2) 0.4965(4) -0.19941(17)
C3 C 0.4303(2) 0.1989(4) 0.0021(3)
C4 C 0.4519(2) 0.1766(4) -0.0751(2)
H5 H 0.4039 0.1422 -0.1291
C5 C 0.54649(19) 0.2056(4) -0.07242(19)
H6 H 0.5622 0.1927 -0.1253
C6 C 0.61841(18) 0.2543(3) 0.00910(17)
C7 C 0.72116(18) 0.2857(3) 0.01511(16)
C8 C 0.74512(17) 0.3731(3) -0.05147(15)
C9 C 0.84442(17) 0.4055(3) -0.03910(15)
C10 C 0.89413(17) 0.2700(3) 0.09979(15)
C11 C 0.79866(18) 0.2324(3) 0.09168(16)
H7 H 0.7861 0.1716 0.1373
C12 C 0.6732(2) 0.4389(4) -0.13286(18)
C13 C 0.97766(17) 0.2280(3) 0.18524(15)
C14 C 1.06861(17) 0.1664(3) 0.18259(15)
C15 C 1.08360(19) 0.1133(3) 0.10156(17)
H8 H 1.0318 0.1182 0.0461
C16 C 1.1715(2) 0.0555(4) 0.1025(2)
H9 H 1.1792 0.0200 0.0484
C17 C 1.2509(2) 0.0492(4) 0.1853(2)
H10 H 1.3117 0.0130 0.1856
C18 C 1.2395(2) 0.0954(4) 0.2644(2)
H11 H 1.2928 0.0899 0.3187
C19 C 1.14842(18) 0.1521(3) 0.26713(17)
C20 C 1.1338(2) 0.1915(4) 0.34944(17)
H12 H 1.1861 0.1836 0.4044
C21 C 1.0458(2) 0.2407(4) 0.35084(17)
H13 H 1.0369 0.2618 0.4064
C22 C 0.9674(2) 0.2599(3) 0.26778(17)
H14 H 0.9070 0.2952 0.2691
loop_
_geom_bond_atom_site_label_1
_geom_bond_atom_site_label_2
_geom_bond_site_symmetry_1
_geom_bond_site_symmetry_2
F1 C3 1_555 1_555
N1 C9 1_555 1_555
C1 H1 1_555 1_555
N2 H2 1_555 1_555
H3 N2 1_555 1_555
C2 C1 1_555 1_555
H4 C2 1_555 1_555
N3 C12 1_555 1_555
C3 C2 1_555 1_555
C4 C3 1_555 1_555
H5 C4 1_555 1_555
C5 C4 1_555 1_555
H6 C5 1_555 1_555
C6 C1 1_555 1_555
C7 C6 1_555 1_555
C8 C7 1_555 1_555
C9 N2 1_555 1_555
C10 N1 1_555 1_555
C11 C7 1_555 1_555
H7 C11 1_555 1_555
C12 C8 1_555 1_555
C13 C10 1_555 1_555
C14 C13 1_555 1_555
C15 C14 1_555 1_555
H8 C15 1_555 1_555
C16 C15 1_555 1_555
H9 C16 1_555 1_555
C17 C16 1_555 1_555
H10 C17 1_555 1_555
C18 C17 1_555 1_555
H11 C18 1_555 1_555
C19 C14 1_555 1_555
C20 C19 1_555 1_555
H12 C20 1_555 1_555
C21 C20 1_555 1_555
H13 C21 1_555 1_555
C22 C13 1_555 1_555
H14 C22 1_555 1_555
C5 C6 1_555 1_555
C8 C9 1_555 1_555
C10 C11 1_555 1_555
C18 C19 1_555 1_555
C21 C22 1_555 1_555

#END
