
#######################################################################
#
#                 Cambridge Crystallographic Data Centre
#                                CCDC 
#
#######################################################################
#
# If this CIF has been generated from an entry in the Cambridge 
# Structural Database, then it will include bibliographic, chemical, 
# crystal, experimental, refinement or atomic coordinate data resulting 
# from the CCDC's data processing and validation procedures.
#
#######################################################################

data_QAJREZ
_chemical_formula_moiety         'C28 H36 Br4 S6 Si4,C1 H1 Cl3'
_chemical_name_systematic        
"3,4,10,11-Tetrabromo-2,5,9,12-tetrakis(trimethylsilyl)-tetrakisthieno(2,3-b:2',3'-g:3'',2''-d:3''',2'''-i)(1,6)dithiencine chloroform solvate"
_symmetry_cell_setting           orthorhombic
_symmetry_space_group_name_H-M   'P b c n'
_symmetry_Int_Tables_number      60
_space_group_name_Hall           '-P 2n 2ab'
loop_
_symmetry_equiv_pos_site_id
_symmetry_equiv_pos_as_xyz
1 x,y,z
2 1/2+x,1/2+y,1/2-z
3 x,-y,1/2+z
4 1/2-x,1/2+y,z
5 -x,-y,-z
6 1/2-x,1/2-y,1/2+z
7 -x,y,1/2-z
8 1/2+x,1/2-y,-z
_cell_length_a                   19.699(2)
_cell_length_b                   13.0798(15)
_cell_length_c                   17.734(2)
_cell_angle_alpha                90
_cell_angle_beta                 90
_cell_angle_gamma                90
_cell_volume                     4569.32
_exptl_crystal_colour            colorless
_exptl_crystal_description       Block
_cell_formula_units_Z            4
_exptl_crystal_recrystallization_method chloroform/methanol
loop_
_atom_site_label
_atom_site_type_symbol
_atom_site_fract_x
_atom_site_fract_y
_atom_site_fract_z
Br1 Br 0.28165(3) 0.34963(5) 0.06505(4)
S1 S 0.56856(7) 0.40692(12) 0.05109(8)
Si1 Si 0.34160(9) 0.09758(13) 0.03348(11)
C1 C 0.4888(3) 0.3474(4) 0.0478(3)
Br2 Br 0.39213(4) 0.41499(6) 0.23944(4)
S2 S 0.48149(7) 0.21855(11) 0.02812(10)
Si2 Si 0.64357(9) 0.31536(14) -0.27122(10)
C2 C 0.4261(3) 0.3902(4) 0.0623(3)
S3 S 0.61200(7) 0.31308(11) -0.09753(8)
C3 C 0.3745(3) 0.3154(5) 0.0542(3)
C4 C 0.3945(3) 0.2178(5) 0.0366(4)
C5 C 0.3991(4) -0.0103(6) 0.0106(7)
H1 H 0.3733 -0.0743 0.0104
H2 H 0.4352 -0.0143 0.0485
H3 H 0.4192 0.0007 -0.0393
C6 C 0.3060(4) 0.0835(5) 0.1307(4)
H4 H 0.2772 0.0224 0.1329
H5 H 0.2788 0.1440 0.1431
H6 H 0.3432 0.0768 0.1670
C7 C 0.2742(4) 0.1083(6) -0.0388(4)
H7 H 0.2430 0.0502 -0.0342
H8 H 0.2947 0.1082 -0.0891
H9 H 0.2490 0.1722 -0.0313
C8 C 0.5868(3) 0.4176(4) -0.0455(3)
C9 C 0.4130(3) 0.4951(4) 0.0884(3)
C10 C 0.3935(3) 0.5182(4) 0.1642(3)
C11 C 0.6214(3) 0.3816(5) -0.1800(3)
C12 C 0.5679(4) 0.3200(6) -0.3332(4)
H10 H 0.5794 0.2914 -0.3826
H11 H 0.5532 0.3911 -0.3392
H12 H 0.5312 0.2799 -0.3105
C13 C 0.7165(4) 0.3787(7) -0.3183(4)
H13 H 0.7248 0.3462 -0.3672
H14 H 0.7570 0.3721 -0.2866
H15 H 0.7062 0.4513 -0.3258
C14 C 0.6643(5) 0.1819(6) -0.2456(4)
H16 H 0.6697 0.1411 -0.2915
H17 H 0.6275 0.1533 -0.2149
H18 H 0.7067 0.1806 -0.2167
C10D C 0.6065(3) 0.4818(4) -0.1642(3)
Br2D Br 0.60787(4) 0.58501(6) -0.23944(4)
C9D C 0.5870(3) 0.5049(4) -0.0884(3)
C2D C 0.5739(3) 0.6098(4) -0.0623(3)
C1D C 0.5112(3) 0.6526(4) -0.0478(3)
S1D S 0.43144(7) 0.59308(12) -0.05109(8)
C8D C 0.4132(3) 0.5824(4) 0.0455(3)
S3D S 0.38800(7) 0.68692(11) 0.09753(8)
C11D C 0.3786(3) 0.6184(5) 0.1800(3)
Si2D Si 0.35643(9) 0.68464(14) 0.27122(10)
C12D C 0.4321(4) 0.6800(6) 0.3332(4)
H10D H 0.4206 0.7086 0.3826
H11D H 0.4468 0.6089 0.3392
H12D H 0.4688 0.7201 0.3105
C13D C 0.2835(4) 0.6213(7) 0.3183(4)
H13D H 0.2752 0.6538 0.3672
H14D H 0.2430 0.6279 0.2866
H15D H 0.2938 0.5487 0.3258
C14D C 0.3357(5) 0.8181(6) 0.2456(4)
H16D H 0.3303 0.8589 0.2915
H17D H 0.3725 0.8467 0.2149
H18D H 0.2933 0.8194 0.2167
S2D S 0.51851(7) 0.78145(11) -0.02812(10)
C4D C 0.6055(3) 0.7822(5) -0.0366(4)
Si1D Si 0.65840(9) 0.90242(13) -0.03348(11)
C5D C 0.6009(4) 1.0103(6) -0.0106(7)
H1D H 0.6267 1.0743 -0.0104
H2D H 0.5648 1.0143 -0.0485
H3D H 0.5808 0.9993 0.0393
C6D C 0.6940(4) 0.9165(5) -0.1307(4)
H4D H 0.7228 0.9776 -0.1329
H5D H 0.7212 0.8560 -0.1431
H6D H 0.6568 0.9232 -0.1670
C7D C 0.7258(4) 0.8917(6) 0.0388(4)
H7D H 0.7570 0.9498 0.0342
H8D H 0.7053 0.8918 0.0891
H9D H 0.7510 0.8278 0.0313
C3D C 0.6255(3) 0.6846(5) -0.0542(3)
Br1D Br 0.71835(3) 0.65037(5) -0.06505(4)
C15? C 0.5021(4) 0.1119(7) 0.1862(8)
H19? H 0.4781 0.1396 0.1409
Cl1? Cl 0.5901(4) 0.1322(7) 0.1893(4)
Cl2? Cl 0.5014(5) -0.0217(7) 0.1963(6)
Cl3? Cl 0.4740(7) 0.1571(11) 0.2733(9)
loop_
_geom_bond_atom_site_label_1
_geom_bond_atom_site_label_2
_geom_bond_site_symmetry_1
_geom_bond_site_symmetry_2
Br1 C3 1_555 1_555
S1 C1 1_555 1_555
Si1 C4 1_555 1_555
C1 S2 1_555 1_555
Br2 C10 1_555 1_555
S2 C4 1_555 1_555
Si2 C11 1_555 1_555
C2 C1 1_555 1_555
S3 C8 1_555 1_555
C3 C2 1_555 1_555
C4 C3 1_555 1_555
C5 Si1 1_555 1_555
H1 C5 1_555 1_555
H2 C5 1_555 1_555
H3 C5 1_555 1_555
C6 Si1 1_555 1_555
H4 C6 1_555 1_555
H5 C6 1_555 1_555
H6 C6 1_555 1_555
C7 Si1 1_555 1_555
H7 C7 1_555 1_555
H8 C7 1_555 1_555
H9 C7 1_555 1_555
C8 S1 1_555 1_555
C9 C2 1_555 1_555
C10 C9 1_555 1_555
C11 S3 1_555 1_555
C12 Si2 1_555 1_555
H10 C12 1_555 1_555
H11 C12 1_555 1_555
H12 C12 1_555 1_555
C13 Si2 1_555 1_555
H13 C13 1_555 1_555
H14 C13 1_555 1_555
H15 C13 1_555 1_555
C14 Si2 1_555 1_555
H16 C14 1_555 1_555
H17 C14 1_555 1_555
H18 C14 1_555 1_555
C10D C11 1_555 1_555
Br2D C10D 1_555 1_555
C9D C8 1_555 1_555
C2D C9D 1_555 1_555
C1D C2D 1_555 1_555
S1D C1D 1_555 1_555
C8D C9 1_555 1_555
S3D C8D 1_555 1_555
C11D C10 1_555 1_555
Si2D C11D 1_555 1_555
C12D Si2D 1_555 1_555
H10D C12D 1_555 1_555
H11D C12D 1_555 1_555
H12D C12D 1_555 1_555
C13D Si2D 1_555 1_555
H13D C13D 1_555 1_555
H14D C13D 1_555 1_555
H15D C13D 1_555 1_555
C14D Si2D 1_555 1_555
H16D C14D 1_555 1_555
H17D C14D 1_555 1_555
H18D C14D 1_555 1_555
S2D C1D 1_555 1_555
C4D S2D 1_555 1_555
Si1D C4D 1_555 1_555
C5D Si1D 1_555 1_555
H1D C5D 1_555 1_555
H2D C5D 1_555 1_555
H3D C5D 1_555 1_555
C6D Si1D 1_555 1_555
H4D C6D 1_555 1_555
H5D C6D 1_555 1_555
H6D C6D 1_555 1_555
C7D Si1D 1_555 1_555
H7D C7D 1_555 1_555
H8D C7D 1_555 1_555
H9D C7D 1_555 1_555
C3D C2D 1_555 1_555
Br1D C3D 1_555 1_555
C10D C9D 1_555 1_555
S1D C8D 1_555 1_555
S3D C11D 1_555 1_555
C4D C3D 1_555 1_555

#END
