
#######################################################################
#
#                 Cambridge Crystallographic Data Centre
#                                CCDC 
#
#######################################################################
#
# If this CIF has been generated from an entry in the Cambridge 
# Structural Database, then it will include bibliographic, chemical, 
# crystal, experimental, refinement or atomic coordinate data resulting 
# from the CCDC's data processing and validation procedures.
#
#######################################################################

data_QAJVEE
_chemical_formula_moiety         'C9 H10 Cl1 N1 O1'
_chemical_name_systematic        2-Chloro-N-methyl-N-phenylacetamide
_symmetry_cell_setting           monoclinic
_symmetry_space_group_name_H-M   'P 21/c'
_symmetry_Int_Tables_number      14
_space_group_name_Hall           '-P 2ybc'
loop_
_symmetry_equiv_pos_site_id
_symmetry_equiv_pos_as_xyz
1 x,y,z
2 -x,1/2+y,1/2-z
3 -x,-y,-z
4 x,1/2-y,1/2+z
_cell_length_a                   7.3391(12)
_cell_length_b                   6.5898(10)
_cell_length_c                   18.941(3)
_cell_angle_alpha                90
_cell_angle_beta                 91.192(9)
_cell_angle_gamma                90
_cell_volume                     915.849
_exptl_crystal_colour            colorless
_exptl_crystal_description       block
_cell_formula_units_Z            4
loop_
_atom_site_label
_atom_site_type_symbol
_atom_site_fract_x
_atom_site_fract_y
_atom_site_fract_z
Cl1 Cl 0.13525(7) 0.14663(8) 0.40483(2)
N1 N 0.29635(16) 0.47779(19) 0.56727(6)
C1 C 0.2909(2) 0.3393(2) 0.62581(7)
C2 C 0.22967(19) 0.4317(2) 0.50259(7)
C3 C 0.4463(2) 0.2337(2) 0.64621(7)
H1 H 0.5533 0.2483 0.6212
C4 C 0.1317(2) 0.3191(3) 0.66275(8)
H2 H 0.0279 0.3909 0.6489
O1 O 0.21932(15) 0.55459(18) 0.45449(6)
C5 C 0.2821(2) 0.0864(3) 0.74123(8)
H3 H 0.2794 0.0017 0.7805
C6 C 0.1674(2) 0.2147(3) 0.49372(7)
H4 H 0.0539 0.1962 0.5182
H5 H 0.2575 0.1252 0.5154
C7 C 0.4407(2) 0.1065(3) 0.70395(8)
H6 H 0.5442 0.0341 0.7178
C8 C 0.1284(2) 0.1911(3) 0.72052(8)
H7 H 0.0214 0.1758 0.7455
C9 C 0.3571(3) 0.6832(3) 0.58295(10)
H8 H 0.3770 0.7546 0.5396
H9 H 0.4686 0.6784 0.6103
H10 H 0.2656 0.7523 0.6093
loop_
_geom_bond_atom_site_label_1
_geom_bond_atom_site_label_2
_geom_bond_site_symmetry_1
_geom_bond_site_symmetry_2
Cl1 C6 1_555 1_555
N1 C1 1_555 1_555
C1 C3 1_555 1_555
C2 N1 1_555 1_555
C3 H1 1_555 1_555
C4 C1 1_555 1_555
H2 C4 1_555 1_555
O1 C2 1_555 1_555
C5 H3 1_555 1_555
C6 C2 1_555 1_555
H4 C6 1_555 1_555
H5 C6 1_555 1_555
C7 C3 1_555 1_555
H6 C7 1_555 1_555
C8 C4 1_555 1_555
H7 C8 1_555 1_555
C9 N1 1_555 1_555
H8 C9 1_555 1_555
H9 C9 1_555 1_555
H10 C9 1_555 1_555
C5 C7 1_555 1_555
C5 C8 1_555 1_555

#END
