
#######################################################################
#
#                 Cambridge Crystallographic Data Centre
#                                CCDC 
#
#######################################################################
#
# If this CIF has been generated from an entry in the Cambridge 
# Structural Database, then it will include bibliographic, chemical, 
# crystal, experimental, refinement or atomic coordinate data resulting 
# from the CCDC's data processing and validation procedures.
#
#######################################################################

data_QAJYIL
_chemical_name_common            "Atenolol 1,1'-binaphthyl-2,2'-diyl phosphate"
_chemical_formula_moiety         'C14 H23 N2 O3 1+,C20 H12 O4 P1 1-'
_chemical_name_systematic        
"3-(4-(2-Amino-2-oxoethyl)phenoxy)-2-hydroxy-N-isopropylpropan-1-aminium dinaphtho[2,1-d:1',2'-f][1,3,2]dioxaphosphepin-4-olate 4-oxide"
_chemical_properties_biological  
'Atenolol is a selective beta1 receptor antagonist, used in the treatment of cardiovascular diseases. Only (S)-atenolol has the beta-blocking activity'
_symmetry_cell_setting           orthorhombic
_symmetry_space_group_name_H-M   'P n a 21'
_symmetry_Int_Tables_number      33
_space_group_name_Hall           'P 2c -2n'
loop_
_symmetry_equiv_pos_site_id
_symmetry_equiv_pos_as_xyz
1 x,y,z
2 -x,-y,1/2+z
3 1/2+x,1/2-y,z
4 1/2-x,1/2+y,1/2+z
_cell_length_a                   9.8646(14)
_cell_length_b                   26.145(4)
_cell_length_c                   11.9306(16)
_cell_angle_alpha                90
_cell_angle_beta                 90
_cell_angle_gamma                90
_cell_volume                     3077.02
_exptl_crystal_colour            colorless
_exptl_crystal_description       plate
_cell_formula_units_Z            4
loop_
_atom_site_label
_atom_site_type_symbol
_atom_site_fract_x
_atom_site_fract_y
_atom_site_fract_z
N1 N 1.0356(2) 0.73553(9) 0.9249(2)
H1 H 1.0214 0.7081 0.9628
H2 H 0.9688 0.7550 0.9070
N2 N 0.7574(2) 0.84866(8) 0.09975(18)
H3 H 0.7757 0.8256 0.0458
H4 H 0.6727 0.8425 0.1243
O1 O 1.2588(2) 0.72090(7) 0.91795(17)
O2 O 0.9002(2) 0.79899(8) 0.41140(16)
O3 O 0.7363(2) 0.76326(8) 0.2308(2)
H5 H 0.7331 0.7348 0.2019
C1 C 1.1587(3) 0.74762(11) 0.8944(2)
C2 C 1.1765(3) 0.79671(11) 0.8281(3)
H6 H 1.1437 0.8251 0.8729
H7 H 1.2724 0.8021 0.8148
C3 C 1.1032(3) 0.79705(10) 0.7164(2)
C4 C 1.1619(3) 0.77574(10) 0.6244(3)
H8 H 1.2475 0.7612 0.6319
C5 C 1.1003(3) 0.77459(11) 0.5198(3)
H9 H 1.1425 0.7593 0.4587
C6 C 0.9733(3) 0.79712(10) 0.5096(2)
C7 C 0.9134(3) 0.81967(10) 0.6010(2)
H10 H 0.8295 0.8355 0.5936
C8 C 0.9773(3) 0.81891(11) 0.7032(2)
H11 H 0.9345 0.8335 0.7649
C9 C 0.9557(3) 0.77359(12) 0.3161(2)
H12 H 0.9613 0.7371 0.3302
H13 H 1.0463 0.7863 0.3011
C10 C 0.8654(3) 0.78359(11) 0.2172(3)
H14 H 0.9066 0.7675 0.1513
C11 C 0.8528(3) 0.83978(11) 0.1944(3)
H15 H 0.8197 0.8571 0.2610
H16 H 0.9411 0.8538 0.1760
C12 C 0.7597(4) 0.90039(13) 0.0483(3)
H17 H 0.6919 0.9007 -0.0117
C13 C 0.702(3) 0.9354(9) 0.150(2)
H18 H 0.6246 0.9189 0.1829
H19 H 0.6755 0.9682 0.1211
H20 H 0.7711 0.9397 0.2055
C14 C 0.885(4) 0.9195(11) 0.002(3)
H21 H 0.9543 0.9183 0.0582
H22 H 0.8723 0.9542 -0.0222
H23 H 0.9109 0.8987 -0.0608
O4 O 0.85501(19) 0.60766(7) 0.23253(15)
O5 O 0.79646(19) 0.59375(7) 0.03175(14)
O6 O 0.72831(19) 0.67462(7) 0.11765(19)
O7 O 0.97968(19) 0.65639(8) 0.08968(18)
P1 P 0.84174(7) 0.63871(3) 0.11563(7)
C15 C 0.7172(3) 0.53332(10) 0.2126(2)
C16 C 0.7427(3) 0.57925(10) 0.2645(2)
C17 C 0.6600(3) 0.59822(11) 0.3496(2)
H24 H 0.6821 0.6288 0.3849
C18 C 0.5485(3) 0.57245(11) 0.3810(3)
H25 H 0.4960 0.5849 0.4397
C19 C 0.5094(3) 0.52674(10) 0.3266(2)
C20 C 0.3886(3) 0.50032(12) 0.3525(3)
H26 H 0.3353 0.5116 0.4118
C21 C 0.3484(3) 0.45894(12) 0.2931(3)
H27 H 0.2684 0.4422 0.3118
C22 C 0.4272(3) 0.44137(11) 0.2032(3)
H28 H 0.3978 0.4137 0.1606
C23 C 0.5465(3) 0.46459(11) 0.1783(2)
H29 H 0.5986 0.4519 0.1196
C24 C 0.5938(3) 0.50747(10) 0.2389(2)
C25 C 0.8142(3) 0.51381(9) 0.1265(2)
C26 C 0.8525(3) 0.54511(10) 0.0395(2)
C27 C 0.9387(3) 0.52908(12) -0.0454(2)
H30 H 0.9626 0.5515 -0.1026
C28 C 0.9877(3) 0.48104(13) -0.0448(3)
H31 H 1.0420 0.4701 -0.1038
C29 C 0.9584(3) 0.44693(11) 0.0438(3)
C30 C 1.0124(4) 0.39660(14) 0.0491(4)
H32 H 1.0673 0.3851 -0.0090
C31 C 0.9863(4) 0.36521(13) 0.1357(4)
H33 H 1.0225 0.3324 0.1366
C32 C 0.9060(4) 0.38159(12) 0.2232(3)
H34 H 0.8897 0.3599 0.2835
C33 C 0.8500(3) 0.42961(11) 0.2220(3)
H35 H 0.7961 0.4400 0.2817
C34 C 0.8726(3) 0.46360(10) 0.1314(2)
C35? C 0.736(3) 0.9449(9) 0.112(3)
C36? C 0.905(4) 0.9000(11) -0.014(3)
H36? H 0.6466 0.9438 0.1426
H37? H 0.7454 0.9744 0.0644
H38? H 0.8015 0.9468 0.1714
H39? H 0.9755 0.9062 0.0400
H40? H 0.9069 0.9262 -0.0702
H41? H 0.9193 0.8672 -0.0485
loop_
_geom_bond_atom_site_label_1
_geom_bond_atom_site_label_2
_geom_bond_site_symmetry_1
_geom_bond_site_symmetry_2
N1 H1 1_555 1_555
H2 N1 1_555 1_555
N2 H3 1_555 1_555
H4 N2 1_555 1_555
O1 C1 1_555 1_555
O2 C6 1_555 1_555
O3 H5 1_555 1_555
C1 N1 1_555 1_555
C2 C1 1_555 1_555
H6 C2 1_555 1_555
H7 C2 1_555 1_555
C3 C2 1_555 1_555
C4 C3 1_555 1_555
H8 C4 1_555 1_555
C5 C4 1_555 1_555
H9 C5 1_555 1_555
C6 C5 1_555 1_555
C7 C6 1_555 1_555
H10 C7 1_555 1_555
C8 C3 1_555 1_555
H11 C8 1_555 1_555
C9 O2 1_555 1_555
H12 C9 1_555 1_555
H13 C9 1_555 1_555
C10 O3 1_555 1_555
H14 C10 1_555 1_555
C11 N2 1_555 1_555
H15 C11 1_555 1_555
H16 C11 1_555 1_555
C12 N2 1_555 1_555
H17 C12 1_555 1_555
C13 C12 1_555 1_555
H18 C13 1_555 1_555
H19 C13 1_555 1_555
H20 C13 1_555 1_555
C14 C12 1_555 1_555
H21 C14 1_555 1_555
H22 C14 1_555 1_555
H23 C14 1_555 1_555
O4 P1 1_555 1_555
O5 P1 1_555 1_555
O6 P1 1_555 1_555
O7 P1 1_555 1_555
C15 C16 1_555 1_555
C16 O4 1_555 1_555
C17 C16 1_555 1_555
H24 C17 1_555 1_555
C18 C17 1_555 1_555
H25 C18 1_555 1_555
C19 C18 1_555 1_555
C20 C19 1_555 1_555
H26 C20 1_555 1_555
C21 C20 1_555 1_555
H27 C21 1_555 1_555
C22 C21 1_555 1_555
H28 C22 1_555 1_555
C23 C22 1_555 1_555
H29 C23 1_555 1_555
C24 C15 1_555 1_555
C25 C15 1_555 1_555
C26 O5 1_555 1_555
C27 C26 1_555 1_555
H30 C27 1_555 1_555
C28 C27 1_555 1_555
H31 C28 1_555 1_555
C29 C28 1_555 1_555
C30 C29 1_555 1_555
H32 C30 1_555 1_555
C31 C30 1_555 1_555
H33 C31 1_555 1_555
C32 C31 1_555 1_555
H34 C32 1_555 1_555
C33 C32 1_555 1_555
H35 C33 1_555 1_555
C34 C25 1_555 1_555
C7 C8 1_555 1_555
C9 C10 1_555 1_555
C10 C11 1_555 1_555
C19 C24 1_555 1_555
C23 C24 1_555 1_555
C25 C26 1_555 1_555
C29 C34 1_555 1_555
C33 C34 1_555 1_555

#END
