
#######################################################################
#
#                 Cambridge Crystallographic Data Centre
#                                CCDC 
#
#######################################################################
#
# If this CIF has been generated from an entry in the Cambridge 
# Structural Database, then it will include bibliographic, chemical, 
# crystal, experimental, refinement or atomic coordinate data resulting 
# from the CCDC's data processing and validation procedures.
#
#######################################################################

data_QAJZUY
_chemical_formula_moiety         
'C16 H18 N1 O1 1+,C6 H4 Br1 O3 S1 1-,0.5(C1 H4 O1)'
_chemical_name_systematic        
'(E)-4-(2-(4-Ethoxyphenyl)ethenyl)-1-methylpyridinium 4-bromobenzenesulfonate methanol solvate'
_symmetry_cell_setting           triclinic
_symmetry_space_group_name_H-M   'P -1'
_symmetry_Int_Tables_number      2
_space_group_name_Hall           '-P 1'
loop_
_symmetry_equiv_pos_site_id
_symmetry_equiv_pos_as_xyz
1 x,y,z
2 -x,-y,-z
_cell_length_a                   9.9270(4)
_cell_length_b                   9.9813(4)
_cell_length_c                   11.5293(4)
_cell_angle_alpha                75.703(2)
_cell_angle_beta                 76.965(2)
_cell_angle_gamma                88.395(2)
_cell_volume                     1078
_exptl_crystal_colour            yellow
_exptl_crystal_description       plate
_chemical_melting_point          '513-515 K'
_cell_formula_units_Z            2
_exptl_crystal_recrystallization_method methanol
loop_
_atom_site_label
_atom_site_type_symbol
_atom_site_fract_x
_atom_site_fract_y
_atom_site_fract_z
Br1 Br 0.611495(18) 0.152815(19) 0.312050(17)
S1 S -0.01349(4) 0.19135(4) 0.23886(4)
O1 O -0.09844(13) 0.10914(14) 0.35315(12)
O2 O -0.04752(16) 0.33740(14) 0.21612(16)
O3 O -0.00778(15) 0.13368(18) 0.13490(14)
C1 C 0.42651(18) 0.16977(18) 0.29296(16)
C2 C 0.39864(19) 0.25307(19) 0.18576(17)
H1 H 0.4697 0.3034 0.1249
C3 C 0.26369(19) 0.26051(19) 0.17041(17)
H2 H 0.2439 0.3161 0.0990
C4 C 0.15803(18) 0.18491(17) 0.26178(16)
C5 C 0.18730(19) 0.10245(18) 0.36949(16)
H3 H 0.1163 0.0524 0.4307
C6 C 0.32179(19) 0.09490(18) 0.38552(16)
H4 H 0.3416 0.0404 0.4573
O4 O 0.57929(15) 0.21814(14) 0.88911(12)
N1 N -0.0147(7) 0.7395(6) 0.2448(5)
C7 C 0.0554(4) 0.7375(4) 0.4310(3)
H5 H 0.0530 0.7777 0.4961
C8 C -0.0181(6) 0.7948(5) 0.3438(4)
H6 H -0.0707 0.8720 0.3517
C9 C 0.0609(9) 0.6259(8) 0.2357(7)
H7 H 0.0643 0.5885 0.1688
C10 C 0.1331(4) 0.5640(3) 0.3233(4)
H8 H 0.1818 0.4845 0.3157
C11 C 0.1341(3) 0.6195(3) 0.4234(3)
C12 C 0.2090(3) 0.5626(3) 0.5195(2)
H9 H 0.1987 0.6051 0.5841
C13 C 0.2907(3) 0.4544(3) 0.5214(2)
H10 H 0.3008 0.4130 0.4561
C14 C 0.3662(3) 0.3946(3) 0.6161(3)
C15 C 0.4440(3) 0.2777(4) 0.6085(3)
H11 H 0.4482 0.2397 0.5418
C16 C 0.5148(6) 0.2167(6) 0.6964(5)
H12 H 0.5643 0.1378 0.6884
C17 C 0.5143(8) 0.2692(7) 0.7955(6)
C18 C 0.4362(6) 0.3892(5) 0.8051(5)
H13 H 0.4333 0.4268 0.8718
C19 C 0.3649(3) 0.4505(3) 0.7172(4)
H14 H 0.3154 0.5295 0.7247
C20 C -0.0929(6) 0.8055(6) 0.1557(5)
H15 H -0.0579 0.7792 0.0800
H16 H -0.0841 0.9041 0.1414
H17 H -0.1885 0.7771 0.1864
C21 C 0.6589(7) 0.0983(6) 0.8757(7)
H18 H 0.7289 0.1197 0.7994
H19 H 0.5994 0.0236 0.8743
C22 C 0.7260(12) 0.0566(17) 0.9834(10)
H20 H 0.7892 -0.0160 0.9718
H21 H 0.6561 0.0243 1.0573
H22 H 0.7753 0.1349 0.9897
O5 O 0.8900(4) 0.4976(3) 0.0154(3)
H23 H 0.9371 0.4481 0.0578
C23 C 0.7489(5) 0.4042(5) 0.0126(4)
H24 H 0.7764 0.3470 -0.0440
H25 H 0.6475 0.4335 -0.0202
H26 H 0.7118 0.3469 0.0933
C24? C 0.5018(16) 0.2447(14) 0.6990(15)
C25? C 0.5034(16) 0.2863(15) 0.8051(13)
C26? C 0.4343(11) 0.3971(12) 0.8312(10)
C27? C 0.3546(9) 0.4703(9) 0.7531(8)
C28? C -0.1068(15) 0.8318(13) 0.1724(13)
C29? C 0.659(3) 0.098(2) 0.877(3)
C30? C 0.716(3) 0.044(4) 0.990(3)
C31? C 0.0848(8) 0.7018(9) 0.4259(7)
C32? C 0.0053(12) 0.7800(14) 0.3562(12)
C33? C 0.0405(19) 0.638(2) 0.2234(19)
C34? C 0.1273(10) 0.5607(11) 0.2859(9)
C35? C 0.1499(7) 0.5881(8) 0.3903(8)
C36? C 0.2386(6) 0.5015(6) 0.4641(5)
C37? C 0.2637(6) 0.5186(6) 0.5688(5)
C38? C 0.3503(7) 0.4341(8) 0.6447(7)
C39? C 0.4213(8) 0.3225(9) 0.6190(7)
H27? H 0.5512 0.1691 0.6808
H28? H 0.4399 0.4246 0.9014
H29? H 0.3037 0.5442 0.7734
H30? H -0.1681 0.7690 0.1567
H31? H -0.0475 0.8797 0.0963
H32? H -0.1601 0.8975 0.2106
H33? H 0.7338 0.1217 0.8046
H34? H 0.6004 0.0271 0.8673
H35? H 0.7610 -0.0419 0.9852
H36? H 0.6426 0.0291 1.0619
H37? H 0.7825 0.1101 0.9937
H38? H 0.0962 0.7236 0.4971
H39? H -0.0344 0.8582 0.3782
H40? H 0.0207 0.6149 0.1556
H41? H 0.1720 0.4881 0.2574
H42? H 0.2810 0.4282 0.4351
H43? H 0.2213 0.5926 0.5966
H44? H 0.4174 0.2964 0.5477
N2? N -0.0172(14) 0.7490(16) 0.2597(13)
loop_
_geom_bond_atom_site_label_1
_geom_bond_atom_site_label_2
_geom_bond_site_symmetry_1
_geom_bond_site_symmetry_2
Br1 C1 1_555 1_555
S1 O1 1_555 1_555
O2 S1 1_555 1_555
O3 S1 1_555 1_555
C1 C2 1_555 1_555
C2 H1 1_555 1_555
C3 C2 1_555 1_555
H2 C3 1_555 1_555
C4 S1 1_555 1_555
C5 C4 1_555 1_555
H3 C5 1_555 1_555
C6 C1 1_555 1_555
H4 C6 1_555 1_555
O4 C17 1_555 1_555
N1 C8 1_555 1_555
C7 H5 1_555 1_555
C8 C7 1_555 1_555
H6 C8 1_555 1_555
C9 N1 1_555 1_555
H7 C9 1_555 1_555
C10 C9 1_555 1_555
H8 C10 1_555 1_555
C11 C7 1_555 1_555
C12 C11 1_555 1_555
H9 C12 1_555 1_555
C13 C12 1_555 1_555
H10 C13 1_555 1_555
C14 C13 1_555 1_555
C15 C14 1_555 1_555
H11 C15 1_555 1_555
C16 C15 1_555 1_555
H12 C16 1_555 1_555
C17 C16 1_555 1_555
C18 C17 1_555 1_555
H13 C18 1_555 1_555
C19 C14 1_555 1_555
H14 C19 1_555 1_555
C20 N1 1_555 1_555
H15 C20 1_555 1_555
H16 C20 1_555 1_555
H17 C20 1_555 1_555
C21 O4 1_555 1_555
H18 C21 1_555 1_555
H19 C21 1_555 1_555
C22 C21 1_555 1_555
H20 C22 1_555 1_555
H21 C22 1_555 1_555
H22 C22 1_555 1_555
O5 H23 1_555 1_555
C23 O5 1_555 1_555
H24 C23 1_555 1_555
H25 C23 1_555 1_555
H26 C23 1_555 1_555
C3 C4 1_555 1_555
C5 C6 1_555 1_555
C10 C11 1_555 1_555
C18 C19 1_555 1_555

#END
