
#######################################################################
#
#                 Cambridge Crystallographic Data Centre
#                                CCDC 
#
#######################################################################
#
# If this CIF has been generated from an entry in the Cambridge 
# Structural Database, then it will include bibliographic, chemical, 
# crystal, experimental, refinement or atomic coordinate data resulting 
# from the CCDC's data processing and validation procedures.
#
#######################################################################

data_QAKBAG
_chemical_formula_moiety         'C17 H21 F2 N1 O4 S1'
_chemical_name_systematic        
'Benzoic acid 4-(t-butoxycarbonylamino)-3,3-difluoro-tetrahydrothiophen-2-ylmethyl ester'
_symmetry_cell_setting           monoclinic
_symmetry_space_group_name_H-M   'P 21'
_symmetry_Int_Tables_number      4
_space_group_name_Hall           'P 2yb'
loop_
_symmetry_equiv_pos_site_id
_symmetry_equiv_pos_as_xyz
1 x,y,z
2 -x,1/2+y,-z
_cell_length_a                   5.3210(8)
_cell_length_b                   18.986(3)
_cell_length_c                   9.2062(14)
_cell_angle_alpha                90
_cell_angle_beta                 99.430(3)
_cell_angle_gamma                90
_cell_volume                     917.484
_exptl_crystal_colour            colorless
_chemical_melting_point          '68-70 deg.C'
_cell_formula_units_Z            2
loop_
_atom_site_label
_atom_site_type_symbol
_atom_site_fract_x
_atom_site_fract_y
_atom_site_fract_z
S1 S 0.38690(19) -0.05170(4) 0.80245(9)
O1 O 0.6529(4) -0.03244(11) 0.5342(2)
O2 O 0.9924(5) 0.00559(13) 0.4454(2)
O3 O 0.7563(4) 0.17371(12) 1.2694(2)
O4 O 1.0120(4) 0.11514(13) 1.1375(2)
N1 N 0.5863(5) 0.09845(16) 1.1011(3)
C1 C 0.4070(7) -0.01159(19) 0.9838(4)
C2 C 0.5792(6) 0.05053(16) 0.9795(3)
C3 C 0.4920(6) 0.08444(15) 0.8320(3)
C4 C 0.4623(6) 0.02918(16) 0.7121(3)
C5 C 0.6994(8) 0.0226(2) 0.6435(4)
C6 C 0.8197(6) -0.03451(16) 0.4404(3)
C7 C 0.7642(6) -0.09159(15) 0.3305(3)
C8 C 0.9159(7) -0.0966(2) 0.2233(4)
C9 C 0.8767(9) -0.1478(3) 0.1201(5)
C10 C 0.6843(10) -0.1964(2) 0.1229(5)
C11 C 0.5329(9) -0.19212(18) 0.2278(4)
C12 C 0.5721(7) -0.13945(16) 0.3313(4)
C13 C 0.8061(6) 0.12791(18) 1.1666(3)
C14 C 0.9575(6) 0.21841(17) 1.3488(3)
C15 C 1.1565(9) 0.1746(2) 1.4402(5)
C16 C 0.8119(8) 0.2618(2) 1.4466(5)
H1 H 0.6812 0.2884 1.3862
H2 H 0.9270 0.2934 1.5057
H3 H 0.7355 0.2309 1.5095
C17 C 1.0656(13) 0.2661(3) 1.2430(7)
F1 F 0.2606(4) 0.11536(10) 0.8335(2)
F2 F 0.6483(4) 0.13715(9) 0.8048(2)
H4 H 0.231(7) 0.0055(16) 1.002(3)
H5 H 0.476(6) -0.0484(19) 1.046(3)
H6 H 0.754(5) 0.0362(15) 0.977(3)
H7 H 0.312(5) 0.0416(15) 0.640(3)
H8 H 0.860(9) 0.010(2) 0.723(5)
H9 H 0.737(9) 0.069(2) 0.610(5)
H10 H 1.041(6) -0.0621(18) 0.229(3)
H11 H 0.980(6) -0.1524(18) 0.057(4)
H12 H 0.647(6) -0.2326(18) 0.048(4)
H13 H 0.402(6) -0.2267(18) 0.235(4)
H14 H 0.469(6) -0.1357(16) 0.402(3)
H15 H 1.080(8) 0.140(3) 1.493(5)
H16 H 1.265(9) 0.197(2) 1.509(5)
H17 H 1.227(8) 0.146(2) 1.392(4)
H18 H 1.173(9) 0.302(2) 1.297(5)
H19 H 1.175(9) 0.238(2) 1.192(4)
H20 H 0.931(8) 0.284(2) 1.183(5)
H21 H 0.452(5) 0.1103(14) 1.124(3)
loop_
_geom_bond_atom_site_label_1
_geom_bond_atom_site_label_2
_geom_bond_site_symmetry_1
_geom_bond_site_symmetry_2
S1 C1 1_555 1_555
O1 C5 1_555 1_555
O2 C6 1_555 1_555
O3 C13 1_555 1_555
O4 C13 1_555 1_555
N1 C2 1_555 1_555
C1 C2 1_555 1_555
C2 C3 1_555 1_555
C3 C4 1_555 1_555
C4 S1 1_555 1_555
C5 C4 1_555 1_555
C6 O1 1_555 1_555
C7 C6 1_555 1_555
C8 C7 1_555 1_555
C9 C8 1_555 1_555
C10 C9 1_555 1_555
C11 C10 1_555 1_555
C12 C7 1_555 1_555
C13 N1 1_555 1_555
C14 O3 1_555 1_555
C15 C14 1_555 1_555
C16 C14 1_555 1_555
H1 C16 1_555 1_555
H2 C16 1_555 1_555
H3 C16 1_555 1_555
C17 C14 1_555 1_555
F1 C3 1_555 1_555
F2 C3 1_555 1_555
H4 C1 1_555 1_555
H5 C1 1_555 1_555
H6 C2 1_555 1_555
H7 C4 1_555 1_555
H8 C5 1_555 1_555
H9 C5 1_555 1_555
H10 C8 1_555 1_555
H11 C9 1_555 1_555
H12 C10 1_555 1_555
H13 C11 1_555 1_555
H14 C12 1_555 1_555
H15 C15 1_555 1_555
H16 C15 1_555 1_555
H17 C15 1_555 1_555
H18 C17 1_555 1_555
H19 C17 1_555 1_555
H20 C17 1_555 1_555
H21 N1 1_555 1_555
C11 C12 1_555 1_555

#END
