
#######################################################################
#
#                 Cambridge Crystallographic Data Centre
#                                CCDC 
#
#######################################################################
#
# If this CIF has been generated from an entry in the Cambridge 
# Structural Database, then it will include bibliographic, chemical, 
# crystal, experimental, refinement or atomic coordinate data resulting 
# from the CCDC's data processing and validation procedures.
#
#######################################################################

data_QAKCEM
_chemical_formula_moiety         'C8 H7 Br1 O3'
_chemical_name_systematic        'Methyl 4-bromo-3-hydroxybenzoate'
_symmetry_cell_setting           monoclinic
_symmetry_space_group_name_H-M   'P 21/c'
_symmetry_Int_Tables_number      14
_space_group_name_Hall           '-P 2ybc'
loop_
_symmetry_equiv_pos_site_id
_symmetry_equiv_pos_as_xyz
1 x,y,z
2 -x,1/2+y,1/2-z
3 -x,-y,-z
4 x,1/2-y,1/2+z
_cell_length_a                   10.812(4)
_cell_length_b                   6.317(2)
_cell_length_c                   12.490(5)
_cell_angle_alpha                90
_cell_angle_beta                 100.164(6)
_cell_angle_gamma                90
_cell_volume                     839.672
_exptl_crystal_colour            colorless
_exptl_crystal_description       plate
_cell_formula_units_Z            4
_exptl_crystal_recrystallization_method methanol
loop_
_atom_site_label
_atom_site_type_symbol
_atom_site_fract_x
_atom_site_fract_y
_atom_site_fract_z
Br1 Br 0.92070(8) 1.12616(14) 0.78430(7)
C1 C 0.8397(6) 0.8935(11) 0.8349(5)
C2 C 0.7180(6) 0.8391(11) 0.7823(5)
C3 C 0.6621(5) 0.6667(10) 0.8204(5)
H1 H 0.5809 0.6296 0.7877
C4 C 0.7238(6) 0.5454(10) 0.9072(5)
C5 C 0.8426(6) 0.6045(11) 0.9592(5)
H2 H 0.8837 0.5274 1.0183
C6 C 0.8996(6) 0.7797(12) 0.9223(6)
H3 H 0.9792 0.8206 0.9571
C7 C 0.6617(6) 0.3570(10) 0.9440(5)
C8 C 0.6834(8) 0.0661(13) 1.0640(6)
H4 H 0.6194 0.1164 1.1020
H5 H 0.7478 -0.0043 1.1142
H6 H 0.6471 -0.0314 1.0082
O1 O 0.6635(5) 0.9620(9) 0.6988(4)
H7 H 0.5947 0.9128 0.6724
O2 O 0.5536(5) 0.3093(9) 0.9112(4)
O3 O 0.7379(4) 0.2443(7) 1.0147(4)
loop_
_geom_bond_atom_site_label_1
_geom_bond_atom_site_label_2
_geom_bond_site_symmetry_1
_geom_bond_site_symmetry_2
Br1 C1 1_555 1_555
C1 C2 1_555 1_555
C2 C3 1_555 1_555
C3 H1 1_555 1_555
C4 C3 1_555 1_555
C5 C4 1_555 1_555
H2 C5 1_555 1_555
C6 C1 1_555 1_555
H3 C6 1_555 1_555
C7 C4 1_555 1_555
C8 H4 1_555 1_555
H5 C8 1_555 1_555
H6 C8 1_555 1_555
O1 C2 1_555 1_555
H7 O1 1_555 1_555
O2 C7 1_555 1_555
O3 C7 1_555 1_555
C5 C6 1_555 1_555
C8 O3 1_555 1_555

#END
