
#######################################################################
#
#                 Cambridge Crystallographic Data Centre
#                                CCDC 
#
#######################################################################
#
# If this CIF has been generated from an entry in the Cambridge 
# Structural Database, then it will include bibliographic, chemical, 
# crystal, experimental, refinement or atomic coordinate data resulting 
# from the CCDC's data processing and validation procedures.
#
#######################################################################

data_QAKGIU
_chemical_formula_moiety         'C11 H10 O3'
_chemical_name_systematic        6-Methoxy-4-methyl-2H-chromen-2-one
_symmetry_cell_setting           triclinic
_symmetry_space_group_name_H-M   'P -1'
_symmetry_Int_Tables_number      2
_space_group_name_Hall           '-P 1'
loop_
_symmetry_equiv_pos_site_id
_symmetry_equiv_pos_as_xyz
1 x,y,z
2 -x,-y,-z
_cell_length_a                   7.2554(2)
_cell_length_b                   8.0880(2)
_cell_length_c                   8.5450(2)
_cell_angle_alpha                112.9880(10)
_cell_angle_beta                 90.2340(10)
_cell_angle_gamma                93.8730(10)
_cell_volume                     460.307
_exptl_crystal_colour            yellow
_exptl_crystal_description       plate
_cell_formula_units_Z            2
_exptl_crystal_recrystallization_method 'acetone/petroleum ether'
loop_
_atom_site_label
_atom_site_type_symbol
_atom_site_fract_x
_atom_site_fract_y
_atom_site_fract_z
O1 O 0.19469(16) 0.53037(17) 0.87871(16)
O2 O 0.6197(2) 1.09931(18) 1.34611(17)
O3 O 0.1468(2) 0.2933(2) 0.63843(19)
C1 C 0.3087(2) 0.6718(2) 0.9894(2)
C2 C 0.2327(3) 0.7819(3) 1.1396(2)
H1 H 0.1101 0.7603 1.1617
C3 C 0.3402(3) 0.9229(3) 1.2551(2)
H2 H 0.2901 0.9974 1.3559
C4 C 0.5250(3) 0.9555(2) 1.2222(2)
C5 C 0.5999(2) 0.8469(2) 1.0726(2)
H3 H 0.7225 0.8696 1.0510
C6 C 0.4917(2) 0.7016(2) 0.9521(2)
C7 C 0.5603(2) 0.5807(2) 0.7919(2)
C8 C 0.4450(2) 0.4441(2) 0.6875(2)
H4 H 0.4895 0.3663 0.5851
C9 C 0.2564(3) 0.4127(2) 0.7264(2)
C10 C 0.8119(3) 1.1270(3) 1.3272(3)
H5 H 0.8624 1.2287 1.4242
H6 H 0.8317 1.1495 1.2260
H7 H 0.8718 1.0217 1.3187
C11 C 0.7558(3) 0.6091(3) 0.7459(3)
H8 H 0.7824 0.5119 0.6419
H9 H 0.8387 0.6128 0.8352
H10 H 0.7713 0.7209 0.7311
loop_
_geom_bond_atom_site_label_1
_geom_bond_atom_site_label_2
_geom_bond_site_symmetry_1
_geom_bond_site_symmetry_2
O1 C1 1_555 1_555
O2 C4 1_555 1_555
O3 C9 1_555 1_555
C1 C2 1_555 1_555
C2 H1 1_555 1_555
C3 C2 1_555 1_555
H2 C3 1_555 1_555
C4 C3 1_555 1_555
C5 C4 1_555 1_555
H3 C5 1_555 1_555
C6 C1 1_555 1_555
C7 C6 1_555 1_555
C8 C7 1_555 1_555
H4 C8 1_555 1_555
C9 O1 1_555 1_555
C10 O2 1_555 1_555
H5 C10 1_555 1_555
H6 C10 1_555 1_555
H7 C10 1_555 1_555
C11 C7 1_555 1_555
H8 C11 1_555 1_555
H9 C11 1_555 1_555
H10 C11 1_555 1_555
C5 C6 1_555 1_555
C8 C9 1_555 1_555

#END
