
#######################################################################
#
#                 Cambridge Crystallographic Data Centre
#                                CCDC 
#
#######################################################################
#
# If this CIF has been generated from an entry in the Cambridge 
# Structural Database, then it will include bibliographic, chemical, 
# crystal, experimental, refinement or atomic coordinate data resulting 
# from the CCDC's data processing and validation procedures.
#
#######################################################################

data_QAKJOD
_chemical_formula_moiety         'C12 H12 O3'
_chemical_name_systematic        
1-(3-Methoxy-4-(prop-2-yn-1-yloxy)phenyl)ethanone
_symmetry_cell_setting           monoclinic
_symmetry_space_group_name_H-M   'P 21/c'
_symmetry_Int_Tables_number      14
_space_group_name_Hall           '-P 2ybc'
loop_
_symmetry_equiv_pos_site_id
_symmetry_equiv_pos_as_xyz
1 x,y,z
2 -x,1/2+y,1/2-z
3 -x,-y,-z
4 x,1/2-y,1/2+z
_cell_length_a                   12.152(2)
_cell_length_b                   8.9870(18)
_cell_length_c                   10.179(2)
_cell_angle_alpha                90
_cell_angle_beta                 103.86(3)
_cell_angle_gamma                90
_cell_volume                     1079.28
_exptl_crystal_colour            colorless
_exptl_crystal_description       block
_cell_formula_units_Z            4
_exptl_crystal_recrystallization_method 'ethyl acetate'
loop_
_atom_site_label
_atom_site_type_symbol
_atom_site_fract_x
_atom_site_fract_y
_atom_site_fract_z
O1 O 0.02729(15) -0.0061(2) 0.20836(17)
C1 C 0.29554(18) 0.1655(3) 0.3643(2)
H1 H 0.3039 0.2296 0.2956
O2 O 0.26138(12) -0.10284(18) 0.68203(14)
C2 C 0.37931(19) 0.1593(3) 0.4840(2)
H2 H 0.4444 0.2170 0.4943
O3 O 0.44025(13) 0.05304(19) 0.71063(15)
C3 C 0.36568(17) 0.0674(2) 0.5876(2)
C4 C 0.26800(18) -0.0201(2) 0.5718(2)
C5 C 0.18711(18) -0.0157(2) 0.4518(2)
H3 H 0.1230 -0.0754 0.4405
C6 C 0.19980(18) 0.0773(2) 0.3462(2)
C7 C 0.1073(2) 0.0778(3) 0.2195(2)
C8 C 0.1143(2) 0.1817(4) 0.1077(3)
H4 H 0.0491 0.1684 0.0338
H5 H 0.1818 0.1612 0.0775
H6 H 0.1164 0.2824 0.1397
C9 C 0.1630(2) -0.1939(3) 0.6694(3)
H7 H 0.1675 -0.2465 0.7526
H8 H 0.1590 -0.2640 0.5973
H9 H 0.0965 -0.1323 0.6498
C10 C 0.54011(18) 0.1439(3) 0.7385(2)
H10 H 0.5201 0.2485 0.7291
H11 H 0.5873 0.1203 0.6768
C11 C 0.59931(19) 0.1100(3) 0.8775(3)
C12 C 0.6418(3) 0.0809(4) 0.9899(3)
H12 H 0.669(3) 0.067(4) 1.079(4)
loop_
_geom_bond_atom_site_label_1
_geom_bond_atom_site_label_2
_geom_bond_site_symmetry_1
_geom_bond_site_symmetry_2
O1 C7 1_555 1_555
C1 H1 1_555 1_555
O2 C4 1_555 1_555
C2 C1 1_555 1_555
H2 C2 1_555 1_555
O3 C3 1_555 1_555
C3 C2 1_555 1_555
C4 C3 1_555 1_555
C5 C4 1_555 1_555
H3 C5 1_555 1_555
C6 C1 1_555 1_555
C7 C6 1_555 1_555
C8 C7 1_555 1_555
H4 C8 1_555 1_555
H5 C8 1_555 1_555
H6 C8 1_555 1_555
C9 O2 1_555 1_555
H7 C9 1_555 1_555
H8 C9 1_555 1_555
H9 C9 1_555 1_555
C10 O3 1_555 1_555
H10 C10 1_555 1_555
H11 C10 1_555 1_555
C11 C10 1_555 1_555
C12 C11 1_555 1_555
H12 C12 1_555 1_555
C5 C6 1_555 1_555

#END
