
#######################################################################
#
#                 Cambridge Crystallographic Data Centre
#                                CCDC 
#
#######################################################################
#
# If this CIF has been generated from an entry in the Cambridge 
# Structural Database, then it will include bibliographic, chemical, 
# crystal, experimental, refinement or atomic coordinate data resulting 
# from the CCDC's data processing and validation procedures.
#
#######################################################################

data_QAKMEX
_chemical_formula_moiety         'C16 H14 N1 1+,Br1 1-'
_chemical_name_systematic        '5-cyclopropylphenanthridinium bromide'
_symmetry_cell_setting           monoclinic
_symmetry_space_group_name_H-M   'C 2/c'
_symmetry_Int_Tables_number      15
_space_group_name_Hall           '-C 2yn'
loop_
_symmetry_equiv_pos_site_id
_symmetry_equiv_pos_as_xyz
1 x,y,z
2 -x,y,1/2-z
3 1/2+x,1/2+y,z
4 1/2-x,1/2+y,1/2-z
5 -x,-y,-z
6 x,-y,1/2+z
7 1/2-x,1/2-y,-z
8 1/2+x,1/2-y,1/2+z
_cell_length_a                   16.1198(13)
_cell_length_b                   12.3819(10)
_cell_length_c                   15.1359(12)
_cell_angle_alpha                90
_cell_angle_beta                 116.573(2)
_cell_angle_gamma                90
_cell_volume                     2701.9
_exptl_crystal_colour            colorless
_cell_formula_units_Z            8
loop_
_atom_site_label
_atom_site_type_symbol
_atom_site_fract_x
_atom_site_fract_y
_atom_site_fract_z
Br1 Br 0.71928(3) 0.40504(3) 0.36595(3)
N1 N 0.19507(15) 0.52609(18) 0.36868(16)
C1 C 0.3704(2) 0.5147(3) 0.4452(3)
H1 H 0.4177 0.4726 0.4379
H2 H 0.3703 0.5085 0.5090
C2 C 0.2801(2) 0.5281(3) 0.3573(2)
H3 H 0.2757 0.4944 0.2968
C3 C 0.15500(19) 0.4254(2) 0.3715(2)
C4 C 0.0708(2) 0.4225(2) 0.37723(19)
C5 C 0.02510(19) 0.5227(2) 0.37825(19)
C6 C -0.0612(2) 0.5285(3) 0.3791(2)
H4 H -0.0916 0.4655 0.3812
C7 C -0.1009(2) 0.6268(3) 0.3768(2)
H5 H -0.1581 0.6297 0.3781
C8 C -0.0574(2) 0.7230(3) 0.3726(2)
H6 H -0.0865 0.7890 0.3689
C9 C 0.0334(2) 0.3211(2) 0.3798(2)
H7 H -0.0220 0.3174 0.3846
C10 C 0.0762(2) 0.2283(3) 0.3755(2)
H8 H 0.0499 0.1618 0.3768
C11 C 0.1590(2) 0.2326(3) 0.3690(3)
H9 H 0.1882 0.1687 0.3663
C12 C 0.1988(2) 0.3299(3) 0.3664(2)
H10 H 0.2542 0.3321 0.3614
C13 C 0.3447(2) 0.6212(3) 0.3939(3)
H11 H 0.3289 0.6794 0.4265
H12 H 0.3762 0.6435 0.3553
C14 C 0.1543(2) 0.6161(2) 0.3720(2)
H13 H 0.1832 0.6810 0.3717
C15 C 0.0692(2) 0.6198(2) 0.3760(2)
C16 C 0.0275(2) 0.7199(3) 0.3741(2)
H14 H 0.0578 0.7837 0.3737
loop_
_geom_bond_atom_site_label_1
_geom_bond_atom_site_label_2
_geom_bond_site_symmetry_1
_geom_bond_site_symmetry_2
N1 C2 1_555 1_555
C1 H1 1_555 1_555
H2 C1 1_555 1_555
C2 C1 1_555 1_555
H3 C2 1_555 1_555
C3 N1 1_555 1_555
C4 C3 1_555 1_555
C5 C4 1_555 1_555
C6 C5 1_555 1_555
H4 C6 1_555 1_555
C7 C6 1_555 1_555
H5 C7 1_555 1_555
C8 C7 1_555 1_555
H6 C8 1_555 1_555
C9 C4 1_555 1_555
H7 C9 1_555 1_555
C10 C9 1_555 1_555
H8 C10 1_555 1_555
C11 C10 1_555 1_555
H9 C11 1_555 1_555
C12 C3 1_555 1_555
H10 C12 1_555 1_555
C13 C1 1_555 1_555
H11 C13 1_555 1_555
H12 C13 1_555 1_555
C14 N1 1_555 1_555
H13 C14 1_555 1_555
C15 C5 1_555 1_555
C16 C8 1_555 1_555
H14 C16 1_555 1_555
C2 C13 1_555 1_555
C11 C12 1_555 1_555
C14 C15 1_555 1_555
C15 C16 1_555 1_555

#END
