
#######################################################################
#
#                 Cambridge Crystallographic Data Centre
#                                CCDC 
#
#######################################################################
#
# If this CIF has been generated from an entry in the Cambridge 
# Structural Database, then it will include bibliographic, chemical, 
# crystal, experimental, refinement or atomic coordinate data resulting 
# from the CCDC's data processing and validation procedures.
#
#######################################################################

data_QAKPUN01
_chemical_name_common            (o-Methoxyphenyl)diphenylphosphine
_chemical_formula_moiety         'C19 H17 O1 P1'
_chemical_name_systematic        (2-Methoxyphenyl)diphenylphosphine
_symmetry_cell_setting           monoclinic
_symmetry_space_group_name_H-M   'C 2/c'
_symmetry_Int_Tables_number      15
_space_group_name_Hall           '-C 2yn'
loop_
_symmetry_equiv_pos_site_id
_symmetry_equiv_pos_as_xyz
1 x,y,z
2 -x,y,1/2-z
3 1/2+x,1/2+y,z
4 1/2-x,1/2+y,1/2-z
5 -x,-y,-z
6 x,-y,1/2+z
7 1/2-x,1/2-y,-z
8 1/2+x,1/2-y,1/2+z
_cell_length_a                   31.1813(8)
_cell_length_b                   7.1474(2)
_cell_length_c                   28.3025(8)
_cell_angle_alpha                90
_cell_angle_beta                 90.3795(12)
_cell_angle_gamma                90
_cell_volume                     6307.5
_exptl_crystal_colour            colorless
_exptl_crystal_description       needle
_cell_formula_units_Z            16
_exptl_crystal_recrystallization_method ethanol
loop_
_atom_site_label
_atom_site_type_symbol
_atom_site_fract_x
_atom_site_fract_y
_atom_site_fract_z
P1 P 0.922433(11) 0.68949(6) 0.081792(13)
O1 O 0.98898(3) 0.42835(19) 0.06278(4)
C1 C 0.89016(4) 0.5270(2) 0.04611(5)
C2 C 0.87439(4) 0.5889(2) 0.00231(5)
H1 H 0.8805 0.7097 -0.0078
C3 C 0.84983(5) 0.4716(3) -0.02601(5)
H2 H 0.8393 0.5148 -0.0548
C4 C 0.84080(5) 0.2902(3) -0.01165(5)
H3 H 0.8245 0.2116 -0.0309
C5 C 0.85617(5) 0.2268(2) 0.03158(5)
H4 H 0.8501 0.1057 0.0415
C6 C 0.88069(4) 0.3442(2) 0.06009(5)
H5 H 0.8910 0.3004 0.0890
C7 C 0.88118(4) 0.8042(2) 0.11748(5)
C8 C 0.83846(5) 0.7462(2) 0.11895(5)
H6 H 0.8300 0.6403 0.1023
C9 C 0.80846(5) 0.8451(2) 0.14506(6)
H7 H 0.7800 0.8065 0.1452
C10 C 0.82081(5) 1.0009(2) 0.17091(6)
H8 H 0.8008 1.0657 0.1888
C11 C 0.86316(6) 1.0596(2) 0.17001(6)
H9 H 0.8716 1.1638 0.1874
C12 C 0.89293(5) 0.9637(2) 0.14327(5)
H10 H 0.9211 1.0057 0.1424
C13 C 0.94579(4) 0.5263(2) 0.12501(5)
C14 C 0.93348(5) 0.5143(2) 0.17235(5)
H11 H 0.9118 0.5918 0.1835
C15 C 0.95316(5) 0.3878(2) 0.20307(5)
H12 H 0.9447 0.3811 0.2345
C16 C 0.98528(5) 0.2724(2) 0.18670(6)
H13 H 0.9984 0.1881 0.2072
C17 C 0.99830(5) 0.2808(2) 0.13978(6)
H14 H 1.0199 0.2024 0.1289
C18 C 0.97864(4) 0.4080(2) 0.10933(5)
C19 C 1.01988(7) 0.3008(4) 0.04412(7)
H15 H 1.0236 0.3246 0.0110
H16 H 1.0100 0.1748 0.0485
H17 H 1.0468 0.3175 0.0603
P2 P 0.63959(15) 0.6772(5) 0.13064(12)
O2 O 0.58298(5) 0.4273(3) 0.08223(7)
C20 C 0.6620(3) 0.7991(12) 0.1822(3)
C21 C 0.6393(3) 0.9541(11) 0.1994(3)
H18 H 0.6142 0.9922 0.1844
C22 C 0.6543(3) 1.0510(12) 0.2388(3)
H19 H 0.6386 1.1506 0.2508
C23 C 0.6923(2) 0.9991(11) 0.2598(3)
H20 H 0.7029 1.0674 0.2853
C24 C 0.7149(3) 0.8462(12) 0.2434(3)
H21 H 0.7404 0.8115 0.2583
C25 C 0.7000(3) 0.7437(12) 0.2049(3)
H22 H 0.7151 0.6396 0.1943
C26 C 0.68283(18) 0.5167(9) 0.1152(3)
C27 C 0.68720(17) 0.3390(7) 0.1351(2)
H23 H 0.6667 0.2953 0.1562
C28 C 0.7221(2) 0.2265(10) 0.1235(3)
H24 H 0.7247 0.1077 0.1366
C29 C 0.7534(2) 0.2906(9) 0.0922(3)
H25 H 0.7765 0.2152 0.0844
C30 C 0.7493(2) 0.4669(8) 0.0733(3)
H26 H 0.7703 0.5117 0.0530
C31 C 0.71416(17) 0.5798(9) 0.0841(3)
H27 H 0.7116 0.6977 0.0705
C32 C 0.60176(18) 0.5166(9) 0.16012(18)
C33 C 0.5956(2) 0.4999(9) 0.20859(17)
H28 H 0.6130 0.5685 0.2291
C34 C 0.56431(18) 0.3837(8) 0.22724(15)
H29 H 0.5598 0.3795 0.2597
C35 C 0.54009(16) 0.2750(8) 0.19734(18)
H30 H 0.5197 0.1945 0.2099
C36 C 0.54545(16) 0.2829(8) 0.14911(18)
H31 H 0.5290 0.2073 0.1293
C37 C 0.5757(2) 0.4047(11) 0.13005(18)
C38 C 0.55769(8) 0.3189(5) 0.04961(13)
H32 H 0.5654 0.3508 0.0178
H33 H 0.5278 0.3453 0.0543
H34 H 0.5629 0.1882 0.0549
C39? C 0.5388(5) 0.270(2) 0.1800(3)
C40? C 0.5496(5) 0.286(3) 0.1329(3)
C41? C 0.5818(6) 0.404(3) 0.1183(4)
C42? C 0.6904(5) 0.507(3) 0.1199(8)
C43? C 0.6915(6) 0.321(3) 0.1361(9)
C44? C 0.7225(6) 0.196(3) 0.1247(8)
C45? C 0.7535(7) 0.254(3) 0.0939(9)
C46? C 0.7538(6) 0.428(2) 0.0736(6)
C47? C 0.7232(5) 0.559(2) 0.0877(6)
C48? C 0.74898(19) 0.7931(10) 0.0343(2)
C49? C 0.6668(8) 0.781(3) 0.1856(8)
C50? C 0.6454(9) 0.937(4) 0.2032(10)
C51? C 0.6608(8) 1.040(4) 0.2415(10)
C52? C 0.6969(6) 0.985(3) 0.2652(7)
C53? C 0.7207(7) 0.839(3) 0.2466(8)
C54? C 0.7054(9) 0.741(4) 0.2080(11)
C55? C 0.6038(7) 0.515(3) 0.1504(5)
C56? C 0.5923(5) 0.512(2) 0.1981(4)
C57? C 0.5611(6) 0.381(3) 0.2131(3)
H35? H 0.5174 0.1875 0.1895
H36? H 0.5348 0.2158 0.1105
H37? H 0.5888 0.4101 0.0864
H38? H 0.6696 0.2816 0.1560
H39? H 0.7226 0.0753 0.1372
H40? H 0.7755 0.1715 0.0863
H41? H 0.7740 0.4585 0.0509
H42? H 0.7445 0.7082 0.0085
H43? H 0.7784 0.7868 0.0446
H44? H 0.7424 0.9182 0.0243
H45? H 0.6199 0.9740 0.1888
H46? H 0.6463 1.1472 0.2509
H47? H 0.7053 1.0434 0.2931
H48? H 0.7469 0.8069 0.2602
H49? H 0.7220 0.6432 0.1963
H50? H 0.6050 0.5937 0.2195
H51? H 0.5552 0.3687 0.2451
O3? O 0.72148(13) 0.7423(6) 0.07269(15)
P3? P 0.6453(5) 0.6726(14) 0.1308(4)
loop_
_geom_bond_atom_site_label_1
_geom_bond_atom_site_label_2
_geom_bond_site_symmetry_1
_geom_bond_site_symmetry_2
P1 C1 1_555 1_555
O1 C18 1_555 1_555
C1 C2 1_555 1_555
C2 H1 1_555 1_555
C3 C2 1_555 1_555
H2 C3 1_555 1_555
C4 C3 1_555 1_555
H3 C4 1_555 1_555
C5 C4 1_555 1_555
H4 C5 1_555 1_555
C6 C1 1_555 1_555
H5 C6 1_555 1_555
C7 P1 1_555 1_555
C8 C7 1_555 1_555
H6 C8 1_555 1_555
C9 C8 1_555 1_555
H7 C9 1_555 1_555
C10 C9 1_555 1_555
H8 C10 1_555 1_555
C11 C10 1_555 1_555
H9 C11 1_555 1_555
C12 C7 1_555 1_555
H10 C12 1_555 1_555
C13 P1 1_555 1_555
C14 C13 1_555 1_555
H11 C14 1_555 1_555
C15 C14 1_555 1_555
H12 C15 1_555 1_555
C16 C15 1_555 1_555
H13 C16 1_555 1_555
C17 C16 1_555 1_555
H14 C17 1_555 1_555
C18 C13 1_555 1_555
C19 O1 1_555 1_555
H15 C19 1_555 1_555
H16 C19 1_555 1_555
H17 C19 1_555 1_555
P2 C20 1_555 1_555
O2 C37 1_555 1_555
C20 C21 1_555 1_555
C21 H18 1_555 1_555
C22 C21 1_555 1_555
H19 C22 1_555 1_555
C23 C22 1_555 1_555
H20 C23 1_555 1_555
C24 C23 1_555 1_555
H21 C24 1_555 1_555
C25 C20 1_555 1_555
H22 C25 1_555 1_555
C26 P2 1_555 1_555
C27 C26 1_555 1_555
H23 C27 1_555 1_555
C28 C27 1_555 1_555
H24 C28 1_555 1_555
C29 C28 1_555 1_555
H25 C29 1_555 1_555
C30 C29 1_555 1_555
H26 C30 1_555 1_555
C31 C26 1_555 1_555
H27 C31 1_555 1_555
C32 P2 1_555 1_555
C33 C32 1_555 1_555
H28 C33 1_555 1_555
C34 C33 1_555 1_555
H29 C34 1_555 1_555
C35 C34 1_555 1_555
H30 C35 1_555 1_555
C36 C35 1_555 1_555
H31 C36 1_555 1_555
C37 C32 1_555 1_555
C38 O2 1_555 1_555
H32 C38 1_555 1_555
H33 C38 1_555 1_555
H34 C38 1_555 1_555
C5 C6 1_555 1_555
C11 C12 1_555 1_555
C17 C18 1_555 1_555
C24 C25 1_555 1_555
C30 C31 1_555 1_555
C36 C37 1_555 1_555

#END
