
#######################################################################
#
#                 Cambridge Crystallographic Data Centre
#                                CCDC 
#
#######################################################################
#
# If this CIF has been generated from an entry in the Cambridge 
# Structural Database, then it will include bibliographic, chemical, 
# crystal, experimental, refinement or atomic coordinate data resulting 
# from the CCDC's data processing and validation procedures.
#
#######################################################################

data_QAKREB
_chemical_name_common            N-(Oxo(phenyl)acetyl)benzamide
_chemical_formula_moiety         'C15 H11 N1 O3'
_chemical_name_systematic        N-(2-Oxo-2-phenylacetyl)benzamide
_symmetry_cell_setting           monoclinic
_symmetry_space_group_name_H-M   'P 21/c'
_symmetry_Int_Tables_number      14
_space_group_name_Hall           '-P 2ybc'
loop_
_symmetry_equiv_pos_site_id
_symmetry_equiv_pos_as_xyz
1 x,y,z
2 -x,1/2+y,1/2-z
3 -x,-y,-z
4 x,1/2-y,1/2+z
_cell_length_a                   5.72150(10)
_cell_length_b                   10.72410(10)
_cell_length_c                   20.6710(3)
_cell_angle_alpha                90
_cell_angle_beta                 98.2550(10)
_cell_angle_gamma                90
_cell_volume                     1255.19
_exptl_crystal_colour            colorless
_exptl_crystal_description       block
_cell_formula_units_Z            4
loop_
_atom_site_label
_atom_site_type_symbol
_atom_site_fract_x
_atom_site_fract_y
_atom_site_fract_z
O1 O 0.09882(19) 0.34229(9) 0.84139(5)
O2 O 0.55891(18) 0.43948(9) 0.92521(5)
O3 O 0.15170(19) 0.15978(8) 0.95510(5)
N1 N 0.2998(2) 0.34922(9) 0.98421(5)
C1 C 0.3026(3) 0.14025(14) 0.78023(7)
H1 H 0.1544 0.1668 0.7607
C2 C 0.4136(4) 0.04282(16) 0.75346(8)
H2 H 0.3393 0.0029 0.7161
C3 C 0.6340(3) 0.00455(15) 0.78184(8)
H3 H 0.7078 -0.0613 0.7636
C4 C 0.7464(3) 0.06306(15) 0.83711(9)
H4 H 0.8964 0.0375 0.8557
C5 C 0.6352(3) 0.15980(13) 0.86475(7)
H5 H 0.7098 0.1988 0.9023
C6 C 0.4132(2) 0.19867(11) 0.83662(6)
C7 C 0.2867(2) 0.29847(11) 0.86611(6)
C8 C 0.4020(2) 0.36431(10) 0.92888(6)
C9 C 0.1548(2) 0.24758(10) 0.99227(6)
C10 C 0.0059(2) 0.25238(10) 1.04531(6)
C11 C -0.0018(3) 0.35326(11) 1.08721(6)
H6 H 0.0917 0.4230 1.0833
C12 C -0.1486(3) 0.34962(13) 1.13475(7)
H7 H -0.1524 0.4168 1.1630
C13 C -0.2892(3) 0.24711(14) 1.14054(8)
H8 H -0.3876 0.2453 1.1727
C14 C -0.2843(3) 0.14727(14) 1.09876(9)
H9 H -0.3802 0.0784 1.1024
C15 C -0.1369(3) 0.14978(12) 1.05150(7)
H10 H -0.1332 0.0821 1.0235
H11 H 0.337(3) 0.4056(15) 1.0148(8)
loop_
_geom_bond_atom_site_label_1
_geom_bond_atom_site_label_2
_geom_bond_site_symmetry_1
_geom_bond_site_symmetry_2
O1 C7 1_555 1_555
O2 C8 1_555 1_555
O3 C9 1_555 1_555
N1 C8 1_555 1_555
C1 H1 1_555 1_555
C2 C1 1_555 1_555
H2 C2 1_555 1_555
C3 C2 1_555 1_555
H3 C3 1_555 1_555
C4 C3 1_555 1_555
H4 C4 1_555 1_555
C5 C4 1_555 1_555
H5 C5 1_555 1_555
C6 C1 1_555 1_555
C7 C6 1_555 1_555
C8 C7 1_555 1_555
C9 N1 1_555 1_555
C10 C9 1_555 1_555
C11 C10 1_555 1_555
H6 C11 1_555 1_555
C12 C11 1_555 1_555
H7 C12 1_555 1_555
C13 C12 1_555 1_555
H8 C13 1_555 1_555
C14 C13 1_555 1_555
H9 C14 1_555 1_555
C15 C10 1_555 1_555
H10 C15 1_555 1_555
H11 N1 1_555 1_555
C5 C6 1_555 1_555
C14 C15 1_555 1_555

#END
