
#######################################################################
#
#                 Cambridge Crystallographic Data Centre
#                                CCDC 
#
#######################################################################
#
# If this CIF has been generated from an entry in the Cambridge 
# Structural Database, then it will include bibliographic, chemical, 
# crystal, experimental, refinement or atomic coordinate data resulting 
# from the CCDC's data processing and validation procedures.
#
#######################################################################

data_QAKTED01
_chemical_formula_moiety         'C16 H21 N2 O1 1+,Cl1 1-'
_chemical_name_systematic        
'4-[(Adamantan-1-yl)carbamoyl]pyridinium chloride'
_symmetry_cell_setting           monoclinic
_symmetry_space_group_name_H-M   'P 21/n'
_symmetry_Int_Tables_number      14
_space_group_name_Hall           '-P 2yn'
loop_
_symmetry_equiv_pos_site_id
_symmetry_equiv_pos_as_xyz
1 x,y,z
2 1/2-x,1/2+y,1/2-z
3 -x,-y,-z
4 1/2+x,1/2-y,1/2+z
_cell_length_a                   7.072(4)
_cell_length_b                   22.691(13)
_cell_length_c                   8.905(6)
_cell_angle_alpha                90
_cell_angle_beta                 91.703(7)
_cell_angle_gamma                90
_cell_volume                     1428.36
_exptl_crystal_colour            colorless
_exptl_crystal_description       block
_cell_formula_units_Z            4
loop_
_atom_site_label
_atom_site_type_symbol
_atom_site_fract_x
_atom_site_fract_y
_atom_site_fract_z
N1 N 0.4961(2) 0.11853(7) 0.77561(19)
H1 H 0.6014 0.1044 0.7457
O1 O 0.3053(2) 0.12500(7) 0.97887(17)
N2 N 0.8767(2) 0.03797(7) 1.21603(19)
H2 H 0.9604 0.0230 1.2768
C1 C 0.8026(3) 0.08813(9) 0.9896(2)
H3 H 0.8425 0.1069 0.9006
C2 C 0.4853(3) 0.15358(9) 0.5188(2)
H4 H 0.5154 0.1135 0.4830
H5 H 0.6058 0.1748 0.5389
C3 C 0.3246(3) 0.24905(9) 0.4539(2)
H6 H 0.4446 0.2706 0.4735
H7 H 0.2500 0.2709 0.3762
C4 C 0.4548(3) 0.11078(9) 0.9207(2)
C5 C 0.3740(3) 0.14958(8) 0.6638(2)
C6 C 0.6104(3) 0.08371(8) 1.0195(2)
C7 C 0.5567(3) 0.05623(9) 1.1516(2)
H8 H 0.4267 0.0531 1.1743
C8 C 0.3315(3) 0.21225(8) 0.7186(2)
H9 H 0.2611 0.2103 0.8129
H10 H 0.4515 0.2336 0.7395
C9 C 0.2134(3) 0.24535(8) 0.5982(2)
H11 H 0.1859 0.2861 0.6346
C10 C 0.9336(3) 0.06493(9) 1.0909(2)
H12 H 1.0648 0.0680 1.0722
C11 C 0.1881(3) 0.11626(8) 0.6305(2)
H13 H 0.1160 0.1126 0.7237
H14 H 0.2160 0.0761 0.5938
C12 C 0.1811(3) 0.15352(9) 0.3664(2)
H15 H 0.2081 0.1133 0.3296
H16 H 0.1052 0.1744 0.2877
C13 C 0.0694(3) 0.14989(9) 0.5109(2)
H17 H -0.0520 0.1284 0.4902
C14 C 0.6932(3) 0.03367(9) 1.2493(2)
H18 H 0.6576 0.0151 1.3398
C15 C 0.0263(3) 0.21217(9) 0.5695(2)
H19 H -0.0534 0.2337 0.4946
H20 H -0.0438 0.2095 0.6639
C16 C 0.3670(3) 0.18655(9) 0.3972(2)
H21 H 0.4396 0.1890 0.3028
Cl1 Cl 0.77720(7) 0.01868(2) 0.63897(5)
loop_
_geom_bond_atom_site_label_1
_geom_bond_atom_site_label_2
_geom_bond_site_symmetry_1
_geom_bond_site_symmetry_2
N1 H1 1_555 1_555
O1 C4 1_555 1_555
N2 H2 1_555 1_555
C1 H3 1_555 1_555
C2 H4 1_555 1_555
H5 C2 1_555 1_555
C3 H6 1_555 1_555
H7 C3 1_555 1_555
C4 N1 1_555 1_555
C5 N1 1_555 1_555
C6 C1 1_555 1_555
C7 C6 1_555 1_555
H8 C7 1_555 1_555
C8 C5 1_555 1_555
H9 C8 1_555 1_555
H10 C8 1_555 1_555
C9 C3 1_555 1_555
H11 C9 1_555 1_555
C10 N2 1_555 1_555
H12 C10 1_555 1_555
C11 C5 1_555 1_555
H13 C11 1_555 1_555
H14 C11 1_555 1_555
C12 H15 1_555 1_555
H16 C12 1_555 1_555
C13 C11 1_555 1_555
H17 C13 1_555 1_555
C14 N2 1_555 1_555
H18 C14 1_555 1_555
C15 C9 1_555 1_555
H19 C15 1_555 1_555
H20 C15 1_555 1_555
C16 C2 1_555 1_555
H21 C16 1_555 1_555
C1 C10 1_555 1_555
C2 C5 1_555 1_555
C3 C16 1_555 1_555
C4 C6 1_555 1_555
C7 C14 1_555 1_555
C8 C9 1_555 1_555
C12 C13 1_555 1_555
C12 C16 1_555 1_555
C13 C15 1_555 1_555

#END
