
#######################################################################
#
#                 Cambridge Crystallographic Data Centre
#                                CCDC 
#
#######################################################################
#
# If this CIF has been generated from an entry in the Cambridge 
# Structural Database, then it will include bibliographic, chemical, 
# crystal, experimental, refinement or atomic coordinate data resulting 
# from the CCDC's data processing and validation procedures.
#
#######################################################################

data_QAKVAA
_chemical_formula_moiety         'C30 H23 N3'
_chemical_name_systematic        
1,1-Diphenyl-1-(10-methylacridin-9-yl)-2,2-dicyanoethane
_symmetry_cell_setting           monoclinic
_symmetry_space_group_name_H-M   'P 21/n'
_symmetry_Int_Tables_number      14
_space_group_name_Hall           '-P 2yn'
loop_
_symmetry_equiv_pos_site_id
_symmetry_equiv_pos_as_xyz
1 x,y,z
2 1/2-x,1/2+y,1/2-z
3 -x,-y,-z
4 1/2+x,1/2-y,1/2+z
_cell_length_a                   11.8806(11)
_cell_length_b                   14.1864(14)
_cell_length_c                   13.6027(13)
_cell_angle_alpha                90
_cell_angle_beta                 97.721(2)
_cell_angle_gamma                90
_cell_volume                     2271.85
_exptl_crystal_colour            colorless
_exptl_crystal_description       prism
_chemical_melting_point          'decomposes above 78 deg.C'
_cell_formula_units_Z            4
_exptl_crystal_preparation       'irradiated product'
loop_
_atom_site_label
_atom_site_type_symbol
_atom_site_fract_x
_atom_site_fract_y
_atom_site_fract_z
N1 N 0.73297(10) 0.24178(8) 0.43174(9)
N2 N 0.60962(11) 0.27863(10) 0.87901(9)
N3 N 0.41949(12) 0.06174(9) 0.72514(11)
C1 C 0.83176(13) 0.09747(11) 0.49101(12)
H1 H 0.8970 0.1174 0.4663
C2 C 0.83004(14) 0.01094(12) 0.53602(13)
H2 H 0.8949 -0.0265 0.5429
C3 C 0.73335(14) -0.02123(10) 0.57120(12)
H3 H 0.7320 -0.0805 0.6002
C4 C 0.63858(12) 0.03619(9) 0.56264(10)
H4 H 0.5727 0.0142 0.5848
C5 C 0.53838(10) 0.19219(8) 0.51952(9)
H5 H 0.4699 0.1532 0.5158
C6 C 0.42565(12) 0.28717(10) 0.38063(10)
H6 H 0.3588 0.2698 0.4045
C7 C 0.42058(14) 0.34801(10) 0.30039(11)
H7 H 0.3513 0.3730 0.2724
C8 C 0.51835(15) 0.37113(11) 0.26251(11)
H8 H 0.5150 0.4112 0.2081
C9 C 0.62122(14) 0.33541(10) 0.30449(10)
H9 H 0.6868 0.3507 0.2776
C10 C 0.73601(11) 0.15602(9) 0.48208(10)
C11 C 0.63912(11) 0.12622(8) 0.52165(9)
C12 C 0.52849(11) 0.25164(8) 0.42610(9)
C13 C 0.62817(11) 0.27639(9) 0.38711(9)
C14 C 0.83721(13) 0.28277(12) 0.40689(13)
H10 H 0.9011 0.2513 0.4435
H11 H 0.8396 0.3485 0.4237
H12 H 0.8400 0.2757 0.3371
C15 C 0.54317(10) 0.25673(8) 0.61716(8)
C16 C 0.57387(10) 0.18957(8) 0.70976(9)
H13 H 0.6442 0.1564 0.7012
C17 C 0.59380(11) 0.24120(9) 0.80455(10)
C18 C 0.48579(12) 0.11791(9) 0.71795(10)
C19 C 0.63648(10) 0.33182(8) 0.61661(9)
C20 C 0.74604(11) 0.31911(10) 0.66458(10)
H14 H 0.7635 0.2648 0.7017
C21 C 0.83015(12) 0.38606(13) 0.65821(12)
H15 H 0.9028 0.3765 0.6916
C22 C 0.80618(14) 0.46630(11) 0.60269(12)
H16 H 0.8624 0.5111 0.5984
C23 C 0.69857(13) 0.47984(9) 0.55358(11)
H17 H 0.6823 0.5336 0.5151
C24 C 0.61420(11) 0.41392(8) 0.56098(9)
H18 H 0.5414 0.4246 0.5283
C25 C 0.42674(10) 0.30044(8) 0.62994(9)
C26 C 0.32405(11) 0.25695(10) 0.59468(10)
H19 H 0.3246 0.2026 0.5566
C27 C 0.22123(12) 0.29287(11) 0.61504(11)
H20 H 0.1537 0.2636 0.5891
C28 C 0.21873(12) 0.37188(11) 0.67364(12)
H21 H 0.1498 0.3957 0.6880
C29 C 0.31890(13) 0.41518(10) 0.71072(11)
H22 H 0.3176 0.4681 0.7509
C30 C 0.42195(11) 0.38067(9) 0.68884(10)
H23 H 0.4889 0.4114 0.7138
loop_
_geom_bond_atom_site_label_1
_geom_bond_atom_site_label_2
_geom_bond_site_symmetry_1
_geom_bond_site_symmetry_2
N1 C10 1_555 1_555
N2 C17 1_555 1_555
N3 C18 1_555 1_555
C1 H1 1_555 1_555
C2 C1 1_555 1_555
H2 C2 1_555 1_555
C3 C2 1_555 1_555
H3 C3 1_555 1_555
C4 C3 1_555 1_555
H4 C4 1_555 1_555
C5 H5 1_555 1_555
C6 H6 1_555 1_555
C7 C6 1_555 1_555
H7 C7 1_555 1_555
C8 C7 1_555 1_555
H8 C8 1_555 1_555
C9 C8 1_555 1_555
H9 C9 1_555 1_555
C10 C1 1_555 1_555
C11 C4 1_555 1_555
C12 C5 1_555 1_555
C13 N1 1_555 1_555
C14 N1 1_555 1_555
H10 C14 1_555 1_555
H11 C14 1_555 1_555
H12 C14 1_555 1_555
C15 C5 1_555 1_555
C16 C15 1_555 1_555
H13 C16 1_555 1_555
C17 C16 1_555 1_555
C18 C16 1_555 1_555
C19 C15 1_555 1_555
C20 C19 1_555 1_555
H14 C20 1_555 1_555
C21 C20 1_555 1_555
H15 C21 1_555 1_555
C22 C21 1_555 1_555
H16 C22 1_555 1_555
C23 C22 1_555 1_555
H17 C23 1_555 1_555
C24 C19 1_555 1_555
H18 C24 1_555 1_555
C25 C15 1_555 1_555
C26 C25 1_555 1_555
H19 C26 1_555 1_555
C27 C26 1_555 1_555
H20 C27 1_555 1_555
C28 C27 1_555 1_555
H21 C28 1_555 1_555
C29 C28 1_555 1_555
H22 C29 1_555 1_555
C30 C25 1_555 1_555
H23 C30 1_555 1_555
C5 C11 1_555 1_555
C6 C12 1_555 1_555
C9 C13 1_555 1_555
C10 C11 1_555 1_555
C12 C13 1_555 1_555
C23 C24 1_555 1_555
C29 C30 1_555 1_555

#END
