
#######################################################################
#
#                 Cambridge Crystallographic Data Centre
#                                CCDC 
#
#######################################################################
#
# If this CIF has been generated from an entry in the Cambridge 
# Structural Database, then it will include bibliographic, chemical, 
# crystal, experimental, refinement or atomic coordinate data resulting 
# from the CCDC's data processing and validation procedures.
#
#######################################################################

data_QAKWUW
_chemical_formula_moiety         'C17 H20 N2 O2 S1'
_chemical_name_systematic        
'Ethyl 2-amino-6-benzyl-4,5,6,7-tetrahydrothieno[2,3-c]pyridine-3-carboxylate'
_symmetry_cell_setting           monoclinic
_symmetry_space_group_name_H-M   'P 21/n'
_symmetry_Int_Tables_number      14
_space_group_name_Hall           '-P 2yn'
loop_
_symmetry_equiv_pos_site_id
_symmetry_equiv_pos_as_xyz
1 x,y,z
2 1/2-x,1/2+y,1/2-z
3 -x,-y,-z
4 1/2+x,1/2-y,1/2+z
_cell_length_a                   12.197(3)
_cell_length_b                   9.936(3)
_cell_length_c                   13.775(4)
_cell_angle_alpha                90
_cell_angle_beta                 103.430(4)
_cell_angle_gamma                90
_cell_volume                     1623.73
_exptl_crystal_colour            yellow
_exptl_crystal_description       block
_cell_formula_units_Z            4
_exptl_crystal_recrystallization_method ethanol
loop_
_atom_site_label
_atom_site_type_symbol
_atom_site_fract_x
_atom_site_fract_y
_atom_site_fract_z
C1 C 0.15299(16) 0.6448(2) 0.47716(17)
H1 H 0.1593 0.6354 0.4115
C2 C 0.14619(18) 0.7720(2) 0.51559(19)
H2 H 0.1477 0.8472 0.4757
C3 C 0.13735(19) 0.7877(2) 0.6113(2)
H3 H 0.1325 0.8734 0.6370
C4 C 0.1356(2) 0.6766(3) 0.67014(19)
H4 H 0.1300 0.6873 0.7359
C5 C 0.14210(18) 0.5487(2) 0.63200(17)
H5 H 0.1408 0.4740 0.6724
C6 C 0.15054(15) 0.5310(2) 0.53451(16)
C7 C 0.15136(17) 0.3930(2) 0.48984(17)
H6 H 0.0800 0.3494 0.4889
H7 H 0.1577 0.4022 0.4212
C8 C 0.23336(17) 0.17339(19) 0.49528(17)
H8 H 0.2476 0.1822 0.4292
H9 H 0.1571 0.1401 0.4878
C9 C 0.31573(15) 0.07232(19) 0.55515(16)
H10 H 0.2875 0.0412 0.6115
H11 H 0.3216 -0.0049 0.5136
C10 C 0.43028(15) 0.13375(19) 0.59228(14)
C11 C 0.44382(15) 0.26693(19) 0.58452(15)
C12 C 0.35245(15) 0.36571(19) 0.54262(17)
H12 H 0.3633 0.4473 0.5824
H13 H 0.3552 0.3890 0.4748
C13 C 0.53359(15) 0.06514(18) 0.64255(14)
C14 C 0.62303(15) 0.15380(19) 0.66948(15)
C15 C 0.54785(16) -0.07575(19) 0.66775(14)
C16 C 0.45439(19) -0.28970(19) 0.65815(19)
H14 H 0.5239 -0.3251 0.6456
H15 H 0.3921 -0.3307 0.6106
C17 C 0.4472(2) -0.3267(2) 0.7607(2)
H16 H 0.4497 -0.4229 0.7676
H17 H 0.3777 -0.2935 0.7730
H18 H 0.5095 -0.2877 0.8080
O1 O 0.63729(11) -0.12830(13) 0.70893(11)
O2 O 0.45118(11) -0.14512(13) 0.64303(12)
S1 S 0.58197(4) 0.31782(5) 0.63602(5)
N1 N 0.24303(12) 0.30618(15) 0.54336(13)
N2 N 0.73186(14) 0.12651(18) 0.71338(16)
H19 H 0.7738(18) 0.1883(17) 0.7340(17)
H20 H 0.7441(19) 0.0488(15) 0.7300(17)
loop_
_geom_bond_atom_site_label_1
_geom_bond_atom_site_label_2
_geom_bond_site_symmetry_1
_geom_bond_site_symmetry_2
C1 H1 1_555 1_555
C2 C1 1_555 1_555
H2 C2 1_555 1_555
C3 C2 1_555 1_555
H3 C3 1_555 1_555
C4 C3 1_555 1_555
H4 C4 1_555 1_555
C5 C4 1_555 1_555
H5 C5 1_555 1_555
C6 C1 1_555 1_555
C7 C6 1_555 1_555
H6 C7 1_555 1_555
H7 C7 1_555 1_555
C8 H8 1_555 1_555
H9 C8 1_555 1_555
C9 C8 1_555 1_555
H10 C9 1_555 1_555
H11 C9 1_555 1_555
C10 C9 1_555 1_555
C11 C10 1_555 1_555
C12 C11 1_555 1_555
H12 C12 1_555 1_555
H13 C12 1_555 1_555
C13 C10 1_555 1_555
C14 C13 1_555 1_555
C15 C13 1_555 1_555
C16 H14 1_555 1_555
H15 C16 1_555 1_555
C17 C16 1_555 1_555
H16 C17 1_555 1_555
H17 C17 1_555 1_555
H18 C17 1_555 1_555
O1 C15 1_555 1_555
O2 C15 1_555 1_555
S1 C11 1_555 1_555
N1 C7 1_555 1_555
N2 C14 1_555 1_555
H19 N2 1_555 1_555
H20 N2 1_555 1_555
C5 C6 1_555 1_555
C8 N1 1_555 1_555
C12 N1 1_555 1_555
C14 S1 1_555 1_555
C16 O2 1_555 1_555

#END
