
#######################################################################
#
#                 Cambridge Crystallographic Data Centre
#                                CCDC 
#
#######################################################################
#
# If this CIF has been generated from an entry in the Cambridge 
# Structural Database, then it will include bibliographic, chemical, 
# crystal, experimental, refinement or atomic coordinate data resulting 
# from the CCDC's data processing and validation procedures.
#
#######################################################################

data_QAKXOQ
_chemical_formula_moiety         'C10 H15 N1 O2'
_chemical_name_systematic        
4-(2,5-Dimethylpyrrolidin-1-yl)furan-2(5H)-one
_symmetry_cell_setting           orthorhombic
_symmetry_space_group_name_H-M   'P 21 21 21'
_symmetry_Int_Tables_number      19
_space_group_name_Hall           'P 2ac 2ab'
loop_
_symmetry_equiv_pos_site_id
_symmetry_equiv_pos_as_xyz
1 x,y,z
2 1/2-x,-y,1/2+z
3 -x,1/2+y,1/2-z
4 1/2+x,1/2-y,-z
_cell_length_a                   8.865(2)
_cell_length_b                   10.514(2)
_cell_length_c                   10.653(2)
_cell_angle_alpha                90
_cell_angle_beta                 90
_cell_angle_gamma                90
_cell_volume                     992.93
_exptl_crystal_colour            colorless
_exptl_crystal_description       plate
_cell_formula_units_Z            4
loop_
_atom_site_label
_atom_site_type_symbol
_atom_site_fract_x
_atom_site_fract_y
_atom_site_fract_z
O1 O -0.1566(3) 0.4507(2) 0.26477(18)
O2 O -0.1235(3) 0.5982(2) 0.11526(19)
N1 N 0.0612(3) 0.55531(19) 0.52967(19)
C1 C -0.0946(4) 0.5630(3) 0.2215(3)
C2 C -0.0026(3) 0.6172(2) 0.3161(2)
H1 H 0.0530 0.6951 0.3082
C3 C -0.0061(3) 0.5410(2) 0.4187(2)
C4 C -0.1065(4) 0.4308(3) 0.3907(2)
H2 H -0.0519 0.3523 0.3973
H3 H -0.1909 0.4285 0.4472
C5 C 0.0599(3) 0.4579(2) 0.6301(2)
H4 H -0.0409 0.4268 0.6424
C6 C 0.1120(4) 0.5354(3) 0.7428(2)
H5 H 0.1579 0.4815 0.8047
H6 H 0.0291 0.5801 0.7803
C7 C 0.2253(4) 0.6282(3) 0.6875(3)
H7 H 0.3213 0.5875 0.6761
H8 H 0.2383 0.7011 0.7406
C8 C 0.1553(3) 0.6660(2) 0.5615(2)
H9 H 0.2338 0.6756 0.5002
C9 C 0.1647(5) 0.3471(3) 0.6001(3)
H10 H 0.1277 0.3020 0.5281
H11 H 0.2634 0.3802 0.5825
H12 H 0.1701 0.2902 0.6705
C10 C 0.0651(4) 0.7871(2) 0.5706(3)
H13 H 0.0242 0.8079 0.4898
H14 H -0.0157 0.7759 0.6296
H15 H 0.1295 0.8549 0.5985
loop_
_geom_bond_atom_site_label_1
_geom_bond_atom_site_label_2
_geom_bond_site_symmetry_1
_geom_bond_site_symmetry_2
O1 C1 1_555 1_555
O2 C1 1_555 1_555
N1 C3 1_555 1_555
C1 C2 1_555 1_555
C2 H1 1_555 1_555
C3 C2 1_555 1_555
C4 O1 1_555 1_555
H2 C4 1_555 1_555
H3 C4 1_555 1_555
C5 N1 1_555 1_555
H4 C5 1_555 1_555
C6 C5 1_555 1_555
H5 C6 1_555 1_555
H6 C6 1_555 1_555
C7 C6 1_555 1_555
H7 C7 1_555 1_555
H8 C7 1_555 1_555
C8 N1 1_555 1_555
H9 C8 1_555 1_555
C9 C5 1_555 1_555
H10 C9 1_555 1_555
H11 C9 1_555 1_555
H12 C9 1_555 1_555
C10 C8 1_555 1_555
H13 C10 1_555 1_555
H14 C10 1_555 1_555
H15 C10 1_555 1_555
C3 C4 1_555 1_555
C7 C8 1_555 1_555

#END
