
#######################################################################
#
#                 Cambridge Crystallographic Data Centre
#                                CCDC 
#
#######################################################################
#
# If this CIF has been generated from an entry in the Cambridge 
# Structural Database, then it will include bibliographic, chemical, 
# crystal, experimental, refinement or atomic coordinate data resulting 
# from the CCDC's data processing and validation procedures.
#
#######################################################################

data_QAKYAD
_chemical_formula_moiety         'C12 H19 N1 O2'
_chemical_name_systematic        
(5R)-4-(2,5-Dimethylpyrrolidin-1-yl)-5-ethylfuran-2(5H)-one
_symmetry_cell_setting           orthorhombic
_symmetry_space_group_name_H-M   'P 21 21 21'
_symmetry_Int_Tables_number      19
_space_group_name_Hall           'P 2ac 2ab'
loop_
_symmetry_equiv_pos_site_id
_symmetry_equiv_pos_as_xyz
1 x,y,z
2 1/2-x,-y,1/2+z
3 -x,1/2+y,1/2-z
4 1/2+x,1/2-y,-z
_cell_length_a                   8.327(2)
_cell_length_b                   10.126(2)
_cell_length_c                   13.888(3)
_cell_angle_alpha                90
_cell_angle_beta                 90
_cell_angle_gamma                90
_cell_volume                     1171.03
_exptl_crystal_colour            colorless
_exptl_crystal_description       plate
_cell_formula_units_Z            4
loop_
_atom_site_label
_atom_site_type_symbol
_atom_site_fract_x
_atom_site_fract_y
_atom_site_fract_z
O1 O -0.4442(3) -0.3003(2) -0.18809(17)
O2 O -0.3479(4) -0.1367(2) -0.0986(3)
N1 N -0.1727(3) -0.5739(2) -0.15820(17)
C1 C -0.3340(4) -0.2489(4) -0.1247(3)
C2 C -0.2169(4) -0.3481(3) -0.1041(2)
H1 H -0.1264 -0.3372 -0.0621
C3 C -0.2522(3) -0.4590(3) -0.15344(19)
C4 C -0.4111(3) -0.4378(3) -0.2037(2)
H2 H -0.4005 -0.4557 -0.2713
C5 C -0.1982(4) -0.6775(3) -0.2316(2)
H3 H -0.3092 -0.7030 -0.2338
C6 C -0.0952(4) -0.7892(3) -0.1926(3)
H4 H -0.1522 -0.8392 -0.1449
H5 H -0.0619 -0.8472 -0.2434
C7 C 0.0461(4) -0.7186(3) -0.1483(3)
H6 H 0.0988 -0.7734 -0.1015
H7 H 0.1223 -0.6945 -0.1971
C8 C -0.0249(3) -0.5970(3) -0.1014(2)
H8 H 0.0470 -0.5236 -0.1085
C9 C -0.1437(5) -0.6326(4) -0.3312(2)
H9 H -0.2115 -0.5619 -0.3527
H10 H -0.1493 -0.7044 -0.3762
H11 H -0.0349 -0.6019 -0.3268
C10 C -0.0643(4) -0.6167(3) 0.0050(2)
H12 H -0.1082 -0.5368 0.0313
H13 H 0.0316 -0.6399 0.0395
H14 H -0.1415 -0.6866 0.0111
C11 C -0.5493(4) -0.5182(3) -0.1628(2)
H15 H -0.6462 -0.4938 -0.1958
H16 H -0.5303 -0.6101 -0.1754
C12 C -0.5747(4) -0.4994(4) -0.0566(3)
H17 H -0.6638 -0.5526 -0.0361
H18 H -0.5970 -0.4082 -0.0432
H19 H -0.4797 -0.5259 -0.0226
loop_
_geom_bond_atom_site_label_1
_geom_bond_atom_site_label_2
_geom_bond_site_symmetry_1
_geom_bond_site_symmetry_2
O1 C1 1_555 1_555
O2 C1 1_555 1_555
N1 C3 1_555 1_555
C1 C2 1_555 1_555
C2 H1 1_555 1_555
C3 C2 1_555 1_555
C4 O1 1_555 1_555
H2 C4 1_555 1_555
C5 N1 1_555 1_555
H3 C5 1_555 1_555
C6 C5 1_555 1_555
H4 C6 1_555 1_555
H5 C6 1_555 1_555
C7 C6 1_555 1_555
H6 C7 1_555 1_555
H7 C7 1_555 1_555
C8 N1 1_555 1_555
H8 C8 1_555 1_555
C9 C5 1_555 1_555
H9 C9 1_555 1_555
H10 C9 1_555 1_555
H11 C9 1_555 1_555
C10 C8 1_555 1_555
H12 C10 1_555 1_555
H13 C10 1_555 1_555
H14 C10 1_555 1_555
C11 C4 1_555 1_555
H15 C11 1_555 1_555
H16 C11 1_555 1_555
C12 C11 1_555 1_555
H17 C12 1_555 1_555
H18 C12 1_555 1_555
H19 C12 1_555 1_555
C3 C4 1_555 1_555
C7 C8 1_555 1_555

#END
