
#######################################################################
#
#                 Cambridge Crystallographic Data Centre
#                                CCDC 
#
#######################################################################
#
# If this CIF has been generated from an entry in the Cambridge 
# Structural Database, then it will include bibliographic, chemical, 
# crystal, experimental, refinement or atomic coordinate data resulting 
# from the CCDC's data processing and validation procedures.
#
#######################################################################

data_QALBOW
_chemical_formula_moiety         'C25 H20 N2 O1'
_chemical_name_systematic        
1-(5-(9-anthryl)-3-phenyl-4,5-dihydro-1H-pyrazol-1-yl)ethanone
_symmetry_cell_setting           monoclinic
_symmetry_space_group_name_H-M   'P 21/n'
_symmetry_Int_Tables_number      14
_space_group_name_Hall           '-P 2yn'
loop_
_symmetry_equiv_pos_site_id
_symmetry_equiv_pos_as_xyz
1 x,y,z
2 1/2-x,1/2+y,1/2-z
3 -x,-y,-z
4 1/2+x,1/2-y,1/2+z
_cell_length_a                   8.7102(17)
_cell_length_b                   16.251(3)
_cell_length_c                   13.309(3)
_cell_angle_alpha                90
_cell_angle_beta                 91.49(3)
_cell_angle_gamma                90
_cell_volume                     1883.24
_exptl_crystal_colour            yellow
_exptl_crystal_description       block
_cell_formula_units_Z            4
loop_
_atom_site_label
_atom_site_type_symbol
_atom_site_fract_x
_atom_site_fract_y
_atom_site_fract_z
N1 N 0.4492(2) 0.69151(12) 0.36622(16)
N2 N 0.4001(2) 0.61021(12) 0.36062(16)
O1 O 0.5886(2) 0.79431(13) 0.30449(17)
C1 C 0.1365(3) 0.76484(17) 0.35515(19)
H1 H 0.1765 0.7119 0.3520
C2 C 0.0037(3) 0.78223(18) 0.30343(19)
H2 H -0.0474 0.7406 0.2682
C3 C -0.0573(3) 0.86234(18) 0.3024(2)
H3 H -0.1465 0.8740 0.2653
C4 C 0.0144(3) 0.92193(17) 0.35558(19)
H4 H -0.0245 0.9752 0.3528
C5 C 0.1481(3) 0.90571(15) 0.41604(19)
C6 C 0.2101(3) 0.96556(16) 0.47959(19)
H5 H 0.1674 1.0180 0.4788
C7 C 0.3337(3) 0.94940(15) 0.54413(19)
C8 C 0.3868(3) 1.00942(16) 0.6146(2)
H6 H 0.3380 1.0603 0.6168
C9 C 0.5058(4) 0.99439(18) 0.6782(2)
H7 H 0.5372 1.0339 0.7249
C10 C 0.5831(3) 0.91788(18) 0.67331(19)
H8 H 0.6663 0.9076 0.7167
C11 C 0.5375(3) 0.85926(17) 0.60629(19)
H9 H 0.5917 0.8100 0.6041
C12 C 0.4088(3) 0.87087(15) 0.53899(18)
C13 C 0.3515(3) 0.81000(15) 0.47169(18)
C14 C 0.2165(3) 0.82539(15) 0.41421(18)
C15 C 0.4337(3) 0.72775(15) 0.46727(19)
H10 H 0.5368 0.7347 0.4972
C16 C 0.3539(3) 0.65722(15) 0.52291(19)
H11 H 0.4134 0.6405 0.5821
H12 H 0.2518 0.6733 0.5429
C17 C 0.3464(3) 0.58952(15) 0.4462(2)
C18 C 0.5338(3) 0.72582(18) 0.2927(2)
C19 C 0.5526(4) 0.67627(19) 0.1987(2)
H13 H 0.5996 0.7097 0.1486
H14 H 0.4538 0.6580 0.1742
H15 H 0.6166 0.6294 0.2132
C20 C 0.2820(3) 0.50776(15) 0.4632(2)
C21 C 0.2784(3) 0.44894(17) 0.3877(2)
H16 H 0.3193 0.4612 0.3256
C22 C 0.2152(3) 0.37274(17) 0.4034(2)
H17 H 0.2129 0.3343 0.3517
C23 C 0.1557(4) 0.3528(2) 0.4944(3)
H18 H 0.1140 0.3010 0.5048
C24 C 0.1582(4) 0.4102(2) 0.5699(3)
H19 H 0.1183 0.3971 0.6321
C25 C 0.2195(4) 0.48683(19) 0.5542(2)
H20 H 0.2190 0.5254 0.6057
loop_
_geom_bond_atom_site_label_1
_geom_bond_atom_site_label_2
_geom_bond_site_symmetry_1
_geom_bond_site_symmetry_2
N1 N2 1_555 1_555
N2 C17 1_555 1_555
O1 C18 1_555 1_555
C1 H1 1_555 1_555
C2 C1 1_555 1_555
H2 C2 1_555 1_555
C3 C2 1_555 1_555
H3 C3 1_555 1_555
C4 C3 1_555 1_555
H4 C4 1_555 1_555
C5 C4 1_555 1_555
C6 C5 1_555 1_555
H5 C6 1_555 1_555
C7 C6 1_555 1_555
C8 C7 1_555 1_555
H6 C8 1_555 1_555
C9 C8 1_555 1_555
H7 C9 1_555 1_555
C10 C9 1_555 1_555
H8 C10 1_555 1_555
C11 C10 1_555 1_555
H9 C11 1_555 1_555
C12 C7 1_555 1_555
C13 C12 1_555 1_555
C14 C1 1_555 1_555
C15 N1 1_555 1_555
H10 C15 1_555 1_555
C16 C15 1_555 1_555
H11 C16 1_555 1_555
H12 C16 1_555 1_555
C17 C16 1_555 1_555
C18 N1 1_555 1_555
C19 C18 1_555 1_555
H13 C19 1_555 1_555
H14 C19 1_555 1_555
H15 C19 1_555 1_555
C20 C17 1_555 1_555
C21 C20 1_555 1_555
H16 C21 1_555 1_555
C22 C21 1_555 1_555
H17 C22 1_555 1_555
C23 C22 1_555 1_555
H18 C23 1_555 1_555
C24 C23 1_555 1_555
H19 C24 1_555 1_555
C25 C20 1_555 1_555
H20 C25 1_555 1_555
C5 C14 1_555 1_555
C11 C12 1_555 1_555
C13 C14 1_555 1_555
C13 C15 1_555 1_555
C24 C25 1_555 1_555

#END
