
#######################################################################
#
#                 Cambridge Crystallographic Data Centre
#                                CCDC 
#
#######################################################################
#
# If this CIF has been generated from an entry in the Cambridge 
# Structural Database, then it will include bibliographic, chemical, 
# crystal, experimental, refinement or atomic coordinate data resulting 
# from the CCDC's data processing and validation procedures.
#
#######################################################################

data_QALGIW
_chemical_formula_moiety         'C66 H72 Si2,0.5(C2 H3 N1)'
_chemical_name_systematic        
"1,11-bis((triisobutylsilyl)ethynyl)pentaleno[1,2,3-de:4,5,6-d'e']ditetracene acetonitrile solvate"
_symmetry_cell_setting           triclinic
_symmetry_space_group_name_H-M   'P -1'
_symmetry_Int_Tables_number      2
_space_group_name_Hall           '-P 1'
loop_
_symmetry_equiv_pos_site_id
_symmetry_equiv_pos_as_xyz
1 x,y,z
2 -x,-y,-z
_cell_length_a                   8.872(13)
_cell_length_b                   17.13(3)
_cell_length_c                   18.88(3)
_cell_angle_alpha                94.79(2)
_cell_angle_beta                 96.33(2)
_cell_angle_gamma                90.689(18)
_cell_volume                     2841.23
_exptl_crystal_colour            'dark blue'
_exptl_crystal_description       prism
_cell_formula_units_Z            2
_chemical_properties_physical    
'Air-sensitive, Moisture-sensitive, Oxygen-sensitive'
_exptl_crystal_recrystallization_method 
'methanol or acetonitrile into a THF solution'
loop_
_atom_site_label
_atom_site_type_symbol
_atom_site_fract_x
_atom_site_fract_y
_atom_site_fract_z
C1 C 0.9905(13) 0.5312(6) 1.1675(7)
H1 H 1.0596 0.5730 1.1848
C2 C 0.9089(13) 0.4957(7) 1.2150(7)
H2 H 0.9246 0.5133 1.2643
C3 C 0.8062(13) 0.4358(6) 1.1928(7)
H3 H 0.7482 0.4141 1.2260
C4 C 0.7877(13) 0.4068(6) 1.1208(7)
C5 C 0.6835(12) 0.3402(6) 1.0912(7)
C6 C 0.6772(13) 0.3154(6) 1.0177(7)
C7 C 0.5831(12) 0.2526(6) 0.9882(7)
H4 H 0.5192 0.2286 1.0177
C8 C 0.5800(12) 0.2244(6) 0.9179(7)
C9 C 0.4744(13) 0.1573(6) 0.8892(7)
H5 H 0.4071 0.1356 0.9184
C10 C 0.4779(14) 0.1291(7) 0.8211(8)
H6 H 0.4147 0.0851 0.8030
C11 C 0.5760(15) 0.1636(7) 0.7731(8)
H7 H 0.5747 0.1416 0.7251
C12 C 0.6695(13) 0.2274(7) 0.7972(7)
H8 H 0.7302 0.2508 0.7660
C13 C 0.6732(13) 0.2579(6) 0.8713(7)
C14 C 0.7653(12) 0.3218(6) 0.8990(7)
H9 H 0.8281 0.3445 0.8682
C15 C 0.7708(13) 0.3549(7) 0.9699(7)
C16 C 0.8626(12) 0.4200(6) 0.9997(7)
C17 C 0.8686(12) 0.4419(6) 1.0734(7)
C18 C 0.9727(12) 0.5067(6) 1.0950(7)
C19 C 1.0378(12) 0.5272(6) 1.0279(6)
C20 C 0.6012(13) 0.3026(7) 1.1378(7)
C21 C 0.5357(14) 0.2670(7) 1.1791(8)
Si1 Si 0.4621(5) 0.1989(2) 1.2396(3)
C22 C 0.631(2) 0.1618(12) 1.2917(11)
H10 H 0.6578 0.1128 1.2647
H11 H 0.7146 0.2000 1.2885
C23 C 0.642(4) 0.145(2) 1.3674(17)
H12 H 0.5879 0.1821 1.3986
C24 C 0.564(5) 0.062(2) 1.3505(19)
H13 H 0.4639 0.0675 1.3235
H14 H 0.5512 0.0391 1.3953
H15 H 0.6264 0.0282 1.3220
C25 C 0.820(5) 0.142(4) 1.389(2)
H16 H 0.8528 0.1892 1.4205
H17 H 0.8718 0.1407 1.3459
H18 H 0.8438 0.0955 1.4143
C26 C 0.3589(15) 0.1147(8) 1.1822(9)
H19 H 0.3874 0.0662 1.2051
H20 H 0.2492 0.1215 1.1856
C27 C 0.3772(14) 0.0997(7) 1.1056(8)
H21 H 0.3517 0.1489 1.0822
C28 C 0.5371(13) 0.0789(7) 1.0922(8)
H22 H 0.6069 0.1218 1.1126
H23 H 0.5428 0.0705 1.0406
H24 H 0.5655 0.0309 1.1148
C29 C 0.2636(14) 0.0335(7) 1.0692(9)
H25 H 0.2663 -0.0107 1.0990
H26 H 0.2928 0.0159 1.0220
H27 H 0.1607 0.0541 1.0638
C30 C 0.315(3) 0.2511(11) 1.2971(11)
H28 H 0.2134 0.2264 1.2829
H29 H 0.3438 0.2435 1.3482
C31 C 0.305(3) 0.3447(14) 1.2876(14)
H30 H 0.2958 0.3652 1.2392
C32 C 0.183(3) 0.3586(17) 1.3380(16)
H31 H 0.1189 0.3114 1.3359
H32 H 0.1210 0.4027 1.3235
H33 H 0.2315 0.3707 1.3870
C33 C 0.447(3) 0.3649(17) 1.3433(15)
H34 H 0.5392 0.3590 1.3196
H35 H 0.4408 0.4191 1.3640
H36 H 0.4488 0.3293 1.3814
C1A C 1.0095(13) 0.4688(6) 0.8325(7)
H1A H 0.9404 0.4270 0.8152
C2A C 1.0911(13) 0.5043(7) 0.7850(7)
H2A H 1.0754 0.4867 0.7357
C3A C 1.1938(13) 0.5642(6) 0.8072(7)
H3A H 1.2518 0.5859 0.7740
C4A C 1.2123(13) 0.5932(6) 0.8792(7)
C5A C 1.3165(12) 0.6598(6) 0.9088(7)
C6A C 1.3228(13) 0.6846(6) 0.9823(7)
C7A C 1.4169(12) 0.7474(6) 1.0118(7)
H4A H 1.4808 0.7714 0.9823
C8A C 1.4200(12) 0.7756(6) 1.0821(7)
C9A C 1.5256(13) 0.8427(6) 1.1108(7)
H5A H 1.5929 0.8644 1.0816
C10A C 1.5221(14) 0.8709(7) 1.1789(8)
H6A H 1.5853 0.9149 1.1970
C11A C 1.4240(15) 0.8364(7) 1.2269(8)
H7A H 1.4253 0.8584 1.2749
C12A C 1.3305(13) 0.7726(7) 1.2028(7)
H8A H 1.2698 0.7492 1.2340
C13A C 1.3268(13) 0.7421(6) 1.1287(7)
C14A C 1.2347(12) 0.6782(6) 1.1010(7)
H9A H 1.1719 0.6555 1.1318
C15A C 1.2292(13) 0.6451(7) 1.0301(7)
C16A C 1.1374(12) 0.5800(6) 1.0003(7)
C17A C 1.1314(12) 0.5581(6) 0.9266(7)
C18A C 1.0273(12) 0.4933(6) 0.9050(7)
C19A C 0.9622(12) 0.4728(6) 0.9721(6)
C20A C 1.3988(13) 0.6974(7) 0.8622(7)
C21A C 1.4643(14) 0.7330(7) 0.8209(8)
Si1A Si 1.5379(5) 0.8011(2) 0.7604(3)
C22A C 1.369(2) 0.8382(12) 0.7083(11)
H10A H 1.3422 0.8872 0.7353
H11A H 1.2854 0.8000 0.7115
C23A C 1.358(4) 0.855(2) 0.6326(17)
H12A H 1.4121 0.8179 0.6014
C24A C 1.436(5) 0.938(2) 0.6495(19)
H13A H 1.5361 0.9325 0.6765
H14A H 1.4488 0.9609 0.6047
H15A H 1.3736 0.9718 0.6780
C25A C 1.180(5) 0.858(4) 0.611(2)
H16A H 1.1472 0.8108 0.5795
H17A H 1.1282 0.8593 0.6541
H18A H 1.1562 0.9045 0.5857
C26A C 1.6411(15) 0.8853(8) 0.8178(9)
H19A H 1.6126 0.9338 0.7949
H20A H 1.7508 0.8785 0.8144
C27A C 1.6228(14) 0.9003(7) 0.8944(8)
H21A H 1.6483 0.8511 0.9178
C28A C 1.4629(13) 0.9211(7) 0.9078(8)
H22A H 1.3931 0.8782 0.8874
H23A H 1.4572 0.9295 0.9594
H24A H 1.4345 0.9691 0.8852
C29A C 1.7364(14) 0.9665(7) 0.9308(9)
H25A H 1.7337 1.0107 0.9010
H26A H 1.7072 0.9841 0.9780
H27A H 1.8393 0.9459 0.9362
C30A C 1.685(3) 0.7489(11) 0.7029(11)
H28A H 1.7866 0.7736 0.7171
H29A H 1.6562 0.7565 0.6518
C31A C 1.695(3) 0.6553(14) 0.7124(14)
H30A H 1.7042 0.6348 0.7608
C32A C 1.817(3) 0.6414(17) 0.6620(16)
H31A H 1.8811 0.6886 0.6641
H32A H 1.8790 0.5973 0.6765
H33A H 1.7685 0.6293 0.6130
C33A C 1.553(3) 0.6351(17) 0.6567(15)
H34A H 1.4608 0.6410 0.6804
H35A H 1.5592 0.5809 0.6360
H36A H 1.5512 0.6707 0.6186
C37 C 0.6058(14) 0.5041(6) 0.8467(7)
H46 H 0.6831 0.5434 0.8493
C38 C 0.5602(14) 0.4586(7) 0.7809(7)
H47 H 0.6067 0.4687 0.7396
C39 C 0.4522(13) 0.4013(6) 0.7761(7)
H48 H 0.4251 0.3724 0.7312
C40 C 0.3781(13) 0.3831(6) 0.8359(7)
C41 C 0.2674(12) 0.3230(6) 0.8381(7)
C42 C 0.2220(12) 0.3075(6) 0.9024(8)
C43 C 0.1129(11) 0.2416(6) 0.9105(8)
H49 H 0.0740 0.2098 0.8687
C44 C 0.0664(12) 0.2247(7) 0.9741(8)
C45 C -0.0377(12) 0.1618(6) 0.9761(8)
H50 H -0.0715 0.1302 0.9334
C46 C -0.0885(14) 0.1469(7) 1.0373(8)
H51 H -0.1553 0.1033 1.0377
C47 C -0.0459(13) 0.1944(7) 1.1030(8)
H52 H -0.0868 0.1845 1.1459
C48 C 0.0574(13) 0.2551(7) 1.1009(8)
H53 H 0.0917 0.2856 1.1442
C49 C 0.1140(11) 0.2737(6) 1.0369(7)
C50 C 0.2157(12) 0.3365(6) 1.0337(8)
H54 H 0.2481 0.3681 1.0766
C51 C 0.2708(12) 0.3547(6) 0.9718(7)
C52 C 0.3727(12) 0.4187(6) 0.9663(7)
C53 C 0.4250(12) 0.4275(6) 0.9011(7)
C54 C 0.5369(13) 0.4906(6) 0.9060(7)
C55 C 0.4543(12) 0.4775(6) 1.0184(6)
C56 C 0.2115(14) 0.2790(6) 0.7750(7)
C57 C 0.1565(15) 0.2449(7) 0.7184(7)
Si2 Si 0.0758(6) 0.1888(3) 0.6338(3)
C58 C -0.062(3) 0.1280(13) 0.6302(13)
H55 H -0.1019 0.1149 0.5795
H56 H -0.1440 0.1530 0.6549
C59 C -0.015(3) 0.0471(14) 0.6667(18)
H57 H 0.0640 0.0178 0.6424
C60 C -0.185(2) -0.0032(11) 0.6579(14)
H58 H -0.1723 -0.0519 0.6816
H59 H -0.2194 -0.0157 0.6071
H60 H -0.2603 0.0290 0.6801
C61 C 0.022(2) 0.0563(11) 0.7526(12)
H61 H 0.1045 0.0951 0.7662
H62 H 0.0534 0.0057 0.7694
H63 H -0.0684 0.0735 0.7743
C62 C 0.009(3) 0.2856(19) 0.5660(14)
H64 H 0.0661 0.3350 0.5826
H65 H 0.0194 0.2716 0.5148
C63 C -0.165(3) 0.2887(18) 0.5824(15)
H66 H -0.2252 0.2395 0.5857
C64 C -0.1479(17) 0.3511(9) 0.6420(8)
H67 H -0.0613 0.3853 0.6367
H68 H -0.1305 0.3273 0.6876
H69 H -0.2403 0.3819 0.6412
C65 C -0.200(5) 0.341(3) 0.515(2)
H70 H -0.3063 0.3562 0.5114
H71 H -0.1800 0.3101 0.4713
H72 H -0.1341 0.3878 0.5225
C66 C 0.232(3) 0.1528(13) 0.5851(12)
H73 H 0.2566 0.1978 0.5585
H74 H 0.3170 0.1506 0.6234
C67 C 0.258(4) 0.0817(19) 0.533(2)
H75 H 0.2094 0.1095 0.4922
C68 C 0.137(6) 0.016(2) 0.517(3)
H76 H 0.0512 0.0291 0.5438
H77 H 0.1030 0.0110 0.4656
H78 H 0.1807 -0.0332 0.5312
C69 C 0.406(5) 0.077(3) 0.498(3)
H79 H 0.4690 0.1243 0.5150
H80 H 0.4609 0.0306 0.5119
H81 H 0.3832 0.0748 0.4463
C37A C 0.3942(14) 0.4959(6) 1.1533(7)
H46A H 0.3169 0.4566 1.1507
C38A C 0.4398(14) 0.5414(7) 1.2191(7)
H47A H 0.3933 0.5313 1.2604
C39A C 0.5478(13) 0.5987(6) 1.2239(7)
H48A H 0.5749 0.6276 1.2688
C40A C 0.6219(13) 0.6169(6) 1.1641(7)
C41A C 0.7326(12) 0.6770(6) 1.1619(7)
C42A C 0.7780(12) 0.6925(6) 1.0976(8)
C43A C 0.8871(11) 0.7584(6) 1.0895(8)
H49A H 0.9260 0.7902 1.1313
C44A C 0.9336(12) 0.7753(7) 1.0259(8)
C45A C 1.0377(12) 0.8382(6) 1.0239(8)
H50A H 1.0715 0.8698 1.0666
C46A C 1.0885(14) 0.8531(7) 0.9627(8)
H51A H 1.1553 0.8967 0.9623
C47A C 1.0459(13) 0.8056(7) 0.8970(8)
H52A H 1.0868 0.8155 0.8541
C48A C 0.9426(13) 0.7449(7) 0.8991(8)
H53A H 0.9083 0.7144 0.8558
C49A C 0.8860(11) 0.7263(6) 0.9631(7)
C50A C 0.7843(12) 0.6635(6) 0.9663(8)
H54A H 0.7519 0.6319 0.9234
C51A C 0.7292(12) 0.6453(6) 1.0282(7)
C52A C 0.6273(12) 0.5813(6) 1.0337(7)
C53A C 0.5750(12) 0.5725(6) 1.0989(7)
C54A C 0.4631(13) 0.5094(6) 1.0940(7)
C55A C 0.5457(12) 0.5225(6) 0.9816(6)
C56A C 0.7885(14) 0.7210(6) 1.2250(7)
C57A C 0.8435(15) 0.7551(7) 1.2816(7)
Si2A Si 0.9242(6) 0.8112(3) 1.3662(3)
C58A C 1.062(3) 0.8720(13) 1.3698(13)
H55A H 1.1019 0.8851 1.4205
H56A H 1.1440 0.8470 1.3451
C59A C 1.015(3) 0.9529(14) 1.3333(18)
H57A H 0.9360 0.9822 1.3576
C60A C 1.185(2) 1.0032(11) 1.3421(14)
H58A H 1.1723 1.0519 1.3184
H59A H 1.2194 1.0157 1.3929
H60A H 1.2603 0.9710 1.3199
C61A C 0.978(2) 0.9437(11) 1.2474(12)
H61A H 0.8955 0.9049 1.2338
H62A H 0.9466 0.9943 1.2306
H63A H 1.0684 0.9265 1.2257
C62A C 0.991(3) 0.7144(19) 1.4340(14)
H64A H 0.9339 0.6650 1.4174
H65A H 0.9806 0.7284 1.4852
C63A C 1.165(3) 0.7113(18) 1.4176(15)
H66A H 1.2252 0.7605 1.4143
C64A C 1.1479(17) 0.6489(9) 1.3580(8)
H67A H 1.0613 0.6147 1.3633
H68A H 1.1305 0.6727 1.3124
H69A H 1.2403 0.6181 1.3588
C65A C 1.200(5) 0.659(3) 1.485(2)
H70A H 1.3063 0.6438 1.4886
H71A H 1.1800 0.6899 1.5287
H72A H 1.1341 0.6122 1.4775
C66A C 0.768(3) 0.8472(13) 1.4149(12)
H73A H 0.7434 0.8022 1.4415
H74A H 0.6830 0.8494 1.3766
C67A C 0.742(4) 0.9183(19) 1.467(2)
H75A H 0.7906 0.8905 1.5078
C68A C 0.863(6) 0.984(2) 1.483(3)
H76A H 0.9488 0.9709 1.4562
H77A H 0.8970 0.9890 1.5344
H78A H 0.8193 1.0332 1.4688
C69A C 0.594(5) 0.923(3) 1.502(3)
H79A H 0.5310 0.8757 1.4850
H80A H 0.5391 0.9694 1.4881
H81A H 0.6168 0.9252 1.5537
C37A_2 C -0.6058(14) 0.4959(6) 1.1533(7)
H46A_2 H -0.6831 0.4566 1.1507
C38A_2 C -0.5602(14) 0.5414(7) 1.2191(7)
H47A_2 H -0.6067 0.5313 1.2604
C39A_2 C -0.4522(13) 0.5987(6) 1.2239(7)
H48A_2 H -0.4251 0.6276 1.2688
C40A_2 C -0.3781(13) 0.6169(6) 1.1641(7)
C41A_2 C -0.2674(12) 0.6770(6) 1.1619(7)
C42A_2 C -0.2220(12) 0.6925(6) 1.0976(8)
C43A_2 C -0.1129(11) 0.7584(6) 1.0895(8)
H49A_2 H -0.0740 0.7902 1.1313
C44A_2 C -0.0664(12) 0.7753(7) 1.0259(8)
C45A_2 C 0.0377(12) 0.8382(6) 1.0239(8)
H50A_2 H 0.0715 0.8698 1.0666
C46A_2 C 0.0885(14) 0.8531(7) 0.9627(8)
H51A_2 H 0.1553 0.8967 0.9623
C47A_2 C 0.0459(13) 0.8056(7) 0.8970(8)
H52A_2 H 0.0868 0.8155 0.8541
C48A_2 C -0.0574(13) 0.7449(7) 0.8991(8)
H53A_2 H -0.0917 0.7144 0.8558
C49A_2 C -0.1140(11) 0.7263(6) 0.9631(7)
C50A_2 C -0.2157(12) 0.6635(6) 0.9663(8)
H54A_2 H -0.2481 0.6319 0.9234
C51A_2 C -0.2708(12) 0.6453(6) 1.0282(7)
C52A_2 C -0.3727(12) 0.5813(6) 1.0337(7)
C53A_2 C -0.4250(12) 0.5725(6) 1.0989(7)
C54A_2 C -0.5369(13) 0.5094(6) 1.0940(7)
C55A_2 C -0.4543(12) 0.5225(6) 0.9816(6)
C56A_2 C -0.2115(14) 0.7210(6) 1.2250(7)
C57A_2 C -0.1565(15) 0.7551(7) 1.2816(7)
Si2A_2 Si -0.0758(6) 0.8112(3) 1.3662(3)
C58A_2 C 0.062(3) 0.8720(13) 1.3698(13)
H55A_2 H 0.1019 0.8851 1.4205
H56A_2 H 0.1440 0.8470 1.3451
C59A_2 C 0.015(3) 0.9529(14) 1.3333(18)
H57A_2 H -0.0640 0.9822 1.3576
C60A_2 C 0.185(2) 1.0032(11) 1.3421(14)
H58A_2 H 0.1723 1.0519 1.3184
H59A_2 H 0.2194 1.0157 1.3929
H60A_2 H 0.2603 0.9710 1.3199
C61A_2 C -0.022(2) 0.9437(11) 1.2474(12)
H61A_2 H -0.1045 0.9049 1.2338
H62A_2 H -0.0534 0.9943 1.2306
H63A_2 H 0.0684 0.9265 1.2257
C62A_2 C -0.009(3) 0.7144(19) 1.4340(14)
H64A_2 H -0.0661 0.6650 1.4174
H65A_2 H -0.0194 0.7284 1.4852
C63A_2 C 0.165(3) 0.7113(18) 1.4176(15)
H66A_2 H 0.2252 0.7605 1.4143
C64A_2 C 0.1479(17) 0.6489(9) 1.3580(8)
H67A_2 H 0.0613 0.6147 1.3633
H68A_2 H 0.1305 0.6727 1.3124
H69A_2 H 0.2403 0.6181 1.3588
C65A_2 C 0.200(5) 0.659(3) 1.485(2)
H70A_2 H 0.3063 0.6438 1.4886
H71A_2 H 0.1800 0.6899 1.5287
H72A_2 H 0.1341 0.6122 1.4775
C66A_2 C -0.232(3) 0.8472(13) 1.4149(12)
H73A_2 H -0.2566 0.8022 1.4415
H74A_2 H -0.3170 0.8494 1.3766
C67A_2 C -0.258(4) 0.9183(19) 1.467(2)
H75A_2 H -0.2094 0.8905 1.5078
C68A_2 C -0.137(6) 0.984(2) 1.483(3)
H76A_2 H -0.0512 0.9709 1.4562
H77A_2 H -0.1030 0.9890 1.5344
H78A_2 H -0.1807 1.0332 1.4688
C69A_2 C -0.406(5) 0.923(3) 1.502(3)
H79A_2 H -0.4690 0.8757 1.4850
H80A_2 H -0.4609 0.9694 1.4881
H81A_2 H -0.3832 0.9252 1.5537
C37_2 C -0.3942(14) 0.5041(6) 0.8467(7)
H46_2 H -0.3169 0.5434 0.8493
C38_2 C -0.4398(14) 0.4586(7) 0.7809(7)
H47_2 H -0.3933 0.4687 0.7396
C39_2 C -0.5478(13) 0.4013(6) 0.7761(7)
H48_2 H -0.5749 0.3724 0.7312
C40_2 C -0.6219(13) 0.3831(6) 0.8359(7)
C41_2 C -0.7326(12) 0.3230(6) 0.8381(7)
C42_2 C -0.7780(12) 0.3075(6) 0.9024(8)
C43_2 C -0.8871(11) 0.2416(6) 0.9105(8)
H49_2 H -0.9260 0.2098 0.8687
C44_2 C -0.9336(12) 0.2247(7) 0.9741(8)
C45_2 C -1.0377(12) 0.1618(6) 0.9761(8)
H50_2 H -1.0715 0.1302 0.9334
C46_2 C -1.0885(14) 0.1469(7) 1.0373(8)
H51_2 H -1.1553 0.1033 1.0377
C47_2 C -1.0459(13) 0.1944(7) 1.1030(8)
H52_2 H -1.0868 0.1845 1.1459
C48_2 C -0.9426(13) 0.2551(7) 1.1009(8)
H53_2 H -0.9083 0.2856 1.1442
C49_2 C -0.8860(11) 0.2737(6) 1.0369(7)
C50_2 C -0.7843(12) 0.3365(6) 1.0337(8)
H54_2 H -0.7519 0.3681 1.0766
C51_2 C -0.7292(12) 0.3547(6) 0.9718(7)
C52_2 C -0.6273(12) 0.4187(6) 0.9663(7)
C53_2 C -0.5750(12) 0.4275(6) 0.9011(7)
C54_2 C -0.4631(13) 0.4906(6) 0.9060(7)
C55_2 C -0.5457(12) 0.4775(6) 1.0184(6)
C56_2 C -0.7885(14) 0.2790(6) 0.7750(7)
C57_2 C -0.8435(15) 0.2449(7) 0.7184(7)
Si2_2 Si -0.9242(6) 0.1888(3) 0.6338(3)
C58_2 C -1.062(3) 0.1280(13) 0.6302(13)
H55_2 H -1.1019 0.1149 0.5795
H56_2 H -1.1440 0.1530 0.6549
C59_2 C -1.015(3) 0.0471(14) 0.6667(18)
H57_2 H -0.9360 0.0178 0.6424
C60_2 C -1.185(2) -0.0032(11) 0.6579(14)
H58_2 H -1.1723 -0.0519 0.6816
H59_2 H -1.2194 -0.0157 0.6071
H60_2 H -1.2603 0.0290 0.6801
C61_2 C -0.978(2) 0.0563(11) 0.7526(12)
H61_2 H -0.8955 0.0951 0.7662
H62_2 H -0.9466 0.0057 0.7694
H63_2 H -1.0684 0.0735 0.7743
C62_2 C -0.991(3) 0.2856(19) 0.5660(14)
H64_2 H -0.9339 0.3350 0.5826
H65_2 H -0.9806 0.2716 0.5148
C63_2 C -1.165(3) 0.2887(18) 0.5824(15)
H66_2 H -1.2252 0.2395 0.5857
C64_2 C -1.1479(17) 0.3511(9) 0.6420(8)
H67_2 H -1.0613 0.3853 0.6367
H68_2 H -1.1305 0.3273 0.6876
H69_2 H -1.2403 0.3819 0.6412
C65_2 C -1.200(5) 0.341(3) 0.515(2)
H70_2 H -1.3063 0.3562 0.5114
H71_2 H -1.1800 0.3101 0.4713
H72_2 H -1.1341 0.3878 0.5225
C66_2 C -0.768(3) 0.1528(13) 0.5851(12)
H73_2 H -0.7434 0.1978 0.5585
H74_2 H -0.6830 0.1506 0.6234
C67_2 C -0.742(4) 0.0817(19) 0.533(2)
H75_2 H -0.7906 0.1095 0.4922
C68_2 C -0.863(6) 0.016(2) 0.517(3)
H76_2 H -0.9488 0.0291 0.5438
H77_2 H -0.8970 0.0110 0.4656
H78_2 H -0.8193 -0.0332 0.5312
C69_2 C -0.594(5) 0.077(3) 0.498(3)
H79_2 H -0.5310 0.1243 0.5150
H80_2 H -0.5391 0.0306 0.5119
H81_2 H -0.6168 0.0748 0.4463
C74 C 0.761(9) 0.556(3) 0.421(4)
C75 C 0.601(8) 0.542(4) 0.441(3)
N1 N 0.763(6) 0.493(3) 0.396(3)
H37? H 0.5967 0.1088 1.3007
H38? H 0.7019 0.1528 1.2548
C34? C 0.735(5) 0.184(3) 1.3560(18)
H39? H 0.6728 0.2209 1.3839
C35? C 0.804(6) 0.127(4) 1.417(2)
H40? H 0.7272 0.0872 1.4228
H41? H 0.8306 0.1585 1.4624
H42? H 0.8945 0.1015 1.4017
C36? C 0.834(4) 0.240(2) 1.322(2)
H43? H 0.8479 0.2190 1.2735
H44? H 0.9329 0.2473 1.3508
H45? H 0.7845 0.2911 1.3201
H82? H -0.1570 0.2446 0.6141
C70? C -0.343(4) 0.283(3) 0.568(2)
H83? H -0.3728 0.2427 0.5283
H84? H -0.3855 0.2687 0.6108
H85? H -0.3828 0.3335 0.5546
H86? H 0.2567 0.1075 0.6133
H87? H 0.1686 0.1292 0.5420
C71? C 0.381(4) 0.156(3) 0.552(2)
H88? H 0.4579 0.1141 0.5543
C72? C 0.415(5) 0.241(3) 0.582(2)
H89? H 0.5112 0.2585 0.5668
H90? H 0.3332 0.2743 0.5631
H91? H 0.4218 0.2443 0.6339
C73? C 0.297(7) 0.179(4) 0.481(3)
H92? H 0.2618 0.1318 0.4512
H93? H 0.2095 0.2110 0.4917
H94? H 0.3656 0.2096 0.4565
loop_
_geom_bond_atom_site_label_1
_geom_bond_atom_site_label_2
_geom_bond_site_symmetry_1
_geom_bond_site_symmetry_2
C1 H1 1_555 1_555
C2 C1 1_555 1_555
H2 C2 1_555 1_555
C3 C2 1_555 1_555
H3 C3 1_555 1_555
C4 C3 1_555 1_555
C5 C4 1_555 1_555
C6 C5 1_555 1_555
C7 C6 1_555 1_555
H4 C7 1_555 1_555
C8 C7 1_555 1_555
C9 C8 1_555 1_555
H5 C9 1_555 1_555
C10 C9 1_555 1_555
H6 C10 1_555 1_555
C11 C10 1_555 1_555
H7 C11 1_555 1_555
C12 C11 1_555 1_555
H8 C12 1_555 1_555
C13 C8 1_555 1_555
C14 C13 1_555 1_555
H9 C14 1_555 1_555
C15 C6 1_555 1_555
C16 C15 1_555 1_555
C17 C4 1_555 1_555
C18 C1 1_555 1_555
C19 C18 1_555 1_555
C20 C5 1_555 1_555
C21 C20 1_555 1_555
Si1 C21 1_555 1_555
C22 Si1 1_555 1_555
H10 C22 1_555 1_555
H11 C22 1_555 1_555
C23 C22 1_555 1_555
H12 C23 1_555 1_555
C24 C23 1_555 1_555
H13 C24 1_555 1_555
H14 C24 1_555 1_555
H15 C24 1_555 1_555
C25 C23 1_555 1_555
H16 C25 1_555 1_555
H17 C25 1_555 1_555
H18 C25 1_555 1_555
C26 Si1 1_555 1_555
H19 C26 1_555 1_555
H20 C26 1_555 1_555
C27 C26 1_555 1_555
H21 C27 1_555 1_555
C28 C27 1_555 1_555
H22 C28 1_555 1_555
H23 C28 1_555 1_555
H24 C28 1_555 1_555
C29 C27 1_555 1_555
H25 C29 1_555 1_555
H26 C29 1_555 1_555
H27 C29 1_555 1_555
C30 Si1 1_555 1_555
H28 C30 1_555 1_555
H29 C30 1_555 1_555
C31 C30 1_555 1_555
H30 C31 1_555 1_555
C32 C31 1_555 1_555
H31 C32 1_555 1_555
H32 C32 1_555 1_555
H33 C32 1_555 1_555
C33 C31 1_555 1_555
H34 C33 1_555 1_555
H35 C33 1_555 1_555
H36 C33 1_555 1_555
C37 H46 1_555 1_555
C38 C37 1_555 1_555
H47 C38 1_555 1_555
C39 C38 1_555 1_555
H48 C39 1_555 1_555
C40 C39 1_555 1_555
C41 C40 1_555 1_555
C42 C41 1_555 1_555
C43 C42 1_555 1_555
H49 C43 1_555 1_555
C44 C43 1_555 1_555
C45 C44 1_555 1_555
H50 C45 1_555 1_555
C46 C45 1_555 1_555
H51 C46 1_555 1_555
C47 C46 1_555 1_555
H52 C47 1_555 1_555
C48 C47 1_555 1_555
H53 C48 1_555 1_555
C49 C44 1_555 1_555
C50 C49 1_555 1_555
H54 C50 1_555 1_555
C51 C42 1_555 1_555
C52 C51 1_555 1_555
C53 C40 1_555 1_555
C54 C37 1_555 1_555
C55 C52 1_555 1_555
C56 C41 1_555 1_555
C57 C56 1_555 1_555
Si2 C57 1_555 1_555
C58 Si2 1_555 1_555
H55 C58 1_555 1_555
H56 C58 1_555 1_555
C59 C58 1_555 1_555
H57 C59 1_555 1_555
C60 C59 1_555 1_555
H58 C60 1_555 1_555
H59 C60 1_555 1_555
H60 C60 1_555 1_555
C61 C59 1_555 1_555
H61 C61 1_555 1_555
H62 C61 1_555 1_555
H63 C61 1_555 1_555
C62 Si2 1_555 1_555
H64 C62 1_555 1_555
H65 C62 1_555 1_555
C63 C62 1_555 1_555
H66 C63 1_555 1_555
C64 C63 1_555 1_555
H67 C64 1_555 1_555
H68 C64 1_555 1_555
H69 C64 1_555 1_555
C65 C63 1_555 1_555
H70 C65 1_555 1_555
H71 C65 1_555 1_555
H72 C65 1_555 1_555
C66 Si2 1_555 1_555
H73 C66 1_555 1_555
H74 C66 1_555 1_555
C67 C66 1_555 1_555
H75 C67 1_555 1_555
C68 C67 1_555 1_555
H76 C68 1_555 1_555
H77 C68 1_555 1_555
H78 C68 1_555 1_555
C69 C67 1_555 1_555
H79 C69 1_555 1_555
H80 C69 1_555 1_555
H81 C69 1_555 1_555
C74 C75 1_555 1_555
N1 C74 1_555 1_555
C1A H1A 1_555 1_555
C2A C1A 1_555 1_555
H2A C2A 1_555 1_555
C3A C2A 1_555 1_555
H3A C3A 1_555 1_555
C4A C3A 1_555 1_555
C5A C4A 1_555 1_555
C6A C5A 1_555 1_555
C7A C6A 1_555 1_555
H4A C7A 1_555 1_555
C8A C7A 1_555 1_555
C9A C8A 1_555 1_555
H5A C9A 1_555 1_555
C10A C9A 1_555 1_555
H6A C10A 1_555 1_555
C11A C10A 1_555 1_555
H7A C11A 1_555 1_555
C12A C11A 1_555 1_555
H8A C12A 1_555 1_555
C13A C8A 1_555 1_555
C14A C13A 1_555 1_555
H9A C14A 1_555 1_555
C15A C6A 1_555 1_555
C16A C19 1_555 1_555
C17A C4A 1_555 1_555
C18A C1A 1_555 1_555
C19A C16 1_555 1_555
C20A C5A 1_555 1_555
C21A C20A 1_555 1_555
Si1A C21A 1_555 1_555
C22A Si1A 1_555 1_555
H10A C22A 1_555 1_555
H11A C22A 1_555 1_555
C23A C22A 1_555 1_555
H12A C23A 1_555 1_555
C24A C23A 1_555 1_555
H13A C24A 1_555 1_555
H14A C24A 1_555 1_555
H15A C24A 1_555 1_555
C25A C23A 1_555 1_555
H16A C25A 1_555 1_555
H17A C25A 1_555 1_555
H18A C25A 1_555 1_555
C26A Si1A 1_555 1_555
H19A C26A 1_555 1_555
H20A C26A 1_555 1_555
C27A C26A 1_555 1_555
H21A C27A 1_555 1_555
C28A C27A 1_555 1_555
H22A C28A 1_555 1_555
H23A C28A 1_555 1_555
H24A C28A 1_555 1_555
C29A C27A 1_555 1_555
H25A C29A 1_555 1_555
H26A C29A 1_555 1_555
H27A C29A 1_555 1_555
C30A Si1A 1_555 1_555
H28A C30A 1_555 1_555
H29A C30A 1_555 1_555
C31A C30A 1_555 1_555
H30A C31A 1_555 1_555
C32A C31A 1_555 1_555
H31A C32A 1_555 1_555
H32A C32A 1_555 1_555
H33A C32A 1_555 1_555
C33A C31A 1_555 1_555
H34A C33A 1_555 1_555
H35A C33A 1_555 1_555
H36A C33A 1_555 1_555
C37A H46A 1_555 1_555
C38A C37A 1_555 1_555
H47A C38A 1_555 1_555
C39A C38A 1_555 1_555
H48A C39A 1_555 1_555
C40A C39A 1_555 1_555
C41A C40A 1_555 1_555
C42A C41A 1_555 1_555
C43A C42A 1_555 1_555
H49A C43A 1_555 1_555
C44A C43A 1_555 1_555
C45A C44A 1_555 1_555
H50A C45A 1_555 1_555
C46A C45A 1_555 1_555
H51A C46A 1_555 1_555
C47A C46A 1_555 1_555
H52A C47A 1_555 1_555
C48A C47A 1_555 1_555
H53A C48A 1_555 1_555
C49A C44A 1_555 1_555
C50A C49A 1_555 1_555
H54A C50A 1_555 1_555
C51A C42A 1_555 1_555
C52A C51A 1_555 1_555
C53A C40A 1_555 1_555
C54A C55 1_555 1_555
C55A C54 1_555 1_555
C56A C41A 1_555 1_555
C57A C56A 1_555 1_555
Si2A C57A 1_555 1_555
C58A Si2A 1_555 1_555
H55A C58A 1_555 1_555
H56A C58A 1_555 1_555
C59A C58A 1_555 1_555
H57A C59A 1_555 1_555
C60A C59A 1_555 1_555
H58A C60A 1_555 1_555
H59A C60A 1_555 1_555
H60A C60A 1_555 1_555
C61A C59A 1_555 1_555
H61A C61A 1_555 1_555
H62A C61A 1_555 1_555
H63A C61A 1_555 1_555
C62A Si2A 1_555 1_555
H64A C62A 1_555 1_555
H65A C62A 1_555 1_555
C63A C62A 1_555 1_555
H66A C63A 1_555 1_555
C64A C63A 1_555 1_555
H67A C64A 1_555 1_555
H68A C64A 1_555 1_555
H69A C64A 1_555 1_555
C65A C63A 1_555 1_555
H70A C65A 1_555 1_555
H71A C65A 1_555 1_555
H72A C65A 1_555 1_555
C66A Si2A 1_555 1_555
H73A C66A 1_555 1_555
H74A C66A 1_555 1_555
C67A C66A 1_555 1_555
H75A C67A 1_555 1_555
C68A C67A 1_555 1_555
H76A C68A 1_555 1_555
H77A C68A 1_555 1_555
H78A C68A 1_555 1_555
C69A C67A 1_555 1_555
H79A C69A 1_555 1_555
H80A C69A 1_555 1_555
H81A C69A 1_555 1_555
C37A_2 H46A_2 1_555 1_555
C38A_2 C37A_2 1_555 1_555
H47A_2 C38A_2 1_555 1_555
C39A_2 C38A_2 1_555 1_555
H48A_2 C39A_2 1_555 1_555
C40A_2 C39A_2 1_555 1_555
C41A_2 C40A_2 1_555 1_555
C42A_2 C41A_2 1_555 1_555
C43A_2 C42A_2 1_555 1_555
H49A_2 C43A_2 1_555 1_555
C44A_2 C43A_2 1_555 1_555
C45A_2 C44A_2 1_555 1_555
H50A_2 C45A_2 1_555 1_555
C46A_2 C45A_2 1_555 1_555
H51A_2 C46A_2 1_555 1_555
C47A_2 C46A_2 1_555 1_555
H52A_2 C47A_2 1_555 1_555
C48A_2 C47A_2 1_555 1_555
H53A_2 C48A_2 1_555 1_555
C49A_2 C44A_2 1_555 1_555
C50A_2 C49A_2 1_555 1_555
H54A_2 C50A_2 1_555 1_555
C51A_2 C42A_2 1_555 1_555
C52A_2 C51A_2 1_555 1_555
C53A_2 C40A_2 1_555 1_555
C54A_2 C37A_2 1_555 1_555
C55A_2 C52A_2 1_555 1_555
C56A_2 C41A_2 1_555 1_555
C57A_2 C56A_2 1_555 1_555
Si2A_2 C57A_2 1_555 1_555
C58A_2 Si2A_2 1_555 1_555
H55A_2 C58A_2 1_555 1_555
H56A_2 C58A_2 1_555 1_555
C59A_2 C58A_2 1_555 1_555
H57A_2 C59A_2 1_555 1_555
C60A_2 C59A_2 1_555 1_555
H58A_2 C60A_2 1_555 1_555
H59A_2 C60A_2 1_555 1_555
H60A_2 C60A_2 1_555 1_555
C61A_2 C59A_2 1_555 1_555
H61A_2 C61A_2 1_555 1_555
H62A_2 C61A_2 1_555 1_555
H63A_2 C61A_2 1_555 1_555
C62A_2 Si2A_2 1_555 1_555
H64A_2 C62A_2 1_555 1_555
H65A_2 C62A_2 1_555 1_555
C63A_2 C62A_2 1_555 1_555
H66A_2 C63A_2 1_555 1_555
C64A_2 C63A_2 1_555 1_555
H67A_2 C64A_2 1_555 1_555
H68A_2 C64A_2 1_555 1_555
H69A_2 C64A_2 1_555 1_555
C65A_2 C63A_2 1_555 1_555
H70A_2 C65A_2 1_555 1_555
H71A_2 C65A_2 1_555 1_555
H72A_2 C65A_2 1_555 1_555
C66A_2 Si2A_2 1_555 1_555
H73A_2 C66A_2 1_555 1_555
H74A_2 C66A_2 1_555 1_555
C67A_2 C66A_2 1_555 1_555
H75A_2 C67A_2 1_555 1_555
C68A_2 C67A_2 1_555 1_555
H76A_2 C68A_2 1_555 1_555
H77A_2 C68A_2 1_555 1_555
H78A_2 C68A_2 1_555 1_555
C69A_2 C67A_2 1_555 1_555
H79A_2 C69A_2 1_555 1_555
H80A_2 C69A_2 1_555 1_555
H81A_2 C69A_2 1_555 1_555
C37_2 H46_2 1_555 1_555
C38_2 C37_2 1_555 1_555
H47_2 C38_2 1_555 1_555
C39_2 C38_2 1_555 1_555
H48_2 C39_2 1_555 1_555
C40_2 C39_2 1_555 1_555
C41_2 C40_2 1_555 1_555
C42_2 C41_2 1_555 1_555
C43_2 C42_2 1_555 1_555
H49_2 C43_2 1_555 1_555
C44_2 C43_2 1_555 1_555
C45_2 C44_2 1_555 1_555
H50_2 C45_2 1_555 1_555
C46_2 C45_2 1_555 1_555
H51_2 C46_2 1_555 1_555
C47_2 C46_2 1_555 1_555
H52_2 C47_2 1_555 1_555
C48_2 C47_2 1_555 1_555
H53_2 C48_2 1_555 1_555
C49_2 C44_2 1_555 1_555
C50_2 C49_2 1_555 1_555
H54_2 C50_2 1_555 1_555
C51_2 C42_2 1_555 1_555
C52_2 C51_2 1_555 1_555
C53_2 C40_2 1_555 1_555
C54_2 C55A_2 1_555 1_555
C55_2 C54A_2 1_555 1_555
C56_2 C41_2 1_555 1_555
C57_2 C56_2 1_555 1_555
Si2_2 C57_2 1_555 1_555
C58_2 Si2_2 1_555 1_555
H55_2 C58_2 1_555 1_555
H56_2 C58_2 1_555 1_555
C59_2 C58_2 1_555 1_555
H57_2 C59_2 1_555 1_555
C60_2 C59_2 1_555 1_555
H58_2 C60_2 1_555 1_555
H59_2 C60_2 1_555 1_555
H60_2 C60_2 1_555 1_555
C61_2 C59_2 1_555 1_555
H61_2 C61_2 1_555 1_555
H62_2 C61_2 1_555 1_555
H63_2 C61_2 1_555 1_555
C62_2 Si2_2 1_555 1_555
H64_2 C62_2 1_555 1_555
H65_2 C62_2 1_555 1_555
C63_2 C62_2 1_555 1_555
H66_2 C63_2 1_555 1_555
C64_2 C63_2 1_555 1_555
H67_2 C64_2 1_555 1_555
H68_2 C64_2 1_555 1_555
H69_2 C64_2 1_555 1_555
C65_2 C63_2 1_555 1_555
H70_2 C65_2 1_555 1_555
H71_2 C65_2 1_555 1_555
H72_2 C65_2 1_555 1_555
C66_2 Si2_2 1_555 1_555
H73_2 C66_2 1_555 1_555
H74_2 C66_2 1_555 1_555
C67_2 C66_2 1_555 1_555
H75_2 C67_2 1_555 1_555
C68_2 C67_2 1_555 1_555
H76_2 C68_2 1_555 1_555
H77_2 C68_2 1_555 1_555
H78_2 C68_2 1_555 1_555
C69_2 C67_2 1_555 1_555
H79_2 C69_2 1_555 1_555
H80_2 C69_2 1_555 1_555
H81_2 C69_2 1_555 1_555
C12 C13 1_555 1_555
C14 C15 1_555 1_555
C16 C17 1_555 1_555
C17 C18 1_555 1_555
C19 C19A 1_555 1_555
C48 C49 1_555 1_555
C50 C51 1_555 1_555
C52 C53 1_555 1_555
C53 C54 1_555 1_555
C55 C55A 1_555 1_555
C12A C13A 1_555 1_555
C14A C15A 1_555 1_555
C15A C16A 1_555 1_555
C16A C17A 1_555 1_555
C17A C18A 1_555 1_555
C18A C19A 1_555 1_555
C37A C54A 1_555 1_555
C48A C49A 1_555 1_555
C50A C51A 1_555 1_555
C52A C53A 1_555 1_555
C52A C55A 1_555 1_555
C53A C54A 1_555 1_555
C48A_2 C49A_2 1_555 1_555
C50A_2 C51A_2 1_555 1_555
C52A_2 C53A_2 1_555 1_555
C53A_2 C54A_2 1_555 1_555
C55A_2 C55_2 1_555 1_555
C37_2 C54_2 1_555 1_555
C48_2 C49_2 1_555 1_555
C50_2 C51_2 1_555 1_555
C52_2 C53_2 1_555 1_555
C52_2 C55_2 1_555 1_555
C53_2 C54_2 1_555 1_555

#END
