
#######################################################################
#
#                 Cambridge Crystallographic Data Centre
#                                CCDC 
#
#######################################################################
#
# If this CIF has been generated from an entry in the Cambridge 
# Structural Database, then it will include bibliographic, chemical, 
# crystal, experimental, refinement or atomic coordinate data resulting 
# from the CCDC's data processing and validation procedures.
#
#######################################################################

data_QALNEY
_chemical_compound_source        'soft coral Asterospicularia laurae'
_chemical_name_common            'Asterolaurin A'
_chemical_formula_moiety         'C26 H36 O9'
_chemical_name_systematic        
'(4S,5R)-5-((1aS,3aS,7R,7aR,10R,10aS)-7-Acetoxy-10-hydroxy-1a-methyl-8-methylene-1a,2,3,3a,7,7a,8,9,10,10a-decahydrooxireno[5,6]cyclonona[1,2-c]pyran-4-yl)-2-methylpent-2-ene-4,5-diyl diacetate'
_chemical_properties_biological  'cytotoxic activity'
_symmetry_cell_setting           orthorhombic
_symmetry_space_group_name_H-M   'P 21 21 21'
_symmetry_Int_Tables_number      19
_space_group_name_Hall           'P 2ac 2ab'
loop_
_symmetry_equiv_pos_site_id
_symmetry_equiv_pos_as_xyz
1 x,y,z
2 1/2-x,-y,1/2+z
3 -x,1/2+y,1/2-z
4 1/2+x,1/2-y,-z
_cell_length_a                   11.856(2)
_cell_length_b                   13.164(3)
_cell_length_c                   17.373(4)
_cell_angle_alpha                90
_cell_angle_beta                 90
_cell_angle_gamma                90
_cell_volume                     2711.45
_exptl_crystal_colour            colorless
_exptl_crystal_description       prism
_chemical_melting_point          '138-140 deg.C'
_cell_formula_units_Z            4
_exptl_crystal_recrystallization_method dichloromethane/methanol
loop_
_atom_site_label
_atom_site_type_symbol
_atom_site_fract_x
_atom_site_fract_y
_atom_site_fract_z
O1 O 1.00822(14) 0.82148(11) 0.72462(9)
O2 O 0.57939(13) 1.10304(12) 0.85382(11)
O3 O 0.49586(15) 0.87045(14) 0.83870(14)
H1 H 0.5082 0.8865 0.8835
O4 O 0.96998(12) 0.96953(12) 0.65775(8)
O5 O 1.0199(3) 0.8741(2) 0.55685(14)
O6 O 1.13564(10) 1.04198(11) 0.90339(8)
O7 O 1.29168(13) 0.95505(15) 0.87948(14)
O8 O 0.93291(12) 0.87426(10) 0.99217(8)
O9 O 0.79174(17) 0.96666(17) 1.03992(13)
C1 C 0.92160(18) 0.88199(16) 0.69377(12)
H2 H 0.8810 0.8425 0.6548
C2 C 1.05237(18) 0.85474(16) 0.79248(13)
H3 H 1.1204 0.8259 0.8077
C3 C 1.00856(15) 0.92364(13) 0.83896(11)
C4 C 0.89649(15) 1.08916(13) 0.81792(13)
H4 H 0.9588 1.1151 0.8483
H5 H 0.9090 1.1089 0.7648
C5 C 0.78635(16) 1.13750(14) 0.84644(13)
H6 H 0.7791 1.1242 0.9011
H7 H 0.7917 1.2105 0.8399
C6 C 0.67991(16) 1.10066(15) 0.80638(13)
C7 C 0.62911(16) 1.00608(16) 0.83501(13)
H8 H 0.6707 0.9749 0.8777
C8 C 0.56131(18) 0.93228(18) 0.78884(16)
H9 H 0.5106 0.9701 0.7548
C9 C 0.63374(19) 0.8609(2) 0.74025(16)
H10 H 0.5945 0.7966 0.7352
H11 H 0.6413 0.8896 0.6891
C10 C 0.75044(18) 0.84068(15) 0.77199(13)
C11 C 1.07219(15) 0.94729(13) 0.91177(12)
H12 H 1.1255 0.8920 0.9218
C12 C 1.00206(16) 0.96507(14) 0.98431(11)
H13 H 0.9539 1.0249 0.9777
C13 C 1.07456(19) 0.97747(16) 1.05381(12)
H14 H 1.1023 0.9181 1.0758
C14 C 1.10389(19) 1.06363(17) 1.08780(14)
C15 C 1.1851(2) 1.0649(3) 1.15368(17)
H15 H 1.1981 0.9967 1.1711
H16 H 1.1542 1.1045 1.1950
H17 H 1.2551 1.0945 1.1372
C16 C 1.0624(3) 1.16618(19) 1.0621(2)
H18 H 0.9976 1.1578 1.0297
H19 H 1.1210 1.2002 1.0340
H20 H 1.0423 1.2060 1.1063
C17 C 0.6617(2) 1.1402(2) 0.72681(16)
H21 H 0.6513 1.2125 0.7287
H22 H 0.5958 1.1090 0.7050
H23 H 0.7262 1.1246 0.6956
C18 C 0.7761(3) 0.75946(19) 0.81160(17)
H24 H 0.7213 0.7106 0.8215
H25 H 0.8491 0.7505 0.8299
C19 C 1.0122(3) 0.9555(3) 0.58558(15)
C20 C 1.24545(15) 1.03511(18) 0.88899(12)
C21 C 0.8292(2) 0.8864(2) 1.02172(14)
C22 C 1.0484(4) 1.0543(3) 0.5520(2)
H26 H 1.0174 1.0613 0.5013
H27 H 1.1292 1.0565 0.5493
H28 H 1.0219 1.1089 0.5839
C23 C 1.3001(2) 1.1370(2) 0.8878(2)
H29 H 1.3690 1.1334 0.8589
H30 H 1.3163 1.1580 0.9395
H31 H 1.2502 1.1852 0.8641
C24 C 0.7691(3) 0.7867(2) 1.02719(19)
H32 H 0.7669 0.7553 0.9773
H33 H 0.6936 0.7976 1.0453
H34 H 0.8084 0.7432 1.0625
C25 C 0.89505(14) 0.97172(12) 0.82334(10)
H35 H 0.8477 0.9552 0.8679
C26 C 0.83672(15) 0.92185(14) 0.75262(11)
H36 H 0.7950 0.9763 0.7268
loop_
_geom_bond_atom_site_label_1
_geom_bond_atom_site_label_2
_geom_bond_site_symmetry_1
_geom_bond_site_symmetry_2
O1 C1 1_555 1_555
O2 C6 1_555 1_555
O3 H1 1_555 1_555
O4 C1 1_555 1_555
O5 C19 1_555 1_555
O6 C11 1_555 1_555
O7 C20 1_555 1_555
O8 C12 1_555 1_555
O9 C21 1_555 1_555
C1 H2 1_555 1_555
C2 O1 1_555 1_555
H3 C2 1_555 1_555
C3 C2 1_555 1_555
C4 H4 1_555 1_555
H5 C4 1_555 1_555
C5 C4 1_555 1_555
H6 C5 1_555 1_555
H7 C5 1_555 1_555
C6 C5 1_555 1_555
C7 O2 1_555 1_555
H8 C7 1_555 1_555
C8 O3 1_555 1_555
H9 C8 1_555 1_555
C9 C8 1_555 1_555
H10 C9 1_555 1_555
H11 C9 1_555 1_555
C10 C9 1_555 1_555
C11 C3 1_555 1_555
H12 C11 1_555 1_555
C12 C11 1_555 1_555
H13 C12 1_555 1_555
C13 C12 1_555 1_555
H14 C13 1_555 1_555
C14 C13 1_555 1_555
C15 C14 1_555 1_555
H15 C15 1_555 1_555
H16 C15 1_555 1_555
H17 C15 1_555 1_555
C16 C14 1_555 1_555
H18 C16 1_555 1_555
H19 C16 1_555 1_555
H20 C16 1_555 1_555
C17 C6 1_555 1_555
H21 C17 1_555 1_555
H22 C17 1_555 1_555
H23 C17 1_555 1_555
C18 C10 1_555 1_555
H24 C18 1_555 1_555
H25 C18 1_555 1_555
C19 O4 1_555 1_555
C20 O6 1_555 1_555
C21 O8 1_555 1_555
C22 C19 1_555 1_555
H26 C22 1_555 1_555
H27 C22 1_555 1_555
H28 C22 1_555 1_555
C23 C20 1_555 1_555
H29 C23 1_555 1_555
H30 C23 1_555 1_555
H31 C23 1_555 1_555
C24 C21 1_555 1_555
H32 C24 1_555 1_555
H33 C24 1_555 1_555
H34 C24 1_555 1_555
C25 C3 1_555 1_555
H35 C25 1_555 1_555
C26 C1 1_555 1_555
H36 C26 1_555 1_555
C4 C25 1_555 1_555
C6 C7 1_555 1_555
C7 C8 1_555 1_555
C10 C26 1_555 1_555
C25 C26 1_555 1_555

#END
