
#######################################################################
#
#                 Cambridge Crystallographic Data Centre
#                                CCDC 
#
#######################################################################
#
# If this CIF has been generated from an entry in the Cambridge 
# Structural Database, then it will include bibliographic, chemical, 
# crystal, experimental, refinement or atomic coordinate data resulting 
# from the CCDC's data processing and validation procedures.
#
#######################################################################

data_QALTEF
_chemical_formula_moiety         'C54 H54 B2 F4 N4'
_chemical_name_systematic        
9,19-bis(4-t-butylphenyl)-3,7,13,17-tetraethyl-5,5,15,15-tetrafluoro-5,15-diborata-5,15-dihydrotetrapyrrolo[1,2-c:1,2-c':3,2,1-ij:3,2,1-i'j']benzo[1,2-f:4,5-f']diquinazoline-6,16-diium
_symmetry_cell_setting           monoclinic
_symmetry_space_group_name_H-M   'P 21/n'
_symmetry_Int_Tables_number      14
_space_group_name_Hall           '-P 2yn'
loop_
_symmetry_equiv_pos_site_id
_symmetry_equiv_pos_as_xyz
1 x,y,z
2 1/2-x,1/2+y,1/2-z
3 -x,-y,-z
4 1/2+x,1/2-y,1/2+z
_cell_length_a                   9.3332(3)
_cell_length_b                   14.5978(4)
_cell_length_c                   16.0008(4)
_cell_angle_alpha                90
_cell_angle_beta                 105.781(7)
_cell_angle_gamma                90
_cell_volume                     2097.85
_exptl_crystal_colour            black
_exptl_crystal_description       needle
_cell_formula_units_Z            2
loop_
_atom_site_label
_atom_site_type_symbol
_atom_site_fract_x
_atom_site_fract_y
_atom_site_fract_z
F1 F 0.62389(16) 0.52929(10) 0.28732(9)
F2 F 0.43522(15) 0.44328(10) 0.20506(10)
N1 N 0.6819(2) 0.40924(13) 0.19675(12)
N2 N 0.5541(2) 0.55232(13) 0.13293(12)
C1 C 0.7153(3) 0.32457(15) 0.23555(15)
C2 C 0.8247(3) 0.28288(16) 0.20622(15)
H1 H 0.8667 0.2241 0.2227
C3 C 0.8630(3) 0.34404(16) 0.14663(14)
C4 C 0.9688(3) 0.34191(15) 0.09846(15)
C5 C 0.9812(3) 0.42053(15) 0.04814(14)
C6 C 0.9130(3) 0.57612(15) -0.00026(14)
H2 H 0.8565 0.6298 0.0016
C7 C 0.8855(3) 0.49957(15) 0.04455(14)
C8 C 0.7678(3) 0.49781(15) 0.08836(14)
C9 C 0.7711(3) 0.42167(16) 0.14252(15)
C10 C 0.6493(3) 0.56052(16) 0.07824(15)
C11 C 0.5914(3) 0.63119(16) 0.01860(15)
H3 H 0.6310 0.6511 -0.0271
C12 C 0.4670(3) 0.66648(17) 0.03823(16)
H4 H 0.4069 0.7156 0.0091
C13 C 0.4455(3) 0.61669(16) 0.10895(15)
C14 C 0.6441(3) 0.28890(17) 0.30268(15)
H5 H 0.6639 0.2223 0.3097
H6 H 0.5350 0.2970 0.2807
C15 C 0.6962(3) 0.33402(17) 0.39140(15)
H7 H 0.6463 0.3052 0.4312
H8 H 0.6716 0.3994 0.3861
H9 H 0.8041 0.3265 0.4141
C16 C 1.0675(3) 0.26106(15) 0.10689(14)
C17 C 1.0101(3) 0.17351(16) 0.09248(15)
H10 H 0.9053 0.1650 0.0777
C18 C 1.1021(3) 0.09802(16) 0.09908(15)
H11 H 1.0590 0.0387 0.0881
C19 C 1.2571(3) 0.10700(16) 0.12152(15)
C20 C 1.3135(3) 0.19524(16) 0.13869(15)
H12 H 1.4183 0.2038 0.1556
C21 C 1.2219(3) 0.27084(16) 0.13203(15)
H13 H 1.2646 0.3300 0.1447
C22 C 1.3575(3) 0.02245(17) 0.13071(16)
C23 C 1.3040(4) -0.04050(19) 0.05357(17)
H14 H 1.3740 -0.0916 0.0584
H15 H 1.2981 -0.0064 0.0000
H16 H 1.2053 -0.0644 0.0523
C24 C 1.3567(4) -0.0265(2) 0.21386(18)
H17 H 1.4188 -0.0815 0.2202
H18 H 1.2544 -0.0440 0.2119
H19 H 1.3962 0.0143 0.2634
C25 C 1.5179(4) 0.0485(2) 0.1373(3)
H20 H 1.5776 -0.0072 0.1397
H21 H 1.5581 0.0846 0.1902
H22 H 1.5216 0.0849 0.0865
C26 C 0.3253(3) 0.62733(17) 0.15326(16)
H23 H 0.3697 0.6222 0.2167
H24 H 0.2534 0.5764 0.1352
C27 C 0.2416(3) 0.71732(18) 0.13424(17)
H25 H 0.2035 0.7254 0.0713
H26 H 0.3090 0.7679 0.1587
H27 H 0.1582 0.7168 0.1605
B1 B 0.5707(3) 0.48382(19) 0.20862(18)
F1B F 1.37611(16) 0.47071(10) -0.28732(9)
F2B F 1.56478(15) 0.55672(10) -0.20506(10)
N1B N 1.3181(2) 0.59076(13) -0.19675(12)
N2B N 1.4459(2) 0.44768(13) -0.13293(12)
C1B C 1.2847(3) 0.67543(15) -0.23555(15)
C2B C 1.1753(3) 0.71712(16) -0.20622(15)
H1B H 1.1333 0.7759 -0.2227
C3B C 1.1370(3) 0.65596(16) -0.14663(14)
C4B C 1.0312(3) 0.65809(15) -0.09846(15)
C5B C 1.0188(3) 0.57947(15) -0.04814(14)
C6B C 1.0870(3) 0.42388(15) 0.00026(14)
H2B H 1.1435 0.3702 -0.0016
C7B C 1.1145(3) 0.50043(15) -0.04455(14)
C8B C 1.2322(3) 0.50219(15) -0.08836(14)
C9B C 1.2289(3) 0.57833(16) -0.14252(15)
C10B C 1.3507(3) 0.43948(16) -0.07824(15)
C11B C 1.4086(3) 0.36881(16) -0.01860(15)
H3B H 1.3690 0.3489 0.0271
C12B C 1.5330(3) 0.33352(17) -0.03823(16)
H4B H 1.5931 0.2844 -0.0091
C13B C 1.5545(3) 0.38331(16) -0.10895(15)
C14B C 1.3559(3) 0.71110(17) -0.30268(15)
H5B H 1.3361 0.7777 -0.3097
H6B H 1.4650 0.7030 -0.2807
C15B C 1.3038(3) 0.66598(17) -0.39140(15)
H7B H 1.3537 0.6948 -0.4312
H8B H 1.3284 0.6006 -0.3861
H9B H 1.1959 0.6735 -0.4141
C16B C 0.9325(3) 0.73894(15) -0.10689(14)
C17B C 0.9899(3) 0.82649(16) -0.09248(15)
H10B H 1.0947 0.8350 -0.0777
C18B C 0.8979(3) 0.90198(16) -0.09908(15)
H11B H 0.9410 0.9613 -0.0881
C19B C 0.7429(3) 0.89300(16) -0.12152(15)
C20B C 0.6865(3) 0.80476(16) -0.13869(15)
H12B H 0.5817 0.7962 -0.1556
C21B C 0.7781(3) 0.72916(16) -0.13203(15)
H13B H 0.7354 0.6700 -0.1447
C22B C 0.6425(3) 0.97755(17) -0.13071(16)
C23B C 0.6960(4) 1.04050(19) -0.05357(17)
H14B H 0.6260 1.0916 -0.0584
H15B H 0.7019 1.0064 0.0000
H16B H 0.7947 1.0644 -0.0523
C24B C 0.6433(4) 1.0265(2) -0.21386(18)
H17B H 0.5812 1.0815 -0.2202
H18B H 0.7456 1.0440 -0.2119
H19B H 0.6038 0.9857 -0.2634
C25B C 0.4821(4) 0.9515(2) -0.1373(3)
H20B H 0.4224 1.0072 -0.1397
H21B H 0.4419 0.9154 -0.1902
H22B H 0.4784 0.9151 -0.0865
C26B C 1.6747(3) 0.37267(17) -0.15326(16)
H23B H 1.6303 0.3778 -0.2167
H24B H 1.7466 0.4236 -0.1352
C27B C 1.7584(3) 0.28268(18) -0.13424(17)
H25B H 1.7965 0.2746 -0.0713
H26B H 1.6910 0.2321 -0.1587
H27B H 1.8418 0.2832 -0.1605
B1B B 1.4293(3) 0.51618(19) -0.20862(18)
loop_
_geom_bond_atom_site_label_1
_geom_bond_atom_site_label_2
_geom_bond_site_symmetry_1
_geom_bond_site_symmetry_2
F1 B1 1_555 1_555
F2 B1 1_555 1_555
N1 C1 1_555 1_555
N2 C10 1_555 1_555
C1 C2 1_555 1_555
C2 H1 1_555 1_555
C3 C2 1_555 1_555
C4 C3 1_555 1_555
C5 C4 1_555 1_555
C6 H2 1_555 1_555
C7 C5 1_555 1_555
C8 C7 1_555 1_555
C9 N1 1_555 1_555
C10 C8 1_555 1_555
C11 C10 1_555 1_555
H3 C11 1_555 1_555
C12 C11 1_555 1_555
H4 C12 1_555 1_555
C13 N2 1_555 1_555
C14 C1 1_555 1_555
H5 C14 1_555 1_555
H6 C14 1_555 1_555
C15 C14 1_555 1_555
H7 C15 1_555 1_555
H8 C15 1_555 1_555
H9 C15 1_555 1_555
C16 C4 1_555 1_555
C17 C16 1_555 1_555
H10 C17 1_555 1_555
C18 C17 1_555 1_555
H11 C18 1_555 1_555
C19 C18 1_555 1_555
C20 C19 1_555 1_555
H12 C20 1_555 1_555
C21 C16 1_555 1_555
H13 C21 1_555 1_555
C22 C19 1_555 1_555
C23 C22 1_555 1_555
H14 C23 1_555 1_555
H15 C23 1_555 1_555
H16 C23 1_555 1_555
C24 C22 1_555 1_555
H17 C24 1_555 1_555
H18 C24 1_555 1_555
H19 C24 1_555 1_555
C25 C22 1_555 1_555
H20 C25 1_555 1_555
H21 C25 1_555 1_555
H22 C25 1_555 1_555
C26 C13 1_555 1_555
H23 C26 1_555 1_555
H24 C26 1_555 1_555
C27 C26 1_555 1_555
H25 C27 1_555 1_555
H26 C27 1_555 1_555
H27 C27 1_555 1_555
B1 N1 1_555 1_555
F1B B1B 1_555 1_555
F2B B1B 1_555 1_555
N1B C1B 1_555 1_555
N2B C10B 1_555 1_555
C1B C2B 1_555 1_555
C2B H1B 1_555 1_555
C3B C2B 1_555 1_555
C4B C3B 1_555 1_555
C5B C6 1_555 1_555
C6B C5 1_555 1_555
H2B C6B 1_555 1_555
C7B C5B 1_555 1_555
C8B C7B 1_555 1_555
C9B N1B 1_555 1_555
C10B C8B 1_555 1_555
C11B C10B 1_555 1_555
H3B C11B 1_555 1_555
C12B C11B 1_555 1_555
H4B C12B 1_555 1_555
C13B N2B 1_555 1_555
C14B C1B 1_555 1_555
H5B C14B 1_555 1_555
H6B C14B 1_555 1_555
C15B C14B 1_555 1_555
H7B C15B 1_555 1_555
H8B C15B 1_555 1_555
H9B C15B 1_555 1_555
C16B C4B 1_555 1_555
C17B C16B 1_555 1_555
H10B C17B 1_555 1_555
C18B C17B 1_555 1_555
H11B C18B 1_555 1_555
C19B C18B 1_555 1_555
C20B C19B 1_555 1_555
H12B C20B 1_555 1_555
C21B C16B 1_555 1_555
H13B C21B 1_555 1_555
C22B C19B 1_555 1_555
C23B C22B 1_555 1_555
H14B C23B 1_555 1_555
H15B C23B 1_555 1_555
H16B C23B 1_555 1_555
C24B C22B 1_555 1_555
H17B C24B 1_555 1_555
H18B C24B 1_555 1_555
H19B C24B 1_555 1_555
C25B C22B 1_555 1_555
H20B C25B 1_555 1_555
H21B C25B 1_555 1_555
H22B C25B 1_555 1_555
C26B C13B 1_555 1_555
H23B C26B 1_555 1_555
H24B C26B 1_555 1_555
C27B C26B 1_555 1_555
H25B C27B 1_555 1_555
H26B C27B 1_555 1_555
H27B C27B 1_555 1_555
B1B N1B 1_555 1_555
N2 B1 1_555 1_555
C3 C9 1_555 1_555
C6 C7 1_555 1_555
C8 C9 1_555 1_555
C12 C13 1_555 1_555
C20 C21 1_555 1_555
N2B B1B 1_555 1_555
C3B C9B 1_555 1_555
C4B C5B 1_555 1_555
C6B C7B 1_555 1_555
C8B C9B 1_555 1_555
C12B C13B 1_555 1_555
C20B C21B 1_555 1_555

#END
