
#######################################################################
#
#                 Cambridge Crystallographic Data Centre
#                                CCDC 
#
#######################################################################
#
# If this CIF has been generated from an entry in the Cambridge 
# Structural Database, then it will include bibliographic, chemical, 
# crystal, experimental, refinement or atomic coordinate data resulting 
# from the CCDC's data processing and validation procedures.
#
#######################################################################

data_QALTAB
_chemical_formula_moiety         'C54 H54 B2 F4 N4'
_chemical_name_systematic        
9,11-bis(4-t-butylphenyl)-3,7,13,17-tetraethyl-5,5,15,15-tetrafluoro-5,15-diborata-5,15-dihydrotetrapyrrolo[1,2-c:1,2-c':3,2,1-ij:3,2,1-i'j']benzo[1,2-f:5,4-f']diquinazoline-6,14-diium
_symmetry_cell_setting           monoclinic
_symmetry_space_group_name_H-M   'I 2/a'
_symmetry_Int_Tables_number      15
_space_group_name_Hall           '-I 2ya'
loop_
_symmetry_equiv_pos_site_id
_symmetry_equiv_pos_as_xyz
1 x,y,z
2 1/2-x,y,-z
3 1/2+x,1/2+y,1/2+z
4 -x,1/2+y,1/2-z
5 -x,-y,-z
6 1/2+x,-y,z
7 1/2-x,1/2-y,1/2-z
8 x,1/2-y,1/2+z
_cell_length_a                   10.506(7)
_cell_length_b                   19.905(14)
_cell_length_c                   21.084(14)
_cell_angle_alpha                90
_cell_angle_beta                 96.936(13)
_cell_angle_gamma                90
_cell_volume                     4376.86
_exptl_crystal_colour            green
_exptl_crystal_description       prism
_cell_formula_units_Z            4
loop_
_atom_site_label
_atom_site_type_symbol
_atom_site_fract_x
_atom_site_fract_y
_atom_site_fract_z
B1 B -0.0282(7) 1.1242(3) 0.1915(3)
C1 C 0.1184(6) 1.2249(3) 0.1712(3)
C2 C 0.2184(6) 1.2389(3) 0.1360(3)
H1 H 0.2634 1.2803 0.1358
C3 C 0.2415(6) 1.1821(3) 0.1010(3)
H2 H 0.3052 1.1773 0.0729
C4 C 0.1528(6) 1.1328(3) 0.1149(3)
C5 C 0.1349(6) 1.0642(3) 0.0967(2)
C6 C 0.0561(6) 1.0249(3) 0.1319(3)
C7 C 0.0401(6) 0.9546(3) 0.1261(3)
C8 C -0.0437(5) 0.9371(3) 0.1720(2)
H3 H -0.0715 0.8931 0.1809
C9 C -0.0771(6) 0.9950(3) 0.2009(3)
C10 C 0.0587(7) 1.2710(3) 0.2150(3)
H4 H 0.1216 1.3062 0.2303
H5 H 0.0386 1.2452 0.2526
C11 C -0.0632(7) 1.3047(3) 0.1840(3)
H6 H -0.0442 1.3306 0.1468
H7 H -0.0965 1.3348 0.2149
H8 H -0.1275 1.2703 0.1704
C12 C -0.1662(7) 1.0060(3) 0.2503(3)
H9 H -0.1231 1.0359 0.2838
H10 H -0.2431 1.0299 0.2299
C13 C -0.2091(7) 0.9448(3) 0.2817(3)
H11 H -0.2512 0.9143 0.2492
H12 H -0.2697 0.9573 0.3115
H13 H -0.1347 0.9223 0.3051
C14 C 0.1001(6) 0.9185(3) 0.0814(3)
C15 C 0.1777(6) 0.9566(3) 0.0423(2)
C16 C 0.1902(6) 1.0288(3) 0.0467(3)
C17 C 0.2500 1.0608(4) 0.0000
H14 H 0.2500 1.1085 0.0000
C18 C 0.2500 0.9238(4) 0.0000
H15 H 0.2500 0.8761 0.0000
C19 C 0.0805(6) 0.8456(3) 0.0727(3)
C20 C 0.0903(6) 0.8026(3) 0.1257(3)
H16 H 0.1106 0.8207 0.1674
C21 C 0.0710(6) 0.7344(3) 0.1182(3)
H17 H 0.0794 0.7062 0.1548
C22 C 0.0391(6) 0.7058(3) 0.0573(3)
C23 C 0.0280(6) 0.7491(3) 0.0057(3)
H18 H 0.0054 0.7315 -0.0360
C24 C 0.0489(6) 0.8172(3) 0.0130(3)
H19 H 0.0414 0.8452 -0.0237
C25 C 0.0204(6) 0.6297(3) 0.0503(3)
C26 C -0.0910(7) 0.6063(3) 0.0853(3)
H20 H -0.0991 0.5574 0.0820
H21 H -0.1706 0.6274 0.0660
H22 H -0.0746 0.6192 0.1304
C27 C -0.0064(7) 0.6078(3) -0.0195(3)
H23 H 0.0643 0.6222 -0.0427
H24 H -0.0865 0.6283 -0.0390
H25 H -0.0142 0.5587 -0.0217
C28 C 0.1449(7) 0.5949(3) 0.0797(3)
H26 H 0.1619 0.6063 0.1251
H27 H 0.2165 0.6101 0.0575
H28 H 0.1353 0.5461 0.0750
F1 F -0.0096(5) 1.13423(19) 0.25660(18)
F2 F -0.1463(4) 1.14597(19) 0.1666(3)
N1 N 0.0787(5) 1.1596(2) 0.1594(2)
N2 N -0.0131(5) 1.0490(2) 0.1766(2)
B1A B 0.5282(7) 1.1242(3) -0.1915(3)
C1A C 0.3816(6) 1.2249(3) -0.1712(3)
C2A C 0.2816(6) 1.2389(3) -0.1360(3)
H1A H 0.2366 1.2803 -0.1358
C3A C 0.2585(6) 1.1821(3) -0.1010(3)
H2A H 0.1948 1.1773 -0.0729
C4A C 0.3472(6) 1.1328(3) -0.1149(3)
C5A C 0.3651(6) 1.0642(3) -0.0967(2)
C6A C 0.4439(6) 1.0249(3) -0.1319(3)
C7A C 0.4599(6) 0.9546(3) -0.1261(3)
C8A C 0.5437(5) 0.9371(3) -0.1720(2)
H3A H 0.5715 0.8931 -0.1809
C9A C 0.5771(6) 0.9950(3) -0.2009(3)
C10A C 0.4413(7) 1.2710(3) -0.2150(3)
H4A H 0.3784 1.3062 -0.2303
H5A H 0.4614 1.2452 -0.2526
C11A C 0.5632(7) 1.3047(3) -0.1840(3)
H6A H 0.5442 1.3306 -0.1468
H7A H 0.5965 1.3348 -0.2149
H8A H 0.6275 1.2703 -0.1704
C12A C 0.6662(7) 1.0060(3) -0.2503(3)
H9A H 0.6231 1.0359 -0.2838
H10A H 0.7431 1.0299 -0.2299
C13A C 0.7091(7) 0.9448(3) -0.2817(3)
H11A H 0.7512 0.9143 -0.2492
H12A H 0.7697 0.9573 -0.3115
H13A H 0.6347 0.9223 -0.3051
C14A C 0.3999(6) 0.9185(3) -0.0814(3)
C15A C 0.3223(6) 0.9566(3) -0.0423(2)
C16A C 0.3098(6) 1.0288(3) -0.0467(3)
C19A C 0.4195(6) 0.8456(3) -0.0727(3)
C20A C 0.4097(6) 0.8026(3) -0.1257(3)
H16A H 0.3894 0.8207 -0.1674
C21A C 0.4290(6) 0.7344(3) -0.1182(3)
H17A H 0.4206 0.7062 -0.1548
C22A C 0.4609(6) 0.7058(3) -0.0573(3)
C23A C 0.4720(6) 0.7491(3) -0.0057(3)
H18A H 0.4946 0.7315 0.0360
C24A C 0.4511(6) 0.8172(3) -0.0130(3)
H19A H 0.4586 0.8452 0.0237
C25A C 0.4796(6) 0.6297(3) -0.0503(3)
C26A C 0.5910(7) 0.6063(3) -0.0853(3)
H20A H 0.5991 0.5574 -0.0820
H21A H 0.6706 0.6274 -0.0660
H22A H 0.5746 0.6192 -0.1304
C27A C 0.5064(7) 0.6078(3) 0.0195(3)
H23A H 0.4357 0.6222 0.0427
H24A H 0.5865 0.6283 0.0390
H25A H 0.5142 0.5587 0.0217
C28A C 0.3551(7) 0.5949(3) -0.0797(3)
H26A H 0.3381 0.6063 -0.1251
H27A H 0.2835 0.6101 -0.0575
H28A H 0.3647 0.5461 -0.0750
F1A F 0.5096(5) 1.13423(19) -0.25660(18)
F2A F 0.6463(4) 1.14597(19) -0.1666(3)
N1A N 0.4213(5) 1.1596(2) -0.1594(2)
N2A N 0.5131(5) 1.0490(2) -0.1766(2)
loop_
_geom_bond_atom_site_label_1
_geom_bond_atom_site_label_2
_geom_bond_site_symmetry_1
_geom_bond_site_symmetry_2
B1 F1 1_555 1_555
C1 C2 1_555 1_555
C2 H1 1_555 1_555
C3 C2 1_555 1_555
H2 C3 1_555 1_555
C4 C3 1_555 1_555
C5 C4 1_555 1_555
C6 C5 1_555 1_555
C7 C6 1_555 1_555
C8 C7 1_555 1_555
H3 C8 1_555 1_555
C9 C8 1_555 1_555
C10 C1 1_555 1_555
H4 C10 1_555 1_555
H5 C10 1_555 1_555
C11 C10 1_555 1_555
H6 C11 1_555 1_555
H7 C11 1_555 1_555
H8 C11 1_555 1_555
C12 C9 1_555 1_555
H9 C12 1_555 1_555
H10 C12 1_555 1_555
C13 C12 1_555 1_555
H11 C13 1_555 1_555
H12 C13 1_555 1_555
H13 C13 1_555 1_555
C14 C7 1_555 1_555
C15 C14 1_555 1_555
C16 C5 1_555 1_555
C17 C16 1_555 1_555
H14 C17 1_555 1_555
C18 C15 1_555 1_555
H15 C18 1_555 1_555
C19 C14 1_555 1_555
C20 C19 1_555 1_555
H16 C20 1_555 1_555
C21 C20 1_555 1_555
H17 C21 1_555 1_555
C22 C21 1_555 1_555
C23 C22 1_555 1_555
H18 C23 1_555 1_555
C24 C19 1_555 1_555
H19 C24 1_555 1_555
C25 C22 1_555 1_555
C26 C25 1_555 1_555
H20 C26 1_555 1_555
H21 C26 1_555 1_555
H22 C26 1_555 1_555
C27 C25 1_555 1_555
H23 C27 1_555 1_555
H24 C27 1_555 1_555
H25 C27 1_555 1_555
C28 C25 1_555 1_555
H26 C28 1_555 1_555
H27 C28 1_555 1_555
H28 C28 1_555 1_555
F2 B1 1_555 1_555
N1 B1 1_555 1_555
N2 B1 1_555 1_555
B1A F1A 1_555 1_555
C1A C2A 1_555 1_555
C2A H1A 1_555 1_555
C3A C2A 1_555 1_555
H2A C3A 1_555 1_555
C4A C3A 1_555 1_555
C5A C4A 1_555 1_555
C6A C5A 1_555 1_555
C7A C6A 1_555 1_555
C8A C7A 1_555 1_555
H3A C8A 1_555 1_555
C9A C8A 1_555 1_555
C10A C1A 1_555 1_555
H4A C10A 1_555 1_555
H5A C10A 1_555 1_555
C11A C10A 1_555 1_555
H6A C11A 1_555 1_555
H7A C11A 1_555 1_555
H8A C11A 1_555 1_555
C12A C9A 1_555 1_555
H9A C12A 1_555 1_555
H10A C12A 1_555 1_555
C13A C12A 1_555 1_555
H11A C13A 1_555 1_555
H12A C13A 1_555 1_555
H13A C13A 1_555 1_555
C14A C7A 1_555 1_555
C15A C18 1_555 1_555
C16A C17 1_555 1_555
C19A C14A 1_555 1_555
C20A C19A 1_555 1_555
H16A C20A 1_555 1_555
C21A C20A 1_555 1_555
H17A C21A 1_555 1_555
C22A C21A 1_555 1_555
C23A C22A 1_555 1_555
H18A C23A 1_555 1_555
C24A C19A 1_555 1_555
H19A C24A 1_555 1_555
C25A C22A 1_555 1_555
C26A C25A 1_555 1_555
H20A C26A 1_555 1_555
H21A C26A 1_555 1_555
H22A C26A 1_555 1_555
C27A C25A 1_555 1_555
H23A C27A 1_555 1_555
H24A C27A 1_555 1_555
H25A C27A 1_555 1_555
C28A C25A 1_555 1_555
H26A C28A 1_555 1_555
H27A C28A 1_555 1_555
H28A C28A 1_555 1_555
F2A B1A 1_555 1_555
N1A B1A 1_555 1_555
N2A B1A 1_555 1_555
C1 N1 1_555 1_555
C4 N1 1_555 1_555
C6 N2 1_555 1_555
C9 N2 1_555 1_555
C15 C16 1_555 1_555
C23 C24 1_555 1_555
C1A N1A 1_555 1_555
C4A N1A 1_555 1_555
C5A C16A 1_555 1_555
C6A N2A 1_555 1_555
C9A N2A 1_555 1_555
C14A C15A 1_555 1_555
C15A C16A 1_555 1_555
C23A C24A 1_555 1_555

#END
