
#######################################################################
#
#                 Cambridge Crystallographic Data Centre
#                                CCDC 
#
#######################################################################
#
# If this CIF has been generated from an entry in the Cambridge 
# Structural Database, then it will include bibliographic, chemical, 
# crystal, experimental, refinement or atomic coordinate data resulting 
# from the CCDC's data processing and validation procedures.
#
#######################################################################

data_QALXEJ
_chemical_formula_moiety         'C34 H38 N2'
_chemical_name_systematic        N,N,N',N'-tetrabenzylcyclohexane-1,2-diamine
_symmetry_cell_setting           monoclinic
_symmetry_space_group_name_H-M   'C 2/c'
_symmetry_Int_Tables_number      15
_space_group_name_Hall           '-C 2yn'
loop_
_symmetry_equiv_pos_site_id
_symmetry_equiv_pos_as_xyz
1 x,y,z
2 -x,y,1/2-z
3 1/2+x,1/2+y,z
4 1/2-x,1/2+y,1/2-z
5 -x,-y,-z
6 x,-y,1/2+z
7 1/2-x,1/2-y,-z
8 1/2+x,1/2-y,1/2+z
_cell_length_a                   17.33(3)
_cell_length_b                   11.523(17)
_cell_length_c                   14.65(2)
_cell_angle_alpha                90
_cell_angle_beta                 106.739(17)
_cell_angle_gamma                90
_cell_volume                     2801.55
_exptl_crystal_colour            colorless
_exptl_crystal_description       needle
_cell_formula_units_Z            4
loop_
_atom_site_label
_atom_site_type_symbol
_atom_site_fract_x
_atom_site_fract_y
_atom_site_fract_z
N1 N -0.07600(6) 0.47642(10) -0.32313(9)
C1 C -0.04583(8) 0.58646(12) -0.27496(11)
H1 H -0.0721 0.5960 -0.2245
C2 C -0.04497(10) 0.45240(13) -0.40499(12)
H2 H 0.0125 0.4680 -0.3868
H3 H -0.0708 0.5044 -0.4569
C3 C -0.20113(8) 0.47216(14) -0.27147(12)
C4 C -0.05947(9) 0.32955(14) -0.43901(12)
C5 C -0.16449(8) 0.47023(15) -0.35304(12)
H4 H -0.1810 0.3995 -0.3893
H5 H -0.1856 0.5352 -0.3949
C6 C -0.06618(10) 0.69585(13) -0.33754(13)
H6 H -0.0371 0.6938 -0.3851
H7 H -0.1234 0.6966 -0.3706
C7 C -0.02036(11) 0.23947(16) -0.38200(14)
H8 H 0.0148 0.2555 -0.3222
C8 C -0.18371(10) 0.38750(15) -0.20293(14)
H9 H -0.1471 0.3295 -0.2055
C9 C -0.04405(11) 0.80596(14) -0.27838(16)
H10 H -0.0551 0.8730 -0.3202
H11 H -0.0770 0.8120 -0.2352
C10 C -0.25601(10) 0.55670(16) -0.26493(15)
H12 H -0.2686 0.6156 -0.3102
C11 C -0.11140(11) 0.30310(18) -0.52721(14)
H13 H -0.1379 0.3626 -0.5668
C12 C -0.21992(13) 0.3869(2) -0.12944(16)
H14 H -0.2074 0.3290 -0.0832
C13 C -0.27391(12) 0.4717(2) -0.12573(18)
H15 H -0.2981 0.4717 -0.0767
C14 C -0.08525(19) 0.1019(2) -0.5011(3)
H16 H -0.0937 0.0256 -0.5221
C15 C -0.29239(13) 0.5556(2) -0.19303(19)
H17 H -0.3298 0.6126 -0.1907
C16 C -0.12447(15) 0.1897(3) -0.5574(2)
H18 H -0.1603 0.1731 -0.6166
C17 C -0.03294(15) 0.12588(18) -0.4128(2)
H19 H -0.0062 0.0658 -0.3741
N1A N 0.07600(6) 0.47642(10) -0.17687(9)
C1A C 0.04583(8) 0.58646(12) -0.22504(11)
H1A H 0.0721 0.5960 -0.2755
C2A C 0.04497(10) 0.45240(13) -0.09501(12)
H2A H -0.0125 0.4680 -0.1132
H3A H 0.0708 0.5044 -0.0431
C3A C 0.20113(8) 0.47216(14) -0.22853(12)
C4A C 0.05947(9) 0.32955(14) -0.06099(12)
C5A C 0.16449(8) 0.47023(15) -0.14696(12)
H4A H 0.1810 0.3995 -0.1107
H5A H 0.1856 0.5352 -0.1051
C6A C 0.06618(10) 0.69585(13) -0.16246(13)
H6A H 0.0371 0.6938 -0.1149
H7A H 0.1234 0.6966 -0.1294
C7A C 0.02036(11) 0.23947(16) -0.11800(14)
H8A H -0.0148 0.2555 -0.1778
C8A C 0.18371(10) 0.38750(15) -0.29707(14)
H9A H 0.1471 0.3295 -0.2945
C9A C 0.04405(11) 0.80596(14) -0.22162(16)
H10A H 0.0551 0.8730 -0.1798
H11A H 0.0770 0.8120 -0.2648
C10A C 0.25601(10) 0.55670(16) -0.23507(15)
H12A H 0.2686 0.6156 -0.1898
C11A C 0.11140(11) 0.30310(18) 0.02721(14)
H13A H 0.1379 0.3626 0.0668
C12A C 0.21992(13) 0.3869(2) -0.37056(16)
H14A H 0.2074 0.3290 -0.4168
C13A C 0.27391(12) 0.4717(2) -0.37427(18)
H15A H 0.2981 0.4717 -0.4233
C14A C 0.08525(19) 0.1019(2) 0.0011(3)
H16A H 0.0937 0.0256 0.0221
C15A C 0.29239(13) 0.5556(2) -0.30697(19)
H17A H 0.3298 0.6126 -0.3093
C16A C 0.12447(15) 0.1897(3) 0.0574(2)
H18A H 0.1603 0.1731 0.1166
C17A C 0.03294(15) 0.12588(18) -0.0872(2)
H19A H 0.0062 0.0658 -0.1259
loop_
_geom_bond_atom_site_label_1
_geom_bond_atom_site_label_2
_geom_bond_site_symmetry_1
_geom_bond_site_symmetry_2
N1 C1 1_555 1_555
C1 H1 1_555 1_555
C2 N1 1_555 1_555
H2 C2 1_555 1_555
H3 C2 1_555 1_555
C3 C5 1_555 1_555
C4 C2 1_555 1_555
C5 N1 1_555 1_555
H4 C5 1_555 1_555
H5 C5 1_555 1_555
C6 C1 1_555 1_555
H6 C6 1_555 1_555
H7 C6 1_555 1_555
C7 C4 1_555 1_555
H8 C7 1_555 1_555
C8 C3 1_555 1_555
H9 C8 1_555 1_555
C9 C6 1_555 1_555
H10 C9 1_555 1_555
H11 C9 1_555 1_555
C10 C3 1_555 1_555
H12 C10 1_555 1_555
C11 C4 1_555 1_555
H13 C11 1_555 1_555
C12 C8 1_555 1_555
H14 C12 1_555 1_555
C13 C12 1_555 1_555
H15 C13 1_555 1_555
C14 H16 1_555 1_555
C15 C10 1_555 1_555
H17 C15 1_555 1_555
C16 C11 1_555 1_555
H18 C16 1_555 1_555
C17 C7 1_555 1_555
H19 C17 1_555 1_555
N1A C1A 1_555 1_555
C1A C1 1_555 1_555
H1A C1A 1_555 1_555
C2A N1A 1_555 1_555
H2A C2A 1_555 1_555
H3A C2A 1_555 1_555
C3A C5A 1_555 1_555
C4A C2A 1_555 1_555
C5A N1A 1_555 1_555
H4A C5A 1_555 1_555
H5A C5A 1_555 1_555
C6A C1A 1_555 1_555
H6A C6A 1_555 1_555
H7A C6A 1_555 1_555
C7A C4A 1_555 1_555
H8A C7A 1_555 1_555
C8A C3A 1_555 1_555
H9A C8A 1_555 1_555
C9A C9 1_555 1_555
H10A C9A 1_555 1_555
H11A C9A 1_555 1_555
C10A C3A 1_555 1_555
H12A C10A 1_555 1_555
C11A C4A 1_555 1_555
H13A C11A 1_555 1_555
C12A C8A 1_555 1_555
H14A C12A 1_555 1_555
C13A C12A 1_555 1_555
H15A C13A 1_555 1_555
C14A H16A 1_555 1_555
C15A C10A 1_555 1_555
H17A C15A 1_555 1_555
C16A C11A 1_555 1_555
H18A C16A 1_555 1_555
C17A C7A 1_555 1_555
H19A C17A 1_555 1_555
C13 C15 1_555 1_555
C14 C16 1_555 1_555
C14 C17 1_555 1_555
C6A C9A 1_555 1_555
C13A C15A 1_555 1_555
C14A C16A 1_555 1_555
C14A C17A 1_555 1_555

#END
