
#######################################################################
#
#                 Cambridge Crystallographic Data Centre
#                                CCDC 
#
#######################################################################
#
# If this CIF has been generated from an entry in the Cambridge 
# Structural Database, then it will include bibliographic, chemical, 
# crystal, experimental, refinement or atomic coordinate data resulting 
# from the CCDC's data processing and validation procedures.
#
#######################################################################

data_QALZIO
_chemical_name_common            '1H-1,2,4-triazole-3-mercaptoacetic acid'
_chemical_formula_moiety         'C4 H5 N3 O2 S1'
_chemical_name_systematic        '(1H-1,2,4-Triazol-3-ylsulfanyl)acetic acid'
_symmetry_cell_setting           orthorhombic
_symmetry_space_group_name_H-M   'P b c a'
_symmetry_Int_Tables_number      61
_space_group_name_Hall           '-P 2ac 2ab'
loop_
_symmetry_equiv_pos_site_id
_symmetry_equiv_pos_as_xyz
1 x,y,z
2 1/2-x,-y,1/2+z
3 -x,1/2+y,1/2-z
4 1/2+x,1/2-y,-z
5 -x,-y,-z
6 1/2+x,y,1/2-z
7 x,1/2-y,1/2+z
8 1/2-x,1/2+y,z
_cell_length_a                   10.145(4)
_cell_length_b                   9.052(4)
_cell_length_c                   14.833(6)
_cell_angle_alpha                90
_cell_angle_beta                 90
_cell_angle_gamma                90
_cell_volume                     1362.15
_exptl_crystal_colour            colorless
_exptl_crystal_description       block
_cell_formula_units_Z            8
loop_
_atom_site_label
_atom_site_type_symbol
_atom_site_fract_x
_atom_site_fract_y
_atom_site_fract_z
C1 C 0.90370(13) 0.34999(15) 0.65584(8)
C2 C 0.75642(16) 0.47219(18) 0.72164(11)
H1 H 0.7011 0.5138 0.7647
C3 C 1.06727(15) 0.25588(18) 0.52375(10)
H2 H 1.0744 0.3613 0.5131
H3 H 1.1519 0.2120 0.5092
C4 C 0.96467(13) 0.19344(16) 0.46038(9)
N1 N 0.84301(12) 0.41887(13) 0.58960(8)
N2 N 0.85400(13) 0.37884(15) 0.73945(8)
N3 N 0.74908(13) 0.49754(14) 0.63435(9)
H4 H 0.6929 0.5555 0.6092
O1 O 0.98593(15) 0.23956(16) 0.37759(9)
H5 H 0.9339 0.1992 0.3432
O2 O 0.87669(10) 0.10997(12) 0.48094(7)
S1 S 1.03463(4) 0.22640(4) 0.64148(3)
loop_
_geom_bond_atom_site_label_1
_geom_bond_atom_site_label_2
_geom_bond_site_symmetry_1
_geom_bond_site_symmetry_2
C1 N1 1_555 1_555
C2 H1 1_555 1_555
C3 H2 1_555 1_555
H3 C3 1_555 1_555
C4 C3 1_555 1_555
N1 N3 1_555 1_555
N2 C1 1_555 1_555
N3 C2 1_555 1_555
H4 N3 1_555 1_555
O1 C4 1_555 1_555
H5 O1 1_555 1_555
O2 C4 1_555 1_555
S1 C1 1_555 1_555
C2 N2 1_555 1_555
C3 S1 1_555 1_555

#END
