
#######################################################################
#
#                 Cambridge Crystallographic Data Centre
#                                CCDC 
#
#######################################################################
#
# If this CIF has been generated from an entry in the Cambridge 
# Structural Database, then it will include bibliographic, chemical, 
# crystal, experimental, refinement or atomic coordinate data resulting 
# from the CCDC's data processing and validation procedures.
#
#######################################################################

data_QAMCUF
_chemical_formula_moiety         'C15 H16 Cl1 N3 O3'
_chemical_name_systematic        
1-(1,3-Benzodioxol-5-yl)-2-(5-(chloromethyl)-4-propyl-1H-1,2,3-triazol-1-yl)ethanone
_symmetry_cell_setting           monoclinic
_symmetry_space_group_name_H-M   'I 2/a'
_symmetry_Int_Tables_number      15
_space_group_name_Hall           '-I 2ya'
loop_
_symmetry_equiv_pos_site_id
_symmetry_equiv_pos_as_xyz
1 x,y,z
2 1/2-x,y,-z
3 1/2+x,1/2+y,1/2+z
4 -x,1/2+y,1/2-z
5 -x,-y,-z
6 1/2+x,-y,z
7 1/2-x,1/2-y,1/2-z
8 x,1/2-y,1/2+z
_cell_length_a                   9.36947(19)
_cell_length_b                   11.12866(19)
_cell_length_c                   29.5386(6)
_cell_angle_alpha                90
_cell_angle_beta                 92.6005(19)
_cell_angle_gamma                90
_cell_volume                     3076.81
_exptl_crystal_colour            colorless
_exptl_crystal_description       plate
_cell_formula_units_Z            8
loop_
_atom_site_label
_atom_site_type_symbol
_atom_site_fract_x
_atom_site_fract_y
_atom_site_fract_z
Cl1 Cl 0.50456(7) 0.21684(4) 0.33873(2)
O1 O 0.58924(17) 0.34300(18) 0.00624(5)
O2 O 0.36829(18) 0.2853(2) 0.03025(5)
O3 O 0.35020(12) 0.40194(11) 0.19748(4)
N1 N 0.53096(14) 0.46900(11) 0.26604(4)
N2 N 0.55259(18) 0.58735(13) 0.27155(5)
N3 N 0.47706(18) 0.62264(13) 0.30558(5)
C1 C 0.4507(3) 0.3029(3) -0.00849(7)
H1 H 0.4579 0.2266 -0.0255
H2 H 0.4043 0.3634 -0.0288
C2 C 0.5839(2) 0.36109(18) 0.05203(6)
C3 C 0.6889(2) 0.40243(19) 0.08169(6)
H3 H 0.7810 0.4229 0.0720
C4 C 0.65370(18) 0.41307(17) 0.12721(6)
H4 H 0.7239 0.4412 0.1489
C5 C 0.51898(16) 0.38356(13) 0.14123(5)
C6 C 0.41294(19) 0.33986(17) 0.11022(6)
H5 H 0.3204 0.3188 0.1194
C7 C 0.4499(2) 0.32930(19) 0.06623(6)
C8 C 0.47557(16) 0.39969(13) 0.18861(5)
C9 C 0.58984(16) 0.41127(14) 0.22699(5)
H6 H 0.6261 0.3305 0.2356
H7 H 0.6710 0.4592 0.2165
C10 C 0.40544(18) 0.52643(14) 0.32177(5)
C11 C 0.43874(16) 0.42717(13) 0.29650(5)
C12 C 0.39032(18) 0.30146(14) 0.29983(6)
H8 H 0.3901 0.2636 0.2695
H9 H 0.2913 0.3000 0.3102
C13 C 0.3164(2) 0.53509(17) 0.36214(6)
H10 H 0.2413 0.4724 0.3602
H11 H 0.2686 0.6144 0.3623
C14 C 0.4061(2) 0.5194(2) 0.40610(6)
H12 H 0.4534 0.4398 0.4059
H13 H 0.4817 0.5816 0.4078
C15 C 0.3176(3) 0.5288(3) 0.44776(7)
H14 H 0.2459 0.4646 0.4471
H15 H 0.2697 0.6070 0.4480
H16 H 0.3802 0.5207 0.4751
loop_
_geom_bond_atom_site_label_1
_geom_bond_atom_site_label_2
_geom_bond_site_symmetry_1
_geom_bond_site_symmetry_2
Cl1 C12 1_555 1_555
O1 C1 1_555 1_555
O2 C1 1_555 1_555
O3 C8 1_555 1_555
N1 N2 1_555 1_555
N2 N3 1_555 1_555
N3 C10 1_555 1_555
C1 H1 1_555 1_555
H2 C1 1_555 1_555
C2 O1 1_555 1_555
C3 C2 1_555 1_555
H3 C3 1_555 1_555
C4 C3 1_555 1_555
H4 C4 1_555 1_555
C5 C4 1_555 1_555
C6 C5 1_555 1_555
H5 C6 1_555 1_555
C7 O2 1_555 1_555
C8 C5 1_555 1_555
C9 N1 1_555 1_555
H6 C9 1_555 1_555
H7 C9 1_555 1_555
C10 C11 1_555 1_555
C11 N1 1_555 1_555
C12 C11 1_555 1_555
H8 C12 1_555 1_555
H9 C12 1_555 1_555
C13 C10 1_555 1_555
H10 C13 1_555 1_555
H11 C13 1_555 1_555
C14 C13 1_555 1_555
H12 C14 1_555 1_555
H13 C14 1_555 1_555
C15 C14 1_555 1_555
H14 C15 1_555 1_555
H15 C15 1_555 1_555
H16 C15 1_555 1_555
C2 C7 1_555 1_555
C6 C7 1_555 1_555
C8 C9 1_555 1_555

#END
