
#######################################################################
#
#                 Cambridge Crystallographic Data Centre
#                                CCDC 
#
#######################################################################
#
# If this CIF has been generated from an entry in the Cambridge 
# Structural Database, then it will include bibliographic, chemical, 
# crystal, experimental, refinement or atomic coordinate data resulting 
# from the CCDC's data processing and validation procedures.
#
#######################################################################

data_QAMDAM
_chemical_formula_moiety         'C18 H20 Cl1 N3 O3'
_chemical_name_systematic        
1-(1,3-Benzodioxol-5-yl)-2-(5-(chloromethyl)-4-cyclohexyl-1H-1,2,3-triazol-1-yl)ethanone
_symmetry_cell_setting           monoclinic
_symmetry_space_group_name_H-M   'P 21/n'
_symmetry_Int_Tables_number      14
_space_group_name_Hall           '-P 2yn'
loop_
_symmetry_equiv_pos_site_id
_symmetry_equiv_pos_as_xyz
1 x,y,z
2 1/2-x,1/2+y,1/2-z
3 -x,-y,-z
4 1/2+x,1/2-y,1/2+z
_cell_length_a                   18.1057(8)
_cell_length_b                   5.3030(2)
_cell_length_c                   20.2259(10)
_cell_angle_alpha                90
_cell_angle_beta                 115.768(6)
_cell_angle_gamma                90
_cell_volume                     1748.87
_exptl_crystal_colour            colorless
_exptl_crystal_description       plate
_cell_formula_units_Z            4
loop_
_atom_site_label
_atom_site_type_symbol
_atom_site_fract_x
_atom_site_fract_y
_atom_site_fract_z
Cl1 Cl 0.87146(5) 0.3570(3) 0.47304(5)
O1 O 0.85933(12) 0.2001(5) 0.86803(10)
O2 O 0.94906(13) 0.5327(5) 0.91930(10)
O3 O 0.78730(14) 0.6730(4) 0.57479(11)
N1 N 0.69216(14) 0.2810(5) 0.50038(12)
N2 N 0.61603(15) 0.3763(6) 0.47126(13)
N3 N 0.59027(15) 0.3783(6) 0.39958(13)
C1 C 0.92234(18) 0.2963(7) 0.93599(15)
H1 H 0.9002 0.3210 0.9725
H2 H 0.9688 0.1764 0.9565
C2 C 0.86181(16) 0.3505(6) 0.81381(14)
C3 C 0.91512(16) 0.5483(6) 0.84432(14)
C4 C 0.81796(16) 0.3222(6) 0.73903(14)
H3 H 0.7815 0.1847 0.7182
C5 C 0.83014(16) 0.5089(6) 0.69512(14)
C6 C 0.88369(17) 0.7082(6) 0.72679(15)
H4 H 0.8906 0.8313 0.6958
C7 C 0.92783(17) 0.7334(6) 0.80313(15)
H5 H 0.9643 0.8702 0.8249
C8 C 0.78531(17) 0.4999(6) 0.61367(15)
C9 C 0.73587(18) 0.2648(6) 0.57993(14)
H6 H 0.7731 0.1175 0.5933
H7 H 0.6959 0.2376 0.6005
C10 C 0.64965(17) 0.2864(6) 0.38288(15)
C11 C 0.71620(17) 0.2215(6) 0.44745(15)
C12 C 0.7970(2) 0.1142(8) 0.46130(17)
H8 H 0.7909 0.0049 0.4196
H9 H 0.8170 0.0082 0.5060
C13 C 0.63979(17) 0.2750(6) 0.30522(14)
H10 H 0.6778 0.1427 0.3027
C14 C 0.55241(19) 0.2015(7) 0.25179(16)
H11 H 0.5399 0.0320 0.2648
H12 H 0.5133 0.3226 0.2565
C15 C 0.5410(2) 0.1992(8) 0.17237(17)
H13 H 0.5755 0.0645 0.1664
H14 H 0.4831 0.1609 0.1393
C16 C 0.5642(2) 0.4502(8) 0.15086(17)
H15 H 0.5260 0.5823 0.1517
H16 H 0.5593 0.4393 0.1003
C17 C 0.6518(2) 0.5224(8) 0.20347(18)
H17 H 0.6646 0.6911 0.1901
H18 H 0.6905 0.3997 0.1987
C18 C 0.6635(2) 0.5265(7) 0.28300(16)
H19 H 0.7216 0.5639 0.3159
H20 H 0.6295 0.6625 0.2890
loop_
_geom_bond_atom_site_label_1
_geom_bond_atom_site_label_2
_geom_bond_site_symmetry_1
_geom_bond_site_symmetry_2
Cl1 C12 1_555 1_555
O1 C1 1_555 1_555
O2 C1 1_555 1_555
O3 C8 1_555 1_555
N1 N2 1_555 1_555
N2 N3 1_555 1_555
N3 C10 1_555 1_555
C1 H1 1_555 1_555
H2 C1 1_555 1_555
C2 O1 1_555 1_555
C3 O2 1_555 1_555
C4 C2 1_555 1_555
H3 C4 1_555 1_555
C5 C4 1_555 1_555
C6 C5 1_555 1_555
H4 C6 1_555 1_555
C7 C3 1_555 1_555
H5 C7 1_555 1_555
C8 C5 1_555 1_555
C9 N1 1_555 1_555
H6 C9 1_555 1_555
H7 C9 1_555 1_555
C10 C11 1_555 1_555
C11 N1 1_555 1_555
C12 C11 1_555 1_555
H8 C12 1_555 1_555
H9 C12 1_555 1_555
C13 C10 1_555 1_555
H10 C13 1_555 1_555
C14 C13 1_555 1_555
H11 C14 1_555 1_555
H12 C14 1_555 1_555
C15 C14 1_555 1_555
H13 C15 1_555 1_555
H14 C15 1_555 1_555
C16 C15 1_555 1_555
H15 C16 1_555 1_555
H16 C16 1_555 1_555
C17 C16 1_555 1_555
H17 C17 1_555 1_555
H18 C17 1_555 1_555
C18 C13 1_555 1_555
H19 C18 1_555 1_555
H20 C18 1_555 1_555
C2 C3 1_555 1_555
C6 C7 1_555 1_555
C8 C9 1_555 1_555
C17 C18 1_555 1_555

#END
