
#######################################################################
#
#                 Cambridge Crystallographic Data Centre
#                                CCDC 
#
#######################################################################
#
# If this CIF has been generated from an entry in the Cambridge 
# Structural Database, then it will include bibliographic, chemical, 
# crystal, experimental, refinement or atomic coordinate data resulting 
# from the CCDC's data processing and validation procedures.
#
#######################################################################

data_QAMKEW
_chemical_formula_moiety         'C14 H13 N5 O1'
_chemical_name_systematic        
3-Amino-5-(5-phenyl-1H-pyrrol-2-yl)-1H-pyrazole-4-carboxamide
_symmetry_cell_setting           monoclinic
_symmetry_space_group_name_H-M   'P 21/c'
_symmetry_Int_Tables_number      14
_space_group_name_Hall           '-P 2ybc'
loop_
_symmetry_equiv_pos_site_id
_symmetry_equiv_pos_as_xyz
1 x,y,z
2 -x,1/2+y,1/2-z
3 -x,-y,-z
4 x,1/2-y,1/2+z
_cell_length_a                   21.048(4)
_cell_length_b                   4.6963(9)
_cell_length_c                   12.817(3)
_cell_angle_alpha                90
_cell_angle_beta                 101.06(3)
_cell_angle_gamma                90
_cell_volume                     1243.4
_cell_formula_units_Z            4
loop_
_atom_site_label
_atom_site_type_symbol
_atom_site_fract_x
_atom_site_fract_y
_atom_site_fract_z
O1 O 0.17446(7) 0.5175(4) 0.42158(12)
N1 N 0.25298(9) 0.1463(5) 0.34638(17)
N2 N 0.13443(9) 0.2220(4) 0.09786(17)
N3 N 0.08203(8) 0.3956(5) 0.06257(16)
N4 N 0.02491(9) 0.7409(5) 0.14324(18)
N5 N 0.08348(9) 0.7620(5) 0.36414(17)
C1 C 0.34758(12) 0.1576(7) 0.5494(2)
H1 H 0.3115 0.2749 0.5436
C2 C 0.39402(12) 0.1679(7) 0.6410(2)
H2 H 0.3891 0.2924 0.6953
C3 C 0.44737(12) -0.0045(7) 0.6523(2)
H3 H 0.4788 0.0017 0.7141
C4 C 0.45366(14) -0.1855(8) 0.5716(3)
H4 H 0.4897 -0.3039 0.5787
C5 C 0.40700(13) -0.1953(7) 0.4790(3)
H5 H 0.4121 -0.3205 0.4249
C6 C 0.35277(11) -0.0207(6) 0.4659(2)
C7 C 0.30567(11) -0.0303(5) 0.3661(2)
C8 C 0.30366(11) -0.1933(6) 0.2752(2)
H6 H 0.3334 -0.3330 0.2658
C9 C 0.24936(11) -0.1118(6) 0.2000(2)
H7 H 0.2365 -0.1863 0.1321
C10 C 0.21835(10) 0.1013(5) 0.24613(19)
C11 C 0.16163(10) 0.2623(5) 0.20089(18)
C12 C 0.12342(10) 0.4702(5) 0.23889(18)
C13 C 0.07587(10) 0.5436(5) 0.14841(18)
C14 C 0.12948(10) 0.5839(5) 0.34670(19)
H8 H 0.2413(12) 0.275(5) 0.3912(19)
H9 H 0.1504(13) 0.122(6) 0.0488(19)
H10 H -0.0026(10) 0.712(5) 0.0810(13)
H11 H 0.0425(11) 0.917(3) 0.1482(19)
H12 H 0.0880(10) 0.864(5) 0.4242(12)
H13 H 0.0481(8) 0.804(5) 0.3154(14)
loop_
_geom_bond_atom_site_label_1
_geom_bond_atom_site_label_2
_geom_bond_site_symmetry_1
_geom_bond_site_symmetry_2
O1 C14 1_555 1_555
N1 C7 1_555 1_555
N2 N3 1_555 1_555
N3 C13 1_555 1_555
N4 C13 1_555 1_555
N5 C14 1_555 1_555
C1 H1 1_555 1_555
C2 C1 1_555 1_555
H2 C2 1_555 1_555
C3 C2 1_555 1_555
H3 C3 1_555 1_555
C4 C3 1_555 1_555
H4 C4 1_555 1_555
C5 C4 1_555 1_555
H5 C5 1_555 1_555
C6 C1 1_555 1_555
C7 C6 1_555 1_555
C8 C7 1_555 1_555
H6 C8 1_555 1_555
C9 C8 1_555 1_555
H7 C9 1_555 1_555
C10 N1 1_555 1_555
C11 N2 1_555 1_555
C12 C11 1_555 1_555
C13 C12 1_555 1_555
C14 C12 1_555 1_555
H8 N1 1_555 1_555
H9 N2 1_555 1_555
H10 N4 1_555 1_555
H11 N4 1_555 1_555
H12 N5 1_555 1_555
H13 N5 1_555 1_555
C5 C6 1_555 1_555
C9 C10 1_555 1_555
C10 C11 1_555 1_555

#END
