
#######################################################################
#
#                 Cambridge Crystallographic Data Centre
#                                CCDC 
#
#######################################################################
#
# If this CIF has been generated from an entry in the Cambridge 
# Structural Database, then it will include bibliographic, chemical, 
# crystal, experimental, refinement or atomic coordinate data resulting 
# from the CCDC's data processing and validation procedures.
#
#######################################################################

data_QAMKIB
_chemical_formula_moiety         'C28 H26 N2 O2 S1'
_chemical_name_systematic        
5-(3-methylphenyl)-2-((4-methylphenyl)sulfonyl)-7-phenyl-1,2,3,4-tetrahydropyrrolo[3,4-d]azepine
_symmetry_cell_setting           orthorhombic
_symmetry_space_group_name_H-M   'P b c a'
_symmetry_Int_Tables_number      61
_space_group_name_Hall           '-P 2ac 2ab'
loop_
_symmetry_equiv_pos_site_id
_symmetry_equiv_pos_as_xyz
1 x,y,z
2 1/2+x,1/2-y,-z
3 -x,1/2+y,1/2-z
4 1/2-x,-y,1/2+z
5 -x,-y,-z
6 1/2-x,1/2+y,z
7 x,1/2-y,1/2+z
8 1/2+x,y,1/2-z
_cell_length_a                   10.5248(10)
_cell_length_b                   20.155(2)
_cell_length_c                   21.478(2)
_cell_angle_alpha                90
_cell_angle_beta                 90
_cell_angle_gamma                90
_cell_volume                     4556.07
_exptl_crystal_colour            colorless
_exptl_crystal_description       plate
_cell_formula_units_Z            8
loop_
_atom_site_label
_atom_site_type_symbol
_atom_site_fract_x
_atom_site_fract_y
_atom_site_fract_z
S1 S 0.15930(5) 0.22167(3) 0.30479(3)
O1 O 0.27337(13) 0.21039(8) 0.33924(7)
O2 O 0.16325(16) 0.25409(8) 0.24566(7)
N1 N -0.24049(16) 0.37627(9) 0.48570(8)
N2 N 0.06945(15) 0.26732(8) 0.34859(7)
C1 C -0.14869(19) 0.34336(12) 0.50979(9)
C2 C -0.1306(2) 0.27134(12) 0.49354(10)
H1 H -0.0749 0.2489 0.5242
H2 H -0.2130 0.2478 0.4916
C3 C -0.06978(18) 0.27442(10) 0.43149(9)
C4 C -0.13176(18) 0.29908(9) 0.38204(9)
C5 C -0.25727(19) 0.32500(10) 0.38442(9)
H3 H -0.3072 0.3221 0.3477
C6 C -0.31185(19) 0.35379(9) 0.43562(9)
C7 C -0.05423(19) 0.29114(10) 0.32379(9)
H4 H -0.0928 0.2582 0.2953
H5 H -0.0446 0.3339 0.3016
C8 C 0.05995(19) 0.25062(11) 0.41555(9)
H6 H 0.1256 0.2741 0.4402
H7 H 0.0682 0.2022 0.4224
C9 C -0.44823(19) 0.37311(10) 0.43636(10)
C10 C -0.4948(2) 0.41165(11) 0.48506(11)
H8 H -0.4385 0.4276 0.5162
C11 C -0.6236(2) 0.42684(12) 0.48827(13)
H9 H -0.6547 0.4533 0.5216
C12 C -0.7059(2) 0.40397(12) 0.44381(14)
H10 H -0.7939 0.4139 0.4466
C13 C -0.6608(2) 0.36653(11) 0.39505(13)
H11 H -0.7175 0.3517 0.3636
C14 C -0.5331(2) 0.35041(10) 0.39160(11)
H12 H -0.5033 0.3236 0.3583
C15 C -0.0482(3) 0.36568(16) 0.55237(18)
C16 C 0.0537(3) 0.32881(15) 0.57467(18)
H13 H 0.0595 0.2828 0.5656
C17 C 0.1472(3) 0.35929(19) 0.61032(16)
H14 H 0.2169 0.3341 0.6256
C18 C 0.1388(3) 0.42663(19) 0.62366(16)
H15 H 0.2027 0.4475 0.6480
C19 C 0.0369(3) 0.46349(15) 0.60136(17)
C20 C -0.0566(3) 0.43302(16) 0.56571(18)
H16 H -0.1262 0.4582 0.5505
C21 C 0.0292(5) 0.5354(2) 0.6186(3)
H17 H 0.0953 0.5458 0.6492
H18 H -0.0545 0.5449 0.6364
H19 H 0.0419 0.5627 0.5813
C22 C 0.08252(19) 0.14526(10) 0.29496(10)
C23 C -0.0049(2) 0.13785(11) 0.24703(11)
H20 H -0.0210 0.1733 0.2190
C24 C -0.0679(3) 0.07833(12) 0.24072(13)
H21 H -0.1278 0.0732 0.2080
C25 C -0.0460(3) 0.02577(12) 0.28095(13)
C26 C 0.0418(2) 0.03419(12) 0.32828(12)
H22 H 0.0579 -0.0014 0.3562
C27 C 0.1062(2) 0.09304(11) 0.33564(11)
H23 H 0.1664 0.0980 0.3683
C28 C -0.1164(3) -0.03926(14) 0.27272(18)
H24 H -0.1847 -0.0334 0.2422
H25 H -0.1527 -0.0530 0.3127
H26 H -0.0572 -0.0733 0.2579
C29? C -0.0589(3) 0.39052(15) 0.54718(18)
C30? C 0.0483(3) 0.36089(13) 0.57283(16)
H27? H 0.0601 0.3143 0.5694
C31? C 0.1382(2) 0.39943(16) 0.60345(15)
C32? C 0.1210(3) 0.46760(16) 0.60841(15)
H28? H 0.1825 0.4939 0.6293
C33? C 0.0139(3) 0.49723(13) 0.58276(17)
H29? H 0.0021 0.5438 0.5862
C34? C -0.0761(3) 0.45869(16) 0.55215(19)
H30? H -0.1493 0.4789 0.5346
C35? C 0.2549(4) 0.3659(2) 0.6312(2)
H31? H 0.2305 0.3229 0.6490
H32? H 0.2907 0.3941 0.6640
H33? H 0.3186 0.3590 0.5985
loop_
_geom_bond_atom_site_label_1
_geom_bond_atom_site_label_2
_geom_bond_site_symmetry_1
_geom_bond_site_symmetry_2
S1 O1 1_555 1_555
O2 S1 1_555 1_555
N1 C1 1_555 1_555
N2 S1 1_555 1_555
C1 C2 1_555 1_555
C2 H1 1_555 1_555
H2 C2 1_555 1_555
C3 C2 1_555 1_555
C4 C3 1_555 1_555
C5 C4 1_555 1_555
H3 C5 1_555 1_555
C6 N1 1_555 1_555
C7 N2 1_555 1_555
H4 C7 1_555 1_555
H5 C7 1_555 1_555
C8 N2 1_555 1_555
H6 C8 1_555 1_555
H7 C8 1_555 1_555
C9 C6 1_555 1_555
C10 C9 1_555 1_555
H8 C10 1_555 1_555
C11 C10 1_555 1_555
H9 C11 1_555 1_555
C12 C11 1_555 1_555
H10 C12 1_555 1_555
C13 C12 1_555 1_555
H11 C13 1_555 1_555
C14 C9 1_555 1_555
H12 C14 1_555 1_555
C15 C1 1_555 1_555
C16 C15 1_555 1_555
H13 C16 1_555 1_555
C17 C16 1_555 1_555
H14 C17 1_555 1_555
C18 C17 1_555 1_555
H15 C18 1_555 1_555
C19 C18 1_555 1_555
C20 C15 1_555 1_555
H16 C20 1_555 1_555
C21 C19 1_555 1_555
H17 C21 1_555 1_555
H18 C21 1_555 1_555
H19 C21 1_555 1_555
C22 S1 1_555 1_555
C23 C22 1_555 1_555
H20 C23 1_555 1_555
C24 C23 1_555 1_555
H21 C24 1_555 1_555
C25 C24 1_555 1_555
C26 C25 1_555 1_555
H22 C26 1_555 1_555
C27 C22 1_555 1_555
H23 C27 1_555 1_555
C28 C25 1_555 1_555
H24 C28 1_555 1_555
H25 C28 1_555 1_555
H26 C28 1_555 1_555
C3 C8 1_555 1_555
C4 C7 1_555 1_555
C5 C6 1_555 1_555
C13 C14 1_555 1_555
C19 C20 1_555 1_555
C26 C27 1_555 1_555

#END
