
#######################################################################
#
#                 Cambridge Crystallographic Data Centre
#                                CCDC 
#
#######################################################################
#
# If this CIF has been generated from an entry in the Cambridge 
# Structural Database, then it will include bibliographic, chemical, 
# crystal, experimental, refinement or atomic coordinate data resulting 
# from the CCDC's data processing and validation procedures.
#
#######################################################################

data_QAMMIC
_chemical_formula_moiety         'C25 H15 F1 N4 O1'
_chemical_name_systematic        
3-(5-(2,6-Difluorophenyl)-1,3,4-oxadiazol-2-yl)-4-phenylpyrido[1,2-a]benzimidazole
_symmetry_cell_setting           monoclinic
_symmetry_space_group_name_H-M   'P 21/n'
_symmetry_Int_Tables_number      14
_space_group_name_Hall           '-P 2yn'
loop_
_symmetry_equiv_pos_site_id
_symmetry_equiv_pos_as_xyz
1 x,y,z
2 1/2-x,1/2+y,1/2-z
3 -x,-y,-z
4 1/2+x,1/2-y,1/2+z
_cell_length_a                   17.007(4)
_cell_length_b                   5.6090(13)
_cell_length_c                   20.732(5)
_cell_angle_alpha                90
_cell_angle_beta                 100.819(4)
_cell_angle_gamma                90
_cell_volume                     1942.52
_cell_formula_units_Z            4
loop_
_atom_site_label
_atom_site_type_symbol
_atom_site_fract_x
_atom_site_fract_y
_atom_site_fract_z
N1 N -0.05977(16) 0.8540(5) 0.19516(14)
N2 N 0.02922(15) 0.6760(5) 0.14154(13)
O1 O -0.21039(14) 0.2108(4) 0.02128(11)
C1 C -0.18659(19) 0.5022(6) 0.13921(15)
C2 C -0.10481(18) 0.5059(6) 0.12267(16)
C3 C 0.0550(2) 0.5094(7) 0.10202(17)
H1 H 0.1081 0.5080 0.0967
C4 C -0.07878(19) 0.3493(7) 0.08037(16)
C5 C -0.2103(2) 0.3092(7) 0.17301(18)
H2 H -0.1750 0.1836 0.1855
C6 C 0.0033(2) 0.3488(7) 0.07106(17)
H3 H 0.0201 0.2367 0.0435
C7 C -0.04917(19) 0.6792(6) 0.15427(16)
C8 C -0.3152(2) 0.6779(8) 0.1370(2)
H4 H -0.3509 0.8026 0.1246
C9 C -0.1303(2) 0.1764(7) 0.04024(16)
C10 C 0.0355(2) 1.1724(7) 0.24809(18)
H5 H -0.0010 1.2499 0.2691
C11 C 0.0697(2) 0.8615(7) 0.17709(17)
C12 C -0.3383(2) 0.4849(8) 0.1695(2)
H6 H -0.3897 0.4780 0.1789
N3 N -0.1747(2) -0.1191(7) -0.02374(16)
C13 C -0.2391(2) 0.6879(7) 0.1225(2)
H7 H -0.2234 0.8210 0.1013
N4 N -0.10646(19) -0.0162(6) 0.01495(17)
C14 C 0.0133(2) 0.9704(7) 0.20926(17)
C15 C -0.2855(2) 0.3029(8) 0.1881(2)
H8 H -0.3006 0.1739 0.2112
C16 C -0.3182(2) -0.0037(8) -0.04743(18)
C17 C -0.2340(2) 0.0212(7) -0.01872(18)
C18 C -0.3445(3) -0.1917(9) -0.0903(2)
C19 C 0.1478(2) 0.9421(8) 0.18275(19)
H9 H 0.1842 0.8662 0.1613
C20 C -0.3753(3) 0.1559(9) -0.0345(2)
C21 C 0.1688(2) 1.1391(9) 0.2215(2)
H10 H 0.2205 1.1990 0.2263
C22 C 0.1133(3) 1.2527(8) 0.2542(2)
H11 H 0.1295 1.3847 0.2805
C23 C -0.4791(3) -0.0561(11) -0.1036(3)
H12 H -0.5330 -0.0733 -0.1220
C24 C -0.4548(3) 0.1299(10) -0.0626(3)
H13 H -0.4921 0.2400 -0.0535
C25 C -0.4248(3) -0.2175(10) -0.1178(3)
H14 H -0.4417 -0.3444 -0.1459
F1 F -0.2932(2) -0.3558(8) -0.1052(2)
F2? F -0.3635(6) 0.333(2) 0.0023(6)
loop_
_geom_bond_atom_site_label_1
_geom_bond_atom_site_label_2
_geom_bond_site_symmetry_1
_geom_bond_site_symmetry_2
N1 C7 1_555 1_555
N2 C3 1_555 1_555
O1 C9 1_555 1_555
C1 C2 1_555 1_555
C2 C4 1_555 1_555
C3 H1 1_555 1_555
C4 C6 1_555 1_555
C5 C1 1_555 1_555
H2 C5 1_555 1_555
C6 C3 1_555 1_555
H3 C6 1_555 1_555
C7 N2 1_555 1_555
C8 H4 1_555 1_555
C9 C4 1_555 1_555
C10 H5 1_555 1_555
C11 N2 1_555 1_555
C12 C8 1_555 1_555
H6 C12 1_555 1_555
N3 N4 1_555 1_555
C13 C1 1_555 1_555
H7 C13 1_555 1_555
N4 C9 1_555 1_555
C14 N1 1_555 1_555
C15 C5 1_555 1_555
H8 C15 1_555 1_555
C16 C17 1_555 1_555
C17 O1 1_555 1_555
C18 C16 1_555 1_555
C19 C11 1_555 1_555
H9 C19 1_555 1_555
C20 C16 1_555 1_555
C21 C19 1_555 1_555
H10 C21 1_555 1_555
C22 C10 1_555 1_555
H11 C22 1_555 1_555
C23 H12 1_555 1_555
C24 C20 1_555 1_555
H13 C24 1_555 1_555
C25 C18 1_555 1_555
H14 C25 1_555 1_555
F1 C18 1_555 1_555
C2 C7 1_555 1_555
C8 C13 1_555 1_555
C10 C14 1_555 1_555
C11 C14 1_555 1_555
C12 C15 1_555 1_555
N3 C17 1_555 1_555
C21 C22 1_555 1_555
C23 C24 1_555 1_555
C23 C25 1_555 1_555

#END
