
#######################################################################
#
#                 Cambridge Crystallographic Data Centre
#                                CCDC 
#
#######################################################################
#
# If this CIF has been generated from an entry in the Cambridge 
# Structural Database, then it will include bibliographic, chemical, 
# crystal, experimental, refinement or atomic coordinate data resulting 
# from the CCDC's data processing and validation procedures.
#
#######################################################################

data_QAMMAV
_chemical_formula_moiety         'C17 H17 N1 O2'
_chemical_name_systematic        
1,1'-((methylimino)di-4,1-phenylene)diethanone
_symmetry_cell_setting           triclinic
_symmetry_space_group_name_H-M   'P -1'
_symmetry_Int_Tables_number      2
_space_group_name_Hall           '-P 1'
loop_
_symmetry_equiv_pos_site_id
_symmetry_equiv_pos_as_xyz
1 x,y,z
2 -x,-y,-z
_cell_length_a                   8.2376(6)
_cell_length_b                   8.5362(7)
_cell_length_c                   10.4219(9)
_cell_angle_alpha                94.615(7)
_cell_angle_beta                 98.690(7)
_cell_angle_gamma                99.967(7)
_cell_volume                     709.208
_exptl_crystal_colour            colorless
_exptl_crystal_description       block
_cell_formula_units_Z            2
loop_
_atom_site_label
_atom_site_type_symbol
_atom_site_fract_x
_atom_site_fract_y
_atom_site_fract_z
N1 N 0.17768(15) 0.86330(16) 0.24493(13)
C1 C 0.7033(2) 1.4136(2) 0.02989(18)
H1 H 0.8045 1.4591 0.0008
H2 H 0.6736 1.4913 0.0896
H3 H 0.6149 1.3830 -0.0439
C2 C 0.7294(2) 1.26919(19) 0.09732(16)
C3 C 0.58430(18) 1.16833(17) 0.13715(14)
C4 C 0.42505(19) 1.20548(19) 0.12320(16)
H4 H 0.4077 1.2992 0.0881
C5 C 0.29246(19) 1.10793(19) 0.15972(16)
H5 H 0.1878 1.1368 0.1490
C6 C 0.31312(17) 0.96599(18) 0.21278(14)
C7 C 0.47375(18) 0.92790(18) 0.22762(15)
H6 H 0.4919 0.8344 0.2628
C8 C 0.60393(18) 1.02715(18) 0.19073(15)
H7 H 0.7090 0.9992 0.2019
C9 C 0.01024(19) 0.8652(3) 0.1768(2)
H8 H -0.0142 0.9706 0.1906
H9 H -0.0697 0.7901 0.2099
H10 H 0.0043 0.8362 0.0851
C10 C 0.30656(19) 0.76858(19) 0.44362(15)
H11 H 0.3654 0.8718 0.4720
C11 C 0.20031(18) 0.73778(18) 0.32317(15)
C12 C 0.11281(19) 0.58383(19) 0.28427(16)
H12 H 0.0403 0.5617 0.2048
C13 C 0.1318(2) 0.46233(19) 0.36214(16)
H13 H 0.0721 0.3594 0.3340
C14 C 0.23802(18) 0.49133(18) 0.48110(15)
C15 C 0.32479(19) 0.64732(18) 0.52063(15)
H14 H 0.3963 0.6697 0.6006
C16 C 0.2590(2) 0.36298(19) 0.56763(17)
C17 C 0.1818(3) 0.1938(2) 0.5152(2)
H15 H 0.2090 0.1238 0.5795
H16 H 0.2243 0.1653 0.4375
H17 H 0.0626 0.1837 0.4950
O1 O 0.86896(14) 1.23607(15) 0.11895(13)
O2 O 0.33717(17) 0.39390(15) 0.67805(13)
loop_
_geom_bond_atom_site_label_1
_geom_bond_atom_site_label_2
_geom_bond_site_symmetry_1
_geom_bond_site_symmetry_2
N1 C6 1_555 1_555
C1 H1 1_555 1_555
H2 C1 1_555 1_555
H3 C1 1_555 1_555
C2 C1 1_555 1_555
C3 C2 1_555 1_555
C4 C3 1_555 1_555
H4 C4 1_555 1_555
C5 C4 1_555 1_555
H5 C5 1_555 1_555
C6 C5 1_555 1_555
C7 C6 1_555 1_555
H6 C7 1_555 1_555
C8 C3 1_555 1_555
H7 C8 1_555 1_555
C9 N1 1_555 1_555
H8 C9 1_555 1_555
H9 C9 1_555 1_555
H10 C9 1_555 1_555
C10 H11 1_555 1_555
C11 N1 1_555 1_555
C12 C11 1_555 1_555
H12 C12 1_555 1_555
C13 C12 1_555 1_555
H13 C13 1_555 1_555
C14 C13 1_555 1_555
C15 C10 1_555 1_555
H14 C15 1_555 1_555
C16 C14 1_555 1_555
C17 C16 1_555 1_555
H15 C17 1_555 1_555
H16 C17 1_555 1_555
H17 C17 1_555 1_555
O1 C2 1_555 1_555
O2 C16 1_555 1_555
C7 C8 1_555 1_555
C10 C11 1_555 1_555
C14 C15 1_555 1_555

#END
