
#######################################################################
#
#                 Cambridge Crystallographic Data Centre
#                                CCDC 
#
#######################################################################
#
# If this CIF has been generated from an entry in the Cambridge 
# Structural Database, then it will include bibliographic, chemical, 
# crystal, experimental, refinement or atomic coordinate data resulting 
# from the CCDC's data processing and validation procedures.
#
#######################################################################

data_QAMNUP
_chemical_formula_moiety         'C36 H39 B1 N2 O1'
_chemical_name_systematic        
2-(4-t-Butylphenyl)-5-(4-(dimesitylboryl)phenyl)-1,3,4-oxadiazole
_symmetry_cell_setting           monoclinic
_symmetry_space_group_name_H-M   'P 21/c'
_symmetry_Int_Tables_number      14
_space_group_name_Hall           '-P 2ybc'
loop_
_symmetry_equiv_pos_site_id
_symmetry_equiv_pos_as_xyz
1 x,y,z
2 -x,1/2+y,1/2-z
3 -x,-y,-z
4 x,1/2-y,1/2+z
_cell_length_a                   12.681(3)
_cell_length_b                   15.600(3)
_cell_length_c                   16.024(3)
_cell_angle_alpha                90
_cell_angle_beta                 97.903(3)
_cell_angle_gamma                90
_cell_volume                     3139.82
_cell_formula_units_Z            4
loop_
_atom_site_label
_atom_site_type_symbol
_atom_site_fract_x
_atom_site_fract_y
_atom_site_fract_z
N1 N 0.4716(2) 0.7264(2) 0.04697(18)
N2 N 0.4310(2) 0.6789(2) -0.02488(18)
O1 O 0.59341(17) 0.63367(15) 0.01955(14)
B1 B 0.8954(3) 0.8283(3) 0.3283(2)
C1 C 0.8918(4) 1.2066(3) 0.3444(3)
H1 H 0.9050 1.2296 0.2913
H2 H 0.9461 1.2259 0.3881
H3 H 0.8235 1.2258 0.3564
C2 C 0.8611(3) 0.9215(2) 0.4842(2)
H4 H 0.8490 0.9607 0.5281
H5 H 0.9221 0.8867 0.5030
H6 H 0.7998 0.8856 0.4705
C3 C 0.9316(4) 0.9400(3) 0.1797(2)
H7 H 0.9384 0.9848 0.1398
H8 H 0.8728 0.9036 0.1587
H9 H 0.9959 0.9067 0.1881
C4 C 0.8930(3) 1.1092(2) 0.3406(2)
C5 C 0.8776(3) 1.0600(3) 0.4087(2)
H10 H 0.8647 1.0875 0.4578
C6 C 0.8804(3) 0.9709(2) 0.4078(2)
C7 C 0.8985(3) 0.9286(2) 0.3334(2)
C8 C 0.9120(3) 0.9791(3) 0.2630(2)
C9 C 0.9105(3) 1.0679(3) 0.2688(2)
H11 H 0.9218 1.1002 0.2221
C10 C 1.1365(3) 0.8583(3) 0.3500(3)
H12 H 1.0807 0.8928 0.3205
H13 H 1.1816 0.8376 0.3109
H14 H 1.1778 0.8923 0.3925
C11 C 1.2040(4) 0.5986(3) 0.5317(3)
H15 H 1.2753 0.6171 0.5277
H16 H 1.1945 0.5410 0.5109
H17 H 1.1918 0.6005 0.5895
C12 C 0.8280(3) 0.6806(3) 0.4340(3)
H18 H 0.8217 0.6291 0.4658
H19 H 0.7897 0.6739 0.3784
H20 H 0.7987 0.7279 0.4615
C13 C 1.0886(3) 0.7834(3) 0.3908(2)
C14 C 1.1601(3) 0.7269(3) 0.4373(2)
H21 H 1.2329 0.7366 0.4398
C15 C 1.1256(4) 0.6575(3) 0.4794(2)
C16 C 1.0184(3) 0.6441(3) 0.4744(2)
H22 H 0.9941 0.5977 0.5028
C17 C 0.9441(3) 0.6978(3) 0.4281(2)
C18 C 0.9780(3) 0.7689(2) 0.3836(2)
C19 C 0.8053(3) 0.7885(2) 0.2639(2)
C20 C 0.8161(3) 0.7106(2) 0.2237(2)
H23 H 0.8771 0.6781 0.2392
C21 C 0.7393(3) 0.6802(2) 0.1616(2)
H24 H 0.7493 0.6281 0.1355
C22 C 0.6471(3) 0.7267(2) 0.1380(2)
C23 C 0.6326(3) 0.8032(2) 0.1780(2)
H25 H 0.5700 0.8342 0.1640
C24 C 0.7107(3) 0.8334(2) 0.2386(2)
H26 H 0.7004 0.8858 0.2639
C25 C 0.5666(3) 0.6978(2) 0.0703(2)
C26 C 0.5042(3) 0.6258(2) -0.0390(2)
C27 C 0.5078(3) 0.5657(2) -0.1072(2)
C28 C 0.4340(3) 0.5716(3) -0.1785(2)
H27 H 0.3791 0.6115 -0.1812
C29 C 0.4420(3) 0.5178(3) -0.2465(2)
H28 H 0.3918 0.5227 -0.2943
C30 C 0.5214(3) 0.4576(3) -0.2458(2)
C31 C 0.5931(3) 0.4526(3) -0.1732(2)
H29 H 0.6475 0.4122 -0.1699
C32 C 0.5865(3) 0.5057(2) -0.1055(2)
H30 H 0.6367 0.5006 -0.0577
C33 C 0.5308(4) 0.4024(3) -0.3225(3)
C34 C 0.5975(6) 0.4470(5) -0.3775(4)
H31 H 0.5624 0.4987 -0.3988
H32 H 0.6083 0.4104 -0.4236
H33 H 0.6650 0.4611 -0.3456
C35 C 0.4337(4) 0.3682(6) -0.3614(5)
H34 H 0.3848 0.4140 -0.3780
H35 H 0.4044 0.3314 -0.3224
H36 H 0.4456 0.3359 -0.4102
C36 C 0.6039(6) 0.3224(5) -0.2970(5)
H37 H 0.6101 0.2887 -0.3462
H38 H 0.5729 0.2883 -0.2568
H39 H 0.6732 0.3415 -0.2724
loop_
_geom_bond_atom_site_label_1
_geom_bond_atom_site_label_2
_geom_bond_site_symmetry_1
_geom_bond_site_symmetry_2
N1 N2 1_555 1_555
N2 C26 1_555 1_555
O1 C25 1_555 1_555
B1 C7 1_555 1_555
C1 H1 1_555 1_555
H2 C1 1_555 1_555
H3 C1 1_555 1_555
C2 H4 1_555 1_555
H5 C2 1_555 1_555
H6 C2 1_555 1_555
C3 H7 1_555 1_555
H8 C3 1_555 1_555
H9 C3 1_555 1_555
C4 C1 1_555 1_555
C5 C4 1_555 1_555
H10 C5 1_555 1_555
C6 C2 1_555 1_555
C7 C6 1_555 1_555
C8 C3 1_555 1_555
C9 C4 1_555 1_555
H11 C9 1_555 1_555
C10 H12 1_555 1_555
H13 C10 1_555 1_555
H14 C10 1_555 1_555
C11 H15 1_555 1_555
H16 C11 1_555 1_555
H17 C11 1_555 1_555
C12 H18 1_555 1_555
H19 C12 1_555 1_555
H20 C12 1_555 1_555
C13 C10 1_555 1_555
C14 C13 1_555 1_555
H21 C14 1_555 1_555
C15 C11 1_555 1_555
C16 C15 1_555 1_555
H22 C16 1_555 1_555
C17 C12 1_555 1_555
C18 B1 1_555 1_555
C19 B1 1_555 1_555
C20 C19 1_555 1_555
H23 C20 1_555 1_555
C21 C20 1_555 1_555
H24 C21 1_555 1_555
C22 C21 1_555 1_555
C23 C22 1_555 1_555
H25 C23 1_555 1_555
C24 C19 1_555 1_555
H26 C24 1_555 1_555
C25 N1 1_555 1_555
C26 O1 1_555 1_555
C27 C26 1_555 1_555
C28 C27 1_555 1_555
H27 C28 1_555 1_555
C29 C28 1_555 1_555
H28 C29 1_555 1_555
C30 C29 1_555 1_555
C31 C30 1_555 1_555
H29 C31 1_555 1_555
C32 C27 1_555 1_555
H30 C32 1_555 1_555
C33 C30 1_555 1_555
C34 C33 1_555 1_555
H31 C34 1_555 1_555
H32 C34 1_555 1_555
H33 C34 1_555 1_555
C35 C33 1_555 1_555
H34 C35 1_555 1_555
H35 C35 1_555 1_555
H36 C35 1_555 1_555
C36 C33 1_555 1_555
H37 C36 1_555 1_555
H38 C36 1_555 1_555
H39 C36 1_555 1_555
C5 C6 1_555 1_555
C7 C8 1_555 1_555
C8 C9 1_555 1_555
C13 C18 1_555 1_555
C14 C15 1_555 1_555
C16 C17 1_555 1_555
C17 C18 1_555 1_555
C22 C25 1_555 1_555
C23 C24 1_555 1_555
C31 C32 1_555 1_555

#END
