
#######################################################################
#
#                 Cambridge Crystallographic Data Centre
#                                CCDC 
#
#######################################################################
#
# If this CIF has been generated from an entry in the Cambridge 
# Structural Database, then it will include bibliographic, chemical, 
# crystal, experimental, refinement or atomic coordinate data resulting 
# from the CCDC's data processing and validation procedures.
#
#######################################################################

data_QAMPAV
_chemical_formula_moiety         'C2 H10 N2 2+,C8 H4 O4 2-'
_chemical_name_systematic        'Ethylenediammonium phthalate'
_symmetry_cell_setting           orthorhombic
_symmetry_space_group_name_H-M   'P b c a'
_symmetry_Int_Tables_number      61
_space_group_name_Hall           '-P 2ac 2ab'
loop_
_symmetry_equiv_pos_site_id
_symmetry_equiv_pos_as_xyz
1 x,y,z
2 1/2+x,y,1/2-z
3 x,1/2-y,1/2+z
4 1/2-x,1/2+y,z
5 -x,-y,-z
6 1/2-x,-y,1/2+z
7 -x,1/2+y,1/2-z
8 1/2+x,1/2-y,-z
_cell_length_a                   21.825(3)
_cell_length_b                   12.3840(10)
_cell_length_c                   8.0480(10)
_cell_angle_alpha                90
_cell_angle_beta                 90
_cell_angle_gamma                90
_cell_volume                     2175.22
_exptl_crystal_colour            colorless
_exptl_crystal_description       plate
_cell_formula_units_Z            8
loop_
_atom_site_label
_atom_site_type_symbol
_atom_site_fract_x
_atom_site_fract_y
_atom_site_fract_z
O1 O 0.45383(8) 0.25649(13) 0.8137(2)
O2 O 0.45026(6) 0.09791(11) 0.68450(18)
O3 O 0.43446(7) -0.08491(11) 0.92898(18)
O4 O 0.37479(7) -0.11955(12) 0.71160(19)
C1 C 0.37142(10) 0.13762(17) 0.8774(3)
C2 C 0.35097(9) 0.03069(17) 0.8853(2)
C3 C 0.29507(10) 0.0086(2) 0.9601(3)
H1 H 0.2806 -0.0620 0.9618
C4 C 0.26054(12) 0.0896(2) 1.0321(3)
H2 H 0.2232 0.0736 1.0819
C5 C 0.28193(13) 0.1941(2) 1.0296(4)
H3 H 0.2594 0.2487 1.0801
C6 C 0.33676(12) 0.21822(19) 0.9524(3)
H4 H 0.3507 0.2892 0.9507
C7 C 0.42957(10) 0.16706(16) 0.7859(3)
C8 C 0.39011(9) -0.06396(16) 0.8334(3)
N1 N 0.44854(9) 0.02739(16) 0.2289(3)
H5 H 0.4425(13) 0.004(2) 0.114(4)
H6 H 0.4870(13) -0.002(2) 0.258(3)
H7 H 0.4496(12) 0.102(2) 0.239(4)
N2 N 0.44276(9) -0.18674(15) 0.4390(3)
H8 H 0.4305(11) -0.1677(18) 0.548(3)
H9 H 0.4423(11) -0.259(2) 0.429(3)
H10 H 0.4865(12) -0.159(2) 0.408(3)
C9 C 0.39597(10) -0.13791(17) 0.3292(3)
H11 H 0.3557 -0.1620 0.3640
H12 H 0.4025 -0.1628 0.2163
C10 C 0.39780(10) -0.01580(17) 0.3321(3)
H13 H 0.3591 0.0123 0.2912
H14 H 0.4029 0.0087 0.4458
loop_
_geom_bond_atom_site_label_1
_geom_bond_atom_site_label_2
_geom_bond_site_symmetry_1
_geom_bond_site_symmetry_2
O1 C7 1_555 1_555
O2 C7 1_555 1_555
O3 C8 1_555 1_555
O4 C8 1_555 1_555
C1 C2 1_555 1_555
C2 C3 1_555 1_555
C3 H1 1_555 1_555
C4 C3 1_555 1_555
H2 C4 1_555 1_555
C5 C4 1_555 1_555
H3 C5 1_555 1_555
C6 C1 1_555 1_555
H4 C6 1_555 1_555
C7 C1 1_555 1_555
C8 C2 1_555 1_555
N1 H5 1_555 1_555
H6 N1 1_555 1_555
H7 N1 1_555 1_555
N2 H8 1_555 1_555
H9 N2 1_555 1_555
H10 N2 1_555 1_555
C9 N2 1_555 1_555
H11 C9 1_555 1_555
H12 C9 1_555 1_555
C10 N1 1_555 1_555
H13 C10 1_555 1_555
H14 C10 1_555 1_555
C5 C6 1_555 1_555
C9 C10 1_555 1_555

#END
