
#######################################################################
#
#                 Cambridge Crystallographic Data Centre
#                                CCDC 
#
#######################################################################
#
# If this CIF has been generated from an entry in the Cambridge 
# Structural Database, then it will include bibliographic, chemical, 
# crystal, experimental, refinement or atomic coordinate data resulting 
# from the CCDC's data processing and validation procedures.
#
#######################################################################

data_QAMPEB
_chemical_formula_moiety         'C28 H28 N4 O4 S1'
_chemical_name_systematic        
"Diethyl 2,8-dimethyl-4,10-diphenyl-4H,10H-pyrimido[1',2':2,3][1,2,4]thiadiazolo[4,5-a]pyrimidine-3,9-dicarboxylate"
_symmetry_cell_setting           monoclinic
_symmetry_space_group_name_H-M   'P 21/n'
_symmetry_Int_Tables_number      14
_space_group_name_Hall           '-P 2yn'
loop_
_symmetry_equiv_pos_site_id
_symmetry_equiv_pos_as_xyz
1 x,y,z
2 1/2-x,1/2+y,1/2-z
3 -x,-y,-z
4 1/2+x,1/2-y,1/2+z
_cell_length_a                   9.7199(11)
_cell_length_b                   25.185(3)
_cell_length_c                   10.7677(13)
_cell_angle_alpha                90
_cell_angle_beta                 99.431(2)
_cell_angle_gamma                90
_cell_volume                     2600.26
_cell_formula_units_Z            4
loop_
_atom_site_label
_atom_site_type_symbol
_atom_site_fract_x
_atom_site_fract_y
_atom_site_fract_z
S1 S 0.30615(7) 0.01338(2) 1.02719(7)
N1 N 0.2429(2) 0.06831(7) 1.09392(19)
N2 N 0.0575(2) 0.12977(8) 1.0499(2)
N3 N 0.0783(2) 0.05598(8) 0.92139(19)
N4 N 0.1490(2) -0.01905(8) 0.8138(2)
O1 O 0.4598(2) 0.16753(8) 1.3466(2)
O2 O 0.2834(2) 0.22285(9) 1.3546(2)
O3 O -0.2875(2) 0.06463(9) 0.6855(2)
O4 O -0.2578(3) -0.01096(12) 0.5862(3)
C1 C 0.6964(5) 0.1857(2) 1.4289(5)
H1 H 0.7098 0.1482 1.4399
H2 H 0.7584 0.2043 1.4930
H3 H 0.7158 0.1959 1.3475
C2 C 0.5499(5) 0.19947(15) 1.4382(3)
H4 H 0.5314 0.1920 1.5224
H5 H 0.5332 0.2369 1.4209
C3 C 0.3280(3) 0.18425(11) 1.3097(3)
C4 C 0.2563(3) 0.15041(10) 1.2085(2)
C5 C 0.1220(3) 0.15885(10) 1.1539(3)
C6 C 0.0267(3) 0.19991(11) 1.1946(3)
H6 H 0.0132 0.1926 1.2793
H7 H -0.0616 0.1989 1.1395
H8 H 0.0677 0.2345 1.1910
C7 C 0.1227(2) 0.08764(9) 1.0243(2)
C8 C 0.3429(3) 0.10757(9) 1.1600(2)
H9 H 0.3985 0.0900 1.2325
C9 C 0.4415(3) 0.12791(9) 1.0754(3)
C10 C 0.5810(3) 0.11343(12) 1.0977(3)
H10 H 0.6145 0.0911 1.1647
C11 C 0.6705(4) 0.13236(15) 1.0196(4)
H11 H 0.7643 0.1230 1.0349
C12 C 0.6208(5) 0.16468(15) 0.9202(5)
H12 H 0.6813 0.1774 0.8686
C13 C 0.4827(4) 0.17834(13) 0.8962(4)
H13 H 0.4491 0.1998 0.8276
C14 C 0.3936(3) 0.16012(11) 0.9742(3)
H14 H 0.2999 0.1697 0.9582
C15 C 0.1662(3) 0.01509(9) 0.9036(2)
C16 C 0.0208(3) -0.01704(10) 0.7329(3)
C17 C 0.0014(4) -0.06360(11) 0.6452(3)
H15 H -0.0928 -0.0762 0.6374
H16 H 0.0645 -0.0915 0.6780
H17 H 0.0202 -0.0530 0.5640
C18 C -0.0710(3) 0.02313(10) 0.7363(3)
C19 C -0.0307(3) 0.07212(10) 0.8157(2)
H18 H -0.1124 0.0846 0.8499
C20 C 0.0222(3) 0.11723(9) 0.7418(2)
C21 C -0.0299(3) 0.16772(11) 0.7434(3)
H19 H -0.0993 0.1751 0.7910
C22 C 0.0196(4) 0.20786(12) 0.6749(3)
H20 H -0.0183 0.2417 0.6755
C23 C 0.1236(4) 0.19840(12) 0.6064(3)
H21 H 0.1585 0.2258 0.5625
C24 C 0.1757(3) 0.14798(12) 0.6034(3)
H22 H 0.2456 0.1409 0.5562
C25 C 0.1253(3) 0.10775(11) 0.6696(3)
H23 H 0.1609 0.0736 0.6659
C26 C -0.2117(4) 0.02262(13) 0.6597(3)
C27 C -0.4316(4) 0.06703(16) 0.6224(4)
H24 H -0.4382 0.0523 0.5384
H25 H -0.4612 0.1038 0.6143
C28 C -0.5245(4) 0.03766(19) 0.6917(4)
H26 H -0.4966 0.0011 0.6984
H27 H -0.6186 0.0401 0.6478
H28 H -0.5194 0.0525 0.7745
loop_
_geom_bond_atom_site_label_1
_geom_bond_atom_site_label_2
_geom_bond_site_symmetry_1
_geom_bond_site_symmetry_2
S1 N1 1_555 1_555
N1 C7 1_555 1_555
N2 C5 1_555 1_555
N3 C7 1_555 1_555
N4 C15 1_555 1_555
O1 C2 1_555 1_555
O2 C3 1_555 1_555
O3 C26 1_555 1_555
O4 C26 1_555 1_555
C1 H1 1_555 1_555
H2 C1 1_555 1_555
H3 C1 1_555 1_555
C2 C1 1_555 1_555
H4 C2 1_555 1_555
H5 C2 1_555 1_555
C3 O1 1_555 1_555
C4 C3 1_555 1_555
C5 C4 1_555 1_555
C6 C5 1_555 1_555
H6 C6 1_555 1_555
H7 C6 1_555 1_555
H8 C6 1_555 1_555
C7 N2 1_555 1_555
C8 N1 1_555 1_555
H9 C8 1_555 1_555
C9 C8 1_555 1_555
C10 C9 1_555 1_555
H10 C10 1_555 1_555
C11 C10 1_555 1_555
H11 C11 1_555 1_555
C12 C11 1_555 1_555
H12 C12 1_555 1_555
C13 C12 1_555 1_555
H13 C13 1_555 1_555
C14 C9 1_555 1_555
H14 C14 1_555 1_555
C15 S1 1_555 1_555
C16 N4 1_555 1_555
C17 C16 1_555 1_555
H15 C17 1_555 1_555
H16 C17 1_555 1_555
H17 C17 1_555 1_555
C18 C16 1_555 1_555
C19 N3 1_555 1_555
H18 C19 1_555 1_555
C20 C19 1_555 1_555
C21 C20 1_555 1_555
H19 C21 1_555 1_555
C22 C21 1_555 1_555
H20 C22 1_555 1_555
C23 C22 1_555 1_555
H21 C23 1_555 1_555
C24 C23 1_555 1_555
H22 C24 1_555 1_555
C25 C20 1_555 1_555
H23 C25 1_555 1_555
C26 C18 1_555 1_555
C27 O3 1_555 1_555
H24 C27 1_555 1_555
H25 C27 1_555 1_555
C28 C27 1_555 1_555
H26 C28 1_555 1_555
H27 C28 1_555 1_555
H28 C28 1_555 1_555
N3 C15 1_555 1_555
C4 C8 1_555 1_555
C13 C14 1_555 1_555
C18 C19 1_555 1_555
C24 C25 1_555 1_555

#END
