
#######################################################################
#
#                 Cambridge Crystallographic Data Centre
#                                CCDC 
#
#######################################################################
#
# If this CIF has been generated from an entry in the Cambridge 
# Structural Database, then it will include bibliographic, chemical, 
# crystal, experimental, refinement or atomic coordinate data resulting 
# from the CCDC's data processing and validation procedures.
#
#######################################################################

data_QAMQEC02
_chemical_formula_moiety         'C33 H38 N4 O3'
_chemical_name_systematic        
3',6'-bis(diethylamino)-2-((4-oxopent-2-en-2-yl)amino)spiro[isoindole-1,9'-xanthen]-3(2H)-one
_symmetry_cell_setting           monoclinic
_symmetry_space_group_name_H-M   'P 21/c'
_symmetry_Int_Tables_number      14
_space_group_name_Hall           '-P 2ybc'
loop_
_symmetry_equiv_pos_site_id
_symmetry_equiv_pos_as_xyz
1 x,y,z
2 -x,1/2+y,1/2-z
3 -x,-y,-z
4 x,1/2-y,1/2+z
_cell_length_a                   17.4047(17)
_cell_length_b                   15.0879(19)
_cell_length_c                   11.5212(11)
_cell_angle_alpha                90
_cell_angle_beta                 103.048(8)
_cell_angle_gamma                90
_cell_volume                     2947.36
_exptl_crystal_colour            yellow
_exptl_crystal_description       block
_cell_formula_units_Z            4
loop_
_atom_site_label
_atom_site_type_symbol
_atom_site_fract_x
_atom_site_fract_y
_atom_site_fract_z
O1 O 0.03857(16) 0.5285(2) 0.2184(2)
O2 O 0.28010(17) 0.3831(2) 0.2667(2)
O3 O 0.33414(14) 0.54993(18) 0.5769(2)
N1 N 0.46178(18) 0.6800(2) 0.2962(3)
N2 N 0.26161(18) 0.4870(2) 0.9417(3)
N3 N 0.14109(17) 0.5464(2) 0.3827(2)
N4 N 0.18119(18) 0.4702(2) 0.3687(2)
H1 H 0.2204 0.4740 0.3351
C1 C 0.0744(2) 0.5725(3) 0.3017(3)
C2 C 0.0576(2) 0.6620(3) 0.3412(3)
C3 C -0.0067(2) 0.7166(3) 0.2952(3)
H2 H -0.0454 0.6997 0.2293
C4 C -0.0107(2) 0.7966(3) 0.3510(4)
H3 H -0.0525 0.8348 0.3216
C5 C 0.0460(2) 0.8210(3) 0.4496(4)
H4 H 0.0408 0.8743 0.4876
C6 C 0.1107(2) 0.7676(3) 0.4931(3)
H5 H 0.1494 0.7849 0.5587
C7 C 0.1162(2) 0.6885(3) 0.4371(3)
C8 C 0.1809(2) 0.6191(3) 0.4645(3)
C9 C 0.1624(2) 0.3899(3) 0.4050(3)
C10 C 0.0996(2) 0.3872(3) 0.4754(4)
H6 H 0.1157 0.4225 0.5460
H7 H 0.0916 0.3271 0.4973
H8 H 0.0512 0.4103 0.4279
C11 C 0.1973(2) 0.3161(3) 0.3762(3)
H9 H 0.1842 0.2622 0.4059
C12 C 0.2532(3) 0.3155(3) 0.3027(4)
C13 C 0.2784(3) 0.2257(4) 0.2649(5)
H10 H 0.2509 0.1798 0.2966
H11 H 0.3342 0.2185 0.2946
H12 H 0.2661 0.2221 0.1795
C14 C 0.1473(3) 0.4302(3) 1.0131(4)
H13 H 0.1159 0.4285 0.9330
H14 H 0.1140 0.4426 1.0671
H15 H 0.1725 0.3738 1.0326
C15 C 0.2085(2) 0.5009(3) 1.0232(3)
H16 H 0.1825 0.5579 1.0061
H17 H 0.2395 0.5026 1.1045
C16 C 0.3425(2) 0.4632(3) 0.9988(3)
H18 H 0.3659 0.4322 0.9415
H19 H 0.3416 0.4226 1.0638
C17 C 0.3934(3) 0.5408(4) 1.0463(4)
H20 H 0.3909 0.5839 0.9842
H21 H 0.4469 0.5214 1.0743
H22 H 0.3750 0.5670 1.1110
C18 C 0.2424(2) 0.5190(3) 0.8274(3)
C19 C 0.2965(2) 0.5195(2) 0.7544(3)
H23 H 0.3470 0.4973 0.7830
C20 C 0.2751(2) 0.5528(3) 0.6394(3)
C21 C 0.20097(19) 0.5866(3) 0.5916(3)
C22 C 0.1472(2) 0.5849(3) 0.6644(3)
H24 H 0.0967 0.6074 0.6351
C23 C 0.1660(2) 0.5515(3) 0.7776(3)
H25 H 0.1278 0.5500 0.8225
C24 C 0.4903(3) 0.8383(3) 0.2645(4)
H26 H 0.4909 0.8807 0.2026
H27 H 0.5418 0.8349 0.3164
H28 H 0.4528 0.8565 0.3094
C25 C 0.4675(2) 0.7490(3) 0.2101(3)
H29 H 0.4170 0.7541 0.1539
H30 H 0.5061 0.7310 0.1658
C26 C 0.5314(2) 0.6262(3) 0.3416(4)
H31 H 0.5612 0.6217 0.2801
H32 H 0.5145 0.5670 0.3568
C27 C 0.5855(2) 0.6602(4) 0.4535(4)
H33 H 0.6040 0.7182 0.4392
H34 H 0.6296 0.6208 0.4767
H35 H 0.5573 0.6633 0.5161
C28 C 0.3949(2) 0.6716(3) 0.3414(3)
C29 C 0.3248(2) 0.7178(3) 0.2931(3)
H36 H 0.3238 0.7589 0.2325
C30 C 0.2576(2) 0.7031(3) 0.3343(3)
H37 H 0.2116 0.7328 0.2981
C31 C 0.2561(2) 0.6460(3) 0.4271(3)
C32 C 0.3259(2) 0.6048(3) 0.4783(3)
C33 C 0.3939(2) 0.6152(3) 0.4369(3)
H38 H 0.4393 0.5844 0.4729
loop_
_geom_bond_atom_site_label_1
_geom_bond_atom_site_label_2
_geom_bond_site_symmetry_1
_geom_bond_site_symmetry_2
O1 C1 1_555 1_555
O2 C12 1_555 1_555
O3 C20 1_555 1_555
N1 C25 1_555 1_555
N2 C15 1_555 1_555
N3 N4 1_555 1_555
N4 H1 1_555 1_555
C1 N3 1_555 1_555
C2 C1 1_555 1_555
C3 C2 1_555 1_555
H2 C3 1_555 1_555
C4 C3 1_555 1_555
H3 C4 1_555 1_555
C5 C4 1_555 1_555
H4 C5 1_555 1_555
C6 C5 1_555 1_555
H5 C6 1_555 1_555
C7 C2 1_555 1_555
C8 N3 1_555 1_555
C9 N4 1_555 1_555
C10 C9 1_555 1_555
H6 C10 1_555 1_555
H7 C10 1_555 1_555
H8 C10 1_555 1_555
C11 C9 1_555 1_555
H9 C11 1_555 1_555
C12 C11 1_555 1_555
C13 C12 1_555 1_555
H10 C13 1_555 1_555
H11 C13 1_555 1_555
H12 C13 1_555 1_555
C14 H13 1_555 1_555
H14 C14 1_555 1_555
H15 C14 1_555 1_555
C15 C14 1_555 1_555
H16 C15 1_555 1_555
H17 C15 1_555 1_555
C16 N2 1_555 1_555
H18 C16 1_555 1_555
H19 C16 1_555 1_555
C17 C16 1_555 1_555
H20 C17 1_555 1_555
H21 C17 1_555 1_555
H22 C17 1_555 1_555
C18 N2 1_555 1_555
C19 C18 1_555 1_555
H23 C19 1_555 1_555
C20 C19 1_555 1_555
C21 C8 1_555 1_555
C22 C21 1_555 1_555
H24 C22 1_555 1_555
C23 C18 1_555 1_555
H25 C23 1_555 1_555
C24 H26 1_555 1_555
H27 C24 1_555 1_555
H28 C24 1_555 1_555
C25 C24 1_555 1_555
H29 C25 1_555 1_555
H30 C25 1_555 1_555
C26 N1 1_555 1_555
H31 C26 1_555 1_555
H32 C26 1_555 1_555
C27 C26 1_555 1_555
H33 C27 1_555 1_555
H34 C27 1_555 1_555
H35 C27 1_555 1_555
C28 N1 1_555 1_555
C29 C28 1_555 1_555
H36 C29 1_555 1_555
C30 C29 1_555 1_555
H37 C30 1_555 1_555
C31 C8 1_555 1_555
C32 O3 1_555 1_555
C33 C28 1_555 1_555
H38 C33 1_555 1_555
C6 C7 1_555 1_555
C7 C8 1_555 1_555
C20 C21 1_555 1_555
C22 C23 1_555 1_555
C30 C31 1_555 1_555
C31 C32 1_555 1_555
C32 C33 1_555 1_555

#END
