
#######################################################################
#
#                 Cambridge Crystallographic Data Centre
#                                CCDC 
#
#######################################################################
#
# If this CIF has been generated from an entry in the Cambridge 
# Structural Database, then it will include bibliographic, chemical, 
# crystal, experimental, refinement or atomic coordinate data resulting 
# from the CCDC's data processing and validation procedures.
#
#######################################################################

data_QAMRON
_chemical_formula_moiety         
'C21 H32 N2 O4 2+,2(C27 H29 N3 O5),2(F6 P1 1-),C1 H2 Cl2,C6 H14 O1'
_chemical_name_systematic        
"[3]-(N,N'-bis(3,5-dimethoxybenzyl)propane-1,3-diaminium)-bis(10,13,16,19,22-pentaoxa-3,29,35-triazatetracyclo[29.3.1.0^4,9^.0^23,28^]pentatriaconta-1(35),2,4,6,8,23,25,27,29,31,33-undecaene)-rotaxane bis(hexafluorophosphate) dichloromethane dipropyl ether solvate"
_symmetry_cell_setting           triclinic
_symmetry_space_group_name_H-M   'P -1'
_symmetry_Int_Tables_number      2
_space_group_name_Hall           '-P 1'
loop_
_symmetry_equiv_pos_site_id
_symmetry_equiv_pos_as_xyz
1 x,y,z
2 -x,-y,-z
_cell_length_a                   13.4795(5)
_cell_length_b                   14.5068(4)
_cell_length_c                   24.8176(7)
_cell_angle_alpha                85.849(2)
_cell_angle_beta                 88.703(2)
_cell_angle_gamma                62.846(2)
_cell_volume                     4306.44
_exptl_crystal_colour            yellow
_exptl_crystal_description       'platy needle'
_cell_formula_units_Z            2
loop_
_atom_site_label
_atom_site_type_symbol
_atom_site_fract_x
_atom_site_fract_y
_atom_site_fract_z
O6 O 1.14323 -0.03016 0.39935
O7 O 1.32642 0.00617 0.36379
O8 O 1.40931 0.04706 0.26431
O9 O 1.3405 -0.00767 0.16851
O10 O 1.16541 -0.05022 0.1363
N4 N 0.94899 0.05453 0.16041
N5 N 0.84997 0.05055 0.26178
N6 N 0.93305 0.07029 0.36104
C28 C 1.25594 -0.0932 0.41896
H30 H 1.29221 -0.15418 0.39705
H31 H 1.25359 -0.11915 0.45674
C29 C 1.32608 -0.03593 0.41702
H32 H 1.29537 0.0206 0.44199
H33 H 1.40338 -0.08433 0.42878
C30 C 1.40385 0.04773 0.3599
H34 H 1.48092 -0.00951 0.36164
H35 H 1.39386 0.09118 0.39052
C31 C 1.38545 0.11213 0.30753
H36 H 1.30714 0.16689 0.30476
H37 H 1.43469 0.14613 0.30597
C32 C 1.39244 0.10461 0.21352
H38 H 1.44098 0.13934 0.21107
H39 H 1.31393 0.15872 0.20992
C33 C 1.41938 0.03276 0.16928
H40 H 1.41738 0.07048 0.13412
H41 H 1.49546 -0.02512 0.17498
C34 C 1.35199 -0.0598 0.12089
H42 H 1.43106 -0.11035 0.11625
H43 H 1.32824 -0.00908 0.08906
C35 C 1.28072 -0.11569 0.12514
H44 H 1.28532 -0.14808 0.09079
H45 H 1.31176 -0.17217 0.15415
C36 C 1.09778 0.01248 0.09456
C37 C 1.13297 0.021 0.04235
H46 H 1.20866 -0.01992 0.03309
C38 C 1.05736 0.08952 0.00346
H47 H 1.08229 0.09635 -0.03202
C39 C 0.9469 0.14743 0.01591
H48 H 0.89597 0.19507 -0.01057
C40 C 0.91075 0.13563 0.06729
H49 H 0.83406 0.17409 0.07557
C41 C 0.98476 0.06829 0.10727
C42 C 0.85867 0.04601 0.16452
H50 H 0.8212 0.04802 0.13216
C43 C 0.80959 0.03337 0.2159
C44 C 0.7258 0.00318 0.21636
H51 H 0.70093 -0.00984 0.18357
C45 C 0.67894 -0.00778 0.26455
H52 H 0.62076 -0.02762 0.26554
C46 C 0.71785 0.01053 0.31155
H53 H 0.68688 0.00355 0.34544
C47 C 0.80326 0.03943 0.30842
C48 C 0.84385 0.06033 0.35865
H54 H 0.80174 0.06665 0.39062
C49 C 0.9587 0.09459 0.41187
C50 C 0.87811 0.17154 0.44107
H55 H 0.80459 0.21017 0.42676
C51 C 0.90463 0.19262 0.49164
H56 H 0.8493 0.24499 0.51172
C52 C 1.01151 0.13669 0.51181
H57 H 1.02966 0.1504 0.54611
C53 C 1.09291 0.06073 0.48277
H58 H 1.16592 0.02179 0.49763
C54 C 1.06858 0.04083 0.43177
P1 P 0.52608 0.22374 0.44996
F1 F 0.63931 0.1176 0.45976
F2 F 0.53362 0.25211 0.50996
F3 F 0.41416 0.33004 0.43933
F4 F 0.59804 0.28111 0.42873
F5 F 0.51906 0.19471 0.38937
F6 F 0.45471 0.16626 0.47044
P2 P 0.56917 0.16391 0.05249
F7 F 0.45618 0.26796 0.04335
F8 F 0.68357 0.05896 0.06225
F9 F 0.59371 0.16645 -0.01048
F10 F 0.63393 0.23053 0.06178
F11 F 0.50454 0.09728 0.04408
F12 F 0.5457 0.16111 0.11619
O11 O 0.60363 0.79397 0.23877
O12 O 0.78901 0.71398 0.07189
O13 O 0.99679 -0.27483 0.3755
O14 O 0.99672 -0.27663 0.18443
N7 N 0.93991 0.39017 0.23504
H59 H 0.90545 0.38596 0.20439
H60 H 0.89204 0.39922 0.26345
N8 N 1.0816 0.0163 0.2651
H61 H 1.0415 0.02217 0.23442
H62 H 1.03375 0.02943 0.29381
C55 C 0.5966 0.7711 0.29674
H63 H 0.60284 0.70118 0.30306
H64 H 0.52486 0.82195 0.31019
H65 H 0.65739 0.77488 0.3158
C56 C 0.69715 0.8033 0.04675
H66 H 0.6845 0.86498 0.06538
H67 H 0.63 0.79327 0.04894
H68 H 0.71416 0.81272 0.00876
C57 C 0.93442 -0.33205 0.3786
H69 H 0.86372 -0.29232 0.35882
H70 H 0.91936 -0.34459 0.41653
H71 H 0.97725 -0.39865 0.36261
C58 C 1.01846 -0.24184 0.13257
H72 H 0.98856 -0.16612 0.13048
H73 H 0.98269 -0.26157 0.10476
H74 H 1.09911 -0.27386 0.12673
C59 C 0.69345 0.7266 0.21144
C60 C 0.69251 0.7537 0.15712
H75 H 0.63197 0.81456 0.14152
C61 C 0.77926 0.69256 0.12556
C62 C 0.8675 0.60199 0.14871
H76 H 0.9275 0.55897 0.12698
C63 C 0.86668 0.57527 0.20413
C64 C 0.78143 0.6352 0.23619
H77 H 0.7808 0.61663 0.27365
C65 C 0.96318 0.48148 0.22774
H78 H 0.98267 0.49635 0.26321
H79 H 1.02816 0.46433 0.20382
C66 C 1.04546 0.29031 0.2459
H80 H 1.08263 0.2938 0.2791
H81 H 1.09733 0.27971 0.21541
C67 C 1.01665 0.20112 0.2527
H82 H 0.97442 0.20162 0.22047
H83 H 0.96811 0.21052 0.2845
C68 C 1.11978 0.09706 0.26018
H84 H 1.16949 0.08648 0.22877
H85 H 1.16142 0.09412 0.29315
C69 C 1.17178 -0.09393 0.27303
H86 H 1.21339 -0.10375 0.30708
H87 H 1.22484 -0.11027 0.24272
C70 C 1.11661 -0.16438 0.27522
C71 C 1.08497 -0.19329 0.32448
H88 H 1.10479 -0.17525 0.35718
C72 C 1.02413 -0.24877 0.3256
C73 C 0.99446 -0.27503 0.27781
H89 H 0.95182 -0.31221 0.27871
C74 C 1.02805 -0.24618 0.22857
C75 C 1.0909 -0.19205 0.22688
H90 H 1.11574 -0.17436 0.19342
O1 O 1.00819 0.31497 0.37656
O2 O 1.18066 0.36358 0.34016
O3 O 1.2736 0.39514 0.24101
O4 O 1.20431 0.34435 0.14467
O5 O 1.03116 0.29883 0.11404
N1 N 0.81771 0.37818 0.14079
N2 N 0.73078 0.3608 0.24144
N3 N 0.80121 0.40913 0.33526
C1 C 1.1207 0.259 0.39646
H1 H 1.16065 0.19725 0.37541
H2 H 1.11938 0.23399 0.43453
C2 C 1.1848 0.3207 0.39368
H3 H 1.15224 0.37708 0.41868
H4 H 1.26329 0.27526 0.40479
C3 C 1.25426 0.41007 0.33487
H5 H 1.33245 0.35542 0.33897
H6 H 1.23922 0.45822 0.36378
C4 C 1.239 0.46622 0.28275
H7 H 1.15949 0.51685 0.27729
H8 H 1.2834 0.50502 0.28122
C5 C 1.2633 0.45018 0.18994
H9 H 1.31568 0.48081 0.18813
H10 H 1.18655 0.50723 0.18493
C6 C 1.28848 0.3781 0.14736
H11 H 1.29257 0.41288 0.11216
H12 H 1.36185 0.31721 0.15484
C7 C 1.21425 0.29282 0.09687
H13 H 1.29336 0.24329 0.09139
H14 H 1.18861 0.3442 0.06534
C8 C 1.14546 0.2357 0.10131
H15 H 1.14874 0.20476 0.06664
H16 H 1.17876 0.17807 0.1296
C9 C 0.95786 0.35857 0.07335
C10 C 0.98637 0.37625 0.02086
H17 H 1.06224 0.34473 0.01027
C11 C 0.90376 0.43994 -0.01585
H18 H 0.92326 0.45212 -0.05173
C12 C 0.7935 0.48594 -0.00102
H19 H 0.73766 0.53135 -0.02628
C13 C 0.76407 0.46615 0.05043
H20 H 0.68791 0.49754 0.06055
C14 C 0.84533 0.40064 0.08736
C15 C 0.73891 0.35278 0.14502
H21 H 0.70772 0.34391 0.11304
C16 C 0.69429 0.33662 0.19764
C17 C 0.61533 0.29838 0.19955
H22 H 0.59123 0.282 0.16754
C18 C 0.57401 0.28539 0.24914
H23 H 0.52104 0.25911 0.25194
C19 C 0.60952 0.31046 0.29417
H24 H 0.58121 0.30259 0.32867
C20 C 0.68872 0.34817 0.28877
C21 C 0.72474 0.37892 0.33647
H25 H 0.69019 0.37654 0.36998
C22 C 0.82246 0.44003 0.38502
C23 C 0.73776 0.51751 0.41257
H26 H 0.6647 0.55255 0.39738
C24 C 0.75942 0.54394 0.46218
H27 H 0.70268 0.59926 0.48009
C25 C 0.86463 0.48858 0.48504
H28 H 0.87835 0.50264 0.52014
C26 C 0.95031 0.41303 0.45768
H29 H 1.02257 0.37705 0.4737
C27 C 0.93112 0.38956 0.40686
loop_
_geom_bond_atom_site_label_1
_geom_bond_atom_site_label_2
_geom_bond_site_symmetry_1
_geom_bond_site_symmetry_2
O1 C1 1_555 1_555
O2 C2 1_555 1_555
O3 C4 1_555 1_555
O4 C6 1_555 1_555
O5 C8 1_555 1_555
N1 C14 1_555 1_555
N2 C16 1_555 1_555
N3 C21 1_555 1_555
C1 H1 1_555 1_555
H2 C1 1_555 1_555
C2 C1 1_555 1_555
H3 C2 1_555 1_555
H4 C2 1_555 1_555
C3 O2 1_555 1_555
H5 C3 1_555 1_555
H6 C3 1_555 1_555
C4 C3 1_555 1_555
H7 C4 1_555 1_555
H8 C4 1_555 1_555
C5 O3 1_555 1_555
H9 C5 1_555 1_555
H10 C5 1_555 1_555
C6 C5 1_555 1_555
H11 C6 1_555 1_555
H12 C6 1_555 1_555
C7 O4 1_555 1_555
H13 C7 1_555 1_555
H14 C7 1_555 1_555
C8 C7 1_555 1_555
H15 C8 1_555 1_555
H16 C8 1_555 1_555
C9 O5 1_555 1_555
C10 C9 1_555 1_555
H17 C10 1_555 1_555
C11 C10 1_555 1_555
H18 C11 1_555 1_555
C12 C11 1_555 1_555
H19 C12 1_555 1_555
C13 C12 1_555 1_555
H20 C13 1_555 1_555
C14 C9 1_555 1_555
C15 N1 1_555 1_555
H21 C15 1_555 1_555
C16 C15 1_555 1_555
C17 C16 1_555 1_555
H22 C17 1_555 1_555
C18 C17 1_555 1_555
H23 C18 1_555 1_555
C19 C18 1_555 1_555
H24 C19 1_555 1_555
C20 N2 1_555 1_555
C21 C20 1_555 1_555
H25 C21 1_555 1_555
C22 N3 1_555 1_555
C23 C22 1_555 1_555
H26 C23 1_555 1_555
C24 C23 1_555 1_555
H27 C24 1_555 1_555
C25 C24 1_555 1_555
H28 C25 1_555 1_555
C26 C25 1_555 1_555
H29 C26 1_555 1_555
C27 O1 1_555 1_555
O6 C28 1_555 1_555
O7 C29 1_555 1_555
O8 C31 1_555 1_555
O9 C33 1_555 1_555
O10 C35 1_555 1_555
N4 C41 1_555 1_555
N5 C43 1_555 1_555
N6 C48 1_555 1_555
C28 H30 1_555 1_555
H31 C28 1_555 1_555
C29 C28 1_555 1_555
H32 C29 1_555 1_555
H33 C29 1_555 1_555
C30 O7 1_555 1_555
H34 C30 1_555 1_555
H35 C30 1_555 1_555
C31 C30 1_555 1_555
H36 C31 1_555 1_555
H37 C31 1_555 1_555
C32 O8 1_555 1_555
H38 C32 1_555 1_555
H39 C32 1_555 1_555
C33 C32 1_555 1_555
H40 C33 1_555 1_555
H41 C33 1_555 1_555
C34 O9 1_555 1_555
H42 C34 1_555 1_555
H43 C34 1_555 1_555
C35 C34 1_555 1_555
H44 C35 1_555 1_555
H45 C35 1_555 1_555
C36 O10 1_555 1_555
C37 C36 1_555 1_555
H46 C37 1_555 1_555
C38 C37 1_555 1_555
H47 C38 1_555 1_555
C39 C38 1_555 1_555
H48 C39 1_555 1_555
C40 C39 1_555 1_555
H49 C40 1_555 1_555
C41 C36 1_555 1_555
C42 N4 1_555 1_555
H50 C42 1_555 1_555
C43 C42 1_555 1_555
C44 C43 1_555 1_555
H51 C44 1_555 1_555
C45 C44 1_555 1_555
H52 C45 1_555 1_555
C46 C45 1_555 1_555
H53 C46 1_555 1_555
C47 N5 1_555 1_555
C48 C47 1_555 1_555
H54 C48 1_555 1_555
C49 N6 1_555 1_555
C50 C49 1_555 1_555
H55 C50 1_555 1_555
C51 C50 1_555 1_555
H56 C51 1_555 1_555
C52 C51 1_555 1_555
H57 C52 1_555 1_555
C53 C52 1_555 1_555
H58 C53 1_555 1_555
C54 O6 1_555 1_555
P1 F1 1_555 1_555
F2 P1 1_555 1_555
F3 P1 1_555 1_555
F4 P1 1_555 1_555
F5 P1 1_555 1_555
F6 P1 1_555 1_555
P2 F7 1_555 1_555
F8 P2 1_555 1_555
F9 P2 1_555 1_555
F10 P2 1_555 1_555
F11 P2 1_555 1_555
F12 P2 1_555 1_555
O11 C55 1_555 1_555
O12 C56 1_555 1_555
O13 C57 1_555 1_555
O14 C58 1_555 1_555
N7 H59 1_555 1_555
H60 N7 1_555 1_555
N8 H61 1_555 1_555
H62 N8 1_555 1_555
C55 H63 1_555 1_555
H64 C55 1_555 1_555
H65 C55 1_555 1_555
C56 H66 1_555 1_555
H67 C56 1_555 1_555
H68 C56 1_555 1_555
C57 H69 1_555 1_555
H70 C57 1_555 1_555
H71 C57 1_555 1_555
C58 H72 1_555 1_555
H73 C58 1_555 1_555
H74 C58 1_555 1_555
C59 O11 1_555 1_555
C60 C59 1_555 1_555
H75 C60 1_555 1_555
C61 O12 1_555 1_555
C62 C61 1_555 1_555
H76 C62 1_555 1_555
C63 C62 1_555 1_555
C64 C59 1_555 1_555
H77 C64 1_555 1_555
C65 N7 1_555 1_555
H78 C65 1_555 1_555
H79 C65 1_555 1_555
C66 N7 1_555 1_555
H80 C66 1_555 1_555
H81 C66 1_555 1_555
C67 C66 1_555 1_555
H82 C67 1_555 1_555
H83 C67 1_555 1_555
C68 N8 1_555 1_555
H84 C68 1_555 1_555
H85 C68 1_555 1_555
C69 N8 1_555 1_555
H86 C69 1_555 1_555
H87 C69 1_555 1_555
C70 C69 1_555 1_555
C71 C70 1_555 1_555
H88 C71 1_555 1_555
C72 O13 1_555 1_555
C73 C72 1_555 1_555
H89 C73 1_555 1_555
C74 O14 1_555 1_555
C75 C70 1_555 1_555
H90 C75 1_555 1_555
C13 C14 1_555 1_555
C19 C20 1_555 1_555
C22 C27 1_555 1_555
C26 C27 1_555 1_555
C40 C41 1_555 1_555
C46 C47 1_555 1_555
C49 C54 1_555 1_555
C53 C54 1_555 1_555
C60 C61 1_555 1_555
C63 C64 1_555 1_555
C63 C65 1_555 1_555
C67 C68 1_555 1_555
C71 C72 1_555 1_555
C73 C74 1_555 1_555
C74 C75 1_555 1_555

#END
