
#######################################################################
#
#                 Cambridge Crystallographic Data Centre
#                                CCDC 
#
#######################################################################
#
# If this CIF has been generated from an entry in the Cambridge 
# Structural Database, then it will include bibliographic, chemical, 
# crystal, experimental, refinement or atomic coordinate data resulting 
# from the CCDC's data processing and validation procedures.
#
#######################################################################

data_QAMSEE
_chemical_formula_moiety         'C52 H40 Li4 N4 O4'
_chemical_name_systematic        
tetrakis(\m~3~-2-((Phenylimino)methyl)phenolato)-tetra-lithium
_symmetry_cell_setting           monoclinic
_symmetry_space_group_name_H-M   'P 21/c'
_symmetry_Int_Tables_number      14
_space_group_name_Hall           '-P 2ybc'
loop_
_symmetry_equiv_pos_site_id
_symmetry_equiv_pos_as_xyz
1 x,y,z
2 -x,1/2+y,1/2-z
3 -x,-y,-z
4 x,1/2-y,1/2+z
_cell_length_a                   10.4110(14)
_cell_length_b                   17.316(2)
_cell_length_c                   24.493(3)
_cell_angle_alpha                90
_cell_angle_beta                 97.918(2)
_cell_angle_gamma                90
_cell_volume                     4373.42
_exptl_crystal_colour            colorless
_exptl_crystal_description       plate
_cell_formula_units_Z            4
loop_
_atom_site_label
_atom_site_type_symbol
_atom_site_fract_x
_atom_site_fract_y
_atom_site_fract_z
Li1 Li 0.4018(2) 0.85320(15) 0.21373(10)
Li2 Li 0.1836(2) 0.78345(15) 0.17104(10)
Li3 Li 0.1905(2) 0.88440(15) 0.25181(10)
Li4 Li 0.2990(2) 0.74679(15) 0.26789(10)
O1 O 0.12446(9) 0.77763(6) 0.24104(4)
O2 O 0.23487(9) 0.89285(6) 0.17904(4)
O3 O 0.35835(9) 0.74444(6) 0.19759(4)
O4 O 0.35815(9) 0.85174(6) 0.28731(4)
N1 N 0.57536(11) 0.89770(7) 0.23478(5)
N2 N 0.02369(11) 0.73822(7) 0.12901(5)
N3 N 0.10060(11) 0.98536(7) 0.25032(5)
N4 N 0.39517(12) 0.65468(7) 0.29731(5)
C1 C -0.07168(14) 0.71520(8) 0.15330(6)
H1 H -0.1395 0.6886 0.1310
C2 C 0.47538(13) 0.62405(9) 0.21037(6)
C3 C -0.08713(14) 0.72522(8) 0.21070(6)
C4 C 0.43773(14) 0.86234(8) 0.33360(6)
C5 C 0.00786(14) 0.75723(8) 0.25147(6)
C6 C 0.19688(14) 0.94711(9) 0.14218(6)
C7 C 0.62834(14) 0.90306(8) 0.28538(6)
H2 H 0.7163 0.9193 0.2914
C8 C 0.78399(14) 0.89865(8) 0.19647(6)
H3 H 0.8300 0.8830 0.2309
C9 C 0.42941(13) 0.68990(9) 0.17858(6)
C10 C 0.65107(14) 0.91157(8) 0.19155(6)
C11 C -0.24122(15) 0.72035(9) 0.27674(6)
H4 H -0.3254 0.7083 0.2851
C12 C 0.56831(14) 0.88701(8) 0.33418(6)
C13 C -0.07776(15) 1.04239(9) 0.29462(7)
H5 H -0.1224 1.0581 0.2600
C14 C 0.13116(14) 1.01506(9) 0.15523(6)
C15 C 0.54531(15) 0.56783(9) 0.18580(7)
H6 H 0.5765 0.5241 0.2070
C16 C 0.21870(15) 0.93761(9) 0.08735(6)
H7 H 0.2617 0.8923 0.0776
C17 C 0.46239(14) 0.69604(9) 0.12504(6)
H8 H 0.4373 0.7409 0.1039
C18 C 0.57076(16) 0.57322(10) 0.13243(7)
H9 H 0.6152 0.5330 0.1165
C19 C 0.58594(15) 0.93436(9) 0.14080(6)
H10 H 0.4949 0.9427 0.1367
C20 C 0.04178(14) 1.00598(8) 0.29747(6)
C21 C 0.11755(16) 1.05820(10) 0.05981(7)
H11 H 0.0910 1.0957 0.0323
C22 C 0.46254(14) 0.61303(9) 0.26822(6)
H12 H 0.5085 0.5708 0.2864
C23 C 0.40587(15) 0.64289(9) 0.35528(6)
C24 C -0.14833(15) 0.75157(9) 0.31656(6)
H13 H -0.1689 0.7613 0.3525
C25 C -0.02638(14) 0.76861(9) 0.30427(6)
H14 H 0.0366 0.7887 0.3325
C26 C -0.10072(15) 0.73887(9) 0.03567(6)
H15 H -0.1767 0.7551 0.0499
C27 C 0.08959(14) 1.03078(9) 0.20830(6)
H16 H 0.0502 1.0795 0.2125
C28 C -0.20926(14) 0.70715(9) 0.22486(6)
H17 H -0.2724 0.6850 0.1977
C29 C 0.64571(15) 0.89727(10) 0.38512(6)
H18 H 0.7331 0.9133 0.3855
C30 C 0.09469(15) 1.06900(9) 0.11324(6)
H19 H 0.0523 1.1150 0.1221
C31 C 0.39481(15) 0.84941(9) 0.38469(6)
H20 H 0.3082 0.8325 0.3853
C32 C 0.53023(15) 0.63871(10) 0.10232(7)
H21 H 0.5494 0.6442 0.0657
C33 C 0.84946(15) 0.90845(9) 0.15159(6)
H22 H 0.9402 0.8991 0.1553
C34 C 0.01408(14) 0.72742(8) 0.07111(6)
C35 C 0.10419(16) 0.98287(9) 0.34849(6)
H23 H 0.1851 0.9569 0.3508
C36 C 0.12499(15) 0.70683(9) 0.04929(6)
H24 H 0.2049 0.7016 0.0729
C37 C 0.65217(16) 0.94509(9) 0.09615(6)
H25 H 0.6068 0.9617 0.0618
C38 C 0.29455(16) 0.64961(9) 0.38011(7)
H26 H 0.2132 0.6574 0.3580
C39 C 0.78434(17) 0.93168(9) 0.10134(7)
H27 H 0.8298 0.9384 0.0706
C40 C -0.13174(17) 1.05572(9) 0.34232(7)
H28 H -0.2136 1.0807 0.3401
C41 C 0.47367(16) 0.86035(10) 0.43388(6)
H29 H 0.4410 0.8509 0.4676
C42 C 0.60047(16) 0.88509(11) 0.43460(7)
H30 H 0.6549 0.8934 0.4685
C43 C 0.52433(16) 0.63225(9) 0.38800(6)
H31 H 0.6014 0.6275 0.3716
C44 C 0.05029(17) 0.99713(10) 0.39600(7)
H32 H 0.0951 0.9820 0.4308
C45 C 0.00570(18) 0.70284(11) -0.04124(7)
H33 H 0.0022 0.6928 -0.0796
C46 C -0.06851(18) 1.03334(10) 0.39290(7)
H34 H -0.1064 1.0427 0.4254
C47 C 0.18027(16) 0.99133(10) 0.04709(6)
H35 H 0.1968 0.9826 0.0104
C48 C 0.12030(17) 0.69384(10) -0.00653(7)
H36 H 0.1965 0.6786 -0.0210
C49 C -0.10397(17) 0.72652(11) -0.02022(6)
H37 H -0.1824 0.7344 -0.0444
C50 C 0.30049(18) 0.64512(10) 0.43669(7)
H38 H 0.2234 0.6489 0.4532
C51 C 0.52962(18) 0.62863(10) 0.44490(7)
H39 H 0.6108 0.6216 0.4673
C52 C 0.41871(19) 0.63506(11) 0.46926(7)
H40 H 0.4233 0.6326 0.5082
loop_
_geom_bond_atom_site_label_1
_geom_bond_atom_site_label_2
_geom_bond_site_symmetry_1
_geom_bond_site_symmetry_2
Li1 O2 1_555 1_555
Li2 O1 1_555 1_555
Li3 O1 1_555 1_555
Li4 O1 1_555 1_555
O1 C5 1_555 1_555
O2 Li2 1_555 1_555
O3 Li1 1_555 1_555
O4 Li1 1_555 1_555
N1 Li1 1_555 1_555
N2 Li2 1_555 1_555
N3 Li3 1_555 1_555
N4 Li4 1_555 1_555
C1 N2 1_555 1_555
H1 C1 1_555 1_555
C2 C9 1_555 1_555
C3 C1 1_555 1_555
C4 O4 1_555 1_555
C5 C3 1_555 1_555
C6 O2 1_555 1_555
C7 N1 1_555 1_555
H2 C7 1_555 1_555
C8 H3 1_555 1_555
C9 O3 1_555 1_555
C10 N1 1_555 1_555
C11 H4 1_555 1_555
C12 C4 1_555 1_555
C13 H5 1_555 1_555
C14 C6 1_555 1_555
C15 C2 1_555 1_555
H6 C15 1_555 1_555
C16 C6 1_555 1_555
H7 C16 1_555 1_555
C17 C9 1_555 1_555
H8 C17 1_555 1_555
C18 C15 1_555 1_555
H9 C18 1_555 1_555
C19 C10 1_555 1_555
H10 C19 1_555 1_555
C20 N3 1_555 1_555
C21 H11 1_555 1_555
C22 N4 1_555 1_555
H12 C22 1_555 1_555
C23 N4 1_555 1_555
C24 C11 1_555 1_555
H13 C24 1_555 1_555
C25 C5 1_555 1_555
H14 C25 1_555 1_555
C26 H15 1_555 1_555
C27 N3 1_555 1_555
H16 C27 1_555 1_555
C28 C3 1_555 1_555
H17 C28 1_555 1_555
C29 C12 1_555 1_555
H18 C29 1_555 1_555
C30 C14 1_555 1_555
H19 C30 1_555 1_555
C31 C4 1_555 1_555
H20 C31 1_555 1_555
C32 C17 1_555 1_555
H21 C32 1_555 1_555
C33 C8 1_555 1_555
H22 C33 1_555 1_555
C34 N2 1_555 1_555
C35 C20 1_555 1_555
H23 C35 1_555 1_555
C36 C34 1_555 1_555
H24 C36 1_555 1_555
C37 C19 1_555 1_555
H25 C37 1_555 1_555
C38 C23 1_555 1_555
H26 C38 1_555 1_555
C39 C33 1_555 1_555
H27 C39 1_555 1_555
C40 C13 1_555 1_555
H28 C40 1_555 1_555
C41 C31 1_555 1_555
H29 C41 1_555 1_555
C42 C29 1_555 1_555
H30 C42 1_555 1_555
C43 C23 1_555 1_555
H31 C43 1_555 1_555
C44 C35 1_555 1_555
H32 C44 1_555 1_555
C45 H33 1_555 1_555
C46 C40 1_555 1_555
H34 C46 1_555 1_555
C47 C16 1_555 1_555
H35 C47 1_555 1_555
C48 C36 1_555 1_555
H36 C48 1_555 1_555
C49 C26 1_555 1_555
H37 C49 1_555 1_555
C50 C38 1_555 1_555
H38 C50 1_555 1_555
C51 C43 1_555 1_555
H39 C51 1_555 1_555
C52 C50 1_555 1_555
H40 C52 1_555 1_555
Li2 O3 1_555 1_555
Li3 O2 1_555 1_555
Li3 O4 1_555 1_555
Li4 O3 1_555 1_555
Li4 O4 1_555 1_555
C2 C22 1_555 1_555
C7 C12 1_555 1_555
C8 C10 1_555 1_555
C11 C28 1_555 1_555
C13 C20 1_555 1_555
C14 C27 1_555 1_555
C18 C32 1_555 1_555
C21 C30 1_555 1_555
C21 C47 1_555 1_555
C24 C25 1_555 1_555
C26 C34 1_555 1_555
C37 C39 1_555 1_555
C41 C42 1_555 1_555
C44 C46 1_555 1_555
C45 C48 1_555 1_555
C45 C49 1_555 1_555
C51 C52 1_555 1_555

#END
