
#######################################################################
#
#                 Cambridge Crystallographic Data Centre
#                                CCDC 
#
#######################################################################
#
# If this CIF has been generated from an entry in the Cambridge 
# Structural Database, then it will include bibliographic, chemical, 
# crystal, experimental, refinement or atomic coordinate data resulting 
# from the CCDC's data processing and validation procedures.
#
#######################################################################

data_QAMTEF
_chemical_formula_moiety         'C48 H32 O2'
_chemical_name_systematic        
5,12-bis((4-methoxyphenyl)ethynyl)-6,11-diphenyltetracene
_symmetry_cell_setting           triclinic
_symmetry_space_group_name_H-M   'P -1'
_symmetry_Int_Tables_number      2
_space_group_name_Hall           '-P 1'
loop_
_symmetry_equiv_pos_site_id
_symmetry_equiv_pos_as_xyz
1 x,y,z
2 -x,-y,-z
_cell_length_a                   7.0225(15)
_cell_length_b                   11.456(3)
_cell_length_c                   22.004(6)
_cell_angle_alpha                101.509(7)
_cell_angle_beta                 96.474(7)
_cell_angle_gamma                104.936(5)
_cell_volume                     1650.63
_exptl_crystal_colour            orange
_exptl_crystal_description       plate
_cell_formula_units_Z            2
loop_
_atom_site_label
_atom_site_type_symbol
_atom_site_fract_x
_atom_site_fract_y
_atom_site_fract_z
C1 C 0.4196(2) 0.13625(14) 0.22190(7)
C2 C 0.4447(2) 0.39386(14) 0.24171(7)
O1 O 0.97463(18) -0.38616(11) -0.02102(6)
C3 C 0.3098(2) 0.19202(14) 0.26648(7)
C4 C 0.5393(2) 0.21178(14) 0.18829(7)
C5 C 0.5488(2) 0.33820(14) 0.19690(7)
C6 C 0.6622(2) 0.16539(14) 0.14310(7)
C7 C 0.1642(2) -0.01445(15) 0.28723(7)
C8 C 0.2707(2) -0.06927(14) 0.24333(7)
C9 C 0.3966(2) 0.00494(14) 0.21125(7)
C10 C 0.3292(2) 0.32178(14) 0.27648(7)
C11 C 0.1833(2) 0.11420(14) 0.29834(7)
C12 C 0.0654(2) 0.15764(15) 0.34187(8)
C13 C 0.4931(2) -0.05934(15) 0.16728(8)
C14 C 0.6603(2) -0.19923(14) 0.09317(7)
O2 O -0.58912(18) 0.17954(13) 0.54622(6)
C15 C 0.9657(2) -0.24726(16) 0.07120(8)
H1 H 1.1048 -0.2356 0.0832
C16 C 0.6751(2) 0.53859(16) 0.17089(9)
H2 H 0.7500 0.5875 0.1467
C17 C 0.5981(2) 0.14141(15) 0.07842(8)
H3 H 0.4677 0.1438 0.0629
C18 C 0.2415(2) -0.20108(15) 0.23163(8)
H4 H 0.3102 -0.2389 0.2023
C19 C 0.2343(2) 0.38848(15) 0.32451(8)
C20 C 0.5611(2) -0.12809(15) 0.13310(8)
C21 C 0.8662(2) -0.18232(15) 0.10997(8)
H5 H 0.9380 -0.1258 0.1483
C22 C 0.5581(2) -0.28431(15) 0.03726(8)
H6 H 0.4180 -0.2983 0.0260
C23 C 0.5752(2) 0.59368(16) 0.21598(9)
H7 H 0.5854 0.6797 0.2223
C24 C 0.4649(2) 0.52459(15) 0.25028(8)
H8 H 0.3999 0.5634 0.2805
C25 C 0.8623(2) -0.32936(15) 0.01487(8)
C26 C 0.1175(2) -0.27290(16) 0.26165(8)
H9 H 0.0994 -0.3601 0.2528
C27 C 0.0372(2) -0.09405(16) 0.31831(8)
H10 H -0.0330 -0.0591 0.3481
C28 C 0.8538(2) 0.16105(15) 0.16518(8)
H11 H 0.8990 0.1761 0.2092
C29 C 0.6640(2) 0.41579(15) 0.16212(8)
H12 H 0.7339 0.3805 0.1323
C30 C -0.0462(2) 0.16768(15) 0.37929(8)
C31 C 0.6560(2) -0.34901(15) -0.00223(8)
H13 H 0.5844 -0.4060 -0.0404
C32 C 0.9792(2) 0.13465(16) 0.12276(8)
H14 H 1.1098 0.1321 0.1380
C33 C -0.1794(2) 0.17431(15) 0.42374(8)
C34 C -0.4489(2) 0.17500(16) 0.50795(8)
C35 C 0.0152(3) -0.21837(16) 0.30598(8)
H15 H -0.0694 -0.2690 0.3273
C36 C -0.2706(3) 0.14721(17) 0.52435(8)
H16 H -0.2406 0.1284 0.5638
C37 C 0.9147(3) 0.11231(16) 0.05890(8)
H17 H 1.0015 0.0957 0.0303
C38 C -0.4932(3) 0.20101(18) 0.45009(8)
H18 H -0.6157 0.2187 0.4390
C39 C 0.3335(3) 0.43540(17) 0.38659(8)
H19 H 0.4607 0.4241 0.3984
C40 C 0.0522(3) 0.41190(16) 0.30749(9)
H20 H -0.0137 0.3845 0.2649
C41 C -0.1374(3) 0.14750(17) 0.48208(8)
H21 H -0.0155 0.1291 0.4931
C42 C 0.7232(3) 0.11405(15) 0.03633(8)
H22 H 0.6776 0.0966 -0.0077
C43 C -0.3600(3) 0.20143(17) 0.40835(8)
H23 H -0.3911 0.2202 0.3689
C44 C -0.0330(3) 0.47495(17) 0.35245(10)
H24 H -0.1579 0.4891 0.3406
C45 C 0.8753(3) -0.46441(18) -0.08093(9)
H25 H 0.7614 -0.5295 -0.0755
H26 H 0.9688 -0.5028 -0.1012
H27 H 0.8274 -0.4148 -0.1073
C46 C 0.2477(3) 0.49871(18) 0.43152(9)
H28 H 0.3157 0.5292 0.4739
C47 C 0.0638(3) 0.51737(18) 0.41473(10)
H29 H 0.0042 0.5589 0.4456
C48 C -0.5381(3) 0.1671(2) 0.60867(9)
H30 H -0.5218 0.0841 0.6071
H31 H -0.6448 0.1781 0.6324
H32 H -0.4124 0.2304 0.6295
loop_
_geom_bond_atom_site_label_1
_geom_bond_atom_site_label_2
_geom_bond_site_symmetry_1
_geom_bond_site_symmetry_2
C1 C3 1_555 1_555
C2 C5 1_555 1_555
O1 C25 1_555 1_555
C3 C10 1_555 1_555
C4 C1 1_555 1_555
C5 C4 1_555 1_555
C6 C4 1_555 1_555
C7 C8 1_555 1_555
C8 C9 1_555 1_555
C9 C1 1_555 1_555
C10 C2 1_555 1_555
C11 C3 1_555 1_555
C12 C11 1_555 1_555
C13 C9 1_555 1_555
C14 C20 1_555 1_555
O2 C34 1_555 1_555
C15 H1 1_555 1_555
C16 H2 1_555 1_555
C17 C6 1_555 1_555
H3 C17 1_555 1_555
C18 C8 1_555 1_555
H4 C18 1_555 1_555
C19 C10 1_555 1_555
C20 C13 1_555 1_555
C21 C14 1_555 1_555
H5 C21 1_555 1_555
C22 C14 1_555 1_555
H6 C22 1_555 1_555
C23 C16 1_555 1_555
H7 C23 1_555 1_555
C24 C2 1_555 1_555
H8 C24 1_555 1_555
C25 C15 1_555 1_555
C26 C18 1_555 1_555
H9 C26 1_555 1_555
C27 C7 1_555 1_555
H10 C27 1_555 1_555
C28 C6 1_555 1_555
H11 C28 1_555 1_555
C29 C5 1_555 1_555
H12 C29 1_555 1_555
C30 C12 1_555 1_555
C31 C22 1_555 1_555
H13 C31 1_555 1_555
C32 C28 1_555 1_555
H14 C32 1_555 1_555
C33 C30 1_555 1_555
C34 C36 1_555 1_555
C35 C26 1_555 1_555
H15 C35 1_555 1_555
C36 H16 1_555 1_555
C37 C32 1_555 1_555
H17 C37 1_555 1_555
C38 C34 1_555 1_555
H18 C38 1_555 1_555
C39 C19 1_555 1_555
H19 C39 1_555 1_555
C40 C19 1_555 1_555
H20 C40 1_555 1_555
C41 C33 1_555 1_555
H21 C41 1_555 1_555
C42 C17 1_555 1_555
H22 C42 1_555 1_555
C43 C33 1_555 1_555
H23 C43 1_555 1_555
C44 C40 1_555 1_555
H24 C44 1_555 1_555
C45 O1 1_555 1_555
H25 C45 1_555 1_555
H26 C45 1_555 1_555
H27 C45 1_555 1_555
C46 C39 1_555 1_555
H28 C46 1_555 1_555
C47 C44 1_555 1_555
H29 C47 1_555 1_555
C48 O2 1_555 1_555
H30 C48 1_555 1_555
H31 C48 1_555 1_555
H32 C48 1_555 1_555
C7 C11 1_555 1_555
C15 C21 1_555 1_555
C16 C29 1_555 1_555
C23 C24 1_555 1_555
C25 C31 1_555 1_555
C27 C35 1_555 1_555
C36 C41 1_555 1_555
C37 C42 1_555 1_555
C38 C43 1_555 1_555
C46 C47 1_555 1_555

#END
