
#######################################################################
#
#                 Cambridge Crystallographic Data Centre
#                                CCDC 
#
#######################################################################
#
# If this CIF has been generated from an entry in the Cambridge 
# Structural Database, then it will include bibliographic, chemical, 
# crystal, experimental, refinement or atomic coordinate data resulting 
# from the CCDC's data processing and validation procedures.
#
#######################################################################

data_QAMWOT
_chemical_formula_moiety         'C21 H17 Br1 N2 O4 S2'
_chemical_name_systematic        
N-(2-(4-bromophenyl)-2-cyanoethyl)-N-(phenylsulfonyl)benzenesulfonamide
_symmetry_cell_setting           monoclinic
_symmetry_space_group_name_H-M   'P 21'
_symmetry_Int_Tables_number      4
_space_group_name_Hall           'P 2yb'
loop_
_symmetry_equiv_pos_site_id
_symmetry_equiv_pos_as_xyz
1 x,y,z
2 -x,1/2+y,-z
_cell_length_a                   12.8816(12)
_cell_length_b                   11.5594(11)
_cell_length_c                   14.7395(13)
_cell_angle_alpha                90
_cell_angle_beta                 93.812(2)
_cell_angle_gamma                90
_cell_volume                     2189.91
_exptl_crystal_colour            colorless
_exptl_crystal_description       prismatic
_cell_formula_units_Z            4
loop_
_atom_site_label
_atom_site_type_symbol
_atom_site_fract_x
_atom_site_fract_y
_atom_site_fract_z
Br1 Br 1.00934(9) 0.68179(11) 0.42528(9)
S1 S 0.46969(16) 0.23115(17) 0.50434(14)
S2 S 0.47084(15) 0.29135(18) 0.69959(13)
N1 N 0.5249(4) 0.2933(5) 0.5976(4)
N2 N 0.7858(5) 0.2555(7) 0.7446(5)
O1 O 0.5515(4) 0.2175(5) 0.4474(4)
O2 O 0.4140(5) 0.1345(4) 0.5330(4)
O3 O 0.4462(5) 0.1760(5) 0.7195(4)
O4 O 0.5424(4) 0.3527(6) 0.7586(3)
C1 C 0.6076(5) 0.3796(6) 0.5838(5)
H1 H 0.6071 0.4372 0.6316
H2 H 0.5918 0.4187 0.5263
C2 C 0.7174(5) 0.3266(6) 0.5837(4)
H3 H 0.7135 0.2591 0.5434
C3 C 0.7923(5) 0.4121(6) 0.5462(5)
C4 C 0.8101(7) 0.4093(7) 0.4559(5)
H4 H 0.7785 0.3525 0.4189
C5 C 0.8735(8) 0.4887(9) 0.4193(6)
H5 H 0.8838 0.4876 0.3575
C6 C 0.9218(6) 0.5705(7) 0.4750(6)
C7 C 0.9040(6) 0.5753(8) 0.5641(6)
H6 H 0.9347 0.6328 0.6009
C8 C 0.8404(6) 0.4949(7) 0.5999(5)
H7 H 0.8298 0.4968 0.6616
C9 C 0.7536(5) 0.2865(7) 0.6755(6)
C10 C 0.3817(6) 0.3313(6) 0.4557(4)
C11 C 0.4155(6) 0.4199(7) 0.4022(5)
H8 H 0.4855 0.4275 0.3912
C12 C 0.3424(9) 0.4971(8) 0.3654(6)
H9 H 0.3642 0.5582 0.3303
C13 C 0.2396(10) 0.4864(8) 0.3788(7)
H10 H 0.1920 0.5390 0.3524
C14 C 0.2066(7) 0.3991(9) 0.4308(6)
H11 H 0.1363 0.3922 0.4404
C15 C 0.2773(6) 0.3192(7) 0.4704(5)
H12 H 0.2546 0.2589 0.5060
C16 C 0.3566(5) 0.3727(7) 0.6839(4)
C17 C 0.3640(6) 0.4868(7) 0.6582(5)
H13 H 0.4281 0.5188 0.6470
C18 C 0.2760(9) 0.5519(9) 0.6496(6)
H14 H 0.2803 0.6283 0.6304
C19 C 0.1841(10) 0.5087(12) 0.6678(6)
H15 H 0.1256 0.5560 0.6624
C20 C 0.1739(7) 0.3963(14) 0.6944(6)
H16 H 0.1092 0.3674 0.7078
C21 C 0.2637(7) 0.3238(8) 0.7014(5)
H17 H 0.2591 0.2462 0.7173
Br2 Br 0.53522(9) 0.38158(11) 1.06222(11)
S3 S -0.04583(15) 0.7638(2) 0.80380(12)
S4 S -0.03576(16) 0.84714(17) 0.99285(13)
N3 N 0.0114(4) 0.7689(5) 0.9092(3)
N4 N 0.2389(6) 0.8145(7) 0.7705(5)
O5 O 0.0132(4) 0.6782(6) 0.7599(3)
O6 O -0.0536(4) 0.8774(6) 0.7686(4)
O7 O 0.0523(4) 0.8776(6) 1.0506(4)
O8 O -0.1012(5) 0.9315(5) 0.9496(4)
C22 C 0.0959(5) 0.6865(6) 0.9358(5)
H18 H 0.0904 0.6201 0.8955
H19 H 0.0869 0.6592 0.9970
C23 C 0.2059(5) 0.7397(6) 0.9325(5)
H20 H 0.2111 0.8053 0.9746
C24 C 0.2863(5) 0.6511(6) 0.9645(5)
C25 C 0.3248(6) 0.6480(8) 1.0528(5)
H21 H 0.3005 0.7013 1.0936
C26 C 0.3976(7) 0.5694(9) 1.0830(6)
H22 H 0.4231 0.5683 1.1436
C27 C 0.4316(6) 0.4934(8) 1.0224(7)
C28 C 0.3963(6) 0.4923(8) 0.9345(6)
H23 H 0.4209 0.4389 0.8938
C29 C 0.3232(6) 0.5723(7) 0.9072(5)
H24 H 0.2976 0.5727 0.8466
C30 C 0.2248(6) 0.7829(8) 0.8404(6)
C31 C -0.1699(5) 0.7066(6) 0.8157(4)
C32 C -0.2553(7) 0.7734(8) 0.7942(5)
H25 H -0.2471 0.8505 0.7781
C33 C -0.3527(7) 0.7276(12) 0.7964(6)
H26 H -0.4108 0.7730 0.7810
C34 C -0.3645(9) 0.6150(13) 0.8212(7)
H27 H -0.4307 0.5829 0.8212
C35 C -0.2786(10) 0.5491(9) 0.8462(6)
H28 H -0.2875 0.4737 0.8664
C36 C -0.1790(8) 0.5929(8) 0.8417(5)
H29 H -0.1206 0.5473 0.8558
C37 C -0.1114(6) 0.7508(7) 1.0527(5)
C38 C -0.2188(7) 0.7491(8) 1.0328(5)
H30 H -0.2494 0.7998 0.9900
C39 C -0.2786(9) 0.6730(11) 1.0765(7)
H31 H -0.3506 0.6726 1.0660
C40 C -0.2296(13) 0.5972(10) 1.1362(9)
H32 H -0.2706 0.5434 1.1642
C41 C -0.1258(12) 0.5947(10) 1.1576(7)
H33 H -0.0967 0.5408 1.1986
C42 C -0.0640(8) 0.6750(9) 1.1164(6)
H34 H 0.0073 0.6782 1.1309
loop_
_geom_bond_atom_site_label_1
_geom_bond_atom_site_label_2
_geom_bond_site_symmetry_1
_geom_bond_site_symmetry_2
Br1 C6 1_555 1_555
S1 N1 1_555 1_555
S2 N1 1_555 1_555
N1 C1 1_555 1_555
N2 C9 1_555 1_555
O1 S1 1_555 1_555
O2 S1 1_555 1_555
O3 S2 1_555 1_555
O4 S2 1_555 1_555
C1 H1 1_555 1_555
H2 C1 1_555 1_555
C2 C1 1_555 1_555
H3 C2 1_555 1_555
C3 C2 1_555 1_555
C4 C3 1_555 1_555
H4 C4 1_555 1_555
C5 C4 1_555 1_555
H5 C5 1_555 1_555
C6 C5 1_555 1_555
C7 C6 1_555 1_555
H6 C7 1_555 1_555
C8 C3 1_555 1_555
H7 C8 1_555 1_555
C9 C2 1_555 1_555
C10 S1 1_555 1_555
C11 C10 1_555 1_555
H8 C11 1_555 1_555
C12 C11 1_555 1_555
H9 C12 1_555 1_555
C13 C12 1_555 1_555
H10 C13 1_555 1_555
C14 C13 1_555 1_555
H11 C14 1_555 1_555
C15 C10 1_555 1_555
H12 C15 1_555 1_555
C16 S2 1_555 1_555
C17 C16 1_555 1_555
H13 C17 1_555 1_555
C18 C17 1_555 1_555
H14 C18 1_555 1_555
C19 C18 1_555 1_555
H15 C19 1_555 1_555
C20 C19 1_555 1_555
H16 C20 1_555 1_555
C21 C16 1_555 1_555
H17 C21 1_555 1_555
Br2 C27 1_555 1_555
S3 N3 1_555 1_555
S4 N3 1_555 1_555
N3 C22 1_555 1_555
N4 C30 1_555 1_555
O5 S3 1_555 1_555
O6 S3 1_555 1_555
O7 S4 1_555 1_555
O8 S4 1_555 1_555
C22 H18 1_555 1_555
H19 C22 1_555 1_555
C23 C22 1_555 1_555
H20 C23 1_555 1_555
C24 C23 1_555 1_555
C25 C24 1_555 1_555
H21 C25 1_555 1_555
C26 C25 1_555 1_555
H22 C26 1_555 1_555
C27 C26 1_555 1_555
C28 C27 1_555 1_555
H23 C28 1_555 1_555
C29 C24 1_555 1_555
H24 C29 1_555 1_555
C30 C23 1_555 1_555
C31 S3 1_555 1_555
C32 C31 1_555 1_555
H25 C32 1_555 1_555
C33 C32 1_555 1_555
H26 C33 1_555 1_555
C34 C33 1_555 1_555
H27 C34 1_555 1_555
C35 C34 1_555 1_555
H28 C35 1_555 1_555
C36 C31 1_555 1_555
H29 C36 1_555 1_555
C37 S4 1_555 1_555
C38 C37 1_555 1_555
H30 C38 1_555 1_555
C39 C38 1_555 1_555
H31 C39 1_555 1_555
C40 C39 1_555 1_555
H32 C40 1_555 1_555
C41 C40 1_555 1_555
H33 C41 1_555 1_555
C42 C37 1_555 1_555
H34 C42 1_555 1_555
C7 C8 1_555 1_555
C14 C15 1_555 1_555
C20 C21 1_555 1_555
C28 C29 1_555 1_555
C35 C36 1_555 1_555
C41 C42 1_555 1_555

#END
