
#######################################################################
#
#                 Cambridge Crystallographic Data Centre
#                                CCDC 
#
#######################################################################
#
# If this CIF has been generated from an entry in the Cambridge 
# Structural Database, then it will include bibliographic, chemical, 
# crystal, experimental, refinement or atomic coordinate data resulting 
# from the CCDC's data processing and validation procedures.
#
#######################################################################

data_QAMZOT
_chemical_formula_moiety         'C15 H22 O4'
_chemical_name_systematic        
(+-)-Spiro[(1,7-dihydroxy-3a,4-dimethylperhydroindane)-2,3'-(4'-methylenetetrahydrofuran-2'-one)]
_symmetry_cell_setting           tetragonal
_symmetry_space_group_name_H-M   'I 41/a'
_symmetry_Int_Tables_number      88
_space_group_name_Hall           '-I 4ad'
loop_
_symmetry_equiv_pos_site_id
_symmetry_equiv_pos_as_xyz
1 x,y,z
2 1/2+x,1/2+y,1/2+z
3 3/4-y,1/4+x,1/4+z
4 1/4-y,3/4+x,3/4+z
5 1/4+y,1/4-x,1/4+z
6 -x,1/2-y,z
7 1/2-x,-y,1/2+z
8 3/4+y,3/4-x,3/4+z
9 -x,-y,-z
10 1/2-x,1/2-y,1/2-z
11 1/4+y,3/4-x,3/4-z
12 3/4+y,1/4-x,1/4-z
13 3/4-y,3/4+x,3/4-z
14 x,1/2+y,-z
15 1/2+x,y,1/2-z
16 1/4-y,1/4+x,1/4-z
_cell_length_a                   20.220(7)
_cell_length_b                   20.220(7)
_cell_length_c                   13.427(7)
_cell_angle_alpha                90
_cell_angle_beta                 90
_cell_angle_gamma                90
_cell_volume                     5489.61
_exptl_crystal_colour            colorless
_exptl_crystal_description       prism
_chemical_melting_point          131-131.5deg.C
_cell_formula_units_Z            16
loop_
_atom_site_label
_atom_site_type_symbol
_atom_site_fract_x
_atom_site_fract_y
_atom_site_fract_z
O1 O 0.61386(6) 0.75655(6) 0.22032(9)
O2 O 0.47810(8) 1.01897(6) 0.2680(1)
O3 O 0.48799(6) 0.83015(6) 0.22118(9)
O4 O 0.38740(7) 0.95929(7) 0.2873(1)
C1 C 0.63482(8) 0.80172(8) 0.2956(1)
C2 C 0.68580(8) 0.84757(9) 0.2516(1)
C3 C 0.71079(8) 0.89427(9) 0.3312(2)
C4 C 0.65493(8) 0.93499(8) 0.3756(1)
C5 C 0.59894(7) 0.89159(7) 0.4198(1)
C6 C 0.53595(8) 0.93454(8) 0.4328(1)
C7 C 0.48526(8) 0.91340(8) 0.3540(1)
C8 C 0.45262(9) 0.97036(9) 0.2999(2)
C9 C 0.52756(8) 0.87330(7) 0.2778(1)
C10 C 0.57719(7) 0.83777(7) 0.3446(1)
C11 C 0.42621(8) 0.87519(8) 0.3920(1)
C12 C 0.36801(9) 0.8972(1) 0.3322(2)
C13 C 0.42294(9) 0.8340(1) 0.4668(2)
C14 C 0.68134(9) 0.98606(9) 0.4488(1)
C15 C 0.61937(9) 0.86028(9) 0.5191(1)
H1 H 0.5762 0.7297 0.2407
H2 H 0.6572 0.7744 0.3497
H3 H 0.6347 0.9589 0.3199
H4 H 0.5529 0.9070 0.2216
H5 H 0.4859 0.8439 0.1618
H6 H 0.5516 0.8049 0.3805
H7 H 0.7209 0.8193 0.2258
H8 H 0.6675 0.8724 0.1992
H9 H 0.7325 0.8689 0.3844
H10 H 0.7467 0.9240 0.3021
H11 H 0.5463 0.9823 0.4233
H12 H 0.5192 0.9294 0.4970
H13 H 0.3292 0.9029 0.3739
H14 H 0.3577 0.8651 0.2733
H15 H 0.3804 0.8147 0.4806
H16 H 0.4609 0.8203 0.4993
H17 H 0.7143 1.0166 0.4187
H18 H 0.7055 0.9643 0.5010
H19 H 0.6476 1.0110 0.4803
H20 H 0.6236 0.8907 0.5648
H21 H 0.6569 0.8368 0.5130
H22 H 0.5795 0.8278 0.5459
loop_
_geom_bond_atom_site_label_1
_geom_bond_atom_site_label_2
_geom_bond_site_symmetry_1
_geom_bond_site_symmetry_2
O1 C1 1_555 1_555
O2 C8 1_555 1_555
O3 C9 1_555 1_555
O4 C8 1_555 1_555
C1 C2 1_555 1_555
C2 C3 1_555 1_555
C3 C4 1_555 1_555
C4 C5 1_555 1_555
C5 C6 1_555 1_555
C6 C7 1_555 1_555
C7 C8 1_555 1_555
C9 C7 1_555 1_555
C10 C1 1_555 1_555
C11 C7 1_555 1_555
C12 O4 1_555 1_555
C13 C11 1_555 1_555
C14 C4 1_555 1_555
C15 C5 1_555 1_555
H1 O1 1_555 1_555
H2 C1 1_555 1_555
H3 C4 1_555 1_555
H4 C9 1_555 1_555
H5 O3 1_555 1_555
H6 C10 1_555 1_555
H7 C2 1_555 1_555
H8 C2 1_555 1_555
H9 C3 1_555 1_555
H10 C3 1_555 1_555
H11 C6 1_555 1_555
H12 C6 1_555 1_555
H13 C12 1_555 1_555
H14 C12 1_555 1_555
H15 C13 1_555 1_555
H16 C13 1_555 1_555
H17 C14 1_555 1_555
H18 C14 1_555 1_555
H19 C14 1_555 1_555
H20 C15 1_555 1_555
H21 C15 1_555 1_555
H22 C15 1_555 1_555
C5 C10 1_555 1_555
C9 C10 1_555 1_555
C11 C12 1_555 1_555

#END
