
#######################################################################
#
#                 Cambridge Crystallographic Data Centre
#                                CCDC 
#
#######################################################################
#
# If this CIF has been generated from an entry in the Cambridge 
# Structural Database, then it will include bibliographic, chemical, 
# crystal, experimental, refinement or atomic coordinate data resulting 
# from the CCDC's data processing and validation procedures.
#
#######################################################################

data_QANCAL
_chemical_formula_moiety         'C9 H6 Br1 N1 O4'
_chemical_name_systematic        
5-Bromo-2-(2,5-dioxopyrrolidin-1-yl)-3-furaldehyde
_symmetry_cell_setting           orthorhombic
_symmetry_space_group_name_H-M   'P c a 21'
_symmetry_Int_Tables_number      29
_space_group_name_Hall           'P 2c -2ac'
loop_
_symmetry_equiv_pos_site_id
_symmetry_equiv_pos_as_xyz
1 x,y,z
2 -x,-y,1/2+z
3 1/2+x,-y,z
4 1/2-x,y,1/2+z
_cell_length_a                   10.8597(8)
_cell_length_b                   10.2406(8)
_cell_length_c                   17.9340(14)
_cell_angle_alpha                90
_cell_angle_beta                 90
_cell_angle_gamma                90
_cell_volume                     1994.44
_cell_formula_units_Z            8
loop_
_atom_site_label
_atom_site_type_symbol
_atom_site_fract_x
_atom_site_fract_y
_atom_site_fract_z
Br1 Br 0.23368(10) 0.49015(9) 0.48897(5)
N1 N 0.4406(5) 0.9255(6) 0.4399(4)
O1 O 0.3354(4) 0.7273(5) 0.4664(3)
O2 O 0.6528(7) 0.6664(6) 0.3009(4)
O3 O 0.2680(7) 0.9878(6) 0.3705(5)
O4 O 0.6101(5) 0.9186(7) 0.5148(4)
C1 C 0.3446(6) 0.5996(8) 0.4457(5)
C2 C 0.4382(7) 0.5800(8) 0.3995(4)
H1 H 0.4630 0.5008 0.3791
C3 C 0.4934(7) 0.7047(8) 0.3875(5)
C4 C 0.4283(7) 0.7909(7) 0.4293(4)
C5 C 0.3549(10) 1.0170(9) 0.4089(6)
C6 C 0.3985(8) 1.1491(8) 0.4369(5)
H2 H 0.3353 1.1898 0.4672
H3 H 0.4168 1.2063 0.3952
C7 C 0.5137(8) 1.1251(8) 0.4829(5)
H4 H 0.5840 1.1690 0.4610
H5 H 0.5027 1.1568 0.5335
C8 C 0.5316(8) 0.9830(9) 0.4825(7)
C9 C 0.5979(8) 0.7414(8) 0.3417(5)
H6 H 0.6246 0.8276 0.3437
Br2 Br 1.02155(9) 0.50598(9) 0.13605(5)
N2 N 0.8138(5) 0.0714(6) 0.1847(3)
O5 O 0.9114(5) 0.2664(5) 0.1575(3)
O6 O 0.5914(6) 0.3276(6) 0.3225(5)
O7 O 0.6395(5) 0.0644(7) 0.1105(4)
O8 O 0.9797(7) 0.0180(7) 0.2530(6)
C10 C 0.8991(7) 0.3949(8) 0.1776(5)
C11 C 0.8058(7) 0.4159(8) 0.2259(5)
H7 H 0.7810 0.4949 0.2466
C12 C 0.7531(6) 0.2884(7) 0.2381(5)
C13 C 0.8200(6) 0.2050(7) 0.1967(4)
C14 C 0.7166(9) 0.0043(8) 0.1428(9)
C15 C 0.7367(7) -0.1398(8) 0.1548(5)
H8 H 0.6696 -0.1766 0.1837
H9 H 0.7409 -0.1849 0.1073
C16 C 0.8554(7) -0.1537(10) 0.1959(5)
H10 H 0.9172 -0.1948 0.1647
H11 H 0.8443 -0.2059 0.2406
C17 C 0.8927(7) -0.0166(7) 0.2156(6)
C18 C 0.6510(6) 0.2519(8) 0.2864(4)
H12 H 0.6306 0.1638 0.2894
loop_
_geom_bond_atom_site_label_1
_geom_bond_atom_site_label_2
_geom_bond_site_symmetry_1
_geom_bond_site_symmetry_2
Br1 C1 1_555 1_555
N1 C4 1_555 1_555
O1 C1 1_555 1_555
O2 C9 1_555 1_555
O3 C5 1_555 1_555
O4 C8 1_555 1_555
C1 C2 1_555 1_555
C2 H1 1_555 1_555
C3 C2 1_555 1_555
C4 O1 1_555 1_555
C5 N1 1_555 1_555
C6 C5 1_555 1_555
H2 C6 1_555 1_555
H3 C6 1_555 1_555
C7 C6 1_555 1_555
H4 C7 1_555 1_555
H5 C7 1_555 1_555
C8 N1 1_555 1_555
C9 C3 1_555 1_555
H6 C9 1_555 1_555
Br2 C10 1_555 1_555
N2 C13 1_555 1_555
O5 C10 1_555 1_555
O6 C18 1_555 1_555
O7 C14 1_555 1_555
O8 C17 1_555 1_555
C10 C11 1_555 1_555
C11 H7 1_555 1_555
C12 C11 1_555 1_555
C13 O5 1_555 1_555
C14 N2 1_555 1_555
C15 C14 1_555 1_555
H8 C15 1_555 1_555
H9 C15 1_555 1_555
C16 C15 1_555 1_555
H10 C16 1_555 1_555
H11 C16 1_555 1_555
C17 N2 1_555 1_555
C18 C12 1_555 1_555
H12 C18 1_555 1_555
C3 C4 1_555 1_555
C7 C8 1_555 1_555
C12 C13 1_555 1_555
C16 C17 1_555 1_555

#END
