
#######################################################################
#
#                 Cambridge Crystallographic Data Centre
#                                CCDC 
#
#######################################################################
#
# If this CIF has been generated from an entry in the Cambridge 
# Structural Database, then it will include bibliographic, chemical, 
# crystal, experimental, refinement or atomic coordinate data resulting 
# from the CCDC's data processing and validation procedures.
#
#######################################################################

data_QANCOZ
_chemical_formula_moiety         'C13 H7 B1 Br2 F2 N2 O1'
_chemical_name_systematic        
(2-((2,5-Dibromo-3-furyl)(2H-pyrrol-2-ylidene)methyl)-1H-pyrrolato)(difluoro)boron
_symmetry_cell_setting           monoclinic
_symmetry_space_group_name_H-M   'P 21/c'
_symmetry_Int_Tables_number      14
_space_group_name_Hall           '-P 2ybc'
loop_
_symmetry_equiv_pos_site_id
_symmetry_equiv_pos_as_xyz
1 x,y,z
2 -x,1/2+y,1/2-z
3 -x,-y,-z
4 x,1/2-y,1/2+z
_cell_length_a                   11.413(4)
_cell_length_b                   14.359(5)
_cell_length_c                   8.569(3)
_cell_angle_alpha                90
_cell_angle_beta                 99.621(14)
_cell_angle_gamma                90
_cell_volume                     1384.53
_exptl_crystal_colour            'dark green'
_exptl_crystal_description       platy
_cell_formula_units_Z            4
loop_
_atom_site_label
_atom_site_type_symbol
_atom_site_fract_x
_atom_site_fract_y
_atom_site_fract_z
B1 B 0.0956(5) 1.0420(4) 0.2664(7)
F1 F -0.0245(3) 1.0564(2) 0.2469(5)
F2 F 0.1370(4) 1.0637(2) 0.1292(4)
N1 N 0.1588(3) 1.1014(3) 0.4071(5)
N2 N 0.1238(3) 0.9386(3) 0.3128(5)
O1 O 0.4593(3) 0.8730(2) 0.8940(4)
Br1 Br 0.40710(5) 0.90104(5) 1.19225(6)
Br2 Br 0.51543(5) 0.85050(5) 0.59968(7)
C1 C 0.1627(5) 1.1943(4) 0.4156(7)
H1 H 0.1252 1.2343 0.3375
C2 C 0.2312(5) 1.2229(4) 0.5590(7)
H2 H 0.2467 1.2839 0.5926
C3 C 0.2708(5) 1.1438(3) 0.6399(6)
H3 H 0.3184 1.1411 0.7391
C4 C 0.2262(4) 1.0668(3) 0.5453(6)
C5 C 0.2436(4) 0.9713(3) 0.5682(6)
C6 C 0.1940(4) 0.9083(3) 0.4536(6)
C7 C 0.1953(5) 0.8097(3) 0.4494(6)
H4 H 0.2352 0.7705 0.5270
C8 C 0.1258(5) 0.7822(4) 0.3081(7)
H5 H 0.1099 0.7214 0.2734
C9 C 0.0845(5) 0.8642(4) 0.2280(7)
H6 H 0.0362 0.8661 0.1292
C10 C 0.3786(4) 0.9142(4) 0.9731(6)
C11 C 0.2907(4) 0.9546(4) 0.8747(6)
H7 H 0.2267 0.9871 0.9021
C12 C 0.3148(4) 0.9379(3) 0.7170(5)
C13 C 0.4175(4) 0.8883(3) 0.7370(6)
loop_
_geom_bond_atom_site_label_1
_geom_bond_atom_site_label_2
_geom_bond_site_symmetry_1
_geom_bond_site_symmetry_2
B1 F1 1_555 1_555
F2 B1 1_555 1_555
N1 B1 1_555 1_555
N2 B1 1_555 1_555
O1 C10 1_555 1_555
Br1 C10 1_555 1_555
Br2 C13 1_555 1_555
C1 N1 1_555 1_555
H1 C1 1_555 1_555
C2 C1 1_555 1_555
H2 C2 1_555 1_555
C3 C2 1_555 1_555
H3 C3 1_555 1_555
C4 N1 1_555 1_555
C5 C4 1_555 1_555
C6 N2 1_555 1_555
C7 C6 1_555 1_555
H4 C7 1_555 1_555
C8 C7 1_555 1_555
H5 C8 1_555 1_555
C9 N2 1_555 1_555
H6 C9 1_555 1_555
C10 C11 1_555 1_555
C11 H7 1_555 1_555
C12 C5 1_555 1_555
C13 O1 1_555 1_555
C3 C4 1_555 1_555
C5 C6 1_555 1_555
C8 C9 1_555 1_555
C11 C12 1_555 1_555
C12 C13 1_555 1_555

#END
