
#######################################################################
#
#                 Cambridge Crystallographic Data Centre
#                                CCDC 
#
#######################################################################
#
# If this CIF has been generated from an entry in the Cambridge 
# Structural Database, then it will include bibliographic, chemical, 
# crystal, experimental, refinement or atomic coordinate data resulting 
# from the CCDC's data processing and validation procedures.
#
#######################################################################

data_QANFAP
_chemical_formula_moiety         'C24 H32 N16 O2,1.5(C2 H6 O1 S1)'
_chemical_name_systematic        
'6,20-dibutoxy-2,3,5,7,9,10,16,17,19,21,23,24,29,30,31,32-hexadecaazapentacyclo[23.3.1.1^4,8^.1^11,15^.1^18,22^]dotriaconta-1(29),4(32),5,7,11(31),12,14,18(30),19,21,25,27-dodecaene dimethyl sulfoxide solvate'
_symmetry_cell_setting           triclinic
_symmetry_space_group_name_H-M   'P -1'
_symmetry_Int_Tables_number      2
_space_group_name_Hall           '-P 1'
loop_
_symmetry_equiv_pos_site_id
_symmetry_equiv_pos_as_xyz
1 x,y,z
2 -x,-y,-z
_cell_length_a                   13.180(3)
_cell_length_b                   19.895(4)
_cell_length_c                   20.590(4)
_cell_angle_alpha                108.27(3)
_cell_angle_beta                 107.63(3)
_cell_angle_gamma                90.48(3)
_cell_volume                     4854.12
_exptl_crystal_colour            colorless
_exptl_crystal_description       Plate
_cell_formula_units_Z            4
loop_
_atom_site_label
_atom_site_type_symbol
_atom_site_fract_x
_atom_site_fract_y
_atom_site_fract_z
S1 S 0.77729(13) 0.76666(10) 0.19013(11)
O1 O 0.6872(4) 0.7074(3) 0.1645(3)
C1 C 0.8381(7) 0.7472(8) 0.1215(5)
H1 H 0.7915 0.7560 0.0798
H2 H 0.8509 0.6981 0.1086
H3 H 0.9049 0.7769 0.1388
C2 C 0.8830(6) 0.7462(5) 0.2576(5)
H4 H 0.8633 0.7541 0.3004
H5 H 0.9476 0.7763 0.2689
H6 H 0.8947 0.6972 0.2395
S2 S 0.52969(15) 0.73606(11) -0.04570(11)
O2 O 0.6482(4) 0.7518(3) -0.0367(3)
C3 C 0.5209(7) 0.6650(5) -0.0126(4)
H7 H 0.5534 0.6814 0.0390
H8 H 0.5575 0.6271 -0.0339
H9 H 0.4469 0.6479 -0.0247
C4 C 0.4620(8) 0.6864(6) -0.1390(5)
H10 H 0.4587 0.7167 -0.1676
H11 H 0.3906 0.6689 -0.1447
H12 H 0.5004 0.6469 -0.1545
S3 S 0.0666(3) 0.19548(15) 0.25672(17)
O3 O 0.0816(6) 0.2698(3) 0.3078(4)
C5 C 0.0935(16) 0.2001(9) 0.1795(7)
H13 H 0.0363 0.2200 0.1526
H14 H 0.0991 0.1531 0.1500
H15 H 0.1596 0.2297 0.1939
C6 C 0.1810(12) 0.1580(9) 0.2904(10)
H16 H 0.1806 0.1511 0.3344
H17 H 0.2434 0.1894 0.2999
H18 H 0.1821 0.1130 0.2556
O4 O 0.5225(4) 0.2412(2) 0.3326(3)
O5 O 0.1855(5) 0.9449(3) 0.5404(3)
N1 N 0.3978(4) 0.4192(3) 0.3079(3)
N2 N 0.5489(4) 0.3538(3) 0.3261(3)
N3 N 0.3803(5) 0.3037(3) 0.3202(3)
N4 N 0.5665(4) 0.4652(3) 0.3177(3)
H19 H 0.6325 0.4590 0.3222
N5 N 0.5340(4) 0.5275(3) 0.3122(3)
H20 H 0.5261 0.5364 0.2728
N6 N 0.4782(4) 0.6363(2) 0.3533(2)
N7 N 0.4273(4) 0.7476(3) 0.3854(3)
H21 H 0.4207 0.7464 0.3422
N8 N 0.4070(4) 0.8085(3) 0.4330(3)
H22 H 0.4560 0.8442 0.4541
N9 N 0.2395(4) 0.7577(3) 0.4180(3)
N10 N 0.3050(4) 0.8792(3) 0.4910(3)
N11 N 0.1298(4) 0.8311(3) 0.4792(3)
N12 N 0.0747(4) 0.7151(3) 0.4161(3)
H23 H 0.0217 0.7219 0.4326
N13 N 0.0774(4) 0.6468(2) 0.3676(2)
H24 H 0.0423 0.6357 0.3224
N14 N 0.1397(4) 0.5393(3) 0.3407(2)
N15 N 0.1873(4) 0.4290(3) 0.3014(3)
H25 H 0.1514 0.4287 0.2588
N16 N 0.2384(4) 0.3689(3) 0.3094(3)
H26 H 0.2030 0.3339 0.3120
C7 C 0.3429(4) 0.3654(3) 0.3131(3)
C8 C 0.4850(5) 0.3038(3) 0.3260(3)
C9 C 0.4997(5) 0.4104(4) 0.3165(3)
C10 C 0.5133(4) 0.5771(3) 0.3687(3)
C11 C 0.5322(6) 0.5696(4) 0.4349(3)
H27 H 0.5605 0.5300 0.4449
C12 C 0.5057(7) 0.6265(4) 0.4881(4)
H28 H 0.5121 0.6219 0.5327
C13 C 0.4718(6) 0.6863(3) 0.4752(3)
H29 H 0.4582 0.7241 0.5105
C14 C 0.4581(4) 0.6885(3) 0.4056(3)
C15 C 0.3134(5) 0.8144(3) 0.4481(3)
C16 C 0.2097(6) 0.8837(4) 0.5014(4)
C17 C 0.1508(5) 0.7691(3) 0.4371(3)
C18 C 0.1367(4) 0.5981(3) 0.3936(3)
C19 C 0.1856(5) 0.6069(4) 0.4674(3)
H30 H 0.1816 0.6482 0.5032
C20 C 0.2387(6) 0.5533(4) 0.4847(3)
H31 H 0.2720 0.5576 0.5329
C21 C 0.2429(5) 0.4925(4) 0.4306(4)
H32 H 0.2786 0.4553 0.4415
C22 C 0.1930(4) 0.4880(3) 0.3595(3)
C23 C 0.6360(8) 0.2357(5) 0.3312(7)
H33 H 0.6399 0.2352 0.2847
H34 H 0.6835 0.2760 0.3685
C24 C 0.6672(9) 0.1700(6) 0.3435(7)
H35 H 0.6104 0.1318 0.3128
H36 H 0.6755 0.1749 0.3933
C25 C 0.7725(9) 0.1493(6) 0.3285(6)
H37 H 0.7922 0.1080 0.3430
H38 H 0.7594 0.1352 0.2768
C26 C 0.8676(7) 0.2077(6) 0.3666(6)
H39 H 0.9279 0.1913 0.3517
H40 H 0.8860 0.2190 0.4179
H41 H 0.8485 0.2495 0.3540
C27 C 0.2529(9) 1.0118(5) 0.5589(6)
H42 H 0.2943 1.0052 0.5261
H43 H 0.2071 1.0486 0.5523
C28 C 0.3208(12) 1.0337(7) 0.6278(8)
H44 H 0.3687 0.9978 0.6340
H45 H 0.2797 1.0385 0.6606
C29 C 0.3918(10) 1.1098(10) 0.6486(9)
H46 H 0.4443 1.1199 0.6961
H47 H 0.4306 1.1049 0.6145
C30 C 0.3371(10) 1.1640(7) 0.6489(8)
H48 H 0.3846 1.2057 0.6598
H49 H 0.3022 1.1716 0.6849
H50 H 0.2844 1.1546 0.6023
O6 O -0.0833(3) 0.2269(2) 0.0040(2)
O7 O 0.4058(5) 0.9185(3) 0.1701(4)
N17 N 0.0976(4) 0.4104(2) 0.1360(2)
N18 N 0.0803(4) 0.2893(3) 0.0557(3)
N19 N -0.0766(4) 0.3411(3) 0.0746(2)
N20 N -0.0603(4) 0.4572(2) 0.1470(2)
H51 H -0.1291 0.4517 0.1352
N21 N -0.0053(4) 0.5217(2) 0.1942(2)
H52 H 0.0096 0.5312 0.2400
N22 N 0.0789(3) 0.6313(2) 0.2191(2)
N23 N 0.1607(4) 0.7440(3) 0.2584(3)
H53 H 0.1677 0.7441 0.3013
N24 N 0.1994(4) 0.8040(3) 0.2491(3)
H54 H 0.1673 0.8417 0.2576
N25 N 0.3438(4) 0.7510(2) 0.2248(3)
N26 N 0.4491(4) 0.8088(3) 0.1772(3)
N27 N 0.3071(4) 0.8644(3) 0.2121(3)
N28 N 0.4869(4) 0.7018(3) 0.1906(3)
H55 H 0.5402 0.7062 0.1758
N29 N 0.4707(4) 0.6411(2) 0.2054(2)
H56 H 0.5080 0.6359 0.2454
N30 N 0.3808(3) 0.5305(2) 0.1734(2)
N31 N 0.3120(4) 0.4172(3) 0.1505(2)
H57 H 0.3562 0.4199 0.1919
N32 N 0.2408(4) 0.3556(3) 0.1099(3)
H58 H 0.2657 0.3175 0.0901
C31 C 0.1353(4) 0.3527(3) 0.1002(3)
C32 C -0.0257(5) 0.2886(3) 0.0469(3)
C33 C -0.0095(4) 0.4016(3) 0.1181(3)
C34 C 0.0263(4) 0.5720(3) 0.1671(3)
C35 C 0.0011(4) 0.5625(3) 0.0945(3)
H59 H -0.0375 0.5208 0.0593
C36 C 0.0357(5) 0.6177(3) 0.0761(3)
H60 H 0.0222 0.6127 0.0277
C37 C 0.0897(5) 0.6799(3) 0.1287(3)
H61 H 0.1112 0.7179 0.1170
C38 C 0.1108(4) 0.6835(3) 0.1996(3)
C39 C 0.2858(4) 0.8053(3) 0.2272(3)
C40 C 0.3884(6) 0.8614(4) 0.1862(5)
C41 C 0.4240(4) 0.7558(3) 0.1977(3)
C42 C 0.3916(4) 0.5877(3) 0.1536(3)
C43 C 0.3354(4) 0.5909(3) 0.0851(3)
H62 H 0.3447 0.6310 0.0726
C44 C 0.2665(5) 0.5326(4) 0.0377(3)
H63 H 0.2271 0.5335 -0.0079
C45 C 0.2531(4) 0.4722(3) 0.0553(3)
H64 H 0.2070 0.4322 0.0225
C46 C 0.3128(4) 0.4745(3) 0.1251(3)
C47 C -0.1988(5) 0.2212(4) -0.0163(3)
H65 H -0.2296 0.1818 -0.0610
H66 H -0.2237 0.2646 -0.0244
C48 C -0.2346(7) 0.2092(5) 0.0422(6)
H67 H -0.2001 0.2479 0.0868
H68 H -0.3112 0.2118 0.0301
C49 C -0.2122(14) 0.1402(9) 0.0556(10)
H69 H -0.1357 0.1368 0.0700
H70 H -0.2472 0.1003 0.0122
C50 C -0.2593(16) 0.1400(10) 0.1201(11)
H71 H -0.2476 0.0963 0.1303
H72 H -0.3347 0.1442 0.1053
H73 H -0.2233 0.1795 0.1627
C51 C 0.4863(8) 0.9190(8) 0.1338(10)
H74 H 0.4787 0.8726 0.0975
H75 H 0.4714 0.9537 0.1090
C52 C 0.585(2) 0.9334(10) 0.1761(14)
H76 H 0.6069 0.8942 0.1936
H77 H 0.5924 0.9760 0.2173
C53 C 0.655(2) 0.9458(16) 0.128(2)
H78 H 0.6347 0.9864 0.1125
H79 H 0.6438 0.9041 0.0854
C54 C 0.787(2) 0.9609(16) 0.181(2)
H80 H 0.8314 0.9661 0.1527
H81 H 0.8057 0.9215 0.1977
H82 H 0.7983 1.0038 0.2212
loop_
_geom_bond_atom_site_label_1
_geom_bond_atom_site_label_2
_geom_bond_site_symmetry_1
_geom_bond_site_symmetry_2
S1 O1 1_555 1_555
C1 S1 1_555 1_555
H1 C1 1_555 1_555
H2 C1 1_555 1_555
H3 C1 1_555 1_555
C2 S1 1_555 1_555
H4 C2 1_555 1_555
H5 C2 1_555 1_555
H6 C2 1_555 1_555
S2 O2 1_555 1_555
C3 S2 1_555 1_555
H7 C3 1_555 1_555
H8 C3 1_555 1_555
H9 C3 1_555 1_555
C4 S2 1_555 1_555
H10 C4 1_555 1_555
H11 C4 1_555 1_555
H12 C4 1_555 1_555
S3 O3 1_555 1_555
C5 S3 1_555 1_555
H13 C5 1_555 1_555
H14 C5 1_555 1_555
H15 C5 1_555 1_555
C6 S3 1_555 1_555
H16 C6 1_555 1_555
H17 C6 1_555 1_555
H18 C6 1_555 1_555
O4 C8 1_555 1_555
O5 C16 1_555 1_555
N1 C7 1_555 1_555
N2 C8 1_555 1_555
N3 C7 1_555 1_555
N4 H19 1_555 1_555
N5 N4 1_555 1_555
H20 N5 1_555 1_555
N6 C10 1_555 1_555
N7 H21 1_555 1_555
N8 N7 1_555 1_555
H22 N8 1_555 1_555
N9 C15 1_555 1_555
N10 C15 1_555 1_555
N11 C16 1_555 1_555
N12 H23 1_555 1_555
N13 N12 1_555 1_555
H24 N13 1_555 1_555
N14 C18 1_555 1_555
N15 H25 1_555 1_555
N16 N15 1_555 1_555
H26 N16 1_555 1_555
C7 N16 1_555 1_555
C8 N3 1_555 1_555
C9 N1 1_555 1_555
C10 N5 1_555 1_555
C11 C10 1_555 1_555
H27 C11 1_555 1_555
C12 C11 1_555 1_555
H28 C12 1_555 1_555
C13 C12 1_555 1_555
H29 C13 1_555 1_555
C14 N6 1_555 1_555
C15 N8 1_555 1_555
C16 N10 1_555 1_555
C17 N9 1_555 1_555
C18 N13 1_555 1_555
C19 C18 1_555 1_555
H30 C19 1_555 1_555
C20 C19 1_555 1_555
H31 C20 1_555 1_555
C21 C20 1_555 1_555
H32 C21 1_555 1_555
C22 N14 1_555 1_555
C23 O4 1_555 1_555
H33 C23 1_555 1_555
H34 C23 1_555 1_555
C24 C23 1_555 1_555
H35 C24 1_555 1_555
H36 C24 1_555 1_555
C25 C24 1_555 1_555
H37 C25 1_555 1_555
H38 C25 1_555 1_555
C26 C25 1_555 1_555
H39 C26 1_555 1_555
H40 C26 1_555 1_555
H41 C26 1_555 1_555
C27 O5 1_555 1_555
H42 C27 1_555 1_555
H43 C27 1_555 1_555
C28 C27 1_555 1_555
H44 C28 1_555 1_555
H45 C28 1_555 1_555
C29 C28 1_555 1_555
H46 C29 1_555 1_555
H47 C29 1_555 1_555
C30 C29 1_555 1_555
H48 C30 1_555 1_555
H49 C30 1_555 1_555
H50 C30 1_555 1_555
O6 C32 1_555 1_555
O7 C40 1_555 1_555
N17 C31 1_555 1_555
N18 C31 1_555 1_555
N19 C32 1_555 1_555
N20 H51 1_555 1_555
N21 N20 1_555 1_555
H52 N21 1_555 1_555
N22 C34 1_555 1_555
N23 H53 1_555 1_555
N24 N23 1_555 1_555
H54 N24 1_555 1_555
N25 C39 1_555 1_555
N26 C40 1_555 1_555
N27 C39 1_555 1_555
N28 H55 1_555 1_555
N29 N28 1_555 1_555
H56 N29 1_555 1_555
N30 C42 1_555 1_555
N31 H57 1_555 1_555
N32 N31 1_555 1_555
H58 N32 1_555 1_555
C31 N32 1_555 1_555
C32 N18 1_555 1_555
C33 N17 1_555 1_555
C34 N21 1_555 1_555
C35 C34 1_555 1_555
H59 C35 1_555 1_555
C36 C35 1_555 1_555
H60 C36 1_555 1_555
C37 C36 1_555 1_555
H61 C37 1_555 1_555
C38 N22 1_555 1_555
C39 N24 1_555 1_555
C40 N27 1_555 1_555
C41 N25 1_555 1_555
C42 N29 1_555 1_555
C43 C42 1_555 1_555
H62 C43 1_555 1_555
C44 C43 1_555 1_555
H63 C44 1_555 1_555
C45 C44 1_555 1_555
H64 C45 1_555 1_555
C46 N30 1_555 1_555
C47 O6 1_555 1_555
H65 C47 1_555 1_555
H66 C47 1_555 1_555
C48 C47 1_555 1_555
H67 C48 1_555 1_555
H68 C48 1_555 1_555
C49 C48 1_555 1_555
H69 C49 1_555 1_555
H70 C49 1_555 1_555
C50 C49 1_555 1_555
H71 C50 1_555 1_555
H72 C50 1_555 1_555
H73 C50 1_555 1_555
C51 O7 1_555 1_555
H74 C51 1_555 1_555
H75 C51 1_555 1_555
C52 C51 1_555 1_555
H76 C52 1_555 1_555
H77 C52 1_555 1_555
C53 C52 1_555 1_555
H78 C53 1_555 1_555
H79 C53 1_555 1_555
C54 C53 1_555 1_555
H80 C54 1_555 1_555
H81 C54 1_555 1_555
H82 C54 1_555 1_555
N2 C9 1_555 1_555
N4 C9 1_555 1_555
N7 C14 1_555 1_555
N11 C17 1_555 1_555
N12 C17 1_555 1_555
N15 C22 1_555 1_555
C13 C14 1_555 1_555
C21 C22 1_555 1_555
N19 C33 1_555 1_555
N20 C33 1_555 1_555
N23 C38 1_555 1_555
N26 C41 1_555 1_555
N28 C41 1_555 1_555
N31 C46 1_555 1_555
C37 C38 1_555 1_555
C45 C46 1_555 1_555

#END
