
#######################################################################
#
#                 Cambridge Crystallographic Data Centre
#                                CCDC 
#
#######################################################################
#
# If this CIF has been generated from an entry in the Cambridge 
# Structural Database, then it will include bibliographic, chemical, 
# crystal, experimental, refinement or atomic coordinate data resulting 
# from the CCDC's data processing and validation procedures.
#
#######################################################################

data_QANFES
_chemical_formula_moiety         'C28 H21 I1 O6 S2'
_chemical_name_systematic        
3-(2,2-bis(phenylsulfonyl)ethyl)-5-iodo-3-phenyl-1-benzofuran-2(3H)-one
_symmetry_cell_setting           monoclinic
_symmetry_space_group_name_H-M   'P 21/n'
_symmetry_Int_Tables_number      14
_space_group_name_Hall           '-P 2yn'
loop_
_symmetry_equiv_pos_site_id
_symmetry_equiv_pos_as_xyz
1 x,y,z
2 1/2-x,1/2+y,1/2-z
3 -x,-y,-z
4 1/2+x,1/2-y,1/2+z
_cell_length_a                   13.922(4)
_cell_length_b                   10.692(3)
_cell_length_c                   17.327(5)
_cell_angle_alpha                90
_cell_angle_beta                 94.547(4)
_cell_angle_gamma                90
_cell_volume                     2571.08
_exptl_crystal_colour            colorless
_exptl_crystal_description       prism
_cell_formula_units_Z            4
loop_
_atom_site_label
_atom_site_type_symbol
_atom_site_fract_x
_atom_site_fract_y
_atom_site_fract_z
I1 I 0.347963(15) 0.880296(18) -0.049144(12)
S1 S 0.41678(5) 0.38861(5) 0.12199(4)
S2 S 0.35199(4) 0.54048(6) 0.25805(4)
O1 O 0.40916(14) 0.28291(16) 0.17240(11)
O2 O 0.49298(13) 0.39426(16) 0.07018(11)
O3 O 0.25647(12) 0.51790(16) 0.22344(10)
O4 O 0.37428(13) 0.66101(16) 0.29227(10)
O5 O 0.58618(14) 0.70205(18) 0.35791(10)
O6 O 0.51774(14) 0.86376(16) 0.29168(11)
C1 C 0.30697(18) 0.4102(2) 0.06564(15)
C2 C 0.30512(19) 0.4872(2) 0.00087(15)
H1 H 0.3620 0.5280 -0.0128
C3 C 0.2188(2) 0.5029(3) -0.04335(16)
H2 H 0.2159 0.5545 -0.0881
C4 C 0.1373(2) 0.4438(3) -0.02228(17)
H3 H 0.0783 0.4551 -0.0529
C5 C 0.1392(2) 0.3682(3) 0.04249(17)
H4 H 0.0818 0.3292 0.0565
C6 C 0.22486(19) 0.3496(3) 0.08684(17)
H5 H 0.2276 0.2965 0.1309
C7 C 0.43189(17) 0.5297(2) 0.18117(14)
H6 H 0.4124 0.6001 0.1453
C8 C 0.37990(18) 0.4254(2) 0.32938(14)
C9 C 0.32448(19) 0.3165(2) 0.32831(15)
H7 H 0.2766 0.3008 0.2873
C10 C 0.3410(2) 0.2316(3) 0.38860(15)
H8 H 0.3043 0.1568 0.3892
C11 C 0.41088(19) 0.2565(3) 0.44757(15)
H9 H 0.4209 0.1991 0.4893
C12 C 0.4664(2) 0.3633(2) 0.44703(16)
H10 H 0.5152 0.3779 0.4875
C13 C 0.45104(18) 0.4495(2) 0.38739(14)
H11 H 0.4887 0.5235 0.3866
C14 C 0.53851(17) 0.5538(2) 0.20619(14)
H12 H 0.5779 0.5140 0.1679
H13 H 0.5542 0.5116 0.2565
C15 C 0.56899(17) 0.6935(2) 0.21470(14)
C16 C 0.67745(17) 0.7057(2) 0.20332(14)
C17 C 0.74307(19) 0.6278(2) 0.24528(16)
H14 H 0.7202 0.5649 0.2779
C18 C 0.8418(2) 0.6417(3) 0.23961(17)
H15 H 0.8859 0.5885 0.2686
C19 C 0.87592(19) 0.7325(3) 0.19195(16)
H16 H 0.9432 0.7427 0.1886
C20 C 0.81095(19) 0.8086(3) 0.14914(17)
H17 H 0.8340 0.8702 0.1157
C21 C 0.71223(18) 0.7957(2) 0.15477(15)
H18 H 0.6685 0.8485 0.1253
C22 C 0.50792(17) 0.7861(2) 0.16696(15)
C23 C 0.47424(17) 0.7874(2) 0.09026(14)
H19 H 0.4916 0.7235 0.0559
C24 C 0.41307(19) 0.8863(2) 0.06414(16)
C25 C 0.39143(19) 0.9832(2) 0.11311(17)
H20 H 0.3520 1.0504 0.0936
C26 C 0.42662(18) 0.9832(2) 0.19008(17)
H21 H 0.4131 1.0496 0.2240
C27 C 0.48250(18) 0.8819(2) 0.21548(15)
C28 C 0.55895(18) 0.7468(2) 0.29684(15)
loop_
_geom_bond_atom_site_label_1
_geom_bond_atom_site_label_2
_geom_bond_site_symmetry_1
_geom_bond_site_symmetry_2
I1 C24 1_555 1_555
S1 O1 1_555 1_555
S2 O3 1_555 1_555
O2 S1 1_555 1_555
O4 S2 1_555 1_555
O5 C28 1_555 1_555
O6 C27 1_555 1_555
C1 S1 1_555 1_555
C2 C1 1_555 1_555
H1 C2 1_555 1_555
C3 C2 1_555 1_555
H2 C3 1_555 1_555
C4 C3 1_555 1_555
H3 C4 1_555 1_555
C5 C4 1_555 1_555
H4 C5 1_555 1_555
C6 C1 1_555 1_555
H5 C6 1_555 1_555
C7 S1 1_555 1_555
H6 C7 1_555 1_555
C8 S2 1_555 1_555
C9 C8 1_555 1_555
H7 C9 1_555 1_555
C10 C9 1_555 1_555
H8 C10 1_555 1_555
C11 C10 1_555 1_555
H9 C11 1_555 1_555
C12 C11 1_555 1_555
H10 C12 1_555 1_555
C13 C8 1_555 1_555
H11 C13 1_555 1_555
C14 C7 1_555 1_555
H12 C14 1_555 1_555
H13 C14 1_555 1_555
C15 C14 1_555 1_555
C16 C15 1_555 1_555
C17 C16 1_555 1_555
H14 C17 1_555 1_555
C18 C17 1_555 1_555
H15 C18 1_555 1_555
C19 C18 1_555 1_555
H16 C19 1_555 1_555
C20 C19 1_555 1_555
H17 C20 1_555 1_555
C21 C16 1_555 1_555
H18 C21 1_555 1_555
C22 C15 1_555 1_555
C23 C22 1_555 1_555
H19 C23 1_555 1_555
C24 C23 1_555 1_555
C25 C24 1_555 1_555
H20 C25 1_555 1_555
C26 C25 1_555 1_555
H21 C26 1_555 1_555
C27 C22 1_555 1_555
C28 O6 1_555 1_555
S2 C7 1_555 1_555
C5 C6 1_555 1_555
C12 C13 1_555 1_555
C15 C28 1_555 1_555
C20 C21 1_555 1_555
C26 C27 1_555 1_555

#END
