
#######################################################################
#
#                 Cambridge Crystallographic Data Centre
#                                CCDC 
#
#######################################################################
#
# If this CIF has been generated from an entry in the Cambridge 
# Structural Database, then it will include bibliographic, chemical, 
# crystal, experimental, refinement or atomic coordinate data resulting 
# from the CCDC's data processing and validation procedures.
#
#######################################################################

data_QANHOF
_chemical_formula_moiety         'C14 H12 F2 N2 O2'
_chemical_name_systematic        
'ethyl difluoro(3-(pyrimidin-2-yl)phenyl)acetate'
_symmetry_cell_setting           triclinic
_symmetry_space_group_name_H-M   'P -1'
_symmetry_Int_Tables_number      2
_space_group_name_Hall           '-P 1'
loop_
_symmetry_equiv_pos_site_id
_symmetry_equiv_pos_as_xyz
1 x,y,z
2 -x,-y,-z
_cell_length_a                   7.041(2)
_cell_length_b                   9.294(2)
_cell_length_c                   10.549(3)
_cell_angle_alpha                102.93(3)
_cell_angle_beta                 93.38(3)
_cell_angle_gamma                111.14(2)
_cell_volume                     620.084
_exptl_crystal_colour            colorless
_exptl_crystal_description       block
_cell_formula_units_Z            2
loop_
_atom_site_label
_atom_site_type_symbol
_atom_site_fract_x
_atom_site_fract_y
_atom_site_fract_z
C1 C 0.74848(12) 0.35699(10) 0.57868(8)
N1 N 0.83737(12) 0.45652(9) 0.69830(7)
C2 C 0.86254(14) 0.38756(11) 0.79315(9)
H1 H 0.926025 0.453945 0.878907
C3 C 0.79994(14) 0.22348(11) 0.77158(9)
H2 H 0.816866 0.176147 0.840241
C4 C 0.71147(14) 0.13238(11) 0.64461(9)
H3 H 0.667897 0.019451 0.625788
N2 N 0.68494(12) 0.19744(9) 0.54720(8)
C5 C 0.71571(12) 0.42902(10) 0.47131(8)
C6 C 0.77825(13) 0.59424(10) 0.49287(8)
H4 H 0.844509 0.662924 0.577455
C7 C 0.74398(13) 0.65868(10) 0.39109(9)
H5 H 0.787249 0.771315 0.406802
C8 C 0.64690(13) 0.56013(10) 0.26623(9)
H6 H 0.624079 0.604505 0.196741
C9 C 0.58396(12) 0.39508(10) 0.24538(8)
C10 C 0.61710(12) 0.32959(10) 0.34661(8)
H7 H 0.572596 0.216883 0.331013
C11 C 0.47173(13) 0.28598(10) 0.11280(8)
F1 F 0.49125(8) 0.14131(6) 0.09420(5)
F2 F 0.55291(9) 0.34875(7) 0.01460(5)
C12 C 0.23900(13) 0.25165(10) 0.09249(8)
O1 O 0.16105(10) 0.30181(8) 0.01764(6)
O2 O 0.14409(9) 0.16042(7) 0.16829(6)
C13 C -0.07679(13) 0.12606(11) 0.16160(9)
H8 H -0.146675 0.078560 0.069266
H9 H -0.099567 0.225648 0.196689
C14 C -0.16058(15) 0.01014(11) 0.24330(10)
H10 H -0.128031 -0.084480 0.211626
H11 H -0.310388 -0.021996 0.235809
H12 H -0.097846 0.061467 0.335611
loop_
_geom_bond_atom_site_label_1
_geom_bond_atom_site_label_2
_geom_bond_site_symmetry_1
_geom_bond_site_symmetry_2
C1 N1 1_555 1_555
N1 C2 1_555 1_555
C2 H1 1_555 1_555
C3 C2 1_555 1_555
H2 C3 1_555 1_555
C4 C3 1_555 1_555
H3 C4 1_555 1_555
N2 C1 1_555 1_555
C5 C1 1_555 1_555
C6 C5 1_555 1_555
H4 C6 1_555 1_555
C7 C6 1_555 1_555
H5 C7 1_555 1_555
C8 C7 1_555 1_555
H6 C8 1_555 1_555
C9 C8 1_555 1_555
C10 C5 1_555 1_555
H7 C10 1_555 1_555
C11 C9 1_555 1_555
F1 C11 1_555 1_555
F2 C11 1_555 1_555
C12 C11 1_555 1_555
O1 C12 1_555 1_555
O2 C12 1_555 1_555
C13 O2 1_555 1_555
H8 C13 1_555 1_555
H9 C13 1_555 1_555
C14 C13 1_555 1_555
H10 C14 1_555 1_555
H11 C14 1_555 1_555
H12 C14 1_555 1_555
C4 N2 1_555 1_555
C9 C10 1_555 1_555

#END
