
#######################################################################
#
#                 Cambridge Crystallographic Data Centre
#                                CCDC 
#
#######################################################################
#
# If this CIF has been generated from an entry in the Cambridge 
# Structural Database, then it will include bibliographic, chemical, 
# crystal, experimental, refinement or atomic coordinate data resulting 
# from the CCDC's data processing and validation procedures.
#
#######################################################################

data_QANJUK
_chemical_formula_moiety         'C30 H29 N1 P2'
_chemical_name_systematic        
(((Cyclopropyl)phenylphosphino)imino)-(1-phenylcyclopropyl)diphenylphosphorane
_symmetry_cell_setting           monoclinic
_symmetry_space_group_name_H-M   'P 21/n'
_symmetry_Int_Tables_number      14
_space_group_name_Hall           '-P 2yn'
loop_
_symmetry_equiv_pos_site_id
_symmetry_equiv_pos_as_xyz
1 x,y,z
2 1/2+x,1/2-y,1/2+z
3 -x,-y,-z
4 1/2-x,1/2+y,1/2-z
_cell_length_a                   9.555(1)
_cell_length_b                   10.182(1)
_cell_length_c                   25.711(2)
_cell_angle_alpha                90
_cell_angle_beta                 98.75(1)
_cell_angle_gamma                90
_cell_volume                     2472.29
_exptl_crystal_colour            yellow
_exptl_crystal_description       plate
_chemical_melting_point          144-145deg.C
_cell_formula_units_Z            4
_exptl_crystal_recrystallization_method hexane/toluene
loop_
_atom_site_label
_atom_site_type_symbol
_atom_site_fract_x
_atom_site_fract_y
_atom_site_fract_z
P1 P 0.84834(9) 0.03514(10) 0.15074(3)
P2 P 0.71456(10) -0.05356(10) 0.04919(4)
N1 N 0.8461(3) -0.0555(3) 0.10114(11)
C1 C 0.9402(3) -0.0512(4) 0.20786(13)
C2 C 1.0567(5) -0.1431(4) 0.1957(2)
H1 H 1.0811(35) -0.1448(33) 0.1620(14)
H2 H 1.1431(40) -0.1487(36) 0.2250(15)
C3 C 0.9199(5) -0.1990(4) 0.2070(2)
H3 H 0.8608(35) -0.2321(33) 0.1790(14)
H4 H 0.9153(44) -0.2410(42) 0.2428(17)
C4 C 0.8023(4) 0.0134(4) -0.00339(14)
H5 H 0.8869(39) -0.0346(38) -0.0093(14)
C5 C 0.7134(5) 0.0692(5) -0.0519(2)
H6 H 0.7511(40) 0.0567(38) -0.0851(15)
H7 H 0.6107(44) 0.0665(39) -0.0540(15)
C6 C 0.7963(5) 0.1588(4) -0.0131(2)
H8 H 0.8851(46) 0.2032(43) -0.0228(16)
H9 H 0.7467(36) 0.2076(34) 0.0091(13)
C7 C 0.9460(4) 0.1866(4) 0.14601(13)
C8 C 1.0209(4) 0.1965(4) 0.10394(14)
H10 H 1.0179(4) 0.1261(4) 0.07954(14)
C9 C 1.0983(4) 0.3079(4) 0.09677(15)
H11 H 1.1503(4) 0.3125(4) 0.06814(15)
C10 C 1.1003(4) 0.4113(4) 0.1314(2)
H12 H 1.1520(4) 0.4885(4) 0.1258(2)
C11 C 1.0262(4) 0.4039(4) 0.17395(15)
H13 H 1.0290(4) 0.4752(4) 0.19792(15)
C12 C 0.9496(4) 0.2918(4) 0.18165(14)
H14 H 0.8994(4) 0.2863(4) 0.21075(14)
C13 C 0.6734(3) 0.0804(3) 0.16473(13)
C14 C 0.6124(4) 0.2020(4) 0.14967(13)
H15 H 0.6673(4) 0.2676(4) 0.13592(13)
C15 C 0.4709(4) 0.2272(4) 0.15450(14)
H16 H 0.4303(4) 0.3103(4) 0.14441(14)
C16 C 0.3900(4) 0.1307(4) 0.17400(14)
H17 H 0.2945(4) 0.1482(4) 0.17795(14)
C17 C 0.4498(4) 0.0090(4) 0.18798(14)
H18 H 0.3940(4) -0.0576(4) 0.20069(14)
C18 C 0.5899(4) -0.0165(4) 0.18306(14)
H19 H 0.6293(4) -0.1004(4) 0.19249(14)
C19 C 0.9615(4) 0.0193(3) 0.26014(13)
C20 C 0.8568(4) 0.0186(4) 0.29242(13)
H20 H 0.7700(4) -0.0258(4) 0.28113(13)
C21 C 0.8772(4) 0.0809(4) 0.34097(15)
H21 H 0.8043(4) 0.0787(4) 0.36227(15)
C22 C 1.0027(5) 0.1471(4) 0.3578(2)
H22 H 1.0165(5) 0.1909(4) 0.3908(2)
C23 C 1.1077(5) 0.1492(4) 0.3262(2)
H23 H 1.1942(5) 0.1937(4) 0.3377(2)
C24 C 1.0871(4) 0.0864(4) 0.27784(15)
H24 H 1.1599(4) 0.0876(4) 0.25649(15)
C25 C 0.7136(4) -0.2257(4) 0.02750(13)
C26 C 0.8149(4) -0.3191(4) 0.04780(14)
H25 H 0.8891(4) -0.2943(4) 0.07495(14)
C27 C 0.8080(4) -0.4470(4) 0.02873(15)
H26 H 0.8777(4) -0.5094(4) 0.04263(15)
C28 C 0.6994(4) -0.4833(4) -0.0106(2)
H27 H 0.6945(4) -0.5710(4) -0.0233(2)
C29 C 0.5981(4) -0.3928(4) -0.03119(15)
H28 H 0.5245(4) -0.4178(4) -0.05850(15)
C30 C 0.6048(4) -0.2657(4) -0.01210(14)
H29 H 0.5341(4) -0.2041(4) -0.02589(14)
loop_
_geom_bond_atom_site_label_1
_geom_bond_atom_site_label_2
_geom_bond_site_symmetry_1
_geom_bond_site_symmetry_2
P1 N1 1_555 1_555
P2 N1 1_555 1_555
C1 P1 1_555 1_555
C2 C1 1_555 1_555
H1 C2 1_555 1_555
H2 C2 1_555 1_555
C3 C1 1_555 1_555
H3 C3 1_555 1_555
H4 C3 1_555 1_555
C4 P2 1_555 1_555
H5 C4 1_555 1_555
C5 C4 1_555 1_555
H6 C5 1_555 1_555
H7 C5 1_555 1_555
C6 C4 1_555 1_555
H8 C6 1_555 1_555
H9 C6 1_555 1_555
C7 P1 1_555 1_555
C8 C7 1_555 1_555
H10 C8 1_555 1_555
C9 C8 1_555 1_555
H11 C9 1_555 1_555
C10 C9 1_555 1_555
H12 C10 1_555 1_555
C11 C10 1_555 1_555
H13 C11 1_555 1_555
C12 C7 1_555 1_555
H14 C12 1_555 1_555
C13 P1 1_555 1_555
C14 C13 1_555 1_555
H15 C14 1_555 1_555
C15 C14 1_555 1_555
H16 C15 1_555 1_555
C16 C15 1_555 1_555
H17 C16 1_555 1_555
C17 C16 1_555 1_555
H18 C17 1_555 1_555
C18 C13 1_555 1_555
H19 C18 1_555 1_555
C19 C1 1_555 1_555
C20 C19 1_555 1_555
H20 C20 1_555 1_555
C21 C20 1_555 1_555
H21 C21 1_555 1_555
C22 C21 1_555 1_555
H22 C22 1_555 1_555
C23 C22 1_555 1_555
H23 C23 1_555 1_555
C24 C19 1_555 1_555
H24 C24 1_555 1_555
C25 P2 1_555 1_555
C26 C25 1_555 1_555
H25 C26 1_555 1_555
C27 C26 1_555 1_555
H26 C27 1_555 1_555
C28 C27 1_555 1_555
H27 C28 1_555 1_555
C29 C28 1_555 1_555
H28 C29 1_555 1_555
C30 C25 1_555 1_555
H29 C30 1_555 1_555
C2 C3 1_555 1_555
C5 C6 1_555 1_555
C11 C12 1_555 1_555
C17 C18 1_555 1_555
C23 C24 1_555 1_555
C29 C30 1_555 1_555

#END
