
#######################################################################
#
#                 Cambridge Crystallographic Data Centre
#                                CCDC 
#
#######################################################################
#
# If this CIF has been generated from an entry in the Cambridge 
# Structural Database, then it will include bibliographic, chemical, 
# crystal, experimental, refinement or atomic coordinate data resulting 
# from the CCDC's data processing and validation procedures.
#
#######################################################################

data_QANKUO
_chemical_name_common            'nannocystin Ax'
_chemical_formula_moiety         'C42 H55 Cl2 N3 O8'
_chemical_name_systematic        
9-sec-butyl-6-(3,5-dichloro-4-hydroxybenzyl)-3-(2-hydroxypropan-2-yl)-15-methoxy-10,12,16,20-tetramethyl-21-phenyl-1-oxa-4,7,10-triazacyclohenicosa-12,16,18-triene-2,5,8,11-tetrone
_symmetry_cell_setting           monoclinic
_symmetry_space_group_name_H-M   'P 21'
_symmetry_Int_Tables_number      4
_space_group_name_Hall           'P 2yb'
loop_
_symmetry_equiv_pos_site_id
_symmetry_equiv_pos_as_xyz
1 x,y,z
2 -x,1/2+y,-z
_cell_length_a                   14.4214(10)
_cell_length_b                   11.6137(6)
_cell_length_c                   16.9862(11)
_cell_angle_alpha                90
_cell_angle_beta                 111.966(8)
_cell_angle_gamma                90
_cell_volume                     2638.42
_cell_formula_units_Z            2
loop_
_atom_site_label
_atom_site_type_symbol
_atom_site_fract_x
_atom_site_fract_y
_atom_site_fract_z
O1 O 0.2578(4) 0.8228(5) 0.1724(4)
H1 H 0.2728 0.8090 0.2230
O2 O 0.5740(3) 0.6152(3) 0.0412(2)
O3 O 0.7325(3) 0.5818(3) 0.3343(2)
H2 H 0.7623 0.6216 0.3116
O4 O 0.8341(2) 0.4437(3) 0.24753(18)
O5 O 0.9910(3) 0.6597(3) -0.1433(2)
O6 O 0.5269(3) 0.7456(3) -0.1575(2)
O7 O 0.3632(3) 0.3994(3) -0.1882(2)
N1 N 0.5769(3) 0.4635(3) 0.1235(2)
H3 H 0.5462 0.4022 0.1287
N2 N 0.4351(3) 0.5407(4) -0.0954(3)
N3 N 0.4957(3) 0.5893(4) -0.2418(2)
C1 C 0.4549(4) 0.4673(4) -0.0193(3)
H4 H 0.4761 0.3912 -0.0310
C2 C 0.5413(3) 0.5220(4) 0.0507(3)
C3 C 0.6652(3) 0.4994(4) 0.1941(3)
H5 H 0.6932 0.5655 0.1747
C4 C 0.7414(3) 0.4038(4) 0.2138(3)
C5 C 0.9152(4) 0.3604(4) 0.2658(3)
H6 H 0.8925 0.2949 0.2269
C6 C 0.9981(4) 0.4249(4) 0.2477(3)
H7 H 1.0536 0.3701 0.2610
C7 C 0.9651(4) 0.4467(5) 0.1554(3)
H8 H 0.9343 0.3859 0.1195
C8 C 0.9748(4) 0.5430(5) 0.1191(3)
H9 H 1.0032 0.6064 0.1531
C9 C 0.9421(4) 0.5541(4) 0.0263(3)
H10 H 0.9125 0.4892 -0.0052
C10 C 0.9498(4) 0.6451(5) -0.0175(3)
C11 C 0.9130(4) 0.6378(5) -0.1143(3)
H11 H 0.8876 0.5599 -0.1319
C12 C 0.8317(4) 0.7231(6) -0.1604(4)
H12 H 0.8546 0.7996 -0.1388
H13 H 0.8220 0.7223 -0.2201
C13 C 0.7334(4) 0.7025(5) -0.1531(4)
H14 H 0.7338 0.6885 -0.0991
C14 C 0.6465(4) 0.7023(4) -0.2160(3)
C15 C 0.5527(4) 0.6817(4) -0.2004(3)
C16 C 0.3934(3) 0.5802(4) -0.2436(3)
H15 H 0.3745 0.6565 -0.2301
C17 C 0.3956(4) 0.4991(4) -0.1720(3)
C18 C 0.3612(4) 0.4523(5) 0.0010(3)
H16 H 0.3696 0.3840 0.0358
H17 H 0.3052 0.4382 -0.0518
C19 C 0.3332(3) 0.5533(5) 0.0467(3)
C20 C 0.3126(4) 0.5308(6) 0.1196(4)
H18 H 0.3145 0.4557 0.1391
C21 C 0.2899(5) 0.6182(7) 0.1611(4)
C22 C 0.2832(5) 0.7305(7) 0.1340(5)
C23 C 0.3035(4) 0.7494(5) 0.0646(4)
C24 C 0.3280(4) 0.6658(5) 0.0190(3)
H19 H 0.3407 0.6842 -0.0293
C25 C 0.6421(4) 0.5401(5) 0.2717(4)
C26 C 0.5652(4) 0.6365(5) 0.2444(4)
H20 H 0.5609 0.6725 0.2938
H21 H 0.5012 0.6052 0.2101
H22 H 0.5851 0.6924 0.2122
C27 C 0.6072(5) 0.4434(6) 0.3113(4)
H23 H 0.6554 0.3822 0.3253
H24 H 0.5441 0.4155 0.2722
H25 H 0.5995 0.4701 0.3620
C28 C 0.9465(4) 0.3182(5) 0.3565(3)
C29 C 1.0074(5) 0.2211(6) 0.3803(4)
H26 H 1.0238 0.1839 0.3387
C30 C 1.0439(6) 0.1776(9) 0.4594(6)
H27 H 1.0849 0.1129 0.4722
C31 C 1.0189(8) 0.2317(12) 0.5211(7)
H28 H 1.0408 0.2018 0.5758
C32 C 0.9592(8) 0.3339(10) 0.5007(6)
H29 H 0.9448 0.3736 0.5423
C33 C 0.9233(5) 0.3727(6) 0.4170(4)
H30 H 0.8825 0.4375 0.4025
C34 C 1.0392(4) 0.5258(6) 0.3060(4)
H31 H 1.0991 0.5529 0.3001
H32 H 1.0541 0.5023 0.3637
H33 H 0.9905 0.5865 0.2916
C35 C 0.9977(7) 0.7525(7) 0.0206(5)
H34 H 1.0167 0.7485 0.0811
H35 H 0.9518 0.8151 -0.0014
H36 H 1.0561 0.7647 0.0074
C36 C 1.0685(5) 0.5751(7) -0.1158(5)
H37 H 1.1043 0.5820 -0.0556
H38 H 1.1137 0.5867 -0.1446
H39 H 1.0396 0.4996 -0.1286
C37 C 0.6320(6) 0.7238(9) -0.3073(5)
H40 H 0.5681 0.6945 -0.3436
H41 H 0.6839 0.6855 -0.3199
H42 H 0.6350 0.8050 -0.3165
C38 C 0.5367(5) 0.4919(5) -0.2704(4)
H43 H 0.5788 0.5186 -0.2990
H44 H 0.4832 0.4465 -0.3088
H45 H 0.5753 0.4458 -0.2225
C39 C 0.3163(4) 0.5460(5) -0.3311(3)
H46 H 0.3298 0.4662 -0.3422
C40 C 0.2114(5) 0.5497(6) -0.3255(5)
H47 H 0.2120 0.5044 -0.2780
H48 H 0.1627 0.5190 -0.3768
H49 H 0.1946 0.6279 -0.3183
C41 C 0.3261(6) 0.6199(7) -0.4000(4)
H50 H 0.3951 0.6171 -0.3957
H51 H 0.3117 0.6989 -0.3899
C42 C 0.2589(7) 0.5875(9) -0.4905(5)
H52 H 0.1903 0.5890 -0.4958
H53 H 0.2757 0.5116 -0.5032
H54 H 0.2685 0.6416 -0.5296
Cl1 Cl 0.2646(5) 0.5863(6) 0.2515(3)
Cl2 Cl 0.3018(3) 0.8935(2) 0.0253(4)
O8 O 0.7192(6) 0.3045(4) 0.1989(5)
H55 H 0.461(7) 0.606(8) -0.095(5)
Cl3? Cl 0.304(3) 0.567(4) 0.2680(17)
Cl4? Cl 0.300(2) 0.8944(17) 0.057(2)
O9? O 0.763(3) 0.307(3) 0.231(3)
loop_
_geom_bond_atom_site_label_1
_geom_bond_atom_site_label_2
_geom_bond_site_symmetry_1
_geom_bond_site_symmetry_2
O1 H1 1_555 1_555
O2 C2 1_555 1_555
O3 H2 1_555 1_555
O4 C4 1_555 1_555
O5 C11 1_555 1_555
O6 C15 1_555 1_555
O7 C17 1_555 1_555
N1 H3 1_555 1_555
N2 C1 1_555 1_555
N3 C15 1_555 1_555
C1 H4 1_555 1_555
C2 N1 1_555 1_555
C3 N1 1_555 1_555
H5 C3 1_555 1_555
C4 C3 1_555 1_555
C5 O4 1_555 1_555
H6 C5 1_555 1_555
C6 C5 1_555 1_555
H7 C6 1_555 1_555
C7 C6 1_555 1_555
H8 C7 1_555 1_555
C8 C7 1_555 1_555
H9 C8 1_555 1_555
C9 C8 1_555 1_555
H10 C9 1_555 1_555
C10 C9 1_555 1_555
C11 C10 1_555 1_555
H11 C11 1_555 1_555
C12 C11 1_555 1_555
H12 C12 1_555 1_555
H13 C12 1_555 1_555
C13 C12 1_555 1_555
H14 C13 1_555 1_555
C14 C13 1_555 1_555
C15 C14 1_555 1_555
C16 N3 1_555 1_555
H15 C16 1_555 1_555
C17 N2 1_555 1_555
C18 C1 1_555 1_555
H16 C18 1_555 1_555
H17 C18 1_555 1_555
C19 C18 1_555 1_555
C20 C19 1_555 1_555
H18 C20 1_555 1_555
C21 C20 1_555 1_555
C22 O1 1_555 1_555
C23 C22 1_555 1_555
C24 C19 1_555 1_555
H19 C24 1_555 1_555
C25 O3 1_555 1_555
C26 C25 1_555 1_555
H20 C26 1_555 1_555
H21 C26 1_555 1_555
H22 C26 1_555 1_555
C27 C25 1_555 1_555
H23 C27 1_555 1_555
H24 C27 1_555 1_555
H25 C27 1_555 1_555
C28 C5 1_555 1_555
C29 C28 1_555 1_555
H26 C29 1_555 1_555
C30 C29 1_555 1_555
H27 C30 1_555 1_555
C31 C30 1_555 1_555
H28 C31 1_555 1_555
C32 C31 1_555 1_555
H29 C32 1_555 1_555
C33 C28 1_555 1_555
H30 C33 1_555 1_555
C34 C6 1_555 1_555
H31 C34 1_555 1_555
H32 C34 1_555 1_555
H33 C34 1_555 1_555
C35 C10 1_555 1_555
H34 C35 1_555 1_555
H35 C35 1_555 1_555
H36 C35 1_555 1_555
C36 O5 1_555 1_555
H37 C36 1_555 1_555
H38 C36 1_555 1_555
H39 C36 1_555 1_555
C37 C14 1_555 1_555
H40 C37 1_555 1_555
H41 C37 1_555 1_555
H42 C37 1_555 1_555
C38 N3 1_555 1_555
H43 C38 1_555 1_555
H44 C38 1_555 1_555
H45 C38 1_555 1_555
C39 C16 1_555 1_555
H46 C39 1_555 1_555
C40 C39 1_555 1_555
H47 C40 1_555 1_555
H48 C40 1_555 1_555
H49 C40 1_555 1_555
C41 C39 1_555 1_555
H50 C41 1_555 1_555
H51 C41 1_555 1_555
C42 C41 1_555 1_555
H52 C42 1_555 1_555
H53 C42 1_555 1_555
H54 C42 1_555 1_555
Cl1 C21 1_555 1_555
Cl2 C23 1_555 1_555
O8 C4 1_555 1_555
H55 N2 1_555 1_555
C1 C2 1_555 1_555
C3 C25 1_555 1_555
C16 C17 1_555 1_555
C21 C22 1_555 1_555
C23 C24 1_555 1_555
C32 C33 1_555 1_555

#END
