
#######################################################################
#
#                 Cambridge Crystallographic Data Centre
#                                CCDC 
#
#######################################################################
#
# If this CIF has been generated from an entry in the Cambridge 
# Structural Database, then it will include bibliographic, chemical, 
# crystal, experimental, refinement or atomic coordinate data resulting 
# from the CCDC's data processing and validation procedures.
#
#######################################################################

data_QANLUN
_chemical_formula_moiety         'C17 H13 Cl1 F1 N1 O3'
_chemical_name_systematic        
2-(4-Chloro-2-fluoro-5-(prop-2-ynyloxy)phenyl)-1,3,4,5,6,7-hexahydroisoindole-1,3-dione
_symmetry_cell_setting           triclinic
_symmetry_space_group_name_H-M   'P -1'
_symmetry_Int_Tables_number      2
_space_group_name_Hall           '-P 1'
loop_
_symmetry_equiv_pos_site_id
_symmetry_equiv_pos_as_xyz
1 x,y,z
2 -x,-y,-z
_cell_length_a                   9.313(5)
_cell_length_b                   9.380(5)
_cell_length_c                   10.485(6)
_cell_angle_alpha                99.663(9)
_cell_angle_beta                 104.263(9)
_cell_angle_gamma                112.778(8)
_cell_volume                     782.145
_exptl_crystal_colour            colorless
_exptl_crystal_description       prism
_chemical_melting_point          '409 K'
_cell_formula_units_Z            2
_exptl_crystal_recrystallization_method acetone
loop_
_atom_site_label
_atom_site_type_symbol
_atom_site_fract_x
_atom_site_fract_y
_atom_site_fract_z
Cl1 Cl 1.10934(8) 0.63339(8) 0.87631(7)
F1 F 0.88880(18) 0.69124(17) 0.40938(15)
O1 O 0.5461(2) 0.6103(2) 0.32370(19)
O2 O 0.5902(2) 0.13836(19) 0.24919(17)
O3 O 0.8209(2) 0.33054(19) 0.76829(16)
N1 N 0.6090(2) 0.3948(2) 0.32126(19)
C1 C 0.5233(3) 0.4773(3) 0.2666(2)
C2 C 0.5445(3) 0.2389(3) 0.2296(2)
C3 C 0.4144(3) 0.2288(3) 0.1088(2)
C4 C 0.3108(4) 0.0863(3) -0.0159(3)
H1 H 0.2350 -0.0012 0.0079
H2 H 0.3812 0.0490 -0.0509
C5 C 0.2141(6) 0.1325(5) -0.1248(4)
H3 H 0.2828 0.1767 -0.1780
H4 H 0.1182 0.0346 -0.1867
C6 C 0.1578(5) 0.2458(5) -0.0785(4)
H5 H 0.0691 0.1917 -0.0450
H6 H 0.1101 0.2744 -0.1575
C7 C 0.2833(3) 0.4007(3) 0.0325(3)
H7 H 0.3419 0.4794 -0.0087
H8 H 0.2273 0.4453 0.0816
C8 C 0.4029(3) 0.3668(3) 0.1298(2)
C9 C 0.7297(3) 0.4524(3) 0.4541(2)
C10 C 0.8663(3) 0.6014(3) 0.4975(2)
C11 C 0.9835(3) 0.6593(3) 0.6260(2)
H9 H 1.0744 0.7603 0.6537
C12 C 0.9637(3) 0.5642(3) 0.7134(2)
C13 C 0.8289(3) 0.4130(3) 0.6725(2)
C14 C 0.7123(3) 0.3584(3) 0.5431(2)
H10 H 0.6210 0.2576 0.5153
C15 C 0.6888(3) 0.1711(3) 0.7292(3)
H11 H 0.5853 0.1721 0.6831
H12 H 0.6807 0.1389 0.8113
C16 C 0.7120(3) 0.0534(3) 0.6384(3)
C17 C 0.7317(4) -0.0416(4) 0.5683(4)
H13 H 0.7475 -0.1179 0.5119
loop_
_geom_bond_atom_site_label_1
_geom_bond_atom_site_label_2
_geom_bond_site_symmetry_1
_geom_bond_site_symmetry_2
Cl1 C12 1_555 1_555
F1 C10 1_555 1_555
O1 C1 1_555 1_555
O2 C2 1_555 1_555
O3 C13 1_555 1_555
N1 C1 1_555 1_555
C1 C8 1_555 1_555
C2 N1 1_555 1_555
C3 C2 1_555 1_555
C4 C3 1_555 1_555
H1 C4 1_555 1_555
H2 C4 1_555 1_555
C5 C4 1_555 1_555
H3 C5 1_555 1_555
H4 C5 1_555 1_555
C6 C5 1_555 1_555
H5 C6 1_555 1_555
H6 C6 1_555 1_555
C7 C6 1_555 1_555
H7 C7 1_555 1_555
H8 C7 1_555 1_555
C8 C3 1_555 1_555
C9 N1 1_555 1_555
C10 C9 1_555 1_555
C11 C10 1_555 1_555
H9 C11 1_555 1_555
C12 C11 1_555 1_555
C13 C12 1_555 1_555
C14 C9 1_555 1_555
H10 C14 1_555 1_555
C15 O3 1_555 1_555
H11 C15 1_555 1_555
H12 C15 1_555 1_555
C16 C15 1_555 1_555
C17 C16 1_555 1_555
H13 C17 1_555 1_555
C7 C8 1_555 1_555
C13 C14 1_555 1_555

#END
