
#######################################################################
#
#                 Cambridge Crystallographic Data Centre
#                                CCDC 
#
#######################################################################
#
# If this CIF has been generated from an entry in the Cambridge 
# Structural Database, then it will include bibliographic, chemical, 
# crystal, experimental, refinement or atomic coordinate data resulting 
# from the CCDC's data processing and validation procedures.
#
#######################################################################

data_QANMAU
_chemical_formula_moiety         'C17 H13 Cl1 F1 N1 O3'
_chemical_name_systematic        
2-(4-Chloro-2-fluoro-5-(prop-2-ynyloxy)phenyl)-cis-1,3,3a,4,7,7a-hexahydroisoindole-1,3-dione
_symmetry_cell_setting           monoclinic
_symmetry_space_group_name_H-M   'C 2/c'
_symmetry_Int_Tables_number      15
_space_group_name_Hall           '-C 2yn'
loop_
_symmetry_equiv_pos_site_id
_symmetry_equiv_pos_as_xyz
1 x,y,z
2 1/2+x,1/2+y,z
3 x,-y,1/2+z
4 1/2+x,1/2-y,1/2+z
5 -x,-y,-z
6 1/2-x,1/2-y,-z
7 -x,y,1/2-z
8 1/2-x,1/2+y,1/2-z
_cell_length_a                   22.712(15)
_cell_length_b                   7.474(5)
_cell_length_c                   18.655(12)
_cell_angle_alpha                90
_cell_angle_beta                 99.061(11)
_cell_angle_gamma                90
_cell_volume                     3127.16
_exptl_crystal_colour            colorless
_exptl_crystal_description       prism
_chemical_melting_point          '369 K'
_cell_formula_units_Z            8
_exptl_crystal_recrystallization_method acetone
loop_
_atom_site_label
_atom_site_type_symbol
_atom_site_fract_x
_atom_site_fract_y
_atom_site_fract_z
Cl1 Cl 0.38216(4) 0.94181(12) 0.03497(5)
F1 F 0.18203(8) 0.8311(3) 0.10933(11)
O1 O 0.20485(12) 0.6548(4) 0.25578(13)
O2 O 0.20038(11) 0.2630(3) 0.06959(13)
O3 O 0.40032(9) 0.5794(3) 0.07586(14)
N1 N 0.20966(10) 0.4858(3) 0.15471(13)
C1 C 0.19011(14) 0.5228(5) 0.21999(17)
C2 C 0.18841(13) 0.3225(4) 0.12499(17)
C3 C 0.14951(16) 0.2418(6) 0.17440(19)
H1 H 0.1680 0.1298 0.1938
C4 C 0.0892(2) 0.1989(10) 0.1331(3)
H2 H 0.0933 0.1511 0.0858
H3 H 0.0702 0.1087 0.1589
C5 C 0.0519(2) 0.3607(13) 0.1240(3)
H4 H 0.0276 0.3822 0.0800
C6 C 0.0527(2) 0.4783(11) 0.1791(4)
H5 H 0.0298 0.5819 0.1730
C7 C 0.09085(19) 0.4390(8) 0.2494(2)
H6 H 0.0717 0.3496 0.2756
H7 H 0.0962 0.5467 0.2787
C8 C 0.15069(15) 0.3709(6) 0.23609(17)
H8 H 0.1700 0.3116 0.2805
C9 C 0.25059(13) 0.5954(4) 0.12441(15)
C10 C 0.23645(13) 0.7686(4) 0.10352(15)
C11 C 0.27591(13) 0.8775(4) 0.07586(15)
H9 H 0.2659 0.9949 0.0626
C12 C 0.33070(13) 0.8087(4) 0.06832(15)
C13 C 0.34536(12) 0.6340(4) 0.08740(16)
C14 C 0.30554(13) 0.5278(4) 0.11614(16)
H10 H 0.3156 0.4108 0.1300
C15 C 0.4128(2) 0.3914(5) 0.0823(6)
H11 H 0.4077 0.3516 0.1304
H12 H 0.3843 0.3272 0.0473
C16 C 0.47157(19) 0.3489(6) 0.0703(3)
C17 C 0.5184(2) 0.3206(10) 0.0571(4)
H13 H 0.5563 0.2977 0.0464
C18? C 0.4220(4) 0.4110(12) 0.1013(4)
H14? H 0.4545 0.3773 0.0759
H15? H 0.3905 0.3234 0.0893
C19? C 0.4428(4) 0.4036(11) 0.1777(3)
C20? C 0.4564(7) 0.409(2) 0.2399(4)
H16? H 0.4674 0.4127 0.2901
loop_
_geom_bond_atom_site_label_1
_geom_bond_atom_site_label_2
_geom_bond_site_symmetry_1
_geom_bond_site_symmetry_2
Cl1 C12 1_555 1_555
F1 C10 1_555 1_555
O1 C1 1_555 1_555
O2 C2 1_555 1_555
O3 C13 1_555 1_555
N1 C1 1_555 1_555
C1 C8 1_555 1_555
C2 N1 1_555 1_555
C3 C2 1_555 1_555
H1 C3 1_555 1_555
C4 C3 1_555 1_555
H2 C4 1_555 1_555
H3 C4 1_555 1_555
C5 C4 1_555 1_555
H4 C5 1_555 1_555
C6 C5 1_555 1_555
H5 C6 1_555 1_555
C7 C6 1_555 1_555
H6 C7 1_555 1_555
H7 C7 1_555 1_555
C8 C3 1_555 1_555
H8 C8 1_555 1_555
C9 N1 1_555 1_555
C10 C9 1_555 1_555
C11 C10 1_555 1_555
H9 C11 1_555 1_555
C12 C11 1_555 1_555
C13 C12 1_555 1_555
C14 C9 1_555 1_555
H10 C14 1_555 1_555
C15 O3 1_555 1_555
H11 C15 1_555 1_555
H12 C15 1_555 1_555
C16 C15 1_555 1_555
C17 C16 1_555 1_555
H13 C17 1_555 1_555
C7 C8 1_555 1_555
C13 C14 1_555 1_555

#END
