
#######################################################################
#
#                 Cambridge Crystallographic Data Centre
#                                CCDC 
#
#######################################################################
#
# If this CIF has been generated from an entry in the Cambridge 
# Structural Database, then it will include bibliographic, chemical, 
# crystal, experimental, refinement or atomic coordinate data resulting 
# from the CCDC's data processing and validation procedures.
#
#######################################################################

data_QANNOL
_chemical_compound_source        
'Isolated from the fruits of Schisandra bicolor var. tuberculata.'
_chemical_name_common            'schibitubin A'
_chemical_formula_moiety         'C20 H24 O5'
_chemical_name_systematic        
4-[4-(2H-1,3-benzodioxol-5-yl)-2-(hydroxymethyl)-3-methylbutyl]-2-methoxyphenol
_symmetry_cell_setting           monoclinic
_symmetry_space_group_name_H-M   'P 21'
_symmetry_Int_Tables_number      4
_space_group_name_Hall           'P 2yb'
loop_
_symmetry_equiv_pos_site_id
_symmetry_equiv_pos_as_xyz
1 x,y,z
2 -x,1/2+y,-z
_cell_length_a                   9.76560(10)
_cell_length_b                   6.16280(10)
_cell_length_c                   15.4441(2)
_cell_angle_alpha                90
_cell_angle_beta                 101.5300(10)
_cell_angle_gamma                90
_cell_volume                     910.722
_exptl_crystal_colour            colorless
_exptl_crystal_description       block
_cell_formula_units_Z            2
loop_
_atom_site_label
_atom_site_type_symbol
_atom_site_fract_x
_atom_site_fract_y
_atom_site_fract_z
O1 O 0.9561(2) 0.5972(4) 0.62919(13)
O2 O -0.28852(16) 0.3404(4) 0.03104(13)
H1 H -0.324747 0.442531 0.052017
O3 O 0.48802(17) 0.5513(5) 0.07618(14)
H2 H 0.437559 0.647433 0.050554
O4 O -0.18369(18) 0.6242(4) 0.15690(17)
O5 O 0.9136(2) 0.8601(4) 0.52377(19)
C1 C -0.1526(2) 0.3186(5) 0.07464(15)
C2 C -0.0943(2) 0.4651(5) 0.14111(16)
C3 C 0.3777(2) 0.4115(5) 0.19415(15)
H3 H 0.333252 0.553401 0.196527
C4 C 0.0434(2) 0.4391(5) 0.18358(15)
H4 H 0.082254 0.536402 0.227718
C5 C 0.6140(2) 0.5118(5) 0.42725(16)
C6 C 0.8395(3) 0.5432(5) 0.56614(16)
C7 C 0.5151(2) 0.4120(5) 0.26432(15)
H5 H 0.577213 0.517848 0.244641
C8 C 0.1249(2) 0.2717(4) 0.16195(15)
C9 C 0.8146(3) 0.7011(4) 0.50323(19)
C10 C 0.2740(2) 0.2388(5) 0.21179(18)
H6 H 0.306246 0.098043 0.196090
H7 H 0.274246 0.236634 0.274615
C11 C 0.4035(2) 0.3821(6) 0.10099(16)
H8 H 0.449349 0.243737 0.097210
H9 H 0.314537 0.379007 0.059709
C12 C 0.7037(3) 0.6917(5) 0.4332(2)
H10 H 0.688227 0.801090 0.390933
C13 C 0.0661(3) 0.1321(5) 0.09562(18)
H11 H 0.119545 0.019554 0.079745
C14 C -0.0717(3) 0.1561(5) 0.05183(18)
H12 H -0.109224 0.060659 0.006629
C15 C 0.4883(3) 0.4930(7) 0.35322(18)
H13 H 0.444401 0.634606 0.344020
H14 H 0.421913 0.395683 0.372097
C16 C 0.6431(3) 0.3547(6) 0.49236(19)
H15 H 0.584742 0.234370 0.488761
C17 C 0.7561(3) 0.3694(6) 0.56294(18)
H16 H 0.773260 0.262648 0.606310
C18 C 1.0137(4) 0.7787(7) 0.5955(2)
C19 C -0.1362(4) 0.7794(6) 0.2203(3)
H17 H -0.056597 0.852126 0.206056
H18 H -0.109927 0.711003 0.277037
H19 H -0.209036 0.883088 0.221876
C20 C 0.5891(3) 0.1973(7) 0.2710(2)
H20 H 0.537400 0.092697 0.297528
H21 H 0.681059 0.212923 0.306737
H22 H 0.596349 0.149000 0.212973
H23 H 1.104(4) 0.728(7) 0.577(2)
H24 H 1.040(4) 0.886(7) 0.641(3)
loop_
_geom_bond_atom_site_label_1
_geom_bond_atom_site_label_2
_geom_bond_site_symmetry_1
_geom_bond_site_symmetry_2
O1 C6 1_555 1_555
O2 H1 1_555 1_555
O3 H2 1_555 1_555
O4 C2 1_555 1_555
O5 C9 1_555 1_555
C1 O2 1_555 1_555
C2 C1 1_555 1_555
C3 H3 1_555 1_555
C4 C2 1_555 1_555
H4 C4 1_555 1_555
C5 C12 1_555 1_555
C6 C9 1_555 1_555
C7 C3 1_555 1_555
H5 C7 1_555 1_555
C8 C4 1_555 1_555
C9 C12 1_555 1_555
C10 C3 1_555 1_555
H6 C10 1_555 1_555
H7 C10 1_555 1_555
C11 O3 1_555 1_555
H8 C11 1_555 1_555
H9 C11 1_555 1_555
C12 H10 1_555 1_555
C13 C8 1_555 1_555
H11 C13 1_555 1_555
C14 C1 1_555 1_555
H12 C14 1_555 1_555
C15 C5 1_555 1_555
H13 C15 1_555 1_555
H14 C15 1_555 1_555
C16 C5 1_555 1_555
H15 C16 1_555 1_555
C17 C6 1_555 1_555
H16 C17 1_555 1_555
C18 O1 1_555 1_555
C19 O4 1_555 1_555
H17 C19 1_555 1_555
H18 C19 1_555 1_555
H19 C19 1_555 1_555
C20 C7 1_555 1_555
H20 C20 1_555 1_555
H21 C20 1_555 1_555
H22 C20 1_555 1_555
H23 C18 1_555 1_555
H24 C18 1_555 1_555
O5 C18 1_555 1_555
C3 C11 1_555 1_555
C7 C15 1_555 1_555
C8 C10 1_555 1_555
C13 C14 1_555 1_555
C16 C17 1_555 1_555

#END
