
#######################################################################
#
#                 Cambridge Crystallographic Data Centre
#                                CCDC 
#
#######################################################################
#
# If this CIF has been generated from an entry in the Cambridge 
# Structural Database, then it will include bibliographic, chemical, 
# crystal, experimental, refinement or atomic coordinate data resulting 
# from the CCDC's data processing and validation procedures.
#
#######################################################################

data_QANVAF
_chemical_name_common            'Triamcinolone acetonide acetate monohydrate'
_chemical_formula_moiety         'C26 H33 F1 O7,H2 O1'
_chemical_name_systematic        
"2-(4b-fluoro-5-hydroxy-4a,6a,8,8-tetramethyl-2-oxo-2,4a,4b,5,6,6a,9a,10,10a,10b,11,12-dodecahydro-6bH-naphtho[2',1':4,5]indeno[1,2-d][1,3]dioxol-6b-yl)-2-oxoethyl acetate monohydrate"
_chemical_properties_biological  
'triamcinolone acetonide acetate is a drug used to treat rheumatoid arthritis and chronic inflammatory diseases'
_symmetry_cell_setting           orthorhombic
_symmetry_space_group_name_H-M   'P 21 21 21'
_symmetry_Int_Tables_number      19
_space_group_name_Hall           'P 2ac 2ab'
loop_
_symmetry_equiv_pos_site_id
_symmetry_equiv_pos_as_xyz
1 x,y,z
2 1/2+x,1/2-y,-z
3 -x,1/2+y,1/2-z
4 1/2-x,-y,1/2+z
_cell_length_a                   8.3587(4)
_cell_length_b                   15.2343(8)
_cell_length_c                   19.1051(11)
_cell_angle_alpha                90
_cell_angle_beta                 90
_cell_angle_gamma                90
_cell_volume                     2432.82
_exptl_crystal_colour            colorless
_exptl_crystal_description       block
_cell_formula_units_Z            4
loop_
_atom_site_label
_atom_site_type_symbol
_atom_site_fract_x
_atom_site_fract_y
_atom_site_fract_z
F1 F 0.38808(9) 0.80828(5) 0.16408(4)
O1 O 0.62927(13) 0.90052(7) -0.03779(5)
O2 O -0.19872(12) 0.59617(6) 0.40855(6)
O3 O -0.04824(16) 0.48391(9) 0.37242(8)
O4 O 0.09140(13) 0.64268(7) 0.46159(5)
O5 O 0.21684(12) 0.88485(6) 0.40478(5)
O6 O 0.41098(13) 0.57536(6) 0.19848(5)
H1 H 0.4146 0.5475 0.1618
C1 C 0.62785(17) 0.84613(9) 0.01053(7)
C2 C 0.71355(17) 0.86046(9) 0.07590(7)
H2 H 0.7769 0.9103 0.0804
C3 C 0.70451(15) 0.80452(9) 0.12975(7)
C4 C 0.60570(16) 0.72104(8) 0.12689(7)
C5 C 0.47299(15) 0.73141(8) 0.18471(7)
C6 C 0.34225(16) 0.65946(8) 0.18562(7)
H3 H 0.2916 0.6581 0.1394
C7 C 0.21196(16) 0.67884(9) 0.24027(7)
H4 H 0.1516 0.7300 0.2256
H5 H 0.1387 0.6295 0.2423
C8 C 0.28032(16) 0.69540(9) 0.31358(6)
C9 C 0.16320(15) 0.73976(8) 0.36736(7)
C10 C 0.05641(16) 0.67487(9) 0.40611(7)
C11 C -0.09980(18) 0.65382(10) 0.36918(9)
H6 H -0.1575 0.7080 0.3605
H7 H -0.0764 0.6271 0.3242
C12 C -0.15909(18) 0.51016(10) 0.40583(8)
C13 C -0.2712(2) 0.45751(11) 0.44952(10)
H8 H -0.2403 0.3968 0.4481
H9 H -0.3780 0.4637 0.4317
H10 H -0.2675 0.4781 0.4970
O7 O 0.06316(11) 0.80290(6) 0.33306(5)
C14 C 0.05979(17) 0.87983(9) 0.37712(7)
C15 C 0.27435(16) 0.79702(9) 0.41526(7)
H11 H 0.2708 0.7790 0.4645
C16 C 0.44254(17) 0.79181(10) 0.38427(7)
H12 H 0.5055 0.7462 0.4065
H13 H 0.4983 0.8474 0.3882
C17 C 0.40584(15) 0.76937(8) 0.30800(7)
H14 H 0.3493 0.8203 0.2888
C18 C 0.34598(18) 0.61058(9) 0.34683(7)
H15 H 0.2666 0.5652 0.3439
H16 H 0.3717 0.6213 0.3951
H17 H 0.4406 0.5924 0.3223
C19 C 0.54328(15) 0.75045(9) 0.25761(7)
H18 H 0.6016 0.6985 0.2739
C20 C 0.65827(17) 0.82928(10) 0.25590(7)
H19 H 0.5966 0.8825 0.2490
H20 H 0.7115 0.8338 0.3009
C21 C 0.78485(18) 0.82273(11) 0.19832(7)
H21 H 0.8443 0.8773 0.1955
H22 H 0.8594 0.7759 0.2092
C22 C 0.71837(19) 0.64152(10) 0.13967(8)
H23 H 0.6636 0.5882 0.1277
H24 H 0.7489 0.6398 0.1881
H25 H 0.8123 0.6474 0.1111
C23 C 0.52929(16) 0.70736(9) 0.05648(7)
H26 H 0.4705 0.6563 0.0495
C24 C 0.54043(17) 0.76355(9) 0.00365(7)
H27 H 0.4915 0.7501 -0.0387
C25 C -0.06038(18) 0.86977(10) 0.43650(8)
H28 H -0.0323 0.8197 0.4645
H29 H -0.1655 0.8616 0.4174
H30 H -0.0590 0.9216 0.4651
C26 C 0.0276(2) 0.95852(9) 0.33160(9)
H31 H 0.0349 1.0110 0.3593
H32 H -0.0777 0.9540 0.3119
H33 H 0.1052 0.9608 0.2946
O8 O 0.39731(16) 0.50053(8) 0.06357(6)
H34 H 0.421(3) 0.4610(14) 0.0368(11)
H35 H 0.308(3) 0.5250(16) 0.0508(13)
loop_
_geom_bond_atom_site_label_1
_geom_bond_atom_site_label_2
_geom_bond_site_symmetry_1
_geom_bond_site_symmetry_2
F1 C5 1_555 1_555
O1 C1 1_555 1_555
O2 C11 1_555 1_555
O3 C12 1_555 1_555
O4 C10 1_555 1_555
O5 C14 1_555 1_555
O6 H1 1_555 1_555
C1 C2 1_555 1_555
C2 H2 1_555 1_555
C3 C2 1_555 1_555
C4 C3 1_555 1_555
C5 C4 1_555 1_555
C6 O6 1_555 1_555
H3 C6 1_555 1_555
C7 C6 1_555 1_555
H4 C7 1_555 1_555
H5 C7 1_555 1_555
C8 C7 1_555 1_555
C9 C8 1_555 1_555
C10 C9 1_555 1_555
C11 C10 1_555 1_555
H6 C11 1_555 1_555
H7 C11 1_555 1_555
C12 O2 1_555 1_555
C13 C12 1_555 1_555
H8 C13 1_555 1_555
H9 C13 1_555 1_555
H10 C13 1_555 1_555
O7 C9 1_555 1_555
C14 O7 1_555 1_555
C15 O5 1_555 1_555
H11 C15 1_555 1_555
C16 C15 1_555 1_555
H12 C16 1_555 1_555
H13 C16 1_555 1_555
C17 C8 1_555 1_555
H14 C17 1_555 1_555
C18 C8 1_555 1_555
H15 C18 1_555 1_555
H16 C18 1_555 1_555
H17 C18 1_555 1_555
C19 C5 1_555 1_555
H18 C19 1_555 1_555
C20 C19 1_555 1_555
H19 C20 1_555 1_555
H20 C20 1_555 1_555
C21 C3 1_555 1_555
H21 C21 1_555 1_555
H22 C21 1_555 1_555
C22 C4 1_555 1_555
H23 C22 1_555 1_555
H24 C22 1_555 1_555
H25 C22 1_555 1_555
C23 C4 1_555 1_555
H26 C23 1_555 1_555
C24 C1 1_555 1_555
H27 C24 1_555 1_555
C25 C14 1_555 1_555
H28 C25 1_555 1_555
H29 C25 1_555 1_555
H30 C25 1_555 1_555
C26 C14 1_555 1_555
H31 C26 1_555 1_555
H32 C26 1_555 1_555
H33 C26 1_555 1_555
O8 H34 1_555 1_555
H35 O8 1_555 1_555
C5 C6 1_555 1_555
C9 C15 1_555 1_555
C16 C17 1_555 1_555
C17 C19 1_555 1_555
C20 C21 1_555 1_555
C23 C24 1_555 1_555

#END
