
#######################################################################
#
#                 Cambridge Crystallographic Data Centre
#                                CCDC 
#
#######################################################################
#
# If this CIF has been generated from an entry in the Cambridge 
# Structural Database, then it will include bibliographic, chemical, 
# crystal, experimental, refinement or atomic coordinate data resulting 
# from the CCDC's data processing and validation procedures.
#
#######################################################################

data_QANVOR
_chemical_formula_moiety         'C16 H15 F3 N2 O3'
_chemical_name_systematic        
'Ethyl 3-methyl-6-oxo-5-(3-(trifluoromethyl)phenyl)-1,6-dihydro-1-pyridazineacetate'
_symmetry_cell_setting           monoclinic
_symmetry_space_group_name_H-M   'P 21/n'
_symmetry_Int_Tables_number      14
_space_group_name_Hall           '-P 2yn'
loop_
_symmetry_equiv_pos_site_id
_symmetry_equiv_pos_as_xyz
1 x,y,z
2 1/2-x,1/2+y,1/2-z
3 -x,-y,-z
4 1/2+x,1/2-y,1/2+z
_cell_length_a                   7.4846(14)
_cell_length_b                   8.1059(15)
_cell_length_c                   27.139(5)
_cell_angle_alpha                90
_cell_angle_beta                 97.867(4)
_cell_angle_gamma                90
_cell_volume                     1631.01
_exptl_crystal_colour            colorless
_exptl_crystal_description       block
_cell_formula_units_Z            4
_exptl_crystal_recrystallization_method chloroform/hexane
loop_
_atom_site_label
_atom_site_type_symbol
_atom_site_fract_x
_atom_site_fract_y
_atom_site_fract_z
N1 N 0.7811(3) 0.4311(3) 0.07656(9)
N2 N 0.7152(3) 0.5876(3) 0.07755(9)
O1 O 0.8815(3) 0.2028(3) 0.04244(8)
O2 O 0.5275(3) 0.2105(3) 0.10549(9)
O3 O 0.7340(3) 0.1201(3) 0.16680(9)
C1 C 0.8200(4) 0.3442(4) 0.03555(12)
C2 C 0.7811(3) 0.4299(3) -0.01170(10)
C3 C 0.7186(3) 0.5870(4) -0.00972(11)
H1 H 0.6956 0.6469 -0.0391
C4 C 0.6872(4) 0.6629(3) 0.03496(12)
C5 C 0.6176(5) 0.8374(4) 0.03451(14)
H2 H 0.5764 0.8611 0.0657
H3 H 0.5195 0.8499 0.0080
H4 H 0.7128 0.9123 0.0295
C6 C 0.8064(3) 0.3500(4) -0.05958(11)
C7 C 0.7556(4) 0.4326(4) -0.10428(12)
H5 H 0.7063 0.5378 -0.1037
C8 C 0.7766(4) 0.3625(5) -0.14932(13)
C9 C 0.8483(5) 0.2063(5) -0.15140(15)
H6 H 0.8621 0.1582 -0.1818
C10 C 0.8985(5) 0.1240(5) -0.10791(16)
H7 H 0.9472 0.0187 -0.1089
C11 C 0.8791(4) 0.1923(4) -0.06253(13)
H8 H 0.9148 0.1329 -0.0335
C12 C 0.7222(7) 0.4563(6) -0.19511(16)
C13 C 0.8133(5) 0.3498(4) 0.12451(11)
H9 H 0.8125 0.4313 0.1507
H10 H 0.9314 0.2985 0.1284
C14 C 0.6720(5) 0.2203(4) 0.12970(11)
F1 F 0.7232(17) 0.379(2) -0.2376(5)
F2 F 0.5314(9) 0.4860(11) -0.1985(3)
F3 F 0.7851(12) 0.6087(9) -0.1944(3)
C15 C 0.617(3) -0.022(3) 0.1748(8)
H11 H 0.6335 -0.1117 0.1523
H12 H 0.4908 0.0099 0.1705
C16 C 0.682(5) -0.069(4) 0.2284(9)
H13 H 0.6035 -0.1518 0.2389
H14 H 0.6803 0.0267 0.2492
H15 H 0.8024 -0.1114 0.2309
F4? F 0.662(2) 0.362(3) -0.2359(7)
F5? F 0.593(2) 0.5724(16) -0.1971(5)
F6? F 0.8632(14) 0.5372(18) -0.2138(4)
C17? C 0.598(2) 0.015(2) 0.1861(12)
H16? H 0.5056 -0.0185 0.1594
H17? H 0.5414 0.0738 0.2110
C18? C 0.703(3) -0.132(2) 0.2086(10)
H18? H 0.6243 -0.2030 0.2239
H19? H 0.7992 -0.0947 0.2332
H20? H 0.7527 -0.1909 0.1830
F7? F 0.8715(16) 0.4422(19) -0.2218(5)
F8? F 0.711(3) 0.6181(13) -0.1877(6)
F9? F 0.5906(18) 0.400(2) -0.2254(5)
loop_
_geom_bond_atom_site_label_1
_geom_bond_atom_site_label_2
_geom_bond_site_symmetry_1
_geom_bond_site_symmetry_2
N1 N2 1_555 1_555
N2 C4 1_555 1_555
O1 C1 1_555 1_555
O2 C14 1_555 1_555
O3 C14 1_555 1_555
C1 N1 1_555 1_555
C2 C1 1_555 1_555
C3 C2 1_555 1_555
H1 C3 1_555 1_555
C4 C3 1_555 1_555
C5 C4 1_555 1_555
H2 C5 1_555 1_555
H3 C5 1_555 1_555
H4 C5 1_555 1_555
C6 C2 1_555 1_555
C7 C6 1_555 1_555
H5 C7 1_555 1_555
C8 C7 1_555 1_555
C9 C8 1_555 1_555
H6 C9 1_555 1_555
C10 C9 1_555 1_555
H7 C10 1_555 1_555
C11 C6 1_555 1_555
H8 C11 1_555 1_555
C12 C8 1_555 1_555
C13 N1 1_555 1_555
H9 C13 1_555 1_555
H10 C13 1_555 1_555
C14 C13 1_555 1_555
F1 C12 1_555 1_555
F2 C12 1_555 1_555
F3 C12 1_555 1_555
C15 O3 1_555 1_555
H11 C15 1_555 1_555
H12 C15 1_555 1_555
C16 C15 1_555 1_555
H13 C16 1_555 1_555
H14 C16 1_555 1_555
H15 C16 1_555 1_555
C10 C11 1_555 1_555

#END
