
#######################################################################
#
#                 Cambridge Crystallographic Data Centre
#                                CCDC 
#
#######################################################################
#
# If this CIF has been generated from an entry in the Cambridge 
# Structural Database, then it will include bibliographic, chemical, 
# crystal, experimental, refinement or atomic coordinate data resulting 
# from the CCDC's data processing and validation procedures.
#
#######################################################################

data_QANWEK01
_chemical_formula_moiety         'C6 H16 N1 1+,C7 H3 N2 O6 1-,H2 O1'
_chemical_name_systematic        
'N-ethylbutan-1-aminium 3,5-dinitrobenzoate monohydrate'
_symmetry_cell_setting           monoclinic
_symmetry_space_group_name_H-M   'P 21/n'
_symmetry_Int_Tables_number      14
_space_group_name_Hall           '-P 2yn'
loop_
_symmetry_equiv_pos_site_id
_symmetry_equiv_pos_as_xyz
1 x,y,z
2 1/2-x,1/2+y,1/2-z
3 -x,-y,-z
4 1/2+x,1/2-y,1/2+z
_cell_length_a                   9.1228(2)
_cell_length_b                   18.1172(3)
_cell_length_c                   10.8922(2)
_cell_angle_alpha                90
_cell_angle_beta                 110.499(3)
_cell_angle_gamma                90
_cell_volume                     1686.26
_exptl_crystal_colour            yellow
_exptl_crystal_description       block
_cell_formula_units_Z            4
loop_
_atom_site_label
_atom_site_type_symbol
_atom_site_fract_x
_atom_site_fract_y
_atom_site_fract_z
O1 O 0.4761(3) 0.18691(12) 0.5312(2)
C1 C 0.4261(3) 0.15346(14) 0.4237(3)
C2 C 0.5210(3) 0.08808(13) 0.4069(2)
C3 C 0.4725(3) 0.04953(14) 0.2891(2)
H1 H 0.3814 0.0631 0.2215
C4 C 0.6550(3) 0.06595(14) 0.5071(2)
H2 H 0.6886 0.0907 0.5870
O2 O 0.3065(3) 0.16863(14) 0.3317(2)
C5 C 0.7383(3) 0.00643(14) 0.4867(3)
N1 N 0.8807(3) -0.01750(14) 0.5943(3)
O3 O 0.9593(3) -0.06668(15) 0.5729(3)
C6 C 0.6953(3) -0.03200(15) 0.3709(3)
H3 H 0.7539 -0.0715 0.3587
O4 O 0.3802(3) -0.03771(15) 0.0706(2)
C7 C 0.5609(3) -0.00896(14) 0.2738(3)
N2 N 0.5101(4) -0.04934(15) 0.1475(3)
O5 O 0.9125(3) 0.01311(15) 0.6982(3)
O6 O 0.6023(4) -0.09224(17) 0.1285(3)
N3 N 0.3593(3) 0.32497(14) 0.5551(2)
H4 H 0.3958 0.2796 0.5481
H5 H 0.2800 0.3348 0.4799
C8 C 0.4855(4) 0.3796(2) 0.5732(4)
H6 H 0.4446 0.4288 0.5754
H7 H 0.5683 0.3707 0.6565
C9 C 0.5503(7) 0.3754(4) 0.4672(5)
H8 H 0.5895 0.3265 0.4639
H9 H 0.6340 0.4104 0.4835
H10 H 0.4697 0.3866 0.3851
C10 C 0.2994(6) 0.3258(3) 0.6659(5)
C11 C 0.1816(13) 0.2633(7) 0.6384(17)
H11 H 0.2173 0.2262 0.5912
H12 H 0.1931 0.2419 0.7229
C12 C -0.0715(9) 0.2099(4) 0.5968(8)
H13 H -0.1816 0.2202 0.5648
H14 H -0.0367 0.2008 0.6894
H15 H -0.0515 0.1671 0.5530
C13 C 0.0196(13) 0.2709(7) 0.5711(17)
H16 H -0.0001 0.2733 0.4777
H17 H -0.0155 0.3169 0.5969
O7 O 0.6558(3) 0.19715(16) 0.7941(3)
H29 H 0.708(5) 0.2440(15) 0.804(5)
H30 H 0.601(6) 0.189(3) 0.721(5)
H18? H 0.2503 0.3728 0.6704
H19? H 0.3834 0.3171 0.7487
H20? H 0.2271 0.3670 0.6504
H21? H 0.3875 0.3376 0.7444
C14? C 0.218(2) 0.2605(9) 0.6965(16)
H22? H 0.2344 0.2200 0.6444
H23? H 0.2755 0.2480 0.7873
H24? H -0.1700 0.2180 0.6080
H25? H -0.0393 0.1597 0.6180
H26? H -0.0823 0.2196 0.5073
C15? C 0.0524(18) 0.2594(11) 0.6806(15)
H27? H 0.0149 0.3090 0.6539
H28? H 0.0501 0.2532 0.7684
loop_
_geom_bond_atom_site_label_1
_geom_bond_atom_site_label_2
_geom_bond_site_symmetry_1
_geom_bond_site_symmetry_2
O1 C1 1_555 1_555
C1 C2 1_555 1_555
C2 C3 1_555 1_555
C3 H1 1_555 1_555
C4 C2 1_555 1_555
H2 C4 1_555 1_555
O2 C1 1_555 1_555
C5 C4 1_555 1_555
N1 C5 1_555 1_555
O3 N1 1_555 1_555
C6 C5 1_555 1_555
H3 C6 1_555 1_555
O4 N2 1_555 1_555
C7 C3 1_555 1_555
N2 C7 1_555 1_555
O5 N1 1_555 1_555
O6 N2 1_555 1_555
N3 H4 1_555 1_555
H5 N3 1_555 1_555
C8 N3 1_555 1_555
H6 C8 1_555 1_555
H7 C8 1_555 1_555
C9 C8 1_555 1_555
H8 C9 1_555 1_555
H9 C9 1_555 1_555
H10 C9 1_555 1_555
C10 N3 1_555 1_555
C11 C10 1_555 1_555
H11 C11 1_555 1_555
H12 C11 1_555 1_555
C12 H13 1_555 1_555
H14 C12 1_555 1_555
H15 C12 1_555 1_555
C13 C11 1_555 1_555
H16 C13 1_555 1_555
H17 C13 1_555 1_555
O7 H29 1_555 1_555
H30 O7 1_555 1_555
C6 C7 1_555 1_555
C12 C13 1_555 1_555

#END
