
#######################################################################
#
#                 Cambridge Crystallographic Data Centre
#                                CCDC 
#
#######################################################################
#
# If this CIF has been generated from an entry in the Cambridge 
# Structural Database, then it will include bibliographic, chemical, 
# crystal, experimental, refinement or atomic coordinate data resulting 
# from the CCDC's data processing and validation procedures.
#
#######################################################################

data_QAPCUF
_chemical_formula_moiety         'C31 H32 Si2'
_chemical_name_systematic        
1-Methyl-2-(dimethylsilyl)-2,3,4,5-tetraphenyl-1-silacyclopent-3-ene
_symmetry_cell_setting           monoclinic
_symmetry_space_group_name_H-M   'C 2/c'
_symmetry_Int_Tables_number      15
_space_group_name_Hall           '-C 2yn'
loop_
_symmetry_equiv_pos_site_id
_symmetry_equiv_pos_as_xyz
1 x,y,z
2 -x,y,1/2-z
3 1/2+x,1/2+y,z
4 1/2-x,1/2+y,1/2-z
5 -x,-y,-z
6 x,-y,1/2+z
7 1/2-x,1/2-y,-z
8 1/2+x,1/2-y,1/2+z
_cell_length_a                   30.6342(17)
_cell_length_b                   10.5466(5)
_cell_length_c                   20.6134(13)
_cell_angle_alpha                90
_cell_angle_beta                 125.076(2)
_cell_angle_gamma                90
_cell_volume                     5450.41
_exptl_crystal_colour            colorless
_chemical_melting_point          132-133deg.C
_cell_formula_units_Z            8
_exptl_crystal_recrystallization_method hexane
loop_
_atom_site_label
_atom_site_type_symbol
_atom_site_fract_x
_atom_site_fract_y
_atom_site_fract_z
Si1 Si 0.2117(1) 0.3952(1) 0.2380(1)
Si2 Si 0.1466(1) 0.2457(1) 0.2875(1)
C1 C 0.1943(1) 0.3108(2) 0.1453(1)
C2 C 0.1339(1) 0.2915(1) 0.0995(1)
C3 C 0.1093(1) 0.3241(1) 0.1342(1)
C4 C 0.1435(1) 0.3750(1) 0.2202(1)
C5 C 0.2111(1) 0.3784(2) 0.0987(1)
C6 C 0.1872(1) 0.4924(2) 0.0600(1)
C7 C 0.2032(1) 0.5568(2) 0.0185(1)
C8 C 0.2436(1) 0.5076(3) 0.0151(1)
C9 C 0.2673(1) 0.3960(3) 0.0522(1)
C10 C 0.2514(1) 0.3310(2) 0.0940(1)
C11 C 0.1073(1) 0.2322(1) 0.0196(1)
C12 C 0.0607(1) 0.2795(2) -0.0468(1)
C13 C 0.0375(1) 0.2208(3) -0.1208(1)
C14 C 0.0602(1) 0.1153(2) -0.1284(1)
C15 C 0.1064(1) 0.0684(2) -0.0637(1)
C16 C 0.1301(1) 0.1266(2) 0.0096(1)
C17 C 0.0520(1) 0.2934(2) 0.0983(1)
C18 C 0.0343(1) 0.1689(2) 0.0765(1)
C19 C -0.0178(1) 0.1353(2) 0.0466(1)
C20 C -0.0535(1) 0.2255(2) 0.0376(1)
C21 C -0.0370(1) 0.3481(2) 0.0591(1)
C22 C 0.0153(1) 0.3829(2) 0.0894(1)
C23 C 0.1277(1) 0.5060(2) 0.2316(1)
C24 C 0.1117(1) 0.6010(2) 0.1752(1)
C25 C 0.1013(1) 0.7227(2) 0.1876(1)
C26 C 0.1066(1) 0.7522(2) 0.2574(2)
C27 C 0.1219(1) 0.6613(2) 0.3130(1)
C28 C 0.1327(1) 0.5395(2) 0.3008(1)
C29 C 0.2724(1) 0.3328(2) 0.3311(1)
C30 C 0.0843(1) 0.2289(3) 0.2832(2)
C31 C 0.1636(1) 0.0929(2) 0.2615(1)
H1 H 0.2215(7) 0.5257(16) 0.2350(10)
H2 H 0.1879(8) 0.2784(18) 0.3663(12)
H3 H 0.2114 0.2273 0.1605
H4 H 0.1599 0.5258 0.0621
H5 H 0.1868 0.6327 -0.0070
H6 H 0.2546 0.5505 -0.0126
H7 H 0.2944 0.3631 0.0496
H8 H 0.2679 0.2550 0.1190
H9 H 0.0446 0.3506 -0.0424
H10 H 0.0064 0.2540 -0.1651
H11 H 0.0441 0.0757 -0.1774
H12 H 0.1221 -0.0029 -0.0687
H13 H 0.1620 0.0943 0.0530
H14 H 0.0579 0.1071 0.0821
H15 H -0.0287 0.0515 0.0327
H16 H -0.0885 0.2031 0.0168
H17 H -0.0609 0.4089 0.0536
H18 H 0.0259 0.4668 0.1037
H19 H 0.1080 0.5821 0.1282
H20 H 0.0907 0.7848 0.1492
H21 H 0.0996 0.8341 0.2659
H22 H 0.1253 0.6809 0.3597
H23 H 0.1435 0.4785 0.3399
H24 H 0.2787 0.3802 0.3755
H25 H 0.3026 0.3411 0.3286
H26 H 0.2672 0.2450 0.3373
H27 H 0.0761 0.3084 0.2966
H28 H 0.0894 0.1651 0.3201
H29 H 0.0554 0.2048 0.2306
H30 H 0.1956 0.1032 0.2638
H31 H 0.1349 0.0682 0.2089
H32 H 0.1691 0.0285 0.2985
loop_
_geom_bond_atom_site_label_1
_geom_bond_atom_site_label_2
_geom_bond_site_symmetry_1
_geom_bond_site_symmetry_2
Si1 C1 1_555 1_555
Si2 C4 1_555 1_555
C1 C2 1_555 1_555
C2 C3 1_555 1_555
C3 C4 1_555 1_555
C4 Si1 1_555 1_555
C5 C1 1_555 1_555
C6 C5 1_555 1_555
C7 C6 1_555 1_555
C8 C7 1_555 1_555
C9 C8 1_555 1_555
C10 C5 1_555 1_555
C11 C2 1_555 1_555
C12 C11 1_555 1_555
C13 C12 1_555 1_555
C14 C13 1_555 1_555
C15 C14 1_555 1_555
C16 C11 1_555 1_555
C17 C3 1_555 1_555
C18 C17 1_555 1_555
C19 C18 1_555 1_555
C20 C19 1_555 1_555
C21 C20 1_555 1_555
C22 C17 1_555 1_555
C23 C4 1_555 1_555
C24 C23 1_555 1_555
C25 C24 1_555 1_555
C26 C25 1_555 1_555
C27 C26 1_555 1_555
C28 C23 1_555 1_555
C29 Si1 1_555 1_555
C30 Si2 1_555 1_555
C31 Si2 1_555 1_555
H1 Si1 1_555 1_555
H2 Si2 1_555 1_555
H3 C1 1_555 1_555
H4 C6 1_555 1_555
H5 C7 1_555 1_555
H6 C8 1_555 1_555
H7 C9 1_555 1_555
H8 C10 1_555 1_555
H9 C12 1_555 1_555
H10 C13 1_555 1_555
H11 C14 1_555 1_555
H12 C15 1_555 1_555
H13 C16 1_555 1_555
H14 C18 1_555 1_555
H15 C19 1_555 1_555
H16 C20 1_555 1_555
H17 C21 1_555 1_555
H18 C22 1_555 1_555
H19 C24 1_555 1_555
H20 C25 1_555 1_555
H21 C26 1_555 1_555
H22 C27 1_555 1_555
H23 C28 1_555 1_555
H24 C29 1_555 1_555
H25 C29 1_555 1_555
H26 C29 1_555 1_555
H27 C30 1_555 1_555
H28 C30 1_555 1_555
H29 C30 1_555 1_555
H30 C31 1_555 1_555
H31 C31 1_555 1_555
H32 C31 1_555 1_555
C9 C10 1_555 1_555
C15 C16 1_555 1_555
C21 C22 1_555 1_555
C27 C28 1_555 1_555

#END
