
#######################################################################
#
#                 Cambridge Crystallographic Data Centre
#                                CCDC 
#
#######################################################################
#
# If this CIF has been generated from an entry in the Cambridge 
# Structural Database, then it will include bibliographic, chemical, 
# crystal, experimental, refinement or atomic coordinate data resulting 
# from the CCDC's data processing and validation procedures.
#
#######################################################################

data_QAPFIZ
_chemical_compound_source        'Bufo bufo gargarizans toad bile'
_chemical_name_common            'Bufospirostenin A'
_chemical_formula_moiety         'C27 H40 O4,C1 H4 O1'
_chemical_name_systematic        
"3,3b,6-trimethyl-5'-methylene-3,3',3a,3b,4,4',5,5',5a,6,6',6a,7,8,9,11,11a,11b,12,12a-icosahydrospiro[azuleno[6',5':4,5]indeno[2,1-b]furan-2,2'-pyran]-6,8-diol methanol solvate"
_symmetry_cell_setting           monoclinic
_symmetry_space_group_name_H-M   'P 21'
_symmetry_Int_Tables_number      4
_space_group_name_Hall           'P 2yb'
loop_
_symmetry_equiv_pos_site_id
_symmetry_equiv_pos_as_xyz
1 x,y,z
2 -x,1/2+y,-z
_cell_length_a                   12.9683(6)
_cell_length_b                   6.3279(3)
_cell_length_c                   15.6194(6)
_cell_angle_alpha                90
_cell_angle_beta                 90.650(4)
_cell_angle_gamma                90
_cell_volume                     1281.68
_exptl_crystal_colour            colorless
_exptl_crystal_description       needle
_chemical_melting_point          '461-463 K'
_cell_formula_units_Z            2
_exptl_crystal_recrystallization_method methanol
loop_
_atom_site_label
_atom_site_type_symbol
_atom_site_fract_x
_atom_site_fract_y
_atom_site_fract_z
O1 O -0.38270(13) 0.2374(3) 0.84190(11)
H1 H -0.3969 0.1197 0.8232
O2 O -0.47068(15) 0.0418(4) 1.15307(12)
H2 H -0.5165 -0.0470 1.1485
O3 O 0.22837(13) 0.2311(3) 0.71744(10)
O4 O 0.28977(15) 0.0801(3) 0.59184(11)
C1 C -0.30315(18) 0.0611(5) 0.96259(15)
H3 H -0.2942 -0.0795 0.9375
C2 C -0.40946(19) 0.0688(5) 1.00402(16)
H4 H -0.4577 -0.0236 0.9743
H5 H -0.4368 0.2115 1.0036
C3 C -0.3896(2) -0.0077(5) 1.09572(16)
H6 H -0.3777 -0.1606 1.0956
C4 C -0.2899(2) 0.1065(5) 1.11912(15)
H7 H -0.3024 0.2542 1.1320
H8 H -0.2555 0.0403 1.1676
C5 C -0.22818(19) 0.0815(5) 1.03796(15)
C6 C -0.12721(19) 0.0662(5) 1.03026(15)
H9 H -0.0869 0.0880 1.0791
C7 C -0.0724(2) 0.0160(5) 0.94781(16)
H10 H -0.0928 -0.1253 0.9304
H11 H 0.0010 0.0116 0.9604
C8 C -0.08893(19) 0.1635(4) 0.87025(15)
H12 H -0.0733 0.3088 0.8878
C9 C -0.19958(19) 0.1573(4) 0.83031(15)
H13 H -0.2131 0.0086 0.8168
C10 C -0.28753(18) 0.2268(5) 0.89100(14)
C11 C -0.2066(2) 0.2760(5) 0.74436(16)
H14 H -0.2749 0.2553 0.7198
H15 H -0.1977 0.4260 0.7549
C12 C -0.1264(2) 0.2038(5) 0.67988(15)
H16 H -0.1388 0.0572 0.6648
H17 H -0.1326 0.2879 0.6282
C13 C -0.0182(2) 0.2265(5) 0.71701(15)
C14 C -0.01242(19) 0.0968(4) 0.80066(14)
H18 H -0.0315 -0.0480 0.7848
C15 C 0.10354(19) 0.0904(5) 0.82123(15)
H19 H 0.1208 -0.0296 0.8573
H20 H 0.1259 0.2192 0.8496
C16 C 0.15248(19) 0.0692(5) 0.73228(15)
H21 H 0.1818 -0.0721 0.7242
C17 C 0.0670(2) 0.1155(5) 0.66497(15)
H22 H 0.0403 -0.0180 0.6418
C18 C 0.0068(2) 0.4605(5) 0.73278(16)
H23 H -0.0099 0.5407 0.6823
H24 H 0.0789 0.4755 0.7459
H25 H -0.0330 0.5116 0.7799
C19 C -0.2730(2) 0.4489(5) 0.92600(17)
H26 H -0.2673 0.5467 0.8793
H27 H -0.2113 0.4542 0.9605
H28 H -0.3312 0.4862 0.9603
C20 C 0.1222(2) 0.2381(6) 0.59404(15)
H29 H 0.0935 0.3813 0.5921
C21 C 0.1101(3) 0.1405(8) 0.50511(18)
H30 H 0.1380 0.0000 0.5055
H31 H 0.1463 0.2251 0.4642
H32 H 0.0383 0.1350 0.4896
C22 C 0.2342(2) 0.2531(5) 0.62680(15)
C23 C 0.2879(2) 0.4600(5) 0.60671(17)
H33 H 0.2522 0.5748 0.6350
H34 H 0.2845 0.4853 0.5455
C24 C 0.4005(2) 0.4576(5) 0.63603(18)
H35 H 0.4356 0.5795 0.6126
H36 H 0.4039 0.4677 0.6980
C25 C 0.4541(2) 0.2606(6) 0.60808(16)
C26 C 0.3936(2) 0.0647(5) 0.62510(19)
H37 H 0.4277 -0.0550 0.5989
H38 H 0.3915 0.0401 0.6863
C27 C 0.5459(2) 0.2565(7) 0.57158(19)
H39 H 0.5748 0.1282 0.5555
H40 H 0.5813 0.3820 0.5620
O5 O 0.4262(2) 0.3621(5) 0.22904(16)
H41 H 0.4638 0.2750 0.2063
C28 C 0.3708(2) 0.2643(6) 0.29505(19)
H42 H 0.4007 0.3023 0.3494
H43 H 0.3736 0.1137 0.2881
H44 H 0.3002 0.3102 0.2927
loop_
_geom_bond_atom_site_label_1
_geom_bond_atom_site_label_2
_geom_bond_site_symmetry_1
_geom_bond_site_symmetry_2
O1 H1 1_555 1_555
O2 H2 1_555 1_555
O3 C16 1_555 1_555
O4 C22 1_555 1_555
C1 H3 1_555 1_555
C2 C1 1_555 1_555
H4 C2 1_555 1_555
H5 C2 1_555 1_555
C3 O2 1_555 1_555
H6 C3 1_555 1_555
C4 C3 1_555 1_555
H7 C4 1_555 1_555
H8 C4 1_555 1_555
C5 C1 1_555 1_555
C6 C5 1_555 1_555
H9 C6 1_555 1_555
C7 C6 1_555 1_555
H10 C7 1_555 1_555
H11 C7 1_555 1_555
C8 C7 1_555 1_555
H12 C8 1_555 1_555
C9 C8 1_555 1_555
H13 C9 1_555 1_555
C10 O1 1_555 1_555
C11 C9 1_555 1_555
H14 C11 1_555 1_555
H15 C11 1_555 1_555
C12 C11 1_555 1_555
H16 C12 1_555 1_555
H17 C12 1_555 1_555
C13 C12 1_555 1_555
C14 C8 1_555 1_555
H18 C14 1_555 1_555
C15 C14 1_555 1_555
H19 C15 1_555 1_555
H20 C15 1_555 1_555
C16 C15 1_555 1_555
H21 C16 1_555 1_555
C17 C13 1_555 1_555
H22 C17 1_555 1_555
C18 C13 1_555 1_555
H23 C18 1_555 1_555
H24 C18 1_555 1_555
H25 C18 1_555 1_555
C19 C10 1_555 1_555
H26 C19 1_555 1_555
H27 C19 1_555 1_555
H28 C19 1_555 1_555
C20 C17 1_555 1_555
H29 C20 1_555 1_555
C21 C20 1_555 1_555
H30 C21 1_555 1_555
H31 C21 1_555 1_555
H32 C21 1_555 1_555
C22 O3 1_555 1_555
C23 C22 1_555 1_555
H33 C23 1_555 1_555
H34 C23 1_555 1_555
C24 C23 1_555 1_555
H35 C24 1_555 1_555
H36 C24 1_555 1_555
C25 C24 1_555 1_555
C26 O4 1_555 1_555
H37 C26 1_555 1_555
H38 C26 1_555 1_555
C27 C25 1_555 1_555
H39 C27 1_555 1_555
H40 C27 1_555 1_555
O5 H41 1_555 1_555
C28 O5 1_555 1_555
H42 C28 1_555 1_555
H43 C28 1_555 1_555
H44 C28 1_555 1_555
C1 C10 1_555 1_555
C2 C3 1_555 1_555
C4 C5 1_555 1_555
C9 C10 1_555 1_555
C13 C14 1_555 1_555
C16 C17 1_555 1_555
C20 C22 1_555 1_555
C25 C26 1_555 1_555

#END
