
#######################################################################
#
#                 Cambridge Crystallographic Data Centre
#                                CCDC 
#
#######################################################################
#
# If this CIF has been generated from an entry in the Cambridge 
# Structural Database, then it will include bibliographic, chemical, 
# crystal, experimental, refinement or atomic coordinate data resulting 
# from the CCDC's data processing and validation procedures.
#
#######################################################################

data_QAPGUK
_chemical_name_common            
'bis(mu!2$-bis(4-Methoxycarbonylbenzo)-24-crown-8)-di-potassium bis(hexafluorophosphate)'
_chemical_formula_moiety         'C56 H72 K2 O24 2+,2(F6 P1 1-)'
_chemical_name_systematic        
'bis(\m~2~-Dimethyl 6,7,9,10,12,13,20,21,23,24,26,27-dodecahydrodibenzo(b,n)(1,4,7,10,13,16,19,22)octaoxacyclotetracosine-2,16-dicarboxylate)-di-potassium bis(hexafluorophosphate)'
_symmetry_cell_setting           monoclinic
_symmetry_space_group_name_H-M   'C 2/c'
_symmetry_Int_Tables_number      15
_space_group_name_Hall           '-C 2yn'
loop_
_symmetry_equiv_pos_site_id
_symmetry_equiv_pos_as_xyz
1 x,y,z
2 1/2+x,1/2+y,z
3 -x,y,1/2-z
4 1/2-x,1/2+y,1/2-z
5 -x,-y,-z
6 1/2-x,1/2-y,-z
7 x,-y,1/2+z
8 1/2+x,1/2-y,1/2+z
_cell_length_a                   16.840(2)
_cell_length_b                   19.447(3)
_cell_length_c                   19.410(2)
_cell_angle_alpha                90
_cell_angle_beta                 91.429(11)
_cell_angle_gamma                90
_cell_volume                     6354.56
_exptl_crystal_colour            colorless
_exptl_crystal_description       trapezoid
_cell_formula_units_Z            4
loop_
_atom_site_label
_atom_site_type_symbol
_atom_site_fract_x
_atom_site_fract_y
_atom_site_fract_z
K1 K 0.69587(2) 0.08281(2) 0.07548(2)
O1 O 0.86577(8) 0.07997(8) 0.12113(7)
O2 O 0.75299(8) -0.00160(8) 0.18032(7)
O3 O 0.68068(9) -0.06122(8) 0.06368(8)
O4 O 0.54140(8) 0.01613(7) 0.08448(8)
O5 O 1.19035(9) 0.16808(9) 0.03806(8)
O6 O 1.16516(10) 0.12971(10) 0.14454(8)
O7 O 0.53692(8) 0.14537(7) 0.06613(7)
O8 O 0.66159(9) 0.20052(8) -0.00365(7)
O9 O 0.68300(9) 0.07024(8) -0.06509(8)
O10 O 0.83926(8) 0.06140(8) -0.01024(7)
O11 O 0.67998(9) 0.22948(8) 0.27707(8)
O12 O 0.67192(10) 0.15615(9) 0.18842(8)
C1 C 0.92904(12) 0.09023(10) 0.07967(10)
C2 C 1.00369(12) 0.10904(11) 0.10354(10)
H1 H 1.0140 0.1138 0.1516
C3 C 1.06423(12) 0.12115(10) 0.05699(10)
C4 C 1.04898(12) 0.11436(10) -0.01330(10)
H2 H 1.0897 0.1240 -0.0449
C5 C 0.97447(12) 0.09361(11) -0.03768(10)
H3 H 0.9647 0.0878 -0.0858
C6 C 0.91448(11) 0.08141(10) 0.00824(10)
C7 C 0.88565(12) 0.05260(12) 0.18847(10)
H4 H 0.9153 0.0873 0.2161
H5 H 0.9195 0.0113 0.1841
C8 C 0.80928(12) 0.03401(12) 0.22349(10)
H6 H 0.8223 0.0049 0.2641
H7 H 0.7844 0.0767 0.2404
C9 C 0.78273(13) -0.06291(12) 0.15031(12)
H8 H 0.8100 -0.0914 0.1859
H9 H 0.8212 -0.0515 0.1143
C10 C 0.71322(14) -0.10140(11) 0.11919(12)
H10 H 0.7307 -0.1467 0.1019
H11 H 0.6726 -0.1091 0.1543
C11 C 0.60359(13) -0.08273(11) 0.04107(11)
H12 H 0.6020 -0.1336 0.0395
H13 H 0.5931 -0.0654 -0.0063
C12 C 0.53946(12) -0.05729(10) 0.08734(11)
H14 H 0.4869 -0.0746 0.0712
H15 H 0.5494 -0.0734 0.1352
C13 C 1.14358(12) 0.13961(11) 0.08559(10)
C14 C 1.26937(12) 0.18401(12) 0.06311(12)
H16 H 1.2665 0.2157 0.1022
H17 H 1.2993 0.2055 0.0262
H18 H 1.2962 0.1416 0.0780
C15 C 0.49051(11) 0.12219(10) 0.11799(10)
C16 C 0.44373(11) 0.16278(10) 0.15876(10)
H19 H 0.4421 0.2112 0.1524
C17 C 0.39864(11) 0.13148(10) 0.20963(10)
C18 C 0.39955(12) 0.06109(11) 0.21837(10)
H20 H 0.3689 0.0407 0.2533
C19 C 0.44526(12) 0.01990(10) 0.17614(10)
H21 H 0.4448 -0.0287 0.1812
C20 C 0.49151(11) 0.05041(10) 0.12660(10)
C21 C 0.54105(13) 0.21797(10) 0.05514(11)
H22 H 0.5709 0.2405 0.0935
H23 H 0.4871 0.2380 0.0519
C22 C 0.58328(14) 0.22743(11) -0.01157(11)
H24 H 0.5543 0.2030 -0.0492
H25 H 0.5855 0.2769 -0.0235
C23 C 0.70074(13) 0.19367(11) -0.06786(11)
H26 H 0.7588 0.1910 -0.0591
H27 H 0.6898 0.2349 -0.0965
C24 C 0.67331(12) 0.13029(11) -0.10675(10)
H28 H 0.6167 0.1355 -0.1207
H29 H 0.7044 0.1253 -0.1491
C25 C 0.74019(12) 0.02242(11) -0.08875(11)
H30 H 0.7281 0.0117 -0.1378
H31 H 0.7355 -0.0208 -0.0622
C26 C 0.82446(12) 0.04812(11) -0.08199(10)
H32 H 0.8619 0.0130 -0.0988
H33 H 0.8311 0.0907 -0.1092
C27 C 0.65344(12) 0.17263(11) 0.24596(10)
C28 C 0.73308(16) 0.27008(14) 0.23718(13)
H34 H 0.7801 0.2427 0.2265
H35 H 0.7493 0.3109 0.2636
H36 H 0.7061 0.2843 0.1942
K1B K 0.30413(2) 0.08281(2) 0.42452(2)
O1B O 0.13423(8) 0.07997(8) 0.37887(7)
O2B O 0.24701(8) -0.00160(8) 0.31968(7)
O3B O 0.31932(9) -0.06122(8) 0.43632(8)
O4B O 0.45860(8) 0.01613(7) 0.41552(8)
O5B O -0.19035(9) 0.16808(9) 0.46194(8)
O6B O -0.16516(10) 0.12971(10) 0.35546(8)
O7B O 0.46308(8) 0.14537(7) 0.43387(7)
O8B O 0.33841(9) 0.20052(8) 0.50365(7)
O9B O 0.31700(9) 0.07024(8) 0.56509(8)
O10B O 0.16074(8) 0.06140(8) 0.51024(7)
O11B O 0.32002(9) 0.22948(8) 0.22293(8)
O12B O 0.32808(10) 0.15615(9) 0.31158(8)
C1B C 0.07096(12) 0.09023(10) 0.42033(10)
C2B C -0.00369(12) 0.10904(11) 0.39646(10)
H1B H -0.0140 0.1138 0.3484
C3B C -0.06423(12) 0.12115(10) 0.44301(10)
C4B C -0.04898(12) 0.11436(10) 0.51330(10)
H2B H -0.0897 0.1240 0.5449
C5B C 0.02553(12) 0.09361(11) 0.53768(10)
H3B H 0.0353 0.0878 0.5858
C6B C 0.08552(11) 0.08141(10) 0.49176(10)
C7B C 0.11435(12) 0.05260(12) 0.31153(10)
H4B H 0.0847 0.0873 0.2839
H5B H 0.0805 0.0113 0.3159
C8B C 0.19072(12) 0.03401(12) 0.27651(10)
H6B H 0.1777 0.0049 0.2359
H7B H 0.2156 0.0767 0.2596
C9B C 0.21727(13) -0.06291(12) 0.34969(12)
H8B H 0.1900 -0.0914 0.3141
H9B H 0.1788 -0.0515 0.3857
C10B C 0.28678(14) -0.10140(11) 0.38081(12)
H10B H 0.2693 -0.1467 0.3981
H11B H 0.3274 -0.1091 0.3457
C11B C 0.39641(13) -0.08273(11) 0.45893(11)
H12B H 0.3980 -0.1336 0.4605
H13B H 0.4069 -0.0654 0.5063
C12B C 0.46054(12) -0.05729(10) 0.41266(11)
H14B H 0.5131 -0.0746 0.4288
H15B H 0.4506 -0.0734 0.3648
C13B C -0.14358(12) 0.13961(11) 0.41441(10)
C14B C -0.26937(12) 0.18401(12) 0.43689(12)
H16B H -0.2665 0.2157 0.3978
H17B H -0.2993 0.2055 0.4738
H18B H -0.2962 0.1416 0.4220
C15B C 0.50949(11) 0.12219(10) 0.38201(10)
C16B C 0.55627(11) 0.16278(10) 0.34124(10)
H19B H 0.5579 0.2112 0.3476
C17B C 0.60136(11) 0.13148(10) 0.29037(10)
C18B C 0.60045(12) 0.06109(11) 0.28163(10)
H20B H 0.6311 0.0407 0.2467
C19B C 0.55474(12) 0.01990(10) 0.32386(10)
H21B H 0.5552 -0.0287 0.3188
C20B C 0.50849(11) 0.05041(10) 0.37340(10)
C21B C 0.45895(13) 0.21797(10) 0.44486(11)
H22B H 0.4291 0.2405 0.4065
H23B H 0.5129 0.2380 0.4481
C22B C 0.41672(14) 0.22743(11) 0.51157(11)
H24B H 0.4457 0.2030 0.5492
H25B H 0.4145 0.2769 0.5235
C23B C 0.29926(13) 0.19367(11) 0.56786(11)
H26B H 0.2412 0.1910 0.5591
H27B H 0.3102 0.2349 0.5965
C24B C 0.32669(12) 0.13029(11) 0.60675(10)
H28B H 0.3833 0.1355 0.6207
H29B H 0.2956 0.1253 0.6491
C25B C 0.25981(12) 0.02242(11) 0.58875(11)
H30B H 0.2719 0.0117 0.6378
H31B H 0.2645 -0.0208 0.5622
C26B C 0.17554(12) 0.04812(11) 0.58199(10)
H32B H 0.1381 0.0130 0.5988
H33B H 0.1689 0.0907 0.6092
C27B C 0.34656(12) 0.17263(11) 0.25404(10)
C28B C 0.26692(16) 0.27008(14) 0.26282(13)
H34B H 0.2199 0.2427 0.2735
H35B H 0.2507 0.3109 0.2364
H36B H 0.2939 0.2843 0.3058
P1 P 0.5000 0.36079(4) 0.2500
F1 F 0.44360(9) 0.36046(11) 0.18293(8)
F2 F 0.5513(2) 0.41744(17) 0.21578(10)
F3 F 0.4492(2) 0.30441(17) 0.28467(12)
F1B F 0.55640(9) 0.36046(11) 0.31707(8)
F2B F 0.4487(2) 0.41744(17) 0.28422(10)
F3B F 0.5508(2) 0.30441(17) 0.21533(12)
P2 P 0.5000 0.21136(5) 0.7500
F4 F 0.48322(14) 0.20963(11) 0.83031(9)
F5 F 0.4362(2) 0.2664(2) 0.73926(18)
F6 F 0.5628(2) 0.15162(19) 0.75899(13)
F4B F 0.51678(14) 0.20963(11) 0.66969(9)
F5B F 0.5638(2) 0.2664(2) 0.76074(18)
F6B F 0.4372(2) 0.15162(19) 0.74101(13)
loop_
_geom_bond_atom_site_label_1
_geom_bond_atom_site_label_2
_geom_bond_site_symmetry_1
_geom_bond_site_symmetry_2
K1 O1 1_555 1_555
P1 F1 1_555 1_555
P2 F4 1_555 1_555
F2 P1 1_555 1_555
F3 P1 1_555 1_555
F5 P2 1_555 1_555
F6 P2 1_555 1_555
O1 C1 1_555 1_555
O2 K1 1_555 1_555
O3 K1 1_555 1_555
O4 K1 1_555 1_555
O5 C13 1_555 1_555
O6 C13 1_555 1_555
O7 K1 1_555 1_555
O8 K1 1_555 1_555
O9 K1 1_555 1_555
O10 K1 1_555 1_555
O11 C27 1_555 1_555
O12 K1 1_555 1_555
C1 C2 1_555 1_555
C2 H1 1_555 1_555
C3 C2 1_555 1_555
C4 C3 1_555 1_555
H2 C4 1_555 1_555
C5 C4 1_555 1_555
H3 C5 1_555 1_555
C6 O10 1_555 1_555
C7 O1 1_555 1_555
H4 C7 1_555 1_555
H5 C7 1_555 1_555
C8 O2 1_555 1_555
H6 C8 1_555 1_555
H7 C8 1_555 1_555
C9 O2 1_555 1_555
H8 C9 1_555 1_555
H9 C9 1_555 1_555
C10 O3 1_555 1_555
H10 C10 1_555 1_555
H11 C10 1_555 1_555
C11 O3 1_555 1_555
H12 C11 1_555 1_555
H13 C11 1_555 1_555
C12 O4 1_555 1_555
H14 C12 1_555 1_555
H15 C12 1_555 1_555
C13 C3 1_555 1_555
C14 O5 1_555 1_555
H16 C14 1_555 1_555
H17 C14 1_555 1_555
H18 C14 1_555 1_555
C15 O7 1_555 1_555
C16 C15 1_555 1_555
H19 C16 1_555 1_555
C17 C16 1_555 1_555
C18 C17 1_555 1_555
H20 C18 1_555 1_555
C19 C18 1_555 1_555
H21 C19 1_555 1_555
C20 O4 1_555 1_555
C21 O7 1_555 1_555
H22 C21 1_555 1_555
H23 C21 1_555 1_555
C22 O8 1_555 1_555
H24 C22 1_555 1_555
H25 C22 1_555 1_555
C23 O8 1_555 1_555
H26 C23 1_555 1_555
H27 C23 1_555 1_555
C24 O9 1_555 1_555
H28 C24 1_555 1_555
H29 C24 1_555 1_555
C25 O9 1_555 1_555
H30 C25 1_555 1_555
H31 C25 1_555 1_555
C26 O10 1_555 1_555
H32 C26 1_555 1_555
H33 C26 1_555 1_555
C27 O12 1_555 1_555
C28 O11 1_555 1_555
H34 C28 1_555 1_555
H35 C28 1_555 1_555
H36 C28 1_555 1_555
K1B O1B 1_555 1_555
F1B P1 1_555 1_555
F2B P1 1_555 1_555
F3B P1 1_555 1_555
F4B P2 1_555 1_555
F5B P2 1_555 1_555
F6B P2 1_555 1_555
O1B C1B 1_555 1_555
O2B K1B 1_555 1_555
O3B K1B 1_555 1_555
O4B K1B 1_555 1_555
O5B C13B 1_555 1_555
O6B C13B 1_555 1_555
O7B K1B 1_555 1_555
O8B K1B 1_555 1_555
O9B K1B 1_555 1_555
O10B K1B 1_555 1_555
O11B C27B 1_555 1_555
O12B K1B 1_555 1_555
C1B C2B 1_555 1_555
C2B H1B 1_555 1_555
C3B C2B 1_555 1_555
C4B C3B 1_555 1_555
H2B C4B 1_555 1_555
C5B C4B 1_555 1_555
H3B C5B 1_555 1_555
C6B O10B 1_555 1_555
C7B O1B 1_555 1_555
H4B C7B 1_555 1_555
H5B C7B 1_555 1_555
C8B O2B 1_555 1_555
H6B C8B 1_555 1_555
H7B C8B 1_555 1_555
C9B O2B 1_555 1_555
H8B C9B 1_555 1_555
H9B C9B 1_555 1_555
C10B O3B 1_555 1_555
H10B C10B 1_555 1_555
H11B C10B 1_555 1_555
C11B O3B 1_555 1_555
H12B C11B 1_555 1_555
H13B C11B 1_555 1_555
C12B O4B 1_555 1_555
H14B C12B 1_555 1_555
H15B C12B 1_555 1_555
C13B C3B 1_555 1_555
C14B O5B 1_555 1_555
H16B C14B 1_555 1_555
H17B C14B 1_555 1_555
H18B C14B 1_555 1_555
C15B O7B 1_555 1_555
C16B C15B 1_555 1_555
H19B C16B 1_555 1_555
C17B C27 1_555 1_555
C18B C17B 1_555 1_555
H20B C18B 1_555 1_555
C19B C18B 1_555 1_555
H21B C19B 1_555 1_555
C20B O4B 1_555 1_555
C21B O7B 1_555 1_555
H22B C21B 1_555 1_555
H23B C21B 1_555 1_555
C22B O8B 1_555 1_555
H24B C22B 1_555 1_555
H25B C22B 1_555 1_555
C23B O8B 1_555 1_555
H26B C23B 1_555 1_555
H27B C23B 1_555 1_555
C24B O9B 1_555 1_555
H28B C24B 1_555 1_555
H29B C24B 1_555 1_555
C25B O9B 1_555 1_555
H30B C25B 1_555 1_555
H31B C25B 1_555 1_555
C26B O10B 1_555 1_555
H32B C26B 1_555 1_555
H33B C26B 1_555 1_555
C27B C17 1_555 1_555
C28B O11B 1_555 1_555
H34B C28B 1_555 1_555
H35B C28B 1_555 1_555
H36B C28B 1_555 1_555
C1 C6 1_555 1_555
C5 C6 1_555 1_555
C7 C8 1_555 1_555
C9 C10 1_555 1_555
C11 C12 1_555 1_555
C15 C20 1_555 1_555
C19 C20 1_555 1_555
C21 C22 1_555 1_555
C23 C24 1_555 1_555
C25 C26 1_555 1_555
O12B C27B 1_555 1_555
C1B C6B 1_555 1_555
C5B C6B 1_555 1_555
C7B C8B 1_555 1_555
C9B C10B 1_555 1_555
C11B C12B 1_555 1_555
C15B C20B 1_555 1_555
C16B C17B 1_555 1_555
C19B C20B 1_555 1_555
C21B C22B 1_555 1_555
C23B C24B 1_555 1_555
C25B C26B 1_555 1_555

#END
