
#######################################################################
#
#                 Cambridge Crystallographic Data Centre
#                                CCDC 
#
#######################################################################
#
# If this CIF has been generated from an entry in the Cambridge 
# Structural Database, then it will include bibliographic, chemical, 
# crystal, experimental, refinement or atomic coordinate data resulting 
# from the CCDC's data processing and validation procedures.
#
#######################################################################

data_QAPHUK
_chemical_formula_moiety         'C36 H40 O8'
_chemical_name_systematic        
5,11,17,23,25,26,27,28-Octamethoxycalix(4)arene
_symmetry_cell_setting           orthorhombic
_symmetry_space_group_name_H-M   'P b c n'
_symmetry_Int_Tables_number      60
_space_group_name_Hall           '-P 2n 2ab'
loop_
_symmetry_equiv_pos_site_id
_symmetry_equiv_pos_as_xyz
1 x,y,z
2 1/2-x,1/2-y,1/2+z
3 1/2+x,1/2-y,-z
4 -x,y,1/2-z
5 -x,-y,-z
6 1/2+x,1/2+y,1/2-z
7 1/2-x,1/2+y,z
8 x,-y,1/2+z
_cell_length_a                   11.8738(5)
_cell_length_b                   14.3436(6)
_cell_length_c                   17.840(4)
_cell_angle_alpha                90
_cell_angle_beta                 90
_cell_angle_gamma                90
_cell_volume                     3038.38
_exptl_crystal_colour            white
_exptl_crystal_description       platelets
_chemical_melting_point          '184-185 deg.C'
_cell_formula_units_Z            4
_exptl_crystal_recrystallization_method 'ethyl acetate/light petroleum'
loop_
_atom_site_label
_atom_site_type_symbol
_atom_site_fract_x
_atom_site_fract_y
_atom_site_fract_z
O1 O 0.1275(1) 0.8240(1) 0.2899(1)
O2 O 0.4070(1) 1.0593(1) 0.4492(1)
O3 O 0.1497(1) 0.7994(1) 0.1165(1)
O4 O 0.0831(1) 1.1770(1) 0.1651(1)
C1 C 0.2024(2) 0.8802(1) 0.3291(1)
C2 C 0.1754(2) 0.9042(1) 0.4026(1)
C3 C 0.2475(2) 0.9636(1) 0.4415(1)
C4 C 0.3433(2) 0.9992(1) 0.4066(1)
C5 C 0.3671(2) 0.9771(1) 0.3323(1)
C6 C 0.2946(2) 0.9173(1) 0.2924(1)
C7 C 0.3085(2) 0.9018(1) 0.2086(1)
C8 C 0.2103(2) 0.9467(1) 0.1679(1)
C9 C 0.1307(2) 0.8946(1) 0.1273(1)
C10 C 0.0309(2) 0.9340(1) 0.1026(1)
C11 C 0.0129(2) 1.0290(1) 0.1151(1)
C12 C 0.0935(2) 1.0823(1) 0.1510(1)
C13 C 0.1914(2) 1.0412(1) 0.1773(1)
C14 C 0.1598(2) 0.7279(1) 0.2901(2)
C15 C 0.5165(2) 1.0837(2) 0.4228(2)
C16 C 0.2213(2) 0.7821(2) 0.0528(2)
C17 C -0.0217(2) 1.2197(2) 0.1466(2)
C18 C 0.0618(2) 0.8764(1) 0.4339(1)
H1 H 0.2298(14) 0.9854(10) 0.4941(10)
H2 H 0.4377(13) 1.0097(9) 0.3038(9)
H3 H 0.3835(16) 0.9301(10) 0.1898(10)
H4 H 0.3099(14) 0.8363(12) 0.1971(9)
H5 H 0.2445(16) 1.0783(10) 0.2051(10)
H6 H 0.1635(17) 0.7023(12) 0.3403(13)
H7 H 0.2939(17) 0.8202(12) 0.0568(11)
H8 H 0.0614(15) 0.8893(11) 0.4894(11)
H9 H -0.0613(15) 1.0565(11) 0.0963(10)
H10 H -0.0123(14) 1.2877(12) 0.1674(10)
H11 H 0.5113(18) 1.1261(13) 0.3768(12)
H12 H 0.2335(19) 0.7190(12) 0.2633(12)
H13 H 0.0957(19) 0.6990(12) 0.2615(13)
H14 H 0.2378(19) 0.7151(14) 0.0554(13)
H15 H 0.0455(14) 0.8081(11) 0.4236(9)
H16 H 0.5632(16) 1.0248(13) 0.4134(12)
H17 H 0.1816(20) 0.8044(13) 0.0064(14)
H18 H 0.5506(18) 1.1230(14) 0.4646(13)
H19 H -0.0851(19) 1.1859(12) 0.1752(12)
H20 H -0.0350(19) 1.2158(13) 0.0916(14)
C18C C -0.0618(2) 0.8764(1) 0.0661(1)
C2C C -0.1754(2) 0.9042(1) 0.0974(1)
C1C C -0.2024(2) 0.8802(1) 0.1709(1)
O1C O -0.1275(1) 0.8240(1) 0.2101(1)
C14C C -0.1598(2) 0.7279(1) 0.2099(2)
H6C H -0.1635(17) 0.7023(12) 0.1597(13)
H12C H -0.2335(19) 0.7190(12) 0.2367(12)
H13C H -0.0957(19) 0.6990(12) 0.2385(13)
C6C C -0.2946(2) 0.9173(1) 0.2076(1)
C5C C -0.3671(2) 0.9771(1) 0.1677(1)
C4C C -0.3433(2) 0.9992(1) 0.0934(1)
O2C O -0.4070(1) 1.0593(1) 0.0508(1)
C15C C -0.5165(2) 1.0837(2) 0.0772(2)
H11C H -0.5113(18) 1.1261(13) 0.1232(12)
H16C H -0.5632(16) 1.0248(13) 0.0866(12)
H18C H -0.5506(18) 1.1230(14) 0.0354(13)
C3C C -0.2475(2) 0.9636(1) 0.0585(1)
H1C H -0.2298(14) 0.9854(10) 0.0059(10)
H2C H -0.4377(13) 1.0097(9) 0.1962(9)
C7C C -0.3085(2) 0.9018(1) 0.2914(1)
C8C C -0.2103(2) 0.9467(1) 0.3321(1)
C9C C -0.1307(2) 0.8946(1) 0.3727(1)
O3C O -0.1497(1) 0.7994(1) 0.3835(1)
C16C C -0.2213(2) 0.7821(2) 0.4472(2)
H7C H -0.2939(17) 0.8202(12) 0.4432(11)
H14C H -0.2378(19) 0.7151(14) 0.4446(13)
H17C H -0.1816(20) 0.8044(13) 0.4936(14)
C10C C -0.0309(2) 0.9340(1) 0.3974(1)
C11C C -0.0129(2) 1.0290(1) 0.3849(1)
C12C C -0.0935(2) 1.0823(1) 0.3490(1)
O4C O -0.0831(1) 1.1770(1) 0.3349(1)
C17C C 0.0217(2) 1.2197(2) 0.3534(2)
H10C H 0.0123(14) 1.2877(12) 0.3326(10)
H19C H 0.0851(19) 1.1859(12) 0.3248(12)
H20C H 0.0350(19) 1.2158(13) 0.4084(14)
C13C C -0.1914(2) 1.0412(1) 0.3227(1)
H5C H -0.2445(16) 1.0783(10) 0.2949(10)
H9C H 0.0613(15) 1.0565(11) 0.4037(10)
H3C H -0.3835(16) 0.9301(10) 0.3102(10)
H4C H -0.3099(14) 0.8363(12) 0.3029(9)
H8C H -0.0614(15) 0.8893(11) 0.0106(11)
H15C H -0.0455(14) 0.8081(11) 0.0764(9)
loop_
_geom_bond_atom_site_label_1
_geom_bond_atom_site_label_2
_geom_bond_site_symmetry_1
_geom_bond_site_symmetry_2
O1 C1 1_555 1_555
O2 C4 1_555 1_555
O3 C9 1_555 1_555
O4 C12 1_555 1_555
C1 C2 1_555 1_555
C2 C3 1_555 1_555
C3 C4 1_555 1_555
C4 C5 1_555 1_555
C5 C6 1_555 1_555
C6 C1 1_555 1_555
C7 C6 1_555 1_555
C8 C7 1_555 1_555
C9 C8 1_555 1_555
C10 C9 1_555 1_555
C11 C10 1_555 1_555
C12 C11 1_555 1_555
C13 C8 1_555 1_555
C14 O1 1_555 1_555
C15 O2 1_555 1_555
C16 O3 1_555 1_555
C17 O4 1_555 1_555
C18 C2 1_555 1_555
H1 C3 1_555 1_555
H2 C5 1_555 1_555
H3 C7 1_555 1_555
H4 C7 1_555 1_555
H5 C13 1_555 1_555
H6 C14 1_555 1_555
H7 C16 1_555 1_555
H8 C18 1_555 1_555
H9 C11 1_555 1_555
H10 C17 1_555 1_555
H11 C15 1_555 1_555
H12 C14 1_555 1_555
H13 C14 1_555 1_555
H14 C16 1_555 1_555
H15 C18 1_555 1_555
H16 C15 1_555 1_555
H17 C16 1_555 1_555
H18 C15 1_555 1_555
H19 C17 1_555 1_555
H20 C17 1_555 1_555
C18C C10 1_555 1_555
C2C C18C 1_555 1_555
C1C C2C 1_555 1_555
O1C C1C 1_555 1_555
C14C O1C 1_555 1_555
H6C C14C 1_555 1_555
H12C C14C 1_555 1_555
H13C C14C 1_555 1_555
C6C C1C 1_555 1_555
C5C C6C 1_555 1_555
C4C C5C 1_555 1_555
O2C C4C 1_555 1_555
C15C O2C 1_555 1_555
H11C C15C 1_555 1_555
H16C C15C 1_555 1_555
H18C C15C 1_555 1_555
C3C C2C 1_555 1_555
H1C C3C 1_555 1_555
H2C C5C 1_555 1_555
C7C C6C 1_555 1_555
C8C C7C 1_555 1_555
C9C C8C 1_555 1_555
O3C C9C 1_555 1_555
C16C O3C 1_555 1_555
H7C C16C 1_555 1_555
H14C C16C 1_555 1_555
H17C C16C 1_555 1_555
C10C C18 1_555 1_555
C11C C10C 1_555 1_555
C12C C11C 1_555 1_555
O4C C12C 1_555 1_555
C17C O4C 1_555 1_555
H10C C17C 1_555 1_555
H19C C17C 1_555 1_555
H20C C17C 1_555 1_555
C13C C8C 1_555 1_555
H5C C13C 1_555 1_555
H9C C11C 1_555 1_555
H3C C7C 1_555 1_555
H4C C7C 1_555 1_555
H8C C18C 1_555 1_555
H15C C18C 1_555 1_555
C12 C13 1_555 1_555
C4C C3C 1_555 1_555
C9C C10C 1_555 1_555
C12C C13C 1_555 1_555

#END
