
#######################################################################
#
#                 Cambridge Crystallographic Data Centre
#                                CCDC 
#
#######################################################################
#
# If this CIF has been generated from an entry in the Cambridge 
# Structural Database, then it will include bibliographic, chemical, 
# crystal, experimental, refinement or atomic coordinate data resulting 
# from the CCDC's data processing and validation procedures.
#
#######################################################################

data_QAPNON
_chemical_formula_moiety         'C17 H11 Cl1 O2 S1'
_chemical_name_systematic        
2-(3-chlorophenyl)-1,2-dihydro-4H-thieno[2,3-c]chromen-4-one
_symmetry_cell_setting           monoclinic
_symmetry_space_group_name_H-M   'P 21/c'
_symmetry_Int_Tables_number      14
_space_group_name_Hall           '-P 2ybc'
loop_
_symmetry_equiv_pos_site_id
_symmetry_equiv_pos_as_xyz
1 x,y,z
2 -x,1/2+y,1/2-z
3 -x,-y,-z
4 x,1/2-y,1/2+z
_cell_length_a                   14.8803(10)
_cell_length_b                   9.1115(5)
_cell_length_c                   11.0319(9)
_cell_angle_alpha                90
_cell_angle_beta                 110.750(8)
_cell_angle_gamma                90
_cell_volume                     1398.71
_cell_formula_units_Z            4
loop_
_atom_site_label
_atom_site_type_symbol
_atom_site_fract_x
_atom_site_fract_y
_atom_site_fract_z
Cl1 Cl -0.15992(5) 0.11492(8) 0.38867(7)
S1 S 0.24927(4) 0.19309(7) 0.48518(7)
O1 O 0.41292(11) 0.41444(18) 0.32617(15)
O2 O 0.38171(13) 0.17777(19) 0.32266(17)
C1 C 0.40505(15) 0.5559(2) 0.3666(2)
C2 C 0.45312(17) 0.6636(3) 0.3262(2)
H1 H 0.4889 0.6403 0.2748
C3 C 0.44714(19) 0.8065(3) 0.3635(3)
H2 H 0.4784 0.8805 0.3359
C4 C 0.39519(18) 0.8409(3) 0.4416(3)
H3 H 0.3923 0.9375 0.4671
C5 C 0.34795(15) 0.7328(2) 0.4813(2)
H4 H 0.3132 0.7568 0.5339
C6 C 0.35110(14) 0.5868(2) 0.4439(2)
C7 C 0.30230(14) 0.4672(2) 0.4781(2)
C8 C 0.24319(16) 0.4754(3) 0.5635(2)
H5 H 0.2004 0.5594 0.5398
H6 H 0.2847 0.4860 0.6534
C9 C 0.18452(16) 0.3325(3) 0.5452(2)
H7 H 0.1840 0.3009 0.6299
C10 C 0.31058(15) 0.3314(2) 0.4362(2)
C11 C 0.36875(16) 0.2974(3) 0.3592(2)
C12 C 0.08207(15) 0.3412(3) 0.4517(2)
C13 C 0.01502(16) 0.2423(3) 0.4629(2)
H8 H 0.0325 0.1750 0.5306
C14 C -0.07746(16) 0.2427(3) 0.3745(2)
C15 C -0.10607(18) 0.3419(3) 0.2739(2)
H9 H -0.1687 0.3413 0.2144
C16 C -0.04049(19) 0.4415(4) 0.2633(3)
H10 H -0.0591 0.5100 0.1964
C17 C 0.05345(18) 0.4419(3) 0.3507(2)
H11 H 0.0973 0.5099 0.3416
loop_
_geom_bond_atom_site_label_1
_geom_bond_atom_site_label_2
_geom_bond_site_symmetry_1
_geom_bond_site_symmetry_2
Cl1 C14 1_555 1_555
S1 C9 1_555 1_555
O1 C1 1_555 1_555
O2 C11 1_555 1_555
C1 C2 1_555 1_555
C2 H1 1_555 1_555
C3 C2 1_555 1_555
H2 C3 1_555 1_555
C4 C3 1_555 1_555
H3 C4 1_555 1_555
C5 C4 1_555 1_555
H4 C5 1_555 1_555
C6 C1 1_555 1_555
C7 C6 1_555 1_555
C8 C7 1_555 1_555
H5 C8 1_555 1_555
H6 C8 1_555 1_555
C9 C8 1_555 1_555
H7 C9 1_555 1_555
C10 S1 1_555 1_555
C11 O1 1_555 1_555
C12 C9 1_555 1_555
C13 C12 1_555 1_555
H8 C13 1_555 1_555
C14 C13 1_555 1_555
C15 C14 1_555 1_555
H9 C15 1_555 1_555
C16 C15 1_555 1_555
H10 C16 1_555 1_555
C17 C12 1_555 1_555
H11 C17 1_555 1_555
C5 C6 1_555 1_555
C7 C10 1_555 1_555
C10 C11 1_555 1_555
C16 C17 1_555 1_555

#END
