
#######################################################################
#
#                 Cambridge Crystallographic Data Centre
#                                CCDC 
#
#######################################################################
#
# If this CIF has been generated from an entry in the Cambridge 
# Structural Database, then it will include bibliographic, chemical, 
# crystal, experimental, refinement or atomic coordinate data resulting 
# from the CCDC's data processing and validation procedures.
#
#######################################################################

data_QAPPUV
_chemical_formula_moiety         'C18 H11 I2 N1'
_chemical_name_systematic        3,6-diiodo-9-phenyl-9H-carbazole
_symmetry_cell_setting           monoclinic
_symmetry_space_group_name_H-M   'P 21'
_symmetry_Int_Tables_number      4
_space_group_name_Hall           'P 2yb'
loop_
_symmetry_equiv_pos_site_id
_symmetry_equiv_pos_as_xyz
1 x,y,z
2 -x,1/2+y,-z
_cell_length_a                   12.3621(9)
_cell_length_b                   4.8724(4)
_cell_length_c                   27.031(2)
_cell_angle_alpha                90
_cell_angle_beta                 103.1897(9)
_cell_angle_gamma                90
_cell_volume                     1585.21
_exptl_crystal_description       needle
_cell_formula_units_Z            4
loop_
_atom_site_label
_atom_site_type_symbol
_atom_site_fract_x
_atom_site_fract_y
_atom_site_fract_z
I1 I 0.37181(14) 0.0004(3) 0.45857(5)
I2 I -0.18218(16) 1.1891(4) 0.44714(5)
N1 N 0.0255(11) 0.601(3) 0.2883(3)
C1 C 0.1018(9) 0.501(2) 0.3687(4)
C2 C 0.1743(10) 0.372(3) 0.4088(3)
H1 H 0.1706 0.4088 0.4421
C3 C 0.2525(9) 0.187(2) 0.3990(3)
C4 C 0.2582(8) 0.131(2) 0.3492(4)
H2 H 0.3105 0.0075 0.3427
C5 C 0.1856(10) 0.261(3) 0.3092(3)
H3 H 0.1894 0.2236 0.2759
C6 C 0.1074(9) 0.446(2) 0.3189(3)
C7 C 0.0119(9) 0.679(2) 0.3690(4)
C8 C -0.0251(10) 0.817(3) 0.4070(3)
H4 H 0.0044 0.7744 0.4409
C9 C -0.1063(9) 1.019(2) 0.3943(3)
C10 C -0.1504(7) 1.0825(17) 0.3436(4)
H5 H -0.2047 1.2174 0.3351
C11 C -0.1133(8) 0.945(2) 0.3056(3)
H6 H -0.1429 0.9874 0.2716
C12 C -0.0322(9) 0.743(2) 0.3182(3)
C13 C -0.0059(15) 0.534(3) 0.2366(3)
C14 C 0.0808(11) 0.578(4) 0.2126(5)
H7 H 0.1532 0.5948 0.2318
C15 C 0.0593(13) 0.596(4) 0.1600(5)
H8 H 0.1174 0.6249 0.1439
C16 C -0.0488(15) 0.570(4) 0.1313(3)
H9 H -0.0632 0.5824 0.0961
C17 C -0.1356(12) 0.527(4) 0.1553(5)
H10 H -0.2080 0.5097 0.1361
C18 C -0.1141(13) 0.509(4) 0.2079(5)
H11 H -0.1722 0.4796 0.2240
I3 I 0.87168(14) 0.6409(3) 0.95865(5)
I4 I 0.31965(16) -0.5489(4) 0.94779(4)
N2 N 0.5185(9) 0.091(2) 0.7880(2)
C25 C 0.6025(8) 0.163(2) 0.8729(3)
C26 C 0.6807(10) 0.286(3) 0.9118(2)
H17 H 0.6832 0.2410 0.9455
C27 C 0.7551(9) 0.476(2) 0.9003(3)
C28 C 0.7514(8) 0.544(2) 0.8500(4)
H18 H 0.8012 0.6713 0.8423
C29 C 0.6732(9) 0.421(2) 0.8111(3)
H19 H 0.6707 0.4664 0.7775
C30 C 0.5988(8) 0.231(2) 0.8226(3)
C31 C 0.5168(8) -0.041(2) 0.8694(4)
C32 C 0.4718(9) -0.173(3) 0.9056(3)
H20 H 0.5040 -0.1509 0.9399
C33 C 0.3788(9) -0.340(2) 0.8904(3)
C34 C 0.3307(7) -0.373(2) 0.8390(3)
H21 H 0.2684 -0.4844 0.8289
C35 C 0.3756(9) -0.241(2) 0.8028(2)
H22 H 0.3434 -0.2631 0.7685
C36 C 0.4687(9) -0.074(2) 0.8180(3)
C37 C 0.4963(13) 0.047(3) 0.7361(3)
C38 C 0.5776(10) 0.029(4) 0.7081(5)
H23 H 0.6506 -0.0104 0.7244
C39 C 0.5496(13) 0.069(4) 0.6559(5)
H24 H 0.6039 0.0562 0.6372
C40 C 0.4404(15) 0.127(4) 0.6315(3)
H25 H 0.4216 0.1538 0.5965
C41 C 0.3591(11) 0.146(4) 0.6594(5)
H26 H 0.2861 0.1849 0.6431
C42 C 0.3871(12) 0.106(4) 0.7117(5)
H27 H 0.3328 0.1183 0.7304
C19? C -0.0044(15) 0.579(4) 0.2325(3)
C20? C 0.0032(14) 0.323(3) 0.2106(5)
H12? H 0.0240 0.1703 0.2311
C21? C -0.0203(14) 0.297(3) 0.1580(5)
H13? H -0.0153 0.1262 0.1433
C22? C -0.0514(15) 0.526(4) 0.1274(3)
H14? H -0.0671 0.5082 0.0922
C23? C -0.0589(15) 0.781(3) 0.1493(5)
H15? H -0.0797 0.9343 0.1288
C24? C -0.0354(14) 0.808(3) 0.2019(5)
H16? H -0.0405 0.9783 0.2165
C43? C 0.4997(13) 0.089(3) 0.7316(2)
C44? C 0.4877(13) -0.160(3) 0.7056(4)
H28? H 0.4983 -0.3239 0.7236
C45? C 0.4598(13) -0.163(3) 0.6528(4)
H29? H 0.4518 -0.3290 0.6355
C46? C 0.4439(13) 0.083(3) 0.6259(2)
H30? H 0.4253 0.0807 0.5906
C47? C 0.4559(13) 0.331(3) 0.6519(4)
H31? H 0.4453 0.4955 0.6339
C48? C 0.4838(12) 0.334(3) 0.7047(4)
H32? H 0.4918 0.5006 0.7220
loop_
_geom_bond_atom_site_label_1
_geom_bond_atom_site_label_2
_geom_bond_site_symmetry_1
_geom_bond_site_symmetry_2
I1 C3 1_555 1_555
I2 C9 1_555 1_555
N1 C6 1_555 1_555
C1 C2 1_555 1_555
C2 H1 1_555 1_555
C3 C2 1_555 1_555
C4 C3 1_555 1_555
H2 C4 1_555 1_555
C5 C4 1_555 1_555
H3 C5 1_555 1_555
C6 C1 1_555 1_555
C7 C1 1_555 1_555
C8 C7 1_555 1_555
H4 C8 1_555 1_555
C9 C8 1_555 1_555
C10 C9 1_555 1_555
H5 C10 1_555 1_555
C11 C10 1_555 1_555
H6 C11 1_555 1_555
C12 N1 1_555 1_555
C13 N1 1_555 1_555
C14 C13 1_555 1_555
H7 C14 1_555 1_555
C15 C14 1_555 1_555
H8 C15 1_555 1_555
C16 C15 1_555 1_555
H9 C16 1_555 1_555
C17 C16 1_555 1_555
H10 C17 1_555 1_555
C18 C13 1_555 1_555
H11 C18 1_555 1_555
I3 C27 1_555 1_555
I4 C33 1_555 1_555
N2 C30 1_555 1_555
C25 C26 1_555 1_555
C26 H17 1_555 1_555
C27 C26 1_555 1_555
C28 C27 1_555 1_555
H18 C28 1_555 1_555
C29 C28 1_555 1_555
H19 C29 1_555 1_555
C30 C25 1_555 1_555
C31 C25 1_555 1_555
C32 C31 1_555 1_555
H20 C32 1_555 1_555
C33 C32 1_555 1_555
C34 C33 1_555 1_555
H21 C34 1_555 1_555
C35 C34 1_555 1_555
H22 C35 1_555 1_555
C36 N2 1_555 1_555
C37 N2 1_555 1_555
C38 C37 1_555 1_555
H23 C38 1_555 1_555
C39 C38 1_555 1_555
H24 C39 1_555 1_555
C40 C39 1_555 1_555
H25 C40 1_555 1_555
C41 C40 1_555 1_555
H26 C41 1_555 1_555
C42 C37 1_555 1_555
H27 C42 1_555 1_555
C5 C6 1_555 1_555
C7 C12 1_555 1_555
C11 C12 1_555 1_555
C17 C18 1_555 1_555
C29 C30 1_555 1_555
C31 C36 1_555 1_555
C35 C36 1_555 1_555
C41 C42 1_555 1_555

#END
