
#######################################################################
#
#                 Cambridge Crystallographic Data Centre
#                                CCDC 
#
#######################################################################
#
# If this CIF has been generated from an entry in the Cambridge 
# Structural Database, then it will include bibliographic, chemical, 
# crystal, experimental, refinement or atomic coordinate data resulting 
# from the CCDC's data processing and validation procedures.
#
#######################################################################

data_QAPQEG
_chemical_name_common            
N,N'-bis(2-(pyridin-2-ylamino)phenyl)pyridine-2,6-dicarboxamide
_chemical_formula_moiety         'C29 H23 N7 O2'
_chemical_name_systematic        
'N2, N6-bis(2-(pyridin-2 -ylamino)phenyl)pyridine-2,6-dicarboxamide'
_symmetry_cell_setting           monoclinic
_symmetry_space_group_name_H-M   'P 21/n'
_symmetry_Int_Tables_number      14
_space_group_name_Hall           '-P 2yn'
loop_
_symmetry_equiv_pos_site_id
_symmetry_equiv_pos_as_xyz
1 x,y,z
2 1/2-x,1/2+y,1/2-z
3 -x,-y,-z
4 1/2+x,1/2-y,1/2+z
_cell_length_a                   9.2468(14)
_cell_length_b                   25.869(4)
_cell_length_c                   11.0007(16)
_cell_angle_alpha                90
_cell_angle_beta                 109.256(3)
_cell_angle_gamma                90
_cell_volume                     2484.21
_exptl_crystal_colour            colorless
_exptl_crystal_description       block
_cell_formula_units_Z            4
loop_
_atom_site_label
_atom_site_type_symbol
_atom_site_fract_x
_atom_site_fract_y
_atom_site_fract_z
N1 N 0.38535(16) 0.17828(6) 0.36664(13)
H1 H 0.4777 0.1648 0.3963
N2 N 0.46832(16) 0.14394(6) 0.61484(13)
H2 H 0.5069 0.1321 0.5570
O1 O 0.78477(17) -0.05612(5) 0.51765(15)
N3 N 0.39170(17) 0.15831(6) 0.16627(14)
N4 N 0.61561(16) 0.05046(6) 0.62472(13)
N5 N 0.73407(18) 0.02619(6) 0.44045(15)
H3 H 0.6937 0.0553 0.4555
N6 N 0.71228(17) 0.18276(6) 0.45231(15)
C1 C 0.38587(19) 0.19086(7) 0.58471(17)
C2 C 0.30408(19) 0.16998(6) 0.23891(16)
C3 C 0.1438(2) 0.17076(7) 0.18791(18)
H4 H 0.0836 0.1777 0.2413
C4 C 0.78799(19) 0.14464(6) 0.41804(16)
C5 C 0.6761(2) 0.00300(7) 0.62872(17)
C6 C 0.33430(18) 0.20657(7) 0.45502(17)
N7 N 0.70612(17) 0.11730(6) 0.31016(14)
H5 H 0.6121 0.1272 0.2670
C7 C 0.7378(2) -0.01242(7) 0.52356(18)
C8 C 0.2426(2) 0.25036(7) 0.41960(19)
H6 H 0.2063 0.2608 0.3319
C9 C 0.9408(2) 0.13270(7) 0.48931(18)
H7 H 0.9940 0.1061 0.4622
C10 C 0.0758(2) 0.16125(7) 0.05847(19)
H8 H -0.0326 0.1620 0.0214
C11 C 0.7679(2) 0.07359(7) 0.26551(17)
C12 C 0.5635(2) 0.06303(7) 0.72086(16)
C13 C 0.7850(2) 0.02700(7) 0.33304(17)
C14 C 0.3209(2) 0.14896(7) 0.04066(18)
H9 H 0.3824 0.1407 -0.0108
C15 C 0.8127(2) 0.07674(8) 0.15747(19)
H10 H 0.7994 0.1082 0.1105
C16 C 0.6853(2) -0.03274(8) 0.7260(2)
H11 H 0.7287 -0.0660 0.7251
C17 C 0.7863(2) 0.20980(7) 0.55883(19)
H12 H 0.7331 0.2374 0.5822
C18 C 0.4943(2) 0.11541(7) 0.72171(17)
C19 C 0.2617(2) 0.26489(8) 0.6390(2)
H13 H 0.2387 0.2853 0.7021
C20 C 0.3532(2) 0.22136(7) 0.67712(19)
H14 H 0.3934 0.2124 0.7657
C21 C 1.0111(2) 0.16056(8) 0.5990(2)
H15 H 1.1136 0.1528 0.6501
C22 C 0.1648(2) 0.15056(8) -0.01798(19)
H16 H 0.1196 0.1446 -0.1078
C23 C 0.8766(3) 0.03455(9) 0.1172(2)
H17 H 0.9083 0.0372 0.0436
O2 O 0.4647(3) 0.12930(7) 0.81635(17)
C24 C 0.5697(3) 0.02966(8) 0.82158(19)
H18 H 0.5326 0.0403 0.8885
C25 C 0.2037(2) 0.27897(7) 0.5112(2)
H19 H 0.1376 0.3080 0.4859
C26 C 0.8490(2) -0.01572(7) 0.2932(2)
H20 H 0.8617 -0.0474 0.3394
C27 C 0.8943(2) -0.01141(8) 0.1841(2)
H21 H 0.9376 -0.0404 0.1559
C28 C 0.9327(2) 0.20009(8) 0.6354(2)
H22 H 0.9795 0.2197 0.7112
C29 C 0.6304(3) -0.01888(8) 0.8229(2)
H23 H 0.6342 -0.0425 0.8900
loop_
_geom_bond_atom_site_label_1
_geom_bond_atom_site_label_2
_geom_bond_site_symmetry_1
_geom_bond_site_symmetry_2
N1 H1 1_555 1_555
N2 H2 1_555 1_555
O1 C7 1_555 1_555
N3 C2 1_555 1_555
N4 C5 1_555 1_555
N5 H3 1_555 1_555
N6 C4 1_555 1_555
C1 N2 1_555 1_555
C2 N1 1_555 1_555
C3 C2 1_555 1_555
H4 C3 1_555 1_555
C4 N7 1_555 1_555
C5 C7 1_555 1_555
C6 N1 1_555 1_555
N7 H5 1_555 1_555
C7 N5 1_555 1_555
C8 C6 1_555 1_555
H6 C8 1_555 1_555
C9 C4 1_555 1_555
H7 C9 1_555 1_555
C10 C3 1_555 1_555
H8 C10 1_555 1_555
C11 N7 1_555 1_555
C12 N4 1_555 1_555
C13 N5 1_555 1_555
C14 N3 1_555 1_555
H9 C14 1_555 1_555
C15 C11 1_555 1_555
H10 C15 1_555 1_555
C16 C5 1_555 1_555
H11 C16 1_555 1_555
C17 N6 1_555 1_555
H12 C17 1_555 1_555
C18 N2 1_555 1_555
C19 H13 1_555 1_555
C20 C1 1_555 1_555
H14 C20 1_555 1_555
C21 C9 1_555 1_555
H15 C21 1_555 1_555
C22 C10 1_555 1_555
H16 C22 1_555 1_555
C23 C15 1_555 1_555
H17 C23 1_555 1_555
O2 C18 1_555 1_555
C24 C12 1_555 1_555
H18 C24 1_555 1_555
C25 C8 1_555 1_555
H19 C25 1_555 1_555
C26 C13 1_555 1_555
H20 C26 1_555 1_555
C27 C23 1_555 1_555
H21 C27 1_555 1_555
C28 C17 1_555 1_555
H22 C28 1_555 1_555
C29 C16 1_555 1_555
H23 C29 1_555 1_555
C1 C6 1_555 1_555
C11 C13 1_555 1_555
C12 C18 1_555 1_555
C14 C22 1_555 1_555
C19 C20 1_555 1_555
C19 C25 1_555 1_555
C21 C28 1_555 1_555
C24 C29 1_555 1_555
C26 C27 1_555 1_555

#END
