
#######################################################################
#
#                 Cambridge Crystallographic Data Centre
#                                CCDC 
#
#######################################################################
#
# If this CIF has been generated from an entry in the Cambridge 
# Structural Database, then it will include bibliographic, chemical, 
# crystal, experimental, refinement or atomic coordinate data resulting 
# from the CCDC's data processing and validation procedures.
#
#######################################################################

data_QAPQOQ
_chemical_formula_moiety         'C14 H26 N2 O2'
_chemical_name_systematic        
N-(2-(4-acetamido-4-methylcyclohexyl)propan-2-yl)acetamide
_symmetry_cell_setting           monoclinic
_symmetry_space_group_name_H-M   'C 2/c'
_symmetry_Int_Tables_number      15
_space_group_name_Hall           '-C 2yn'
loop_
_symmetry_equiv_pos_site_id
_symmetry_equiv_pos_as_xyz
1 x,y,z
2 -x,y,1/2-z
3 1/2+x,1/2+y,z
4 1/2-x,1/2+y,1/2-z
5 -x,-y,-z
6 x,-y,1/2+z
7 1/2-x,1/2-y,-z
8 1/2+x,1/2-y,1/2+z
_cell_length_a                   13.9416(9)
_cell_length_b                   12.1047(9)
_cell_length_c                   18.9084(13)
_cell_angle_alpha                90
_cell_angle_beta                 100.123(2)
_cell_angle_gamma                90
_cell_volume                     3141.29
_exptl_crystal_colour            colorless
_exptl_crystal_description       block
_cell_formula_units_Z            8
loop_
_atom_site_label
_atom_site_type_symbol
_atom_site_fract_x
_atom_site_fract_y
_atom_site_fract_z
C1 C 0.45832(18) 0.4852(2) 0.58983(15)
H1 H 0.4406 0.4710 0.6358
H2 H 0.5156 0.4436 0.5855
H3 H 0.4058 0.4637 0.5524
C2 C 0.47869(17) 0.6068(2) 0.58314(13)
C3 C 0.56993(19) 0.8064(2) 0.51955(14)
H4 H 0.5902 0.7653 0.4813
H5 H 0.5949 0.8803 0.5198
H6 H 0.5001 0.8085 0.5124
C4 C 0.60932(16) 0.75057(19) 0.59154(12)
C5 C 0.58090(17) 0.8151(2) 0.65434(13)
H7 H 0.6020 0.8912 0.6520
H8 H 0.5105 0.8151 0.6499
C6 C 0.62586(16) 0.7665(2) 0.72702(12)
H9 H 0.6005 0.6925 0.7309
H10 H 0.6067 0.8111 0.7648
C7 C 0.73758(16) 0.7615(2) 0.73794(12)
H11 H 0.7610 0.8377 0.7368
C8 C 0.76947(16) 0.7002(2) 0.67501(13)
H12 H 0.8396 0.7064 0.6791
H13 H 0.7537 0.6225 0.6778
C9 C 0.72055(16) 0.7453(2) 0.60184(13)
H14 H 0.7453 0.8190 0.5960
H15 H 0.7388 0.6991 0.5644
C10 C 0.78422(17) 0.71209(19) 0.81192(13)
C11 C 0.7565(2) 0.5913(2) 0.81973(15)
H16 H 0.7854 0.5650 0.8665
H17 H 0.7796 0.5478 0.7837
H18 H 0.6869 0.5849 0.8138
C12 C 0.76137(16) 0.8774(2) 0.88831(13)
C13 C 0.71071(18) 0.9175(2) 0.94723(14)
H19 H 0.7583 0.9406 0.9875
H20 H 0.6720 0.8589 0.9617
H21 H 0.6694 0.9788 0.9301
C14 C 0.89547(18) 0.7214(2) 0.82393(15)
H22 H 0.9136 0.7960 0.8152
H23 H 0.9206 0.6725 0.7916
H24 H 0.9220 0.7014 0.8726
N1 N 0.74660(14) 0.77123(16) 0.86999(10)
H25 H 0.7117 0.7334 0.8944
N2 N 0.57252(13) 0.63580(16) 0.59176(10)
H26 H 0.6150 0.5836 0.5979
O1 O 0.41056(11) 0.67399(14) 0.57028(10)
O2 O 0.81308(12) 0.93981(14) 0.85939(9)
loop_
_geom_bond_atom_site_label_1
_geom_bond_atom_site_label_2
_geom_bond_site_symmetry_1
_geom_bond_site_symmetry_2
C1 H1 1_555 1_555
H2 C1 1_555 1_555
H3 C1 1_555 1_555
C2 C1 1_555 1_555
C3 H4 1_555 1_555
H5 C3 1_555 1_555
H6 C3 1_555 1_555
C4 C3 1_555 1_555
C5 C4 1_555 1_555
H7 C5 1_555 1_555
H8 C5 1_555 1_555
C6 C5 1_555 1_555
H9 C6 1_555 1_555
H10 C6 1_555 1_555
C7 C6 1_555 1_555
H11 C7 1_555 1_555
C8 C7 1_555 1_555
H12 C8 1_555 1_555
H13 C8 1_555 1_555
C9 C4 1_555 1_555
H14 C9 1_555 1_555
H15 C9 1_555 1_555
C10 C7 1_555 1_555
C11 C10 1_555 1_555
H16 C11 1_555 1_555
H17 C11 1_555 1_555
H18 C11 1_555 1_555
C12 C13 1_555 1_555
C13 H19 1_555 1_555
H20 C13 1_555 1_555
H21 C13 1_555 1_555
C14 C10 1_555 1_555
H22 C14 1_555 1_555
H23 C14 1_555 1_555
H24 C14 1_555 1_555
N1 C10 1_555 1_555
H25 N1 1_555 1_555
N2 C2 1_555 1_555
H26 N2 1_555 1_555
O1 C2 1_555 1_555
O2 C12 1_555 1_555
C4 N2 1_555 1_555
C8 C9 1_555 1_555
C12 N1 1_555 1_555

#END
