
#######################################################################
#
#                 Cambridge Crystallographic Data Centre
#                                CCDC 
#
#######################################################################
#
# If this CIF has been generated from an entry in the Cambridge 
# Structural Database, then it will include bibliographic, chemical, 
# crystal, experimental, refinement or atomic coordinate data resulting 
# from the CCDC's data processing and validation procedures.
#
#######################################################################

data_QAPQAC
_chemical_formula_moiety         'C18 H10 Br1 I2 N1'
_chemical_name_systematic        9-(4-bromophenyl)-3,6-diiodo-9H-carbazole
_symmetry_cell_setting           monoclinic
_symmetry_space_group_name_H-M   'P 21/c'
_symmetry_Int_Tables_number      14
_space_group_name_Hall           '-P 2ybc'
loop_
_symmetry_equiv_pos_site_id
_symmetry_equiv_pos_as_xyz
1 x,y,z
2 -x,1/2+y,1/2-z
3 -x,-y,-z
4 x,1/2-y,1/2+z
_cell_length_a                   4.4724(4)
_cell_length_b                   13.9377(12)
_cell_length_c                   27.172(2)
_cell_angle_alpha                90
_cell_angle_beta                 90.0720(10)
_cell_angle_gamma                90
_cell_volume                     1693.76
_exptl_crystal_colour            pink
_exptl_crystal_description       needle
_cell_formula_units_Z            4
loop_
_atom_site_label
_atom_site_type_symbol
_atom_site_fract_x
_atom_site_fract_y
_atom_site_fract_z
I1 I 0.40195(17) 0.14145(5) 0.55951(2)
I2 I 1.59109(15) -0.00794(4) 0.31032(2)
Br1 Br 1.0679(3) 0.77331(6) 0.31504(4)
N1 N 0.9710(15) 0.3631(4) 0.3851(2)
C1 C 0.8839(18) 0.2280(5) 0.4291(3)
C2 C 0.7604(19) 0.1739(6) 0.4675(3)
H1 H 0.7996 0.1086 0.4703
C3 C 0.580(2) 0.2199(6) 0.5007(3)
C4 C 0.512(2) 0.3159(6) 0.4967(3)
H2 H 0.3829 0.3442 0.5192
C5 C 0.638(2) 0.3711(6) 0.4591(3)
H3 H 0.5961 0.4362 0.4562
C6 C 0.8278(18) 0.3249(6) 0.4260(3)
C7 C 1.0804(19) 0.2038(5) 0.3896(3)
C8 C 1.2160(19) 0.1184(5) 0.3749(3)
H4 H 1.1871 0.0620 0.3926
C9 C 1.392(2) 0.1196(5) 0.3340(3)
C10 C 1.445(2) 0.2049(5) 0.3073(3)
H5 H 1.5713 0.2040 0.2801
C11 C 1.3092(19) 0.2896(6) 0.3212(3)
H6 H 1.3382 0.3458 0.3033
C12 C 1.1288(19) 0.2884(5) 0.3625(3)
C13 C 0.9740(18) 0.4604(5) 0.3694(3)
C14 C 1.056(2) 0.5314(6) 0.4021(3)
H7 H 1.0954 0.5166 0.4349
C15 C 1.079(2) 0.6247(6) 0.3854(3)
H8 H 1.1369 0.6734 0.4068
C16 C 1.0164(19) 0.6449(5) 0.3379(3)
C17 C 0.922(2) 0.5762(6) 0.3058(3)
H9 H 0.8653 0.5927 0.2739
C18 C 0.911(2) 0.4817(5) 0.3210(3)
H10 H 0.8627 0.4331 0.2989
loop_
_geom_bond_atom_site_label_1
_geom_bond_atom_site_label_2
_geom_bond_site_symmetry_1
_geom_bond_site_symmetry_2
I1 C3 1_555 1_555
I2 C9 1_555 1_555
Br1 C16 1_555 1_555
N1 C6 1_555 1_555
C1 C2 1_555 1_555
C2 H1 1_555 1_555
C3 C2 1_555 1_555
C4 C3 1_555 1_555
H2 C4 1_555 1_555
C5 C4 1_555 1_555
H3 C5 1_555 1_555
C6 C1 1_555 1_555
C7 C1 1_555 1_555
C8 C7 1_555 1_555
H4 C8 1_555 1_555
C9 C8 1_555 1_555
C10 C9 1_555 1_555
H5 C10 1_555 1_555
C11 C10 1_555 1_555
H6 C11 1_555 1_555
C12 N1 1_555 1_555
C13 N1 1_555 1_555
C14 C13 1_555 1_555
H7 C14 1_555 1_555
C15 C14 1_555 1_555
H8 C15 1_555 1_555
C16 C15 1_555 1_555
C17 C16 1_555 1_555
H9 C17 1_555 1_555
C18 C13 1_555 1_555
H10 C18 1_555 1_555
C5 C6 1_555 1_555
C7 C12 1_555 1_555
C11 C12 1_555 1_555
C17 C18 1_555 1_555

#END
