
#######################################################################
#
#                 Cambridge Crystallographic Data Centre
#                                CCDC 
#
#######################################################################
#
# If this CIF has been generated from an entry in the Cambridge 
# Structural Database, then it will include bibliographic, chemical, 
# crystal, experimental, refinement or atomic coordinate data resulting 
# from the CCDC's data processing and validation procedures.
#
#######################################################################

data_QAPROR
_chemical_formula_moiety         'C29 H24 N2 O3 S1'
_chemical_name_systematic        
'ethyl 10b-cyano-3-oxo-1-phenyl-2-((phenylsulfanyl)methyl)-1,2,3,10b-tetrahydropyrrolo[2,1-a]isoquinoline-2-carboxylate'
_symmetry_cell_setting           orthorhombic
_symmetry_space_group_name_H-M   'P 21 21 21'
_symmetry_Int_Tables_number      19
_space_group_name_Hall           'P 2ac 2ab'
loop_
_symmetry_equiv_pos_site_id
_symmetry_equiv_pos_as_xyz
1 x,y,z
2 1/2-x,-y,1/2+z
3 1/2+x,1/2-y,-z
4 -x,1/2+y,1/2-z
_cell_length_a                   8.755(2)
_cell_length_b                   16.754(4)
_cell_length_c                   16.818(4)
_cell_angle_alpha                90
_cell_angle_beta                 90
_cell_angle_gamma                90
_cell_volume                     2466.89
_exptl_crystal_description       BLOCK
_cell_formula_units_Z            4
loop_
_atom_site_label
_atom_site_type_symbol
_atom_site_fract_x
_atom_site_fract_y
_atom_site_fract_z
S1 S -0.83939(13) -0.16916(6) -0.15195(6)
O1 O -0.7918(3) -0.05509(17) -0.31103(16)
O2 O -0.3597(3) -0.09894(17) -0.22288(19)
O3 O -0.4433(4) 0.01017(19) -0.28510(19)
N1 N -0.7831(3) 0.04772(18) -0.22137(18)
N2 N -0.5051(5) 0.1868(2) -0.1921(2)
C1 C -0.80851(15) 0.11444(7) -0.09333(9)
C2 C -0.78447(14) 0.11495(6) -0.01164(9)
C3 C -0.87834(17) 0.16029(7) 0.03738(11)
C4 C -0.99625(18) 0.20513(8) 0.00470(13)
C5 C -1.02030(17) 0.20462(8) -0.07700(14)
C6 C -0.92643(17) 0.15928(8) -0.12601(11)
C7 C -0.48806(12) -0.00604(7) -0.06912(8)
C8 C -0.49590(12) -0.04719(7) 0.00448(8)
C9 C -0.37000(14) -0.05313(9) 0.05369(10)
C10 C -0.24157(13) -0.01523(10) 0.03535(12)
C11 C -0.22380(12) 0.02597(10) -0.04007(13)
C12 C -0.34993(13) 0.03203(9) -0.08965(10)
C13 C -0.82517(16) -0.18736(6) -0.04913(11)
C14 C -0.75460(19) -0.25423(6) -0.01992(12)
C15 C -0.7441(2) -0.26520(7) 0.06153(13)
C16 C -0.8178(2) -0.21858(9) 0.11603(12)
C17 C -0.88820(17) -0.15198(8) 0.08684(10)
C18 C -0.89361(14) -0.13607(7) 0.00350(10)
C19 C -0.9591(5) 0.1521(3) -0.2113(3)
C20 C -0.8954(5) 0.0964(3) -0.2554(2)
C21 C -0.6989(4) 0.07372(19) -0.1508(2)
C22 C -0.5850(5) 0.1344(2) -0.1746(2)
C23 C -0.6281(4) -0.0072(2) -0.1216(2)
C24 C -0.6143(4) -0.0589(2) -0.1980(2)
C25 C -0.7386(4) -0.0244(2) -0.2517(2)
C26 C -0.4640(5) -0.0453(3) -0.2411(3)
C27 C -0.2010(5) -0.0857(3) -0.2554(3)
H1 H -0.1901 -0.0313 -0.2742
H2 H -0.1254 -0.0951 -0.2143
C28 C -0.1804(8) -0.1412(3) -0.3202(4)
H3 H -0.2493 -0.1280 -0.3626
H4 H -0.2010 -0.1945 -0.3019
H5 H -0.0771 -0.1382 -0.3391
C29 C -0.6462(4) -0.1483(2) -0.1825(2)
H6 H -0.5769 -0.1672 -0.1417
H7 H -0.6246 -0.1780 -0.2308
H8 H -0.7111 -0.0281 -0.0903
H9 H -0.3397 0.0514 -0.1422
H10 H -0.1501 -0.0133 0.0626
H11 H -0.8755 0.1608 0.0928
H12 H -0.1235 0.0434 -0.0451
H13 H -0.9313 -0.0917 -0.0059
H14 H -0.9114 0.0873 -0.3075
H15 H -0.6979 0.0913 0.0105
H16 H -1.0450 0.1795 -0.2332
H17 H -1.0907 0.2384 -0.1045
H18 H -0.5919 -0.0705 0.0102
H19 H -0.3873 -0.0764 0.1044
H20 H -0.6905 -0.2849 -0.0494
H21 H -0.6954 -0.3115 0.0785
H22 H -0.9373 -0.1138 0.1187
H23 H -1.0569 0.2344 0.0415
H24 H -0.8191 -0.2328 0.1700
loop_
_geom_bond_atom_site_label_1
_geom_bond_atom_site_label_2
_geom_bond_site_symmetry_1
_geom_bond_site_symmetry_2
S1 C13 1_555 1_555
O1 C25 1_555 1_555
O2 C26 1_555 1_555
O3 C26 1_555 1_555
N1 C20 1_555 1_555
N2 C22 1_555 1_555
C1 C2 1_555 1_555
C2 C3 1_555 1_555
C3 C4 1_555 1_555
C4 C5 1_555 1_555
C5 C6 1_555 1_555
C6 C1 1_555 1_555
C7 C8 1_555 1_555
C8 C9 1_555 1_555
C9 C10 1_555 1_555
C10 C11 1_555 1_555
C11 C12 1_555 1_555
C12 C7 1_555 1_555
C13 C14 1_555 1_555
C14 C15 1_555 1_555
C15 C16 1_555 1_555
C16 C17 1_555 1_555
C17 C18 1_555 1_555
C18 C13 1_555 1_555
C19 C6 1_555 1_555
C20 C19 1_555 1_555
C21 N1 1_555 1_555
C22 C21 1_555 1_555
C23 C7 1_555 1_555
C24 C23 1_555 1_555
C25 N1 1_555 1_555
C26 C24 1_555 1_555
C27 O2 1_555 1_555
H1 C27 1_555 1_555
H2 C27 1_555 1_555
C28 C27 1_555 1_555
H3 C28 1_555 1_555
H4 C28 1_555 1_555
H5 C28 1_555 1_555
C29 S1 1_555 1_555
H6 C29 1_555 1_555
H7 C29 1_555 1_555
H8 C23 1_555 1_555
H9 C12 1_555 1_555
H10 C10 1_555 1_555
H11 C3 1_555 1_555
H12 C11 1_555 1_555
H13 C18 1_555 1_555
H14 C20 1_555 1_555
H15 C2 1_555 1_555
H16 C19 1_555 1_555
H17 C5 1_555 1_555
H18 C8 1_555 1_555
H19 C9 1_555 1_555
H20 C14 1_555 1_555
H21 C15 1_555 1_555
H22 C17 1_555 1_555
H23 C4 1_555 1_555
H24 C16 1_555 1_555
C1 C21 1_555 1_555
C21 C23 1_555 1_555
C24 C25 1_555 1_555
C24 C29 1_555 1_555

#END
