
#######################################################################
#
#                 Cambridge Crystallographic Data Centre
#                                CCDC 
#
#######################################################################
#
# If this CIF has been generated from an entry in the Cambridge 
# Structural Database, then it will include bibliographic, chemical, 
# crystal, experimental, refinement or atomic coordinate data resulting 
# from the CCDC's data processing and validation procedures.
#
#######################################################################

data_QAPSAE
_chemical_formula_moiety         'C15 H11 Br1 S1'
_chemical_name_systematic        2-(4-bromophenyl)-2H-thiochromene
_symmetry_cell_setting           orthorhombic
_symmetry_space_group_name_H-M   'P 21 21 21'
_symmetry_Int_Tables_number      19
_space_group_name_Hall           'P 2ac 2ab'
loop_
_symmetry_equiv_pos_site_id
_symmetry_equiv_pos_as_xyz
1 x,y,z
2 1/2-x,-y,1/2+z
3 1/2+x,1/2-y,-z
4 -x,1/2+y,1/2-z
_cell_length_a                   10.9526(7)
_cell_length_b                   11.6626(10)
_cell_length_c                   29.560(2)
_cell_angle_alpha                90
_cell_angle_beta                 90
_cell_angle_gamma                90
_cell_volume                     3775.87
_exptl_crystal_colour            'light colorless'
_exptl_crystal_description       block
_cell_formula_units_Z            12
loop_
_atom_site_label
_atom_site_type_symbol
_atom_site_fract_x
_atom_site_fract_y
_atom_site_fract_z
Br1 Br 0.39509(8) 0.31356(9) 0.61993(4)
S1 S 0.7238(2) 0.7470(2) 0.73764(8)
C1 C 0.6770(7) 0.8622(7) 0.7038(3)
C2 C 0.7290(8) 0.8849(8) 0.6607(3)
C3 C 0.6017(9) 1.0554(8) 0.6551(3)
H1 H 0.5762 1.1190 0.6386
C4 C 0.5535(9) 1.0328(7) 0.6970(3)
H2 H 0.4980 1.0838 0.7098
C5 C 0.5868(8) 0.9354(7) 0.7204(3)
H3 H 0.5485 0.9182 0.7476
C6 C 0.5225(8) 0.5243(8) 0.6271(3)
H4 H 0.4681 0.5487 0.6050
C7 C 0.5168(8) 0.4145(8) 0.6439(3)
C8 C 0.5930(8) 0.3774(8) 0.6774(3)
H5 H 0.5864 0.3035 0.6891
C9 C 0.8255(7) 0.8095(8) 0.6432(3)
H6 H 0.8713 0.8367 0.6190
C10 C 0.6106(8) 0.5976(8) 0.6438(3)
H7 H 0.6173 0.6712 0.6319
C11 C 0.6883(9) 0.5640(8) 0.6775(3)
C12 C 0.7850(8) 0.6452(7) 0.6954(3)
H8 H 0.8453 0.5977 0.7113
C13 C 0.6810(8) 0.4536(8) 0.6937(3)
H9 H 0.7356 0.4294 0.7159
C14 C 0.6895(8) 0.9810(7) 0.6376(3)
H10 H 0.7228 0.9967 0.6093
C15 C 0.8529(8) 0.7077(8) 0.6587(3)
H11 H 0.9198 0.6709 0.6459
Br2 Br 0.57698(9) -0.19728(8) 0.54019(3)
S2 S 0.2614(2) 0.2200(2) 0.41833(8)
C16 C 0.4551(8) -0.0922(8) 0.5207(3)
C17 C 0.4584(8) 0.0190(7) 0.5366(3)
H12 H 0.5171 0.0408 0.5576
C18 C 0.3730(8) 0.0984(8) 0.5209(3)
H13 H 0.3747 0.1733 0.5317
C19 C 0.2858(8) 0.0666(8) 0.4894(3)
C20 C 0.2840(8) -0.0470(8) 0.4746(3)
H14 H 0.2256 -0.0696 0.4536
C21 C 0.3469(8) 0.3344(8) 0.4412(3)
C22 C 0.4427(8) 0.3782(8) 0.4166(3)
H15 H 0.4663 0.3416 0.3900
C23 C 0.3101(8) 0.3874(8) 0.4819(3)
C24 C 0.3770(9) 0.4849(8) 0.4951(3)
H16 H 0.3559 0.5211 0.5220
C25 C 0.4722(9) 0.5296(8) 0.4701(4)
H17 H 0.5134 0.5948 0.4799
C26 C 0.1982(8) 0.1529(8) 0.4692(3)
H18 H 0.1251 0.1105 0.4599
C27 C 0.5051(9) 0.4758(8) 0.4304(4)
H19 H 0.5687 0.5046 0.4129
C28 C 0.1574(8) 0.2434(10) 0.5021(4)
H20 H 0.0898 0.2266 0.5199
C29 C 0.3673(8) -0.1271(8) 0.4904(3)
H21 H 0.3637 -0.2030 0.4808
C30 C 0.2089(8) 0.3445(9) 0.5080(3)
H22 H 0.1778 0.3914 0.5307
Br3 Br 0.42960(9) 0.32446(8) 0.28522(3)
S3 S 0.7760(2) 0.7462(2) 0.39941(8)
C31 C 0.5315(8) 0.5464(8) 0.2952(3)
H23 H 0.4603 0.5714 0.2812
C32 C 0.6884(7) 0.8630(8) 0.3808(3)
C33 C 0.8206(7) 0.6752(8) 0.3458(3)
H24 H 0.8955 0.6319 0.3518
C34 C 0.7256(8) 0.5902(8) 0.3314(3)
C35 C 0.8504(8) 0.7614(8) 0.3100(3)
H25 H 0.9101 0.7425 0.2889
C36 C 0.5517(8) 0.4307(7) 0.3034(3)
C37 C 0.6213(8) 0.6235(8) 0.3085(3)
H26 H 0.6107 0.7007 0.3018
C38 C 0.6547(8) 0.3931(8) 0.3262(3)
H27 H 0.6656 0.3157 0.3326
C39 C 0.5546(9) 1.0557(8) 0.3551(3)
H28 H 0.5079 1.1182 0.3460
C40 C 0.7411(8) 0.4732(8) 0.3392(3)
H29 H 0.8117 0.4482 0.3536
C41 C 0.6071(8) 0.9133(8) 0.4099(3)
H30 H 0.5958 0.8817 0.4385
C42 C 0.5414(8) 1.0104(8) 0.3978(3)
H31 H 0.4887 1.0446 0.4185
C43 C 0.6381(9) 1.0070(8) 0.3260(3)
H32 H 0.6490 1.0398 0.2976
C44 C 0.7062(9) 0.9115(8) 0.3371(3)
C45 C 0.7968(8) 0.8635(8) 0.3064(3)
H33 H 0.8195 0.9086 0.2818
loop_
_geom_bond_atom_site_label_1
_geom_bond_atom_site_label_2
_geom_bond_site_symmetry_1
_geom_bond_site_symmetry_2
Br1 C7 1_555 1_555
S1 C1 1_555 1_555
C1 C2 1_555 1_555
C2 C9 1_555 1_555
C3 H1 1_555 1_555
C4 C3 1_555 1_555
H2 C4 1_555 1_555
C5 C1 1_555 1_555
H3 C5 1_555 1_555
C6 H4 1_555 1_555
C7 C6 1_555 1_555
C8 C7 1_555 1_555
H5 C8 1_555 1_555
C9 H6 1_555 1_555
C10 C6 1_555 1_555
H7 C10 1_555 1_555
C11 C10 1_555 1_555
C12 S1 1_555 1_555
H8 C12 1_555 1_555
C13 C8 1_555 1_555
H9 C13 1_555 1_555
C14 C2 1_555 1_555
H10 C14 1_555 1_555
C15 C9 1_555 1_555
H11 C15 1_555 1_555
Br2 C16 1_555 1_555
S2 C21 1_555 1_555
C16 C17 1_555 1_555
C17 H12 1_555 1_555
C18 C17 1_555 1_555
H13 C18 1_555 1_555
C19 C18 1_555 1_555
C20 C19 1_555 1_555
H14 C20 1_555 1_555
C21 C22 1_555 1_555
C22 H15 1_555 1_555
C23 C21 1_555 1_555
C24 C23 1_555 1_555
H16 C24 1_555 1_555
C25 C24 1_555 1_555
H17 C25 1_555 1_555
C26 S2 1_555 1_555
H18 C26 1_555 1_555
C27 C22 1_555 1_555
H19 C27 1_555 1_555
C28 C26 1_555 1_555
H20 C28 1_555 1_555
C29 C16 1_555 1_555
H21 C29 1_555 1_555
C30 C23 1_555 1_555
H22 C30 1_555 1_555
Br3 C36 1_555 1_555
S3 C32 1_555 1_555
C31 H23 1_555 1_555
C32 C41 1_555 1_555
C33 S3 1_555 1_555
H24 C33 1_555 1_555
C34 C33 1_555 1_555
C35 C33 1_555 1_555
H25 C35 1_555 1_555
C36 C31 1_555 1_555
C37 C31 1_555 1_555
H26 C37 1_555 1_555
C38 C36 1_555 1_555
H27 C38 1_555 1_555
C39 H28 1_555 1_555
C40 C34 1_555 1_555
H29 C40 1_555 1_555
C41 H30 1_555 1_555
C42 C39 1_555 1_555
H31 C42 1_555 1_555
C43 C39 1_555 1_555
H32 C43 1_555 1_555
C44 C32 1_555 1_555
C45 C35 1_555 1_555
H33 C45 1_555 1_555
C3 C14 1_555 1_555
C4 C5 1_555 1_555
C11 C12 1_555 1_555
C11 C13 1_555 1_555
C12 C15 1_555 1_555
C19 C26 1_555 1_555
C20 C29 1_555 1_555
C25 C27 1_555 1_555
C28 C30 1_555 1_555
C34 C37 1_555 1_555
C38 C40 1_555 1_555
C41 C42 1_555 1_555
C43 C44 1_555 1_555
C44 C45 1_555 1_555

#END
