
#######################################################################
#
#                 Cambridge Crystallographic Data Centre
#                                CCDC 
#
#######################################################################
#
# If this CIF has been generated from an entry in the Cambridge 
# Structural Database, then it will include bibliographic, chemical, 
# crystal, experimental, refinement or atomic coordinate data resulting 
# from the CCDC's data processing and validation procedures.
#
#######################################################################

data_QAPSEI
_chemical_formula_moiety         'C15 H11 N1 O2 S1'
_chemical_name_systematic        2-(3-nitrophenyl)-2H-thiochromene
_symmetry_cell_setting           orthorhombic
_symmetry_space_group_name_H-M   'P 21 21 21'
_symmetry_Int_Tables_number      19
_space_group_name_Hall           'P 2ac 2ab'
loop_
_symmetry_equiv_pos_site_id
_symmetry_equiv_pos_as_xyz
1 x,y,z
2 1/2-x,-y,1/2+z
3 -x,1/2+y,1/2-z
4 1/2+x,1/2-y,-z
_cell_length_a                   6.9573(7)
_cell_length_b                   13.1585(13)
_cell_length_c                   13.8579(14)
_cell_angle_alpha                90
_cell_angle_beta                 90
_cell_angle_gamma                90
_cell_volume                     1268.66
_exptl_crystal_colour            'light yellow'
_exptl_crystal_description       block
_cell_formula_units_Z            4
loop_
_atom_site_label
_atom_site_type_symbol
_atom_site_fract_x
_atom_site_fract_y
_atom_site_fract_z
S1 S 0.30204(17) 0.25357(8) 0.22204(9)
N1 N 0.4948(9) 0.6116(4) 0.4735(3)
C1 C 0.3365(6) 0.4579(3) 0.2634(3)
C2 C 0.4503(7) 0.4986(3) 0.3349(3)
H1 H 0.5799 0.4774 0.3424
C3 C 0.3718(7) 0.5712(3) 0.3957(3)
O1 O 0.4282(7) 0.6795(3) 0.5239(3)
C4 C 0.6384(7) 0.2424(3) 0.3245(3)
O2 O 0.6564(9) 0.5756(4) 0.4829(3)
C5 C 0.0720(8) 0.5618(4) 0.3166(4)
H2 H -0.0583 0.5823 0.3099
C6 C 0.1466(7) 0.4898(3) 0.2547(3)
H3 H 0.0676 0.4617 0.2055
C7 C 0.4458(7) 0.2137(3) 0.3194(3)
C8 C 0.6244(8) 0.3657(4) 0.1928(4)
H4 H 0.6932 0.4032 0.1454
C9 C 0.4121(7) 0.3764(3) 0.1959(3)
H5 H 0.3702 0.3957 0.1293
C10 C 0.3665(9) 0.1464(3) 0.3850(3)
H6 H 0.2355 0.1271 0.3791
C11 C 0.1837(8) 0.6042(3) 0.3879(4)
H7 H 0.1335 0.6544 0.4302
C12 C 0.7222(7) 0.3076(3) 0.2517(4)
H8 H 0.8583 0.3082 0.2462
C13 C 0.7460(9) 0.2029(4) 0.4017(5)
H9 H 0.8775 0.2209 0.4087
C14 C 0.6593(13) 0.1363(4) 0.4692(4)
H10 H 0.7312 0.1117 0.5226
C15 C 0.4746(13) 0.1080(5) 0.4574(4)
H11 H 0.4195 0.0603 0.5008
loop_
_geom_bond_atom_site_label_1
_geom_bond_atom_site_label_2
_geom_bond_site_symmetry_1
_geom_bond_site_symmetry_2
S1 C7 1_555 1_555
N1 C3 1_555 1_555
C1 C2 1_555 1_555
C2 H1 1_555 1_555
C3 C2 1_555 1_555
O1 N1 1_555 1_555
C4 C7 1_555 1_555
O2 N1 1_555 1_555
C5 H2 1_555 1_555
C6 C1 1_555 1_555
H3 C6 1_555 1_555
C7 C10 1_555 1_555
C8 H4 1_555 1_555
C9 S1 1_555 1_555
H5 C9 1_555 1_555
C10 H6 1_555 1_555
C11 C3 1_555 1_555
H7 C11 1_555 1_555
C12 C4 1_555 1_555
H8 C12 1_555 1_555
C13 C4 1_555 1_555
H9 C13 1_555 1_555
C14 C13 1_555 1_555
H10 C14 1_555 1_555
C15 C10 1_555 1_555
H11 C15 1_555 1_555
C1 C9 1_555 1_555
C5 C6 1_555 1_555
C5 C11 1_555 1_555
C8 C9 1_555 1_555
C8 C12 1_555 1_555
C14 C15 1_555 1_555

#END
