
#######################################################################
#
#                 Cambridge Crystallographic Data Centre
#                                CCDC 
#
#######################################################################
#
# If this CIF has been generated from an entry in the Cambridge 
# Structural Database, then it will include bibliographic, chemical, 
# crystal, experimental, refinement or atomic coordinate data resulting 
# from the CCDC's data processing and validation procedures.
#
#######################################################################

data_QAPTEG
_chemical_formula_moiety         'C12 H14 N1 1+,C4 H5 O6 1-'
_chemical_name_systematic        
'(S)-(+)-\a-(2-naphthyl)ethylammonium (R,R)-hydrogen tartrate'
_symmetry_cell_setting           orthorhombic
_symmetry_space_group_name_H-M   'P 21 21 21'
_symmetry_Int_Tables_number      19
_space_group_name_Hall           'P 2ac 2ab'
loop_
_symmetry_equiv_pos_site_id
_symmetry_equiv_pos_as_xyz
1 x,y,z
2 1/2-x,-y,1/2+z
3 1/2+x,1/2-y,-z
4 -x,1/2+y,1/2-z
_cell_length_a                   7.712(4)
_cell_length_b                   7.854(4)
_cell_length_c                   25.66(2)
_cell_angle_alpha                90
_cell_angle_beta                 90
_cell_angle_gamma                90
_cell_volume                     1554.23
_cell_formula_units_Z            4
_exptl_crystal_recrystallization_method methanol
loop_
_atom_site_label
_atom_site_type_symbol
_atom_site_fract_x
_atom_site_fract_y
_atom_site_fract_z
C1 C 0.8365(2) 0.7239(2) 0.0740(1)
C2 C 0.7913(2) 0.7000(2) 0.0229(1)
C3 C 0.8577(2) 0.5616(2) -0.0066(1)
C4 C 0.8130(3) 0.5353(3) -0.0595(1)
C5 C 0.8703(3) 0.3953(3) -0.0860(1)
C6 C 0.9776(3) 0.2770(3) -0.0616(1)
C7 C 1.0306(3) 0.3014(2) -0.0110(1)
C8 C 0.9713(2) 0.4439(2) 0.0179(1)
C9 C 1.0188(3) 0.4731(2) 0.0706(1)
C10 C 0.9552(3) 0.6099(2) 0.0976(1)
C11 C 0.7648(3) 0.8772(2) 0.1028(1)
C12 C 0.8930(4) 1.0224(3) 0.1070(1)
N1 N 0.7063(2) 0.8310(2) 0.1568(1)
H1 H 0.7153(2) 0.7762(2) 0.0072(1)
H2 H 0.7436(3) 0.6146(3) -0.0765(1)
H3 H 0.8374(3) 0.3789(3) -0.1205(1)
H4 H 1.0137(3) 0.1807(3) -0.0797(1)
H5 H 1.1060(3) 0.2239(2) 0.0045(1)
H6 H 1.0944(3) 0.3982(2) 0.0870(1)
H7 H 0.9903(3) 0.6281(2) 0.1318(1)
H8 H 0.6635(3) 0.9185(2) 0.0835(1)
H9 H 0.8369(7) 1.1195(8) 0.1221(7)
H10 H 0.9348(19) 1.0513(16) 0.0728(1)
H11 H 0.9887(12) 0.9883(9) 0.1285(6)
H14 H 0.6341(15) 0.7428(12) 0.1553(1)
H15 H 0.6521(17) 0.9195(7) 0.1712(2)
H16 H 0.7980(3) 0.8035(18) 0.1761(2)
C13 C 0.0681(2) 0.8579(2) 0.2557(1)
C14 C 0.2550(2) 0.9196(2) 0.2576(1)
C15 C 0.3553(2) 0.8399(2) 0.3035(1)
C16 C 0.5355(2) 0.9225(2) 0.3077(1)
O1 O 0.0069(2) 0.7903(2) 0.2175(1)
O2 O -0.0161(2) 0.8882(2) 0.2987(1)
O3 O 0.3404(2) 0.8911(2) 0.2099(1)
O4 O 0.3697(2) 0.6609(2) 0.2959(1)
O5 O 0.6597(2) 0.8294(2) 0.2939(1)
O6 O 0.5429(2) 1.0721(2) 0.3238(1)
H12 H 0.2521(2) 1.0429(2) 0.2633(1)
H13 H 0.2912(2) 0.8612(2) 0.3358(1)
H17 H -0.1158(2) 0.8530(2) 0.2959(1)
H18 H 0.4406(2) 0.9254(2) 0.2119(1)
H19 H 0.4724(2) 0.6340(2) 0.2952(1)
loop_
_geom_bond_atom_site_label_1
_geom_bond_atom_site_label_2
_geom_bond_site_symmetry_1
_geom_bond_site_symmetry_2
C1 C2 1_555 1_555
C2 C3 1_555 1_555
C3 C4 1_555 1_555
C4 C5 1_555 1_555
C5 C6 1_555 1_555
C6 C7 1_555 1_555
C7 C8 1_555 1_555
C8 C3 1_555 1_555
C9 C8 1_555 1_555
C10 C1 1_555 1_555
C11 C1 1_555 1_555
C12 C11 1_555 1_555
C13 C14 1_555 1_555
C14 C15 1_555 1_555
C15 C16 1_555 1_555
C16 O5 1_555 1_555
N1 C11 1_555 1_555
O1 C13 1_555 1_555
O2 C13 1_555 1_555
O3 C14 1_555 1_555
O4 C15 1_555 1_555
O6 C16 1_555 1_555
H1 C2 1_555 1_555
H2 C4 1_555 1_555
H3 C5 1_555 1_555
H4 C6 1_555 1_555
H5 C7 1_555 1_555
H6 C9 1_555 1_555
H7 C10 1_555 1_555
H8 C11 1_555 1_555
H9 C12 1_555 1_555
H10 C12 1_555 1_555
H11 C12 1_555 1_555
H12 C14 1_555 1_555
H13 C15 1_555 1_555
H14 N1 1_555 1_555
H15 N1 1_555 1_555
H16 N1 1_555 1_555
H17 O2 1_555 1_555
H18 O3 1_555 1_555
H19 O4 1_555 1_555
C9 C10 1_555 1_555

#END
