
#######################################################################
#
#                 Cambridge Crystallographic Data Centre
#                                CCDC 
#
#######################################################################
#
# If this CIF has been generated from an entry in the Cambridge 
# Structural Database, then it will include bibliographic, chemical, 
# crystal, experimental, refinement or atomic coordinate data resulting 
# from the CCDC's data processing and validation procedures.
#
#######################################################################

data_QAPVUA
_chemical_name_common            
'1-[2-methyl-5-(4-methyl phenyl)-3-thienyl]-2-(2-cyano-1,5-dimethyl-4-pyrryl)-3,3,4,4,5,5-hexafluorocyclopent-1-ene'
_chemical_formula_moiety         'C24 H18 F6 N2 S1'
_chemical_name_systematic        
4-(3,3,4,4,5,5-Hexafluoro-2-(2-methyl-5-(4-methylphenyl)-3-thienyl)cyclopent-1-en-1-yl)-1,5-dimethyl-1H-pyrrole-2-carbonitrile
_symmetry_cell_setting           triclinic
_symmetry_space_group_name_H-M   'P -1'
_symmetry_Int_Tables_number      2
_space_group_name_Hall           '-P 1'
loop_
_symmetry_equiv_pos_site_id
_symmetry_equiv_pos_as_xyz
1 x,y,z
2 -x,-y,-z
_cell_length_a                   8.058(3)
_cell_length_b                   8.805(3)
_cell_length_c                   15.818(6)
_cell_angle_alpha                90.194(7)
_cell_angle_beta                 98.116(7)
_cell_angle_gamma                96.102(7)
_cell_volume                     1104.57
_cell_formula_units_Z            2
loop_
_atom_site_label
_atom_site_type_symbol
_atom_site_fract_x
_atom_site_fract_y
_atom_site_fract_z
S1 S 0.17083(16) 0.46981(14) 0.59597(8)
F1 F 0.0860(4) 1.0826(3) 0.8321(3)
F2 F 0.2206(5) 1.0016(4) 0.9455(2)
F3 F 0.3862(5) 1.2029(3) 0.8153(3)
F4 F 0.5039(5) 1.0414(5) 0.8943(3)
F5 F 0.3476(5) 1.0216(4) 0.6821(2)
F6 F 0.5499(4) 0.9240(4) 0.7572(3)
N1 N -0.4978(6) 0.6649(6) 0.9532(4)
N2 N -0.1297(5) 0.5356(4) 0.8934(2)
C1 C -0.3700(7) 0.6610(6) 0.9308(3)
C2 C -0.2094(6) 0.6640(5) 0.9024(3)
C3 C -0.1101(6) 0.7881(5) 0.8790(3)
H1 H -0.1339 0.8891 0.8794
C4 C 0.0338(5) 0.7350(5) 0.8543(3)
C5 C 0.0199(5) 0.5769(5) 0.8645(3)
C6 C 0.1373(6) 0.4629(5) 0.8528(3)
H2 H 0.0880 0.3633 0.8660
H3 H 0.2414 0.4882 0.8902
H4 H 0.1588 0.4633 0.7946
C7 C -0.1919(6) 0.3791(5) 0.9150(3)
H5 H -0.1128 0.3103 0.9034
H6 H -0.2990 0.3494 0.8811
H7 H -0.2043 0.3757 0.9744
C8 C -0.0465(6) 0.6725(6) 0.6406(3)
H8 H -0.0496 0.7582 0.6777
H9 H -0.1270 0.5903 0.6531
H10 H -0.0738 0.7017 0.5823
C9 C 0.1243(6) 0.6219(5) 0.6537(3)
C10 C 0.2656(5) 0.6809(5) 0.7070(3)
C11 C 0.4094(6) 0.6041(5) 0.6998(3)
H11 H 0.5145 0.6321 0.7315
C12 C 0.3795(6) 0.4864(5) 0.6427(3)
C13 C 0.4973(6) 0.3818(5) 0.6187(3)
C14 C 0.6348(6) 0.3525(6) 0.6763(3)
H12 H 0.6522 0.3982 0.7303
C15 C 0.7474(7) 0.2556(6) 0.6544(4)
H13 H 0.8402 0.2376 0.6937
C16 C 0.7222(7) 0.1851(6) 0.5743(4)
C17 C 0.5883(8) 0.2125(6) 0.5192(4)
H14 H 0.5708 0.1652 0.4656
C18 C 0.4758(7) 0.3080(6) 0.5392(3)
H15 H 0.3835 0.3240 0.4991
C19 C 0.8504(9) 0.0814(8) 0.5524(6)
H16 H 0.8175 0.0416 0.4952
H17 H 0.8550 -0.0015 0.5916
H18 H 0.9595 0.1388 0.5567
C20 C 0.1706(5) 0.8351(4) 0.8245(3)
C21 C 0.2089(7) 0.9948(5) 0.8610(3)
C22 C 0.3725(8) 1.0582(6) 0.8299(4)
C23 C 0.3878(6) 0.9530(5) 0.7565(3)
C24 C 0.2696(5) 0.8134(5) 0.7649(3)
loop_
_geom_bond_atom_site_label_1
_geom_bond_atom_site_label_2
_geom_bond_site_symmetry_1
_geom_bond_site_symmetry_2
S1 C9 1_555 1_555
F1 C21 1_555 1_555
F2 C21 1_555 1_555
F3 C22 1_555 1_555
F4 C22 1_555 1_555
F5 C23 1_555 1_555
F6 C23 1_555 1_555
N1 C1 1_555 1_555
N2 C2 1_555 1_555
C1 C2 1_555 1_555
C2 C3 1_555 1_555
C3 H1 1_555 1_555
C4 C3 1_555 1_555
C5 N2 1_555 1_555
C6 C5 1_555 1_555
H2 C6 1_555 1_555
H3 C6 1_555 1_555
H4 C6 1_555 1_555
C7 N2 1_555 1_555
H5 C7 1_555 1_555
H6 C7 1_555 1_555
H7 C7 1_555 1_555
C8 H8 1_555 1_555
H9 C8 1_555 1_555
H10 C8 1_555 1_555
C9 C8 1_555 1_555
C10 C9 1_555 1_555
C11 C10 1_555 1_555
H11 C11 1_555 1_555
C12 S1 1_555 1_555
C13 C12 1_555 1_555
C14 C13 1_555 1_555
H12 C14 1_555 1_555
C15 C14 1_555 1_555
H13 C15 1_555 1_555
C16 C15 1_555 1_555
C17 C16 1_555 1_555
H14 C17 1_555 1_555
C18 C13 1_555 1_555
H15 C18 1_555 1_555
C19 C16 1_555 1_555
H16 C19 1_555 1_555
H17 C19 1_555 1_555
H18 C19 1_555 1_555
C20 C4 1_555 1_555
C21 C20 1_555 1_555
C22 C21 1_555 1_555
C23 C22 1_555 1_555
C24 C10 1_555 1_555
C4 C5 1_555 1_555
C11 C12 1_555 1_555
C17 C18 1_555 1_555
C20 C24 1_555 1_555
C23 C24 1_555 1_555

#END
