
#######################################################################
#
#                 Cambridge Crystallographic Data Centre
#                                CCDC 
#
#######################################################################
#
# If this CIF has been generated from an entry in the Cambridge 
# Structural Database, then it will include bibliographic, chemical, 
# crystal, experimental, refinement or atomic coordinate data resulting 
# from the CCDC's data processing and validation procedures.
#
#######################################################################

data_QAPWEL
_chemical_formula_moiety         'C23 H22 N2 O2'
_chemical_name_systematic        
'Ethyl 2,7,8-trimethyl-4-phenylpyrido[1,2-a]benzimidazole-3-carboxylate'
_symmetry_cell_setting           orthorhombic
_symmetry_space_group_name_H-M   'P b c a'
_symmetry_Int_Tables_number      61
_space_group_name_Hall           '-P 2ac 2ab'
loop_
_symmetry_equiv_pos_site_id
_symmetry_equiv_pos_as_xyz
1 x,y,z
2 1/2-x,-y,1/2+z
3 -x,1/2+y,1/2-z
4 1/2+x,1/2-y,-z
5 -x,-y,-z
6 1/2+x,y,1/2-z
7 x,1/2-y,1/2+z
8 1/2-x,1/2+y,z
_cell_length_a                   16.4809(12)
_cell_length_b                   12.4963(9)
_cell_length_c                   19.1780(14)
_cell_angle_alpha                90
_cell_angle_beta                 90
_cell_angle_gamma                90
_cell_volume                     3949.71
_exptl_crystal_colour            colorless
_exptl_crystal_description       block
_cell_formula_units_Z            8
loop_
_atom_site_label
_atom_site_type_symbol
_atom_site_fract_x
_atom_site_fract_y
_atom_site_fract_z
C1 C 0.07838(16) 0.05638(18) 0.27503(14)
H1 H 0.0480 0.0859 0.2369
H2 H 0.0417 0.0272 0.3089
H3 H 0.1134 0.0008 0.2581
N1 N 0.22095(10) 0.20100(12) 0.39364(9)
C2 C 0.17659(12) 0.12070(15) 0.36315(11)
H4 H 0.1797 0.0513 0.3804
C3 C 0.12847(12) 0.14273(15) 0.30811(11)
C4 C 0.22055(12) 0.30630(15) 0.37038(11)
C5 C 0.17120(12) 0.33121(15) 0.31174(11)
N2 N 0.27072(12) 0.36891(14) 0.40623(10)
C6 C 0.27765(13) 0.19621(16) 0.44726(11)
C7 C 0.30700(14) 0.30036(17) 0.45384(12)
C8 C 0.12677(12) 0.25071(15) 0.28223(11)
C9 C 0.17193(14) 0.44229(16) 0.28340(13)
C10 C 0.07233(15) 0.27700(17) 0.22173(13)
C11 C 0.36792(15) 0.3205(2) 0.50290(12)
H5 H 0.3877 0.3896 0.5088
O1 O 0.00722(12) 0.31682(17) 0.22723(12)
C12 C 0.30717(16) 0.1108(2) 0.48651(13)
H6 H 0.2866 0.0420 0.4810
C13 C 0.13478(15) 0.52532(18) 0.31922(17)
H7 H 0.1095 0.5121 0.3617
O2 O 0.10704(15) 0.24960(18) 0.16147(11)
C14 C 0.39845(16) 0.2381(2) 0.54231(13)
C15 C 0.20910(19) 0.4642(2) 0.22030(16)
H8 H 0.2342 0.4096 0.1954
C16 C 0.36825(16) 0.1321(2) 0.53400(13)
C17 C 0.13530(19) 0.6285(2) 0.2916(2)
H9 H 0.1103 0.6839 0.3158
C18 C 0.1724(2) 0.6487(3) 0.2292(3)
H10 H 0.1725 0.7177 0.2110
C19 C 0.4677(2) 0.2600(3) 0.59279(15)
H11 H 0.4824 0.1949 0.6162
H12 H 0.4508 0.3122 0.6266
H13 H 0.5137 0.2868 0.5675
C20 C 0.2090(2) 0.5681(3) 0.1941(2)
H14 H 0.2344 0.5824 0.1518
C21 C 0.4036(2) 0.0412(3) 0.5761(2)
H15 H 0.4451 0.0684 0.6064
H16 H 0.4267 -0.0110 0.5451
H17 H 0.3616 0.0085 0.6034
C22 C 0.0622(3) 0.2742(4) 0.09744(19)
H18 H 0.0699 0.2166 0.0642
H19 H 0.0047 0.2786 0.1080
C23 C 0.0880(4) 0.3727(6) 0.0666(3)
H20 H 0.0578 0.3853 0.0245
H21 H 0.1448 0.3687 0.0558
H22 H 0.0788 0.4304 0.0987
loop_
_geom_bond_atom_site_label_1
_geom_bond_atom_site_label_2
_geom_bond_site_symmetry_1
_geom_bond_site_symmetry_2
C1 H1 1_555 1_555
H2 C1 1_555 1_555
H3 C1 1_555 1_555
N1 C2 1_555 1_555
C2 H4 1_555 1_555
C3 C1 1_555 1_555
C4 N1 1_555 1_555
C5 C4 1_555 1_555
N2 C4 1_555 1_555
C6 N1 1_555 1_555
C7 N2 1_555 1_555
C8 C3 1_555 1_555
C9 C5 1_555 1_555
C10 C8 1_555 1_555
C11 C7 1_555 1_555
H5 C11 1_555 1_555
O1 C10 1_555 1_555
C12 C6 1_555 1_555
H6 C12 1_555 1_555
C13 C9 1_555 1_555
H7 C13 1_555 1_555
O2 C10 1_555 1_555
C14 C11 1_555 1_555
C15 C9 1_555 1_555
H8 C15 1_555 1_555
C16 C12 1_555 1_555
C17 C13 1_555 1_555
H9 C17 1_555 1_555
C18 C17 1_555 1_555
H10 C18 1_555 1_555
C19 C14 1_555 1_555
H11 C19 1_555 1_555
H12 C19 1_555 1_555
H13 C19 1_555 1_555
C20 C15 1_555 1_555
H14 C20 1_555 1_555
C21 C16 1_555 1_555
H15 C21 1_555 1_555
H16 C21 1_555 1_555
H17 C21 1_555 1_555
C22 O2 1_555 1_555
H18 C22 1_555 1_555
H19 C22 1_555 1_555
C23 C22 1_555 1_555
H20 C23 1_555 1_555
H21 C23 1_555 1_555
H22 C23 1_555 1_555
C2 C3 1_555 1_555
C5 C8 1_555 1_555
C6 C7 1_555 1_555
C14 C16 1_555 1_555
C18 C20 1_555 1_555

#END
