
#######################################################################
#
#                 Cambridge Crystallographic Data Centre
#                                CCDC 
#
#######################################################################
#
# If this CIF has been generated from an entry in the Cambridge 
# Structural Database, then it will include bibliographic, chemical, 
# crystal, experimental, refinement or atomic coordinate data resulting 
# from the CCDC's data processing and validation procedures.
#
#######################################################################

data_QAPWAH
_chemical_formula_moiety         'C47 H40 N4 S2'
_chemical_name_systematic        
2,2'-(Cyclopent-1-ene-1,2-diylbis(5-methylthiene-4,2-diyl))bis(1-methyl-4,5-diphenyl-1H-imidazole)
_symmetry_cell_setting           monoclinic
_symmetry_space_group_name_H-M   'C 2/c'
_symmetry_Int_Tables_number      15
_space_group_name_Hall           '-C 2yn'
loop_
_symmetry_equiv_pos_site_id
_symmetry_equiv_pos_as_xyz
1 x,y,z
2 -x,y,1/2-z
3 1/2+x,1/2+y,z
4 1/2-x,1/2+y,1/2-z
5 -x,-y,-z
6 x,-y,1/2+z
7 1/2-x,1/2-y,-z
8 1/2+x,1/2-y,1/2+z
_cell_length_a                   9.6777(13)
_cell_length_b                   16.041(2)
_cell_length_c                   24.854(3)
_cell_angle_alpha                90
_cell_angle_beta                 99.304(3)
_cell_angle_gamma                90
_cell_volume                     3807.58
_exptl_crystal_colour            colorless
_exptl_crystal_description       block
_cell_formula_units_Z            4
loop_
_atom_site_label
_atom_site_type_symbol
_atom_site_fract_x
_atom_site_fract_y
_atom_site_fract_z
C1 C 0.0000 0.4880(3) 0.2500
H1 H -0.0720 0.5234 0.2608
C2 C 0.0613(4) 0.43374(18) 0.29637(12)
H2 H 0.0163 0.4437 0.3279
H3 H 0.1609 0.4441 0.3064
C3 C 0.0348(3) 0.34539(15) 0.27580(10)
C4 C 0.0865(3) 0.27471(16) 0.31106(10)
C5 C 0.1583(3) 0.20722(17) 0.29690(10)
C6 C 0.1242(3) 0.20227(17) 0.39436(10)
C7 C 0.0688(3) 0.27157(17) 0.36720(10)
H4 H 0.0234 0.3132 0.3837
C8 C 0.2055(3) 0.1867(2) 0.24388(12)
H5 H 0.2012 0.2360 0.2217
H6 H 0.1455 0.1447 0.2252
H7 H 0.3000 0.1665 0.2508
C9 C 0.1272(3) 0.17025(18) 0.44936(10)
C10 C 0.0667(3) 0.13883(17) 0.52888(10)
C11 C 0.1737(3) 0.08851(17) 0.51868(10)
C12 C -0.0622(3) 0.25958(19) 0.47881(12)
H8 H -0.0139 0.3116 0.4775
H9 H -0.1115 0.2597 0.5094
H10 H -0.1277 0.2524 0.4458
C13 C -0.0107(3) 0.13987(16) 0.57560(10)
C14 C -0.1461(3) 0.11013(19) 0.57015(12)
H11 H -0.1929 0.0949 0.5359
C15 C -0.2130(3) 0.1028(2) 0.61523(15)
H12 H -0.3039 0.0822 0.6110
C16 C -0.1473(4) 0.1253(2) 0.66504(14)
H13 H -0.1927 0.1204 0.6951
C17 C -0.0115(4) 0.1560(3) 0.67123(13)
H14 H 0.0342 0.1719 0.7055
C18 C 0.0553(3) 0.1627(2) 0.62672(11)
H15 H 0.1464 0.1830 0.6312
C19 C 0.2438(3) 0.01950(16) 0.55146(10)
C20 C 0.1722(3) -0.03258(18) 0.58267(11)
H16 H 0.0785 -0.0225 0.5845
C21 C 0.2401(4) -0.09870(19) 0.61071(12)
H17 H 0.1914 -0.1334 0.6311
C22 C 0.3789(4) -0.1141(2) 0.60894(12)
H18 H 0.4242 -0.1584 0.6285
C23 C 0.4514(3) -0.06318(19) 0.57789(12)
H19 H 0.5451 -0.0736 0.5762
C24 C 0.3838(3) 0.00257(18) 0.54980(10)
H20 H 0.4328 0.0366 0.5292
N1 N 0.2122(2) 0.10874(14) 0.46922(8)
N2 N 0.0384(2) 0.19158(13) 0.48458(8)
S1 S 0.20136(8) 0.13966(5) 0.35100(3)
H1A H 0.0720 0.5234 0.2392
C2A C -0.0613(4) 0.43374(18) 0.20363(12)
H2A H -0.0163 0.4437 0.1721
H3A H -0.1609 0.4441 0.1936
C3A C -0.0348(3) 0.34539(15) 0.22420(10)
C4A C -0.0865(3) 0.27471(16) 0.18894(10)
C5A C -0.1583(3) 0.20722(17) 0.20310(10)
C6A C -0.1242(3) 0.20227(17) 0.10564(10)
C7A C -0.0688(3) 0.27157(17) 0.13280(10)
H4A H -0.0234 0.3132 0.1163
C8A C -0.2055(3) 0.1867(2) 0.25612(12)
H5A H -0.2012 0.2360 0.2783
H6A H -0.1455 0.1447 0.2748
H7A H -0.3000 0.1665 0.2492
C9A C -0.1272(3) 0.17025(18) 0.05064(10)
C10A C -0.0667(3) 0.13883(17) -0.02888(10)
C11A C -0.1737(3) 0.08851(17) -0.01868(10)
C12A C 0.0622(3) 0.25958(19) 0.02119(12)
H8A H 0.0139 0.3116 0.0225
H9A H 0.1115 0.2597 -0.0094
H10A H 0.1277 0.2524 0.0542
C13A C 0.0107(3) 0.13987(16) -0.07560(10)
C14A C 0.1461(3) 0.11013(19) -0.07015(12)
H11A H 0.1929 0.0949 -0.0359
C15A C 0.2130(3) 0.1028(2) -0.11523(15)
H12A H 0.3039 0.0822 -0.1110
C16A C 0.1473(4) 0.1253(2) -0.16504(14)
H13A H 0.1927 0.1204 -0.1951
C17A C 0.0115(4) 0.1560(3) -0.17123(13)
H14A H -0.0342 0.1719 -0.2055
C18A C -0.0553(3) 0.1627(2) -0.12672(11)
H15A H -0.1464 0.1830 -0.1312
C19A C -0.2438(3) 0.01950(16) -0.05146(10)
C20A C -0.1722(3) -0.03258(18) -0.08267(11)
H16A H -0.0785 -0.0225 -0.0845
C21A C -0.2401(4) -0.09870(19) -0.11071(12)
H17A H -0.1914 -0.1334 -0.1311
C22A C -0.3789(4) -0.1141(2) -0.10894(12)
H18A H -0.4242 -0.1584 -0.1285
C23A C -0.4514(3) -0.06318(19) -0.07789(12)
H19A H -0.5451 -0.0736 -0.0762
C24A C -0.3838(3) 0.00257(18) -0.04980(10)
H20A H -0.4328 0.0366 -0.0292
N1A N -0.2122(2) 0.10874(14) 0.03078(8)
N2A N -0.0384(2) 0.19158(13) 0.01542(8)
S1A S -0.20136(8) 0.13966(5) 0.14900(3)
loop_
_geom_bond_atom_site_label_1
_geom_bond_atom_site_label_2
_geom_bond_site_symmetry_1
_geom_bond_site_symmetry_2
C1 H1 1_555 1_555
C2 C1 1_555 1_555
H2 C2 1_555 1_555
H3 C2 1_555 1_555
C3 C2 1_555 1_555
C4 C3 1_555 1_555
C5 C4 1_555 1_555
C6 C7 1_555 1_555
C7 C4 1_555 1_555
H4 C7 1_555 1_555
C8 C5 1_555 1_555
H5 C8 1_555 1_555
H6 C8 1_555 1_555
H7 C8 1_555 1_555
C9 C6 1_555 1_555
C10 C11 1_555 1_555
C11 C19 1_555 1_555
C12 H8 1_555 1_555
H9 C12 1_555 1_555
H10 C12 1_555 1_555
C13 C10 1_555 1_555
C14 C13 1_555 1_555
H11 C14 1_555 1_555
C15 C14 1_555 1_555
H12 C15 1_555 1_555
C16 C15 1_555 1_555
H13 C16 1_555 1_555
C17 C16 1_555 1_555
H14 C17 1_555 1_555
C18 C13 1_555 1_555
H15 C18 1_555 1_555
C19 C20 1_555 1_555
C20 H16 1_555 1_555
C21 C20 1_555 1_555
H17 C21 1_555 1_555
C22 C21 1_555 1_555
H18 C22 1_555 1_555
C23 C22 1_555 1_555
H19 C23 1_555 1_555
C24 C19 1_555 1_555
H20 C24 1_555 1_555
N1 C9 1_555 1_555
N2 C9 1_555 1_555
S1 C5 1_555 1_555
H1A C1 1_555 1_555
C2A C1 1_555 1_555
H2A C2A 1_555 1_555
H3A C2A 1_555 1_555
C3A C3 1_555 1_555
C4A C3A 1_555 1_555
C5A C4A 1_555 1_555
C6A C7A 1_555 1_555
C7A C4A 1_555 1_555
H4A C7A 1_555 1_555
C8A C5A 1_555 1_555
H5A C8A 1_555 1_555
H6A C8A 1_555 1_555
H7A C8A 1_555 1_555
C9A C6A 1_555 1_555
C10A C11A 1_555 1_555
C11A C19A 1_555 1_555
C12A H8A 1_555 1_555
H9A C12A 1_555 1_555
H10A C12A 1_555 1_555
C13A C10A 1_555 1_555
C14A C13A 1_555 1_555
H11A C14A 1_555 1_555
C15A C14A 1_555 1_555
H12A C15A 1_555 1_555
C16A C15A 1_555 1_555
H13A C16A 1_555 1_555
C17A C16A 1_555 1_555
H14A C17A 1_555 1_555
C18A C13A 1_555 1_555
H15A C18A 1_555 1_555
C19A C20A 1_555 1_555
C20A H16A 1_555 1_555
C21A C20A 1_555 1_555
H17A C21A 1_555 1_555
C22A C21A 1_555 1_555
H18A C22A 1_555 1_555
C23A C22A 1_555 1_555
H19A C23A 1_555 1_555
C24A C19A 1_555 1_555
H20A C24A 1_555 1_555
N1A C9A 1_555 1_555
N2A C9A 1_555 1_555
S1A C5A 1_555 1_555
C6 S1 1_555 1_555
C10 N2 1_555 1_555
C11 N1 1_555 1_555
C12 N2 1_555 1_555
C17 C18 1_555 1_555
C23 C24 1_555 1_555
C2A C3A 1_555 1_555
C6A S1A 1_555 1_555
C10A N2A 1_555 1_555
C11A N1A 1_555 1_555
C12A N2A 1_555 1_555
C17A C18A 1_555 1_555
C23A C24A 1_555 1_555

#END
