
#######################################################################
#
#                 Cambridge Crystallographic Data Centre
#                                CCDC 
#
#######################################################################
#
# If this CIF has been generated from an entry in the Cambridge 
# Structural Database, then it will include bibliographic, chemical, 
# crystal, experimental, refinement or atomic coordinate data resulting 
# from the CCDC's data processing and validation procedures.
#
#######################################################################

data_QAQBUG
_chemical_formula_moiety         'C4 H12 N2 2+,2(C4 H5 O5 1-)'
_chemical_name_systematic        
'Piperazine-1,4-diium bis((DL)-hydrogen malate)'
_symmetry_cell_setting           monoclinic
_symmetry_space_group_name_H-M   'P 21/n'
_symmetry_Int_Tables_number      14
_space_group_name_Hall           '-P 2yn'
loop_
_symmetry_equiv_pos_site_id
_symmetry_equiv_pos_as_xyz
1 x,y,z
2 1/2-x,1/2+y,1/2-z
3 -x,-y,-z
4 1/2+x,1/2-y,1/2+z
_cell_length_a                   7.073(1)
_cell_length_b                   14.180(2)
_cell_length_c                   7.526(1)
_cell_angle_alpha                90
_cell_angle_beta                 94.66(1)
_cell_angle_gamma                90
_cell_volume                     752.326
_exptl_crystal_colour            colorless
_exptl_crystal_description       prism
_chemical_melting_point          '175.3 deg.C'
_cell_formula_units_Z            2
loop_
_atom_site_label
_atom_site_type_symbol
_atom_site_fract_x
_atom_site_fract_y
_atom_site_fract_z
O1 O 0.18826(16) 0.33922(7) 0.58118(13)
O2 O 0.11042(15) 0.19516(7) 0.66775(13)
O3 O 0.11127(16) 0.28950(7) 1.25279(13)
H1 H 0.1220 0.3044 1.3584
O4 O -0.01941(16) 0.43202(8) 1.22323(14)
O5 O 0.34740(15) 0.37768(7) 0.91529(13)
H2 H 0.4405 0.3573 0.9753
C1 C 0.16749(19) 0.27717(10) 0.69856(17)
C2 C 0.20750(19) 0.30607(9) 0.89350(17)
H5 H 0.2509 0.2507 0.9634
C3 C 0.0216(2) 0.34143(11) 0.96018(18)
H6 H -0.0157 0.3992 0.8977
H7 H -0.0768 0.2949 0.9315
C4 C 0.03497(19) 0.35990(10) 1.15749(18)
N1 N 0.37058(17) 0.51722(9) 0.63345(16)
H3 H 0.3165 0.5568 0.7080
H4 H 0.3215 0.4594 0.6471
C5 C 0.5787(2) 0.51439(11) 0.68001(19)
H8 H 0.6305 0.5776 0.6741
H9 H 0.6041 0.4915 0.8010
C6 C 0.3265(2) 0.54920(11) 0.44639(19)
H10 H 0.3706 0.6134 0.4336
H11 H 0.1903 0.5483 0.4176
N1B N 0.62942(17) 0.48278(9) 0.36655(16)
H3B H 0.6835 0.4432 0.2920
H4B H 0.6785 0.5406 0.3529
C5B C 0.4213(2) 0.48561(11) 0.31999(19)
H8B H 0.3695 0.4224 0.3259
H9B H 0.3959 0.5085 0.1990
C6B C 0.6735(2) 0.45080(11) 0.55361(19)
H10B H 0.6294 0.3866 0.5664
H11B H 0.8097 0.4517 0.5824
loop_
_geom_bond_atom_site_label_1
_geom_bond_atom_site_label_2
_geom_bond_site_symmetry_1
_geom_bond_site_symmetry_2
O1 C1 1_555 1_555
O2 C1 1_555 1_555
O3 H1 1_555 1_555
O4 C4 1_555 1_555
O5 H2 1_555 1_555
N1 H3 1_555 1_555
H4 N1 1_555 1_555
C1 C2 1_555 1_555
C2 O5 1_555 1_555
H5 C2 1_555 1_555
C3 C2 1_555 1_555
H6 C3 1_555 1_555
H7 C3 1_555 1_555
C4 O3 1_555 1_555
C5 N1 1_555 1_555
H8 C5 1_555 1_555
H9 C5 1_555 1_555
C6 N1 1_555 1_555
H10 C6 1_555 1_555
H11 C6 1_555 1_555
N1B H3B 1_555 1_555
H4B N1B 1_555 1_555
C5B C6 1_555 1_555
H8B C5B 1_555 1_555
H9B C5B 1_555 1_555
C6B C5 1_555 1_555
H10B C6B 1_555 1_555
H11B C6B 1_555 1_555
C3 C4 1_555 1_555
N1B C5B 1_555 1_555
N1B C6B 1_555 1_555

#END
