
#######################################################################
#
#                 Cambridge Crystallographic Data Centre
#                                CCDC 
#
#######################################################################
#
# If this CIF has been generated from an entry in the Cambridge 
# Structural Database, then it will include bibliographic, chemical, 
# crystal, experimental, refinement or atomic coordinate data resulting 
# from the CCDC's data processing and validation procedures.
#
#######################################################################

data_QAQDEU
_chemical_formula_moiety         'C25 H17 F1 O1'
_chemical_name_systematic        
2-{2-[2-(4-fluorophenyl)ethenyl]naphthalen-1-yl}benzaldehyde
_symmetry_cell_setting           triclinic
_symmetry_space_group_name_H-M   'P 1'
_symmetry_Int_Tables_number      1
_space_group_name_Hall           'P 1'
loop_
_symmetry_equiv_pos_site_id
_symmetry_equiv_pos_as_xyz
1 x,y,z
_cell_length_a                   8.3667(5)
_cell_length_b                   8.9957(4)
_cell_length_c                   14.2768(6)
_cell_angle_alpha                92.244(4)
_cell_angle_beta                 98.140(4)
_cell_angle_gamma                117.614(6)
_cell_volume                     935.792
_exptl_crystal_colour            'light yellow'
_exptl_crystal_description       block
_cell_formula_units_Z            2
loop_
_atom_site_label
_atom_site_type_symbol
_atom_site_fract_x
_atom_site_fract_y
_atom_site_fract_z
F1 F 0.7154(5) 0.9257(3) 0.3027(3)
O1 O 0.6838(4) 0.0978(5) 0.5937(2)
C1 C 0.0366(6) -0.4067(5) 0.4811(3)
H1 H 0.035945 -0.346630 0.535385
C2 C -0.0356(7) -0.5788(6) 0.4757(4)
H2 H -0.086680 -0.635044 0.525821
C3 C -0.0325(9) -0.6703(6) 0.3945(5)
H3 H -0.080420 -0.786900 0.391652
C4 C 0.0389(8) -0.5913(6) 0.3206(4)
H4 H 0.040335 -0.653941 0.267613
C5 C 0.1119(6) -0.4136(5) 0.3227(3)
C6 C 0.1120(5) -0.3197(4) 0.4051(3)
C7 C 0.1925(4) -0.1395(4) 0.4096(2)
C8 C 0.2623(5) -0.0573(4) 0.3327(2)
C9 C 0.2576(6) -0.1542(5) 0.2512(3)
H5 H 0.303715 -0.100330 0.199422
C10 C 0.1871(7) -0.3250(5) 0.2468(3)
H6 H 0.188343 -0.384843 0.192539
C11 C 0.2100(4) -0.0393(4) 0.5003(2)
C12 C 0.3744(4) 0.0401(4) 0.5649(2)
C13 C 0.3890(6) 0.1357(5) 0.6482(3)
H7 H 0.499360 0.187596 0.691202
C14 C 0.2445(7) 0.1536(6) 0.6672(3)
H8 H 0.255697 0.217439 0.722946
C15 C 0.0827(7) 0.0781(6) 0.6045(4)
H9 H -0.016387 0.090749 0.617451
C16 C 0.0648(5) -0.0174(5) 0.5216(3)
H10 H -0.046558 -0.067883 0.479345
C17 C 0.5344(5) 0.0250(5) 0.5464(3)
H11 H 0.517794 -0.047422 0.493367
C18 C 0.3414(5) 0.1272(4) 0.3385(2)
H12 H 0.314756 0.178566 0.387458
C19 C 0.4448(6) 0.2286(5) 0.2835(3)
H13 H 0.474498 0.179303 0.234947
C20 C 0.5178(5) 0.4116(4) 0.2910(2)
C21 C 0.5781(9) 0.4977(6) 0.2143(4)
H14 H 0.574221 0.437450 0.158853
C22 C 0.6432(9) 0.6690(6) 0.2173(4)
H15 H 0.680817 0.724138 0.164460
C23 C 0.6513(6) 0.7550(5) 0.2985(3)
C24 C 0.5950(7) 0.6786(5) 0.3756(3)
H16 H 0.600833 0.741039 0.430651
C25 C 0.5287(6) 0.5069(5) 0.3715(3)
H17 H 0.490243 0.453795 0.424767
F2 F 0.3884(5) -0.1610(3) 1.0120(3)
O2 O 0.9821(5) 0.6537(5) 0.7026(3)
C26 C 0.9108(6) 1.1723(4) 0.8169(3)
H18 H 0.827772 1.113693 0.761131
C27 C 1.0126(7) 1.3433(5) 0.8240(4)
H19 H 0.997841 1.400084 0.773106
C28 C 1.1392(8) 1.4349(6) 0.9067(4)
H20 H 1.209061 1.551659 0.910371
C29 C 1.1601(7) 1.3532(5) 0.9817(4)
H21 H 1.243583 1.415158 1.036706
C30 C 1.0573(6) 1.1759(5) 0.9776(3)
C31 C 0.9293(5) 1.0822(4) 0.8932(2)
C32 C 0.8285(4) 0.9017(4) 0.8873(2)
C33 C 0.8520(5) 0.8183(4) 0.9629(2)
C34 C 0.9782(6) 0.9164(5) 1.0476(3)
H22 H 0.992907 0.861950 1.099604
C35 C 1.0767(6) 1.0863(5) 1.0536(3)
H23 H 1.159362 1.145835 1.109323
C36 C 0.7006(4) 0.8034(4) 0.7972(2)
C37 C 0.7498(4) 0.7181(4) 0.7326(2)
C38 C 0.6259(5) 0.6207(5) 0.6512(3)
H24 H 0.659944 0.563870 0.609031
C39 C 0.4538(6) 0.6072(5) 0.6323(3)
H25 H 0.371965 0.542823 0.577275
C40 C 0.4045(5) 0.6895(6) 0.6952(3)
H26 H 0.287485 0.679439 0.683389
C41 C 0.5256(5) 0.7871(5) 0.7761(3)
H27 H 0.489471 0.843330 0.817402
C42 C 0.9321(6) 0.7300(5) 0.7494(3)
H28 H 1.015898 0.803714 0.801378
C43 C 0.7468(5) 0.6334(4) 0.9567(2)
H29 H 0.635439 0.581619 0.914535
C44 C 0.7941(5) 0.5330(4) 1.0050(3)
H30 H 0.907682 0.584777 1.045354
C45 C 0.6874(5) 0.3495(4) 1.0019(2)
C46 C 0.5282(6) 0.2522(5) 0.9380(3)
H31 H 0.486700 0.302506 0.891783
C47 C 0.4291(7) 0.0806(6) 0.9416(4)
H32 H 0.321372 0.015626 0.898020
C48 C 0.4894(7) 0.0079(5) 1.0085(4)
C49 C 0.6438(8) 0.0947(6) 1.0706(4)
H33 H 0.684059 0.041651 1.115613
C50 C 0.7439(7) 0.2668(5) 1.0667(3)
H34 H 0.853350 0.328741 1.109598
loop_
_geom_bond_atom_site_label_1
_geom_bond_atom_site_label_2
_geom_bond_site_symmetry_1
_geom_bond_site_symmetry_2
F1 C23 1_555 1_555
O1 C17 1_555 1_555
C1 H1 1_555 1_555
C2 C1 1_555 1_555
H2 C2 1_555 1_555
C3 C2 1_555 1_555
H3 C3 1_555 1_555
C4 C3 1_555 1_555
H4 C4 1_555 1_555
C5 C4 1_555 1_555
C6 C1 1_555 1_555
C7 C6 1_555 1_555
C8 C7 1_555 1_555
C9 C8 1_555 1_555
H5 C9 1_555 1_555
C10 C5 1_555 1_555
H6 C10 1_555 1_555
C11 C7 1_555 1_555
C12 C11 1_555 1_555
C13 C12 1_555 1_555
H7 C13 1_555 1_555
C14 C13 1_555 1_555
H8 C14 1_555 1_555
C15 C14 1_555 1_555
H9 C15 1_555 1_555
C16 C11 1_555 1_555
H10 C16 1_555 1_555
C17 C12 1_555 1_555
H11 C17 1_555 1_555
C18 C8 1_555 1_555
H12 C18 1_555 1_555
C19 C18 1_555 1_555
H13 C19 1_555 1_555
C20 C19 1_555 1_555
C21 C20 1_555 1_555
H14 C21 1_555 1_555
C22 C21 1_555 1_555
H15 C22 1_555 1_555
C23 C22 1_555 1_555
C24 C23 1_555 1_555
H16 C24 1_555 1_555
C25 C20 1_555 1_555
H17 C25 1_555 1_555
F2 C48 1_555 1_555
O2 C42 1_555 1_555
C26 H18 1_555 1_555
C27 C26 1_555 1_555
H19 C27 1_555 1_555
C28 C27 1_555 1_555
H20 C28 1_555 1_555
C29 C28 1_555 1_555
H21 C29 1_555 1_555
C30 C29 1_555 1_555
C31 C26 1_555 1_555
C32 C31 1_555 1_555
C33 C32 1_555 1_555
C34 C33 1_555 1_555
H22 C34 1_555 1_555
C35 C30 1_555 1_555
H23 C35 1_555 1_555
C36 C32 1_555 1_555
C37 C36 1_555 1_555
C38 C37 1_555 1_555
H24 C38 1_555 1_555
C39 C38 1_555 1_555
H25 C39 1_555 1_555
C40 C39 1_555 1_555
H26 C40 1_555 1_555
C41 C36 1_555 1_555
H27 C41 1_555 1_555
C42 C37 1_555 1_555
H28 C42 1_555 1_555
C43 C33 1_555 1_555
H29 C43 1_555 1_555
C44 C43 1_555 1_555
H30 C44 1_555 1_555
C45 C44 1_555 1_555
C46 C45 1_555 1_555
H31 C46 1_555 1_555
C47 C46 1_555 1_555
H32 C47 1_555 1_555
C48 C47 1_555 1_555
C49 C48 1_555 1_555
H33 C49 1_555 1_555
C50 C45 1_555 1_555
H34 C50 1_555 1_555
C5 C6 1_555 1_555
C9 C10 1_555 1_555
C15 C16 1_555 1_555
C24 C25 1_555 1_555
C30 C31 1_555 1_555
C34 C35 1_555 1_555
C40 C41 1_555 1_555
C49 C50 1_555 1_555

#END
