
#######################################################################
#
#                 Cambridge Crystallographic Data Centre
#                                CCDC 
#
#######################################################################
#
# If this CIF has been generated from an entry in the Cambridge 
# Structural Database, then it will include bibliographic, chemical, 
# crystal, experimental, refinement or atomic coordinate data resulting 
# from the CCDC's data processing and validation procedures.
#
#######################################################################

data_QAQFET
_chemical_formula_moiety         'C20 H30 O3'
_chemical_name_systematic        Brassicolide
_chemical_properties_biological  'cytotoxic activity'
_symmetry_cell_setting           orthorhombic
_symmetry_space_group_name_H-M   'P 21 21 21'
_symmetry_Int_Tables_number      19
_space_group_name_Hall           'P 2ac 2ab'
loop_
_symmetry_equiv_pos_site_id
_symmetry_equiv_pos_as_xyz
1 x,y,z
2 1/2-x,-y,1/2+z
3 1/2+x,1/2-y,-z
4 -x,1/2+y,1/2-z
_cell_length_a                   8.95(6)
_cell_length_b                   24.3(2)
_cell_length_c                   8.79(1)
_cell_angle_alpha                90
_cell_angle_beta                 90
_cell_angle_gamma                90
_cell_volume                     1911.69
_exptl_crystal_colour            colorless
_exptl_crystal_description       prism
_chemical_melting_point          115-116deg.C
_cell_formula_units_Z            4
loop_
_atom_site_label
_atom_site_type_symbol
_atom_site_fract_x
_atom_site_fract_y
_atom_site_fract_z
O1 O 0.7896(8) 0.3674(3) 0.5101(6)
O2 O 0.8212(9) 0.4021(3) 0.7445(7)
O3 O 0.9032(7) 0.4048(2) 0.0538(6)
C1 C 0.908(1) 0.3424(3) 0.2717(10)
C2 C 0.812(1) 0.3869(4) 0.3541(9)
C3 C 0.872(1) 0.4446(4) 0.3755(9)
C4 C 0.888(1) 0.4568(4) 0.524(1)
C5 C 0.952(1) 0.5084(4) 0.599(1)
C6 C 1.123(1) 0.5080(4) 0.604(1)
C7 C 1.189(1) 0.4593(3) 0.697(1)
C8 C 1.321(1) 0.4378(4) 0.675(1)
C9 C 1.378(1) 0.3913(4) 0.781(1)
C10 C 1.418(1) 0.3368(4) 0.702(1)
C11 C 1.293(1) 0.3158(3) 0.604(1)
C12 C 1.289(1) 0.3050(3) 0.457(1)
C13 C 1.141(1) 0.2939(3) 0.380(1)
C14 C 1.0725(10) 0.3491(4) 0.326(1)
C15 C 0.884(1) 0.3474(4) 0.0955(10)
C16 C 0.726(1) 0.3281(3) 0.053(1)
C17 C 0.993(1) 0.3105(3) 0.010(1)
C18 C 0.833(1) 0.4080(4) 0.609(1)
C19 C 1.428(1) 0.4547(4) 0.554(1)
C20 C 1.421(1) 0.3089(4) 0.353(1)
H1 H 0.8730 0.3071 0.3030
H2 H 0.7178 0.3892 0.3054
H3 H 0.8960 0.4690 0.2947
H4 H 0.9204 0.5398 0.5437
H5 H 0.9154 0.5107 0.7005
H6 H 1.1595 0.5057 0.5030
H7 H 1.1561 0.5414 0.6492
H8 H 1.1285 0.4438 0.7749
H9 H 1.4651 0.4041 0.8326
H10 H 1.3022 0.3837 0.8542
H11 H 1.5033 0.3427 0.6386
H12 H 1.4411 0.3099 0.7760
H13 H 1.2019 0.3092 0.6567
H14 H 1.1555 0.2705 0.2943
H15 H 1.0742 0.2766 0.4492
H16 H 1.1305 0.3630 0.2442
H17 H 1.0749 0.3745 0.4082
H18 H 0.6545 0.3495 0.1070
H19 H 0.7112 0.3323 -0.0528
H20 H 0.7149 0.2904 0.0803
H21 H 0.9777 0.2733 0.0404
H22 H 0.9754 0.3137 -0.0962
H23 H 1.0923 0.3211 0.0324
H24 H 1.5167 0.4335 0.5621
H25 H 1.3837 0.4491 0.4575
H26 H 1.4518 0.4926 0.5664
H27 H 1.4970 0.2845 0.3879
H28 H 1.3923 0.2991 0.2532
H29 H 1.4583 0.3455 0.3540
loop_
_geom_bond_atom_site_label_1
_geom_bond_atom_site_label_2
_geom_bond_site_symmetry_1
_geom_bond_site_symmetry_2
O1 C2 1_555 1_555
O2 C18 1_555 1_555
O3 C15 1_555 1_555
C1 C2 1_555 1_555
C2 C3 1_555 1_555
C3 C4 1_555 1_555
C4 C5 1_555 1_555
C5 C6 1_555 1_555
C6 C7 1_555 1_555
C7 C8 1_555 1_555
C8 C9 1_555 1_555
C9 C10 1_555 1_555
C10 C11 1_555 1_555
C11 C12 1_555 1_555
C12 C13 1_555 1_555
C13 C14 1_555 1_555
C14 C1 1_555 1_555
C15 C1 1_555 1_555
C16 C15 1_555 1_555
C17 C15 1_555 1_555
C18 O1 1_555 1_555
C19 C8 1_555 1_555
C20 C12 1_555 1_555
H1 C1 1_555 1_555
H2 C2 1_555 1_555
H3 C3 1_555 1_555
H4 C5 1_555 1_555
H5 C5 1_555 1_555
H6 C6 1_555 1_555
H7 C6 1_555 1_555
H8 C7 1_555 1_555
H9 C9 1_555 1_555
H10 C9 1_555 1_555
H11 C10 1_555 1_555
H12 C10 1_555 1_555
H13 C11 1_555 1_555
H14 C13 1_555 1_555
H15 C13 1_555 1_555
H16 C14 1_555 1_555
H17 C14 1_555 1_555
H18 C16 1_555 1_555
H19 C16 1_555 1_555
H20 C16 1_555 1_555
H21 C17 1_555 1_555
H22 C17 1_555 1_555
H23 C17 1_555 1_555
H24 C19 1_555 1_555
H25 C19 1_555 1_555
H26 C19 1_555 1_555
H27 C20 1_555 1_555
H28 C20 1_555 1_555
H29 C20 1_555 1_555
C4 C18 1_555 1_555

#END
