
#######################################################################
#
#                 Cambridge Crystallographic Data Centre
#                                CCDC 
#
#######################################################################
#
# If this CIF has been generated from an entry in the Cambridge 
# Structural Database, then it will include bibliographic, chemical, 
# crystal, experimental, refinement or atomic coordinate data resulting 
# from the CCDC's data processing and validation procedures.
#
#######################################################################

data_QAQHOH
_chemical_compound_source        
'solid cultures of an endolichenic fungus, Preussia africana'
_chemical_name_common            'Preussochromone D'
_chemical_formula_moiety         'C15 H16 O7'
_chemical_name_systematic        
'Methyl 1,2,8-trihydroxy-3-methyl-9-oxo-1,2,3,3a,9,9a-hexahydrocyclopenta[b]chromene-1-carboxylate'
_symmetry_cell_setting           monoclinic
_symmetry_space_group_name_H-M   'P 21'
_symmetry_Int_Tables_number      4
_space_group_name_Hall           'P 2yb'
loop_
_symmetry_equiv_pos_site_id
_symmetry_equiv_pos_as_xyz
1 x,y,z
2 -x,1/2+y,-z
_cell_length_a                   9.2581(19)
_cell_length_b                   5.2295(10)
_cell_length_c                   14.650(3)
_cell_angle_alpha                90
_cell_angle_beta                 99.81(3)
_cell_angle_gamma                90
_cell_volume                     698.912
_exptl_crystal_colour            colorless
_exptl_crystal_description       needle
_cell_formula_units_Z            2
loop_
_atom_site_label
_atom_site_type_symbol
_atom_site_fract_x
_atom_site_fract_y
_atom_site_fract_z
O1 O 1.0754(3) -0.0196(7) 0.6747(2)
H1 H 1.0650 0.0910 0.7146
O2 O 0.9562(3) 0.2722(6) 0.78348(16)
O3 O 0.5495(3) 0.0585(6) 0.64384(16)
O4 O 0.6552(3) -0.1160(5) 0.83390(16)
H2 H 0.6262 -0.2023 0.8756
O5 O 0.7407(3) 0.0312(6) 1.01469(16)
O6 O 0.8225(3) 0.3997(6) 0.96391(16)
O7 O 0.5089(3) 0.4758(6) 0.90928(18)
H3 H 0.4249 0.4973 0.9224
C1 C 0.9374(4) -0.0810(8) 0.6339(3)
C2 C 0.9185(5) -0.2602(9) 0.5629(3)
H4 H 1.0009 -0.3405 0.5444
C3 C 0.7778(5) -0.3200(10) 0.5196(3)
H5 H 0.7650 -0.4393 0.4700
C4 C 0.6556(4) -0.2116(9) 0.5463(2)
H6 H 0.5603 -0.2580 0.5158
C5 C 0.6727(4) -0.0339(8) 0.6181(2)
C6 C 0.8157(4) 0.0328(8) 0.6641(2)
C7 C 0.8340(4) 0.2064(7) 0.7427(2)
C8 C 0.6980(3) 0.2966(7) 0.7760(2)
H7 H 0.7137 0.4787 0.7961
C9 C 0.5580(3) 0.2855(7) 0.7016(2)
H8 H 0.5501 0.4428 0.6622
C10 C 0.6546(3) 0.1453(7) 0.8571(2)
C11 C 0.7457(3) 0.1875(8) 0.9533(2)
C12 C 0.8936(4) 0.4535(10) 1.0588(2)
H9 H 0.9486 0.6140 1.0602
H10 H 0.9609 0.3138 1.0813
H11 H 0.8191 0.4688 1.0986
C13 C 0.4970(4) 0.2425(7) 0.8588(2)
H12 H 0.4413 0.1137 0.8893
C14 C 0.4280(3) 0.2705(8) 0.7547(2)
H13 H 0.3718 0.1108 0.7351
C15 C 0.3224(4) 0.4978(9) 0.7352(3)
H14 H 0.2834 0.5057 0.6687
H15 H 0.3749 0.6567 0.7546
H16 H 0.2414 0.4762 0.7697
loop_
_geom_bond_atom_site_label_1
_geom_bond_atom_site_label_2
_geom_bond_site_symmetry_1
_geom_bond_site_symmetry_2
O1 H1 1_555 1_555
O2 C7 1_555 1_555
O3 C5 1_555 1_555
O4 H2 1_555 1_555
O5 C11 1_555 1_555
O6 C11 1_555 1_555
O7 H3 1_555 1_555
C1 O1 1_555 1_555
C2 C1 1_555 1_555
H4 C2 1_555 1_555
C3 C2 1_555 1_555
H5 C3 1_555 1_555
C4 C3 1_555 1_555
H6 C4 1_555 1_555
C5 C4 1_555 1_555
C6 C1 1_555 1_555
C7 C6 1_555 1_555
C8 C7 1_555 1_555
H7 C8 1_555 1_555
C9 O3 1_555 1_555
H8 C9 1_555 1_555
C10 O4 1_555 1_555
C11 C10 1_555 1_555
C12 O6 1_555 1_555
H9 C12 1_555 1_555
H10 C12 1_555 1_555
H11 C12 1_555 1_555
C13 O7 1_555 1_555
H12 C13 1_555 1_555
C14 C9 1_555 1_555
H13 C14 1_555 1_555
C15 C14 1_555 1_555
H14 C15 1_555 1_555
H15 C15 1_555 1_555
H16 C15 1_555 1_555
C5 C6 1_555 1_555
C8 C9 1_555 1_555
C8 C10 1_555 1_555
C10 C13 1_555 1_555
C13 C14 1_555 1_555

#END
