
#######################################################################
#
#                 Cambridge Crystallographic Data Centre
#                                CCDC 
#
#######################################################################
#
# If this CIF has been generated from an entry in the Cambridge 
# Structural Database, then it will include bibliographic, chemical, 
# crystal, experimental, refinement or atomic coordinate data resulting 
# from the CCDC's data processing and validation procedures.
#
#######################################################################

data_QAQJOJ
_chemical_name_common            wentilactone
_chemical_formula_moiety         'C16 H18 O5'
_chemical_name_systematic        
2-Hydroxy-3a,10b-dimethyl-1,2,3,3a,5a,7,10b,10c-octahydro-4H,9H-[2]benzofuro[7,1-fg]isochromene-4,9-dione
_symmetry_cell_setting           triclinic
_symmetry_space_group_name_H-M   'P 1'
_symmetry_Int_Tables_number      1
_space_group_name_Hall           'P 1'
loop_
_symmetry_equiv_pos_site_id
_symmetry_equiv_pos_as_xyz
1 x,y,z
_cell_length_a                   7.7085(15)
_cell_length_b                   9.851(2)
_cell_length_c                   10.445(2)
_cell_angle_alpha                80.90(3)
_cell_angle_beta                 69.55(3)
_cell_angle_gamma                67.39(3)
_cell_volume                     685.791
_exptl_crystal_colour            colorless
_exptl_crystal_description       prism
_chemical_melting_point          271-272deg.C
_cell_formula_units_Z            2
loop_
_atom_site_label
_atom_site_type_symbol
_atom_site_fract_x
_atom_site_fract_y
_atom_site_fract_z
C1 C 1.2815(10) 0.9560(8) 0.2225(7)
H1 H 1.3979 0.8696 0.2221
H2 H 1.3021 1.0394 0.2447
C2 C 1.2615(11) 0.9819(9) 0.0778(7)
H3 H 1.2016 1.0886 0.0650
C3 C 1.1235(12) 0.9158(7) 0.0604(6)
H4 H 1.1716 0.8105 0.0783
H5 H 1.1196 0.9328 -0.0327
C4 C 0.9162(10) 0.9860(6) 0.1594(6)
C5 C 0.9156(8) 1.0336(5) 0.2916(6)
H6 H 0.9107 1.1355 0.2802
C6 C 0.7200(9) 1.0276(6) 0.3940(6)
H7 H 0.6133 1.1200 0.3859
C7 C 0.7158(9) 1.0043(7) 0.5368(6)
H8 H 0.6020 0.9972 0.6035
C8 C 0.8718(9) 0.9926(6) 0.5755(6)
C9 C 1.0614(9) 0.9854(6) 0.4747(6)
C10 C 1.1001(8) 0.9345(6) 0.3350(6)
C11 C 1.1847(10) 1.0187(8) 0.5153(7)
H9 H 1.3129 1.0026 0.4565
C12 C 1.1261(10) 1.0808(8) 0.6511(8)
C13 C 0.8688(11) 0.9793(8) 0.7197(7)
H10 H 0.7330 1.0052 0.7798
H11 H 0.9408 0.8781 0.7407
C14 C 0.7873(14) 1.1158(9) 0.0906(8)
H12 H 0.8519 1.1862 0.0546
H13 H 0.6608 1.1618 0.1567
H14 H 0.7688 1.0805 0.0175
C15 C 0.8010(10) 0.8805(7) 0.2112(7)
C16 C 1.1304(12) 0.7689(7) 0.3542(8)
H15 H 1.2473 0.7165 0.3803
H16 H 1.1451 0.7317 0.2700
H17 H 1.0175 0.7558 0.4244
O1 O 0.8015(9) 0.7892(6) 0.1531(6)
O2 O 0.6913(7) 0.9079(6) 0.3462(5)
O3 O 1.4463(9) 0.9369(7) -0.0244(6)
H18 H 1.4969 0.8470 -0.0218
O4 O 1.2173(10) 1.1445(8) 0.6781(7)
O5 O 0.9576(8) 1.0747(6) 0.7444(5)
C17 C 0.7647(10) 0.5159(9) 0.7403(6)
H19 H 0.8870 0.4313 0.7222
H20 H 0.7991 0.6034 0.7240
C18 C 0.6414(11) 0.5090(8) 0.8915(7)
H21 H 0.6990 0.4098 0.9274
C19 C 0.4260(11) 0.5382(8) 0.9172(7)
H22 H 0.3607 0.6418 0.8991
H23 H 0.3661 0.5174 1.0130
C20 C 0.3891(8) 0.4478(6) 0.8306(6)
C21 C 0.5513(8) 0.4070(6) 0.6924(5)
H24 H 0.6491 0.3098 0.7017
C22 C 0.4409(8) 0.3954(7) 0.6015(6)
H25 H 0.4318 0.2973 0.6154
C23 C 0.5353(10) 0.4193(7) 0.4530(7)
H26 H 0.4741 0.4168 0.3913
C24 C 0.7011(9) 0.4434(6) 0.4076(5)
C25 C 0.7969(9) 0.4663(6) 0.4990(6)
C26 C 0.6578(8) 0.5185(6) 0.6390(5)
C27 C 0.9860(10) 0.4463(8) 0.4504(7)
H27 H 1.0415 0.4754 0.5025
C28 C 1.1145(12) 0.3803(9) 0.3180(6)
C29 C 0.8140(12) 0.4554(8) 0.2591(7)
H28 H 0.7617 0.4205 0.2042
H29 H 0.7961 0.5578 0.2338
C30 C 0.3544(13) 0.3101(8) 0.9062(7)
H30 H 0.4640 0.2524 0.9386
H31 H 0.3426 0.2531 0.8452
H32 H 0.2346 0.3382 0.9824
C31 C 0.2089(8) 0.5337(7) 0.7826(7)
C32 C 0.5207(11) 0.6778(7) 0.6195(7)
H33 H 0.4540 0.6790 0.5568
H34 H 0.5986 0.7395 0.5837
H35 H 0.4246 0.7136 0.7060
O6 O 0.0506(8) 0.6183(8) 0.8498(7)
O7 O 0.2403(7) 0.5047(6) 0.6540(5)
O8 O 0.6523(9) 0.6106(8) 0.9699(6)
H36 H 0.5828 0.6944 0.9544
O9 O 1.2907(9) 0.3307(9) 0.2828(7)
O10 O 1.0201(8) 0.3719(6) 0.2309(5)
loop_
_geom_bond_atom_site_label_1
_geom_bond_atom_site_label_2
_geom_bond_site_symmetry_1
_geom_bond_site_symmetry_2
C1 H1 1_555 1_555
H2 C1 1_555 1_555
C2 C1 1_555 1_555
H3 C2 1_555 1_555
C3 C2 1_555 1_555
H4 C3 1_555 1_555
H5 C3 1_555 1_555
C4 C3 1_555 1_555
C5 C4 1_555 1_555
H6 C5 1_555 1_555
C6 C5 1_555 1_555
H7 C6 1_555 1_555
C7 C6 1_555 1_555
H8 C7 1_555 1_555
C8 C7 1_555 1_555
C9 C8 1_555 1_555
C10 C1 1_555 1_555
C11 C9 1_555 1_555
H9 C11 1_555 1_555
C12 C11 1_555 1_555
C13 C8 1_555 1_555
H10 C13 1_555 1_555
H11 C13 1_555 1_555
C14 C4 1_555 1_555
H12 C14 1_555 1_555
H13 C14 1_555 1_555
H14 C14 1_555 1_555
C15 C4 1_555 1_555
C16 C10 1_555 1_555
H15 C16 1_555 1_555
H16 C16 1_555 1_555
H17 C16 1_555 1_555
O1 C15 1_555 1_555
O2 C6 1_555 1_555
O3 C2 1_555 1_555
H18 O3 1_555 1_555
O4 C12 1_555 1_555
O5 C12 1_555 1_555
C17 H19 1_555 1_555
H20 C17 1_555 1_555
C18 C17 1_555 1_555
H21 C18 1_555 1_555
C19 C18 1_555 1_555
H22 C19 1_555 1_555
H23 C19 1_555 1_555
C20 C19 1_555 1_555
C21 C20 1_555 1_555
H24 C21 1_555 1_555
C22 C21 1_555 1_555
H25 C22 1_555 1_555
C23 C22 1_555 1_555
H26 C23 1_555 1_555
C24 C23 1_555 1_555
C25 C24 1_555 1_555
C26 C17 1_555 1_555
C27 C25 1_555 1_555
H27 C27 1_555 1_555
C28 C27 1_555 1_555
C29 C24 1_555 1_555
H28 C29 1_555 1_555
H29 C29 1_555 1_555
C30 C20 1_555 1_555
H30 C30 1_555 1_555
H31 C30 1_555 1_555
H32 C30 1_555 1_555
C31 C20 1_555 1_555
C32 C26 1_555 1_555
H33 C32 1_555 1_555
H34 C32 1_555 1_555
H35 C32 1_555 1_555
O6 C31 1_555 1_555
O7 C22 1_555 1_555
O8 C18 1_555 1_555
H36 O8 1_555 1_555
O9 C28 1_555 1_555
O10 C28 1_555 1_555
C5 C10 1_555 1_555
C9 C10 1_555 1_555
C13 O5 1_555 1_555
C15 O2 1_555 1_555
C21 C26 1_555 1_555
C25 C26 1_555 1_555
C29 O10 1_555 1_555
C31 O7 1_555 1_555

#END
