
#######################################################################
#
#                 Cambridge Crystallographic Data Centre
#                                CCDC 
#
#######################################################################
#
# If this CIF has been generated from an entry in the Cambridge 
# Structural Database, then it will include bibliographic, chemical, 
# crystal, experimental, refinement or atomic coordinate data resulting 
# from the CCDC's data processing and validation procedures.
#
#######################################################################

data_QAQJUP
_chemical_name_common            Asperolide
_chemical_formula_moiety         'C16 H16 O5'
_chemical_name_systematic        
1-Hydroxy-3a,10b-dimethyl-1,3a,5a,7,10b,10c-hexahydro-4H,9H-[2]benzofuro[7,1-fg]isochromene-4,9-dione
_symmetry_cell_setting           monoclinic
_symmetry_space_group_name_H-M   'C 2'
_symmetry_Int_Tables_number      5
_space_group_name_Hall           'C 2y'
loop_
_symmetry_equiv_pos_site_id
_symmetry_equiv_pos_as_xyz
1 x,y,z
2 -x,y,-z
3 1/2+x,1/2+y,z
4 1/2-x,1/2+y,-z
_cell_length_a                   17.48(4)
_cell_length_b                   7.990(18)
_cell_length_c                   12.93(3)
_cell_angle_alpha                90
_cell_angle_beta                 132.34(3)
_cell_angle_gamma                90
_cell_volume                     1334.83
_exptl_crystal_colour            colorless
_exptl_crystal_description       prism
_chemical_melting_point          263-264deg.C
_cell_formula_units_Z            4
loop_
_atom_site_label
_atom_site_type_symbol
_atom_site_fract_x
_atom_site_fract_y
_atom_site_fract_z
O1 O 0.3565(4) 0.7966(6) -0.1664(5)
O2 O 0.4627(4) 0.0129(5) 0.1958(5)
O3 O 0.5365(4) -0.0467(5) 0.4153(5)
O4 O 0.2891(3) 0.5410(6) -0.2325(4)
O5 O 0.4303(3) 0.6551(5) 0.2879(4)
H1 H 0.4571 0.7463 0.3236
C1 C 0.5043(4) 0.5466(7) 0.3072(6)
H2 H 0.5461 0.6115 0.2965
C2 C 0.5742(5) 0.4685(8) 0.4503(6)
H3 H 0.5940 0.5340 0.5244
C3 C 0.6096(4) 0.3131(8) 0.4782(6)
H4 H 0.6465 0.2715 0.5680
C4 C 0.5926(4) 0.2005(7) 0.3705(6)
C5 C 0.5279(5) 0.2853(6) 0.2281(6)
H5 H 0.5740 0.3441 0.2220
C6 C 0.4771(5) 0.1370(7) 0.1257(6)
H6 H 0.5271 0.0917 0.1216
C7 C 0.3794(5) 0.1780(7) -0.0205(6)
H7 H 0.3420 0.0934 -0.0867
C8 C 0.3460(5) 0.3360(7) -0.0555(6)
C9 C 0.3921(4) 0.4706(7) 0.0491(6)
C10 C 0.4466(4) 0.4093(6) 0.1959(6)
C11 C 0.3837(5) 0.6283(7) 0.0063(6)
H8 H 0.4047 0.7161 0.0677
C12 C 0.3429(5) 0.6653(8) -0.1324(6)
C13 C 0.2582(5) 0.3949(8) -0.2013(7)
H9 H 0.2374 0.3061 -0.2670
H10 H 0.1995 0.4228 -0.2114
C14 C 0.7001(5) 0.1428(9) 0.4295(7)
H11 H 0.6916 0.0710 0.3629
H12 H 0.7350 0.0829 0.5153
H13 H 0.7404 0.2388 0.4469
C15 C 0.5299(5) 0.0467(8) 0.3360(6)
C16 C 0.3640(5) 0.3316(8) 0.1929(7)
H14 H 0.3167 0.4170 0.1719
H15 H 0.3973 0.2833 0.2824
H16 H 0.3267 0.2462 0.1223
loop_
_geom_bond_atom_site_label_1
_geom_bond_atom_site_label_2
_geom_bond_site_symmetry_1
_geom_bond_site_symmetry_2
O1 C12 1_555 1_555
O2 C6 1_555 1_555
O3 C15 1_555 1_555
O4 C12 1_555 1_555
O5 H1 1_555 1_555
C1 O5 1_555 1_555
H2 C1 1_555 1_555
C2 C1 1_555 1_555
H3 C2 1_555 1_555
C3 C2 1_555 1_555
H4 C3 1_555 1_555
C4 C3 1_555 1_555
C5 C4 1_555 1_555
H5 C5 1_555 1_555
C6 C5 1_555 1_555
H6 C6 1_555 1_555
C7 C6 1_555 1_555
H7 C7 1_555 1_555
C8 C7 1_555 1_555
C9 C8 1_555 1_555
C10 C1 1_555 1_555
C11 C9 1_555 1_555
H8 C11 1_555 1_555
C12 C11 1_555 1_555
C13 O4 1_555 1_555
H9 C13 1_555 1_555
H10 C13 1_555 1_555
C14 C4 1_555 1_555
H11 C14 1_555 1_555
H12 C14 1_555 1_555
H13 C14 1_555 1_555
C15 O2 1_555 1_555
C16 C10 1_555 1_555
H14 C16 1_555 1_555
H15 C16 1_555 1_555
H16 C16 1_555 1_555
C4 C15 1_555 1_555
C5 C10 1_555 1_555
C8 C13 1_555 1_555
C9 C10 1_555 1_555

#END
