
#######################################################################
#
#                 Cambridge Crystallographic Data Centre
#                                CCDC 
#
#######################################################################
#
# If this CIF has been generated from an entry in the Cambridge 
# Structural Database, then it will include bibliographic, chemical, 
# crystal, experimental, refinement or atomic coordinate data resulting 
# from the CCDC's data processing and validation procedures.
#
#######################################################################

data_QAQJAV
_chemical_compound_source        'stems of Kadsura polysperma'
_chemical_name_common            'Polysperlignan A'
_chemical_formula_moiety         'C33 H40 O10'
_chemical_name_systematic        
"1,2,3,13-Tetramethoxy-6,7-dimethyl-5,6,7,8-tetrahydrobenzo[3',4']cycloocta[1',2':4,5]benzo[1,2-d][1,3]dioxole-5,8-diyl bis(2-methylbut-2-enoate)"
_symmetry_cell_setting           orthorhombic
_symmetry_space_group_name_H-M   'P 21 21 21'
_symmetry_Int_Tables_number      19
_space_group_name_Hall           'P 2ac 2ab'
loop_
_symmetry_equiv_pos_site_id
_symmetry_equiv_pos_as_xyz
1 x,y,z
2 1/2+x,1/2-y,-z
3 -x,1/2+y,1/2-z
4 1/2-x,-y,1/2+z
_cell_length_a                   10.6604(3)
_cell_length_b                   14.6290(3)
_cell_length_c                   19.5474(4)
_cell_angle_alpha                90
_cell_angle_beta                 90
_cell_angle_gamma                90
_cell_volume                     3048.44
_exptl_crystal_colour            colorless
_exptl_crystal_description       prism
_cell_formula_units_Z            4
loop_
_atom_site_label
_atom_site_type_symbol
_atom_site_fract_x
_atom_site_fract_y
_atom_site_fract_z
O1 O 0.36132(17) 0.09077(12) 0.45246(10)
C1 C -0.2084(3) -0.0699(2) 0.29189(17)
H1 H -0.2882 -0.0712 0.2671
H2 H -0.1397 -0.0840 0.2603
H3 H -0.1954 -0.0091 0.3116
O2 O 0.3959(2) -0.23245(13) 0.34252(11)
O3 O 0.4790(2) 0.21741(13) 0.44187(12)
O4 O -0.04642(19) -0.05770(14) 0.40432(11)
O5 O 0.47396(19) -0.09441(13) 0.25980(10)
O6 O 0.33794(18) 0.06322(12) 0.25005(10)
O7 O -0.04566(19) 0.27109(13) 0.24666(10)
O8 O 0.00023(19) 0.37046(13) 0.33522(10)
C2 C 0.7339(3) 0.1721(2) 0.38561(19)
H4 H 0.6675 0.2184 0.3868
H5 H 0.7560 0.1588 0.3380
H6 H 0.8079 0.1950 0.4099
C3 C 0.6890(3) 0.0879(2) 0.41901(16)
H7 H 0.7496 0.0405 0.4225
C4 C 0.5776(3) 0.0679(2) 0.44498(15)
C5 C 0.4706(3) 0.13525(18) 0.44568(14)
C6 C 0.2495(3) 0.14664(17) 0.46473(13)
H8 H 0.2776 0.2033 0.4889
C7 C 0.1616(3) 0.09391(17) 0.51469(13)
H9 H 0.1276 0.1419 0.5460
C8 C 0.0433(3) 0.04935(18) 0.48164(14)
H10 H 0.0080 0.0938 0.4479
C9 C 0.0689(3) -0.04003(18) 0.44394(14)
H11 H 0.0782 -0.0897 0.4787
C10 C 0.1759(3) -0.04791(17) 0.39349(14)
C11 C 0.2361(3) -0.13267(17) 0.39218(14)
H12 H 0.2103 -0.1791 0.4231
C12 C 0.3332(3) -0.15050(18) 0.34650(14)
C13 C 0.3497(4) -0.3046(2) 0.3843(2)
H13 H 0.3621 -0.2890 0.4326
H14 H 0.3951 -0.3611 0.3737
H15 H 0.2600 -0.3134 0.3754
C14 C 0.1861(3) 0.17608(17) 0.40035(14)
C15 C 0.1584(3) 0.11472(17) 0.34712(14)
C16 C 0.2120(3) 0.02005(17) 0.34726(14)
O9 O -0.0456(3) -0.20452(17) 0.43540(16)
C17 C 0.2352(3) 0.02981(19) 0.56114(15)
H16 H 0.2712 -0.0199 0.5338
H17 H 0.1790 0.0042 0.5959
H18 H 0.3028 0.0639 0.5836
C18 C -0.0556(3) 0.03362(19) 0.53712(15)
H19 H -0.1275 0.0011 0.5174
H20 H -0.0834 0.0927 0.5553
H21 H -0.0193 -0.0030 0.5741
C19 C 0.3704(3) -0.08266(18) 0.30135(14)
C20 C 0.4526(3) -0.1504(2) 0.20176(16)
H22 H 0.4124 -0.2075 0.2161
H23 H 0.5328 -0.1642 0.1795
H24 H 0.3978 -0.1182 0.1695
C21 C 0.3076(3) 0.00053(18) 0.30014(14)
C22 C 0.4390(3) 0.1223(2) 0.26876(17)
H25 H 0.4136 0.1602 0.3077
H26 H 0.4605 0.1617 0.2299
H27 H 0.5122 0.0855 0.2815
C23 C 0.0812(3) 0.14161(18) 0.29193(14)
C24 C 0.0322(3) 0.22903(18) 0.29319(14)
C25 C -0.0861(3) 0.3529(2) 0.28105(16)
H28 H -0.0873 0.4050 0.2487
H29 H -0.1717 0.3446 0.2996
C26 C 0.0599(3) 0.28801(17) 0.34630(14)
C27 C 0.1363(3) 0.26509(17) 0.39997(14)
H30 H 0.1549 0.3075 0.4354
O10 O 0.0535(2) 0.07727(12) 0.24358(10)
C28 C 0.5508(3) -0.0251(2) 0.47630(18)
H31 H 0.6281 -0.0613 0.4771
H32 H 0.4873 -0.0568 0.4489
H33 H 0.5198 -0.0171 0.5231
C29 C -0.0918(3) -0.1429(2) 0.4030(2)
C30 C -0.2112(5) -0.1425(3) 0.3503(3)
C31 C 0.0418(6) 0.1061(3) 0.17620(18)
H34 H -0.0371 0.1396 0.1707
H35 H 0.0421 0.0529 0.1458
H36 H 0.1123 0.1463 0.1646
C32 C -0.3058(5) -0.2653(3) 0.4194(3)
H37 H -0.2287 -0.2626 0.4466
H38 H -0.3166 -0.3271 0.4010
H39 H -0.3778 -0.2498 0.4484
C33 C -0.2974(5) -0.1991(3) 0.3621(3)
H40 H -0.3652 -0.1994 0.3305
loop_
_geom_bond_atom_site_label_1
_geom_bond_atom_site_label_2
_geom_bond_site_symmetry_1
_geom_bond_site_symmetry_2
O1 C5 1_555 1_555
C1 H1 1_555 1_555
H2 C1 1_555 1_555
H3 C1 1_555 1_555
O2 C12 1_555 1_555
O3 C5 1_555 1_555
O4 C9 1_555 1_555
O5 C19 1_555 1_555
O6 C21 1_555 1_555
O7 C24 1_555 1_555
O8 C25 1_555 1_555
C2 H4 1_555 1_555
H5 C2 1_555 1_555
H6 C2 1_555 1_555
C3 C2 1_555 1_555
H7 C3 1_555 1_555
C4 C3 1_555 1_555
C5 C4 1_555 1_555
C6 O1 1_555 1_555
H8 C6 1_555 1_555
C7 C6 1_555 1_555
H9 C7 1_555 1_555
C8 C7 1_555 1_555
H10 C8 1_555 1_555
C9 C8 1_555 1_555
H11 C9 1_555 1_555
C10 C9 1_555 1_555
C11 C10 1_555 1_555
H12 C11 1_555 1_555
C12 C11 1_555 1_555
C13 O2 1_555 1_555
H13 C13 1_555 1_555
H14 C13 1_555 1_555
H15 C13 1_555 1_555
C14 C6 1_555 1_555
C15 C14 1_555 1_555
C16 C10 1_555 1_555
O9 C29 1_555 1_555
C17 C7 1_555 1_555
H16 C17 1_555 1_555
H17 C17 1_555 1_555
H18 C17 1_555 1_555
C18 C8 1_555 1_555
H19 C18 1_555 1_555
H20 C18 1_555 1_555
H21 C18 1_555 1_555
C19 C12 1_555 1_555
C20 O5 1_555 1_555
H22 C20 1_555 1_555
H23 C20 1_555 1_555
H24 C20 1_555 1_555
C21 C16 1_555 1_555
C22 O6 1_555 1_555
H25 C22 1_555 1_555
H26 C22 1_555 1_555
H27 C22 1_555 1_555
C23 C15 1_555 1_555
C24 C23 1_555 1_555
C25 O7 1_555 1_555
H28 C25 1_555 1_555
H29 C25 1_555 1_555
C26 O8 1_555 1_555
C27 C14 1_555 1_555
H30 C27 1_555 1_555
O10 C23 1_555 1_555
C28 C4 1_555 1_555
H31 C28 1_555 1_555
H32 C28 1_555 1_555
H33 C28 1_555 1_555
C29 O4 1_555 1_555
C30 C1 1_555 1_555
C31 O10 1_555 1_555
H34 C31 1_555 1_555
H35 C31 1_555 1_555
H36 C31 1_555 1_555
C32 H37 1_555 1_555
H38 C32 1_555 1_555
H39 C32 1_555 1_555
C33 C30 1_555 1_555
H40 C33 1_555 1_555
C15 C16 1_555 1_555
C19 C21 1_555 1_555
C24 C26 1_555 1_555
C26 C27 1_555 1_555
C29 C30 1_555 1_555
C32 C33 1_555 1_555

#END
