
#######################################################################
#
#                 Cambridge Crystallographic Data Centre
#                                CCDC 
#
#######################################################################
#
# If this CIF has been generated from an entry in the Cambridge 
# Structural Database, then it will include bibliographic, chemical, 
# crystal, experimental, refinement or atomic coordinate data resulting 
# from the CCDC's data processing and validation procedures.
#
#######################################################################

data_QAQKUQ
_chemical_compound_source        
'from the culture broth and the mycelia of Alternaria sp. ZJ-2008003, a fungus obtained from a Sarcophyton sp. soft coral'
_chemical_name_common            'altersolanol L'
_chemical_formula_moiety         'C16 H20 O7'
_chemical_name_systematic        
2,3,4,8,10-Pentahydroxy-6-methoxy-3-methyl-1,3,4,4a,9a,10-hexahydroanthracen-9(2H)-one
_symmetry_cell_setting           orthorhombic
_symmetry_space_group_name_H-M   'P 21 21 21'
_symmetry_Int_Tables_number      19
_space_group_name_Hall           'P 2ac 2ab'
loop_
_symmetry_equiv_pos_site_id
_symmetry_equiv_pos_as_xyz
1 x,y,z
2 1/2-x,-y,1/2+z
3 -x,1/2+y,1/2-z
4 1/2+x,1/2-y,-z
_cell_length_a                   5.6703(10)
_cell_length_b                   10.858(2)
_cell_length_c                   23.955(4)
_cell_angle_alpha                90
_cell_angle_beta                 90
_cell_angle_gamma                90
_cell_volume                     1474.86
_exptl_crystal_colour            colorless
_exptl_crystal_description       block
_cell_formula_units_Z            4
loop_
_atom_site_label
_atom_site_type_symbol
_atom_site_fract_x
_atom_site_fract_y
_atom_site_fract_z
O1 O 1.1399(3) 0.84387(12) 0.14125(6)
O2 O 0.8951(2) 0.58432(13) 0.31056(6)
H1 H 0.8922 0.5140 0.3252
O3 O 0.6872(3) 0.82295(12) 0.32381(6)
H2 H 0.8190 0.8115 0.3389
O4 O 0.8077(3) 0.37005(12) 0.14367(6)
H3 H 0.6723 0.3467 0.1532
O5 O 0.4154(2) 0.56733(13) 0.20914(6)
H4 H 0.3577 0.5034 0.1948
O6 O 1.4104(3) 0.78508(14) 0.06013(6)
H5 H 1.3546 0.8298 0.0855
C1 C 0.6414(3) 0.53962(18) 0.23225(8)
H6 H 0.6482 0.4495 0.2407
C2 C 1.0702(4) 0.4493(2) 0.05508(9)
H7 H 0.9938 0.3716 0.0529
C3 C 1.1104(4) 0.65039(19) 0.09703(8)
C4 C 1.2536(4) 0.4771(2) 0.01804(9)
C5 C 0.8451(4) 0.70931(18) 0.17891(8)
H8 H 0.6928 0.7327 0.1607
C6 C 0.8655(4) 0.78335(19) 0.23290(8)
H9 H 1.0210 0.7675 0.2503
H10 H 0.8554 0.8723 0.2243
C7 C 0.6679(4) 0.61173(19) 0.28732(8)
C8 C 0.6704(4) 0.74886(18) 0.27388(8)
H11 H 0.5165 0.7690 0.2556
C9 C 0.8066(4) 0.50080(17) 0.13523(8)
H12 H 0.6517 0.5247 0.1184
O7 O 1.3067(3) 0.38645(14) -0.01879(6)
C10 C 1.0413(4) 0.74043(18) 0.13874(9)
C11 C 0.8365(4) 0.57036(18) 0.19054(8)
H13 H 0.9908 0.5455 0.2073
C12 C 1.3696(4) 0.5897(2) 0.02025(9)
H14 H 1.4963 0.6073 -0.0044
C13 C 0.4742(4) 0.5788(2) 0.32888(9)
H15 H 0.4961 0.6264 0.3632
H16 H 0.4820 0.4906 0.3374
H17 H 0.3199 0.5982 0.3126
C14 C 1.2958(4) 0.67615(19) 0.05950(9)
C15 C 0.9997(4) 0.53333(19) 0.09453(8)
C16 C 1.4896(6) 0.4099(2) -0.05842(11)
H18 H 1.5106 0.3375 -0.0823
H19 H 1.6372 0.4274 -0.0387
H20 H 1.4464 0.4810 -0.0815
loop_
_geom_bond_atom_site_label_1
_geom_bond_atom_site_label_2
_geom_bond_site_symmetry_1
_geom_bond_site_symmetry_2
O1 C10 1_555 1_555
O2 H1 1_555 1_555
O3 H2 1_555 1_555
O4 H3 1_555 1_555
O5 H4 1_555 1_555
O6 H5 1_555 1_555
C1 O5 1_555 1_555
H6 C1 1_555 1_555
C2 H7 1_555 1_555
C3 C10 1_555 1_555
C4 C2 1_555 1_555
C5 H8 1_555 1_555
C6 C5 1_555 1_555
H9 C6 1_555 1_555
H10 C6 1_555 1_555
C7 O2 1_555 1_555
C8 O3 1_555 1_555
H11 C8 1_555 1_555
C9 O4 1_555 1_555
H12 C9 1_555 1_555
O7 C4 1_555 1_555
C10 C5 1_555 1_555
C11 C1 1_555 1_555
H13 C11 1_555 1_555
C12 C4 1_555 1_555
H14 C12 1_555 1_555
C13 C7 1_555 1_555
H15 C13 1_555 1_555
H16 C13 1_555 1_555
H17 C13 1_555 1_555
C14 O6 1_555 1_555
C15 C2 1_555 1_555
C16 O7 1_555 1_555
H18 C16 1_555 1_555
H19 C16 1_555 1_555
H20 C16 1_555 1_555
C1 C7 1_555 1_555
C3 C14 1_555 1_555
C3 C15 1_555 1_555
C5 C11 1_555 1_555
C6 C8 1_555 1_555
C7 C8 1_555 1_555
C9 C11 1_555 1_555
C9 C15 1_555 1_555
C12 C14 1_555 1_555

#END
