
#######################################################################
#
#                 Cambridge Crystallographic Data Centre
#                                CCDC 
#
#######################################################################
#
# If this CIF has been generated from an entry in the Cambridge 
# Structural Database, then it will include bibliographic, chemical, 
# crystal, experimental, refinement or atomic coordinate data resulting 
# from the CCDC's data processing and validation procedures.
#
#######################################################################

data_QAQKOK
_chemical_compound_source        
'from the culture broth and the mycelia of Alternaria sp. ZJ-2008003, a fungus obtained from a Sarcophyton sp. soft coral'
_chemical_name_common            'ampelanol  monohydrate'
_chemical_formula_moiety         'C16 H20 O8,H2 O1'
_chemical_name_systematic        
'1,2,3,4,8,10-Hexahydroxy-6-methoxy-3-methyl-1,3,4,4a,9a,10-hexahydroanthracen-9(2H)-one monohydrate'
_symmetry_cell_setting           monoclinic
_symmetry_space_group_name_H-M   'P 21'
_symmetry_Int_Tables_number      4
_space_group_name_Hall           'P 2yb'
loop_
_symmetry_equiv_pos_site_id
_symmetry_equiv_pos_as_xyz
1 x,y,z
2 -x,1/2+y,-z
_cell_length_a                   5.3587(11)
_cell_length_b                   13.167(3)
_cell_length_c                   11.052(2)
_cell_angle_alpha                90
_cell_angle_beta                 99.957(4)
_cell_angle_gamma                90
_cell_volume                     768.061
_exptl_crystal_colour            yellow
_exptl_crystal_description       block
_cell_formula_units_Z            2
loop_
_atom_site_label
_atom_site_type_symbol
_atom_site_fract_x
_atom_site_fract_y
_atom_site_fract_z
O1 O 0.0897(3) 0.29734(11) 0.26265(14)
O2 O -0.4674(3) 0.33972(11) -0.15893(12)
H1 H -0.3660 0.2905 -0.1515
O3 O 0.0934(3) 0.70727(10) 0.17046(12)
H2 H 0.0191 0.7498 0.2084
O4 O 0.4956(3) 0.31694(11) 0.42573(13)
H3 H 0.3749 0.2859 0.3825
C1 C 0.4459(4) 0.62624(15) 0.36069(16)
H4 H 0.4368 0.6977 0.3489
O5 O -0.0592(2) 0.48498(12) -0.15164(12)
H5 H -0.0897 0.4482 -0.2145
C2 C -0.1161(4) 0.43697(14) 0.14634(17)
H6 H -0.2660 0.4535 0.1855
O6 O 0.8256(3) 0.65177(11) 0.49419(12)
C3 C 0.0408(4) 0.60754(14) 0.20830(16)
H7 H -0.1097 0.6109 0.2505
C4 C 0.2611(3) 0.56416(16) 0.29767(16)
C5 C 0.6475(4) 0.58327(15) 0.44238(16)
C6 C 0.2717(4) 0.45761(15) 0.31541(17)
C7 C -0.0224(4) 0.53669(14) 0.09833(17)
H8 H 0.1354 0.5230 0.0643
C8 C 0.0855(4) 0.39061(15) 0.24520(17)
C9 C 0.6626(4) 0.48006(16) 0.46447(17)
H9 H 0.7987 0.4525 0.5216
C10 C -0.2042(4) 0.36058(15) 0.04267(16)
H10 H -0.0547 0.3358 0.0081
C11 C -0.2212(3) 0.58271(14) -0.00255(16)
H11 H -0.1511 0.6457 -0.0344
C12 C 0.4746(4) 0.41697(16) 0.40153(17)
C13 C -0.3952(4) 0.40931(15) -0.05913(17)
H12 H -0.5501 0.4272 -0.0246
C14 C 1.0420(4) 0.61318(17) 0.57798(17)
H13 H 1.1550 0.6695 0.6084
H14 H 1.1333 0.5642 0.5350
H15 H 0.9843 0.5796 0.6473
C15 C -0.2920(3) 0.50677(15) -0.10854(16)
C16 C -0.4825(4) 0.55354(16) -0.21092(17)
H16 H -0.5259 0.5042 -0.2776
H17 H -0.4088 0.6142 -0.2422
H18 H -0.6359 0.5724 -0.1791
O7 O -0.4382(3) 0.60808(11) 0.04906(11)
H19 H -0.5074 0.6600 0.0141
O8 O -0.3312(3) 0.27578(11) 0.08715(12)
H20 H -0.2369 0.2500 0.1480
O9 O 0.1037(3) 0.33390(12) 0.67218(12)
H21 H 0.2425 0.3396 0.7190
H22 H 0.1207 0.2988 0.6111
loop_
_geom_bond_atom_site_label_1
_geom_bond_atom_site_label_2
_geom_bond_site_symmetry_1
_geom_bond_site_symmetry_2
O1 C8 1_555 1_555
O2 H1 1_555 1_555
O3 H2 1_555 1_555
O4 H3 1_555 1_555
C1 H4 1_555 1_555
O5 H5 1_555 1_555
C2 H6 1_555 1_555
O6 C5 1_555 1_555
C3 O3 1_555 1_555
H7 C3 1_555 1_555
C4 C1 1_555 1_555
C5 C1 1_555 1_555
C6 C4 1_555 1_555
C7 C2 1_555 1_555
H8 C7 1_555 1_555
C8 C2 1_555 1_555
C9 C5 1_555 1_555
H9 C9 1_555 1_555
C10 C2 1_555 1_555
H10 C10 1_555 1_555
C11 C7 1_555 1_555
H11 C11 1_555 1_555
C12 O4 1_555 1_555
C13 O2 1_555 1_555
H12 C13 1_555 1_555
C14 O6 1_555 1_555
H13 C14 1_555 1_555
H14 C14 1_555 1_555
H15 C14 1_555 1_555
C15 O5 1_555 1_555
C16 C15 1_555 1_555
H16 C16 1_555 1_555
H17 C16 1_555 1_555
H18 C16 1_555 1_555
O7 C11 1_555 1_555
H19 O7 1_555 1_555
O8 C10 1_555 1_555
H20 O8 1_555 1_555
O9 H21 1_555 1_555
H22 O9 1_555 1_555
C3 C4 1_555 1_555
C3 C7 1_555 1_555
C6 C8 1_555 1_555
C6 C12 1_555 1_555
C9 C12 1_555 1_555
C10 C13 1_555 1_555
C11 C15 1_555 1_555
C13 C15 1_555 1_555

#END
