
#######################################################################
#
#                 Cambridge Crystallographic Data Centre
#                                CCDC 
#
#######################################################################
#
# If this CIF has been generated from an entry in the Cambridge 
# Structural Database, then it will include bibliographic, chemical, 
# crystal, experimental, refinement or atomic coordinate data resulting 
# from the CCDC's data processing and validation procedures.
#
#######################################################################

data_QAQLUP
_chemical_formula_moiety         'C13 H28 N2 O3 Si1'
_chemical_name_systematic        
(5R,1'R,2'S)-5-(1'-t-butyldimethylsiloxy-2'-hydroxy-1'-propyl)-1-methylpyrazolidin-3-one
_symmetry_cell_setting           orthorhombic
_symmetry_space_group_name_H-M   'P 21 21 21'
_symmetry_Int_Tables_number      19
_space_group_name_Hall           'P 2ac 2ab'
loop_
_symmetry_equiv_pos_site_id
_symmetry_equiv_pos_as_xyz
1 x,y,z
2 1/2-x,-y,1/2+z
3 1/2+x,1/2-y,-z
4 -x,1/2+y,1/2-z
_cell_length_a                   6.60410(10)
_cell_length_b                   12.60700(8)
_cell_length_c                   20.95900(10)
_cell_angle_alpha                90
_cell_angle_beta                 90
_cell_angle_gamma                90
_cell_volume                     1745
_exptl_crystal_colour            white
_chemical_melting_point          171-174deg.C
_cell_formula_units_Z            4
loop_
_atom_site_label
_atom_site_type_symbol
_atom_site_fract_x
_atom_site_fract_y
_atom_site_fract_z
N1 N 0.9401(6) 0.5506(4) 0.2312(2)
N2 N 0.9853(8) 0.4412(4) 0.2281(3)
C1 C 1.1821(9) 0.4161(5) 0.2302(3)
C2 C 1.2986(10) 0.5178(6) 0.2298(4)
C3 C 1.1418(9) 0.6028(5) 0.2424(3)
C4 C 1.1504(9) 0.6484(4) 0.3094(3)
C5 C 1.3380(10) 0.7165(4) 0.3194(3)
C6 C 1.3398(15) 0.7718(6) 0.3835(4)
C7 C 0.8501(14) 0.5840(9) 0.1706(4)
Si1 Si 0.9757(2) 0.5352(1) 0.4081(1)
C8 C 0.8611(15) 0.6592(8) 0.4420(5)
C9 C 0.7700(17) 0.4558(14) 0.3724(5)
C10 C 1.1109(13) 0.4571(6) 0.4710(3)
C11 C 1.1952(30) 0.3549(9) 0.4420(8)
C12 C 0.9598(24) 0.4291(9) 0.5251(5)
C13 C 1.2849(19) 0.5204(11) 0.4994(6)
O1 O 1.2485(7) 0.3251(4) 0.2336(3)
O2 O 1.1510(6) 0.5652(3) 0.3551(2)
O3 O 1.3453(8) 0.7915(4) 0.2690(3)
H1 H 0.916(13) 0.3983(65) 0.2291(38)
H2 H 1.352(13) 0.5233(60) 0.1869(39)
H3 H 1.388(12) 0.5135(60) 0.2638(35)
H4 H 1.162(12) 0.6516(58) 0.2205(35)
H5 H 1.0469(93) 0.6874(43) 0.3154(26)
H6 H 1.426(11) 0.6740(55) 0.3224(31)
H7 H 1.4205(87) 0.8025(54) 0.2575(31)
H8 H 1.436(13) 0.8133(68) 0.3894(36)
H9 H 1.326(11) 0.7344(52) 0.4193(33)
H10 H 1.200(12) 0.8294(59) 0.3781(31)
H11 H 0.766(24) 0.542(10) 0.1532(65)
H12 H 0.946(13) 0.5687(55) 0.1337(35)
H13 H 0.820(12) 0.6540(63) 0.1836(37)
H14 H 0.966(18) 0.7055(73) 0.4683(48)
H15 H 0.783(11) 0.6444(48) 0.4785(31)
H16 H 0.878(16) 0.6856(82) 0.4071(51)
H17 H 0.723(17) 0.4949(74) 0.3308(50)
H18 H 0.691(20) 0.4266(94) 0.4096(59)
H19 H 0.783(23) 0.4082(93) 0.3495(65)
H20 H 1.046(25) 0.314(12) 0.4368(64)
H21 H 1.249(21) 0.326(10) 0.4790(61)
H22 H 1.263(12) 0.3665(58) 0.4044(36)
H23 H 0.847(16) 0.3908(70) 0.5007(44)
H24 H 0.910(19) 0.514(10) 0.5446(53)
H25 H 1.022(20) 0.3862(83) 0.5558(49)
H26 H 1.372(13) 0.5274(66) 0.4608(41)
H27 H 1.339(19) 0.4763(86) 0.5344(55)
H28 H 1.219(14) 0.5951(65) 0.5221(38)
loop_
_geom_bond_atom_site_label_1
_geom_bond_atom_site_label_2
_geom_bond_site_symmetry_1
_geom_bond_site_symmetry_2
N1 N2 1_555 1_555
N2 C1 1_555 1_555
C1 C2 1_555 1_555
C2 C3 1_555 1_555
C3 N1 1_555 1_555
C4 C3 1_555 1_555
C5 C4 1_555 1_555
C6 C5 1_555 1_555
C7 N1 1_555 1_555
Si1 C8 1_555 1_555
C8 H14 1_555 1_555
C9 Si1 1_555 1_555
C10 Si1 1_555 1_555
C11 C10 1_555 1_555
C12 C10 1_555 1_555
C13 C10 1_555 1_555
O1 C1 1_555 1_555
O2 C4 1_555 1_555
O3 C5 1_555 1_555
H1 N2 1_555 1_555
H2 C2 1_555 1_555
H3 C2 1_555 1_555
H4 C3 1_555 1_555
H5 C4 1_555 1_555
H6 C5 1_555 1_555
H7 O3 1_555 1_555
H8 C6 1_555 1_555
H9 C6 1_555 1_555
H10 C6 1_555 1_555
H11 C7 1_555 1_555
H12 C7 1_555 1_555
H13 C7 1_555 1_555
H15 C8 1_555 1_555
H16 C8 1_555 1_555
H17 C9 1_555 1_555
H18 C9 1_555 1_555
H19 C9 1_555 1_555
H20 C11 1_555 1_555
H21 C11 1_555 1_555
H22 C11 1_555 1_555
H23 C12 1_555 1_555
H24 C12 1_555 1_555
H25 C12 1_555 1_555
H26 C13 1_555 1_555
H27 C13 1_555 1_555
H28 C13 1_555 1_555
Si1 O2 1_555 1_555

#END
