
#######################################################################
#
#                 Cambridge Crystallographic Data Centre
#                                CCDC 
#
#######################################################################
#
# If this CIF has been generated from an entry in the Cambridge 
# Structural Database, then it will include bibliographic, chemical, 
# crystal, experimental, refinement or atomic coordinate data resulting 
# from the CCDC's data processing and validation procedures.
#
#######################################################################

data_QAQLEA
_chemical_compound_source        'leaves and stems of Schisandra micrantha'
_chemical_name_common            'Micrandilactone C trihydrate'
_chemical_formula_moiety         'C29 H42 O9,3(H2 O1)'
_chemical_name_systematic        
"4a,12b,13-Trihydroxy-2-(2-hydroxy-1-methyl-2-(4-methyl-5-oxo-2,5-dihydro-2-furanyl)ethyl)-2a,10,10-trimethylperhydrofuro(3,2-b)indeno(4',5':5,6)-cyclohepta(c)furan-7-one trihydrate"
_chemical_properties_biological  
'significant activity against HIV-1 replication'
_symmetry_cell_setting           triclinic
_symmetry_space_group_name_H-M   'P 1'
_symmetry_Int_Tables_number      1
_space_group_name_Hall           'P 1'
loop_
_symmetry_equiv_pos_site_id
_symmetry_equiv_pos_as_xyz
1 x,y,z
_cell_length_a                   7.8780(16)
_cell_length_b                   10.483(2)
_cell_length_c                   18.484(4)
_cell_angle_alpha                84.67(3)
_cell_angle_beta                 80.14(3)
_cell_angle_gamma                89.66(3)
_cell_volume                     1497.37
_exptl_crystal_colour            colorless
_exptl_crystal_description       block
_chemical_melting_point          '172-173 deg.C'
_cell_formula_units_Z            2
_exptl_crystal_recrystallization_method methanol
loop_
_atom_site_label
_atom_site_type_symbol
_atom_site_fract_x
_atom_site_fract_y
_atom_site_fract_z
C1 C 0.7957(9) 0.5532(7) 0.8791(3)
H1 H 0.7587 0.6416 0.8694
C2 C 0.6952(10) 0.4573(8) 0.8466(3)
H2 H 0.5778 0.4852 0.8460
H3 H 0.7498 0.4433 0.7969
C3 C 0.7002(10) 0.3396(8) 0.8981(4)
C4 C 1.0729(8) 0.5345(7) 0.9128(3)
C5 C 0.9389(7) 0.5347(6) 0.9861(3)
H4 H 0.9640 0.4616 1.0195
C6 C 0.9373(8) 0.6550(6) 1.0270(3)
H5 H 0.8789 0.7226 1.0017
H6 H 1.0552 0.6831 1.0251
C7 C 0.8472(8) 0.6348(6) 1.1091(3)
H7 H 0.8832 0.5528 1.1300
H8 H 0.8891 0.7005 1.1354
C8 C 0.6495(7) 0.6375(5) 1.1241(3)
H9 H 0.6202 0.7181 1.0980
C9 C 0.5632(7) 0.5330(5) 1.0895(3)
C10 C 0.7676(8) 0.5068(5) 0.9616(3)
C11 C 0.3690(8) 0.5368(6) 1.1134(3)
H10 H 0.3266 0.6184 1.0949
H11 H 0.3159 0.4696 1.0920
C12 C 0.3163(8) 0.5192(6) 1.1979(3)
H12 H 0.3603 0.4382 1.2164
H13 H 0.1916 0.5155 1.2104
C13 C 0.3840(7) 0.6279(5) 1.2365(3)
C14 C 0.5825(7) 0.6533(4) 1.2074(3)
C15 C 0.6719(8) 0.5729(5) 1.2633(3)
H14 H 0.7893 0.6046 1.2620
C16 C 0.5584(7) 0.5930(5) 1.3364(3)
H15 H 0.5784 0.6773 1.3512
H16 H 0.5810 0.5288 1.3747
C17 C 0.3718(7) 0.5802(5) 1.3220(3)
H17 H 0.3446 0.4883 1.3272
C18 C 0.2841(9) 0.7507(6) 1.2206(3)
H18 H 0.3299 0.8201 1.2420
H19 H 0.1646 0.7379 1.2417
H20 H 0.2953 0.7710 1.1683
C19 C 0.5991(7) 0.5556(5) 1.0039(3)
H21 H 0.5049 0.5167 0.9859
H22 H 0.5945 0.6471 0.9907
C20 C 0.2333(8) 0.6425(5) 1.3763(3)
H23 H 0.2417 0.7349 1.3619
C21 C 0.0514(9) 0.6014(7) 1.3688(4)
H24 H -0.0315 0.6425 1.4032
H25 H 0.0395 0.5102 1.3791
H26 H 0.0322 0.6259 1.3195
C22 C 0.2627(8) 0.6236(5) 1.4573(3)
H27 H 0.3756 0.6620 1.4577
C23 C 0.2702(8) 0.4847(6) 1.4914(3)
H28 H 0.3588 0.4381 1.4607
C24 C 0.3083(10) 0.4791(7) 1.5687(3)
H29 H 0.4063 0.5135 1.5817
C25 C 0.1824(11) 0.4181(7) 1.6157(4)
C26 C 0.0562(11) 0.3776(7) 1.5726(4)
C27 C 0.162(2) 0.3943(12) 1.6983(5)
H30 H 0.0576 0.3465 1.7169
H31 H 0.1568 0.4748 1.7194
H32 H 0.2585 0.3465 1.7112
C28 C 1.1778(11) 0.4137(9) 0.9103(4)
H33 H 1.2574 0.4171 0.8646
H34 H 1.1023 0.3409 0.9140
H35 H 1.2403 0.4062 0.9507
C29 C 1.1909(13) 0.6517(10) 0.8950(5)
H36 H 1.2681 0.6442 0.8494
H37 H 1.2563 0.6575 0.9339
H38 H 1.1228 0.7274 0.8905
O1 O 0.6612(11) 0.2275(7) 0.8909(4)
O2 O 0.7481(6) 0.3665(4) 0.9609(2)
O3 O 0.9718(7) 0.5361(6) 0.8538(2)
O4 O 0.6259(6) 0.4073(4) 1.1093(2)
H39 H 0.6512 0.4045 1.1508
O5 O 0.6277(5) 0.7829(3) 1.2187(2)
H40 H 0.6181 0.8534 1.1810
O6 O 0.6731(6) 0.4409(4) 1.2477(2)
H41 H 0.6517 0.3948 1.2863
O7 O 0.1413(7) 0.6936(5) 1.5035(2)
H42 H 0.0390 0.6787 1.5065
O8 O -0.0778(9) 0.3174(7) 1.5926(4)
O9 O 0.1080(7) 0.4176(4) 1.5009(3)
C30 C 0.4573(8) 0.9217(7) 0.7081(3)
H43 H 0.4937 1.0072 0.7172
C31 C 0.5566(10) 0.8145(8) 0.7427(3)
H44 H 0.6725 0.8422 0.7453
H45 H 0.4982 0.7847 0.7919
C32 C 0.5589(11) 0.7139(8) 0.6918(4)
C33 C 0.1792(8) 0.9089(6) 0.6739(3)
C34 C 0.3162(7) 0.9332(5) 0.6012(3)
H46 H 0.2942 0.8711 0.5673
C35 C 0.3167(8) 1.0675(5) 0.5607(3)
H47 H 0.3737 1.1262 0.5865
H48 H 0.1985 1.0952 0.5625
C36 C 0.4079(7) 1.0761(6) 0.4784(3)
H49 H 0.3733 1.0020 0.4565
H50 H 0.3658 1.1514 0.4526
C37 C 0.6053(7) 1.0830(5) 0.4647(2)
H51 H 0.6338 1.1547 0.4911
C38 C 0.6933(7) 0.9649(5) 0.4987(3)
C39 C 0.4868(8) 0.8995(5) 0.6260(3)
C40 C 0.8880(7) 0.9745(6) 0.4752(3)
H52 H 0.9408 0.8993 0.4963
H53 H 0.9306 1.0491 0.4941
C41 C 0.9400(8) 0.9852(6) 0.3909(3)
H54 H 1.0647 0.9839 0.3784
H55 H 0.8954 0.9110 0.3722
C42 C 0.8739(7) 1.1073(5) 0.3524(3)
C43 C 0.6746(7) 1.1247(4) 0.3811(2)
C44 C 0.5866(7) 1.0644(5) 0.3246(3)
H56 H 0.4695 1.0970 0.3255
C45 C 0.7009(7) 1.1064(5) 0.2515(3)
H57 H 0.6801 1.1951 0.2358
H58 H 0.6798 1.0535 0.2135
C46 C 0.8870(7) 1.0892(5) 0.2666(3)
H59 H 0.9165 0.9994 0.2608
C47 C 0.9728(8) 1.2241(6) 0.3691(3)
H60 H 0.9307 1.3007 0.3458
H61 H 1.0933 1.2155 0.3504
H62 H 0.9561 1.2290 0.4214
C48 C 0.6533(7) 0.9617(5) 0.5838(3)
H63 H 0.7479 0.9184 0.6029
H64 H 0.6548 1.0495 0.5962
C49 C 1.0254(7) 1.1707(5) 0.2131(3)
H65 H 1.0159 1.2581 0.2280
C50 C 1.2066(9) 1.1246(7) 0.2213(3)
H66 H 1.2906 1.1771 0.1880
H67 H 1.2190 1.0371 0.2100
H68 H 1.2239 1.1308 0.2711
C51 C 0.9973(8) 1.1788(5) 0.1315(3)
H69 H 0.8843 1.2182 0.1309
C52 C 0.9911(8) 1.0533(6) 0.0963(3)
H70 H 0.8987 0.9985 0.1252
C53 C 0.9616(10) 1.0755(7) 0.0181(4)
H71 H 0.8655 1.1153 0.0035
C54 C 1.0929(11) 1.0300(8) -0.0276(4)
C55 C 1.2102(10) 0.9697(7) 0.0182(4)
C56 C 1.1285(18) 1.0346(12) -0.1098(5)
H72 H 1.0430 1.0857 -0.1297
H73 H 1.1249 0.9493 -0.1244
H74 H 1.2405 1.0717 -0.1280
C57 C 0.0804(11) 0.7844(8) 0.6777(4)
H75 H 0.1601 0.7158 0.6680
H76 H 0.0060 0.7912 0.6415
H77 H 0.0126 0.7671 0.7259
C58 C 0.0531(11) 1.0162(9) 0.6905(4)
H78 H 0.1150 1.0958 0.6867
H79 H -0.0109 0.9993 0.7395
H80 H -0.0249 1.0217 0.6557
O10 O 0.6013(13) 0.6011(7) 0.6989(5)
O11 O 0.5087(6) 0.7589(4) 0.6282(2)
O12 O 0.2795(7) 0.8965(7) 0.7341(2)
O13 O 0.6304(6) 0.8462(3) 0.47960(19)
H81 H 0.6083 0.8563 0.4375
O14 O 0.6294(6) 1.2580(3) 0.3700(2)
H82 H 0.6619 1.3050 0.3300
O15 O 0.5846(6) 0.9266(4) 0.3402(2)
H83 H 0.6207 0.8927 0.3028
O16 O 1.1190(6) 1.2653(4) 0.0873(2)
H84 H 1.2395 1.2303 0.0822
O17 O 1.3416(8) 0.9113(7) 0.0006(4)
O18 O 1.1519(6) 0.9841(4) 0.0894(2)
O19 O 0.4797(7) 0.2041(5) 0.0567(3)
H85 H 0.4950 0.2150 0.0060
H86 H 0.5600 0.2220 0.0780
O20 O 0.7810(7) 0.6289(5) 0.5337(3)
H87 H 0.7500 0.6090 0.5820
H88 H 0.7510 0.5690 0.5090
O21 O 0.6882(7) 0.3896(5) 0.4899(3)
H89 H 0.6820 0.3360 0.4620
H90 H 0.7210 0.3560 0.5230
O22 O 0.5785(8) 0.9551(5) 0.0993(3)
H91 H 0.5170 0.9270 0.0740
H92 H 0.5730 1.0370 0.0950
O23 O 0.675(2) 0.910(2) 0.8980(12)
H93 H 0.6520 0.9350 0.9460
H94 H 0.6100 0.8330 0.8990
O24 O 0.611(5) 0.239(5) 0.707(3)
H95 H 0.6830 0.1880 0.7200
H96 H 0.5050 0.2440 0.7370
loop_
_geom_bond_atom_site_label_1
_geom_bond_atom_site_label_2
_geom_bond_site_symmetry_1
_geom_bond_site_symmetry_2
C1 H1 1_555 1_555
C2 C1 1_555 1_555
H2 C2 1_555 1_555
H3 C2 1_555 1_555
C3 C2 1_555 1_555
C4 C5 1_555 1_555
C5 H4 1_555 1_555
C6 C5 1_555 1_555
H5 C6 1_555 1_555
H6 C6 1_555 1_555
C7 C6 1_555 1_555
H7 C7 1_555 1_555
H8 C7 1_555 1_555
C8 C7 1_555 1_555
H9 C8 1_555 1_555
C9 C8 1_555 1_555
C10 C1 1_555 1_555
C11 C9 1_555 1_555
H10 C11 1_555 1_555
H11 C11 1_555 1_555
C12 C11 1_555 1_555
H12 C12 1_555 1_555
H13 C12 1_555 1_555
C13 C12 1_555 1_555
C14 C8 1_555 1_555
C15 C14 1_555 1_555
H14 C15 1_555 1_555
C16 C15 1_555 1_555
H15 C16 1_555 1_555
H16 C16 1_555 1_555
C17 C13 1_555 1_555
H17 C17 1_555 1_555
C18 C13 1_555 1_555
H18 C18 1_555 1_555
H19 C18 1_555 1_555
H20 C18 1_555 1_555
C19 C9 1_555 1_555
H21 C19 1_555 1_555
H22 C19 1_555 1_555
C20 C17 1_555 1_555
H23 C20 1_555 1_555
C21 C20 1_555 1_555
H24 C21 1_555 1_555
H25 C21 1_555 1_555
H26 C21 1_555 1_555
C22 C20 1_555 1_555
H27 C22 1_555 1_555
C23 C22 1_555 1_555
H28 C23 1_555 1_555
C24 C23 1_555 1_555
H29 C24 1_555 1_555
C25 C24 1_555 1_555
C26 C25 1_555 1_555
C27 C25 1_555 1_555
H30 C27 1_555 1_555
H31 C27 1_555 1_555
H32 C27 1_555 1_555
C28 C4 1_555 1_555
H33 C28 1_555 1_555
H34 C28 1_555 1_555
H35 C28 1_555 1_555
C29 C4 1_555 1_555
H36 C29 1_555 1_555
H37 C29 1_555 1_555
H38 C29 1_555 1_555
O1 C3 1_555 1_555
O2 C3 1_555 1_555
O3 C1 1_555 1_555
O4 C9 1_555 1_555
H39 O4 1_555 1_555
O5 C14 1_555 1_555
H40 O5 1_555 1_555
O6 C15 1_555 1_555
H41 O6 1_555 1_555
O7 C22 1_555 1_555
H42 O7 1_555 1_555
O8 C26 1_555 1_555
O9 C23 1_555 1_555
C30 H43 1_555 1_555
C31 C30 1_555 1_555
H44 C31 1_555 1_555
H45 C31 1_555 1_555
C32 C31 1_555 1_555
C33 C34 1_555 1_555
C34 H46 1_555 1_555
C35 C34 1_555 1_555
H47 C35 1_555 1_555
H48 C35 1_555 1_555
C36 C35 1_555 1_555
H49 C36 1_555 1_555
H50 C36 1_555 1_555
C37 C36 1_555 1_555
H51 C37 1_555 1_555
C38 C37 1_555 1_555
C39 C30 1_555 1_555
C40 C38 1_555 1_555
H52 C40 1_555 1_555
H53 C40 1_555 1_555
C41 C40 1_555 1_555
H54 C41 1_555 1_555
H55 C41 1_555 1_555
C42 C41 1_555 1_555
C43 C37 1_555 1_555
C44 C43 1_555 1_555
H56 C44 1_555 1_555
C45 C44 1_555 1_555
H57 C45 1_555 1_555
H58 C45 1_555 1_555
C46 C42 1_555 1_555
H59 C46 1_555 1_555
C47 C42 1_555 1_555
H60 C47 1_555 1_555
H61 C47 1_555 1_555
H62 C47 1_555 1_555
C48 C38 1_555 1_555
H63 C48 1_555 1_555
H64 C48 1_555 1_555
C49 C46 1_555 1_555
H65 C49 1_555 1_555
C50 C49 1_555 1_555
H66 C50 1_555 1_555
H67 C50 1_555 1_555
H68 C50 1_555 1_555
C51 C49 1_555 1_555
H69 C51 1_555 1_555
C52 C51 1_555 1_555
H70 C52 1_555 1_555
C53 C52 1_555 1_555
H71 C53 1_555 1_555
C54 C53 1_555 1_555
C55 C54 1_555 1_555
C56 C54 1_555 1_555
H72 C56 1_555 1_555
H73 C56 1_555 1_555
H74 C56 1_555 1_555
C57 C33 1_555 1_555
H75 C57 1_555 1_555
H76 C57 1_555 1_555
H77 C57 1_555 1_555
C58 C33 1_555 1_555
H78 C58 1_555 1_555
H79 C58 1_555 1_555
H80 C58 1_555 1_555
O10 C32 1_555 1_555
O11 C32 1_555 1_555
O12 C30 1_555 1_555
O13 C38 1_555 1_555
H81 O13 1_555 1_555
O14 C43 1_555 1_555
H82 O14 1_555 1_555
O15 C44 1_555 1_555
H83 O15 1_555 1_555
O16 C51 1_555 1_555
H84 O16 1_555 1_555
O17 C55 1_555 1_555
O18 C52 1_555 1_555
O19 H85 1_555 1_555
H86 O19 1_555 1_555
O20 H87 1_555 1_555
H88 O20 1_555 1_555
O21 H89 1_555 1_555
H90 O21 1_555 1_555
O22 H91 1_555 1_555
H92 O22 1_555 1_555
O23 H93 1_555 1_555
H94 O23 1_555 1_555
O24 H95 1_555 1_555
H96 O24 1_555 1_555
C4 O3 1_555 1_555
C5 C10 1_555 1_555
C10 C19 1_555 1_555
C10 O2 1_555 1_555
C13 C14 1_555 1_555
C16 C17 1_555 1_555
C26 O9 1_555 1_555
C33 O12 1_555 1_555
C34 C39 1_555 1_555
C39 C48 1_555 1_555
C39 O11 1_555 1_555
C42 C43 1_555 1_555
C45 C46 1_555 1_555
C55 O18 1_555 1_555

#END
