
#######################################################################
#
#                 Cambridge Crystallographic Data Centre
#                                CCDC 
#
#######################################################################
#
# If this CIF has been generated from an entry in the Cambridge 
# Structural Database, then it will include bibliographic, chemical, 
# crystal, experimental, refinement or atomic coordinate data resulting 
# from the CCDC's data processing and validation procedures.
#
#######################################################################

data_QAQMAW
_chemical_name_common            (2S,3S)-(+)-beta-fluorophenylpropionitrile
_chemical_formula_moiety         'C9 H9 F1 N2'
_chemical_name_systematic        
(2S,3S)-(+)-2-amino-3-fluoro-3-phenylpropionitrile
_symmetry_cell_setting           monoclinic
_symmetry_space_group_name_H-M   'P 21'
_symmetry_Int_Tables_number      4
_space_group_name_Hall           'P 2yb'
loop_
_symmetry_equiv_pos_site_id
_symmetry_equiv_pos_as_xyz
1 x,y,z
2 -x,1/2+y,-z
_cell_length_a                   5.741(1)
_cell_length_b                   13.161(2)
_cell_length_c                   10.795(2)
_cell_angle_alpha                90
_cell_angle_beta                 89.97(2)
_cell_angle_gamma                90
_cell_volume                     815.641
_chemical_melting_point          118deg.C
_cell_formula_units_Z            4
loop_
_atom_site_label
_atom_site_type_symbol
_atom_site_fract_x
_atom_site_fract_y
_atom_site_fract_z
F1 F 1.357 -0.2725 -0.4305(3)
N2 N 1.3749(7) -0.0610(3) -0.2167(4)
N3 N 0.8957(7) -0.2202(4) -0.2202(5)
C1 C 1.3849(8) -0.1710(4) -0.3976(5)
C4 C 0.8980(8) -0.0769(4) -0.6062(5)
C6 C 1.3088(8) -0.0065(4) -0.5068(4)
C7 C 1.3300(7) -0.1617(4) -0.2603(5)
C8 C 1.2405(7) -0.1047(4) -0.4813(4)
C12 C 1.0306(8) -0.1402(4) -0.5310(5)
C14 C 1.1737(9) 0.0571(4) -0.5795(5)
C15 C 0.9665(9) 0.0197(4) -0.6291(5)
C17 C 1.0845(8) -0.1965(4) -0.2372(5)
H3 H 1.424(9) -0.226(4) -0.212(5)
H5 H 1.363(8) -0.082(4) -0.140(4)
H7 H 1.277(9) -0.011(4) -0.232(5)
H11 H 1.4532 0.0183 -0.4741
H12 H 1.2223 0.1247 -0.5957
H13 H 0.8735 0.0648 -0.6806
H14 H 0.7585 -0.1028 -0.6456
H15 H 0.9776 -0.2070 -0.5105
H16 H 1.5428 -0.1466 -0.4089
F2 F 0.8575(5) 0.2623(2) -0.0695(3)
N1 N 0.8748(7) 0.0502(3) -0.2833(4)
N4 N 0.3954(7) 0.2090(4) -0.2797(5)
C2 C 0.5316(8) 0.1292(4) 0.0309(4)
C3 C 0.8285(7) 0.1525(4) -0.2390(4)
C5 C 0.7419(7) 0.0942(4) -0.0190(4)
C9 C 0.8093(8) -0.0047(4) 0.0072(5)
C10 C 0.3987(8) 0.0678(4) 0.1054(5)
C11 C 0.8846(8) 0.1612(4) -0.1025(5)
C13 C 0.4668(9) -0.0307(4) 0.1296(5)
C16 C 0.6747(9) -0.0673(4) 0.0795(5)
C18 C 0.5837(8) 0.1868(4) -0.2628(5)
H1 H 0.869(9) 0.043(4) -0.358(4)
H2 H 0.4776 0.1953 0.0113
H4 H 0.2592 0.0919 0.1435
H6 H 0.3718 -0.0743 0.1823
H8 H 0.7239 -0.1365 0.0943
H9 H 0.82(1) 0.026(5) -0.218(6)
H10 H 0.9508 -0.0313 -0.0264
H17 H 0.9265 0.1972 -0.2860
H18 H 1.0420 0.1363 -0.0916
loop_
_geom_bond_atom_site_label_1
_geom_bond_atom_site_label_2
_geom_bond_site_symmetry_1
_geom_bond_site_symmetry_2
F1 C1 1_555 1_555
F2 C11 1_555 1_555
N1 C3 1_555 1_555
N2 C7 1_555 1_555
N3 C17 1_555 1_555
N4 C18 1_555 1_555
C1 C7 1_555 1_555
C2 C5 1_555 1_555
C3 C11 1_555 1_555
C4 C12 1_555 1_555
C5 C9 1_555 1_555
C6 C8 1_555 1_555
C7 C17 1_555 1_555
C8 C1 1_555 1_555
C9 C16 1_555 1_555
C10 C2 1_555 1_555
C11 C5 1_555 1_555
C12 C8 1_555 1_555
C13 C10 1_555 1_555
C14 C6 1_555 1_555
C15 C4 1_555 1_555
C16 C13 1_555 1_555
C18 C3 1_555 1_555
H1 N1 1_555 1_555
H2 C2 1_555 1_555
H3 C7 1_555 1_555
H4 C10 1_555 1_555
H5 N2 1_555 1_555
H6 C13 1_555 1_555
H7 N2 1_555 1_555
H8 C16 1_555 1_555
H9 N1 1_555 1_555
H10 C9 1_555 1_555
H11 C6 1_555 1_555
H12 C14 1_555 1_555
H13 C15 1_555 1_555
H14 C4 1_555 1_555
H15 C12 1_555 1_555
H16 C1 1_555 1_555
H17 C3 1_555 1_555
H18 C11 1_555 1_555
C14 C15 1_555 1_555

#END
