
#######################################################################
#
#                 Cambridge Crystallographic Data Centre
#                                CCDC 
#
#######################################################################
#
# If this CIF has been generated from an entry in the Cambridge 
# Structural Database, then it will include bibliographic, chemical, 
# crystal, experimental, refinement or atomic coordinate data resulting 
# from the CCDC's data processing and validation procedures.
#
#######################################################################

data_QARGUM
_chemical_formula_moiety         'C4 H12 N1 1+,C12 H10 P1 S1 Se1 1-'
_chemical_name_systematic        
'Tetramethylammonium P,P-diphenylphosphinoselenothioate'
_symmetry_cell_setting           orthorhombic
_symmetry_space_group_name_H-M   'P 21 21 21'
_symmetry_Int_Tables_number      19
_space_group_name_Hall           'P 2ac 2ab'
loop_
_symmetry_equiv_pos_site_id
_symmetry_equiv_pos_as_xyz
1 x,y,z
2 1/2-x,-y,1/2+z
3 1/2+x,1/2-y,-z
4 -x,1/2+y,1/2-z
_cell_length_a                   8.719(4)
_cell_length_b                   13.160(6)
_cell_length_c                   15.800(7)
_cell_angle_alpha                90
_cell_angle_beta                 90
_cell_angle_gamma                90
_cell_volume                     1812.92
_exptl_crystal_colour            colorless
_exptl_crystal_description       prism
_chemical_melting_point          '165-167 deg.C(dec.)'
_cell_formula_units_Z            4
loop_
_atom_site_label
_atom_site_type_symbol
_atom_site_fract_x
_atom_site_fract_y
_atom_site_fract_z
Se1 Se 0.15977(10) 0.12709(7) 0.63719(5)
S2 S 0.2373 0.3671 0.7272
P1 P 0.1406(2) 0.2267(1) 0.74127(10)
C1 C 0.2205(6) 0.1687(5) 0.8374(4)
C2 C 0.2186(9) 0.2219(6) 0.9121(4)
C3 C 0.282(1) 0.1840(8) 0.9851(5)
C4 C 0.354(1) 0.0878(7) 0.9833(5)
C5 C 0.3535(10) 0.0339(6) 0.9101(6)
C6 C 0.2885(8) 0.0739(5) 0.8366(5)
C7 C -0.0626(6) 0.2345(4) 0.7682(4)
C8 C -0.1430(8) 0.3240(5) 0.7680(5)
C9 C -0.2993(9) 0.3246(6) 0.7865(5)
C10 C -0.3709(8) 0.2388(6) 0.8071(5)
C11 C -0.2943(8) 0.1480(6) 0.8098(5)
C12 C -0.1393(8) 0.1462(5) 0.7893(4)
H1 H 0.1688 0.2887 0.9131
H2 H 0.2772 0.2187 1.0392
H3 H 0.4066 0.0591 1.0315
H4 H 0.4022 -0.0332 0.9080
H5 H 0.2905 0.0351 0.7829
H6 H -0.0869 0.3871 0.7573
H7 H -0.3577 0.3877 0.7833
H8 H -0.4768 0.2387 0.8213
H9 H -0.3491 0.0861 0.8241
H10 H -0.0835 0.0822 0.7897
N1 N 0.6203(7) 0.0910(6) 0.5373(4)
C13 C 0.585(2) 0.0199(10) 0.6075(7)
C14 C 0.618(2) 0.1955(9) 0.5751(7)
C15 C 0.770(1) 0.073(1) 0.5014(7)
C16 C 0.5014(9) 0.086(1) 0.4727(5)
H11 H 0.4829 0.0341 0.6291
H12 H 0.5864 -0.0482 0.5882
H13 H 0.6556 0.0284 0.6523
H14 H 0.6870 0.2043 0.6195
H15 H 0.6288 0.2469 0.5338
H16 H 0.5125 0.2083 0.6008
H17 H 0.7763 0.0085 0.4708
H18 H 0.7979 0.1248 0.4599
H19 H 0.8513 0.0719 0.5425
H20 H 0.4002 0.1038 0.4987
H21 H 0.5172 0.1418 0.4319
H22 H 0.4928 0.0262 0.4454
Se2? Se 0.2373(1) 0.36707(10) 0.72724(8)
S1? S 0.1598 0.1271 0.6372
loop_
_geom_bond_atom_site_label_1
_geom_bond_atom_site_label_2
_geom_bond_site_symmetry_1
_geom_bond_site_symmetry_2
Se1 P1 1_555 1_555
S2 P1 1_555 1_555
P1 C1 1_555 1_555
N1 C13 1_555 1_555
C1 C2 1_555 1_555
C2 C3 1_555 1_555
C3 C4 1_555 1_555
C4 C5 1_555 1_555
C5 C6 1_555 1_555
C6 C1 1_555 1_555
C7 P1 1_555 1_555
C8 C7 1_555 1_555
C9 C8 1_555 1_555
C10 C9 1_555 1_555
C11 C10 1_555 1_555
C12 C7 1_555 1_555
C13 H11 1_555 1_555
C14 N1 1_555 1_555
C15 N1 1_555 1_555
C16 N1 1_555 1_555
H1 C2 1_555 1_555
H2 C3 1_555 1_555
H3 C4 1_555 1_555
H4 C5 1_555 1_555
H5 C6 1_555 1_555
H6 C8 1_555 1_555
H7 C9 1_555 1_555
H8 C10 1_555 1_555
H9 C11 1_555 1_555
H10 C12 1_555 1_555
H12 C13 1_555 1_555
H13 C13 1_555 1_555
H14 C14 1_555 1_555
H15 C14 1_555 1_555
H16 C14 1_555 1_555
H17 C15 1_555 1_555
H18 C15 1_555 1_555
H19 C15 1_555 1_555
H20 C16 1_555 1_555
H21 C16 1_555 1_555
H22 C16 1_555 1_555
C11 C12 1_555 1_555

#END
