
#######################################################################
#
#                 Cambridge Crystallographic Data Centre
#                                CCDC 
#
#######################################################################
#
# If this CIF has been generated from an entry in the Cambridge 
# Structural Database, then it will include bibliographic, chemical, 
# crystal, experimental, refinement or atomic coordinate data resulting 
# from the CCDC's data processing and validation procedures.
#
#######################################################################

data_QARHUO
_chemical_formula_moiety         'C16 H10 O2'
_chemical_name_systematic        1-Oxo-2-phenyl-1H-indene-3-carbaldehyde
_symmetry_cell_setting           monoclinic
_symmetry_space_group_name_H-M   'P 21'
_symmetry_Int_Tables_number      4
_space_group_name_Hall           'P 2yb'
loop_
_symmetry_equiv_pos_site_id
_symmetry_equiv_pos_as_xyz
1 x,y,z
2 -x,1/2+y,-z
_cell_length_a                   6.1367(4)
_cell_length_b                   8.0237(5)
_cell_length_c                   11.9305(11)
_cell_angle_alpha                90
_cell_angle_beta                 103.975(8)
_cell_angle_gamma                90
_cell_volume                     570.059
_exptl_crystal_colour            yellow
_exptl_crystal_description       block
_cell_formula_units_Z            2
_exptl_crystal_recrystallization_method dichloromethane/hexane
loop_
_atom_site_label
_atom_site_type_symbol
_atom_site_fract_x
_atom_site_fract_y
_atom_site_fract_z
O1 O 0.1999(3) 0.0772(2) 0.24923(13)
O2 O 0.9542(2) 0.41077(18) 0.12532(12)
C1 C 0.5829(4) 0.2664(3) 0.41946(17)
H1 H 0.4555 0.2125 0.4305
C2 C 0.7343(4) 0.3426(3) 0.51129(17)
H2 H 0.7051 0.3410 0.5842
C3 C 0.9256(4) 0.4201(3) 0.49693(18)
H3 H 1.0236 0.4698 0.5598
C4 C 0.9730(3) 0.4243(3) 0.38898(16)
H4 H 1.1034 0.4744 0.3786
C5 C 0.8217(3) 0.3522(2) 0.29775(15)
C6 C 0.6282(3) 0.2735(2) 0.31155(15)
C7 C 0.4970(3) 0.2177(2) 0.19527(15)
C8 C 0.6007(3) 0.2663(2) 0.11275(15)
C9 C 0.8168(3) 0.3519(2) 0.17242(15)
C10 C 0.2930(3) 0.1157(2) 0.17448(18)
H5 H 0.2317 0.0785 0.0997
C11 C 0.5268(3) 0.25225(19) -0.01332(15)
C12 C 0.3132(3) 0.3044(2) -0.07208(17)
H6 H 0.2140 0.3448 -0.0307
C13 C 0.2473(3) 0.2968(2) -0.19117(18)
H7 H 0.1048 0.3329 -0.2296
C14 C 0.3933(4) 0.2357(2) -0.25313(17)
H8 H 0.3490 0.2305 -0.3333
C15 C 0.6027(4) 0.1828(2) -0.19654(17)
H9 H 0.6993 0.1397 -0.2385
C16 C 0.6724(3) 0.1926(2) -0.07772(15)
H10 H 0.8170 0.1595 -0.0404
loop_
_geom_bond_atom_site_label_1
_geom_bond_atom_site_label_2
_geom_bond_site_symmetry_1
_geom_bond_site_symmetry_2
O1 C10 1_555 1_555
O2 C9 1_555 1_555
C1 H1 1_555 1_555
C2 C1 1_555 1_555
H2 C2 1_555 1_555
C3 C2 1_555 1_555
H3 C3 1_555 1_555
C4 C3 1_555 1_555
H4 C4 1_555 1_555
C5 C4 1_555 1_555
C6 C1 1_555 1_555
C7 C6 1_555 1_555
C8 C7 1_555 1_555
C9 C5 1_555 1_555
C10 C7 1_555 1_555
H5 C10 1_555 1_555
C11 C8 1_555 1_555
C12 C11 1_555 1_555
H6 C12 1_555 1_555
C13 C12 1_555 1_555
H7 C13 1_555 1_555
C14 C13 1_555 1_555
H8 C14 1_555 1_555
C15 C14 1_555 1_555
H9 C15 1_555 1_555
C16 C11 1_555 1_555
H10 C16 1_555 1_555
C5 C6 1_555 1_555
C8 C9 1_555 1_555
C15 C16 1_555 1_555

#END
