
#######################################################################
#
#                 Cambridge Crystallographic Data Centre
#                                CCDC 
#
#######################################################################
#
# If this CIF has been generated from an entry in the Cambridge 
# Structural Database, then it will include bibliographic, chemical, 
# crystal, experimental, refinement or atomic coordinate data resulting 
# from the CCDC's data processing and validation procedures.
#
#######################################################################

data_QARHOG
_chemical_formula_moiety         'C58 H48 N14 S2,C4 H8 O1'
_chemical_name_systematic        
"4,6-bis(N'-(2-Phenyl-6-(4-propylsulfanyl(2,2')bipyridinyl-6-yl)pyrimidin-4-ylmethylene)hydrazino)-2-phenylpyrimidine tetrahydrofuran solvate"
_symmetry_cell_setting           orthorhombic
_symmetry_space_group_name_H-M   'P b c n'
_symmetry_Int_Tables_number      60
_space_group_name_Hall           '-P 2n 2ab'
loop_
_symmetry_equiv_pos_site_id
_symmetry_equiv_pos_as_xyz
1 x,y,z
2 1/2+x,1/2+y,1/2-z
3 x,-y,1/2+z
4 1/2-x,1/2+y,z
5 -x,-y,-z
6 1/2-x,1/2-y,1/2+z
7 -x,y,1/2-z
8 1/2+x,1/2-y,-z
_cell_length_a                   57.380(12)
_cell_length_b                   9.200(2)
_cell_length_c                   21.490(4)
_cell_angle_alpha                90
_cell_angle_beta                 90
_cell_angle_gamma                90
_cell_volume                     11344.5
_exptl_crystal_colour            yellow
_exptl_crystal_description       prism
_chemical_melting_point          236.5deg.C
_cell_formula_units_Z            8
_exptl_crystal_recrystallization_method thf/acetone
loop_
_atom_site_label
_atom_site_type_symbol
_atom_site_fract_x
_atom_site_fract_y
_atom_site_fract_z
S1 S 0.20988(8) 0.2086(5) 0.2463(2)
S2 S 0.20988(15) 0.6649(9) 0.2677(4)
N1 N 0.1901(3) 0.5087(16) 0.0444(6)
N2 N 0.1487(2) 0.2540(15) 0.1102(5)
N3 N 0.1237(2) -0.0120(14) 0.2110(5)
N4 N 0.0837(2) -0.0631(12) 0.1828(5)
N5 N 0.0630(2) 0.1635(14) 0.0640(5)
N6 N 0.0434(2) 0.1832(14) 0.0303(5)
H1 H 0.0330(2) 0.1130(14) 0.0288(5)
N7 N 0.0194(2) 0.3099(15) -0.0361(5)
N8 N 0.0289(2) 0.5538(15) -0.0681(5)
N9 N 0.0617(2) 0.6722(15) -0.0364(5)
H2 H 0.0575(2) 0.7455(15) -0.0602(5)
N10 N 0.0815(3) 0.6809(17) -0.0020(5)
N11 N 0.1300(2) 0.9105(14) -0.0064(5)
N12 N 0.1380(2) 0.5944(15) 0.1825(6)
N13 N 0.1380(3) 0.3433(18) 0.3128(7)
C1 C 0.1919(3) 0.6033(18) -0.0051(8)
H3 H 0.2055(3) 0.6607(18) -0.0099(8)
C2 C 0.1743(4) 0.6148(19) -0.0468(6)
H4 H 0.1764(4) 0.6780(19) -0.0813(6)
C3 C 0.1539(4) 0.5411(19) -0.0421(7)
H5 H 0.1415(4) 0.5526(19) -0.0711(7)
C4 C 0.1524(3) 0.4480(16) 0.0083(6)
H6 H 0.1385(3) 0.3935(16) 0.0142(6)
C5 C 0.1704(3) 0.4315(16) 0.0502(7)
C6 C 0.1691(3) 0.3278(18) 0.1045(6)
C7 C 0.1879(3) 0.3169(15) 0.1456(6)
H7 H 0.2015(3) 0.3751(15) 0.1408(6)
C8 C 0.1859(3) 0.2152(18) 0.1948(6)
C9 C 0.1658(3) 0.1369(17) 0.1993(6)
H8 H 0.1642(3) 0.0679(17) 0.2319(6)
C10 C 0.1474(3) 0.1563(21) 0.1565(8)
C11 C 0.1980(2) 0.1126(16) 0.3137(5)
H9 H 0.1824(2) 0.1508(16) 0.3245(5)
H10 H 0.1967(2) 0.0074(16) 0.3049(5)
N14 N 0.1590(2) 0.8620(15) 0.0722(6)
C12 C 0.2157(3) 0.1399(19) 0.3690(6)
C13 C 0.2372(6) 0.0622(39) 0.3614(12)
C15 C 0.1249(4) 0.0810(18) 0.1633(6)
C16 C 0.1069(3) 0.1100(16) 0.1243(6)
H11 H 0.1084(3) 0.1794(16) 0.0918(6)
C17 C 0.0863(3) 0.0350(17) 0.1333(6)
C18 C 0.1029(3) -0.0796(16) 0.2189(6)
C19 C 0.1006(3) -0.1829(16) 0.2721(6)
C20 C 0.0800(3) -0.2586(19) 0.2829(6)
H12 H 0.0676(3) -0.2486(19) 0.2540(6)
C21 C 0.0769(3) -0.3478(21) 0.3340(7)
H13 H 0.0625(3) -0.3964(21) 0.3409(7)
C22 C 0.0950(5) -0.3636(19) 0.3740(7)
H14 H 0.0930(5) -0.4236(19) 0.4096(7)
C23 C 0.1162(3) -0.2971(19) 0.3654(6)
H15 H 0.1288(3) -0.3137(19) 0.3933(6)
C24 C 0.1186(3) -0.2027(16) 0.3138(6)
H16 H 0.1329(3) -0.1523(16) 0.3077(6)
C25 C 0.0646(3) 0.0480(17) 0.0959(6)
H17 H 0.0528(3) -0.0245(17) 0.0960(6)
C26 C 0.0392(3) 0.3098(23) -0.0018(6)
C27 C 0.0546(3) 0.4259(21) 0.0020(6)
H18 H 0.0683(3) 0.4239(21) 0.0267(6)
C28 C 0.0481(3) 0.5466(22) -0.0340(7)
C29 C 0.0151(3) 0.4321(23) -0.0680(6)
C30 C -0.0069(3) 0.4441(21) -0.1067(7)
C31 C -0.0123(6) 0.5855(34) -0.1297(12)
C33 C -0.0317(6) 0.5912(30) -0.1715(12)
C36 C -0.0489(5) 0.4779(32) -0.1687(12)
C38 C -0.0431(6) 0.3533(35) -0.1465(14)
C39 C -0.0234(3) 0.3423(20) -0.1021(7)
H19 H -0.0174(3) 0.2414(20) -0.0955(7)
C40 C 0.0939(3) 0.7969(21) -0.0108(6)
H20 H 0.0888(3) 0.8706(21) -0.0386(6)
C41 C 0.1162(3) 0.8124(19) 0.0234(7)
C42 C 0.1226(3) 0.7412(16) 0.0750(6)
H21 H 0.1123(3) 0.6740(16) 0.0943(6)
C43 C 0.1439(3) 0.7665(18) 0.0993(6)
C44 C 0.1510(3) 0.9308(15) 0.0200(7)
C45 C 0.1678(3) 1.0291(18) -0.0090(7)
C46 C 0.1899(3) 1.0637(20) 0.0182(7)
H22 H 0.1944(3) 1.0205(20) 0.0566(7)
C47 C 0.2053(3) 1.1645(21) -0.0127(10)
H23 H 0.2198(3) 1.1913(21) 0.0055(10)
C48 C 0.1986(4) 1.2198(21) -0.0686(9)
H24 H 0.2087(4) 1.2851(21) -0.0897(9)
C49 C 0.1778(4) 1.1839(20) -0.0953(9)
H25 H 0.1735(4) 1.2271(20) -0.1338(9)
C50 C 0.1628(3) 1.0866(18) -0.0676(7)
H26 H 0.1489(3) 1.0583(18) -0.0885(7)
C51 C 0.1533(3) 0.6943(19) 0.1562(7)
C52 C 0.1748(3) 0.7229(17) 0.1780(6)
H27 H 0.1843(3) 0.7933(17) 0.1581(6)
C53 C 0.1828(3) 0.6507(20) 0.2287(7)
C54 C 0.1692(4) 0.5479(18) 0.2575(6)
H28 H 0.1748(4) 0.4949(18) 0.2923(6)
C55 C 0.1464(3) 0.5235(19) 0.2337(7)
C56 C 0.2256(3) 0.7967(17) 0.2067(8)
C57 C 0.2327(3) 0.7136(22) 0.1452(10)
C58 C 0.2422(5) 0.8210(41) 0.1009(14)
C60 C 0.1299(4) 0.4198(20) 0.2634(7)
C61 C 0.1079(3) 0.3941(19) 0.2388(7)
H29 H 0.1030(3) 0.4445(19) 0.2024(7)
C62 C 0.0928(4) 0.2938(20) 0.2673(8)
H30 H 0.0773(4) 0.2817(20) 0.2527(8)
C63 C 0.1009(4) 0.2131(18) 0.3172(8)
H31 H 0.0917(4) 0.1398(18) 0.3363(8)
C64 C 0.1237(5) 0.2452(20) 0.3383(7)
H32 H 0.1292(5) 0.1930(20) 0.3735(7)
O2 O 0.0378(6) 0.9282(30) -0.0858(12)
C65 C 0.0490(6) 1.0343(37) -0.1233(14)
C66 C 0.0291(8) 1.0410(45) -0.1930(20)
C67 C 0.0102(10) 0.9445(53) -0.1531(25)
C69 C 0.0101(10) 0.9373(45) -0.0783(22)
S3? S 0.2155(3) 0.6746(21) 0.2457(8)
C14? C 0.2385(14) -0.0048(87) 0.3501(32)
C32? C -0.0045(8) 0.5333(49) -0.1604(21)
C34? C -0.0235(13) 0.5280(70) -0.2078(28)
C35? C -0.0448(17) 0.444(10) -0.1922(42)
C37? C -0.0466(9) 0.3499(49) -0.1230(21)
C59? C 0.2406(13) 0.8775(78) 0.0866(29)
O1? O 0.0477(8) 0.8806(46) -0.1369(18)
C68? C 0.0134(8) 0.9148(41) -0.0169(18)
loop_
_geom_bond_atom_site_label_1
_geom_bond_atom_site_label_2
_geom_bond_site_symmetry_1
_geom_bond_site_symmetry_2
S1 C8 1_555 1_555
S2 C53 1_555 1_555
N1 C1 1_555 1_555
N2 C6 1_555 1_555
N3 C15 1_555 1_555
N4 C17 1_555 1_555
N5 N6 1_555 1_555
N6 H1 1_555 1_555
N7 C26 1_555 1_555
N8 C28 1_555 1_555
N9 H2 1_555 1_555
N10 N9 1_555 1_555
N11 C41 1_555 1_555
N12 C51 1_555 1_555
N13 C60 1_555 1_555
C1 H3 1_555 1_555
C2 C1 1_555 1_555
H4 C2 1_555 1_555
C3 C2 1_555 1_555
H5 C3 1_555 1_555
C4 C3 1_555 1_555
H6 C4 1_555 1_555
C5 N1 1_555 1_555
C6 C5 1_555 1_555
C7 C6 1_555 1_555
H7 C7 1_555 1_555
C8 C7 1_555 1_555
C9 C8 1_555 1_555
H8 C9 1_555 1_555
C10 N2 1_555 1_555
C11 S1 1_555 1_555
H9 C11 1_555 1_555
H10 C11 1_555 1_555
N14 C43 1_555 1_555
C12 C11 1_555 1_555
C13 C12 1_555 1_555
C15 C10 1_555 1_555
C16 C15 1_555 1_555
H11 C16 1_555 1_555
C17 C16 1_555 1_555
C18 N3 1_555 1_555
C19 C18 1_555 1_555
C20 C19 1_555 1_555
H12 C20 1_555 1_555
C21 C20 1_555 1_555
H13 C21 1_555 1_555
C22 C21 1_555 1_555
H14 C22 1_555 1_555
C23 C22 1_555 1_555
H15 C23 1_555 1_555
C24 C19 1_555 1_555
H16 C24 1_555 1_555
C25 N5 1_555 1_555
H17 C25 1_555 1_555
C26 N6 1_555 1_555
C27 C26 1_555 1_555
H18 C27 1_555 1_555
C28 N9 1_555 1_555
C29 N7 1_555 1_555
C30 C29 1_555 1_555
C31 C30 1_555 1_555
C33 C31 1_555 1_555
C36 C33 1_555 1_555
C38 C36 1_555 1_555
C39 C30 1_555 1_555
H19 C39 1_555 1_555
C40 N10 1_555 1_555
H20 C40 1_555 1_555
C41 C40 1_555 1_555
C42 C41 1_555 1_555
H21 C42 1_555 1_555
C43 C42 1_555 1_555
C44 N11 1_555 1_555
C45 C44 1_555 1_555
C46 C45 1_555 1_555
H22 C46 1_555 1_555
C47 C46 1_555 1_555
H23 C47 1_555 1_555
C48 C47 1_555 1_555
H24 C48 1_555 1_555
C49 C48 1_555 1_555
H25 C49 1_555 1_555
C50 C45 1_555 1_555
H26 C50 1_555 1_555
C51 C43 1_555 1_555
C52 C51 1_555 1_555
H27 C52 1_555 1_555
C53 C52 1_555 1_555
C54 C53 1_555 1_555
H28 C54 1_555 1_555
C55 N12 1_555 1_555
C56 S2 1_555 1_555
C57 C56 1_555 1_555
C58 C57 1_555 1_555
C60 C55 1_555 1_555
C61 C60 1_555 1_555
H29 C61 1_555 1_555
C62 C61 1_555 1_555
H30 C62 1_555 1_555
C63 C62 1_555 1_555
H31 C63 1_555 1_555
C64 N13 1_555 1_555
H32 C64 1_555 1_555
O2 C65 1_555 1_555
C65 C66 1_555 1_555
C66 C67 1_555 1_555
C67 C69 1_555 1_555
C69 O2 1_555 1_555
N4 C18 1_555 1_555
N8 C29 1_555 1_555
C4 C5 1_555 1_555
C9 C10 1_555 1_555
N14 C44 1_555 1_555
C17 C25 1_555 1_555
C23 C24 1_555 1_555
C27 C28 1_555 1_555
C38 C39 1_555 1_555
C49 C50 1_555 1_555
C54 C55 1_555 1_555
C63 C64 1_555 1_555

#END
