
#######################################################################
#
#                 Cambridge Crystallographic Data Centre
#                                CCDC 
#
#######################################################################
#
# If this CIF has been generated from an entry in the Cambridge 
# Structural Database, then it will include bibliographic, chemical, 
# crystal, experimental, refinement or atomic coordinate data resulting 
# from the CCDC's data processing and validation procedures.
#
#######################################################################

data_QARJUQ
_chemical_formula_moiety         'C21 H28 N2 O4 S1,0.33(C2 H6 O1)'
_chemical_name_systematic        
'(S)-2-((1-(Mesitylammonio)-3-methylbutan-2-yl)carbamoyl)benzenesulfonate ethanol solvate'
_symmetry_cell_setting           rhombohedral
_symmetry_space_group_name_H-M   'R 3'
_symmetry_Int_Tables_number      146
_space_group_name_Hall           'R 3'
loop_
_symmetry_equiv_pos_site_id
_symmetry_equiv_pos_as_xyz
1 x,y,z
2 -y,x-y,z
3 -x+y,-x,z
4 2/3+x,1/3+y,1/3+z
5 2/3-y,1/3+x-y,1/3+z
6 2/3-x+y,1/3-x,1/3+z
7 1/3+x,2/3+y,2/3+z
8 1/3-y,2/3+x-y,2/3+z
9 1/3-x+y,2/3-x,2/3+z
_cell_length_a                   19.8017(8)
_cell_length_b                   19.8017(8)
_cell_length_c                   14.3043(12)
_cell_angle_alpha                90
_cell_angle_beta                 90
_cell_angle_gamma                120
_cell_volume                     4857.38
_exptl_crystal_colour            colorless
_exptl_crystal_description       block
_chemical_melting_point          '196-198 deg.C'
_cell_formula_units_Z            9
loop_
_atom_site_label
_atom_site_type_symbol
_atom_site_fract_x
_atom_site_fract_y
_atom_site_fract_z
S1 S 0.07048(3) 0.45977(2) 0.81011(3)
O1 O 0.06444(8) 0.40992(8) 0.88898(9)
O2 O 0.08962(7) 0.43317(8) 0.72360(9)
O3 O 0.11946(10) 0.54190(8) 0.82756(11)
C1 C -0.02515(12) 0.44433(11) 0.79261(12)
C2 C -0.09097(12) 0.36998(12) 0.79968(13)
C3 C -0.16463(14) 0.36059(15) 0.78557(16)
H1 H -0.2096 0.3104 0.7915
C4 C -0.17267(16) 0.42453(17) 0.76279(18)
H2 H -0.2230 0.4177 0.7516
C5 C -0.10800(16) 0.49745(16) 0.75644(16)
H3 H -0.1139 0.5410 0.7418
C6 C -0.03454(15) 0.50787(13) 0.77115(14)
H4 H 0.0099 0.5586 0.7666
C7 C -0.08621(11) 0.29972(11) 0.82862(12)
O4 O -0.11075(11) 0.26891(9) 0.90481(10)
N1 N -0.05622(9) 0.27235(8) 0.76527(10)
H5 H -0.0406 0.2969 0.7114
C8 C -0.04802(10) 0.20430(10) 0.78062(12)
H6 H -0.0731 0.1803 0.8417
C9 C 0.03790(11) 0.22950(11) 0.78683(12)
H7 H 0.0439 0.1829 0.7825
H8 H 0.0657 0.2638 0.7331
N2 N 0.07502(8) 0.27244(8) 0.87667(10)
H9 H 0.0868 0.3235 0.8712
H10 H 0.0400 0.2501 0.9250
C10 C -0.09030(11) 0.14396(10) 0.70300(13)
H11 H -0.0641 0.1678 0.6423
C11 C -0.17491(12) 0.12524(13) 0.69635(16)
H12 H -0.2005 0.0899 0.6436
H13 H -0.1762 0.1736 0.6868
H14 H -0.2023 0.1002 0.7544
C12 C -0.08645(14) 0.06973(12) 0.71724(17)
H15 H -0.1180 0.0314 0.6694
H16 H -0.1067 0.0482 0.7793
H17 H -0.0322 0.0818 0.7122
C13 C 0.14682(10) 0.27031(10) 0.89873(12)
C14 C 0.13825(11) 0.20059(10) 0.93432(12)
C15 C 0.20612(11) 0.19829(11) 0.95235(12)
H18 H 0.2017 0.1516 0.9767
C16 C 0.27984(11) 0.26115(11) 0.93625(13)
C17 C 0.28536(11) 0.32940(11) 0.90065(13)
H19 H 0.3355 0.3730 0.8890
C18 C 0.21979(10) 0.33556(11) 0.88163(12)
C19 C 0.06044(11) 0.12894(11) 0.95315(14)
H20 H 0.0220 0.1446 0.9689
H21 H 0.0655 0.0998 1.0055
H22 H 0.0432 0.0959 0.8973
C20 C 0.35133(12) 0.25621(13) 0.95765(16)
H23 H 0.3937 0.2910 0.9157
H24 H 0.3400 0.2025 0.9486
H25 H 0.3670 0.2719 1.0226
C21 C 0.22895(12) 0.41128(11) 0.84698(14)
H26 H 0.2838 0.4470 0.8315
H27 H 0.2122 0.4345 0.8958
H28 H 0.1968 0.4017 0.7911
loop_
_geom_bond_atom_site_label_1
_geom_bond_atom_site_label_2
_geom_bond_site_symmetry_1
_geom_bond_site_symmetry_2
S1 O1 1_555 1_555
O2 S1 1_555 1_555
O3 S1 1_555 1_555
C1 S1 1_555 1_555
C2 C1 1_555 1_555
C3 C2 1_555 1_555
H1 C3 1_555 1_555
C4 C3 1_555 1_555
H2 C4 1_555 1_555
C5 C4 1_555 1_555
H3 C5 1_555 1_555
C6 C1 1_555 1_555
H4 C6 1_555 1_555
C7 C2 1_555 1_555
O4 C7 1_555 1_555
N1 C7 1_555 1_555
H5 N1 1_555 1_555
C8 N1 1_555 1_555
H6 C8 1_555 1_555
C9 C8 1_555 1_555
H7 C9 1_555 1_555
H8 C9 1_555 1_555
N2 C9 1_555 1_555
H9 N2 1_555 1_555
H10 N2 1_555 1_555
C10 C8 1_555 1_555
H11 C10 1_555 1_555
C11 C10 1_555 1_555
H12 C11 1_555 1_555
H13 C11 1_555 1_555
H14 C11 1_555 1_555
C12 C10 1_555 1_555
H15 C12 1_555 1_555
H16 C12 1_555 1_555
H17 C12 1_555 1_555
C13 N2 1_555 1_555
C14 C13 1_555 1_555
C15 C14 1_555 1_555
H18 C15 1_555 1_555
C16 C15 1_555 1_555
C17 C16 1_555 1_555
H19 C17 1_555 1_555
C18 C13 1_555 1_555
C19 C14 1_555 1_555
H20 C19 1_555 1_555
H21 C19 1_555 1_555
H22 C19 1_555 1_555
C20 C16 1_555 1_555
H23 C20 1_555 1_555
H24 C20 1_555 1_555
H25 C20 1_555 1_555
C21 C18 1_555 1_555
H26 C21 1_555 1_555
H27 C21 1_555 1_555
H28 C21 1_555 1_555
C5 C6 1_555 1_555
C17 C18 1_555 1_555

#END
