
#######################################################################
#
#                 Cambridge Crystallographic Data Centre
#                                CCDC 
#
#######################################################################
#
# If this CIF has been generated from an entry in the Cambridge 
# Structural Database, then it will include bibliographic, chemical, 
# crystal, experimental, refinement or atomic coordinate data resulting 
# from the CCDC's data processing and validation procedures.
#
#######################################################################

data_QARSEK
_chemical_compound_source        'Prunella vulgaris Linn.'
_chemical_name_common            'Vulgarsin B'
_chemical_formula_moiety         'C31 H44 O6'
_chemical_name_systematic        
'(4,8c-dihydroxy-5-(isobutyryloxy)-3-isopropyl-5a,8-dimethyldodecahydrocyclopenta[3,4]cyclobuta[1,2-e]inden-3a(1H)-yl)methyl benzoate'
_chemical_properties_biological  
'tested for cytotoxic activity against human lung cancer (A549), leukemic (K562) and cervical carcinoma (HeLa 60) cell lines'
_symmetry_cell_setting           monoclinic
_symmetry_space_group_name_H-M   'P 21'
_symmetry_Int_Tables_number      4
_space_group_name_Hall           'P 2yb'
loop_
_symmetry_equiv_pos_site_id
_symmetry_equiv_pos_as_xyz
1 x,y,z
2 -x,1/2+y,-z
_cell_length_a                   10.012(5)
_cell_length_b                   24.056(8)
_cell_length_c                   12.345(4)
_cell_angle_alpha                90
_cell_angle_beta                 106.65
_cell_angle_gamma                90
_cell_volume                     2848.62
_exptl_crystal_colour            colorless
_exptl_crystal_description       Prism
_cell_formula_units_Z            4
loop_
_atom_site_label
_atom_site_type_symbol
_atom_site_fract_x
_atom_site_fract_y
_atom_site_fract_z
O1 O 0.3245(4) -0.22278(15) 0.9705(4)
O2 O 0.3278(5) -0.31182(17) 0.9197(7)
O3 O 0.2912(4) -0.19511(16) 0.7536(4)
H1 H 0.363(7) -0.170(3) 0.779(6)
O4 O -0.1710(3) -0.11997(13) 0.7235(3)
H2 H -0.133(6) -0.0890(14) 0.738(6)
O5 O 0.0804(3) -0.06573(11) 0.7124(3)
O6 O 0.0597(3) -0.01697(13) 0.5522(2)
C1 C -0.0309(5) -0.1579(2) 0.9023(4)
H3 H -0.1130 -0.1638 0.9291
C2 C 0.0465(5) -0.1053(2) 0.9596(4)
H4 H 0.0860 -0.0831 0.9097
C3 C -0.0222(6) -0.0703(3) 1.0317(4)
H5 H 0.0374 -0.0379 1.0582
C4 C -0.0155(7) -0.1064(3) 1.1340(5)
H6 H -0.0246 -0.0841 1.1970
H7 H -0.0881 -0.1344 1.1164
C5 C 0.1275(6) -0.1325(3) 1.1599(5)
H8 H 0.1295 -0.1676 1.1993
H9 H 0.1974 -0.1080 1.2069
C6 C 0.1559(5) -0.1421(2) 1.0443(5)
H10 H 0.2524 -0.1346 1.0450
C7 C 0.0912(5) -0.1945(2) 0.9740(5)
C8 C 0.1827(5) -0.2148(2) 0.9008(6)
H11 H 0.1463 -0.2504 0.8663
C9 C 0.1914(5) -0.17418(18) 0.8065(5)
H12 H 0.2235 -0.1380 0.8405
C10 C 0.0503(5) -0.16632(17) 0.7155(5)
C11 C -0.0746(5) -0.16311(18) 0.7728(5)
C12 C -0.1599(5) -0.2162(2) 0.7337(5)
H13 H -0.1253 -0.2465 0.7860
H14 H -0.2575 -0.2101 0.7278
C13 C -0.1407(5) -0.2288(2) 0.6187(6)
H15 H -0.1943 -0.2034 0.5615
H16 H -0.1676 -0.2667 0.5957
C14 C 0.0148(5) -0.2202(2) 0.6394(5)
H17 H 0.0591 -0.2508 0.6890
C15 C -0.1665(7) -0.0490(3) 0.9710(5)
H18 H -0.1622 -0.0267 0.9076
H19 H -0.2008 -0.0269 1.0220
H20 H -0.2280 -0.0799 0.9449
C16 C 0.0531(6) -0.2415(2) 1.0424(7)
H21 H 0.0138 -0.2718 0.9930
H22 H -0.0139 -0.2283 1.0786
H23 H 0.1353 -0.2539 1.0987
C17 C 0.0572(5) -0.11605(19) 0.6433(4)
H24 H 0.1324 -0.1207 0.6091
H25 H -0.0294 -0.1127 0.5831
C18 C 0.0682(7) -0.2256(3) 0.5337(7)
H26 H 0.1558 -0.2049 0.5488
C19 C 0.0998(8) -0.2861(3) 0.5168(8)
H27 H 0.1349 -0.2893 0.4524
H28 H 0.0162 -0.3076 0.5045
H29 H 0.1686 -0.2995 0.5829
C20 C -0.0302(9) -0.2025(3) 0.4266(7)
H30 H 0.0101 -0.2070 0.3653
H31 H -0.0458 -0.1637 0.4367
H32 H -0.1172 -0.2221 0.4097
C21 C 0.3868(6) -0.2711(2) 0.9641(8)
C22 C 0.5423(6) -0.2712(3) 1.0081(6)
H33 H 0.5685 -0.3057 1.0512
C23 C 0.6113(6) -0.2731(4) 0.9091(6)
H34 H 0.7109 -0.2739 0.9398
H35 H 0.5843 -0.2408 0.8624
H36 H 0.5810 -0.3060 0.8646
C24 C 0.5873(10) -0.2263(5) 1.0865(9)
H37 H 0.5407 -0.2286 1.1443
H38 H 0.5652 -0.1916 1.0473
H39 H 0.6862 -0.2288 1.1204
C25 C 0.0797(4) -0.01819(17) 0.6557(4)
C26 C 0.1061(4) 0.03239(16) 0.7272(3)
C27 C 0.0992(5) 0.08383(18) 0.6741(4)
H40 H 0.0796 0.0856 0.5959
C28 C 0.1211(6) 0.13213(19) 0.7368(4)
H41 H 0.1147 0.1663 0.7004
C29 C 0.1523(4) 0.13012(17) 0.8526(4)
H42 H 0.1689 0.1628 0.8947
C30 C 0.1588(5) 0.0798(2) 0.9058(4)
H43 H 0.1773 0.0785 0.9840
C31 C 0.1383(5) 0.03115(18) 0.8444(4)
H44 H 0.1461 -0.0028 0.8817
O7 O 0.2327(3) 0.07851(14) 0.3885(2)
O8 O 0.2171(4) 0.0566(3) 0.2061(3)
O9 O 0.2664(3) -0.03195(15) 0.4428(3)
H45 H 0.187(6) -0.026(2) 0.443(5)
O10 O 0.7473(3) 0.00295(10) 0.6626(2)
H46 H 0.719(8) 0.020(3) 0.710(6)
O11 O 0.5144(3) -0.02875(10) 0.7397(2)
O12 O 0.4782(4) -0.10885(13) 0.8207(3)
C32 C 0.5982(3) 0.07990(14) 0.5759(3)
H47 H 0.6793 0.1033 0.5787
C33 C 0.5363(4) 0.09785(15) 0.6722(3)
H48 H 0.5009 0.0667 0.7072
C34 C 0.6186(4) 0.14022(15) 0.7572(3)
H49 H 0.5704 0.1455 0.8152
C35 C 0.6021(5) 0.19362(16) 0.6868(4)
H50 H 0.6186 0.2262 0.7350
H51 H 0.6660 0.1940 0.6408
C36 C 0.4506(5) 0.19148(18) 0.6130(4)
H52 H 0.4388 0.2134 0.5450
H53 H 0.3885 0.2057 0.6539
C37 C 0.4203(4) 0.13006(17) 0.5834(3)
H54 H 0.3259 0.1188 0.5824
C38 C 0.4694(4) 0.10369(16) 0.4851(3)
C39 C 0.3727(4) 0.05627(17) 0.4260(3)
H55 H 0.4007 0.0439 0.3601
C40 C 0.3695(4) 0.00606(17) 0.5017(3)
H56 H 0.3460 0.0189 0.5693
C41 C 0.5131(3) -0.02402(14) 0.5388(3)
C42 C 0.6366(3) 0.01925(14) 0.5638(3)
C43 C 0.6994(4) 0.01244(17) 0.4648(3)
H57 H 0.6506 0.0356 0.4014
H58 H 0.7973 0.0226 0.4875
C44 C 0.6816(5) -0.04805(19) 0.4336(4)
H59 H 0.7520 -0.0703 0.4860
H60 H 0.6885 -0.0540 0.3577
C45 C 0.5342(4) -0.06315(16) 0.4409(3)
H61 H 0.4676 -0.0509 0.3701
C46 C 0.7682(5) 0.12395(17) 0.8159(4)
H62 H 0.7694 0.0903 0.8581
H63 H 0.8128 0.1532 0.8663
H64 H 0.8172 0.1180 0.7604
C47 C 0.4966(5) 0.14328(18) 0.3986(4)
H65 H 0.5258 0.1226 0.3428
H66 H 0.5685 0.1690 0.4355
H67 H 0.4127 0.1633 0.3625
C48 C 0.5155(4) -0.06172(16) 0.6403(3)
H68 H 0.4349 -0.0861 0.6205
H69 H 0.5985 -0.0847 0.6580
C49 C 0.5219(6) -0.12734(18) 0.4461(4)
H70 H 0.5917 -0.1404 0.5144
C50 C 0.5571(8) -0.1524(2) 0.3437(5)
H71 H 0.5498 -0.1922 0.3458
H72 H 0.6505 -0.1423 0.3456
H73 H 0.4931 -0.1385 0.2755
C51 C 0.3809(6) -0.1514(2) 0.4464(5)
H74 H 0.3863 -0.1912 0.4485
H75 H 0.3111 -0.1398 0.3792
H76 H 0.3566 -0.1382 0.5117
C52 C 0.1641(5) 0.0762(3) 0.2748(4)
C53 C 0.0216(5) 0.0991(3) 0.2512(4)
H77 H 0.0241 0.1337 0.2937
C54 C -0.0751(6) 0.0583(6) 0.2823(8)
H78 H -0.0424 0.0505 0.3618
H79 H -0.0777 0.0246 0.2403
H80 H -0.1671 0.0740 0.2647
C55 C -0.0344(8) 0.1108(4) 0.1248(6)
H81 H 0.0251 0.1372 0.1030
H82 H -0.1270 0.1258 0.1085
H83 H -0.0365 0.0769 0.0833
C56 C 0.4931(4) -0.05940(16) 0.8260(3)
C57 C 0.4895(4) -0.02543(17) 0.9258(3)
C58 C 0.4459(6) -0.0514(2) 1.0101(4)
H84 H 0.4208 -0.0888 1.0032
C59 C 0.4398(7) -0.0214(3) 1.1049(4)
H85 H 0.4063 -0.0383 1.1596
C60 C 0.4824(6) 0.0326(2) 1.1185(4)
H86 H 0.4801 0.0519 1.1832
C61 C 0.5293(5) 0.05881(18) 1.0359(3)
H87 H 0.5596 0.0955 1.0456
C62 C 0.5305(5) 0.02975(17) 0.9384(3)
H88 H 0.5589 0.0475 0.8818
loop_
_geom_bond_atom_site_label_1
_geom_bond_atom_site_label_2
_geom_bond_site_symmetry_1
_geom_bond_site_symmetry_2
O1 C8 1_555 1_555
O2 C21 1_555 1_555
O3 H1 1_555 1_555
O4 H2 1_555 1_555
O5 C17 1_555 1_555
O6 C25 1_555 1_555
C1 H3 1_555 1_555
C2 C1 1_555 1_555
H4 C2 1_555 1_555
C3 C2 1_555 1_555
H5 C3 1_555 1_555
C4 C3 1_555 1_555
H6 C4 1_555 1_555
H7 C4 1_555 1_555
C5 C4 1_555 1_555
H8 C5 1_555 1_555
H9 C5 1_555 1_555
C6 C2 1_555 1_555
H10 C6 1_555 1_555
C7 C1 1_555 1_555
C8 C7 1_555 1_555
H11 C8 1_555 1_555
C9 O3 1_555 1_555
H12 C9 1_555 1_555
C10 C9 1_555 1_555
C11 O4 1_555 1_555
C12 C11 1_555 1_555
H13 C12 1_555 1_555
H14 C12 1_555 1_555
C13 C12 1_555 1_555
H15 C13 1_555 1_555
H16 C13 1_555 1_555
C14 C10 1_555 1_555
H17 C14 1_555 1_555
C15 C3 1_555 1_555
H18 C15 1_555 1_555
H19 C15 1_555 1_555
H20 C15 1_555 1_555
C16 C7 1_555 1_555
H21 C16 1_555 1_555
H22 C16 1_555 1_555
H23 C16 1_555 1_555
C17 C10 1_555 1_555
H24 C17 1_555 1_555
H25 C17 1_555 1_555
C18 C14 1_555 1_555
H26 C18 1_555 1_555
C19 C18 1_555 1_555
H27 C19 1_555 1_555
H28 C19 1_555 1_555
H29 C19 1_555 1_555
C20 C18 1_555 1_555
H30 C20 1_555 1_555
H31 C20 1_555 1_555
H32 C20 1_555 1_555
C21 O1 1_555 1_555
C22 C21 1_555 1_555
H33 C22 1_555 1_555
C23 C22 1_555 1_555
H34 C23 1_555 1_555
H35 C23 1_555 1_555
H36 C23 1_555 1_555
C24 C22 1_555 1_555
H37 C24 1_555 1_555
H38 C24 1_555 1_555
H39 C24 1_555 1_555
C25 O5 1_555 1_555
C26 C25 1_555 1_555
C27 C26 1_555 1_555
H40 C27 1_555 1_555
C28 C27 1_555 1_555
H41 C28 1_555 1_555
C29 C28 1_555 1_555
H42 C29 1_555 1_555
C30 C29 1_555 1_555
H43 C30 1_555 1_555
C31 C26 1_555 1_555
H44 C31 1_555 1_555
O7 C39 1_555 1_555
O8 C52 1_555 1_555
O9 H45 1_555 1_555
O10 H46 1_555 1_555
O11 C48 1_555 1_555
O12 C56 1_555 1_555
C32 H47 1_555 1_555
C33 C32 1_555 1_555
H48 C33 1_555 1_555
C34 C33 1_555 1_555
H49 C34 1_555 1_555
C35 C34 1_555 1_555
H50 C35 1_555 1_555
H51 C35 1_555 1_555
C36 C35 1_555 1_555
H52 C36 1_555 1_555
H53 C36 1_555 1_555
C37 C33 1_555 1_555
H54 C37 1_555 1_555
C38 C32 1_555 1_555
C39 C38 1_555 1_555
H55 C39 1_555 1_555
C40 O9 1_555 1_555
H56 C40 1_555 1_555
C41 C40 1_555 1_555
C42 O10 1_555 1_555
C43 C42 1_555 1_555
H57 C43 1_555 1_555
H58 C43 1_555 1_555
C44 C43 1_555 1_555
H59 C44 1_555 1_555
H60 C44 1_555 1_555
C45 C41 1_555 1_555
H61 C45 1_555 1_555
C46 C34 1_555 1_555
H62 C46 1_555 1_555
H63 C46 1_555 1_555
H64 C46 1_555 1_555
C47 C38 1_555 1_555
H65 C47 1_555 1_555
H66 C47 1_555 1_555
H67 C47 1_555 1_555
C48 C41 1_555 1_555
H68 C48 1_555 1_555
H69 C48 1_555 1_555
C49 C45 1_555 1_555
H70 C49 1_555 1_555
C50 C49 1_555 1_555
H71 C50 1_555 1_555
H72 C50 1_555 1_555
H73 C50 1_555 1_555
C51 C49 1_555 1_555
H74 C51 1_555 1_555
H75 C51 1_555 1_555
H76 C51 1_555 1_555
C52 O7 1_555 1_555
C53 C52 1_555 1_555
H77 C53 1_555 1_555
C54 C53 1_555 1_555
H78 C54 1_555 1_555
H79 C54 1_555 1_555
H80 C54 1_555 1_555
C55 C53 1_555 1_555
H81 C55 1_555 1_555
H82 C55 1_555 1_555
H83 C55 1_555 1_555
C56 O11 1_555 1_555
C57 C56 1_555 1_555
C58 C57 1_555 1_555
H84 C58 1_555 1_555
C59 C58 1_555 1_555
H85 C59 1_555 1_555
C60 C59 1_555 1_555
H86 C60 1_555 1_555
C61 C60 1_555 1_555
H87 C61 1_555 1_555
C62 C57 1_555 1_555
H88 C62 1_555 1_555
C1 C11 1_555 1_555
C5 C6 1_555 1_555
C6 C7 1_555 1_555
C8 C9 1_555 1_555
C10 C11 1_555 1_555
C13 C14 1_555 1_555
C30 C31 1_555 1_555
C32 C42 1_555 1_555
C36 C37 1_555 1_555
C37 C38 1_555 1_555
C39 C40 1_555 1_555
C41 C42 1_555 1_555
C44 C45 1_555 1_555
C61 C62 1_555 1_555

#END
