
#######################################################################
#
#                 Cambridge Crystallographic Data Centre
#                                CCDC 
#
#######################################################################
#
# If this CIF has been generated from an entry in the Cambridge 
# Structural Database, then it will include bibliographic, chemical, 
# crystal, experimental, refinement or atomic coordinate data resulting 
# from the CCDC's data processing and validation procedures.
#
#######################################################################

data_QARTIP
_chemical_compound_source        'Nodulisporium sp. IFB-A163'
_chemical_name_common            Nodupeptide
_chemical_formula_moiety         'C28 H49 N5 O7'
_chemical_name_systematic        
19-sec-butyl-9-isobutyl-3,12-diisopropyl-6-methyl-1-oxa-4,7,10,13,16-pentaazacyclononadecane-2,5,8,11,14,17-hexone
_chemical_properties_biological  
'insecticidal against rice brown planthopper (Nilaparvata lugens)'
_symmetry_cell_setting           monoclinic
_symmetry_space_group_name_H-M   'P 21'
_symmetry_Int_Tables_number      4
_space_group_name_Hall           'P 2yb'
loop_
_symmetry_equiv_pos_site_id
_symmetry_equiv_pos_as_xyz
1 x,y,z
2 -x,1/2+y,-z
_cell_length_a                   16.597(3)
_cell_length_b                   9.428(2)
_cell_length_c                   21.918(5)
_cell_angle_alpha                90
_cell_angle_beta                 109.689(14)
_cell_angle_gamma                90
_cell_volume                     3229.14
_exptl_crystal_colour            colorless
_exptl_crystal_description       plate
_cell_formula_units_Z            4
loop_
_atom_site_label
_atom_site_type_symbol
_atom_site_fract_x
_atom_site_fract_y
_atom_site_fract_z
O1 O -0.7423(11) -0.4680(13) -0.9293(8)
O2 O -0.7981(7) -0.2628(10) -0.9766(6)
O3 O -0.5372(8) -0.1713(12) -0.8686(7)
O4 O -0.3104(8) -0.4783(12) -0.7550(6)
O5 O -0.3189(8) -0.5253(9) -0.9276(6)
O6 O -0.4906(8) -0.2351(11) -1.0000(8)
O7 O -0.7381(8) -0.5253(10) -1.0807(8)
N1 N -0.6188(8) -0.3208(14) -0.8329(7)
H1 H -0.6145 -0.3885 -0.8057
N2 N -0.3999(9) -0.3372(13) -0.8309(7)
H2 H -0.4034 -0.2666 -0.8565
N3 N -0.2811(7) -0.3066(11) -0.8905(6)
H3 H -0.2784 -0.2186 -0.9000
N4 N -0.4280(7) -0.4002(11) -1.0404(7)
H4 H -0.4337 -0.4728 -1.0651
N5 N -0.6505(7) -0.3382(11) -1.0647(6)
H5 H -0.6436 -0.2480 -1.0602
C1 C -0.7488(10) -0.3391(15) -0.9255(8)
C2 C -0.7028(11) -0.2565(16) -0.8644(8)
H6 H -0.6915 -0.1626 -0.8790
C3 C -0.7523(13) -0.2313(19) -0.8222(10)
H7 H -0.7190 -0.1701 -0.7865
C4 C -0.8371(11) -0.160(3) -0.8567(10)
H8 H -0.8760 -0.2279 -0.8840
H9 H -0.8286 -0.0834 -0.8827
H10 H -0.8606 -0.1239 -0.8254
C5 C -0.7683(14) -0.374(2) -0.7938(11)
H11 H -0.7333 -0.3797 -0.7490
H12 H -0.7541 -0.4507 -0.8172
H13 H -0.8275 -0.3809 -0.7976
C6 C -0.5488(9) -0.2795(16) -0.8445(9)
C7 C -0.4762(10) -0.3869(15) -0.8223(9)
H14 H -0.4636 -0.4027 -0.7758
C8 C -0.5017(12) -0.5336(16) -0.8573(11)
H15 H -0.4510 -0.5834 -0.8567
H16 H -0.5377 -0.5183 -0.9013
H17 H -0.5321 -0.5888 -0.8352
C9 C -0.3231(11) -0.3946(14) -0.8014(9)
C10 C -0.2512(9) -0.3502(15) -0.8242(8)
H18 H -0.2143 -0.4331 -0.8208
C11 C -0.1955(10) -0.2314(14) -0.7790(8)
H19 H -0.2299 -0.1462 -0.7838
H20 H -0.1802 -0.2622 -0.7343
C12 C -0.1171(13) -0.197(2) -0.7924(11)
H21 H -0.1340 -0.1714 -0.8384
C13 C -0.0575(18) -0.312(3) -0.7817(15)
H22 H -0.0583 -0.3496 -0.8227
H23 H -0.0736 -0.3857 -0.7576
H24 H -0.0010 -0.2793 -0.7578
C14 C -0.0737(17) -0.061(2) -0.7522(12)
H25 H -0.0722 -0.0707 -0.7082
H26 H -0.1063 0.0220 -0.7711
H27 H -0.0165 -0.0512 -0.7529
C15 C -0.3124(9) -0.3992(15) -0.9371(9)
C16 C -0.3448(9) -0.3416(14) -1.0090(7)
H28 H -0.3488 -0.2379 -1.0085
C17 C -0.2796(11) -0.3857(15) -1.0424(9)
H29 H -0.2736 -0.4891 -1.0411
C18 C -0.3152(13) -0.3371(18) -1.1118(9)
H30 H -0.3425 -0.2466 -1.1137
H31 H -0.3563 -0.4050 -1.1366
H32 H -0.2696 -0.3287 -1.1292
C19 C -0.1921(12) -0.317(2) -1.0044(10)
H33 H -0.1703 -0.3576 -0.9618
H34 H -0.1994 -0.2167 -1.0010
H35 H -0.1525 -0.3344 -1.0269
C20 C -0.4983(10) -0.3425(14) -1.0315(8)
C21 C -0.5792(9) -0.4289(16) -1.0587(8)
H36 H -0.5833 -0.4670 -1.1007
H37 H -0.5786 -0.5074 -1.0300
C22 C -0.7294(10) -0.3965(14) -1.0778(9)
C23 C -0.8031(9) -0.2974(15) -1.0860(9)
H38 H -0.8433 -0.3044 -1.1298
H39 H -0.7824 -0.2005 -1.0788
C24 C -0.8487(11) -0.3359(16) -1.0370(8)
H40 H -0.8479 -0.4387 -1.0302
C25 C -0.9390(11) -0.2793(18) -1.0552(10)
H41 H -0.9561 -0.2893 -1.0168
C26 C -1.0000(11) -0.372(2) -1.1081(10)
H42 H -0.9886 -0.3592 -1.1479
H43 H -1.0580 -0.3453 -1.1144
H44 H -0.9916 -0.4698 -1.0953
C27 C -0.9465(12) -0.1234(16) -1.0725(10)
H45 H -0.9406 -0.1117 -1.1148
H46 H -0.8997 -0.0727 -1.0413
C28 C -1.0342(18) -0.055(3) -1.0738(15)
H47 H -1.0317 -0.0345 -1.0303
H48 H -1.0800 -0.1203 -1.0933
H49 H -1.0439 0.0311 -1.0986
O8 O -0.3700(13) -0.5992(15) -0.5976(8)
O9 O -0.3340(7) -0.8028(9) -0.5454(6)
O10 O -0.1666(7) -0.8929(10) -0.6297(6)
O11 O -0.0283(9) -0.6748(15) -0.7500(6)
O12 O 0.1180(7) -0.5331(8) -0.5637(6)
O13 O 0.0043(7) -0.8031(10) -0.5036(7)
O14 O -0.1946(7) -0.5360(11) -0.4446(7)
N6 N -0.2704(8) -0.7267(12) -0.6693(7)
H50 H -0.2824 -0.6467 -0.6892
N7 N -0.0440(9) -0.7353(11) -0.6567(7)
H51 H -0.0246 -0.7903 -0.6237
N8 N 0.1282(7) -0.7560(11) -0.5933(7)
H52 H 0.1411 -0.8421 -0.5810
N9 N 0.1059(8) -0.6503(11) -0.4474(6)
H53 H 0.1210 -0.5857 -0.4180
N10 N -0.1055(8) -0.7148(11) -0.4429(6)
H54 H -0.0985 -0.8052 -0.4423
C29 C -0.3504(11) -0.7210(16) -0.5956(10)
C30 C -0.3357(10) -0.7961(16) -0.6544(8)
H55 H -0.3187 -0.8947 -0.6427
C31 C -0.4203(14) -0.794(3) -0.7138(12)
H56 H -0.4365 -0.6964 -0.7274
C32 C -0.4925(14) -0.868(3) -0.6984(11)
H57 H -0.5137 -0.8064 -0.6723
H58 H -0.4717 -0.9540 -0.6752
H59 H -0.5379 -0.8894 -0.7380
C33 C -0.4005(16) -0.874(2) -0.7676(12)
H60 H -0.3928 -0.9731 -0.7567
H61 H -0.3492 -0.8370 -0.7724
H62 H -0.4472 -0.8631 -0.8075
C34 C -0.1900(10) -0.7761(16) -0.6549(9)
C35 C -0.1264(10) -0.6724(14) -0.6688(7)
H63 H -0.1491 -0.6496 -0.7151
C36 C -0.1212(11) -0.5316(15) -0.6314(9)
H64 H -0.0731 -0.4774 -0.6333
H65 H -0.1144 -0.5518 -0.5871
H66 H -0.1728 -0.4783 -0.6508
C37 C 0.0028(10) -0.7146(15) -0.6921(10)
C38 C 0.1014(9) -0.7260(15) -0.6613(8)
H67 H 0.1249 -0.6329 -0.6660
C39 C 0.1412(11) -0.8341(16) -0.6954(8)
H68 H 0.1260 -0.9288 -0.6858
H69 H 0.1162 -0.8202 -0.7419
C40 C 0.2374(12) -0.8256(19) -0.6766(10)
H70 H 0.2588 -0.8420 -0.6297
C41 C 0.2679(13) -0.950(2) -0.7046(13)
H71 H 0.3018 -0.9182 -0.7298
H72 H 0.2195 -1.0027 -0.7319
H73 H 0.3019 -1.0104 -0.6702
C42 C 0.2720(17) -0.690(2) -0.6850(15)
H74 H 0.2621 -0.6228 -0.6553
H75 H 0.2445 -0.6576 -0.7286
H76 H 0.3324 -0.6989 -0.6766
C43 C 0.1341(9) -0.6566(14) -0.5475(7)
C44 C 0.1660(8) -0.7074(14) -0.4778(8)
H77 H 0.1649 -0.8113 -0.4768
C45 C 0.2564(9) -0.6549(15) -0.4423(9)
H78 H 0.2553 -0.5510 -0.4416
C46 C 0.2905(12) -0.7080(19) -0.3715(9)
H79 H 0.2774 -0.8069 -0.3703
H80 H 0.2638 -0.6553 -0.3460
H81 H 0.3513 -0.6947 -0.3543
C47 C 0.3161(10) -0.702(2) -0.4795(9)
H82 H 0.2892 -0.6818 -0.5248
H83 H 0.3269 -0.8017 -0.4735
H84 H 0.3691 -0.6508 -0.4632
C48 C 0.0281(9) -0.7035(14) -0.4676(8)
C49 C -0.0364(9) -0.6262(13) -0.4432(9)
H85 H -0.0073 -0.5919 -0.3996
H86 H -0.0589 -0.5447 -0.4707
C50 C -0.1799(9) -0.6650(13) -0.4434(8)
C51 C -0.2453(10) -0.7697(15) -0.4364(9)
H87 H -0.2473 -0.7629 -0.3928
H88 H -0.2267 -0.8649 -0.4420
C52 C -0.3354(10) -0.7472(14) -0.4845(10)
H89 H -0.3486 -0.6456 -0.4889
C53 C -0.4027(11) -0.8264(18) -0.4618(10)
H90 H -0.3833 -0.9241 -0.4505
C54 C -0.4896(14) -0.829(3) -0.5211(11)
H91 H -0.5081 -0.7341 -0.5337
H92 H -0.5325 -0.8781 -0.5087
H93 H -0.4810 -0.8780 -0.5569
C55 C -0.4130(13) -0.758(3) -0.4046(12)
H94 H -0.4435 -0.6689 -0.4180
H95 H -0.3568 -0.7351 -0.3742
C56 C -0.4621(14) -0.849(3) -0.3690(11)
H96 H -0.4580 -0.8049 -0.3286
H97 H -0.4374 -0.9422 -0.3609
H98 H -0.5212 -0.8563 -0.3956
loop_
_geom_bond_atom_site_label_1
_geom_bond_atom_site_label_2
_geom_bond_site_symmetry_1
_geom_bond_site_symmetry_2
O1 C1 1_555 1_555
O2 C1 1_555 1_555
O3 C6 1_555 1_555
O4 C9 1_555 1_555
O5 C15 1_555 1_555
O6 C20 1_555 1_555
O7 C22 1_555 1_555
N1 H1 1_555 1_555
N2 H2 1_555 1_555
N3 H3 1_555 1_555
N4 H4 1_555 1_555
N5 H5 1_555 1_555
C1 C2 1_555 1_555
C2 N1 1_555 1_555
H6 C2 1_555 1_555
C3 C2 1_555 1_555
H7 C3 1_555 1_555
C4 C3 1_555 1_555
H8 C4 1_555 1_555
H9 C4 1_555 1_555
H10 C4 1_555 1_555
C5 C3 1_555 1_555
H11 C5 1_555 1_555
H12 C5 1_555 1_555
H13 C5 1_555 1_555
C6 N1 1_555 1_555
C7 N2 1_555 1_555
H14 C7 1_555 1_555
C8 C7 1_555 1_555
H15 C8 1_555 1_555
H16 C8 1_555 1_555
H17 C8 1_555 1_555
C9 N2 1_555 1_555
C10 N3 1_555 1_555
H18 C10 1_555 1_555
C11 C10 1_555 1_555
H19 C11 1_555 1_555
H20 C11 1_555 1_555
C12 C11 1_555 1_555
H21 C12 1_555 1_555
C13 C12 1_555 1_555
H22 C13 1_555 1_555
H23 C13 1_555 1_555
H24 C13 1_555 1_555
C14 C12 1_555 1_555
H25 C14 1_555 1_555
H26 C14 1_555 1_555
H27 C14 1_555 1_555
C15 N3 1_555 1_555
C16 N4 1_555 1_555
H28 C16 1_555 1_555
C17 C16 1_555 1_555
H29 C17 1_555 1_555
C18 C17 1_555 1_555
H30 C18 1_555 1_555
H31 C18 1_555 1_555
H32 C18 1_555 1_555
C19 C17 1_555 1_555
H33 C19 1_555 1_555
H34 C19 1_555 1_555
H35 C19 1_555 1_555
C20 N4 1_555 1_555
C21 N5 1_555 1_555
H36 C21 1_555 1_555
H37 C21 1_555 1_555
C22 N5 1_555 1_555
C23 C22 1_555 1_555
H38 C23 1_555 1_555
H39 C23 1_555 1_555
C24 O2 1_555 1_555
H40 C24 1_555 1_555
C25 C24 1_555 1_555
H41 C25 1_555 1_555
C26 C25 1_555 1_555
H42 C26 1_555 1_555
H43 C26 1_555 1_555
H44 C26 1_555 1_555
C27 C25 1_555 1_555
H45 C27 1_555 1_555
H46 C27 1_555 1_555
C28 C27 1_555 1_555
H47 C28 1_555 1_555
H48 C28 1_555 1_555
H49 C28 1_555 1_555
O8 C29 1_555 1_555
O9 C29 1_555 1_555
O10 C34 1_555 1_555
O11 C37 1_555 1_555
O12 C43 1_555 1_555
O13 C48 1_555 1_555
O14 C50 1_555 1_555
N6 H50 1_555 1_555
N7 H51 1_555 1_555
N8 H52 1_555 1_555
N9 H53 1_555 1_555
N10 H54 1_555 1_555
C29 C30 1_555 1_555
C30 N6 1_555 1_555
H55 C30 1_555 1_555
C31 C30 1_555 1_555
H56 C31 1_555 1_555
C32 C31 1_555 1_555
H57 C32 1_555 1_555
H58 C32 1_555 1_555
H59 C32 1_555 1_555
C33 C31 1_555 1_555
H60 C33 1_555 1_555
H61 C33 1_555 1_555
H62 C33 1_555 1_555
C34 N6 1_555 1_555
C35 N7 1_555 1_555
H63 C35 1_555 1_555
C36 C35 1_555 1_555
H64 C36 1_555 1_555
H65 C36 1_555 1_555
H66 C36 1_555 1_555
C37 N7 1_555 1_555
C38 N8 1_555 1_555
H67 C38 1_555 1_555
C39 C38 1_555 1_555
H68 C39 1_555 1_555
H69 C39 1_555 1_555
C40 C39 1_555 1_555
H70 C40 1_555 1_555
C41 C40 1_555 1_555
H71 C41 1_555 1_555
H72 C41 1_555 1_555
H73 C41 1_555 1_555
C42 C40 1_555 1_555
H74 C42 1_555 1_555
H75 C42 1_555 1_555
H76 C42 1_555 1_555
C43 N8 1_555 1_555
C44 N9 1_555 1_555
H77 C44 1_555 1_555
C45 C44 1_555 1_555
H78 C45 1_555 1_555
C46 C45 1_555 1_555
H79 C46 1_555 1_555
H80 C46 1_555 1_555
H81 C46 1_555 1_555
C47 C45 1_555 1_555
H82 C47 1_555 1_555
H83 C47 1_555 1_555
H84 C47 1_555 1_555
C48 N9 1_555 1_555
C49 N10 1_555 1_555
H85 C49 1_555 1_555
H86 C49 1_555 1_555
C50 N10 1_555 1_555
C51 C50 1_555 1_555
H87 C51 1_555 1_555
H88 C51 1_555 1_555
C52 O9 1_555 1_555
H89 C52 1_555 1_555
C53 C52 1_555 1_555
H90 C53 1_555 1_555
C54 C53 1_555 1_555
H91 C54 1_555 1_555
H92 C54 1_555 1_555
H93 C54 1_555 1_555
C55 C53 1_555 1_555
H94 C55 1_555 1_555
H95 C55 1_555 1_555
C56 C55 1_555 1_555
H96 C56 1_555 1_555
H97 C56 1_555 1_555
H98 C56 1_555 1_555
C6 C7 1_555 1_555
C9 C10 1_555 1_555
C15 C16 1_555 1_555
C20 C21 1_555 1_555
C23 C24 1_555 1_555
C34 C35 1_555 1_555
C37 C38 1_555 1_555
C43 C44 1_555 1_555
C48 C49 1_555 1_555
C51 C52 1_555 1_555

#END
