
#######################################################################
#
#                 Cambridge Crystallographic Data Centre
#                                CCDC 
#
#######################################################################
#
# If this CIF has been generated from an entry in the Cambridge 
# Structural Database, then it will include bibliographic, chemical, 
# crystal, experimental, refinement or atomic coordinate data resulting 
# from the CCDC's data processing and validation procedures.
#
#######################################################################

data_QARYIU
_chemical_formula_moiety         'C28 H25 O6 P1,C2 H6 O1'
_chemical_name_systematic        
'4,4,7,7-tetraphenyl-1,3,2-dioxaphosphepane-2,5,6-triol 2-oxide ethanol solvate'
_symmetry_cell_setting           monoclinic
_symmetry_space_group_name_H-M   'P 21'
_symmetry_Int_Tables_number      4
_space_group_name_Hall           'P 2yb'
loop_
_symmetry_equiv_pos_site_id
_symmetry_equiv_pos_as_xyz
1 x,y,z
2 -x,1/2+y,-z
_cell_length_a                   12.5539(18)
_cell_length_b                   9.4686(14)
_cell_length_c                   12.5539(18)
_cell_angle_alpha                90
_cell_angle_beta                 113.73
_cell_angle_gamma                90
_cell_volume                     1366.09
_cell_formula_units_Z            2
loop_
_atom_site_label
_atom_site_type_symbol
_atom_site_fract_x
_atom_site_fract_y
_atom_site_fract_z
C1 C 0.59170(18) 1.0224(2) 0.25683(16)
C2 C 0.5984(3) 1.1691(3) 0.2531(2)
H1 H 0.6500 1.2179 0.3175
C3 C 0.5287(3) 1.2432(4) 0.1538(3)
H2 H 0.5348 1.3409 0.1518
C4 C 0.4505(3) 1.1723(4) 0.0582(3)
H3 H 0.4024 1.2224 -0.0073
C5 C 0.4441(3) 1.0289(4) 0.0602(2)
H4 H 0.3934 0.9809 -0.0052
C6 C 0.5133(2) 0.9527(3) 0.1602(2)
H5 H 0.5063 0.8550 0.1614
C7 C 0.66118(16) 0.9371(2) 0.36619(14)
C8 C 0.70388(17) 0.7967(2) 0.33813(16)
C9 C 0.6863(2) 0.6701(2) 0.3846(2)
H6 H 0.6462 0.6697 0.4329
C10 C 0.7283(3) 0.5437(3) 0.3596(3)
H7 H 0.7174 0.4597 0.3923
C11 C 0.7866(3) 0.5426(3) 0.2859(3)
H8 H 0.8142 0.4583 0.2688
C12 C 0.8028(2) 0.6677(3) 0.2387(2)
H9 H 0.8412 0.6674 0.1890
C13 C 0.7626(2) 0.7949(3) 0.2644(2)
H10 H 0.7748 0.8787 0.2323
C14 C 0.76218(16) 1.02174(19) 0.45730(15)
H11 H 0.7305 1.1124 0.4686
C15 C 0.81662(16) 0.9462(2) 0.57889(15)
H12 H 0.7916 0.8472 0.5690
C16 C 0.77524(15) 1.01689(19) 0.66774(14)
C17 C 0.79020(18) 1.1788(2) 0.67955(15)
C18 C 0.8670(2) 1.2526(3) 0.6467(2)
H13 H 0.9126 1.2045 0.6158
C19 C 0.8763(3) 1.3992(3) 0.6599(2)
H14 H 0.9278 1.4480 0.6368
C20 C 0.8107(3) 1.4719(3) 0.7061(3)
H15 H 0.8168 1.5696 0.7138
C21 C 0.7359(3) 1.3992(3) 0.7410(3)
H16 H 0.6921 1.4481 0.7736
C22 C 0.7245(2) 1.2528(3) 0.7284(2)
H17 H 0.6734 1.2047 0.7524
C23 C 0.83516(18) 0.9488(2) 0.78757(15)
C24 C 0.9461(2) 0.9923(3) 0.86121(17)
H18 H 0.9842 1.0601 0.8358
C25 C 1.0011(3) 0.9360(3) 0.9723(2)
H19 H 1.0753 0.9663 1.0208
C26 C 0.9453(3) 0.8351(4) 1.0107(2)
H20 H 0.9809 0.7990 1.0857
C27 C 0.8373(3) 0.7886(3) 0.9376(3)
H21 H 0.8009 0.7184 0.9626
C28 C 0.7807(2) 0.8449(3) 0.8258(2)
H22 H 0.7071 0.8129 0.7773
O1 O 0.58166(12) 0.90018(14) 0.42074(11)
O2 O 0.51314(16) 1.13746(15) 0.46860(15)
O3 O 0.65332(11) 0.98147(18) 0.63032(11)
O4 O 0.45416(13) 0.90414(16) 0.52458(13)
H23 H 0.470(3) 0.808(4) 0.539(3)
O5 O 0.84833(15) 1.0509(2) 0.41506(14)
H24 H 0.9109 1.0186 0.4602
O6 O 0.93870(13) 0.95054(19) 0.61707(14)
H25 H 0.9663 0.8740 0.6454
P1 P 0.54898(4) 0.99221(5) 0.50774(3)
C29 C 0.7965(4) 0.1857(8) 0.0801(4)
H26 H 0.7372 0.1492 0.1026
H27 H 0.7890 0.1435 0.0079
H28 H 0.7881 0.2863 0.0708
C30 C 0.9123(3) 0.1522(4) 0.1711(3)
H29 H 0.9184 0.0507 0.1825
H30 H 0.9713 0.1810 0.1441
O7 O 0.9361(2) 0.2190(2) 0.2812(2)
H31 H 0.8985 0.1798 0.3131
loop_
_geom_bond_atom_site_label_1
_geom_bond_atom_site_label_2
_geom_bond_site_symmetry_1
_geom_bond_site_symmetry_2
C1 C2 1_555 1_555
C2 H1 1_555 1_555
C3 C2 1_555 1_555
H2 C3 1_555 1_555
C4 C3 1_555 1_555
H3 C4 1_555 1_555
C5 C4 1_555 1_555
H4 C5 1_555 1_555
C6 C1 1_555 1_555
H5 C6 1_555 1_555
C7 C1 1_555 1_555
C8 C7 1_555 1_555
C9 C8 1_555 1_555
H6 C9 1_555 1_555
C10 C9 1_555 1_555
H7 C10 1_555 1_555
C11 C10 1_555 1_555
H8 C11 1_555 1_555
C12 C11 1_555 1_555
H9 C12 1_555 1_555
C13 C8 1_555 1_555
H10 C13 1_555 1_555
C14 C7 1_555 1_555
H11 C14 1_555 1_555
C15 C14 1_555 1_555
H12 C15 1_555 1_555
C16 C15 1_555 1_555
C17 C16 1_555 1_555
C18 C17 1_555 1_555
H13 C18 1_555 1_555
C19 C18 1_555 1_555
H14 C19 1_555 1_555
C20 C19 1_555 1_555
H15 C20 1_555 1_555
C21 C20 1_555 1_555
H16 C21 1_555 1_555
C22 C17 1_555 1_555
H17 C22 1_555 1_555
C23 C16 1_555 1_555
C24 C23 1_555 1_555
H18 C24 1_555 1_555
C25 C24 1_555 1_555
H19 C25 1_555 1_555
C26 C25 1_555 1_555
H20 C26 1_555 1_555
C27 C26 1_555 1_555
H21 C27 1_555 1_555
C28 C23 1_555 1_555
H22 C28 1_555 1_555
O1 C7 1_555 1_555
O2 P1 1_555 1_555
O3 C16 1_555 1_555
O4 H23 1_555 1_555
O5 C14 1_555 1_555
H24 O5 1_555 1_555
O6 C15 1_555 1_555
H25 O6 1_555 1_555
P1 O1 1_555 1_555
C29 H26 1_555 1_555
H27 C29 1_555 1_555
H28 C29 1_555 1_555
C30 C29 1_555 1_555
H29 C30 1_555 1_555
H30 C30 1_555 1_555
O7 C30 1_555 1_555
H31 O7 1_555 1_555
C5 C6 1_555 1_555
C12 C13 1_555 1_555
C21 C22 1_555 1_555
C27 C28 1_555 1_555
O3 P1 1_555 1_555
O4 P1 1_555 1_555

#END
