
#######################################################################
#
#                 Cambridge Crystallographic Data Centre
#                                CCDC 
#
#######################################################################
#
# If this CIF has been generated from an entry in the Cambridge 
# Structural Database, then it will include bibliographic, chemical, 
# crystal, experimental, refinement or atomic coordinate data resulting 
# from the CCDC's data processing and validation procedures.
#
#######################################################################

data_QASDOE
_chemical_formula_moiety         '2(C3 H7 N6 1+),C10 H6 O6 S2 2-,4(H2 O1)'
_chemical_name_systematic        
'bis(Melaminium) 1,5-naphthalenedisulfonato tetrahydrate'
_symmetry_cell_setting           triclinic
_symmetry_space_group_name_H-M   'P -1'
_symmetry_Int_Tables_number      2
_space_group_name_Hall           '-P 1'
loop_
_symmetry_equiv_pos_site_id
_symmetry_equiv_pos_as_xyz
1 x,y,z
2 -x,-y,-z
_cell_length_a                   6.9323(6)
_cell_length_b                   12.3567(11)
_cell_length_c                   16.6484(15)
_cell_angle_alpha                72.266(2)
_cell_angle_beta                 85.010(2)
_cell_angle_gamma                77.851(2)
_cell_volume                     1327.52
_exptl_crystal_colour            colorless
_exptl_crystal_description       plate
_cell_formula_units_Z            2
loop_
_atom_site_label
_atom_site_type_symbol
_atom_site_fract_x
_atom_site_fract_y
_atom_site_fract_z
S1 S 0.20960(13) 0.42469(7) 0.17829(5)
O1 O 0.3608(4) 0.3351(2) 0.22762(15)
O2 O 0.0799(4) 0.3756(2) 0.14293(16)
O3 O 0.1058(4) 0.4996(2) 0.22613(14)
C7 C 0.3180(5) 0.6244(3) 0.08842(19)
H3 H 0.2425 0.6540 0.1287
C8 C 0.3336(4) 0.5110(3) 0.09333(18)
C9 C 0.4508(4) 0.4629(2) 0.03280(17)
C10 C 0.4738(5) 0.3453(3) 0.03497(19)
H4 H 0.4103 0.2960 0.0777
C11 C 0.4149(5) 0.6970(3) 0.0232(2)
H5 H 0.4022 0.7746 0.0202
S1A S 0.79040(13) 0.57531(7) -0.17829(5)
O1A O 0.6392(4) 0.6649(2) -0.22762(15)
O2A O 0.9201(4) 0.6244(2) -0.14293(16)
O3A O 0.8942(4) 0.5004(2) -0.22613(14)
C7A C 0.6820(5) 0.3756(3) -0.08842(19)
H3A H 0.7575 0.3460 -0.1287
C8A C 0.6664(4) 0.4890(3) -0.09333(18)
C9A C 0.5492(4) 0.5371(2) -0.03280(17)
C10A C 0.5262(5) 0.6547(3) -0.03497(19)
H4A H 0.5897 0.7040 -0.0777
C11A C 0.5851(5) 0.3030(3) -0.0232(2)
H5A H 0.5978 0.2254 -0.0202
S2 S 0.66208(13) 0.91632(7) 0.15787(5)
O4 O 0.5574(4) 0.8221(2) 0.16973(17)
O5 O 0.5318(4) 1.0276(2) 0.13944(15)
O6 O 0.7865(4) 0.8956(2) 0.22868(13)
C12 C 0.9428(5) 1.0906(3) 0.07445(19)
H6 H 0.8663 1.0931 0.1228
C13 C 0.9397(4) 1.0020(3) 0.03640(17)
C14 C 0.8202(4) 0.9159(3) 0.06833(18)
C15 C 0.8246(5) 0.8324(3) 0.03047(19)
H7 H 0.7469 0.7767 0.0524
C16 C 1.0560(5) 1.1711(3) 0.0409(2)
H8 H 1.0541 1.2293 0.0657
S2A S 1.33792(13) 1.08368(7) -0.15787(5)
O4A O 1.4426(4) 1.1779(2) -0.16973(17)
O5A O 1.4682(4) 0.9724(2) -0.13944(15)
O6A O 1.2135(4) 1.1044(2) -0.22868(13)
C12A C 1.0572(5) 0.9094(3) -0.07445(19)
H6A H 1.1337 0.9069 -0.1228
C13A C 1.0603(4) 0.9980(3) -0.03640(17)
C14A C 1.1798(4) 1.0841(3) -0.06833(18)
C15A C 1.1754(5) 1.1676(3) -0.03047(19)
H7A H 1.2531 1.2233 -0.0524
C16A C 0.9440(5) 0.8289(3) -0.0409(2)
H8A H 0.9459 0.7707 -0.0657
N1 N 0.7679(4) 1.0411(3) 0.34651(16)
N2 N 0.7607(4) 1.08926(19) 0.46854(15)
N3 N 0.7524(4) 1.1255(3) 0.59612(19)
N4 N 0.7396(4) 0.9428(2) 0.59482(16)
N5 N 0.7275(5) 0.7588(2) 0.59637(19)
N6 N 0.7472(4) 0.89597(19) 0.46858(14)
C1 C 0.7585(4) 1.0084(2) 0.42961(17)
C2 C 0.7504(4) 1.0538(2) 0.55197(18)
C3 C 0.7381(4) 0.8657(2) 0.55181(18)
H9 H 0.738(4) 0.709(3) 0.574(2)
H10 H 0.713(4) 0.739(2) 0.653(2)
H11 H 0.744(4) 0.922(3) 0.652(2)
H12 H 0.760(5) 1.196(3) 0.571(2)
H13 H 0.755(5) 1.099(3) 0.657(2)
H14 H 0.767(4) 1.111(3) 0.3174(18)
H15 H 0.765(4) 0.993(3) 0.319(2)
N7 N 0.7289(5) 1.3445(3) 0.3886(2)
N8 N 0.7306(4) 1.5278(2) 0.38930(17)
N9 N 0.7319(5) 1.7144(2) 0.3868(2)
N10 N 0.7566(4) 1.5722(2) 0.51421(15)
N11 N 0.7760(4) 1.4235(2) 0.63622(16)
H1 H 0.7793 1.3519 0.6636
H2 H 0.7822 1.4724 0.6628
N12 N 0.7523(4) 1.3775(2) 0.51539(15)
C4 C 0.7385(5) 1.4149(2) 0.4326(2)
C5 C 0.7399(4) 1.6048(3) 0.4317(2)
C6 C 0.7615(4) 1.4583(2) 0.55363(19)
H16 H 0.730(6) 1.552(3) 0.333(3)
H17 H 0.740(5) 1.764(3) 0.412(2)
H18 H 0.727(5) 1.371(3) 0.326(2)
H19 H 0.727(5) 1.729(3) 0.333(2)
H20 H 0.748(5) 1.280(3) 0.409(2)
O7 O 0.7708(6) 0.2748(3) 0.23406(18)
H21 H 0.667(6) 0.303(4) 0.218(3)
H24 H 0.852(8) 0.310(5) 0.202(4)
O8 O 0.1953(5) 0.8133(2) 0.25475(17)
H23 H 0.280(7) 0.816(4) 0.221(3)
H26 H 0.095(8) 0.846(5) 0.233(4)
O9 O 0.7664(5) 0.8971(3) 0.76130(17)
H22 H 0.681(8) 0.918(4) 0.800(3)
H28 H 0.782(12) 0.835(7) 0.781(5)
O10 O 0.7023(6) 1.5797(4) 0.22287(19)
H25 H 0.829(11) 1.561(6) 0.198(4)
H27 H 0.659(10) 1.633(6) 0.196(4)
loop_
_geom_bond_atom_site_label_1
_geom_bond_atom_site_label_2
_geom_bond_site_symmetry_1
_geom_bond_site_symmetry_2
S1 O1 1_555 1_555
S2 O4 1_555 1_555
O2 S1 1_555 1_555
O3 S1 1_555 1_555
O5 S2 1_555 1_555
O6 S2 1_555 1_555
N1 C1 1_555 1_555
N2 C1 1_555 1_555
N3 C2 1_555 1_555
N4 C2 1_555 1_555
N5 C3 1_555 1_555
N6 C1 1_555 1_555
N7 C4 1_555 1_555
N8 C4 1_555 1_555
N9 C5 1_555 1_555
N10 C5 1_555 1_555
N11 H1 1_555 1_555
H2 N11 1_555 1_555
N12 C4 1_555 1_555
C2 N2 1_555 1_555
C3 N4 1_555 1_555
C5 N8 1_555 1_555
C6 N10 1_555 1_555
C7 H3 1_555 1_555
C8 S1 1_555 1_555
C9 C8 1_555 1_555
C10 C9 1_555 1_555
H4 C10 1_555 1_555
C11 C7 1_555 1_555
H5 C11 1_555 1_555
C12 H6 1_555 1_555
C13 C12 1_555 1_555
C14 S2 1_555 1_555
C15 C14 1_555 1_555
H7 C15 1_555 1_555
C16 C12 1_555 1_555
H8 C16 1_555 1_555
O7 H21 1_555 1_555
O8 H23 1_555 1_555
O9 H22 1_555 1_555
O10 H25 1_555 1_555
H9 N5 1_555 1_555
H10 N5 1_555 1_555
H11 N4 1_555 1_555
H12 N3 1_555 1_555
H13 N3 1_555 1_555
H14 N1 1_555 1_555
H15 N1 1_555 1_555
H16 N8 1_555 1_555
H17 N9 1_555 1_555
H18 N7 1_555 1_555
H19 N9 1_555 1_555
H20 N7 1_555 1_555
H24 O7 1_555 1_555
H26 O8 1_555 1_555
H27 O10 1_555 1_555
H28 O9 1_555 1_555
S1A O1A 1_555 1_555
S2A O4A 1_555 1_555
O2A S1A 1_555 1_555
O3A S1A 1_555 1_555
O5A S2A 1_555 1_555
O6A S2A 1_555 1_555
C7A H3A 1_555 1_555
C8A S1A 1_555 1_555
C9A C9 1_555 1_555
C10A C11 1_555 1_555
H4A C10A 1_555 1_555
C11A C10 1_555 1_555
H5A C11A 1_555 1_555
C12A H6A 1_555 1_555
C13A C13 1_555 1_555
C14A S2A 1_555 1_555
C15A C16 1_555 1_555
H7A C15A 1_555 1_555
C16A C15 1_555 1_555
H8A C16A 1_555 1_555
N6 C3 1_555 1_555
N11 C6 1_555 1_555
N12 C6 1_555 1_555
C7 C8 1_555 1_555
C13 C14 1_555 1_555
C7A C8A 1_555 1_555
C7A C11A 1_555 1_555
C8A C9A 1_555 1_555
C9A C10A 1_555 1_555
C12A C13A 1_555 1_555
C12A C16A 1_555 1_555
C13A C14A 1_555 1_555
C14A C15A 1_555 1_555

#END
