
#######################################################################
#
#                 Cambridge Crystallographic Data Centre
#                                CCDC 
#
#######################################################################
#
# If this CIF has been generated from an entry in the Cambridge 
# Structural Database, then it will include bibliographic, chemical, 
# crystal, experimental, refinement or atomic coordinate data resulting 
# from the CCDC's data processing and validation procedures.
#
#######################################################################

data_QASFOI
_chemical_formula_moiety         'C22 H21 N2 1+,I1 1-,I1,H2 O1'
_chemical_name_systematic        
'1,3,3-trimethyl-2-(2-(quinolin-4-yl)ethenyl)-3H-indol-1-ium iodide iodine monohydrate'
_symmetry_cell_setting           monoclinic
_symmetry_space_group_name_H-M   'P 21/c'
_symmetry_Int_Tables_number      14
_space_group_name_Hall           '-P 2ybc'
loop_
_symmetry_equiv_pos_site_id
_symmetry_equiv_pos_as_xyz
1 x,y,z
2 -x,1/2+y,1/2-z
3 -x,-y,-z
4 x,1/2-y,1/2+z
_cell_length_a                   12.632(5)
_cell_length_b                   6.968(5)
_cell_length_c                   24.753(5)
_cell_angle_alpha                90
_cell_angle_beta                 96.016(5)
_cell_angle_gamma                90
_cell_volume                     2166.75
_cell_formula_units_Z            4
_exptl_crystal_recrystallization_method ethanol/isopropanol
loop_
_atom_site_label
_atom_site_type_symbol
_atom_site_fract_x
_atom_site_fract_y
_atom_site_fract_z
C1 C 0.6947(2) 0.1783(5) 0.10432(13)
H1 H 0.7555 0.1594 0.1283
C2 C 0.5954(2) 0.1861(5) 0.12446(13)
H2 H 0.5908 0.1724 0.1615
C3 C 0.5039(2) 0.2143(4) 0.08933(13)
C4 C 0.5136(3) 0.2334(4) 0.03278(14)
C5 C 0.6174(3) 0.2265(4) 0.01482(15)
C6 C 0.6327(3) 0.2478(4) -0.04070(17)
H3 H 0.7008 0.2427 -0.0516
C7 C 0.5463(3) 0.2759(4) -0.07827(14)
H4 H 0.5556 0.2904 -0.1148
C8 C 0.4432(3) 0.2826(5) -0.06117(15)
H5 H 0.3850 0.3011 -0.0869
C9 C 0.4268(3) 0.2627(4) -0.00781(14)
H6 H 0.3579 0.2683 0.0021
C10 C 0.3992(2) 0.2241(4) 0.10945(12)
H7 H 0.3403 0.2278 0.0836
C11 C 0.3805(3) 0.2283(4) 0.16186(14)
H8 H 0.4380 0.2256 0.1886
C12 C 0.2746(3) 0.2369(3) 0.17805(13)
C13 C 0.1690(3) 0.2456(4) 0.14186(13)
C14 C 0.0910(3) 0.2517(4) 0.18346(15)
C15 C 0.1437(3) 0.2467(4) 0.23469(15)
C16 C 0.0950(3) 0.2490(4) 0.28185(16)
H9 H 0.1335 0.2460 0.3160
C17 C -0.0156(3) 0.2561(4) 0.27507(18)
H10 H -0.0531 0.2568 0.3055
C18 C -0.0707(3) 0.2620(4) 0.22358(18)
H11 H -0.1446 0.2674 0.2203
C19 C -0.0193(3) 0.2602(4) 0.17683(18)
H12 H -0.0570 0.2645 0.1425
C20 C 0.3350(3) 0.2317(4) 0.27712(14)
H13 H 0.3679 0.1073 0.2795
H14 H 0.3011 0.2557 0.3094
H15 H 0.3883 0.3279 0.2735
C21 C 0.1600(2) 0.4310(4) 0.10675(12)
H16 H 0.0875 0.4484 0.0917
H17 H 0.2047 0.4196 0.0779
H18 H 0.1822 0.5395 0.1290
C22 C 0.1514(2) 0.0626(4) 0.10619(12)
H19 H 0.1708 -0.0488 0.1278
H20 H 0.1948 0.0695 0.0766
H21 H 0.0778 0.0540 0.0921
N1 N 0.7038(2) 0.1972(4) 0.05198(12)
N2 N 0.2553(2) 0.2383(3) 0.22963(11)
I1 I 0.35340(2) 0.73454(3) 0.21984(2)
I2 I 0.12819(2) 0.25209(3) 0.44290(2)
O1 O 0.8929(2) 0.2786(4) 0.01706(15)
H22 H 0.8287 0.2710 0.0030
H23 H 0.9336 0.2946 -0.0078
loop_
_geom_bond_atom_site_label_1
_geom_bond_atom_site_label_2
_geom_bond_site_symmetry_1
_geom_bond_site_symmetry_2
C1 H1 1_555 1_555
C2 C1 1_555 1_555
H2 C2 1_555 1_555
C3 C2 1_555 1_555
C4 C3 1_555 1_555
C5 C4 1_555 1_555
C6 C5 1_555 1_555
H3 C6 1_555 1_555
C7 C6 1_555 1_555
H4 C7 1_555 1_555
C8 C7 1_555 1_555
H5 C8 1_555 1_555
C9 C4 1_555 1_555
H6 C9 1_555 1_555
C10 C3 1_555 1_555
H7 C10 1_555 1_555
C11 C10 1_555 1_555
H8 C11 1_555 1_555
C12 C11 1_555 1_555
C13 C12 1_555 1_555
C14 C13 1_555 1_555
C15 C14 1_555 1_555
C16 C15 1_555 1_555
H9 C16 1_555 1_555
C17 C16 1_555 1_555
H10 C17 1_555 1_555
C18 C17 1_555 1_555
H11 C18 1_555 1_555
C19 C14 1_555 1_555
H12 C19 1_555 1_555
C20 H13 1_555 1_555
H14 C20 1_555 1_555
H15 C20 1_555 1_555
C21 C13 1_555 1_555
H16 C21 1_555 1_555
H17 C21 1_555 1_555
H18 C21 1_555 1_555
C22 C13 1_555 1_555
H19 C22 1_555 1_555
H20 C22 1_555 1_555
H21 C22 1_555 1_555
N1 C1 1_555 1_555
N2 C12 1_555 1_555
O1 H22 1_555 1_555
H23 O1 1_555 1_555
C5 N1 1_555 1_555
C8 C9 1_555 1_555
C15 N2 1_555 1_555
C18 C19 1_555 1_555
C20 N2 1_555 1_555

#END
