
#######################################################################
#
#                 Cambridge Crystallographic Data Centre
#                                CCDC 
#
#######################################################################
#
# If this CIF has been generated from an entry in the Cambridge 
# Structural Database, then it will include bibliographic, chemical, 
# crystal, experimental, refinement or atomic coordinate data resulting 
# from the CCDC's data processing and validation procedures.
#
#######################################################################

data_QASFAS
_chemical_formula_moiety         
'2(C3 H6 N6),2(C3 H7 N6 1+),C10 H6 O6 S2 2-,10(H2 O1)'
_chemical_name_systematic        
'bis(Melamine) bis(melaminium) 1,5-naphthalenedisulfonate decahydrate'
_symmetry_cell_setting           triclinic
_symmetry_space_group_name_H-M   'P -1'
_symmetry_Int_Tables_number      2
_space_group_name_Hall           '-P 1'
loop_
_symmetry_equiv_pos_site_id
_symmetry_equiv_pos_as_xyz
1 x,y,z
2 -x,-y,-z
_cell_length_a                   6.8217(7)
_cell_length_b                   10.6168(10)
_cell_length_c                   15.1689(15)
_cell_angle_alpha                94.793(2)
_cell_angle_beta                 91.001(2)
_cell_angle_gamma                100.955(2)
_cell_volume                     1074.19
_exptl_crystal_colour            colorless
_exptl_crystal_description       plate
_cell_formula_units_Z            1
loop_
_atom_site_label
_atom_site_type_symbol
_atom_site_fract_x
_atom_site_fract_y
_atom_site_fract_z
S1 S 0.22025(12) 1.25763(6) 0.36194(4)
O1 O 0.2289(4) 1.3289(2) 0.28420(13)
O2 O 0.3673(3) 1.17458(19) 0.36119(14)
O3 O 0.0229(3) 1.1864(2) 0.37666(14)
C7 C 0.8063(5) 1.5324(3) 0.40760(18)
H14 H 0.9011 1.5281 0.3647
C8 C 0.6263(4) 1.4531(3) 0.39735(17)
H15 H 0.5985 1.3955 0.3471
C9 C 0.4781(4) 1.4559(2) 0.46184(16)
C10 C 0.2854(4) 1.3730(2) 0.45429(16)
C11 C 0.1478(4) 1.3789(3) 0.51793(18)
H16 H 0.0237 1.3241 0.5118
S1A S 0.77975(12) 1.74237(6) 0.63806(4)
O1A O 0.7711(4) 1.6711(2) 0.71580(13)
O2A O 0.6327(3) 1.82542(19) 0.63881(14)
O3A O 0.9771(3) 1.8136(2) 0.62334(14)
C7A C 0.1937(5) 1.4676(3) 0.59240(18)
H14A H 0.0989 1.4719 0.6353
C8A C 0.3737(4) 1.5469(3) 0.60265(17)
H15A H 0.4015 1.6045 0.6529
C9A C 0.5219(4) 1.5441(2) 0.53816(16)
C10A C 0.7146(4) 1.6270(2) 0.54571(16)
C11A C 0.8522(4) 1.6211(3) 0.48207(18)
H16A H 0.9763 1.6759 0.4882
N1 N 0.2796(4) 0.9830(2) -0.07883(16)
H1 H 0.2776 0.9380 -0.0341
H2 H 0.2804 0.9467 -0.1316
N2 N 0.2847(4) 1.1760(2) -0.13855(15)
H3 H 0.288(5) 1.143(3) -0.1919(10)
N3 N 0.2646(4) 1.3649(2) -0.19926(15)
H4 H 0.2572 1.4452 -0.1945
H5 H 0.2651 1.3245 -0.2508
N4 N 0.2748(4) 1.3641(2) -0.04820(14)
N5 N 0.2895(4) 1.3517(2) 0.10051(15)
H6 H 0.2936 1.3094 0.1462
H7 H 0.2906 1.4331 0.1070
N6 N 0.2802(4) 1.1641(2) 0.01462(14)
C1 C 0.2814(4) 1.1075(3) -0.06641(17)
C2 C 0.2753(4) 1.3038(3) -0.12743(17)
C3 C 0.2815(4) 1.2917(3) 0.02041(17)
N7 N 0.2150(4) 1.0030(2) 0.17439(16)
H8 H 0.2192 1.0415 0.2268
H9 H 0.2046 1.0449 0.1289
N8 N 0.2409(4) 0.8179(2) 0.23699(15)
N9 N 0.2697(4) 0.6289(2) 0.29360(15)
H10 H 0.2756 0.5485 0.2873
H11 H 0.2759 0.6685 0.3457
N10 N 0.2417(3) 0.6270(2) 0.14248(14)
N11 N 0.2157(4) 0.6372(2) -0.00698(15)
H12 H 0.2216 0.5568 -0.0138
H13 H 0.2044 0.6789 -0.0525
N12 N 0.2161(4) 0.8235(2) 0.08024(14)
C4 C 0.2248(4) 0.8776(2) 0.16358(17)
C5 C 0.2507(4) 0.6929(3) 0.22188(17)
C6 C 0.2240(4) 0.6971(2) 0.07398(17)
O4 O 0.7230(5) 0.8457(3) 0.32961(17)
H17 H 0.835(3) 0.864(4) 0.358(2)
H19 H 0.636(4) 0.835(5) 0.369(2)
O5 O 0.6975(5) 1.1310(3) 0.25758(17)
H20 H 0.794(4) 1.130(5) 0.294(2)
H21 H 0.604(5) 1.147(5) 0.291(2)
O6 O 0.4228(5) 0.8171(3) 0.45984(18)
H18 H 0.346(7) 0.871(4) 0.459(3)
H22 H 0.461(7) 0.822(5) 0.5139(11)
O7 O 0.1603(4) 1.6250(3) -0.19905(17)
H23 H 0.216(5) 1.699(2) -0.214(3)
H24 H 0.040(2) 1.616(4) -0.218(3)
O8 O 0.1068(4) 0.9167(2) 0.39924(18)
H25 H 0.164(6) 0.986(2) 0.377(2)
H26 H 0.084(6) 0.943(3) 0.4539(11)
loop_
_geom_bond_atom_site_label_1
_geom_bond_atom_site_label_2
_geom_bond_site_symmetry_1
_geom_bond_site_symmetry_2
S1 O1 1_555 1_555
O2 S1 1_555 1_555
O3 S1 1_555 1_555
N1 H1 1_555 1_555
H2 N1 1_555 1_555
N2 H3 1_555 1_555
N3 H4 1_555 1_555
H5 N3 1_555 1_555
N4 C2 1_555 1_555
N5 H6 1_555 1_555
H7 N5 1_555 1_555
N6 C1 1_555 1_555
N7 H8 1_555 1_555
H9 N7 1_555 1_555
N8 C4 1_555 1_555
N9 H10 1_555 1_555
H11 N9 1_555 1_555
N10 C5 1_555 1_555
N11 H12 1_555 1_555
H13 N11 1_555 1_555
N12 C4 1_555 1_555
C1 N1 1_555 1_555
C2 N2 1_555 1_555
C3 N4 1_555 1_555
C4 N7 1_555 1_555
C5 N8 1_555 1_555
C6 N10 1_555 1_555
C7 H14 1_555 1_555
C8 C7 1_555 1_555
H15 C8 1_555 1_555
C9 C8 1_555 1_555
C10 S1 1_555 1_555
C11 C10 1_555 1_555
H16 C11 1_555 1_555
O4 H17 1_555 1_555
O5 H20 1_555 1_555
O6 H18 1_555 1_555
H19 O4 1_555 1_555
H21 O5 1_555 1_555
H22 O6 1_555 1_555
O7 H23 1_555 1_555
H24 O7 1_555 1_555
O8 H25 1_555 1_555
H26 O8 1_555 1_555
S1A O1A 1_555 1_555
O2A S1A 1_555 1_555
O3A S1A 1_555 1_555
C7A C11 1_555 1_555
H14A C7A 1_555 1_555
C8A C7A 1_555 1_555
H15A C8A 1_555 1_555
C9A C9 1_555 1_555
C10A S1A 1_555 1_555
C11A C7 1_555 1_555
H16A C11A 1_555 1_555
N2 C1 1_555 1_555
N3 C2 1_555 1_555
N5 C3 1_555 1_555
N6 C3 1_555 1_555
N9 C5 1_555 1_555
N11 C6 1_555 1_555
N12 C6 1_555 1_555
C9 C10 1_555 1_555
C8A C9A 1_555 1_555
C9A C10A 1_555 1_555
C10A C11A 1_555 1_555

#END
