
#######################################################################
#
#                 Cambridge Crystallographic Data Centre
#                                CCDC 
#
#######################################################################
#
# If this CIF has been generated from an entry in the Cambridge 
# Structural Database, then it will include bibliographic, chemical, 
# crystal, experimental, refinement or atomic coordinate data resulting 
# from the CCDC's data processing and validation procedures.
#
#######################################################################

data_QASHOH
_chemical_name_common            
'bis((mu!2$-Aqua)-tri-aqua-(vitamin K!3$-thiosemicarbazone)-sodium) hemihydrate'
_chemical_formula_moiety         'C24 H38 N6 Na2 O16 S4,0.5(H2 O1)'
_chemical_name_systematic        
'bis((\m~2~-Aqua)-tri-aqua-(2,3-dihydro-2-methyl-2-(sulfonato)-1,4-naphthoquinone-4-thiosemicarbazone)-sodium) hemihydrate'
_chemical_properties_biological  
'strong antibacterial activity against Gram positive and Gram negative baceteria'
_symmetry_cell_setting           triclinic
_symmetry_space_group_name_H-M   'P -1'
_symmetry_Int_Tables_number      2
_space_group_name_Hall           '-P 1'
loop_
_symmetry_equiv_pos_site_id
_symmetry_equiv_pos_as_xyz
1 x,y,z
2 -x,-y,-z
_cell_length_a                   14.470(2)
_cell_length_b                   10.299(3)
_cell_length_c                   6.937(5)
_cell_angle_alpha                102.69(3)
_cell_angle_beta                 101.92(5)
_cell_angle_gamma                99.07(2)
_cell_volume                     964.22
_exptl_crystal_colour            yellow
_cell_formula_units_Z            1
loop_
_atom_site_label
_atom_site_type_symbol
_atom_site_fract_x
_atom_site_fract_y
_atom_site_fract_z
S1 S 0.14072(5) 0.03792(7) 0.4775(1)
S2 S -0.29262(5) -0.48447(7) -0.0455(1)
Na1 Na -0.43433(8) -0.8678(1) 0.2176(2)
O1 O -0.2258(2) -0.5368(2) -0.1517(3)
O2 O -0.2985(2) -0.3461(2) -0.0508(4)
O3 O -0.3882(2) -0.5734(3) -0.1063(4)
O4 O -0.3043(2) -0.6921(2) 0.2667(4)
O5 O -0.5231(2) -0.7308(2) 0.0418(4)
O6 O -0.5831(2) -1.0365(2) 0.1262(4)
O7 O -0.4554(2) -0.8079(3) 0.5586(5)
O8 O -0.3704(2) -1.0566(3) 0.3020(4)
N1 N 0.1930(2) -0.1948(2) 0.3477(4)
N2 N 0.0337(2) -0.2107(2) 0.3586(4)
N3 N 0.0247(2) -0.3506(2) 0.2997(4)
C1 C 0.1231(2) -0.1334(3) 0.3882(4)
C2 C -0.0596(2) -0.4268(3) 0.2712(4)
C3 C -0.1467(2) -0.3730(3) 0.3028(5)
C4 C -0.2455(2) -0.4739(3) 0.2242(5)
C5 C -0.2377(2) -0.6181(3) 0.2357(4)
C6 C -0.1500(2) -0.6660(3) 0.2033(4)
C7 C -0.0644(2) -0.5748(3) 0.2163(4)
C8 C 0.0166(2) -0.6264(3) 0.1836(5)
C9 C 0.0119(2) -0.7653(3) 0.1390(5)
C10 C -0.0727(3) -0.8557(3) 0.1256(5)
C11 C -0.1529(2) -0.8064(3) 0.1585(5)
C12 C -0.3165(2) -0.4223(3) 0.3425(5)
H1 H 0.259(3) -0.150(4) 0.391(6)
H2 H 0.187(3) -0.285(4) 0.299(6)
H3 H -0.150(3) -0.294(4) 0.230(6)
H4 H -0.138(3) -0.337(4) 0.454(6)
H5 H -0.483(3) -0.676(4) 0.029(6)
H6 H -0.570(3) -0.681(4) 0.089(6)
H7 H -0.583(3) -1.072(4) 0.283(6)
H8 H -0.641(3) -0.995(4) 0.128(6)
H9 H -0.512(3) -0.814(4) 0.570(6)
H10 H -0.441(3) -0.720(4) 0.647(6)
H11 H -0.390 -1.123 0.219
H12 H -0.304(3) -1.068(4) 0.342(6)
H13 H 0.076(3) -0.560(4) 0.199(6)
H14 H 0.074(3) -0.801(4) 0.130(6)
H15 H -0.072(3) -0.961(4) 0.105(6)
H16 H -0.217(3) -0.865(4) 0.153(6)
H17 H -0.298(3) -0.424(4) 0.492(6)
H18 H -0.325(3) -0.326(4) 0.324(6)
H19 H -0.387(3) -0.474(4) 0.271(6)
Na1A Na -0.56567(8) -1.1322(1) -0.2176(2)
O4A O -0.6957(2) -1.3079(2) -0.2667(4)
C5A C -0.7623(2) -1.3819(3) -0.2357(4)
C4A C -0.7545(2) -1.5261(3) -0.2242(5)
S2A S -0.70738(5) -1.51553(7) 0.0455(1)
O1A O -0.7742(2) -1.4632(2) 0.1517(3)
O2A O -0.7015(2) -1.6539(2) 0.0508(4)
O3A O -0.6118(2) -1.4266(3) 0.1063(4)
C3A C -0.8533(2) -1.6270(3) -0.3028(5)
C2A C -0.9404(2) -1.5732(3) -0.2712(4)
N3A N -1.0247(2) -1.6494(2) -0.2997(4)
N2A N -1.0337(2) -1.7893(2) -0.3586(4)
C1A C -1.1231(2) -1.8666(3) -0.3882(4)
S1A S -1.14072(5) -2.03792(7) -0.4775(1)
N1A N -1.1930(2) -1.8052(2) -0.3477(4)
H1A H -1.259(3) -1.850(4) -0.391(6)
H2A H -1.187(3) -1.715(4) -0.299(6)
C7A C -0.9356(2) -1.4252(3) -0.2163(4)
C6A C -0.8500(2) -1.3340(3) -0.2033(4)
C11A C -0.8471(2) -1.1936(3) -0.1585(5)
C10A C -0.9273(3) -1.1443(3) -0.1256(5)
C9A C -1.0119(2) -1.2347(3) -0.1390(5)
C8A C -1.0166(2) -1.3736(3) -0.1836(5)
H13A H -1.076(3) -1.440(4) -0.199(6)
H14A H -1.074(3) -1.199(4) -0.130(6)
H15A H -0.928(3) -1.039(4) -0.105(6)
H16A H -0.783(3) -1.135(4) -0.153(6)
H3A H -0.850(3) -1.706(4) -0.230(6)
H4A H -0.862(3) -1.663(4) -0.454(6)
C12A C -0.6835(2) -1.5777(3) -0.3425(5)
H17A H -0.702(3) -1.576(4) -0.492(6)
H18A H -0.675(3) -1.674(4) -0.324(6)
H19A H -0.613(3) -1.526(4) -0.271(6)
O5A O -0.4769(2) -1.2692(2) -0.0418(4)
H5A H -0.517(3) -1.324(4) -0.029(6)
H6A H -0.430(3) -1.319(4) -0.089(6)
O6A O -0.4169(2) -0.9635(2) -0.1262(4)
H7A H -0.417(3) -0.928(4) -0.283(6)
H8A H -0.359(3) -1.005(4) -0.128(6)
O7A O -0.5446(2) -1.1921(3) -0.5586(5)
H9A H -0.488(3) -1.186(4) -0.570(6)
H10A H -0.559(3) -1.280(4) -0.647(6)
O8A O -0.6296(2) -0.9434(3) -0.3020(4)
H11A H -0.610 -0.877 -0.219
H12A H -0.696(3) -0.932(4) -0.342(6)
O9 O 0.2845(3) 0.1171(3) 0.1932(6)
H20 H 0.329 0.168 0.267
H21 H 0.235(3) 0.102(4) 0.230(6)
loop_
_geom_bond_atom_site_label_1
_geom_bond_atom_site_label_2
_geom_bond_site_symmetry_1
_geom_bond_site_symmetry_2
S1 C1 1_555 1_555
S2 O1 1_555 1_555
Na1 O4 1_555 1_555
O2 S2 1_555 1_555
O3 S2 1_555 1_555
O4 C5 1_555 1_555
O5 Na1 1_555 1_555
O6 Na1 1_555 1_555
O7 Na1 1_555 1_555
O8 Na1 1_555 1_555
N1 C1 1_555 1_555
N2 N3 1_555 1_555
N3 C2 1_555 1_555
C1 N2 1_555 1_555
C2 C3 1_555 1_555
C3 C4 1_555 1_555
C4 S2 1_555 1_555
C5 C4 1_555 1_555
C6 C5 1_555 1_555
C7 C2 1_555 1_555
C8 C7 1_555 1_555
C9 C8 1_555 1_555
C10 C9 1_555 1_555
C11 C6 1_555 1_555
C12 C4 1_555 1_555
H1 N1 1_555 1_555
H2 N1 1_555 1_555
H3 C3 1_555 1_555
H4 C3 1_555 1_555
H5 O5 1_555 1_555
H6 O5 1_555 1_555
H7 O6 1_555 1_555
H8 O6 1_555 1_555
H9 O7 1_555 1_555
H10 O7 1_555 1_555
H11 O8 1_555 1_555
H12 O8 1_555 1_555
H13 C8 1_555 1_555
H14 C9 1_555 1_555
H15 C10 1_555 1_555
H16 C11 1_555 1_555
H17 C12 1_555 1_555
H18 C12 1_555 1_555
H19 C12 1_555 1_555
O9 H20 1_555 1_555
H21 O9 1_555 1_555
Na1A O6 1_555 1_555
O4A Na1A 1_555 1_555
C5A O4A 1_555 1_555
C4A C5A 1_555 1_555
S2A C4A 1_555 1_555
O1A S2A 1_555 1_555
O2A S2A 1_555 1_555
O3A S2A 1_555 1_555
C3A C4A 1_555 1_555
C2A C3A 1_555 1_555
N3A C2A 1_555 1_555
N2A N3A 1_555 1_555
C1A N2A 1_555 1_555
S1A C1A 1_555 1_555
N1A C1A 1_555 1_555
H1A N1A 1_555 1_555
H2A N1A 1_555 1_555
C7A C2A 1_555 1_555
C6A C5A 1_555 1_555
C11A C6A 1_555 1_555
C10A C11A 1_555 1_555
C9A C10A 1_555 1_555
C8A C7A 1_555 1_555
H13A C8A 1_555 1_555
H14A C9A 1_555 1_555
H15A C10A 1_555 1_555
H16A C11A 1_555 1_555
H3A C3A 1_555 1_555
H4A C3A 1_555 1_555
C12A C4A 1_555 1_555
H17A C12A 1_555 1_555
H18A C12A 1_555 1_555
H19A C12A 1_555 1_555
O5A Na1A 1_555 1_555
H5A O5A 1_555 1_555
H6A O5A 1_555 1_555
O6A Na1 1_555 1_555
H7A O6A 1_555 1_555
H8A O6A 1_555 1_555
O7A Na1A 1_555 1_555
H9A O7A 1_555 1_555
H10A O7A 1_555 1_555
O8A Na1A 1_555 1_555
H11A O8A 1_555 1_555
H12A O8A 1_555 1_555
C6 C7 1_555 1_555
C10 C11 1_555 1_555
Na1A O6A 1_555 1_555
C7A C6A 1_555 1_555
C9A C8A 1_555 1_555

#END
