
#######################################################################
#
#                 Cambridge Crystallographic Data Centre
#                                CCDC 
#
#######################################################################
#
# If this CIF has been generated from an entry in the Cambridge 
# Structural Database, then it will include bibliographic, chemical, 
# crystal, experimental, refinement or atomic coordinate data resulting 
# from the CCDC's data processing and validation procedures.
#
#######################################################################

data_QASHAW
_chemical_formula_moiety         'C21 H26 N1 O3 P1'
_chemical_name_systematic        
't-butyl 3-(diphenylphosphoryl)pyrrolidine-1-carboxylate'
_symmetry_cell_setting           monoclinic
_symmetry_space_group_name_H-M   'P 21'
_symmetry_Int_Tables_number      4
_space_group_name_Hall           'P 2yb'
loop_
_symmetry_equiv_pos_site_id
_symmetry_equiv_pos_as_xyz
1 x,y,z
2 -x,1/2+y,-z
_cell_length_a                   8.7343(12)
_cell_length_b                   8.4099(12)
_cell_length_c                   14.2737(19)
_cell_angle_alpha                90
_cell_angle_beta                 106.437(4)
_cell_angle_gamma                90
_cell_volume                     1005.62
_exptl_crystal_colour            colorless
_exptl_crystal_description       block
_cell_formula_units_Z            2
loop_
_atom_site_label
_atom_site_type_symbol
_atom_site_fract_x
_atom_site_fract_y
_atom_site_fract_z
P1 P 0.29947(7) 0.34172(7) 0.20205(4)
O1 O 0.3333(2) 0.1563(3) 0.62441(13)
O2 O 0.1614(2) 0.3558(3) 0.55370(12)
O3 O 0.1681(2) 0.2247(2) 0.16790(14)
N1 N 0.3379(2) 0.2658(3) 0.48072(15)
C1 C 0.1150(3) 0.8495(4) 0.12177(18)
H1 H 0.0754 0.9517 0.1063
C2 C 0.3292(3) 0.6756(3) 0.20431(19)
H2 H 0.4334 0.6619 0.2434
C3 C 0.0189(3) 0.7190(4) 0.08745(19)
H3 H -0.0850 0.7337 0.0483
C4 C 0.0773(3) 0.5656(3) 0.11137(18)
H4 H 0.0127 0.4783 0.0876
C5 C 0.3889(2) 0.3381(3) 0.33369(15)
H5 H 0.4710 0.4207 0.3525
C6 C 0.2670(3) 0.3586(3) 0.39200(16)
H6 H 0.2555 0.4695 0.4073
H7 H 0.1634 0.3166 0.3564
C7 C 0.2706(3) 0.8271(4) 0.17931(19)
H8 H 0.3359 0.9147 0.2012
C8 C 0.2331(3) 0.5429(3) 0.17125(17)
C9 C 0.4692(3) 0.1632(4) 0.47332(19)
H9 H 0.4531 0.0548 0.4916
H10 H 0.5706 0.2016 0.5148
C10 C 0.4485(4) 0.1875(4) 0.0817(2)
H11 H 0.3507 0.1369 0.0571
C11 C 0.2805(3) 0.2522(3) 0.55872(17)
C12 C 0.4669(3) 0.3015(3) 0.15466(18)
C13 C 0.6159(4) 0.3742(4) 0.1926(2)
H12 H 0.6298 0.4502 0.2416
C14 C 0.4638(3) 0.1734(4) 0.3665(2)
H13 H 0.3985 0.0889 0.3293
H14 H 0.5702 0.1662 0.3585
C15 C 0.5757(5) 0.1491(5) 0.0456(2)
H15 H 0.5618 0.0748 -0.0044
C16 C 0.7428(4) 0.3326(5) 0.1570(3)
H16 H 0.8419 0.3804 0.1828
C17 C 0.0006(4) 0.2038(4) 0.6380(2)
H17 H -0.0494 0.2072 0.6898
H18 H -0.0790 0.1860 0.5770
H19 H 0.0773 0.1191 0.6498
C18 C 0.7232(5) 0.2208(5) 0.0836(3)
H20 H 0.8085 0.1938 0.0597
C19 C 0.0840(3) 0.3605(4) 0.63382(19)
C20 C -0.0353(5) 0.4936(5) 0.6011(3)
H21 H -0.0938 0.5079 0.6482
H22 H 0.0200 0.5902 0.5954
H23 H -0.1080 0.4673 0.5389
C21 C 0.2048(4) 0.4009(5) 0.7302(2)
H24 H 0.1527 0.4034 0.7811
H25 H 0.2874 0.3218 0.7453
H26 H 0.2509 0.5031 0.7254
H27? H 0.1320 0.2308 0.1084
loop_
_geom_bond_atom_site_label_1
_geom_bond_atom_site_label_2
_geom_bond_site_symmetry_1
_geom_bond_site_symmetry_2
P1 O3 1_555 1_555
O1 C11 1_555 1_555
O2 C11 1_555 1_555
N1 C6 1_555 1_555
C1 H1 1_555 1_555
C2 H2 1_555 1_555
C3 C1 1_555 1_555
H3 C3 1_555 1_555
C4 C3 1_555 1_555
H4 C4 1_555 1_555
C5 P1 1_555 1_555
H5 C5 1_555 1_555
C6 C5 1_555 1_555
H6 C6 1_555 1_555
H7 C6 1_555 1_555
C7 C1 1_555 1_555
H8 C7 1_555 1_555
C8 P1 1_555 1_555
C9 N1 1_555 1_555
H9 C9 1_555 1_555
H10 C9 1_555 1_555
C10 H11 1_555 1_555
C11 N1 1_555 1_555
C12 P1 1_555 1_555
C13 C12 1_555 1_555
H12 C13 1_555 1_555
C14 C5 1_555 1_555
H13 C14 1_555 1_555
H14 C14 1_555 1_555
C15 C10 1_555 1_555
H15 C15 1_555 1_555
C16 C13 1_555 1_555
H16 C16 1_555 1_555
C17 H17 1_555 1_555
H18 C17 1_555 1_555
H19 C17 1_555 1_555
C18 C15 1_555 1_555
H20 C18 1_555 1_555
C19 O2 1_555 1_555
C20 C19 1_555 1_555
H21 C20 1_555 1_555
H22 C20 1_555 1_555
H23 C20 1_555 1_555
C21 C19 1_555 1_555
H24 C21 1_555 1_555
H25 C21 1_555 1_555
H26 C21 1_555 1_555
C2 C7 1_555 1_555
C2 C8 1_555 1_555
C4 C8 1_555 1_555
C9 C14 1_555 1_555
C10 C12 1_555 1_555
C16 C18 1_555 1_555
C17 C19 1_555 1_555

#END
