
#######################################################################
#
#                 Cambridge Crystallographic Data Centre
#                                CCDC 
#
#######################################################################
#
# If this CIF has been generated from an entry in the Cambridge 
# Structural Database, then it will include bibliographic, chemical, 
# crystal, experimental, refinement or atomic coordinate data resulting 
# from the CCDC's data processing and validation procedures.
#
#######################################################################

data_QASPUW
_chemical_formula_moiety         'C19 H22 O3'
_chemical_name_systematic        
3-Methoxy-16\a,17\a-epoxyestra-1(10),2,4-trien-6-one
_symmetry_cell_setting           triclinic
_symmetry_space_group_name_H-M   'P 1'
_symmetry_Int_Tables_number      1
_space_group_name_Hall           'P 1'
loop_
_symmetry_equiv_pos_site_id
_symmetry_equiv_pos_as_xyz
1 x,y,z
_cell_length_a                   5.8083(8)
_cell_length_b                   8.2720(11)
_cell_length_c                   8.2975(12)
_cell_angle_alpha                92.068(3)
_cell_angle_beta                 92.261(3)
_cell_angle_gamma                104.236(3)
_cell_volume                     385.689
_exptl_crystal_colour            colorless
_exptl_crystal_description       prism
_cell_formula_units_Z            1
_exptl_crystal_recrystallization_method 'ethyl acetate/hexane'
loop_
_atom_site_label
_atom_site_type_symbol
_atom_site_fract_x
_atom_site_fract_y
_atom_site_fract_z
O1 O -0.8350(4) 0.2700(3) -0.1673(3)
O2 O -1.9218(4) 0.0587(3) -0.6797(4)
O3 O -2.2752(4) -0.5632(3) -0.7624(3)
C1 C -1.7401(6) -0.4353(4) -0.5048(5)
H1 H -1.6463 -0.4879 -0.4424
C2 C -1.9344(6) -0.5311(4) -0.5927(5)
H2 H -1.9664 -0.6468 -0.5917
C3 C -2.0825(6) -0.4578(4) -0.6825(4)
C4 C -2.0284(5) -0.2862(4) -0.6872(4)
H3 H -2.1248 -0.2351 -0.7491
C5 C -1.8282(6) -0.1883(4) -0.5990(4)
C6 C -1.7837(6) -0.0036(4) -0.6088(4)
C7 C -1.5613(6) 0.0996(4) -0.5214(4)
H4 H -1.5844 0.2089 -0.4922
H5 H -1.4311 0.1149 -0.5936
C8 C -1.4946(5) 0.0211(3) -0.3708(4)
H6 H -1.6246 0.0087 -0.2969
C9 C -1.4584(5) -0.1530(3) -0.4155(4)
H7 H -1.3316 -0.1354 -0.4922
C10 C -1.6793(5) -0.2605(3) -0.5066(4)
C11 C -1.3690(6) -0.2359(4) -0.2712(5)
H8 H -1.4979 -0.2704 -0.1993
H9 H -1.3248 -0.3355 -0.3102
C12 C -1.1557(6) -0.1223(4) -0.1755(5)
H10 H -1.1208 -0.1768 -0.0792
H11 H -1.0173 -0.1039 -0.2406
C13 C -1.2044(5) 0.0451(4) -0.1273(4)
C14 C -1.2666(5) 0.1232(3) -0.2839(4)
H12 H -1.1388 0.1189 -0.3563
C15 C -1.2354(5) 0.3079(4) -0.2364(4)
H13 H -1.2009 0.3768 -0.3288
H14 H -1.3757 0.3272 -0.1872
C16 C -1.0258(6) 0.3405(5) -0.1163(5)
H15 H -0.9905 0.4409 -0.0442
C17 C -0.9994(6) 0.1829(5) -0.0558(5)
H16 H -0.9454 0.1789 0.0571
C18 C -1.3964(6) 0.0256(5) -0.0033(4)
H17 H -1.4234 0.1329 0.0244
H18 H -1.3451 -0.0210 0.0919
H19 H -1.5413 -0.0473 -0.0485
C19 C -2.4267(7) -0.4924(5) -0.8581(5)
H20 H -2.5551 -0.5793 -0.9056
H21 H -2.3387 -0.4320 -0.9419
H22 H -2.4896 -0.4174 -0.7920
loop_
_geom_bond_atom_site_label_1
_geom_bond_atom_site_label_2
_geom_bond_site_symmetry_1
_geom_bond_site_symmetry_2
O1 C16 1_555 1_555
O2 C6 1_555 1_555
O3 C3 1_555 1_555
C1 H1 1_555 1_555
C2 C1 1_555 1_555
H2 C2 1_555 1_555
C3 C2 1_555 1_555
C4 C3 1_555 1_555
H3 C4 1_555 1_555
C5 C4 1_555 1_555
C6 C5 1_555 1_555
C7 C6 1_555 1_555
H4 C7 1_555 1_555
H5 C7 1_555 1_555
C8 C7 1_555 1_555
H6 C8 1_555 1_555
C9 C8 1_555 1_555
H7 C9 1_555 1_555
C10 C1 1_555 1_555
C11 C9 1_555 1_555
H8 C11 1_555 1_555
H9 C11 1_555 1_555
C12 C11 1_555 1_555
H10 C12 1_555 1_555
H11 C12 1_555 1_555
C13 C12 1_555 1_555
C14 C8 1_555 1_555
H12 C14 1_555 1_555
C15 C14 1_555 1_555
H13 C15 1_555 1_555
H14 C15 1_555 1_555
C16 C15 1_555 1_555
H15 C16 1_555 1_555
C17 O1 1_555 1_555
H16 C17 1_555 1_555
C18 C13 1_555 1_555
H17 C18 1_555 1_555
H18 C18 1_555 1_555
H19 C18 1_555 1_555
C19 O3 1_555 1_555
H20 C19 1_555 1_555
H21 C19 1_555 1_555
H22 C19 1_555 1_555
C5 C10 1_555 1_555
C9 C10 1_555 1_555
C13 C14 1_555 1_555
C13 C17 1_555 1_555
C16 C17 1_555 1_555

#END
