
#######################################################################
#
#                 Cambridge Crystallographic Data Centre
#                                CCDC 
#
#######################################################################
#
# If this CIF has been generated from an entry in the Cambridge 
# Structural Database, then it will include bibliographic, chemical, 
# crystal, experimental, refinement or atomic coordinate data resulting 
# from the CCDC's data processing and validation procedures.
#
#######################################################################

data_QASPOQ
_chemical_name_common            
3-Methoxy-13-methyl-8,9,11,12,13,14,15,16-octahydrospiro(cyclopenta(a)phenanthrene-17,2'-oxiran)-6(7H)-one
_chemical_formula_moiety         'C20 H24 O3'
_chemical_name_systematic        
3-Methoxy-17\b,17\b-(epoxymethylene)estra-1(10),2,4-trien-6-one
_symmetry_cell_setting           orthorhombic
_symmetry_space_group_name_H-M   'P 21 21 21'
_symmetry_Int_Tables_number      19
_space_group_name_Hall           'P 2ac 2ab'
loop_
_symmetry_equiv_pos_site_id
_symmetry_equiv_pos_as_xyz
1 x,y,z
2 1/2-x,-y,1/2+z
3 -x,1/2+y,1/2-z
4 1/2+x,1/2-y,-z
_cell_length_a                   7.7104(12)
_cell_length_b                   7.8894(12)
_cell_length_c                   26.917(4)
_cell_angle_alpha                90
_cell_angle_beta                 90
_cell_angle_gamma                90
_cell_volume                     1637.37
_exptl_crystal_colour            colorless
_exptl_crystal_description       plate
_cell_formula_units_Z            4
_exptl_crystal_recrystallization_method 'ethyl acetate/hexane'
loop_
_atom_site_label
_atom_site_type_symbol
_atom_site_fract_x
_atom_site_fract_y
_atom_site_fract_z
O1 O 0.86956(19) 0.07116(18) 0.07985(5)
O2 O 0.8328(2) 0.57309(17) 0.19777(5)
O3 O 0.5390(2) 0.1548(2) 0.47918(5)
C1 C 0.7651(2) -0.0217(2) 0.20747(7)
H1 H 0.7452 -0.1186 0.2263
C2 C 0.8078(2) -0.0386(3) 0.15814(7)
H2 H 0.8163 -0.1461 0.1442
C3 C 0.8383(2) 0.1038(2) 0.12895(7)
C4 C 0.8367(2) 0.2604(2) 0.15090(7)
H3 H 0.8650 0.3557 0.1323
C5 C 0.7931(2) 0.2783(2) 0.20112(7)
C6 C 0.7931(2) 0.4505(2) 0.22288(8)
C7 C 0.7391(3) 0.4709(2) 0.27576(7)
H4 H 0.6194 0.5085 0.2763
H5 H 0.8087 0.5603 0.2904
C8 C 0.7542(2) 0.3146(2) 0.30846(7)
H6 H 0.8769 0.2937 0.3157
C9 C 0.6783(2) 0.1586(2) 0.28203(6)
H7 H 0.5548 0.1834 0.2775
C10 C 0.7508(2) 0.1369(2) 0.23022(7)
C11 C 0.6852(3) 0.0008(2) 0.31521(7)
H8 H 0.6299 -0.0931 0.2982
H9 H 0.8054 -0.0297 0.3211
C12 C 0.5946(3) 0.0305(3) 0.36511(7)
H10 H 0.4715 0.0468 0.3595
H11 H 0.6088 -0.0691 0.3859
C13 C 0.6670(3) 0.1838(2) 0.39205(7)
C14 C 0.6568(3) 0.3366(2) 0.35710(7)
H12 H 0.5343 0.3453 0.3477
C15 C 0.6911(3) 0.4896(3) 0.39059(8)
H13 H 0.6372 0.5909 0.3773
H14 H 0.8146 0.5095 0.3944
C16 C 0.6082(3) 0.4385(3) 0.44040(8)
H15 H 0.6898 0.4537 0.4675
H16 H 0.5059 0.5065 0.4470
C17 C 0.5601(3) 0.2535(3) 0.43480(7)
C18 C 0.8516(3) 0.1514(3) 0.41143(8)
H17 H 0.9258 0.1306 0.3834
H18 H 0.8468 0.0480 0.4302
H19 H 0.9110 0.2385 0.4329
C19 C 0.3888(3) 0.1917(3) 0.44894(8)
H20 H 0.3056 0.2734 0.4615
H21 H 0.3392 0.0999 0.4297
C20 C 0.8979(4) 0.2095(3) 0.04726(8)
H22 H 0.9172 0.1678 0.0142
H23 H 0.9976 0.2724 0.0581
H24 H 0.7980 0.2821 0.0474
loop_
_geom_bond_atom_site_label_1
_geom_bond_atom_site_label_2
_geom_bond_site_symmetry_1
_geom_bond_site_symmetry_2
O1 C3 1_555 1_555
O2 C6 1_555 1_555
O3 C17 1_555 1_555
C1 H1 1_555 1_555
C2 C1 1_555 1_555
H2 C2 1_555 1_555
C3 C2 1_555 1_555
C4 C3 1_555 1_555
H3 C4 1_555 1_555
C5 C4 1_555 1_555
C6 C5 1_555 1_555
C7 C6 1_555 1_555
H4 C7 1_555 1_555
H5 C7 1_555 1_555
C8 C7 1_555 1_555
H6 C8 1_555 1_555
C9 C8 1_555 1_555
H7 C9 1_555 1_555
C10 C1 1_555 1_555
C11 C9 1_555 1_555
H8 C11 1_555 1_555
H9 C11 1_555 1_555
C12 C11 1_555 1_555
H10 C12 1_555 1_555
H11 C12 1_555 1_555
C13 C12 1_555 1_555
C14 C8 1_555 1_555
H12 C14 1_555 1_555
C15 C14 1_555 1_555
H13 C15 1_555 1_555
H14 C15 1_555 1_555
C16 C15 1_555 1_555
H15 C16 1_555 1_555
H16 C16 1_555 1_555
C17 C13 1_555 1_555
C18 C13 1_555 1_555
H17 C18 1_555 1_555
H18 C18 1_555 1_555
H19 C18 1_555 1_555
C19 O3 1_555 1_555
H20 C19 1_555 1_555
H21 C19 1_555 1_555
C20 O1 1_555 1_555
H22 C20 1_555 1_555
H23 C20 1_555 1_555
H24 C20 1_555 1_555
C5 C10 1_555 1_555
C9 C10 1_555 1_555
C13 C14 1_555 1_555
C16 C17 1_555 1_555
C17 C19 1_555 1_555

#END
