
#######################################################################
#
#                 Cambridge Crystallographic Data Centre
#                                CCDC 
#
#######################################################################
#
# If this CIF has been generated from an entry in the Cambridge 
# Structural Database, then it will include bibliographic, chemical, 
# crystal, experimental, refinement or atomic coordinate data resulting 
# from the CCDC's data processing and validation procedures.
#
#######################################################################

data_QASSUB
_chemical_name_common            'myrtucommulone N'
_chemical_formula_moiety         'C29 H44 O3'
_chemical_name_systematic        
2,2,4a,6,6,8,8-heptamethyl-13-methylidene-10-(propan-2-yl)-2,2a,3,4,4a,6,10,10a,11,12,13,13a-dodecahydrobenzo[b]cyclobuta[5,6]cyclonona[1,2-e]pyran-7,9(1H,8H)-dione
_symmetry_cell_setting           monoclinic
_symmetry_space_group_name_H-M   'P 21'
_symmetry_Int_Tables_number      4
_space_group_name_Hall           'P 2yb'
loop_
_symmetry_equiv_pos_site_id
_symmetry_equiv_pos_as_xyz
1 x,y,z
2 -x,1/2+y,-z
_cell_length_a                   10.7871(10)
_cell_length_b                   9.6563(5)
_cell_length_c                   13.0931(9)
_cell_angle_alpha                90
_cell_angle_beta                 91.883(7)
_cell_angle_gamma                90
_cell_volume                     1363.09
_exptl_crystal_colour            colorless
_exptl_crystal_description       block
_cell_formula_units_Z            2
loop_
_atom_site_label
_atom_site_type_symbol
_atom_site_fract_x
_atom_site_fract_y
_atom_site_fract_z
O1 O 0.2484(4) 0.5744(4) 0.2400(3)
O2 O -0.1668(5) 0.6000(5) 0.3278(4)
O3 O -0.0494(6) 0.2780(6) 0.0906(5)
C1 C 0.2893(6) 0.6285(6) 0.3408(5)
C2 C 0.4281(7) 0.6550(7) 0.3248(6)
H1 H 0.4632 0.6930 0.3880
H2 H 0.4672 0.5658 0.3147
C3 C 0.4664(7) 0.7493(8) 0.2384(7)
H3 H 0.5531 0.7314 0.2260
H4 H 0.4194 0.7221 0.1772
C4 C 0.4509(6) 0.9040(7) 0.2518(5)
H5 H 0.3656 0.9287 0.2314
C5 C 0.4841(6) 0.9765(6) 0.3534(5)
H6 H 0.5557 0.9291 0.3855
C6 C 0.3904(6) 1.0005(6) 0.4326(5)
C7 C 0.3586(7) 0.8818(6) 0.5021(5)
H7 H 0.3570 0.9159 0.5717
H8 H 0.4239 0.8129 0.4994
C8 C 0.2334(6) 0.8114(7) 0.4754(4)
H9 H 0.1679 0.8768 0.4896
H10 H 0.2242 0.7335 0.5213
C9 C 0.2116(5) 0.7582(5) 0.3647(4)
H11 H 0.2370 0.8320 0.3184
C10 C 0.5411(7) 1.0037(8) 0.1962(6)
C11 C 0.5315(7) 1.0993(7) 0.2906(6)
H12 H 0.6109 1.1353 0.3155
H13 H 0.4714 1.1733 0.2813
C12 C 0.4947(8) 1.0629(11) 0.0936(6)
H14 H 0.4202 1.1150 0.1031
H15 H 0.4777 0.9884 0.0466
H16 H 0.5570 1.1223 0.0666
C13 C 0.6723(7) 0.9463(9) 0.1880(7)
H17 H 0.6740 0.8808 0.1329
H18 H 0.6968 0.9012 0.2508
H19 H 0.7286 1.0208 0.1750
C14 C 0.3373(6) 1.1201(7) 0.4467(5)
H20 H 0.3575 1.1955 0.4062
H21 H 0.2793 1.1300 0.4972
C15 C 0.0696(6) 0.7331(6) 0.3446(5)
H22 H 0.0325 0.7168 0.4108
C16 C 0.0396(6) 0.6102(6) 0.2776(4)
C17 C 0.1272(6) 0.5434(5) 0.2267(4)
C18 C 0.1101(6) 0.4268(6) 0.1511(5)
C19 C -0.0248(7) 0.3842(7) 0.1378(6)
C20 C -0.1278(6) 0.4711(7) 0.1785(5)
C21 C -0.0882(7) 0.5623(7) 0.2689(5)
C22 C 0.0035(6) 0.8630(6) 0.2947(6)
H23 H -0.0826 0.8356 0.2793
C23 C -0.0019(8) 0.9898(8) 0.3638(7)
H24 H 0.0801 1.0272 0.3742
H25 H -0.0342 0.9636 0.4284
H26 H -0.0548 1.0586 0.3322
C24 C 0.0578(8) 0.9039(7) 0.1942(6)
H27 H 0.0671 0.8230 0.1525
H28 H 0.1374 0.9461 0.2067
H29 H 0.0035 0.9685 0.1596
C25 C 0.2745(8) 0.5127(7) 0.4183(5)
H30 H 0.3183 0.4320 0.3964
H31 H 0.1882 0.4910 0.4238
H32 H 0.3078 0.5421 0.4837
C26 C 0.1848(8) 0.3005(7) 0.1879(6)
H33 H 0.1600 0.2750 0.2551
H34 H 0.2716 0.3227 0.1899
H35 H 0.1696 0.2247 0.1418
C27 C 0.1563(7) 0.4736(8) 0.0476(5)
H36 H 0.2441 0.4898 0.0530
H37 H 0.1148 0.5575 0.0272
H38 H 0.1392 0.4029 -0.0024
C28 C -0.2390(8) 0.3808(9) 0.2046(7)
H39 H -0.2160 0.3198 0.2600
H40 H -0.2643 0.3270 0.1459
H41 H -0.3064 0.4388 0.2244
C29 C -0.1668(8) 0.5704(8) 0.0901(6)
H42 H -0.1936 0.5173 0.0315
H43 H -0.0973 0.6270 0.0729
H44 H -0.2334 0.6285 0.1113
loop_
_geom_bond_atom_site_label_1
_geom_bond_atom_site_label_2
_geom_bond_site_symmetry_1
_geom_bond_site_symmetry_2
O1 C1 1_555 1_555
O2 C21 1_555 1_555
O3 C19 1_555 1_555
C1 C2 1_555 1_555
C2 H1 1_555 1_555
H2 C2 1_555 1_555
C3 C2 1_555 1_555
H3 C3 1_555 1_555
H4 C3 1_555 1_555
C4 C3 1_555 1_555
H5 C4 1_555 1_555
C5 C4 1_555 1_555
H6 C5 1_555 1_555
C6 C5 1_555 1_555
C7 C6 1_555 1_555
H7 C7 1_555 1_555
H8 C7 1_555 1_555
C8 C7 1_555 1_555
H9 C8 1_555 1_555
H10 C8 1_555 1_555
C9 C1 1_555 1_555
H11 C9 1_555 1_555
C10 C4 1_555 1_555
C11 C5 1_555 1_555
H12 C11 1_555 1_555
H13 C11 1_555 1_555
C12 C10 1_555 1_555
H14 C12 1_555 1_555
H15 C12 1_555 1_555
H16 C12 1_555 1_555
C13 C10 1_555 1_555
H17 C13 1_555 1_555
H18 C13 1_555 1_555
H19 C13 1_555 1_555
C14 C6 1_555 1_555
H20 C14 1_555 1_555
H21 C14 1_555 1_555
C15 C9 1_555 1_555
H22 C15 1_555 1_555
C16 C15 1_555 1_555
C17 O1 1_555 1_555
C18 C17 1_555 1_555
C19 C18 1_555 1_555
C20 C19 1_555 1_555
C21 C16 1_555 1_555
C22 C15 1_555 1_555
H23 C22 1_555 1_555
C23 C22 1_555 1_555
H24 C23 1_555 1_555
H25 C23 1_555 1_555
H26 C23 1_555 1_555
C24 C22 1_555 1_555
H27 C24 1_555 1_555
H28 C24 1_555 1_555
H29 C24 1_555 1_555
C25 C1 1_555 1_555
H30 C25 1_555 1_555
H31 C25 1_555 1_555
H32 C25 1_555 1_555
C26 C18 1_555 1_555
H33 C26 1_555 1_555
H34 C26 1_555 1_555
H35 C26 1_555 1_555
C27 C18 1_555 1_555
H36 C27 1_555 1_555
H37 C27 1_555 1_555
H38 C27 1_555 1_555
C28 C20 1_555 1_555
H39 C28 1_555 1_555
H40 C28 1_555 1_555
H41 C28 1_555 1_555
C29 C20 1_555 1_555
H42 C29 1_555 1_555
H43 C29 1_555 1_555
H44 C29 1_555 1_555
C8 C9 1_555 1_555
C10 C11 1_555 1_555
C16 C17 1_555 1_555
C20 C21 1_555 1_555

#END
