
#######################################################################
#
#                 Cambridge Crystallographic Data Centre
#                                CCDC 
#
#######################################################################
#
# If this CIF has been generated from an entry in the Cambridge 
# Structural Database, then it will include bibliographic, chemical, 
# crystal, experimental, refinement or atomic coordinate data resulting 
# from the CCDC's data processing and validation procedures.
#
#######################################################################

data_QASVOW
_chemical_name_common            3,4,3',4'-Tetramethoxystilbene
_chemical_formula_moiety         'C18 H20 O4'
_chemical_name_systematic        
4-((E)-2-(3,4-Dimethoxyphenyl)-1-ethenyl)-1,2-dimethoxybenzene
_symmetry_cell_setting           monoclinic
_symmetry_space_group_name_H-M   'P 21/c'
_symmetry_Int_Tables_number      14
_space_group_name_Hall           '-P 2ybc'
loop_
_symmetry_equiv_pos_site_id
_symmetry_equiv_pos_as_xyz
1 x,y,z
2 -x,1/2+y,1/2-z
3 -x,-y,-z
4 x,1/2-y,1/2+z
_cell_length_a                   8.9484(5)
_cell_length_b                   6.7152(3)
_cell_length_c                   12.4323(7)
_cell_angle_alpha                90
_cell_angle_beta                 92.500(3)
_cell_angle_gamma                90
_cell_volume                     746.35
_exptl_crystal_colour            yellowish
_chemical_melting_point          '148-150deg. C'
_cell_formula_units_Z            2
_exptl_crystal_recrystallization_method dichloromethane/hexane
loop_
_atom_site_label
_atom_site_type_symbol
_atom_site_fract_x
_atom_site_fract_y
_atom_site_fract_z
O1 O 0.15564(11) 0.03871(16) 0.06730(8)
O2 O 0.03142(10) 0.08495(16) 0.25000(8)
C1 C 0.51799(17) -0.0234(2) 0.44987(13)
C2 C 0.42267(16) -0.0118(2) 0.35103(12)
C3 C 0.48470(17) -0.0423(2) 0.25215(13)
C4 C 0.39955(17) -0.0267(2) 0.15578(13)
C5 C 0.24907(17) 0.0198(2) 0.15699(12)
C6 C 0.18225(16) 0.0469(2) 0.25691(13)
C7 C 0.26804(17) 0.0319(2) 0.35168(13)
C8 C 0.2141(2) -0.0228(3) -0.03325(13)
C9 C -0.04740(19) 0.0730(3) 0.34763(14)
H1 H 0.4453(17) -0.050(2) 0.0894(13)
H2 H 0.591(2) -0.076(2) 0.2513(13)
H3 H 0.2216(17) 0.051(2) 0.4183(14)
H4 H 0.128(2) -0.023(2) -0.0834(15)
H5 H 0.2586(16) -0.164(3) -0.0275(12)
H6 H 0.2928(19) 0.075(3) -0.0568(14)
H7 H -0.1529(19) 0.092(2) 0.3247(12)
H8 H -0.0152(16) 0.173(3) 0.4004(13)
H9 H -0.0363(18) -0.060(3) 0.3830(15)
H10 H 0.6176(19) -0.069(2) 0.4362(12)
O1B O 0.84436(11) -0.03871(16) 0.93270(8)
O2B O 0.96858(10) -0.08495(16) 0.75000(8)
C1B C 0.48201(17) 0.0234(2) 0.55013(13)
C2B C 0.57733(16) 0.0118(2) 0.64897(12)
C3B C 0.51530(17) 0.0423(2) 0.74785(13)
C4B C 0.60045(17) 0.0267(2) 0.84422(13)
C5B C 0.75093(17) -0.0198(2) 0.84301(12)
C6B C 0.81775(16) -0.0469(2) 0.74309(13)
C7B C 0.73196(17) -0.0319(2) 0.64832(13)
C8B C 0.7859(2) 0.0228(3) 1.03325(13)
C9B C 1.04740(19) -0.0730(3) 0.65237(14)
H1B H 0.5547(17) 0.050(2) 0.9106(13)
H2B H 0.409(2) 0.076(2) 0.7487(13)
H3B H 0.7784(17) -0.051(2) 0.5817(14)
H4B H 0.872(2) 0.023(2) 1.0834(15)
H5B H 0.7414(16) 0.164(3) 1.0275(12)
H6B H 0.7072(19) -0.075(3) 1.0568(14)
H7B H 1.1529(19) -0.092(2) 0.6753(12)
H8B H 1.0152(16) -0.173(3) 0.5996(13)
H9B H 1.0363(18) 0.060(3) 0.6170(15)
H10B H 0.3824(19) 0.069(2) 0.5638(12)
loop_
_geom_bond_atom_site_label_1
_geom_bond_atom_site_label_2
_geom_bond_site_symmetry_1
_geom_bond_site_symmetry_2
O1 C5 1_555 1_555
O2 C6 1_555 1_555
C1 C2 1_555 1_555
C2 C3 1_555 1_555
C3 C4 1_555 1_555
C4 C5 1_555 1_555
C5 C6 1_555 1_555
C6 C7 1_555 1_555
C7 C2 1_555 1_555
C8 O1 1_555 1_555
C9 O2 1_555 1_555
H1 C4 1_555 1_555
H2 C3 1_555 1_555
H3 C7 1_555 1_555
H4 C8 1_555 1_555
H5 C8 1_555 1_555
H6 C8 1_555 1_555
H7 C9 1_555 1_555
H8 C9 1_555 1_555
H9 C9 1_555 1_555
H10 C1 1_555 1_555
O1B C5B 1_555 1_555
O2B C6B 1_555 1_555
C1B C1 1_555 1_555
C2B C1B 1_555 1_555
C3B C2B 1_555 1_555
C4B C3B 1_555 1_555
C5B C4B 1_555 1_555
C6B C5B 1_555 1_555
C7B C2B 1_555 1_555
C8B O1B 1_555 1_555
C9B O2B 1_555 1_555
H1B C4B 1_555 1_555
H2B C3B 1_555 1_555
H3B C7B 1_555 1_555
H4B C8B 1_555 1_555
H5B C8B 1_555 1_555
H6B C8B 1_555 1_555
H7B C9B 1_555 1_555
H8B C9B 1_555 1_555
H9B C9B 1_555 1_555
H10B C1B 1_555 1_555
C6B C7B 1_555 1_555

#END
