
#######################################################################
#
#                 Cambridge Crystallographic Data Centre
#                                CCDC 
#
#######################################################################
#
# If this CIF has been generated from an entry in the Cambridge 
# Structural Database, then it will include bibliographic, chemical, 
# crystal, experimental, refinement or atomic coordinate data resulting 
# from the CCDC's data processing and validation procedures.
#
#######################################################################

data_QASYOB
_chemical_formula_moiety         'C15 H20 Cl1 N1 O1'
_chemical_name_systematic        
(S)-1-(5-chloro-1-methyl-1H-indol-2-yl)hexan-1-ol
_symmetry_cell_setting           orthorhombic
_symmetry_space_group_name_H-M   'P 21 21 21'
_symmetry_Int_Tables_number      19
_space_group_name_Hall           'P 2ac 2ab'
loop_
_symmetry_equiv_pos_site_id
_symmetry_equiv_pos_as_xyz
1 x,y,z
2 1/2-x,-y,1/2+z
3 -x,1/2+y,1/2-z
4 1/2+x,1/2-y,-z
_cell_length_a                   4.9724(2)
_cell_length_b                   10.7500(3)
_cell_length_c                   26.2247(8)
_cell_angle_alpha                90
_cell_angle_beta                 90
_cell_angle_gamma                90
_cell_volume                     1401.8
_exptl_crystal_colour            colorless
_exptl_crystal_description       needle
_cell_formula_units_Z            4
loop_
_atom_site_label
_atom_site_type_symbol
_atom_site_fract_x
_atom_site_fract_y
_atom_site_fract_z
Cl1 Cl 0.96899(12) 0.71617(6) 0.20482(2)
O1 O 0.0696(3) 0.74676(11) 0.47688(5)
H1 H 0.220(5) 0.7478(15) 0.4890(7)
N1 N 0.1795(3) 0.68391(14) 0.36943(6)
C1 C 0.4010(4) 0.57312(19) 0.29593(8)
H2 H 0.3031 0.4976 0.2992
C2 C 0.5937(5) 0.5884(2) 0.25836(8)
H3 H 0.6299 0.5225 0.2352
C3 C 0.7357(4) 0.7005(2) 0.25426(8)
C4 C 0.6987(4) 0.79904(19) 0.28727(7)
H4 H 0.8018 0.8731 0.2843
C5 C 0.5024(4) 0.78535(16) 0.32534(7)
C6 C 0.4087(4) 0.86429(16) 0.36546(7)
H5 H 0.4708 0.9459 0.3728
C7 C 0.2128(4) 0.80064(16) 0.39153(7)
C8 C 0.0508(4) 0.83902(16) 0.43709(7)
H6 H -0.1418 0.8446 0.4264
C9 C 0.1362(4) 0.96692(16) 0.45688(7)
H7 H 0.3321 0.9656 0.4636
H8 H 0.1026 1.0294 0.4299
C10 C -0.0087(4) 1.00755(16) 0.50529(7)
H9 H 0.0054 0.9407 0.5311
H10 H -0.2017 1.0202 0.4976
C11 C 0.1077(4) 1.12738(16) 0.52725(7)
H11 H 0.3041 1.1168 0.5317
H12 H 0.0792 1.1954 0.5024
C12 C -0.0137(4) 1.16560(17) 0.57799(7)
H13 H 0.0085 1.0968 0.6027
H14 H -0.2088 1.1802 0.5735
C13 C -0.0193(5) 0.59074(17) 0.38340(7)
H15 H -0.0630 0.5399 0.3535
H16 H -0.1825 0.6321 0.3957
H17 H 0.0535 0.5375 0.4104
C14 C 0.1156(4) 1.28266(18) 0.59956(8)
H18 H 0.0902 1.3517 0.5756
H19 H 0.3083 1.2683 0.6047
H20 H 0.0315 1.3034 0.6323
C15 C 0.3562(4) 0.67335(18) 0.32891(7)
loop_
_geom_bond_atom_site_label_1
_geom_bond_atom_site_label_2
_geom_bond_site_symmetry_1
_geom_bond_site_symmetry_2
Cl1 C3 1_555 1_555
O1 H1 1_555 1_555
N1 C7 1_555 1_555
C1 H2 1_555 1_555
C2 C1 1_555 1_555
H3 C2 1_555 1_555
C3 C2 1_555 1_555
C4 C3 1_555 1_555
H4 C4 1_555 1_555
C5 C4 1_555 1_555
C6 C5 1_555 1_555
H5 C6 1_555 1_555
C7 C6 1_555 1_555
C8 O1 1_555 1_555
H6 C8 1_555 1_555
C9 C8 1_555 1_555
H7 C9 1_555 1_555
H8 C9 1_555 1_555
C10 C9 1_555 1_555
H9 C10 1_555 1_555
H10 C10 1_555 1_555
C11 C10 1_555 1_555
H11 C11 1_555 1_555
H12 C11 1_555 1_555
C12 C11 1_555 1_555
H13 C12 1_555 1_555
H14 C12 1_555 1_555
C13 N1 1_555 1_555
H15 C13 1_555 1_555
H16 C13 1_555 1_555
H17 C13 1_555 1_555
C14 C12 1_555 1_555
H18 C14 1_555 1_555
H19 C14 1_555 1_555
H20 C14 1_555 1_555
C15 N1 1_555 1_555
C1 C15 1_555 1_555
C5 C15 1_555 1_555
C7 C8 1_555 1_555

#END
