
#######################################################################
#
#                 Cambridge Crystallographic Data Centre
#                                CCDC 
#
#######################################################################
#
# If this CIF has been generated from an entry in the Cambridge 
# Structural Database, then it will include bibliographic, chemical, 
# crystal, experimental, refinement or atomic coordinate data resulting 
# from the CCDC's data processing and validation procedures.
#
#######################################################################

data_QASZAM
_chemical_formula_moiety         'C29 H25 F3 O1'
_chemical_name_systematic        
1,3,6-tris(4-Fluorophenyl)-3a,5,6a-trimethyl-4-methylene-3,3a,4,6a-tetrahydro-1H-cyclopenta(c)furan
_symmetry_cell_setting           triclinic
_symmetry_space_group_name_H-M   'P -1'
_symmetry_Int_Tables_number      2
_space_group_name_Hall           '-P 1'
loop_
_symmetry_equiv_pos_site_id
_symmetry_equiv_pos_as_xyz
1 x,y,z
2 -x,-y,-z
_cell_length_a                   10.728(1)
_cell_length_b                   12.137(2)
_cell_length_c                   9.271(1)
_cell_angle_alpha                99.676(4)
_cell_angle_beta                 101.538(5)
_cell_angle_gamma                99.699(4)
_cell_volume                     1140.11
_exptl_crystal_colour            colorless
_exptl_crystal_description       Block
_cell_formula_units_Z            2
loop_
_atom_site_label
_atom_site_type_symbol
_atom_site_fract_x
_atom_site_fract_y
_atom_site_fract_z
F1 F 0.18448(17) 0.19919(16) -0.24907(17)
F2 F 0.01356(13) 0.05554(18) 0.18348(18)
F3 F 0.87335(13) 0.49467(14) 1.19695(14)
O1 O 0.58461(11) 0.18318(11) 0.57276(13)
C1 C 0.2823(3) 0.2212(2) -0.1219(3)
C2 C 0.2590(2) 0.2699(2) 0.0103(3)
H1 H 0.1783 0.2874 0.0135
C3 C 0.3574(2) 0.29317(19) 0.1407(2)
H2 H 0.3425 0.3273 0.2315
C4 C 0.47757(19) 0.26627(15) 0.1376(2)
C5 C 0.4956(2) 0.21816(17) -0.0017(2)
H3 H 0.5758 0.2006 -0.0075
C6 C 0.3986(3) 0.19552(19) -0.1315(2)
H4 H 0.4128 0.1633 -0.2236
C7 C 0.1444(2) 0.0712(3) 0.2418(3)
C8 C 0.1986(2) 0.1461(2) 0.3763(3)
H5 H 0.1475 0.1843 0.4284
C9 C 0.33168(19) 0.16358(19) 0.4328(2)
H6 H 0.3702 0.2151 0.5234
C10 C 0.40849(18) 0.10628(15) 0.35771(19)
C11 C 0.3471(2) 0.02831(17) 0.2232(2)
H7 H 0.3963 -0.0136 0.1728
C12 C 0.2149(2) 0.0118(2) 0.1630(3)
H8 H 0.1753 -0.0383 0.0715
C13 C 0.8362(2) 0.4282(2) 1.0552(2)
C14 C 0.7241(2) 0.43407(19) 0.9634(2)
H9 H 0.6721 0.4826 0.9957
C15 C 0.6881(2) 0.36628(18) 0.8198(2)
H10 H 0.6111 0.3698 0.7552
C16 C 0.76401(18) 0.29355(16) 0.7705(2)
C17 C 0.8772(2) 0.2897(2) 0.8689(2)
H11 H 0.9293 0.2407 0.8383
C18 C 0.9149(2) 0.3575(2) 1.0126(3)
H12 H 0.9917 0.3551 1.0783
C19 C 0.72323(17) 0.22003(16) 0.61351(19)
H13 H 0.7610 0.1520 0.6152
C20 C 0.75740(17) 0.27314(16) 0.4813(2)
C21 C 0.74035(18) 0.39615(16) 0.4882(2)
C22 C 0.63502(18) 0.39780(15) 0.36235(19)
C23 C 0.58298(17) 0.29161(15) 0.27796(19)
C24 C 0.64540(17) 0.20073(16) 0.3423(2)
C25 C 0.55327(17) 0.12652(16) 0.41846(19)
H14 H 0.5773 0.0518 0.4135
C26 C 0.89747(19) 0.2665(2) 0.4722(2)
H15 H 0.9071 0.1885 0.4631
H16 H 0.9570 0.3126 0.5617
H17 H 0.9158 0.2941 0.3859
C27 C 0.6917(2) 0.12137(17) 0.2269(2)
H18 H 0.7463 0.1663 0.1785
H19 H 0.6178 0.0746 0.1529
H20 H 0.7401 0.0734 0.2771
C28 C 0.6006(2) 0.50778(17) 0.3326(2)
H21 H 0.5389 0.4933 0.2376
H22 H 0.6777 0.5600 0.3301
H23 H 0.5633 0.5405 0.4112
C29 C 0.8145(3) 0.4886(2) 0.5863(3)
H24 H 0.8836(18) 0.4821(18) 0.666(2)
H25 H 0.803(2) 0.5659(14) 0.576(2)
loop_
_geom_bond_atom_site_label_1
_geom_bond_atom_site_label_2
_geom_bond_site_symmetry_1
_geom_bond_site_symmetry_2
F1 C1 1_555 1_555
F2 C7 1_555 1_555
F3 C13 1_555 1_555
O1 C19 1_555 1_555
C1 C2 1_555 1_555
C2 H1 1_555 1_555
C3 C2 1_555 1_555
H2 C3 1_555 1_555
C4 C3 1_555 1_555
C5 C4 1_555 1_555
H3 C5 1_555 1_555
C6 C1 1_555 1_555
H4 C6 1_555 1_555
C7 C8 1_555 1_555
C8 H5 1_555 1_555
C9 C8 1_555 1_555
H6 C9 1_555 1_555
C10 C9 1_555 1_555
C11 C10 1_555 1_555
H7 C11 1_555 1_555
C12 C7 1_555 1_555
H8 C12 1_555 1_555
C13 C14 1_555 1_555
C14 H9 1_555 1_555
C15 C14 1_555 1_555
H10 C15 1_555 1_555
C16 C15 1_555 1_555
C17 C16 1_555 1_555
H11 C17 1_555 1_555
C18 C13 1_555 1_555
H12 C18 1_555 1_555
C19 C16 1_555 1_555
H13 C19 1_555 1_555
C20 C19 1_555 1_555
C21 C20 1_555 1_555
C22 C21 1_555 1_555
C23 C4 1_555 1_555
C24 C20 1_555 1_555
C25 O1 1_555 1_555
H14 C25 1_555 1_555
C26 C20 1_555 1_555
H15 C26 1_555 1_555
H16 C26 1_555 1_555
H17 C26 1_555 1_555
C27 C24 1_555 1_555
H18 C27 1_555 1_555
H19 C27 1_555 1_555
H20 C27 1_555 1_555
C28 C22 1_555 1_555
H21 C28 1_555 1_555
H22 C28 1_555 1_555
H23 C28 1_555 1_555
C29 C21 1_555 1_555
H24 C29 1_555 1_555
H25 C29 1_555 1_555
C5 C6 1_555 1_555
C10 C25 1_555 1_555
C11 C12 1_555 1_555
C17 C18 1_555 1_555
C22 C23 1_555 1_555
C23 C24 1_555 1_555
C24 C25 1_555 1_555

#END
