
#######################################################################
#
#                 Cambridge Crystallographic Data Centre
#                                CCDC 
#
#######################################################################
#
# If this CIF has been generated from an entry in the Cambridge 
# Structural Database, then it will include bibliographic, chemical, 
# crystal, experimental, refinement or atomic coordinate data resulting 
# from the CCDC's data processing and validation procedures.
#
#######################################################################

data_QATJUR
_chemical_compound_source        'root of Salvia miltiorrhiza'
_chemical_name_common            'Dihydrotanshinone hemihydrate'
_chemical_formula_moiety         'C18 H14 O3,0.5(H2 O1)'
_chemical_name_systematic        
'1,2-Dihydro-1,6-dimethylphenanthro(1,2-b)furan-10,11-dione hemihydrate'
_chemical_properties_biological  'pharmacological activity'
_symmetry_cell_setting           monoclinic
_symmetry_space_group_name_H-M   'P 21'
_symmetry_Int_Tables_number      4
_space_group_name_Hall           'P 2yb'
loop_
_symmetry_equiv_pos_site_id
_symmetry_equiv_pos_as_xyz
1 x,y,z
2 -x,1/2+y,-z
_cell_length_a                   7.287(2)
_cell_length_b                   26.569(9)
_cell_length_c                   7.294(3)
_cell_angle_alpha                90
_cell_angle_beta                 95.590(7)
_cell_angle_gamma                90
_cell_volume                     1405.46
_exptl_crystal_colour            red
_exptl_crystal_description       plate
_cell_formula_units_Z            4
_exptl_crystal_recrystallization_method 'petroleum ether/ethyl acetate'
loop_
_atom_site_label
_atom_site_type_symbol
_atom_site_fract_x
_atom_site_fract_y
_atom_site_fract_z
C1 C 0.9253(5) 0.91392(13) 0.8099(4)
H1 H 0.8437 0.8884 0.7695
C2 C 0.8662(6) 0.96308(15) 0.8064(5)
H2 H 0.7438 0.9705 0.7679
C3 C 0.9896(6) 1.00237(14) 0.8605(5)
H3 H 0.9479 1.0355 0.8534
C4 C 1.1670(5) 0.99307(13) 0.9225(4)
C5 C 1.2327(4) 0.94229(12) 0.9327(4)
C6 C 1.4157(5) 0.93134(14) 0.9974(5)
H4 H 1.4953 0.9577 1.0334
C7 C 1.4799(5) 0.88369(13) 1.0090(5)
H5 H 1.6020 0.8777 1.0530
C8 C 1.3631(4) 0.84312(12) 0.9551(4)
C9 C 1.1807(4) 0.85157(12) 0.8857(4)
C10 C 1.1100(4) 0.90174(12) 0.8750(4)
C11 C 1.0691(5) 0.80678(13) 0.8224(4)
C12 C 1.1563(5) 0.75316(14) 0.8398(5)
C13 C 1.3413(5) 0.74957(13) 0.9162(5)
C14 C 1.4336(4) 0.79210(13) 0.9683(4)
C15 C 1.6465(6) 0.73087(16) 1.0269(7)
H6 H 1.6923 0.7180 1.1472
H7 H 1.7387 0.7248 0.9422
C16 C 1.4635(5) 0.70471(14) 0.9578(5)
H8 H 1.4782 0.6861 0.8442
C17 C 1.3957(6) 0.66965(15) 1.1009(5)
H9 H 1.2728 0.6587 1.0609
H10 H 1.3957 0.6871 1.2161
H11 H 1.4758 0.6410 1.1164
C18 C 1.2953(6) 1.03576(15) 0.9780(6)
H12 H 1.2298 1.0671 0.9623
H13 H 1.3960 1.0356 0.9024
H14 H 1.3421 1.0319 1.1049
O1 O 1.6074(3) 0.78468(10) 1.0377(3)
O2 O 1.0582(4) 0.71746(10) 0.7862(4)
O3 O 0.9118(3) 0.80813(10) 0.7532(4)
C19 C 0.5556(4) 0.39037(13) 0.4989(5)
H15 H 0.4729 0.4158 0.4608
C20 C 0.4989(5) 0.34120(13) 0.4926(5)
H16 H 0.3771 0.3338 0.4513
C21 C 0.6192(5) 0.30211(13) 0.5465(4)
H17 H 0.5764 0.2691 0.5387
C22 C 0.7987(5) 0.31099(11) 0.6106(4)
C23 C 0.8635(4) 0.36207(11) 0.6212(4)
C24 C 1.0461(4) 0.37291(12) 0.6855(4)
H18 H 1.1259 0.3465 0.7205
C25 C 1.1102(4) 0.42086(12) 0.6981(4)
H19 H 1.2319 0.4270 0.7432
C26 C 0.9942(4) 0.46086(11) 0.6437(4)
C27 C 0.8121(4) 0.45307(10) 0.5748(4)
C28 C 0.7408(4) 0.40262(12) 0.5637(4)
C29 C 0.7002(5) 0.49820(12) 0.5137(4)
C30 C 0.7888(5) 0.55148(13) 0.5329(5)
C31 C 0.9761(5) 0.55435(12) 0.6059(5)
C32 C 1.0658(4) 0.51196(12) 0.6577(4)
C33 C 1.2737(6) 0.57297(15) 0.7351(7)
H20 H 1.3819 0.5808 0.6730
H21 H 1.2944 0.5847 0.8614
C34 C 1.1044(5) 0.59857(13) 0.6376(5)
H22 H 1.0537 0.6227 0.7210
C35 C 1.1462(7) 0.62484(17) 0.4641(7)
H23 H 1.0332 0.6360 0.3979
H24 H 1.2077 0.6020 0.3886
H25 H 1.2243 0.6533 0.4948
C36 C 0.9276(5) 0.26849(12) 0.6692(5)
H26 H 0.8617 0.2372 0.6581
H27 H 0.9764 0.2734 0.7950
H28 H 1.0269 0.2678 0.5920
O4 O 1.2403(3) 0.51878(9) 0.7312(3)
O5 O 0.6899(4) 0.58736(9) 0.4869(4)
O6 O 0.5427(3) 0.49676(9) 0.4470(4)
O7 O 0.6965(4) 0.69888(13) 0.5430(5)
H29 H 0.7069 0.6655 0.5482
H30 H 0.7741 0.7109 0.6328
loop_
_geom_bond_atom_site_label_1
_geom_bond_atom_site_label_2
_geom_bond_site_symmetry_1
_geom_bond_site_symmetry_2
C1 H1 1_555 1_555
C2 C1 1_555 1_555
H2 C2 1_555 1_555
C3 C2 1_555 1_555
H3 C3 1_555 1_555
C4 C3 1_555 1_555
C5 C4 1_555 1_555
C6 C5 1_555 1_555
H4 C6 1_555 1_555
C7 C6 1_555 1_555
H5 C7 1_555 1_555
C8 C7 1_555 1_555
C9 C8 1_555 1_555
C10 C1 1_555 1_555
C11 C9 1_555 1_555
C12 C11 1_555 1_555
C13 C12 1_555 1_555
C14 C8 1_555 1_555
C15 H6 1_555 1_555
H7 C15 1_555 1_555
C16 C13 1_555 1_555
H8 C16 1_555 1_555
C17 C16 1_555 1_555
H9 C17 1_555 1_555
H10 C17 1_555 1_555
H11 C17 1_555 1_555
C18 C4 1_555 1_555
H12 C18 1_555 1_555
H13 C18 1_555 1_555
H14 C18 1_555 1_555
C19 H15 1_555 1_555
C20 C19 1_555 1_555
H16 C20 1_555 1_555
C21 C20 1_555 1_555
H17 C21 1_555 1_555
C22 C21 1_555 1_555
C23 C22 1_555 1_555
C24 C23 1_555 1_555
H18 C24 1_555 1_555
C25 C24 1_555 1_555
H19 C25 1_555 1_555
C26 C25 1_555 1_555
C27 C26 1_555 1_555
C28 C19 1_555 1_555
C29 C27 1_555 1_555
C30 C29 1_555 1_555
C31 C30 1_555 1_555
C32 C26 1_555 1_555
C33 H20 1_555 1_555
H21 C33 1_555 1_555
C34 C31 1_555 1_555
H22 C34 1_555 1_555
C35 C34 1_555 1_555
H23 C35 1_555 1_555
H24 C35 1_555 1_555
H25 C35 1_555 1_555
C36 C22 1_555 1_555
H26 C36 1_555 1_555
H27 C36 1_555 1_555
H28 C36 1_555 1_555
O1 C14 1_555 1_555
O2 C12 1_555 1_555
O3 C11 1_555 1_555
O4 C32 1_555 1_555
O5 C30 1_555 1_555
O6 C29 1_555 1_555
O7 H29 1_555 1_555
H30 O7 1_555 1_555
C5 C10 1_555 1_555
C9 C10 1_555 1_555
C13 C14 1_555 1_555
C15 C16 1_555 1_555
C15 O1 1_555 1_555
C23 C28 1_555 1_555
C27 C28 1_555 1_555
C31 C32 1_555 1_555
C33 C34 1_555 1_555
C33 O4 1_555 1_555

#END
