
#######################################################################
#
#                 Cambridge Crystallographic Data Centre
#                                CCDC 
#
#######################################################################
#
# If this CIF has been generated from an entry in the Cambridge 
# Structural Database, then it will include bibliographic, chemical, 
# crystal, experimental, refinement or atomic coordinate data resulting 
# from the CCDC's data processing and validation procedures.
#
#######################################################################

data_QATKEC02
_chemical_formula_moiety         'C6 H16 N1 1+,C6 H2 N3 O7 1-'
_chemical_name_systematic        'triethylammonium picrate'
_symmetry_cell_setting           monoclinic
_symmetry_space_group_name_H-M   'P 21/n'
_symmetry_Int_Tables_number      14
_space_group_name_Hall           '-P 2yn'
loop_
_symmetry_equiv_pos_site_id
_symmetry_equiv_pos_as_xyz
1 x,y,z
2 1/2-x,1/2+y,1/2-z
3 -x,-y,-z
4 1/2+x,1/2-y,1/2+z
_cell_length_a                   7.1886(3)
_cell_length_b                   20.5334(8)
_cell_length_c                   11.0533(4)
_cell_angle_alpha                90
_cell_angle_beta                 91.295(4)
_cell_angle_gamma                90
_cell_volume                     1631.12
_exptl_crystal_colour            yellow
_exptl_crystal_description       rod
_chemical_melting_point          '463 K'
_cell_formula_units_Z            4
_exptl_crystal_recrystallization_method 
'Re-crystallisation from solvent: ethanol'
_exptl_crystal_preparation       'phase transition'
loop_
_atom_site_label
_atom_site_type_symbol
_atom_site_fract_x
_atom_site_fract_y
_atom_site_fract_z
C1 C 0.7937(5) 0.55126(19) 0.8999(3)
O1 O 0.8243(6) 0.5941(2) 0.8232(3)
C2 C 0.7681(5) 0.5649(2) 1.0238(4)
O2 O 0.6513(11) 0.4209(5) 1.2639(7)
C3 C 0.7793(5) 0.4832(2) 0.8742(4)
C4 C 0.7265(5) 0.5176(3) 1.1088(4)
H1 H 0.7068 0.5291 1.1908
C5 C 0.7145(5) 0.4545(3) 1.0723(5)
C6 C 0.7396(6) 0.4374(2) 0.9565(5)
H2 H 0.7295 0.3930 0.9329
N1 N 0.7850(9) 0.6310(3) 1.0684(6)
N2 N 0.6700(9) 0.4060(4) 1.1620(8)
N3 N 0.8159(10) 0.4623(4) 0.7492(6)
O3 O 0.6621(12) 0.3490(4) 1.1250(9)
O4 O 0.9216(16) 0.4950(6) 0.6867(7)
O5 O 0.8929(17) 0.6678(4) 1.0197(11)
O6 O 0.684(2) 0.6475(6) 1.1558(11)
O7 O 0.7138(19) 0.4157(5) 0.7098(9)
N4 N 0.8034(7) 0.6580(2) 0.6058(4)
C7 C 0.984(2) 0.6608(8) 0.5654(15)
H3 H 1.0275 0.6154 0.5554
H4 H 1.0617 0.6804 0.6310
C8 C 1.024(2) 0.6945(9) 0.4580(16)
H5 H 0.9680 0.6712 0.3887
H6 H 1.1586 0.6971 0.4487
H7 H 0.9716 0.7385 0.4617
C9 C 0.637(3) 0.5837(11) 0.4837(18)
C10 C 0.845(5) 0.6058(10) 0.5006(15)
H8 H 0.8322 0.6313 0.4249
H9 H 0.9800 0.5968 0.5106
C11 C 0.934(3) 0.7422(13) 0.742(2)
H10 H 0.8994 0.7658 0.8157
H11 H 1.0279 0.7671 0.6994
H12 H 0.9846 0.6994 0.7650
C12 C 0.786(2) 0.7344(7) 0.6721(15)
H13 H 0.7810 0.7687 0.6091
H14 H 0.6717 0.7372 0.7200
H15 H 0.7894 0.6374 0.6778
O8? O 0.875(3) 0.4132(9) 0.7306(16)
O9? O 0.854(3) 0.6404(8) 1.1639(17)
O10? O 0.695(3) 0.6713(8) 1.013(2)
O11? O 0.743(4) 0.4980(14) 0.676(2)
C13? C 0.657(3) 0.7044(9) 0.6114(18)
H16? H 0.5356 0.6819 0.6108
C14? C 0.637(2) 0.6496(10) 0.5373(15)
H17? H 0.6608 0.7337 0.5404
H18? H 0.6277 0.6829 0.4726
H19? H 0.5281 0.6546 0.5901
C15? C 0.687(4) 0.7483(13) 0.742(3)
H20? H 0.7867 0.7801 0.7320
H21? H 0.7189 0.7188 0.8088
H22? H 0.5706 0.7712 0.7596
C16? C 0.773(2) 0.5489(7) 0.4728(15)
H23? H 0.8385 0.5147 0.5181
H24? H 0.7841 0.5411 0.3858
H25? H 0.6407 0.5486 0.4936
H26? H 0.7570 0.5759 0.4454
H27? H 0.5367 0.5802 0.4227
H28? H 0.6188 0.5512 0.5472
loop_
_geom_bond_atom_site_label_1
_geom_bond_atom_site_label_2
_geom_bond_site_symmetry_1
_geom_bond_site_symmetry_2
C1 O1 1_555 1_555
C2 C1 1_555 1_555
O2 N2 1_555 1_555
C3 C1 1_555 1_555
C4 C2 1_555 1_555
H1 C4 1_555 1_555
C5 C4 1_555 1_555
C6 C3 1_555 1_555
H2 C6 1_555 1_555
N1 C2 1_555 1_555
N2 C5 1_555 1_555
N3 C3 1_555 1_555
O3 N2 1_555 1_555
O4 N3 1_555 1_555
O5 N1 1_555 1_555
O6 N1 1_555 1_555
O7 N3 1_555 1_555
N4 C7 1_555 1_555
C7 H3 1_555 1_555
H4 C7 1_555 1_555
C8 C7 1_555 1_555
H5 C8 1_555 1_555
H6 C8 1_555 1_555
H7 C8 1_555 1_555
C9 C10 1_555 1_555
C10 N4 1_555 1_555
H8 C10 1_555 1_555
H9 C10 1_555 1_555
C11 H10 1_555 1_555
H11 C11 1_555 1_555
H12 C11 1_555 1_555
C12 N4 1_555 1_555
H13 C12 1_555 1_555
H14 C12 1_555 1_555
H15 N4 1_555 1_555
C5 C6 1_555 1_555
C11 C12 1_555 1_555

#END
