
#######################################################################
#
#                 Cambridge Crystallographic Data Centre
#                                CCDC 
#
#######################################################################
#
# If this CIF has been generated from an entry in the Cambridge 
# Structural Database, then it will include bibliographic, chemical, 
# crystal, experimental, refinement or atomic coordinate data resulting 
# from the CCDC's data processing and validation procedures.
#
#######################################################################

data_QATLED
_chemical_formula_moiety         'C25 H24 O9'
_chemical_name_systematic        
'Diethyl 2-(1,3-benzodioxol-5-yl)-5-(3,4-dimethoxyphenyl)furan-3,4-dicarboxylate'
_symmetry_cell_setting           triclinic
_symmetry_space_group_name_H-M   'P -1'
_symmetry_Int_Tables_number      2
_space_group_name_Hall           '-P 1'
loop_
_symmetry_equiv_pos_site_id
_symmetry_equiv_pos_as_xyz
1 x,y,z
2 -x,-y,-z
_cell_length_a                   7.8137(9)
_cell_length_b                   11.0275(12)
_cell_length_c                   13.9703(15)
_cell_angle_alpha                80.796(2)
_cell_angle_beta                 75.547(2)
_cell_angle_gamma                76.001(2)
_cell_volume                     1124.67
_exptl_crystal_colour            colorless
_exptl_crystal_description       block
_cell_formula_units_Z            2
_exptl_crystal_recrystallization_method methanol
loop_
_atom_site_label
_atom_site_type_symbol
_atom_site_fract_x
_atom_site_fract_y
_atom_site_fract_z
C1 C 0.2483(3) 1.0210(2) 0.62831(15)
H1 H 0.3621 1.0064 0.6488
H2 H 0.1703 1.0960 0.6555
C2 C 0.2371(2) 0.93545(16) 0.49641(13)
C3 C 0.1673(2) 0.86375(17) 0.58102(13)
C4 C 0.1105(2) 0.75712(17) 0.57647(13)
H3 H 0.0635 0.7091 0.6336
C5 C 0.1265(2) 0.72430(16) 0.48235(12)
H4 H 0.0878 0.6530 0.4765
C6 C 0.1987(2) 0.79476(15) 0.39631(12)
C7 C 0.2551(2) 0.90381(16) 0.40370(13)
H5 H 0.3031 0.9526 0.3473
C8 C 0.2168(2) 0.75772(15) 0.29820(12)
C9 C 0.2300(2) 0.64912(15) 0.26000(12)
C10 C 0.2417(2) 0.68048(15) 0.15468(12)
C11 C 0.2400(2) 0.80648(15) 0.13503(12)
C12 C 0.2625(2) 0.89724(14) 0.04681(12)
C13 C 0.3868(2) 0.86279(15) -0.04005(12)
H6 H 0.4515 0.7802 -0.0428
C14 C 0.4150(2) 0.94918(15) -0.12180(12)
C15 C 0.6599(3) 0.80783(19) -0.21066(16)
H7 H 0.7230 0.7973 -0.1581
H8 H 0.7453 0.8054 -0.2735
H9 H 0.5958 0.7413 -0.2016
C16 C 0.3158(2) 1.07374(14) -0.11813(12)
C17 C 0.2868(3) 1.28267(16) -0.19761(16)
H10 H 0.1571 1.3003 -0.1850
H11 H 0.3334 1.3281 -0.2594
H12 H 0.3238 1.3081 -0.1447
C18 C 0.1934(2) 1.10739(15) -0.03261(13)
H13 H 0.1276 1.1897 -0.0298
C19 C 0.1669(2) 1.01988(15) 0.04963(13)
H14 H 0.0838 1.0440 0.1073
C20 C 0.2225(2) 0.52346(16) 0.31547(13)
C21 C 0.3735(4) 0.3538(2) 0.4134(2)
H15 H 0.2792 0.3158 0.4050
H16 H 0.4892 0.2989 0.3901
C22 C 0.3506(4) 0.3664(2) 0.51864(19)
H17 H 0.4402 0.4078 0.5266
H18 H 0.3643 0.2845 0.5553
H19 H 0.2322 0.4151 0.5431
C23 C 0.2571(2) 0.58880(15) 0.08563(13)
C24 C 0.2224(3) 0.56117(18) -0.07279(14)
H20 H 0.1616 0.4919 -0.0470
H21 H 0.3504 0.5268 -0.0955
C25 C 0.1490(5) 0.6353(3) -0.1550(2)
H22 H 0.0214 0.6662 -0.1327
H23 H 0.1697 0.5838 -0.2077
H24 H 0.2075 0.7050 -0.1789
O1 O 0.2791(2) 1.03745(13) 0.52226(10)
O2 O 0.1654(2) 0.91633(14) 0.66405(10)
O3 O 0.35445(18) 1.15263(10) -0.20310(9)
O4 O 0.53615(17) 0.92464(11) -0.20893(9)
O5 O 0.22176(15) 0.85392(10) 0.22219(8)
O6 O 0.19542(17) 0.64146(10) 0.00441(9)
O7 O 0.3175(2) 0.47844(12) 0.10023(11)
O8 O 0.36521(19) 0.47667(12) 0.35413(11)
O9 O 0.1017(2) 0.47160(14) 0.32431(13)
loop_
_geom_bond_atom_site_label_1
_geom_bond_atom_site_label_2
_geom_bond_site_symmetry_1
_geom_bond_site_symmetry_2
C1 H1 1_555 1_555
H2 C1 1_555 1_555
C2 C3 1_555 1_555
C3 C4 1_555 1_555
C4 H3 1_555 1_555
C5 C4 1_555 1_555
H4 C5 1_555 1_555
C6 C5 1_555 1_555
C7 C2 1_555 1_555
H5 C7 1_555 1_555
C8 C6 1_555 1_555
C9 C8 1_555 1_555
C10 C9 1_555 1_555
C11 C10 1_555 1_555
C12 C11 1_555 1_555
C13 C12 1_555 1_555
H6 C13 1_555 1_555
C14 C13 1_555 1_555
C15 H7 1_555 1_555
H8 C15 1_555 1_555
H9 C15 1_555 1_555
C16 C14 1_555 1_555
C17 H10 1_555 1_555
H11 C17 1_555 1_555
H12 C17 1_555 1_555
C18 C16 1_555 1_555
H13 C18 1_555 1_555
C19 C12 1_555 1_555
H14 C19 1_555 1_555
C20 C9 1_555 1_555
C21 H15 1_555 1_555
H16 C21 1_555 1_555
C22 C21 1_555 1_555
H17 C22 1_555 1_555
H18 C22 1_555 1_555
H19 C22 1_555 1_555
C23 C10 1_555 1_555
C24 H20 1_555 1_555
H21 C24 1_555 1_555
C25 C24 1_555 1_555
H22 C25 1_555 1_555
H23 C25 1_555 1_555
H24 C25 1_555 1_555
O1 C1 1_555 1_555
O2 C1 1_555 1_555
O3 C16 1_555 1_555
O4 C14 1_555 1_555
O5 C8 1_555 1_555
O6 C23 1_555 1_555
O7 C23 1_555 1_555
O8 C20 1_555 1_555
O9 C20 1_555 1_555
C2 O1 1_555 1_555
C3 O2 1_555 1_555
C6 C7 1_555 1_555
C11 O5 1_555 1_555
C15 O4 1_555 1_555
C17 O3 1_555 1_555
C18 C19 1_555 1_555
C21 O8 1_555 1_555
C24 O6 1_555 1_555

#END
