
#######################################################################
#
#                 Cambridge Crystallographic Data Centre
#                                CCDC 
#
#######################################################################
#
# If this CIF has been generated from an entry in the Cambridge 
# Structural Database, then it will include bibliographic, chemical, 
# crystal, experimental, refinement or atomic coordinate data resulting 
# from the CCDC's data processing and validation procedures.
#
#######################################################################

data_QATNUU
_chemical_formula_moiety         'C10 H8 S8 1+,C10 H8 S8,C1 H2 F5 O3 S2 1-'
_chemical_name_systematic        
'bis(bis(Ethylenedithio)tetrathiafulvalenium) (pentafluorothio)methanesulfonate'
_symmetry_cell_setting           triclinic
_symmetry_space_group_name_H-M   'P -1'
_symmetry_Int_Tables_number      2
_space_group_name_Hall           '-P 1'
loop_
_symmetry_equiv_pos_site_id
_symmetry_equiv_pos_as_xyz
1 x,y,z
2 -x,-y,-z
_cell_length_a                   8.8052(2)
_cell_length_b                   11.7986(2)
_cell_length_c                   17.7276(3)
_cell_angle_alpha                75.8840(10)
_cell_angle_beta                 86.1630(10)
_cell_angle_gamma                77.3330(10)
_cell_volume                     1742.44
_exptl_crystal_colour            black
_exptl_crystal_description       'hexagonal plate'
_cell_formula_units_Z            2
loop_
_atom_site_label
_atom_site_type_symbol
_atom_site_fract_x
_atom_site_fract_y
_atom_site_fract_z
S1 S 0.37669(12) 0.16375(8) 0.45721(5)
S2 S 0.16990(11) 0.39196(8) 0.46179(5)
S3 S 0.24650(11) 0.04424(8) 0.62547(5)
S4 S 0.05194(11) 0.27445(8) 0.63489(5)
S5 S 0.52388(13) 0.25265(9) 0.30615(6)
S6 S 0.26314(14) 0.52257(9) 0.30951(6)
S7 S 0.19458(12) -0.07955(8) 0.78710(5)
S8 S -0.04907(12) 0.19679(8) 0.79813(6)
C1 C 0.2373(4) 0.2445(3) 0.5085(2)
C2 C 0.1838(4) 0.1936(3) 0.5812(2)
C3 C 0.3874(4) 0.2825(3) 0.3780(2)
C4 C 0.2890(4) 0.3888(3) 0.3794(2)
C5 C 0.1537(4) 0.0522(3) 0.7148(2)
C6 C 0.0614(4) 0.1594(3) 0.7184(2)
C7 C 0.4423(5) 0.3705(4) 0.2239(2)
H1 H 0.5130(5) 0.3677(4) 0.1797(2)
H2 H 0.3448(5) 0.3557(4) 0.2102(2)
C8 C 0.4136(5) 0.4934(4) 0.2390(2)
H3 H 0.3866(5) 0.5516(4) 0.1903(2)
H4 H 0.5098(5) 0.5052(4) 0.2565(2)
C9 C 0.0471(8) -0.0484(5) 0.8589(3)
H5 H -0.0533(8) -0.0504(5) 0.8405(3)
H6 H 0.0689(8) -0.1099(5) 0.9066(3)
C10 C 0.0399(7) 0.0758(5) 0.8761(3)
H7 H 0.1446(7) 0.0842(5) 0.8837(3)
H8 H -0.0192(7) 0.0805(5) 0.9238(3)
S9 S 0.61974(12) 0.33833(8) 0.54098(5)
S10 S 0.82960(11) 0.10734(8) 0.53598(5)
S11 S 0.75409(11) 0.45832(8) 0.37341(5)
S12 S 0.81362(12) 0.57931(9) 0.21091(6)
S13 S 0.95206(11) 0.22547(8) 0.36508(5)
S14 S 0.48148(14) 0.25002(9) 0.69376(6)
S15 S 1.04737(13) 0.29969(9) 0.20125(6)
S16 S 0.7451(2) -0.01907(9) 0.69126(6)
C13 C 0.7606(4) 0.2567(3) 0.4889(2)
C14 C 0.8143(4) 0.3069(3) 0.4179(2)
C15 C 0.6156(4) 0.2190(3) 0.6212(2)
C16 C 0.7137(4) 0.1137(3) 0.6195(2)
C17 C 0.8457(4) 0.4473(3) 0.2835(2)
C18 C 0.9364(4) 0.3401(3) 0.2798(2)
C19 C 0.5492(6) 0.1259(5) 0.7740(3)
H13 H 0.6420(6) 0.1387(5) 0.7943(3)
H14 H 0.4703(6) 0.1252(5) 0.8149(3)
C20 C 0.5857(6) 0.0074(4) 0.7557(3)
H15 H 0.4939(6) -0.0039(4) 0.7335(3)
H16 H 0.6063(6) -0.0528(4) 0.8041(3)
C21 C 0.9797(4) 0.5470(3) 0.1485(2)
H17 H 0.9732(4) 0.6122(3) 0.1026(2)
H18 H 1.0737(4) 0.5422(3) 0.1757(2)
C22 C 0.9912(5) 0.4319(4) 0.1237(2)
H19 H 1.0668(5) 0.4290(4) 0.0814(2)
H20 H 0.8912(5) 0.4315(4) 0.1040(2)
S17 S 0.59761(13) 0.79623(10) -0.01573(5)
F1 F 0.7654(4) 0.7196(4) 0.0122(3)
F2 F 0.5761(7) 0.8385(4) 0.0606(2)
F3 F 0.6369(4) 0.7601(3) -0.0952(2)
F4 F 0.4453(4) 0.8796(2) -0.0508(2)
F5 F 0.6798(4) 0.9059(3) -0.0502(2)
C23 C 0.5157(5) 0.6666(4) 0.0246(2)
H21 H 0.5770(5) 0.6013(4) 0.0043(2)
H22 H 0.5324(5) 0.6457(4) 0.0803(2)
S18 S 0.31400(12) 0.66974(9) 0.01048(6)
O1 O 0.2228(4) 0.7616(3) 0.0450(2)
O2 O 0.2953(4) 0.6923(3) -0.0726(2)
O3 O 0.3047(4) 0.5499(3) 0.0528(2)
C11? C 0.1055(17) -0.0300(12) 0.8737(8)
H9? H 0.0912(17) -0.1003(12) 0.9130(8)
H10? H 0.1792(17) 0.0049(12) 0.8940(8)
C12? C -0.0358(16) 0.0514(11) 0.8647(7)
H11? H -0.0693(16) 0.0648(11) 0.9156(7)
H12? H -0.1110(16) 0.0134(11) 0.8484(7)
loop_
_geom_bond_atom_site_label_1
_geom_bond_atom_site_label_2
_geom_bond_site_symmetry_1
_geom_bond_site_symmetry_2
S1 C1 1_555 1_555
S2 C1 1_555 1_555
S3 C2 1_555 1_555
S4 C2 1_555 1_555
S5 C3 1_555 1_555
S6 C4 1_555 1_555
S7 C5 1_555 1_555
S8 C6 1_555 1_555
C1 C2 1_555 1_555
C3 S1 1_555 1_555
C4 S2 1_555 1_555
C5 S3 1_555 1_555
C6 S4 1_555 1_555
C7 S5 1_555 1_555
H1 C7 1_555 1_555
H2 C7 1_555 1_555
C8 S6 1_555 1_555
H3 C8 1_555 1_555
H4 C8 1_555 1_555
C9 S7 1_555 1_555
H5 C9 1_555 1_555
H6 C9 1_555 1_555
C10 S8 1_555 1_555
H7 C10 1_555 1_555
H8 C10 1_555 1_555
S9 C13 1_555 1_555
S10 C13 1_555 1_555
S11 C14 1_555 1_555
S12 C17 1_555 1_555
S13 C14 1_555 1_555
S14 C15 1_555 1_555
S15 C18 1_555 1_555
S16 C16 1_555 1_555
C13 C14 1_555 1_555
C15 S9 1_555 1_555
C16 S10 1_555 1_555
C17 S11 1_555 1_555
C18 S13 1_555 1_555
C19 S14 1_555 1_555
H13 C19 1_555 1_555
H14 C19 1_555 1_555
C20 S16 1_555 1_555
H15 C20 1_555 1_555
H16 C20 1_555 1_555
C21 S12 1_555 1_555
H17 C21 1_555 1_555
H18 C21 1_555 1_555
C22 S15 1_555 1_555
H19 C22 1_555 1_555
H20 C22 1_555 1_555
S17 F1 1_555 1_555
F2 S17 1_555 1_555
F3 S17 1_555 1_555
F4 S17 1_555 1_555
F5 S17 1_555 1_555
C23 S17 1_555 1_555
H21 C23 1_555 1_555
H22 C23 1_555 1_555
S18 C23 1_555 1_555
O1 S18 1_555 1_555
O2 S18 1_555 1_555
O3 S18 1_555 1_555
C3 C4 1_555 1_555
C5 C6 1_555 1_555
C7 C8 1_555 1_555
C9 C10 1_555 1_555
C15 C16 1_555 1_555
C17 C18 1_555 1_555
C19 C20 1_555 1_555
C21 C22 1_555 1_555

#END
