
#######################################################################
#
#                 Cambridge Crystallographic Data Centre
#                                CCDC 
#
#######################################################################
#
# If this CIF has been generated from an entry in the Cambridge 
# Structural Database, then it will include bibliographic, chemical, 
# crystal, experimental, refinement or atomic coordinate data resulting 
# from the CCDC's data processing and validation procedures.
#
#######################################################################

data_QATNAB
_chemical_formula_moiety         'C32 H25 N1 O3'
_chemical_name_systematic        
"4'-(4-Methoxyphenyl)-1'-methyl-9H-fluorene-9-spiro-3'-pyrrolidine-2'-spiro- 2''-indan-1'',3''-dione"
_symmetry_cell_setting           monoclinic
_symmetry_space_group_name_H-M   'P 21/c'
_symmetry_Int_Tables_number      14
_space_group_name_Hall           '-P 2ybc'
loop_
_symmetry_equiv_pos_site_id
_symmetry_equiv_pos_as_xyz
1 x,y,z
2 -x,1/2+y,1/2-z
3 -x,-y,-z
4 x,1/2-y,1/2+z
_cell_length_a                   8.6501(8)
_cell_length_b                   25.738(2)
_cell_length_c                   10.9358(10)
_cell_angle_alpha                90
_cell_angle_beta                 97.901(2)
_cell_angle_gamma                90
_cell_volume                     2411.59
_exptl_crystal_colour            colorless
_exptl_crystal_description       block
_cell_formula_units_Z            4
_exptl_crystal_recrystallization_method 'petroleum ether/ethyl acetate'
loop_
_atom_site_label
_atom_site_type_symbol
_atom_site_fract_x
_atom_site_fract_y
_atom_site_fract_z
O1 O 0.14648(17) 0.57912(6) 0.11134(14)
O2 O 0.3445(2) 0.74221(6) 0.22840(15)
O3 O 0.9647(2) 0.55933(7) -0.25911(16)
N1 N 0.25808(18) 0.67745(6) 0.00962(15)
C1 C 0.3118(2) 0.65661(7) 0.12944(18)
C2 C 0.4798(2) 0.63506(7) 0.11304(17)
C3 C 0.4415(2) 0.61045(8) -0.01789(17)
H1 H 0.3898 0.5772 -0.0068
C4 C 0.3169(2) 0.64641(8) -0.08561(18)
H2 H 0.3620 0.6686 -0.1431
H3 H 0.2333 0.6263 -0.1311
C5 C 0.6086(3) 0.72152(8) 0.0485(2)
H4 H 0.5387 0.7257 -0.0234
C6 C 0.7251(3) 0.75777(10) 0.0821(3)
H5 H 0.7323 0.7869 0.0329
C7 C 0.8307(3) 0.75129(12) 0.1876(3)
H6 H 0.9075 0.7762 0.2088
C8 C 0.8237(3) 0.70840(11) 0.2618(2)
H7 H 0.8962 0.7039 0.3322
C9 C 0.7476(3) 0.59885(12) 0.3946(2)
H8 H 0.8301 0.6151 0.4434
C10 C 0.6972(3) 0.55065(12) 0.4266(2)
H9 H 0.7450 0.5346 0.4981
C11 C 0.5773(3) 0.52609(10) 0.3541(2)
H10 H 0.5468 0.4931 0.3756
C12 C 0.5007(3) 0.54987(9) 0.2488(2)
H11 H 0.4194 0.5331 0.1998
C13 C 0.5986(2) 0.67892(8) 0.12408(18)
C14 C 0.7072(2) 0.67212(9) 0.23002(19)
C15 C 0.6740(2) 0.62295(9) 0.28883(19)
C16 C 0.5476(2) 0.59920(8) 0.21796(18)
C17 C 0.3154(2) 0.69650(8) 0.23543(19)
C18 C 0.2752(3) 0.68686(10) 0.4640(2)
H12 H 0.3140 0.7196 0.4872
C19 C 0.2215(3) 0.65398(11) 0.5479(2)
H13 H 0.2238 0.6648 0.6293
C20 C 0.1643(3) 0.60509(12) 0.5141(2)
H14 H 0.1304 0.5835 0.5732
C21 C 0.1567(3) 0.58781(10) 0.3940(2)
H15 H 0.1172 0.5551 0.3711
C22 C 0.2128(2) 0.61276(8) 0.17579(19)
C23 C 0.2094(2) 0.62061(8) 0.30911(19)
C24 C 0.2693(2) 0.66941(8) 0.34355(19)
C25 C 0.5818(2) 0.59825(8) -0.08181(17)
C26 C 0.6881(3) 0.56166(9) -0.0340(2)
H16 H 0.6728 0.5450 0.0389
C27 C 0.8170(3) 0.54826(9) -0.0889(2)
H17 H 0.8872 0.5237 -0.0519
C28 C 0.8413(3) 0.57075(9) -0.1962(2)
C29 C 0.7390(4) 0.60757(13) -0.2466(3)
H18 H 0.7553 0.6238 -0.3198
C30 C 0.6111(3) 0.62117(12) -0.1901(2)
H19 H 0.5430 0.6465 -0.2264
C31 C 1.0803(3) 0.52513(9) -0.2013(2)
H20 H 1.1603 0.5207 -0.2531
H21 H 1.0337 0.4921 -0.1881
H22 H 1.1252 0.5394 -0.1233
C32 C 0.0937(3) 0.69143(10) -0.0159(2)
H23 H 0.0714 0.7048 -0.0984
H24 H 0.0705 0.7175 0.0417
H25 H 0.0308 0.6612 -0.0078
loop_
_geom_bond_atom_site_label_1
_geom_bond_atom_site_label_2
_geom_bond_site_symmetry_1
_geom_bond_site_symmetry_2
O1 C22 1_555 1_555
O2 C17 1_555 1_555
O3 C28 1_555 1_555
N1 C1 1_555 1_555
C1 C2 1_555 1_555
C2 C3 1_555 1_555
C3 H1 1_555 1_555
C4 N1 1_555 1_555
H2 C4 1_555 1_555
H3 C4 1_555 1_555
C5 H4 1_555 1_555
C6 C5 1_555 1_555
H5 C6 1_555 1_555
C7 C6 1_555 1_555
H6 C7 1_555 1_555
C8 C7 1_555 1_555
H7 C8 1_555 1_555
C9 H8 1_555 1_555
C10 C9 1_555 1_555
H9 C10 1_555 1_555
C11 C10 1_555 1_555
H10 C11 1_555 1_555
C12 C11 1_555 1_555
H11 C12 1_555 1_555
C13 C2 1_555 1_555
C14 C8 1_555 1_555
C15 C9 1_555 1_555
C16 C2 1_555 1_555
C17 C1 1_555 1_555
C18 H12 1_555 1_555
C19 C18 1_555 1_555
H13 C19 1_555 1_555
C20 C19 1_555 1_555
H14 C20 1_555 1_555
C21 C20 1_555 1_555
H15 C21 1_555 1_555
C22 C1 1_555 1_555
C23 C21 1_555 1_555
C24 C17 1_555 1_555
C25 C3 1_555 1_555
C26 C25 1_555 1_555
H16 C26 1_555 1_555
C27 C26 1_555 1_555
H17 C27 1_555 1_555
C28 C27 1_555 1_555
C29 C28 1_555 1_555
H18 C29 1_555 1_555
C30 C25 1_555 1_555
H19 C30 1_555 1_555
C31 O3 1_555 1_555
H20 C31 1_555 1_555
H21 C31 1_555 1_555
H22 C31 1_555 1_555
C32 N1 1_555 1_555
H23 C32 1_555 1_555
H24 C32 1_555 1_555
H25 C32 1_555 1_555
C3 C4 1_555 1_555
C5 C13 1_555 1_555
C12 C16 1_555 1_555
C13 C14 1_555 1_555
C14 C15 1_555 1_555
C15 C16 1_555 1_555
C18 C24 1_555 1_555
C22 C23 1_555 1_555
C23 C24 1_555 1_555
C29 C30 1_555 1_555

#END
