
#######################################################################
#
#                 Cambridge Crystallographic Data Centre
#                                CCDC 
#
#######################################################################
#
# If this CIF has been generated from an entry in the Cambridge 
# Structural Database, then it will include bibliographic, chemical, 
# crystal, experimental, refinement or atomic coordinate data resulting 
# from the CCDC's data processing and validation procedures.
#
#######################################################################

data_QATVIS
_chemical_formula_moiety         'C28 H26 N2 O2'
_chemical_name_systematic        
N,N'-bis((2-hydroxy-1-naphthyl)methylene)-(R,R)-1,2-diaminocyclohexane
_symmetry_cell_setting           orthorhombic
_symmetry_space_group_name_H-M   'P 21 21 21'
_symmetry_Int_Tables_number      19
_space_group_name_Hall           'P 2ac 2ab'
loop_
_symmetry_equiv_pos_site_id
_symmetry_equiv_pos_as_xyz
1 x,y,z
2 1/2-x,-y,1/2+z
3 -x,1/2+y,1/2-z
4 1/2+x,1/2-y,-z
_cell_length_a                   9.4879(2)
_cell_length_b                   9.5387(2)
_cell_length_c                   25.4200(5)
_cell_angle_alpha                90
_cell_angle_beta                 90
_cell_angle_gamma                90
_cell_volume                     2300.57
_exptl_crystal_colour            'pale yellow'
_exptl_crystal_description       plate
_cell_formula_units_Z            4
loop_
_atom_site_label
_atom_site_type_symbol
_atom_site_fract_x
_atom_site_fract_y
_atom_site_fract_z
C1 C 0.1435(3) 0.8035(4) 0.59434(14)
H1 H 0.0903 0.7804 0.5629
H2 H 0.0952 0.8793 0.6122
C2 C 0.1499(4) 0.6757(4) 0.63037(14)
H3 H 0.0557 0.6524 0.6423
H4 H 0.1866 0.5961 0.6110
C3 C 0.2427(3) 0.7044(4) 0.67707(12)
H5 H 0.2485 0.6205 0.6986
H6 H 0.2004 0.7778 0.6982
C4 C 0.3900(3) 0.7487(3) 0.66116(10)
H7 H 0.4331 0.6711 0.6417
C5 C 0.3872(3) 0.8761(3) 0.62546(10)
H8 H 0.3539 0.9575 0.6454
C6 C 0.2893(3) 0.8509(4) 0.57897(10)
H9 H 0.2816 0.9370 0.5589
H10 H 0.3311 0.7805 0.5563
C7 C 0.5748(3) 1.0324(3) 0.60196(9)
H11 H 0.5243 1.1041 0.6181
C8 C 0.7020(3) 1.0660(3) 0.57403(9)
C9 C 0.7739(3) 0.9596(3) 0.54709(11)
C10 C 0.8924(3) 0.9940(4) 0.51537(11)
H12 H 0.9404 0.9234 0.4976
C11 C 0.9358(3) 1.1281(4) 0.51093(11)
H13 H 1.0130 1.1479 0.4897
C12 C 0.8690(3) 1.2386(3) 0.53712(10)
C13 C 0.7513(3) 1.2085(3) 0.57001(9)
C14 C 0.6908(3) 1.3221(3) 0.59713(10)
H14 H 0.6168 1.3054 0.6203
C15 C 0.7381(4) 1.4569(3) 0.59036(12)
H15 H 0.6937 1.5300 0.6080
C16 C 0.8527(4) 1.4855(4) 0.55716(12)
H16 H 0.8844 1.5770 0.5527
C17 C 0.9160(4) 1.3790(4) 0.53181(12)
H17 H 0.9928 1.3980 0.5102
C18 C 0.5892(3) 0.7037(3) 0.71854(9)
H18 H 0.6193 0.6377 0.6940
C19 C 0.6689(3) 0.7200(3) 0.76511(9)
C20 C 0.6210(3) 0.8145(3) 0.80456(10)
C21 C 0.6982(3) 0.8235(3) 0.85240(11)
H19 H 0.6650 0.8802 0.8794
C22 C 0.8188(4) 0.7511(3) 0.85912(11)
H20 H 0.8672 0.7609 0.8907
C23 C 0.8754(3) 0.6606(3) 0.82024(11)
C24 C 0.7986(3) 0.6418(3) 0.77291(10)
C25 C 0.8557(3) 0.5482(3) 0.73597(12)
H21 H 0.8076 0.5313 0.7047
C26 C 0.9811(4) 0.4813(4) 0.74517(15)
H22 H 1.0158 0.4195 0.7200
C27 C 1.0565(4) 0.5026(4) 0.79006(16)
H23 H 1.1423 0.4576 0.7952
C28 C 1.0039(3) 0.5910(4) 0.82717(14)
H24 H 1.0546 0.6056 0.8580
N1 N 0.4762(2) 0.7757(2) 0.70795(8)
N2 N 0.5285(2) 0.9045(3) 0.60525(8)
O1 O 0.5102(2) 0.8906(3) 0.79880(8)
H25 H 0.4868 0.8909 0.7677
O2 O 0.7327(3) 0.8279(2) 0.54958(10)
H26 H 0.7701 0.7831 0.5259
loop_
_geom_bond_atom_site_label_1
_geom_bond_atom_site_label_2
_geom_bond_site_symmetry_1
_geom_bond_site_symmetry_2
C1 H1 1_555 1_555
H2 C1 1_555 1_555
C2 C1 1_555 1_555
H3 C2 1_555 1_555
H4 C2 1_555 1_555
C3 C2 1_555 1_555
H5 C3 1_555 1_555
H6 C3 1_555 1_555
C4 C3 1_555 1_555
H7 C4 1_555 1_555
C5 C4 1_555 1_555
H8 C5 1_555 1_555
C6 C1 1_555 1_555
H9 C6 1_555 1_555
H10 C6 1_555 1_555
C7 H11 1_555 1_555
C8 C7 1_555 1_555
C9 C8 1_555 1_555
C10 C9 1_555 1_555
H12 C10 1_555 1_555
C11 C10 1_555 1_555
H13 C11 1_555 1_555
C12 C11 1_555 1_555
C13 C8 1_555 1_555
C14 C13 1_555 1_555
H14 C14 1_555 1_555
C15 C14 1_555 1_555
H15 C15 1_555 1_555
C16 C15 1_555 1_555
H16 C16 1_555 1_555
C17 C12 1_555 1_555
H17 C17 1_555 1_555
C18 H18 1_555 1_555
C19 C18 1_555 1_555
C20 C19 1_555 1_555
C21 C20 1_555 1_555
H19 C21 1_555 1_555
C22 C21 1_555 1_555
H20 C22 1_555 1_555
C23 C22 1_555 1_555
C24 C19 1_555 1_555
C25 C24 1_555 1_555
H21 C25 1_555 1_555
C26 C25 1_555 1_555
H22 C26 1_555 1_555
C27 C26 1_555 1_555
H23 C27 1_555 1_555
C28 C23 1_555 1_555
H24 C28 1_555 1_555
N1 C4 1_555 1_555
N2 C5 1_555 1_555
O1 C20 1_555 1_555
H25 O1 1_555 1_555
O2 C9 1_555 1_555
H26 O2 1_555 1_555
C5 C6 1_555 1_555
C7 N2 1_555 1_555
C12 C13 1_555 1_555
C16 C17 1_555 1_555
C18 N1 1_555 1_555
C23 C24 1_555 1_555
C27 C28 1_555 1_555

#END
