
#######################################################################
#
#                 Cambridge Crystallographic Data Centre
#                                CCDC 
#
#######################################################################
#
# If this CIF has been generated from an entry in the Cambridge 
# Structural Database, then it will include bibliographic, chemical, 
# crystal, experimental, refinement or atomic coordinate data resulting 
# from the CCDC's data processing and validation procedures.
#
#######################################################################

data_QATYIT02
_chemical_formula_moiety         'C41 H53 Br1 O7'
_chemical_name_systematic        
Spiro(1-(S)-bromo-3-(S)-H-4-l-(1'R,2'S,5'R)-menthyloxy-5-oxo-6-oxabicyclo(3.1.0)hexane-2,3'-(R)-(4'-diphenylmethoxy-5'-l-(1'R,2'S,5'R)-menthyloxybutyrolactone))
_symmetry_cell_setting           orthorhombic
_symmetry_space_group_name_H-M   'P 21 21 21'
_symmetry_Int_Tables_number      19
_space_group_name_Hall           'P 2ac 2ab'
loop_
_symmetry_equiv_pos_site_id
_symmetry_equiv_pos_as_xyz
1 x,y,z
2 1/2-x,-y,1/2+z
3 -x,1/2+y,1/2-z
4 1/2+x,1/2-y,-z
_cell_length_a                   11.264(2)
_cell_length_b                   12.058(2)
_cell_length_c                   29.337(6)
_cell_angle_alpha                90
_cell_angle_beta                 90
_cell_angle_gamma                90
_cell_volume                     3984.59
_exptl_crystal_colour            colorless
_exptl_crystal_description       prism
_cell_formula_units_Z            4
_exptl_crystal_recrystallization_method 'petrol/ethyl acetate'
loop_
_atom_site_label
_atom_site_type_symbol
_atom_site_fract_x
_atom_site_fract_y
_atom_site_fract_z
Br1 Br 0.15873(3) 0.35516(3) 0.159987(11)
O1 O 0.40359(16) 0.41581(13) 0.03903(5)
O2 O 0.39682(14) 0.72116(12) 0.11809(5)
O3 O 0.26798(15) 0.68594(12) 0.22754(5)
O4 O 0.43872(19) 0.36360(15) 0.17704(6)
O5 O 0.47307(16) 0.45533(14) 0.11241(5)
O6 O 0.04695(17) 0.59123(18) 0.11968(6)
C1 C 0.2763(2) 0.44984(18) 0.13639(8)
C2 C 0.2589(2) 0.57576(18) 0.13264(8)
C3 C 0.2788(2) 0.50536(19) 0.09022(8)
H1 H 0.2140 0.4941 0.0695
C4 C 0.4033(2) 0.4945(2) 0.07290(7)
H2 H 0.4331 0.5642 0.0620
O7 O 0.13920(16) 0.70986(13) 0.16597(5)
C5 C 0.1353(3) 0.6211(2) 0.13758(9)
C6 C 0.3429(2) 0.65851(16) 0.15374(7)
H3 H 0.4021 0.6223 0.1720
C7 C 0.2582(2) 0.7277(2) 0.18356(8)
H4 H 0.2788 0.8049 0.1826
C8 C 0.4013(3) 0.41681(19) 0.14541(8)
C9 C 0.5143(2) 0.4097(2) 0.01292(8)
H5 H 0.5814 0.4139 0.0330
C10 C 0.5146(3) 0.2968(2) -0.01080(8)
H6 H 0.4484 0.2963 -0.0314
C11 C 0.6262(3) 0.2911(2) -0.04095(9)
H7 H 0.6282 0.2216 -0.0569
H8 H 0.6944 0.2947 -0.0214
C12 C 0.6327(3) 0.38660(19) -0.07434(9)
H9 H 0.5659 0.3805 -0.0945
H10 H 0.7035 0.3808 -0.0924
C13 C 0.6286(3) 0.4981(2) -0.05138(8)
H11 H 0.6979 0.5061 -0.0326
C14 C 0.5196(2) 0.5054(2) -0.02062(8)
H12 H 0.5178 0.5743 -0.0043
H13 H 0.4504 0.5023 -0.0396
C15 C 0.6279(3) 0.5935(2) -0.08604(9)
H14 H 0.6262 0.6640 -0.0708
H15 H 0.6976 0.5889 -0.1048
H16 H 0.5584 0.5860 -0.1048
C16 C 0.4999(3) 0.1990(2) 0.02102(9)
H17 H 0.4371 0.2173 0.0419
C17 C 0.6092(4) 0.1731(3) 0.04939(13)
H18 H 0.6310 0.2388 0.0659
H19 H 0.5939 0.1140 0.0705
H20 H 0.6730 0.1522 0.0294
C18 C 0.4621(4) 0.0953(3) -0.00538(12)
H21 H 0.3920 0.1128 -0.0225
H22 H 0.5244 0.0736 -0.0259
H23 H 0.4453 0.0354 0.0152
C19 C 0.1996(2) 0.7453(2) 0.26202(7)
H24 H 0.1192 0.7544 0.2518
C20 C 0.2025(3) 0.6721(3) 0.30444(8)
H25 H 0.2848 0.6616 0.3119
C21 C 0.1452(3) 0.7340(3) 0.34491(9)
H26 H 0.1556 0.6908 0.3721
H27 H 0.0615 0.7415 0.3396
C22 C 0.1960(3) 0.8465(3) 0.35142(10)
H28 H 0.2781 0.8391 0.3597
H29 H 0.1555 0.8826 0.3761
C23 C 0.1919(3) 0.9189(3) 0.30978(10)
H30 H 0.1099 0.9274 0.3017
C24 C 0.2549(3) 0.8599(2) 0.27087(9)
H31 H 0.2503 0.9046 0.2438
H32 H 0.3371 0.8510 0.2788
C25 C 0.2438(3) 1.0329(3) 0.31821(13)
H33 H 0.2033 1.0700 0.3426
H34 H 0.3261 1.0243 0.3259
H35 H 0.2369 1.0760 0.2908
C26 C 0.1505(4) 0.5584(3) 0.29569(10)
H36 H 0.1941 0.5266 0.2708
C27 C 0.1685(4) 0.4781(3) 0.33583(13)
H37 H 0.2509 0.4785 0.3441
H38 H 0.1219 0.5050 0.3609
H39 H 0.1445 0.4038 0.3285
C28 C 0.0217(4) 0.5561(3) 0.28268(12)
H40 H 0.0104 0.6032 0.2567
H41 H -0.0025 0.4819 0.2752
H42 H -0.0252 0.5831 0.3077
C29 C 0.5096(2) 0.7689(2) 0.13023(8)
H43 H 0.5492 0.7175 0.1501
C30 C 0.7040(3) 0.7622(2) 0.08862(11)
H44 H 0.7402 0.7425 0.1171
C31 C 0.7705(3) 0.7738(3) 0.04902(12)
H45 H 0.8547 0.7619 0.0507
C32 C 0.7184(3) 0.8009(2) 0.00865(12)
H46 H 0.7656 0.8095 -0.0184
C33 C 0.5980(3) 0.8184(2) 0.00642(10)
H47 H 0.5605 0.8360 -0.0221
C34 C 0.5301(3) 0.8075(2) 0.04556(9)
H48 H 0.4462 0.8215 0.0446
C35 C 0.5821(2) 0.7794(2) 0.08652(9)
C36 C 0.4449(3) 0.9689(2) 0.13505(10)
H49 H 0.4178 0.9622 0.1041
C37 C 0.4306(3) 1.0693(2) 0.15846(11)
H50 H 0.3919 1.1309 0.1440
C38 C 0.4711(3) 1.0773(3) 0.20153(10)
H51 H 0.4643 1.1467 0.2173
C39 C 0.5218(3) 0.9908(3) 0.22239(10)
H52 H 0.5493 0.9992 0.2532
C40 C 0.5356(3) 0.8888(2) 0.19982(9)
H53 H 0.5707 0.8263 0.2150
C41 C 0.4969(2) 0.87853(19) 0.15568(8)
loop_
_geom_bond_atom_site_label_1
_geom_bond_atom_site_label_2
_geom_bond_site_symmetry_1
_geom_bond_site_symmetry_2
Br1 C1 1_555 1_555
O1 C4 1_555 1_555
O2 C6 1_555 1_555
O3 C7 1_555 1_555
O4 C8 1_555 1_555
O5 C4 1_555 1_555
O6 C5 1_555 1_555
C1 C2 1_555 1_555
C2 C3 1_555 1_555
C3 C1 1_555 1_555
H1 C3 1_555 1_555
C4 C3 1_555 1_555
H2 C4 1_555 1_555
O7 C5 1_555 1_555
C5 C2 1_555 1_555
C6 C2 1_555 1_555
H3 C6 1_555 1_555
C7 O7 1_555 1_555
H4 C7 1_555 1_555
C8 O5 1_555 1_555
C9 O1 1_555 1_555
H5 C9 1_555 1_555
C10 C9 1_555 1_555
H6 C10 1_555 1_555
C11 C10 1_555 1_555
H7 C11 1_555 1_555
H8 C11 1_555 1_555
C12 C11 1_555 1_555
H9 C12 1_555 1_555
H10 C12 1_555 1_555
C13 C12 1_555 1_555
H11 C13 1_555 1_555
C14 C9 1_555 1_555
H12 C14 1_555 1_555
H13 C14 1_555 1_555
C15 C13 1_555 1_555
H14 C15 1_555 1_555
H15 C15 1_555 1_555
H16 C15 1_555 1_555
C16 C10 1_555 1_555
H17 C16 1_555 1_555
C17 C16 1_555 1_555
H18 C17 1_555 1_555
H19 C17 1_555 1_555
H20 C17 1_555 1_555
C18 C16 1_555 1_555
H21 C18 1_555 1_555
H22 C18 1_555 1_555
H23 C18 1_555 1_555
C19 O3 1_555 1_555
H24 C19 1_555 1_555
C20 C19 1_555 1_555
H25 C20 1_555 1_555
C21 C20 1_555 1_555
H26 C21 1_555 1_555
H27 C21 1_555 1_555
C22 C21 1_555 1_555
H28 C22 1_555 1_555
H29 C22 1_555 1_555
C23 C22 1_555 1_555
H30 C23 1_555 1_555
C24 C19 1_555 1_555
H31 C24 1_555 1_555
H32 C24 1_555 1_555
C25 C23 1_555 1_555
H33 C25 1_555 1_555
H34 C25 1_555 1_555
H35 C25 1_555 1_555
C26 C20 1_555 1_555
H36 C26 1_555 1_555
C27 C26 1_555 1_555
H37 C27 1_555 1_555
H38 C27 1_555 1_555
H39 C27 1_555 1_555
C28 C26 1_555 1_555
H40 C28 1_555 1_555
H41 C28 1_555 1_555
H42 C28 1_555 1_555
C29 O2 1_555 1_555
H43 C29 1_555 1_555
C30 H44 1_555 1_555
C31 C30 1_555 1_555
H45 C31 1_555 1_555
C32 C31 1_555 1_555
H46 C32 1_555 1_555
C33 C32 1_555 1_555
H47 C33 1_555 1_555
C34 C33 1_555 1_555
H48 C34 1_555 1_555
C35 C29 1_555 1_555
C36 H49 1_555 1_555
C37 C36 1_555 1_555
H50 C37 1_555 1_555
C38 C37 1_555 1_555
H51 C38 1_555 1_555
C39 C38 1_555 1_555
H52 C39 1_555 1_555
C40 C39 1_555 1_555
H53 C40 1_555 1_555
C41 C29 1_555 1_555
C1 C8 1_555 1_555
C6 C7 1_555 1_555
C13 C14 1_555 1_555
C23 C24 1_555 1_555
C30 C35 1_555 1_555
C34 C35 1_555 1_555
C36 C41 1_555 1_555
C40 C41 1_555 1_555

#END
