
#######################################################################
#
#                 Cambridge Crystallographic Data Centre
#                                CCDC 
#
#######################################################################
#
# If this CIF has been generated from an entry in the Cambridge 
# Structural Database, then it will include bibliographic, chemical, 
# crystal, experimental, refinement or atomic coordinate data resulting 
# from the CCDC's data processing and validation procedures.
#
#######################################################################

data_QAVBOH
_chemical_formula_moiety         'C25 H19 Cl1 N2 O1'
_chemical_name_systematic        
1-(5-(9-anthryl)-3-(4-chlorophenyl)-4,5-dihydro-1H-pyrazol-1-yl)ethanone
_symmetry_cell_setting           orthorhombic
_symmetry_space_group_name_H-M   'P 21 21 21'
_symmetry_Int_Tables_number      19
_space_group_name_Hall           'P 2ac 2ab'
loop_
_symmetry_equiv_pos_site_id
_symmetry_equiv_pos_as_xyz
1 x,y,z
2 1/2-x,-y,1/2+z
3 -x,1/2+y,1/2-z
4 1/2+x,1/2-y,-z
_cell_length_a                   10.796(2)
_cell_length_b                   11.062(2)
_cell_length_c                   17.442(4)
_cell_angle_alpha                90
_cell_angle_beta                 90
_cell_angle_gamma                90
_cell_volume                     2083.02
_exptl_crystal_colour            colorless
_exptl_crystal_description       block
_cell_formula_units_Z            4
loop_
_atom_site_label
_atom_site_type_symbol
_atom_site_fract_x
_atom_site_fract_y
_atom_site_fract_z
Cl1 Cl 0.5943(2) 0.5520(2) -0.17434(12)
O1 O 0.6696(4) 1.1425(5) 0.2746(3)
N1 N 0.6560(5) 0.9620(5) 0.1091(3)
C1 C 0.3443(6) 1.0485(7) 0.3000(4)
N2 N 0.6237(5) 1.0223(5) 0.1766(3)
C2 C 0.3666(7) 0.9521(7) 0.3541(4)
H1 H 0.417(5) 0.889(6) 0.344(3)
C3 C 0.2989(8) 0.9427(9) 0.4194(4)
H2 H 0.3145 0.8799 0.4536
C4 C 0.2052(9) 1.0274(10) 0.4358(6)
H3 H 0.1607 1.0205 0.4813
C5 C 0.1790(8) 1.1162(9) 0.3882(6)
H4 H 0.1155 1.1696 0.4006
C6 C 0.2461(7) 1.1328(8) 0.3175(5)
C7 C 0.2170(7) 1.2235(8) 0.2667(5)
H5 H 0.1550 1.2783 0.2795
C8 C 0.2768(8) 1.2357(7) 0.1974(5)
C9 C 0.2441(9) 1.3271(8) 0.1439(6)
H6 H 0.1845 1.3836 0.1578
C10 C 0.2956(10) 1.3354(9) 0.0741(6)
H7 H 0.2701 1.3948 0.0398
C11 C 0.3883(9) 1.2532(7) 0.0539(5)
H8 H 0.4247 1.2585 0.0057
C12 C 0.4263(7) 1.1660(6) 0.1030(4)
H9 H 0.4882 1.1130 0.0874
C13 C 0.3747(6) 1.1525(6) 0.1776(4)
C14 C 0.4097(6) 1.0624(5) 0.2308(3)
C15 C 0.5124(6) 0.9727(6) 0.2143(4)
H10 H 0.5379 0.9361 0.2630
C16 C 0.4769(6) 0.8706(6) 0.1588(3)
H11 H 0.4787 0.7927 0.1843
H12 H 0.3950 0.8837 0.1375
C17 C 0.5749(6) 0.8783(5) 0.0977(3)
C18 C 0.6984(7) 1.1046(7) 0.2104(4)
C19 C 0.8138(7) 1.1426(8) 0.1694(5)
H13 H 0.8181 1.1026 0.1206
H14 H 0.8126 1.2285 0.1617
H15 H 0.8848 1.1211 0.1996
C20 C 0.5802(6) 0.7982(5) 0.0310(3)
C21 C 0.6548(6) 0.8243(6) -0.0314(3)
H16 H 0.7036 0.8936 -0.0307
C22 C 0.6580(6) 0.7494(6) -0.0944(4)
H17 H 0.7072 0.7683 -0.1365
C23 C 0.5870(6) 0.6463(6) -0.0940(4)
C24 C 0.5122(7) 0.6180(6) -0.0341(4)
H18 H 0.4649 0.5478 -0.0351
C25 C 0.5071(6) 0.6947(6) 0.0286(4)
H19 H 0.4546 0.6768 0.0693
loop_
_geom_bond_atom_site_label_1
_geom_bond_atom_site_label_2
_geom_bond_site_symmetry_1
_geom_bond_site_symmetry_2
Cl1 C23 1_555 1_555
O1 C18 1_555 1_555
N1 N2 1_555 1_555
C1 C2 1_555 1_555
N2 C15 1_555 1_555
C2 H1 1_555 1_555
C3 C2 1_555 1_555
H2 C3 1_555 1_555
C4 C3 1_555 1_555
H3 C4 1_555 1_555
C5 C4 1_555 1_555
H4 C5 1_555 1_555
C6 C1 1_555 1_555
C7 C6 1_555 1_555
H5 C7 1_555 1_555
C8 C7 1_555 1_555
C9 C8 1_555 1_555
H6 C9 1_555 1_555
C10 C9 1_555 1_555
H7 C10 1_555 1_555
C11 C10 1_555 1_555
H8 C11 1_555 1_555
C12 C11 1_555 1_555
H9 C12 1_555 1_555
C13 C8 1_555 1_555
C14 C1 1_555 1_555
C15 C14 1_555 1_555
H10 C15 1_555 1_555
C16 C15 1_555 1_555
H11 C16 1_555 1_555
H12 C16 1_555 1_555
C17 N1 1_555 1_555
C18 N2 1_555 1_555
C19 C18 1_555 1_555
H13 C19 1_555 1_555
H14 C19 1_555 1_555
H15 C19 1_555 1_555
C20 C17 1_555 1_555
C21 C20 1_555 1_555
H16 C21 1_555 1_555
C22 C21 1_555 1_555
H17 C22 1_555 1_555
C23 C22 1_555 1_555
C24 C23 1_555 1_555
H18 C24 1_555 1_555
C25 C20 1_555 1_555
H19 C25 1_555 1_555
C5 C6 1_555 1_555
C12 C13 1_555 1_555
C13 C14 1_555 1_555
C16 C17 1_555 1_555
C24 C25 1_555 1_555

#END
