
#######################################################################
#
#                 Cambridge Crystallographic Data Centre
#                                CCDC 
#
#######################################################################
#
# If this CIF has been generated from an entry in the Cambridge 
# Structural Database, then it will include bibliographic, chemical, 
# crystal, experimental, refinement or atomic coordinate data resulting 
# from the CCDC's data processing and validation procedures.
#
#######################################################################

data_QAVBIB
_chemical_formula_moiety         'C29 H22 N2 O1,C2 H4 O2'
_chemical_name_systematic        
'1-(5-(9-anthryl)-3-(2-naphthyl)-4,5-dihydro-1H-pyrazol-1-yl)ethanone acetic acid solvate'
_symmetry_cell_setting           monoclinic
_symmetry_space_group_name_H-M   'P 21'
_symmetry_Int_Tables_number      4
_space_group_name_Hall           'P 2yb'
loop_
_symmetry_equiv_pos_site_id
_symmetry_equiv_pos_as_xyz
1 x,y,z
2 -x,1/2+y,-z
_cell_length_a                   11.105(2)
_cell_length_b                   11.107(2)
_cell_length_c                   20.673(4)
_cell_angle_alpha                90
_cell_angle_beta                 98.37(3)
_cell_angle_gamma                90
_cell_volume                     2522.72
_exptl_crystal_colour            colorless
_exptl_crystal_description       block
_cell_formula_units_Z            4
loop_
_atom_site_label
_atom_site_type_symbol
_atom_site_fract_x
_atom_site_fract_y
_atom_site_fract_z
O1 O 1.0802(5) 0.0437(5) 0.9209(3)
N1 N 0.9125(6) 0.1475(6) 0.9221(3)
C1 C 1.0757(9) 0.1477(9) 1.0909(4)
N2 N 0.8077(6) 0.2017(7) 0.8874(3)
C2 C 1.1554(9) 0.2489(8) 1.0911(4)
H1 H 1.1385 0.3044 1.0573
C3 C 1.2529(9) 0.2701(11) 1.1364(6)
H2 H 1.3033 0.3358 1.1326
C4 C 1.2766(9) 0.1909(13) 1.1892(5)
H3 H 1.3423 0.2055 1.2216
C5 C 1.2058(8) 0.0935(10) 1.1940(4)
H4 H 1.2251 0.0413 1.2292
C6 C 1.1034(8) 0.0688(9) 1.1471(4)
C7 C 1.0308(9) -0.0304(10) 1.1543(5)
H5 H 1.0522 -0.0842 1.1885
C8 C 0.9267(9) -0.0487(9) 1.1103(4)
C9 C 0.8466(10) -0.1441(11) 1.1210(5)
H6 H 0.8671 -0.1967 1.1559
C10 C 0.7406(10) -0.1582(9) 1.0802(5)
H7 H 0.6878 -0.2192 1.0890
C11 C 0.7074(9) -0.0861(9) 1.0263(5)
H8 H 0.6353 -0.1010 0.9986
C12 C 0.7824(8) 0.0096(8) 1.0135(4)
H9 H 0.7591 0.0600 0.9779
C13 C 0.8957(8) 0.0297(8) 1.0555(4)
C14 C 0.9754(8) 0.1233(8) 1.0440(4)
C15 C 0.9565(7) 0.2078(7) 0.9858(4)
H10 H 1.0338 0.2482 0.9824
C16 C 0.8569(6) 0.3049(8) 0.9879(3)
H11 H 0.8132 0.2920 1.0246
H12 H 0.8919 0.3850 0.9909
C17 C 0.7766(7) 0.2882(8) 0.9256(4)
C18 C 0.6731(8) 0.3671(7) 0.9024(4)
C19 C 0.6496(7) 0.4664(8) 0.9376(4)
H13 H 0.7005 0.4843 0.9763
C20 C 0.5506(8) 0.5414(8) 0.9168(4)
C21 C 0.5249(8) 0.6482(8) 0.9517(4)
H14 H 0.5770 0.6697 0.9893
C22 C 0.4271(7) 0.7180(8) 0.9313(4)
H15 H 0.4107 0.7856 0.9551
C23 C 0.3496(7) 0.6867(9) 0.8728(5)
H16 H 0.2848 0.7365 0.8569
C24 C 0.3692(9) 0.5864(9) 0.8407(4)
H17 H 0.3147 0.5646 0.8040
C25 C 0.4673(8) 0.5152(8) 0.8603(5)
C26 C 0.4939(7) 0.4091(9) 0.8240(4)
H18 H 0.4415 0.3876 0.7865
C27 C 0.5931(7) 0.3409(8) 0.8435(4)
H19 H 0.6097 0.2756 0.8182
C28 C 0.9822(9) 0.0787(8) 0.8893(5)
C29 C 0.9354(8) 0.0445(8) 0.8228(4)
H20 H 0.8585 0.0833 0.8096
H21 H 0.9919 0.0687 0.7943
H22 H 0.9247 -0.0413 0.8204
N3 N 0.4581(6) 0.3213(7) 0.5808(3)
N4 N 0.3749(7) 0.3708(7) 0.6183(3)
O2 O 0.6277(6) 0.2177(6) 0.5744(3)
C30 C 0.3559(8) 0.2011(8) 0.4531(5)
C31 C 0.2694(8) 0.1831(9) 0.4937(4)
H23 H 0.2695 0.2350 0.5291
C32 C 0.1843(8) 0.0947(9) 0.4855(5)
H24 H 0.1273 0.0892 0.5141
C33 C 0.1813(11) 0.0094(10) 0.4329(6)
H25 H 0.1245 -0.0527 0.4278
C34 C 0.2633(10) 0.0219(10) 0.3910(5)
H26 H 0.2614 -0.0314 0.3562
C35 C 0.3544(10) 0.1168(10) 0.3991(5)
C36 C 0.4331(10) 0.1299(10) 0.3549(5)
H27 H 0.4334 0.0726 0.3222
C37 C 0.5126(9) 0.2259(10) 0.3574(4)
C38 C 0.5854(9) 0.2413(10) 0.3104(5)
H28 H 0.5829 0.1835 0.2777
C39 C 0.6621(10) 0.3377(13) 0.3088(5)
H29 H 0.7081 0.3461 0.2749
C40 C 0.6702(9) 0.4243(10) 0.3598(5)
H30 H 0.7230 0.4892 0.3592
C41 C 0.6009(8) 0.4145(10) 0.4107(5)
H31 H 0.6072 0.4709 0.4443
C42 C 0.5193(7) 0.3138(9) 0.4092(4)
C43 C 0.4441(8) 0.2916(8) 0.4584(4)
C44 C 0.4572(7) 0.3769(7) 0.5152(4)
H32 H 0.5348 0.4350 0.5293
C45 C 0.3566(7) 0.4755(8) 0.5178(4)
H33 H 0.3896 0.5558 0.5147
H34 H 0.2890 0.4643 0.4829
C46 C 0.3183(7) 0.4546(7) 0.5831(4)
C47 C 0.2252(9) 0.5285(7) 0.6068(4)
C48 C 0.1835(7) 0.5034(8) 0.6676(4)
H35 H 0.2153 0.4379 0.6924
C49 C 0.0966(9) 0.5749(11) 0.6901(4)
H36 H 0.0675 0.5545 0.7287
C50 C 0.0521(10) 0.6776(10) 0.6555(5)
C51 C -0.0378(10) 0.7543(10) 0.6794(5)
H37 H -0.0695 0.7351 0.7173
C52 C -0.0740(10) 0.8547(10) 0.6447(6)
H38 H -0.1290 0.9061 0.6605
C53 C -0.0333(9) 0.8835(10) 0.5877(6)
H39 H -0.0595 0.9544 0.5662
C54 C 0.0458(8) 0.8096(9) 0.5613(5)
H40 H 0.0689 0.8263 0.5208
C55 C 0.0919(8) 0.7053(8) 0.5982(5)
C56 C 0.1795(7) 0.6292(7) 0.5738(4)
H41 H 0.2059 0.6488 0.5344
C57 C 0.5491(9) 0.2445(9) 0.6100(5)
C58 C 0.5468(8) 0.2059(10) 0.6760(4)
H42 H 0.4769 0.2395 0.6917
H43 H 0.5428 0.1197 0.6774
H44 H 0.6194 0.2329 0.7031
O3 O 0.7289(8) 0.5977(9) 0.2013(4)
O4 O 0.6996(6) 0.5002(6) 0.1095(3)
H45 H 0.7701 0.5211 0.1084
C59 C 0.6642(13) 0.5402(10) 0.1631(6)
C60 C 0.5341(8) 0.5193(9) 0.1643(5)
H46 H 0.5019 0.4695 0.1279
H47 H 0.5234 0.4797 0.2043
H48 H 0.4919 0.5950 0.1614
O5 O 0.1377(7) 0.6768(7) 0.3940(3)
H49 H 0.2092 0.6969 0.3959
O6 O 0.1276(7) 0.7746(7) 0.3023(3)
C61 C 0.0773(11) 0.7180(11) 0.3420(6)
C62 C -0.0508(9) 0.6914(10) 0.3327(5)
H50 H -0.0702 0.6466 0.3696
H51 H -0.0962 0.7652 0.3288
H52 H -0.0715 0.6446 0.2937
loop_
_geom_bond_atom_site_label_1
_geom_bond_atom_site_label_2
_geom_bond_site_symmetry_1
_geom_bond_site_symmetry_2
O1 C28 1_555 1_555
N1 N2 1_555 1_555
C1 C2 1_555 1_555
N2 C17 1_555 1_555
C2 H1 1_555 1_555
C3 C2 1_555 1_555
H2 C3 1_555 1_555
C4 C3 1_555 1_555
H3 C4 1_555 1_555
C5 C4 1_555 1_555
H4 C5 1_555 1_555
C6 C1 1_555 1_555
C7 C6 1_555 1_555
H5 C7 1_555 1_555
C8 C7 1_555 1_555
C9 C8 1_555 1_555
H6 C9 1_555 1_555
C10 C9 1_555 1_555
H7 C10 1_555 1_555
C11 C10 1_555 1_555
H8 C11 1_555 1_555
C12 C11 1_555 1_555
H9 C12 1_555 1_555
C13 C8 1_555 1_555
C14 C1 1_555 1_555
C15 N1 1_555 1_555
H10 C15 1_555 1_555
C16 C15 1_555 1_555
H11 C16 1_555 1_555
H12 C16 1_555 1_555
C17 C16 1_555 1_555
C18 C17 1_555 1_555
C19 C18 1_555 1_555
H13 C19 1_555 1_555
C20 C19 1_555 1_555
C21 C20 1_555 1_555
H14 C21 1_555 1_555
C22 C21 1_555 1_555
H15 C22 1_555 1_555
C23 C22 1_555 1_555
H16 C23 1_555 1_555
C24 C23 1_555 1_555
H17 C24 1_555 1_555
C25 C20 1_555 1_555
C26 C25 1_555 1_555
H18 C26 1_555 1_555
C27 C18 1_555 1_555
H19 C27 1_555 1_555
C28 N1 1_555 1_555
C29 C28 1_555 1_555
H20 C29 1_555 1_555
H21 C29 1_555 1_555
H22 C29 1_555 1_555
N3 N4 1_555 1_555
N4 C46 1_555 1_555
O2 C57 1_555 1_555
C30 C31 1_555 1_555
C31 H23 1_555 1_555
C32 C31 1_555 1_555
H24 C32 1_555 1_555
C33 C32 1_555 1_555
H25 C33 1_555 1_555
C34 C33 1_555 1_555
H26 C34 1_555 1_555
C35 C30 1_555 1_555
C36 C35 1_555 1_555
H27 C36 1_555 1_555
C37 C36 1_555 1_555
C38 C37 1_555 1_555
H28 C38 1_555 1_555
C39 C38 1_555 1_555
H29 C39 1_555 1_555
C40 C39 1_555 1_555
H30 C40 1_555 1_555
C41 C40 1_555 1_555
H31 C41 1_555 1_555
C42 C37 1_555 1_555
C43 C30 1_555 1_555
C44 N3 1_555 1_555
H32 C44 1_555 1_555
C45 C44 1_555 1_555
H33 C45 1_555 1_555
H34 C45 1_555 1_555
C46 C45 1_555 1_555
C47 C46 1_555 1_555
C48 C47 1_555 1_555
H35 C48 1_555 1_555
C49 C48 1_555 1_555
H36 C49 1_555 1_555
C50 C49 1_555 1_555
C51 C50 1_555 1_555
H37 C51 1_555 1_555
C52 C51 1_555 1_555
H38 C52 1_555 1_555
C53 C52 1_555 1_555
H39 C53 1_555 1_555
C54 C53 1_555 1_555
H40 C54 1_555 1_555
C55 C50 1_555 1_555
C56 C47 1_555 1_555
H41 C56 1_555 1_555
C57 N3 1_555 1_555
C58 C57 1_555 1_555
H42 C58 1_555 1_555
H43 C58 1_555 1_555
H44 C58 1_555 1_555
O3 C59 1_555 1_555
O4 H45 1_555 1_555
C59 O4 1_555 1_555
C60 C59 1_555 1_555
H46 C60 1_555 1_555
H47 C60 1_555 1_555
H48 C60 1_555 1_555
O5 H49 1_555 1_555
O6 C61 1_555 1_555
C61 O5 1_555 1_555
C62 C61 1_555 1_555
H50 C62 1_555 1_555
H51 C62 1_555 1_555
H52 C62 1_555 1_555
C5 C6 1_555 1_555
C12 C13 1_555 1_555
C13 C14 1_555 1_555
C14 C15 1_555 1_555
C24 C25 1_555 1_555
C26 C27 1_555 1_555
C34 C35 1_555 1_555
C41 C42 1_555 1_555
C42 C43 1_555 1_555
C43 C44 1_555 1_555
C54 C55 1_555 1_555
C55 C56 1_555 1_555

#END
