
#######################################################################
#
#                 Cambridge Crystallographic Data Centre
#                                CCDC 
#
#######################################################################
#
# If this CIF has been generated from an entry in the Cambridge 
# Structural Database, then it will include bibliographic, chemical, 
# crystal, experimental, refinement or atomic coordinate data resulting 
# from the CCDC's data processing and validation procedures.
#
#######################################################################

data_QAVBEX
_chemical_formula_moiety         'C29 H22 N2 O1,C1 H1 Cl3'
_chemical_name_systematic        
'1-(5-(9-anthryl)-3-(2-naphthyl)-4,5-dihydro-1H-pyrazol-1-yl)ethanone chloroform solvate'
_symmetry_cell_setting           monoclinic
_symmetry_space_group_name_H-M   'P 21/n'
_symmetry_Int_Tables_number      14
_space_group_name_Hall           '-P 2yn'
loop_
_symmetry_equiv_pos_site_id
_symmetry_equiv_pos_as_xyz
1 x,y,z
2 1/2-x,1/2+y,1/2-z
3 -x,-y,-z
4 1/2+x,1/2-y,1/2+z
_cell_length_a                   13.080(3)
_cell_length_b                   12.226(2)
_cell_length_c                   16.642(3)
_cell_angle_alpha                90
_cell_angle_beta                 95.13(3)
_cell_angle_gamma                90
_cell_volume                     2650.66
_exptl_crystal_colour            colorless
_exptl_crystal_description       block
_cell_formula_units_Z            4
loop_
_atom_site_label
_atom_site_type_symbol
_atom_site_fract_x
_atom_site_fract_y
_atom_site_fract_z
O1 O 0.1470(2) 1.0111(3) 0.34874(19)
C1 C 0.2397(3) 0.9345(3) 0.1534(3)
N1 N 0.3853(3) 0.8755(3) 0.3604(2)
N2 N 0.2839(3) 0.9053(3) 0.3373(2)
C2 C 0.3398(3) 0.9784(4) 0.1772(3)
H1 H 0.3725 0.9605 0.2274
C3 C 0.3875(4) 1.0461(4) 0.1270(3)
H2 H 0.4528 1.0724 0.1436
C4 C 0.3408(5) 1.0773(5) 0.0509(4)
H3 H 0.3744 1.1245 0.0182
C5 C 0.2474(4) 1.0383(4) 0.0261(3)
H4 H 0.2159 1.0605 -0.0235
C6 C 0.1957(4) 0.9642(4) 0.0736(3)
C7 C 0.1037(4) 0.9168(4) 0.0433(3)
H5 H 0.0758 0.9362 -0.0081
C8 C 0.0527(3) 0.8424(4) 0.0867(3)
C9 C -0.0373(4) 0.7886(5) 0.0512(3)
H6 H -0.0632 0.8064 -0.0010
C10 C -0.0845(4) 0.7128(5) 0.0924(4)
H7 H -0.1426 0.6782 0.0681
C11 C -0.0479(4) 0.6840(5) 0.1730(4)
H8 H -0.0823 0.6321 0.2013
C12 C 0.0379(4) 0.7336(4) 0.2079(3)
H9 H 0.0611 0.7146 0.2605
C13 C 0.0936(3) 0.8134(4) 0.1672(3)
C14 C 0.1857(3) 0.8618(4) 0.2003(3)
C15 C 0.2292(3) 0.8232(4) 0.2834(3)
H10 H 0.174(3) 0.802(3) 0.311(2)
C16 C 0.4035(3) 0.7823(4) 0.3285(3)
C17 C 0.3120(3) 0.7341(4) 0.2805(3)
H11 H 0.2906 0.6667 0.3048
H12 H 0.3267 0.7195 0.2254
C18 C 0.2380(4) 0.9915(4) 0.3697(3)
C19 C 0.3007(4) 1.0612(4) 0.4299(3)
H13 H 0.3692 1.0325 0.4380
H14 H 0.3030 1.1348 0.4100
H15 H 0.2700 1.0609 0.4802
C20 C 0.5048(3) 0.7330(4) 0.3358(3)
C21 C 0.5906(3) 0.7883(4) 0.3738(3)
H16 H 0.5820 0.8573 0.3958
C22 C 0.6861(3) 0.7422(4) 0.3787(3)
H17 H 0.7415 0.7804 0.4040
C23 C 0.7021(4) 0.6376(4) 0.3461(3)
C24 C 0.8003(4) 0.5874(5) 0.3490(3)
H18 H 0.8575 0.6242 0.3727
C25 C 0.8114(4) 0.4858(6) 0.3172(4)
H19 H 0.8764 0.4547 0.3188
C26 C 0.7282(5) 0.4284(5) 0.2829(4)
H20 H 0.7366 0.3581 0.2632
C27 C 0.6329(4) 0.4757(4) 0.2779(3)
H21 H 0.5773 0.4374 0.2531
C28 C 0.6169(4) 0.5797(4) 0.3089(3)
C29 C 0.5192(3) 0.6303(4) 0.3047(3)
H22 H 0.4629 0.5929 0.2801
C30 C 0.4994(4) 0.6614(4) 0.0544(3)
H23 H 0.4639 0.6021 0.0802
Cl1 Cl 0.62638(15) 0.6600(2) 0.08979(15)
Cl2 Cl 0.48837(18) 0.64019(15) -0.05037(12)
Cl3 Cl 0.44221(15) 0.78349(13) 0.07456(13)
loop_
_geom_bond_atom_site_label_1
_geom_bond_atom_site_label_2
_geom_bond_site_symmetry_1
_geom_bond_site_symmetry_2
O1 C18 1_555 1_555
C1 C2 1_555 1_555
N1 N2 1_555 1_555
N2 C15 1_555 1_555
C2 H1 1_555 1_555
C3 C2 1_555 1_555
H2 C3 1_555 1_555
C4 C3 1_555 1_555
H3 C4 1_555 1_555
C5 C4 1_555 1_555
H4 C5 1_555 1_555
C6 C1 1_555 1_555
C7 C6 1_555 1_555
H5 C7 1_555 1_555
C8 C7 1_555 1_555
C9 C8 1_555 1_555
H6 C9 1_555 1_555
C10 C9 1_555 1_555
H7 C10 1_555 1_555
C11 C10 1_555 1_555
H8 C11 1_555 1_555
C12 C11 1_555 1_555
H9 C12 1_555 1_555
C13 C8 1_555 1_555
C14 C1 1_555 1_555
C15 C14 1_555 1_555
H10 C15 1_555 1_555
C16 N1 1_555 1_555
C17 C15 1_555 1_555
H11 C17 1_555 1_555
H12 C17 1_555 1_555
C18 N2 1_555 1_555
C19 C18 1_555 1_555
H13 C19 1_555 1_555
H14 C19 1_555 1_555
H15 C19 1_555 1_555
C20 C16 1_555 1_555
C21 C20 1_555 1_555
H16 C21 1_555 1_555
C22 C21 1_555 1_555
H17 C22 1_555 1_555
C23 C22 1_555 1_555
C24 C23 1_555 1_555
H18 C24 1_555 1_555
C25 C24 1_555 1_555
H19 C25 1_555 1_555
C26 C25 1_555 1_555
H20 C26 1_555 1_555
C27 C26 1_555 1_555
H21 C27 1_555 1_555
C28 C23 1_555 1_555
C29 C20 1_555 1_555
H22 C29 1_555 1_555
C30 H23 1_555 1_555
Cl1 C30 1_555 1_555
Cl2 C30 1_555 1_555
Cl3 C30 1_555 1_555
C5 C6 1_555 1_555
C12 C13 1_555 1_555
C13 C14 1_555 1_555
C16 C17 1_555 1_555
C27 C28 1_555 1_555
C28 C29 1_555 1_555

#END
