
#######################################################################
#
#                 Cambridge Crystallographic Data Centre
#                                CCDC 
#
#######################################################################
#
# If this CIF has been generated from an entry in the Cambridge 
# Structural Database, then it will include bibliographic, chemical, 
# crystal, experimental, refinement or atomic coordinate data resulting 
# from the CCDC's data processing and validation procedures.
#
#######################################################################

data_QAVBUN
_chemical_formula_moiety         'C25 H19 Cl1 N2 O1,C6 H6 O1'
_chemical_name_systematic        
'1-(5-(9-anthryl)-3-(4-chlorophenyl)-4,5-dihydro-1H-pyrazol-1-yl)ethanone phenol solvate'
_symmetry_cell_setting           triclinic
_symmetry_space_group_name_H-M   'P -1'
_symmetry_Int_Tables_number      2
_space_group_name_Hall           '-P 1'
loop_
_symmetry_equiv_pos_site_id
_symmetry_equiv_pos_as_xyz
1 x,y,z
2 -x,-y,-z
_cell_length_a                   10.020(2)
_cell_length_b                   10.207(2)
_cell_length_c                   26.292(5)
_cell_angle_alpha                95.28(3)
_cell_angle_beta                 96.48(3)
_cell_angle_gamma                103.05(3)
_cell_volume                     2583.56
_exptl_crystal_colour            colorless
_exptl_crystal_description       block
_cell_formula_units_Z            4
loop_
_atom_site_label
_atom_site_type_symbol
_atom_site_fract_x
_atom_site_fract_y
_atom_site_fract_z
Cl1 Cl 0.2309(2) 0.7019(2) 0.57951(6)
O1 O -0.1543(4) 0.9450(3) 0.23383(13)
N1 N -0.0387(4) 0.8966(4) 0.30380(14)
N2 N -0.0125(4) 0.8993(4) 0.35695(14)
C1 C 0.0141(5) 0.7925(4) 0.27418(16)
H1 H -0.0629 0.7340 0.2656
C2 C 0.0887(5) 0.7370(4) 0.31877(16)
H2 H 0.0539 0.6399 0.3175
H3 H 0.1877 0.7570 0.3178
C3 C 0.0553(5) 0.8109(5) 0.36612(17)
C4 C -0.1242(5) 0.9658(5) 0.2812(2)
C5 C -0.1789(5) 1.0620(5) 0.31403(19)
H4 H -0.1429 1.0630 0.3495
H5 H -0.1512 1.1512 0.3040
H6 H -0.2781 1.0341 0.3097
C6 C 0.1013(5) 0.8430(4) 0.23364(17)
C7 C 0.2158(5) 0.9540(4) 0.24551(18)
C8 C 0.2579(5) 1.0324(5) 0.2959(2)
H7 H 0.2053 1.0102 0.3222
C9 C 0.3701(5) 1.1360(5) 0.3058(2)
H8 H 0.3938 1.1832 0.3388
C10 C 0.4518(6) 1.1744(6) 0.2676(3)
H9 H 0.5297 1.2461 0.2753
C11 C 0.4174(6) 1.1070(6) 0.2195(3)
H10 H 0.4714 1.1343 0.1941
C12 C 0.3017(5) 0.9964(5) 0.2070(2)
C13 C 0.2673(6) 0.9247(6) 0.1584(2)
H11 H 0.3237 0.9502 0.1335
C14 C 0.1534(6) 0.8169(6) 0.14471(19)
C15 C 0.1212(7) 0.7475(7) 0.0940(2)
H12 H 0.1772 0.7753 0.0692
C16 C 0.0121(8) 0.6434(7) 0.0814(2)
H13 H -0.0085 0.6009 0.0476
C17 C -0.0731(7) 0.5959(7) 0.1183(2)
H14 H -0.1475 0.5212 0.1091
C18 C -0.0460(6) 0.6602(6) 0.1676(2)
H15 H -0.1043 0.6298 0.1914
C19 C 0.0693(5) 0.7726(5) 0.18341(18)
C20 C 0.0991(5) 0.7852(5) 0.41880(17)
C21 C 0.0792(6) 0.8644(5) 0.46171(19)
H16 H 0.0378 0.9362 0.4572
C22 C 0.1196(6) 0.8384(6) 0.5109(2)
H17 H 0.1058 0.8927 0.5393
C23 C 0.1798(6) 0.7331(6) 0.5180(2)
C24 C 0.1975(8) 0.6519(7) 0.4772(2)
H18 H 0.2340 0.5772 0.4820
C25 C 0.1603(7) 0.6815(6) 0.4280(2)
H19 H 0.1778 0.6283 0.4000
O2 O 0.2612(4) 0.9207(4) 0.83730(14)
H20 H 0.2260 0.9615 0.8162
C26 C 0.1802(7) 0.8973(5) 0.87542(19)
C27 C 0.0602(6) 0.9387(5) 0.8762(2)
H21 H 0.0305 0.9845 0.8499
C28 C -0.0178(7) 0.9131(7) 0.9161(3)
H22 H -0.0992 0.9421 0.9168
C29 C 0.0264(9) 0.8447(8) 0.9543(3)
H23 H -0.0246 0.8273 0.9814
C30 C 0.1436(9) 0.8026(8) 0.9527(3)
H24 H 0.1720 0.7548 0.9786
C31 C 0.2212(8) 0.8279(7) 0.9143(2)
H25 H 0.3025 0.7983 0.9142
Cl2 Cl 0.5788(2) 0.7397(2) -0.07940(6)
O3 O 0.2550(4) 0.5245(4) 0.26495(14)
N3 N 0.3589(4) 0.5790(4) 0.19657(14)
N4 N 0.3568(4) 0.5715(4) 0.14368(15)
C32 C 0.4631(5) 0.6977(5) 0.22608(17)
H26 H 0.4037 0.7484 0.2324
C33 C 0.5368(5) 0.7556(5) 0.18176(16)
H27 H 0.5342 0.8496 0.1804
H28 H 0.6324 0.7489 0.1856
C34 C 0.4547(5) 0.6673(5) 0.13446(18)
C35 C 0.2600(5) 0.4980(5) 0.2183(2)
C36 C 0.1610(6) 0.3814(6) 0.1849(2)
H29 H 0.1829 0.3791 0.1503
H30 H 0.1682 0.2982 0.1981
H31 H 0.0683 0.3923 0.1851
C37 C 0.5548(5) 0.6608(5) 0.26965(18)
C38 C 0.5680(5) 0.7325(4) 0.31959(17)
C39 C 0.4966(5) 0.8336(5) 0.3319(2)
H32 H 0.4395 0.8580 0.3059
C40 C 0.5098(6) 0.8958(6) 0.3808(2)
H33 H 0.4607 0.9610 0.3879
C41 C 0.5978(7) 0.8619(7) 0.4213(2)
H34 H 0.6045 0.9040 0.4547
C42 C 0.6710(6) 0.7703(6) 0.4118(2)
H35 H 0.7317 0.7523 0.4382
C43 C 0.6566(5) 0.6994(5) 0.36086(18)
C44 C 0.7332(5) 0.6049(5) 0.3509(2)
H36 H 0.7939 0.5880 0.3776
C45 C 0.7222(5) 0.5352(5) 0.30248(19)
C46 C 0.8031(5) 0.4393(5) 0.2932(2)
H37 H 0.8628 0.4234 0.3204
C47 C 0.7954(5) 0.3712(5) 0.2463(2)
H38 H 0.8499 0.3098 0.2411
C48 C 0.7045(6) 0.3939(5) 0.2053(2)
H39 H 0.6984 0.3461 0.1729
C49 C 0.6244(5) 0.4851(5) 0.21197(19)
H40 H 0.5646 0.4975 0.1841
C50 C 0.6309(5) 0.5610(5) 0.26064(17)
C51 C 0.4819(6) 0.6856(5) 0.08170(19)
C52 C 0.5965(7) 0.7800(6) 0.0731(2)
H41 H 0.6548 0.8327 0.1012
C53 C 0.6279(7) 0.7990(7) 0.0237(2)
H42 H 0.7068 0.8620 0.0187
C54 C 0.5396(7) 0.7224(7) -0.0172(2)
C55 C 0.4240(6) 0.6287(6) -0.0100(2)
H43 H 0.3654 0.5770 -0.0382
C56 C 0.3946(6) 0.6112(6) 0.03950(19)
H44 H 0.3153 0.5486 0.0443
O4 O 0.1207(4) 0.3690(4) 0.32959(14)
H45 H 0.1615 0.4160 0.3098
C57 C 0.2123(6) 0.3591(6) 0.3707(2)
C58 C 0.1710(6) 0.2661(6) 0.4041(2)
H46 H 0.0807 0.2134 0.3989
C59 C 0.2609(7) 0.2511(7) 0.4443(2)
H47 H 0.2324 0.1858 0.4658
C60 C 0.3926(7) 0.3302(6) 0.4539(2)
H48 H 0.4522 0.3212 0.4825
C61 C 0.4359(6) 0.4217(6) 0.4215(2)
H49 H 0.5265 0.4736 0.4271
C62 C 0.3461(6) 0.4381(5) 0.3801(2)
H50 H 0.3757 0.5027 0.3585
loop_
_geom_bond_atom_site_label_1
_geom_bond_atom_site_label_2
_geom_bond_site_symmetry_1
_geom_bond_site_symmetry_2
Cl1 C23 1_555 1_555
O1 C4 1_555 1_555
N1 N2 1_555 1_555
N2 C3 1_555 1_555
C1 N1 1_555 1_555
H1 C1 1_555 1_555
C2 C1 1_555 1_555
H2 C2 1_555 1_555
H3 C2 1_555 1_555
C3 C2 1_555 1_555
C4 N1 1_555 1_555
C5 C4 1_555 1_555
H4 C5 1_555 1_555
H5 C5 1_555 1_555
H6 C5 1_555 1_555
C6 C1 1_555 1_555
C7 C6 1_555 1_555
C8 C7 1_555 1_555
H7 C8 1_555 1_555
C9 C8 1_555 1_555
H8 C9 1_555 1_555
C10 C9 1_555 1_555
H9 C10 1_555 1_555
C11 C10 1_555 1_555
H10 C11 1_555 1_555
C12 C7 1_555 1_555
C13 C12 1_555 1_555
H11 C13 1_555 1_555
C14 C13 1_555 1_555
C15 C14 1_555 1_555
H12 C15 1_555 1_555
C16 C15 1_555 1_555
H13 C16 1_555 1_555
C17 C16 1_555 1_555
H14 C17 1_555 1_555
C18 C17 1_555 1_555
H15 C18 1_555 1_555
C19 C6 1_555 1_555
C20 C3 1_555 1_555
C21 C20 1_555 1_555
H16 C21 1_555 1_555
C22 C21 1_555 1_555
H17 C22 1_555 1_555
C23 C22 1_555 1_555
C24 C23 1_555 1_555
H18 C24 1_555 1_555
C25 C20 1_555 1_555
H19 C25 1_555 1_555
O2 H20 1_555 1_555
C26 O2 1_555 1_555
C27 C26 1_555 1_555
H21 C27 1_555 1_555
C28 C27 1_555 1_555
H22 C28 1_555 1_555
C29 C28 1_555 1_555
H23 C29 1_555 1_555
C30 C29 1_555 1_555
H24 C30 1_555 1_555
C31 C26 1_555 1_555
H25 C31 1_555 1_555
Cl2 C54 1_555 1_555
O3 C35 1_555 1_555
N3 N4 1_555 1_555
N4 C34 1_555 1_555
C32 N3 1_555 1_555
H26 C32 1_555 1_555
C33 C32 1_555 1_555
H27 C33 1_555 1_555
H28 C33 1_555 1_555
C34 C33 1_555 1_555
C35 N3 1_555 1_555
C36 C35 1_555 1_555
H29 C36 1_555 1_555
H30 C36 1_555 1_555
H31 C36 1_555 1_555
C37 C32 1_555 1_555
C38 C37 1_555 1_555
C39 C38 1_555 1_555
H32 C39 1_555 1_555
C40 C39 1_555 1_555
H33 C40 1_555 1_555
C41 C40 1_555 1_555
H34 C41 1_555 1_555
C42 C41 1_555 1_555
H35 C42 1_555 1_555
C43 C38 1_555 1_555
C44 C43 1_555 1_555
H36 C44 1_555 1_555
C45 C44 1_555 1_555
C46 C45 1_555 1_555
H37 C46 1_555 1_555
C47 C46 1_555 1_555
H38 C47 1_555 1_555
C48 C47 1_555 1_555
H39 C48 1_555 1_555
C49 C48 1_555 1_555
H40 C49 1_555 1_555
C50 C37 1_555 1_555
C51 C34 1_555 1_555
C52 C51 1_555 1_555
H41 C52 1_555 1_555
C53 C52 1_555 1_555
H42 C53 1_555 1_555
C54 C53 1_555 1_555
C55 C54 1_555 1_555
H43 C55 1_555 1_555
C56 C51 1_555 1_555
H44 C56 1_555 1_555
O4 H45 1_555 1_555
C57 O4 1_555 1_555
C58 C57 1_555 1_555
H46 C58 1_555 1_555
C59 C58 1_555 1_555
H47 C59 1_555 1_555
C60 C59 1_555 1_555
H48 C60 1_555 1_555
C61 C60 1_555 1_555
H49 C61 1_555 1_555
C62 C57 1_555 1_555
H50 C62 1_555 1_555
C11 C12 1_555 1_555
C14 C19 1_555 1_555
C18 C19 1_555 1_555
C24 C25 1_555 1_555
C30 C31 1_555 1_555
C42 C43 1_555 1_555
C45 C50 1_555 1_555
C49 C50 1_555 1_555
C55 C56 1_555 1_555
C61 C62 1_555 1_555

#END
