
#######################################################################
#
#                 Cambridge Crystallographic Data Centre
#                                CCDC 
#
#######################################################################
#
# If this CIF has been generated from an entry in the Cambridge 
# Structural Database, then it will include bibliographic, chemical, 
# crystal, experimental, refinement or atomic coordinate data resulting 
# from the CCDC's data processing and validation procedures.
#
#######################################################################

data_QAVCUO
_chemical_name_common            
'[1]-(4-(2-({4-[(ethylcarbamothioyl)amino]butyl}amino)-2-oxoethoxy)-34-butoxy-9,14,19,24,26,28,30,32-octamethoxypillar[5]arene)-pseudorotaxane'
_chemical_formula_moiety         'C56 H71 N3 O11 S1'
_chemical_name_systematic        
2-((34-butoxy-9,14,19,24,26,28,30,32-octamethoxyhexacyclo[21.2.2.2^3,6^.2^8,11^.2^13,16^.2^18,21^]pentatriaconta-1(25),3,5,8,10,13,15,18,20,23,26,28,30,32,34-pentadecaen-4-yl)oxy)-N-(4-((ethylcarbamothioyl)amino)butyl)acetamide
_symmetry_cell_setting           monoclinic
_symmetry_space_group_name_H-M   'P 21/c'
_symmetry_Int_Tables_number      14
_space_group_name_Hall           '-P 2ybc'
loop_
_symmetry_equiv_pos_site_id
_symmetry_equiv_pos_as_xyz
1 x,y,z
2 -x,1/2+y,1/2-z
3 -x,-y,-z
4 x,1/2-y,1/2+z
_cell_length_a                   11.4352(14)
_cell_length_b                   37.744(4)
_cell_length_c                   16.4700(16)
_cell_angle_alpha                90
_cell_angle_beta                 133.329(5)
_cell_angle_gamma                90
_cell_volume                     5170.99
_exptl_crystal_colour            colorless
_exptl_crystal_description       block
_cell_formula_units_Z            4
loop_
_atom_site_label
_atom_site_type_symbol
_atom_site_fract_x
_atom_site_fract_y
_atom_site_fract_z
C1 C -0.1530(3) 0.78752(5) 0.52539(17)
C2 C -0.0028(3) 0.77178(5) 0.59828(18)
H1 H 0.0582 0.7715 0.5801
C3 C 0.0597(3) 0.75636(6) 0.69829(18)
C4 C -0.0328(3) 0.75553(5) 0.72426(18)
C5 C -0.1841(3) 0.77127(6) 0.65097(18)
H2 H -0.2470 0.7708 0.6677
C6 C -0.2433(3) 0.78766(5) 0.55344(18)
C7 C -0.2128(3) 0.80600(5) 0.42110(17)
H3 H -0.3292 0.8050 0.3639
H4 H -0.1716 0.7939 0.3931
C8 C 0.0336(3) 0.73991(6) 0.83451(18)
H5 H -0.0510 0.7271 0.8221
H6 H 0.1190 0.7233 0.8626
C9 C 0.0984(3) 0.76881(6) 0.92072(18)
C10 C 0.2577(3) 0.77988(6) 0.98987(18)
H7 H 0.3255 0.7683 0.9860
C11 C 0.3180(3) 0.80771(6) 1.06431(17)
C12 C 0.2192(3) 0.82474(6) 1.07347(18)
C13 C 0.0609(3) 0.81376(6) 1.00522(18)
H8 H -0.0059 0.8250 1.0107
C14 C -0.0006(3) 0.78638(6) 0.92862(18)
C15 C 0.5808(3) 0.80287(7) 1.1316(2)
H9 H 0.5926 0.7786 1.1540
H10 H 0.6835 0.8145 1.1825
H11 H 0.5399 0.8036 1.0577
C16 C -0.2625(3) 0.79259(7) 0.8628(2)
H12 H -0.2218 0.7903 0.9365
H13 H -0.3677 0.7822 0.8096
H14 H -0.2686 0.8172 0.8457
C17 C 0.3164(3) 0.74804(7) 0.7581(2)
H15 H 0.2725 0.7369 0.6897
H16 H 0.4203 0.7382 0.8191
H17 H 0.3266 0.7730 0.7536
C18 C -0.4821(3) 0.80712(7) 0.5080(2)
H18 H -0.5085 0.7837 0.5136
H19 H -0.5792 0.8200 0.4510
H20 H -0.4215 0.8191 0.5782
C19 C 0.2428(3) 0.83339(7) 0.5546(2)
H21 H 0.2514 0.8491 0.5129
H22 H 0.2954 0.8114 0.5673
H23 H 0.2931 0.8441 0.6249
C20 C -0.4411(3) 0.92205(6) 0.4213(2)
H24 H -0.5135 0.9134 0.3459
H25 H -0.4879 0.9422 0.4256
H26 H -0.4213 0.9037 0.4699
C21 C 0.0380(3) 0.88970(6) 0.50821(17)
H27 H 0.1361 0.8960 0.5319
C22 C -0.0110(3) 0.85426(6) 0.48345(18)
C23 C -0.1588(3) 0.84442(5) 0.44533(17)
C24 C -0.2534(3) 0.87056(6) 0.43548(17)
H28 H -0.3525 0.8644 0.4103
C25 C -0.2035(3) 0.90552(6) 0.46230(17)
C26 C -0.0576(3) 0.91571(6) 0.49793(17)
C27 C -0.0055(3) 0.95432(6) 0.52343(18)
H29 H 0.0786 0.9577 0.5235
H30 H -0.0960 0.9691 0.4648
C28 C 0.0558(3) 0.96619(5) 0.63493(17)
C29 C 0.2110(3) 0.95709(5) 0.73470(18)
C30 C 0.2644(3) 0.96540(5) 0.83779(18)
H31 H 0.3678 0.9590 0.9028
C31 C 0.1653(3) 0.98315(5) 0.84503(18)
C32 C 0.0128(3) 0.99313(5) 0.74644(19)
C33 C -0.0401(3) 0.98461(5) 0.64318(18)
H32 H -0.1426 0.9915 0.5783
C34 C 0.2236(3) 0.98978(6) 0.95890(18)
H33 H 0.3262 1.0020 1.0059
H34 H 0.1475 1.0050 0.9504
C35 C -0.1618(9) 1.04292(16) 0.6974(7)
H35 H -0.2313 1.0503 0.7085
H36 H -0.2282 1.0402 0.6178
C36 C -0.0414(8) 1.07129(15) 0.7394(6)
H37 H 0.0106 1.0663 0.7128
H38 H 0.0403 1.0698 0.8202
C37 C -0.1026(12) 1.1092(4) 0.7078(10)
H39 H -0.1729 1.1119 0.6277
H40 H -0.1662 1.1136 0.7258
C38 C 0.028(2) 1.1365(4) 0.7649(14)
H41 H 0.1219 1.1279 0.8370
H42 H -0.0081 1.1580 0.7735
H43 H 0.0524 1.1412 0.7208
C39 C 0.2423(3) 0.95565(6) 1.01523(17)
C40 C 0.6672(3) 0.93695(7) 1.1832(2)
H44 H 0.6940 0.9339 1.2522
H45 H 0.7460 0.9518 1.1952
H46 H 0.6656 0.9143 1.1560
C41 C 0.3880(3) 0.93708(6) 1.08432(18)
C42 C 0.4005(3) 0.90469(6) 1.12969(17)
H47 H 0.4970 0.8923 1.1737
C43 C 0.2716(3) 0.89057(6) 1.11043(17)
C44 C 0.2847(3) 0.85434(6) 1.15713(18)
H48 H 0.3966 0.8495 1.2227
H49 H 0.2261 0.8548 1.1802
C45 C 0.1283(3) 0.90977(6) 1.04543(18)
C46 C 0.1144(3) 0.94178(6) 0.99795(18)
H50 H 0.0177 0.9541 0.9538
C47 C -0.1435(3) 0.91154(7) 0.9634(2)
H51 H -0.1309 0.9355 0.9877
H52 H -0.2135 0.8991 0.9665
H53 H -0.1891 0.9115 0.8881
C48 C 0.4544(3) 0.92559(6) 0.81845(19)
H54 H 0.5140 0.9445 0.8731
H55 H 0.5139 0.9186 0.7986
C49 C 0.4463(3) 0.89426(6) 0.8718(2)
C50 C 0.2699(3) 0.84837(6) 0.8451(2)
H56 H 0.3291 0.8525 0.9231
H57 H 0.3015 0.8254 0.8389
C51 C 0.0910(3) 0.84843(6) 0.7774(2)
H58 H 0.0680 0.8306 0.8072
H59 H 0.0335 0.8420 0.7010
C52 C 0.0298(3) 0.88401(6) 0.7781(2)
H60 H 0.0953 0.8918 0.8547
H61 H 0.0411 0.9013 0.7404
C53 C -0.1430(3) 0.88262(6) 0.7220(2)
H62 H -0.2072 0.8712 0.6498
H63 H -0.1526 0.8689 0.7671
C54 C -0.3453(3) 0.92743(6) 0.66994(19)
C55 C -0.5092(3) 0.97904(7) 0.6352(2)
H64 H -0.5855 0.9609 0.6149
H65 H -0.5623 0.9946 0.5715
C56 C -0.4593(4) 1.00001(7) 0.7326(2)
H66 H -0.4100 0.9845 0.7949
H67 H -0.5521 1.0110 0.7122
H68 H -0.3838 1.0180 0.7527
N1 N 0.3087(2) 0.87579(5) 0.80477(16)
H69 H 0.2399 0.8804 0.7345
N2 N -0.2014(2) 0.91863(5) 0.70775(16)
H70 H -0.1379 0.9357 0.7251
N3 N -0.3726(3) 0.96254(5) 0.66153(18)
H71 H -0.3027 0.9763 0.6728
O1 O -0.1579(2) 0.77489(4) 0.85786(13)
O2 O 0.47247(19) 0.82036(4) 1.13267(13)
O3 O 0.51278(19) 0.95303(4) 1.10308(13)
O4 O 0.00780(19) 0.89474(4) 1.03380(13)
O5 O -0.0926(2) 1.00918(4) 0.75051(14)
O6 O 0.30157(18) 0.93898(4) 0.72125(12)
O7 O -0.29308(19) 0.93220(4) 0.45471(13)
O8 O 0.0789(2) 0.82699(4) 0.49361(14)
O9 O 0.2123(2) 0.74209(4) 0.77565(13)
O10 O -0.38907(19) 0.80500(4) 0.48025(13)
O11 O 0.5626(2) 0.88674(5) 0.96974(15)
S1 S -0.47746(8) 0.896367(17) 0.63661(6)
C57? C -0.0762(10) 1.04701(16) 0.7670(7)
H72? H 0.0372 1.0528 0.8239
H73? H -0.1251 1.0541 0.7945
C58? C -0.1514(9) 1.06801(17) 0.6632(6)
H74? H -0.2586 1.0590 0.6014
H75? H -0.0880 1.0651 0.6444
C59? C -0.1613(12) 1.1070(4) 0.6798(9)
H76? H -0.1981 1.1089 0.7179
H77? H -0.2431 1.1177 0.6067
C60? C -0.0074(17) 1.1291(3) 0.7448(10)
H78? H 0.0711 1.1209 0.8205
H79? H -0.0314 1.1535 0.7439
H80? H 0.0343 1.1267 0.7106
loop_
_geom_bond_atom_site_label_1
_geom_bond_atom_site_label_2
_geom_bond_site_symmetry_1
_geom_bond_site_symmetry_2
C1 C2 1_555 1_555
C2 H1 1_555 1_555
C3 C2 1_555 1_555
C4 C3 1_555 1_555
C5 C4 1_555 1_555
H2 C5 1_555 1_555
C6 C1 1_555 1_555
C7 C1 1_555 1_555
H3 C7 1_555 1_555
H4 C7 1_555 1_555
C8 C4 1_555 1_555
H5 C8 1_555 1_555
H6 C8 1_555 1_555
C9 C8 1_555 1_555
C10 C9 1_555 1_555
H7 C10 1_555 1_555
C11 C10 1_555 1_555
C12 C11 1_555 1_555
C13 C12 1_555 1_555
H8 C13 1_555 1_555
C14 C9 1_555 1_555
C15 H9 1_555 1_555
H10 C15 1_555 1_555
H11 C15 1_555 1_555
C16 H12 1_555 1_555
H13 C16 1_555 1_555
H14 C16 1_555 1_555
C17 H15 1_555 1_555
H16 C17 1_555 1_555
H17 C17 1_555 1_555
C18 H18 1_555 1_555
H19 C18 1_555 1_555
H20 C18 1_555 1_555
C19 H21 1_555 1_555
H22 C19 1_555 1_555
H23 C19 1_555 1_555
C20 H24 1_555 1_555
H25 C20 1_555 1_555
H26 C20 1_555 1_555
C21 H27 1_555 1_555
C22 C21 1_555 1_555
C23 C7 1_555 1_555
C24 C23 1_555 1_555
H28 C24 1_555 1_555
C25 C24 1_555 1_555
C26 C21 1_555 1_555
C27 C26 1_555 1_555
H29 C27 1_555 1_555
H30 C27 1_555 1_555
C28 C27 1_555 1_555
C29 C28 1_555 1_555
C30 C29 1_555 1_555
H31 C30 1_555 1_555
C31 C30 1_555 1_555
C32 C31 1_555 1_555
C33 C28 1_555 1_555
H32 C33 1_555 1_555
C34 C31 1_555 1_555
H33 C34 1_555 1_555
H34 C34 1_555 1_555
C35 H35 1_555 1_555
H36 C35 1_555 1_555
C36 C35 1_555 1_555
H37 C36 1_555 1_555
H38 C36 1_555 1_555
C37 C36 1_555 1_555
H39 C37 1_555 1_555
H40 C37 1_555 1_555
C38 C37 1_555 1_555
H41 C38 1_555 1_555
H42 C38 1_555 1_555
H43 C38 1_555 1_555
C39 C34 1_555 1_555
C40 H44 1_555 1_555
H45 C40 1_555 1_555
H46 C40 1_555 1_555
C41 C39 1_555 1_555
C42 C41 1_555 1_555
H47 C42 1_555 1_555
C43 C42 1_555 1_555
C44 C12 1_555 1_555
H48 C44 1_555 1_555
H49 C44 1_555 1_555
C45 C43 1_555 1_555
C46 C39 1_555 1_555
H50 C46 1_555 1_555
C47 H51 1_555 1_555
H52 C47 1_555 1_555
H53 C47 1_555 1_555
C48 H54 1_555 1_555
H55 C48 1_555 1_555
C49 C48 1_555 1_555
C50 H56 1_555 1_555
H57 C50 1_555 1_555
C51 C50 1_555 1_555
H58 C51 1_555 1_555
H59 C51 1_555 1_555
C52 C51 1_555 1_555
H60 C52 1_555 1_555
H61 C52 1_555 1_555
C53 C52 1_555 1_555
H62 C53 1_555 1_555
H63 C53 1_555 1_555
C54 N2 1_555 1_555
C55 H64 1_555 1_555
H65 C55 1_555 1_555
C56 C55 1_555 1_555
H66 C56 1_555 1_555
H67 C56 1_555 1_555
H68 C56 1_555 1_555
N1 C49 1_555 1_555
H69 N1 1_555 1_555
N2 C53 1_555 1_555
H70 N2 1_555 1_555
N3 C54 1_555 1_555
H71 N3 1_555 1_555
O1 C14 1_555 1_555
O2 C11 1_555 1_555
O3 C40 1_555 1_555
O4 C45 1_555 1_555
O5 C32 1_555 1_555
O6 C29 1_555 1_555
O7 C20 1_555 1_555
O8 C19 1_555 1_555
O9 C3 1_555 1_555
O10 C6 1_555 1_555
O11 C49 1_555 1_555
S1 C54 1_555 1_555
C5 C6 1_555 1_555
C13 C14 1_555 1_555
C15 O2 1_555 1_555
C16 O1 1_555 1_555
C17 O9 1_555 1_555
C18 O10 1_555 1_555
C22 C23 1_555 1_555
C22 O8 1_555 1_555
C25 C26 1_555 1_555
C25 O7 1_555 1_555
C32 C33 1_555 1_555
C35 O5 1_555 1_555
C41 O3 1_555 1_555
C43 C44 1_555 1_555
C45 C46 1_555 1_555
C47 O4 1_555 1_555
C48 O6 1_555 1_555
C50 N1 1_555 1_555
C55 N3 1_555 1_555

#END
