
#######################################################################
#
#                 Cambridge Crystallographic Data Centre
#                                CCDC 
#
#######################################################################
#
# If this CIF has been generated from an entry in the Cambridge 
# Structural Database, then it will include bibliographic, chemical, 
# crystal, experimental, refinement or atomic coordinate data resulting 
# from the CCDC's data processing and validation procedures.
#
#######################################################################

data_QAVCAU
_chemical_formula_moiety         'C22 H32 Br1 N1 O2'
_chemical_name_systematic        
N-(4-bromophenyl)-2-(2-hydroxy-2,5,5,8a-tetramethyldecahydronaphthalen-1-yl)acetamide
_chemical_properties_biological  'fungicidal activity'
_symmetry_cell_setting           monoclinic
_symmetry_space_group_name_H-M   'P 21'
_symmetry_Int_Tables_number      4
_space_group_name_Hall           'P 2yb'
loop_
_symmetry_equiv_pos_site_id
_symmetry_equiv_pos_as_xyz
1 x,y,z
2 -x,1/2+y,-z
_cell_length_a                   8.2504(6)
_cell_length_b                   10.3791(8)
_cell_length_c                   12.0955(8)
_cell_angle_alpha                90
_cell_angle_beta                 101.178(2)
_cell_angle_gamma                90
_cell_volume                     1016.11
_exptl_crystal_colour            colorless
_exptl_crystal_description       block
_cell_formula_units_Z            2
loop_
_atom_site_label
_atom_site_type_symbol
_atom_site_fract_x
_atom_site_fract_y
_atom_site_fract_z
H1 H 0.078(3) 0.949(2) 0.1414(16)
H2 H 0.149(3) 0.982(3) 0.3278(18)
Br1 Br 0.85680(3) 0.81238(4) -0.29842(3)
C1 C 0.6758(3) 0.7976(3) -0.22344(19)
C2 C 0.5803(4) 0.9043(3) -0.2117(2)
H3 H 0.6053 0.9838 -0.2396
C3 C 0.4457(3) 0.8919(3) -0.1577(2)
H4 H 0.3799 0.9629 -0.1502
C4 C 0.4114(3) 0.7739(2) -0.1157(2)
C5 C 0.5108(3) 0.6690(3) -0.1269(2)
H5 H 0.4881 0.5897 -0.0976
C6 C 0.6425(3) 0.6803(3) -0.1809(2)
H6 H 0.7082 0.6092 -0.1883
C7 C 0.1917(3) 0.8409(2) -0.01256(19)
C8 C 0.0541(3) 0.7871(3) 0.03982(19)
H7 H 0.0765 0.6969 0.0576
H8 H -0.0486 0.7919 -0.0148
C9 C 0.0328(3) 0.8584(2) 0.14754(19)
C10 C 0.1372(3) 0.8005(3) 0.25860(18)
C11 C 0.1176(3) 0.8959(3) 0.35485(19)
C12 C -0.0644(3) 0.9081(3) 0.3637(2)
H9 H -0.1072 0.8242 0.3786
H10 H -0.0744 0.9647 0.4258
C13 C -0.1644(3) 0.9618(3) 0.2550(2)
H11 H -0.1272 1.0489 0.2446
H12 H -0.2795 0.9665 0.2617
C14 C -0.1512(3) 0.8824(3) 0.1513(2)
C15 C -0.2600(3) 0.7638(3) 0.1418(2)
H13 H -0.2396 0.7109 0.0808
H14 H -0.3739 0.7894 0.1277
H15 H -0.2353 0.7158 0.2109
C16 C 0.0871(4) 0.6622(3) 0.2789(2)
H16 H 0.1772 0.6189 0.3266
H17 H 0.0595 0.6177 0.2081
H18 H -0.0071 0.6629 0.3146
C17 C 0.3204(3) 0.8002(3) 0.24781(19)
H19 H 0.3369 0.7340 0.1945
H20 H 0.3467 0.8826 0.2178
C18 C 0.4385(3) 0.7762(3) 0.3593(2)
H21 H 0.4199 0.6905 0.3863
H22 H 0.5514 0.7803 0.3476
C19 C 0.4146(4) 0.8742(3) 0.4468(2)
H23 H 0.4427 0.9587 0.4219
H24 H 0.4907 0.8549 0.5166
C20 C 0.2384(3) 0.8791(3) 0.4705(2)
C21 C 0.2245(4) 0.9982(3) 0.5427(3)
H25 H 0.2350 1.0745 0.4998
H26 H 0.3108 0.9966 0.6086
H27 H 0.1190 0.9983 0.5650
C22 C 0.2043(4) 0.7605(3) 0.5372(2)
H28 H 0.0900 0.7596 0.5433
H29 H 0.2723 0.7633 0.6112
H30 H 0.2292 0.6841 0.4990
N1 N 0.2773(2) 0.7517(2) -0.06068(16)
H31 H 0.2465 0.6729 -0.0573
O1 O 0.2225(3) 0.9554(2) -0.01313(18)
O2 O -0.2156(2) 0.9667(2) 0.05600(15)
H32 H -0.263(4) 0.921(3) 0.010(2)
loop_
_geom_bond_atom_site_label_1
_geom_bond_atom_site_label_2
_geom_bond_site_symmetry_1
_geom_bond_site_symmetry_2
H1 C9 1_555 1_555
H2 C11 1_555 1_555
Br1 C1 1_555 1_555
C1 C2 1_555 1_555
C2 H3 1_555 1_555
C3 C2 1_555 1_555
H4 C3 1_555 1_555
C4 C3 1_555 1_555
C5 C4 1_555 1_555
H5 C5 1_555 1_555
C6 C1 1_555 1_555
H6 C6 1_555 1_555
C7 C8 1_555 1_555
C8 H7 1_555 1_555
H8 C8 1_555 1_555
C9 C8 1_555 1_555
C10 C9 1_555 1_555
C11 C10 1_555 1_555
C12 C11 1_555 1_555
H9 C12 1_555 1_555
H10 C12 1_555 1_555
C13 C12 1_555 1_555
H11 C13 1_555 1_555
H12 C13 1_555 1_555
C14 C9 1_555 1_555
C15 C14 1_555 1_555
H13 C15 1_555 1_555
H14 C15 1_555 1_555
H15 C15 1_555 1_555
C16 C10 1_555 1_555
H16 C16 1_555 1_555
H17 C16 1_555 1_555
H18 C16 1_555 1_555
C17 C10 1_555 1_555
H19 C17 1_555 1_555
H20 C17 1_555 1_555
C18 C17 1_555 1_555
H21 C18 1_555 1_555
H22 C18 1_555 1_555
C19 C18 1_555 1_555
H23 C19 1_555 1_555
H24 C19 1_555 1_555
C20 C11 1_555 1_555
C21 C20 1_555 1_555
H25 C21 1_555 1_555
H26 C21 1_555 1_555
H27 C21 1_555 1_555
C22 C20 1_555 1_555
H28 C22 1_555 1_555
H29 C22 1_555 1_555
H30 C22 1_555 1_555
N1 C4 1_555 1_555
H31 N1 1_555 1_555
O1 C7 1_555 1_555
O2 C14 1_555 1_555
H32 O2 1_555 1_555
C5 C6 1_555 1_555
C7 N1 1_555 1_555
C13 C14 1_555 1_555
C19 C20 1_555 1_555

#END
