
#######################################################################
#
#                 Cambridge Crystallographic Data Centre
#                                CCDC 
#
#######################################################################
#
# If this CIF has been generated from an entry in the Cambridge 
# Structural Database, then it will include bibliographic, chemical, 
# crystal, experimental, refinement or atomic coordinate data resulting 
# from the CCDC's data processing and validation procedures.
#
#######################################################################

data_QAVJUV
_chemical_formula_moiety         'C23 H30 N2 O1 S1'
_chemical_name_systematic        
N-((2,6-diisopropylphenyl)carbamothioyl)-2,4,6-trimethylbenzamide
_symmetry_cell_setting           triclinic
_symmetry_space_group_name_H-M   'P -1'
_symmetry_Int_Tables_number      2
_space_group_name_Hall           '-P 1'
loop_
_symmetry_equiv_pos_site_id
_symmetry_equiv_pos_as_xyz
1 x,y,z
2 -x,-y,-z
_cell_length_a                   10.4229(7)
_cell_length_b                   13.1274(9)
_cell_length_c                   17.9771(12)
_cell_angle_alpha                95.837(2)
_cell_angle_beta                 91.755(2)
_cell_angle_gamma                112.020(2)
_cell_volume                     2262.16
_exptl_crystal_colour            colorless
_exptl_crystal_description       rod
_cell_formula_units_Z            4
loop_
_atom_site_label
_atom_site_type_symbol
_atom_site_fract_x
_atom_site_fract_y
_atom_site_fract_z
N1 N 0.38404(18) 0.33244(16) 0.27856(11)
H1 H 0.2971 0.3069 0.2860
N2 N 0.59195(17) 0.48385(16) 0.29885(11)
H2 H 0.6316 0.4369 0.2953
O1 O 0.55777(17) 0.27310(16) 0.25268(14)
S1 S 0.36296(6) 0.52471(6) 0.31607(5)
C1 C 0.4545(2) 0.4460(2) 0.29854(13)
C2 C 0.4346(2) 0.2566(2) 0.24882(15)
C3 C 0.3270(2) 0.15471(19) 0.20701(14)
C4 C 0.2635(2) 0.0604(2) 0.24186(14)
C5 C 0.1655(3) -0.0315(2) 0.19928(16)
H3 H 0.1208 -0.0947 0.2221
C6 C 0.1321(3) -0.0324(2) 0.12435(16)
C7 C 0.1974(3) 0.0630(3) 0.09240(16)
H4 H 0.1751 0.0638 0.0420
C8 C 0.2937(3) 0.1568(2) 0.13155(16)
C9 C 0.3628(4) 0.2589(3) 0.0929(2)
H5 H 0.3287 0.2439 0.0411
H6 H 0.4614 0.2783 0.0963
H7 H 0.3420 0.3192 0.1167
C10 C 0.2992(3) 0.0575(3) 0.32305(17)
H8 H 0.2366 -0.0100 0.3389
H9 H 0.2911 0.1195 0.3528
H10 H 0.3927 0.0611 0.3293
C11 C 0.0273(3) -0.1347(3) 0.07960(19)
H11 H -0.0641 -0.1343 0.0842
H12 H 0.0318 -0.1993 0.0983
H13 H 0.0473 -0.1355 0.0278
C12 C 0.6777(2) 0.60037(19) 0.30488(14)
C13 C 0.7043(2) 0.6493(2) 0.23914(15)
C14 C 0.7899(3) 0.7610(2) 0.24582(19)
H14 H 0.8109 0.7963 0.2029
C15 C 0.8438(3) 0.8197(2) 0.3145(2)
H15 H 0.8992 0.8946 0.3178
C16 C 0.8166(3) 0.7692(2) 0.37806(18)
H16 H 0.8554 0.8101 0.4242
C17 C 0.7322(2) 0.6576(2) 0.37536(15)
C18 C 0.7013(3) 0.6027(3) 0.44604(17)
H17 H 0.6245 0.5310 0.4329
C19 C 0.8258(5) 0.5796(5) 0.4752(3)
H18 H 0.9042 0.6481 0.4869
H19 H 0.8478 0.5327 0.4375
H20 H 0.8035 0.5433 0.5196
C20 C 0.6555(5) 0.6671(4) 0.5064(2)
H21 H 0.7307 0.7360 0.5231
H22 H 0.6284 0.6249 0.5478
H23 H 0.5781 0.6815 0.4867
C21 C 0.6403(3) 0.5854(3) 0.16332(16)
H24 H 0.5782 0.5112 0.1723
C22 C 0.7432(4) 0.5714(4) 0.1124(2)
H25 H 0.6958 0.5271 0.0667
H26 H 0.7955 0.5354 0.1361
H27 H 0.8050 0.6427 0.1015
C23 C 0.5528(5) 0.6368(5) 0.1256(3)
H28 H 0.6117 0.7060 0.1101
H29 H 0.4903 0.6496 0.1601
H30 H 0.5005 0.5878 0.0825
N3 N 1.01972(17) 0.37325(16) 0.27627(11)
H31 H 1.1085 0.4014 0.2846
N4 N 0.81594(17) 0.23195(15) 0.29735(10)
H32 H 0.7769 0.2785 0.2929
O2 O 0.84155(17) 0.42605(16) 0.24979(14)
S2 S 1.04806(6) 0.19527(6) 0.31647(5)
C24 C 0.9536(2) 0.26804(19) 0.29718(13)
C25 C 0.9625(2) 0.43796(19) 0.24427(14)
C26 C 1.0572(2) 0.51958(19) 0.19856(14)
C27 C 1.0730(3) 0.4815(2) 0.12570(16)
C28 C 1.1539(3) 0.5579(2) 0.08133(16)
H33 H 1.1628 0.5336 0.0320
C29 C 1.2213(3) 0.6679(2) 0.10736(17)
C30 C 1.2061(3) 0.7019(2) 0.18043(17)
H34 H 1.2529 0.7760 0.1992
C31 C 1.1239(2) 0.6303(2) 0.22714(15)
C32 C 1.1097(3) 0.6712(3) 0.30610(18)
H35 H 1.1738 0.7464 0.3182
H36 H 1.1296 0.6258 0.3397
H37 H 1.0167 0.6675 0.3110
C33 C 1.0031(4) 0.3605(3) 0.0951(2)
H38 H 1.0106 0.3519 0.0419
H39 H 0.9069 0.3342 0.1052
H40 H 1.0474 0.3185 0.1186
C34 C 1.3090(3) 0.7488(3) 0.0580(2)
H41 H 1.4048 0.7608 0.0682
H42 H 1.2968 0.8177 0.0679
H43 H 1.2811 0.7195 0.0063
C35 C 0.7288(2) 0.11851(19) 0.30462(13)
C36 C 0.6719(2) 0.0468(2) 0.23933(14)
C37 C 0.5846(3) -0.0612(2) 0.24725(18)
H44 H 0.5444 -0.1112 0.2046
C38 C 0.5569(3) -0.0952(2) 0.3163(2)
H45 H 0.4992 -0.1680 0.3202
C39 C 0.6136(3) -0.0231(3) 0.37967(18)
H46 H 0.5932 -0.0475 0.4263
C40 C 0.7015(2) 0.0867(2) 0.37595(14)
C41 C 0.7628(3) 0.1678(3) 0.44628(16)
H47 H 0.8468 0.2266 0.4332
C42 C 0.8047(6) 0.1163(5) 0.5092(2)
H48 H 0.7232 0.0645 0.5275
H49 H 0.8551 0.1731 0.5491
H50 H 0.8625 0.0783 0.4910
C43 C 0.6618(5) 0.2217(4) 0.4713(3)
H51 H 0.5759 0.1655 0.4814
H52 H 0.6451 0.2609 0.4323
H53 H 0.7010 0.2724 0.5159
C44 C 0.7072(3) 0.0816(2) 0.16236(15)
H54 H 0.7503 0.1627 0.1689
C45 C 0.5824(4) 0.0499(4) 0.1073(2)
H55 H 0.6093 0.0873 0.0637
H56 H 0.5126 0.0708 0.1303
H57 H 0.5460 -0.0287 0.0928
C46 C 0.8137(5) 0.0406(5) 0.1325(2)
H58 H 0.7743 -0.0387 0.1233
H59 H 0.8921 0.0637 0.1686
H60 H 0.8431 0.0706 0.0866
loop_
_geom_bond_atom_site_label_1
_geom_bond_atom_site_label_2
_geom_bond_site_symmetry_1
_geom_bond_site_symmetry_2
N1 H1 1_555 1_555
N2 H2 1_555 1_555
O1 C2 1_555 1_555
S1 C1 1_555 1_555
C1 N1 1_555 1_555
C2 N1 1_555 1_555
C3 C2 1_555 1_555
C4 C3 1_555 1_555
C5 C4 1_555 1_555
H3 C5 1_555 1_555
C6 C5 1_555 1_555
C7 C6 1_555 1_555
H4 C7 1_555 1_555
C8 C3 1_555 1_555
C9 C8 1_555 1_555
H5 C9 1_555 1_555
H6 C9 1_555 1_555
H7 C9 1_555 1_555
C10 C4 1_555 1_555
H8 C10 1_555 1_555
H9 C10 1_555 1_555
H10 C10 1_555 1_555
C11 C6 1_555 1_555
H11 C11 1_555 1_555
H12 C11 1_555 1_555
H13 C11 1_555 1_555
C12 N2 1_555 1_555
C13 C12 1_555 1_555
C14 C13 1_555 1_555
H14 C14 1_555 1_555
C15 C14 1_555 1_555
H15 C15 1_555 1_555
C16 C15 1_555 1_555
H16 C16 1_555 1_555
C17 C12 1_555 1_555
C18 C17 1_555 1_555
H17 C18 1_555 1_555
C19 C18 1_555 1_555
H18 C19 1_555 1_555
H19 C19 1_555 1_555
H20 C19 1_555 1_555
C20 C18 1_555 1_555
H21 C20 1_555 1_555
H22 C20 1_555 1_555
H23 C20 1_555 1_555
C21 C13 1_555 1_555
H24 C21 1_555 1_555
C22 C21 1_555 1_555
H25 C22 1_555 1_555
H26 C22 1_555 1_555
H27 C22 1_555 1_555
C23 C21 1_555 1_555
H28 C23 1_555 1_555
H29 C23 1_555 1_555
H30 C23 1_555 1_555
N3 H31 1_555 1_555
N4 H32 1_555 1_555
O2 C25 1_555 1_555
S2 C24 1_555 1_555
C24 N3 1_555 1_555
C25 N3 1_555 1_555
C26 C25 1_555 1_555
C27 C26 1_555 1_555
C28 C27 1_555 1_555
H33 C28 1_555 1_555
C29 C28 1_555 1_555
C30 C29 1_555 1_555
H34 C30 1_555 1_555
C31 C26 1_555 1_555
C32 C31 1_555 1_555
H35 C32 1_555 1_555
H36 C32 1_555 1_555
H37 C32 1_555 1_555
C33 C27 1_555 1_555
H38 C33 1_555 1_555
H39 C33 1_555 1_555
H40 C33 1_555 1_555
C34 C29 1_555 1_555
H41 C34 1_555 1_555
H42 C34 1_555 1_555
H43 C34 1_555 1_555
C35 N4 1_555 1_555
C36 C35 1_555 1_555
C37 C36 1_555 1_555
H44 C37 1_555 1_555
C38 C37 1_555 1_555
H45 C38 1_555 1_555
C39 C38 1_555 1_555
H46 C39 1_555 1_555
C40 C35 1_555 1_555
C41 C40 1_555 1_555
H47 C41 1_555 1_555
C42 C41 1_555 1_555
H48 C42 1_555 1_555
H49 C42 1_555 1_555
H50 C42 1_555 1_555
C43 C41 1_555 1_555
H51 C43 1_555 1_555
H52 C43 1_555 1_555
H53 C43 1_555 1_555
C44 C36 1_555 1_555
H54 C44 1_555 1_555
C45 C44 1_555 1_555
H55 C45 1_555 1_555
H56 C45 1_555 1_555
H57 C45 1_555 1_555
C46 C44 1_555 1_555
H58 C46 1_555 1_555
H59 C46 1_555 1_555
H60 C46 1_555 1_555
N2 C1 1_555 1_555
C7 C8 1_555 1_555
C16 C17 1_555 1_555
N4 C24 1_555 1_555
C30 C31 1_555 1_555
C39 C40 1_555 1_555

#END
