
#######################################################################
#
#                 Cambridge Crystallographic Data Centre
#                                CCDC 
#
#######################################################################
#
# If this CIF has been generated from an entry in the Cambridge 
# Structural Database, then it will include bibliographic, chemical, 
# crystal, experimental, refinement or atomic coordinate data resulting 
# from the CCDC's data processing and validation procedures.
#
#######################################################################

data_QAVJOP
_chemical_formula_moiety         'C24 H32 N2 O1 S1'
_chemical_name_systematic        
4-t-butyl-N-((2,6-diisopropylphenyl)carbamothioyl)benzamide
_symmetry_cell_setting           monoclinic
_symmetry_space_group_name_H-M   'P 21/n'
_symmetry_Int_Tables_number      14
_space_group_name_Hall           '-P 2yn'
loop_
_symmetry_equiv_pos_site_id
_symmetry_equiv_pos_as_xyz
1 x,y,z
2 1/2-x,1/2+y,1/2-z
3 -x,-y,-z
4 1/2+x,1/2-y,1/2+z
_cell_length_a                   11.116(3)
_cell_length_b                   16.221(3)
_cell_length_c                   14.117(3)
_cell_angle_alpha                90
_cell_angle_beta                 108.089(8)
_cell_angle_gamma                90
_cell_volume                     2419.66
_exptl_crystal_colour            colorless
_exptl_crystal_description       rod
_cell_formula_units_Z            4
loop_
_atom_site_label
_atom_site_type_symbol
_atom_site_fract_x
_atom_site_fract_y
_atom_site_fract_z
S1 S 0.04257(8) 1.09126(6) 0.90676(8)
O1 O 0.4054(2) 0.94475(18) 1.0280(3)
N1 N 0.1949(2) 0.96909(16) 0.9929(2)
H1 H 0.1277 0.9504 1.0032
N2 N 0.2872(3) 1.07475(16) 0.9288(2)
H2 H 0.3580 1.0500 0.9555
C1 C 0.1824(3) 1.0443(2) 0.9436(3)
C2 C 0.3014(4) 0.9208(2) 1.0272(3)
C3 C 0.2803(3) 0.8372(2) 1.0631(3)
C4 C 0.1701(3) 0.7927(2) 1.0248(3)
H3 H 0.1021 0.8157 0.9757
C5 C 0.1605(4) 0.7140(2) 1.0595(3)
H4 H 0.0853 0.6853 1.0322
C6 C 0.2556(4) 0.6764(2) 1.1316(3)
C7 C 0.3637(4) 0.7220(3) 1.1677(4)
H5 H 0.4312 0.6988 1.2170
C8 C 0.3780(4) 0.8005(3) 1.1351(4)
H6 H 0.4540 0.8285 1.1620
C9 C 0.2465(5) 0.5903(3) 1.1709(4)
C10 C 0.1378(6) 0.5411(3) 1.1022(5)
H7 H 0.1391 0.4861 1.1276
H8 H 0.1467 0.5390 1.0368
H9 H 0.0590 0.5671 1.0989
C11 C 0.2368(8) 0.5943(4) 1.2710(5)
H10 H 0.3116 0.6196 1.3146
H11 H 0.2286 0.5395 1.2940
H12 H 0.1640 0.6263 1.2704
C12 C 0.3612(6) 0.5385(3) 1.1705(5)
H13 H 0.4347 0.5578 1.2217
H14 H 0.3749 0.5433 1.1069
H15 H 0.3460 0.4818 1.1827
C13 C 0.2856(3) 1.1478(2) 0.8698(3)
C14 C 0.3034(3) 1.2239(2) 0.9170(3)
C15 C 0.3052(4) 1.2927(3) 0.8570(5)
H16 H 0.3159 1.3451 0.8849
C16 C 0.2915(4) 1.2832(3) 0.7578(5)
H17 H 0.2946 1.3295 0.7197
C17 C 0.2735(4) 1.2078(3) 0.7138(4)
H18 H 0.2636 1.2033 0.6461
C18 C 0.2696(3) 1.1376(3) 0.7686(4)
C19 C 0.2502(4) 1.0535(3) 0.7191(4)
H19 H 0.2214 1.0167 0.7629
C20 C 0.1484(5) 1.0522(4) 0.6191(5)
H20 H 0.0715 1.0745 0.6259
H21 H 0.1341 0.9964 0.5954
H22 H 0.1749 1.0848 0.5724
C21 C 0.3746(5) 1.0184(4) 0.7137(5)
H23 H 0.4085 1.0539 0.6738
H24 H 0.3604 0.9645 0.6841
H25 H 0.4336 1.0145 0.7797
C22 C 0.3206(4) 1.2334(3) 1.0253(4)
H26 H 0.2846 1.1837 1.0454
C23 C 0.2512(7) 1.3055(4) 1.0517(5)
H27 H 0.2878 1.3561 1.0384
H28 H 0.2582 1.3029 1.1211
H29 H 0.1636 1.3034 1.0125
C24 C 0.4606(5) 1.2335(4) 1.0852(5)
H30 H 0.4934 1.1784 1.0885
H31 H 0.4710 1.2532 1.1513
H32 H 0.5058 1.2688 1.0534
loop_
_geom_bond_atom_site_label_1
_geom_bond_atom_site_label_2
_geom_bond_site_symmetry_1
_geom_bond_site_symmetry_2
S1 C1 1_555 1_555
O1 C2 1_555 1_555
N1 H1 1_555 1_555
N2 H2 1_555 1_555
C1 N1 1_555 1_555
C2 N1 1_555 1_555
C3 C2 1_555 1_555
C4 C3 1_555 1_555
H3 C4 1_555 1_555
C5 C4 1_555 1_555
H4 C5 1_555 1_555
C6 C5 1_555 1_555
C7 C6 1_555 1_555
H5 C7 1_555 1_555
C8 C3 1_555 1_555
H6 C8 1_555 1_555
C9 C6 1_555 1_555
C10 C9 1_555 1_555
H7 C10 1_555 1_555
H8 C10 1_555 1_555
H9 C10 1_555 1_555
C11 C9 1_555 1_555
H10 C11 1_555 1_555
H11 C11 1_555 1_555
H12 C11 1_555 1_555
C12 C9 1_555 1_555
H13 C12 1_555 1_555
H14 C12 1_555 1_555
H15 C12 1_555 1_555
C13 N2 1_555 1_555
C14 C13 1_555 1_555
C15 C14 1_555 1_555
H16 C15 1_555 1_555
C16 C15 1_555 1_555
H17 C16 1_555 1_555
C17 C16 1_555 1_555
H18 C17 1_555 1_555
C18 C13 1_555 1_555
C19 C18 1_555 1_555
H19 C19 1_555 1_555
C20 C19 1_555 1_555
H20 C20 1_555 1_555
H21 C20 1_555 1_555
H22 C20 1_555 1_555
C21 C19 1_555 1_555
H23 C21 1_555 1_555
H24 C21 1_555 1_555
H25 C21 1_555 1_555
C22 C14 1_555 1_555
H26 C22 1_555 1_555
C23 C22 1_555 1_555
H27 C23 1_555 1_555
H28 C23 1_555 1_555
H29 C23 1_555 1_555
C24 C22 1_555 1_555
H30 C24 1_555 1_555
H31 C24 1_555 1_555
H32 C24 1_555 1_555
N2 C1 1_555 1_555
C7 C8 1_555 1_555
C17 C18 1_555 1_555

#END
