
#######################################################################
#
#                 Cambridge Crystallographic Data Centre
#                                CCDC 
#
#######################################################################
#
# If this CIF has been generated from an entry in the Cambridge 
# Structural Database, then it will include bibliographic, chemical, 
# crystal, experimental, refinement or atomic coordinate data resulting 
# from the CCDC's data processing and validation procedures.
#
#######################################################################

data_QAVNAD
_chemical_formula_moiety         'C13 H16 N4 O1 S1'
_chemical_name_systematic        5-(Diethylamino)-2-(2-thiazolylazo)phenol
_symmetry_cell_setting           orthorhombic
_symmetry_space_group_name_H-M   'P 21 21 21'
_symmetry_Int_Tables_number      19
_space_group_name_Hall           'P 2ac 2ab'
loop_
_symmetry_equiv_pos_site_id
_symmetry_equiv_pos_as_xyz
1 x,y,z
2 1/2-x,-y,1/2+z
3 -x,1/2+y,1/2-z
4 1/2+x,1/2-y,-z
_cell_length_a                   7.6375(4)
_cell_length_b                   8.8561(6)
_cell_length_c                   19.9822(9)
_cell_angle_alpha                90
_cell_angle_beta                 90
_cell_angle_gamma                90
_cell_volume                     1351.57
_exptl_crystal_colour            'deep red'
_exptl_crystal_description       block
_chemical_melting_point          140-141deg.C
_cell_formula_units_Z            4
_exptl_crystal_recrystallization_method methanol/ethanol
loop_
_atom_site_label
_atom_site_type_symbol
_atom_site_fract_x
_atom_site_fract_y
_atom_site_fract_z
S1 S 0.64364(17) 0.54004(15) 0.10915(6)
O1 O 0.4126(3) 1.0954(3) 0.08758(12)
H1 H 0.3662 1.1784 0.0919
N1 N 0.4621(5) 0.6735(4) 0.19981(16)
N2 N 0.5099(4) 0.8286(4) 0.10588(16)
N3 N 0.5803(4) 0.8218(4) 0.04656(16)
N4 N 0.5193(4) 1.3001(4) -0.13006(14)
C1 C 0.5977(6) 0.4425(5) 0.18080(19)
H2 H 0.6331 0.3441 0.1899
C2 C 0.5022(6) 0.5301(6) 0.22196(19)
H3 H 0.4649 0.4955 0.2635
C3 C 0.5301(5) 0.6938(5) 0.1407(2)
C4 C 0.5643(5) 0.9460(5) 0.00786(18)
C5 C 0.4773(5) 1.0822(4) 0.02488(18)
C6 C 0.4635(5) 1.1999(5) -0.01895(17)
H4 H 0.4054 1.2876 -0.0061
C7 C 0.5373(6) 1.1891(5) -0.08400(18)
C8 C 0.6326(5) 1.0522(5) -0.09974(19)
H5 H 0.6870 1.0428 -0.1412
C9 C 0.6436(5) 0.9387(4) -0.05546(18)
H6 H 0.7058 0.8523 -0.0671
C10 C 0.4057(5) 1.4320(5) -0.1180(2)
H7 H 0.3081 1.4017 -0.0900
H8 H 0.3585 1.4666 -0.1604
C11 C 0.5009(5) 1.5600(5) -0.08486(19)
H9 H 0.4217 1.6428 -0.0781
H10 H 0.5961 1.5921 -0.1128
H11 H 0.5458 1.5271 -0.0424
C12 C 0.6225(6) 1.3065(5) -0.19146(16)
H12 H 0.7320 1.2534 -0.1844
H13 H 0.6502 1.4111 -0.2012
C13 C 0.5293(6) 1.2379(5) -0.2515(2)
H14 H 0.6030 1.2458 -0.2903
H15 H 0.4218 1.2911 -0.2594
H16 H 0.5044 1.1335 -0.2428
loop_
_geom_bond_atom_site_label_1
_geom_bond_atom_site_label_2
_geom_bond_site_symmetry_1
_geom_bond_site_symmetry_2
S1 C1 1_555 1_555
O1 H1 1_555 1_555
N1 C2 1_555 1_555
N2 N3 1_555 1_555
N3 C4 1_555 1_555
N4 C7 1_555 1_555
C1 H2 1_555 1_555
C2 C1 1_555 1_555
H3 C2 1_555 1_555
C3 S1 1_555 1_555
C4 C5 1_555 1_555
C5 O1 1_555 1_555
C6 C5 1_555 1_555
H4 C6 1_555 1_555
C7 C6 1_555 1_555
C8 C7 1_555 1_555
H5 C8 1_555 1_555
C9 C4 1_555 1_555
H6 C9 1_555 1_555
C10 N4 1_555 1_555
H7 C10 1_555 1_555
H8 C10 1_555 1_555
C11 C10 1_555 1_555
H9 C11 1_555 1_555
H10 C11 1_555 1_555
H11 C11 1_555 1_555
C12 N4 1_555 1_555
H12 C12 1_555 1_555
H13 C12 1_555 1_555
C13 C12 1_555 1_555
H14 C13 1_555 1_555
H15 C13 1_555 1_555
H16 C13 1_555 1_555
N1 C3 1_555 1_555
N2 C3 1_555 1_555
C8 C9 1_555 1_555

#END
