
#######################################################################
#
#                 Cambridge Crystallographic Data Centre
#                                CCDC 
#
#######################################################################
#
# If this CIF has been generated from an entry in the Cambridge 
# Structural Database, then it will include bibliographic, chemical, 
# crystal, experimental, refinement or atomic coordinate data resulting 
# from the CCDC's data processing and validation procedures.
#
#######################################################################

data_QAVPEJ
_chemical_formula_moiety         'C22 H18 N4'
_chemical_name_systematic        
4,6-bis(6-Methylpyridin-2-yl)-2-phenylpyrimidine
_symmetry_cell_setting           orthorhombic
_symmetry_space_group_name_H-M   'P 21 21 21'
_symmetry_Int_Tables_number      19
_space_group_name_Hall           'P 2ac 2ab'
loop_
_symmetry_equiv_pos_site_id
_symmetry_equiv_pos_as_xyz
1 x,y,z
2 1/2-x,-y,1/2+z
3 -x,1/2+y,1/2-z
4 1/2+x,1/2-y,-z
_cell_length_a                   4.2565(8)
_cell_length_b                   16.8939(16)
_cell_length_c                   24.1686(17)
_cell_angle_alpha                90
_cell_angle_beta                 90
_cell_angle_gamma                90
_cell_volume                     1737.94
_exptl_crystal_colour            colorless
_exptl_crystal_description       needle
_cell_formula_units_Z            4
loop_
_atom_site_label
_atom_site_type_symbol
_atom_site_fract_x
_atom_site_fract_y
_atom_site_fract_z
N1 N 0.6654(7) 0.61493(17) 0.25205(11)
C1 C 0.4805(9) 0.6754(2) 0.26598(15)
C2 C 0.3596(9) 0.6781(2) 0.32404(15)
C3 C 0.1761(10) 0.7390(2) 0.34222(15)
H1 H 0.1156 0.7785 0.3177
C4 C 0.0786(11) 0.7425(2) 0.39690(17)
H2 H -0.0434 0.7848 0.4090
C5 C 0.1624(11) 0.6837(3) 0.43300(17)
H3 H 0.0983 0.6861 0.4697
C6 C 0.3396(11) 0.6217(3) 0.41508(16)
H4 H 0.3946 0.5815 0.4395
C7 C 0.4378(10) 0.6184(2) 0.36057(15)
H5 H 0.5574 0.5758 0.3484
N2 N 0.3872(7) 0.73391(16) 0.23218(12)
C8 C 0.4869(9) 0.7300(2) 0.17966(15)
N3 N 0.4781(7) 0.79040(17) 0.08905(12)
C9 C 0.3837(9) 0.7949(2) 0.14199(15)
C10 C 0.2017(9) 0.8560(2) 0.16190(15)
H6 H 0.1383 0.8571 0.1987
C11 C 0.1157(10) 0.9154(2) 0.12592(17)
H7 H -0.0068 0.9575 0.1381
C12 C 0.2123(9) 0.9116(2) 0.07244(16)
H8 H 0.1587 0.9519 0.0479
C13 C 0.3891(10) 0.8485(2) 0.05441(15)
C14 C 0.4971(10) 0.8410(2) -0.00487(13)
H9 H 0.7210 0.8344 -0.0058
H10 H 0.4407 0.8880 -0.0249
H11 H 0.3981 0.7959 -0.0216
C15 C 0.6770(9) 0.6693(2) 0.16198(15)
H12 H 0.7459 0.6669 0.1255
C16 C 0.7627(8) 0.6123(2) 0.19951(15)
N4 N 1.0544(8) 0.53611(18) 0.13317(12)
C17 C 0.9702(9) 0.5446(2) 0.18612(15)
C18 C 1.0723(9) 0.4938(2) 0.22714(16)
H13 H 1.0118 0.5016 0.2637
C19 C 1.2658(9) 0.4313(2) 0.21305(17)
H14 H 1.3391 0.3963 0.2398
C20 C 1.3455(10) 0.4225(2) 0.15907(19)
H15 H 1.4711 0.3801 0.1485
C21 C 1.2429(10) 0.4754(2) 0.11989(17)
C22 C 1.3416(11) 0.4680(2) 0.06046(15)
H16 H 1.1587 0.4622 0.0376
H17 H 1.4740 0.4224 0.0562
H18 H 1.4551 0.5146 0.0496
loop_
_geom_bond_atom_site_label_1
_geom_bond_atom_site_label_2
_geom_bond_site_symmetry_1
_geom_bond_site_symmetry_2
N1 C1 1_555 1_555
C1 C2 1_555 1_555
C2 C3 1_555 1_555
C3 H1 1_555 1_555
C4 C3 1_555 1_555
H2 C4 1_555 1_555
C5 C4 1_555 1_555
H3 C5 1_555 1_555
C6 C5 1_555 1_555
H4 C6 1_555 1_555
C7 C2 1_555 1_555
H5 C7 1_555 1_555
N2 C1 1_555 1_555
C8 N2 1_555 1_555
N3 C9 1_555 1_555
C9 C8 1_555 1_555
C10 C9 1_555 1_555
H6 C10 1_555 1_555
C11 C10 1_555 1_555
H7 C11 1_555 1_555
C12 C11 1_555 1_555
H8 C12 1_555 1_555
C13 N3 1_555 1_555
C14 C13 1_555 1_555
H9 C14 1_555 1_555
H10 C14 1_555 1_555
H11 C14 1_555 1_555
C15 C8 1_555 1_555
H12 C15 1_555 1_555
C16 N1 1_555 1_555
N4 C17 1_555 1_555
C17 C16 1_555 1_555
C18 C17 1_555 1_555
H13 C18 1_555 1_555
C19 C18 1_555 1_555
H14 C19 1_555 1_555
C20 C19 1_555 1_555
H15 C20 1_555 1_555
C21 N4 1_555 1_555
C22 C21 1_555 1_555
H16 C22 1_555 1_555
H17 C22 1_555 1_555
H18 C22 1_555 1_555
C6 C7 1_555 1_555
C12 C13 1_555 1_555
C15 C16 1_555 1_555
C20 C21 1_555 1_555

#END
