
#######################################################################
#
#                 Cambridge Crystallographic Data Centre
#                                CCDC 
#
#######################################################################
#
# If this CIF has been generated from an entry in the Cambridge 
# Structural Database, then it will include bibliographic, chemical, 
# crystal, experimental, refinement or atomic coordinate data resulting 
# from the CCDC's data processing and validation procedures.
#
#######################################################################

data_QAVQUA
_chemical_formula_moiety         'C66 H50 N2 O6,C1 H2 Cl2'
_chemical_name_systematic        
'25,27-bis((N-(1-Pyrenylmethyl)aminocarbonyl)methoxy)-26,28-dihydroxycalix(4)arene dichloromethane solvate'
_symmetry_cell_setting           orthorhombic
_symmetry_space_group_name_H-M   'P b c a'
_symmetry_Int_Tables_number      61
_space_group_name_Hall           '-P 2ac 2ab'
loop_
_symmetry_equiv_pos_site_id
_symmetry_equiv_pos_as_xyz
1 x,y,z
2 1/2-x,-y,1/2+z
3 -x,1/2+y,1/2-z
4 1/2+x,1/2-y,-z
5 -x,-y,-z
6 1/2+x,y,1/2-z
7 x,1/2-y,1/2+z
8 1/2-x,1/2+y,z
_cell_length_a                   23.788(4)
_cell_length_b                   17.453(3)
_cell_length_c                   25.592(5)
_cell_angle_alpha                90
_cell_angle_beta                 90
_cell_angle_gamma                90
_cell_volume                     10625.1
_exptl_crystal_colour            brown
_exptl_crystal_description       block
_chemical_melting_point          234-240deg.C
_cell_formula_units_Z            8
_exptl_crystal_recrystallization_method 'diethyl ether'
_exptl_crystal_preparation       fluorescent
loop_
_atom_site_label
_atom_site_type_symbol
_atom_site_fract_x
_atom_site_fract_y
_atom_site_fract_z
O1 O 0.1279(4) 0.1570(5) 0.0676(3)
H1 H 0.1178 0.1985 0.0560
O2 O 0.1293(3) 0.1180(4) 0.1761(3)
O3 O 0.0208(3) 0.1518(4) 0.1378(3)
H2 H 0.0478 0.1430 0.1569
O4 O 0.0292(3) 0.2342(4) 0.0429(3)
O5 O 0.2210(4) 0.2465(7) 0.2417(4)
O6 O 0.0020(6) 0.4291(6) 0.0761(4)
N1 N 0.1811(5) 0.2464(6) 0.1617(5)
H3 H 0.1604 0.2207 0.1404
N2 N 0.0184(5) 0.3239(6) 0.1246(4)
H4 H 0.0236 0.2752 0.1249
C1 C 0.1554(5) 0.1171(6) 0.0294(5)
C2 C 0.1432(4) 0.1273(6) -0.0231(4)
C3 C 0.1749(5) 0.0863(8) -0.0610(5)
H5 H 0.1685 0.0942 -0.0965
C4 C 0.2141(6) 0.0362(8) -0.0452(6)
H6 H 0.2341 0.0085 -0.0701
C5 C 0.2253(6) 0.0249(8) 0.0066(5)
H7 H 0.2529 -0.0099 0.0164
C6 C 0.1955(5) 0.0656(7) 0.0452(5)
C7 C 0.2070(5) 0.0532(8) 0.1022(5)
H8 H 0.2106 0.1028 0.1190
H9 H 0.2428 0.0270 0.1058
C8 C 0.1623(5) 0.0072(7) 0.1309(4)
C9 C 0.1562(5) -0.0705(7) 0.1206(5)
H10 H 0.1811 -0.0943 0.0977
C10 C 0.1141(5) -0.1133(8) 0.1437(5)
H11 H 0.1119 -0.1655 0.1367
C11 C 0.0755(5) -0.0805(8) 0.1766(5)
H12 H 0.0470 -0.1096 0.1916
C12 C 0.0806(5) 0.0005(7) 0.1873(5)
C13 C 0.1255(5) 0.0397(7) 0.1647(4)
C14 C 0.0359(5) 0.0406(7) 0.2204(5)
H13 H 0.0290 0.0108 0.2517
H14 H 0.0498 0.0905 0.2310
C15 C -0.0180(5) 0.0506(7) 0.1912(5)
C16 C -0.0660(6) 0.0057(9) 0.2018(6)
H15 H -0.0644 -0.0310 0.2281
C17 C -0.1153(6) 0.0149(8) 0.1741(5)
H16 H -0.1462 -0.0155 0.1821
C18 C -0.1191(6) 0.0675(8) 0.1356(5)
H17 H -0.1531 0.0750 0.1185
C19 C -0.0713(5) 0.1115(7) 0.1211(5)
C20 C -0.0226(5) 0.1047(7) 0.1510(5)
C21 C -0.0761(5) 0.1674(7) 0.0770(5)
H18 H -0.0620 0.2167 0.0887
H19 H -0.1155 0.1738 0.0684
C22 C -0.0447(5) 0.1443(7) 0.0282(5)
C23 C -0.0653(6) 0.0824(8) -0.0016(5)
H20 H -0.0996 0.0601 0.0071
C24 C -0.0349(6) 0.0547(8) -0.0439(5)
H21 H -0.0488 0.0139 -0.0634
C25 C 0.0152(5) 0.0871(8) -0.0569(5)
H22 H 0.0346 0.0678 -0.0856
C26 C 0.0386(5) 0.1477(7) -0.0293(5)
C27 C 0.0070(5) 0.1752(7) 0.0127(4)
C28 C 0.0953(5) 0.1799(7) -0.0421(5)
H23 H 0.0991 0.2299 -0.0260
H24 H 0.0983 0.1865 -0.0797
C29 C 0.1675(5) 0.1387(7) 0.2178(5)
H25 H 0.1973 0.1009 0.2201
H26 H 0.1475 0.1391 0.2508
C30 C 0.1928(6) 0.2173(9) 0.2076(7)
C31 C 0.2023(8) 0.3211(11) 0.1458(7)
H27 H 0.2414 0.3254 0.1561
H28 H 0.1814 0.3606 0.1641
C32 C 0.1975(7) 0.3350(10) 0.0863(7)
C33 C 0.1597(8) 0.3820(11) 0.0576(8)
H29 H 0.1327 0.4114 0.0747
C34 C 0.1637(8) 0.3832(12) 0.0045(8)
H30 H 0.1401 0.4171 -0.0130
C35 C 0.1985(9) 0.3400(12) -0.0256(8)
C36 C 0.2011(9) 0.3471(14) -0.0831(8)
H31 H 0.1811 0.3832 -0.1022
C37 C 0.2349(10) 0.2966(13) -0.1038(9)
H32 H 0.2309 0.2948 -0.1400
C38 C 0.2710(12) 0.2502(18) -0.0884(11)
C39 C 0.3072(11) 0.1939(15) -0.1102(10)
H33 H 0.3055 0.1849 -0.1460
C40 C 0.3447(12) 0.1520(18) -0.0807(13)
H34 H 0.3685 0.1201 -0.0996
C41 C 0.3519(13) 0.1505(19) -0.0275(13)
H35 H 0.3783 0.1225 -0.0087
C42 C 0.3057(10) 0.2067(13) -0.0053(9)
C43 C 0.3152(8) 0.2003(11) 0.0487(8)
H36 H 0.3439 0.1707 0.0629
C44 C 0.2790(7) 0.2411(10) 0.0782(7)
H37 H 0.2812 0.2361 0.1143
C45 C 0.2363(6) 0.2927(8) 0.0568(6)
C46 C 0.2358(7) 0.2941(10) -0.0014(7)
C47 C 0.2721(7) 0.2484(10) -0.0282(7)
C48 C 0.0094(6) 0.3098(7) 0.0306(5)
H38 H -0.0285 0.3071 0.0165
H39 H 0.0335 0.3330 0.0045
C49 C 0.0096(6) 0.3581(9) 0.0801(6)
C50 C 0.0196(6) 0.3664(8) 0.1746(5)
H40 H 0.0507 0.4024 0.1739
H41 H -0.0148 0.3957 0.1780
C51 C 0.0257(6) 0.3170(8) 0.2201(5)
C52 C -0.0200(5) 0.2713(7) 0.2388(5)
C53 C -0.0751(6) 0.2690(8) 0.2154(5)
H42 H -0.0829 0.2989 0.1862
C54 C -0.1145(6) 0.2246(8) 0.2352(5)
H43 H -0.1499 0.2258 0.2198
C55 C -0.1063(6) 0.1743(8) 0.2793(5)
C56 C -0.1493(7) 0.1231(9) 0.2964(6)
H44 H -0.1841 0.1208 0.2801
C57 C -0.1364(8) 0.0778(11) 0.3379(7)
H45 H -0.1641 0.0448 0.3503
C58 C -0.0876(8) 0.0773(11) 0.3618(7)
H46 H -0.0817 0.0443 0.3898
C59 C -0.0444(6) 0.1258(8) 0.3455(5)
C60 C 0.0097(7) 0.1263(10) 0.3717(6)
H47 H 0.0166 0.0949 0.4004
C61 C 0.0483(7) 0.1723(9) 0.3538(6)
H48 H 0.0824 0.1722 0.3714
C62 C 0.0439(6) 0.2243(8) 0.3088(5)
C63 C 0.0847(6) 0.2686(8) 0.2911(6)
H49 H 0.1196 0.2690 0.3075
C64 C 0.0749(6) 0.3150(8) 0.2473(6)
H50 H 0.1039 0.3466 0.2361
C65 C -0.0537(6) 0.1757(8) 0.3020(5)
C66 C -0.0102(5) 0.2227(7) 0.2826(5)
Cl1 Cl 0.2356(3) 0.4670(4) 0.2448(3)
Cl2 Cl 0.3385(5) 0.4692(5) 0.3079(3)
C67 C 0.2968(8) 0.4197(12) 0.2607(8)
H51 H 0.3188 0.4124 0.2292
H52 H 0.2873 0.3694 0.2743
loop_
_geom_bond_atom_site_label_1
_geom_bond_atom_site_label_2
_geom_bond_site_symmetry_1
_geom_bond_site_symmetry_2
O1 H1 1_555 1_555
O2 C13 1_555 1_555
O3 H2 1_555 1_555
O4 C27 1_555 1_555
O5 C30 1_555 1_555
O6 C49 1_555 1_555
N1 H3 1_555 1_555
N2 H4 1_555 1_555
C1 O1 1_555 1_555
C2 C1 1_555 1_555
C3 C2 1_555 1_555
H5 C3 1_555 1_555
C4 C3 1_555 1_555
H6 C4 1_555 1_555
C5 C4 1_555 1_555
H7 C5 1_555 1_555
C6 C1 1_555 1_555
C7 C6 1_555 1_555
H8 C7 1_555 1_555
H9 C7 1_555 1_555
C8 C7 1_555 1_555
C9 C8 1_555 1_555
H10 C9 1_555 1_555
C10 C9 1_555 1_555
H11 C10 1_555 1_555
C11 C10 1_555 1_555
H12 C11 1_555 1_555
C12 C11 1_555 1_555
C13 C8 1_555 1_555
C14 C12 1_555 1_555
H13 C14 1_555 1_555
H14 C14 1_555 1_555
C15 C14 1_555 1_555
C16 C15 1_555 1_555
H15 C16 1_555 1_555
C17 C16 1_555 1_555
H16 C17 1_555 1_555
C18 C17 1_555 1_555
H17 C18 1_555 1_555
C19 C18 1_555 1_555
C20 O3 1_555 1_555
C21 C19 1_555 1_555
H18 C21 1_555 1_555
H19 C21 1_555 1_555
C22 C21 1_555 1_555
C23 C22 1_555 1_555
H20 C23 1_555 1_555
C24 C23 1_555 1_555
H21 C24 1_555 1_555
C25 C24 1_555 1_555
H22 C25 1_555 1_555
C26 C25 1_555 1_555
C27 C22 1_555 1_555
C28 C2 1_555 1_555
H23 C28 1_555 1_555
H24 C28 1_555 1_555
C29 O2 1_555 1_555
H25 C29 1_555 1_555
H26 C29 1_555 1_555
C30 N1 1_555 1_555
C31 N1 1_555 1_555
H27 C31 1_555 1_555
H28 C31 1_555 1_555
C32 C31 1_555 1_555
C33 C32 1_555 1_555
H29 C33 1_555 1_555
C34 C33 1_555 1_555
H30 C34 1_555 1_555
C35 C34 1_555 1_555
C36 C35 1_555 1_555
H31 C36 1_555 1_555
C37 C36 1_555 1_555
H32 C37 1_555 1_555
C38 C37 1_555 1_555
C39 C38 1_555 1_555
H33 C39 1_555 1_555
C40 C39 1_555 1_555
H34 C40 1_555 1_555
C41 C40 1_555 1_555
H35 C41 1_555 1_555
C42 C41 1_555 1_555
C43 C42 1_555 1_555
H36 C43 1_555 1_555
C44 C43 1_555 1_555
H37 C44 1_555 1_555
C45 C32 1_555 1_555
C46 C35 1_555 1_555
C47 C38 1_555 1_555
C48 O4 1_555 1_555
H38 C48 1_555 1_555
H39 C48 1_555 1_555
C49 N2 1_555 1_555
C50 N2 1_555 1_555
H40 C50 1_555 1_555
H41 C50 1_555 1_555
C51 C50 1_555 1_555
C52 C51 1_555 1_555
C53 C52 1_555 1_555
H42 C53 1_555 1_555
C54 C53 1_555 1_555
H43 C54 1_555 1_555
C55 C54 1_555 1_555
C56 C55 1_555 1_555
H44 C56 1_555 1_555
C57 C56 1_555 1_555
H45 C57 1_555 1_555
C58 C57 1_555 1_555
H46 C58 1_555 1_555
C59 C58 1_555 1_555
C60 C59 1_555 1_555
H47 C60 1_555 1_555
C61 C60 1_555 1_555
H48 C61 1_555 1_555
C62 C61 1_555 1_555
C63 C62 1_555 1_555
H49 C63 1_555 1_555
C64 C51 1_555 1_555
H50 C64 1_555 1_555
C65 C55 1_555 1_555
C66 C52 1_555 1_555
Cl1 C67 1_555 1_555
Cl2 C67 1_555 1_555
C67 H51 1_555 1_555
H52 C67 1_555 1_555
C5 C6 1_555 1_555
C12 C13 1_555 1_555
C15 C20 1_555 1_555
C19 C20 1_555 1_555
C26 C27 1_555 1_555
C26 C28 1_555 1_555
C29 C30 1_555 1_555
C42 C47 1_555 1_555
C44 C45 1_555 1_555
C45 C46 1_555 1_555
C46 C47 1_555 1_555
C48 C49 1_555 1_555
C59 C65 1_555 1_555
C62 C66 1_555 1_555
C63 C64 1_555 1_555
C65 C66 1_555 1_555

#END
