
#######################################################################
#
#                 Cambridge Crystallographic Data Centre
#                                CCDC 
#
#######################################################################
#
# If this CIF has been generated from an entry in the Cambridge 
# Structural Database, then it will include bibliographic, chemical, 
# crystal, experimental, refinement or atomic coordinate data resulting 
# from the CCDC's data processing and validation procedures.
#
#######################################################################

data_QAVSUC
_chemical_formula_moiety         
'C76 H96 O24,C60 H78 N3 O6 3+,3(F6 P1 1-),11.5(C1 H1 Cl3)'
_chemical_name_systematic        
"9,10-Dimethyl-2,3,6,7,14,15-tris(9,10-(1',2')benzenoanthracene) pseudorotaxane tris(hexafluorophosphate) chloroform solvate"
_symmetry_cell_setting           triclinic
_symmetry_space_group_name_H-M   'P -1'
_symmetry_Int_Tables_number      2
_space_group_name_Hall           '-P 1'
loop_
_symmetry_equiv_pos_site_id
_symmetry_equiv_pos_as_xyz
1 x,y,z
2 -x,-y,-z
_cell_length_a                   13.9833(15)
_cell_length_b                   27.405(3)
_cell_length_c                   27.411(3)
_cell_angle_alpha                104.281(2)
_cell_angle_beta                 94.969(2)
_cell_angle_gamma                101.353(2)
_cell_volume                     9878.92
_exptl_crystal_colour            colorless
_exptl_crystal_description       block
_cell_formula_units_Z            2
_exptl_crystal_recrystallization_method 'di-isopropyl ether/chloroform'
loop_
_atom_site_label
_atom_site_type_symbol
_atom_site_fract_x
_atom_site_fract_y
_atom_site_fract_z
O1 O 0.5753(5) 0.6439(3) 0.5476(3)
O2 O 0.4652(6) 0.6557(3) 0.4622(3)
O3 O 0.4436(6) 0.6207(3) 0.3546(3)
O4 O 0.5166(7) 0.5335(3) 0.3063(3)
O5 O 0.6475(8) 0.4907(4) 0.3349(4)
O6 O 0.8367(7) 0.5376(4) 0.4041(3)
O7 O 0.8865(6) 0.6127(3) 0.5002(3)
O8 O 0.7648(5) 0.6619(3) 0.5648(3)
O9 O 0.5808(5) 0.9737(2) 0.7192(2)
O10 O 0.4523(5) 0.9798(3) 0.6360(3)
O11 O 0.4273(6) 1.0555(4) 0.5855(3)
O12 O 0.5046(6) 1.1663(3) 0.6287(3)
O13 O 0.6529(7) 1.2120(3) 0.6980(3)
O14 O 0.8365(7) 1.1853(4) 0.7286(4)
O15 O 0.8981(6) 1.0928(4) 0.7396(4)
O16 O 0.7693(5) 0.9952(3) 0.7334(3)
O17 O 0.5686(6) 0.7275(3) 0.8649(3)
O18 O 0.4348(8) 0.7729(4) 0.9219(4)
O19 O 0.4054(9) 0.7945(5) 1.0216(4)
O20 O 0.4875(7) 0.7414(5) 1.0870(4)
O21 O 0.6457(7) 0.7084(4) 1.0984(4)
O22 O 0.8297(7) 0.7349(4) 1.0606(3)
O23 O 0.8798(6) 0.7477(4) 0.9647(3)
O24 O 0.7615(6) 0.7434(3) 0.8757(3)
C1 C 0.5710(7) 0.7850(4) 0.7039(4)
C2 C 0.6186(8) 0.7539(4) 0.6621(4)
C3 C 0.5692(9) 0.7134(4) 0.6223(4)
H7 H 0.5007 0.7064 0.6169
C4 C 0.6162(8) 0.6826(4) 0.5898(4)
C5 C 0.7208(8) 0.6955(4) 0.5991(4)
C6 C 0.7726(8) 0.7355(4) 0.6389(4)
H8 H 0.8410 0.7423 0.6449
C7 C 0.7216(7) 0.7658(4) 0.6700(4)
C8 C 0.7717(8) 0.8090(4) 0.7206(4)
C9 C 0.6189(9) 0.8422(4) 0.7083(4)
C10 C 0.5700(8) 0.8819(4) 0.7093(3)
H9 H 0.5015 0.8748 0.7046
C11 C 0.6220(8) 0.9309(4) 0.7169(4)
C12 C 0.7222(9) 0.9424(5) 0.7238(4)
C13 C 0.7788(8) 0.9058(4) 0.7235(4)
H10 H 0.8473 0.9136 0.7276
C14 C 0.7207(8) 0.8556(4) 0.7161(4)
C15 C 0.6168(8) 0.7757(4) 0.7530(4)
C16 C 0.5646(8) 0.7567(4) 0.7878(4)
H11 H 0.4963 0.7515 0.7838
C17 C 0.6141(9) 0.7454(4) 0.8287(5)
C18 C 0.7183(9) 0.7577(4) 0.8352(4)
C19 C 0.7738(9) 0.7781(4) 0.8040(4)
H12 H 0.8423 0.7867 0.8100
C20 C 0.7173(8) 0.7856(4) 0.7604(4)
C21 C 0.4593(7) 0.7728(4) 0.6952(4)
H13 H 0.4369 0.7798 0.6641
H14 H 0.4360 0.7939 0.7230
H15 H 0.4342 0.7370 0.6931
C22 C 0.8803(7) 0.8208(4) 0.7266(4)
H16 H 0.9032 0.7905 0.7290
H17 H 0.9063 0.8482 0.7569
H18 H 0.9021 0.8312 0.6977
C23 C 0.4726(8) 0.6288(4) 0.5359(4)
H19 H 0.4445 0.6302 0.5672
H20 H 0.4546 0.5933 0.5152
C24 C 0.4302(10) 0.6611(5) 0.5089(5)
H21 H 0.3588 0.6504 0.5036
H22 H 0.4490 0.6970 0.5287
C25 C 0.4190(11) 0.6785(5) 0.4285(5)
H23 H 0.4238 0.7147 0.4455
H24 H 0.3496 0.6616 0.4200
C26 C 0.4622(12) 0.6750(6) 0.3828(6)
H25 H 0.5326 0.6895 0.3909
H26 H 0.4337 0.6943 0.3625
C27 C 0.4752(11) 0.6129(5) 0.3085(5)
H27 H 0.5457 0.6266 0.3126
H28 H 0.4429 0.6306 0.2877
C28 C 0.4512(13) 0.5564(6) 0.2835(6)
H29 H 0.3842 0.5413 0.2870
H30 H 0.4564 0.5504 0.2476
C29 C 0.4871(9) 0.4824(3) 0.2983(4)
C30 C 0.3922(8) 0.4532(5) 0.2790(3)
H31 H 0.3448 0.4686 0.2670
C31 C 0.3681(7) 0.4012(4) 0.2776(4)
H32 H 0.3046 0.3817 0.2646
C32 C 0.4390(10) 0.3782(3) 0.2955(4)
H33 H 0.4229 0.3434 0.2946
C33 C 0.5339(8) 0.4074(5) 0.3148(4)
H34 H 0.5813 0.3920 0.3268
C34 C 0.5580(6) 0.4594(4) 0.3162(4)
C35 C 0.7309(13) 0.4709(6) 0.3372(6)
H35 H 0.7316 0.4480 0.3041
H36 H 0.7257 0.4501 0.3612
C36 C 0.8244(13) 0.5086(6) 0.3518(6)
H37 H 0.8778 0.4910 0.3463
H38 H 0.8276 0.5322 0.3304
C37 C 0.9345(12) 0.5684(6) 0.4227(6)
H39 H 0.9422 0.6004 0.4128
H40 H 0.9821 0.5499 0.4079
C38 C 0.9529(11) 0.5798(6) 0.4786(5)
H41 H 1.0211 0.5977 0.4910
H42 H 0.9405 0.5480 0.4888
C39 C 0.8945(11) 0.6175(5) 0.5519(5)
H43 H 0.9609 0.6168 0.5649
H44 H 0.8490 0.5890 0.5585
C40 C 0.8709(10) 0.6682(5) 0.5780(5)
H45 H 0.8886 0.6760 0.6146
H46 H 0.9071 0.6961 0.5663
C41 C 0.4764(8) 0.9669(4) 0.7175(4)
H47 H 0.4618 0.9997 0.7339
H48 H 0.4537 0.9428 0.7369
C42 C 0.4189(9) 0.9469(5) 0.6640(4)
H49 H 0.4277 0.9126 0.6482
H50 H 0.3492 0.9448 0.6656
C43 C 0.3936(10) 0.9685(5) 0.5885(5)
H51 H 0.3278 0.9731 0.5935
H52 H 0.3886 0.9328 0.5701
C44 C 0.4397(11) 1.0044(6) 0.5577(6)
H53 H 0.5089 1.0043 0.5567
H54 H 0.4056 0.9942 0.5231
C45 C 0.4470(13) 1.0936(6) 0.5597(6)
H55 H 0.4074 1.0814 0.5264
H56 H 0.5158 1.0993 0.5548
C46 C 0.4268(12) 1.1416(6) 0.5863(6)
H57 H 0.3637 1.1354 0.5985
H58 H 0.4244 1.1637 0.5637
C47 C 0.4894(9) 1.2047(3) 0.6655(3)
C48 C 0.4003(7) 1.2198(4) 0.6682(4)
H59 H 0.3481 1.2044 0.6419
C49 C 0.3891(7) 1.2578(4) 0.7100(5)
H60 H 0.3294 1.2679 0.7118
C50 C 0.4670(9) 1.2807(4) 0.7492(4)
H61 H 0.4595 1.3062 0.7772
C51 C 0.5561(8) 1.2657(4) 0.7466(3)
H62 H 0.6082 1.2810 0.7729
C52 C 0.5673(6) 1.2276(4) 0.7048(4)
C53 C 0.7419(14) 1.2450(7) 0.7258(7)
H63 H 0.7456 1.2796 0.7222
H64 H 0.7427 1.2466 0.7616
C54 C 0.8242(13) 1.2273(7) 0.7086(7)
H65 H 0.8828 1.2551 0.7197
H66 H 0.8144 1.2161 0.6717
C55 C 0.9344(15) 1.1789(7) 0.7285(7)
H67 H 0.9800 1.2123 0.7418
H68 H 0.9451 1.1645 0.6939
C56 C 0.9540(14) 1.1436(7) 0.7604(7)
H69 H 1.0235 1.1433 0.7634
H70 H 0.9386 1.1569 0.7943
C57 C 0.9176(13) 1.0638(6) 0.7761(6)
H71 H 0.8828 1.0720 0.8051
H72 H 0.9875 1.0703 0.7879
C58 C 0.8786(10) 1.0097(5) 0.7448(5)
H73 H 0.9006 0.9865 0.7627
H74 H 0.9058 1.0050 0.7131
C59 C 0.4665(11) 0.7071(5) 0.8539(5)
H75 H 0.4483 0.6810 0.8719
H76 H 0.4486 0.6906 0.8178
C60 C 0.4099(12) 0.7500(6) 0.8698(6)
H77 H 0.4268 0.7758 0.8514
H78 H 0.3395 0.7355 0.8617
C61 C 0.3706(14) 0.8066(7) 0.9423(7)
H79 H 0.3052 0.7863 0.9419
H80 H 0.3652 0.8307 0.9221
C62 C 0.4199(17) 0.8372(9) 0.9998(6)
H81 H 0.4892 0.8529 1.0019
H82 H 0.3854 0.8632 1.0151
C63 C 0.4358(13) 0.8115(6) 1.0768(6)
H83 H 0.5060 0.8266 1.0847
H84 H 0.4007 0.8370 1.0926
C64 C 0.4131(13) 0.7681(6) 1.0938(6)
H85 H 0.3511 0.7461 1.0751
H86 H 0.4058 0.7779 1.1295
C65 C 0.4780(12) 0.6980(4) 1.1031(4)
C66 C 0.3877(9) 0.6706(6) 1.1100(5)
H87 H 0.3318 0.6839 1.1071
C67 C 0.3809(9) 0.6234(6) 1.1212(5)
H88 H 0.3205 0.6051 1.1258
C68 C 0.4644(13) 0.6036(4) 1.1255(5)
H89 H 0.4598 0.5720 1.1330
C69 C 0.5547(10) 0.6309(5) 1.1186(4)
H90 H 0.6106 0.6176 1.1215
C70 C 0.5615(8) 0.6782(5) 1.1074(4)
C71 C 0.7414(13) 0.7000(6) 1.1176(6)
H91 H 0.7436 0.7007 1.1532
H92 H 0.7495 0.6664 1.0988
C72 C 0.8183(13) 0.7393(7) 1.1116(7)
H93 H 0.8045 0.7727 1.1264
H94 H 0.8796 0.7377 1.1300
C73 C 0.9139(12) 0.7648(5) 1.0554(5)
H95 H 0.9638 0.7682 1.0836
H96 H 0.9037 0.7990 1.0562
C74 C 0.9492(11) 0.7427(5) 1.0065(5)
H97 H 1.0155 0.7614 1.0060
H98 H 0.9500 0.7066 1.0028
C75 C 0.8981(11) 0.7232(6) 0.9175(5)
H99 H 0.8655 0.6869 0.9087
H100 H 0.9684 0.7258 0.9179
C76 C 0.8629(13) 0.7464(6) 0.8806(6)
H101 H 0.8969 0.7826 0.8897
H102 H 0.8795 0.7299 0.8479
O25 O 0.8644(11) 0.7970(4) 0.4156(5)
O26 O 0.8337(8) 1.0331(4) 0.5015(3)
O27 O 0.8500(6) 1.1368(3) 0.9566(2)
O28 O 0.9137(6) 0.9571(3) 1.0597(2)
O29 O 0.7342(11) 0.5116(5) 0.8388(5)
O30 O 0.8206(8) 0.4495(5) 0.6020(4)
N1 N 0.6816(6) 0.5843(3) 0.4659(3)
H1 H 0.7444 0.5819 0.4638
H2 H 0.6809 0.6077 0.4953
N2 N 0.6880(6) 1.0878(3) 0.7189(3)
H3 H 0.7478 1.1087 0.7221
H4 H 0.6969 1.0567 0.7212
N3 N 0.6735(7) 0.7268(4) 0.9753(4)
H5 H 0.6850 0.7308 0.9446
H6 H 0.7318 0.7292 0.9936
C77 C 0.6433(10) 0.6038(5) 0.4208(5)
H103 H 0.6398 0.5777 0.3891
H104 H 0.5773 0.6089 0.4243
C78 C 0.7074(7) 0.6525(3) 0.4187(4)
C79 C 0.7534(8) 0.6549(4) 0.3761(3)
H105 H 0.7450 0.6255 0.3492
C80 C 0.8120(8) 0.7013(5) 0.3738(4)
H106 H 0.8428 0.7029 0.3453
C81 C 0.8245(8) 0.7454(4) 0.4141(5)
C82 C 0.7785(8) 0.7430(3) 0.4567(4)
H107 H 0.7869 0.7725 0.4836
C83 C 0.7199(7) 0.6966(4) 0.4590(3)
H108 H 0.6891 0.6950 0.4875
C84 C 0.9133(18) 0.8015(5) 0.3723(7)
H109 H 0.8664 0.7892 0.3413
H110 H 0.9636 0.7815 0.3692
C85 C 0.9597(14) 0.8590(5) 0.3819(10)
H111 H 1.0191 0.8685 0.4063
H112 H 0.9775 0.8660 0.3504
C86 C 0.8870(15) 0.8907(6) 0.4021(11)
H113 H 0.8255 0.8792 0.3789
H114 H 0.8734 0.8860 0.4349
C87 C 0.9297(15) 0.9470(6) 0.4072(8)
H115 H 0.9904 0.9583 0.4309
H116 H 0.9456 0.9511 0.3745
C88 C 0.8612(15) 0.9803(6) 0.4253(5)
H117 H 0.7988 0.9676 0.4030
H118 H 0.8883 1.0152 0.4235
C89 C 0.8435(14) 0.9817(5) 0.4800(5)
H119 H 0.7840 0.9568 0.4804
H120 H 0.8987 0.9743 0.4986
C90 C 0.7864(6) 1.0413(3) 0.5434(3)
C91 C 0.7613(6) 1.0070(3) 0.5725(3)
H121 H 0.7768 0.9748 0.5640
C92 C 0.7131(6) 1.0210(3) 0.6143(3)
H122 H 0.6963 0.9980 0.6338
C93 C 0.6899(6) 1.0692(3) 0.6270(3)
C94 C 0.7150(7) 1.1034(3) 0.5978(3)
H123 H 0.6994 1.1357 0.6063
C95 C 0.7632(7) 1.0895(3) 0.5560(3)
H124 H 0.7799 1.1125 0.5365
C96 C 0.6343(9) 1.0817(4) 0.6688(4)
H125 H 0.5751 1.0546 0.6631
H126 H 0.6141 1.1136 0.6686
C97 C 0.6360(9) 1.1097(5) 0.7617(4)
H127 H 0.5715 1.0872 0.7585
H128 H 0.6264 1.1432 0.7594
C98 C 0.6936(5) 1.1156(3) 0.8135(2)
C99 C 0.6853(5) 1.0739(2) 0.8344(3)
H129 H 0.6446 1.0421 0.8168
C100 C 0.7378(6) 1.0796(3) 0.8817(3)
H130 H 0.7323 1.0517 0.8957
C101 C 0.7987(6) 1.1271(3) 0.9080(2)
C102 C 0.8071(5) 1.1688(2) 0.8871(3)
H131 H 0.8478 1.2006 0.9047
C103 C 0.7545(5) 1.1631(3) 0.8399(3)
H132 H 0.7601 1.1910 0.8259
C104 C 0.8514(9) 1.0909(4) 0.9737(4)
H133 H 0.8778 1.0665 0.9496
H134 H 0.7852 1.0742 0.9770
C105 C 0.9166(11) 1.1084(6) 1.0251(4)
H135 H 0.9795 1.1291 1.0222
H136 H 0.8857 1.1297 1.0497
C106 C 0.9333(10) 1.0628(5) 1.0433(4)
H137 H 0.9778 1.0462 1.0233
H138 H 0.8711 1.0378 1.0383
C107 C 0.9766(11) 1.0789(5) 1.0992(5)
H139 H 0.9263 1.0880 1.1197
H140 H 1.0300 1.1093 1.1057
C108 C 1.0150(10) 1.0358(4) 1.1142(4)
H141 H 1.0630 1.0259 1.0924
H142 H 1.0484 1.0487 1.1489
C109 C 0.9363(10) 0.9893(4) 1.1103(4)
H143 H 0.9578 0.9700 1.1328
H144 H 0.8775 0.9999 1.1211
C110 C 0.8399(5) 0.9132(2) 1.0495(3)
C111 C 0.8137(6) 0.8879(3) 0.9981(3)
H145 H 0.8433 0.9020 0.9740
C112 C 0.7434(6) 0.8415(3) 0.9826(2)
H146 H 0.7259 0.8246 0.9482
C113 C 0.6992(5) 0.8205(2) 1.0186(3)
C114 C 0.7253(6) 0.8458(3) 1.0700(3)
H147 H 0.6958 0.8317 1.0941
C115 C 0.7957(6) 0.8922(3) 1.0855(2)
H148 H 0.8132 0.9091 1.1199
C116 C 0.6267(9) 0.7687(4) 1.0016(4)
H149 H 0.6011 0.7602 1.0310
H150 H 0.5718 0.7709 0.9787
C117 C 0.6093(10) 0.6746(5) 0.9689(5)
H151 H 0.5432 0.6733 0.9538
H152 H 0.6056 0.6676 1.0018
C118 C 0.6521(9) 0.6346(4) 0.9349(5)
C119 C 0.6082(7) 0.6124(5) 0.8847(5)
H153 H 0.5570 0.6246 0.8715
C120 C 0.6410(10) 0.5721(5) 0.8544(4)
H154 H 0.6116 0.5573 0.8208
C121 C 0.7176(10) 0.5540(4) 0.8742(5)
C122 C 0.7615(7) 0.5761(4) 0.9244(5)
H155 H 0.8127 0.5640 0.9377
C123 C 0.7287(8) 0.6164(4) 0.9547(3)
H156 H 0.7581 0.6313 0.9883
C124 C 0.8227(12) 0.4964(7) 0.8553(5)
H157 H 0.8160 0.4851 0.8859
H158 H 0.8795 0.5251 0.8622
C125 C 0.8344(15) 0.4520(7) 0.8114(6)
H159 H 0.8934 0.4422 0.8231
H160 H 0.7800 0.4235 0.8105
C126 C 0.8395(17) 0.4508(7) 0.7666(5)
H161 H 0.9047 0.4716 0.7679
H162 H 0.7944 0.4716 0.7594
C127 C 0.8269(16) 0.4107(7) 0.7194(5)
H163 H 0.8653 0.3867 0.7264
H164 H 0.7584 0.3924 0.7140
C128 C 0.8458(14) 0.4169(6) 0.6743(4)
H165 H 0.8305 0.3830 0.6502
H166 H 0.9160 0.4307 0.6770
C129 C 0.7895(14) 0.4529(7) 0.6515(4)
H167 H 0.7187 0.4407 0.6484
H168 H 0.8081 0.4883 0.6727
C130 C 0.7590(7) 0.4713(4) 0.5729(3)
C131 C 0.7777(7) 0.4613(3) 0.5229(4)
H169 H 0.8201 0.4400 0.5119
C132 C 0.7329(7) 0.4833(3) 0.4891(3)
H170 H 0.7454 0.4766 0.4556
C133 C 0.6695(6) 0.5152(3) 0.5054(3)
C134 C 0.6508(6) 0.5251(3) 0.5555(3)
H171 H 0.6084 0.5464 0.5665
C135 C 0.6956(7) 0.5032(4) 0.5893(3)
H172 H 0.6831 0.5098 0.6228
C136 C 0.6244(9) 0.5353(5) 0.4668(5)
H173 H 0.6180 0.5110 0.4337
H174 H 0.5588 0.5389 0.4737
P1 P 0.8565(3) 0.04092(18) 0.2567(2)
F1 F 0.8807(9) -0.0110(3) 0.2303(4)
F2 F 0.7460(6) 0.0193(5) 0.2338(5)
F3 F 0.8322(9) 0.0213(4) 0.3044(4)
F4 F 0.9656(6) 0.0635(5) 0.2822(4)
F5 F 0.8783(9) 0.0618(5) 0.2099(4)
F6 F 0.8332(9) 0.0941(3) 0.2836(4)
P2 P 0.7988(3) 0.34247(19) 0.3833(2)
F7 F 0.7692(7) 0.3362(4) 0.3256(3)
F8 F 0.7061(6) 0.3648(3) 0.3952(3)
F9 F 0.7389(7) 0.2866(3) 0.3774(4)
F10 F 0.8922(6) 0.3214(3) 0.3717(3)
F11 F 0.8600(7) 0.3988(3) 0.3900(4)
F12 F 0.8278(8) 0.3495(4) 0.4413(3)
P3 P 0.9271(4) 0.3259(2) 0.8677(2)
F13 F 0.8150(6) 0.2961(4) 0.8548(4)
F14 F 0.8961(8) 0.3756(3) 0.8961(4)
F15 F 0.9362(9) 0.3088(4) 0.9178(3)
F16 F 0.9543(7) 0.2745(3) 0.8392(3)
F17 F 0.9168(9) 0.3407(4) 0.8162(3)
F18 F 1.0371(6) 0.3539(4) 0.8797(5)
Cl1 Cl 0.3615(3) 0.09092(16) 0.70197(14)
Cl2 Cl 0.2372(6) 0.1476(3) 0.7556(3)
Cl3 Cl 0.3964(6) 0.1198(5) 0.8071(2)
C137 C 0.3045(11) 0.1037(6) 0.7539(6)
H175 H 0.2598 0.0714 0.7541
Cl4 Cl 0.4185(7) 0.1299(4) 0.1066(4)
Cl5 Cl 0.4550(7) 0.0594(3) 0.1561(3)
Cl6 Cl 0.2646(7) 0.0725(3) 0.1389(3)
C138 C 0.3864(9) 0.1044(6) 0.1553(6)
H176 H 0.3980 0.1309 0.1878
Cl7 Cl 0.3924(4) 0.2106(2) 0.4751(2)
Cl8 Cl 0.4047(4) 0.1081(2) 0.4211(2)
Cl10 Cl 0.5638(6) 0.1912(3) 0.4329(3)
C140 C 0.4371(9) 0.1730(4) 0.4265(5)
H178 H 0.4105 0.1781 0.3952
Cl11 Cl 0.8157(7) 0.2296(4) 0.2608(3)
Cl12 Cl 0.8870(7) 0.2001(3) 0.1729(3)
Cl13 Cl 0.7040(7) 0.1526(3) 0.1895(3)
C141 C 0.8269(10) 0.1746(6) 0.2167(5)
H179 H 0.8568 0.1502 0.2301
Cl14 Cl 0.9091(7) 0.6789(3) 0.7291(3)
Cl15 Cl 0.9397(7) 0.5854(4) 0.6841(3)
Cl16 Cl 0.9651(7) 0.6246(3) 0.7874(3)
C142 C 0.9941(12) 0.6407(5) 0.7319(5)
H180 H 1.0632 0.6564 0.7314
Cl17 Cl 0.8557(7) 0.7053(4) 1.2434(3)
Cl18 Cl 0.7399(7) 0.6061(3) 1.2283(3)
Cl19 Cl 0.9389(7) 0.6317(3) 1.2764(4)
C143 C 0.8588(10) 0.6404(5) 1.2284(7)
H181 H 0.8806 0.6296 1.1952
Cl9? Cl 0.2204(9) 0.1343(5) 0.4243(6)
C139? C 0.3442(10) 0.1572(5) 0.4239(7)
H177? H 0.3512 0.1680 0.3934
loop_
_geom_bond_atom_site_label_1
_geom_bond_atom_site_label_2
_geom_bond_site_symmetry_1
_geom_bond_site_symmetry_2
O1 C4 1_555 1_555
O2 C24 1_555 1_555
O3 C26 1_555 1_555
O4 C28 1_555 1_555
O5 C34 1_555 1_555
O6 C36 1_555 1_555
O7 C38 1_555 1_555
O8 C5 1_555 1_555
O9 C11 1_555 1_555
O10 C42 1_555 1_555
O11 C44 1_555 1_555
O12 C46 1_555 1_555
O13 C52 1_555 1_555
O14 C54 1_555 1_555
O15 C56 1_555 1_555
O16 C12 1_555 1_555
O17 C17 1_555 1_555
O18 C60 1_555 1_555
O19 C62 1_555 1_555
O20 C64 1_555 1_555
O21 C70 1_555 1_555
O22 C72 1_555 1_555
O23 C74 1_555 1_555
O24 C18 1_555 1_555
O25 C81 1_555 1_555
O26 C89 1_555 1_555
O27 C101 1_555 1_555
O28 C109 1_555 1_555
O29 C121 1_555 1_555
O30 C129 1_555 1_555
N1 H1 1_555 1_555
H2 N1 1_555 1_555
N2 H3 1_555 1_555
H4 N2 1_555 1_555
N3 H5 1_555 1_555
H6 N3 1_555 1_555
C1 C2 1_555 1_555
C2 C3 1_555 1_555
C3 H7 1_555 1_555
C4 C3 1_555 1_555
C5 C4 1_555 1_555
C6 C5 1_555 1_555
H8 C6 1_555 1_555
C7 C2 1_555 1_555
C8 C7 1_555 1_555
C9 C1 1_555 1_555
C10 C9 1_555 1_555
H9 C10 1_555 1_555
C11 C10 1_555 1_555
C12 C11 1_555 1_555
C13 C12 1_555 1_555
H10 C13 1_555 1_555
C14 C8 1_555 1_555
C15 C1 1_555 1_555
C16 C15 1_555 1_555
H11 C16 1_555 1_555
C17 C16 1_555 1_555
C18 C17 1_555 1_555
C19 C18 1_555 1_555
H12 C19 1_555 1_555
C20 C8 1_555 1_555
C21 C1 1_555 1_555
H13 C21 1_555 1_555
H14 C21 1_555 1_555
H15 C21 1_555 1_555
C22 C8 1_555 1_555
H16 C22 1_555 1_555
H17 C22 1_555 1_555
H18 C22 1_555 1_555
C23 O1 1_555 1_555
H19 C23 1_555 1_555
H20 C23 1_555 1_555
C24 C23 1_555 1_555
H21 C24 1_555 1_555
H22 C24 1_555 1_555
C25 O2 1_555 1_555
H23 C25 1_555 1_555
H24 C25 1_555 1_555
C26 C25 1_555 1_555
H25 C26 1_555 1_555
H26 C26 1_555 1_555
C27 O3 1_555 1_555
H27 C27 1_555 1_555
H28 C27 1_555 1_555
C28 C27 1_555 1_555
H29 C28 1_555 1_555
H30 C28 1_555 1_555
C29 O4 1_555 1_555
C30 C29 1_555 1_555
H31 C30 1_555 1_555
C31 C30 1_555 1_555
H32 C31 1_555 1_555
C32 C31 1_555 1_555
H33 C32 1_555 1_555
C33 C32 1_555 1_555
H34 C33 1_555 1_555
C34 C29 1_555 1_555
C35 O5 1_555 1_555
H35 C35 1_555 1_555
H36 C35 1_555 1_555
C36 C35 1_555 1_555
H37 C36 1_555 1_555
H38 C36 1_555 1_555
C37 O6 1_555 1_555
H39 C37 1_555 1_555
H40 C37 1_555 1_555
C38 C37 1_555 1_555
H41 C38 1_555 1_555
H42 C38 1_555 1_555
C39 O7 1_555 1_555
H43 C39 1_555 1_555
H44 C39 1_555 1_555
C40 O8 1_555 1_555
H45 C40 1_555 1_555
H46 C40 1_555 1_555
C41 O9 1_555 1_555
H47 C41 1_555 1_555
H48 C41 1_555 1_555
C42 C41 1_555 1_555
H49 C42 1_555 1_555
H50 C42 1_555 1_555
C43 O10 1_555 1_555
H51 C43 1_555 1_555
H52 C43 1_555 1_555
C44 C43 1_555 1_555
H53 C44 1_555 1_555
H54 C44 1_555 1_555
C45 O11 1_555 1_555
H55 C45 1_555 1_555
H56 C45 1_555 1_555
C46 C45 1_555 1_555
H57 C46 1_555 1_555
H58 C46 1_555 1_555
C47 O12 1_555 1_555
C48 C47 1_555 1_555
H59 C48 1_555 1_555
C49 C48 1_555 1_555
H60 C49 1_555 1_555
C50 C49 1_555 1_555
H61 C50 1_555 1_555
C51 C50 1_555 1_555
H62 C51 1_555 1_555
C52 C47 1_555 1_555
C53 O13 1_555 1_555
H63 C53 1_555 1_555
H64 C53 1_555 1_555
C54 C53 1_555 1_555
H65 C54 1_555 1_555
H66 C54 1_555 1_555
C55 O14 1_555 1_555
H67 C55 1_555 1_555
H68 C55 1_555 1_555
C56 C55 1_555 1_555
H69 C56 1_555 1_555
H70 C56 1_555 1_555
C57 O15 1_555 1_555
H71 C57 1_555 1_555
H72 C57 1_555 1_555
C58 O16 1_555 1_555
H73 C58 1_555 1_555
H74 C58 1_555 1_555
C59 O17 1_555 1_555
H75 C59 1_555 1_555
H76 C59 1_555 1_555
C60 C59 1_555 1_555
H77 C60 1_555 1_555
H78 C60 1_555 1_555
C61 O18 1_555 1_555
H79 C61 1_555 1_555
H80 C61 1_555 1_555
C62 C61 1_555 1_555
H81 C62 1_555 1_555
H82 C62 1_555 1_555
C63 O19 1_555 1_555
H83 C63 1_555 1_555
H84 C63 1_555 1_555
C64 C63 1_555 1_555
H85 C64 1_555 1_555
H86 C64 1_555 1_555
C65 O20 1_555 1_555
C66 C65 1_555 1_555
H87 C66 1_555 1_555
C67 C66 1_555 1_555
H88 C67 1_555 1_555
C68 C67 1_555 1_555
H89 C68 1_555 1_555
C69 C68 1_555 1_555
H90 C69 1_555 1_555
C70 C65 1_555 1_555
C71 O21 1_555 1_555
H91 C71 1_555 1_555
H92 C71 1_555 1_555
C72 C71 1_555 1_555
H93 C72 1_555 1_555
H94 C72 1_555 1_555
C73 O22 1_555 1_555
H95 C73 1_555 1_555
H96 C73 1_555 1_555
C74 C73 1_555 1_555
H97 C74 1_555 1_555
H98 C74 1_555 1_555
C75 O23 1_555 1_555
H99 C75 1_555 1_555
H100 C75 1_555 1_555
C76 O24 1_555 1_555
H101 C76 1_555 1_555
H102 C76 1_555 1_555
C77 N1 1_555 1_555
H103 C77 1_555 1_555
H104 C77 1_555 1_555
C78 C77 1_555 1_555
C79 C78 1_555 1_555
H105 C79 1_555 1_555
C80 C79 1_555 1_555
H106 C80 1_555 1_555
C81 C80 1_555 1_555
C82 C81 1_555 1_555
H107 C82 1_555 1_555
C83 C78 1_555 1_555
H108 C83 1_555 1_555
C84 O25 1_555 1_555
H109 C84 1_555 1_555
H110 C84 1_555 1_555
C85 C84 1_555 1_555
H111 C85 1_555 1_555
H112 C85 1_555 1_555
C86 C85 1_555 1_555
H113 C86 1_555 1_555
H114 C86 1_555 1_555
C87 C86 1_555 1_555
H115 C87 1_555 1_555
H116 C87 1_555 1_555
C88 C87 1_555 1_555
H117 C88 1_555 1_555
H118 C88 1_555 1_555
C89 C88 1_555 1_555
H119 C89 1_555 1_555
H120 C89 1_555 1_555
C90 O26 1_555 1_555
C91 C90 1_555 1_555
H121 C91 1_555 1_555
C92 C91 1_555 1_555
H122 C92 1_555 1_555
C93 C92 1_555 1_555
C94 C93 1_555 1_555
H123 C94 1_555 1_555
C95 C90 1_555 1_555
H124 C95 1_555 1_555
C96 N2 1_555 1_555
H125 C96 1_555 1_555
H126 C96 1_555 1_555
C97 N2 1_555 1_555
H127 C97 1_555 1_555
H128 C97 1_555 1_555
C98 C97 1_555 1_555
C99 C98 1_555 1_555
H129 C99 1_555 1_555
C100 C99 1_555 1_555
H130 C100 1_555 1_555
C101 C100 1_555 1_555
C102 C101 1_555 1_555
H131 C102 1_555 1_555
C103 C98 1_555 1_555
H132 C103 1_555 1_555
C104 O27 1_555 1_555
H133 C104 1_555 1_555
H134 C104 1_555 1_555
C105 C104 1_555 1_555
H135 C105 1_555 1_555
H136 C105 1_555 1_555
C106 C105 1_555 1_555
H137 C106 1_555 1_555
H138 C106 1_555 1_555
C107 C106 1_555 1_555
H139 C107 1_555 1_555
H140 C107 1_555 1_555
C108 C107 1_555 1_555
H141 C108 1_555 1_555
H142 C108 1_555 1_555
C109 C108 1_555 1_555
H143 C109 1_555 1_555
H144 C109 1_555 1_555
C110 O28 1_555 1_555
C111 C110 1_555 1_555
H145 C111 1_555 1_555
C112 C111 1_555 1_555
H146 C112 1_555 1_555
C113 C112 1_555 1_555
C114 C113 1_555 1_555
H147 C114 1_555 1_555
C115 C110 1_555 1_555
H148 C115 1_555 1_555
C116 N3 1_555 1_555
H149 C116 1_555 1_555
H150 C116 1_555 1_555
C117 N3 1_555 1_555
H151 C117 1_555 1_555
H152 C117 1_555 1_555
C118 C117 1_555 1_555
C119 C118 1_555 1_555
H153 C119 1_555 1_555
C120 C119 1_555 1_555
H154 C120 1_555 1_555
C121 C120 1_555 1_555
C122 C121 1_555 1_555
H155 C122 1_555 1_555
C123 C118 1_555 1_555
H156 C123 1_555 1_555
C124 O29 1_555 1_555
H157 C124 1_555 1_555
H158 C124 1_555 1_555
C125 C124 1_555 1_555
H159 C125 1_555 1_555
H160 C125 1_555 1_555
C126 C125 1_555 1_555
H161 C126 1_555 1_555
H162 C126 1_555 1_555
C127 C126 1_555 1_555
H163 C127 1_555 1_555
H164 C127 1_555 1_555
C128 C127 1_555 1_555
H165 C128 1_555 1_555
H166 C128 1_555 1_555
C129 C128 1_555 1_555
H167 C129 1_555 1_555
H168 C129 1_555 1_555
C130 O30 1_555 1_555
C131 C130 1_555 1_555
H169 C131 1_555 1_555
C132 C131 1_555 1_555
H170 C132 1_555 1_555
C133 C132 1_555 1_555
C134 C133 1_555 1_555
H171 C134 1_555 1_555
C135 C130 1_555 1_555
H172 C135 1_555 1_555
C136 N1 1_555 1_555
H173 C136 1_555 1_555
H174 C136 1_555 1_555
P1 F1 1_555 1_555
F2 P1 1_555 1_555
F3 P1 1_555 1_555
F4 P1 1_555 1_555
F5 P1 1_555 1_555
F6 P1 1_555 1_555
P2 F7 1_555 1_555
F8 P2 1_555 1_555
F9 P2 1_555 1_555
F10 P2 1_555 1_555
F11 P2 1_555 1_555
F12 P2 1_555 1_555
P3 F13 1_555 1_555
F14 P3 1_555 1_555
F15 P3 1_555 1_555
F16 P3 1_555 1_555
F17 P3 1_555 1_555
F18 P3 1_555 1_555
Cl1 C137 1_555 1_555
Cl2 C137 1_555 1_555
Cl3 C137 1_555 1_555
C137 H175 1_555 1_555
Cl4 C138 1_555 1_555
Cl5 C138 1_555 1_555
Cl6 C138 1_555 1_555
C138 H176 1_555 1_555
Cl7 C140 1_555 1_555
Cl8 C140 1_555 1_555
Cl10 C140 1_555 1_555
C140 H178 1_555 1_555
Cl11 C141 1_555 1_555
Cl12 C141 1_555 1_555
Cl13 C141 1_555 1_555
C141 H179 1_555 1_555
Cl14 C142 1_555 1_555
Cl15 C142 1_555 1_555
Cl16 C142 1_555 1_555
C142 H180 1_555 1_555
Cl17 C143 1_555 1_555
Cl18 C143 1_555 1_555
Cl19 C143 1_555 1_555
C143 H181 1_555 1_555
C6 C7 1_555 1_555
C9 C14 1_555 1_555
C13 C14 1_555 1_555
C15 C20 1_555 1_555
C19 C20 1_555 1_555
C33 C34 1_555 1_555
C39 C40 1_555 1_555
C51 C52 1_555 1_555
C57 C58 1_555 1_555
C69 C70 1_555 1_555
C75 C76 1_555 1_555
C82 C83 1_555 1_555
C93 C96 1_555 1_555
C94 C95 1_555 1_555
C102 C103 1_555 1_555
C113 C116 1_555 1_555
C114 C115 1_555 1_555
C122 C123 1_555 1_555
C133 C136 1_555 1_555
C134 C135 1_555 1_555

#END
