
#######################################################################
#
#                 Cambridge Crystallographic Data Centre
#                                CCDC 
#
#######################################################################
#
# If this CIF has been generated from an entry in the Cambridge 
# Structural Database, then it will include bibliographic, chemical, 
# crystal, experimental, refinement or atomic coordinate data resulting 
# from the CCDC's data processing and validation procedures.
#
#######################################################################

data_QAVTUE
_chemical_formula_moiety         'C22 H16 N2 O3,C1 H4 O1'
_chemical_name_systematic        
"1,2,3,11b-Tetrahydrospiro[benzo[f]pyrrolo[2,1-a]isoindole-5,3'-indole]-2',6,11(1'H)-trione methanol solvate"
_symmetry_cell_setting           monoclinic
_symmetry_space_group_name_H-M   'P 21/c'
_symmetry_Int_Tables_number      14
_space_group_name_Hall           '-P 2ybc'
loop_
_symmetry_equiv_pos_site_id
_symmetry_equiv_pos_as_xyz
1 x,y,z
2 -x,1/2+y,1/2-z
3 -x,-y,-z
4 x,1/2-y,1/2+z
_cell_length_a                   13.684(3)
_cell_length_b                   8.0715(15)
_cell_length_c                   17.223(3)
_cell_angle_alpha                90
_cell_angle_beta                 99.624(4)
_cell_angle_gamma                90
_cell_volume                     1875.51
_exptl_crystal_colour            orange-yellow
_exptl_crystal_description       block
_chemical_melting_point          '221-223 deg.C'
_cell_formula_units_Z            4
loop_
_atom_site_label
_atom_site_type_symbol
_atom_site_fract_x
_atom_site_fract_y
_atom_site_fract_z
O1 O 0.14812(8) 0.54841(14) 0.48507(6)
O2 O 0.53442(8) 0.27158(13) 0.61074(7)
O3 O 0.31801(8) 0.83061(13) 0.59044(7)
N1 N 0.07434(9) 0.65582(17) 0.58487(8)
N2 N 0.21966(8) 0.32553(14) 0.62455(7)
C1 C 0.14585(10) 0.57466(17) 0.55409(8)
C2 C 0.10194(10) 0.68124(18) 0.66598(9)
C3 C 0.05335(12) 0.7728(2) 0.71605(10)
H1 H -0.0087 0.8242 0.6976
C4 C 0.09869(13) 0.7868(2) 0.79428(10)
H2 H 0.0668 0.8479 0.8300
C5 C 0.18914(13) 0.7134(2) 0.82100(9)
H3 H 0.2190 0.7260 0.8746
C6 C 0.23729(12) 0.62119(19) 0.77029(9)
H4 H 0.2998 0.5716 0.7887
C7 C 0.19228(10) 0.60336(17) 0.69279(8)
C8 C 0.22438(10) 0.51201(17) 0.62446(8)
C9 C 0.32236(10) 0.25591(17) 0.63036(8)
H5 H 0.3243 0.1745 0.5869
C10 C 0.38292(10) 0.40433(17) 0.61822(8)
C11 C 0.32950(10) 0.54357(17) 0.61393(8)
C12 C 0.17145(12) 0.2423(2) 0.68509(10)
H6 H 0.1052 0.1999 0.6616
H7 H 0.1639 0.3201 0.7281
C13 C 0.24037(12) 0.09993(19) 0.71592(9)
H8 H 0.2251 -0.0006 0.6832
H9 H 0.2352 0.0732 0.7712
C14 C 0.34332(11) 0.1673(2) 0.70966(9)
H10 H 0.3675 0.2451 0.7531
H11 H 0.3921 0.0768 0.7094
C15 C 0.48817(10) 0.40129(17) 0.60828(8)
C16 C 0.53349(10) 0.56481(17) 0.59527(8)
C17 C 0.47760(10) 0.71177(17) 0.59249(8)
C18 C 0.37026(10) 0.70708(17) 0.59876(8)
C19 C 0.63263(11) 0.57240(19) 0.58603(8)
H12 H 0.6704 0.4735 0.5870
C20 C 0.67632(11) 0.7241(2) 0.57542(9)
H13 H 0.7440 0.7287 0.5693
C21 C 0.62137(11) 0.8689(2) 0.57376(9)
H14 H 0.6517 0.9725 0.5669
C22 C 0.52228(11) 0.86303(18) 0.58211(8)
H15 H 0.4849 0.9625 0.5807
H16 H 0.0180(16) 0.701(3) 0.5557(12)
O4 O 0.09993(9) 0.18710(15) 0.48769(8)
C23 C 0.12183(14) 0.0193(2) 0.49005(13)
H17 H 0.1904 0.0031 0.4819
H18 H 0.0768 -0.0381 0.4484
H19 H 0.1138 -0.0259 0.5414
H20 H 0.1378(19) 0.237(3) 0.5298(15)
loop_
_geom_bond_atom_site_label_1
_geom_bond_atom_site_label_2
_geom_bond_site_symmetry_1
_geom_bond_site_symmetry_2
O1 C1 1_555 1_555
O2 C15 1_555 1_555
O3 C18 1_555 1_555
N1 C1 1_555 1_555
N2 C8 1_555 1_555
C1 C8 1_555 1_555
C2 N1 1_555 1_555
C3 C2 1_555 1_555
H1 C3 1_555 1_555
C4 C3 1_555 1_555
H2 C4 1_555 1_555
C5 C4 1_555 1_555
H3 C5 1_555 1_555
C6 C5 1_555 1_555
H4 C6 1_555 1_555
C7 C2 1_555 1_555
C8 C7 1_555 1_555
C9 N2 1_555 1_555
H5 C9 1_555 1_555
C10 C9 1_555 1_555
C11 C8 1_555 1_555
C12 N2 1_555 1_555
H6 C12 1_555 1_555
H7 C12 1_555 1_555
C13 C12 1_555 1_555
H8 C13 1_555 1_555
H9 C13 1_555 1_555
C14 C9 1_555 1_555
H10 C14 1_555 1_555
H11 C14 1_555 1_555
C15 C10 1_555 1_555
C16 C15 1_555 1_555
C17 C16 1_555 1_555
C18 C11 1_555 1_555
C19 C16 1_555 1_555
H12 C19 1_555 1_555
C20 C19 1_555 1_555
H13 C20 1_555 1_555
C21 C20 1_555 1_555
H14 C21 1_555 1_555
C22 C17 1_555 1_555
H15 C22 1_555 1_555
H16 N1 1_555 1_555
O4 C23 1_555 1_555
C23 H17 1_555 1_555
H18 C23 1_555 1_555
H19 C23 1_555 1_555
H20 O4 1_555 1_555
C6 C7 1_555 1_555
C10 C11 1_555 1_555
C13 C14 1_555 1_555
C17 C18 1_555 1_555
C21 C22 1_555 1_555

#END
