
#######################################################################
#
#                 Cambridge Crystallographic Data Centre
#                                CCDC 
#
#######################################################################
#
# If this CIF has been generated from an entry in the Cambridge 
# Structural Database, then it will include bibliographic, chemical, 
# crystal, experimental, refinement or atomic coordinate data resulting 
# from the CCDC's data processing and validation procedures.
#
#######################################################################

data_QAVWUI
_chemical_formula_moiety         'C19 H15 F1 O2 S1'
_chemical_name_systematic        
'ethyl 3-(3-fluorophenyl)-5-phenylthiophene-2-carboxylate'
_symmetry_cell_setting           monoclinic
_symmetry_space_group_name_H-M   'P 21/c'
_symmetry_Int_Tables_number      14
_space_group_name_Hall           '-P 2ybc'
loop_
_symmetry_equiv_pos_site_id
_symmetry_equiv_pos_as_xyz
1 x,y,z
2 -x,1/2+y,1/2-z
3 -x,-y,-z
4 x,1/2-y,1/2+z
_cell_length_a                   10.9902(3)
_cell_length_b                   7.4218(2)
_cell_length_c                   19.3130(4)
_cell_angle_alpha                90
_cell_angle_beta                 98.5755(7)
_cell_angle_gamma                90
_cell_volume                     1557.69
_exptl_crystal_colour            colorless
_exptl_crystal_description       needle
_cell_formula_units_Z            4
loop_
_atom_site_label
_atom_site_type_symbol
_atom_site_fract_x
_atom_site_fract_y
_atom_site_fract_z
C1 C 0.64329(10) 0.17821(15) 0.05940(5)
C2 C 0.57648(10) 0.19315(15) 0.11449(5)
C3 C 0.45234(10) 0.24216(15) 0.09040(6)
H1 H 0.3928 0.2583 0.1209
C4 C 0.42615(10) 0.26416(15) 0.01909(6)
C5 C 0.77477(10) 0.15252(15) 0.05453(6)
C6 C 0.97420(10) 0.09455(18) 0.11486(6)
H2 H 1.0106 0.2123 0.1053
H3 H 0.9902 0.0081 0.0782
C7 C 1.02871(12) 0.0269(2) 0.18606(7)
H4 H 1.0141 0.1152 0.2216
H5 H 1.1175 0.0093 0.1877
H6 H 0.9902 -0.0880 0.1953
C8 C 0.62231(10) 0.17389(16) 0.19035(5)
C9 C 0.68895(10) 0.02353(16) 0.21729(6)
H7 H 0.7064 -0.0718 0.1874
C10 C 0.72903(10) 0.01644(17) 0.28842(6)
C11 C 0.70634(11) 0.14835(19) 0.33467(6)
H8 H 0.7362 0.1388 0.3833
C12 C 0.63807(12) 0.29599(18) 0.30755(6)
H9 H 0.6201 0.3895 0.3380
C13 C 0.59565(11) 0.30876(17) 0.23625(6)
H10 H 0.5481 0.4101 0.2186
C14 C 0.30929(10) 0.31246(15) -0.02402(6)
C15 C 0.19769(11) 0.29069(17) 0.00136(6)
H11 H 0.1972 0.2430 0.0470
C16 C 0.08768(11) 0.33808(18) -0.03940(7)
H12 H 0.0123 0.3228 -0.0216
C17 C 0.08714(11) 0.40771(17) -0.10599(7)
H13 H 0.0116 0.4403 -0.1338
C18 C 0.19699(11) 0.42966(18) -0.13191(6)
H14 H 0.1968 0.4771 -0.1776
C19 C 0.30738(11) 0.38255(16) -0.09135(6)
H15 H 0.3824 0.3981 -0.1095
F1 F 0.79441(8) -0.13102(12) 0.31402(4)
O1 O 0.81516(8) 0.16768(14) -0.00029(4)
O2 O 0.84275(7) 0.11283(12) 0.11548(4)
S1 S 0.55442(2) 0.22466(4) -0.01947(2)
loop_
_geom_bond_atom_site_label_1
_geom_bond_atom_site_label_2
_geom_bond_site_symmetry_1
_geom_bond_site_symmetry_2
C1 C2 1_555 1_555
C2 C3 1_555 1_555
C3 H1 1_555 1_555
C4 C3 1_555 1_555
C5 C1 1_555 1_555
C6 H2 1_555 1_555
H3 C6 1_555 1_555
C7 C6 1_555 1_555
H4 C7 1_555 1_555
H5 C7 1_555 1_555
H6 C7 1_555 1_555
C8 C2 1_555 1_555
C9 C8 1_555 1_555
H7 C9 1_555 1_555
C10 C9 1_555 1_555
C11 C10 1_555 1_555
H8 C11 1_555 1_555
C12 C11 1_555 1_555
H9 C12 1_555 1_555
C13 C8 1_555 1_555
H10 C13 1_555 1_555
C14 C4 1_555 1_555
C15 C14 1_555 1_555
H11 C15 1_555 1_555
C16 C15 1_555 1_555
H12 C16 1_555 1_555
C17 C16 1_555 1_555
H13 C17 1_555 1_555
C18 C17 1_555 1_555
H14 C18 1_555 1_555
C19 C14 1_555 1_555
H15 C19 1_555 1_555
F1 C10 1_555 1_555
O1 C5 1_555 1_555
O2 C5 1_555 1_555
S1 C1 1_555 1_555
C4 S1 1_555 1_555
C6 O2 1_555 1_555
C12 C13 1_555 1_555
C18 C19 1_555 1_555

#END
