
#######################################################################
#
#                 Cambridge Crystallographic Data Centre
#                                CCDC 
#
#######################################################################
#
# If this CIF has been generated from an entry in the Cambridge 
# Structural Database, then it will include bibliographic, chemical, 
# crystal, experimental, refinement or atomic coordinate data resulting 
# from the CCDC's data processing and validation procedures.
#
#######################################################################

data_QAVXET
_chemical_formula_moiety         'C19 H16 O2 S1'
_chemical_name_systematic        'ethyl 3,5-diphenylthiophene-2-carboxylate'
_symmetry_cell_setting           monoclinic
_symmetry_space_group_name_H-M   'P 21/c'
_symmetry_Int_Tables_number      14
_space_group_name_Hall           '-P 2ybc'
loop_
_symmetry_equiv_pos_site_id
_symmetry_equiv_pos_as_xyz
1 x,y,z
2 -x,1/2+y,1/2-z
3 -x,-y,-z
4 x,1/2-y,1/2+z
_cell_length_a                   16.4474(3)
_cell_length_b                   12.4861(2)
_cell_length_c                   7.5791(2)
_cell_angle_alpha                90
_cell_angle_beta                 98.0455(7)
_cell_angle_gamma                90
_cell_volume                     1541.15
_exptl_crystal_colour            colorless
_exptl_crystal_description       plate
_cell_formula_units_Z            4
loop_
_atom_site_label
_atom_site_type_symbol
_atom_site_fract_x
_atom_site_fract_y
_atom_site_fract_z
C1 C 0.24067(7) 0.14494(9) 0.04787(14)
C2 C 0.25783(7) 0.03646(9) 0.04511(14)
C3 C 0.33931(7) 0.01497(9) 0.12593(15)
H1 H 0.3621 -0.0551 0.1343
C4 C 0.38241(7) 0.10395(9) 0.19092(15)
C5 C 0.16747(7) 0.20382(9) -0.03402(15)
C6 C 0.10504(8) 0.37390(10) -0.06410(18)
H2 H 0.0562 0.3510 -0.0110
H3 H 0.0927 0.3666 -0.1952
C7 C 0.12607(10) 0.48768(11) -0.0149(2)
H4 H 0.1364 0.4944 0.1151
H5 H 0.0802 0.5343 -0.0623
H6 H 0.1754 0.5088 -0.0654
C8 C 0.20144(6) -0.05041(9) -0.02682(14)
C9 C 0.12035(7) -0.05489(9) 0.00744(15)
H7 H 0.1001 -0.0007 0.0778
C10 C 0.06910(7) -0.13750(9) -0.06004(15)
H8 H 0.0141 -0.1399 -0.0353
C11 C 0.09768(8) -0.21675(9) -0.16343(16)
H9 H 0.0621 -0.2726 -0.2116
C12 C 0.17839(8) -0.21436(9) -0.19643(16)
H10 H 0.1984 -0.2690 -0.2664
C13 C 0.23005(7) -0.13215(9) -0.12729(15)
H11 H 0.2856 -0.1316 -0.1487
C14 C 0.46690(7) 0.11024(10) 0.28412(15)
C15 C 0.52268(7) 0.02798(10) 0.26684(17)
H12 H 0.5061 -0.0322 0.1939
C16 C 0.60224(8) 0.03374(11) 0.35583(19)
H13 H 0.6397 -0.0228 0.3441
C17 C 0.62734(8) 0.12125(12) 0.46140(17)
H14 H 0.6821 0.1251 0.5210
C18 C 0.57258(8) 0.20302(12) 0.47983(17)
H15 H 0.5895 0.2630 0.5530
C19 C 0.49282(7) 0.19772(11) 0.39170(17)
H16 H 0.4555 0.2543 0.4048
O1 O 0.10820(5) 0.16543(7) -0.12358(12)
O2 O 0.17531(5) 0.30855(7) 0.00380(12)
S1 S 0.32312(2) 0.21703(2) 0.15178(4)
loop_
_geom_bond_atom_site_label_1
_geom_bond_atom_site_label_2
_geom_bond_site_symmetry_1
_geom_bond_site_symmetry_2
C1 C2 1_555 1_555
C2 C3 1_555 1_555
C3 H1 1_555 1_555
C4 C3 1_555 1_555
C5 C1 1_555 1_555
C6 H2 1_555 1_555
H3 C6 1_555 1_555
C7 C6 1_555 1_555
H4 C7 1_555 1_555
H5 C7 1_555 1_555
H6 C7 1_555 1_555
C8 C2 1_555 1_555
C9 C8 1_555 1_555
H7 C9 1_555 1_555
C10 C9 1_555 1_555
H8 C10 1_555 1_555
C11 C10 1_555 1_555
H9 C11 1_555 1_555
C12 C11 1_555 1_555
H10 C12 1_555 1_555
C13 C8 1_555 1_555
H11 C13 1_555 1_555
C14 C4 1_555 1_555
C15 C14 1_555 1_555
H12 C15 1_555 1_555
C16 C15 1_555 1_555
H13 C16 1_555 1_555
C17 C16 1_555 1_555
H14 C17 1_555 1_555
C18 C17 1_555 1_555
H15 C18 1_555 1_555
C19 C14 1_555 1_555
H16 C19 1_555 1_555
O1 C5 1_555 1_555
O2 C5 1_555 1_555
S1 C1 1_555 1_555
C4 S1 1_555 1_555
C6 O2 1_555 1_555
C12 C13 1_555 1_555
C18 C19 1_555 1_555

#END
