
#######################################################################
#
#                 Cambridge Crystallographic Data Centre
#                                CCDC 
#
#######################################################################
#
# If this CIF has been generated from an entry in the Cambridge 
# Structural Database, then it will include bibliographic, chemical, 
# crystal, experimental, refinement or atomic coordinate data resulting 
# from the CCDC's data processing and validation procedures.
#
#######################################################################

data_QAVXAP
_chemical_formula_moiety         'C20 H18 O3 S1'
_chemical_name_systematic        
'ethyl 3-(4-methoxyphenyl)-5-phenylthiophene-2-carboxylate'
_symmetry_cell_setting           triclinic
_symmetry_space_group_name_H-M   'P -1'
_symmetry_Int_Tables_number      2
_space_group_name_Hall           '-P 1'
loop_
_symmetry_equiv_pos_site_id
_symmetry_equiv_pos_as_xyz
1 x,y,z
2 -x,-y,-z
_cell_length_a                   7.9896(2)
_cell_length_b                   10.7841(3)
_cell_length_c                   11.2117(3)
_cell_angle_alpha                66.1488(6)
_cell_angle_beta                 89.3843(7)
_cell_angle_gamma                72.7266(7)
_cell_volume                     837.026
_exptl_crystal_colour            'pale yellow'
_exptl_crystal_description       plate
_cell_formula_units_Z            2
loop_
_atom_site_label
_atom_site_type_symbol
_atom_site_fract_x
_atom_site_fract_y
_atom_site_fract_z
C1 C 0.82712(15) 0.75693(12) 0.49542(11)
C2 C 0.96374(15) 0.80466(12) 0.43878(11)
C3 C 1.13048(15) 0.70095(12) 0.49950(11)
H1 H 1.2392 0.7148 0.4726
C4 C 1.12060(15) 0.57849(12) 0.60093(11)
C5 C 0.63465(16) 0.81828(13) 0.46048(12)
C6 C 0.39724(16) 1.01448(14) 0.31724(13)
H2 H 0.3320 1.0188 0.3918
H3 H 0.3523 0.9599 0.2798
C7 C 0.37410(19) 1.16240(15) 0.21457(15)
H4 H 0.4183 1.2153 0.2533
H5 H 0.2485 1.2123 0.1814
H6 H 0.4404 1.1563 0.1420
C8 C 0.94579(14) 0.94482(12) 0.32797(11)
C9 C 0.86061(16) 1.07373(13) 0.33511(12)
H7 H 0.8134 1.0725 0.4135
C10 C 0.84274(16) 1.20440(13) 0.23047(12)
H8 H 0.7837 1.2914 0.2373
C11 C 0.91193(15) 1.20660(12) 0.11595(11)
C12 C 1.00166(16) 1.07884(13) 0.10822(11)
H9 H 1.0519 1.0802 0.0307
C13 C 1.01805(15) 0.94973(12) 0.21313(11)
H10 H 1.0796 0.8629 0.2068
C14 C 0.7962(3) 1.46081(15) 0.00600(16)
H11 H 0.6767 1.4576 0.0232
H12 H 0.7905 1.5388 -0.0800
H13 H 0.8491 1.4772 0.0745
C15 C 1.26594(16) 0.45415(12) 0.69025(11)
C16 C 1.43555(17) 0.46365(13) 0.69850(13)
H14 H 1.4581 0.5492 0.6430
C17 C 1.57108(18) 0.34942(14) 0.78686(15)
H15 H 1.6857 0.3575 0.7923
C18 C 1.54080(19) 0.22358(15) 0.86729(14)
H16 H 1.6339 0.1455 0.9282
C19 C 1.3740(2) 0.21231(14) 0.85825(14)
H17 H 1.3531 0.1256 0.9125
C20 C 1.23747(18) 0.32602(13) 0.77106(13)
H18 H 1.1233 0.3170 0.7660
O1 O 0.53230(12) 0.75800(11) 0.51733(10)
O2 O 0.58500(11) 0.94698(9) 0.36070(9)
O3 O 0.90136(13) 1.32831(9) 0.00639(9)
S1 S 0.90422(4) 0.58855(3) 0.62209(3)
loop_
_geom_bond_atom_site_label_1
_geom_bond_atom_site_label_2
_geom_bond_site_symmetry_1
_geom_bond_site_symmetry_2
C1 C2 1_555 1_555
C2 C3 1_555 1_555
C3 H1 1_555 1_555
C4 C3 1_555 1_555
C5 C1 1_555 1_555
C6 H2 1_555 1_555
H3 C6 1_555 1_555
C7 C6 1_555 1_555
H4 C7 1_555 1_555
H5 C7 1_555 1_555
H6 C7 1_555 1_555
C8 C2 1_555 1_555
C9 C8 1_555 1_555
H7 C9 1_555 1_555
C10 C9 1_555 1_555
H8 C10 1_555 1_555
C11 C10 1_555 1_555
C12 C11 1_555 1_555
H9 C12 1_555 1_555
C13 C8 1_555 1_555
H10 C13 1_555 1_555
C14 H11 1_555 1_555
H12 C14 1_555 1_555
H13 C14 1_555 1_555
C15 C4 1_555 1_555
C16 C15 1_555 1_555
H14 C16 1_555 1_555
C17 C16 1_555 1_555
H15 C17 1_555 1_555
C18 C17 1_555 1_555
H16 C18 1_555 1_555
C19 C18 1_555 1_555
H17 C19 1_555 1_555
C20 C15 1_555 1_555
H18 C20 1_555 1_555
O1 C5 1_555 1_555
O2 C5 1_555 1_555
O3 C11 1_555 1_555
S1 C1 1_555 1_555
C4 S1 1_555 1_555
C6 O2 1_555 1_555
C12 C13 1_555 1_555
C14 O3 1_555 1_555
C19 C20 1_555 1_555

#END
