
#######################################################################
#
#                 Cambridge Crystallographic Data Centre
#                                CCDC 
#
#######################################################################
#
# If this CIF has been generated from an entry in the Cambridge 
# Structural Database, then it will include bibliographic, chemical, 
# crystal, experimental, refinement or atomic coordinate data resulting 
# from the CCDC's data processing and validation procedures.
#
#######################################################################

data_QAWDAT01
_chemical_formula_moiety         'C16 H14 N2 S1'
_chemical_name_systematic        5-Methyl-N,4-diphenyl-1,3-thiazol-2-amine
_symmetry_cell_setting           monoclinic
_symmetry_space_group_name_H-M   'C 2/c'
_symmetry_Int_Tables_number      15
_space_group_name_Hall           '-C 2yn'
loop_
_symmetry_equiv_pos_site_id
_symmetry_equiv_pos_as_xyz
1 x,y,z
2 -x,y,1/2-z
3 1/2+x,1/2+y,z
4 1/2-x,1/2+y,1/2-z
5 -x,-y,-z
6 x,-y,1/2+z
7 1/2-x,1/2-y,-z
8 1/2+x,1/2-y,1/2+z
_cell_length_a                   27.470(3)
_cell_length_b                   7.3843(7)
_cell_length_c                   13.5757(13)
_cell_angle_alpha                90
_cell_angle_beta                 100.738(2)
_cell_angle_gamma                90
_cell_volume                     2705.57
_exptl_crystal_colour            colorless
_exptl_crystal_description       block
_chemical_melting_point          170-171deg.C
_cell_formula_units_Z            8
loop_
_atom_site_label
_atom_site_type_symbol
_atom_site_fract_x
_atom_site_fract_y
_atom_site_fract_z
S1 S 0.466607(19) 0.21579(8) 1.01123(4)
N1 N 0.52073(6) 0.2579(2) 0.87830(13)
N2 N 0.44036(6) 0.1808(3) 0.80612(14)
C1 C 0.61301(8) 0.4577(3) 0.89703(16)
H1 H 0.5872 0.5001 0.8481
C2 C 0.66125(9) 0.5101(4) 0.89459(19)
H2 H 0.6677 0.5870 0.8443
C3 C 0.69953(9) 0.4482(4) 0.9666(2)
H3 H 0.7319 0.4837 0.9652
C4 C 0.69002(9) 0.3339(4) 1.0406(2)
H4 H 0.7160 0.2921 1.0892
C5 C 0.64190(8) 0.2804(3) 1.04334(18)
H5 H 0.6359 0.2025 1.0935
C6 C 0.60262(7) 0.3425(3) 0.97154(15)
C7 C 0.55088(7) 0.2887(3) 0.97113(15)
C8 C 0.52846(8) 0.2731(3) 1.05152(15)
C9 C 0.54725(9) 0.3138(3) 1.15987(16)
H6 H 0.5790 0.3719 1.1673
H7 H 0.5505 0.2030 1.1975
H8 H 0.5244 0.3926 1.1843
C10 C 0.47553(7) 0.2194(3) 0.88794(15)
C11 C 0.38955(7) 0.1459(3) 0.79878(16)
C12 C 0.36158(8) 0.2105(3) 0.86637(19)
H9 H 0.3763 0.2807 0.9207
C13 C 0.31149(9) 0.1700(4) 0.8525(2)
H10 H 0.2931 0.2113 0.8989
C14 C 0.28865(9) 0.0706(4) 0.7722(2)
H11 H 0.2550 0.0441 0.7640
C15 C 0.31610(9) 0.0102(4) 0.7035(2)
H12 H 0.3008 -0.0559 0.6480
C16 C 0.36623(8) 0.0470(3) 0.71645(17)
H13 H 0.3844 0.0052 0.6697
H14 H 0.4501(9) 0.191(4) 0.751(2)
loop_
_geom_bond_atom_site_label_1
_geom_bond_atom_site_label_2
_geom_bond_site_symmetry_1
_geom_bond_site_symmetry_2
S1 C8 1_555 1_555
N1 C7 1_555 1_555
N2 C10 1_555 1_555
C1 H1 1_555 1_555
C2 C1 1_555 1_555
H2 C2 1_555 1_555
C3 C2 1_555 1_555
H3 C3 1_555 1_555
C4 C3 1_555 1_555
H4 C4 1_555 1_555
C5 C4 1_555 1_555
H5 C5 1_555 1_555
C6 C1 1_555 1_555
C7 C6 1_555 1_555
C8 C7 1_555 1_555
C9 C8 1_555 1_555
H6 C9 1_555 1_555
H7 C9 1_555 1_555
H8 C9 1_555 1_555
C10 S1 1_555 1_555
C11 N2 1_555 1_555
C12 C11 1_555 1_555
H9 C12 1_555 1_555
C13 C12 1_555 1_555
H10 C13 1_555 1_555
C14 C13 1_555 1_555
H11 C14 1_555 1_555
C15 C14 1_555 1_555
H12 C15 1_555 1_555
C16 C11 1_555 1_555
H13 C16 1_555 1_555
H14 N2 1_555 1_555
N1 C10 1_555 1_555
C5 C6 1_555 1_555
C15 C16 1_555 1_555

#END
