
#######################################################################
#
#                 Cambridge Crystallographic Data Centre
#                                CCDC 
#
#######################################################################
#
# If this CIF has been generated from an entry in the Cambridge 
# Structural Database, then it will include bibliographic, chemical, 
# crystal, experimental, refinement or atomic coordinate data resulting 
# from the CCDC's data processing and validation procedures.
#
#######################################################################

data_QAWMIK
_chemical_name_common            
'4-hydroxy-3-methoxy-4-N-methylstilbazonium iodide'
_chemical_formula_moiety         'C15 H16 N1 O2 1+,I1 1-'
_chemical_name_systematic        
"4-hydroxy-3-methoxy-4'-azonia-N'-methylstilbene iodide"
_symmetry_cell_setting           monoclinic
_symmetry_space_group_name_H-M   'P 21/c'
_symmetry_Int_Tables_number      14
_space_group_name_Hall           '-P 2ybc'
loop_
_symmetry_equiv_pos_site_id
_symmetry_equiv_pos_as_xyz
1 x,y,z
2 -x,1/2+y,1/2-z
3 -x,-y,-z
4 x,1/2-y,1/2+z
_cell_length_a                   8.957(1)
_cell_length_b                   21.8117(2)
_cell_length_c                   7.8760(10)
_cell_angle_alpha                90
_cell_angle_beta                 103.94(1)
_cell_angle_gamma                90
_cell_volume                     1493.4
_exptl_crystal_colour            brown-yellow
_exptl_crystal_description       prismatic
_cell_formula_units_Z            4
loop_
_atom_site_label
_atom_site_type_symbol
_atom_site_fract_x
_atom_site_fract_y
_atom_site_fract_z
I1 I 0.20783(3) 0.630983(10) 0.22376(3)
O1 O -0.1240(17) 0.6832(6) -0.0040(27)
O2 O -0.3520(25) 0.7274(5) -0.2685(31)
N1 N -0.9873(18) 0.3521(7) -0.5893(18)
C1 C -1.1014(20) 0.3091(7) -0.7002(27)
C2 C -0.8687(20) 0.3295(6) -0.4665(21)
C3 C -0.7488(14) 0.3685(4) -0.3874(18)
C4 C -0.7497(11) 0.4303(4) -0.4340(14)
C5 C -0.8658(14) 0.4503(5) -0.5697(17)
C6 C -0.9724(24) 0.4087(7) -0.6551(38)
C7 C -0.6236(9) 0.4673(3) -0.3309(9)
C8 C -0.6084(9) 0.5268(3) -0.3521(10)
C9 C -0.4810(11) 0.5662(5) -0.2561(13)
C10 C -0.3639(15) 0.5451(5) -0.1220(19)
C11 C -0.2435(23) 0.5841(8) -0.0444(33)
C12 C -0.2435(23) 0.6456(8) -0.0930(30)
C13 C -0.3592(22) 0.6664(7) -0.2305(28)
C14 C -0.4815(14) 0.6275(5) -0.3070(19)
C15 C -0.4786(3) 0.7509(7) -0.4016(34)
O3? O -0.1354(12) 0.6832(5) -0.0200(22)
O4? O -0.3611(22) 0.7089(5) -0.2715(5)
N2? N -0.9726(18) 0.3533(6) -0.6285(18)
C16? C -1.0917(14) 0.3055(6) -0.6812(21)
C17? C -0.8588(21) 0.3450(6) -0.4873(24)
C18? C -0.7623(13) 0.3919(5) -0.4104(16)
C19? C -0.7840(12) 0.4498(4) -0.4817(14)
C20? C -0.9109(15) 0.4586(5) -0.6215(18)
C21? C -1.0091(26) 0.4122(7) -0.6841(34)
C22? C -0.6807(7) 0.5002(3) -0.4141(8)
C23? C -0.5563(7) 0.4969(4) -0.2836(8)
C24? C -0.4493(12) 0.5458(5) -0.2128(14)
C25? C -0.3219(15) 0.5325(5) -0.0783(18)
C26? C -0.2169(27) 0.5784(7) -0.0051(35)
C27? C -0.2373(20) 0.6363(7) -0.0762(27)
C28? C -0.3675(24) 0.6507(8) -0.2091(32)
C29? C -0.4664(12) 0.6049(5) -0.2788(16)
C30? C -0.4858(27) 0.7299(7) -0.4064(31)
loop_
_geom_bond_atom_site_label_1
_geom_bond_atom_site_label_2
_geom_bond_site_symmetry_1
_geom_bond_site_symmetry_2
O1 C12 1_555 1_555
O2 C13 1_555 1_555
N1 C1 1_555 1_555
C2 N1 1_555 1_555
C3 C2 1_555 1_555
C4 C3 1_555 1_555
C5 C4 1_555 1_555
C6 N1 1_555 1_555
C7 C4 1_555 1_555
C8 C7 1_555 1_555
C9 C8 1_555 1_555
C10 C9 1_555 1_555
C11 C10 1_555 1_555
C12 C11 1_555 1_555
C13 C12 1_555 1_555
C14 C9 1_555 1_555
C15 O2 1_555 1_555
C5 C6 1_555 1_555
C13 C14 1_555 1_555

#END
