
#######################################################################
#
#                 Cambridge Crystallographic Data Centre
#                                CCDC 
#
#######################################################################
#
# If this CIF has been generated from an entry in the Cambridge 
# Structural Database, then it will include bibliographic, chemical, 
# crystal, experimental, refinement or atomic coordinate data resulting 
# from the CCDC's data processing and validation procedures.
#
#######################################################################

data_QAWVIU
_chemical_formula_moiety         'C30 H20 S2'
_chemical_name_systematic        2,5-bis(4-Biphenylyl)thieno(3,2-b)thiophene
_symmetry_cell_setting           monoclinic
_symmetry_space_group_name_H-M   'P 21/a'
_symmetry_Int_Tables_number      14
_space_group_name_Hall           '-P 2yab'
loop_
_symmetry_equiv_pos_site_id
_symmetry_equiv_pos_as_xyz
1 x,y,z
2 1/2-x,1/2+y,-z
3 -x,-y,-z
4 1/2+x,1/2-y,z
_cell_length_a                   8.0077(8)
_cell_length_b                   5.6402(5)
_cell_length_c                   23.749(2)
_cell_angle_alpha                90
_cell_angle_beta                 99.215(2)
_cell_angle_gamma                90
_cell_volume                     1058.78
_exptl_crystal_colour            yellow
_exptl_crystal_description       plate
_cell_formula_units_Z            2
_exptl_crystal_recrystallization_method sublimation
loop_
_atom_site_label
_atom_site_type_symbol
_atom_site_fract_x
_atom_site_fract_y
_atom_site_fract_z
S1 S 1.0759(2) 0.2801(3) 0.06907(6)
C1 C 0.7928(2) 0.5058(4) 0.44271(8)
H1 H 0.7767 0.5082 0.4806
C2 C 0.8858(3) 0.3289(4) 0.42323(9)
H2 H 0.9330 0.2106 0.4481
C3 C 0.9100(3) 0.3251(3) 0.36668(8)
H3 H 0.9724 0.2027 0.3541
C4 C 0.84287(19) 0.5006(3) 0.32844(7)
C5 C 0.7489(3) 0.6769(3) 0.34939(8)
H4 H 0.7016 0.7966 0.3250
C6 C 0.7236(3) 0.6791(4) 0.40580(9)
H5 H 0.6594 0.7990 0.4186
C7 C 0.87136(18) 0.4998(3) 0.26788(6)
C8 C 0.9620(2) 0.3211(3) 0.24629(8)
H6 H 1.0056 0.1978 0.2702
C9 C 0.9895(2) 0.3207(3) 0.19033(8)
H7 H 1.0509 0.1973 0.1776
C10 C 0.92746(18) 0.5008(3) 0.15261(6)
C11 C 0.8360(2) 0.6800(3) 0.17401(8)
H8 H 0.7921 0.8031 0.1501
C12 C 0.8089(2) 0.6791(3) 0.22998(8)
H9 H 0.7472 0.8020 0.2428
C13 C 0.95582(17) 0.5016(3) 0.09339(6)
C14 C 1.04778(19) 0.3992(3) 0.00364(7)
C16 C 0.8967(11) 0.6609(12) 0.0502(4)
H11 H 0.8292 0.7912 0.0550
S1B S 0.9241(2) 0.7199(3) -0.06907(6)
C1B C 1.2072(2) 0.4942(4) -0.44271(8)
H1B H 1.2233 0.4918 -0.4806
C2B C 1.1142(3) 0.6711(4) -0.42323(9)
H2B H 1.0670 0.7894 -0.4481
C3B C 1.0900(3) 0.6749(3) -0.36668(8)
H3B H 1.0276 0.7973 -0.3541
C4B C 1.15713(19) 0.4994(3) -0.32844(7)
C5B C 1.2511(3) 0.3231(3) -0.34939(8)
H4B H 1.2984 0.2034 -0.3250
C6B C 1.2764(3) 0.3209(4) -0.40580(9)
H5B H 1.3406 0.2010 -0.4186
C7B C 1.12864(18) 0.5002(3) -0.26788(6)
C8B C 1.0380(2) 0.6789(3) -0.24629(8)
H6B H 0.9944 0.8022 -0.2702
C9B C 1.0105(2) 0.6793(3) -0.19033(8)
H7B H 0.9491 0.8027 -0.1776
C10B C 1.07254(18) 0.4992(3) -0.15261(6)
C11B C 1.1640(2) 0.3200(3) -0.17401(8)
H8B H 1.2079 0.1969 -0.1501
C12B C 1.1911(2) 0.3209(3) -0.22998(8)
H9B H 1.2528 0.1980 -0.2428
C13B C 1.04418(17) 0.4984(3) -0.09339(6)
C14B C 0.95222(19) 0.6008(3) -0.00364(7)
C16B C 1.1033(11) 0.3391(12) -0.0502(4)
H11B H 1.1708 0.2088 -0.0550
S2? S 0.8703(6) 0.7194(8) 0.0477(2)
C15? C 1.0456(17) 0.341(2) 0.0649(6)
H10? H 1.0995 0.2080 0.0826
loop_
_geom_bond_atom_site_label_1
_geom_bond_atom_site_label_2
_geom_bond_site_symmetry_1
_geom_bond_site_symmetry_2
S1 C13 1_555 1_555
C1 H1 1_555 1_555
C2 C1 1_555 1_555
H2 C2 1_555 1_555
C3 C2 1_555 1_555
H3 C3 1_555 1_555
C4 C3 1_555 1_555
C5 C4 1_555 1_555
H4 C5 1_555 1_555
C6 C1 1_555 1_555
H5 C6 1_555 1_555
C7 C4 1_555 1_555
C8 C7 1_555 1_555
H6 C8 1_555 1_555
C9 C8 1_555 1_555
H7 C9 1_555 1_555
C10 C9 1_555 1_555
C11 C10 1_555 1_555
H8 C11 1_555 1_555
C12 C7 1_555 1_555
H9 C12 1_555 1_555
C13 C10 1_555 1_555
C14 S1 1_555 1_555
C16 C13 1_555 1_555
H11 C16 1_555 1_555
S1B C13B 1_555 1_555
C1B H1B 1_555 1_555
C2B C1B 1_555 1_555
H2B C2B 1_555 1_555
C3B C2B 1_555 1_555
H3B C3B 1_555 1_555
C4B C3B 1_555 1_555
C5B C4B 1_555 1_555
H4B C5B 1_555 1_555
C6B C1B 1_555 1_555
H5B C6B 1_555 1_555
C7B C4B 1_555 1_555
C8B C7B 1_555 1_555
H6B C8B 1_555 1_555
C9B C8B 1_555 1_555
H7B C9B 1_555 1_555
C10B C9B 1_555 1_555
C11B C10B 1_555 1_555
H8B C11B 1_555 1_555
C12B C7B 1_555 1_555
H9B C12B 1_555 1_555
C13B C10B 1_555 1_555
C14B C14 1_555 1_555
C16B C14 1_555 1_555
H11B C16B 1_555 1_555
C5 C6 1_555 1_555
C11 C12 1_555 1_555
C16 C14B 1_555 1_555
S1B C14B 1_555 1_555
C5B C6B 1_555 1_555
C11B C12B 1_555 1_555
C13B C16B 1_555 1_555

#END
