
#######################################################################
#
#                 Cambridge Crystallographic Data Centre
#                                CCDC 
#
#######################################################################
#
# If this CIF has been generated from an entry in the Cambridge 
# Structural Database, then it will include bibliographic, chemical, 
# crystal, experimental, refinement or atomic coordinate data resulting 
# from the CCDC's data processing and validation procedures.
#
#######################################################################

data_QAWXOC
_chemical_formula_moiety         'C12 H17 N3 O1 S2'
_chemical_name_systematic        
'4-(N-Hydroxyethyl-N-(methyl)amino)benzaldehyde S-methyl dithiocarbazate'
_symmetry_cell_setting           triclinic
_symmetry_space_group_name_H-M   'P -1'
_symmetry_Int_Tables_number      2
_space_group_name_Hall           '-P 1'
loop_
_symmetry_equiv_pos_site_id
_symmetry_equiv_pos_as_xyz
1 x,y,z
2 -x,-y,-z
_cell_length_a                   6.2870(10)
_cell_length_b                   8.7320(10)
_cell_length_c                   12.8420(10)
_cell_angle_alpha                102.790(10)
_cell_angle_beta                 91.920(10)
_cell_angle_gamma                90.650(10)
_cell_volume                     686.995
_exptl_crystal_colour            red-brown
_cell_formula_units_Z            2
_exptl_crystal_recrystallization_method ethanol
loop_
_atom_site_label
_atom_site_type_symbol
_atom_site_fract_x
_atom_site_fract_y
_atom_site_fract_z
S1 S 0.56399(8) -0.02353(5) 0.82293(4)
S2 S 0.47164(8) 0.30523(5) 0.95003(4)
O1 O 0.0850(2) -0.38389(17) 0.17289(12)
H1 H 0.1114 -0.3536 0.1186
N1 N 0.2349(2) 0.13785(17) 0.79207(12)
H2 H 0.1474 0.2143 0.8016
N2 N 0.1943(3) 0.00412(18) 0.71240(12)
N3 N -0.2045(2) -0.5002(2) 0.30822(12)
C1 C 0.7768(3) 0.0192(3) 0.92233(18)
H3 H 0.8719 -0.0677 0.9129
H4 H 0.7192 0.0363 0.9922
H5 H 0.8532 0.1119 0.9151
C2 C 0.4118(3) 0.14626(19) 0.85380(13)
C3 C 0.0124(3) -0.0025(2) 0.66311(14)
H6 H -0.0844 0.0772 0.6840
C4 C -0.0432(3) -0.1341(2) 0.57475(13)
C5 C -0.2515(3) -0.1582(2) 0.53321(14)
H7 H -0.3568 -0.0909 0.5642
C6 C -0.3057(3) -0.2797(2) 0.44720(14)
H8 H -0.4472 -0.2947 0.4232
C7 C -0.1506(3) -0.3812(2) 0.39525(13)
C8 C 0.0605(3) -0.3549(2) 0.43763(15)
H9 H 0.1679 -0.4191 0.4055
C9 C 0.1100(3) -0.2368(2) 0.52502(15)
H10 H 0.2498 -0.2247 0.5520
C10 C -0.4264(3) -0.5333(3) 0.27529(17)
H11 H -0.5147 -0.4628 0.3227
H12 H -0.4619 -0.6396 0.2777
H13 H -0.4495 -0.5192 0.2037
C11 C -0.0487(3) -0.5968(2) 0.24446(15)
H14 H -0.1025 -0.7043 0.2244
H15 H 0.0813 -0.5960 0.2874
C12 C 0.0018(3) -0.5412(2) 0.14434(15)
H16 H 0.1055 -0.6095 0.1043
H17 H -0.1262 -0.5451 0.0995
loop_
_geom_bond_atom_site_label_1
_geom_bond_atom_site_label_2
_geom_bond_site_symmetry_1
_geom_bond_site_symmetry_2
S1 C1 1_555 1_555
S2 C2 1_555 1_555
O1 H1 1_555 1_555
N1 H2 1_555 1_555
N2 N1 1_555 1_555
N3 C7 1_555 1_555
C1 H3 1_555 1_555
H4 C1 1_555 1_555
H5 C1 1_555 1_555
C2 S1 1_555 1_555
C3 N2 1_555 1_555
H6 C3 1_555 1_555
C4 C3 1_555 1_555
C5 C4 1_555 1_555
H7 C5 1_555 1_555
C6 C5 1_555 1_555
H8 C6 1_555 1_555
C7 C6 1_555 1_555
C8 C7 1_555 1_555
H9 C8 1_555 1_555
C9 C4 1_555 1_555
H10 C9 1_555 1_555
C10 N3 1_555 1_555
H11 C10 1_555 1_555
H12 C10 1_555 1_555
H13 C10 1_555 1_555
C11 N3 1_555 1_555
H14 C11 1_555 1_555
H15 C11 1_555 1_555
C12 O1 1_555 1_555
H16 C12 1_555 1_555
H17 C12 1_555 1_555
N1 C2 1_555 1_555
C8 C9 1_555 1_555
C11 C12 1_555 1_555

#END
