
#######################################################################
#
#                 Cambridge Crystallographic Data Centre
#                                CCDC 
#
#######################################################################
#
# If this CIF has been generated from an entry in the Cambridge 
# Structural Database, then it will include bibliographic, chemical, 
# crystal, experimental, refinement or atomic coordinate data resulting 
# from the CCDC's data processing and validation procedures.
#
#######################################################################

data_QAWXEU
_chemical_formula_moiety         'H12 Mg1 O6 2+,C2 N10 O2 2-,2(H2 O1)'
_chemical_name_systematic        
"hexa-aqua-magnesium azotetrazole-1,1'-dioxide dihydrate"
_symmetry_cell_setting           triclinic
_symmetry_space_group_name_H-M   'P -1'
_symmetry_Int_Tables_number      2
_space_group_name_Hall           '-P 1'
loop_
_symmetry_equiv_pos_site_id
_symmetry_equiv_pos_as_xyz
1 x,y,z
2 -x,-y,-z
_cell_length_a                   6.4426(13)
_cell_length_b                   6.5266(13)
_cell_length_c                   9.997(2)
_cell_angle_alpha                84.34(3)
_cell_angle_beta                 88.92(3)
_cell_angle_gamma                60.68(3)
_cell_volume                     364.511
_exptl_crystal_colour            orange
_exptl_crystal_description       plate
_cell_formula_units_Z            1
_chemical_properties_physical    
', This compound may be sensitive to impact, friction and other external stimuli.'
_exptl_crystal_recrystallization_method water
_exptl_crystal_preparation       ', energetic properties'
loop_
_atom_site_label
_atom_site_type_symbol
_atom_site_fract_x
_atom_site_fract_y
_atom_site_fract_z
Mg1 Mg 0.0000 1.0000 0.5000
O1 O 0.1928(5) 1.1579(5) 0.5271(3)
H1 H 0.2514 1.1644 0.5999
H2 H 0.2103 1.2518 0.4706
O2 O 0.2685(5) 0.6973(5) 0.5967(3)
H3 H 0.2684 0.5768 0.6350
H4 H 0.4041 0.6761 0.6167
O3 O 0.1542(5) 0.9054(5) 0.3103(2)
H5 H 0.2976 0.8693 0.3011
H6 H 0.0577 0.9842 0.2456
O1A O -0.1928(5) 0.8421(5) 0.4729(3)
H1A H -0.2514 0.8356 0.4001
H2A H -0.2103 0.7482 0.5294
O2A O -0.2685(5) 1.3027(5) 0.4033(3)
H3A H -0.2684 1.4232 0.3650
H4A H -0.4041 1.3239 0.3833
O3A O -0.1542(5) 1.0946(5) 0.6897(2)
H5A H -0.2976 1.1307 0.6989
H6A H -0.0577 1.0158 0.7544
O4 O 0.6273(5) 0.7358(5) 0.2668(2)
N1 N 0.6920(5) 0.7419(5) 0.1418(3)
N2 N 0.8188(5) 0.8472(5) 0.0986(3)
N3 N 0.8475(6) 0.8224(6) -0.0315(3)
N4 N 0.7412(5) 0.7044(5) -0.0728(3)
N5 N 0.5117(5) 0.5380(5) 0.0541(3)
C1 C 0.6447(6) 0.6537(6) 0.0373(3)
O4A O 0.3727(5) 0.2642(5) -0.2668(2)
N1A N 0.3080(5) 0.2581(5) -0.1418(3)
N2A N 0.1812(5) 0.1528(5) -0.0986(3)
N3A N 0.1525(6) 0.1776(6) 0.0315(3)
N4A N 0.2588(5) 0.2956(5) 0.0728(3)
N5A N 0.4883(5) 0.4620(5) -0.0541(3)
C1A C 0.3553(6) 0.3463(6) -0.0373(3)
O5 O 0.7224(5) 0.5922(4) 0.6686(2)
H7 H 0.7276 0.6273 0.7466
H8 H 0.7972 0.4447 0.6678
loop_
_geom_bond_atom_site_label_1
_geom_bond_atom_site_label_2
_geom_bond_site_symmetry_1
_geom_bond_site_symmetry_2
Mg1 O1 1_555 1_555
O1 H1 1_555 1_555
H2 O1 1_555 1_555
O2 Mg1 1_555 1_555
H3 O2 1_555 1_555
H4 O2 1_555 1_555
O3 Mg1 1_555 1_555
H5 O3 1_555 1_555
H6 O3 1_555 1_555
O4 N1 1_555 1_555
N1 N2 1_555 1_555
N2 N3 1_555 1_555
N3 N4 1_555 1_555
N4 C1 1_555 1_555
N5 C1 1_555 1_555
C1 N1 1_555 1_555
O5 H7 1_555 1_555
H8 O5 1_555 1_555
O1A Mg1 1_555 1_555
H1A O1A 1_555 1_555
H2A O1A 1_555 1_555
O2A Mg1 1_555 1_555
H3A O2A 1_555 1_555
H4A O2A 1_555 1_555
O3A Mg1 1_555 1_555
H5A O3A 1_555 1_555
H6A O3A 1_555 1_555
O4A N1A 1_555 1_555
N1A N2A 1_555 1_555
N2A N3A 1_555 1_555
N3A N4A 1_555 1_555
N4A C1A 1_555 1_555
N5A N5 1_555 1_555
C1A N1A 1_555 1_555
N5A C1A 1_555 1_555

#END
