
#######################################################################
#
#                 Cambridge Crystallographic Data Centre
#                                CCDC 
#
#######################################################################
#
# If this CIF has been generated from an entry in the Cambridge 
# Structural Database, then it will include bibliographic, chemical, 
# crystal, experimental, refinement or atomic coordinate data resulting 
# from the CCDC's data processing and validation procedures.
#
#######################################################################

data_QAXDIF
_chemical_formula_moiety         'C27 H22 N2 O4 S1'
_chemical_name_systematic        
'benzyl (6-methyl-1,1-dioxido-2-(quinolin-8-yl)-2H-1,2-benzothiazin-3-yl)acetate'
_symmetry_cell_setting           triclinic
_symmetry_space_group_name_H-M   'P -1'
_symmetry_Int_Tables_number      2
_space_group_name_Hall           '-P 1'
loop_
_symmetry_equiv_pos_site_id
_symmetry_equiv_pos_as_xyz
1 x,y,z
2 -x,-y,-z
_cell_length_a                   7.5030(3)
_cell_length_b                   12.8220(5)
_cell_length_c                   14.0326(6)
_cell_angle_alpha                63.543(4)
_cell_angle_beta                 76.488(4)
_cell_angle_gamma                75.012(3)
_cell_volume                     1156.48
_exptl_crystal_colour            colorless
_cell_formula_units_Z            2
_exptl_crystal_recrystallization_method 
'Dichloromethane / Ethyl Acetate / Dimethyl Ether'
loop_
_atom_site_label
_atom_site_type_symbol
_atom_site_fract_x
_atom_site_fract_y
_atom_site_fract_z
S1 S 1.01353(5) 0.22268(4) 0.22113(3)
O1 O 1.03151(18) 0.10056(11) 0.24244(11)
O2 O 1.17046(16) 0.26093(13) 0.22909(11)
O3 O 0.49771(17) 0.13258(10) 0.57475(9)
O4 O 0.68432(16) 0.03476(10) 0.47836(10)
N1 N 0.83419(17) 0.25831(12) 0.30217(11)
N2 N 0.69101(19) 0.47067(12) 0.32357(11)
C1 C 0.6551(2) 0.25489(13) 0.28867(13)
C2 C 0.6172(2) 0.27595(14) 0.19238(13)
H1 H 0.5023 0.2643 0.1884
C3 C 0.7461(2) 0.31605(15) 0.09386(13)
C4 C 0.6883(3) 0.37032(16) -0.00791(14)
H2 H 0.5649 0.3751 -0.0132
C5 C 0.8094(3) 0.41723(17) -0.10103(15)
C6 C 0.9927(3) 0.41411(18) -0.09224(16)
H3 H 1.0733 0.4492 -0.1538
C7 C 1.0556(3) 0.35975(18) 0.00632(15)
H4 H 1.1783 0.3569 0.0114
C8 C 0.9335(2) 0.30927(15) 0.09789(14)
C9 C 0.7469(3) 0.4712(2) -0.21014(16)
H5 H 0.7915 0.4163 -0.2433
H6 H 0.7961 0.5427 -0.2541
H7 H 0.6133 0.4890 -0.2026
C10 C 0.8680(2) 0.27332(14) 0.39147(13)
C11 C 0.9741(2) 0.18427(15) 0.46512(14)
H8 H 1.0232 0.1135 0.4575
C12 C 1.0098(3) 0.19859(17) 0.55239(15)
H9 H 1.0822 0.1375 0.6021
C13 C 0.9379(3) 0.30237(17) 0.56401(15)
H10 H 0.9601 0.3108 0.6224
C14 C 0.8302(2) 0.39689(15) 0.48838(14)
C15 C 0.7601(3) 0.50852(17) 0.49300(15)
H11 H 0.7809 0.5218 0.5492
C16 C 0.6628(3) 0.59592(16) 0.41546(16)
H12 H 0.6183 0.6700 0.4169
C17 C 0.6302(3) 0.57267(15) 0.33260(15)
H13 H 0.5611 0.6331 0.2807
C18 C 0.7933(2) 0.38347(14) 0.39974(13)
C19 C 0.5126(2) 0.23055(14) 0.38744(13)
H14 H 0.3999 0.2215 0.3715
H15 H 0.4820 0.2982 0.4059
C20 C 0.5772(2) 0.12125(14) 0.48300(13)
C21 C 0.5454(3) 0.03033(16) 0.67343(15)
H16 H 0.6781 0.0095 0.6719
H17 H 0.4992 -0.0363 0.6805
C22 C 0.4413(5) 0.0530(4) 0.7647(3)
C23 C 0.5145(5) 0.1006(4) 0.8158(3)
H18 H 0.6359 0.1151 0.7935
C24 C 0.4062(7) 0.1265(3) 0.9001(3)
H19 H 0.4551 0.1583 0.9343
C25 C 0.2247(6) 0.1048(4) 0.9334(3)
H20 H 0.1522 0.1221 0.9898
C26 C 0.1516(4) 0.0572(4) 0.8824(3)
H21 H 0.0301 0.0427 0.9047
C27 C 0.2599(5) 0.0313(3) 0.7980(3)
H22 H 0.2109 -0.0005 0.7639
C28? C 0.4764(6) 0.0732(5) 0.7641(4)
C29? C 0.6106(5) 0.1030(5) 0.7965(4)
H23? H 0.7329 0.0976 0.7627
C30? C 0.5620(7) 0.1408(4) 0.8793(4)
H24? H 0.6518 0.1608 0.9009
C31? C 0.3791(8) 0.1489(5) 0.9298(3)
H25? H 0.3466 0.1743 0.9852
C32? C 0.2449(6) 0.1192(5) 0.8974(3)
H26? H 0.1226 0.1246 0.9312
C33? C 0.2936(5) 0.0813(4) 0.8146(4)
H27? H 0.2038 0.0614 0.7930
loop_
_geom_bond_atom_site_label_1
_geom_bond_atom_site_label_2
_geom_bond_site_symmetry_1
_geom_bond_site_symmetry_2
S1 O1 1_555 1_555
O2 S1 1_555 1_555
O3 C20 1_555 1_555
O4 C20 1_555 1_555
N1 S1 1_555 1_555
N2 C17 1_555 1_555
C1 N1 1_555 1_555
C2 C1 1_555 1_555
H1 C2 1_555 1_555
C3 C2 1_555 1_555
C4 C3 1_555 1_555
H2 C4 1_555 1_555
C5 C4 1_555 1_555
C6 C5 1_555 1_555
H3 C6 1_555 1_555
C7 C6 1_555 1_555
H4 C7 1_555 1_555
C8 S1 1_555 1_555
C9 C5 1_555 1_555
H5 C9 1_555 1_555
H6 C9 1_555 1_555
H7 C9 1_555 1_555
C10 N1 1_555 1_555
C11 C10 1_555 1_555
H8 C11 1_555 1_555
C12 C11 1_555 1_555
H9 C12 1_555 1_555
C13 C12 1_555 1_555
H10 C13 1_555 1_555
C14 C13 1_555 1_555
C15 C14 1_555 1_555
H11 C15 1_555 1_555
C16 C15 1_555 1_555
H12 C16 1_555 1_555
C17 C16 1_555 1_555
H13 C17 1_555 1_555
C18 N2 1_555 1_555
C19 C1 1_555 1_555
H14 C19 1_555 1_555
H15 C19 1_555 1_555
C20 C19 1_555 1_555
C21 O3 1_555 1_555
H16 C21 1_555 1_555
H17 C21 1_555 1_555
C22 C21 1_555 1_555
C23 C22 1_555 1_555
H18 C23 1_555 1_555
C24 C23 1_555 1_555
H19 C24 1_555 1_555
C25 C24 1_555 1_555
H20 C25 1_555 1_555
C26 C25 1_555 1_555
H21 C26 1_555 1_555
C27 C22 1_555 1_555
H22 C27 1_555 1_555
C3 C8 1_555 1_555
C7 C8 1_555 1_555
C10 C18 1_555 1_555
C14 C18 1_555 1_555
C26 C27 1_555 1_555

#END
