
#######################################################################
#
#                 Cambridge Crystallographic Data Centre
#                                CCDC 
#
#######################################################################
#
# If this CIF has been generated from an entry in the Cambridge 
# Structural Database, then it will include bibliographic, chemical, 
# crystal, experimental, refinement or atomic coordinate data resulting 
# from the CCDC's data processing and validation procedures.
#
#######################################################################

data_QAXFOM
_chemical_formula_moiety         'C31 H31 B1 O2,x(C6 H14)'
_chemical_name_systematic        
"4'-(Dimesitylboryl)biphenyl-4-carboxylic acid n-hexane solvate"
_symmetry_cell_setting           monoclinic
_symmetry_space_group_name_H-M   'P 21/c'
_symmetry_Int_Tables_number      14
_space_group_name_Hall           '-P 2ybc'
loop_
_symmetry_equiv_pos_site_id
_symmetry_equiv_pos_as_xyz
1 x,y,z
2 -x,1/2+y,1/2-z
3 -x,-y,-z
4 x,1/2-y,1/2+z
_cell_length_a                   23.651(5)
_cell_length_b                   8.3188(17)
_cell_length_c                   30.357(6)
_cell_angle_alpha                90
_cell_angle_beta                 95.665(14)
_cell_angle_gamma                90
_cell_volume                     5943.51
_exptl_crystal_colour            colorless
_exptl_crystal_description       thin
_cell_formula_units_Z            8
loop_
_atom_site_label
_atom_site_type_symbol
_atom_site_fract_x
_atom_site_fract_y
_atom_site_fract_z
O3 O 0.9898(3) 0.1324(7) 0.0434(2)
H2 H 1.0139 0.0749 0.0323
O4 O 0.9299(3) 0.0417(8) -0.0143(2)
C32 C 0.9411(4) 0.1180(13) 0.0202(4)
C33 C 0.8939(6) 0.2150(12) 0.0355(4)
C34 C 0.8411(5) 0.2443(13) 0.0102(4)
H33 H 0.8354 0.2002 -0.0188
C35 C 0.7985(5) 0.3316(13) 0.0251(4)
H34 H 0.7634 0.3452 0.0074
C36 C 0.8075(5) 0.4021(13) 0.0676(4)
C37 C 0.8585(5) 0.3803(11) 0.0936(3)
H35 H 0.8644 0.4256 0.1224
C38 C 0.9019(4) 0.2887(12) 0.0761(4)
H36 H 0.9377 0.2781 0.0931
C39 C 0.7624(5) 0.5016(14) 0.0850(4)
C40 C 0.7268(5) 0.6004(12) 0.0548(3)
H37 H 0.7337 0.6009 0.0245
C41 C 0.6833(4) 0.6940(12) 0.0675(4)
H38 H 0.6608 0.7590 0.0468
C42 C 0.6732(4) 0.6887(12) 0.1143(4)
C43 C 0.7060(4) 0.5913(12) 0.1436(3)
H39 H 0.6991 0.5860 0.1738
C44 C 0.7511(4) 0.4973(10) 0.1271(4)
H40 H 0.7735 0.4300 0.1472
C45 C 0.6468(3) 1.0665(14) 0.0913(3)
C46 C 0.6323(5) 1.1977(11) 0.0641(4)
H41 H 0.6607 1.2729 0.0578
C47 C 0.5765(7) 1.2190(10) 0.0462(3)
C48 C 0.5350(4) 1.1091(16) 0.0555(3)
H42 H 0.4968 1.1236 0.0433
C49 C 0.5494(4) 0.9778(13) 0.0826(3)
C50 C 0.6053(5) 0.9565(9) 0.1005(3)
C51 C 0.7090(4) 1.0585(12) 0.1079(4)
H43 H 0.7151 0.9729 0.1300
H44 H 0.7210 1.1616 0.1214
H45 H 0.7313 1.0359 0.0831
C52 C 0.5573(7) 1.3721(17) 0.0167(5)
H46 H 0.5228 1.3463 -0.0025
H47 H 0.5877 1.4018 -0.0014
H48 H 0.5497 1.4622 0.0361
C53 C 0.5033(4) 0.8531(16) 0.0930(4)
H49 H 0.5127 0.7478 0.0812
H50 H 0.4661 0.8880 0.0792
H51 H 0.5022 0.8452 0.1251
C54 C 0.6014(3) 0.7603(11) 0.1742(2)
C55 C 0.6064(3) 0.8719(8) 0.2084(3)
C56 C 0.5849(3) 0.8367(11) 0.2483(3)
H52 H 0.5883 0.9129 0.2717
C57 C 0.5585(3) 0.6899(13) 0.2540(3)
C58 C 0.5535(3) 0.5783(8) 0.2197(4)
H53 H 0.5355 0.4780 0.2236
C59 C 0.5750(3) 0.6135(9) 0.1798(3)
C60 C 0.6354(4) 1.0293(11) 0.2055(4)
H54 H 0.6510 1.0632 0.2352
H55 H 0.6081 1.1097 0.1930
H56 H 0.6663 1.0189 0.1865
C61 C 0.5332(5) 0.6486(14) 0.2988(4)
H57 H 0.5436 0.7332 0.3206
H58 H 0.5485 0.5454 0.3101
H59 H 0.4917 0.6416 0.2937
C62 C 0.5655(5) 0.4833(13) 0.1443(3)
H60 H 0.5441 0.3940 0.1556
H61 H 0.6023 0.4439 0.1365
H62 H 0.5440 0.5284 0.1179
B2 B 0.6247(5) 0.7983(16) 0.1320(5)
O1 O 1.0225(3) -0.4081(8) 0.0460(2)
O2 O 0.9354(3) -0.3973(7) 0.0087(2)
H1 H 0.9509 -0.4605 -0.0080
C1 C 0.9715(6) -0.3616(16) 0.0431(5)
C2 C 0.9510(5) -0.2543(13) 0.0787(4)
C3 C 0.8963(5) -0.2163(12) 0.0750(4)
H3 H 0.8713 -0.2579 0.0513
C4 C 0.8760(4) -0.1149(12) 0.1062(3)
H4 H 0.8377 -0.0793 0.1029
C5 C 0.9123(5) -0.0668(13) 0.1420(4)
C6 C 0.9689(4) -0.1118(12) 0.1453(3)
H5 H 0.9944 -0.0775 0.1696
C7 C 0.9877(4) -0.2077(12) 0.1126(3)
H6 H 1.0263 -0.2402 0.1141
C8 C 0.8913(5) 0.0407(12) 0.1790(3)
C9 C 0.8343(5) 0.0456(11) 0.1861(4)
H7 H 0.8075 -0.0177 0.1684
C10 C 0.8162(5) 0.1438(13) 0.2196(4)
H8 H 0.7772 0.1430 0.2248
C11 C 0.8537(5) 0.2422(12) 0.2451(3)
C12 C 0.9084(5) 0.2367(13) 0.2378(3)
H9 H 0.9346 0.3016 0.2556
C13 C 0.9287(4) 0.1416(12) 0.2056(3)
H10 H 0.9680 0.1439 0.2013
C14 C 0.7691(3) 0.3077(13) 0.2969(3)
C15 C 0.7577(4) 0.1580(11) 0.3144(3)
C16 C 0.7038(5) 0.1243(10) 0.3265(3)
H11 H 0.6960 0.0220 0.3384
C17 C 0.6614(3) 0.2401(15) 0.3211(3)
C18 C 0.6728(4) 0.3898(12) 0.3037(3)
H12 H 0.6437 0.4689 0.3000
C19 C 0.7267(5) 0.4235(9) 0.2915(3)
C20 C 0.8028(4) 0.0298(12) 0.3233(4)
H13 H 0.7857 -0.0664 0.3352
H14 H 0.8330 0.0701 0.3448
H15 H 0.8187 0.0026 0.2956
C21 C 0.6031(5) 0.1941(17) 0.3348(5)
H16 H 0.5736 0.2531 0.3165
H17 H 0.6012 0.2214 0.3660
H18 H 0.5972 0.0783 0.3306
C22 C 0.7333(5) 0.5943(13) 0.2746(4)
H19 H 0.6958 0.6382 0.2645
H20 H 0.7569 0.5929 0.2498
H21 H 0.7513 0.6615 0.2985
C23 C 0.8637(3) 0.5059(7) 0.2970(3)
C24 C 0.8783(3) 0.5305(8) 0.3420(3)
C25 C 0.9106(3) 0.6636(10) 0.35631(19)
H22 H 0.9205 0.6804 0.3871
C26 C 0.9282(2) 0.7722(8) 0.3257(3)
C27 C 0.9136(3) 0.7476(8) 0.2807(2)
H23 H 0.9257 0.8218 0.2597
C28 C 0.8814(3) 0.6145(10) 0.2664(2)
C29 C 0.8591(4) 0.4136(13) 0.3752(3)
H24 H 0.8175 0.4126 0.3733
H25 H 0.8744 0.4461 0.4050
H26 H 0.8729 0.3057 0.3689
C30 C 0.9632(4) 0.9243(12) 0.3441(4)
H27 H 0.9628 0.9297 0.3763
H28 H 0.9459 1.0219 0.3306
H29 H 1.0025 0.9154 0.3367
C31 C 0.8672(4) 0.6089(11) 0.2180(3)
H30 H 0.8458 0.5106 0.2100
H31 H 0.9023 0.6097 0.2033
H32 H 0.8441 0.7028 0.2085
B1 B 0.8291(6) 0.3505(15) 0.2789(4)
loop_
_geom_bond_atom_site_label_1
_geom_bond_atom_site_label_2
_geom_bond_site_symmetry_1
_geom_bond_site_symmetry_2
O1 C1 1_555 1_555
O2 H1 1_555 1_555
O3 H2 1_555 1_555
O4 C32 1_555 1_555
C1 O2 1_555 1_555
C2 C1 1_555 1_555
C3 C2 1_555 1_555
H3 C3 1_555 1_555
C4 C3 1_555 1_555
H4 C4 1_555 1_555
C5 C4 1_555 1_555
C6 C5 1_555 1_555
H5 C6 1_555 1_555
C7 C2 1_555 1_555
H6 C7 1_555 1_555
C8 C5 1_555 1_555
C9 C8 1_555 1_555
H7 C9 1_555 1_555
C10 C9 1_555 1_555
H8 C10 1_555 1_555
C11 C10 1_555 1_555
C12 C11 1_555 1_555
H9 C12 1_555 1_555
C13 C8 1_555 1_555
H10 C13 1_555 1_555
C14 C15 1_555 1_555
C15 C16 1_555 1_555
C16 H11 1_555 1_555
C17 C16 1_555 1_555
C18 C17 1_555 1_555
H12 C18 1_555 1_555
C19 C14 1_555 1_555
C20 C15 1_555 1_555
H13 C20 1_555 1_555
H14 C20 1_555 1_555
H15 C20 1_555 1_555
C21 C17 1_555 1_555
H16 C21 1_555 1_555
H17 C21 1_555 1_555
H18 C21 1_555 1_555
C22 C19 1_555 1_555
H19 C22 1_555 1_555
H20 C22 1_555 1_555
H21 C22 1_555 1_555
C23 C24 1_555 1_555
C24 C25 1_555 1_555
C25 H22 1_555 1_555
C26 C25 1_555 1_555
C27 C26 1_555 1_555
H23 C27 1_555 1_555
C28 C23 1_555 1_555
C29 C24 1_555 1_555
H24 C29 1_555 1_555
H25 C29 1_555 1_555
H26 C29 1_555 1_555
C30 C26 1_555 1_555
H27 C30 1_555 1_555
H28 C30 1_555 1_555
H29 C30 1_555 1_555
C31 C28 1_555 1_555
H30 C31 1_555 1_555
H31 C31 1_555 1_555
H32 C31 1_555 1_555
C32 O3 1_555 1_555
C33 C32 1_555 1_555
C34 C33 1_555 1_555
H33 C34 1_555 1_555
C35 C34 1_555 1_555
H34 C35 1_555 1_555
C36 C35 1_555 1_555
C37 C36 1_555 1_555
H35 C37 1_555 1_555
C38 C33 1_555 1_555
H36 C38 1_555 1_555
C39 C36 1_555 1_555
C40 C39 1_555 1_555
H37 C40 1_555 1_555
C41 C40 1_555 1_555
H38 C41 1_555 1_555
C42 C41 1_555 1_555
C43 C42 1_555 1_555
H39 C43 1_555 1_555
C44 C39 1_555 1_555
H40 C44 1_555 1_555
C45 C46 1_555 1_555
C46 H41 1_555 1_555
C47 C46 1_555 1_555
C48 C47 1_555 1_555
H42 C48 1_555 1_555
C49 C48 1_555 1_555
C50 C45 1_555 1_555
C51 C45 1_555 1_555
H43 C51 1_555 1_555
H44 C51 1_555 1_555
H45 C51 1_555 1_555
C52 C47 1_555 1_555
H46 C52 1_555 1_555
H47 C52 1_555 1_555
H48 C52 1_555 1_555
C53 C49 1_555 1_555
H49 C53 1_555 1_555
H50 C53 1_555 1_555
H51 C53 1_555 1_555
C54 C55 1_555 1_555
C55 C56 1_555 1_555
C56 H52 1_555 1_555
C57 C56 1_555 1_555
C58 C57 1_555 1_555
H53 C58 1_555 1_555
C59 C54 1_555 1_555
C60 C55 1_555 1_555
H54 C60 1_555 1_555
H55 C60 1_555 1_555
H56 C60 1_555 1_555
C61 C57 1_555 1_555
H57 C61 1_555 1_555
H58 C61 1_555 1_555
H59 C61 1_555 1_555
C62 C59 1_555 1_555
H60 C62 1_555 1_555
H61 C62 1_555 1_555
H62 C62 1_555 1_555
B1 C11 1_555 1_555
B2 C42 1_555 1_555
C6 C7 1_555 1_555
C12 C13 1_555 1_555
C14 B1 1_555 1_555
C18 C19 1_555 1_555
C23 B1 1_555 1_555
C27 C28 1_555 1_555
C37 C38 1_555 1_555
C43 C44 1_555 1_555
C49 C50 1_555 1_555
C50 B2 1_555 1_555
C54 B2 1_555 1_555
C58 C59 1_555 1_555

#END
