
#######################################################################
#
#                 Cambridge Crystallographic Data Centre
#                                CCDC 
#
#######################################################################
#
# If this CIF has been generated from an entry in the Cambridge 
# Structural Database, then it will include bibliographic, chemical, 
# crystal, experimental, refinement or atomic coordinate data resulting 
# from the CCDC's data processing and validation procedures.
#
#######################################################################

data_QAXGEE
_chemical_compound_source        'microbial transformation product'
_chemical_name_common            3alpha-hydroxy-3beta,17-epoxy-harzianone
_chemical_formula_moiety         'C20 H28 O3'
_chemical_name_systematic        
4-hydroxy-2,7,11,15-tetramethyl-5-oxapentacyclo[8.7.0.0^1,7^.0^4,8^.0^11,14^]heptadec-14-en-13-one
_symmetry_cell_setting           orthorhombic
_symmetry_space_group_name_H-M   'P 21 21 21'
_symmetry_Int_Tables_number      19
_space_group_name_Hall           'P 2ac 2ab'
loop_
_symmetry_equiv_pos_site_id
_symmetry_equiv_pos_as_xyz
1 x,y,z
2 1/2-x,-y,1/2+z
3 1/2+x,1/2-y,-z
4 -x,1/2+y,1/2-z
_cell_length_a                   8.502(2)
_cell_length_b                   25.020(5)
_cell_length_c                   32.864(7)
_cell_angle_alpha                90
_cell_angle_beta                 90
_cell_angle_gamma                90
_cell_volume                     6990.83
_exptl_crystal_colour            colorless
_exptl_crystal_description       Prism
_cell_formula_units_Z            16
_exptl_crystal_recrystallization_method methanol/water
loop_
_atom_site_label
_atom_site_type_symbol
_atom_site_fract_x
_atom_site_fract_y
_atom_site_fract_z
O1 O 1.0417(5) 0.62507(18) 0.84449(8)
O2 O 0.8697(5) 0.55416(18) 0.85087(9)
H1 H 0.9372 0.5365 0.8626
O3 O 0.9092(6) 0.5745(2) 0.58682(9)
C1 C 1.1536(6) 0.6080(2) 0.77933(12)
C2 C 1.0513(6) 0.5607(2) 0.79242(11)
H2 H 1.1142 0.5331 0.8060
C3 C 0.9428(7) 0.5889(2) 0.82245(12)
C4 C 0.8175(7) 0.6202(3) 0.80058(13)
H3 H 0.7566 0.6404 0.8203
H4 H 0.7468 0.5956 0.7869
C5 C 0.8885(8) 0.6592(2) 0.76887(13)
H5 H 0.8090 0.6623 0.7474
C6 C 1.0367(6) 0.6345(2) 0.74772(12)
C7 C 1.1205(8) 0.6758(2) 0.72072(14)
H6 H 1.2080 0.6580 0.7074
H7 H 1.1643 0.7031 0.7383
C8 C 1.0219(9) 0.7037(2) 0.68775(15)
H8 H 0.9221 0.7142 0.6996
H9 H 1.0761 0.7360 0.6794
C9 C 0.9899(7) 0.6700(2) 0.65028(14)
C10 C 0.9211(7) 0.6225(2) 0.65277(12)
C11 C 0.9084(7) 0.5777(3) 0.62291(12)
C12 C 0.8908(8) 0.5383(2) 0.65723(12)
H10 H 0.9843 0.5171 0.6622
H11 H 0.7985 0.5157 0.6549
C13 C 0.8699(7) 0.5862(2) 0.68784(12)
C14 C 0.9934(6) 0.58395(18) 0.72238(12)
H12 H 1.0915 0.5747 0.7084
C15 C 0.9727(7) 0.53869(19) 0.75407(12)
H13 H 0.8622 0.5314 0.7589
H14 H 1.0238 0.5061 0.7450
C16 C 1.3163(8) 0.5949(3) 0.76262(15)
H15 H 1.3790 0.5791 0.7837
H16 H 1.3658 0.6272 0.7533
H17 H 1.3065 0.5704 0.7403
C17 C 1.1741(8) 0.6376(3) 0.81974(14)
H18 H 1.2704 0.6262 0.8330
H19 H 1.1798 0.6758 0.8151
C18 C 0.9061(10) 0.7148(3) 0.78639(18)
H20 H 0.8085 0.7257 0.7985
H21 H 0.9336 0.7393 0.7651
H22 H 0.9873 0.7148 0.8067
C19 C 0.6980(7) 0.5921(2) 0.69880(14)
H23 H 0.6854 0.6215 0.7173
H24 H 0.6616 0.5598 0.7115
H25 H 0.6380 0.5987 0.6746
C20 C 1.0418(10) 0.6928(3) 0.61046(16)
H26 H 1.0166 0.6682 0.5890
H27 H 1.1533 0.6987 0.6110
H28 H 0.9887 0.7261 0.6058
O4 O 0.5047(6) 0.40185(18) 0.86672(9)
O5 O 0.3794(5) 0.48323(16) 0.85725(10)
H29 H 0.4484 0.4979 0.8706
O6 O 0.3195(7) 0.3728(3) 0.60899(11)
C21 C 0.3953(8) 0.3537(2) 0.81152(13)
C22 C 0.3137(6) 0.4073(2) 0.81522(13)
H30 H 0.2186 0.4049 0.8320
C23 C 0.4432(7) 0.4391(2) 0.83676(12)
C24 C 0.5735(7) 0.4536(2) 0.80798(13)
H31 H 0.6597 0.4692 0.8232
H32 H 0.5356 0.4804 0.7890
C25 C 0.6342(6) 0.4048(2) 0.78402(12)
H33 H 0.6685 0.4192 0.7577
C26 C 0.5008(6) 0.3641(2) 0.77333(12)
C27 C 0.5695(8) 0.3136(2) 0.75446(15)
H34 H 0.4833 0.2892 0.7491
H35 H 0.6364 0.2968 0.7747
C28 C 0.6646(8) 0.3193(2) 0.71537(14)
H36 H 0.7367 0.3490 0.7185
H37 H 0.7274 0.2872 0.7118
C29 C 0.5700(8) 0.3280(2) 0.67752(14)
C30 C 0.4716(7) 0.3689(2) 0.67317(12)
C31 C 0.3468(9) 0.3829(3) 0.64351(14)
C32 C 0.2687(9) 0.4184(3) 0.67456(14)
H38 H 0.1736 0.4033 0.6861
H39 H 0.2509 0.4546 0.6651
C33 C 0.4163(7) 0.4124(2) 0.70252(12)
C34 C 0.3751(6) 0.39001(19) 0.74449(12)
H40 H 0.3039 0.3603 0.7383
C35 C 0.2764(6) 0.4262(2) 0.77247(13)
H41 H 0.3054 0.4634 0.7690
H42 H 0.1651 0.4222 0.7667
C36 C 0.2832(9) 0.3063(2) 0.80662(17)
H43 H 0.2226 0.3020 0.8310
H44 H 0.3429 0.2744 0.8016
H45 H 0.2138 0.3127 0.7841
C37 C 0.4782(9) 0.3489(2) 0.85207(14)
H46 H 0.4136 0.3290 0.8711
H47 H 0.5774 0.3302 0.8488
C38 C 0.7847(8) 0.3819(3) 0.80364(17)
H48 H 0.8576 0.4105 0.8087
H49 H 0.8316 0.3564 0.7856
H50 H 0.7584 0.3648 0.8289
C39 C 0.5183(9) 0.4623(3) 0.69974(14)
H51 H 0.6095 0.4580 0.7167
H52 H 0.4591 0.4927 0.7087
H53 H 0.5507 0.4676 0.6720
C40 C 0.5823(11) 0.2851(3) 0.64515(17)
H54 H 0.5163 0.2944 0.6225
H55 H 0.5491 0.2515 0.6563
H56 H 0.6894 0.2824 0.6362
O7 O 0.4983(7) 0.5999(2) 0.39313(10)
O8 O 0.4142(5) 0.51222(18) 0.39633(10)
H57 H 0.3405 0.5195 0.3812
O9 O 0.3135(7) 0.5855(3) 0.65125(11)
C41 C 0.3805(8) 0.6362(2) 0.45223(14)
C42 C 0.3169(6) 0.5805(2) 0.44423(13)
H58 H 0.2205 0.5818 0.4279
C43 C 0.4517(7) 0.5571(2) 0.42008(13)
C44 C 0.5873(7) 0.5431(3) 0.44752(14)
H59 H 0.6761 0.5321 0.4310
H60 H 0.5576 0.5130 0.4645
C45 C 0.6382(7) 0.5901(3) 0.47508(13)
H61 H 0.6793 0.5735 0.4999
C46 C 0.4918(7) 0.6238(2) 0.48906(13)
C47 C 0.5438(10) 0.6743(2) 0.51178(16)
H62 H 0.4505 0.6946 0.5190
H63 H 0.6050 0.6962 0.4932
C48 C 0.6415(9) 0.6656(2) 0.55069(16)
H64 H 0.7200 0.6384 0.5452
H65 H 0.6969 0.6985 0.5569
C49 C 0.5491(8) 0.6492(2) 0.58754(15)
C50 C 0.4671(6) 0.6040(2) 0.58862(12)
C51 C 0.3469(7) 0.5810(3) 0.61601(13)
C52 C 0.2833(7) 0.5460(3) 0.58230(15)
H66 H 0.1827 0.5578 0.5716
H67 H 0.2810 0.5083 0.5890
C53 C 0.4293(6) 0.56303(19) 0.55520(12)
C54 C 0.3764(6) 0.58953(18) 0.51591(11)
H68 H 0.2974 0.6155 0.5249
C55 C 0.2867(6) 0.5544(2) 0.48544(13)
H69 H 0.3261 0.5181 0.4859
H70 H 0.1751 0.5540 0.4916
C56 C 0.2525(10) 0.6776(3) 0.4618(2)
H71 H 0.1890 0.6833 0.4380
H72 H 0.3009 0.7107 0.4697
H73 H 0.1877 0.6647 0.4836
C57 C 0.4566(11) 0.6486(3) 0.41178(17)
H74 H 0.3838 0.6682 0.3946
H75 H 0.5495 0.6705 0.4159
C58 C 0.7777(10) 0.6223(5) 0.45702(19)
H76 H 0.8605 0.5981 0.4494
H77 H 0.8161 0.6470 0.4770
H78 H 0.7428 0.6415 0.4334
C59 C 0.5460(8) 0.5174(2) 0.55397(14)
H79 H 0.6355 0.5276 0.5379
H80 H 0.4971 0.4865 0.5421
H81 H 0.5795 0.5091 0.5811
C60 C 0.5419(11) 0.6879(3) 0.62232(18)
H82 H 0.4796 0.6730 0.6439
H83 H 0.4953 0.7208 0.6133
H84 H 0.6464 0.6948 0.6321
O10 O 1.0617(4) 0.38312(16) 0.39626(8)
O11 O 0.8957(5) 0.45532(15) 0.39739(9)
H85 H 0.8155 0.4453 0.3858
O12 O 0.9082(6) 0.3774(2) 0.65420(9)
C61 C 1.1600(5) 0.38604(18) 0.46396(12)
C62 C 1.0561(6) 0.43445(19) 0.45558(12)
H86 H 1.1193 0.4651 0.4468
C63 C 0.9564(6) 0.4134(2) 0.42105(11)
C64 C 0.8280(6) 0.3757(2) 0.43655(11)
H87 H 0.7739 0.3597 0.4136
H88 H 0.7516 0.3959 0.4522
C65 C 0.8978(6) 0.33141(19) 0.46326(12)
H89 H 0.8143 0.3214 0.4824
C66 C 1.0384(6) 0.35114(18) 0.49021(11)
C67 C 1.1180(6) 0.30468(19) 0.51224(13)
H90 H 1.2015 0.3191 0.5291
H91 H 1.1668 0.2818 0.4920
C68 C 1.0109(7) 0.2697(2) 0.53929(15)
H92 H 0.9119 0.2639 0.5253
H93 H 1.0604 0.2351 0.5431
C69 C 0.9786(6) 0.2938(2) 0.57985(14)
C70 C 0.9109(6) 0.3419(2) 0.58376(12)
C71 C 0.9000(7) 0.3801(3) 0.61850(13)
C72 C 0.8693(8) 0.4255(3) 0.58894(13)
H94 H 0.9563 0.4504 0.5865
H95 H 0.7714 0.4443 0.5939
C73 C 0.8600(6) 0.38402(19) 0.55328(11)
C74 C 0.9848(5) 0.39551(17) 0.52096(10)
H96 H 1.0798 0.4022 0.5370
C75 C 0.9673(7) 0.44704(18) 0.49538(12)
H97 H 0.8575 0.4548 0.4900
H98 H 1.0141 0.4774 0.5092
C76 C 1.3166(6) 0.3961(2) 0.48559(15)
H99 H 1.3836 0.4172 0.4684
H100 H 1.3667 0.3625 0.4913
H101 H 1.2979 0.4148 0.5106
C77 C 1.1924(7) 0.3670(3) 0.42073(13)
H102 H 1.2888 0.3829 0.4105
H103 H 1.2037 0.3284 0.4202
C78 C 0.9318(8) 0.2813(2) 0.43827(15)
H104 H 0.8406 0.2721 0.4225
H105 H 0.9573 0.2523 0.4562
H106 H 1.0188 0.2880 0.4204
C79 C 0.6908(7) 0.3781(2) 0.53963(13)
H107 H 0.6849 0.3522 0.5181
H108 H 0.6526 0.4119 0.5300
H109 H 0.6275 0.3665 0.5622
C80 C 1.0322(10) 0.2636(3) 0.61707(17)
H110 H 1.0061 0.2837 0.6410
H111 H 1.1440 0.2584 0.6159
H112 H 0.9807 0.2295 0.6180
loop_
_geom_bond_atom_site_label_1
_geom_bond_atom_site_label_2
_geom_bond_site_symmetry_1
_geom_bond_site_symmetry_2
O1 C3 1_555 1_555
O2 H1 1_555 1_555
O3 C11 1_555 1_555
C1 C2 1_555 1_555
C2 H2 1_555 1_555
C3 O2 1_555 1_555
C4 C3 1_555 1_555
H3 C4 1_555 1_555
H4 C4 1_555 1_555
C5 C4 1_555 1_555
H5 C5 1_555 1_555
C6 C1 1_555 1_555
C7 C6 1_555 1_555
H6 C7 1_555 1_555
H7 C7 1_555 1_555
C8 C7 1_555 1_555
H8 C8 1_555 1_555
H9 C8 1_555 1_555
C9 C8 1_555 1_555
C10 C9 1_555 1_555
C11 C10 1_555 1_555
C12 C11 1_555 1_555
H10 C12 1_555 1_555
H11 C12 1_555 1_555
C13 C10 1_555 1_555
C14 C6 1_555 1_555
H12 C14 1_555 1_555
C15 C2 1_555 1_555
H13 C15 1_555 1_555
H14 C15 1_555 1_555
C16 C1 1_555 1_555
H15 C16 1_555 1_555
H16 C16 1_555 1_555
H17 C16 1_555 1_555
C17 O1 1_555 1_555
H18 C17 1_555 1_555
H19 C17 1_555 1_555
C18 C5 1_555 1_555
H20 C18 1_555 1_555
H21 C18 1_555 1_555
H22 C18 1_555 1_555
C19 C13 1_555 1_555
H23 C19 1_555 1_555
H24 C19 1_555 1_555
H25 C19 1_555 1_555
C20 C9 1_555 1_555
H26 C20 1_555 1_555
H27 C20 1_555 1_555
H28 C20 1_555 1_555
O4 C23 1_555 1_555
O5 H29 1_555 1_555
O6 C31 1_555 1_555
C21 C22 1_555 1_555
C22 H30 1_555 1_555
C23 O5 1_555 1_555
C24 C23 1_555 1_555
H31 C24 1_555 1_555
H32 C24 1_555 1_555
C25 C24 1_555 1_555
H33 C25 1_555 1_555
C26 C21 1_555 1_555
C27 C26 1_555 1_555
H34 C27 1_555 1_555
H35 C27 1_555 1_555
C28 C27 1_555 1_555
H36 C28 1_555 1_555
H37 C28 1_555 1_555
C29 C28 1_555 1_555
C30 C29 1_555 1_555
C31 C30 1_555 1_555
C32 C31 1_555 1_555
H38 C32 1_555 1_555
H39 C32 1_555 1_555
C33 C30 1_555 1_555
C34 C26 1_555 1_555
H40 C34 1_555 1_555
C35 C22 1_555 1_555
H41 C35 1_555 1_555
H42 C35 1_555 1_555
C36 C21 1_555 1_555
H43 C36 1_555 1_555
H44 C36 1_555 1_555
H45 C36 1_555 1_555
C37 O4 1_555 1_555
H46 C37 1_555 1_555
H47 C37 1_555 1_555
C38 C25 1_555 1_555
H48 C38 1_555 1_555
H49 C38 1_555 1_555
H50 C38 1_555 1_555
C39 C33 1_555 1_555
H51 C39 1_555 1_555
H52 C39 1_555 1_555
H53 C39 1_555 1_555
C40 C29 1_555 1_555
H54 C40 1_555 1_555
H55 C40 1_555 1_555
H56 C40 1_555 1_555
O7 C43 1_555 1_555
O8 H57 1_555 1_555
O9 C51 1_555 1_555
C41 C42 1_555 1_555
C42 H58 1_555 1_555
C43 O8 1_555 1_555
C44 C43 1_555 1_555
H59 C44 1_555 1_555
H60 C44 1_555 1_555
C45 C44 1_555 1_555
H61 C45 1_555 1_555
C46 C41 1_555 1_555
C47 C46 1_555 1_555
H62 C47 1_555 1_555
H63 C47 1_555 1_555
C48 C47 1_555 1_555
H64 C48 1_555 1_555
H65 C48 1_555 1_555
C49 C48 1_555 1_555
C50 C49 1_555 1_555
C51 C50 1_555 1_555
C52 C51 1_555 1_555
H66 C52 1_555 1_555
H67 C52 1_555 1_555
C53 C50 1_555 1_555
C54 C46 1_555 1_555
H68 C54 1_555 1_555
C55 C42 1_555 1_555
H69 C55 1_555 1_555
H70 C55 1_555 1_555
C56 C41 1_555 1_555
H71 C56 1_555 1_555
H72 C56 1_555 1_555
H73 C56 1_555 1_555
C57 O7 1_555 1_555
H74 C57 1_555 1_555
H75 C57 1_555 1_555
C58 C45 1_555 1_555
H76 C58 1_555 1_555
H77 C58 1_555 1_555
H78 C58 1_555 1_555
C59 C53 1_555 1_555
H79 C59 1_555 1_555
H80 C59 1_555 1_555
H81 C59 1_555 1_555
C60 C49 1_555 1_555
H82 C60 1_555 1_555
H83 C60 1_555 1_555
H84 C60 1_555 1_555
O10 C63 1_555 1_555
O11 H85 1_555 1_555
O12 C71 1_555 1_555
C61 C62 1_555 1_555
C62 H86 1_555 1_555
C63 O11 1_555 1_555
C64 C63 1_555 1_555
H87 C64 1_555 1_555
H88 C64 1_555 1_555
C65 C64 1_555 1_555
H89 C65 1_555 1_555
C66 C61 1_555 1_555
C67 C66 1_555 1_555
H90 C67 1_555 1_555
H91 C67 1_555 1_555
C68 C67 1_555 1_555
H92 C68 1_555 1_555
H93 C68 1_555 1_555
C69 C68 1_555 1_555
C70 C69 1_555 1_555
C71 C70 1_555 1_555
C72 C71 1_555 1_555
H94 C72 1_555 1_555
H95 C72 1_555 1_555
C73 C70 1_555 1_555
C74 C66 1_555 1_555
H96 C74 1_555 1_555
C75 C62 1_555 1_555
H97 C75 1_555 1_555
H98 C75 1_555 1_555
C76 C61 1_555 1_555
H99 C76 1_555 1_555
H100 C76 1_555 1_555
H101 C76 1_555 1_555
C77 O10 1_555 1_555
H102 C77 1_555 1_555
H103 C77 1_555 1_555
C78 C65 1_555 1_555
H104 C78 1_555 1_555
H105 C78 1_555 1_555
H106 C78 1_555 1_555
C79 C73 1_555 1_555
H107 C79 1_555 1_555
H108 C79 1_555 1_555
H109 C79 1_555 1_555
C80 C69 1_555 1_555
H110 C80 1_555 1_555
H111 C80 1_555 1_555
H112 C80 1_555 1_555
C1 C17 1_555 1_555
C2 C3 1_555 1_555
C5 C6 1_555 1_555
C12 C13 1_555 1_555
C13 C14 1_555 1_555
C14 C15 1_555 1_555
C21 C37 1_555 1_555
C22 C23 1_555 1_555
C25 C26 1_555 1_555
C32 C33 1_555 1_555
C33 C34 1_555 1_555
C34 C35 1_555 1_555
C41 C57 1_555 1_555
C42 C43 1_555 1_555
C45 C46 1_555 1_555
C52 C53 1_555 1_555
C53 C54 1_555 1_555
C54 C55 1_555 1_555
C61 C77 1_555 1_555
C62 C63 1_555 1_555
C65 C66 1_555 1_555
C72 C73 1_555 1_555
C73 C74 1_555 1_555
C74 C75 1_555 1_555

#END
