
#######################################################################
#
#                 Cambridge Crystallographic Data Centre
#                                CCDC 
#
#######################################################################
#
# If this CIF has been generated from an entry in the Cambridge 
# Structural Database, then it will include bibliographic, chemical, 
# crystal, experimental, refinement or atomic coordinate data resulting 
# from the CCDC's data processing and validation procedures.
#
#######################################################################

data_QAXGUU
_chemical_formula_moiety         'C19 H14 N2 O1 S1'
_chemical_name_systematic        1,3-diphenyl-1,2,4-benzothiadiazin-1-one
_symmetry_cell_setting           orthorhombic
_symmetry_space_group_name_H-M   'P n a 21'
_symmetry_Int_Tables_number      33
_space_group_name_Hall           'P 2c -2n'
loop_
_symmetry_equiv_pos_site_id
_symmetry_equiv_pos_as_xyz
1 x,y,z
2 -x,-y,1/2+z
3 1/2+x,1/2-y,z
4 1/2-x,1/2+y,1/2+z
_cell_length_a                   9.9051(4)
_cell_length_b                   16.1085(6)
_cell_length_c                   10.0597(4)
_cell_angle_alpha                90
_cell_angle_beta                 90
_cell_angle_gamma                90
_cell_volume                     1605.09
_exptl_crystal_colour            colorless
_exptl_crystal_description       block
_cell_formula_units_Z            4
loop_
_atom_site_label
_atom_site_type_symbol
_atom_site_fract_x
_atom_site_fract_y
_atom_site_fract_z
S1 S 0.52948(5) 0.95607(3) -0.11740(7)
N1 N 0.6564(2) 0.96029(13) -0.0275(2)
O1 O 0.5506(2) 0.93924(14) -0.2563(2)
C1 C 0.2479(3) 1.13350(19) -0.1188(4)
H1 H 0.1583 1.1406 -0.1439
C2 C 0.4429(2) 1.04841(15) -0.0943(2)
N2 N 0.6511(2) 1.10874(13) 0.0024(2)
C3 C 0.8484(3) 1.03197(17) 0.0624(3)
C4 C 0.5179(2) 1.11396(16) -0.0407(3)
C5 C 0.9238(3) 0.9604(2) 0.0499(4)
H2 H 0.8875 0.9147 0.0062
C6 C 0.4300(2) 0.87488(15) -0.0524(3)
C7 C 0.3084(3) 1.05728(17) -0.1332(3)
H3 H 0.2608 1.0126 -0.1681
C8 C 0.4516(3) 1.19058(18) -0.0299(3)
H4 H 0.4984 1.2362 0.0032
C9 C 0.4213(3) 0.86419(18) 0.0831(3)
H5 H 0.4688 0.8990 0.1401
C10 C 0.3599(3) 0.82434(17) -0.1395(3)
H6 H 0.3666 0.8322 -0.2309
C11 C 0.7093(2) 1.03634(15) 0.0075(3)
C12 C 1.0330(3) 1.0941(3) 0.1814(4)
H7 H 1.0693 1.1393 0.2264
C13 C 0.3195(3) 1.1996(2) -0.0673(3)
H8 H 0.2774 1.2509 -0.0578
C14 C 0.2797(3) 0.7621(2) -0.0881(3)
H9 H 0.2311 0.7279 -0.1451
C15 C 1.0536(4) 0.9560(3) 0.1021(5)
H10 H 1.1040 0.9077 0.0924
C16 C 1.1073(4) 1.0227(3) 0.1676(4)
H11 H 1.1940 1.0197 0.2028
C17 C 0.3419(3) 0.80166(19) 0.1334(3)
H12 H 0.3358 0.7938 0.2248
C18 C 0.2712(3) 0.75033(19) 0.0477(4)
H13 H 0.2178 0.7078 0.0817
C19 C 0.9045(3) 1.0991(2) 0.1286(3)
H14 H 0.8551 1.1479 0.1375
loop_
_geom_bond_atom_site_label_1
_geom_bond_atom_site_label_2
_geom_bond_site_symmetry_1
_geom_bond_site_symmetry_2
S1 N1 1_555 1_555
N1 C11 1_555 1_555
O1 S1 1_555 1_555
C1 H1 1_555 1_555
C2 S1 1_555 1_555
N2 C4 1_555 1_555
C3 C5 1_555 1_555
C4 C2 1_555 1_555
C5 H2 1_555 1_555
C6 S1 1_555 1_555
C7 C1 1_555 1_555
H3 C7 1_555 1_555
C8 C4 1_555 1_555
H4 C8 1_555 1_555
C9 C6 1_555 1_555
H5 C9 1_555 1_555
C10 C6 1_555 1_555
H6 C10 1_555 1_555
C11 N2 1_555 1_555
C12 H7 1_555 1_555
C13 C1 1_555 1_555
H8 C13 1_555 1_555
C14 C10 1_555 1_555
H9 C14 1_555 1_555
C15 C5 1_555 1_555
H10 C15 1_555 1_555
C16 C12 1_555 1_555
H11 C16 1_555 1_555
C17 C9 1_555 1_555
H12 C17 1_555 1_555
C18 C14 1_555 1_555
H13 C18 1_555 1_555
C19 C3 1_555 1_555
H14 C19 1_555 1_555
C2 C7 1_555 1_555
C3 C11 1_555 1_555
C8 C13 1_555 1_555
C12 C19 1_555 1_555
C15 C16 1_555 1_555
C17 C18 1_555 1_555

#END
