
#######################################################################
#
#                 Cambridge Crystallographic Data Centre
#                                CCDC 
#
#######################################################################
#
# If this CIF has been generated from an entry in the Cambridge 
# Structural Database, then it will include bibliographic, chemical, 
# crystal, experimental, refinement or atomic coordinate data resulting 
# from the CCDC's data processing and validation procedures.
#
#######################################################################

data_QAXHOP
_chemical_formula_moiety         'C13 H9 F3 N4'
_chemical_name_systematic        
N-(4-(trifluoromethyl)phenyl)[1,2,4]triazolo[4,3-a]pyridin-3-amine
_symmetry_cell_setting           monoclinic
_symmetry_space_group_name_H-M   'P 21/n'
_symmetry_Int_Tables_number      14
_space_group_name_Hall           '-P 2yn'
loop_
_symmetry_equiv_pos_site_id
_symmetry_equiv_pos_as_xyz
1 x,y,z
2 1/2-x,1/2+y,1/2-z
3 -x,-y,-z
4 1/2+x,1/2-y,1/2+z
_cell_length_a                   7.9400(16)
_cell_length_b                   27.340(6)
_cell_length_c                   10.720(2)
_cell_angle_alpha                90
_cell_angle_beta                 91.94(3)
_cell_angle_gamma                90
_cell_volume                     2325.76
_exptl_crystal_colour            orange
_exptl_crystal_description       Plate
_cell_formula_units_Z            8
loop_
_atom_site_label
_atom_site_type_symbol
_atom_site_fract_x
_atom_site_fract_y
_atom_site_fract_z
F1 F 0.2076(3) 0.52427(7) 0.1599(2)
F2 F 0.0784(2) 0.53029(7) 0.3338(2)
F3 F 0.3475(3) 0.53587(8) 0.3340(2)
N1 N 0.3877(3) 0.22742(10) 0.3219(3)
N2 N 0.2971(4) 0.30797(10) 0.3771(3)
H1 H 0.3115(4) 0.30077(10) 0.4549(3)
N3 N 0.2647(3) 0.22026(11) 0.1336(3)
N4 N 0.2289(3) 0.26688(10) 0.1810(3)
C1 C 0.3019(4) 0.27033(12) 0.2922(3)
C2 C 0.3587(4) 0.19709(12) 0.2189(3)
C3 C 0.3065(4) 0.37667(13) 0.2288(3)
H2 H 0.3440(4) 0.35626(13) 0.1661(3)
C4 C 0.4871(4) 0.21386(13) 0.4257(3)
H3 H 0.5066(4) 0.23522(13) 0.4922(3)
C5 C 0.2860(4) 0.42657(12) 0.2062(3)
H4 H 0.3100(4) 0.43943(12) 0.1285(3)
C6 C 0.2706(4) 0.35725(12) 0.3460(3)
C7 C 0.2294(4) 0.45736(13) 0.3004(3)
C8 C 0.2110(4) 0.38810(12) 0.4396(3)
H5 H 0.1846(4) 0.37522(12) 0.5168(3)
C9 C 0.5540(4) 0.16832(13) 0.4261(3)
H6 H 0.6223(4) 0.15830(13) 0.4935(3)
C10 C 0.4258(4) 0.14904(13) 0.2225(3)
H7 H 0.4049(4) 0.12747(13) 0.1567(3)
C11 C 0.1914(4) 0.43790(13) 0.4168(3)
H8 H 0.1530(4) 0.45832(13) 0.4791(3)
C12 C 0.5212(4) 0.13513(13) 0.3238(4)
H9 H 0.5660(4) 0.10372(13) 0.3272(4)
C13 C 0.2155(4) 0.51096(13) 0.2807(4)
F4 F 0.2161(3) -0.03497(7) 0.7809(2)
F5 F 0.0750(2) -0.00507(8) 0.6230(2)
F6 F 0.3416(3) -0.01490(7) 0.6117(2)
N5 N 0.4045(3) 0.27535(10) 0.8350(3)
N6 N 0.2553(3) 0.23971(10) 0.6822(3)
N7 N 0.2970(3) 0.28679(10) 0.6424(3)
N8 N 0.3077(3) 0.19369(10) 0.8725(3)
H10 H 0.3133(3) 0.19811(10) 0.9519(3)
C14 C 0.3843(4) 0.30787(12) 0.7348(3)
C15 C 0.3197(4) 0.23371(12) 0.7961(3)
C16 C 0.2867(4) 0.14579(12) 0.8269(3)
C17 C 0.4950(4) 0.28673(13) 0.9444(3)
H11 H 0.5100(4) 0.26379(13) 1.0079(3)
C18 C 0.2048(4) 0.11087(13) 0.8981(3)
H12 H 0.1626(4) 0.11961(13) 0.9749(3)
C19 C 0.5606(4) 0.33217(13) 0.9557(3)
H13 H 0.6225(4) 0.34066(13) 1.0277(3)
C20 C 0.2485(4) 0.04962(12) 0.7407(3)
C21 C 0.1860(4) 0.06326(13) 0.8553(3)
H14 H 0.1313(4) 0.04030(13) 0.9035(3)
C22 C 0.3510(4) 0.13190(13) 0.7119(3)
H15 H 0.4067(4) 0.15470(13) 0.6639(3)
C23 C 0.5360(4) 0.36737(13) 0.8580(4)
H16 H 0.5786(4) 0.39882(13) 0.8691(4)
C24 C 0.4516(4) 0.35590(13) 0.7491(4)
H17 H 0.4383(4) 0.37889(13) 0.6856(4)
C25 C 0.3317(4) 0.08448(13) 0.6698(3)
H18 H 0.3745(4) 0.07559(13) 0.5933(3)
C26 C 0.2206(4) -0.00061(14) 0.6898(4)
loop_
_geom_bond_atom_site_label_1
_geom_bond_atom_site_label_2
_geom_bond_site_symmetry_1
_geom_bond_site_symmetry_2
F1 C13 1_555 1_555
F2 C13 1_555 1_555
F3 C13 1_555 1_555
N1 C1 1_555 1_555
N2 H1 1_555 1_555
N3 N4 1_555 1_555
N4 C1 1_555 1_555
C1 N2 1_555 1_555
C2 N1 1_555 1_555
C3 H2 1_555 1_555
C4 N1 1_555 1_555
H3 C4 1_555 1_555
C5 C3 1_555 1_555
H4 C5 1_555 1_555
C6 N2 1_555 1_555
C7 C5 1_555 1_555
C8 C6 1_555 1_555
H5 C8 1_555 1_555
C9 C4 1_555 1_555
H6 C9 1_555 1_555
C10 C2 1_555 1_555
H7 C10 1_555 1_555
C11 C7 1_555 1_555
H8 C11 1_555 1_555
C12 C9 1_555 1_555
H9 C12 1_555 1_555
C13 C7 1_555 1_555
F4 C26 1_555 1_555
F5 C26 1_555 1_555
F6 C26 1_555 1_555
N5 C14 1_555 1_555
N6 N7 1_555 1_555
N7 C14 1_555 1_555
N8 H10 1_555 1_555
C14 C24 1_555 1_555
C15 N5 1_555 1_555
C16 N8 1_555 1_555
C17 N5 1_555 1_555
H11 C17 1_555 1_555
C18 C16 1_555 1_555
H12 C18 1_555 1_555
C19 C17 1_555 1_555
H13 C19 1_555 1_555
C20 C21 1_555 1_555
C21 C18 1_555 1_555
H14 C21 1_555 1_555
C22 C16 1_555 1_555
H15 C22 1_555 1_555
C23 C19 1_555 1_555
H16 C23 1_555 1_555
C24 C23 1_555 1_555
H17 C24 1_555 1_555
C25 C20 1_555 1_555
H18 C25 1_555 1_555
C26 C20 1_555 1_555
N3 C2 1_555 1_555
C3 C6 1_555 1_555
C8 C11 1_555 1_555
C10 C12 1_555 1_555
N6 C15 1_555 1_555
N8 C15 1_555 1_555
C22 C25 1_555 1_555

#END
