
#######################################################################
#
#                 Cambridge Crystallographic Data Centre
#                                CCDC 
#
#######################################################################
#
# If this CIF has been generated from an entry in the Cambridge 
# Structural Database, then it will include bibliographic, chemical, 
# crystal, experimental, refinement or atomic coordinate data resulting 
# from the CCDC's data processing and validation procedures.
#
#######################################################################

data_QAXHAB
_chemical_formula_moiety         'C18 H15 Cl1 O3'
_chemical_name_systematic        
5-((4-chlorophenyl)(phenyl)methylene)-4,4-dimethyl-1,3-dioxolan-2-one
_symmetry_cell_setting           triclinic
_symmetry_space_group_name_H-M   'P -1'
_symmetry_Int_Tables_number      2
_space_group_name_Hall           '-P 1'
loop_
_symmetry_equiv_pos_site_id
_symmetry_equiv_pos_as_xyz
1 x,y,z
2 -x,-y,-z
_cell_length_a                   7.2031(12)
_cell_length_b                   10.5190(18)
_cell_length_c                   10.6147(19)
_cell_angle_alpha                83.934(4)
_cell_angle_beta                 74.554(4)
_cell_angle_gamma                85.816(4)
_cell_volume                     770.037
_exptl_crystal_colour            colorless
_exptl_crystal_description       prism
_cell_formula_units_Z            2
loop_
_atom_site_label
_atom_site_type_symbol
_atom_site_fract_x
_atom_site_fract_y
_atom_site_fract_z
C1 C 0.1069(3) 0.74123(17) 0.32539(18)
C2 C 0.2346(3) 0.72011(18) 0.21264(19)
C3 C 0.2501(3) 0.7775(2) 0.07261(19)
C4 C 0.5126(3) 0.6424(3) 0.0841(2)
C5 C 0.1125(4) 0.7243(3) 0.0084(2)
H1 H 0.1473 0.7508 -0.0839
H2 H -0.0165 0.7558 0.0470
H3 H 0.1191 0.6326 0.0213
C6 C 0.2522(4) 0.9220(2) 0.0522(2)
H4 H 0.3371 0.9517 0.0977
H5 H 0.1242 0.9579 0.0858
H6 H 0.2965 0.9481 -0.0398
C7 C -0.0575(3) 0.83562(17) 0.32305(17)
C8 C -0.2260(3) 0.80134(19) 0.2989(2)
H7 H -0.2373 0.7176 0.2821
C9 C -0.3776(3) 0.8899(2) 0.2994(2)
H8 H -0.4901 0.8660 0.2830
C10 C -0.3607(3) 1.01290(19) 0.32427(18)
C11 C -0.1965(3) 1.05036(19) 0.3500(2)
H9 H -0.1868 1.1344 0.3665
C12 C -0.0473(3) 0.96163(18) 0.35081(19)
H10 H 0.0629 0.9858 0.3703
C13 C 0.1135(3) 0.67951(17) 0.45680(18)
C14 C 0.2851(3) 0.63920(19) 0.4896(2)
H11 H 0.4020 0.6475 0.4262
C15 C 0.2836(4) 0.5873(2) 0.6145(2)
H12 H 0.3996 0.5617 0.6345
C16 C 0.1135(4) 0.5728(2) 0.7100(2)
H13 H 0.1139 0.5376 0.7941
C17 C -0.0576(4) 0.6110(2) 0.6797(2)
H14 H -0.1738 0.6011 0.7434
C18 C -0.0570(3) 0.6639(2) 0.5546(2)
H15 H -0.1735 0.6897 0.5356
Cl1 Cl -0.55059(8) 1.12407(6) 0.32164(6)
O1 O 0.4433(2) 0.72934(19) 0.00639(16)
O2 O 0.6606(3) 0.5818(2) 0.05490(19)
O3 O 0.3903(2) 0.63238(14) 0.20681(14)
loop_
_geom_bond_atom_site_label_1
_geom_bond_atom_site_label_2
_geom_bond_site_symmetry_1
_geom_bond_site_symmetry_2
C1 C2 1_555 1_555
C2 C3 1_555 1_555
C3 C5 1_555 1_555
C4 O1 1_555 1_555
C5 H1 1_555 1_555
H2 C5 1_555 1_555
H3 C5 1_555 1_555
C6 C3 1_555 1_555
H4 C6 1_555 1_555
H5 C6 1_555 1_555
H6 C6 1_555 1_555
C7 C1 1_555 1_555
C8 C7 1_555 1_555
H7 C8 1_555 1_555
C9 C8 1_555 1_555
H8 C9 1_555 1_555
C10 C9 1_555 1_555
C11 C10 1_555 1_555
H9 C11 1_555 1_555
C12 C7 1_555 1_555
H10 C12 1_555 1_555
C13 C1 1_555 1_555
C14 C13 1_555 1_555
H11 C14 1_555 1_555
C15 C14 1_555 1_555
H12 C15 1_555 1_555
C16 C15 1_555 1_555
H13 C16 1_555 1_555
C17 C16 1_555 1_555
H14 C17 1_555 1_555
C18 C13 1_555 1_555
H15 C18 1_555 1_555
Cl1 C10 1_555 1_555
O1 C3 1_555 1_555
O2 C4 1_555 1_555
O3 C2 1_555 1_555
C4 O3 1_555 1_555
C11 C12 1_555 1_555
C17 C18 1_555 1_555

#END
