
#######################################################################
#
#                 Cambridge Crystallographic Data Centre
#                                CCDC 
#
#######################################################################
#
# If this CIF has been generated from an entry in the Cambridge 
# Structural Database, then it will include bibliographic, chemical, 
# crystal, experimental, refinement or atomic coordinate data resulting 
# from the CCDC's data processing and validation procedures.
#
#######################################################################

data_QAXHUV
_chemical_formula_moiety         'C13 H7 Cl1 F3 N4'
_chemical_name_systematic        
5-chloro-N-(4-(trifluoromethyl)phenyl)-3H-4\l^5^-[1,2,4]triazolo[4,3-a]pyridin-3-imine
_symmetry_cell_setting           orthorhombic
_symmetry_space_group_name_H-M   'P 21 21 21'
_symmetry_Int_Tables_number      19
_space_group_name_Hall           'P 2ac 2ab'
loop_
_symmetry_equiv_pos_site_id
_symmetry_equiv_pos_as_xyz
1 x,y,z
2 1/2+x,1/2-y,-z
3 -x,1/2+y,1/2-z
4 1/2-x,-y,1/2+z
_cell_length_a                   7.5489(3)
_cell_length_b                   12.1093(5)
_cell_length_c                   14.0626(5)
_cell_angle_alpha                90
_cell_angle_beta                 90
_cell_angle_gamma                90
_cell_volume                     1285.49
_exptl_crystal_colour            'light orange'
_exptl_crystal_description       prism
_cell_formula_units_Z            4
loop_
_atom_site_label
_atom_site_type_symbol
_atom_site_fract_x
_atom_site_fract_y
_atom_site_fract_z
Cl1 Cl 1.20057(9) 0.78007(6) 0.66388(5)
F1 F 0.4723(3) 0.24359(19) 0.6308(3)
F2 F 0.2698(4) 0.3273(2) 0.56213(18)
F3 F 0.3038(4) 0.3443(2) 0.71079(17)
N1 N 0.9129(3) 0.89507(19) 0.61719(16)
N2 N 0.8545(3) 0.70319(18) 0.56934(17)
N3 N 0.6555(3) 0.9681(2) 0.57364(18)
N4 N 0.6562(3) 0.85721(19) 0.55082(17)
C1 C 1.0402(4) 1.0942(3) 0.6862(2)
H1 H 1.0865(4) 1.1618(3) 0.7098(2)
C2 C 0.8764(4) 1.0922(2) 0.6471(2)
H2 H 0.8074(4) 1.1576(2) 0.6432(2)
C3 C 0.8095(4) 0.9905(2) 0.61181(18)
C4 C 0.8074(4) 0.8136(2) 0.57725(18)
C5 C 0.7343(4) 0.6174(2) 0.58240(18)
C6 C 0.5738(4) 0.6304(2) 0.6309(2)
H3 H 0.5408(4) 0.7013(2) 0.6539(2)
C7 C 0.4621(4) 0.5407(2) 0.6456(2)
H4 H 0.3530(4) 0.5508(2) 0.6782(2)
C8 C 0.5089(4) 0.4367(2) 0.6132(2)
C9 C 0.3878(4) 0.3411(2) 0.6285(2)
C10 C 1.1438(4) 0.9961(3) 0.6922(2)
H5 H 1.2582(4) 0.9987(3) 0.7203(2)
C11 C 1.0801(3) 0.8992(2) 0.6582(2)
C12 C 0.7803(4) 0.5118(2) 0.5497(2)
H6 H 0.8890(4) 0.5012(2) 0.5169(2)
C13 C 0.6687(4) 0.4231(2) 0.5649(2)
H7 H 0.7013(4) 0.3521(2) 0.5421(2)
loop_
_geom_bond_atom_site_label_1
_geom_bond_atom_site_label_2
_geom_bond_site_symmetry_1
_geom_bond_site_symmetry_2
Cl1 C11 1_555 1_555
F1 C9 1_555 1_555
F2 C9 1_555 1_555
F3 C9 1_555 1_555
N1 C3 1_555 1_555
N2 C4 1_555 1_555
N3 N4 1_555 1_555
N4 C4 1_555 1_555
C1 H1 1_555 1_555
C2 C1 1_555 1_555
H2 C2 1_555 1_555
C3 N3 1_555 1_555
C4 N1 1_555 1_555
C5 N2 1_555 1_555
C6 C5 1_555 1_555
H3 C6 1_555 1_555
C7 C6 1_555 1_555
H4 C7 1_555 1_555
C8 C7 1_555 1_555
C9 C8 1_555 1_555
C10 C1 1_555 1_555
H5 C10 1_555 1_555
C11 N1 1_555 1_555
C12 C5 1_555 1_555
H6 C12 1_555 1_555
C13 C8 1_555 1_555
H7 C13 1_555 1_555
C2 C3 1_555 1_555
C10 C11 1_555 1_555
C12 C13 1_555 1_555

#END
