
#######################################################################
#
#                 Cambridge Crystallographic Data Centre
#                                CCDC 
#
#######################################################################
#
# If this CIF has been generated from an entry in the Cambridge 
# Structural Database, then it will include bibliographic, chemical, 
# crystal, experimental, refinement or atomic coordinate data resulting 
# from the CCDC's data processing and validation procedures.
#
#######################################################################

data_QAXJEH
_chemical_formula_moiety         'C18 H10 F6 N4'
_chemical_name_systematic        
N-(3,5-bis(trifluoromethyl)phenyl)[1,2,4]triazolo[4,3-a]quinolin-1-amine
_symmetry_cell_setting           monoclinic
_symmetry_space_group_name_H-M   'P 21/c'
_symmetry_Int_Tables_number      14
_space_group_name_Hall           '-P 2ybc'
loop_
_symmetry_equiv_pos_site_id
_symmetry_equiv_pos_as_xyz
1 x,y,z
2 -x,1/2+y,1/2-z
3 -x,-y,-z
4 x,1/2-y,1/2+z
_cell_length_a                   13.7393(4)
_cell_length_b                   8.8815(3)
_cell_length_c                   15.1301(5)
_cell_angle_alpha                90
_cell_angle_beta                 115.9460(10)
_cell_angle_gamma                90
_cell_volume                     1660.17
_exptl_crystal_colour            colorless
_exptl_crystal_description       prism
_cell_formula_units_Z            4
loop_
_atom_site_label
_atom_site_type_symbol
_atom_site_fract_x
_atom_site_fract_y
_atom_site_fract_z
F1 F 0.34306(9) 0.58412(12) 0.52792(7)
F2 F 0.22362(7) 0.68007(10) 0.39411(7)
F3 F 0.38956(9) 0.66514(12) 0.41876(10)
F4 F 0.47049(14) 0.23471(18) 0.25795(16)
F5 F 0.39204(10) 0.02603(17) 0.24676(13)
F6 F 0.51513(11) 0.1035(2) 0.38413(12)
N1 N -0.07886(8) 0.11478(11) 0.34514(7)
C1 C -0.07718(9) -0.03451(13) 0.37814(8)
C2 C 0.00887(10) -0.13344(13) 0.39808(9)
C3 C 0.00291(11) -0.27898(14) 0.42879(9)
C4 C -0.08719(11) -0.32717(14) 0.44096(10)
C5 C -0.17069(11) -0.22776(15) 0.42412(10)
C6 C -0.16770(10) -0.07951(14) 0.39300(9)
C7 C -0.25403(10) 0.02466(15) 0.37827(10)
C8 C -0.24988(10) 0.16919(15) 0.35257(10)
C9 C -0.15928(9) 0.21595(13) 0.33683(9)
N2 N -0.13895(9) 0.35034(12) 0.31251(8)
N3 N -0.04455(8) 0.33889(12) 0.30087(8)
C10 C -0.00980(9) 0.19874(13) 0.31996(9)
N4 N 0.08025(8) 0.13894(12) 0.31525(8)
C11 C 0.17326(9) 0.22093(13) 0.33061(9)
C12 C 0.19307(9) 0.36711(14) 0.36833(9)
C13 C 0.29013(10) 0.43792(14) 0.38503(9)
C14 C 0.36797(10) 0.36823(16) 0.36415(10)
C15 C 0.34659(10) 0.22254(16) 0.32643(11)
C16 C 0.25154(10) 0.14854(15) 0.30982(10)
C17 C 0.31160(11) 0.59154(15) 0.43058(10)
C18 C 0.42984(12) 0.1446(2) 0.30358(14)
H1 H 0.1407(15) 0.417(2) 0.3824(14)
H2 H 0.0707(16) 0.053(2) 0.2842(15)
H3 H -0.3053(16) 0.243(2) 0.3430(15)
H4 H 0.0727(16) -0.105(2) 0.3908(15)
H5 H -0.2344(16) -0.258(2) 0.4341(14)
H6 H 0.0633(15) -0.348(2) 0.4423(14)
H7 H -0.0922(16) -0.433(2) 0.4607(15)
H8 H -0.3133(17) -0.009(2) 0.3899(15)
H9 H 0.2363(16) 0.050(2) 0.2817(14)
H10 H 0.4367(17) 0.419(2) 0.3763(15)
loop_
_geom_bond_atom_site_label_1
_geom_bond_atom_site_label_2
_geom_bond_site_symmetry_1
_geom_bond_site_symmetry_2
F1 C17 1_555 1_555
F2 C17 1_555 1_555
F3 C17 1_555 1_555
F4 C18 1_555 1_555
F5 C18 1_555 1_555
F6 C18 1_555 1_555
N1 C1 1_555 1_555
C1 C2 1_555 1_555
C2 C3 1_555 1_555
C3 C4 1_555 1_555
C4 C5 1_555 1_555
C5 C6 1_555 1_555
C6 C1 1_555 1_555
C7 C6 1_555 1_555
C8 C7 1_555 1_555
C9 N1 1_555 1_555
N2 C9 1_555 1_555
N3 N2 1_555 1_555
C10 N1 1_555 1_555
N4 C10 1_555 1_555
C11 N4 1_555 1_555
C12 C11 1_555 1_555
C13 C12 1_555 1_555
C14 C13 1_555 1_555
C15 C14 1_555 1_555
C16 C11 1_555 1_555
C17 C13 1_555 1_555
C18 C15 1_555 1_555
H1 C12 1_555 1_555
H2 N4 1_555 1_555
H3 C8 1_555 1_555
H4 C2 1_555 1_555
H5 C5 1_555 1_555
H6 C3 1_555 1_555
H7 C4 1_555 1_555
H8 C7 1_555 1_555
H9 C16 1_555 1_555
H10 C14 1_555 1_555
C8 C9 1_555 1_555
N3 C10 1_555 1_555
C15 C16 1_555 1_555

#END
