
#######################################################################
#
#                 Cambridge Crystallographic Data Centre
#                                CCDC 
#
#######################################################################
#
# If this CIF has been generated from an entry in the Cambridge 
# Structural Database, then it will include bibliographic, chemical, 
# crystal, experimental, refinement or atomic coordinate data resulting 
# from the CCDC's data processing and validation procedures.
#
#######################################################################

data_QAXJOR
_chemical_formula_moiety         'C12 H12 Br1 N1 O3'
_chemical_name_systematic        2-(4-bromophenyl)-2-nitrocyclohexanone
_symmetry_cell_setting           orthorhombic
_symmetry_space_group_name_H-M   'P b c a'
_symmetry_Int_Tables_number      61
_space_group_name_Hall           '-P 2ac 2ab'
loop_
_symmetry_equiv_pos_site_id
_symmetry_equiv_pos_as_xyz
1 x,y,z
2 1/2-x,-y,1/2+z
3 1/2+x,1/2-y,-z
4 -x,1/2+y,1/2-z
5 -x,-y,-z
6 1/2+x,y,1/2-z
7 1/2-x,1/2+y,z
8 x,1/2-y,1/2+z
_cell_length_a                   7.7792(10)
_cell_length_b                   11.9136(13)
_cell_length_c                   25.989(3)
_cell_angle_alpha                90
_cell_angle_beta                 90
_cell_angle_gamma                90
_cell_volume                     2408.62
_exptl_crystal_colour            colorless
_exptl_crystal_description       needle
_cell_formula_units_Z            8
loop_
_atom_site_label
_atom_site_type_symbol
_atom_site_fract_x
_atom_site_fract_y
_atom_site_fract_z
Br1 Br 0.13287(17) 0.72907(12) 0.17643(4)
O1 O 0.3849(9) 0.9921(7) 0.3716(4)
O2 O 0.3695(10) 0.9599(9) 0.4518(3)
O3 O 0.0472(10) 1.0878(5) 0.4195(2)
N1 N 0.3157(11) 0.9524(7) 0.4084(4)
C1 C 0.1348(11) 0.8983(7) 0.4009(3)
C2 C 0.0020(13) 0.9909(8) 0.4124(3)
C3 C -0.1776(13) 0.9540(9) 0.4146(4)
H1 H -0.2153 0.9334 0.3803
H2 H -0.2489 1.0158 0.4263
C4 C -0.2022(15) 0.8532(10) 0.4509(4)
H3 H -0.1928 0.8790 0.4862
H4 H -0.3171 0.8233 0.4462
C5 C -0.0740(15) 0.7611(8) 0.4421(5)
H5 H -0.0962 0.7257 0.4092
H6 H -0.0865 0.7046 0.4687
C6 C 0.1115(12) 0.8074(9) 0.4429(4)
H7 H 0.1920 0.7466 0.4369
H8 H 0.1359 0.8394 0.4764
C7 C 0.1251(10) 0.8564(7) 0.3464(3)
C8 C 0.1706(15) 0.7457(8) 0.3331(4)
H9 H 0.2030 0.6961 0.3589
C9 C 0.1683(14) 0.7097(8) 0.2837(4)
H10 H 0.1966 0.6356 0.2763
C10 C 0.1250(10) 0.7806(9) 0.2449(4)
C11 C 0.0775(12) 0.8896(9) 0.2560(4)
H11 H 0.0460 0.9381 0.2296
C12 C 0.0767(13) 0.9265(8) 0.3066(4)
H12 H 0.0431 0.9997 0.3138
loop_
_geom_bond_atom_site_label_1
_geom_bond_atom_site_label_2
_geom_bond_site_symmetry_1
_geom_bond_site_symmetry_2
Br1 C10 1_555 1_555
O1 N1 1_555 1_555
O2 N1 1_555 1_555
O3 C2 1_555 1_555
N1 C1 1_555 1_555
C1 C2 1_555 1_555
C2 C3 1_555 1_555
C3 H1 1_555 1_555
H2 C3 1_555 1_555
C4 C3 1_555 1_555
H3 C4 1_555 1_555
H4 C4 1_555 1_555
C5 C4 1_555 1_555
H5 C5 1_555 1_555
H6 C5 1_555 1_555
C6 C1 1_555 1_555
H7 C6 1_555 1_555
H8 C6 1_555 1_555
C7 C1 1_555 1_555
C8 C7 1_555 1_555
H9 C8 1_555 1_555
C9 C8 1_555 1_555
H10 C9 1_555 1_555
C10 C9 1_555 1_555
C11 C10 1_555 1_555
H11 C11 1_555 1_555
C12 C7 1_555 1_555
H12 C12 1_555 1_555
C5 C6 1_555 1_555
C11 C12 1_555 1_555

#END
