
#######################################################################
#
#                 Cambridge Crystallographic Data Centre
#                                CCDC 
#
#######################################################################
#
# If this CIF has been generated from an entry in the Cambridge 
# Structural Database, then it will include bibliographic, chemical, 
# crystal, experimental, refinement or atomic coordinate data resulting 
# from the CCDC's data processing and validation procedures.
#
#######################################################################

data_QAXJIL
_chemical_formula_moiety         'C12 H8 Cl1 F1 N4'
_chemical_name_systematic        
5-chloro-N-(4-fluorophenyl)[1,2,4]triazolo[4,3-a]pyridin-3-amine
_symmetry_cell_setting           orthorhombic
_symmetry_space_group_name_H-M   'P 21 21 21'
_symmetry_Int_Tables_number      19
_space_group_name_Hall           'P 2ac 2ab'
loop_
_symmetry_equiv_pos_site_id
_symmetry_equiv_pos_as_xyz
1 x,y,z
2 1/2-x,-y,1/2+z
3 1/2+x,1/2-y,-z
4 -x,1/2+y,1/2-z
_cell_length_a                   7.6962(2)
_cell_length_b                   10.6955(3)
_cell_length_c                   13.2462(3)
_cell_angle_alpha                90
_cell_angle_beta                 90
_cell_angle_gamma                90
_cell_volume                     1090.36
_exptl_crystal_colour            colorless
_exptl_crystal_description       prism
_cell_formula_units_Z            4
loop_
_atom_site_label
_atom_site_type_symbol
_atom_site_fract_x
_atom_site_fract_y
_atom_site_fract_z
Cl1 Cl 0.40853(5) 0.34115(4) 0.17291(3)
F1 F 1.20277(14) -0.12055(10) 0.21718(8)
N1 N 0.66752(18) 0.45457(13) 0.07633(11)
N2 N 0.9074(2) 0.52195(13) -0.00049(11)
N3 N 0.91461(19) 0.39339(13) 0.00860(11)
N4 N 0.7338(2) 0.23135(13) 0.07725(12)
C1 C 0.7732(2) 0.35313(16) 0.05405(12)
C2 C 0.5117(2) 0.47119(16) 0.12731(12)
C3 C 1.0180(2) 0.18107(15) 0.15139(13)
C4 C 0.8120(2) 0.01788(16) 0.11268(13)
C5 C 0.6845(2) 0.67901(16) 0.04759(13)
C6 C 0.8567(2) 0.14477(16) 0.11281(12)
C7 C 0.7580(2) 0.55785(16) 0.03877(13)
C8 C 1.0868(2) -0.03250(15) 0.18522(12)
C9 C 0.9270(2) -0.07097(16) 0.14953(13)
C10 C 0.4453(2) 0.58675(17) 0.13990(13)
C11 C 1.1336(2) 0.09187(17) 0.18791(13)
C12 C 0.5321(2) 0.69296(16) 0.09825(13)
H1 H 1.047(3) 0.266(2) 0.1538(16)
H2 H 0.743(3) 0.746(2) 0.0193(18)
H3 H 0.700(3) -0.007(2) 0.0883(16)
H4 H 0.338(3) 0.599(2) 0.1765(19)
H5 H 0.900(3) -0.158(2) 0.1483(15)
H6 H 0.485(3) 0.774(2) 0.1055(17)
H7 H 0.640(3) 0.203(2) 0.0585(19)
H8 H 1.241(3) 0.116(2) 0.2147(17)
loop_
_geom_bond_atom_site_label_1
_geom_bond_atom_site_label_2
_geom_bond_site_symmetry_1
_geom_bond_site_symmetry_2
Cl1 C2 1_555 1_555
F1 C8 1_555 1_555
N1 C1 1_555 1_555
N2 N3 1_555 1_555
N3 C1 1_555 1_555
N4 C1 1_555 1_555
C2 N1 1_555 1_555
C3 C6 1_555 1_555
C4 C6 1_555 1_555
C5 C7 1_555 1_555
C6 N4 1_555 1_555
C7 N1 1_555 1_555
C8 C9 1_555 1_555
C9 C4 1_555 1_555
C10 C2 1_555 1_555
C11 C3 1_555 1_555
C12 C5 1_555 1_555
H1 C3 1_555 1_555
H2 C5 1_555 1_555
H3 C4 1_555 1_555
H4 C10 1_555 1_555
H5 C9 1_555 1_555
H6 C12 1_555 1_555
H7 N4 1_555 1_555
H8 C11 1_555 1_555
N2 C7 1_555 1_555
C8 C11 1_555 1_555
C10 C12 1_555 1_555

#END
