
#######################################################################
#
#                 Cambridge Crystallographic Data Centre
#                                CCDC 
#
#######################################################################
#
# If this CIF has been generated from an entry in the Cambridge 
# Structural Database, then it will include bibliographic, chemical, 
# crystal, experimental, refinement or atomic coordinate data resulting 
# from the CCDC's data processing and validation procedures.
#
#######################################################################

data_QAXJAD
_chemical_formula_moiety         'C16 H36 N1 1+,C16 H12 N5 O2 S1 1-'
_chemical_name_systematic        
"tetra-n-butylammonium N-(4-nitrophenyl)-N'-quinolin-2-ylcarbamohydrazonothioate"
_symmetry_cell_setting           monoclinic
_symmetry_space_group_name_H-M   'P 21/n'
_symmetry_Int_Tables_number      14
_space_group_name_Hall           '-P 2yn'
loop_
_symmetry_equiv_pos_site_id
_symmetry_equiv_pos_as_xyz
1 x,y,z
2 1/2-x,1/2+y,1/2-z
3 -x,-y,-z
4 1/2+x,1/2-y,1/2+z
_cell_length_a                   27.6118(16)
_cell_length_b                   16.1986(9)
_cell_length_c                   29.5338(18)
_cell_angle_alpha                90
_cell_angle_beta                 93.8240(10)
_cell_angle_gamma                90
_cell_volume                     13180.2
_exptl_crystal_colour            red
_exptl_crystal_description       plate
_cell_formula_units_Z            16
loop_
_atom_site_label
_atom_site_type_symbol
_atom_site_fract_x
_atom_site_fract_y
_atom_site_fract_z
N1 N 0.24990(8) -0.00590(14) 0.37924(8)
N2 N 0.20675(8) -0.02881(14) 0.35587(7)
H1 H 0.18150(8) -0.03798(14) 0.37066(7)
C1 C 0.24928(9) -0.01623(15) 0.42282(9)
N3 N 0.29114(8) 0.00549(14) 0.44991(7)
H2 H 0.28699(8) 0.00966(14) 0.47842(7)
C2 C 0.19348(9) -0.04879(16) 0.21662(9)
C3 C 0.18502(10) -0.05585(17) 0.16913(9)
H3 H 0.20889(10) -0.03936(17) 0.15028(9)
N4 N 0.16221(7) -0.06768(13) 0.29173(7)
C4 C 0.20374(9) -0.03698(15) 0.31015(8)
C5 C 0.43410(9) 0.04608(15) 0.42141(9)
C6 C 0.15694(9) -0.07329(15) 0.24538(8)
C7 C 0.11304(10) -0.10477(18) 0.22517(9)
H4 H 0.08863(10) -0.12128(18) 0.24343(9)
C8 C 0.14213(11) -0.08666(18) 0.15057(9)
H5 H 0.13693(11) -0.09130(18) 0.11924(9)
C9 C 0.39947(10) 0.04107(18) 0.38544(9)
H6 H 0.40855(10) 0.04609(18) 0.35580(9)
C10 C 0.33747(9) 0.02110(15) 0.43828(9)
C11 C 0.35143(10) 0.02861(18) 0.39368(9)
H7 H 0.32815(10) 0.02515(18) 0.36950(9)
C12 C 0.23767(10) -0.01920(17) 0.23816(10)
H8 H 0.26304(10) -0.00419(17) 0.22067(10)
C13 C 0.42152(9) 0.03953(17) 0.46594(9)
H9 H 0.44513(9) 0.04309(17) 0.48983(9)
C14 C 0.37373(10) 0.02773(17) 0.47422(9)
H10 H 0.36501(10) 0.02403(17) 0.50403(9)
C15 C 0.24316(9) -0.01266(17) 0.28392(9)
H11 H 0.27194(9) 0.00721(17) 0.29804(9)
C16 C 0.10591(10) -0.11132(19) 0.17893(9)
H12 H 0.07676(10) -0.13233(19) 0.16619(9)
S1 S 0.20195(2) -0.05517(4) 0.45221(2)
O1 O 0.51545(7) 0.05857(12) 0.44502(7)
N5 N 0.48472(8) 0.05693(14) 0.41267(8)
O2 O 0.49577(8) 0.06397(16) 0.37300(7)
N6 N 0.28381(8) 0.03313(14) 0.65851(7)
H13 H 0.30831(8) 0.04029(14) 0.64243(7)
N7 N 0.23976(8) 0.01026(13) 0.63673(7)
C17 C 0.24225(9) 0.00541(15) 0.59282(9)
N8 N 0.20057(8) -0.01740(13) 0.56621(7)
H14 H 0.20583(8) -0.03011(13) 0.53869(7)
C18 C 0.08689(10) -0.01890(17) 0.62593(9)
H15 H 0.07580(10) -0.01306(17) 0.65481(9)
C19 C 0.13596(10) -0.01421(17) 0.61987(9)
H16 H 0.15791(10) -0.00514(17) 0.64464(9)
C20 C 0.05417(9) -0.03229(16) 0.58912(9)
C21 C 0.06967(10) -0.04114(17) 0.54549(10)
H17 H 0.04734(10) -0.04949(17) 0.52093(10)
C22 C 0.15279(9) -0.02318(16) 0.57608(9)
C23 C 0.11824(10) -0.03735(17) 0.53932(10)
H18 H 0.12882(10) -0.04424(17) 0.51031(10)
S2 S 0.29295(2) 0.02548(4) 0.56303(2)
N9 N 0.33342(7) 0.07233(13) 0.71860(7)
O3 O -0.01049(7) -0.03237(14) 0.63497(7)
O4 O -0.02601(7) -0.04405(13) 0.56211(7)
N10 N 0.00300(8) -0.03662(14) 0.59574(8)
C24 C 0.28995(9) 0.04465(15) 0.70387(9)
C25 C 0.30797(10) 0.06296(16) 0.79633(9)
C26 C 0.34252(9) 0.08095(15) 0.76438(9)
C27 C 0.25166(9) 0.02833(17) 0.73310(9)
H19 H 0.22113(9) 0.01179(17) 0.72127(9)
C28 C 0.38875(10) 0.10955(18) 0.78111(9)
H20 H 0.41191(10) 0.12267(18) 0.76081(9)
C29 C 0.26110(10) 0.03764(17) 0.77830(9)
H21 H 0.23677(10) 0.02741(17) 0.79788(9)
C30 C 0.36564(11) 0.09908(18) 0.85807(9)
H22 H 0.37358(11) 0.10480(18) 0.88901(9)
C31 C 0.32058(11) 0.07203(17) 0.84305(9)
H23 H 0.29792(11) 0.05943(17) 0.86394(9)
C32 C 0.39987(10) 0.11818(18) 0.82679(9)
H24 H 0.43047(10) 0.13693(18) 0.83711(9)
N11 N -0.13816(8) -0.02782(13) 0.08842(7)
N12 N -0.15155(8) -0.02812(14) 0.13322(7)
H25 H -0.18059(8) -0.01464(14) 0.13913(7)
N13 N -0.16663(8) -0.02626(14) 0.01253(8)
H26 H -0.19155(8) -0.01505(14) -0.00545(8)
C33 C -0.17509(9) -0.02280(16) 0.05895(9)
C34 C -0.12537(10) -0.04449(16) -0.00892(10)
C35 C -0.07946(10) -0.05510(18) 0.01349(11)
H27 H -0.07539(10) -0.04845(18) 0.04479(11)
C36 C -0.04591(12) -0.08379(18) -0.05764(11)
C37 C -0.04021(11) -0.07548(18) -0.01101(12)
H28 H -0.00987(11) -0.08364(18) 0.00394(12)
C38 C -0.09050(13) -0.0730(2) -0.08055(12)
H29 H -0.09398(13) -0.0788(2) -0.11193(12)
C39 C -0.12991(12) -0.0535(2) -0.05641(11)
H30 H -0.16011(12) -0.0462(2) -0.07177(11)
S3 S -0.23525(2) -0.01386(5) 0.07122(2)
C40 C -0.11852(9) -0.04983(15) 0.16759(9)
N14 N -0.13655(8) -0.07939(14) 0.20459(8)
C41 C -0.10481(10) -0.10254(16) 0.23967(9)
O5 O 0.03603(9) -0.10914(17) -0.06139(11)
C42 C -0.06758(9) -0.03809(16) 0.16294(10)
H31 H -0.05639(9) -0.01569(16) 0.13658(10)
N15 N -0.00348(11) -0.10357(16) -0.08235(12)
C43 C -0.12358(11) -0.13764(19) 0.27895(10)
H32 H -0.15698(11) -0.14187(19) 0.28078(10)
C44 C -0.05355(10) -0.09496(18) 0.23826(10)
C45 C -0.03631(10) -0.06055(18) 0.19800(11)
H33 H -0.00313(10) -0.05342(18) 0.19576(11)
O6 O -0.00843(11) -0.1134(2) -0.12352(10)
C46 C -0.02359(12) -0.1227(2) 0.27554(12)
H34 H 0.00989(12) -0.1170(2) 0.27506(12)
C47 C -0.09326(13) -0.1652(2) 0.31395(11)
H35 H -0.10609(13) -0.1892(2) 0.33914(11)
C48 C -0.04261(13) -0.1576(3) 0.31230(12)
H36 H -0.02214(13) -0.1764(3) 0.33637(12)
N16 N 0.15999(8) 0.46505(14) 0.37107(7)
H37 H 0.18886(8) 0.47913(14) 0.36493(7)
N17 N 0.14827(8) 0.45823(13) 0.41624(7)
C49 C 0.12585(9) 0.44948(14) 0.33684(8)
N18 N 0.14256(8) 0.42889(13) 0.29743(7)
C50 C 0.05874(10) 0.41705(16) 0.26587(9)
C51 C 0.04272(10) 0.44168(16) 0.30860(9)
H38 H 0.00969(10) 0.44664(16) 0.31242(9)
C52 C 0.10945(10) 0.41246(16) 0.26195(8)
N19 N 0.17936(8) 0.45462(14) 0.49127(7)
H39 H 0.20571(8) 0.45643(14) 0.50849(7)
C53 C 0.05132(10) 0.43401(18) 0.51905(9)
H40 H 0.02005(10) 0.43502(18) 0.50524(9)
C54 C 0.13803(9) 0.44324(15) 0.51389(8)
C55 C 0.10428(10) 0.41905(18) 0.58679(9)
H41 H 0.10853(10) 0.41014(18) 0.61791(9)
C56 C 0.09077(10) 0.44456(17) 0.49323(9)
H42 H 0.08600(10) 0.45255(17) 0.46207(9)
C57 C 0.18595(9) 0.46382(15) 0.44477(8)
C58 C 0.12703(11) 0.38797(19) 0.21999(9)
H43 H 0.16028(11) 0.38511(19) 0.21687(9)
C59 C 0.14361(10) 0.42959(18) 0.56124(9)
H44 H 0.17468(10) 0.42769(18) 0.57545(9)
C60 C 0.07521(9) 0.45788(15) 0.34362(9)
H45 H 0.06493(9) 0.47418(15) 0.37161(9)
C61 C 0.05818(10) 0.42197(17) 0.56531(9)
C62 C 0.02694(11) 0.3981(2) 0.22806(10)
H46 H -0.00640(11) 0.4021(2) 0.23033(10)
C63 C 0.09513(13) 0.3685(2) 0.18396(10)
H47 H 0.10698(13) 0.3517(2) 0.15669(10)
C64 C 0.04475(13) 0.3736(2) 0.18781(11)
H48 H 0.02347(13) 0.3604(2) 0.16313(11)
S4 S 0.24524(3) 0.47962(6) 0.43126(2)
N20 N 0.01588(9) 0.41330(16) 0.59181(8)
O7 O -0.02465(8) 0.42618(14) 0.57322(8)
O8 O 0.02195(8) 0.39373(18) 0.63202(7)
C65 C 0.11341(10) 0.13897(16) 0.34804(10)
H49 H 0.08600(10) 0.11096(16) 0.36008(10)
H50 H 0.13890(10) 0.09837(16) 0.34544(10)
C66 C 0.09214(9) 0.26728(16) 0.38895(10)
H51 H 0.08410(9) 0.29476(16) 0.36024(10)
H52 H 0.10517(9) 0.30871(16) 0.41012(10)
C67 C 0.14684(10) 0.16046(16) 0.42615(10)
H53 H 0.17473(10) 0.12606(16) 0.42112(10)
H54 H 0.12066(10) 0.12418(16) 0.43380(10)
C68 C 0.17394(9) 0.25194(16) 0.36412(10)
H55 H 0.18612(9) 0.28987(16) 0.38761(10)
H56 H 0.16160(9) 0.28489(16) 0.33846(10)
C69 C 0.00997(10) 0.30174(19) 0.41402(11)
H57 H 0.02452(10) 0.34020(19) 0.43613(11)
H58 H 0.00342(10) 0.33152(19) 0.38578(11)
C70 C 0.09799(12) 0.17041(19) 0.30088(11)
H59 H 0.07320(12) 0.21240(19) 0.30298(11)
H60 H 0.12561(12) 0.19546(19) 0.28756(11)
C71 C 0.25231(11) 0.25799(19) 0.32771(12)
H61 H 0.23566(11) 0.28618(19) 0.30221(12)
H62 H 0.26328(11) 0.29958(19) 0.34969(12)
C72 C 0.04571(10) 0.23357(18) 0.40650(11)
H63 H 0.03119(10) 0.19434(18) 0.38480(11)
H64 H 0.05324(10) 0.20462(18) 0.43485(11)
C73 C 0.15968(11) 0.21593(18) 0.46653(10)
H65 H 0.18501(11) 0.25423(18) 0.45922(10)
H66 H 0.13142(11) 0.24767(18) 0.47377(10)
C74 C 0.21641(11) 0.20118(18) 0.34933(12)
H67 H 0.23231(11) 0.17349(18) 0.37539(12)
H68 H 0.20482(11) 0.15948(18) 0.32766(12)
C75 C 0.07837(14) 0.1009(2) 0.27074(12)
H69 H 0.10202(14) 0.0565(2) 0.27152(12)
H70 H 0.04906(14) 0.0795(2) 0.28284(12)
C76 C 0.17714(13) 0.1634(2) 0.50732(11)
H71 H 0.15297(13) 0.1214(2) 0.51219(11)
H72 H 0.20688(13) 0.1354(2) 0.50052(11)
C77 C 0.18630(16) 0.2124(2) 0.55029(12)
H73 H 0.19714(16) 0.1760(2) 0.57457(12)
H74 H 0.21077(16) 0.2532(2) 0.54602(12)
H75 H 0.15683(16) 0.2391(2) 0.55769(12)
C78 C 0.29608(13) 0.2139(2) 0.31133(15)
H76 H 0.31705(13) 0.2532(2) 0.29816(15)
H77 H 0.31332(13) 0.1869(2) 0.33648(15)
H78 H 0.28567(13) 0.1735(2) 0.28895(15)
C79 C 0.06703(15) 0.1264(3) 0.22223(13)
H79 H 0.05479(15) 0.0797(3) 0.20498(13)
H80 H 0.04304(15) 0.1693(3) 0.22104(13)
H81 H 0.09603(15) 0.1463(3) 0.20971(13)
C80 C -0.03780(12) 0.2708(2) 0.43059(12)
H82 H -0.05896(12) 0.3168(2) 0.43474(12)
H83 H -0.05285(12) 0.2337(2) 0.40854(12)
H84 H -0.03173(12) 0.2424(2) 0.45892(12)
N21 N 0.13156(8) 0.20433(13) 0.38196(8)
C81 C 0.28673(10) -0.19913(17) 0.64153(10)
H85 H 0.29792(10) -0.15102(17) 0.65876(10)
H86 H 0.27058(10) -0.18048(17) 0.61319(10)
C82 C 0.32958(9) -0.25391(16) 0.63203(10)
H87 H 0.34228(9) -0.27772(16) 0.66054(10)
H88 H 0.31776(9) -0.29903(16) 0.61273(10)
C83 C 0.41113(9) -0.27640(16) 0.60765(10)
H89 H 0.39717(9) -0.32592(16) 0.59369(10)
H90 H 0.42247(9) -0.29046(16) 0.63848(10)
C84 C 0.40235(13) -0.1552(2) 0.68747(12)
H91 H 0.37345(13) -0.1727(2) 0.70177(12)
H92 H 0.42565(13) -0.2000(2) 0.69006(12)
C85 C 0.38930(10) -0.13796(16) 0.63763(11)
H93 H 0.36434(10) -0.09573(16) 0.63542(11)
H94 H 0.41769(10) -0.11570(16) 0.62428(11)
C86 C 0.35517(11) -0.18142(18) 0.56233(10)
H95 H 0.38245(11) -0.15407(18) 0.54968(10)
H96 H 0.32992(11) -0.14043(18) 0.56507(10)
C87 C 0.49780(10) -0.3072(2) 0.59362(11)
H97 H 0.50618(10) -0.3041(2) 0.62600(11)
H98 H 0.48866(10) -0.3637(2) 0.58643(11)
C88 C 0.45480(10) -0.25131(19) 0.58193(12)
H99 H 0.44631(10) -0.25403(19) 0.54956(12)
H100 H 0.46359(10) -0.19474(19) 0.58945(12)
C89 C 0.54237(11) -0.2844(2) 0.56810(14)
H101 H 0.56850(11) -0.3215(2) 0.57668(14)
H102 H 0.53453(11) -0.2885(2) 0.53602(14)
H103 H 0.55205(11) -0.2288(2) 0.57558(14)
C90 C 0.42355(12) -0.0806(2) 0.71225(12)
H104 H 0.45391(12) -0.0658(2) 0.69963(12)
H105 H 0.40143(12) -0.0344(2) 0.70764(12)
C91 C 0.33631(13) -0.2470(2) 0.52940(11)
H106 H 0.36136(13) -0.2882(2) 0.52634(11)
H107 H 0.30864(13) -0.2741(2) 0.54151(11)
C92 C 0.43258(13) -0.0963(2) 0.76245(13)
H108 H 0.44602(13) -0.0476(2) 0.77692(13)
H109 H 0.40250(13) -0.1099(2) 0.77519(13)
H110 H 0.45496(13) -0.1413(2) 0.76719(13)
C93 C 0.32115(15) -0.2117(4) 0.48266(14)
H111 H 0.29288(15) -0.2425(4) 0.47098(14)
H112 H 0.31057(15) -0.1554(4) 0.48716(14)
C94 C 0.25161(11) -0.24863(18) 0.66838(11)
H113 H 0.24149(11) -0.29712(18) 0.65095(11)
H114 H 0.26853(11) -0.26741(18) 0.69633(11)
C95 C 0.20687(12) -0.2011(2) 0.67997(13)
H115 H 0.18648(12) -0.2360(2) 0.69682(13)
H116 H 0.21642(12) -0.1537(2) 0.69793(13)
H117 H 0.18935(12) -0.1835(2) 0.65250(13)
N22 N 0.37130(8) -0.21231(13) 0.60964(8)
C96 C 0.3503(5) -0.2102(6) 0.4521(2)
H118 H 0.3347(5) -0.1862(6) 0.4252(2)
H119 H 0.3781(5) -0.1778(6) 0.4620(2)
H120 H 0.3603(5) -0.2655(6) 0.4457(2)
C97 C 0.38397(10) 0.32635(16) 0.65928(9)
H121 H 0.36365(10) 0.37435(16) 0.66313(9)
H122 H 0.41302(10) 0.34499(16) 0.64561(9)
C98 C 0.31022(10) 0.23715(17) 0.64539(10)
H123 H 0.31866(10) 0.20030(17) 0.67058(10)
H124 H 0.29258(10) 0.20492(17) 0.62203(10)
C99 C 0.38726(10) 0.19095(16) 0.61919(10)
H125 H 0.36935(10) 0.15477(16) 0.59793(10)
H126 H 0.39234(10) 0.16160(16) 0.64774(10)
C100 C 0.27631(11) 0.30298(18) 0.66162(11)
H127 H 0.29335(11) 0.33659(18) 0.68473(11)
H128 H 0.26578(11) 0.33862(18) 0.63646(11)
C101 C 0.34624(10) 0.31343(17) 0.58190(9)
H129 H 0.37488(10) 0.34464(17) 0.57519(9)
H130 H 0.32033(10) 0.35268(17) 0.58588(9)
C102 C 0.39861(10) 0.29123(17) 0.70579(9)
H131 H 0.37001(10) 0.27117(17) 0.71967(9)
H132 H 0.42043(10) 0.24495(17) 0.70265(9)
C103 C 0.33159(13) 0.2586(2) 0.54106(11)
H133 H 0.35816(13) 0.2216(2) 0.53542(11)
H134 H 0.30385(13) 0.2252(2) 0.54790(11)
C104 C 0.30830(15) 0.2561(2) 0.45760(12)
H135 H 0.30045(15) 0.2910(2) 0.43189(12)
H136 H 0.33631(15) 0.2234(2) 0.45212(12)
H137 H 0.28134(15) 0.2204(2) 0.46231(12)
C105 C 0.31899(15) 0.3088(2) 0.49932(12)
H138 H 0.29081(15) 0.3426(2) 0.50428(12)
H139 H 0.34578(15) 0.3456(2) 0.49409(12)
C106 C 0.45894(11) 0.13423(19) 0.58121(10)
H140 H 0.46568(11) 0.09368(19) 0.60496(10)
H141 H 0.43619(11) 0.11000(19) 0.55853(10)
C107 C 0.43641(10) 0.21006(18) 0.60112(10)
H142 H 0.43246(10) 0.25243(18) 0.57795(10)
H143 H 0.45804(10) 0.23139(18) 0.62559(10)
C108 C 0.23233(11) 0.26304(19) 0.68102(11)
H144 H 0.21557(11) 0.22936(19) 0.65776(11)
H145 H 0.24317(11) 0.22699(19) 0.70590(11)
C109 C 0.42367(11) 0.35673(18) 0.73627(10)
H146 H 0.45078(11) 0.37955(18) 0.72115(10)
H147 H 0.40099(11) 0.40121(18) 0.74083(10)
C110 C 0.44203(12) 0.3228(2) 0.78203(11)
H148 H 0.45743(12) 0.3661(2) 0.79987(11)
H149 H 0.41526(12) 0.3011(2) 0.79745(11)
H150 H 0.46505(12) 0.2795(2) 0.77777(11)
C111 C 0.19713(12) 0.3262(2) 0.69801(15)
H151 H 0.17007(12) 0.2983(2) 0.70990(15)
H152 H 0.21334(12) 0.3590(2) 0.72150(15)
H153 H 0.18574(12) 0.3614(2) 0.67337(15)
C112 C 0.50575(12) 0.1559(2) 0.55957(11)
H154 H 0.51932(12) 0.1069(2) 0.54721(11)
H155 H 0.49902(12) 0.1954(2) 0.53573(11)
H156 H 0.52847(12) 0.1791(2) 0.58210(11)
N23 N 0.35696(8) 0.26725(13) 0.62660(8)
C113 C 0.09701(11) -0.29209(17) 0.30173(10)
H157 H 0.07383(11) -0.24860(17) 0.30678(10)
H158 H 0.12503(11) -0.26737(17) 0.28893(10)
C114 C 0.11247(10) -0.33346(16) 0.34654(9)
H159 H 0.08386(10) -0.35672(16) 0.35904(9)
H160 H 0.13397(10) -0.37891(16) 0.34049(9)
C115 C 0.07411(12) -0.35524(18) 0.26874(10)
H161 H 0.09766(12) -0.39815(18) 0.26372(10)
H162 H 0.04675(12) -0.38078(18) 0.28224(10)
C116 C 0.22042(12) -0.29699(19) 0.34755(13)
H163 H 0.23336(12) -0.33136(19) 0.37239(13)
H164 H 0.20529(12) -0.33278(19) 0.32438(13)
C117 C 0.18286(11) -0.23872(17) 0.36450(10)
H165 H 0.19836(11) -0.20528(17) 0.38856(10)
H166 H 0.17248(11) -0.20176(17) 0.33989(10)
C118 C 0.05634(12) -0.23497(19) 0.41175(11)
H167 H 0.03653(12) -0.26023(19) 0.38716(11)
H168 H 0.06201(12) -0.27582(19) 0.43553(11)
C119 C 0.15144(13) -0.3327(2) 0.42337(11)
H169 H 0.17586(13) -0.3720(2) 0.41511(11)
H170 H 0.12298(13) -0.3639(2) 0.43061(11)
C120 C 0.10474(13) -0.20810(19) 0.39453(11)
H171 H 0.09834(13) -0.17371(19) 0.36791(11)
H172 H 0.12169(13) -0.17443(19) 0.41767(11)
C121 C 0.05680(13) -0.3177(2) 0.22327(10)
H173 H 0.04272(13) -0.3601(2) 0.20383(10)
H174 H 0.03293(13) -0.2760(2) 0.22791(10)
H175 H 0.08385(13) -0.2934(2) 0.20939(10)
C122 C 0.26152(14) -0.2491(2) 0.32797(17)
H176 H 0.24855(14) -0.2170(2) 0.30224(17)
H177 H 0.27511(14) -0.2109(2) 0.35071(17)
C123 C 0.02955(16) -0.1618(2) 0.43012(14)
H178 H 0.04907(16) -0.1378(2) 0.45530(14)
H179 H 0.02520(16) -0.1201(2) 0.40660(14)
C124 C -0.01968(16) -0.1855(3) 0.44603(13)
H180 H -0.03524(16) -0.1374(3) 0.45733(13)
H181 H -0.03940(16) -0.2082(3) 0.42108(13)
H182 H -0.01554(16) -0.2259(3) 0.46977(13)
C125 C 0.30160(16) -0.3047(3) 0.3128(2)
H183 H 0.32655(16) -0.2715(3) 0.3008(2)
H184 H 0.31510(16) -0.3358(3) 0.3383(2)
H185 H 0.28853(16) -0.3418(3) 0.2898(2)
C126 C 0.1706(2) -0.2870(4) 0.46561(13)
H186 H 0.2043(2) -0.2744(4) 0.46117(13)
H187 H 0.1537(2) -0.2345(4) 0.46522(13)
C127 C 0.18893(16) -0.2698(3) 0.54723(12)
H188 H 0.18400(16) -0.3033(3) 0.57332(12)
H189 H 0.22298(16) -0.2594(3) 0.54552(12)
H190 H 0.17208(16) -0.2183(3) 0.54978(12)
C128 C 0.1698(3) -0.3138(5) 0.50534(15)
H191 H 0.1361(3) -0.3259(5) 0.50977(15)
H192 H 0.1864(3) -0.3666(5) 0.50555(15)
N24 N 0.13791(9) -0.27828(14) 0.38233(8)
loop_
_geom_bond_atom_site_label_1
_geom_bond_atom_site_label_2
_geom_bond_site_symmetry_1
_geom_bond_site_symmetry_2
N1 N2 1_555 1_555
N2 H1 1_555 1_555
C1 N1 1_555 1_555
N3 C1 1_555 1_555
H2 N3 1_555 1_555
C2 C3 1_555 1_555
C3 H3 1_555 1_555
N4 C4 1_555 1_555
C4 N2 1_555 1_555
C5 C9 1_555 1_555
C6 C2 1_555 1_555
C7 C6 1_555 1_555
H4 C7 1_555 1_555
C8 C3 1_555 1_555
H5 C8 1_555 1_555
C9 H6 1_555 1_555
C10 N3 1_555 1_555
C11 C9 1_555 1_555
H7 C11 1_555 1_555
C12 C2 1_555 1_555
H8 C12 1_555 1_555
C13 C5 1_555 1_555
H9 C13 1_555 1_555
C14 C10 1_555 1_555
H10 C14 1_555 1_555
C15 C4 1_555 1_555
H11 C15 1_555 1_555
C16 C7 1_555 1_555
H12 C16 1_555 1_555
S1 C1 1_555 1_555
O1 N5 1_555 1_555
N5 C5 1_555 1_555
O2 N5 1_555 1_555
N6 H13 1_555 1_555
N7 N6 1_555 1_555
C17 N7 1_555 1_555
N8 C17 1_555 1_555
H14 N8 1_555 1_555
C18 H15 1_555 1_555
C19 C18 1_555 1_555
H16 C19 1_555 1_555
C20 C18 1_555 1_555
C21 C20 1_555 1_555
H17 C21 1_555 1_555
C22 N8 1_555 1_555
C23 C21 1_555 1_555
H18 C23 1_555 1_555
S2 C17 1_555 1_555
N9 C24 1_555 1_555
O3 N10 1_555 1_555
O4 N10 1_555 1_555
N10 C20 1_555 1_555
C24 N6 1_555 1_555
C25 C26 1_555 1_555
C26 N9 1_555 1_555
C27 C24 1_555 1_555
H19 C27 1_555 1_555
C28 C26 1_555 1_555
H20 C28 1_555 1_555
C29 C25 1_555 1_555
H21 C29 1_555 1_555
C30 H22 1_555 1_555
C31 C25 1_555 1_555
H23 C31 1_555 1_555
C32 C28 1_555 1_555
H24 C32 1_555 1_555
N11 N12 1_555 1_555
N12 H25 1_555 1_555
N13 H26 1_555 1_555
C33 N11 1_555 1_555
C34 N13 1_555 1_555
C35 C34 1_555 1_555
H27 C35 1_555 1_555
C36 C37 1_555 1_555
C37 C35 1_555 1_555
H28 C37 1_555 1_555
C38 C36 1_555 1_555
H29 C38 1_555 1_555
C39 C34 1_555 1_555
H30 C39 1_555 1_555
S3 C33 1_555 1_555
C40 N12 1_555 1_555
N14 C40 1_555 1_555
C41 N14 1_555 1_555
O5 N15 1_555 1_555
C42 C40 1_555 1_555
H31 C42 1_555 1_555
N15 C36 1_555 1_555
C43 C41 1_555 1_555
H32 C43 1_555 1_555
C44 C41 1_555 1_555
C45 C42 1_555 1_555
H33 C45 1_555 1_555
O6 N15 1_555 1_555
C46 C44 1_555 1_555
H34 C46 1_555 1_555
C47 C43 1_555 1_555
H35 C47 1_555 1_555
C48 C46 1_555 1_555
H36 C48 1_555 1_555
N16 H37 1_555 1_555
N17 N16 1_555 1_555
C49 N16 1_555 1_555
N18 C49 1_555 1_555
C50 C51 1_555 1_555
C51 H38 1_555 1_555
C52 N18 1_555 1_555
N19 H39 1_555 1_555
C53 H40 1_555 1_555
C54 N19 1_555 1_555
C55 H41 1_555 1_555
C56 C53 1_555 1_555
H42 C56 1_555 1_555
C57 N17 1_555 1_555
C58 C52 1_555 1_555
H43 C58 1_555 1_555
C59 C54 1_555 1_555
H44 C59 1_555 1_555
C60 C49 1_555 1_555
H45 C60 1_555 1_555
C61 C53 1_555 1_555
C62 C50 1_555 1_555
H46 C62 1_555 1_555
C63 C58 1_555 1_555
H47 C63 1_555 1_555
C64 C62 1_555 1_555
H48 C64 1_555 1_555
S4 C57 1_555 1_555
N20 C61 1_555 1_555
O7 N20 1_555 1_555
O8 N20 1_555 1_555
C65 H49 1_555 1_555
H50 C65 1_555 1_555
C66 H51 1_555 1_555
H52 C66 1_555 1_555
C67 H53 1_555 1_555
H54 C67 1_555 1_555
C68 H55 1_555 1_555
H56 C68 1_555 1_555
C69 H57 1_555 1_555
H58 C69 1_555 1_555
C70 C65 1_555 1_555
H59 C70 1_555 1_555
H60 C70 1_555 1_555
C71 H61 1_555 1_555
H62 C71 1_555 1_555
C72 C66 1_555 1_555
H63 C72 1_555 1_555
H64 C72 1_555 1_555
C73 C67 1_555 1_555
H65 C73 1_555 1_555
H66 C73 1_555 1_555
C74 C68 1_555 1_555
H67 C74 1_555 1_555
H68 C74 1_555 1_555
C75 C70 1_555 1_555
H69 C75 1_555 1_555
H70 C75 1_555 1_555
C76 C73 1_555 1_555
H71 C76 1_555 1_555
H72 C76 1_555 1_555
C77 C76 1_555 1_555
H73 C77 1_555 1_555
H74 C77 1_555 1_555
H75 C77 1_555 1_555
C78 C71 1_555 1_555
H76 C78 1_555 1_555
H77 C78 1_555 1_555
H78 C78 1_555 1_555
C79 C75 1_555 1_555
H79 C79 1_555 1_555
H80 C79 1_555 1_555
H81 C79 1_555 1_555
C80 C69 1_555 1_555
H82 C80 1_555 1_555
H83 C80 1_555 1_555
H84 C80 1_555 1_555
N21 C65 1_555 1_555
C81 H85 1_555 1_555
H86 C81 1_555 1_555
C82 C81 1_555 1_555
H87 C82 1_555 1_555
H88 C82 1_555 1_555
C83 H89 1_555 1_555
H90 C83 1_555 1_555
C84 H91 1_555 1_555
H92 C84 1_555 1_555
C85 C84 1_555 1_555
H93 C85 1_555 1_555
H94 C85 1_555 1_555
C86 H95 1_555 1_555
H96 C86 1_555 1_555
C87 H97 1_555 1_555
H98 C87 1_555 1_555
C88 C83 1_555 1_555
H99 C88 1_555 1_555
H100 C88 1_555 1_555
C89 C87 1_555 1_555
H101 C89 1_555 1_555
H102 C89 1_555 1_555
H103 C89 1_555 1_555
C90 C84 1_555 1_555
H104 C90 1_555 1_555
H105 C90 1_555 1_555
C91 C86 1_555 1_555
H106 C91 1_555 1_555
H107 C91 1_555 1_555
C92 C90 1_555 1_555
H108 C92 1_555 1_555
H109 C92 1_555 1_555
H110 C92 1_555 1_555
C93 C91 1_555 1_555
H111 C93 1_555 1_555
H112 C93 1_555 1_555
C94 C81 1_555 1_555
H113 C94 1_555 1_555
H114 C94 1_555 1_555
C95 C94 1_555 1_555
H115 C95 1_555 1_555
H116 C95 1_555 1_555
H117 C95 1_555 1_555
N22 C82 1_555 1_555
C96 C93 1_555 1_555
H118 C96 1_555 1_555
H119 C96 1_555 1_555
H120 C96 1_555 1_555
C97 H121 1_555 1_555
H122 C97 1_555 1_555
C98 H123 1_555 1_555
H124 C98 1_555 1_555
C99 H125 1_555 1_555
H126 C99 1_555 1_555
C100 C98 1_555 1_555
H127 C100 1_555 1_555
H128 C100 1_555 1_555
C101 H129 1_555 1_555
H130 C101 1_555 1_555
C102 C97 1_555 1_555
H131 C102 1_555 1_555
H132 C102 1_555 1_555
C103 C101 1_555 1_555
H133 C103 1_555 1_555
H134 C103 1_555 1_555
C104 H135 1_555 1_555
H136 C104 1_555 1_555
H137 C104 1_555 1_555
C105 C103 1_555 1_555
H138 C105 1_555 1_555
H139 C105 1_555 1_555
C106 H140 1_555 1_555
H141 C106 1_555 1_555
C107 C99 1_555 1_555
H142 C107 1_555 1_555
H143 C107 1_555 1_555
C108 C100 1_555 1_555
H144 C108 1_555 1_555
H145 C108 1_555 1_555
C109 C102 1_555 1_555
H146 C109 1_555 1_555
H147 C109 1_555 1_555
C110 C109 1_555 1_555
H148 C110 1_555 1_555
H149 C110 1_555 1_555
H150 C110 1_555 1_555
C111 C108 1_555 1_555
H151 C111 1_555 1_555
H152 C111 1_555 1_555
H153 C111 1_555 1_555
C112 C106 1_555 1_555
H154 C112 1_555 1_555
H155 C112 1_555 1_555
H156 C112 1_555 1_555
N23 C97 1_555 1_555
C113 H157 1_555 1_555
H158 C113 1_555 1_555
C114 C113 1_555 1_555
H159 C114 1_555 1_555
H160 C114 1_555 1_555
C115 C113 1_555 1_555
H161 C115 1_555 1_555
H162 C115 1_555 1_555
C116 H163 1_555 1_555
H164 C116 1_555 1_555
C117 C116 1_555 1_555
H165 C117 1_555 1_555
H166 C117 1_555 1_555
C118 H167 1_555 1_555
H168 C118 1_555 1_555
C119 H169 1_555 1_555
H170 C119 1_555 1_555
C120 C118 1_555 1_555
H171 C120 1_555 1_555
H172 C120 1_555 1_555
C121 C115 1_555 1_555
H173 C121 1_555 1_555
H174 C121 1_555 1_555
H175 C121 1_555 1_555
C122 C116 1_555 1_555
H176 C122 1_555 1_555
H177 C122 1_555 1_555
C123 C118 1_555 1_555
H178 C123 1_555 1_555
H179 C123 1_555 1_555
C124 C123 1_555 1_555
H180 C124 1_555 1_555
H181 C124 1_555 1_555
H182 C124 1_555 1_555
C125 C122 1_555 1_555
H183 C125 1_555 1_555
H184 C125 1_555 1_555
H185 C125 1_555 1_555
C126 C119 1_555 1_555
H186 C126 1_555 1_555
H187 C126 1_555 1_555
C127 H188 1_555 1_555
H189 C127 1_555 1_555
H190 C127 1_555 1_555
C128 C126 1_555 1_555
H191 C128 1_555 1_555
H192 C128 1_555 1_555
N24 C114 1_555 1_555
N4 C6 1_555 1_555
C8 C16 1_555 1_555
C10 C11 1_555 1_555
C12 C15 1_555 1_555
C13 C14 1_555 1_555
C19 C22 1_555 1_555
C22 C23 1_555 1_555
C27 C29 1_555 1_555
C30 C31 1_555 1_555
C30 C32 1_555 1_555
N13 C33 1_555 1_555
C38 C39 1_555 1_555
C44 C45 1_555 1_555
C47 C48 1_555 1_555
C50 C52 1_555 1_555
C51 C60 1_555 1_555
N19 C57 1_555 1_555
C54 C56 1_555 1_555
C55 C59 1_555 1_555
C55 C61 1_555 1_555
C63 C64 1_555 1_555
C66 N21 1_555 1_555
C67 N21 1_555 1_555
C68 N21 1_555 1_555
C69 C72 1_555 1_555
C71 C74 1_555 1_555
C83 N22 1_555 1_555
C85 N22 1_555 1_555
C86 N22 1_555 1_555
C87 C88 1_555 1_555
C98 N23 1_555 1_555
C99 N23 1_555 1_555
C101 N23 1_555 1_555
C104 C105 1_555 1_555
C106 C107 1_555 1_555
C117 N24 1_555 1_555
C119 N24 1_555 1_555
C120 N24 1_555 1_555
C127 C128 1_555 1_555

#END
