
#######################################################################
#
#                 Cambridge Crystallographic Data Centre
#                                CCDC 
#
#######################################################################
#
# If this CIF has been generated from an entry in the Cambridge 
# Structural Database, then it will include bibliographic, chemical, 
# crystal, experimental, refinement or atomic coordinate data resulting 
# from the CCDC's data processing and validation procedures.
#
#######################################################################

data_QAXLAC
_chemical_formula_moiety         'C14 H9 F4 1+,As2 F11 1-'
_chemical_name_systematic        
'Fluoro(phenyl)(3-trifluoromethylphenyl)carbenium (\m~2~-fluoro)-decafluoro-di-arsenic'
_symmetry_cell_setting           monoclinic
_symmetry_space_group_name_H-M   'P 21/c'
_symmetry_Int_Tables_number      14
_space_group_name_Hall           '-P 2ybc'
loop_
_symmetry_equiv_pos_site_id
_symmetry_equiv_pos_as_xyz
1 x,y,z
2 -x,1/2+y,1/2-z
3 -x,-y,-z
4 x,1/2-y,1/2+z
_cell_length_a                   15.101(5)
_cell_length_b                   8.649(2)
_cell_length_c                   15.190(7)
_cell_angle_alpha                90
_cell_angle_beta                 99.09(4)
_cell_angle_gamma                90
_cell_volume                     1959.03
_exptl_crystal_colour            white
_cell_formula_units_Z            4
loop_
_atom_site_label
_atom_site_type_symbol
_atom_site_fract_x
_atom_site_fract_y
_atom_site_fract_z
As1 As 0.1708(1) 0.0669(2) 0.2506(1)
As2 As 0.4153(1) 0.1157(2) 0.3037(1)
F1 F 0.2914(9) 0.1304(24) 0.2652(14)
F2 F 0.0644(8) 0.0278(27) 0.2375(16)
F3 F 0.5254(7) 0.1165(19) 0.3326(10)
F4 F 0.1586(16) 0.2392(18) 0.2002(14)
F5 F 0.1855(9) -0.0130(15) 0.1564(8)
F6 F 0.1969(11) -0.0982(13) 0.3047(8)
F7 F 0.1723(12) 0.1536(17) 0.3479(11)
F8 F 0.4190(10) 0.1917(16) 0.2021(8)
F9 F 0.4104(10) -0.0619(15) 0.2560(11)
F10 F 0.3919(12) 0.0398(20) 0.3942(9)
F11 F 0.4028(9) 0.2936(14) 0.3413(10)
F12 F 0.8860(6) 0.0138(13) 0.1897(6)
F13 F 1.0296(8) 0.2267(15) 0.4648(8)
F14 F 0.9432(9) 0.3643(13) 0.5265(9)
F15 F 0.9785(10) 0.1435(18) 0.5781(9)
C1 C 0.8061(10) 0.0459(17) 0.2084(10)
C2 C 0.9555(13) 0.2208(24) 0.5017(13)
C3 C 0.7356(11) 0.0551(17) 0.1331(10)
C4 C 0.6607(11) 0.1390(18) 0.1365(11)
C5 C 0.5959(11) 0.1454(21) 0.0621(12)
C6 C 0.6053(13) 0.0713(22) -0.0131(13)
C7 C 0.6816(12) -0.0220(21) -0.0196(10)
C8 C 0.7509(11) -0.0297(22) 0.0559(9)
C9 C 0.8028(9) 0.0757(16) 0.2995(9)
C10 C 0.8809(10) 0.1287(17) 0.3534(10)
C11 C 0.8787(11) 0.1571(17) 0.4427(10)
C12 C 0.8003(11) 0.1269(20) 0.4765(10)
C13 C 0.7233(12) 0.0680(19) 0.4247(12)
C14 C 0.7272(12) 0.0463(19) 0.3353(11)
H1 H 0.6529(18) 0.193(10) 0.1898(99)
H2 H 0.5579(78) 0.1875(88) 0.0635(12)
H3 H 0.5647(90) 0.0801(30) -0.058(10)
H4 H 0.6856(14) -0.070(10) -0.0656(92)
H5 H 0.807(15) -0.113(17) 0.0546(10)
H6 H 0.939(10) 0.1463(37) 0.3269(49)
H7 H 0.7991(12) 0.1483(44) 0.541(12)
H8 H 0.675(10) 0.0459(47) 0.4477(48)
H9 H 0.676(10) 0.0100(76) 0.2979(76)
loop_
_geom_bond_atom_site_label_1
_geom_bond_atom_site_label_2
_geom_bond_site_symmetry_1
_geom_bond_site_symmetry_2
As1 F1 1_555 1_555
As2 F1 1_555 1_555
F2 As1 1_555 1_555
F3 As2 1_555 1_555
F4 As1 1_555 1_555
F5 As1 1_555 1_555
F6 As1 1_555 1_555
F7 As1 1_555 1_555
F8 As2 1_555 1_555
F9 As2 1_555 1_555
F10 As2 1_555 1_555
F11 As2 1_555 1_555
F12 C1 1_555 1_555
F13 C2 1_555 1_555
F14 C2 1_555 1_555
F15 C2 1_555 1_555
C1 C3 1_555 1_555
C2 C11 1_555 1_555
C3 C4 1_555 1_555
C4 C5 1_555 1_555
C5 C6 1_555 1_555
C6 C7 1_555 1_555
C7 C8 1_555 1_555
C8 C3 1_555 1_555
C9 C1 1_555 1_555
C10 C9 1_555 1_555
C11 C10 1_555 1_555
C12 C11 1_555 1_555
C13 C12 1_555 1_555
C14 C9 1_555 1_555
H1 C4 1_555 1_555
H2 C5 1_555 1_555
H3 C6 1_555 1_555
H4 C7 1_555 1_555
H5 C8 1_555 1_555
H6 C10 1_555 1_555
H7 C12 1_555 1_555
H8 C13 1_555 1_555
H9 C14 1_555 1_555
C13 C14 1_555 1_555

#END
