
#######################################################################
#
#                 Cambridge Crystallographic Data Centre
#                                CCDC 
#
#######################################################################
#
# If this CIF has been generated from an entry in the Cambridge 
# Structural Database, then it will include bibliographic, chemical, 
# crystal, experimental, refinement or atomic coordinate data resulting 
# from the CCDC's data processing and validation procedures.
#
#######################################################################

data_QAXLOR
_chemical_name_common            
"C-Undecyl-6,10:18,22-bis(O,O'-quinoxalin-2,3-diyl)calix[4]resorcinarene acetone solvate"
_chemical_formula_moiety         'C88 H116 N4 O8,2(C3 H6 O1)'
_chemical_name_systematic        
'2,8,14,20-tetrakis(Undecyl)-4,12,16,24-tetrahydroxy-6,10:18,22-bis(quinoxalin-2,3-diolato)calix[4]arene acetone solvate'
_symmetry_cell_setting           triclinic
_symmetry_space_group_name_H-M   'P -1'
_symmetry_Int_Tables_number      2
_space_group_name_Hall           '-P 1'
loop_
_symmetry_equiv_pos_site_id
_symmetry_equiv_pos_as_xyz
1 x,y,z
2 -x,-y,-z
_cell_length_a                   11.8400(2)
_cell_length_b                   13.8058(2)
_cell_length_c                   28.6689(4)
_cell_angle_alpha                78.641(1)
_cell_angle_beta                 80.066(1)
_cell_angle_gamma                72.126(1)
_cell_volume                     4341.04
_exptl_crystal_colour            colorless
_cell_formula_units_Z            2
loop_
_atom_site_label
_atom_site_type_symbol
_atom_site_fract_x
_atom_site_fract_y
_atom_site_fract_z
C1 C 0.2087(3) 0.0001(3) 0.25587(13)
H1 H 0.2710 -0.0663 0.2537
C2 C 0.2278(3) 0.0383(3) 0.29901(14)
C3 C 0.1917(3) 0.1426(3) 0.30295(14)
H2 H 0.1529 0.1890 0.2781
C4 C 0.2090(3) 0.1829(3) 0.34100(14)
C5 C 0.2672(3) 0.1104(4) 0.37651(14)
C6 C 0.3037(3) 0.0058(4) 0.37460(16)
H3 H 0.3428 -0.0407 0.3994
C7 C 0.2829(4) -0.0299(4) 0.33671(15)
O1 O 0.3213(3) -0.1348(2) 0.33809(10)
H4 H 0.2781 -0.1525 0.3235
C8 C 0.1684(4) 0.2967(3) 0.34389(15)
H5 H 0.2170 0.3072 0.3663
C9 C 0.0379(4) 0.3302(3) 0.36653(14)
C10 C -0.0602(4) 0.3617(3) 0.34006(13)
H6 H -0.0450 0.3617 0.3068
C11 C -0.1784(4) 0.3929(2) 0.36037(12)
C12 C -0.1982(4) 0.3940(3) 0.40955(13)
C13 C -0.1045(5) 0.3632(3) 0.43678(14)
H7 H -0.1193 0.3650 0.4699
C14 C 0.0110(5) 0.3299(3) 0.41524(16)
O2 O -0.3158(3) 0.4283(2) 0.42934(9)
H8 H -0.3180 0.4300 0.4583
O3 O 0.1033(3) 0.3021(2) 0.44463(10)
C15 C 0.1228(4) 0.2064(3) 0.47275(15)
C16 C 0.2221(4) 0.1265(3) 0.45858(14)
O4 O 0.2903(2) 0.1472(2) 0.41550(10)
N1 N 0.2527(3) 0.0368(3) 0.48394(11)
C17 C 0.1800(4) 0.0220(3) 0.52646(12)
C18 C 0.0809(4) 0.0995(3) 0.54006(14)
N2 N 0.0527(4) 0.1955(3) 0.51214(13)
C19 C 0.0101(5) 0.0805(4) 0.58320(16)
H9 H -0.0564 0.1331 0.5933
C20 C 0.0374(5) -0.0145(4) 0.61080(16)
H10 H -0.0123 -0.0278 0.6392
C21 C 0.1372(4) -0.0909(3) 0.59729(14)
H11 H 0.1558 -0.1556 0.6168
C22 C 0.2088(4) -0.0736(3) 0.55610(14)
H12 H 0.2777 -0.1257 0.5475
C23 C -0.2821(3) 0.4226(2) 0.33072(11)
H13 H -0.3508 0.4666 0.3490
C24 C -0.3184(3) 0.3268(2) 0.32758(10)
C25 C -0.2663(3) 0.2688(2) 0.29084(11)
H14 H -0.2086 0.2905 0.2678
C26 C -0.2942(3) 0.1810(2) 0.28603(10)
C27 C -0.3782(3) 0.1513(2) 0.32136(11)
C28 C -0.4342(3) 0.2053(3) 0.35791(12)
H15 H -0.4924 0.1834 0.3805
C29 C -0.4043(3) 0.2932(2) 0.36141(11)
O5 O -0.4646(3) 0.34441(19) 0.39876(9)
H16 H -0.4311 0.3872 0.4017
C30 C -0.2375(3) 0.1195(2) 0.24505(11)
H17 H -0.2966 0.0860 0.2402
C31 C -0.1268(3) 0.0330(2) 0.25869(10)
C32 C -0.0155(3) 0.0512(3) 0.25322(11)
H18 H -0.0112 0.1188 0.2419
C33 C 0.0894(3) -0.0244(3) 0.26348(12)
C34 C 0.0798(4) -0.1236(3) 0.28136(14)
C35 C -0.0277(4) -0.1446(3) 0.28834(13)
H19 H -0.0327 -0.2115 0.3010
C36 C -0.1296(3) -0.0669(3) 0.27676(12)
O6 O -0.2373(2) -0.09309(17) 0.28214(8)
O7 O 0.1840(3) -0.1996(2) 0.29075(12)
H20 H 0.1679 -0.2476 0.3105
C37 C -0.2878(3) -0.1096(3) 0.32906(12)
C38 C -0.3727(3) -0.0253(2) 0.34821(12)
O8 O -0.4103(2) 0.06360(16) 0.31653(8)
N3 N -0.4184(3) -0.0309(2) 0.39261(11)
C39 C -0.3846(4) -0.1267(3) 0.42023(13)
C40 C -0.3077(4) -0.2116(3) 0.40032(14)
N4 N -0.2562(3) -0.2008(2) 0.35335(12)
C41 C -0.4319(4) -0.1397(4) 0.46865(15)
H21 H -0.4828 -0.0830 0.4825
C42 C -0.4034(5) -0.2357(4) 0.49572(16)
H22 H -0.4338 -0.2443 0.5283
C43 C -0.3308(5) -0.3194(4) 0.47556(19)
H23 H -0.3148 -0.3849 0.4944
C44 C -0.2816(5) -0.3098(3) 0.42895(18)
H24 H -0.2309 -0.3677 0.4160
C45 C 0.2267(3) 0.0698(3) 0.20784(13)
H25 H 0.1606 0.1334 0.2066
H26 H 0.3010 0.0884 0.2059
C46 C 0.2322(4) 0.0186(3) 0.16555(13)
H27 H 0.1574 0.0007 0.1675
H28 H 0.2973 -0.0457 0.1674
C47 C 0.2514(4) 0.0840(3) 0.11747(13)
H29 H 0.1815 0.1442 0.1141
H30 H 0.3208 0.1089 0.1170
C48 C 0.2714(4) 0.0286(3) 0.07491(13)
H31 H 0.3401 -0.0326 0.0787
H32 H 0.2012 0.0052 0.0750
C49 C 0.2935(4) 0.0921(3) 0.02723(13)
H33 H 0.3604 0.1192 0.0280
H34 H 0.2226 0.1510 0.0225
C50 C 0.3211(4) 0.0354(3) -0.01525(13)
H35 H 0.3904 -0.0248 -0.0102
H36 H 0.2530 0.0104 -0.0168
C51 C 0.3469(4) 0.0999(3) -0.06258(13)
H37 H 0.4151 0.1246 -0.0608
H38 H 0.2777 0.1603 -0.0672
C52 C 0.3743(4) 0.0458(3) -0.10595(14)
H39 H 0.4429 -0.0152 -0.1014
H40 H 0.3056 0.0224 -0.1084
C53 C 0.4017(4) 0.1126(3) -0.15234(13)
H41 H 0.4718 0.1343 -0.1500
H42 H 0.3341 0.1748 -0.1561
C54 C 0.4256(4) 0.0624(4) -0.19676(15)
H43 H 0.4926 -0.0003 -0.1930
H44 H 0.3551 0.0419 -0.1996
C55 C 0.4545(4) 0.1308(4) -0.24247(15)
H45 H 0.4683 0.0941 -0.2694
H46 H 0.5257 0.1498 -0.2405
H47 H 0.3881 0.1925 -0.2469
C56 C -0.2135(3) 0.1885(2) 0.19727(11)
H48 H -0.2866 0.2442 0.1914
H49 H -0.1517 0.2199 0.2002
C57 C -0.1735(4) 0.1314(3) 0.15455(11)
H50 H -0.2363 0.1018 0.1509
H51 H -0.1017 0.0743 0.1608
C58 C -0.1464(4) 0.1992(3) 0.10806(11)
H52 H -0.2176 0.2572 0.1024
H53 H -0.0824 0.2274 0.1116
C59 C -0.1091(4) 0.1445(3) 0.06450(12)
H54 H -0.0372 0.0871 0.0700
H55 H -0.1727 0.1153 0.0613
C60 C -0.0838(4) 0.2120(3) 0.01778(12)
H56 H -0.0188 0.2398 0.0206
H57 H -0.1550 0.2704 0.0126
C61 C -0.0496(4) 0.1568(3) -0.02552(12)
H58 H 0.0218 0.0987 -0.0203
H59 H -0.1145 0.1287 -0.0281
C62 C -0.0247(4) 0.2237(3) -0.07239(13)
H60 H 0.0398 0.2524 -0.0698
H61 H -0.0963 0.2814 -0.0779
C63 C 0.0107(5) 0.1664(4) -0.11516(14)
H62 H -0.0582 0.1463 -0.1202
H63 H 0.0745 0.1030 -0.1073
C64 C 0.0535(6) 0.2260(5) -0.16177(18)
H64 H 0.1163 0.2524 -0.1554
H65 H 0.0905 0.1772 -0.1844
C65 C -0.0296(7) 0.3073(5) -0.1841(2)
H66 H -0.0711 0.3537 -0.1608
H67 H -0.0892 0.2802 -0.1929
C66 C 0.0166(7) 0.3707(5) -0.2288(2)
H68 H -0.0494 0.4266 -0.2407
H69 H 0.0533 0.3272 -0.2532
H70 H 0.0754 0.3988 -0.2209
C67 C -0.2613(3) 0.4878(3) 0.28199(12)
H71 H -0.2316 0.5438 0.2865
H72 H -0.1995 0.4448 0.2613
C68 C -0.3738(3) 0.5335(3) 0.25705(12)
H73 H -0.4335 0.5803 0.2767
H74 H -0.4067 0.4778 0.2548
C69 C -0.3532(4) 0.5924(3) 0.20687(13)
H75 H -0.4301 0.6387 0.1980
H76 H -0.3013 0.6351 0.2078
C70 C -0.2975(4) 0.5255(3) 0.16828(13)
H77 H -0.3515 0.4859 0.1658
H78 H -0.2226 0.4765 0.1778
C71 C -0.2718(4) 0.5866(3) 0.11943(12)
H79 H -0.3441 0.6425 0.1125
H80 H -0.2093 0.6183 0.1212
C72 C -0.2325(4) 0.5264(3) 0.07794(13)
H81 H -0.1608 0.4698 0.0848
H82 H -0.2955 0.4960 0.0754
C73 C -0.2057(4) 0.5896(3) 0.03037(12)
H83 H -0.1413 0.6183 0.0329
H84 H -0.2768 0.6476 0.0244
C74 C -0.1699(4) 0.5338(3) -0.01252(13)
H85 H -0.2352 0.5072 -0.0159
H86 H -0.1000 0.4747 -0.0064
C75 C -0.1401(4) 0.5992(3) -0.05934(13)
H87 H -0.2100 0.6584 -0.0653
H88 H -0.0748 0.6258 -0.0558
C76 C -0.1044(4) 0.5449(3) -0.10254(14)
H89 H -0.1704 0.5199 -0.1069
H90 H -0.0354 0.4848 -0.0966
C77 C -0.0726(5) 0.6127(4) -0.14834(14)
H91 H -0.0506 0.5735 -0.1747
H92 H -0.0060 0.6363 -0.1446
H93 H -0.1411 0.6716 -0.1549
C78 C 0.1950(4) 0.3626(4) 0.29576(16)
H94 H 0.1567 0.4356 0.2980
H95 H 0.1619 0.3447 0.2706
C79 C 0.3317(5) 0.3443(6) 0.2823(2)
H96 H 0.3700 0.2699 0.2852
H97 H 0.3618 0.3705 0.3057
C80 C 0.3704(9) 0.3956(9) 0.2311(4)
H98 H 0.4379 0.4219 0.2320
H99 H 0.3040 0.4540 0.2202
C81 C 0.4073(8) 0.3167(7) 0.1951(4)
H100 H 0.4728 0.2584 0.2066
H101 H 0.3394 0.2903 0.1949
C82 C 0.4470(7) 0.3597(7) 0.1434(4)
H102 H 0.3823 0.4200 0.1330
H103 H 0.5159 0.3844 0.1441
C83 C 0.4794(7) 0.2935(6) 0.1069(4)
H104 H 0.4124 0.2662 0.1065
H105 H 0.5477 0.2350 0.1157
C84 C 0.5121(7) 0.3463(6) 0.0558(4)
H106 H 0.4438 0.4045 0.0467
H107 H 0.5790 0.3739 0.0560
C85 C 0.5441(8) 0.2804(6) 0.0208(5)
H108 H 0.4781 0.2514 0.0209
H109 H 0.6139 0.2231 0.0293
C86 C 0.5736(6) 0.3353(5) -0.0305(4)
H110 H 0.5040 0.3933 -0.0385
H111 H 0.6399 0.3637 -0.0304
C87 C 0.6054(8) 0.2710(6) -0.0677(5)
H112 H 0.5396 0.2419 -0.0676
H113 H 0.6759 0.2137 -0.0601
C88 C 0.6316(7) 0.3258(7) -0.1168(4)
H114 H 0.6540 0.2776 -0.1395
H115 H 0.6968 0.3549 -0.1173
H116 H 0.5611 0.3806 -0.1254
O9 O -0.3654(4) 0.4258(2) 0.52379(10)
C89 C -0.3721(5) 0.3492(4) 0.55243(15)
C90 C -0.3091(6) 0.2456(4) 0.54116(18)
H117 H -0.2662 0.2507 0.5091
H118 H -0.3665 0.2074 0.5427
H119 H -0.2529 0.2100 0.5641
C91 C -0.4423(5) 0.3581(4) 0.59995(17)
H120 H -0.4792 0.4303 0.6027
H121 H -0.3901 0.3265 0.6247
H122 H -0.5040 0.3235 0.6037
O10 O -0.1806(7) 0.3789(6) 0.6536(3)
C92 C -0.1371(6) 0.4108(5) 0.6102(3)
C93 C -0.2360(11) 0.5059(9) 0.5984(4)
H123 H -0.3109 0.4908 0.6097
H124 H -0.2308 0.5597 0.6140
H125 H -0.2309 0.5279 0.5644
C94 C -0.0160(13) 0.3850(10) 0.6028(5)
H126 H 0.0175 0.3141 0.6156
H127 H 0.0101 0.3962 0.5691
H128 H 0.0102 0.4281 0.6186
loop_
_geom_bond_atom_site_label_1
_geom_bond_atom_site_label_2
_geom_bond_site_symmetry_1
_geom_bond_site_symmetry_2
C1 H1 1_555 1_555
C2 C1 1_555 1_555
C3 C2 1_555 1_555
H2 C3 1_555 1_555
C4 C3 1_555 1_555
C5 C4 1_555 1_555
C6 C5 1_555 1_555
H3 C6 1_555 1_555
C7 C2 1_555 1_555
O1 C7 1_555 1_555
H4 O1 1_555 1_555
C8 C4 1_555 1_555
H5 C8 1_555 1_555
C9 C8 1_555 1_555
C10 C9 1_555 1_555
H6 C10 1_555 1_555
C11 C10 1_555 1_555
C12 C11 1_555 1_555
C13 C12 1_555 1_555
H7 C13 1_555 1_555
C14 C9 1_555 1_555
O2 C12 1_555 1_555
H8 O2 1_555 1_555
O3 C14 1_555 1_555
C15 O3 1_555 1_555
C16 C15 1_555 1_555
O4 C5 1_555 1_555
N1 C16 1_555 1_555
C17 N1 1_555 1_555
C18 C17 1_555 1_555
N2 C15 1_555 1_555
C19 C18 1_555 1_555
H9 C19 1_555 1_555
C20 C19 1_555 1_555
H10 C20 1_555 1_555
C21 C20 1_555 1_555
H11 C21 1_555 1_555
C22 C17 1_555 1_555
H12 C22 1_555 1_555
C23 C11 1_555 1_555
H13 C23 1_555 1_555
C24 C23 1_555 1_555
C25 C24 1_555 1_555
H14 C25 1_555 1_555
C26 C25 1_555 1_555
C27 C26 1_555 1_555
C28 C27 1_555 1_555
H15 C28 1_555 1_555
C29 C24 1_555 1_555
O5 C29 1_555 1_555
H16 O5 1_555 1_555
C30 C26 1_555 1_555
H17 C30 1_555 1_555
C31 C30 1_555 1_555
C32 C31 1_555 1_555
H18 C32 1_555 1_555
C33 C1 1_555 1_555
C34 C33 1_555 1_555
C35 C34 1_555 1_555
H19 C35 1_555 1_555
C36 C31 1_555 1_555
O6 C36 1_555 1_555
O7 C34 1_555 1_555
H20 O7 1_555 1_555
C37 O6 1_555 1_555
C38 C37 1_555 1_555
O8 C27 1_555 1_555
N3 C38 1_555 1_555
C39 N3 1_555 1_555
C40 C39 1_555 1_555
N4 C37 1_555 1_555
C41 C39 1_555 1_555
H21 C41 1_555 1_555
C42 C41 1_555 1_555
H22 C42 1_555 1_555
C43 C42 1_555 1_555
H23 C43 1_555 1_555
C44 C40 1_555 1_555
H24 C44 1_555 1_555
C45 C1 1_555 1_555
H25 C45 1_555 1_555
H26 C45 1_555 1_555
C46 C45 1_555 1_555
H27 C46 1_555 1_555
H28 C46 1_555 1_555
C47 C46 1_555 1_555
H29 C47 1_555 1_555
H30 C47 1_555 1_555
C48 C47 1_555 1_555
H31 C48 1_555 1_555
H32 C48 1_555 1_555
C49 C48 1_555 1_555
H33 C49 1_555 1_555
H34 C49 1_555 1_555
C50 C49 1_555 1_555
H35 C50 1_555 1_555
H36 C50 1_555 1_555
C51 C50 1_555 1_555
H37 C51 1_555 1_555
H38 C51 1_555 1_555
C52 C51 1_555 1_555
H39 C52 1_555 1_555
H40 C52 1_555 1_555
C53 C52 1_555 1_555
H41 C53 1_555 1_555
H42 C53 1_555 1_555
C54 C53 1_555 1_555
H43 C54 1_555 1_555
H44 C54 1_555 1_555
C55 C54 1_555 1_555
H45 C55 1_555 1_555
H46 C55 1_555 1_555
H47 C55 1_555 1_555
C56 C30 1_555 1_555
H48 C56 1_555 1_555
H49 C56 1_555 1_555
C57 C56 1_555 1_555
H50 C57 1_555 1_555
H51 C57 1_555 1_555
C58 C57 1_555 1_555
H52 C58 1_555 1_555
H53 C58 1_555 1_555
C59 C58 1_555 1_555
H54 C59 1_555 1_555
H55 C59 1_555 1_555
C60 C59 1_555 1_555
H56 C60 1_555 1_555
H57 C60 1_555 1_555
C61 C60 1_555 1_555
H58 C61 1_555 1_555
H59 C61 1_555 1_555
C62 C61 1_555 1_555
H60 C62 1_555 1_555
H61 C62 1_555 1_555
C63 C62 1_555 1_555
H62 C63 1_555 1_555
H63 C63 1_555 1_555
C64 C63 1_555 1_555
H64 C64 1_555 1_555
H65 C64 1_555 1_555
C65 C64 1_555 1_555
H66 C65 1_555 1_555
H67 C65 1_555 1_555
C66 C65 1_555 1_555
H68 C66 1_555 1_555
H69 C66 1_555 1_555
H70 C66 1_555 1_555
C67 C23 1_555 1_555
H71 C67 1_555 1_555
H72 C67 1_555 1_555
C68 C67 1_555 1_555
H73 C68 1_555 1_555
H74 C68 1_555 1_555
C69 C68 1_555 1_555
H75 C69 1_555 1_555
H76 C69 1_555 1_555
C70 C69 1_555 1_555
H77 C70 1_555 1_555
H78 C70 1_555 1_555
C71 C70 1_555 1_555
H79 C71 1_555 1_555
H80 C71 1_555 1_555
C72 C71 1_555 1_555
H81 C72 1_555 1_555
H82 C72 1_555 1_555
C73 C72 1_555 1_555
H83 C73 1_555 1_555
H84 C73 1_555 1_555
C74 C73 1_555 1_555
H85 C74 1_555 1_555
H86 C74 1_555 1_555
C75 C74 1_555 1_555
H87 C75 1_555 1_555
H88 C75 1_555 1_555
C76 C75 1_555 1_555
H89 C76 1_555 1_555
H90 C76 1_555 1_555
C77 C76 1_555 1_555
H91 C77 1_555 1_555
H92 C77 1_555 1_555
H93 C77 1_555 1_555
C78 C8 1_555 1_555
H94 C78 1_555 1_555
H95 C78 1_555 1_555
C79 C78 1_555 1_555
H96 C79 1_555 1_555
H97 C79 1_555 1_555
C80 C79 1_555 1_555
H98 C80 1_555 1_555
H99 C80 1_555 1_555
C81 C80 1_555 1_555
H100 C81 1_555 1_555
H101 C81 1_555 1_555
C82 C81 1_555 1_555
H102 C82 1_555 1_555
H103 C82 1_555 1_555
C83 C82 1_555 1_555
H104 C83 1_555 1_555
H105 C83 1_555 1_555
C84 C83 1_555 1_555
H106 C84 1_555 1_555
H107 C84 1_555 1_555
C85 C84 1_555 1_555
H108 C85 1_555 1_555
H109 C85 1_555 1_555
C86 C85 1_555 1_555
H110 C86 1_555 1_555
H111 C86 1_555 1_555
C87 C86 1_555 1_555
H112 C87 1_555 1_555
H113 C87 1_555 1_555
C88 C87 1_555 1_555
H114 C88 1_555 1_555
H115 C88 1_555 1_555
H116 C88 1_555 1_555
O9 C89 1_555 1_555
C89 C90 1_555 1_555
C90 H117 1_555 1_555
H118 C90 1_555 1_555
H119 C90 1_555 1_555
C91 C89 1_555 1_555
H120 C91 1_555 1_555
H121 C91 1_555 1_555
H122 C91 1_555 1_555
O10 C92 1_555 1_555
C92 C93 1_555 1_555
C93 H123 1_555 1_555
H124 C93 1_555 1_555
H125 C93 1_555 1_555
C94 C92 1_555 1_555
H126 C94 1_555 1_555
H127 C94 1_555 1_555
H128 C94 1_555 1_555
C6 C7 1_555 1_555
C13 C14 1_555 1_555
C16 O4 1_555 1_555
C18 N2 1_555 1_555
C21 C22 1_555 1_555
C28 C29 1_555 1_555
C32 C33 1_555 1_555
C35 C36 1_555 1_555
C38 O8 1_555 1_555
C40 N4 1_555 1_555
C43 C44 1_555 1_555

#END
