
#######################################################################
#
#                 Cambridge Crystallographic Data Centre
#                                CCDC 
#
#######################################################################
#
# If this CIF has been generated from an entry in the Cambridge 
# Structural Database, then it will include bibliographic, chemical, 
# crystal, experimental, refinement or atomic coordinate data resulting 
# from the CCDC's data processing and validation procedures.
#
#######################################################################

data_QAXREN
_chemical_formula_moiety         'C14 H17 N2 O2 P1 S1'
_chemical_name_systematic        
2-(4-Methoxyphenyl(methoxy)thiophosphinamido)aniline
_chemical_properties_biological  
'no significant activity against Staphylococcus aureus'
_symmetry_cell_setting           monoclinic
_symmetry_space_group_name_H-M   'P 21/c'
_symmetry_Int_Tables_number      14
_space_group_name_Hall           '-P 2ybc'
loop_
_symmetry_equiv_pos_site_id
_symmetry_equiv_pos_as_xyz
1 x,y,z
2 -x,1/2+y,1/2-z
3 -x,-y,-z
4 x,1/2-y,1/2+z
_cell_length_a                   9.5619(19)
_cell_length_b                   21.879(4)
_cell_length_c                   7.3618(15)
_cell_angle_alpha                90
_cell_angle_beta                 103.03(3)
_cell_angle_gamma                90
_cell_volume                     1500.47
_exptl_crystal_colour            colorless
_exptl_crystal_description       prismatic
_cell_formula_units_Z            4
loop_
_atom_site_label
_atom_site_type_symbol
_atom_site_fract_x
_atom_site_fract_y
_atom_site_fract_z
P1 P 0.22952(7) 0.44539(3) 0.89613(10)
S1 S 0.24305(8) 0.49685(3) 1.11505(11)
O1 O 0.5231(2) 0.20549(8) 1.0412(3)
O2 O 0.32014(18) 0.46968(7) 0.7549(3)
N1 N 0.0613(2) 0.43582(9) 0.7848(3)
N2 N -0.1587(3) 0.34847(12) 0.7705(4)
C1 C 0.0114(3) 0.39929(10) 0.6212(4)
C2 C -0.0986(3) 0.35653(10) 0.6169(4)
C3 C -0.1405(3) 0.32012(11) 0.4592(4)
H1 H -0.2139 0.2918 0.4542
C4 C -0.0763(3) 0.32494(12) 0.3104(4)
H2 H -0.1037 0.2992 0.2081
C5 C 0.0287(3) 0.36818(13) 0.3140(4)
H3 H 0.0713 0.3723 0.2128
C6 C 0.0708(3) 0.40541(12) 0.4677(4)
H4 H 0.1404 0.4351 0.4680
C7 C 0.3103(3) 0.37163(11) 0.9387(3)
C8 C 0.4601(3) 0.36695(12) 0.9763(4)
H5 H 0.5152 0.4020 0.9774
C9 C 0.5267(3) 0.31116(12) 1.0116(4)
H6 H 0.6263 0.3088 1.0373
C10 C 0.4463(3) 0.25869(12) 1.0092(4)
C11 C 0.2983(3) 0.26190(11) 0.9747(4)
H7 H 0.2440 0.2266 0.9741
C12 C 0.2320(3) 0.31827(10) 0.9411(4)
H8 H 0.1325 0.3205 0.9195
C13 C 0.4461(4) 0.14929(12) 1.0003(5)
H9 H 0.5118 0.1156 1.0296
H10 H 0.3999 0.1481 0.8703
H11 H 0.3751 0.1464 1.0736
C14 C 0.3059(3) 0.53090(12) 0.6843(5)
H12 H 0.3692 0.5368 0.6015
H13 H 0.3302 0.5592 0.7862
H14 H 0.2086 0.5378 0.6179
H15 H 0.006(3) 0.4545(10) 0.819(4)
H16 H -0.237(3) 0.3301(12) 0.747(4)
H17 H -0.159(3) 0.3792(12) 0.852(4)
loop_
_geom_bond_atom_site_label_1
_geom_bond_atom_site_label_2
_geom_bond_site_symmetry_1
_geom_bond_site_symmetry_2
P1 S1 1_555 1_555
O1 C10 1_555 1_555
O2 P1 1_555 1_555
N1 P1 1_555 1_555
N2 C2 1_555 1_555
C1 N1 1_555 1_555
C2 C1 1_555 1_555
C3 C2 1_555 1_555
H1 C3 1_555 1_555
C4 C3 1_555 1_555
H2 C4 1_555 1_555
C5 C4 1_555 1_555
H3 C5 1_555 1_555
C6 C1 1_555 1_555
H4 C6 1_555 1_555
C7 P1 1_555 1_555
C8 C7 1_555 1_555
H5 C8 1_555 1_555
C9 C8 1_555 1_555
H6 C9 1_555 1_555
C10 C9 1_555 1_555
C11 C10 1_555 1_555
H7 C11 1_555 1_555
C12 C7 1_555 1_555
H8 C12 1_555 1_555
C13 O1 1_555 1_555
H9 C13 1_555 1_555
H10 C13 1_555 1_555
H11 C13 1_555 1_555
C14 O2 1_555 1_555
H12 C14 1_555 1_555
H13 C14 1_555 1_555
H14 C14 1_555 1_555
H15 N1 1_555 1_555
H16 N2 1_555 1_555
H17 N2 1_555 1_555
C5 C6 1_555 1_555
C11 C12 1_555 1_555

#END
