
#######################################################################
#
#                 Cambridge Crystallographic Data Centre
#                                CCDC 
#
#######################################################################
#
# If this CIF has been generated from an entry in the Cambridge 
# Structural Database, then it will include bibliographic, chemical, 
# crystal, experimental, refinement or atomic coordinate data resulting 
# from the CCDC's data processing and validation procedures.
#
#######################################################################

data_QAXRAJ
_chemical_formula_moiety         'C40 H52 O11 P2'
_chemical_name_systematic        "bis(Dehydroandrographolide-O,O') diphosphate"
_symmetry_cell_setting           orthorhombic
_symmetry_space_group_name_H-M   'P 21 21 2'
_symmetry_Int_Tables_number      18
_space_group_name_Hall           'P 2 2ab'
loop_
_symmetry_equiv_pos_site_id
_symmetry_equiv_pos_as_xyz
1 x,y,z
2 -x,-y,z
3 1/2-x,1/2+y,-z
4 1/2+x,1/2-y,-z
_cell_length_a                   22.562(5)
_cell_length_b                   29.224(6)
_cell_length_c                   7.1953(14)
_cell_angle_alpha                90
_cell_angle_beta                 90
_cell_angle_gamma                90
_cell_volume                     4744.23
_exptl_crystal_colour            colorless
_exptl_crystal_description       prismatic
_chemical_melting_point          208-210deg.C
_cell_formula_units_Z            4
_exptl_crystal_recrystallization_method ethanol
loop_
_atom_site_label
_atom_site_type_symbol
_atom_site_fract_x
_atom_site_fract_y
_atom_site_fract_z
P1 P 0.84933(16) 0.07337(11) 0.7994(4)
P2 P 0.77953(16) 0.12149(10) 1.0786(4)
O1 O 1.1245(4) 0.3591(3) 1.3311(10)
O2 O 0.7538(6) -0.2435(5) 1.572(3)
O3 O 1.0501(4) 0.3687(3) 1.1330(10)
O4 O 0.7375(7) -0.2086(4) 1.295(2)
O5 O 0.8326(3) 0.0900(2) 1.0014(7)
O6 O 0.8259(3) 0.1095(2) 0.6632(8)
O7 O 0.7249(3) 0.1103(2) 0.9520(8)
O8 O 0.7668(3) 0.1020(2) 1.2759(8)
O9 O 0.9172(3) 0.0775(2) 0.7953(8)
O10 O 0.8279(4) 0.0279(2) 0.7657(9)
O11 O 0.7960(4) 0.1697(2) 1.0784(10)
C1 C 0.9941(5) 0.1873(4) 0.9022(12)
H1 H 1.0331 0.1777 0.8611
H2 H 0.9989 0.2031 1.0198
C2 C 0.7397(5) -0.0249(4) 1.3588(13)
H3 H 0.7665 -0.0509 1.3593
H4 H 0.7234 -0.0216 1.4829
C3 C 0.7754(5) 0.0206(4) 1.3035(15)
H5 H 0.8076 0.0255 1.3905
H6 H 0.7922 0.0172 1.1801
C4 C 0.9574(5) 0.1462(3) 0.9329(13)
H7 H 0.9762 0.1268 1.0251
H8 H 0.9189 0.1553 0.9805
C5 C 0.9497(5) 0.1208(3) 0.7628(12)
H9 H 0.9894 0.1123 0.7202
C6 C 0.7344(5) 0.0601(3) 1.3072(13)
H10 H 0.7190 0.0619 1.4344
C7 C 0.6800(5) 0.0568(3) 1.1795(13)
C8 C 0.9198(5) 0.1462(3) 0.6003(12)
C9 C 0.9533(5) 0.1935(3) 0.5777(13)
H11 H 0.9922 0.1845 0.5293
C10 C 0.6483(5) 0.0079(3) 1.2006(14)
H12 H 0.6270 0.0094 1.3192
C11 C 0.6012(5) 0.0009(4) 1.056(2)
H13 H 0.6192 -0.0031 0.9348
H14 H 0.5752 0.0273 1.0515
C12 C 0.9287(5) 0.2241(4) 0.4255(13)
H15 H 0.8917 0.2377 0.4661
H16 H 0.9209 0.2061 0.3149
C13 C 0.9734(6) 0.2617(4) 0.3812(13)
H17 H 1.0082 0.2477 0.3261
H18 H 0.9562 0.2819 0.2888
C14 C 0.5663(7) -0.0413(5) 1.108(2)
H19 H 0.5417 -0.0340 1.2148
H20 H 0.5401 -0.0488 1.0060
C15 C 0.9931(5) 0.2903(5) 0.5458(13)
C16 C 0.6022(5) -0.0829(5) 1.154(2)
C17 C 1.0162(5) 0.2581(3) 0.7038(14)
H21 H 1.0503 0.2417 0.6526
C18 C 0.6483(5) -0.0727(4) 1.2977(18)
H22 H 0.6279 -0.0603 1.4070
C19 C 0.6875(5) -0.0339(3) 1.2154(15)
C20 C 0.9692(5) 0.2205(3) 0.7615(11)
C21 C 1.0388(5) 0.2847(4) 0.8688(12)
H23 H 1.0146 0.3075 0.9180
C22 C 0.6797(6) -0.1147(4) 1.3563(18)
H24 H 0.7035 -0.1294 1.2691
C23 C 0.6762(5) -0.1325(4) 1.5216(18)
H25 H 0.6533 -0.1168 1.6083
C24 C 1.0913(6) 0.2776(4) 0.9486(16)
H26 H 1.1156 0.2553 0.8964
C25 C 1.1138(5) 0.3022(4) 1.1136(14)
C26 C 0.7043(6) -0.1740(5) 1.584(2)
C27 C 1.1597(6) 0.2917(4) 1.2166(17)
H27 H 1.1836 0.2662 1.1973
C28 C 0.7063(7) -0.1923(6) 1.752(2)
H28 H 0.6898 -0.1791 1.8579
C29 C 1.1692(6) 0.3255(5) 1.3679(15)
H29 H 1.1636 0.3116 1.4891
H30 H 1.2085 0.3388 1.3615
C30 C 0.7391(9) -0.2370(7) 1.750(4)
H31 H 0.7743 -0.2355 1.8270
H32 H 0.7140 -0.2617 1.7938
C31 C 1.0906(6) 0.3447(5) 1.1814(15)
C32 C 0.7310(7) -0.2092(6) 1.454(3)
C33 C 0.9944(5) 0.3348(4) 0.5595(16)
H33 H 0.9822 0.3528 0.4600
H34 H 1.0074 0.3485 0.6687
C34 C 0.5922(6) -0.1236(5) 1.069(2)
H35 H 0.6154 -0.1489 1.0977
H36 H 0.5621 -0.1262 0.9808
C35 C 0.9267(5) 0.1184(3) 0.4218(12)
H37 H 0.9680 0.1137 0.3966
H38 H 0.9089 0.1348 0.3204
H39 H 0.9074 0.0894 0.4363
C36 C 0.6323(5) 0.0939(4) 1.2371(14)
H40 H 0.5990 0.0921 1.1547
H41 H 0.6496 0.1239 1.2293
H42 H 0.6195 0.0883 1.3622
C37 C 0.6994(5) 0.0655(4) 0.9763(12)
H43 H 0.7282 0.0425 0.9403
H44 H 0.6653 0.0624 0.8952
C38 C 0.8564(5) 0.1532(4) 0.6410(13)
H45 H 0.8523 0.1711 0.7540
H46 H 0.8382 0.1703 0.5403
C39 C 0.9181(5) 0.2447(3) 0.8454(11)
H47 H 0.9013 0.2654 0.7558
H48 H 0.9311 0.2617 0.9520
H49 H 0.8887 0.2228 0.8826
C40 C 0.7167(5) -0.0479(3) 1.0340(13)
H50 H 0.7405 -0.0747 1.0541
H51 H 0.7413 -0.0234 0.9899
H52 H 0.6867 -0.0545 0.9433
loop_
_geom_bond_atom_site_label_1
_geom_bond_atom_site_label_2
_geom_bond_site_symmetry_1
_geom_bond_site_symmetry_2
P1 O5 1_555 1_555
P2 O5 1_555 1_555
O1 C29 1_555 1_555
O2 C30 1_555 1_555
O3 C31 1_555 1_555
O4 C32 1_555 1_555
O6 P1 1_555 1_555
O7 P2 1_555 1_555
O8 P2 1_555 1_555
O9 P1 1_555 1_555
O10 P1 1_555 1_555
O11 P2 1_555 1_555
C1 H1 1_555 1_555
H2 C1 1_555 1_555
C2 H3 1_555 1_555
H4 C2 1_555 1_555
C3 C2 1_555 1_555
H5 C3 1_555 1_555
H6 C3 1_555 1_555
C4 C1 1_555 1_555
H7 C4 1_555 1_555
H8 C4 1_555 1_555
C5 O9 1_555 1_555
H9 C5 1_555 1_555
C6 O8 1_555 1_555
H10 C6 1_555 1_555
C7 C6 1_555 1_555
C8 C5 1_555 1_555
C9 C8 1_555 1_555
H11 C9 1_555 1_555
C10 C7 1_555 1_555
H12 C10 1_555 1_555
C11 C10 1_555 1_555
H13 C11 1_555 1_555
H14 C11 1_555 1_555
C12 C9 1_555 1_555
H15 C12 1_555 1_555
H16 C12 1_555 1_555
C13 C12 1_555 1_555
H17 C13 1_555 1_555
H18 C13 1_555 1_555
C14 C11 1_555 1_555
H19 C14 1_555 1_555
H20 C14 1_555 1_555
C15 C13 1_555 1_555
C16 C14 1_555 1_555
C17 C15 1_555 1_555
H21 C17 1_555 1_555
C18 C16 1_555 1_555
H22 C18 1_555 1_555
C19 C2 1_555 1_555
C20 C1 1_555 1_555
C21 C17 1_555 1_555
H23 C21 1_555 1_555
C22 C18 1_555 1_555
H24 C22 1_555 1_555
C23 C22 1_555 1_555
H25 C23 1_555 1_555
C24 C21 1_555 1_555
H26 C24 1_555 1_555
C25 C24 1_555 1_555
C26 C23 1_555 1_555
C27 C25 1_555 1_555
H27 C27 1_555 1_555
C28 C26 1_555 1_555
H28 C28 1_555 1_555
C29 C27 1_555 1_555
H29 C29 1_555 1_555
H30 C29 1_555 1_555
C30 C28 1_555 1_555
H31 C30 1_555 1_555
H32 C30 1_555 1_555
C31 O1 1_555 1_555
C32 O2 1_555 1_555
C33 C15 1_555 1_555
H33 C33 1_555 1_555
H34 C33 1_555 1_555
C34 C16 1_555 1_555
H35 C34 1_555 1_555
H36 C34 1_555 1_555
C35 C8 1_555 1_555
H37 C35 1_555 1_555
H38 C35 1_555 1_555
H39 C35 1_555 1_555
C36 C7 1_555 1_555
H40 C36 1_555 1_555
H41 C36 1_555 1_555
H42 C36 1_555 1_555
C37 O7 1_555 1_555
H43 C37 1_555 1_555
H44 C37 1_555 1_555
C38 O6 1_555 1_555
H45 C38 1_555 1_555
H46 C38 1_555 1_555
C39 C20 1_555 1_555
H47 C39 1_555 1_555
H48 C39 1_555 1_555
H49 C39 1_555 1_555
C40 C19 1_555 1_555
H50 C40 1_555 1_555
H51 C40 1_555 1_555
H52 C40 1_555 1_555
C3 C6 1_555 1_555
C4 C5 1_555 1_555
C7 C37 1_555 1_555
C8 C38 1_555 1_555
C9 C20 1_555 1_555
C10 C19 1_555 1_555
C17 C20 1_555 1_555
C18 C19 1_555 1_555
C25 C31 1_555 1_555
C26 C32 1_555 1_555

#END
