
#######################################################################
#
#                 Cambridge Crystallographic Data Centre
#                                CCDC 
#
#######################################################################
#
# If this CIF has been generated from an entry in the Cambridge 
# Structural Database, then it will include bibliographic, chemical, 
# crystal, experimental, refinement or atomic coordinate data resulting 
# from the CCDC's data processing and validation procedures.
#
#######################################################################

data_QAXVAP
_chemical_formula_moiety         'C16 H25 N1 O2'
_chemical_name_systematic        
1-(hydroxymethyl)-1,2b-dimethyl-6-methylenedecahydro-1H-cyclobuta[a]indene-5-carboxamide
_symmetry_cell_setting           monoclinic
_symmetry_space_group_name_H-M   'P 21'
_symmetry_Int_Tables_number      4
_space_group_name_Hall           'P 2yb'
loop_
_symmetry_equiv_pos_site_id
_symmetry_equiv_pos_as_xyz
1 x,y,z
2 -x,1/2+y,-z
_cell_length_a                   6.4825(4)
_cell_length_b                   18.4760(9)
_cell_length_c                   6.6666(4)
_cell_angle_alpha                90
_cell_angle_beta                 109.723(3)
_cell_angle_gamma                90
_cell_volume                     751.621
_exptl_crystal_colour            colorless
_exptl_crystal_description       block
_chemical_melting_point          '188.4-188.8 deg.C'
_cell_formula_units_Z            2
loop_
_atom_site_label
_atom_site_type_symbol
_atom_site_fract_x
_atom_site_fract_y
_atom_site_fract_z
N1 N 0.2592(4) 0.75350(13) 0.1016(3)
H1 H 0.1461 0.7731 0.0100
H2 H 0.3582 0.7339 0.0601
O1 O 0.1432(3) 0.78101(12) 0.3698(3)
O2 O 0.0198(3) 0.31272(9) 0.3089(3)
H3 H -0.0216 0.2942 0.4006
C1 C 0.2810(4) 0.75356(12) 0.3068(4)
C2 C 0.4943(4) 0.72080(12) 0.4559(3)
H4 H 0.6068 0.7582 0.4761
C3 C 0.5728(3) 0.65566(13) 0.3624(3)
C4 C 0.4753(4) 0.58260(12) 0.3814(3)
H5 H 0.5667 0.5453 0.3487
C5 C 0.2364(4) 0.57079(13) 0.2321(3)
H6 H 0.1527 0.6152 0.2174
H7 H 0.2336 0.5555 0.0920
C6 C 0.1412(4) 0.51212(12) 0.3353(3)
H8 H -0.0093 0.5224 0.3284
C7 C 0.1795(4) 0.43049(13) 0.2967(4)
C8 C 0.3699(5) 0.42881(13) 0.5118(4)
H9 H 0.5137 0.4277 0.4972
H10 H 0.3558 0.3909 0.6071
C9 C 0.3030(4) 0.50454(13) 0.5673(4)
H11 H 0.2283 0.5027 0.6728
C10 C 0.4672(4) 0.56704(12) 0.6068(4)
C11 C 0.3677(5) 0.63298(13) 0.6829(4)
H12 H 0.2153 0.6377 0.5937
H13 H 0.3714 0.6242 0.8275
C12 C 0.4853(5) 0.70412(13) 0.6777(4)
H14 H 0.6334 0.7016 0.7787
H15 H 0.4101 0.7432 0.7216
C13 C 0.7239(4) 0.66391(15) 0.2717(4)
H16 H 0.7741 0.6240 0.2167
H17 H 0.7801 0.7097 0.2628
C14 C 0.2355(5) 0.41018(15) 0.0999(5)
H18 H 0.2689 0.3595 0.1040
H19 H 0.3603 0.4376 0.0972
H20 H 0.1128 0.4206 -0.0256
C15 C -0.0172(4) 0.38847(13) 0.3038(4)
H21 H -0.0512 0.4026 0.4294
H22 H -0.1425 0.4004 0.1795
C16 C 0.6924(5) 0.54824(17) 0.7662(5)
H23 H 0.6774 0.5344 0.8994
H24 H 0.7867 0.5897 0.7877
H25 H 0.7545 0.5089 0.7118
loop_
_geom_bond_atom_site_label_1
_geom_bond_atom_site_label_2
_geom_bond_site_symmetry_1
_geom_bond_site_symmetry_2
N1 H1 1_555 1_555
H2 N1 1_555 1_555
O1 C1 1_555 1_555
O2 H3 1_555 1_555
C1 N1 1_555 1_555
C2 C1 1_555 1_555
H4 C2 1_555 1_555
C3 C2 1_555 1_555
C4 C3 1_555 1_555
H5 C4 1_555 1_555
C5 C4 1_555 1_555
H6 C5 1_555 1_555
H7 C5 1_555 1_555
C6 C5 1_555 1_555
H8 C6 1_555 1_555
C7 C6 1_555 1_555
C8 C7 1_555 1_555
H9 C8 1_555 1_555
H10 C8 1_555 1_555
C9 C6 1_555 1_555
H11 C9 1_555 1_555
C10 C4 1_555 1_555
C11 C10 1_555 1_555
H12 C11 1_555 1_555
H13 C11 1_555 1_555
C12 C2 1_555 1_555
H14 C12 1_555 1_555
H15 C12 1_555 1_555
C13 C3 1_555 1_555
H16 C13 1_555 1_555
H17 C13 1_555 1_555
C14 C7 1_555 1_555
H18 C14 1_555 1_555
H19 C14 1_555 1_555
H20 C14 1_555 1_555
C15 O2 1_555 1_555
H21 C15 1_555 1_555
H22 C15 1_555 1_555
C16 C10 1_555 1_555
H23 C16 1_555 1_555
H24 C16 1_555 1_555
H25 C16 1_555 1_555
C7 C15 1_555 1_555
C8 C9 1_555 1_555
C9 C10 1_555 1_555
C11 C12 1_555 1_555

#END
