
#######################################################################
#
#                 Cambridge Crystallographic Data Centre
#                                CCDC 
#
#######################################################################
#
# If this CIF has been generated from an entry in the Cambridge 
# Structural Database, then it will include bibliographic, chemical, 
# crystal, experimental, refinement or atomic coordinate data resulting 
# from the CCDC's data processing and validation procedures.
#
#######################################################################

data_QAXVET
_chemical_formula_moiety         'C16 H25 N1 O2'
_chemical_name_systematic        
10-(hydroxymethyl)-2,8,10-trimethyl-3-azatetracyclo[7.2.2.0^1,8^.0^2,5^]tridecan-4-one
_symmetry_cell_setting           monoclinic
_symmetry_space_group_name_H-M   'P 21'
_symmetry_Int_Tables_number      4
_space_group_name_Hall           'P 2yb'
loop_
_symmetry_equiv_pos_site_id
_symmetry_equiv_pos_as_xyz
1 x,y,z
2 -x,1/2+y,-z
_cell_length_a                   7.3719(4)
_cell_length_b                   11.6158(4)
_cell_length_c                   8.6406(4)
_cell_angle_alpha                90
_cell_angle_beta                 110.209(2)
_cell_angle_gamma                90
_cell_volume                     694.35
_exptl_crystal_colour            colorless
_exptl_crystal_description       block
_chemical_melting_point          '224.8-225.3 deg.C'
_cell_formula_units_Z            2
loop_
_atom_site_label
_atom_site_type_symbol
_atom_site_fract_x
_atom_site_fract_y
_atom_site_fract_z
N1 N 0.8575(3) 0.97985(19) 0.3695(3)
H1 H 0.9437 1.0237 0.3541
O1 O 0.5926(3) 1.09005(18) 0.3735(3)
O2 O 0.8275(3) 0.5976(2) -0.2487(2)
H2 H 0.7096 0.6040 -0.2787
C1 C 0.6877(4) 1.0024(2) 0.3875(3)
C2 C 0.6626(3) 0.8780(2) 0.4349(3)
H3 H 0.7017 0.8738 0.5553
C3 C 0.8456(3) 0.8527(2) 0.3853(3)
C4 C 0.7914(3) 0.7893(2) 0.2185(3)
C5 C 0.6331(3) 0.6954(2) 0.1915(3)
C6 C 0.4450(3) 0.7495(3) 0.1969(3)
H4 H 0.3487 0.6895 0.1814
H5 H 0.3964 0.8037 0.1065
C7 C 0.4730(3) 0.8122(3) 0.3603(3)
H6 H 0.3671 0.8660 0.3425
H7 H 0.4642 0.7559 0.4403
C8 C 0.9542(3) 0.7212(2) 0.1859(3)
H8 H 1.0298 0.6784 0.2832
H9 H 1.0394 0.7727 0.1548
C9 C 0.8484(3) 0.6377(2) 0.0412(3)
C10 C 0.6314(3) 0.6655(2) 0.0139(3)
H10 H 0.5415 0.6037 -0.0406
C11 C 0.5822(3) 0.7822(2) -0.0723(3)
H11 H 0.4445 0.7976 -0.1072
H12 H 0.6236 0.7862 -0.1672
C12 C 0.6983(3) 0.8670(2) 0.0647(3)
H13 H 0.6137 0.9240 0.0860
H14 H 0.7969 0.9062 0.0337
C13 C 1.0189(4) 0.8041(3) 0.5230(3)
H15 H 1.0354 0.8450 0.6235
H16 H 1.1329 0.8127 0.4943
H17 H 0.9977 0.7240 0.5380
C14 C 0.6837(4) 0.5968(2) 0.3162(3)
H18 H 0.6018 0.5320 0.2708
H19 H 0.6648 0.6213 0.4157
H20 H 0.8164 0.5752 0.3406
C15 C 0.9140(4) 0.6658(3) -0.1056(3)
H21 H 0.8856 0.7461 -0.1348
H22 H 1.0531 0.6563 -0.0704
C16 C 0.8966(4) 0.5102(3) 0.0812(4)
H23 H 1.0324 0.5021 0.1416
H24 H 0.8634 0.4670 -0.0195
H25 H 0.8243 0.4816 0.1466
loop_
_geom_bond_atom_site_label_1
_geom_bond_atom_site_label_2
_geom_bond_site_symmetry_1
_geom_bond_site_symmetry_2
N1 H1 1_555 1_555
O1 C1 1_555 1_555
O2 H2 1_555 1_555
C1 N1 1_555 1_555
C2 C1 1_555 1_555
H3 C2 1_555 1_555
C3 N1 1_555 1_555
C4 C3 1_555 1_555
C5 C4 1_555 1_555
C6 C5 1_555 1_555
H4 C6 1_555 1_555
H5 C6 1_555 1_555
C7 C2 1_555 1_555
H6 C7 1_555 1_555
H7 C7 1_555 1_555
C8 C4 1_555 1_555
H8 C8 1_555 1_555
H9 C8 1_555 1_555
C9 C8 1_555 1_555
C10 C5 1_555 1_555
H10 C10 1_555 1_555
C11 C10 1_555 1_555
H11 C11 1_555 1_555
H12 C11 1_555 1_555
C12 C4 1_555 1_555
H13 C12 1_555 1_555
H14 C12 1_555 1_555
C13 C3 1_555 1_555
H15 C13 1_555 1_555
H16 C13 1_555 1_555
H17 C13 1_555 1_555
C14 C5 1_555 1_555
H18 C14 1_555 1_555
H19 C14 1_555 1_555
H20 C14 1_555 1_555
C15 O2 1_555 1_555
H21 C15 1_555 1_555
H22 C15 1_555 1_555
C16 C9 1_555 1_555
H23 C16 1_555 1_555
H24 C16 1_555 1_555
H25 C16 1_555 1_555
C2 C3 1_555 1_555
C6 C7 1_555 1_555
C9 C10 1_555 1_555
C9 C15 1_555 1_555
C11 C12 1_555 1_555

#END
