
#######################################################################
#
#                 Cambridge Crystallographic Data Centre
#                                CCDC 
#
#######################################################################
#
# If this CIF has been generated from an entry in the Cambridge 
# Structural Database, then it will include bibliographic, chemical, 
# crystal, experimental, refinement or atomic coordinate data resulting 
# from the CCDC's data processing and validation procedures.
#
#######################################################################

data_QAYRUE
_chemical_formula_moiety         'C27 H17 F7 S2'
_chemical_name_systematic        
3,3,4,4,5,5-Hexafluoro-1-(5-(3-fluorophenyl)-2-methyl-3-thienyl)-2-(2-methyl-5-phenyl-3-thienyl)cyclopent-1-ene
_symmetry_cell_setting           monoclinic
_symmetry_space_group_name_H-M   'P 21/c'
_symmetry_Int_Tables_number      14
_space_group_name_Hall           '-P 2ybc'
loop_
_symmetry_equiv_pos_site_id
_symmetry_equiv_pos_as_xyz
1 x,y,z
2 -x,1/2+y,1/2-z
3 -x,-y,-z
4 x,1/2-y,1/2+z
_cell_length_a                   18.945(2)
_cell_length_b                   11.7925(19)
_cell_length_c                   21.876(4)
_cell_angle_alpha                90
_cell_angle_beta                 96.587(12)
_cell_angle_gamma                90
_cell_volume                     4855.03
_exptl_crystal_colour            colorless
_exptl_crystal_description       prism
_chemical_melting_point          '393.8-394.3 K'
_cell_formula_units_Z            8
_exptl_crystal_recrystallization_method hexane
loop_
_atom_site_label
_atom_site_type_symbol
_atom_site_fract_x
_atom_site_fract_y
_atom_site_fract_z
S1 S 0.23307(5) 0.46803(11) 0.15973(6)
S2 S 0.37133(7) 0.18437(10) -0.00328(5)
F1 F 0.57386(15) 0.2234(3) 0.17741(17)
F2 F 0.59085(15) 0.3746(3) 0.12497(15)
F3 F 0.55298(16) 0.3345(3) 0.27345(14)
F4 F 0.62185(13) 0.4547(3) 0.23388(15)
F5 F 0.51620(14) 0.5819(2) 0.19336(15)
F6 F 0.47258(14) 0.5068(3) 0.27013(13)
F8 F 0.4892(4) -0.3002(6) 0.0814(4)
C1 C 0.44197(19) 0.4218(3) 0.17232(18)
C2 C 0.4725(2) 0.3374(3) 0.14334(19)
C3 C 0.5506(2) 0.3298(4) 0.1666(2)
C4 C 0.5594(2) 0.4015(4) 0.2237(2)
C5 C 0.4959(2) 0.4826(4) 0.2158(2)
C6 C 0.3100(2) 0.3890(4) 0.16551(18)
C7 C 0.36754(19) 0.4599(3) 0.16609(18)
C8 C 0.3486(2) 0.5763(3) 0.16261(18)
H1 H 0.3818 0.6345 0.1633
C9 C 0.2772(2) 0.5951(4) 0.15823(18)
C10 C 0.2390(2) 0.7035(4) 0.15288(19)
C11 C 0.2731(2) 0.8022(4) 0.1389(2)
H2 H 0.3206 0.8004 0.1319
C12 C 0.2364(3) 0.9033(5) 0.1353(3)
H3 H 0.2601 0.9691 0.1261
C13 C 0.1668(3) 0.9114(5) 0.1451(2)
H4 H 0.1437 0.9811 0.1430
C14 C 0.1322(3) 0.8152(5) 0.1580(2)
H5 H 0.0845 0.8189 0.1641
C15 C 0.1673(2) 0.7103(5) 0.1622(2)
H6 H 0.1429 0.6451 0.1713
C16 C 0.3052(2) 0.2629(4) 0.1708(2)
H7 H 0.3475 0.2345 0.1941
H8 H 0.3002 0.2298 0.1305
H9 H 0.2647 0.2434 0.1913
C17 C 0.4015(3) 0.2979(4) 0.0413(2)
C18 C 0.4409(2) 0.2618(3) 0.09434(19)
C19 C 0.4471(2) 0.1413(4) 0.0968(2)
H10 H 0.4733 0.1034 0.1291
C20 C 0.4118(2) 0.0868(4) 0.0483(2)
C21 C 0.4063(3) -0.0351(4) 0.0363(2)
C22 C 0.4550(3) -0.1096(4) 0.0653(2)
H11 H 0.4926 -0.0831 0.0927
C23 C 0.4478(3) -0.2216(4) 0.0535(3)
C24 C 0.3965(4) -0.2669(5) 0.0147(3)
H13 H 0.3941 -0.3447 0.0079
C25 C 0.3475(4) -0.1955(5) -0.0149(3)
H14 H 0.3105 -0.2245 -0.0421
C26 C 0.3525(3) -0.0798(4) -0.0044(2)
H15 H 0.3190 -0.0316 -0.0252
C27 C 0.3860(3) 0.4177(4) 0.0197(2)
H16 H 0.4236 0.4667 0.0368
H17 H 0.3419 0.4423 0.0330
H18 H 0.3825 0.4203 -0.0244
S3 S 0.85988(8) 0.44442(11) -0.00360(6)
S4 S 0.73581(6) 0.14790(12) 0.17379(6)
F9 F 0.98182(16) 0.1270(3) 0.26818(15)
F10 F 1.01856(15) 0.0528(2) 0.18873(18)
F11 F 1.0568(2) 0.2969(4) 0.27108(17)
F12 F 1.12375(15) 0.1900(3) 0.2238(2)
F13 F 1.08485(16) 0.2873(4) 0.11982(17)
F14 F 1.06255(16) 0.4206(3) 0.18046(18)
F16 F 0.7754(4) -0.3778(6) 0.1311(4)
C28 C 0.9667(2) 0.2990(3) 0.14261(19)
C29 C 0.9414(2) 0.2101(3) 0.17125(18)
C30 C 0.9996(2) 0.1515(4) 0.2121(2)
C31 C 1.0612(3) 0.2339(5) 0.2161(3)
C32 C 1.0451(2) 0.3156(4) 0.1635(2)
C33 C 0.8908(3) 0.3336(4) 0.0429(2)
C34 C 0.9312(2) 0.3734(3) 0.09439(19)
C35 C 0.9369(2) 0.4936(4) 0.0944(2)
H19 H 0.9633 0.5334 0.1259
C36 C 0.9014(3) 0.5453(4) 0.0456(2)
C37 C 0.8948(3) 0.6655(4) 0.0319(2)
C38 C 0.9483(3) 0.7394(4) 0.0538(3)
H20 H 0.9891 0.7128 0.0770
C39 C 0.9400(4) 0.8531(5) 0.0408(3)
H21 H 0.9765 0.9017 0.0562
C40 C 0.8837(4) 0.8979(5) 0.0068(3)
H22 H 0.8810 0.9754 -0.0010
C41 C 0.8300(4) 0.8267(5) -0.0162(3)
H23 H 0.7904 0.8549 -0.0405
C42 C 0.8357(3) 0.7109(4) -0.0028(2)
H24 H 0.7987 0.6628 -0.0176
C43 C 0.8750(3) 0.2128(4) 0.0226(2)
H25 H 0.9150 0.1655 0.0361
H26 H 0.8660 0.2100 -0.0215
H27 H 0.8340 0.1860 0.0402
C44 C 0.8097(2) 0.2319(4) 0.17476(19)
C45 C 0.8684(2) 0.1657(4) 0.16939(18)
C46 C 0.8522(2) 0.0476(4) 0.16482(19)
H28 H 0.8864 -0.0078 0.1613
C47 C 0.7819(2) 0.0233(4) 0.16612(19)
C48 C 0.7452(2) -0.0881(4) 0.16126(18)
C49 C 0.7804(3) -0.1827(4) 0.1461(2)
H29 H 0.8272 -0.1794 0.1373
C50 C 0.7440(3) -0.2827(5) 0.1442(3)
C51 C 0.6757(3) -0.2959(6) 0.1557(2)
H31 H 0.6536 -0.3664 0.1536
C52 C 0.6412(3) -0.2000(6) 0.1706(2)
H32 H 0.5943 -0.2049 0.1791
C53 C 0.6749(2) -0.0949(5) 0.1734(2)
H33 H 0.6507 -0.0300 0.1833
C54 C 0.8032(3) 0.3574(4) 0.1817(2)
H34 H 0.8475 0.3876 0.2007
H35 H 0.7663 0.3740 0.2069
H36 H 0.7918 0.3913 0.1419
F7? F 0.2706(4) 0.9990(6) 0.1261(4)
F15? F 0.9886(4) 0.9270(7) 0.0628(5)
H12? H 0.4814 -0.2696 0.0742
H30? H 0.7680 -0.3477 0.1341
loop_
_geom_bond_atom_site_label_1
_geom_bond_atom_site_label_2
_geom_bond_site_symmetry_1
_geom_bond_site_symmetry_2
S1 C6 1_555 1_555
S2 C17 1_555 1_555
S3 C33 1_555 1_555
S4 C44 1_555 1_555
F1 C3 1_555 1_555
F2 C3 1_555 1_555
F3 C4 1_555 1_555
F4 C4 1_555 1_555
F5 C5 1_555 1_555
F6 C5 1_555 1_555
F8 C23 1_555 1_555
F9 C30 1_555 1_555
F10 C30 1_555 1_555
F11 C31 1_555 1_555
F12 C31 1_555 1_555
F13 C32 1_555 1_555
F14 C32 1_555 1_555
F16 C50 1_555 1_555
C1 C2 1_555 1_555
C2 C3 1_555 1_555
C3 C4 1_555 1_555
C4 C5 1_555 1_555
C5 C1 1_555 1_555
C6 C7 1_555 1_555
C7 C1 1_555 1_555
C8 C7 1_555 1_555
H1 C8 1_555 1_555
C9 S1 1_555 1_555
C10 C9 1_555 1_555
C11 C10 1_555 1_555
H2 C11 1_555 1_555
C12 C11 1_555 1_555
H3 C12 1_555 1_555
C13 C12 1_555 1_555
H4 C13 1_555 1_555
C14 C13 1_555 1_555
H5 C14 1_555 1_555
C15 C10 1_555 1_555
H6 C15 1_555 1_555
C16 C6 1_555 1_555
H7 C16 1_555 1_555
H8 C16 1_555 1_555
H9 C16 1_555 1_555
C17 C18 1_555 1_555
C18 C2 1_555 1_555
C19 C18 1_555 1_555
H10 C19 1_555 1_555
C20 S2 1_555 1_555
C21 C20 1_555 1_555
C22 C21 1_555 1_555
H11 C22 1_555 1_555
C23 C22 1_555 1_555
C24 C23 1_555 1_555
H13 C24 1_555 1_555
C25 C24 1_555 1_555
H14 C25 1_555 1_555
C26 C21 1_555 1_555
H15 C26 1_555 1_555
C27 C17 1_555 1_555
H16 C27 1_555 1_555
H17 C27 1_555 1_555
H18 C27 1_555 1_555
C28 C29 1_555 1_555
C29 C30 1_555 1_555
C30 C31 1_555 1_555
C31 C32 1_555 1_555
C32 C28 1_555 1_555
C33 C34 1_555 1_555
C34 C28 1_555 1_555
C35 C34 1_555 1_555
H19 C35 1_555 1_555
C36 S3 1_555 1_555
C37 C36 1_555 1_555
C38 C37 1_555 1_555
H20 C38 1_555 1_555
C39 C38 1_555 1_555
H21 C39 1_555 1_555
C40 C39 1_555 1_555
H22 C40 1_555 1_555
C41 C40 1_555 1_555
H23 C41 1_555 1_555
C42 C37 1_555 1_555
H24 C42 1_555 1_555
C43 C33 1_555 1_555
H25 C43 1_555 1_555
H26 C43 1_555 1_555
H27 C43 1_555 1_555
C44 C45 1_555 1_555
C45 C29 1_555 1_555
C46 C45 1_555 1_555
H28 C46 1_555 1_555
C47 S4 1_555 1_555
C48 C47 1_555 1_555
C49 C48 1_555 1_555
H29 C49 1_555 1_555
C50 C49 1_555 1_555
C51 C50 1_555 1_555
H31 C51 1_555 1_555
C52 C51 1_555 1_555
H32 C52 1_555 1_555
C53 C48 1_555 1_555
H33 C53 1_555 1_555
C54 C44 1_555 1_555
H34 C54 1_555 1_555
H35 C54 1_555 1_555
H36 C54 1_555 1_555
C8 C9 1_555 1_555
C14 C15 1_555 1_555
C19 C20 1_555 1_555
C25 C26 1_555 1_555
C35 C36 1_555 1_555
C41 C42 1_555 1_555
C46 C47 1_555 1_555
C52 C53 1_555 1_555

#END
