
#######################################################################
#
#                 Cambridge Crystallographic Data Centre
#                                CCDC 
#
#######################################################################
#
# If this CIF has been generated from an entry in the Cambridge 
# Structural Database, then it will include bibliographic, chemical, 
# crystal, experimental, refinement or atomic coordinate data resulting 
# from the CCDC's data processing and validation procedures.
#
#######################################################################

data_QAYTIU
_chemical_formula_moiety         'C36 H48 N2 O2,C1 H4 O1'
_chemical_name_systematic        
'4,6,12,14-Tetra-t-butyl-17-N-(6-methylpyridin-2-yl)-8,16-dioxa-17-azatetracyclo(7.7.1.0^2,7^.0^10,15^)heptadeca-2,4,6,10,12,14-hexaene methanol solvate'
_symmetry_cell_setting           triclinic
_symmetry_space_group_name_H-M   'P -1'
_symmetry_Int_Tables_number      2
_space_group_name_Hall           '-P 1'
loop_
_symmetry_equiv_pos_site_id
_symmetry_equiv_pos_as_xyz
1 x,y,z
2 -x,-y,-z
_cell_length_a                   10.282(2)
_cell_length_b                   12.775(3)
_cell_length_c                   15.601(3)
_cell_angle_alpha                66.313(4)
_cell_angle_beta                 82.711(4)
_cell_angle_gamma                68.295(4)
_cell_volume                     1742.97
_exptl_crystal_colour            'pale yellow'
_exptl_crystal_description       block
_cell_formula_units_Z            2
_exptl_crystal_recrystallization_method methanol
loop_
_atom_site_label
_atom_site_type_symbol
_atom_site_fract_x
_atom_site_fract_y
_atom_site_fract_z
C1 C 0.6021(3) -0.1768(2) 0.42805(17)
H1 H 0.6285 -0.2396 0.4866
C2 C 0.7072(3) -0.1602(2) 0.36449(18)
C3 C 0.6611(3) -0.0647(2) 0.27628(18)
C4 C 0.5223(3) 0.0071(2) 0.25645(17)
C5 C 0.4230(3) -0.0129(2) 0.32417(18)
H2 H 0.3297 0.0378 0.3107
C6 C 0.4599(3) -0.1068(3) 0.41119(18)
C7 C 0.3553(3) -0.1365(3) 0.48789(19)
C8 C 0.2052(3) -0.0515(3) 0.45589(17)
H3 H 0.1822 -0.0569 0.4004
H4 H 0.1968 0.0309 0.4426
H5 H 0.1423 -0.0752 0.5045
C9 C 0.3638(3) -0.2678(3) 0.51308(19)
H6 H 0.3481 -0.2772 0.4577
H7 H 0.2938 -0.2852 0.5578
H8 H 0.4549 -0.3233 0.5395
C10 C 0.3894(3) -0.1228(3) 0.57513(18)
H9 H 0.3275 -0.1473 0.6243
H10 H 0.3775 -0.0392 0.5601
H11 H 0.4845 -0.1735 0.5955
C11 C 0.8613(3) -0.2395(3) 0.38920(19)
C12 C 0.8822(3) -0.3311(2) 0.49233(17)
H12 H 0.8499 -0.2872 0.5330
H13 H 0.9798 -0.3794 0.5052
H14 H 0.8298 -0.3835 0.5028
C13 C 0.9172(3) -0.3130(3) 0.32641(19)
H15 H 0.8649 -0.3654 0.3365
H16 H 1.0143 -0.3616 0.3416
H17 H 0.9072 -0.2579 0.2619
C14 C 0.9485(3) -0.1596(3) 0.37694(18)
H18 H 0.9440 -0.1053 0.3125
H19 H 1.0442 -0.2107 0.3953
H20 H 0.9120 -0.1128 0.4153
C15 C 0.4726(3) 0.1021(2) 0.15918(17)
H21 H 0.3888 0.0946 0.1423
C16 C 0.5529(3) 0.2521(2) 0.16194(16)
C17 C 0.6870(3) 0.1748(2) 0.15559(16)
C18 C 0.8015(3) 0.2019(2) 0.16614(16)
H22 H 0.8912 0.1499 0.1617
C19 C 0.7854(3) 0.3039(3) 0.18296(17)
C20 C 0.6481(3) 0.3817(2) 0.18559(15)
H23 H 0.6356 0.4523 0.1949
C21 C 0.5292(3) 0.3597(2) 0.17504(16)
C22 C 0.3817(3) 0.4517(2) 0.17389(19)
C23 C 0.2981(2) 0.3937(2) 0.25637(17)
H24 H 0.2955 0.3208 0.2536
H25 H 0.2044 0.4504 0.2527
H26 H 0.3424 0.3737 0.3143
C24 C 0.3047(3) 0.4945(2) 0.08056(17)
H27 H 0.3534 0.5364 0.0298
H28 H 0.2109 0.5488 0.0817
H29 H 0.3018 0.4250 0.0721
C25 C 0.3846(3) 0.5655(2) 0.1843(2)
H30 H 0.4339 0.5413 0.2413
H31 H 0.2905 0.6188 0.1859
H32 H 0.4313 0.6075 0.1320
C26 C 0.9119(3) 0.3345(3) 0.19624(19)
C27 C 1.0533(6) 0.2400(6) 0.1900(6)
H33 H 1.0582 0.2320 0.1310
H34 H 1.0630 0.1627 0.2400
H35 H 1.1274 0.2661 0.1951
C28 C 0.9082(7) 0.3419(9) 0.2909(4)
H36 H 0.9884 0.3589 0.2988
H37 H 0.9096 0.2656 0.3392
H38 H 0.8243 0.4060 0.2948
C29 C 0.9023(7) 0.4610(6) 0.1177(5)
H39 H 0.9800 0.4818 0.1246
H40 H 0.8163 0.5223 0.1228
H41 H 0.9048 0.4566 0.0575
C36 C 0.7097(3) 0.0671(2) 0.12950(17)
H60 H 0.7789 0.0674 0.0801
C37 C 0.5500(3) 0.1264(2) -0.0019(2)
C38 C 0.4137(3) 0.1884(2) -0.03731(19)
H61 H 0.3390 0.2046 0.0015
C39 C 0.3925(3) 0.2253(2) -0.1323(2)
H62 H 0.3021 0.2641 -0.1580
C40 C 0.5046(4) 0.2046(3) -0.1886(2)
H63 H 0.4913 0.2295 -0.2526
C41 C 0.6366(3) 0.1469(3) -0.1490(2)
C42 C 0.7648(3) 0.1250(3) -0.20795(18)
H64 H 0.8330 0.1480 -0.1902
H65 H 0.7389 0.1731 -0.2729
H66 H 0.8039 0.0401 -0.1982
N1 N 0.5799(2) 0.07651(18) 0.09459(15)
N2 N 0.6617(2) 0.10429(19) -0.05550(17)
O1 O 0.76077(16) -0.04700(15) 0.20879(11)
O2 O 0.43683(16) 0.22460(15) 0.15522(10)
C43 C 0.9833(4) 0.8192(3) 0.0525(2)
H67 H 1.0050 0.8584 0.0871
H68 H 1.0685 0.7644 0.0388
H69 H 0.9249 0.7742 0.0890
O3 O 0.9177(3) 0.9016(3) -0.0256(2)
H70 H 0.8631 0.8780 -0.0403
C30? C 0.9702(16) 0.3859(17) 0.1071(8)
H42? H 0.9027 0.4628 0.0700
H43? H 0.9936 0.3311 0.0752
H44? H 1.0530 0.3981 0.1166
C31? C 0.9783(15) 0.2427(15) 0.2961(8)
H45? H 1.0083 0.1606 0.2993
H46? H 0.9099 0.2526 0.3429
H47? H 1.0574 0.2589 0.3072
C32? C 0.8663(12) 0.4237(13) 0.2521(11)
H48? H 0.9463 0.4393 0.2622
H49? H 0.8292 0.3858 0.3114
H50? H 0.7959 0.4993 0.2162
C33? C 1.0289(11) 0.3055(13) 0.1212(8)
H51? H 0.9892 0.3532 0.0590
H52? H 1.0596 0.2203 0.1324
H53? H 1.1072 0.3257 0.1277
C34? C 1.0206(15) 0.2143(11) 0.2624(12)
H54? H 1.0601 0.1593 0.2307
H55? H 0.9750 0.1771 0.3177
H56? H 1.0937 0.2324 0.2797
C35? C 0.8759(11) 0.4668(10) 0.1807(12)
H57? H 0.9597 0.4810 0.1852
H58? H 0.8120 0.4855 0.2274
H59? H 0.8331 0.5181 0.1197
loop_
_geom_bond_atom_site_label_1
_geom_bond_atom_site_label_2
_geom_bond_site_symmetry_1
_geom_bond_site_symmetry_2
C1 H1 1_555 1_555
C2 C1 1_555 1_555
C3 C2 1_555 1_555
C4 C3 1_555 1_555
C5 C4 1_555 1_555
H2 C5 1_555 1_555
C6 C1 1_555 1_555
C7 C6 1_555 1_555
C8 C7 1_555 1_555
H3 C8 1_555 1_555
H4 C8 1_555 1_555
H5 C8 1_555 1_555
C9 C7 1_555 1_555
H6 C9 1_555 1_555
H7 C9 1_555 1_555
H8 C9 1_555 1_555
C10 C7 1_555 1_555
H9 C10 1_555 1_555
H10 C10 1_555 1_555
H11 C10 1_555 1_555
C11 C2 1_555 1_555
C12 C11 1_555 1_555
H12 C12 1_555 1_555
H13 C12 1_555 1_555
H14 C12 1_555 1_555
C13 C11 1_555 1_555
H15 C13 1_555 1_555
H16 C13 1_555 1_555
H17 C13 1_555 1_555
C14 C11 1_555 1_555
H18 C14 1_555 1_555
H19 C14 1_555 1_555
H20 C14 1_555 1_555
C15 C4 1_555 1_555
H21 C15 1_555 1_555
C16 C17 1_555 1_555
C17 C18 1_555 1_555
C18 H22 1_555 1_555
C19 C18 1_555 1_555
C20 C19 1_555 1_555
H23 C20 1_555 1_555
C21 C16 1_555 1_555
C22 C21 1_555 1_555
C23 C22 1_555 1_555
H24 C23 1_555 1_555
H25 C23 1_555 1_555
H26 C23 1_555 1_555
C24 C22 1_555 1_555
H27 C24 1_555 1_555
H28 C24 1_555 1_555
H29 C24 1_555 1_555
C25 C22 1_555 1_555
H30 C25 1_555 1_555
H31 C25 1_555 1_555
H32 C25 1_555 1_555
C26 C19 1_555 1_555
C27 C26 1_555 1_555
H33 C27 1_555 1_555
H34 C27 1_555 1_555
H35 C27 1_555 1_555
C28 C26 1_555 1_555
H36 C28 1_555 1_555
H37 C28 1_555 1_555
H38 C28 1_555 1_555
C29 C26 1_555 1_555
H39 C29 1_555 1_555
H40 C29 1_555 1_555
H41 C29 1_555 1_555
C36 C17 1_555 1_555
H60 C36 1_555 1_555
C37 C38 1_555 1_555
C38 H61 1_555 1_555
C39 C38 1_555 1_555
H62 C39 1_555 1_555
C40 C39 1_555 1_555
H63 C40 1_555 1_555
C41 C40 1_555 1_555
C42 C41 1_555 1_555
H64 C42 1_555 1_555
H65 C42 1_555 1_555
H66 C42 1_555 1_555
N1 C15 1_555 1_555
N2 C37 1_555 1_555
O1 C3 1_555 1_555
O2 C15 1_555 1_555
C43 H67 1_555 1_555
H68 C43 1_555 1_555
H69 C43 1_555 1_555
O3 C43 1_555 1_555
H70 O3 1_555 1_555
C5 C6 1_555 1_555
C16 O2 1_555 1_555
C20 C21 1_555 1_555
C36 N1 1_555 1_555
C36 O1 1_555 1_555
C37 N1 1_555 1_555
C41 N2 1_555 1_555

#END
