
#######################################################################
#
#                 Cambridge Crystallographic Data Centre
#                                CCDC 
#
#######################################################################
#
# If this CIF has been generated from an entry in the Cambridge 
# Structural Database, then it will include bibliographic, chemical, 
# crystal, experimental, refinement or atomic coordinate data resulting 
# from the CCDC's data processing and validation procedures.
#
#######################################################################

data_QAYYAS
_chemical_formula_moiety         'C33 H23 N3 O2,C3 H7 N1 O1'
_chemical_name_systematic        
"2,2'-((4-(acridin-9-yl)-1,2-phenylene)bis(nitrilomethylylidene))diphenol N,N-dimethylformamide solvate"
_symmetry_cell_setting           triclinic
_symmetry_space_group_name_H-M   'P -1'
_symmetry_Int_Tables_number      2
_space_group_name_Hall           '-P 1'
loop_
_symmetry_equiv_pos_site_id
_symmetry_equiv_pos_as_xyz
1 x,y,z
2 -x,-y,-z
_cell_length_a                   9.0212(9)
_cell_length_b                   13.0238(13)
_cell_length_c                   13.7762(14)
_cell_angle_alpha                102.858(2)
_cell_angle_beta                 102.414(2)
_cell_angle_gamma                103.829(2)
_cell_volume                     1469.48
_exptl_crystal_colour            yellow
_exptl_crystal_description       needle
_cell_formula_units_Z            2
loop_
_atom_site_label
_atom_site_type_symbol
_atom_site_fract_x
_atom_site_fract_y
_atom_site_fract_z
O1 O 0.2532(2) 0.54942(16) 0.07025(15)
H1 H 0.3266 0.6063 0.1011
O2 O 0.3599(3) 0.57852(17) 0.3313(2)
H2 H 0.4244 0.6187 0.3116
N1 N 0.5149(2) 0.70261(15) 0.10008(15)
N2 N 0.5090(3) 0.76186(17) 0.30070(16)
N3 N 1.2199(2) 1.16933(18) 0.11477(16)
C1 C 0.2600(3) 0.51274(19) -0.0272(2)
C2 C 0.1403(3) 0.4220(2) -0.0950(2)
H3 H 0.0573 0.3871 -0.0724
C3 C 0.1425(4) 0.3827(2) -0.1956(2)
H4 H 0.0600 0.3221 -0.2407
C4 C 0.2656(4) 0.4317(2) -0.2305(2)
H5 H 0.2669 0.4042 -0.2986
C5 C 0.3860(3) 0.5214(2) -0.1636(2)
H6 H 0.4698 0.5540 -0.1868
C6 C 0.3858(3) 0.56503(18) -0.06141(19)
C7 C 0.2757(3) 0.6373(2) 0.3761(2)
C8 C 0.3023(3) 0.7494(2) 0.3850(2)
C9 C 0.2110(4) 0.8046(3) 0.4319(3)
H7 H 0.2275 0.8793 0.4377
C10 C 0.0958(5) 0.7505(4) 0.4702(3)
H8 H 0.0350 0.7882 0.5017
C11 C 0.0723(4) 0.6406(4) 0.4612(3)
H9 H -0.0047 0.6042 0.4875
C12 C 0.1595(4) 0.5829(3) 0.4145(3)
H10 H 0.1409 0.5081 0.4086
C13 C 0.5129(3) 0.66055(18) 0.00652(19)
H11 H 0.5952 0.6923 -0.0183
C14 C 0.4244(3) 0.8097(2) 0.3477(2)
H12 H 0.4420 0.8851 0.3580
C15 C 0.6309(3) 0.82726(19) 0.27073(19)
C16 C 0.6363(3) 0.79667(17) 0.16811(17)
C17 C 0.7546(3) 0.86276(17) 0.13871(18)
H13 H 0.7577 0.8436 0.0702
C18 C 0.8670(3) 0.95589(18) 0.20882(19)
C19 C 0.8643(3) 0.9819(2) 0.3118(2)
H14 H 0.9420 1.0427 0.3605
C20 C 0.7475(3) 0.9184(2) 0.3423(2)
H15 H 0.7468 0.9368 0.4114
C21 C 0.9874(3) 1.02856(17) 0.17499(17)
C22 C 1.1078(3) 0.99204(19) 0.14323(17)
C23 C 1.1231(3) 0.8850(2) 0.1395(2)
H16 H 1.0497 0.8354 0.1581
C24 C 1.2430(4) 0.8546(3) 0.1092(2)
H17 H 1.2503 0.7840 0.1062
C25 C 1.3561(4) 0.9284(3) 0.0822(3)
H18 H 1.4386 0.9066 0.0624
C26 C 1.3472(4) 1.0304(3) 0.0844(2)
H19 H 1.4240 1.0782 0.0664
C27 C 1.2223(3) 1.0665(2) 0.11396(19)
C28 C 1.1031(3) 1.20297(19) 0.14405(18)
C29 C 1.1000(4) 1.3122(2) 0.1457(2)
H20 H 1.1782 1.3573 0.1265
C30 C 0.9864(4) 1.3513(2) 0.1745(3)
H21 H 0.9870 1.4230 0.1754
C31 C 0.8669(4) 1.2846(3) 0.2033(3)
H22 H 0.7885 1.3126 0.2227
C32 C 0.8635(3) 1.1801(2) 0.2035(2)
H23 H 0.7828 1.1372 0.2226
C33 C 0.9820(3) 1.13563(18) 0.17486(18)
O3 O 0.3125(6) 0.0798(3) 0.4196(3)
N4 N 0.4000(4) 0.2412(3) 0.3872(2)
C34 C 0.5020(7) 0.3052(6) 0.3453(4)
H24 H 0.5774 0.2685 0.3280
H25 H 0.5577 0.3759 0.3952
H26 H 0.4410 0.3153 0.2837
C35 C 0.2960(8) 0.2870(6) 0.4361(5)
H27 H 0.2307 0.3128 0.3882
H28 H 0.3582 0.3477 0.4962
H29 H 0.2296 0.2314 0.4567
C36 C 0.3945(7) 0.1395(6) 0.3843(3)
H30 H 0.4613 0.1102 0.3513
loop_
_geom_bond_atom_site_label_1
_geom_bond_atom_site_label_2
_geom_bond_site_symmetry_1
_geom_bond_site_symmetry_2
O1 H1 1_555 1_555
O2 H2 1_555 1_555
O3 C36 1_555 1_555
N1 C13 1_555 1_555
N2 C14 1_555 1_555
N3 C27 1_555 1_555
N4 C34 1_555 1_555
C1 O1 1_555 1_555
C2 C1 1_555 1_555
H3 C2 1_555 1_555
C3 C2 1_555 1_555
H4 C3 1_555 1_555
C4 C3 1_555 1_555
H5 C4 1_555 1_555
C5 C4 1_555 1_555
H6 C5 1_555 1_555
C6 C1 1_555 1_555
C7 O2 1_555 1_555
C8 C7 1_555 1_555
C9 C8 1_555 1_555
H7 C9 1_555 1_555
C10 C9 1_555 1_555
H8 C10 1_555 1_555
C11 C10 1_555 1_555
H9 C11 1_555 1_555
C12 C7 1_555 1_555
H10 C12 1_555 1_555
C13 C6 1_555 1_555
H11 C13 1_555 1_555
C14 C8 1_555 1_555
H12 C14 1_555 1_555
C15 N2 1_555 1_555
C16 N1 1_555 1_555
C17 C16 1_555 1_555
H13 C17 1_555 1_555
C18 C17 1_555 1_555
C19 C18 1_555 1_555
H14 C19 1_555 1_555
C20 C15 1_555 1_555
H15 C20 1_555 1_555
C21 C18 1_555 1_555
C22 C21 1_555 1_555
C23 C22 1_555 1_555
H16 C23 1_555 1_555
C24 C23 1_555 1_555
H17 C24 1_555 1_555
C25 C24 1_555 1_555
H18 C25 1_555 1_555
C26 C25 1_555 1_555
H19 C26 1_555 1_555
C27 C22 1_555 1_555
C28 N3 1_555 1_555
C29 C28 1_555 1_555
H20 C29 1_555 1_555
C30 C29 1_555 1_555
H21 C30 1_555 1_555
C31 C30 1_555 1_555
H22 C31 1_555 1_555
C32 C31 1_555 1_555
H23 C32 1_555 1_555
C33 C21 1_555 1_555
C34 H24 1_555 1_555
H25 C34 1_555 1_555
H26 C34 1_555 1_555
C35 N4 1_555 1_555
H27 C35 1_555 1_555
H28 C35 1_555 1_555
H29 C35 1_555 1_555
C36 N4 1_555 1_555
H30 C36 1_555 1_555
C5 C6 1_555 1_555
C11 C12 1_555 1_555
C15 C16 1_555 1_555
C19 C20 1_555 1_555
C26 C27 1_555 1_555
C28 C33 1_555 1_555
C32 C33 1_555 1_555

#END
