
#######################################################################
#
#                 Cambridge Crystallographic Data Centre
#                                CCDC 
#
#######################################################################
#
# If this CIF has been generated from an entry in the Cambridge 
# Structural Database, then it will include bibliographic, chemical, 
# crystal, experimental, refinement or atomic coordinate data resulting 
# from the CCDC's data processing and validation procedures.
#
#######################################################################

data_QAZCAW
_chemical_formula_moiety         'C12 H13 N1 O2'
_chemical_name_systematic        1-Nitro-6-phenylcyclohexene
_symmetry_cell_setting           orthorhombic
_symmetry_space_group_name_H-M   'P 21 21 21'
_symmetry_Int_Tables_number      19
_space_group_name_Hall           'P 2ac 2ab'
loop_
_symmetry_equiv_pos_site_id
_symmetry_equiv_pos_as_xyz
1 x,y,z
2 1/2-x,-y,1/2+z
3 -x,1/2+y,1/2-z
4 1/2+x,1/2-y,-z
_cell_length_a                   6.1206(5)
_cell_length_b                   12.592(1)
_cell_length_c                   14.007(1)
_cell_angle_alpha                90
_cell_angle_beta                 90
_cell_angle_gamma                90
_cell_volume                     1079.53
_chemical_melting_point          '71.3-72.0 deg.C'
_cell_formula_units_Z            4
loop_
_atom_site_label
_atom_site_type_symbol
_atom_site_fract_x
_atom_site_fract_y
_atom_site_fract_z
O1 O 0.0177(4) 0.67786(16) 0.55821(17)
O2 O 0.3139(4) 0.65402(15) 0.63662(14)
N1 N 0.2062(4) 0.64631(14) 0.56434(18)
C1 C 0.5209(3) 0.54231(14) 0.49911(13)
H1 H 0.6122 0.5907 0.5367
C2 C 0.6351(4) 0.52359(19) 0.40271(15)
H2 H 0.6932 0.5904 0.3794
H3 H 0.7567 0.4752 0.4118
C3 C 0.4816(4) 0.47800(19) 0.32927(14)
H4 H 0.5611 0.4631 0.2709
H5 H 0.4207 0.4118 0.3527
C4 C 0.3001(4) 0.5552(2) 0.30894(16)
H6 H 0.3542 0.6104 0.2668
H7 H 0.1830 0.5184 0.2761
C5 C 0.2110(4) 0.60539(17) 0.39756(18)
H8 H 0.0825 0.6446 0.3935
C6 C 0.3077(4) 0.59614(15) 0.48092(14)
C7 C 0.4969(3) 0.43953(13) 0.55520(11)
C8 C 0.3163(4) 0.37487(15) 0.54673(12)
H9 H 0.2012 0.3956 0.5076
C9 C 0.3033(4) 0.27948(15) 0.59557(14)
H10 H 0.1811 0.2363 0.5885
C10 C 0.4715(4) 0.24887(16) 0.65450(14)
H11 H 0.4628 0.1851 0.6878
C11 C 0.6511(4) 0.31197(18) 0.66416(14)
H12 H 0.7645 0.2913 0.7042
C12 C 0.6649(4) 0.40663(16) 0.61445(13)
H13 H 0.7887 0.4488 0.6209
loop_
_geom_bond_atom_site_label_1
_geom_bond_atom_site_label_2
_geom_bond_site_symmetry_1
_geom_bond_site_symmetry_2
O1 N1 1_555 1_555
O2 N1 1_555 1_555
N1 C6 1_555 1_555
C1 H1 1_555 1_555
C2 C1 1_555 1_555
H2 C2 1_555 1_555
H3 C2 1_555 1_555
C3 C2 1_555 1_555
H4 C3 1_555 1_555
H5 C3 1_555 1_555
C4 C3 1_555 1_555
H6 C4 1_555 1_555
H7 C4 1_555 1_555
C5 C4 1_555 1_555
H8 C5 1_555 1_555
C6 C1 1_555 1_555
C7 C1 1_555 1_555
C8 C7 1_555 1_555
H9 C8 1_555 1_555
C9 C8 1_555 1_555
H10 C9 1_555 1_555
C10 C9 1_555 1_555
H11 C10 1_555 1_555
C11 C10 1_555 1_555
H12 C11 1_555 1_555
C12 C7 1_555 1_555
H13 C12 1_555 1_555
C5 C6 1_555 1_555
C11 C12 1_555 1_555

#END
