
#######################################################################
#
#                 Cambridge Crystallographic Data Centre
#                                CCDC 
#
#######################################################################
#
# If this CIF has been generated from an entry in the Cambridge 
# Structural Database, then it will include bibliographic, chemical, 
# crystal, experimental, refinement or atomic coordinate data resulting 
# from the CCDC's data processing and validation procedures.
#
#######################################################################

data_QAZNIR
_chemical_formula_moiety         'C31 H23 Br1 N2 O4 S1'
_chemical_name_systematic        
"[2-bromo-6-(4-methylphenyl)-6a-nitro-6a,6b,13,13a-tetrahydro-6H-[1]benzopyrano[3',4':3,4]pyrrolo[2,1-b][1,3]benzothiazol-13-yl](phenyl)methanone"
_symmetry_cell_setting           monoclinic
_symmetry_space_group_name_H-M   'P 21/c'
_symmetry_Int_Tables_number      14
_space_group_name_Hall           '-P 2ybc'
loop_
_symmetry_equiv_pos_site_id
_symmetry_equiv_pos_as_xyz
1 x,y,z
2 -x,1/2+y,1/2-z
3 -x,-y,-z
4 x,1/2-y,1/2+z
_cell_length_a                   11.303(2)
_cell_length_b                   12.821(2)
_cell_length_c                   20.763(3)
_cell_angle_alpha                90
_cell_angle_beta                 116.403(7)
_cell_angle_gamma                90
_cell_volume                     2695.02
_exptl_crystal_colour            yellow
_exptl_crystal_description       block
_cell_formula_units_Z            4
loop_
_atom_site_label
_atom_site_type_symbol
_atom_site_fract_x
_atom_site_fract_y
_atom_site_fract_z
Br1 Br 0.76940(5) 0.34928(4) 1.13125(3)
C1 C 0.6520(4) 0.3121(3) 0.9120(2)
H1 H 0.7405 0.3171 0.9217
C2 C 0.6047(6) 0.2235(3) 0.9313(2)
H2 H 0.6633 0.1709 0.9571
C3 C 0.4757(6) 0.2126(4) 0.9133(3)
H3 H 0.4451 0.1513 0.9246
C4 C 0.3881(5) 0.2916(3) 0.8782(2)
H4 H 0.2990 0.2833 0.8662
C5 C 0.4308(4) 0.3818(3) 0.8609(2)
H5 H 0.3713 0.4354 0.8380
C6 C 0.5641(4) 0.3938(3) 0.87741(17)
C7 C 0.6182(3) 0.4895(3) 0.86023(16)
C8 C 0.5573(3) 0.5941(2) 0.86527(16)
H6 H 0.4696 0.5820 0.8626
C9 C 0.5933(3) 0.7679(2) 0.83239(17)
H7 H 0.6333 0.7999 0.8039
C10 C 0.4105(3) 0.6737(3) 0.75179(16)
C11 C 0.3443(4) 0.5964(3) 0.70256(19)
H8 H 0.3879 0.5373 0.6983
C12 C 0.2073(4) 0.6109(3) 0.6588(2)
H9 H 0.1591 0.5590 0.6265
C13 C 0.1447(4) 0.6997(3) 0.6633(2)
H10 H 0.0553 0.7084 0.6328
C14 C 0.2118(3) 0.7764(3) 0.71232(19)
H11 H 0.1680 0.8364 0.7151
C15 C 0.3449(3) 0.7637(3) 0.75742(17)
C16 C 0.8823(3) 0.6102(3) 1.01477(16)
C17 C 0.9802(4) 0.5544(3) 1.07039(17)
H12 H 1.0687 0.5694 1.0841
C18 C 0.9469(4) 0.4781(3) 1.10469(18)
H13 H 1.0125 0.4396 1.1410
C19 C 0.8136(4) 0.4576(3) 1.08538(18)
C20 C 0.7155(3) 0.5146(3) 1.03162(17)
H14 H 0.6271 0.5021 1.0197
C21 C 0.7506(3) 0.5920(3) 0.99491(15)
C22 C 0.6444(3) 0.6551(2) 0.93606(16)
H15 H 0.5859 0.6838 0.9551
C23 C 0.7000(3) 0.7468(3) 0.90971(16)
C24 C 0.8325(3) 0.7158(3) 0.91141(17)
H16 H 0.8163 0.6540 0.8809
C25 C 0.9046(3) 0.7949(3) 0.88669(17)
C26 C 0.8773(4) 0.8000(3) 0.81557(19)
H17 H 0.8139 0.7561 0.7824
C27 C 0.9443(4) 0.8705(3) 0.7930(2)
H18 H 0.9245 0.8735 0.7445
C28 C 1.0407(4) 0.9371(3) 0.8412(2)
C29 C 1.1120(5) 1.0129(4) 0.8174(3)
H19 H 1.1795 1.0467 0.8587
H20 H 1.0510 1.0642 0.7868
H21 H 1.1518 0.9771 0.7914
C30 C 1.0646(4) 0.9299(3) 0.91274(19)
H22 H 1.1270 0.9738 0.9464
C31 C 0.9994(3) 0.8603(3) 0.93519(18)
H23 H 1.0190 0.8570 0.9836
N1 N 0.5448(3) 0.6645(2) 0.80511(13)
N2 N 0.7235(3) 0.8413(2) 0.95675(15)
O1 O 0.7102(2) 0.48711(19) 0.84661(13)
O2 O 0.7139(3) 0.9266(2) 0.92863(14)
O3 O 0.7564(3) 0.8277(2) 1.02021(14)
O4 O 0.9240(2) 0.68578(19) 0.98339(12)
S1 S 0.44994(9) 0.84795(7) 0.82577(5)
loop_
_geom_bond_atom_site_label_1
_geom_bond_atom_site_label_2
_geom_bond_site_symmetry_1
_geom_bond_site_symmetry_2
Br1 C19 1_555 1_555
C1 H1 1_555 1_555
C2 C1 1_555 1_555
H2 C2 1_555 1_555
C3 C2 1_555 1_555
H3 C3 1_555 1_555
C4 C3 1_555 1_555
H4 C4 1_555 1_555
C5 C4 1_555 1_555
H5 C5 1_555 1_555
C6 C1 1_555 1_555
C7 C6 1_555 1_555
C8 C7 1_555 1_555
H6 C8 1_555 1_555
C9 H7 1_555 1_555
C10 C11 1_555 1_555
C11 H8 1_555 1_555
C12 C11 1_555 1_555
H9 C12 1_555 1_555
C13 C12 1_555 1_555
H10 C13 1_555 1_555
C14 C13 1_555 1_555
H11 C14 1_555 1_555
C15 C10 1_555 1_555
C16 C17 1_555 1_555
C17 H12 1_555 1_555
C18 C17 1_555 1_555
H13 C18 1_555 1_555
C19 C18 1_555 1_555
C20 C19 1_555 1_555
H14 C20 1_555 1_555
C21 C16 1_555 1_555
C22 C8 1_555 1_555
H15 C22 1_555 1_555
C23 C9 1_555 1_555
C24 C23 1_555 1_555
H16 C24 1_555 1_555
C25 C24 1_555 1_555
C26 C25 1_555 1_555
H17 C26 1_555 1_555
C27 C26 1_555 1_555
H18 C27 1_555 1_555
C28 C27 1_555 1_555
C29 C28 1_555 1_555
H19 C29 1_555 1_555
H20 C29 1_555 1_555
H21 C29 1_555 1_555
C30 C28 1_555 1_555
H22 C30 1_555 1_555
C31 C25 1_555 1_555
H23 C31 1_555 1_555
N1 C8 1_555 1_555
N2 C23 1_555 1_555
O1 C7 1_555 1_555
O2 N2 1_555 1_555
O3 N2 1_555 1_555
O4 C16 1_555 1_555
S1 C9 1_555 1_555
C5 C6 1_555 1_555
C9 N1 1_555 1_555
C10 N1 1_555 1_555
C14 C15 1_555 1_555
C15 S1 1_555 1_555
C20 C21 1_555 1_555
C21 C22 1_555 1_555
C22 C23 1_555 1_555
C24 O4 1_555 1_555
C30 C31 1_555 1_555

#END
