
#######################################################################
#
#                 Cambridge Crystallographic Data Centre
#                                CCDC 
#
#######################################################################
#
# If this CIF has been generated from an entry in the Cambridge 
# Structural Database, then it will include bibliographic, chemical, 
# crystal, experimental, refinement or atomic coordinate data resulting 
# from the CCDC's data processing and validation procedures.
#
#######################################################################

data_QAZNUD
_chemical_formula_moiety         'C31 H23 Br1 N2 O5 S1'
_chemical_name_systematic        
(2-bromo-6a-nitro-6-phenyl-6a,6b,13,13a-tetrahydro-6H-[1]benzopyrano[3',4':3,4]pyrrolo[2,1-b][1,3]benzothiazol-13-yl)(4-methoxyphenyl)methanone
_symmetry_cell_setting           monoclinic
_symmetry_space_group_name_H-M   'P 21/c'
_symmetry_Int_Tables_number      14
_space_group_name_Hall           '-P 2ybc'
loop_
_symmetry_equiv_pos_site_id
_symmetry_equiv_pos_as_xyz
1 x,y,z
2 -x,1/2+y,1/2-z
3 -x,-y,-z
4 x,1/2-y,1/2+z
_cell_length_a                   16.7535(18)
_cell_length_b                   7.6164(8)
_cell_length_c                   24.6930(19)
_cell_angle_alpha                90
_cell_angle_beta                 120.576(5)
_cell_angle_gamma                90
_cell_volume                     2712.75
_exptl_crystal_colour            colorless
_exptl_crystal_description       block
_cell_formula_units_Z            4
loop_
_atom_site_label
_atom_site_type_symbol
_atom_site_fract_x
_atom_site_fract_y
_atom_site_fract_z
Br1 Br 0.32879(2) 0.55342(4) 0.80699(2)
C1 C 0.52901(16) 0.9183(3) 0.78212(11)
H1 H 0.5824 0.8724 0.7849
C2 C 0.44624(16) 0.9077(3) 0.72636(11)
H2 H 0.4439 0.8557 0.6915
C3 C 0.36585(16) 0.9747(3) 0.72180(11)
C4 C 0.20174(18) 1.0057(5) 0.65914(15)
H3 H 0.2027 1.1290 0.6676
H4 H 0.1931 0.9401 0.6890
H5 H 0.1517 0.9812 0.6174
C5 C 0.36975(16) 1.0529(3) 0.77349(11)
H6 H 0.3161 1.0969 0.7709
C6 C 0.45314(15) 1.0654(3) 0.82874(11)
H7 H 0.4555 1.1211 0.8631
C7 C 0.53402(14) 0.9970(3) 0.83463(10)
C8 C 0.62120(14) 1.0114(3) 0.89642(10)
C9 C 0.69504(13) 0.8679(3) 0.91493(10)
H8 H 0.6895 0.8175 0.8766
C10 C 0.83884(13) 0.8499(3) 1.01478(10)
H9 H 0.8702 0.9375 1.0482
C11 C 0.91951(14) 0.8301(3) 0.95157(11)
C12 C 0.97555(16) 0.8175(4) 0.92503(14)
H10 H 1.0262 0.7421 0.9419
C13 C 0.95417(19) 0.9191(4) 0.87346(14)
H11 H 0.9912 0.9118 0.8555
C14 C 0.8798(2) 1.0308(4) 0.84775(14)
H12 H 0.8669 1.0979 0.8127
C15 C 0.82352(18) 1.0443(4) 0.87390(13)
H13 H 0.7729 1.1200 0.8567
C16 C 0.84403(15) 0.9442(3) 0.92550(11)
C17 C 0.82814(16) 1.1051(3) 1.13143(12)
H14 H 0.8113 1.1794 1.0974
C18 C 0.88799(19) 1.1643(5) 1.19071(15)
H15 H 0.9112 1.2780 1.1967
C19 C 0.9139(2) 1.0579(6) 1.24117(16)
H16 H 0.9557 1.0976 1.2815
C20 C 0.8781(2) 0.8924(6) 1.23221(14)
H17 H 0.8954 0.8202 1.2668
C21 C 0.81588(19) 0.8297(4) 1.17193(12)
H18 H 0.7910 0.7174 1.1663
C22 C 0.79188(15) 0.9374(3) 1.12075(11)
C23 C 0.72541(14) 0.8797(3) 1.05441(10)
H19 H 0.7020 0.9864 1.0288
C24 C 0.76340(14) 0.7593(3) 1.02191(10)
C25 C 0.68630(13) 0.7172(3) 0.95469(10)
H20 H 0.7013 0.6058 0.9421
C26 C 0.59152(14) 0.7001(3) 0.94783(10)
C27 C 0.51718(15) 0.6388(3) 0.89212(11)
H21 H 0.5259 0.6034 0.8595
C28 C 0.43029(15) 0.6301(3) 0.88513(12)
C29 C 0.41578(16) 0.6795(3) 0.93302(13)
H22 H 0.3566 0.6745 0.9275
C30 C 0.48942(16) 0.7365(3) 0.98900(12)
H23 H 0.4805 0.7682 1.0219
C31 C 0.57698(15) 0.7466(3) 0.99640(11)
N1 N 0.78941(11) 0.9380(2) 0.95455(8)
N2 N 0.80022(15) 0.5932(3) 1.06012(11)
O1 O 0.28729(12) 0.9567(2) 0.66425(8)
O2 O 0.63268(11) 1.1298(2) 0.93265(8)
O3 O 0.74760(15) 0.4695(3) 1.04556(12)
O4 O 0.87994(13) 0.5944(3) 1.10451(9)
O5 O 0.64823(10) 0.7985(2) 1.05429(7)
S1 S 0.92700(4) 0.70374(9) 1.01334(3)
loop_
_geom_bond_atom_site_label_1
_geom_bond_atom_site_label_2
_geom_bond_site_symmetry_1
_geom_bond_site_symmetry_2
Br1 C28 1_555 1_555
C1 H1 1_555 1_555
C2 C1 1_555 1_555
H2 C2 1_555 1_555
C3 C2 1_555 1_555
C4 H3 1_555 1_555
H4 C4 1_555 1_555
H5 C4 1_555 1_555
C5 C3 1_555 1_555
H6 C5 1_555 1_555
C6 C5 1_555 1_555
H7 C6 1_555 1_555
C7 C1 1_555 1_555
C8 C7 1_555 1_555
C9 C8 1_555 1_555
H8 C9 1_555 1_555
C10 H9 1_555 1_555
C11 C12 1_555 1_555
C12 H10 1_555 1_555
C13 C12 1_555 1_555
H11 C13 1_555 1_555
C14 C13 1_555 1_555
H12 C14 1_555 1_555
C15 C14 1_555 1_555
H13 C15 1_555 1_555
C16 C11 1_555 1_555
C17 H14 1_555 1_555
C18 C17 1_555 1_555
H15 C18 1_555 1_555
C19 C18 1_555 1_555
H16 C19 1_555 1_555
C20 C19 1_555 1_555
H17 C20 1_555 1_555
C21 C20 1_555 1_555
H18 C21 1_555 1_555
C22 C17 1_555 1_555
C23 C22 1_555 1_555
H19 C23 1_555 1_555
C24 C10 1_555 1_555
C25 C9 1_555 1_555
H20 C25 1_555 1_555
C26 C25 1_555 1_555
C27 C26 1_555 1_555
H21 C27 1_555 1_555
C28 C27 1_555 1_555
C29 C28 1_555 1_555
H22 C29 1_555 1_555
C30 C29 1_555 1_555
H23 C30 1_555 1_555
C31 C26 1_555 1_555
N1 C9 1_555 1_555
N2 C24 1_555 1_555
O1 C3 1_555 1_555
O2 C8 1_555 1_555
O3 N2 1_555 1_555
O4 N2 1_555 1_555
O5 C23 1_555 1_555
S1 C10 1_555 1_555
C4 O1 1_555 1_555
C6 C7 1_555 1_555
C10 N1 1_555 1_555
C11 S1 1_555 1_555
C15 C16 1_555 1_555
C16 N1 1_555 1_555
C21 C22 1_555 1_555
C23 C24 1_555 1_555
C24 C25 1_555 1_555
C30 C31 1_555 1_555
C31 O5 1_555 1_555

#END
