
#######################################################################
#
#                 Cambridge Crystallographic Data Centre
#                                CCDC 
#
#######################################################################
#
# If this CIF has been generated from an entry in the Cambridge 
# Structural Database, then it will include bibliographic, chemical, 
# crystal, experimental, refinement or atomic coordinate data resulting 
# from the CCDC's data processing and validation procedures.
#
#######################################################################

data_QAZPUF
_chemical_formula_moiety         'C32 H22 Br1 N1 O3 S1'
_chemical_name_systematic        
"[2-bromo-6-(4-methylphenyl)-6H-[1]benzopyrano[3',4':3,4]pyrrolo[2,1-b][1,3]benzothiazol-13-yl](4-methoxyphenyl)methanone"
_symmetry_cell_setting           monoclinic
_symmetry_space_group_name_H-M   'P 21/c'
_symmetry_Int_Tables_number      14
_space_group_name_Hall           '-P 2ybc'
loop_
_symmetry_equiv_pos_site_id
_symmetry_equiv_pos_as_xyz
1 x,y,z
2 -x,1/2+y,1/2-z
3 -x,-y,-z
4 x,1/2-y,1/2+z
_cell_length_a                   12.9498(8)
_cell_length_b                   13.3015(9)
_cell_length_c                   15.8317(10)
_cell_angle_alpha                90
_cell_angle_beta                 106.084(2)
_cell_angle_gamma                90
_cell_volume                     2620.29
_exptl_crystal_colour            yellow
_exptl_crystal_description       block
_cell_formula_units_Z            4
loop_
_atom_site_label
_atom_site_type_symbol
_atom_site_fract_x
_atom_site_fract_y
_atom_site_fract_z
Br1 Br 0.74775(4) 0.84448(4) 1.21636(3)
C1 C 1.0103(3) 0.4716(4) 0.7988(3)
C2 C 1.0725(4) 0.4491(4) 0.7432(3)
H1 H 1.0692 0.3859 0.7174
C3 C 1.1402(5) 0.5231(5) 0.7264(4)
H2 H 1.1836 0.5093 0.6899
C4 C 1.1430(4) 0.6174(5) 0.7643(4)
H3 H 1.1872 0.6668 0.7514
C5 C 1.0818(4) 0.6399(4) 0.8206(3)
H4 H 1.0846 0.7033 0.8458
C6 C 1.0156(3) 0.5651(3) 0.8388(3)
C7 C 0.8869(3) 0.4828(3) 0.8913(3)
C8 C 0.9126(3) 0.6411(3) 0.9452(3)
C9 C 0.9588(4) 0.7424(3) 0.9610(3)
C10 C 0.8875(4) 0.8250(3) 0.9678(3)
C11 C 0.7794(4) 0.8271(3) 0.9214(3)
H5 H 0.7511 0.7765 0.8811
C12 C 0.7142(5) 0.9029(4) 0.9347(3)
H6 H 0.6423 0.9045 0.9024
C13 C 0.7551(5) 0.9772(4) 0.9962(4)
C14 C 0.7314(6) 1.1201(5) 1.0844(5)
H7 H 0.7557 1.0829 1.1382
H8 H 0.6770 1.1671 1.0892
H9 H 0.7908 1.1558 1.0734
C15 C 0.8626(5) 0.9784(4) 1.0409(4)
H10 H 0.8906 1.0295 1.0807
C16 C 0.9274(4) 0.9037(4) 1.0259(3)
H11 H 1.0004 0.9053 1.0552
C17 C 0.6770(3) 0.5675(3) 1.0304(3)
C18 C 0.6053(4) 0.5941(4) 1.0777(3)
H12 H 0.5434 0.5562 1.0723
C19 C 0.6259(4) 0.6771(4) 1.1329(3)
H13 H 0.5778 0.6958 1.1641
C20 C 0.7184(3) 0.7309(3) 1.1408(3)
C21 C 0.7905(3) 0.7047(3) 1.0945(3)
H14 H 0.8543 0.7404 1.1032
C22 C 0.7683(3) 0.6253(3) 1.0347(3)
C23 C 0.8327(3) 0.5945(3) 0.9750(3)
C24 C 0.8166(3) 0.4967(3) 0.9401(3)
C25 C 0.7332(3) 0.4272(3) 0.9568(3)
H15 H 0.7655 0.3852 1.0082
C26 C 0.6815(3) 0.3621(3) 0.8802(3)
C27 C 0.6818(4) 0.2586(4) 0.8880(4)
H16 H 0.7145 0.2286 0.9419
C28 C 0.6334(5) 0.1993(4) 0.8156(5)
H17 H 0.6360 0.1298 0.8221
C29 C 0.5832(4) 0.2380(5) 0.7369(5)
C30 C 0.5312(7) 0.1735(6) 0.6585(6)
H18 H 0.5690 0.1108 0.6628
H19 H 0.5338 0.2076 0.6056
H20 H 0.4577 0.1610 0.6569
C31 C 0.5813(4) 0.3435(4) 0.7291(4)
H21 H 0.5467 0.3731 0.6756
C32 C 0.6305(4) 0.4038(4) 0.8002(3)
H22 H 0.6289 0.4733 0.7937
N1 N 0.9469(2) 0.5689(3) 0.8947(2)
O1 O 0.6859(4) 1.0497(3) 1.0107(3)
O2 O 1.0556(3) 0.7557(3) 0.9716(2)
O3 O 0.6478(2) 0.4881(2) 0.9738(2)
S1 S 0.91835(10) 0.39044(10) 0.82561(8)
loop_
_geom_bond_atom_site_label_1
_geom_bond_atom_site_label_2
_geom_bond_site_symmetry_1
_geom_bond_site_symmetry_2
Br1 C20 1_555 1_555
C1 C2 1_555 1_555
C2 H1 1_555 1_555
C3 C2 1_555 1_555
H2 C3 1_555 1_555
C4 C3 1_555 1_555
H3 C4 1_555 1_555
C5 C4 1_555 1_555
H4 C5 1_555 1_555
C6 C1 1_555 1_555
C7 C24 1_555 1_555
C8 C9 1_555 1_555
C9 C10 1_555 1_555
C10 C11 1_555 1_555
C11 H5 1_555 1_555
C12 C11 1_555 1_555
H6 C12 1_555 1_555
C13 C12 1_555 1_555
C14 H7 1_555 1_555
H8 C14 1_555 1_555
H9 C14 1_555 1_555
C15 C13 1_555 1_555
H10 C15 1_555 1_555
C16 C10 1_555 1_555
H11 C16 1_555 1_555
C17 C18 1_555 1_555
C18 H12 1_555 1_555
C19 C18 1_555 1_555
H13 C19 1_555 1_555
C20 C19 1_555 1_555
C21 C20 1_555 1_555
H14 C21 1_555 1_555
C22 C17 1_555 1_555
C23 C8 1_555 1_555
C24 C23 1_555 1_555
C25 C24 1_555 1_555
H15 C25 1_555 1_555
C26 C25 1_555 1_555
C27 C26 1_555 1_555
H16 C27 1_555 1_555
C28 C27 1_555 1_555
H17 C28 1_555 1_555
C29 C28 1_555 1_555
C30 C29 1_555 1_555
H18 C30 1_555 1_555
H19 C30 1_555 1_555
H20 C30 1_555 1_555
C31 C29 1_555 1_555
H21 C31 1_555 1_555
C32 C26 1_555 1_555
H22 C32 1_555 1_555
N1 C6 1_555 1_555
O1 C13 1_555 1_555
O2 C9 1_555 1_555
O3 C17 1_555 1_555
S1 C1 1_555 1_555
C5 C6 1_555 1_555
C7 N1 1_555 1_555
C7 S1 1_555 1_555
C8 N1 1_555 1_555
C14 O1 1_555 1_555
C15 C16 1_555 1_555
C21 C22 1_555 1_555
C22 C23 1_555 1_555
C25 O3 1_555 1_555
C31 C32 1_555 1_555

#END
