
#######################################################################
#
#                 Cambridge Crystallographic Data Centre
#                                CCDC 
#
#######################################################################
#
# If this CIF has been generated from an entry in the Cambridge 
# Structural Database, then it will include bibliographic, chemical, 
# crystal, experimental, refinement or atomic coordinate data resulting 
# from the CCDC's data processing and validation procedures.
#
#######################################################################

data_QAZSAN
_chemical_formula_moiety         'C28 H36 N3 1+,F6 P1 1-'
_chemical_name_systematic        
'N-(bis(methyl(1-phenylethyl)amino)methylene)-N-methyl-1-phenylethanaminium hexafluorophosphate'
_symmetry_cell_setting           monoclinic
_symmetry_space_group_name_H-M   'P 21'
_symmetry_Int_Tables_number      4
_space_group_name_Hall           'P 2yb'
loop_
_symmetry_equiv_pos_site_id
_symmetry_equiv_pos_as_xyz
1 x,y,z
2 -x,1/2+y,-z
_cell_length_a                   9.1245(14)
_cell_length_b                   14.596(3)
_cell_length_c                   11.0278(15)
_cell_angle_alpha                90
_cell_angle_beta                 102.355(11)
_cell_angle_gamma                90
_cell_volume                     1434.68
_exptl_crystal_colour            colorless
_exptl_crystal_description       prism
_cell_formula_units_Z            2
loop_
_atom_site_label
_atom_site_type_symbol
_atom_site_fract_x
_atom_site_fract_y
_atom_site_fract_z
N1 N 0.3524(4) 0.2600(2) 0.8126(3)
C1 C 0.2203(5) 0.2176(3) 0.7688(4)
C2 C 0.3755(5) 0.3113(3) 0.9289(5)
H1 H 0.2809 0.3198 0.9523
H2 H 0.4184 0.3700 0.9180
H3 H 0.4422 0.2779 0.9928
N2 N 0.1661(4) 0.2149(3) 0.6454(3)
N3 N 0.1423(3) 0.1812(2) 0.8465(3)
C3 C 0.0802(7) 0.1343(4) 0.5881(6)
H4 H 0.0873 0.0863 0.6486
H5 H 0.1205 0.1133 0.5195
H6 H -0.0231 0.1511 0.5591
C4 C -0.0234(5) 0.1799(4) 0.8154(5)
H7 H -0.0592 0.2233 0.7503
H8 H -0.0609 0.1959 0.8875
H9 H -0.0576 0.1197 0.7880
C5 C 0.4801(5) 0.2482(3) 0.7480(4)
H10 H 0.4384 0.2549 0.6589
C6 C 0.5982(6) 0.3225(4) 0.7837(7)
H11 H 0.5511 0.3816 0.7712
H12 H 0.6711 0.3173 0.7329
H13 H 0.6469 0.3157 0.8694
C7 C 0.5470(5) 0.1540(3) 0.7672(5)
C8 C 0.6120(5) 0.1213(3) 0.8850(5)
H14 H 0.6133 0.1579 0.9542
C9 C 0.6743(6) 0.0349(4) 0.8998(6)
H15 H 0.7173 0.0134 0.9788
C10 C 0.6727(7) -0.0186(5) 0.7992(8)
H16 H 0.7127 -0.0774 0.8093
C11 C 0.6133(8) 0.0132(5) 0.6842(8)
H17 H 0.6150 -0.0232 0.6154
C12 C 0.5500(6) 0.0994(5) 0.6683(6)
H18 H 0.5088 0.1203 0.5886
C13 C 0.1625(6) 0.2989(3) 0.5676(4)
H19 H 0.2451 0.3380 0.6098
C14 C 0.1913(8) 0.2786(5) 0.4395(5)
H20 H 0.2841 0.2458 0.4477
H21 H 0.1973 0.3352 0.3963
H22 H 0.1107 0.2422 0.3935
C15 C 0.0182(6) 0.3513(3) 0.5672(4)
C16 C -0.1159(6) 0.3314(4) 0.4855(5)
H23 H -0.1194 0.2850 0.4272
C17 C -0.2428(7) 0.3796(5) 0.4901(7)
H24 H -0.3313 0.3662 0.4335
C18 C -0.2427(9) 0.4468(5) 0.5755(8)
H25 H -0.3303 0.4783 0.5791
C19 C -0.1109(10) 0.4670(4) 0.6560(7)
H26 H -0.1081 0.5138 0.7136
C20 C 0.0177(8) 0.4189(4) 0.6528(5)
H27 H 0.1058 0.4326 0.7099
C21 C 0.2166(4) 0.1292(3) 0.9590(4)
H28 H 0.3249 0.1385 0.9696
C22 C 0.1720(6) 0.1639(3) 1.0778(5)
H29 H 0.1931 0.2282 1.0875
H30 H 0.2282 0.1313 1.1482
H31 H 0.0667 0.1537 1.0717
C23 C 0.1864(5) 0.0270(3) 0.9362(4)
C24 C 0.0795(6) -0.0205(4) 0.9803(5)
H32 H 0.0211 0.0100 1.0269
C25 C 0.0567(7) -0.1126(4) 0.9570(7)
H33 H -0.0158 -0.1438 0.9887
C26 C 0.1401(7) -0.1586(4) 0.8874(5)
H34 H 0.1225 -0.2205 0.8703
C27 C 0.2494(7) -0.1140(3) 0.8428(6)
H35 H 0.3084 -0.1455 0.7977
C28 C 0.2708(5) -0.0209(3) 0.8659(5)
H36 H 0.3431 0.0102 0.8338
P1 P 0.6150(2) 0.10542(11) 0.28195(17)
F1 F 0.4672(5) 0.1047(5) 0.3291(5)
F2 F 0.7034(11) 0.1393(10) 0.4034(8)
F3 F 0.5642(6) 0.1874(4) 0.1964(6)
F4 F 0.6488(7) 0.0183(4) 0.3616(7)
F5 F 0.7545(10) 0.0976(9) 0.2248(9)
F6 F 0.5098(8) 0.0608(5) 0.1653(5)
F7? F 0.6083(19) 0.1889(8) 0.3665(14)
F8? F 0.7742(11) 0.1462(11) 0.2971(19)
F9? F 0.6555(16) 0.0227(7) 0.2085(12)
loop_
_geom_bond_atom_site_label_1
_geom_bond_atom_site_label_2
_geom_bond_site_symmetry_1
_geom_bond_site_symmetry_2
N1 C1 1_555 1_555
C1 N2 1_555 1_555
C2 N1 1_555 1_555
H1 C2 1_555 1_555
H2 C2 1_555 1_555
H3 C2 1_555 1_555
N2 C3 1_555 1_555
N3 C1 1_555 1_555
C3 H4 1_555 1_555
H5 C3 1_555 1_555
H6 C3 1_555 1_555
C4 N3 1_555 1_555
H7 C4 1_555 1_555
H8 C4 1_555 1_555
H9 C4 1_555 1_555
C5 N1 1_555 1_555
H10 C5 1_555 1_555
C6 C5 1_555 1_555
H11 C6 1_555 1_555
H12 C6 1_555 1_555
H13 C6 1_555 1_555
C7 C5 1_555 1_555
C8 C7 1_555 1_555
H14 C8 1_555 1_555
C9 C8 1_555 1_555
H15 C9 1_555 1_555
C10 C9 1_555 1_555
H16 C10 1_555 1_555
C11 C10 1_555 1_555
H17 C11 1_555 1_555
C12 C7 1_555 1_555
H18 C12 1_555 1_555
C13 N2 1_555 1_555
H19 C13 1_555 1_555
C14 C13 1_555 1_555
H20 C14 1_555 1_555
H21 C14 1_555 1_555
H22 C14 1_555 1_555
C15 C13 1_555 1_555
C16 C15 1_555 1_555
H23 C16 1_555 1_555
C17 C16 1_555 1_555
H24 C17 1_555 1_555
C18 C17 1_555 1_555
H25 C18 1_555 1_555
C19 C18 1_555 1_555
H26 C19 1_555 1_555
C20 C15 1_555 1_555
H27 C20 1_555 1_555
C21 N3 1_555 1_555
H28 C21 1_555 1_555
C22 C21 1_555 1_555
H29 C22 1_555 1_555
H30 C22 1_555 1_555
H31 C22 1_555 1_555
C23 C21 1_555 1_555
C24 C23 1_555 1_555
H32 C24 1_555 1_555
C25 C24 1_555 1_555
H33 C25 1_555 1_555
C26 C25 1_555 1_555
H34 C26 1_555 1_555
C27 C26 1_555 1_555
H35 C27 1_555 1_555
C28 C23 1_555 1_555
H36 C28 1_555 1_555
P1 F1 1_555 1_555
F2 P1 1_555 1_555
F3 P1 1_555 1_555
F4 P1 1_555 1_555
F5 P1 1_555 1_555
F6 P1 1_555 1_555
C11 C12 1_555 1_555
C19 C20 1_555 1_555
C27 C28 1_555 1_555

#END
