
#######################################################################
#
#                 Cambridge Crystallographic Data Centre
#                                CCDC 
#
#######################################################################
#
# If this CIF has been generated from an entry in the Cambridge 
# Structural Database, then it will include bibliographic, chemical, 
# crystal, experimental, refinement or atomic coordinate data resulting 
# from the CCDC's data processing and validation procedures.
#
#######################################################################

data_QAZVOF
_chemical_formula_moiety         'C14 H16 N2'
_chemical_name_systematic        
N-(2,6-dimethylphenyl)-1-(1H-pyrrol-2-yl)ethanimine
_symmetry_cell_setting           monoclinic
_symmetry_space_group_name_H-M   'P 21/n'
_symmetry_Int_Tables_number      14
_space_group_name_Hall           '-P 2yn'
loop_
_symmetry_equiv_pos_site_id
_symmetry_equiv_pos_as_xyz
1 x,y,z
2 1/2-x,1/2+y,1/2-z
3 -x,-y,-z
4 1/2+x,1/2-y,1/2+z
_cell_length_a                   8.1368(11)
_cell_length_b                   7.2398(10)
_cell_length_c                   21.542(3)
_cell_angle_alpha                90
_cell_angle_beta                 96.989(2)
_cell_angle_gamma                90
_cell_volume                     1259.58
_cell_formula_units_Z            4
loop_
_atom_site_label
_atom_site_type_symbol
_atom_site_fract_x
_atom_site_fract_y
_atom_site_fract_z
N1 N 0.27708(14) 0.92318(17) 1.04138(5)
H1 H 0.3699 0.9777 1.0388
N2 N 0.38905(14) 0.86341(18) 0.92449(5)
C1 C 0.19556(19) 0.9226(2) 1.09245(7)
H2 H 0.2302 0.9806 1.1303
C2 C 0.0540(2) 0.8226(2) 1.07898(8)
H3 H -0.0247 0.7994 1.1059
C3 C 0.04893(18) 0.7612(2) 1.01727(7)
H4 H -0.0345 0.6905 0.9955
C4 C 0.18970(17) 0.8242(2) 0.99442(7)
C5 C 0.24950(17) 0.7945(2) 0.93442(7)
C6 C 0.1420(2) 0.6797(3) 0.88766(9)
H5 H 0.1917 0.6722 0.8495
H6 H 0.0346 0.7357 0.8794
H7 H 0.1310 0.5577 0.9042
C7 C 0.45704(17) 0.8212(2) 0.86812(6)
C8 C 0.5600(2) 0.6664(2) 0.86783(8)
C9 C 0.6372(2) 0.6325(3) 0.81507(9)
H8 H 0.7047 0.5292 0.8140
C10 C 0.6160(2) 0.7485(3) 0.76427(8)
H9 H 0.6690 0.7238 0.7293
C11 C 0.5165(2) 0.9007(3) 0.76546(8)
H10 H 0.5026 0.9787 0.7309
C12 C 0.43559(19) 0.9415(2) 0.81731(7)
C13 C 0.3295(3) 1.1115(4) 0.81862(11)
H11 H 0.2150 1.0777 0.8099
H12 H 0.3573 1.1975 0.7876
H13 H 0.3487 1.1676 0.8592
C14 C 0.5878(3) 0.5427(3) 0.92419(10)
H14 H 0.6144 0.6165 0.9611
H15 H 0.6776 0.4597 0.9197
H16 H 0.4890 0.4730 0.9278
loop_
_geom_bond_atom_site_label_1
_geom_bond_atom_site_label_2
_geom_bond_site_symmetry_1
_geom_bond_site_symmetry_2
N1 H1 1_555 1_555
N2 C5 1_555 1_555
C1 N1 1_555 1_555
H2 C1 1_555 1_555
C2 C1 1_555 1_555
H3 C2 1_555 1_555
C3 C2 1_555 1_555
H4 C3 1_555 1_555
C4 N1 1_555 1_555
C5 C4 1_555 1_555
C6 C5 1_555 1_555
H5 C6 1_555 1_555
H6 C6 1_555 1_555
H7 C6 1_555 1_555
C7 N2 1_555 1_555
C8 C7 1_555 1_555
C9 C8 1_555 1_555
H8 C9 1_555 1_555
C10 C9 1_555 1_555
H9 C10 1_555 1_555
C11 C10 1_555 1_555
H10 C11 1_555 1_555
C12 C7 1_555 1_555
C13 C12 1_555 1_555
H11 C13 1_555 1_555
H12 C13 1_555 1_555
H13 C13 1_555 1_555
C14 C8 1_555 1_555
H14 C14 1_555 1_555
H15 C14 1_555 1_555
H16 C14 1_555 1_555
C3 C4 1_555 1_555
C11 C12 1_555 1_555

#END
