
#######################################################################
#
#                 Cambridge Crystallographic Data Centre
#                                CCDC 
#
#######################################################################
#
# If this CIF has been generated from an entry in the Cambridge 
# Structural Database, then it will include bibliographic, chemical, 
# crystal, experimental, refinement or atomic coordinate data resulting 
# from the CCDC's data processing and validation procedures.
#
#######################################################################

data_QEBCOS
_chemical_formula_moiety         'C28 H39 Cl1 N4 O5 S1,C1 H1 Cl3'
_chemical_name_systematic        
'3-hydroxy-2,4,7,14-tetramethyl-9-oxo-4-vinyltricyclo[5.4.3.0^1,8^]tetradecan-6-yl ((4-amino-6-((chloroacetyl)amino)pyrimidin-2-yl)sulfanyl)acetate chloroform solvate'
_symmetry_cell_setting           orthorhombic
_symmetry_space_group_name_H-M   'P 21 21 21'
_symmetry_Int_Tables_number      19
_space_group_name_Hall           'P 2ac 2ab'
loop_
_symmetry_equiv_pos_site_id
_symmetry_equiv_pos_as_xyz
1 x,y,z
2 1/2+x,1/2-y,-z
3 -x,1/2+y,1/2-z
4 1/2-x,-y,1/2+z
_cell_length_a                   11.5388(8)
_cell_length_b                   14.5282(10)
_cell_length_c                   19.8301(14)
_cell_angle_alpha                90
_cell_angle_beta                 90
_cell_angle_gamma                90
_cell_volume                     3324.28
_exptl_crystal_colour            colorless
_exptl_crystal_description       block
_cell_formula_units_Z            4
loop_
_atom_site_label
_atom_site_type_symbol
_atom_site_fract_x
_atom_site_fract_y
_atom_site_fract_z
S1 S 0.42000(6) 0.36892(5) 0.15322(4)
Cl1 Cl 1.05639(7) 0.63464(7) 0.01006(6)
C1 C 0.2105(3) 0.7855(2) 0.45365(15)
H1 H 0.2326 0.8430 0.4323
H2 H 0.1418 0.7960 0.4807
C2 C 0.3083(4) 0.7494(2) 0.49700(17)
H3 H 0.3671 0.7964 0.5032
H4 H 0.2795 0.7309 0.5409
C3 C 0.3579(3) 0.6678(2) 0.45990(16)
C4 C 0.3084(2) 0.66686(17) 0.38839(12)
H5 H 0.3532 0.7123 0.3628
C5 C 0.3151(2) 0.57616(17) 0.34743(13)
C6 C 0.2346(3) 0.50524(18) 0.38356(14)
H6 H 0.2662 0.4976 0.4291
C7 C 0.1126(3) 0.5432(2) 0.39269(15)
H7 H 0.0664 0.4986 0.4172
H8 H 0.0774 0.5518 0.3487
C8 C 0.1108(3) 0.6349(2) 0.43081(15)
H9 H 0.1363 0.6243 0.4768
H10 H 0.0315 0.6570 0.4327
C9 C 0.1869(2) 0.71020(18) 0.39946(13)
C10 C 0.1320(2) 0.75337(17) 0.33582(13)
H11 H 0.1113 0.7022 0.3060
C11 C 0.2206(2) 0.81371(17) 0.29646(13)
H12 H 0.2896 0.8186 0.3251
C12 C 0.2619(2) 0.77089(18) 0.22849(13)
C13 C 0.3302(2) 0.67984(18) 0.23848(14)
H13 H 0.3551 0.6596 0.1942
H14 H 0.3999 0.6950 0.2635
C14 C 0.2742(2) 0.59579(16) 0.27376(12)
H15 H 0.1898 0.6027 0.2732
C15 C 0.4413(3) 0.5419(2) 0.34604(17)
H16 H 0.4916 0.5917 0.3336
H17 H 0.4485 0.4930 0.3137
H18 H 0.4624 0.5196 0.3899
C16 C 0.2303(4) 0.4084(2) 0.35269(18)
H19 H 0.1969 0.3664 0.3846
H20 H 0.3074 0.3888 0.3417
H21 H 0.1838 0.4095 0.3125
C17 C 0.0194(2) 0.8045(2) 0.35158(17)
H22 H -0.0320 0.7645 0.3759
H23 H -0.0168 0.8234 0.3102
H24 H 0.0362 0.8577 0.3785
C18 C 0.3491(3) 0.8378(2) 0.19557(17)
H25 H 0.3773 0.8116 0.1542
H26 H 0.4129 0.8480 0.2257
H27 H 0.3113 0.8953 0.1862
C19 C 0.1576(3) 0.7560(2) 0.18330(14)
H28 H 0.1221 0.6986 0.1860
C20 C 0.1124(4) 0.8141(3) 0.1413(2)
H29 H 0.1444 0.8725 0.1365
H30 H 0.0480 0.7974 0.1159
C21 C 0.2301(2) 0.48297(19) 0.19001(13)
C22 C 0.2691(2) 0.39757(18) 0.15247(15)
H31 H 0.2454 0.4042 0.1058
H32 H 0.2268 0.3456 0.1708
C23 C 0.4787(2) 0.46593(17) 0.11228(13)
C24 C 0.6395(2) 0.54104(18) 0.08045(14)
C25 C 0.5747(2) 0.61022(19) 0.05216(14)
H33 H 0.6087 0.6603 0.0307
C26 C 0.4540(2) 0.60083(19) 0.05753(13)
C27 C 0.8365(3) 0.5945(2) 0.04823(16)
C28 C 0.9612(3) 0.5619(2) 0.05411(18)
H34 H 0.9673 0.4999 0.0362
H35 H 0.9833 0.5601 0.1013
N1 N 0.40548(19) 0.52728(16) 0.08740(11)
N2 N 0.5934(2) 0.46756(15) 0.11178(12)
N3 N 0.7608(2) 0.53880(16) 0.08134(14)
H36 H 0.7914 0.4967 0.1060
O1 O 0.4240(3) 0.61451(18) 0.48536(13)
O2 O 0.1785(2) 0.90627(12) 0.28689(11)
H37 H 0.1381 0.9083 0.2529
O3 O 0.13659(18) 0.51586(16) 0.18041(12)
O4 O 0.30665(14) 0.51420(12) 0.23413(8)
N4 N 0.3801(2) 0.6638(2) 0.03349(15)
H38 H 0.3066 0.6557 0.0377
H39 H 0.4060 0.7124 0.0138
O5 O 0.8068(2) 0.66200(18) 0.01729(15)
Cl2 Cl 0.09987(9) 0.12350(14) 0.26574(7)
Cl3 Cl 0.24152(11) 0.10720(10) 0.14951(6)
Cl4 Cl 0.33627(12) 0.18502(8) 0.27066(7)
C29 C 0.2389(3) 0.1057(2) 0.23779(19)
H40 H 0.2631 0.0443 0.2526
loop_
_geom_bond_atom_site_label_1
_geom_bond_atom_site_label_2
_geom_bond_site_symmetry_1
_geom_bond_site_symmetry_2
S1 C22 1_555 1_555
Cl1 C28 1_555 1_555
C1 H1 1_555 1_555
H2 C1 1_555 1_555
C2 C1 1_555 1_555
H3 C2 1_555 1_555
H4 C2 1_555 1_555
C3 C2 1_555 1_555
C4 C3 1_555 1_555
H5 C4 1_555 1_555
C5 C4 1_555 1_555
C6 C5 1_555 1_555
H6 C6 1_555 1_555
C7 C6 1_555 1_555
H7 C7 1_555 1_555
H8 C7 1_555 1_555
C8 C7 1_555 1_555
H9 C8 1_555 1_555
H10 C8 1_555 1_555
C9 C1 1_555 1_555
C10 C9 1_555 1_555
H11 C10 1_555 1_555
C11 C10 1_555 1_555
H12 C11 1_555 1_555
C12 C11 1_555 1_555
C13 C12 1_555 1_555
H13 C13 1_555 1_555
H14 C13 1_555 1_555
C14 C5 1_555 1_555
H15 C14 1_555 1_555
C15 C5 1_555 1_555
H16 C15 1_555 1_555
H17 C15 1_555 1_555
H18 C15 1_555 1_555
C16 C6 1_555 1_555
H19 C16 1_555 1_555
H20 C16 1_555 1_555
H21 C16 1_555 1_555
C17 C10 1_555 1_555
H22 C17 1_555 1_555
H23 C17 1_555 1_555
H24 C17 1_555 1_555
C18 C12 1_555 1_555
H25 C18 1_555 1_555
H26 C18 1_555 1_555
H27 C18 1_555 1_555
C19 C12 1_555 1_555
H28 C19 1_555 1_555
C20 C19 1_555 1_555
H29 C20 1_555 1_555
H30 C20 1_555 1_555
C21 C22 1_555 1_555
C22 H31 1_555 1_555
H32 C22 1_555 1_555
C23 S1 1_555 1_555
C24 C25 1_555 1_555
C25 H33 1_555 1_555
C26 C25 1_555 1_555
C27 C28 1_555 1_555
C28 H34 1_555 1_555
H35 C28 1_555 1_555
N1 C23 1_555 1_555
N2 C23 1_555 1_555
N3 C24 1_555 1_555
H36 N3 1_555 1_555
O1 C3 1_555 1_555
O2 C11 1_555 1_555
H37 O2 1_555 1_555
O3 C21 1_555 1_555
O4 C14 1_555 1_555
N4 C26 1_555 1_555
H38 N4 1_555 1_555
H39 N4 1_555 1_555
O5 C27 1_555 1_555
Cl2 C29 1_555 1_555
Cl3 C29 1_555 1_555
Cl4 C29 1_555 1_555
C29 H40 1_555 1_555
C4 C9 1_555 1_555
C8 C9 1_555 1_555
C13 C14 1_555 1_555
C21 O4 1_555 1_555
C24 N2 1_555 1_555
C26 N1 1_555 1_555
C27 N3 1_555 1_555

#END
