
#######################################################################
#
#                 Cambridge Crystallographic Data Centre
#                                CCDC 
#
#######################################################################
#
# If this CIF has been generated from an entry in the Cambridge 
# Structural Database, then it will include bibliographic, chemical, 
# crystal, experimental, refinement or atomic coordinate data resulting 
# from the CCDC's data processing and validation procedures.
#
#######################################################################

data_QEBKAM
_chemical_formula_moiety         'C27 H30 F1 N1 O4,0.5(C1 H4 O1),0.5(H2 O1)'
_chemical_name_systematic        
"5-(3-fluorophenyl)-2-((E)-2-((1S,2S,4aS,5R,6R,8aR)-5-formyl-6-hydroxy-5,8a-dimethyloctahydro-1H-spiro[naphthalene-2,2'-oxiran]-1-yl)vinyl)pyridine methanol solvate hemihydrate"
_symmetry_cell_setting           monoclinic
_symmetry_space_group_name_H-M   'P 21'
_symmetry_Int_Tables_number      4
_space_group_name_Hall           'P 2yb'
loop_
_symmetry_equiv_pos_site_id
_symmetry_equiv_pos_as_xyz
1 x,y,z
2 -x,1/2+y,-z
_cell_length_a                   7.8313(2)
_cell_length_b                   25.2909(8)
_cell_length_c                   13.3532(4)
_cell_angle_alpha                90
_cell_angle_beta                 105.365(2)
_cell_angle_gamma                90
_cell_volume                     2550.21
_exptl_crystal_colour            colorless
_exptl_crystal_description       'rectangular plate'
_cell_formula_units_Z            4
loop_
_atom_site_label
_atom_site_type_symbol
_atom_site_fract_x
_atom_site_fract_y
_atom_site_fract_z
O1 O 0.5061(5) 0.66648(17) 0.3757(3)
O2 O 0.4377(5) 0.45402(15) 0.5085(3)
O3 O -0.4869(6) 0.60696(17) 0.0540(4)
H1 H -0.519(7) 0.627(4) 0.062(6)
N1 N 0.4114(6) 0.48138(17) 0.5869(3)
O4 O -0.2556(8) 0.6894(2) -0.0701(4)
C1 C -0.0193(7) 0.6513(2) 0.1722(4)
H2 H 0.0314 0.6223 0.1408
C2 C -0.1017(8) 0.5842(2) 0.2906(4)
H3 H -0.0957 0.5757 0.3622
H4 H -0.0496 0.5551 0.2616
C3 C 0.0055(7) 0.6351(2) 0.2870(4)
C4 C 0.4519(8) 0.4567(3) 0.8685(5)
C5 C 0.2506(7) 0.6009(2) 0.4397(4)
H5 H 0.2263 0.6220 0.4911
C6 C 0.4215(7) 0.4843(2) 0.7674(4)
C7 C 0.4398(7) 0.4576(2) 0.6819(4)
H6 H 0.4725 0.4221 0.6884
C8 C 0.2062(7) 0.6225(2) 0.3314(4)
H7 H 0.2345 0.5946 0.2874
C9 C 0.3184(7) 0.6703(2) 0.3205(4)
C10 C -0.0505(7) 0.6783(2) 0.3537(5)
H8 H 0.0138 0.7103 0.3500
H9 H -0.0248 0.6667 0.4246
H10 H -0.1752 0.6849 0.3280
C11 C 0.3959(8) 0.7054(3) 0.4073(5)
H11 H 0.4129 0.7422 0.3917
H12 H 0.3650 0.6995 0.4721
C12 C 0.3219(8) 0.5538(2) 0.4677(4)
H13 H 0.3512 0.5330 0.4173
C13 C -0.2146(7) 0.6563(2) 0.1059(4)
C14 C 0.0913(7) 0.7003(2) 0.1628(5)
H14 H 0.0723 0.7094 0.0901
H15 H 0.0536 0.7300 0.1976
C15 C 0.3570(7) 0.5327(2) 0.5727(5)
C16 C -0.2052(8) 0.6552(3) -0.0069(5)
H16 H -0.1558 0.6253 -0.0285
C17 C 0.3748(9) 0.5378(3) 0.7563(5)
H17 H 0.3663 0.5574 0.8136
C18 C 0.5144(9) 0.4052(3) 1.0615(5)
H18 H 0.5374 0.3875 1.1248
C19 C -0.3093(8) 0.6039(2) 0.1175(5)
H19 H -0.2498 0.5755 0.0898
C20 C -0.2978(8) 0.5906(2) 0.2289(5)
H20 H -0.3615 0.5580 0.2321
H21 H -0.3522 0.6186 0.2595
C21 C 0.5325(10) 0.4825(3) 0.9608(5)
H22 H 0.5659 0.5177 0.9587
C22 C 0.2870(7) 0.6898(2) 0.2108(5)
H23 H 0.3287 0.6636 0.1698
H24 H 0.3536 0.7221 0.2102
C23 C -0.3131(7) 0.7048(2) 0.1253(5)
H25 H -0.2457 0.7358 0.1194
H26 H -0.3303 0.7031 0.1938
H27 H -0.4262 0.7064 0.0749
C24 C 0.3416(10) 0.5612(3) 0.6599(5)
H28 H 0.3083 0.5966 0.6525
C25 C 0.5639(11) 0.4573(3) 1.0553(5)
H29 H 0.6192 0.4755 1.1156
F1 F 0.3748(18) 0.3334(4) 0.9791(6)
C26 C 0.3970(11) 0.4044(3) 0.8753(6)
H30 H 0.3389 0.3860 0.8157
C27 C 0.4299(12) 0.3807(3) 0.9703(7)
O5 O 1.4410(6) 0.33278(17) 0.2489(3)
O6 O 1.2720(6) 0.54944(16) 0.1150(3)
O7 O 0.7423(6) 0.40113(15) 0.5692(3)
H31 H 0.6534 0.4183 0.5417
O8 O 1.0667(6) 0.32057(18) 0.6981(4)
N2 N 1.1621(6) 0.52388(17) 0.0392(3)
F2 F 0.8324(9) 0.68438(17) -0.3388(4)
C28 C 1.1716(7) 0.4517(2) 0.1601(4)
H32 H 1.2403 0.4732 0.2118
C29 C 0.9182(8) 0.4215(2) 0.3334(4)
H33 H 0.9987 0.4501 0.3624
H34 H 0.8607 0.4302 0.2617
C30 C 0.9675(7) 0.3508(2) 0.5183(4)
C31 C 0.9872(7) 0.5238(2) -0.1391(4)
C32 C 1.1031(7) 0.3537(2) 0.4533(4)
H35 H 1.1856 0.3820 0.4845
C33 C 1.1083(7) 0.4737(2) 0.0562(4)
C34 C 1.0260(7) 0.36973(19) 0.3367(4)
C35 C 1.3031(7) 0.3317(2) 0.3034(4)
C36 C 0.8441(7) 0.3027(2) 0.4989(4)
H36 H 0.7536 0.3075 0.4351
H37 H 0.7901 0.2990 0.5552
H38 H 0.9111 0.2714 0.4941
C37 C 0.9226(7) 0.5521(2) -0.2385(4)
C38 C 1.2156(7) 0.3034(2) 0.4634(4)
H39 H 1.2623 0.2945 0.5363
H40 H 1.1423 0.2742 0.4296
C39 C 1.1885(7) 0.3809(2) 0.2929(4)
H41 H 1.2599 0.4080 0.3376
C40 C 0.8621(8) 0.5241(2) -0.3314(5)
H42 H 0.8681 0.4874 -0.3304
C41 C 1.1040(7) 0.5484(2) -0.0557(4)
H43 H 1.1440 0.5823 -0.0641
C42 C 1.0759(8) 0.3502(2) 0.6321(5)
H44 H 1.1603 0.3768 0.6514
C43 C 1.1375(7) 0.4030(2) 0.1857(4)
H45 H 1.0769 0.3809 0.1325
C44 C 1.3686(7) 0.3115(2) 0.4138(5)
H46 H 1.4520 0.3366 0.4547
H47 H 1.4302 0.2782 0.4137
C45 C 0.9342(9) 0.4720(3) -0.1244(5)
H48 H 0.8594 0.4538 -0.1792
C46 C 0.9925(9) 0.4485(2) -0.0296(5)
H49 H 0.9543 0.4144 -0.0211
C47 C 0.7941(8) 0.5496(3) -0.4241(5)
H50 H 0.7550 0.5298 -0.4846
C48 C 0.9108(10) 0.6068(3) -0.2429(5)
H51 H 0.9492 0.6268 -0.1826
C49 C 0.7827(8) 0.6042(3) -0.4293(5)
H52 H 0.7374 0.6217 -0.4920
C50 C 0.8418(10) 0.6315(2) -0.3371(5)
C51 C 0.9071(8) 0.3273(2) 0.2710(4)
H53 H 0.8847 0.3361 0.1988
H54 H 0.7970 0.3256 0.2897
H55 H 0.9654 0.2936 0.2835
C52 C 0.8632(8) 0.4038(2) 0.5068(5)
H56 H 0.9485 0.4319 0.5352
C53 C 0.7775(7) 0.4170(2) 0.3939(5)
H57 H 0.7139 0.4502 0.3896
H58 H 0.6931 0.3896 0.3632
C54 C 1.2951(8) 0.2949(2) 0.2173(5)
H59 H 1.3207 0.2579 0.2341
H60 H 1.2065 0.3012 0.1523
O9 O 0.6044(9) 0.3362(2) 0.7002(5)
H61 H 0.670(9) 0.351(5) 0.653(6)
C55 C 0.7144(16) 0.3351(4) 0.8013(8)
H62 H 0.8289 0.3219 0.8004
H63 H 0.6636 0.3124 0.8435
H64 H 0.7263 0.3702 0.8296
O10 O -0.7287(12) 0.6622(3) -0.0935(9)
H65 H -0.6704 0.6477 -0.0374
H66 H -0.7500 0.6396 -0.1422
loop_
_geom_bond_atom_site_label_1
_geom_bond_atom_site_label_2
_geom_bond_site_symmetry_1
_geom_bond_site_symmetry_2
O1 C9 1_555 1_555
O2 N1 1_555 1_555
O3 H1 1_555 1_555
N1 C7 1_555 1_555
O4 C16 1_555 1_555
C1 H2 1_555 1_555
C2 H3 1_555 1_555
H4 C2 1_555 1_555
C3 C1 1_555 1_555
C4 C6 1_555 1_555
C5 H5 1_555 1_555
C6 C7 1_555 1_555
C7 H6 1_555 1_555
C8 C3 1_555 1_555
H7 C8 1_555 1_555
C9 C8 1_555 1_555
C10 C3 1_555 1_555
H8 C10 1_555 1_555
H9 C10 1_555 1_555
H10 C10 1_555 1_555
C11 O1 1_555 1_555
H11 C11 1_555 1_555
H12 C11 1_555 1_555
C12 C5 1_555 1_555
H13 C12 1_555 1_555
C13 C1 1_555 1_555
C14 C1 1_555 1_555
H14 C14 1_555 1_555
H15 C14 1_555 1_555
C15 N1 1_555 1_555
C16 C13 1_555 1_555
H16 C16 1_555 1_555
C17 C6 1_555 1_555
H17 C17 1_555 1_555
C18 H18 1_555 1_555
C19 O3 1_555 1_555
H19 C19 1_555 1_555
C20 C2 1_555 1_555
H20 C20 1_555 1_555
H21 C20 1_555 1_555
C21 C4 1_555 1_555
H22 C21 1_555 1_555
C22 C9 1_555 1_555
H23 C22 1_555 1_555
H24 C22 1_555 1_555
C23 C13 1_555 1_555
H25 C23 1_555 1_555
H26 C23 1_555 1_555
H27 C23 1_555 1_555
C24 C15 1_555 1_555
H28 C24 1_555 1_555
C25 C18 1_555 1_555
H29 C25 1_555 1_555
F1 C27 1_555 1_555
C26 C4 1_555 1_555
H30 C26 1_555 1_555
C27 C18 1_555 1_555
O5 C35 1_555 1_555
O6 N2 1_555 1_555
O7 H31 1_555 1_555
O8 C42 1_555 1_555
N2 C33 1_555 1_555
F2 C50 1_555 1_555
C28 H32 1_555 1_555
C29 H33 1_555 1_555
H34 C29 1_555 1_555
C30 C32 1_555 1_555
C31 C37 1_555 1_555
C32 H35 1_555 1_555
C33 C28 1_555 1_555
C34 C29 1_555 1_555
C35 C39 1_555 1_555
C36 C30 1_555 1_555
H36 C36 1_555 1_555
H37 C36 1_555 1_555
H38 C36 1_555 1_555
C37 C40 1_555 1_555
C38 C32 1_555 1_555
H39 C38 1_555 1_555
H40 C38 1_555 1_555
C39 C34 1_555 1_555
H41 C39 1_555 1_555
C40 H42 1_555 1_555
C41 N2 1_555 1_555
H43 C41 1_555 1_555
C42 C30 1_555 1_555
H44 C42 1_555 1_555
C43 C28 1_555 1_555
H45 C43 1_555 1_555
C44 C35 1_555 1_555
H46 C44 1_555 1_555
H47 C44 1_555 1_555
C45 C31 1_555 1_555
H48 C45 1_555 1_555
C46 C33 1_555 1_555
H49 C46 1_555 1_555
C47 C40 1_555 1_555
H50 C47 1_555 1_555
C48 C37 1_555 1_555
H51 C48 1_555 1_555
C49 C47 1_555 1_555
H52 C49 1_555 1_555
C50 C48 1_555 1_555
C51 C34 1_555 1_555
H53 C51 1_555 1_555
H54 C51 1_555 1_555
H55 C51 1_555 1_555
C52 O7 1_555 1_555
H56 C52 1_555 1_555
C53 C29 1_555 1_555
H57 C53 1_555 1_555
H58 C53 1_555 1_555
C54 O5 1_555 1_555
H59 C54 1_555 1_555
H60 C54 1_555 1_555
O9 H61 1_555 1_555
C55 O9 1_555 1_555
H62 C55 1_555 1_555
H63 C55 1_555 1_555
H64 C55 1_555 1_555
O10 H65 1_555 1_555
H66 O10 1_555 1_555
C2 C3 1_555 1_555
C5 C8 1_555 1_555
C9 C11 1_555 1_555
C12 C15 1_555 1_555
C13 C19 1_555 1_555
C14 C22 1_555 1_555
C17 C24 1_555 1_555
C19 C20 1_555 1_555
C21 C25 1_555 1_555
C26 C27 1_555 1_555
C30 C52 1_555 1_555
C31 C41 1_555 1_555
C32 C34 1_555 1_555
C35 C54 1_555 1_555
C38 C44 1_555 1_555
C39 C43 1_555 1_555
C45 C46 1_555 1_555
C49 C50 1_555 1_555
C52 C53 1_555 1_555

#END
