
#######################################################################
#
#                 Cambridge Crystallographic Data Centre
#                                CCDC 
#
#######################################################################
#
# If this CIF has been generated from an entry in the Cambridge 
# Structural Database, then it will include bibliographic, chemical, 
# crystal, experimental, refinement or atomic coordinate data resulting 
# from the CCDC's data processing and validation procedures.
#
#######################################################################

data_QEBLIV
_chemical_formula_moiety         'C16 H15 N1 O4'
_chemical_name_systematic        
'ethyl 4-cyano-6-methyl-2-oxo-4-phenyl-3,4-dihydro-2H-pyran-5-carboxylate'
_symmetry_cell_setting           orthorhombic
_symmetry_space_group_name_H-M   'P 21 21 21'
_symmetry_Int_Tables_number      19
_space_group_name_Hall           'P 2ac 2ab'
loop_
_symmetry_equiv_pos_site_id
_symmetry_equiv_pos_as_xyz
1 x,y,z
2 1/2-x,-y,1/2+z
3 -x,1/2+y,1/2-z
4 1/2+x,1/2-y,-z
_cell_length_a                   7.9730(3)
_cell_length_b                   12.9128(5)
_cell_length_c                   14.3781(8)
_cell_angle_alpha                90
_cell_angle_beta                 90
_cell_angle_gamma                90
_cell_volume                     1480.28
_exptl_crystal_colour            colorless
_exptl_crystal_description       block
_cell_formula_units_Z            4
_chemical_properties_physical    ', Moisture-sensitive'
loop_
_atom_site_label
_atom_site_type_symbol
_atom_site_fract_x
_atom_site_fract_y
_atom_site_fract_z
N1 N 1.0970(4) -0.08275(17) 0.74136(19)
O1 O 0.9700(2) 0.20614(15) 0.62117(11)
O2 O 1.2435(2) 0.2068(2) 0.61096(14)
O3 O 0.5374(2) 0.12542(17) 0.78649(15)
O4 O 0.7038(2) -0.00186(13) 0.83760(15)
C1 C 1.1256(3) 0.19693(18) 0.66061(18)
C2 C 1.1290(3) 0.17984(17) 0.76240(16)
H1 H 1.1095 0.2454 0.7936
H2 H 1.2397 0.1558 0.7801
C3 C 0.9972(3) 0.10054(16) 0.79629(15)
C4 C 0.8301(3) 0.12579(15) 0.74942(15)
C5 C 0.8258(3) 0.17817(17) 0.66960(17)
C6 C 0.6771(4) 0.2131(2) 0.6150(2)
H3 H 0.5763 0.1933 0.6469
H4 H 0.6792 0.1813 0.5546
H5 H 0.6801 0.2870 0.6083
C7 C 0.9882(3) 0.10840(17) 0.90334(16)
C8 C 0.9126(4) 0.19456(19) 0.94200(18)
H6 H 0.8639 0.2443 0.9038
C9 C 0.9095(5) 0.2068(3) 1.0373(2)
H7 H 0.8577 0.2646 1.0630
C10 C 0.9815(5) 0.1349(3) 1.0946(2)
H8 H 0.9800 0.1442 1.1588
C11 C 1.0564(5) 0.0488(3) 1.0566(2)
H9 H 1.1045 -0.0006 1.0955
C12 C 1.0610(3) 0.0347(2) 0.96092(19)
H10 H 1.1123 -0.0236 0.9356
C13 C 1.0517(3) -0.00428(19) 0.76677(16)
C14 C 0.6732(3) 0.08614(18) 0.79175(18)
C15 C 0.5665(4) -0.0446(2) 0.8935(3)
H11 H 0.5850 -0.1181 0.9026
H12 H 0.4617 -0.0361 0.8601
C16 C 0.5536(5) 0.0068(3) 0.9848(3)
H13 H 0.5348 0.0795 0.9760
H14 H 0.6558 -0.0034 1.0189
H15 H 0.4616 -0.0224 1.0190
loop_
_geom_bond_atom_site_label_1
_geom_bond_atom_site_label_2
_geom_bond_site_symmetry_1
_geom_bond_site_symmetry_2
N1 C13 1_555 1_555
O1 C1 1_555 1_555
O2 C1 1_555 1_555
O3 C14 1_555 1_555
O4 C14 1_555 1_555
C1 C2 1_555 1_555
C2 H1 1_555 1_555
H2 C2 1_555 1_555
C3 C2 1_555 1_555
C4 C3 1_555 1_555
C5 O1 1_555 1_555
C6 C5 1_555 1_555
H3 C6 1_555 1_555
H4 C6 1_555 1_555
H5 C6 1_555 1_555
C7 C3 1_555 1_555
C8 C7 1_555 1_555
H6 C8 1_555 1_555
C9 C8 1_555 1_555
H7 C9 1_555 1_555
C10 C9 1_555 1_555
H8 C10 1_555 1_555
C11 C10 1_555 1_555
H9 C11 1_555 1_555
C12 C7 1_555 1_555
H10 C12 1_555 1_555
C13 C3 1_555 1_555
C14 C4 1_555 1_555
C15 O4 1_555 1_555
H11 C15 1_555 1_555
H12 C15 1_555 1_555
C16 C15 1_555 1_555
H13 C16 1_555 1_555
H14 C16 1_555 1_555
H15 C16 1_555 1_555
C4 C5 1_555 1_555
C11 C12 1_555 1_555

#END
