
#######################################################################
#
#                 Cambridge Crystallographic Data Centre
#                                CCDC 
#
#######################################################################
#
# If this CIF has been generated from an entry in the Cambridge 
# Structural Database, then it will include bibliographic, chemical, 
# crystal, experimental, refinement or atomic coordinate data resulting 
# from the CCDC's data processing and validation procedures.
#
#######################################################################

data_QECHUD
_chemical_formula_moiety         'C24 H16 N2 O6'
_chemical_name_systematic        
"Dimethyl 3,3'-((4,5-dicyano-1,2-phenylene)bis(oxy))dibenzoate"
_symmetry_cell_setting           triclinic
_symmetry_space_group_name_H-M   'P -1'
_symmetry_Int_Tables_number      2
_space_group_name_Hall           '-P 1'
loop_
_symmetry_equiv_pos_site_id
_symmetry_equiv_pos_as_xyz
1 x,y,z
2 -x,-y,-z
_cell_length_a                   10.1092(11)
_cell_length_b                   10.3408(11)
_cell_length_c                   10.8190(14)
_cell_angle_alpha                82.284(10)
_cell_angle_beta                 85.991(10)
_cell_angle_gamma                64.721(11)
_cell_volume                     1013.32
_exptl_crystal_colour            colorless
_exptl_crystal_description       block
_cell_formula_units_Z            2
loop_
_atom_site_label
_atom_site_type_symbol
_atom_site_fract_x
_atom_site_fract_y
_atom_site_fract_z
O1 O 0.36679(12) 0.87260(13) 0.45190(11)
O2 O 0.53609(14) 0.59249(13) 0.39290(10)
O3 O 0.2830(2) 0.7221(2) -0.11360(13)
O4 O 0.26548(15) 0.56809(16) 0.04354(12)
O5 O -0.01163(14) 0.88074(16) 0.18060(12)
O6 O -0.19904(13) 0.89259(17) 0.30884(15)
N1 N 1.0057(2) 0.4624(2) 0.7376(2)
N2 N 0.7608(2) 0.8509(2) 0.83423(15)
C1 C 0.75592(17) 0.61523(18) 0.63383(14)
C2 C 0.66927(17) 0.75363(18) 0.66704(13)
C3 C 0.53669(17) 0.83798(18) 0.60837(14)
H1 H 0.4778 0.9289 0.6315
C4 C 0.49313(17) 0.78577(18) 0.51556(14)
C5 C 0.57990(18) 0.64856(18) 0.48157(14)
C6 C 0.71024(19) 0.56367(18) 0.54090(15)
H2 H 0.7675 0.4720 0.5187
C7 C 0.51505(17) 0.66227(18) 0.27123(14)
C8 C 0.57881(19) 0.7533(2) 0.22567(16)
H3 H 0.6374 0.7728 0.2761
C9 C 0.5536(2) 0.8156(2) 0.10261(17)
H4 H 0.5948 0.8783 0.0706
C10 C 0.4682(2) 0.7854(2) 0.02736(16)
H5 H 0.4523 0.8275 -0.0550
C11 C 0.40625(18) 0.69222(19) 0.07461(15)
C12 C 0.43022(18) 0.62997(18) 0.19734(15)
H6 H 0.3894 0.5669 0.2296
C13 C 0.24755(16) 0.83783(17) 0.47464(14)
C14 C 0.21672(18) 0.78724(18) 0.59275(15)
H7 H 0.2801 0.7667 0.6583
C15 C 0.0898(2) 0.7680(2) 0.61111(17)
H8 H 0.0671 0.7339 0.6899
C16 C -0.00390(19) 0.7989(2) 0.51367(18)
H9 H -0.0905 0.7879 0.5277
C17 C 0.02986(17) 0.84627(18) 0.39509(16)
C18 C 0.15724(17) 0.86604(17) 0.37489(15)
H10 H 0.1815 0.8977 0.2957
C19 C 0.71881(18) 0.8084(2) 0.76095(15)
C20 C 0.8951(2) 0.5287(2) 0.69212(18)
C21 C -0.07390(18) 0.87628(19) 0.29280(18)
C22 C 0.3129(2) 0.6638(2) -0.00915(16)
C23 C 0.1746(2) 0.5351(3) -0.0331(2)
H11 H 0.0814 0.6165 -0.0446
H12 H 0.1605 0.4533 0.0073
H13 H 0.2215 0.5137 -0.1128
C24 C -0.1000(3) 0.8966(3) 0.0748(2)
H14 H -0.1324 0.8210 0.0842
H15 H -0.0428 0.8913 -0.0006
H16 H -0.1834 0.9882 0.0706
loop_
_geom_bond_atom_site_label_1
_geom_bond_atom_site_label_2
_geom_bond_site_symmetry_1
_geom_bond_site_symmetry_2
O1 C4 1_555 1_555
O2 C5 1_555 1_555
O3 C22 1_555 1_555
O4 C22 1_555 1_555
O5 C21 1_555 1_555
O6 C21 1_555 1_555
N1 C20 1_555 1_555
N2 C19 1_555 1_555
C1 C2 1_555 1_555
C2 C3 1_555 1_555
C3 H1 1_555 1_555
C4 C3 1_555 1_555
C5 C4 1_555 1_555
C6 C1 1_555 1_555
H2 C6 1_555 1_555
C7 O2 1_555 1_555
C8 C7 1_555 1_555
H3 C8 1_555 1_555
C9 C8 1_555 1_555
H4 C9 1_555 1_555
C10 C9 1_555 1_555
H5 C10 1_555 1_555
C11 C10 1_555 1_555
C12 C7 1_555 1_555
H6 C12 1_555 1_555
C13 O1 1_555 1_555
C14 C13 1_555 1_555
H7 C14 1_555 1_555
C15 C14 1_555 1_555
H8 C15 1_555 1_555
C16 C15 1_555 1_555
H9 C16 1_555 1_555
C17 C16 1_555 1_555
C18 C13 1_555 1_555
H10 C18 1_555 1_555
C19 C2 1_555 1_555
C20 C1 1_555 1_555
C21 C17 1_555 1_555
C22 C11 1_555 1_555
C23 O4 1_555 1_555
H11 C23 1_555 1_555
H12 C23 1_555 1_555
H13 C23 1_555 1_555
C24 O5 1_555 1_555
H14 C24 1_555 1_555
H15 C24 1_555 1_555
H16 C24 1_555 1_555
C5 C6 1_555 1_555
C11 C12 1_555 1_555
C17 C18 1_555 1_555

#END
