
#######################################################################
#
#                 Cambridge Crystallographic Data Centre
#                                CCDC 
#
#######################################################################
#
# If this CIF has been generated from an entry in the Cambridge 
# Structural Database, then it will include bibliographic, chemical, 
# crystal, experimental, refinement or atomic coordinate data resulting 
# from the CCDC's data processing and validation procedures.
#
#######################################################################

data_QECJUF
_chemical_name_common            4,4'-(1,4-Phenylene)bis(1H-imidazole)
_chemical_formula_moiety         'C12 H10 N4'
_chemical_name_systematic        4-[4-(1H-Imidazol-4-yl)phenyl]-1H-imidazole
_symmetry_cell_setting           orthorhombic
_symmetry_space_group_name_H-M   'P b c a'
_symmetry_Int_Tables_number      61
_space_group_name_Hall           '-P 2ac 2ab'
loop_
_symmetry_equiv_pos_site_id
_symmetry_equiv_pos_as_xyz
1 x,y,z
2 1/2-x,-y,1/2+z
3 -x,1/2+y,1/2-z
4 1/2+x,1/2-y,-z
5 -x,-y,-z
6 1/2+x,y,1/2-z
7 x,1/2-y,1/2+z
8 1/2-x,1/2+y,z
_cell_length_a                   6.8604(2)
_cell_length_b                   9.4534(3)
_cell_length_c                   16.4789(6)
_cell_angle_alpha                90
_cell_angle_beta                 90
_cell_angle_gamma                90
_cell_volume                     1068.72
_exptl_crystal_colour            colorless
_exptl_crystal_description       block
_cell_formula_units_Z            4
loop_
_atom_site_label
_atom_site_type_symbol
_atom_site_fract_x
_atom_site_fract_y
_atom_site_fract_z
N1 N -0.04339(18) 0.62662(12) 0.21679(8)
N2 N 0.03252(17) 0.85297(11) 0.21277(7)
C1 C 0.0142(2) 0.74017(14) 0.25866(10)
H1 H 0.0387 0.7394 0.3142
C2 C -0.0646(2) 0.66854(14) 0.13827(9)
H2 H -0.1035 0.6125 0.0948
C3 C -0.01772(19) 0.80895(14) 0.13570(8)
C4 C -0.01031(18) 0.90577(13) 0.06630(8)
C5 C -0.1213(2) 0.88440(13) -0.00307(8)
H3 H -0.2038 0.8065 -0.0059
C6 C 0.1116(2) 1.02373(13) 0.06775(8)
H4 H 0.1879 1.0407 0.1134
H5 H -0.054(3) 0.5309(18) 0.2395(11)
N1D N 0.04339(18) 1.37338(12) -0.21679(8)
N2D N -0.03252(17) 1.14703(11) -0.21277(7)
C1D C -0.0142(2) 1.25983(14) -0.25866(10)
H1D H -0.0387 1.2606 -0.3142
C2D C 0.0646(2) 1.33146(14) -0.13827(9)
H2D H 0.1035 1.3875 -0.0948
C3D C 0.01772(19) 1.19105(14) -0.13570(8)
C4D C 0.01031(18) 1.09423(13) -0.06630(8)
C5D C 0.1213(2) 1.11560(13) 0.00307(8)
H3D H 0.2038 1.1935 0.0059
C6D C -0.1116(2) 0.97627(13) -0.06775(8)
H4D H -0.1879 0.9593 -0.1134
H5D H 0.054(3) 1.4691(18) -0.2395(11)
loop_
_geom_bond_atom_site_label_1
_geom_bond_atom_site_label_2
_geom_bond_site_symmetry_1
_geom_bond_site_symmetry_2
N1 C1 1_555 1_555
N2 C1 1_555 1_555
C1 H1 1_555 1_555
C2 N1 1_555 1_555
H2 C2 1_555 1_555
C3 N2 1_555 1_555
C4 C3 1_555 1_555
C5 C4 1_555 1_555
H3 C5 1_555 1_555
C6 C4 1_555 1_555
H4 C6 1_555 1_555
H5 N1 1_555 1_555
N1D C1D 1_555 1_555
N2D C1D 1_555 1_555
C1D H1D 1_555 1_555
C2D N1D 1_555 1_555
H2D C2D 1_555 1_555
C3D N2D 1_555 1_555
C4D C3D 1_555 1_555
C5D C6 1_555 1_555
H3D C5D 1_555 1_555
C6D C5 1_555 1_555
H4D C6D 1_555 1_555
H5D N1D 1_555 1_555
C2 C3 1_555 1_555
C2D C3D 1_555 1_555
C4D C5D 1_555 1_555
C4D C6D 1_555 1_555

#END
