
#######################################################################
#
#                 Cambridge Crystallographic Data Centre
#                                CCDC 
#
#######################################################################
#
# If this CIF has been generated from an entry in the Cambridge 
# Structural Database, then it will include bibliographic, chemical, 
# crystal, experimental, refinement or atomic coordinate data resulting 
# from the CCDC's data processing and validation procedures.
#
#######################################################################

data_QECLUI
_chemical_formula_moiety         'C29 H28 N6 S2'
_chemical_name_systematic        
10-[3-(1H-benzimidazol-2-yl)-5-methylthiophen-2-yl]-2-methyl-4-(4-methylpiperazin-1-yl)-10H-thieno[2,3-b][1,5]benzodiazepine
_symmetry_cell_setting           monoclinic
_symmetry_space_group_name_H-M   'P 21/c'
_symmetry_Int_Tables_number      14
_space_group_name_Hall           '-P 2ybc'
loop_
_symmetry_equiv_pos_site_id
_symmetry_equiv_pos_as_xyz
1 x,y,z
2 -x,1/2+y,1/2-z
3 -x,-y,-z
4 x,1/2-y,1/2+z
_cell_length_a                   10.3312(7)
_cell_length_b                   26.543(2)
_cell_length_c                   9.5147(7)
_cell_angle_alpha                90
_cell_angle_beta                 95.8330(10)
_cell_angle_gamma                90
_cell_volume                     2595.62
_exptl_crystal_colour            colorless
_exptl_crystal_description       cube
_cell_formula_units_Z            4
_exptl_crystal_recrystallization_method acetonitrile/dichloromethane
loop_
_atom_site_label
_atom_site_type_symbol
_atom_site_fract_x
_atom_site_fract_y
_atom_site_fract_z
S1 S 0.64422(5) 0.50703(2) 0.21795(5)
S2 S 0.44915(4) 0.56713(2) 0.41320(5)
N1 N 0.71082(14) 0.58896(5) 0.39009(15)
N2 N 0.64499(14) 0.73853(6) 0.45634(16)
N3 N 0.61469(15) 0.83946(6) 0.35399(17)
N4 N 0.78936(15) 0.67785(6) 0.54147(16)
N5 N 0.92464(14) 0.65030(6) 0.28226(16)
H1 H 0.8691 0.6559 0.3447
N6 N 1.02230(15) 0.61111(6) 0.11278(16)
C1 C 0.73395(17) 0.56060(6) 0.27061(18)
C2 C 0.58632(17) 0.60535(7) 0.41696(18)
C3 C 0.35869(18) 0.61564(7) 0.4766(2)
C4 C 0.43214(17) 0.65746(7) 0.50048(19)
H2 H 0.3990 0.6879 0.5354
C5 C 0.56380(17) 0.65219(7) 0.46897(19)
C6 C 0.67158(18) 0.68891(7) 0.48979(19)
C7 C 0.54505(18) 0.75213(7) 0.34226(19)
H3 H 0.4689 0.7296 0.3444
H4 H 0.5800 0.7479 0.2498
C8 C 0.50368(18) 0.80627(7) 0.3599(2)
H5 H 0.4349 0.8152 0.2839
H6 H 0.4677 0.8103 0.4517
C9 C 0.70954(19) 0.82768(7) 0.4726(2)
H7 H 0.6701 0.8332 0.5619
H8 H 0.7850 0.8506 0.4717
C10 C 0.75561(18) 0.77368(7) 0.4668(2)
H9 H 0.8053 0.7692 0.3840
H10 H 0.8144 0.7660 0.5529
C11 C 0.5793(2) 0.89244(7) 0.3531(2)
H11 H 0.5123 0.8990 0.2747
H12 H 0.6562 0.9130 0.3414
H13 H 0.5455 0.9011 0.4426
C12 C 0.82886(17) 0.62973(7) 0.59125(19)
C13 C 0.80011(17) 0.58513(7) 0.51643(19)
C14 C 0.85474(18) 0.53952(7) 0.5610(2)
H14 H 0.8329 0.5096 0.5090
C15 C 0.94120(19) 0.53764(8) 0.6816(2)
H15 H 0.9800 0.5065 0.7120
C16 C 0.97122(18) 0.58134(8) 0.7582(2)
H16 H 1.0291 0.5799 0.8423
C17 C 0.91748(18) 0.62673(7) 0.71280(19)
H17 H 0.9408 0.6565 0.7647
C18 C 0.21785(18) 0.60775(8) 0.4967(2)
H18 H 0.1726 0.5934 0.4105
H19 H 0.1781 0.6401 0.5170
H20 H 0.2109 0.5846 0.5759
C19 C 0.83265(17) 0.56817(7) 0.18729(18)
C20 C 0.92724(17) 0.60898(7) 0.19545(18)
C21 C 1.02537(17) 0.68133(7) 0.25310(19)
C22 C 1.08454(18) 0.65642(7) 0.14656(19)
C23 C 1.19208(19) 0.67807(8) 0.0917(2)
H21 H 1.2336 0.6618 0.0196
C24 C 1.23561(19) 0.72380(8) 0.1461(2)
H22 H 1.3082 0.7393 0.1100
C25 C 1.17601(19) 0.74807(7) 0.2529(2)
H23 H 1.2090 0.7796 0.2875
C26 C 1.07011(18) 0.72724(7) 0.3092(2)
H24 H 1.0299 0.7435 0.3825
C27 C 0.83326(17) 0.53069(7) 0.07907(19)
H25 H 0.8957 0.5302 0.0124
C28 C 0.73732(18) 0.49612(7) 0.0801(2)
C29 C 0.7051(2) 0.45421(8) -0.0230(2)
H26 H 0.6926 0.4229 0.0286
H27 H 0.7766 0.4499 -0.0822
H28 H 0.6250 0.4624 -0.0829
loop_
_geom_bond_atom_site_label_1
_geom_bond_atom_site_label_2
_geom_bond_site_symmetry_1
_geom_bond_site_symmetry_2
S1 C1 1_555 1_555
S2 C2 1_555 1_555
N1 C1 1_555 1_555
N2 C6 1_555 1_555
N3 C8 1_555 1_555
N4 C6 1_555 1_555
N5 H1 1_555 1_555
N6 C20 1_555 1_555
C1 C19 1_555 1_555
C2 N1 1_555 1_555
C3 S2 1_555 1_555
C4 C3 1_555 1_555
H2 C4 1_555 1_555
C5 C2 1_555 1_555
C6 C5 1_555 1_555
C7 N2 1_555 1_555
H3 C7 1_555 1_555
H4 C7 1_555 1_555
C8 C7 1_555 1_555
H5 C8 1_555 1_555
H6 C8 1_555 1_555
C9 N3 1_555 1_555
H7 C9 1_555 1_555
H8 C9 1_555 1_555
C10 N2 1_555 1_555
H9 C10 1_555 1_555
H10 C10 1_555 1_555
C11 N3 1_555 1_555
H11 C11 1_555 1_555
H12 C11 1_555 1_555
H13 C11 1_555 1_555
C12 N4 1_555 1_555
C13 N1 1_555 1_555
C14 C13 1_555 1_555
H14 C14 1_555 1_555
C15 C14 1_555 1_555
H15 C15 1_555 1_555
C16 C15 1_555 1_555
H16 C16 1_555 1_555
C17 C12 1_555 1_555
H17 C17 1_555 1_555
C18 C3 1_555 1_555
H18 C18 1_555 1_555
H19 C18 1_555 1_555
H20 C18 1_555 1_555
C19 C20 1_555 1_555
C20 N5 1_555 1_555
C21 N5 1_555 1_555
C22 N6 1_555 1_555
C23 C22 1_555 1_555
H21 C23 1_555 1_555
C24 C23 1_555 1_555
H22 C24 1_555 1_555
C25 C24 1_555 1_555
H23 C25 1_555 1_555
C26 C21 1_555 1_555
H24 C26 1_555 1_555
C27 C19 1_555 1_555
H25 C27 1_555 1_555
C28 S1 1_555 1_555
C29 C28 1_555 1_555
H26 C29 1_555 1_555
H27 C29 1_555 1_555
H28 C29 1_555 1_555
C4 C5 1_555 1_555
C9 C10 1_555 1_555
C12 C13 1_555 1_555
C16 C17 1_555 1_555
C21 C22 1_555 1_555
C25 C26 1_555 1_555
C27 C28 1_555 1_555

#END
