
#######################################################################
#
#                 Cambridge Crystallographic Data Centre
#                                CCDC 
#
#######################################################################
#
# If this CIF has been generated from an entry in the Cambridge 
# Structural Database, then it will include bibliographic, chemical, 
# crystal, experimental, refinement or atomic coordinate data resulting 
# from the CCDC's data processing and validation procedures.
#
#######################################################################

data_QECPOD
_chemical_formula_moiety         'C14 H17 N1 O4'
_chemical_name_systematic        
(4S,5S,1'R)-4-Hydroxy-3-phenyl-5-(2,2-dimethyl-1,3-dioxolan-4-yl)-\L^2^-isoxazoline
_symmetry_cell_setting           orthorhombic
_symmetry_space_group_name_H-M   'P 21 21 21'
_symmetry_Int_Tables_number      19
_space_group_name_Hall           'P 2ac 2ab'
loop_
_symmetry_equiv_pos_site_id
_symmetry_equiv_pos_as_xyz
1 x,y,z
2 1/2-x,-y,1/2+z
3 1/2+x,1/2-y,-z
4 -x,1/2+y,1/2-z
_cell_length_a                   11.314(1)
_cell_length_b                   12.707(2)
_cell_length_c                   9.411(2)
_cell_angle_alpha                90
_cell_angle_beta                 90
_cell_angle_gamma                90
_cell_volume                     1352.99
_exptl_crystal_colour            colorless
_cell_formula_units_Z            4
_exptl_crystal_recrystallization_method 'diethyl ether/n-hexane'
loop_
_atom_site_label
_atom_site_type_symbol
_atom_site_fract_x
_atom_site_fract_y
_atom_site_fract_z
O1 O 0.6772(2) -0.0540(1) -0.0816(2)
O2 O 0.7697(2) -0.1472(2) 0.0925(2)
O3 O 0.8923(1) 0.1374(1) 0.0466(2)
O4 O 0.6330(2) 0.2229(2) 0.0942(2)
N1 N 0.8919(2) 0.2298(2) -0.0367(2)
C1 C 0.6696(3) -0.1495(2) 0.0018(3)
C2 C 0.8595(3) -0.0927(2) 0.0147(4)
C3 C 0.7894(2) -0.0067(2) -0.0566(3)
C4 C 0.7770(2) 0.0891(2) 0.0362(3)
C5 C 0.6959(2) 0.1746(2) -0.0192(3)
C6 C 0.7870(2) 0.2512(2) -0.0781(3)
C7 C 0.7612(2) 0.3444(2) -0.1652(3)
C8 C 0.8494(3) 0.4108(2) -0.2120(4)
C9 C 0.8225(4) 0.4989(3) -0.2918(4)
C10 C 0.7075(3) 0.5221(3) -0.3231(4)
C11 C 0.6182(3) 0.4563(3) -0.2790(4)
C12 C 0.6443(2) 0.3675(2) -0.2000(3)
C13 C 0.5597(3) -0.1447(3) 0.0913(4)
C14 C 0.6716(4) -0.2432(3) -0.0974(5)
H1 H 0.901(3) -0.139(3) -0.052(4)
H2 H 0.922(3) -0.071(2) 0.086(3)
H3 H 0.821(2) 0.016(2) -0.141(3)
H4 H 0.759(2) 0.071(2) 0.132(3)
H5 H 0.634(2) 0.149(2) -0.094(3)
H6 H 0.918(3) 0.395(3) -0.187(4)
H7 H 0.881(3) 0.538(3) -0.320(4)
H8 H 0.689(3) 0.587(3) -0.373(3)
H9 H 0.541(3) 0.468(2) -0.304(3)
H10 H 0.575(2) 0.321(2) -0.172(3)
H11 H 0.561(3) 0.234(3) 0.060(4)
H12 H 0.561(3) -0.072(3) 0.146(4)
H13 H 0.480(3) -0.146(3) 0.023(4)
H14 H 0.559(4) -0.207(3) 0.140(5)
H15 H 0.606(3) -0.240(3) -0.165(5)
H16 H 0.680(3) -0.303(3) -0.039(4)
H17 H 0.737(3) -0.247(3) -0.149(4)
loop_
_geom_bond_atom_site_label_1
_geom_bond_atom_site_label_2
_geom_bond_site_symmetry_1
_geom_bond_site_symmetry_2
O1 C1 1_555 1_555
O2 C1 1_555 1_555
O3 N1 1_555 1_555
O4 C5 1_555 1_555
N1 C6 1_555 1_555
C1 C13 1_555 1_555
C2 O2 1_555 1_555
C3 O1 1_555 1_555
C4 O3 1_555 1_555
C5 C4 1_555 1_555
C6 C5 1_555 1_555
C7 C6 1_555 1_555
C8 C7 1_555 1_555
C9 C8 1_555 1_555
C10 C9 1_555 1_555
C11 C10 1_555 1_555
C12 C7 1_555 1_555
C13 H12 1_555 1_555
C14 C1 1_555 1_555
H1 C2 1_555 1_555
H2 C2 1_555 1_555
H3 C3 1_555 1_555
H4 C4 1_555 1_555
H5 C5 1_555 1_555
H6 C8 1_555 1_555
H7 C9 1_555 1_555
H8 C10 1_555 1_555
H9 C11 1_555 1_555
H10 C12 1_555 1_555
H11 O4 1_555 1_555
H13 C13 1_555 1_555
H14 C13 1_555 1_555
H15 C14 1_555 1_555
H16 C14 1_555 1_555
H17 C14 1_555 1_555
C2 C3 1_555 1_555
C3 C4 1_555 1_555
C11 C12 1_555 1_555

#END
