
#######################################################################
#
#                 Cambridge Crystallographic Data Centre
#                                CCDC 
#
#######################################################################
#
# If this CIF has been generated from an entry in the Cambridge 
# Structural Database, then it will include bibliographic, chemical, 
# crystal, experimental, refinement or atomic coordinate data resulting 
# from the CCDC's data processing and validation procedures.
#
#######################################################################

data_QECQIB
_chemical_formula_moiety         'C4 H2 N11 1-,H4 N1 O1 1+,2(H2 O1)'
_chemical_name_systematic        
'hydroxyammonium 5-(7-aminotetrazolo[1,5-b][1,2,4]triazin-6-yl)tetrazol-1-ide dihydrate'
_symmetry_cell_setting           monoclinic
_symmetry_space_group_name_H-M   'C c'
_symmetry_Int_Tables_number      9
_space_group_name_Hall           'C -2yc'
loop_
_symmetry_equiv_pos_site_id
_symmetry_equiv_pos_as_xyz
1 x,y,z
2 x,-y,1/2+z
3 1/2+x,1/2+y,z
4 1/2+x,1/2-y,1/2+z
_cell_length_a                   5.9556(6)
_cell_length_b                   27.800(3)
_cell_length_c                   6.8014(6)
_cell_angle_alpha                90
_cell_angle_beta                 98.966(3)
_cell_angle_gamma                90
_cell_volume                     1112.32
_exptl_crystal_description       plate
_cell_formula_units_Z            4
loop_
_atom_site_label
_atom_site_type_symbol
_atom_site_fract_x
_atom_site_fract_y
_atom_site_fract_z
C1 C 0.4402(7) 0.38752(16) 0.9436(7)
C2 C 0.6215(8) 0.45706(17) 1.0328(7)
C3 C 0.4148(9) 0.48288(15) 0.9370(7)
C4 C 0.4022(8) 0.53552(15) 0.9320(7)
N1 N 0.3938(7) 0.34104(12) 0.9178(6)
N2 N 0.1752(7) 0.33914(14) 0.8177(6)
N3 N 0.0855(7) 0.38144(14) 0.7820(6)
N4 N 0.2535(6) 0.41216(13) 0.8612(6)
N5 N 0.6288(6) 0.40921(14) 1.0349(6)
N6 N 0.2330(7) 0.46039(13) 0.8532(6)
N7 N 0.7992(7) 0.48157(15) 1.1182(6)
H1 H 0.785(9) 0.5121(10) 1.128(7)
H2 H 0.914(6) 0.4657(15) 1.182(7)
N8 N 0.5618(6) 0.56435(12) 1.0281(6)
N9 N 0.4834(6) 0.60894(14) 0.9851(6)
N10 N 0.2848(7) 0.60629(13) 0.8677(6)
N11 N 0.2282(6) 0.56009(13) 0.8317(5)
N12 N 0.8428(7) 0.72899(13) 0.4155(6)
H3 H 0.895(6) 0.7046(11) 0.510(5)
H4 H 0.949(5) 0.7548(12) 0.427(5)
H5 H 0.826(6) 0.7161(12) 0.284(4)
O1 O 0.6277(6) 0.74569(12) 0.4526(6)
H6 H 0.556(9) 0.7194(13) 0.456(8)
O2 O 0.9148(6) 0.66423(11) 0.7204(5)
H7 H 1.039(6) 0.6524(15) 0.776(7)
H8 H 0.846(7) 0.6411(13) 0.668(7)
O3 O 0.6796(6) 0.70053(11) 1.0182(5)
H9 H 0.773(7) 0.6965(16) 0.943(6)
H10 H 0.628(8) 0.6740(12) 1.036(8)
loop_
_geom_bond_atom_site_label_1
_geom_bond_atom_site_label_2
_geom_bond_site_symmetry_1
_geom_bond_site_symmetry_2
C1 N1 1_555 1_555
C2 C3 1_555 1_555
C3 C4 1_555 1_555
C4 N8 1_555 1_555
N1 N2 1_555 1_555
N2 N3 1_555 1_555
N3 N4 1_555 1_555
N4 C1 1_555 1_555
N5 C1 1_555 1_555
N6 C3 1_555 1_555
N7 C2 1_555 1_555
H1 N7 1_555 1_555
H2 N7 1_555 1_555
N8 N9 1_555 1_555
N9 N10 1_555 1_555
N10 N11 1_555 1_555
N11 C4 1_555 1_555
N12 H3 1_555 1_555
H4 N12 1_555 1_555
H5 N12 1_555 1_555
O1 N12 1_555 1_555
H6 O1 1_555 1_555
O2 H7 1_555 1_555
H8 O2 1_555 1_555
O3 H9 1_555 1_555
H10 O3 1_555 1_555
C2 N5 1_555 1_555
N4 N6 1_555 1_555

#END
