
#######################################################################
#
#                 Cambridge Crystallographic Data Centre
#                                CCDC 
#
#######################################################################
#
# If this CIF has been generated from an entry in the Cambridge 
# Structural Database, then it will include bibliographic, chemical, 
# crystal, experimental, refinement or atomic coordinate data resulting 
# from the CCDC's data processing and validation procedures.
#
#######################################################################

data_QECSUP
_chemical_formula_moiety         'C24 H12 Br4 N2'
_chemical_name_systematic        3,3',6,6'-tetrabromo-9,9'-bicarbazole
_symmetry_cell_setting           orthorhombic
_symmetry_space_group_name_H-M   'P b c a'
_symmetry_Int_Tables_number      61
_space_group_name_Hall           '-P 2ac 2ab'
loop_
_symmetry_equiv_pos_site_id
_symmetry_equiv_pos_as_xyz
1 x,y,z
2 1/2-x,-y,1/2+z
3 -x,1/2+y,1/2-z
4 1/2+x,1/2-y,-z
5 -x,-y,-z
6 1/2+x,y,1/2-z
7 x,1/2-y,1/2+z
8 1/2-x,1/2+y,z
_cell_length_a                   10.5047(8)
_cell_length_b                   14.9725(11)
_cell_length_c                   27.750(2)
_cell_angle_alpha                90
_cell_angle_beta                 90
_cell_angle_gamma                90
_cell_volume                     4364.56
_exptl_crystal_colour            colorless
_exptl_crystal_description       Prism
_cell_formula_units_Z            8
loop_
_atom_site_label
_atom_site_type_symbol
_atom_site_fract_x
_atom_site_fract_y
_atom_site_fract_z
Br1 Br 0.20513(2) -0.120028(15) 0.043772(9)
Br2 Br 0.61838(2) 0.371038(14) -0.000350(8)
Br3 Br 0.62906(2) 0.120242(14) 0.372656(8)
Br4 Br 1.170447(19) -0.217240(13) 0.221678(9)
N1 N 0.68136(16) 0.04544(11) 0.12399(6)
N2 N 0.74716(16) 0.03198(11) 0.16641(6)
C1 C 0.57322(19) -0.00365(13) 0.11115(7)
C2 C 0.5310(2) -0.08570(14) 0.12779(8)
H1 H 0.5759 -0.1171 0.1522
C3 C 0.4199(2) -0.12069(14) 0.10735(8)
H2 H 0.3871 -0.1764 0.1181
C4 C 0.35738(19) -0.07329(14) 0.07102(8)
C5 C 0.39970(19) 0.00801(14) 0.05385(7)
H3 H 0.3562 0.0383 0.0287
C6 C 0.50868(19) 0.04385(13) 0.07487(7)
C7 C 0.57707(19) 0.12680(13) 0.06743(7)
C8 C 0.55622(19) 0.20037(13) 0.03726(7)
H4 H 0.4852 0.2028 0.0161
C9 C 0.64310(19) 0.26888(13) 0.03962(7)
C10 C 0.7482(2) 0.26771(14) 0.07004(7)
H5 H 0.8060 0.3165 0.0700
C11 C 0.7691(2) 0.19548(13) 0.10052(8)
H6 H 0.8399 0.1940 0.1218
C12 C 0.68291(19) 0.12615(13) 0.09862(7)
C13 C 0.70264(19) 0.05838(13) 0.21162(7)
C14 C 0.60418(19) 0.11613(13) 0.22338(8)
H7 H 0.5536 0.1434 0.1991
C15 C 0.58232(19) 0.13260(12) 0.27181(8)
H8 H 0.5154 0.1716 0.2812
C16 C 0.65863(19) 0.09189(13) 0.30686(7)
C17 C 0.75637(18) 0.03432(12) 0.29525(7)
H9 H 0.8073 0.0077 0.3196
C18 C 0.77810(18) 0.01655(12) 0.24694(7)
C19 C 0.86847(18) -0.03975(12) 0.22149(7)
C20 C 0.96562(18) -0.09651(12) 0.23708(7)
H10 H 0.9840 -0.1038 0.2704
C21 C 1.03369(19) -0.14152(13) 0.20230(8)
C22 C 1.0094(2) -0.13287(13) 0.15334(8)
H11 H 1.0581 -0.1662 0.1308
C23 C 0.9143(2) -0.07582(14) 0.13709(8)
H12 H 0.8970 -0.0685 0.1037
C24 C 0.84551(18) -0.02995(13) 0.17216(7)
loop_
_geom_bond_atom_site_label_1
_geom_bond_atom_site_label_2
_geom_bond_site_symmetry_1
_geom_bond_site_symmetry_2
Br1 C4 1_555 1_555
Br2 C9 1_555 1_555
Br3 C16 1_555 1_555
Br4 C21 1_555 1_555
N1 N2 1_555 1_555
N2 C13 1_555 1_555
C1 N1 1_555 1_555
C2 C1 1_555 1_555
H1 C2 1_555 1_555
C3 C2 1_555 1_555
H2 C3 1_555 1_555
C4 C3 1_555 1_555
C5 C4 1_555 1_555
H3 C5 1_555 1_555
C6 C1 1_555 1_555
C7 C6 1_555 1_555
C8 C7 1_555 1_555
H4 C8 1_555 1_555
C9 C8 1_555 1_555
C10 C9 1_555 1_555
H5 C10 1_555 1_555
C11 C10 1_555 1_555
H6 C11 1_555 1_555
C12 N1 1_555 1_555
C13 C14 1_555 1_555
C14 H7 1_555 1_555
C15 C14 1_555 1_555
H8 C15 1_555 1_555
C16 C15 1_555 1_555
C17 C16 1_555 1_555
H9 C17 1_555 1_555
C18 C13 1_555 1_555
C19 C18 1_555 1_555
C20 C19 1_555 1_555
H10 C20 1_555 1_555
C21 C20 1_555 1_555
C22 C21 1_555 1_555
H11 C22 1_555 1_555
C23 C22 1_555 1_555
H12 C23 1_555 1_555
C24 N2 1_555 1_555
C5 C6 1_555 1_555
C7 C12 1_555 1_555
C11 C12 1_555 1_555
C17 C18 1_555 1_555
C19 C24 1_555 1_555
C23 C24 1_555 1_555

#END
