
#######################################################################
#
#                 Cambridge Crystallographic Data Centre
#                                CCDC 
#
#######################################################################
#
# If this CIF has been generated from an entry in the Cambridge 
# Structural Database, then it will include bibliographic, chemical, 
# crystal, experimental, refinement or atomic coordinate data resulting 
# from the CCDC's data processing and validation procedures.
#
#######################################################################

data_QECSUO
_chemical_name_common            
2,5-Dichloro-3,6-diisopropoxy-1,4-benzoquinone
_chemical_formula_moiety         'C12 H14 Cl2 O4'
_chemical_name_systematic        
2,5-Dichloro-3,6-diisopropylcyclohexa-2,5-diene-1,4-dione
_symmetry_cell_setting           monoclinic
_symmetry_space_group_name_H-M   'C 2/c'
_symmetry_Int_Tables_number      15
_space_group_name_Hall           '-C 2yn'
loop_
_symmetry_equiv_pos_site_id
_symmetry_equiv_pos_as_xyz
1 x,y,z
2 -x,y,1/2-z
3 1/2+x,1/2+y,z
4 1/2-x,1/2+y,1/2-z
5 -x,-y,-z
6 x,-y,1/2+z
7 1/2-x,1/2-y,-z
8 1/2+x,1/2-y,1/2+z
_cell_length_a                   10.286(2)
_cell_length_b                   15.034(3)
_cell_length_c                   9.621(2)
_cell_angle_alpha                90
_cell_angle_beta                 109.022(4)
_cell_angle_gamma                90
_cell_volume                     1406.55
_exptl_crystal_colour            yellow
_exptl_crystal_description       block
_cell_formula_units_Z            4
loop_
_atom_site_label
_atom_site_type_symbol
_atom_site_fract_x
_atom_site_fract_y
_atom_site_fract_z
C1 C 0.4914(5) 0.5935(3) 0.5241(4)
C2 C 0.5842(4) 0.5580(3) 0.4504(4)
C3 C 0.5968(4) 0.4704(3) 0.4308(4)
C4 C 0.7787(5) 0.3702(3) 0.4212(5)
H1 H 0.7285 0.3149 0.4223
C5 C 0.8654(6) 0.3916(4) 0.5744(6)
H2 H 0.9196 0.4436 0.5740
H3 H 0.9252 0.3424 0.6150
H4 H 0.8075 0.4027 0.6331
C6 C 0.8576(7) 0.3595(4) 0.3175(6)
H5 H 0.7949 0.3508 0.2198
H6 H 0.9173 0.3089 0.3459
H7 H 0.9115 0.4120 0.3198
Cl1 Cl 0.68016(14) 0.63397(8) 0.39265(14)
O1 O 0.4891(4) 0.6728(2) 0.5509(4)
O2 O 0.6789(3) 0.4409(2) 0.3567(3)
C1D C 0.5086(5) 0.4065(3) 0.4759(4)
C2D C 0.4158(4) 0.4420(3) 0.5496(4)
C3D C 0.4032(4) 0.5296(3) 0.5692(4)
C4D C 0.2213(5) 0.6298(3) 0.5788(5)
H1D H 0.2715 0.6851 0.5777
C5D C 0.1346(6) 0.6084(4) 0.4256(6)
H2D H 0.0804 0.5564 0.4260
H3D H 0.0748 0.6576 0.3850
H4D H 0.1925 0.5973 0.3669
C6D C 0.1424(7) 0.6405(4) 0.6825(6)
H5D H 0.2051 0.6492 0.7802
H6D H 0.0827 0.6911 0.6541
H7D H 0.0885 0.5880 0.6802
Cl1D Cl 0.31984(14) 0.36603(8) 0.60735(14)
O1D O 0.5109(4) 0.3272(2) 0.4491(4)
O2D O 0.3211(3) 0.5591(2) 0.6433(3)
loop_
_geom_bond_atom_site_label_1
_geom_bond_atom_site_label_2
_geom_bond_site_symmetry_1
_geom_bond_site_symmetry_2
C1 C2 1_555 1_555
C2 C3 1_555 1_555
C3 O2 1_555 1_555
C4 H1 1_555 1_555
C5 C4 1_555 1_555
H2 C5 1_555 1_555
H3 C5 1_555 1_555
H4 C5 1_555 1_555
C6 C4 1_555 1_555
H5 C6 1_555 1_555
H6 C6 1_555 1_555
H7 C6 1_555 1_555
Cl1 C2 1_555 1_555
O1 C1 1_555 1_555
O2 C4 1_555 1_555
C1D C3 1_555 1_555
C2D C1D 1_555 1_555
C3D C1 1_555 1_555
C4D H1D 1_555 1_555
C5D C4D 1_555 1_555
H2D C5D 1_555 1_555
H3D C5D 1_555 1_555
H4D C5D 1_555 1_555
C6D C4D 1_555 1_555
H5D C6D 1_555 1_555
H6D C6D 1_555 1_555
H7D C6D 1_555 1_555
Cl1D C2D 1_555 1_555
O1D C1D 1_555 1_555
O2D C3D 1_555 1_555
C2D C3D 1_555 1_555
C4D O2D 1_555 1_555

#END
