
#######################################################################
#
#                 Cambridge Crystallographic Data Centre
#                                CCDC 
#
#######################################################################
#
# If this CIF has been generated from an entry in the Cambridge 
# Structural Database, then it will include bibliographic, chemical, 
# crystal, experimental, refinement or atomic coordinate data resulting 
# from the CCDC's data processing and validation procedures.
#
#######################################################################

data_QECVUS
_chemical_formula_moiety         'C29 H22 N4 O2,C3 H7 N1 O1'
_chemical_name_systematic        
'2-amino-4-(4-methoxyphenyl)-6-(1-methyl-2-phenyl-1H-indol-3-yl)-4H-pyran-3,5-dicarbonitrile N,N-dimethylformamide solvate'
_symmetry_cell_setting           triclinic
_symmetry_space_group_name_H-M   'P -1'
_symmetry_Int_Tables_number      2
_space_group_name_Hall           '-P 1'
loop_
_symmetry_equiv_pos_site_id
_symmetry_equiv_pos_as_xyz
1 x,y,z
2 -x,-y,-z
_cell_length_a                   9.5303(11)
_cell_length_b                   10.3377(12)
_cell_length_c                   15.5150(17)
_cell_angle_alpha                71.5660(10)
_cell_angle_beta                 75.7070(10)
_cell_angle_gamma                82.511(2)
_cell_volume                     1402.97
_cell_formula_units_Z            2
loop_
_atom_site_label
_atom_site_type_symbol
_atom_site_fract_x
_atom_site_fract_y
_atom_site_fract_z
N1 N 0.2113(3) 1.0796(2) 0.2748(2)
N2 N 0.8505(3) 0.7527(3) 0.2294(2)
H1 H 0.9237 0.6946 0.2279
H2 H 0.8603 0.8323 0.2329
N3 N 0.8928(3) 0.4186(3) 0.2055(2)
N4 N 0.1848(3) 0.6805(3) 0.2002(3)
O1 O 0.6212(2) 0.82653(19) 0.23006(17)
O2 O 0.3128(8) 0.1635(8) 0.5662(5)
C1 C 0.2693(3) 0.9470(3) 0.2969(2)
C2 C 0.3914(3) 0.9377(3) 0.2300(2)
C3 C 0.4123(3) 1.0696(3) 0.1641(3)
C4 C 0.2954(3) 1.1554(3) 0.1941(3)
C5 C 0.2774(4) 1.2926(3) 0.1453(3)
H3 H 0.1992 1.3476 0.1655
C6 C 0.3799(4) 1.3425(3) 0.0664(3)
H4 H 0.3713 1.4339 0.0323
C7 C 0.4970(4) 1.2606(4) 0.0354(3)
H5 H 0.5655 1.2985 -0.0183
C8 C 0.5129(4) 1.1253(3) 0.0828(3)
H6 H 0.5905 1.0711 0.0609
C9 C 0.0898(3) 1.1349(3) 0.3332(3)
H7 H 0.1205 1.2093 0.3473
H8 H 0.0563 1.0648 0.3900
H9 H 0.0124 1.1671 0.3007
C10 C 0.2088(3) 0.8422(3) 0.3825(2)
C11 C 0.2836(4) 0.7961(3) 0.4528(3)
H10 H 0.3718 0.8321 0.4453
C12 C 0.2303(4) 0.6977(4) 0.5340(3)
H11 H 0.2819 0.6685 0.5810
C13 C 0.1017(4) 0.6426(4) 0.5457(3)
H12 H 0.0659 0.5756 0.6004
C14 C 0.0261(4) 0.6866(4) 0.4765(3)
H13 H -0.0613 0.6490 0.4841
C15 C 0.0790(3) 0.7873(3) 0.3949(3)
H14 H 0.0264 0.8176 0.3484
C16 C 0.4802(3) 0.8126(3) 0.2271(2)
C17 C 0.4399(3) 0.6978(3) 0.2208(2)
C18 C 0.5351(3) 0.5689(3) 0.2237(2)
H15 H 0.5350 0.5387 0.1699
C19 C 0.6871(3) 0.6004(3) 0.2207(2)
C20 C 0.7213(3) 0.7193(3) 0.2262(2)
C21 C 0.2956(4) 0.6929(3) 0.2105(3)
C22 C 0.7998(3) 0.4992(3) 0.2135(2)
C23 C 0.473(6) 0.455(8) 0.317(4)
C24 C 0.430(4) 0.484(2) 0.401(3)
H16 H 0.4374 0.5725 0.4026
C25 C 0.3768(12) 0.3853(12) 0.4825(9)
H17 H 0.3480 0.4058 0.5387
C26 C 0.3672(16) 0.2555(14) 0.4787(13)
C27 C 0.407(4) 0.221(4) 0.3972(17)
H18 H 0.3999 0.1328 0.3962
C28 C 0.4594(14) 0.3238(17) 0.3160(10)
H19 H 0.4855 0.3037 0.2596
C29 C 0.278(2) 0.035(2) 0.5645(15)
H20 H 0.2107 0.0488 0.5248
H21 H 0.2339 -0.0176 0.6265
H22 H 0.3642 -0.0135 0.5413
N5 N -0.0074(5) 0.1708(4) 0.0663(3)
O4 O -0.0824(3) 0.0173(3) 0.2062(2)
C37 C -0.0978(5) 0.1269(5) 0.1476(4)
H31 H -0.1790 0.1832 0.1615
C38 C -0.0316(6) 0.3040(5) 0.0047(4)
H32 H -0.1190 0.3472 0.0321
H33 H -0.0408 0.2958 -0.0536
H34 H 0.0488 0.3582 -0.0057
C39 C 0.1198(5) 0.0897(5) 0.0376(4)
H35 H 0.1261 0.0058 0.0864
H36 H 0.2046 0.1394 0.0251
H37 H 0.1135 0.0699 -0.0177
O3? O 0.3659(7) 0.0811(6) 0.4957(5)
H23? H 0.5406 0.5517 0.1644
C30? C 0.485(7) 0.446(9) 0.294(5)
C31? C 0.5071(15) 0.3219(18) 0.2747(11)
H24? H 0.5507 0.3187 0.2148
C32? C 0.4642(12) 0.2035(11) 0.3439(10)
H25? H 0.4777 0.1204 0.3307
C33? C 0.401(5) 0.209(5) 0.433(2)
C34? C 0.3823(16) 0.3289(15) 0.4557(15)
H26? H 0.3426 0.3311 0.5164
C35? C 0.425(4) 0.447(3) 0.384(3)
H27? H 0.4122 0.5298 0.3980
C36? C 0.302(2) 0.070(2) 0.5905(17)
H28? H 0.3649 0.1059 0.6160
H29? H 0.2888 -0.0247 0.6248
H30? H 0.2101 0.1201 0.5949
loop_
_geom_bond_atom_site_label_1
_geom_bond_atom_site_label_2
_geom_bond_site_symmetry_1
_geom_bond_site_symmetry_2
N1 C1 1_555 1_555
N2 H1 1_555 1_555
H2 N2 1_555 1_555
N3 C22 1_555 1_555
N4 C21 1_555 1_555
O1 C16 1_555 1_555
O2 C26 1_555 1_555
C1 C2 1_555 1_555
C2 C3 1_555 1_555
C3 C4 1_555 1_555
C4 N1 1_555 1_555
C5 C4 1_555 1_555
H3 C5 1_555 1_555
C6 C5 1_555 1_555
H4 C6 1_555 1_555
C7 C6 1_555 1_555
H5 C7 1_555 1_555
C8 C3 1_555 1_555
H6 C8 1_555 1_555
C9 N1 1_555 1_555
H7 C9 1_555 1_555
H8 C9 1_555 1_555
H9 C9 1_555 1_555
C10 C1 1_555 1_555
C11 C10 1_555 1_555
H10 C11 1_555 1_555
C12 C11 1_555 1_555
H11 C12 1_555 1_555
C13 C12 1_555 1_555
H12 C13 1_555 1_555
C14 C13 1_555 1_555
H13 C14 1_555 1_555
C15 C10 1_555 1_555
H14 C15 1_555 1_555
C16 C2 1_555 1_555
C17 C16 1_555 1_555
C18 C17 1_555 1_555
H15 C18 1_555 1_555
C19 C18 1_555 1_555
C20 N2 1_555 1_555
C21 C17 1_555 1_555
C22 C19 1_555 1_555
C23 C18 1_555 1_555
C24 C23 1_555 1_555
H16 C24 1_555 1_555
C25 C24 1_555 1_555
H17 C25 1_555 1_555
C26 C25 1_555 1_555
C27 C26 1_555 1_555
H18 C27 1_555 1_555
C28 C23 1_555 1_555
H19 C28 1_555 1_555
C29 O2 1_555 1_555
H20 C29 1_555 1_555
H21 C29 1_555 1_555
H22 C29 1_555 1_555
N5 C37 1_555 1_555
O4 C37 1_555 1_555
C37 H31 1_555 1_555
C38 N5 1_555 1_555
H32 C38 1_555 1_555
H33 C38 1_555 1_555
H34 C38 1_555 1_555
C39 N5 1_555 1_555
H35 C39 1_555 1_555
H36 C39 1_555 1_555
H37 C39 1_555 1_555
O1 C20 1_555 1_555
C7 C8 1_555 1_555
C14 C15 1_555 1_555
C19 C20 1_555 1_555
C27 C28 1_555 1_555

#END
