
#######################################################################
#
#                 Cambridge Crystallographic Data Centre
#                                CCDC 
#
#######################################################################
#
# If this CIF has been generated from an entry in the Cambridge 
# Structural Database, then it will include bibliographic, chemical, 
# crystal, experimental, refinement or atomic coordinate data resulting 
# from the CCDC's data processing and validation procedures.
#
#######################################################################

data_QECYAA
_chemical_formula_moiety         'C17 H19 N1 O3'
_chemical_name_systematic        
2-Methoxyimino-2-(2-[(2-methylphenoxy)methyl]phenyl)ethanol
_symmetry_cell_setting           monoclinic
_symmetry_space_group_name_H-M   'C 2/c'
_symmetry_Int_Tables_number      15
_space_group_name_Hall           '-C 2yn'
loop_
_symmetry_equiv_pos_site_id
_symmetry_equiv_pos_as_xyz
1 x,y,z
2 -x,y,1/2-z
3 1/2+x,1/2+y,z
4 1/2-x,1/2+y,1/2-z
5 -x,-y,-z
6 x,-y,1/2+z
7 1/2-x,1/2-y,-z
8 1/2+x,1/2-y,1/2+z
_cell_length_a                   21.0394(14)
_cell_length_b                   20.4128(10)
_cell_length_c                   7.6711(5)
_cell_angle_alpha                90
_cell_angle_beta                 105.729(6)
_cell_angle_gamma                90
_cell_volume                     3171.17
_exptl_crystal_colour            colorless
_exptl_crystal_description       block
_cell_formula_units_Z            8
loop_
_atom_site_label
_atom_site_type_symbol
_atom_site_fract_x
_atom_site_fract_y
_atom_site_fract_z
O1 O 0.36797(11) 0.16370(9) 0.4565(3)
O2 O 0.24680(10) 0.14485(9) 0.7894(3)
N1 N 0.37326(13) 0.10321(12) 0.5462(4)
C1 C 0.38302(15) 0.11036(14) 0.7167(4)
C2 C 0.3638(2) 0.1523(2) 0.2722(5)
H1 H 0.3630 0.1934 0.2110
H2 H 0.3242 0.1283 0.2174
H3 H 0.4014 0.1273 0.2629
C3 C 0.39179(15) 0.17396(14) 0.8143(3)
C4 C 0.45455(16) 0.19128(17) 0.9162(4)
H4 H 0.4898 0.1630 0.9228
C5 C 0.4652(2) 0.2500(2) 1.0079(5)
H5 H 0.5077 0.2616 1.0736
C6 C 0.4141(3) 0.2911(2) 1.0029(5)
H6 H 0.4216 0.3307 1.0653
C7 C 0.3504(2) 0.27400(16) 0.9042(5)
H7 H 0.3155 0.3022 0.9023
C8 C 0.33831(16) 0.21524(14) 0.8083(4)
C9 C 0.27043(14) 0.19845(14) 0.7035(4)
H8 H 0.2418 0.2361 0.6974
H9 H 0.2701 0.1864 0.5810
C10 C 0.18363(16) 0.12314(14) 0.7087(4)
C11 C 0.16296(18) 0.06974(15) 0.7930(5)
C12 C 0.0989(2) 0.04775(18) 0.7189(6)
H10 H 0.0832 0.0129 0.7735
C13 C 0.0578(2) 0.0762(2) 0.5666(7)
H11 H 0.0152 0.0604 0.5195
C14 C 0.07975(19) 0.1270(2) 0.4858(5)
H12 H 0.0523 0.1457 0.3820
C15 C 0.14248(17) 0.15098(15) 0.5562(5)
H13 H 0.1572 0.1862 0.5006
C16 C 0.2088(2) 0.03868(18) 0.9558(5)
H14 H 0.2484 0.0250 0.9269
H15 H 0.1877 0.0013 0.9919
H16 H 0.2197 0.0698 1.0532
O3 O 0.4567(3) 0.0312(2) 0.8725(8)
H17 H 0.4837 0.0106 0.9553
C17 C 0.3946(2) 0.0467(2) 0.8269(7)
H18? H 0.4806 0.0312 0.8007
H19? H 0.3796 0.0522 0.9351
H20? H 0.3691 0.0116 0.7556
O4? O 0.3776(10) -0.0022(7) 0.757(2)
H21? H 0.3746 -0.0298 0.8361
C18? C 0.3637(19) 0.0532(6) 0.822(4)
H22? H 0.3875 0.0566 0.9491
H23? H 0.3168 0.0552 0.8123
loop_
_geom_bond_atom_site_label_1
_geom_bond_atom_site_label_2
_geom_bond_site_symmetry_1
_geom_bond_site_symmetry_2
O1 N1 1_555 1_555
O2 C9 1_555 1_555
N1 C1 1_555 1_555
C1 C3 1_555 1_555
C2 O1 1_555 1_555
H1 C2 1_555 1_555
H2 C2 1_555 1_555
H3 C2 1_555 1_555
C3 C4 1_555 1_555
C4 H4 1_555 1_555
C5 C4 1_555 1_555
H5 C5 1_555 1_555
C6 C5 1_555 1_555
H6 C6 1_555 1_555
C7 C6 1_555 1_555
H7 C7 1_555 1_555
C8 C3 1_555 1_555
C9 C8 1_555 1_555
H8 C9 1_555 1_555
H9 C9 1_555 1_555
C10 O2 1_555 1_555
C11 C10 1_555 1_555
C12 C11 1_555 1_555
H10 C12 1_555 1_555
C13 C12 1_555 1_555
H11 C13 1_555 1_555
C14 C13 1_555 1_555
H12 C14 1_555 1_555
C15 C10 1_555 1_555
H13 C15 1_555 1_555
C16 C11 1_555 1_555
H14 C16 1_555 1_555
H15 C16 1_555 1_555
H16 C16 1_555 1_555
O3 H17 1_555 1_555
C17 C1 1_555 1_555
C7 C8 1_555 1_555
C14 C15 1_555 1_555
O3 C17 1_555 1_555

#END
