
#######################################################################
#
#                 Cambridge Crystallographic Data Centre
#                                CCDC 
#
#######################################################################
#
# If this CIF has been generated from an entry in the Cambridge 
# Structural Database, then it will include bibliographic, chemical, 
# crystal, experimental, refinement or atomic coordinate data resulting 
# from the CCDC's data processing and validation procedures.
#
#######################################################################

data_QEDGOY
_chemical_formula_moiety         'C12 H11 N3 O2'
_chemical_name_systematic        
3-nitro-1-(3-phenylprop-2-en-1-yl)-1H-pyrazole
_symmetry_cell_setting           triclinic
_symmetry_space_group_name_H-M   'P -1'
_symmetry_Int_Tables_number      2
_space_group_name_Hall           '-P 1'
loop_
_symmetry_equiv_pos_site_id
_symmetry_equiv_pos_as_xyz
1 x,y,z
2 -x,-y,-z
_cell_length_a                   6.9102(2)
_cell_length_b                   7.5569(3)
_cell_length_c                   21.8746(7)
_cell_angle_alpha                95.895(2)
_cell_angle_beta                 96.939(2)
_cell_angle_gamma                94.396(2)
_cell_volume                     1123.32
_exptl_crystal_colour            colorless
_exptl_crystal_description       plate
_cell_formula_units_Z            4
loop_
_atom_site_label
_atom_site_type_symbol
_atom_site_fract_x
_atom_site_fract_y
_atom_site_fract_z
C1 C 0.1178(4) 0.4235(4) 0.61692(12)
C2 C 0.1341(4) 0.2764(4) 0.57457(13)
H1 H 0.1546 0.2742 0.5323
C3 C 0.1133(4) 0.1355(4) 0.60876(13)
H2 H 0.1176 0.0128 0.5947
C4 C 0.0629(4) 0.1099(4) 0.72118(13)
H3 H -0.0188 -0.0041 0.7079
H4 H -0.0057 0.1831 0.7504
C5 C 0.2564(4) 0.0721(4) 0.75364(13)
H5 H 0.3383 0.0035 0.7306
C6 C 0.3201(4) 0.1283(4) 0.81240(13)
H6 H 0.2399 0.2024 0.8341
C7 C 0.5036(4) 0.0868(4) 0.84736(13)
C8 C 0.5259(4) 0.1072(4) 0.91192(13)
H7 H 0.4257 0.1555 0.9328
C9 C 0.6912(4) 0.0585(4) 0.94620(14)
H8 H 0.7034 0.0730 0.9902
C10 C 0.8391(4) -0.0115(4) 0.91629(14)
H9 H 0.9516 -0.0473 0.9396
C11 C 0.8217(4) -0.0289(4) 0.85202(14)
H10 H 0.9237 -0.0748 0.8314
C12 C 0.6568(4) 0.0201(4) 0.81785(13)
H11 H 0.6469 0.0085 0.7739
N1 N 0.0888(3) 0.3823(3) 0.67323(10)
N2 N 0.0853(3) 0.2048(3) 0.66679(10)
N3 N 0.1262(4) 0.6078(4) 0.60662(11)
O1 O 0.1026(4) 0.7212(3) 0.64903(11)
O2 O 0.1592(3) 0.6449(3) 0.55500(10)
C13 C 0.6186(4) 0.1572(4) 0.60971(13)
C14 C 0.6358(4) 0.2844(4) 0.56849(13)
H12 H 0.6587 0.2670 0.5264
C15 C 0.6117(4) 0.4405(4) 0.60322(13)
H13 H 0.6152 0.5563 0.5898
C16 C 0.5673(4) 0.5195(4) 0.71647(13)
H14 H 0.4744 0.4634 0.7414
H15 H 0.5171 0.6320 0.7046
C17 C 0.7649(4) 0.5591(4) 0.75416(13)
H16 H 0.8629 0.6296 0.7383
C18 C 0.8086(4) 0.5004(4) 0.80855(13)
H17 H 0.7062 0.4338 0.8238
C19 C 0.9987(4) 0.5271(4) 0.84785(13)
C20 C 1.1660(4) 0.6155(4) 0.83002(14)
H18 H 1.1586 0.6606 0.7909
C21 C 1.3409(4) 0.6373(4) 0.86889(14)
H19 H 1.4527 0.6971 0.8562
C22 C 1.3551(4) 0.5731(4) 0.92604(14)
H20 H 1.4758 0.5896 0.9527
C23 C 1.1916(4) 0.4842(4) 0.94424(14)
H21 H 1.2006 0.4389 0.9833
C24 C 1.0162(4) 0.4617(4) 0.90545(13)
H22 H 0.9054 0.4005 0.9182
N4 N 0.5871(3) 0.2243(3) 0.66604(11)
N5 N 0.5818(3) 0.3984(3) 0.66050(10)
N6 N 0.6324(4) -0.0312(4) 0.59828(12)
O3 O 0.6056(4) -0.1258(3) 0.63971(12)
O4 O 0.6727(3) -0.0898(3) 0.54697(10)
loop_
_geom_bond_atom_site_label_1
_geom_bond_atom_site_label_2
_geom_bond_site_symmetry_1
_geom_bond_site_symmetry_2
C1 C2 1_555 1_555
C2 H1 1_555 1_555
C3 C2 1_555 1_555
H2 C3 1_555 1_555
C4 H3 1_555 1_555
H4 C4 1_555 1_555
C5 C4 1_555 1_555
H5 C5 1_555 1_555
C6 C5 1_555 1_555
H6 C6 1_555 1_555
C7 C6 1_555 1_555
C8 C7 1_555 1_555
H7 C8 1_555 1_555
C9 C8 1_555 1_555
H8 C9 1_555 1_555
C10 C9 1_555 1_555
H9 C10 1_555 1_555
C11 C10 1_555 1_555
H10 C11 1_555 1_555
C12 C7 1_555 1_555
H11 C12 1_555 1_555
N1 C1 1_555 1_555
N2 C3 1_555 1_555
N3 C1 1_555 1_555
O1 N3 1_555 1_555
O2 N3 1_555 1_555
C13 C14 1_555 1_555
C14 H12 1_555 1_555
C15 C14 1_555 1_555
H13 C15 1_555 1_555
C16 H14 1_555 1_555
H15 C16 1_555 1_555
C17 C16 1_555 1_555
H16 C17 1_555 1_555
C18 C17 1_555 1_555
H17 C18 1_555 1_555
C19 C18 1_555 1_555
C20 C19 1_555 1_555
H18 C20 1_555 1_555
C21 C20 1_555 1_555
H19 C21 1_555 1_555
C22 C21 1_555 1_555
H20 C22 1_555 1_555
C23 C22 1_555 1_555
H21 C23 1_555 1_555
C24 C19 1_555 1_555
H22 C24 1_555 1_555
N4 C13 1_555 1_555
N5 C15 1_555 1_555
N6 C13 1_555 1_555
O3 N6 1_555 1_555
O4 N6 1_555 1_555
C4 N2 1_555 1_555
C11 C12 1_555 1_555
N1 N2 1_555 1_555
C16 N5 1_555 1_555
C23 C24 1_555 1_555
N4 N5 1_555 1_555

#END
