
#######################################################################
#
#                 Cambridge Crystallographic Data Centre
#                                CCDC 
#
#######################################################################
#
# If this CIF has been generated from an entry in the Cambridge 
# Structural Database, then it will include bibliographic, chemical, 
# crystal, experimental, refinement or atomic coordinate data resulting 
# from the CCDC's data processing and validation procedures.
#
#######################################################################

data_QEDHUF
_chemical_formula_moiety         'C10 H6 N4 O2'
_chemical_name_systematic        2-(3-nitro-1H-pyrazol-1-yl)benzonitrile
_symmetry_cell_setting           monoclinic
_symmetry_space_group_name_H-M   'P 21/c'
_symmetry_Int_Tables_number      14
_space_group_name_Hall           '-P 2ybc'
loop_
_symmetry_equiv_pos_site_id
_symmetry_equiv_pos_as_xyz
1 x,y,z
2 -x,1/2+y,1/2-z
3 -x,-y,-z
4 x,1/2-y,1/2+z
_cell_length_a                   11.9915(3)
_cell_length_b                   14.3694(4)
_cell_length_c                   11.2447(3)
_cell_angle_alpha                90
_cell_angle_beta                 102.0398(11)
_cell_angle_gamma                90
_cell_volume                     1894.96
_exptl_crystal_colour            colorless
_exptl_crystal_description       block
_cell_formula_units_Z            8
loop_
_atom_site_label
_atom_site_type_symbol
_atom_site_fract_x
_atom_site_fract_y
_atom_site_fract_z
C1 C 0.47321(13) 0.37045(12) 1.01703(14)
C2 C 0.36928(14) 0.32827(12) 0.96761(15)
H1 H 0.3098 0.3112 1.0074
C3 C 0.37374(13) 0.31733(12) 0.84790(15)
H2 H 0.3165 0.2905 0.7862
C4 C 0.51530(14) 0.35795(11) 0.72305(14)
C5 C 0.43922(14) 0.38475(12) 0.61887(15)
H3 H 0.3632 0.4010 0.6226
C6 C 0.47403(14) 0.38790(12) 0.50832(15)
H4 H 0.4215 0.4061 0.4367
C7 C 0.58464(14) 0.36467(12) 0.50212(14)
H5 H 0.6080 0.3673 0.4265
C8 C 0.66144(14) 0.33753(12) 0.60632(15)
H6 H 0.7372 0.3213 0.6019
C9 C 0.62765(13) 0.33403(11) 0.71788(14)
C10 C 0.70931(13) 0.30428(11) 0.82398(14)
N1 N 0.53972(11) 0.38626(10) 0.93849(12)
N2 N 0.47610(11) 0.35219(10) 0.83391(12)
N3 N 0.51245(12) 0.39725(10) 1.14322(12)
N4 N 0.77797(12) 0.28035(10) 0.90523(13)
O1 O 0.60682(10) 0.43277(10) 1.17520(11)
O2 O 0.44679(11) 0.38135(10) 1.21139(11)
C11 C 0.14442(12) 0.48053(11) 0.55801(14)
C12 C 0.12742(13) 0.57446(12) 0.57936(15)
H7 H 0.1219 0.6251 0.5241
C13 C 0.12059(13) 0.57607(11) 0.69923(15)
H8 H 0.1093 0.6295 0.7451
C14 C 0.12668(13) 0.45438(11) 0.85869(14)
C15 C 0.17935(14) 0.50527(12) 0.95936(14)
H9 H 0.2199 0.5606 0.9497
C16 C 0.17222(14) 0.47461(12) 1.07472(14)
H10 H 0.2076 0.5096 1.1441
C17 C 0.11386(14) 0.39334(12) 1.08980(14)
H11 H 0.1103 0.3726 1.1691
C18 C 0.06081(13) 0.34260(12) 0.98896(14)
H12 H 0.0208 0.2871 0.9991
C19 C 0.06627(13) 0.37311(11) 0.87228(14)
C20 C 0.00485(13) 0.32129(11) 0.76964(14)
N5 N 0.14860(11) 0.42577(10) 0.65380(11)
N6 N 0.13302(11) 0.48675(9) 0.74053(11)
N7 N 0.15804(11) 0.43992(10) 0.44399(12)
N8 N -0.04769(12) 0.27791(10) 0.69183(12)
O3 O 0.17717(11) 0.35621(8) 0.43968(11)
O4 O 0.14921(11) 0.49352(9) 0.35726(10)
loop_
_geom_bond_atom_site_label_1
_geom_bond_atom_site_label_2
_geom_bond_site_symmetry_1
_geom_bond_site_symmetry_2
C1 C2 1_555 1_555
C2 H1 1_555 1_555
C3 C2 1_555 1_555
H2 C3 1_555 1_555
C4 C5 1_555 1_555
C5 H3 1_555 1_555
C6 C5 1_555 1_555
H4 C6 1_555 1_555
C7 C6 1_555 1_555
H5 C7 1_555 1_555
C8 C7 1_555 1_555
H6 C8 1_555 1_555
C9 C4 1_555 1_555
C10 C9 1_555 1_555
N1 C1 1_555 1_555
N2 C3 1_555 1_555
N3 C1 1_555 1_555
N4 C10 1_555 1_555
O1 N3 1_555 1_555
O2 N3 1_555 1_555
C11 C12 1_555 1_555
C12 H7 1_555 1_555
C13 C12 1_555 1_555
H8 C13 1_555 1_555
C14 C15 1_555 1_555
C15 H9 1_555 1_555
C16 C15 1_555 1_555
H10 C16 1_555 1_555
C17 C16 1_555 1_555
H11 C17 1_555 1_555
C18 C17 1_555 1_555
H12 C18 1_555 1_555
C19 C14 1_555 1_555
C20 C19 1_555 1_555
N5 C11 1_555 1_555
N6 C13 1_555 1_555
N7 C11 1_555 1_555
N8 C20 1_555 1_555
O3 N7 1_555 1_555
O4 N7 1_555 1_555
C4 N2 1_555 1_555
C8 C9 1_555 1_555
N1 N2 1_555 1_555
C14 N6 1_555 1_555
C18 C19 1_555 1_555
N5 N6 1_555 1_555

#END
