
#######################################################################
#
#                 Cambridge Crystallographic Data Centre
#                                CCDC 
#
#######################################################################
#
# If this CIF has been generated from an entry in the Cambridge 
# Structural Database, then it will include bibliographic, chemical, 
# crystal, experimental, refinement or atomic coordinate data resulting 
# from the CCDC's data processing and validation procedures.
#
#######################################################################

data_QEDHOZ
_chemical_formula_moiety         'C10 H6 N4 O2'
_chemical_name_systematic        4-(3-nitro-1H-pyrazol-1-yl)benzonitrile
_symmetry_cell_setting           monoclinic
_symmetry_space_group_name_H-M   'P 21/n'
_symmetry_Int_Tables_number      14
_space_group_name_Hall           '-P 2yn'
loop_
_symmetry_equiv_pos_site_id
_symmetry_equiv_pos_as_xyz
1 x,y,z
2 1/2-x,1/2+y,1/2-z
3 -x,-y,-z
4 1/2+x,1/2-y,1/2+z
_cell_length_a                   3.7941(2)
_cell_length_b                   13.5676(10)
_cell_length_c                   18.5776(13)
_cell_angle_alpha                90
_cell_angle_beta                 90.690(4)
_cell_angle_gamma                90
_cell_volume                     956.247
_exptl_crystal_colour            colorless
_exptl_crystal_description       needle
_cell_formula_units_Z            4
loop_
_atom_site_label
_atom_site_type_symbol
_atom_site_fract_x
_atom_site_fract_y
_atom_site_fract_z
N1 N 0.0971(3) 0.46708(9) 0.63809(7)
C1 C -0.0634(5) 0.49791(13) 0.69660(8)
C2 C -0.0905(4) 0.42809(11) 0.75108(8)
H1 H -0.1945 0.4350 0.7971
C3 C 0.0691(4) 0.34728(11) 0.72225(7)
H2 H 0.0998 0.2851 0.7449
N2 N 0.1768(3) 0.37249(9) 0.65454(6)
C4 C 0.3434(5) 0.31111(12) 0.60263(9)
C5 C 0.4418(4) 0.35078(11) 0.53714(8)
H3 H 0.4017 0.4185 0.5271
C6 C 0.5987(4) 0.29085(13) 0.48657(9)
H4 H 0.6685 0.3174 0.4416
C7 C 0.6543(5) 0.19161(13) 0.50161(9)
C8 C 0.5569(4) 0.15241(12) 0.56769(9)
H5 H 0.5986 0.0848 0.5780
C9 C 0.3995(4) 0.21213(12) 0.61822(8)
H6 H 0.3302 0.1858 0.6633
C10 C 0.8152(4) 0.12825(12) 0.44882(9)
N3 N 0.9395(10) 0.0762(2) 0.40877(16)
N4 N -0.1952(5) 0.59714(11) 0.69960(9)
O1 O -0.1158(3) 0.65613(8) 0.65292(7)
O2 O -0.3823(6) 0.61735(14) 0.75148(7)
N1B N 0.9029(3) 0.53292(9) 0.36191(7)
C1B C 1.0634(5) 0.50209(13) 0.30340(8)
C2B C 1.0905(4) 0.57191(11) 0.24892(8)
H1B H 1.1945 0.5650 0.2029
C3B C 0.9309(4) 0.65272(11) 0.27775(7)
H2B H 0.9002 0.7149 0.2551
N2B N 0.8232(3) 0.62751(9) 0.34546(6)
C4B C 0.6566(5) 0.68889(12) 0.39737(9)
C5B C 0.5582(4) 0.64922(11) 0.46286(8)
H3B H 0.5983 0.5815 0.4729
C6B C 0.4013(4) 0.70915(13) 0.51343(9)
H4B H 0.3315 0.6826 0.5584
C7B C 0.3457(5) 0.80839(13) 0.49839(9)
C8B C 0.4431(4) 0.84759(12) 0.43231(9)
H5B H 0.4014 0.9152 0.4220
C9B C 0.6005(4) 0.78787(12) 0.38178(8)
H6B H 0.6698 0.8142 0.3367
C10B C 0.1848(4) 0.87175(12) 0.55118(9)
N3B N 0.0605(10) 0.9238(2) 0.59123(16)
N4B N 1.1952(5) 0.40286(11) 0.30040(9)
O1B O 1.1158(3) 0.34387(8) 0.34708(7)
O2B O 1.3823(6) 0.38265(14) 0.24852(7)
N5? N 0.599(5) 0.2642(13) 0.5054(8)
C11? C 0.702(7) 0.1748(15) 0.4871(10)
C12? C 0.616(4) 0.1084(12) 0.5406(8)
H7? H 0.6635 0.0396 0.5415
C13? C 0.451(5) 0.1623(12) 0.5916(9)
H8? H 0.3545 0.1367 0.6347
N6? N 0.446(3) 0.2571(8) 0.5718(6)
C14? C 0.294(7) 0.3384(12) 0.6097(10)
C15? C 0.246(4) 0.4278(9) 0.5709(8)
H9? H 0.3228 0.4339 0.5226
C16? C 0.084(4) 0.5057(12) 0.6054(8)
H10? H 0.0540 0.5674 0.5818
C17? C -0.036(7) 0.4921(15) 0.6759(10)
C18? C 0.020(4) 0.4066(11) 0.7152(9)
H11? H -0.0554 0.3997 0.7636
C19? C 0.188(4) 0.3340(12) 0.6801(9)
H12? H 0.2383 0.2752 0.7060
C20? C -0.211(9) 0.5754(18) 0.7103(13)
N7? N -0.408(9) 0.629(2) 0.7354(14)
N8? N 0.870(4) 0.1614(9) 0.4192(7)
O3? O 0.914(4) 0.2332(9) 0.3810(7)
O4? O 0.966(11) 0.0804(18) 0.3968(18)
loop_
_geom_bond_atom_site_label_1
_geom_bond_atom_site_label_2
_geom_bond_site_symmetry_1
_geom_bond_site_symmetry_2
N1 C1 1_555 1_555
C1 C2 1_555 1_555
C2 H1 1_555 1_555
C3 C2 1_555 1_555
H2 C3 1_555 1_555
N2 N1 1_555 1_555
C4 N2 1_555 1_555
C5 C4 1_555 1_555
H3 C5 1_555 1_555
C6 C5 1_555 1_555
H4 C6 1_555 1_555
C7 C6 1_555 1_555
C8 C7 1_555 1_555
H5 C8 1_555 1_555
C9 C4 1_555 1_555
H6 C9 1_555 1_555
C10 C7 1_555 1_555
N3 C10 1_555 1_555
N4 C1 1_555 1_555
O1 N4 1_555 1_555
O2 N4 1_555 1_555
N1B C1B 1_555 1_555
C1B C2B 1_555 1_555
C2B H1B 1_555 1_555
C3B C2B 1_555 1_555
H2B C3B 1_555 1_555
N2B N1B 1_555 1_555
C4B N2B 1_555 1_555
C5B C4B 1_555 1_555
H3B C5B 1_555 1_555
C6B C5B 1_555 1_555
H4B C6B 1_555 1_555
C7B C6B 1_555 1_555
C8B C7B 1_555 1_555
H5B C8B 1_555 1_555
C9B C4B 1_555 1_555
H6B C9B 1_555 1_555
C10B C7B 1_555 1_555
N3B C10B 1_555 1_555
N4B C1B 1_555 1_555
O1B N4B 1_555 1_555
O2B N4B 1_555 1_555
C3 N2 1_555 1_555
C8 C9 1_555 1_555
C3B N2B 1_555 1_555
C8B C9B 1_555 1_555

#END
