
#######################################################################
#
#                 Cambridge Crystallographic Data Centre
#                                CCDC 
#
#######################################################################
#
# If this CIF has been generated from an entry in the Cambridge 
# Structural Database, then it will include bibliographic, chemical, 
# crystal, experimental, refinement or atomic coordinate data resulting 
# from the CCDC's data processing and validation procedures.
#
#######################################################################

data_QEDHIT
_chemical_formula_moiety         'C9 H6 N4 O4'
_chemical_name_systematic        3-nitro-1-(2-nitrophenyl)-1H-pyrazole
_symmetry_cell_setting           monoclinic
_symmetry_space_group_name_H-M   'P 21/n'
_symmetry_Int_Tables_number      14
_space_group_name_Hall           '-P 2yn'
loop_
_symmetry_equiv_pos_site_id
_symmetry_equiv_pos_as_xyz
1 x,y,z
2 1/2-x,1/2+y,1/2-z
3 -x,-y,-z
4 1/2+x,1/2-y,1/2+z
_cell_length_a                   10.0313(10)
_cell_length_b                   3.8374(4)
_cell_length_c                   25.196(2)
_cell_angle_alpha                90
_cell_angle_beta                 96.953(6)
_cell_angle_gamma                90
_cell_volume                     962.765
_exptl_crystal_colour            colorless
_exptl_crystal_description       needle
_cell_formula_units_Z            4
loop_
_atom_site_label
_atom_site_type_symbol
_atom_site_fract_x
_atom_site_fract_y
_atom_site_fract_z
C1 C 0.34713(19) 0.7587(6) 0.64656(7)
C2 C 0.39397(19) 0.5992(6) 0.69495(7)
H1 H 0.3505 0.5801 0.7263
C3 C 0.51704(19) 0.4773(5) 0.68639(7)
H2 H 0.5779 0.3516 0.7112
C4 C 0.64609(19) 0.4828(5) 0.60650(7)
C5 C 0.7808(2) 0.5099(5) 0.62752(7)
C6 C 0.8822(2) 0.4081(6) 0.59782(8)
H3 H 0.9735 0.4200 0.6130
C7 C 0.8494(2) 0.2896(6) 0.54615(7)
H4 H 0.9185 0.2258 0.5254
C8 C 0.7166(2) 0.2634(6) 0.52456(7)
H5 H 0.6943 0.1828 0.4889
C9 C 0.6153(2) 0.3552(5) 0.55510(7)
H6 H 0.5240 0.3299 0.5405
N1 N 0.43130(15) 0.7438(5) 0.60984(6)
N2 N 0.53686(15) 0.5691(5) 0.63564(6)
N3 N 0.22086(16) 0.9379(5) 0.63357(6)
N4 N 0.82376(16) 0.6506(5) 0.68118(6)
O1 O 0.19304(15) 1.0617(5) 0.58876(6)
O2 O 0.14804(15) 0.9570(5) 0.66951(6)
O3 O 0.92688(14) 0.5332(4) 0.70531(5)
O4 O 0.75516(14) 0.8793(4) 0.69869(5)
loop_
_geom_bond_atom_site_label_1
_geom_bond_atom_site_label_2
_geom_bond_site_symmetry_1
_geom_bond_site_symmetry_2
C1 C2 1_555 1_555
C2 H1 1_555 1_555
C3 C2 1_555 1_555
H2 C3 1_555 1_555
C4 C5 1_555 1_555
C5 C6 1_555 1_555
C6 H3 1_555 1_555
C7 C6 1_555 1_555
H4 C7 1_555 1_555
C8 C7 1_555 1_555
H5 C8 1_555 1_555
C9 C4 1_555 1_555
H6 C9 1_555 1_555
N1 C1 1_555 1_555
N2 C3 1_555 1_555
N3 C1 1_555 1_555
N4 C5 1_555 1_555
O1 N3 1_555 1_555
O2 N3 1_555 1_555
O3 N4 1_555 1_555
O4 N4 1_555 1_555
C4 N2 1_555 1_555
C8 C9 1_555 1_555
N1 N2 1_555 1_555

#END
