
#######################################################################
#
#                 Cambridge Crystallographic Data Centre
#                                CCDC 
#
#######################################################################
#
# If this CIF has been generated from an entry in the Cambridge 
# Structural Database, then it will include bibliographic, chemical, 
# crystal, experimental, refinement or atomic coordinate data resulting 
# from the CCDC's data processing and validation procedures.
#
#######################################################################

data_QEDJOA
_chemical_compound_source        'Burkholderia thailandensis MSMB43'
_chemical_formula_moiety         'C24 H36 N4 O6 S2'
_chemical_name_systematic        
(1S,4S,7Z,10S,16E,21R)-7-ethylidene-4,21-di(propan-2-yl)-2-oxa-12,13-dithia-5,8,20,23-tetrazabicyclo[8.7.6]tricos-16-ene-3,6,9,19,22-pentone
_symmetry_cell_setting           monoclinic
_symmetry_space_group_name_H-M   'P 21'
_symmetry_Int_Tables_number      4
_space_group_name_Hall           'P 2yb'
loop_
_symmetry_equiv_pos_site_id
_symmetry_equiv_pos_as_xyz
1 x,y,z
2 -x,1/2+y,-z
_cell_length_a                   9.1085(2)
_cell_length_b                   16.2431(4)
_cell_length_c                   9.4192(2)
_cell_angle_alpha                90
_cell_angle_beta                 92.0960(10)
_cell_angle_gamma                90
_cell_volume                     1392.64
_exptl_crystal_colour            colorless
_exptl_crystal_description       block
_cell_formula_units_Z            2
_exptl_crystal_recrystallization_method 'ethyl acetate'
loop_
_atom_site_label
_atom_site_type_symbol
_atom_site_fract_x
_atom_site_fract_y
_atom_site_fract_z
S1 S 0.21741(4) 0.87614(3) 0.41260(4)
S2 S 0.21966(4) 0.75561(3) 0.35057(4)
O1 O 0.47759(11) 0.86900(7) -0.17912(11)
O2 O 0.54893(12) 0.83426(7) -0.39718(11)
O3 O 0.73140(12) 1.08712(7) -0.12864(11)
O4 O 0.48889(12) 1.02648(7) 0.11054(12)
O5 O 0.68455(11) 0.76827(7) -0.04745(11)
O6 O 0.74839(11) 0.82368(7) 0.32442(11)
N1 N 0.72350(14) 0.94804(8) -0.11503(13)
H1 H 0.724(2) 0.9060(13) -0.063(2)
N2 N 0.70812(14) 0.97489(8) 0.18875(13)
H2 H 0.750(2) 0.9394(13) 0.237(2)
N3 N 0.54236(14) 0.69120(8) 0.09041(13)
H3 H 0.467(2) 0.6595(13) 0.099(2)
N4 N 0.51449(14) 0.83271(8) 0.23715(14)
H4 H 0.454(2) 0.8103(13) 0.195(2)
C1 C 0.37318(16) 0.80077(9) -0.18177(16)
H5 H 0.3247 0.7979 -0.2786
C2 C 0.56600(16) 0.87327(10) -0.28962(14)
C3 C 0.68786(16) 0.93675(10) -0.26594(15)
H6 H 0.6488 0.9905 -0.3027
C4 C 0.74312(15) 1.02321(10) -0.05887(15)
C5 C 0.78862(16) 1.02503(9) 0.09680(15)
C6 C 0.55899(17) 0.97821(9) 0.18570(15)
C7 C 0.48646(16) 0.91621(10) 0.28501(15)
H7 H 0.5281 0.9234 0.3839
C8 C 0.32175(17) 0.93220(10) 0.28278(16)
H8 H 0.2808 0.9185 0.1869
H9 H 0.3061 0.9918 0.2977
C9 C 0.05712(16) 0.74578(10) 0.23338(17)
H10 H 0.0435 0.6869 0.2092
H11 H -0.0295 0.7635 0.2860
C10 C 0.06058(16) 0.79491(11) 0.09558(17)
H12 H -0.0326 0.7857 0.0404
H13 H 0.0667 0.8543 0.1189
C11 C 0.18736(16) 0.77249(10) 0.00426(16)
H14 H 0.2182 0.7166 0.0052
C12 C 0.25928(16) 0.82409(10) -0.07712(17)
H15 H 0.2369 0.8810 -0.0687
C13 C 0.45645(17) 0.71982(10) -0.15341(15)
H16 H 0.3854 0.6764 -0.1291
H17 H 0.5048 0.7027 -0.2411
C14 C 0.57163(16) 0.72764(9) -0.03355(15)
C15 C 0.64392(16) 0.70259(9) 0.21230(15)
H18 H 0.7451 0.6916 0.1792
C16 C 0.64070(16) 0.79203(9) 0.26422(14)
C17 C 0.82380(17) 0.91592(10) -0.35219(16)
H19 H 0.7900 0.9098 -0.4539
C18 C 0.93314(19) 0.98732(11) -0.34389(17)
H20 H 0.8836 1.0383 -0.3742
H21 H 1.0145 0.9761 -0.4063
H22 H 0.9714 0.9934 -0.2459
C19 C 0.89729(19) 0.83572(11) -0.30681(18)
H23 H 0.9370 0.8410 -0.2091
H24 H 0.9773 0.8234 -0.3703
H25 H 0.8250 0.7910 -0.3118
C20 C 0.90281(18) 1.07072(10) 0.14031(17)
H26 H 0.9536 1.1000 0.0699
C21 C 0.9578(2) 1.07966(13) 0.2911(2)
H27 H 0.8802 1.0637 0.3550
H28 H 0.9856 1.1371 0.3093
H29 H 1.0436 1.0441 0.3079
C22 C 0.61246(18) 0.63859(10) 0.32827(17)
H30 H 0.5052 0.6402 0.3475
C23 C 0.65029(19) 0.55289(10) 0.27385(19)
H31 H 0.5935 0.5418 0.1855
H32 H 0.6262 0.5117 0.3453
H33 H 0.7555 0.5502 0.2558
C24 C 0.6992(2) 0.65666(11) 0.46668(18)
H34 H 0.8045 0.6571 0.4488
H35 H 0.6786 0.6140 0.5368
H36 H 0.6700 0.7105 0.5033
loop_
_geom_bond_atom_site_label_1
_geom_bond_atom_site_label_2
_geom_bond_site_symmetry_1
_geom_bond_site_symmetry_2
S1 S2 1_555 1_555
S2 C9 1_555 1_555
O1 C1 1_555 1_555
O2 C2 1_555 1_555
O3 C4 1_555 1_555
O4 C6 1_555 1_555
O5 C14 1_555 1_555
O6 C16 1_555 1_555
N1 H1 1_555 1_555
N2 H2 1_555 1_555
N3 H3 1_555 1_555
N4 H4 1_555 1_555
C1 H5 1_555 1_555
C2 O1 1_555 1_555
C3 N1 1_555 1_555
H6 C3 1_555 1_555
C4 N1 1_555 1_555
C5 N2 1_555 1_555
C6 N2 1_555 1_555
C7 N4 1_555 1_555
H7 C7 1_555 1_555
C8 S1 1_555 1_555
H8 C8 1_555 1_555
H9 C8 1_555 1_555
C9 H10 1_555 1_555
H11 C9 1_555 1_555
C10 C9 1_555 1_555
H12 C10 1_555 1_555
H13 C10 1_555 1_555
C11 C10 1_555 1_555
H14 C11 1_555 1_555
C12 C1 1_555 1_555
H15 C12 1_555 1_555
C13 C1 1_555 1_555
H16 C13 1_555 1_555
H17 C13 1_555 1_555
C14 N3 1_555 1_555
C15 N3 1_555 1_555
H18 C15 1_555 1_555
C16 N4 1_555 1_555
C17 C3 1_555 1_555
H19 C17 1_555 1_555
C18 C17 1_555 1_555
H20 C18 1_555 1_555
H21 C18 1_555 1_555
H22 C18 1_555 1_555
C19 C17 1_555 1_555
H23 C19 1_555 1_555
H24 C19 1_555 1_555
H25 C19 1_555 1_555
C20 C5 1_555 1_555
H26 C20 1_555 1_555
C21 C20 1_555 1_555
H27 C21 1_555 1_555
H28 C21 1_555 1_555
H29 C21 1_555 1_555
C22 C15 1_555 1_555
H30 C22 1_555 1_555
C23 C22 1_555 1_555
H31 C23 1_555 1_555
H32 C23 1_555 1_555
H33 C23 1_555 1_555
C24 C22 1_555 1_555
H34 C24 1_555 1_555
H35 C24 1_555 1_555
H36 C24 1_555 1_555
C2 C3 1_555 1_555
C4 C5 1_555 1_555
C6 C7 1_555 1_555
C7 C8 1_555 1_555
C11 C12 1_555 1_555
C13 C14 1_555 1_555
C15 C16 1_555 1_555

#END
