
#######################################################################
#
#                 Cambridge Crystallographic Data Centre
#                                CCDC 
#
#######################################################################
#
# If this CIF has been generated from an entry in the Cambridge 
# Structural Database, then it will include bibliographic, chemical, 
# crystal, experimental, refinement or atomic coordinate data resulting 
# from the CCDC's data processing and validation procedures.
#
#######################################################################

data_QEDJAN
_chemical_formula_moiety         'C12 H11 N3 O4'
_chemical_name_systematic        'ethyl 4-(3-nitro-1H-pyrazol-1-yl)benzoate'
_symmetry_cell_setting           monoclinic
_symmetry_space_group_name_H-M   'P 21/n'
_symmetry_Int_Tables_number      14
_space_group_name_Hall           '-P 2yn'
loop_
_symmetry_equiv_pos_site_id
_symmetry_equiv_pos_as_xyz
1 x,y,z
2 1/2-x,1/2+y,1/2-z
3 -x,-y,-z
4 1/2+x,1/2-y,1/2+z
_cell_length_a                   3.79733(6)
_cell_length_b                   11.3573(2)
_cell_length_c                   26.8872(4)
_cell_angle_alpha                90
_cell_angle_beta                 91.2826(10)
_cell_angle_gamma                90
_cell_volume                     1159.28
_exptl_crystal_colour            colorless
_exptl_crystal_description       needle
_cell_formula_units_Z            4
loop_
_atom_site_label
_atom_site_type_symbol
_atom_site_fract_x
_atom_site_fract_y
_atom_site_fract_z
C1 C 1.0794(4) 0.33707(13) 0.55261(5)
C2 C 1.1736(4) 0.45484(13) 0.55920(5)
H1 H 1.2934 0.5050 0.5369
C3 C 1.0524(4) 0.48073(13) 0.60530(5)
H2 H 1.0708 0.5544 0.6219
C4 C 0.7442(3) 0.36252(12) 0.67036(5)
C5 C 0.7198(4) 0.45561(12) 0.70376(5)
H3 H 0.7985 0.5320 0.6949
C6 C 0.5791(4) 0.43533(12) 0.75010(5)
H4 H 0.5632 0.4983 0.7732
C7 C 0.4608(3) 0.32371(12) 0.76322(5)
C8 C 0.4830(4) 0.23225(12) 0.72873(5)
H5 H 0.4004 0.1561 0.7372
C9 C 0.6230(4) 0.25092(12) 0.68251(5)
H6 H 0.6364 0.1882 0.6592
C10 C 0.3118(4) 0.29686(12) 0.81257(5)
C11 C 0.1244(4) 0.37032(13) 0.89015(5)
H7 H 0.3104 0.3349 0.9118
H8 H -0.0773 0.3152 0.8881
C12 C 0.0095(4) 0.48643(14) 0.91115(6)
H9 H -0.1823 0.5188 0.8904
H10 H 0.2087 0.5413 0.9117
H11 H -0.0728 0.4748 0.9451
N1 N 0.9132(3) 0.29015(10) 0.59055(4)
N2 N 0.8991(3) 0.38058(10) 0.62321(4)
N3 N 1.1469(3) 0.26442(11) 0.50953(4)
O1 O 1.0213(3) 0.16547(9) 0.50736(4)
O2 O 1.3284(3) 0.30937(10) 0.47697(4)
O3 O 0.2601(3) 0.39241(9) 0.84039(3)
O4 O 0.2424(3) 0.19772(9) 0.82608(4)
loop_
_geom_bond_atom_site_label_1
_geom_bond_atom_site_label_2
_geom_bond_site_symmetry_1
_geom_bond_site_symmetry_2
C1 C2 1_555 1_555
C2 H1 1_555 1_555
C3 C2 1_555 1_555
H2 C3 1_555 1_555
C4 C5 1_555 1_555
C5 H3 1_555 1_555
C6 C5 1_555 1_555
H4 C6 1_555 1_555
C7 C6 1_555 1_555
C8 C7 1_555 1_555
H5 C8 1_555 1_555
C9 C4 1_555 1_555
H6 C9 1_555 1_555
C10 C7 1_555 1_555
C11 H7 1_555 1_555
H8 C11 1_555 1_555
C12 C11 1_555 1_555
H9 C12 1_555 1_555
H10 C12 1_555 1_555
H11 C12 1_555 1_555
N1 C1 1_555 1_555
N2 C3 1_555 1_555
N3 C1 1_555 1_555
O1 N3 1_555 1_555
O2 N3 1_555 1_555
O3 C10 1_555 1_555
O4 C10 1_555 1_555
C4 N2 1_555 1_555
C8 C9 1_555 1_555
C11 O3 1_555 1_555
N1 N2 1_555 1_555

#END
