
#######################################################################
#
#                 Cambridge Crystallographic Data Centre
#                                CCDC 
#
#######################################################################
#
# If this CIF has been generated from an entry in the Cambridge 
# Structural Database, then it will include bibliographic, chemical, 
# crystal, experimental, refinement or atomic coordinate data resulting 
# from the CCDC's data processing and validation procedures.
#
#######################################################################

data_QEDJIV
_chemical_formula_moiety         'C8 H5 N5 O4'
_chemical_name_systematic        5-nitro-2-(3-nitro-1H-pyrazol-1-yl)pyridine
_symmetry_cell_setting           orthorhombic
_symmetry_space_group_name_H-M   'P c a 21'
_symmetry_Int_Tables_number      29
_space_group_name_Hall           'P 2c -2ac'
loop_
_symmetry_equiv_pos_site_id
_symmetry_equiv_pos_as_xyz
1 x,y,z
2 -x,-y,1/2+z
3 1/2+x,-y,z
4 1/2-x,y,1/2+z
_cell_length_a                   17.4187(5)
_cell_length_b                   4.93570(10)
_cell_length_c                   20.9705(6)
_cell_angle_alpha                90
_cell_angle_beta                 90
_cell_angle_gamma                90
_cell_volume                     1802.91
_exptl_crystal_colour            colorless
_exptl_crystal_description       needle
_cell_formula_units_Z            8
loop_
_atom_site_label
_atom_site_type_symbol
_atom_site_fract_x
_atom_site_fract_y
_atom_site_fract_z
C1 C 0.54952(19) -0.1750(7) 0.64235(16)
C2 C 0.55245(19) -0.1084(7) 0.70731(17)
H1 H 0.5827 -0.1890 0.7399
C3 C 0.50115(19) 0.1006(7) 0.71250(16)
H2 H 0.4888 0.1989 0.7501
C4 C 0.41295(18) 0.3289(7) 0.63578(16)
C5 C 0.3834(2) 0.3350(7) 0.57395(16)
H3 H 0.4014 0.2145 0.5419
C6 C 0.32700(19) 0.5232(7) 0.56134(17)
H4 H 0.3043 0.5362 0.5203
C7 C 0.30452(19) 0.6932(7) 0.61067(16)
C8 C 0.33760(19) 0.6735(7) 0.67025(16)
H5 H 0.3213 0.7938 0.7029
N1 N 0.50073(17) -0.0297(6) 0.60860(16)
N2 N 0.47101(16) 0.1402(5) 0.65278(13)
N3 N 0.39193(16) 0.4903(6) 0.68350(15)
N4 N 0.59286(15) -0.3892(6) 0.61155(14)
N5 N 0.24561(17) 0.9004(6) 0.60051(14)
O1 O 0.58976(14) -0.4096(6) 0.55337(11)
O2 O 0.62997(13) -0.5387(5) 0.64683(13)
O3 O 0.22963(13) 1.0500(5) 0.64567(13)
O4 O 0.21593(14) 0.9142(6) 0.54792(11)
C9 C 0.81341(18) 0.3238(7) 0.35881(16)
C10 C 0.81738(18) 0.3925(7) 0.29402(16)
H6 H 0.8483 0.3136 0.2616
C11 C 0.76619(19) 0.5998(7) 0.28877(16)
H7 H 0.7539 0.6966 0.2510
C12 C 0.67832(18) 0.8337(7) 0.36463(16)
C13 C 0.64936(19) 0.8452(7) 0.42629(16)
H8 H 0.6675 0.7268 0.4587
C14 C 0.59285(19) 1.0366(8) 0.43880(18)
H9 H 0.5706 1.0534 0.4800
C15 C 0.57029(19) 1.2017(7) 0.38896(16)
C16 C 0.60268(18) 1.1773(7) 0.32896(16)
H10 H 0.5860 1.2946 0.2958
N6 N 0.76461(16) 0.4719(6) 0.39269(15)
N7 N 0.73581(16) 0.6426(6) 0.34816(13)
N8 N 0.65687(15) 0.9930(6) 0.31643(16)
N9 N 0.85579(15) 0.1079(6) 0.39006(14)
N10 N 0.51107(16) 1.4082(6) 0.39837(13)
O5 O 0.84969(14) 0.0813(6) 0.44781(12)
O6 O 0.89412(13) -0.0383(5) 0.35493(13)
O7 O 0.49535(14) 1.5553(6) 0.35263(13)
O8 O 0.48043(14) 1.4254(5) 0.45070(12)
loop_
_geom_bond_atom_site_label_1
_geom_bond_atom_site_label_2
_geom_bond_site_symmetry_1
_geom_bond_site_symmetry_2
C1 C2 1_555 1_555
C2 H1 1_555 1_555
C3 C2 1_555 1_555
H2 C3 1_555 1_555
C4 C5 1_555 1_555
C5 H3 1_555 1_555
C6 C5 1_555 1_555
H4 C6 1_555 1_555
C7 C6 1_555 1_555
C8 C7 1_555 1_555
H5 C8 1_555 1_555
N1 C1 1_555 1_555
N2 C3 1_555 1_555
N3 C4 1_555 1_555
N4 C1 1_555 1_555
N5 C7 1_555 1_555
O1 N4 1_555 1_555
O2 N4 1_555 1_555
O3 N5 1_555 1_555
O4 N5 1_555 1_555
C9 C10 1_555 1_555
C10 H6 1_555 1_555
C11 C10 1_555 1_555
H7 C11 1_555 1_555
C12 C13 1_555 1_555
C13 H8 1_555 1_555
C14 C13 1_555 1_555
H9 C14 1_555 1_555
C15 C14 1_555 1_555
C16 C15 1_555 1_555
H10 C16 1_555 1_555
N6 C9 1_555 1_555
N7 C11 1_555 1_555
N8 C12 1_555 1_555
N9 C9 1_555 1_555
N10 C15 1_555 1_555
O5 N9 1_555 1_555
O6 N9 1_555 1_555
O7 N10 1_555 1_555
O8 N10 1_555 1_555
C4 N2 1_555 1_555
C8 N3 1_555 1_555
N1 N2 1_555 1_555
C12 N7 1_555 1_555
C16 N8 1_555 1_555
N6 N7 1_555 1_555

#END
