
#######################################################################
#
#                 Cambridge Crystallographic Data Centre
#                                CCDC 
#
#######################################################################
#
# If this CIF has been generated from an entry in the Cambridge 
# Structural Database, then it will include bibliographic, chemical, 
# crystal, experimental, refinement or atomic coordinate data resulting 
# from the CCDC's data processing and validation procedures.
#
#######################################################################

data_QEDKES
_chemical_formula_moiety         'C8 H5 Br1 N4 O2'
_chemical_name_systematic        5-bromo-2-(3-nitro-1H-pyrazol-1-yl)pyridine
_symmetry_cell_setting           monoclinic
_symmetry_space_group_name_H-M   'P 21/c'
_symmetry_Int_Tables_number      14
_space_group_name_Hall           '-P 2ybc'
loop_
_symmetry_equiv_pos_site_id
_symmetry_equiv_pos_as_xyz
1 x,y,z
2 -x,1/2+y,1/2-z
3 -x,-y,-z
4 x,1/2-y,1/2+z
_cell_length_a                   3.77840(10)
_cell_length_b                   24.5524(6)
_cell_length_c                   9.8852(3)
_cell_angle_alpha                90
_cell_angle_beta                 97.1767(16)
_cell_angle_gamma                90
_cell_volume                     909.854
_exptl_crystal_colour            colorless
_exptl_crystal_description       plate
_cell_formula_units_Z            4
loop_
_atom_site_label
_atom_site_type_symbol
_atom_site_fract_x
_atom_site_fract_y
_atom_site_fract_z
C1 C 0.3095(5) 0.48030(7) 0.63478(18)
H1 H 0.2237 0.5129 0.5906
C2 C 0.5265(5) 0.48397(7) 0.75819(19)
C3 C 0.6528(5) 0.43696(7) 0.82540(18)
H2 H 0.8014 0.4388 0.9102
C4 C 0.5563(5) 0.38735(7) 0.76550(18)
H3 H 0.6350 0.3540 0.8078
C5 C 0.3401(5) 0.38812(7) 0.64127(18)
C6 C 0.1970(5) 0.25419(7) 0.54543(18)
C7 C -0.0021(5) 0.27614(8) 0.42933(18)
H4 H -0.1274 0.2576 0.3537
C8 C 0.0285(5) 0.33110(7) 0.45182(18)
H5 H -0.0735 0.3591 0.3931
N1 N 0.2158(4) 0.43241(6) 0.57533(15)
N2 N 0.2336(4) 0.33808(6) 0.57485(15)
N3 N 0.3415(4) 0.29052(6) 0.63473(15)
N4 N 0.2622(4) 0.19707(6) 0.57572(16)
O1 O 0.4758(4) 0.18476(6) 0.67413(14)
O2 O 0.0978(4) 0.16400(5) 0.49827(14)
Br1 Br 0.64613(5) 0.55373(2) 0.82974(2)
loop_
_geom_bond_atom_site_label_1
_geom_bond_atom_site_label_2
_geom_bond_site_symmetry_1
_geom_bond_site_symmetry_2
C1 H1 1_555 1_555
C2 C1 1_555 1_555
C3 C2 1_555 1_555
H2 C3 1_555 1_555
C4 C3 1_555 1_555
H3 C4 1_555 1_555
C5 C4 1_555 1_555
C6 C7 1_555 1_555
C7 H4 1_555 1_555
C8 C7 1_555 1_555
H5 C8 1_555 1_555
N1 C1 1_555 1_555
N2 C5 1_555 1_555
N3 C6 1_555 1_555
N4 C6 1_555 1_555
O1 N4 1_555 1_555
O2 N4 1_555 1_555
Br1 C2 1_555 1_555
C5 N1 1_555 1_555
C8 N2 1_555 1_555
N2 N3 1_555 1_555

#END
