
#######################################################################
#
#                 Cambridge Crystallographic Data Centre
#                                CCDC 
#
#######################################################################
#
# If this CIF has been generated from an entry in the Cambridge 
# Structural Database, then it will include bibliographic, chemical, 
# crystal, experimental, refinement or atomic coordinate data resulting 
# from the CCDC's data processing and validation procedures.
#
#######################################################################

data_QEDKIV
_chemical_formula_moiety         'C29 H26 N2 O4'
_chemical_name_systematic        
"Diethyl 3,3'-(phenylmethylene)bis(1H-indole-2-carboxylate)"
_symmetry_cell_setting           triclinic
_symmetry_space_group_name_H-M   'P -1'
_symmetry_Int_Tables_number      2
_space_group_name_Hall           '-P 1'
loop_
_symmetry_equiv_pos_site_id
_symmetry_equiv_pos_as_xyz
1 x,y,z
2 -x,-y,-z
_cell_length_a                   8.7340(17)
_cell_length_b                   9.871(2)
_cell_length_c                   15.000(3)
_cell_angle_alpha                76.14(3)
_cell_angle_beta                 83.91(3)
_cell_angle_gamma                83.09(3)
_cell_volume                     1242.42
_exptl_crystal_colour            colorless
_exptl_crystal_description       block
_cell_formula_units_Z            2
loop_
_atom_site_label
_atom_site_type_symbol
_atom_site_fract_x
_atom_site_fract_y
_atom_site_fract_z
N1 N 0.1091(2) 1.1102(2) 0.57403(13)
H1 H 0.0562 1.1030 0.5305
O1 O 0.3652(2) 0.79594(18) 0.61548(14)
C1 C 0.0036(3) 1.3484(3) 0.59245(18)
H2 H -0.0653 1.3654 0.5469
N2 N 0.3177(2) 0.6564(2) 0.93548(13)
H3 H 0.3453 0.5760 0.9700
O2 O 0.1783(2) 0.8636(2) 0.51907(13)
C2 C 0.0155(3) 1.4450(3) 0.64135(19)
H4 H -0.0449 1.5305 0.6283
O3 O 0.65528(18) 0.75379(17) 0.78745(11)
C3 C 0.1166(3) 1.4189(3) 0.71086(19)
H5 H 0.1214 1.4872 0.7435
O4 O 0.6289(2) 0.57275(18) 0.90776(13)
C4 C 0.2091(3) 1.2949(3) 0.73230(18)
H6 H 0.2753 1.2789 0.7791
C5 C 0.2020(3) 1.1927(2) 0.68248(15)
C6 C 0.0979(3) 1.2226(3) 0.61280(16)
C7 C 0.2770(3) 1.0539(2) 0.68458(15)
C8 C 0.2186(3) 1.0099(2) 0.61581(15)
C9 C 0.2502(3) 0.8841(3) 0.57918(18)
C10 C 0.4101(4) 0.6726(3) 0.5781(3)
H7 H 0.3348 0.6054 0.6016
H8 H 0.4081 0.6996 0.5116
C11 C 0.5551(5) 0.6089(5) 0.5996(4)
H9 H 0.5781 0.5285 0.5733
H10 H 0.5575 0.5800 0.6653
H11 H 0.6308 0.6740 0.5752
C12 C 0.3962(3) 0.9705(2) 0.74867(15)
H12 H 0.4708 0.9217 0.7106
C13 C 0.4886(3) 1.0644(2) 0.78505(16)
C14 C 0.6008(3) 1.1351(3) 0.72766(19)
H13 H 0.6244 1.1202 0.6686
C15 C 0.6790(4) 1.2282(3) 0.7569(3)
H14 H 0.7541 1.2759 0.7170
C16 C 0.6473(4) 1.2511(3) 0.8438(2)
H15 H 0.6991 1.3154 0.8624
C17 C 0.5397(3) 1.1794(3) 0.9029(2)
H16 H 0.5190 1.1934 0.9623
C18 C 0.4605(3) 1.0849(3) 0.87424(17)
H17 H 0.3882 1.0350 0.9151
C19 C 0.3294(3) 0.8562(2) 0.82476(15)
C20 C 0.1766(3) 0.8539(2) 0.87173(15)
C21 C 0.0399(3) 0.9474(3) 0.86615(18)
H18 H 0.0363 1.0322 0.8226
C22 C -0.0862(3) 0.9119(3) 0.92517(19)
H19 H -0.1757 0.9738 0.9214
C23 C -0.0847(3) 0.7852(3) 0.9912(2)
H20 H -0.1734 0.7642 1.0298
C24 C 0.0448(3) 0.6912(3) 1.00012(17)
H21 H 0.0464 0.6071 1.0443
C25 C 0.1743(3) 0.7277(2) 0.93981(16)
C26 C 0.4107(3) 0.7330(2) 0.86766(15)
C27 C 0.5734(3) 0.6772(2) 0.85723(16)
C28 C 0.8177(3) 0.7041(3) 0.77442(18)
H22 H 0.8282 0.6102 0.7638
H23 H 0.8701 0.7019 0.8287
C29 C 0.8863(3) 0.8028(3) 0.6932(2)
H24 H 0.9940 0.7727 0.6825
H25 H 0.8759 0.8952 0.7048
H26 H 0.8335 0.8044 0.6400
loop_
_geom_bond_atom_site_label_1
_geom_bond_atom_site_label_2
_geom_bond_site_symmetry_1
_geom_bond_site_symmetry_2
N1 H1 1_555 1_555
O1 C9 1_555 1_555
C1 H2 1_555 1_555
N2 H3 1_555 1_555
O2 C9 1_555 1_555
C2 C1 1_555 1_555
H4 C2 1_555 1_555
O3 C27 1_555 1_555
C3 C2 1_555 1_555
H5 C3 1_555 1_555
O4 C27 1_555 1_555
C4 C3 1_555 1_555
H6 C4 1_555 1_555
C5 C4 1_555 1_555
C6 N1 1_555 1_555
C7 C5 1_555 1_555
C8 N1 1_555 1_555
C9 C8 1_555 1_555
C10 O1 1_555 1_555
H7 C10 1_555 1_555
H8 C10 1_555 1_555
C11 C10 1_555 1_555
H9 C11 1_555 1_555
H10 C11 1_555 1_555
H11 C11 1_555 1_555
C12 C7 1_555 1_555
H12 C12 1_555 1_555
C13 C12 1_555 1_555
C14 C13 1_555 1_555
H13 C14 1_555 1_555
C15 C14 1_555 1_555
H14 C15 1_555 1_555
C16 C15 1_555 1_555
H15 C16 1_555 1_555
C17 C16 1_555 1_555
H16 C17 1_555 1_555
C18 C13 1_555 1_555
H17 C18 1_555 1_555
C19 C12 1_555 1_555
C20 C19 1_555 1_555
C21 C20 1_555 1_555
H18 C21 1_555 1_555
C22 C21 1_555 1_555
H19 C22 1_555 1_555
C23 C22 1_555 1_555
H20 C23 1_555 1_555
C24 C23 1_555 1_555
H21 C24 1_555 1_555
C25 N2 1_555 1_555
C26 N2 1_555 1_555
C27 C26 1_555 1_555
C28 O3 1_555 1_555
H22 C28 1_555 1_555
H23 C28 1_555 1_555
C29 C28 1_555 1_555
H24 C29 1_555 1_555
H25 C29 1_555 1_555
H26 C29 1_555 1_555
C1 C6 1_555 1_555
C5 C6 1_555 1_555
C7 C8 1_555 1_555
C17 C18 1_555 1_555
C19 C26 1_555 1_555
C20 C25 1_555 1_555
C24 C25 1_555 1_555

#END
