
#######################################################################
#
#                 Cambridge Crystallographic Data Centre
#                                CCDC 
#
#######################################################################
#
# If this CIF has been generated from an entry in the Cambridge 
# Structural Database, then it will include bibliographic, chemical, 
# crystal, experimental, refinement or atomic coordinate data resulting 
# from the CCDC's data processing and validation procedures.
#
#######################################################################

data_QEDMET
_chemical_formula_moiety         'C27 H22 N4 O1'
_chemical_name_systematic        
(Z)-4-[(3-Aminonaphthalen-2-ylamino)(phenyl)methylidene]-3-methyl-1-phenyl-1H-pyrazol-5(4H)-one
_symmetry_cell_setting           monoclinic
_symmetry_space_group_name_H-M   'P 21/n'
_symmetry_Int_Tables_number      14
_space_group_name_Hall           '-P 2yn'
loop_
_symmetry_equiv_pos_site_id
_symmetry_equiv_pos_as_xyz
1 x,y,z
2 1/2-x,1/2+y,1/2-z
3 -x,-y,-z
4 1/2+x,1/2-y,1/2+z
_cell_length_a                   9.8052(14)
_cell_length_b                   18.041(3)
_cell_length_c                   13.2193(18)
_cell_angle_alpha                90
_cell_angle_beta                 110.797(2)
_cell_angle_gamma                90
_cell_volume                     2186.07
_exptl_crystal_colour            red
_exptl_crystal_description       block
_cell_formula_units_Z            4
loop_
_atom_site_label
_atom_site_type_symbol
_atom_site_fract_x
_atom_site_fract_y
_atom_site_fract_z
O1 O 0.27552(14) 1.00646(7) 0.55789(10)
N1 N 0.43043(16) 0.85291(8) 0.47774(12)
N2 N 0.31277(16) 0.89991(8) 0.46993(11)
N3 N 0.51820(16) 1.03547(8) 0.73333(11)
H1 H 0.4486 1.0534 0.6789
C1 C 0.55379(19) 1.07787(9) 0.82950(14)
C2 C 0.5429(2) 1.19826(10) 0.90501(15)
H2 H 0.5190 1.2483 0.8961
C3 C 0.52031(19) 1.15528(10) 0.81475(14)
C4 C 0.60116(19) 1.16913(10) 1.01105(15)
C5 C 0.71102(19) 0.94103(9) 0.79235(13)
C6 C 0.57512(19) 0.97179(9) 0.71287(14)
C7 C 0.50078(19) 0.93546(9) 0.61583(13)
C8 C 0.1637(2) 0.83859(9) 0.30338(14)
H3 H 0.2457 0.8137 0.3014
C9 C 0.1758(2) 0.88711(9) 0.38791(14)
C10 C 0.3538(2) 0.95422(10) 0.54880(13)
N4 N 0.4582(2) 1.18265(11) 0.71068(14)
C11 C 0.60730(19) 1.04834(10) 0.93090(14)
H4 H 0.6266 0.9978 0.9389
C12 C 0.63419(19) 1.09256(10) 1.02421(14)
C13 C 0.6924(2) 1.06300(11) 1.12955(15)
H5 H 0.7117 1.0125 1.1385
C14 C -0.0920(2) 0.86374(11) 0.22376(17)
H6 H -0.1812 0.8567 0.1681
C15 C 0.5400(2) 0.87347(9) 0.56375(14)
C16 C 0.7088(2) 0.87261(10) 0.83947(15)
H7 H 0.6213 0.8469 0.8229
C17 C 0.0515(2) 0.92247(10) 0.38980(15)
H8 H 0.0572 0.9545 0.4463
C18 C 0.6896(2) 1.18263(13) 1.20526(17)
H9 H 0.7097 1.2127 1.2659
C19 C 0.0309(2) 0.82743(10) 0.22284(15)
H10 H 0.0239 0.7948 0.1668
C20 C 0.6299(2) 1.21312(11) 1.10469(16)
H11 H 0.6079 1.2634 1.0977
C21 C 0.8418(2) 0.97844(11) 0.81943(16)
H12 H 0.8446 1.0250 0.7900
C22 C 0.6841(2) 0.83662(11) 0.58793(16)
H13 H 0.6744 0.7966 0.5379
H14 H 0.7172 0.8175 0.6604
H15 H 0.7535 0.8720 0.5810
C23 C 0.7211(2) 1.10693(12) 1.21862(16)
H16 H 0.7613 1.0867 1.2876
C24 C -0.0809(2) 0.91046(11) 0.30816(17)
H17 H -0.1638 0.9344 0.3104
C25 C 0.8356(3) 0.84252(11) 0.91075(16)
H18 H 0.8332 0.7969 0.9430
C26 C 0.9680(2) 0.94749(14) 0.88954(18)
H19 H 1.0559 0.9729 0.9067
C27 C 0.9647(3) 0.87940(14) 0.93425(18)
H20 H 1.0506 0.8582 0.9807
H21 H 0.497(2) 1.1671(11) 0.6603(17)
H22 H 0.436(3) 1.2320(14) 0.7045(17)
loop_
_geom_bond_atom_site_label_1
_geom_bond_atom_site_label_2
_geom_bond_site_symmetry_1
_geom_bond_site_symmetry_2
O1 C10 1_555 1_555
N1 N2 1_555 1_555
N2 C9 1_555 1_555
N3 H1 1_555 1_555
C1 N3 1_555 1_555
C2 H2 1_555 1_555
C3 C1 1_555 1_555
C4 C2 1_555 1_555
C5 C6 1_555 1_555
C6 N3 1_555 1_555
C7 C6 1_555 1_555
C8 H3 1_555 1_555
C9 C8 1_555 1_555
C10 N2 1_555 1_555
N4 C3 1_555 1_555
C11 C1 1_555 1_555
H4 C11 1_555 1_555
C12 C4 1_555 1_555
C13 C12 1_555 1_555
H5 C13 1_555 1_555
C14 H6 1_555 1_555
C15 N1 1_555 1_555
C16 C5 1_555 1_555
H7 C16 1_555 1_555
C17 C9 1_555 1_555
H8 C17 1_555 1_555
C18 H9 1_555 1_555
C19 C8 1_555 1_555
H10 C19 1_555 1_555
C20 C4 1_555 1_555
H11 C20 1_555 1_555
C21 C5 1_555 1_555
H12 C21 1_555 1_555
C22 C15 1_555 1_555
H13 C22 1_555 1_555
H14 C22 1_555 1_555
H15 C22 1_555 1_555
C23 C13 1_555 1_555
H16 C23 1_555 1_555
C24 C14 1_555 1_555
H17 C24 1_555 1_555
C25 C16 1_555 1_555
H18 C25 1_555 1_555
C26 C21 1_555 1_555
H19 C26 1_555 1_555
C27 C25 1_555 1_555
H20 C27 1_555 1_555
H21 N4 1_555 1_555
H22 N4 1_555 1_555
C2 C3 1_555 1_555
C7 C10 1_555 1_555
C7 C15 1_555 1_555
C11 C12 1_555 1_555
C14 C19 1_555 1_555
C17 C24 1_555 1_555
C18 C20 1_555 1_555
C18 C23 1_555 1_555
C26 C27 1_555 1_555

#END
