
#######################################################################
#
#                 Cambridge Crystallographic Data Centre
#                                CCDC 
#
#######################################################################
#
# If this CIF has been generated from an entry in the Cambridge 
# Structural Database, then it will include bibliographic, chemical, 
# crystal, experimental, refinement or atomic coordinate data resulting 
# from the CCDC's data processing and validation procedures.
#
#######################################################################

data_QEDNUK
_chemical_formula_moiety         'C22 H15 Cl2 N1 O1'
_chemical_name_systematic        
3-(4-Chlorobenzoyl)-6-(4-chlorophenyl)-2,4-dimethylbenzonitrile
_symmetry_cell_setting           monoclinic
_symmetry_space_group_name_H-M   'P 21/c'
_symmetry_Int_Tables_number      14
_space_group_name_Hall           '-P 2ybc'
loop_
_symmetry_equiv_pos_site_id
_symmetry_equiv_pos_as_xyz
1 x,y,z
2 -x,1/2+y,1/2-z
3 -x,-y,-z
4 x,1/2-y,1/2+z
_cell_length_a                   7.8102(12)
_cell_length_b                   30.032(5)
_cell_length_c                   8.2054(13)
_cell_angle_alpha                90
_cell_angle_beta                 103.739(2)
_cell_angle_gamma                90
_cell_volume                     1869.56
_exptl_crystal_colour            colorless
_exptl_crystal_description       block
_cell_formula_units_Z            4
_exptl_crystal_recrystallization_method 'petroleum ether/dichloromethane'
loop_
_atom_site_label
_atom_site_type_symbol
_atom_site_fract_x
_atom_site_fract_y
_atom_site_fract_z
C1 C 0.7995(4) 0.21705(10) 0.1502(4)
C2 C 0.6497(4) 0.20687(10) 0.2063(4)
H1 H 0.5945 0.2292 0.2535
C3 C 0.5808(4) 0.16426(11) 0.1934(4)
H2 H 0.4806 0.1580 0.2318
C4 C 0.6621(5) 0.13136(10) 0.1233(4)
C5 C 0.8084(5) 0.14040(11) 0.0632(4)
H3 H 0.8606 0.1181 0.0131
C6 C 0.8767(4) 0.18288(10) 0.0779(4)
H4 H 0.9767 0.1889 0.0386
C7 C 0.8714(4) 0.26288(10) 0.1663(4)
C8 C 1.0517(4) 0.27148(10) 0.2239(4)
C9 C 1.1199(4) 0.31495(11) 0.2343(4)
C10 C 1.0020(4) 0.35035(10) 0.1930(4)
C11 C 0.8210(4) 0.34288(10) 0.1389(4)
C12 C 0.7596(4) 0.29920(10) 0.1238(4)
H5 H 0.6394 0.2942 0.0838
C13 C 1.1720(5) 0.23601(12) 0.2910(5)
C14 C 1.3152(5) 0.32286(14) 0.2910(5)
H6 H 1.3698 0.3164 0.2005
H7 H 1.3639 0.3038 0.3845
H8 H 1.3365 0.3534 0.3241
C15 C 0.6925(5) 0.38100(11) 0.0981(5)
H9 H 0.5752 0.3695 0.0592
H10 H 0.7215 0.3991 0.0122
H11 H 0.6988 0.3986 0.1969
C16 C 1.0722(5) 0.39731(11) 0.2256(5)
C17 C 1.1277(4) 0.42252(11) 0.0920(4)
C18 C 1.2013(5) 0.46432(11) 0.1290(5)
H12 H 1.2167 0.4758 0.2367
C19 C 1.2517(5) 0.48886(12) 0.0070(5)
H13 H 1.3029 0.5167 0.0326
C20 C 1.2263(5) 0.47210(11) -0.1532(5)
C21 C 1.1562(5) 0.43075(11) -0.1909(5)
H14 H 1.1412 0.4194 -0.2988
C22 C 1.1076(5) 0.40580(11) -0.0673(5)
H15 H 1.0608 0.3774 -0.0924
Cl1 Cl 0.57545(16) 0.07788(3) 0.10760(15)
Cl2 Cl 1.28408(16) 0.50406(3) -0.30697(14)
N1 N 1.2698(4) 0.20909(12) 0.3525(5)
O1 O 1.0819(4) 0.41318(9) 0.3638(3)
loop_
_geom_bond_atom_site_label_1
_geom_bond_atom_site_label_2
_geom_bond_site_symmetry_1
_geom_bond_site_symmetry_2
C1 C2 1_555 1_555
C2 H1 1_555 1_555
C3 C2 1_555 1_555
H2 C3 1_555 1_555
C4 C3 1_555 1_555
C5 C4 1_555 1_555
H3 C5 1_555 1_555
C6 C1 1_555 1_555
H4 C6 1_555 1_555
C7 C1 1_555 1_555
C8 C7 1_555 1_555
C9 C8 1_555 1_555
C10 C9 1_555 1_555
C11 C10 1_555 1_555
C12 C7 1_555 1_555
H5 C12 1_555 1_555
C13 C8 1_555 1_555
C14 C9 1_555 1_555
H6 C14 1_555 1_555
H7 C14 1_555 1_555
H8 C14 1_555 1_555
C15 C11 1_555 1_555
H9 C15 1_555 1_555
H10 C15 1_555 1_555
H11 C15 1_555 1_555
C16 C10 1_555 1_555
C17 C16 1_555 1_555
C18 C17 1_555 1_555
H12 C18 1_555 1_555
C19 C18 1_555 1_555
H13 C19 1_555 1_555
C20 C19 1_555 1_555
C21 C20 1_555 1_555
H14 C21 1_555 1_555
C22 C17 1_555 1_555
H15 C22 1_555 1_555
Cl1 C4 1_555 1_555
Cl2 C20 1_555 1_555
N1 C13 1_555 1_555
O1 C16 1_555 1_555
C5 C6 1_555 1_555
C11 C12 1_555 1_555
C21 C22 1_555 1_555

#END
