
#######################################################################
#
#                 Cambridge Crystallographic Data Centre
#                                CCDC 
#
#######################################################################
#
# If this CIF has been generated from an entry in the Cambridge 
# Structural Database, then it will include bibliographic, chemical, 
# crystal, experimental, refinement or atomic coordinate data resulting 
# from the CCDC's data processing and validation procedures.
#
#######################################################################

data_QEDQOI
_chemical_formula_moiety         'C17 H26 O6'
_chemical_name_systematic        
'di-t-butyl 5-methyl-7-oxo-6-oxabicyclo[3.2.0]heptane-2,2-dicarboxylate'
_symmetry_cell_setting           monoclinic
_symmetry_space_group_name_H-M   'P 21'
_symmetry_Int_Tables_number      4
_space_group_name_Hall           'P 2yb'
loop_
_symmetry_equiv_pos_site_id
_symmetry_equiv_pos_as_xyz
1 x,y,z
2 -x,1/2+y,-z
_cell_length_a                   9.2074(17)
_cell_length_b                   11.5642(5)
_cell_length_c                   9.5785(18)
_cell_angle_alpha                90
_cell_angle_beta                 118.017(11)
_cell_angle_gamma                90
_cell_volume                     900.361
_exptl_crystal_colour            colorless
_exptl_crystal_description       plate
_cell_formula_units_Z            2
_exptl_crystal_recrystallization_method 'diethyl ether'
loop_
_atom_site_label
_atom_site_type_symbol
_atom_site_fract_x
_atom_site_fract_y
_atom_site_fract_z
O1 O 0.74160(11) 0.36026(9) 0.75528(11)
O2 O 0.65963(12) 0.32438(8) 0.49383(11)
O3 O 0.22946(12) 0.46072(8) 0.67825(11)
O4 O 0.14679(10) 0.57790(8) 0.46413(10)
O5 O 0.42193(11) 0.58448(8) 0.34115(11)
O6 O 0.27107(10) 0.42068(8) 0.30013(10)
C1 C 0.63087(15) 0.34480(11) 0.60011(15)
C2 C 0.47980(14) 0.36908(10) 0.62193(13)
H1 H 0.3998 0.3040 0.5969
C3 C 0.60639(15) 0.38509(11) 0.79806(14)
C4 C 0.60669(16) 0.51318(12) 0.83485(15)
H2 H 0.7197 0.5402 0.9064
H3 H 0.5363 0.5282 0.8855
C5 C 0.53792(15) 0.57408(11) 0.67419(15)
H4 H 0.6254 0.5869 0.6434
H5 H 0.4883 0.6495 0.6768
C6 C 0.40564(14) 0.48936(10) 0.55842(13)
C7 C 0.61099(18) 0.29993(13) 0.91853(16)
H6 H 0.6126 0.2211 0.8817
H7 H 0.5133 0.3102 0.9331
H8 H 0.7101 0.3130 1.0194
C8 C 0.24842(14) 0.50545(10) 0.57385(14)
C9 C -0.00493(15) 0.62218(11) 0.46437(15)
C10 C -0.12086(18) 0.52295(13) 0.4450(2)
H9 H -0.1357 0.4751 0.3548
H10 H -0.2275 0.5539 0.4264
H11 H -0.0742 0.4758 0.5413
C11 C -0.07614(17) 0.70017(13) 0.31974(17)
H12 H 0.0048 0.7594 0.3312
H13 H -0.1761 0.7375 0.3098
H14 H -0.1031 0.6539 0.2250
C12 C 0.0448(2) 0.69149(14) 0.61505(18)
H15 H 0.0881 0.6390 0.7061
H16 H -0.0514 0.7324 0.6085
H17 H 0.1298 0.7477 0.6276
C13 C 0.36856(14) 0.50666(11) 0.38666(14)
C14 C 0.20545(15) 0.41657(11) 0.12629(13)
C15 C 0.34519(18) 0.40853(16) 0.08477(16)
H18 H 0.4091 0.4804 0.1154
H19 H 0.3000 0.3967 -0.0294
H20 H 0.4167 0.3434 0.1415
C16 C 0.10543(18) 0.30554(12) 0.08334(16)
H21 H 0.1783 0.2399 0.1352
H22 H 0.0519 0.2947 -0.0316
H23 H 0.0215 0.3105 0.1187
C17 C 0.09536(17) 0.52091(12) 0.05279(16)
H24 H 0.0124 0.5248 0.0894
H25 H 0.0406 0.5137 -0.0627
H26 H 0.1621 0.5915 0.0842
loop_
_geom_bond_atom_site_label_1
_geom_bond_atom_site_label_2
_geom_bond_site_symmetry_1
_geom_bond_site_symmetry_2
O1 C1 1_555 1_555
O2 C1 1_555 1_555
O3 C8 1_555 1_555
O4 C8 1_555 1_555
O5 C13 1_555 1_555
O6 C13 1_555 1_555
C1 C2 1_555 1_555
C2 H1 1_555 1_555
C3 O1 1_555 1_555
C4 C3 1_555 1_555
H2 C4 1_555 1_555
H3 C4 1_555 1_555
C5 C4 1_555 1_555
H4 C5 1_555 1_555
H5 C5 1_555 1_555
C6 C2 1_555 1_555
C7 C3 1_555 1_555
H6 C7 1_555 1_555
H7 C7 1_555 1_555
H8 C7 1_555 1_555
C8 C6 1_555 1_555
C9 O4 1_555 1_555
C10 C9 1_555 1_555
H9 C10 1_555 1_555
H10 C10 1_555 1_555
H11 C10 1_555 1_555
C11 C9 1_555 1_555
H12 C11 1_555 1_555
H13 C11 1_555 1_555
H14 C11 1_555 1_555
C12 C9 1_555 1_555
H15 C12 1_555 1_555
H16 C12 1_555 1_555
H17 C12 1_555 1_555
C13 C6 1_555 1_555
C14 O6 1_555 1_555
C15 C14 1_555 1_555
H18 C15 1_555 1_555
H19 C15 1_555 1_555
H20 C15 1_555 1_555
C16 C14 1_555 1_555
H21 C16 1_555 1_555
H22 C16 1_555 1_555
H23 C16 1_555 1_555
C17 C14 1_555 1_555
H24 C17 1_555 1_555
H25 C17 1_555 1_555
H26 C17 1_555 1_555
C2 C3 1_555 1_555
C5 C6 1_555 1_555

#END
