
#######################################################################
#
#                 Cambridge Crystallographic Data Centre
#                                CCDC 
#
#######################################################################
#
# If this CIF has been generated from an entry in the Cambridge 
# Structural Database, then it will include bibliographic, chemical, 
# crystal, experimental, refinement or atomic coordinate data resulting 
# from the CCDC's data processing and validation procedures.
#
#######################################################################

data_QEDRIA
_chemical_formula_moiety         'C14 H14 N4 O2,H2 O1'
_chemical_name_systematic        
'Tricyclo(6.2.2.0^2,7^)dodeca-2,4,6-triene-9,10:11,12-bis(dicarboximide) monohydrate'
_symmetry_cell_setting           monoclinic
_symmetry_space_group_name_H-M   'P 21/c'
_symmetry_Int_Tables_number      14
_space_group_name_Hall           '-P 2ybc'
loop_
_symmetry_equiv_pos_site_id
_symmetry_equiv_pos_as_xyz
1 x,y,z
2 x,1/2-y,1/2+z
3 -x,-y,-z
4 -x,1/2+y,1/2-z
_cell_length_a                   16.590(5)
_cell_length_b                   12.667(4)
_cell_length_c                   13.781(4)
_cell_angle_alpha                90
_cell_angle_beta                 107.90(2)
_cell_angle_gamma                90
_cell_volume                     2755.83
_exptl_crystal_colour            colorless
_exptl_crystal_description       prism
_chemical_melting_point          'above 340deg.C'
_cell_formula_units_Z            8
loop_
_atom_site_label
_atom_site_type_symbol
_atom_site_fract_x
_atom_site_fract_y
_atom_site_fract_z
C1 C 0.2336(2) 0.1544(4) 0.8549(3)
N1 N 0.3009(2) 0.1665(3) 0.8089(3)
C2 C 0.2794(3) 0.1292(4) 0.7127(3)
O1 O 0.3229(2) 0.1382(3) 0.6548(2)
N2 N 0.2044(2) 0.0798(3) 0.6918(3)
C3 C 0.1684(2) 0.0835(3) 0.7750(3)
C4 C 0.0801(2) 0.1343(3) 0.7484(3)
C5 C 0.0611(2) 0.1478(3) 0.8505(3)
N3 N -0.0214(2) 0.1952(3) 0.8368(3)
C6 C -0.0141(2) 0.2961(4) 0.8709(3)
O2 O -0.0747(2) 0.3584(2) 0.8575(2)
N4 N 0.0667(2) 0.3163(3) 0.9221(3)
C7 C 0.1234(2) 0.2298(3) 0.9186(3)
C8 C 0.1915(2) 0.2590(3) 0.8685(3)
C9 C 0.0827(2) 0.2432(3) 0.7056(3)
C10 C 0.1464(2) 0.3073(3) 0.7676(3)
C11 C 0.1561(3) 0.4094(4) 0.7373(3)
C12 C 0.1009(3) 0.4469(4) 0.6471(3)
C13 C 0.0360(3) 0.3858(4) 0.5893(3)
C14 C 0.0268(3) 0.2826(3) 0.6175(3)
H5 H 0.2542 0.1261 0.9218
H6 H 0.3543 0.1974 0.8429
H7 H 0.1776 0.0459 0.6287
H8 H 0.1601 0.0143 0.7968
H9 H 0.0392 0.0924 0.7005
H10 H 0.0653 0.0791 0.8791
H11 H -0.0738 0.1599 0.8076
H12 H 0.0854 0.3807 0.9573
H13 H 0.1546 0.2066 0.9851
H14 H 0.2329 0.3072 0.9071
H15 H 0.2001 0.4532 0.7779
H16 H 0.1083 0.5162 0.6249
H17 H -0.0031 0.4142 0.5294
H18 H -0.0176 0.2396 0.5765
C15 C 0.4142(2) 0.8773(3) 0.7389(3)
N5 N 0.4466(2) 0.8771(3) 0.6518(3)
C16 C 0.5173(3) 0.8188(4) 0.6683(3)
O3 O 0.5593(2) 0.8089(3) 0.6083(2)
N6 N 0.5352(2) 0.7732(3) 0.7614(3)
C17 C 0.4752(3) 0.8004(4) 0.8142(3)
C18 C 0.4257(2) 0.7054(3) 0.8360(3)
C19 C 0.3632(3) 0.7504(4) 0.8892(3)
N7 N 0.3028(2) 0.6731(3) 0.9019(2)
C20 C 0.2224(2) 0.6995(3) 0.8529(3)
O4 O 0.1591(2) 0.6458(2) 0.8491(2)
N8 N 0.2203(2) 0.7969(3) 0.8111(3)
C21 C 0.3049(2) 0.8337(3) 0.8181(3)
C22 C 0.3227(2) 0.8370(3) 0.7151(3)
C23 C 0.3749(2) 0.6566(3) 0.7381(3)
C24 C 0.3166(2) 0.7264(3) 0.6737(3)
C25 C 0.2597(3) 0.6900(4) 0.5848(3)
C26 C 0.2610(3) 0.5849(4) 0.5574(4)
C27 C 0.3187(4) 0.5178(4) 0.6201(4)
C28 C 0.3753(3) 0.5519(4) 0.7107(4)
H19 H 0.4123 0.9470 0.7634
H20 H 0.4206 0.9141 0.5902
H21 H 0.5824 0.7280 0.7891
H22 H 0.5029 0.8289 0.8797
H23 H 0.4630 0.6542 0.8764
H24 H 0.3980 0.7763 0.9530
H25 H 0.3185 0.6103 0.9409
H26 H 0.1700 0.8361 0.7810
H27 H 0.3134 0.9043 0.8422
H28 H 0.2841 0.8808 0.6666
H29 H 0.2195 0.7369 0.5422
H30 H 0.2222 0.5596 0.4957
H31 H 0.3199 0.4460 0.6008
H32 H 0.4141 0.5038 0.7537
O5 O 0.3691(2) 0.4622(2) 0.9969(2)
H1 H 0.3445 0.4231 1.0430
H2 H 0.4053 0.4125 0.9714
O6 O 0.1222(2) 0.5262(3) 0.9982(2)
H3 H 0.1456 0.5655 0.9563
H4 H 0.1068 0.5667 1.0403
loop_
_geom_bond_atom_site_label_1
_geom_bond_atom_site_label_2
_geom_bond_site_symmetry_1
_geom_bond_site_symmetry_2
C1 N1 1_555 1_555
N1 C2 1_555 1_555
C2 O1 1_555 1_555
N2 C2 1_555 1_555
C3 C1 1_555 1_555
C4 C3 1_555 1_555
C5 C4 1_555 1_555
N3 C5 1_555 1_555
C6 N3 1_555 1_555
O2 C6 1_555 1_555
N4 C6 1_555 1_555
C7 C5 1_555 1_555
C8 C1 1_555 1_555
C9 C4 1_555 1_555
C10 C8 1_555 1_555
C11 C10 1_555 1_555
C12 C11 1_555 1_555
C13 C12 1_555 1_555
C14 C9 1_555 1_555
C15 N5 1_555 1_555
N5 C16 1_555 1_555
C16 O3 1_555 1_555
N6 C16 1_555 1_555
C17 C15 1_555 1_555
C18 C17 1_555 1_555
C19 C18 1_555 1_555
N7 C19 1_555 1_555
C20 N7 1_555 1_555
O4 C20 1_555 1_555
N8 C20 1_555 1_555
C21 C19 1_555 1_555
C22 C15 1_555 1_555
C23 C18 1_555 1_555
C24 C22 1_555 1_555
C25 C24 1_555 1_555
C26 C25 1_555 1_555
C27 C26 1_555 1_555
C28 C23 1_555 1_555
O5 H1 1_555 1_555
O6 H3 1_555 1_555
H2 O5 1_555 1_555
H4 O6 1_555 1_555
H5 C1 1_555 1_555
H6 N1 1_555 1_555
H7 N2 1_555 1_555
H8 C3 1_555 1_555
H9 C4 1_555 1_555
H10 C5 1_555 1_555
H11 N3 1_555 1_555
H12 N4 1_555 1_555
H13 C7 1_555 1_555
H14 C8 1_555 1_555
H15 C11 1_555 1_555
H16 C12 1_555 1_555
H17 C13 1_555 1_555
H18 C14 1_555 1_555
H19 C15 1_555 1_555
H20 N5 1_555 1_555
H21 N6 1_555 1_555
H22 C17 1_555 1_555
H23 C18 1_555 1_555
H24 C19 1_555 1_555
H25 N7 1_555 1_555
H26 N8 1_555 1_555
H27 C21 1_555 1_555
H28 C22 1_555 1_555
H29 C25 1_555 1_555
H30 C26 1_555 1_555
H31 C27 1_555 1_555
H32 C28 1_555 1_555
N2 C3 1_555 1_555
N4 C7 1_555 1_555
C7 C8 1_555 1_555
C9 C10 1_555 1_555
C13 C14 1_555 1_555
N6 C17 1_555 1_555
N8 C21 1_555 1_555
C21 C22 1_555 1_555
C23 C24 1_555 1_555
C27 C28 1_555 1_555

#END
