
#######################################################################
#
#                 Cambridge Crystallographic Data Centre
#                                CCDC 
#
#######################################################################
#
# If this CIF has been generated from an entry in the Cambridge 
# Structural Database, then it will include bibliographic, chemical, 
# crystal, experimental, refinement or atomic coordinate data resulting 
# from the CCDC's data processing and validation procedures.
#
#######################################################################

data_QEDROG
_chemical_formula_moiety         'C10 H14 N4 O2'
_chemical_name_systematic        
3,5,9,11-Tetra-azatetracyclo(5.5.2.0^2,6^.0^8,12^)tetradecane-4,10-dione
_symmetry_cell_setting           monoclinic
_symmetry_space_group_name_H-M   'P 21/c'
_symmetry_Int_Tables_number      14
_space_group_name_Hall           '-P 2ybc'
loop_
_symmetry_equiv_pos_site_id
_symmetry_equiv_pos_as_xyz
1 x,y,z
2 x,1/2-y,1/2+z
3 -x,-y,-z
4 -x,1/2+y,1/2-z
_cell_length_a                   6.4890(4)
_cell_length_b                   24.699(1)
_cell_length_c                   6.4670(4)
_cell_angle_alpha                90
_cell_angle_beta                 92.300(3)
_cell_angle_gamma                90
_cell_volume                     1035.64
_exptl_crystal_colour            colorless
_exptl_crystal_description       prism
_chemical_melting_point          'above 340deg.C.(dec.)'
_cell_formula_units_Z            4
_exptl_crystal_recrystallization_method water
loop_
_atom_site_label
_atom_site_type_symbol
_atom_site_fract_x
_atom_site_fract_y
_atom_site_fract_z
C1 C 0.9375(3) 0.07570(9) 0.5906(3)
O1 O 1.1131(2) 0.05870(7) 0.6451(2)
N1 N 0.8783(3) 0.12767(7) 0.5905(3)
C2 C 0.6613(3) 0.13462(9) 0.5277(3)
C3 C 0.5993(3) 0.07631(9) 0.4578(3)
N2 N 0.7786(3) 0.04410(8) 0.5237(3)
C4 C 0.6211(3) 0.17377(9) 0.3483(3)
C5 C 0.3913(3) 0.16732(9) 0.2869(3)
C6 C 0.3534(3) 0.10999(9) 0.1922(3)
C7 C 0.5489(3) 0.07580(9) 0.2242(3)
N3 N 0.3192(3) 0.20342(8) 0.1220(3)
C8 C 0.2566(3) 0.17614(9) -0.0496(3)
O2 O 0.1798(3) 0.19676(6) -0.2108(2)
N4 N 0.2957(3) 0.12292(7) -0.0227(3)
C9 C 0.7528(4) 0.1599(1) 0.1664(4)
C10 C 0.7266(4) 0.1000(1) 0.1086(4)
H1 H 0.9679 0.1568 0.6273
H2 H 0.5860 0.1497 0.6368
H3 H 0.4781 0.0623 0.5159
H4 H 0.7830 0.0057 0.5199
H5 H 0.6550 0.2099 0.3870
H6 H 0.3217 0.1745 0.4105
H7 H 0.2500 0.0886 0.2524
H8 H 0.5286 0.0401 0.1728
H9 H 0.3165 0.2417 0.1338
H10 H 0.2869 0.0969 -0.1309
H11 H 0.8935 0.1667 0.2033
H12 H 0.7115 0.1817 0.0510
H13 H 0.6982 0.0969 -0.0361
H14 H 0.8500 0.0810 0.1451
loop_
_geom_bond_atom_site_label_1
_geom_bond_atom_site_label_2
_geom_bond_site_symmetry_1
_geom_bond_site_symmetry_2
C1 O1 1_555 1_555
N1 C1 1_555 1_555
C2 N1 1_555 1_555
C3 C2 1_555 1_555
N2 C1 1_555 1_555
C4 C2 1_555 1_555
C5 C4 1_555 1_555
C6 C5 1_555 1_555
C7 C3 1_555 1_555
N3 C5 1_555 1_555
C8 N3 1_555 1_555
O2 C8 1_555 1_555
N4 C6 1_555 1_555
C9 C4 1_555 1_555
C10 C7 1_555 1_555
H1 N1 1_555 1_555
H2 C2 1_555 1_555
H3 C3 1_555 1_555
H4 N2 1_555 1_555
H5 C4 1_555 1_555
H6 C5 1_555 1_555
H7 C6 1_555 1_555
H8 C7 1_555 1_555
H9 N3 1_555 1_555
H10 N4 1_555 1_555
H11 C9 1_555 1_555
H12 C9 1_555 1_555
H13 C10 1_555 1_555
H14 C10 1_555 1_555
C3 N2 1_555 1_555
C6 C7 1_555 1_555
C8 N4 1_555 1_555
C9 C10 1_555 1_555

#END
