
#######################################################################
#
#                 Cambridge Crystallographic Data Centre
#                                CCDC 
#
#######################################################################
#
# If this CIF has been generated from an entry in the Cambridge 
# Structural Database, then it will include bibliographic, chemical, 
# crystal, experimental, refinement or atomic coordinate data resulting 
# from the CCDC's data processing and validation procedures.
#
#######################################################################

data_QEDRIC
_chemical_formula_moiety         'C2 H8 N1 O1 1+,C7 H6 N1 O5 S1 1-'
_chemical_name_systematic        
'2-Hydroxyethanaminium 2-methyl-5-nitrobenzenesulfonate'
_symmetry_cell_setting           monoclinic
_symmetry_space_group_name_H-M   'P 21/c'
_symmetry_Int_Tables_number      14
_space_group_name_Hall           '-P 2ybc'
loop_
_symmetry_equiv_pos_site_id
_symmetry_equiv_pos_as_xyz
1 x,y,z
2 -x,1/2+y,1/2-z
3 -x,-y,-z
4 x,1/2-y,1/2+z
_cell_length_a                   14.8130(5)
_cell_length_b                   9.5617(4)
_cell_length_c                   8.6697(3)
_cell_angle_alpha                90
_cell_angle_beta                 103.0710(10)
_cell_angle_gamma                90
_cell_volume                     1196.14
_exptl_crystal_colour            colorless
_exptl_crystal_description       prism
_cell_formula_units_Z            4
loop_
_atom_site_label
_atom_site_type_symbol
_atom_site_fract_x
_atom_site_fract_y
_atom_site_fract_z
S1 S 0.320970(19) 0.93470(3) 0.27057(3)
O1 O 0.16252(9) 0.44692(11) 0.12844(15)
O2 O 0.07025(8) 0.46497(13) -0.10098(15)
O3 O 0.37472(7) 1.00898(11) 0.17553(11)
O4 O 0.28710(7) 1.02587(12) 0.37875(11)
O5 O 0.37141(7) 0.81368(10) 0.35012(11)
N1 N 0.12202(8) 0.51582(12) 0.01568(14)
C1 C 0.22210(8) 0.86643(13) 0.13486(13)
C2 C 0.15933(9) 0.95606(13) 0.03584(15)
C3 C 0.08519(9) 0.89425(16) -0.07087(16)
H1 H 0.0427 0.9514 -0.1376
C4 C 0.07288(9) 0.75096(16) -0.08063(16)
H2 H 0.0236 0.7118 -0.1537
C5 C 0.13542(8) 0.66756(13) 0.02065(15)
C6 C 0.21014(8) 0.72276(13) 0.12945(14)
H3 H 0.2513 0.6646 0.1973
C7 C 0.16737(11) 1.11277(15) 0.04080(19)
H4 H 0.1641 1.1457 0.1440
H5 H 0.1176 1.1527 -0.0372
H6 H 0.2256 1.1400 0.0188
O6 O 0.59657(8) 0.94383(12) 0.32575(13)
N2 N 0.49673(8) 0.71679(12) 0.15377(14)
C8 C 0.55294(10) 0.81663(14) 0.08550(15)
H7 H 0.5137 0.8929 0.0360
H8 H 0.5771 0.7698 0.0040
C9 C 0.63225(10) 0.87505(16) 0.20792(17)
H9 H 0.6734 0.8001 0.2552
H10 H 0.6673 0.9405 0.1589
H11 H 0.6382(11) 0.954(2) 0.4039(17)
H12 H 0.4547(16) 0.683(2) 0.072(3)
H13 H 0.4688(14) 0.753(2) 0.220(2)
H14 H 0.5324(13) 0.646(2) 0.208(2)
loop_
_geom_bond_atom_site_label_1
_geom_bond_atom_site_label_2
_geom_bond_site_symmetry_1
_geom_bond_site_symmetry_2
S1 O3 1_555 1_555
O1 N1 1_555 1_555
O2 N1 1_555 1_555
O4 S1 1_555 1_555
O5 S1 1_555 1_555
N1 C5 1_555 1_555
C1 S1 1_555 1_555
C2 C1 1_555 1_555
C3 C2 1_555 1_555
H1 C3 1_555 1_555
C4 C3 1_555 1_555
H2 C4 1_555 1_555
C5 C4 1_555 1_555
C6 C1 1_555 1_555
H3 C6 1_555 1_555
C7 C2 1_555 1_555
H4 C7 1_555 1_555
H5 C7 1_555 1_555
H6 C7 1_555 1_555
O6 C9 1_555 1_555
N2 C8 1_555 1_555
C8 H7 1_555 1_555
H8 C8 1_555 1_555
C9 C8 1_555 1_555
H9 C9 1_555 1_555
H10 C9 1_555 1_555
H11 O6 1_555 1_555
H12 N2 1_555 1_555
H13 N2 1_555 1_555
H14 N2 1_555 1_555
C5 C6 1_555 1_555

#END
