
#######################################################################
#
#                 Cambridge Crystallographic Data Centre
#                                CCDC 
#
#######################################################################
#
# If this CIF has been generated from an entry in the Cambridge 
# Structural Database, then it will include bibliographic, chemical, 
# crystal, experimental, refinement or atomic coordinate data resulting 
# from the CCDC's data processing and validation procedures.
#
#######################################################################

data_QEDREZ
_chemical_formula_moiety         'C22 H16 Cl1 N1'
_chemical_name_systematic        2-(2-chlorophenyl)-6-methyl-3-phenylquinoline
_symmetry_cell_setting           monoclinic
_symmetry_space_group_name_H-M   'P 21/n'
_symmetry_Int_Tables_number      14
_space_group_name_Hall           '-P 2yn'
loop_
_symmetry_equiv_pos_site_id
_symmetry_equiv_pos_as_xyz
1 x,y,z
2 1/2-x,1/2+y,1/2-z
3 -x,-y,-z
4 1/2+x,1/2-y,1/2+z
_cell_length_a                   9.1218(14)
_cell_length_b                   16.221(3)
_cell_length_c                   11.9435(18)
_cell_angle_alpha                90
_cell_angle_beta                 100.444(3)
_cell_angle_gamma                90
_cell_volume                     1737.94
_exptl_crystal_colour            colorless
_exptl_crystal_description       Block
_cell_formula_units_Z            4
loop_
_atom_site_label
_atom_site_type_symbol
_atom_site_fract_x
_atom_site_fract_y
_atom_site_fract_z
C1 C 0.4155(4) 0.4261(3) 0.1491(3)
C2 C 0.2799(5) 0.4131(3) 0.0774(4)
H1 H 0.2333 0.4560 0.0329
C3 C 0.2146(5) 0.3361(4) 0.0724(4)
H2 H 0.1226 0.3272 0.0259
C4 C 0.2859(5) 0.2728(3) 0.1363(4)
H3 H 0.2431 0.2206 0.1336
C5 C 0.4241(4) 0.2878(3) 0.2058(4)
H4 H 0.4731 0.2445 0.2480
C6 C 0.4897(4) 0.3646(2) 0.2137(3)
C7 C 0.6317(4) 0.3778(2) 0.2982(3)
C8 C 0.7704(4) 0.3398(2) 0.2867(3)
C9 C 0.8867(4) 0.3481(2) 0.3750(3)
H5 H 0.9775 0.3236 0.3700
C10 C 0.8731(4) 0.3929(2) 0.4742(3)
C11 C 0.7332(4) 0.4313(2) 0.4750(3)
C12 C 0.7159(4) 0.4779(2) 0.5717(3)
H6 H 0.6261 0.5044 0.5740
C13 C 0.8309(4) 0.4839(3) 0.6613(3)
H7 H 0.8178 0.5148 0.7244
C14 C 0.9684(4) 0.4452(2) 0.6619(3)
C15 C 0.9877(4) 0.4015(2) 0.5690(3)
H8 H 1.0793 0.3767 0.5681
C16 C 1.0899(5) 0.4516(3) 0.7671(4)
H9 H 1.1858 0.4488 0.7449
H10 H 1.0800 0.4069 0.8178
H11 H 1.0805 0.5030 0.8049
C17 C 0.7893(4) 0.2938(2) 0.1831(3)
C18 C 0.7405(4) 0.3248(3) 0.0741(3)
H12 H 0.6896 0.3747 0.0646
C19 C 0.7673(5) 0.2815(3) -0.0208(4)
H13 H 0.7355 0.3029 -0.0933
C20 C 0.8404(5) 0.2075(3) -0.0076(4)
H14 H 0.8576 0.1788 -0.0713
C21 C 0.8881(5) 0.1758(3) 0.0983(4)
H15 H 0.9372 0.1253 0.1066
C22 C 0.8636(4) 0.2185(3) 0.1939(4)
H16 H 0.8972 0.1966 0.2659
Cl1 Cl 0.49097(15) 0.52406(8) 0.15226(11)
N1 N 0.6159(3) 0.42231(19) 0.3882(2)
H17? H 0.4572 0.4786 0.1533
Cl2? Cl 0.5026(13) 0.2110(6) 0.2922(11)
loop_
_geom_bond_atom_site_label_1
_geom_bond_atom_site_label_2
_geom_bond_site_symmetry_1
_geom_bond_site_symmetry_2
C1 C2 1_555 1_555
C2 H1 1_555 1_555
C3 C2 1_555 1_555
H2 C3 1_555 1_555
C4 C3 1_555 1_555
H3 C4 1_555 1_555
C5 C4 1_555 1_555
H4 C5 1_555 1_555
C6 C1 1_555 1_555
C7 C6 1_555 1_555
C8 C7 1_555 1_555
C9 C8 1_555 1_555
H5 C9 1_555 1_555
C10 C9 1_555 1_555
C11 C10 1_555 1_555
C12 C11 1_555 1_555
H6 C12 1_555 1_555
C13 C12 1_555 1_555
H7 C13 1_555 1_555
C14 C13 1_555 1_555
C15 C10 1_555 1_555
H8 C15 1_555 1_555
C16 C14 1_555 1_555
H9 C16 1_555 1_555
H10 C16 1_555 1_555
H11 C16 1_555 1_555
C17 C8 1_555 1_555
C18 C17 1_555 1_555
H12 C18 1_555 1_555
C19 C18 1_555 1_555
H13 C19 1_555 1_555
C20 C19 1_555 1_555
H14 C20 1_555 1_555
C21 C20 1_555 1_555
H15 C21 1_555 1_555
C22 C17 1_555 1_555
H16 C22 1_555 1_555
Cl1 C1 1_555 1_555
N1 C7 1_555 1_555
C5 C6 1_555 1_555
C11 N1 1_555 1_555
C14 C15 1_555 1_555
C21 C22 1_555 1_555

#END
