
#######################################################################
#
#                 Cambridge Crystallographic Data Centre
#                                CCDC 
#
#######################################################################
#
# If this CIF has been generated from an entry in the Cambridge 
# Structural Database, then it will include bibliographic, chemical, 
# crystal, experimental, refinement or atomic coordinate data resulting 
# from the CCDC's data processing and validation procedures.
#
#######################################################################

data_QEDWED
_chemical_formula_moiety         'C8 H10 N2 O2'
_chemical_name_systematic        2-Hydroxy-N'-methylbenzohydrazide
_symmetry_cell_setting           monoclinic
_symmetry_space_group_name_H-M   'P 21/c'
_symmetry_Int_Tables_number      14
_space_group_name_Hall           '-P 2ybc'
loop_
_symmetry_equiv_pos_site_id
_symmetry_equiv_pos_as_xyz
1 x,y,z
2 -x,1/2+y,1/2-z
3 -x,-y,-z
4 x,1/2-y,1/2+z
_cell_length_a                   7.4863(10)
_cell_length_b                   14.706(2)
_cell_length_c                   7.7232(11)
_cell_angle_alpha                90
_cell_angle_beta                 96.898(2)
_cell_angle_gamma                90
_cell_volume                     844.12
_exptl_crystal_colour            colorless
_exptl_crystal_description       block
_cell_formula_units_Z            4
loop_
_atom_site_label
_atom_site_type_symbol
_atom_site_fract_x
_atom_site_fract_y
_atom_site_fract_z
C1 C 0.75411(17) 0.59342(9) 0.39608(15)
C2 C 0.88807(19) 0.63880(10) 0.50734(17)
C3 C 0.8400(2) 0.68846(12) 0.6475(2)
H1 H 0.9278 0.7199 0.7192
C4 C 0.6643(2) 0.69159(11) 0.68107(19)
H2 H 0.6344 0.7240 0.7769
C5 C 0.5313(2) 0.64697(10) 0.57369(18)
H3 H 0.4122 0.6494 0.5965
C6 C 0.57723(19) 0.59916(9) 0.43321(17)
H4 H 0.4874 0.5697 0.3605
C7 C 0.80781(18) 0.54385(10) 0.24308(16)
C8 C 0.7418(3) 0.36724(13) 0.0064(2)
H5 H 0.8366 0.3593 0.1005
H6 H 0.7758 0.3395 -0.0973
H7 H 0.6338 0.3392 0.0363
N1 N 0.67678(17) 0.50872(10) 0.13066(14)
H8 H 0.565(3) 0.5176(12) 0.139(2)
N2 N 0.71005(17) 0.46382(10) -0.02434(14)
H9 H 0.805(2) 0.4910(11) -0.058(2)
O1 O 1.06320(14) 0.63710(9) 0.48180(15)
H10 H 1.071(3) 0.6000(15) 0.388(3)
O2 O 0.96759(14) 0.53627(8) 0.21771(13)
loop_
_geom_bond_atom_site_label_1
_geom_bond_atom_site_label_2
_geom_bond_site_symmetry_1
_geom_bond_site_symmetry_2
C1 C2 1_555 1_555
C2 C3 1_555 1_555
C3 H1 1_555 1_555
C4 C3 1_555 1_555
H2 C4 1_555 1_555
C5 C4 1_555 1_555
H3 C5 1_555 1_555
C6 C1 1_555 1_555
H4 C6 1_555 1_555
C7 C1 1_555 1_555
C8 H5 1_555 1_555
H6 C8 1_555 1_555
H7 C8 1_555 1_555
N1 C7 1_555 1_555
H8 N1 1_555 1_555
N2 C8 1_555 1_555
H9 N2 1_555 1_555
O1 C2 1_555 1_555
H10 O1 1_555 1_555
O2 C7 1_555 1_555
C5 C6 1_555 1_555
N1 N2 1_555 1_555

#END
