
#######################################################################
#
#                 Cambridge Crystallographic Data Centre
#                                CCDC 
#
#######################################################################
#
# If this CIF has been generated from an entry in the Cambridge 
# Structural Database, then it will include bibliographic, chemical, 
# crystal, experimental, refinement or atomic coordinate data resulting 
# from the CCDC's data processing and validation procedures.
#
#######################################################################

data_QEDWII
_chemical_formula_moiety         'C9 H6 Br1 N3 O2'
_chemical_name_systematic        3-bromo-1-(4-nitrophenyl)-1H-pyrazole
_symmetry_cell_setting           monoclinic
_symmetry_space_group_name_H-M   'C 2/c'
_symmetry_Int_Tables_number      15
_space_group_name_Hall           '-C 2yn'
loop_
_symmetry_equiv_pos_site_id
_symmetry_equiv_pos_as_xyz
1 x,y,z
2 -x,y,1/2-z
3 1/2+x,1/2+y,z
4 1/2-x,1/2+y,1/2-z
5 -x,-y,-z
6 x,-y,1/2+z
7 1/2-x,1/2-y,-z
8 1/2+x,1/2-y,1/2+z
_cell_length_a                   11.9252(10)
_cell_length_b                   11.1719(9)
_cell_length_c                   14.2655(12)
_cell_angle_alpha                90
_cell_angle_beta                 100.8833(14)
_cell_angle_gamma                90
_cell_volume                     1866.37
_exptl_crystal_colour            colorless
_exptl_crystal_description       plate
_cell_formula_units_Z            8
loop_
_atom_site_label
_atom_site_type_symbol
_atom_site_fract_x
_atom_site_fract_y
_atom_site_fract_z
C1 C 0.39297(14) 0.22433(15) 0.31905(10)
H1 H 0.4434 0.1608 0.3428
C2 C 0.28890(15) 0.21337(15) 0.26071(11)
H2 H 0.2512 0.1423 0.2353
C3 C 0.25063(14) 0.33250(15) 0.24701(10)
C4 C 0.51067(15) 0.39715(14) 0.39137(11)
C5 C 0.53562(15) 0.51661(14) 0.37693(11)
H3 H 0.4838 0.5642 0.3336
C6 C 0.63629(15) 0.56598(15) 0.42602(11)
H4 H 0.6550 0.6471 0.4162
C7 C 0.70923(14) 0.49451(14) 0.48985(11)
C8 C 0.68248(16) 0.37742(14) 0.50756(12)
H5 H 0.7329 0.3312 0.5531
C9 C 0.58274(15) 0.32809(15) 0.45906(11)
H6 H 0.5630 0.2480 0.4714
N1 N 0.41140(13) 0.34320(13) 0.33702(9)
N2 N 0.32285(13) 0.41257(13) 0.29190(9)
N3 N 0.82002(13) 0.54196(13) 0.53744(9)
O1 O 0.88659(11) 0.47376(11) 0.58812(9)
O2 O 0.84190(12) 0.64746(13) 0.52363(10)
Br1 Br 0.11097(2) 0.38328(2) 0.17415(2)
loop_
_geom_bond_atom_site_label_1
_geom_bond_atom_site_label_2
_geom_bond_site_symmetry_1
_geom_bond_site_symmetry_2
C1 H1 1_555 1_555
C2 C1 1_555 1_555
H2 C2 1_555 1_555
C3 C2 1_555 1_555
C4 C5 1_555 1_555
C5 H3 1_555 1_555
C6 C5 1_555 1_555
H4 C6 1_555 1_555
C7 C6 1_555 1_555
C8 C7 1_555 1_555
H5 C8 1_555 1_555
C9 C4 1_555 1_555
H6 C9 1_555 1_555
N1 C1 1_555 1_555
N2 C3 1_555 1_555
N3 C7 1_555 1_555
O1 N3 1_555 1_555
O2 N3 1_555 1_555
Br1 C3 1_555 1_555
C4 N1 1_555 1_555
C8 C9 1_555 1_555
N1 N2 1_555 1_555

#END
