
#######################################################################
#
#                 Cambridge Crystallographic Data Centre
#                                CCDC 
#
#######################################################################
#
# If this CIF has been generated from an entry in the Cambridge 
# Structural Database, then it will include bibliographic, chemical, 
# crystal, experimental, refinement or atomic coordinate data resulting 
# from the CCDC's data processing and validation procedures.
#
#######################################################################

data_QEDWAA
_chemical_formula_moiety         'C10 H6 F3 N3 O2'
_chemical_name_systematic        
1-(4-nitrophenyl)-3-(trifluoromethyl)-1H-pyrazole
_symmetry_cell_setting           monoclinic
_symmetry_space_group_name_H-M   'P 21/c'
_symmetry_Int_Tables_number      14
_space_group_name_Hall           '-P 2ybc'
loop_
_symmetry_equiv_pos_site_id
_symmetry_equiv_pos_as_xyz
1 x,y,z
2 -x,1/2+y,1/2-z
3 -x,-y,-z
4 x,1/2-y,1/2+z
_cell_length_a                   7.8683(5)
_cell_length_b                   11.5556(8)
_cell_length_c                   11.5585(8)
_cell_angle_alpha                90
_cell_angle_beta                 96.3412(11)
_cell_angle_gamma                90
_cell_volume                     1044.5
_exptl_crystal_colour            colorless
_exptl_crystal_description       block
_cell_formula_units_Z            4
loop_
_atom_site_label
_atom_site_type_symbol
_atom_site_fract_x
_atom_site_fract_y
_atom_site_fract_z
C1 C 0.0850(2) 0.42443(17) 0.82501(15)
F1 F -0.0318(4) 0.4916(3) 0.8450(3)
F2 F 0.2193(18) 0.4210(17) 0.9025(19)
F3 F 0.0193(4) 0.3095(2) 0.8340(2)
C2 C 0.12875(17) 0.43594(14) 0.70320(13)
C3 C 0.10715(17) 0.35467(14) 0.61339(14)
H1 H 0.0592 0.2794 0.6155
C4 C 0.17069(17) 0.40802(12) 0.52174(13)
H2 H 0.1760 0.3766 0.4463
C5 C 0.30218(15) 0.60238(11) 0.49713(11)
C6 C 0.36244(16) 0.57506(11) 0.39192(11)
H3 H 0.3475 0.4993 0.3605
C7 C 0.44413(16) 0.65887(11) 0.33346(11)
H4 H 0.4871 0.6415 0.2618
C8 C 0.46235(16) 0.76838(11) 0.38087(11)
C9 C 0.39823(16) 0.79816(11) 0.48370(11)
H5 H 0.4097 0.8748 0.5133
C10 C 0.31721(16) 0.71394(12) 0.54234(11)
H6 H 0.2721 0.7321 0.6131
N1 N 0.19990(14) 0.53370(11) 0.67208(10)
N2 N 0.22487(14) 0.51488(10) 0.55950(9)
N3 N 0.55706(14) 0.85492(10) 0.32162(9)
O1 O 0.62801(13) 0.82305(9) 0.23713(9)
O2 O 0.56272(15) 0.95433(8) 0.35859(9)
C11? C 0.0850(2) 0.42443(17) 0.82501(15)
F4? F 0.0275(9) 0.5349(5) 0.8710(5)
F5? F 0.224(3) 0.410(3) 0.898(3)
F6? F -0.0336(7) 0.3539(6) 0.8397(4)
C12? C 0.0850(2) 0.42443(17) 0.82501(15)
F7? F 0.0947(15) 0.5320(9) 0.8885(8)
F8? F 0.1822(13) 0.3698(11) 0.9004(9)
F9? F -0.0785(11) 0.4045(12) 0.8395(8)
loop_
_geom_bond_atom_site_label_1
_geom_bond_atom_site_label_2
_geom_bond_site_symmetry_1
_geom_bond_site_symmetry_2
C1 F1 1_555 1_555
F2 C1 1_555 1_555
F3 C1 1_555 1_555
C2 C1 1_555 1_555
C3 C2 1_555 1_555
H1 C3 1_555 1_555
C4 C3 1_555 1_555
H2 C4 1_555 1_555
C5 C6 1_555 1_555
C6 H3 1_555 1_555
C7 C6 1_555 1_555
H4 C7 1_555 1_555
C8 C7 1_555 1_555
C9 C8 1_555 1_555
H5 C9 1_555 1_555
C10 C5 1_555 1_555
H6 C10 1_555 1_555
N1 C2 1_555 1_555
N2 C4 1_555 1_555
N3 C8 1_555 1_555
O1 N3 1_555 1_555
O2 N3 1_555 1_555
C5 N2 1_555 1_555
C9 C10 1_555 1_555
N1 N2 1_555 1_555

#END
