
#######################################################################
#
#                 Cambridge Crystallographic Data Centre
#                                CCDC 
#
#######################################################################
#
# If this CIF has been generated from an entry in the Cambridge 
# Structural Database, then it will include bibliographic, chemical, 
# crystal, experimental, refinement or atomic coordinate data resulting 
# from the CCDC's data processing and validation procedures.
#
#######################################################################

data_QEDWEE
_chemical_formula_moiety         'C12 H11 N3 O4'
_chemical_name_systematic        
'ethyl 1-(4-nitrophenyl)-1H-pyrazole-3-carboxylate'
_symmetry_cell_setting           monoclinic
_symmetry_space_group_name_H-M   'P 21/c'
_symmetry_Int_Tables_number      14
_space_group_name_Hall           '-P 2ybc'
loop_
_symmetry_equiv_pos_site_id
_symmetry_equiv_pos_as_xyz
1 x,y,z
2 -x,1/2+y,1/2-z
3 -x,-y,-z
4 x,1/2-y,1/2+z
_cell_length_a                   3.8100(2)
_cell_length_b                   26.9866(17)
_cell_length_c                   11.1734(7)
_cell_angle_alpha                90
_cell_angle_beta                 94.412(4)
_cell_angle_gamma                90
_cell_volume                     1145.43
_exptl_crystal_colour            colorless
_exptl_crystal_description       plate
_cell_formula_units_Z            4
loop_
_atom_site_label
_atom_site_type_symbol
_atom_site_fract_x
_atom_site_fract_y
_atom_site_fract_z
C1 C 0.3253(3) 0.26367(5) 0.54032(12)
H1 H 0.3871 0.2792 0.6153
C2 C 0.1699(3) 0.21835(5) 0.52269(12)
H2 H 0.1018 0.1959 0.5821
C3 C 0.1328(3) 0.21221(5) 0.39742(12)
C4 C 0.5078(3) 0.32951(5) 0.40008(12)
C5 C 0.6393(3) 0.33632(5) 0.28877(12)
H3 H 0.6472 0.3094 0.2344
C6 C 0.7593(3) 0.38275(5) 0.25748(12)
H4 H 0.8499 0.3881 0.1817
C7 C 0.7439(3) 0.42118(5) 0.33964(12)
C8 C 0.6169(3) 0.41482(5) 0.45113(12)
H5 H 0.6119 0.4418 0.5057
C9 C 0.4968(3) 0.36831(5) 0.48193(12)
H6 H 0.4081 0.3630 0.5580
C10 C -0.0250(3) 0.17034(5) 0.32703(12)
C11 C -0.3019(4) 0.09199(5) 0.34017(12)
H7 H -0.1280 0.0748 0.2935
H8 H -0.5052 0.1018 0.2847
C12 C -0.4196(4) 0.05868(5) 0.43721(13)
H9 H -0.5447 0.0301 0.4007
H10 H -0.5772 0.0770 0.4865
H11 H -0.2138 0.0472 0.4877
N1 N 0.3743(3) 0.28228(4) 0.42934(10)
N2 N 0.2585(3) 0.25099(4) 0.33966(10)
N3 N 0.8682(3) 0.47029(4) 0.30597(11)
O1 O -0.1428(2) 0.13560(3) 0.39993(8)
O2 O -0.0460(3) 0.16714(4) 0.21903(9)
O3 O 1.0362(3) 0.47363(4) 0.21665(9)
O4 O 0.7990(3) 0.50609(4) 0.36829(10)
loop_
_geom_bond_atom_site_label_1
_geom_bond_atom_site_label_2
_geom_bond_site_symmetry_1
_geom_bond_site_symmetry_2
C1 H1 1_555 1_555
C2 C1 1_555 1_555
H2 C2 1_555 1_555
C3 C2 1_555 1_555
C4 C5 1_555 1_555
C5 H3 1_555 1_555
C6 C5 1_555 1_555
H4 C6 1_555 1_555
C7 C6 1_555 1_555
C8 C7 1_555 1_555
H5 C8 1_555 1_555
C9 C4 1_555 1_555
H6 C9 1_555 1_555
C10 C3 1_555 1_555
C11 H7 1_555 1_555
H8 C11 1_555 1_555
C12 C11 1_555 1_555
H9 C12 1_555 1_555
H10 C12 1_555 1_555
H11 C12 1_555 1_555
N1 C1 1_555 1_555
N2 C3 1_555 1_555
N3 C7 1_555 1_555
O1 C10 1_555 1_555
O2 C10 1_555 1_555
O3 N3 1_555 1_555
O4 N3 1_555 1_555
C4 N1 1_555 1_555
C8 C9 1_555 1_555
C11 O1 1_555 1_555
N1 N2 1_555 1_555

#END
