
#######################################################################
#
#                 Cambridge Crystallographic Data Centre
#                                CCDC 
#
#######################################################################
#
# If this CIF has been generated from an entry in the Cambridge 
# Structural Database, then it will include bibliographic, chemical, 
# crystal, experimental, refinement or atomic coordinate data resulting 
# from the CCDC's data processing and validation procedures.
#
#######################################################################

data_QEFDOU
_chemical_formula_moiety         'C22 H16 F24'
_chemical_name_systematic        
1,3,5,7-tetrakis(1,1,2,3,3,3-Hexafluoropropyl)adamantane
_symmetry_cell_setting           orthorhombic
_symmetry_space_group_name_H-M   'P n m a'
_symmetry_Int_Tables_number      62
_space_group_name_Hall           '-P 2ac 2n'
loop_
_symmetry_equiv_pos_site_id
_symmetry_equiv_pos_as_xyz
1 x,y,z
2 1/2+x,y,1/2-z
3 x,1/2-y,z
4 1/2-x,1/2+y,1/2+z
5 -x,-y,-z
6 1/2-x,-y,1/2+z
7 -x,1/2+y,-z
8 1/2+x,1/2-y,1/2-z
_cell_length_a                   11.442(8)
_cell_length_b                   14.992(14)
_cell_length_c                   15.011(10)
_cell_angle_alpha                90
_cell_angle_beta                 90
_cell_angle_gamma                90
_cell_volume                     2574.96
_exptl_crystal_colour            colorless
_exptl_crystal_description       prism
_chemical_melting_point          383-385K
_cell_formula_units_Z            4
_exptl_crystal_recrystallization_method methanol
loop_
_atom_site_label
_atom_site_type_symbol
_atom_site_fract_x
_atom_site_fract_y
_atom_site_fract_z
C1 C 0.5789(7) 0.2500 0.4405(6)
C2 C 0.5888(8) 0.2500 0.5437(6)
H1 H 0.6361 0.3022 0.5659
C3 C 0.4625(8) 0.2500 0.5821(6)
C4 C 0.3979(5) 0.3336(5) 0.5494(4)
H2 H 0.4388 0.3882 0.5698
H3 H 0.3182 0.3341 0.5753
C5 C 0.3893(5) 0.3338(4) 0.4469(4)
C6 C 0.3240(7) 0.2500 0.4159(6)
H4 H 0.3180 0.2500 0.3501
H5 H 0.2438 0.2500 0.4409
C7 C 0.5139(6) 0.3332(5) 0.4080(4)
H6 H 0.5564 0.3876 0.4269
H7 H 0.5104 0.3327 0.3420
C8 C 0.7043(9) 0.2302(7) 0.4005(7)
C9 C 0.7957(14) 0.2977(12) 0.4287(11)
H8 H 0.7965 0.2985 0.4954
C10 C 0.9201(16) 0.2764(10) 0.3952(12)
C11 C 0.4656(9) 0.2259(6) 0.6835(7)
C12 C 0.5392(14) 0.2897(10) 0.7384(10)
C13 C 0.5377(14) 0.2761(9) 0.8392(11)
F1 F 0.6945(5) 0.2500 0.3089(3)
F2 F 0.7550(9) 0.1514(8) 0.4222(7)
F3 F 0.7606(11) 0.3823(9) 0.3937(9)
F4 F 0.9636(14) 0.2047(16) 0.4356(11)
F5 F 0.9927(17) 0.3424(18) 0.4163(15)
F6 F 0.9279(6) 0.265(5) 0.3108(5)
F7 F 0.3544(5) 0.2275(4) 0.7155(4)
F8 F 0.5171(13) 0.1450(10) 0.7113(10)
F9 F 0.639(2) 0.3106(18) 0.7135(17)
F10 F 0.4987(17) 0.1277(13) 0.7141(13)
F11 F 0.4322(7) 0.272(3) 0.8726(5)
F12 F 0.592(3) 0.200(2) 0.8587(14)
F13 F 0.599(3) 0.339(2) 0.8787(14)
C14 C 0.3221(6) 0.4180(5) 0.4173(5)
C15 C 0.2935(18) 0.4319(15) 0.3204(12)
H9 H 0.2623 0.3749 0.2949
C16 C 0.2133(11) 0.5115(8) 0.2976(7)
F14 F 0.2131(6) 0.4161(5) 0.4607(5)
F15 F 0.4048(10) 0.4622(8) 0.2869(7)
F17 F 0.2258(12) 0.5798(7) 0.3486(8)
F18 F 0.1198(15) 0.4718(12) 0.2952(11)
F19 F 0.2392(13) 0.5338(9) 0.2149(7)
F28 F 0.3797(5) 0.4921(3) 0.4499(4)
H1B H 0.6361 0.1978 0.5659
C5B C 0.3893(5) 0.1662(4) 0.4469(4)
C4B C 0.3979(5) 0.1664(5) 0.5494(4)
C11B C 0.4656(9) 0.2741(6) 0.6835(7)
C12B C 0.5392(14) 0.2103(10) 0.7384(10)
F7B F 0.3544(5) 0.2725(4) 0.7155(4)
F8B F 0.5171(13) 0.3550(10) 0.7113(10)
C13B C 0.5377(14) 0.2239(9) 0.8392(11)
F10B F 0.4987(17) 0.3723(13) 0.7141(13)
F11B F 0.4322(7) 0.228(3) 0.8726(5)
F12B F 0.592(3) 0.300(2) 0.8587(14)
F13B F 0.599(3) 0.161(2) 0.8787(14)
F9B F 0.639(2) 0.1894(18) 0.7135(17)
H2B H 0.4388 0.1118 0.5698
H3B H 0.3182 0.1659 0.5753
C7B C 0.5139(6) 0.1668(5) 0.4080(4)
C8B C 0.7043(9) 0.2698(7) 0.4005(7)
C9B C 0.7957(14) 0.2023(12) 0.4287(11)
C10B C 0.9201(16) 0.2236(10) 0.3952(12)
H8B H 0.7965 0.2015 0.4954
F3B F 0.7606(11) 0.1177(9) 0.3937(9)
F4B F 0.9636(14) 0.2953(16) 0.4356(11)
F5B F 0.9927(17) 0.1576(18) 0.4163(15)
F6B F 0.9279(6) 0.235(5) 0.3108(5)
F2B F 0.7550(9) 0.3486(8) 0.4222(7)
H6B H 0.5564 0.1124 0.4269
H7B H 0.5104 0.1673 0.3420
C14B C 0.3221(6) 0.0820(5) 0.4173(5)
C15B C 0.2935(18) 0.0681(15) 0.3204(12)
H9B H 0.2623 0.1251 0.2949
C16B C 0.2133(11) -0.0115(8) 0.2976(7)
F17B F 0.2258(12) -0.0798(7) 0.3486(8)
F18B F 0.1198(15) 0.0282(12) 0.2952(11)
F19B F 0.2392(13) -0.0338(9) 0.2149(7)
F15B F 0.4048(10) 0.0378(8) 0.2869(7)
F14B F 0.2131(6) 0.0839(5) 0.4607(5)
F28B F 0.3797(5) 0.0079(3) 0.4499(4)
F16? F 0.355(3) 0.409(2) 0.277(2)
F20? F 0.1113(19) 0.5127(19) 0.3423(16)
F21? F 0.2604(19) 0.5886(12) 0.3169(15)
F22? F 0.1844(18) 0.5136(13) 0.2149(9)
C17? C 0.1995(16) 0.434(2) 0.426(2)
H10? H 0.1559 0.3776 0.4134
C18? C 0.125(2) 0.5064(19) 0.386(2)
F23? F 0.333(2) 0.4257(15) 0.3255(8)
F24? F 0.209(3) 0.464(2) 0.516(2)
F25? F 0.183(2) 0.5680(18) 0.3747(18)
F26? F 0.039(3) 0.526(2) 0.421(2)
F27? F 0.102(2) 0.470(2) 0.3207(19)
loop_
_geom_bond_atom_site_label_1
_geom_bond_atom_site_label_2
_geom_bond_site_symmetry_1
_geom_bond_site_symmetry_2
C1 C2 1_555 1_555
C2 H1 1_555 1_555
C3 C2 1_555 1_555
C4 C3 1_555 1_555
H2 C4 1_555 1_555
H3 C4 1_555 1_555
C5 C4 1_555 1_555
C6 C5 1_555 1_555
H4 C6 1_555 1_555
H5 C6 1_555 1_555
C7 C1 1_555 1_555
H6 C7 1_555 1_555
H7 C7 1_555 1_555
C8 C1 1_555 1_555
C9 C8 1_555 1_555
H8 C9 1_555 1_555
C10 C9 1_555 1_555
C11 C3 1_555 1_555
C12 C11 1_555 1_555
C13 C12 1_555 1_555
F1 C8 1_555 1_555
F2 C8 1_555 1_555
F3 C9 1_555 1_555
F4 C10 1_555 1_555
F5 C10 1_555 1_555
F6 C10 1_555 1_555
F7 C11 1_555 1_555
F8 C11 1_555 1_555
F9 C12 1_555 1_555
F10 C11 1_555 1_555
F11 C13 1_555 1_555
F12 C13 1_555 1_555
F13 C13 1_555 1_555
C14 C5 1_555 1_555
C15 C14 1_555 1_555
H9 C15 1_555 1_555
C16 C15 1_555 1_555
F14 C14 1_555 1_555
F15 C15 1_555 1_555
F17 C16 1_555 1_555
F18 C16 1_555 1_555
F19 C16 1_555 1_555
F28 C14 1_555 1_555
H1B C2 1_555 1_555
C5B C6 1_555 1_555
C4B C3 1_555 1_555
C11B C3 1_555 1_555
C12B C11 1_555 1_555
F7B C11 1_555 1_555
F8B C12 1_555 1_555
C13B C13 1_555 1_555
F10B C12 1_555 1_555
F11B C13 1_555 1_555
F12B C13 1_555 1_555
F13B F12 1_555 1_555
F9B F8 1_555 1_555
H2B C4B 1_555 1_555
H3B C4B 1_555 1_555
C7B C1 1_555 1_555
C8B C1 1_555 1_555
C9B C8 1_555 1_555
C10B C10 1_555 1_555
H8B C9B 1_555 1_555
F3B F2 1_555 1_555
F4B C10 1_555 1_555
F5B F4 1_555 1_555
F6B C10 1_555 1_555
F2B C9 1_555 1_555
H6B C7B 1_555 1_555
H7B C7B 1_555 1_555
C14B C5B 1_555 1_555
C15B C14B 1_555 1_555
H9B C15B 1_555 1_555
C16B C15B 1_555 1_555
F17B C16B 1_555 1_555
F18B C16B 1_555 1_555
F19B C16B 1_555 1_555
F15B C15B 1_555 1_555
F14B C14B 1_555 1_555
F28B C14B 1_555 1_555
C5 C7 1_555 1_555
C8 C8B 1_555 1_555
C9 C8B 1_555 1_555
C9 C9B 1_555 1_555
C11 C11B 1_555 1_555
C12 C11B 1_555 1_555
C12 C12B 1_555 1_555
F1 C8B 1_555 1_555
F2 C9B 1_555 1_555
F3 F2B 1_555 1_555
F4 C10B 1_555 1_555
F4 F4B 1_555 1_555
F5 F4B 1_555 1_555
F6 C10B 1_555 1_555
F6 F6B 1_555 1_555
F7 C11B 1_555 1_555
F7 F7B 1_555 1_555
F8 C12B 1_555 1_555
F8 F10 1_555 1_555
F9 F8B 1_555 1_555
F10 C12B 1_555 1_555
F11 C13B 1_555 1_555
F11 F11B 1_555 1_555
F12 C13B 1_555 1_555
F12 F12B 1_555 1_555
F13 F12B 1_555 1_555
C5B C4B 1_555 1_555
C5B C7B 1_555 1_555
C11B C12B 1_555 1_555
C11B F7B 1_555 1_555
C11B F8B 1_555 1_555
C11B F10B 1_555 1_555
C12B C13B 1_555 1_555
C12B F9B 1_555 1_555
F8B F10B 1_555 1_555
C13B F11B 1_555 1_555
C13B F12B 1_555 1_555
C13B F13B 1_555 1_555
C8B C9B 1_555 1_555
C8B F2B 1_555 1_555
C9B F3B 1_555 1_555
C9B C10B 1_555 1_555
C10B F4B 1_555 1_555
C10B F5B 1_555 1_555
C10B F6B 1_555 1_555

#END
