
#######################################################################
#
#                 Cambridge Crystallographic Data Centre
#                                CCDC 
#
#######################################################################
#
# If this CIF has been generated from an entry in the Cambridge 
# Structural Database, then it will include bibliographic, chemical, 
# crystal, experimental, refinement or atomic coordinate data resulting 
# from the CCDC's data processing and validation procedures.
#
#######################################################################

data_QEFKUK
_chemical_formula_moiety         'C36 H40 N4 O2,C1 H2 Cl2'
_chemical_name_systematic        
"3',6'-bis(diethylamino)-2-(4-(dimethylamino)phenyl)spiro[isoindole-1,9'-xanthen]-3(2H)-one dichloromethane solvate"
_symmetry_cell_setting           triclinic
_symmetry_space_group_name_H-M   'P -1'
_symmetry_Int_Tables_number      2
_space_group_name_Hall           '-P 1'
loop_
_symmetry_equiv_pos_site_id
_symmetry_equiv_pos_as_xyz
1 x,y,z
2 -x,-y,-z
_cell_length_a                   9.4909(19)
_cell_length_b                   12.168(2)
_cell_length_c                   14.851(3)
_cell_angle_alpha                90.75(3)
_cell_angle_beta                 93.21(3)
_cell_angle_gamma                93.05(3)
_cell_volume                     1709.73
_exptl_crystal_colour            colorless
_exptl_crystal_description       block
_cell_formula_units_Z            2
loop_
_atom_site_label
_atom_site_type_symbol
_atom_site_fract_x
_atom_site_fract_y
_atom_site_fract_z
C1 C -0.1137(4) 0.3719(3) -0.1087(2)
H1 H -0.0508 0.4334 -0.1215
H2 H -0.2066 0.3839 -0.1343
H3 H -0.0802 0.3060 -0.1344
C2 C -0.2541(3) 0.3605(3) 0.0263(2)
H4 H -0.2792 0.2882 0.0474
H5 H -0.3238 0.3811 -0.0188
H6 H -0.2500 0.4122 0.0759
C3 C 0.0023(3) 0.3458(2) 0.04094(16)
C4 C 0.1356(3) 0.3469(2) 0.00596(17)
H7 H 0.1440 0.3576 -0.0554
C5 C 0.2558(3) 0.3323(2) 0.06090(17)
H8 H 0.3433 0.3341 0.0356
C6 C 0.2487(2) 0.31510(19) 0.15228(15)
C7 C 0.1170(3) 0.3143(2) 0.18762(17)
H9 H 0.1094 0.3029 0.2490
C8 C -0.0027(3) 0.3297(2) 0.13421(17)
H10 H -0.0894 0.3295 0.1604
C9 C 0.4723(3) 0.2242(2) 0.18204(17)
C10 C 0.5925(3) 0.2375(2) 0.24948(18)
C11 C 0.7176(3) 0.1841(2) 0.2552(2)
H11 H 0.7373 0.1316 0.2123
C12 C 0.8127(3) 0.2116(3) 0.3276(2)
H12 H 0.8981 0.1776 0.3333
C13 C 0.7812(3) 0.2890(3) 0.3909(2)
H13 H 0.8460 0.3058 0.4390
C14 C 0.6560(3) 0.3423(2) 0.3849(2)
H14 H 0.6355 0.3941 0.4282
C15 C 0.5625(3) 0.3156(2) 0.31220(17)
C16 C 0.4189(2) 0.36116(19) 0.28941(15)
C17 C 0.3230(2) 0.34069(19) 0.36615(15)
C18 C 0.2834(3) 0.2339(2) 0.39280(19)
H15 H 0.3141 0.1745 0.3606
C19 C 0.2013(3) 0.2135(2) 0.46429(19)
H16 H 0.1782 0.1411 0.4794
C20 C 0.1516(3) 0.2995(2) 0.51496(17)
C21 C 0.1909(3) 0.4066(2) 0.48932(16)
H17 H 0.1605 0.4662 0.5214
C22 C 0.2745(3) 0.42505(19) 0.41674(15)
C23 C 0.3808(2) 0.56129(19) 0.32555(16)
C24 C 0.3998(3) 0.6731(2) 0.31164(19)
H18 H 0.3641 0.7226 0.3516
C25 C 0.4722(3) 0.7128(2) 0.23803(19)
C26 C 0.5226(3) 0.6338(2) 0.18049(18)
H19 H 0.5707 0.6565 0.1305
C27 C 0.5022(3) 0.5235(2) 0.19647(17)
H20 H 0.5370 0.4735 0.1565
C28 C 0.4319(2) 0.48312(19) 0.26983(15)
C29 C 0.0404(4) 0.1700(3) 0.6202(2)
H21 H 0.0260 0.1745 0.6843
H22 H 0.1228 0.1278 0.6123
C30 C -0.0867(4) 0.1110(3) 0.5728(3)
H23 H -0.1687 0.1523 0.5805
H24 H -0.1010 0.0393 0.5979
H25 H -0.0715 0.1037 0.5097
C31 C 0.0226(3) 0.3722(3) 0.6409(2)
H26 H -0.0612 0.3485 0.6714
H27 H -0.0020 0.4322 0.6017
C32 C 0.1357(5) 0.4128(4) 0.7097(2)
H28 H 0.1561 0.3550 0.7510
H29 H 0.1039 0.4747 0.7422
H30 H 0.2196 0.4348 0.6799
C33 C 0.4374(4) 0.9045(3) 0.2823(3)
H31 H 0.3435 0.8794 0.2984
H32 H 0.4284 0.9726 0.2498
C34 C 0.5251(6) 0.9290(4) 0.3670(3)
H33 H 0.5301 0.8635 0.4021
H34 H 0.4831 0.9851 0.4011
H35 H 0.6185 0.9543 0.3526
C35 C 0.5519(5) 0.8644(3) 0.1368(3)
H36 H 0.5221 0.8151 0.0867
H37 H 0.5188 0.9367 0.1231
C36 C 0.7034(7) 0.8706(5) 0.1487(5)
H38 H 0.7324 0.9174 0.1996
H39 H 0.7430 0.9002 0.0955
H40 H 0.7362 0.7982 0.1588
N1 N -0.1187(2) 0.3603(2) -0.01189(15)
N2 N 0.3734(2) 0.29561(16) 0.20636(13)
N3 N 0.0670(3) 0.2810(2) 0.58642(16)
N4 N 0.4888(3) 0.8230(2) 0.2213(2)
O1 O 0.4612(2) 0.16145(17) 0.11659(14)
O2 O 0.3073(2) 0.53426(14) 0.40092(12)
C37 C 0.1470(5) 1.0372(3) 0.1026(3)
H41 H 0.0880 1.0837 0.0658
H42 H 0.2404 1.0737 0.1104
Cl1 Cl 0.1593(2) 0.91363(11) 0.04745(13)
Cl2 Cl 0.0767(2) 1.02238(15) 0.20751(13)
loop_
_geom_bond_atom_site_label_1
_geom_bond_atom_site_label_2
_geom_bond_site_symmetry_1
_geom_bond_site_symmetry_2
C1 H1 1_555 1_555
H2 C1 1_555 1_555
H3 C1 1_555 1_555
C2 H4 1_555 1_555
H5 C2 1_555 1_555
H6 C2 1_555 1_555
C3 C4 1_555 1_555
C4 H7 1_555 1_555
C5 C4 1_555 1_555
H8 C5 1_555 1_555
C6 C5 1_555 1_555
C7 C6 1_555 1_555
H9 C7 1_555 1_555
C8 C3 1_555 1_555
H10 C8 1_555 1_555
C9 C10 1_555 1_555
C10 C11 1_555 1_555
C11 H11 1_555 1_555
C12 C11 1_555 1_555
H12 C12 1_555 1_555
C13 C12 1_555 1_555
H13 C13 1_555 1_555
C14 C13 1_555 1_555
H14 C14 1_555 1_555
C15 C10 1_555 1_555
C16 C15 1_555 1_555
C17 C16 1_555 1_555
C18 C17 1_555 1_555
H15 C18 1_555 1_555
C19 C18 1_555 1_555
H16 C19 1_555 1_555
C20 C19 1_555 1_555
C21 C20 1_555 1_555
H17 C21 1_555 1_555
C22 C17 1_555 1_555
C23 C24 1_555 1_555
C24 H18 1_555 1_555
C25 C24 1_555 1_555
C26 C25 1_555 1_555
H19 C26 1_555 1_555
C27 C26 1_555 1_555
H20 C27 1_555 1_555
C28 C16 1_555 1_555
C29 H21 1_555 1_555
H22 C29 1_555 1_555
C30 C29 1_555 1_555
H23 C30 1_555 1_555
H24 C30 1_555 1_555
H25 C30 1_555 1_555
C31 H26 1_555 1_555
H27 C31 1_555 1_555
C32 C31 1_555 1_555
H28 C32 1_555 1_555
H29 C32 1_555 1_555
H30 C32 1_555 1_555
C33 H31 1_555 1_555
H32 C33 1_555 1_555
C34 C33 1_555 1_555
H33 C34 1_555 1_555
H34 C34 1_555 1_555
H35 C34 1_555 1_555
C35 H36 1_555 1_555
H37 C35 1_555 1_555
C36 C35 1_555 1_555
H38 C36 1_555 1_555
H39 C36 1_555 1_555
H40 C36 1_555 1_555
N1 C1 1_555 1_555
N2 C6 1_555 1_555
N3 C20 1_555 1_555
N4 C25 1_555 1_555
O1 C9 1_555 1_555
O2 C22 1_555 1_555
C37 H41 1_555 1_555
H42 C37 1_555 1_555
Cl1 C37 1_555 1_555
Cl2 C37 1_555 1_555
C2 N1 1_555 1_555
C3 N1 1_555 1_555
C7 C8 1_555 1_555
C9 N2 1_555 1_555
C14 C15 1_555 1_555
C16 N2 1_555 1_555
C21 C22 1_555 1_555
C23 C28 1_555 1_555
C23 O2 1_555 1_555
C27 C28 1_555 1_555
C29 N3 1_555 1_555
C31 N3 1_555 1_555
C33 N4 1_555 1_555
C35 N4 1_555 1_555

#END
