
#######################################################################
#
#                 Cambridge Crystallographic Data Centre
#                                CCDC 
#
#######################################################################
#
# If this CIF has been generated from an entry in the Cambridge 
# Structural Database, then it will include bibliographic, chemical, 
# crystal, experimental, refinement or atomic coordinate data resulting 
# from the CCDC's data processing and validation procedures.
#
#######################################################################

data_QEFMUJ02
_chemical_name_common            Aplydactone
_chemical_formula_moiety         'C15 H21 Br1 O1'
_chemical_name_systematic        
6-bromo-2,5,5-trimethylhexahydro-1,4a:2,8a-dimethanonaphthalen-3(4H)-one
_symmetry_cell_setting           monoclinic
_symmetry_space_group_name_H-M   'P 21'
_symmetry_Int_Tables_number      4
_space_group_name_Hall           'P 2yb'
loop_
_symmetry_equiv_pos_site_id
_symmetry_equiv_pos_as_xyz
1 x,y,z
2 -x,1/2+y,-z
_cell_length_a                   7.1000(14)
_cell_length_b                   12.200(2)
_cell_length_c                   7.5000(15)
_cell_angle_alpha                90
_cell_angle_beta                 92.40(3)
_cell_angle_gamma                90
_cell_volume                     649.08
_exptl_crystal_colour            colorless
_exptl_crystal_description       block
_cell_formula_units_Z            2
loop_
_atom_site_label
_atom_site_type_symbol
_atom_site_fract_x
_atom_site_fract_y
_atom_site_fract_z
Br1 Br 1.27579(7) 0.67598(7) 0.98050(6)
C1 C 0.5397(9) 0.4501(5) 0.5002(8)
C2 C 0.9147(9) 0.6432(5) 0.5227(8)
H1 H 0.8542 0.7006 0.4517
H2 H 1.0041 0.6067 0.4484
C3 C 1.0227(10) 0.6958(4) 0.6799(8)
H3 H 1.1292 0.7366 0.6374
H4 H 0.9413 0.7466 0.7396
C4 C 1.0194(10) 0.4583(6) 1.0187(8)
H5 H 1.1100 0.4185 0.9528
H6 H 0.9216 0.4095 1.0536
H7 H 1.0805 0.4898 1.1232
C5 C 0.4965(9) 0.4059(5) 0.6814(8)
O1 O 0.3765(8) 0.3388(4) 0.7067(7)
C6 C 0.7662(8) 0.5609(5) 0.5728(7)
C7 C 0.9336(8) 0.5494(5) 0.9018(7)
C8 C 1.0909(9) 0.6097(5) 0.8079(8)
H8 H 1.1585 0.5550 0.7394
C9 C 0.8034(8) 0.4969(5) 0.7544(7)
C10 C 0.8213(10) 0.6290(6) 1.0145(8)
H9 H 0.7450 0.5883 1.0938
H10 H 0.7417 0.6736 0.9374
H11 H 0.9069 0.6751 1.0828
C11 C 0.5567(9) 0.5771(5) 0.5196(8)
H12 H 0.5347 0.6167 0.4085
H13 H 0.4829 0.6076 0.6136
C12 C 0.6158(9) 0.4594(5) 0.8276(7)
H14 H 0.6393 0.4078 0.9244
H15 H 0.5494 0.5220 0.8743
C13 C 0.4196(12) 0.4023(6) 0.3507(9)
H16 H 0.4352 0.3242 0.3491
H17 H 0.4569 0.4325 0.2394
H18 H 0.2898 0.4197 0.3679
C14 C 0.8773(9) 0.3994(5) 0.6442(7)
H19 H 1.0124 0.4003 0.6295
H20 H 0.8349 0.3281 0.6833
C15 C 0.7612(8) 0.4469(6) 0.4855(7)
H21 H 0.8116 0.4396 0.3664
loop_
_geom_bond_atom_site_label_1
_geom_bond_atom_site_label_2
_geom_bond_site_symmetry_1
_geom_bond_site_symmetry_2
Br1 C8 1_555 1_555
C1 C5 1_555 1_555
C2 H1 1_555 1_555
H2 C2 1_555 1_555
C3 C2 1_555 1_555
H3 C3 1_555 1_555
H4 C3 1_555 1_555
C4 H5 1_555 1_555
H6 C4 1_555 1_555
H7 C4 1_555 1_555
C5 O1 1_555 1_555
C6 C2 1_555 1_555
C7 C4 1_555 1_555
C8 C3 1_555 1_555
H8 C8 1_555 1_555
C9 C6 1_555 1_555
C10 C7 1_555 1_555
H9 C10 1_555 1_555
H10 C10 1_555 1_555
H11 C10 1_555 1_555
C11 C1 1_555 1_555
H12 C11 1_555 1_555
H13 C11 1_555 1_555
C12 C5 1_555 1_555
H14 C12 1_555 1_555
H15 C12 1_555 1_555
C13 C1 1_555 1_555
H16 C13 1_555 1_555
H17 C13 1_555 1_555
H18 C13 1_555 1_555
C14 C9 1_555 1_555
H19 C14 1_555 1_555
H20 C14 1_555 1_555
C15 C1 1_555 1_555
H21 C15 1_555 1_555
C6 C11 1_555 1_555
C6 C15 1_555 1_555
C7 C8 1_555 1_555
C7 C9 1_555 1_555
C9 C12 1_555 1_555
C14 C15 1_555 1_555

#END
