
#######################################################################
#
#                 Cambridge Crystallographic Data Centre
#                                CCDC 
#
#######################################################################
#
# If this CIF has been generated from an entry in the Cambridge 
# Structural Database, then it will include bibliographic, chemical, 
# crystal, experimental, refinement or atomic coordinate data resulting 
# from the CCDC's data processing and validation procedures.
#
#######################################################################

data_QEFNOH
_chemical_formula_moiety         'C34 H30 Cl4 N4 O8'
_chemical_name_systematic        
2,2'-(ethane-1,2-diylbis(oxy-2,1-phenylene-3,6-dioxa-2,7-diazaocta-1,7-diene-8,1-diyl))bis(4,6-dichlorophenol)
_symmetry_cell_setting           monoclinic
_symmetry_space_group_name_H-M   'C 2/c'
_symmetry_Int_Tables_number      15
_space_group_name_Hall           '-C 2yn'
loop_
_symmetry_equiv_pos_site_id
_symmetry_equiv_pos_as_xyz
1 x,y,z
2 -x,y,1/2-z
3 1/2+x,1/2+y,z
4 1/2-x,1/2+y,1/2-z
5 -x,-y,-z
6 x,-y,1/2+z
7 1/2-x,1/2-y,-z
8 1/2+x,1/2-y,1/2+z
_cell_length_a                   21.4906(16)
_cell_length_b                   6.8232(3)
_cell_length_c                   26.3175(13)
_cell_angle_alpha                90
_cell_angle_beta                 111.299(7)
_cell_angle_gamma                90
_cell_volume                     3595.47
_exptl_crystal_colour            'light yellow'
_exptl_crystal_description       block
_cell_formula_units_Z            4
loop_
_atom_site_label
_atom_site_type_symbol
_atom_site_fract_x
_atom_site_fract_y
_atom_site_fract_z
Cl1 Cl 0.17078(6) 0.35867(15) 0.11530(4)
Cl2 Cl 0.41360(5) 0.50619(16) 0.11075(4)
C1 C 0.23230(17) 0.4963(4) -0.00632(12)
O1 O 0.34393(13) 0.5590(4) -0.00530(9)
H1 H 0.3226 0.5677 -0.0381
N1 N 0.23513(15) 0.5657(4) -0.09367(10)
C2 C 0.19259(17) 0.4495(4) 0.02341(12)
H2 H 0.1466 0.4374 0.0058
O2 O 0.03675(13) 1.4264(3) -0.28406(8)
O3 O 0.19497(12) 0.5865(4) -0.14880(8)
O4 O 0.16442(14) 0.8634(4) -0.23412(8)
C3 C 0.30203(18) 0.5149(4) 0.02094(13)
C4 C 0.22086(19) 0.4209(5) 0.07882(12)
C5 C 0.32822(18) 0.4864(4) 0.07690(13)
C6 C 0.2881(2) 0.4398(4) 0.10567(13)
H3 H 0.3067 0.4213 0.1432
N2 N 0.13310(15) 0.9348(4) -0.28731(9)
C7 C 0.20053(18) 0.5242(4) -0.06510(12)
H4 H 0.1545 0.5114 -0.0818
C8 C 0.19457(19) 0.6777(5) -0.23547(12)
H5 H 0.2209 0.6847 -0.2585
H6 H 0.1604 0.5783 -0.2500
C9 C 0.23786(18) 0.6279(5) -0.17883(12)
H7 H 0.2651 0.5143 -0.1787
H8 H 0.2673 0.7368 -0.1623
C10 C 0.07012(19) 1.1417(6) -0.38760(13)
H9 H 0.0925 1.0272 -0.3898
C11 C 0.00364(18) 1.4853(6) -0.38155(14)
H10 H -0.0184 1.6011 -0.3799
C12 C 0.06953(16) 1.2041(5) -0.33736(11)
C13 C 0.10379(19) 1.0945(5) -0.28726(13)
H11 H 0.1039 1.1442 -0.2543
C14 C 0.03621(17) 1.3763(5) -0.33465(13)
C15 C 0.0048(2) 1.4173(7) -0.43055(15)
H12 H -0.0173 1.4882 -0.4622
C16 C 0.0375(2) 1.2492(7) -0.43412(14)
H13 H 0.0379 1.2075 -0.4677
C17 C -0.00128(19) 1.5901(5) -0.27860(13)
H14 H -0.0471 1.5791 -0.3038
H15 H 0.0175 1.7108 -0.2863
Cl1A Cl -0.17078(6) 0.35867(15) -0.61530(4)
Cl2A Cl -0.41360(5) 0.50619(16) -0.61075(4)
C1A C -0.23230(17) 0.4963(4) -0.49368(12)
O1A O -0.34393(13) 0.5590(4) -0.49470(9)
H1A H -0.3226 0.5677 -0.4619
N1A N -0.23513(15) 0.5657(4) -0.40633(10)
C2A C -0.19259(17) 0.4495(4) -0.52341(12)
H2A H -0.1466 0.4374 -0.5058
O2A O -0.03675(13) 1.4264(3) -0.21594(8)
O3A O -0.19497(12) 0.5865(4) -0.35120(8)
O4A O -0.16442(14) 0.8634(4) -0.26588(8)
C3A C -0.30203(18) 0.5149(4) -0.52094(13)
C4A C -0.22086(19) 0.4209(5) -0.57882(12)
C5A C -0.32822(18) 0.4864(4) -0.57690(13)
C6A C -0.2881(2) 0.4398(4) -0.60567(13)
H3A H -0.3067 0.4213 -0.6432
N2A N -0.13310(15) 0.9348(4) -0.21269(9)
C7A C -0.20053(18) 0.5242(4) -0.43490(12)
H4A H -0.1545 0.5114 -0.4182
C8A C -0.19457(19) 0.6777(5) -0.26453(12)
H5A H -0.2209 0.6847 -0.2415
H6A H -0.1604 0.5783 -0.2500
C9A C -0.23786(18) 0.6279(5) -0.32117(12)
H7A H -0.2651 0.5143 -0.3213
H8A H -0.2673 0.7368 -0.3377
C10A C -0.07012(19) 1.1417(6) -0.11240(13)
H9A H -0.0925 1.0272 -0.1102
C11A C -0.00364(18) 1.4853(6) -0.11845(14)
H10A H 0.0184 1.6011 -0.1201
C12A C -0.06953(16) 1.2041(5) -0.16264(11)
C13A C -0.10379(19) 1.0945(5) -0.21274(13)
H11A H -0.1039 1.1442 -0.2457
C14A C -0.03621(17) 1.3763(5) -0.16535(13)
C15A C -0.0048(2) 1.4173(7) -0.06945(15)
H12A H 0.0173 1.4882 -0.0378
C16A C -0.0375(2) 1.2492(7) -0.06588(14)
H13A H -0.0379 1.2075 -0.0323
C17A C 0.00128(19) 1.5901(5) -0.22140(13)
H14A H 0.0471 1.5791 -0.1962
H15A H -0.0175 1.7108 -0.2137
loop_
_geom_bond_atom_site_label_1
_geom_bond_atom_site_label_2
_geom_bond_site_symmetry_1
_geom_bond_site_symmetry_2
Cl1 C4 1_555 1_555
Cl2 C5 1_555 1_555
C1 C2 1_555 1_555
O1 H1 1_555 1_555
N1 O3 1_555 1_555
C2 H2 1_555 1_555
O2 C14 1_555 1_555
O3 C9 1_555 1_555
O4 N2 1_555 1_555
C3 C1 1_555 1_555
C4 C2 1_555 1_555
C5 C3 1_555 1_555
C6 C4 1_555 1_555
H3 C6 1_555 1_555
N2 C13 1_555 1_555
C7 C1 1_555 1_555
H4 C7 1_555 1_555
C8 O4 1_555 1_555
H5 C8 1_555 1_555
H6 C8 1_555 1_555
C9 C8 1_555 1_555
H7 C9 1_555 1_555
H8 C9 1_555 1_555
C10 H9 1_555 1_555
C11 H10 1_555 1_555
C12 C10 1_555 1_555
C13 C12 1_555 1_555
H11 C13 1_555 1_555
C14 C11 1_555 1_555
C15 C11 1_555 1_555
H12 C15 1_555 1_555
C16 C10 1_555 1_555
H13 C16 1_555 1_555
C17 O2 1_555 1_555
H14 C17 1_555 1_555
H15 C17 1_555 1_555
Cl1A C4A 1_555 1_555
Cl2A C5A 1_555 1_555
C1A C2A 1_555 1_555
O1A H1A 1_555 1_555
N1A O3A 1_555 1_555
C2A H2A 1_555 1_555
O2A C14A 1_555 1_555
O3A C9A 1_555 1_555
O4A N2A 1_555 1_555
C3A C1A 1_555 1_555
C4A C2A 1_555 1_555
C5A C3A 1_555 1_555
C6A C4A 1_555 1_555
H3A C6A 1_555 1_555
N2A C13A 1_555 1_555
C7A C1A 1_555 1_555
H4A C7A 1_555 1_555
C8A O4A 1_555 1_555
H5A C8A 1_555 1_555
H6A C8A 1_555 1_555
C9A C8A 1_555 1_555
H7A C9A 1_555 1_555
H8A C9A 1_555 1_555
C10A H9A 1_555 1_555
C11A H10A 1_555 1_555
C12A C10A 1_555 1_555
C13A C12A 1_555 1_555
H11A C13A 1_555 1_555
C14A C11A 1_555 1_555
C15A C11A 1_555 1_555
H12A C15A 1_555 1_555
C16A C10A 1_555 1_555
H13A C16A 1_555 1_555
C17A C17 1_555 1_555
H14A C17A 1_555 1_555
H15A C17A 1_555 1_555
O1 C3 1_555 1_555
N1 C7 1_555 1_555
C5 C6 1_555 1_555
C12 C14 1_555 1_555
C15 C16 1_555 1_555
O1A C3A 1_555 1_555
N1A C7A 1_555 1_555
O2A C17A 1_555 1_555
C5A C6A 1_555 1_555
C12A C14A 1_555 1_555
C15A C16A 1_555 1_555

#END
