
#######################################################################
#
#                 Cambridge Crystallographic Data Centre
#                                CCDC 
#
#######################################################################
#
# If this CIF has been generated from an entry in the Cambridge 
# Structural Database, then it will include bibliographic, chemical, 
# crystal, experimental, refinement or atomic coordinate data resulting 
# from the CCDC's data processing and validation procedures.
#
#######################################################################

data_QEFNIY
_chemical_formula_moiety         'C21 H16 F5 N1'
_chemical_name_systematic        
2-(2,2,3,3,3-Pentafluoro-1,1-diphenylpropyl)aniline
_symmetry_cell_setting           orthorhombic
_symmetry_space_group_name_H-M   'P 21 21 21'
_symmetry_Int_Tables_number      19
_space_group_name_Hall           'P 2ac 2ab'
loop_
_symmetry_equiv_pos_site_id
_symmetry_equiv_pos_as_xyz
1 x,y,z
2 1/2-x,-y,1/2+z
3 -x,1/2+y,1/2-z
4 1/2+x,1/2-y,-z
_cell_length_a                   9.4598(3)
_cell_length_b                   12.8487(2)
_cell_length_c                   14.4550(5)
_cell_angle_alpha                90
_cell_angle_beta                 90
_cell_angle_gamma                90
_cell_volume                     1756.95
_chemical_melting_point          98-99deg.C
_cell_formula_units_Z            4
_exptl_crystal_recrystallization_method pentane
loop_
_atom_site_label
_atom_site_type_symbol
_atom_site_fract_x
_atom_site_fract_y
_atom_site_fract_z
F1 F -0.09398(13) -0.72181(10) -0.82309(8)
F2 F -0.27160(15) -0.62243(9) -0.85134(9)
F3 F -0.42101(16) -0.76682(12) -0.92004(10)
F4 F -0.31679(17) -0.89050(10) -0.85141(10)
F5 F -0.21043(19) -0.80587(14) -0.95744(11)
C1 C -0.2162(2) -0.81271(15) -0.65780(15)
C2 C -0.2370(2) -0.81893(17) -0.56070(16)
C3 C -0.1656(3) -0.8942(2) -0.51012(19)
H1 H -0.1794 -0.8974 -0.4444
C4 C -0.0763(3) -0.9639(2) -0.5512(2)
H2 H -0.0290 -1.0155 -0.5145
C5 C -0.0542(3) -0.96002(19) -0.6457(2)
H3 H 0.0086 -1.0084 -0.6752
C6 C -0.1240(2) -0.88518(17) -0.69696(18)
H4 H -0.1084 -0.8829 -0.7626
C7 C -0.2863(2) -0.72287(16) -0.71225(14)
C8 C -0.2307(2) -0.62005(16) -0.66625(14)
C9 C -0.3160(3) -0.53752(16) -0.64050(17)
H5 H -0.4154 -0.5400 -0.6537
C10 C -0.2600(3) -0.45096(19) -0.59587(19)
H6 H -0.3209 -0.3944 -0.5787
C11 C -0.1191(3) -0.4460(2) -0.57629(19)
H7 H -0.0807 -0.3861 -0.5455
C12 C -0.0330(3) -0.5268(2) -0.6009(2)
H8 H 0.0662 -0.5236 -0.5872
C13 C -0.0878(3) -0.61328(18) -0.64527(17)
H9 H -0.0260 -0.6695 -0.6618
C14 C -0.4498(2) -0.73412(18) -0.71470(15)
C15 C -0.5367(3) -0.6598(2) -0.75604(19)
H10 H -0.4958 -0.5969 -0.7800
C16 C -0.6820(3) -0.6757(3) -0.7630(2)
H11 H -0.7404 -0.6243 -0.7925
C17 C -0.7415(3) -0.7646(3) -0.7278(2)
H12 H -0.8417 -0.7753 -0.7325
C18 C -0.6590(3) -0.8373(2) -0.6865(2)
H13 H -0.7013 -0.8991 -0.6615
C19 C -0.5147(2) -0.82299(19) -0.68006(17)
H14 H -0.4579 -0.8756 -0.6510
C20 C -0.2370(2) -0.71707(16) -0.81484(15)
C21 C -0.2969(3) -0.7967(2) -0.88649(17)
N1 N -0.3283(2) -0.75399(17) -0.51330(14)
H15 H -0.3392 -0.7611 -0.4546
H16 H -0.3742 -0.7065 -0.5425
loop_
_geom_bond_atom_site_label_1
_geom_bond_atom_site_label_2
_geom_bond_site_symmetry_1
_geom_bond_site_symmetry_2
F1 C20 1_555 1_555
F2 C20 1_555 1_555
F3 C21 1_555 1_555
F4 C21 1_555 1_555
F5 C21 1_555 1_555
C1 C2 1_555 1_555
C2 C3 1_555 1_555
C3 H1 1_555 1_555
C4 C3 1_555 1_555
H2 C4 1_555 1_555
C5 C4 1_555 1_555
H3 C5 1_555 1_555
C6 C1 1_555 1_555
H4 C6 1_555 1_555
C7 C1 1_555 1_555
C8 C7 1_555 1_555
C9 C8 1_555 1_555
H5 C9 1_555 1_555
C10 C9 1_555 1_555
H6 C10 1_555 1_555
C11 C10 1_555 1_555
H7 C11 1_555 1_555
C12 C11 1_555 1_555
H8 C12 1_555 1_555
C13 C8 1_555 1_555
H9 C13 1_555 1_555
C14 C7 1_555 1_555
C15 C14 1_555 1_555
H10 C15 1_555 1_555
C16 C15 1_555 1_555
H11 C16 1_555 1_555
C17 C16 1_555 1_555
H12 C17 1_555 1_555
C18 C17 1_555 1_555
H13 C18 1_555 1_555
C19 C14 1_555 1_555
H14 C19 1_555 1_555
C20 C7 1_555 1_555
C21 C20 1_555 1_555
N1 C2 1_555 1_555
H15 N1 1_555 1_555
H16 N1 1_555 1_555
C5 C6 1_555 1_555
C12 C13 1_555 1_555
C18 C19 1_555 1_555

#END
