
#######################################################################
#
#                 Cambridge Crystallographic Data Centre
#                                CCDC 
#
#######################################################################
#
# If this CIF has been generated from an entry in the Cambridge 
# Structural Database, then it will include bibliographic, chemical, 
# crystal, experimental, refinement or atomic coordinate data resulting 
# from the CCDC's data processing and validation procedures.
#
#######################################################################

data_QEFPOG01
_chemical_formula_moiety         
'0.9(C12 H10 N2 O4 S2),0.9(C14 H10),0.1(C26 H20 N2 O4 S2)'
_chemical_name_systematic        
"1,4-Dithiine-tetracarboxylic N,N'-diethyldi-imide anthracene 5,15-diethyl-2,8-dithia-5,15-diaza-11,12:17,18-dibenzopentacyclo(7.4.3.2^10,13^.0.0^3,7^)octadeca-3(7),11,17-triene-4,6,14,16-tetraone"
_symmetry_cell_setting           triclinic
_symmetry_space_group_name_H-M   'P -1'
_symmetry_Int_Tables_number      2
_space_group_name_Hall           '-P 1'
loop_
_symmetry_equiv_pos_site_id
_symmetry_equiv_pos_as_xyz
1 x,y,z
2 -x,-y,-z
_cell_length_a                   7.2963(5)
_cell_length_b                   7.3998(5)
_cell_length_c                   10.4905(8)
_cell_angle_alpha                88.134(2)
_cell_angle_beta                 84.647(2)
_cell_angle_gamma                82.805(2)
_cell_volume                     559.359
_exptl_crystal_colour            red
_exptl_crystal_description       prism
_cell_formula_units_Z            1
loop_
_atom_site_label
_atom_site_type_symbol
_atom_site_fract_x
_atom_site_fract_y
_atom_site_fract_z
S1 S 0.02869(6) 0.27189(6) 0.57585(4)
O1 O 0.2547(3) 0.0618(2) 0.3450(2)
O2 O 0.1680(4) 0.6242(3) 0.1517(2)
N1 N 0.2345(3) 0.3220(2) 0.21572(15)
C8 C 0.2051(3) 0.2225(4) 0.3284(3)
C9 C 0.1627(3) 0.5041(3) 0.2319(2)
C10 C 0.1015(2) 0.3521(2) 0.42421(13)
C11 C -0.0784(3) 0.4817(2) 0.63242(14)
C12 C 0.3345(4) 0.2445(4) 0.0984(2)
C13 C 0.2172(4) 0.1373(3) 0.0248(2)
H6 H 0.3822(25) 0.3457(26) 0.0459(18)
H7 H 0.4540(27) 0.1633(27) 0.1202(18)
H8 H 0.2966(28) 0.0890(29) -0.0498(19)
H9 H 0.1095(26) 0.2176(27) 0.0005(18)
H10 H 0.1744(26) 0.0372(27) 0.0781(19)
C11A C 0.0784(3) 0.5183(2) 0.36758(14)
S1A S -0.02869(6) 0.72811(6) 0.42415(4)
C10A C -0.1015(2) 0.6479(2) 0.57579(13)
C8A C -0.2051(3) 0.7775(4) 0.6716(3)
O1A O -0.2547(3) 0.9382(2) 0.6550(2)
N1A N -0.2345(3) 0.6780(2) 0.78428(15)
C9A C -0.1627(3) 0.4959(3) 0.7681(2)
O2A O -0.1680(4) 0.3758(3) 0.8483(2)
C12A C -0.3345(4) 0.7555(4) 0.9016(2)
C13A C -0.2172(4) 0.8627(3) 0.9752(2)
H8A H -0.2966(28) 0.9110(29) 1.0498(19)
H9A H -0.1095(26) 0.7824(27) 0.9995(18)
H10A H -0.1744(26) 0.9628(27) 0.9219(19)
H6A H -0.3822(25) 0.6543(26) 0.9541(18)
H7A H -0.4540(27) 0.8367(27) 0.8798(18)
C1 C 0.6551(4) 0.5217(3) 0.2414(3)
C2 C 0.7491(3) 0.3704(4) 0.1842(2)
C3 C 0.7688(4) 0.2014(3) 0.2522(2)
C4 C 0.6942(3) 0.1866(3) 0.3762(3)
C5 C 0.5950(2) 0.3425(2) 0.43982(13)
C6 C 0.5757(2) 0.5138(2) 0.37165(12)
C7 C 0.5195(2) 0.3324(2) 0.56717(13)
H1 H 0.6418(26) 0.6325(27) 0.1971(18)
H2 H 0.8044(28) 0.3711(28) 0.0973(20)
H3 H 0.8431(25) 0.0912(25) 0.2146(17)
H4 H 0.7072(22) 0.0682(23) 0.4251(16)
H5 H 0.5284(23) 0.2166(24) 0.6172(17)
C7A C 0.4805(2) 0.6676(2) 0.43283(13)
C5A C 0.4050(2) 0.6575(2) 0.56018(13)
C4A C 0.3058(3) 0.8134(3) 0.6238(3)
C3A C 0.2312(4) 0.7986(3) 0.7478(2)
C2A C 0.2509(3) 0.6296(4) 0.8158(2)
C1A C 0.3449(4) 0.4783(3) 0.7586(3)
C6A C 0.4243(2) 0.4862(2) 0.62835(12)
H1A H 0.3582(26) 0.3675(27) 0.8029(18)
H2A H 0.1956(28) 0.6289(28) 0.9027(20)
H3A H 0.1569(25) 0.9088(25) 0.7854(17)
H4A H 0.2928(22) 0.9318(23) 0.5749(16)
H5A H 0.4716(23) 0.7834(24) 0.3828(17)
C14? C 0.6257(42) 0.5379(38) 0.2297(24)
H11? H 0.6115(42) 0.6466(38) 0.1885(24)
C15? C 0.7640(41) 0.4099(43) 0.1910(28)
H12? H 0.8417(41) 0.4353(43) 0.1228(28)
C16? C 0.7942(38) 0.2360(41) 0.2520(30)
H13? H 0.8891(38) 0.1536(41) 0.2231(30)
C17? C 0.6770(38) 0.1959(34) 0.3550(29)
H14? H 0.6936(38) 0.0863(34) 0.3950(29)
C18? C 0.5296(25) 0.3273(26) 0.3985(17)
C19? C 0.5005(27) 0.4992(27) 0.3378(19)
C20? C 0.3459(22) 0.6276(24) 0.3883(16)
H15? H 0.3394(22) 0.7505(24) 0.3453(16)
C21? C 0.3484(25) 0.4509(32) 0.7279(21)
H16? H 0.3622(25) 0.3416(32) 0.7685(21)
C22? C 0.3180(30) 0.5994(33) 0.7974(21)
H17? H 0.3105(30) 0.5897(33) 0.8834(21)
C23? C 0.2965(31) 0.7789(34) 0.7348(25)
H18? H 0.2778(31) 0.8812(34) 0.7808(25)
C24? C 0.3058(29) 0.7861(30) 0.6050(24)
H19? H 0.2921(29) 0.8959(30) 0.5653(24)
C25? C 0.3354(17) 0.6325(28) 0.5314(19)
C26? C 0.3601(20) 0.4565(24) 0.5920(18)
C27? C 0.3860(24) 0.3114(27) 0.5081(18)
H20? H 0.4081(24) 0.1918(27) 0.5548(18)
S2? S 0.02869(6) 0.27189(6) 0.57585(4)
O3? O 0.2206(33) 0.0372(34) 0.3419(27)
O4? O 0.1363(36) 0.5911(33) 0.1429(29)
N2? N 0.1808(19) 0.2952(29) 0.2200(22)
C28? C 0.2015(32) 0.1974(43) 0.3329(37)
C29? C 0.1587(24) 0.4745(35) 0.2259(35)
C30? C 0.1928(27) 0.3307(31) 0.4403(21)
C31? C 0.1649(26) 0.5226(25) 0.3754(17)
C32? C 0.1854(32) 0.2128(39) 0.0912(27)
H21? H 0.1154(32) 0.1061(39) 0.0964(27)
H22? H 0.1310(32) 0.3029(39) 0.0292(27)
C33? C 0.3823(66) 0.1575(67) 0.0527(47)
H23? H 0.3942(66) 0.077(42) -0.021(23)
H24? H 0.441(13) 0.093(45) 0.124(13)
H25? H 0.444(13) 0.2658(80) 0.029(35)
S3? S -0.0466(13) 0.6786(12) 0.4103(8)
O5? O -0.2559(55) 0.9017(35) 0.6499(39)
O6? O -0.1681(81) 0.3497(55) 0.8470(38)
N3? N -0.2353(46) 0.6462(40) 0.7779(23)
C34? C -0.2057(35) 0.7442(33) 0.6601(23)
C35? C -0.1666(59) 0.4693(41) 0.7666(26)
C36? C -0.1095(27) 0.6086(32) 0.5713(18)
C37? C -0.0826(51) 0.4453(32) 0.6278(24)
C38? C -0.3301(63) 0.7385(74) 0.8921(36)
H26? H -0.3501(63) 0.6453(74) 0.9601(36)
H27? H -0.4538(63) 0.7959(74) 0.8708(36)
C39? C -0.2330(79) 0.8795(67) 0.9445(41)
H28? H -0.306(24) 0.931(33) 1.021(19)
H29? H -0.217(40) 0.976(22) 0.880(12)
H30? H -0.111(21) 0.825(11) 0.968(29)
loop_
_geom_bond_atom_site_label_1
_geom_bond_atom_site_label_2
_geom_bond_site_symmetry_1
_geom_bond_site_symmetry_2
C1 C2 1_555 1_555
C2 C3 1_555 1_555
C3 C4 1_555 1_555
C4 C5 1_555 1_555
C5 C6 1_555 1_555
C6 C1 1_555 1_555
C7 C5 1_555 1_555
H1 C1 1_555 1_555
H2 C2 1_555 1_555
H3 C3 1_555 1_555
H4 C4 1_555 1_555
H5 C7 1_555 1_555
S1 C10 1_555 1_555
O1 C8 1_555 1_555
O2 C9 1_555 1_555
N1 C8 1_555 1_555
C8 C10 1_555 1_555
C9 N1 1_555 1_555
C10 C11A 1_555 1_555
C11 S1 1_555 1_555
C12 N1 1_555 1_555
C13 C12 1_555 1_555
H6 C12 1_555 1_555
H7 C12 1_555 1_555
H8 C13 1_555 1_555
H9 C13 1_555 1_555
H10 C13 1_555 1_555
C7A C6 1_555 1_555
C5A C7A 1_555 1_555
C4A C5A 1_555 1_555
C3A C4A 1_555 1_555
C2A C3A 1_555 1_555
C1A C2A 1_555 1_555
C6A C7 1_555 1_555
H1A C1A 1_555 1_555
H2A C2A 1_555 1_555
H3A C3A 1_555 1_555
H4A C4A 1_555 1_555
H5A C7A 1_555 1_555
C11A C9 1_555 1_555
S1A C11A 1_555 1_555
C10A C11 1_555 1_555
C8A C10A 1_555 1_555
O1A C8A 1_555 1_555
N1A C8A 1_555 1_555
C9A C11 1_555 1_555
O2A C9A 1_555 1_555
C12A N1A 1_555 1_555
C13A C12A 1_555 1_555
H8A C13A 1_555 1_555
H9A C13A 1_555 1_555
H10A C13A 1_555 1_555
H6A C12A 1_555 1_555
H7A C12A 1_555 1_555
C5A C6A 1_555 1_555
C1A C6A 1_555 1_555
S1A C10A 1_555 1_555
N1A C9A 1_555 1_555

#END
