
#######################################################################
#
#                 Cambridge Crystallographic Data Centre
#                                CCDC 
#
#######################################################################
#
# If this CIF has been generated from an entry in the Cambridge 
# Structural Database, then it will include bibliographic, chemical, 
# crystal, experimental, refinement or atomic coordinate data resulting 
# from the CCDC's data processing and validation procedures.
#
#######################################################################

data_QEFQIB
_chemical_formula_moiety         'C26 H20 N2 O4 S2'
_chemical_name_systematic        
5,15-Diethyl-2,8-dithia-5,15-diaza-11,12:17,18-dibenzopentacyclo(7.4.3.2^10,13^.0.0^3,7^)octadeca-3(7),11,17-triene-4,6,14,16-tetraone
_symmetry_cell_setting           monoclinic
_symmetry_space_group_name_H-M   'P 21/c'
_symmetry_Int_Tables_number      14
_space_group_name_Hall           '-P 2ybc'
loop_
_symmetry_equiv_pos_site_id
_symmetry_equiv_pos_as_xyz
1 x,y,z
2 x,1/2-y,1/2+z
3 -x,-y,-z
4 -x,1/2+y,1/2-z
_cell_length_a                   12.9513(13)
_cell_length_b                   21.670(2)
_cell_length_c                   8.2461(9)
_cell_angle_alpha                90
_cell_angle_beta                 105.299(2)
_cell_angle_gamma                90
_cell_volume                     2232.29
_exptl_crystal_colour            yellow
_exptl_crystal_description       'flat prism'
_cell_formula_units_Z            4
loop_
_atom_site_label
_atom_site_type_symbol
_atom_site_fract_x
_atom_site_fract_y
_atom_site_fract_z
S1 S 0.11560(3) 0.12099(2) 0.00927(5)
S2 S 0.08933(3) 0.23448(2) 0.28571(5)
O1 O 0.32030(10) 0.24975(6) 0.4824(2)
O2 O 0.35634(10) 0.09032(6) 0.13977(15)
O3 O -0.13784(10) 0.09375(5) -0.17101(15)
O4 O -0.16755(10) 0.25198(6) 0.1806(2)
N1 N 0.36104(10) 0.17454(6) 0.3117(2)
N2 N -0.18290(10) 0.17060(6) -0.0059(2)
C1 C 0.26445(12) 0.04961(7) 0.4733(2)
C2 C 0.34335(13) 0.00468(7) 0.5151(2)
C3 C 0.41499(14) 0.00591(9) 0.6754(2)
C4 C 0.40800(14) 0.05206(9) 0.7891(2)
C5 C 0.33042(14) 0.09841(8) 0.7452(2)
C6 C 0.25880(12) 0.09681(7) 0.5867(2)
C7 C 0.16852(12) 0.14204(6) 0.5183(2)
C8 C 0.06480(12) 0.10656(7) 0.4578(2)
C9 C -0.03107(13) 0.11984(7) 0.4961(2)
C10 C -0.12228(14) 0.08576(8) 0.4177(2)
C11 C -0.11701(14) 0.03913(8) 0.3038(2)
C12 C -0.02086(13) 0.02578(7) 0.2652(2)
C13 C 0.07014(12) 0.05967(6) 0.3430(2)
C14 C 0.17899(12) 0.05473(6) 0.3077(2)
C15 C 0.29528(12) 0.20471(7) 0.3931(2)
C16 C 0.18750(11) 0.17153(6) 0.3540(2)
C17 C 0.19717(11) 0.11892(6) 0.2302(2)
C18 C 0.31303(12) 0.12451(7) 0.2176(2)
C19 C -0.11258(12) 0.13298(7) -0.0641(2)
C20 C -0.00214(12) 0.15211(6) 0.0337(2)
C21 C -0.01169(11) 0.19715(6) 0.1405(2)
C22 C -0.12803(12) 0.21175(7) 0.1149(2)
C23 C 0.47179(14) 0.19335(10) 0.3281(2)
C24 C 0.5467(2) 0.16805(11) 0.4866(3)
C25 C -0.29847(14) 0.17164(9) -0.0790(2)
C26 C -0.3592(2) 0.1479(2) 0.0398(4)
H1 H 0.3442(15) -0.0264(9) 0.4338(26)
H2 H 0.4675(18) -0.0247(10) 0.7082(29)
H3 H 0.4559(19) 0.0520(11) 0.9017(32)
H4 H 0.3283(16) 0.1300(9) 0.8279(28)
H5 H 0.1649(15) 0.1727(9) 0.5980(26)
H6 H -0.0381(17) 0.1520(10) 0.5709(29)
H7 H -0.1835(18) 0.0955(10) 0.4414(29)
H8 H -0.1791(17) 0.0158(10) 0.2512(29)
H9 H -0.0163(15) -0.0052(9) 0.1838(26)
H10 H 0.1826(13) 0.0233(8) 0.2287(23)
H11 H 0.4878(19) 0.1783(11) 0.2289(34)
H12 H 0.4741(18) 0.2380(11) 0.3233(30)
H13 H 0.5251(19) 0.1856(11) 0.5834(34)
H14 H 0.5454(24) 0.1220(14) 0.4866(39)
H15 H 0.6210(21) 0.1778(12) 0.4866(34)
H16 H -0.3202(17) 0.2134(11) -0.1134(30)
H17 H -0.3113(19) 0.1436(12) -0.1788(34)
H18 H -0.3290(30) 0.1649(19) 0.1485(56)
H19 H -0.4320(24) 0.1499(13) -0.0038(36)
H20 H -0.3424(21) 0.1043(13) 0.0548(34)
loop_
_geom_bond_atom_site_label_1
_geom_bond_atom_site_label_2
_geom_bond_site_symmetry_1
_geom_bond_site_symmetry_2
S1 C17 1_555 1_555
S2 C16 1_555 1_555
O1 C15 1_555 1_555
O2 C18 1_555 1_555
O3 C19 1_555 1_555
O4 C22 1_555 1_555
N1 C15 1_555 1_555
N2 C19 1_555 1_555
C1 C2 1_555 1_555
C2 C3 1_555 1_555
C3 C4 1_555 1_555
C4 C5 1_555 1_555
C5 C6 1_555 1_555
C6 C1 1_555 1_555
C7 C6 1_555 1_555
C8 C7 1_555 1_555
C9 C8 1_555 1_555
C10 C9 1_555 1_555
C11 C10 1_555 1_555
C12 C11 1_555 1_555
C13 C8 1_555 1_555
C14 C1 1_555 1_555
C15 C16 1_555 1_555
C16 C7 1_555 1_555
C17 C14 1_555 1_555
C18 N1 1_555 1_555
C19 C20 1_555 1_555
C20 S1 1_555 1_555
C21 S2 1_555 1_555
C22 N2 1_555 1_555
C23 N1 1_555 1_555
C24 C23 1_555 1_555
C25 N2 1_555 1_555
C26 C25 1_555 1_555
H1 C2 1_555 1_555
H2 C3 1_555 1_555
H3 C4 1_555 1_555
H4 C5 1_555 1_555
H5 C7 1_555 1_555
H6 C9 1_555 1_555
H7 C10 1_555 1_555
H8 C11 1_555 1_555
H9 C12 1_555 1_555
H10 C14 1_555 1_555
H11 C23 1_555 1_555
H12 C23 1_555 1_555
H13 C24 1_555 1_555
H14 C24 1_555 1_555
H15 C24 1_555 1_555
H16 C25 1_555 1_555
H17 C25 1_555 1_555
H18 C26 1_555 1_555
H19 C26 1_555 1_555
H20 C26 1_555 1_555
C12 C13 1_555 1_555
C13 C14 1_555 1_555
C16 C17 1_555 1_555
C17 C18 1_555 1_555
C20 C21 1_555 1_555
C21 C22 1_555 1_555

#END
