
#######################################################################
#
#                 Cambridge Crystallographic Data Centre
#                                CCDC 
#
#######################################################################
#
# If this CIF has been generated from an entry in the Cambridge 
# Structural Database, then it will include bibliographic, chemical, 
# crystal, experimental, refinement or atomic coordinate data resulting 
# from the CCDC's data processing and validation procedures.
#
#######################################################################

data_QEFTIH
_chemical_formula_moiety         'C43 H40 B1 N1'
_chemical_name_systematic        
10-[bis(2,4,6-trimethylphenyl)boranyl]-9,9-diphenyl-9,10-dihydroacridine
_symmetry_cell_setting           monoclinic
_symmetry_space_group_name_H-M   'P 21/n'
_symmetry_Int_Tables_number      14
_space_group_name_Hall           '-P 2yn'
loop_
_symmetry_equiv_pos_site_id
_symmetry_equiv_pos_as_xyz
1 x,y,z
2 1/2-x,1/2+y,1/2-z
3 -x,-y,-z
4 1/2+x,1/2-y,1/2+z
_cell_length_a                   8.9156(2)
_cell_length_b                   16.0349(3)
_cell_length_c                   23.3345(4)
_cell_angle_alpha                90
_cell_angle_beta                 99.6606(10)
_cell_angle_gamma                90
_cell_volume                     3288.61
_exptl_crystal_colour            colorless
_exptl_crystal_description       block
_cell_formula_units_Z            4
loop_
_atom_site_label
_atom_site_type_symbol
_atom_site_fract_x
_atom_site_fract_y
_atom_site_fract_z
N1 N 1.02407(15) 0.77074(8) 0.18790(5)
C1 C 0.7951(2) 0.81650(10) 0.24050(7)
C2 C 1.13556(19) 0.70034(9) 0.11088(7)
C3 C 0.9759(2) 0.91951(10) 0.17119(7)
H1 H 0.9894 0.9271 0.2121
C4 C 0.98636(18) 0.83000(9) 0.08877(6)
C5 C 0.99305(18) 0.84044(9) 0.14857(6)
C6 C 0.8947(2) 0.62296(10) 0.28802(7)
C7 C 0.9884(2) 0.69318(10) 0.28576(6)
C8 C 1.13182(18) 0.71241(9) 0.17022(7)
C9 C 1.1016(2) 0.75997(10) 0.01072(7)
C10 C 0.9490(2) 0.89930(10) 0.05295(7)
H2 H 0.9410 0.8929 0.0121
C11 C 1.02316(19) 0.74523(10) 0.06410(6)
C12 C 0.7862(2) 0.86739(10) 0.28966(8)
C13 C 0.6610(2) 0.81049(10) 0.19866(7)
C14 C 0.8773(2) 0.69247(11) 0.04671(7)
C15 C 0.9234(2) 0.97666(11) 0.07515(8)
H3 H 0.8950 1.0224 0.0498
C16 C 1.2392(2) 0.64398(11) 0.09456(8)
H4 H 1.2417 0.6360 0.0544
C17 C 1.0540(2) 0.72296(12) -0.04292(8)
H5 H 0.9685 0.6867 -0.0484
B1 B 0.9430(2) 0.76164(11) 0.23581(7)
C18 C 0.7493(2) 0.72767(12) 0.01313(7)
H6 H 0.7507 0.7851 0.0032
C19 C 0.9396(2) 0.98720(10) 0.13481(8)
H7 H 0.9257 1.0407 0.1506
C20 C 0.9307(2) 0.56430(11) 0.33209(8)
H8 H 0.8667 0.5170 0.3326
C21 C 1.2355(2) 0.66837(12) 0.21043(8)
H9 H 1.2369 0.6773 0.2508
C22 C 0.5275(2) 0.85024(12) 0.20724(9)
H10 H 0.4382 0.8425 0.1792
C23 C 0.6512(3) 0.90804(11) 0.29495(9)
H11 H 0.6494 0.9428 0.3278
C24 C 1.0573(3) 0.57272(12) 0.37532(8)
C25 C 1.1159(2) 0.70187(11) 0.33017(7)
C26 C 1.3387(2) 0.59929(12) 0.13499(9)
H12 H 1.4076 0.5604 0.1229
C27 C 1.1477(3) 0.64178(12) 0.37349(7)
H13 H 1.2347 0.6487 0.4027
C28 C 1.1318(3) 0.73895(15) -0.08904(8)
H14 H 1.0982 0.7134 -0.1257
C29 C 1.3358(2) 0.61237(12) 0.19317(8)
H15 H 1.4038 0.5824 0.2216
C30 C 0.7556(2) 0.60906(11) 0.24270(9)
H16 H 0.7114 0.5545 0.2489
H17 H 0.7841 0.6108 0.2039
H18 H 0.6807 0.6528 0.2458
C31 C 0.6547(2) 0.76458(13) 0.14212(8)
H19 H 0.5575 0.7350 0.1328
H20 H 0.7385 0.7244 0.1456
H21 H 0.6639 0.8045 0.1111
C32 C 1.2293(2) 0.81134(11) 0.01709(8)
H22 H 1.2652 0.8359 0.0539
C33 C 0.6205(3) 0.68143(15) -0.00612(9)
H23 H 0.5348 0.7069 -0.0293
C34 C 1.2554(3) 0.79064(13) -0.08231(9)
H24 H 1.3068 0.8013 -0.1141
C35 C 0.9225(3) 0.88315(13) 0.33622(8)
H25 H 0.8964 0.9248 0.3637
H26 H 1.0071 0.9038 0.3183
H27 H 0.9526 0.8310 0.3570
C36 C 0.5196(3) 0.90006(12) 0.25451(10)
C37 C 1.3049(3) 0.82738(12) -0.02871(9)
H28 H 1.3906 0.8635 -0.0235
C38 C 0.8708(3) 0.60874(12) 0.06084(10)
H29 H 0.9561 0.5829 0.0839
C39 C 1.2269(3) 0.77315(14) 0.33192(9)
H30 H 1.2253 0.8064 0.3670
H31 H 1.1980 0.8083 0.2975
H32 H 1.3295 0.7510 0.3323
C40 C 1.0965(4) 0.50679(15) 0.42171(10)
H33 H 1.1839 0.4743 0.4139
H34 H 1.0090 0.4697 0.4215
H35 H 1.1219 0.5336 0.4598
C41 C 0.3774(3) 0.94754(15) 0.26110(13)
H36 H 0.3892 1.0062 0.2509
H37 H 0.3606 0.9437 0.3015
H38 H 0.2901 0.9236 0.2352
C42 C 0.6160(3) 0.59880(17) 0.00810(12)
H39 H 0.5274 0.5666 -0.0050
C43 C 0.7411(3) 0.56261(16) 0.04153(13)
H40 H 0.7382 0.5052 0.0515
loop_
_geom_bond_atom_site_label_1
_geom_bond_atom_site_label_2
_geom_bond_site_symmetry_1
_geom_bond_site_symmetry_2
N1 C5 1_555 1_555
C1 C12 1_555 1_555
C2 C8 1_555 1_555
C3 H1 1_555 1_555
C4 C5 1_555 1_555
C5 C3 1_555 1_555
C6 C7 1_555 1_555
C7 B1 1_555 1_555
C8 N1 1_555 1_555
C9 C11 1_555 1_555
C10 C4 1_555 1_555
H2 C10 1_555 1_555
C11 C2 1_555 1_555
C12 C23 1_555 1_555
C13 C1 1_555 1_555
C14 C11 1_555 1_555
C15 C10 1_555 1_555
H3 C15 1_555 1_555
C16 C2 1_555 1_555
H4 C16 1_555 1_555
C17 C9 1_555 1_555
H5 C17 1_555 1_555
B1 N1 1_555 1_555
C18 C14 1_555 1_555
H6 C18 1_555 1_555
C19 C3 1_555 1_555
H7 C19 1_555 1_555
C20 C6 1_555 1_555
H8 C20 1_555 1_555
C21 C8 1_555 1_555
H9 C21 1_555 1_555
C22 C13 1_555 1_555
H10 C22 1_555 1_555
C23 H11 1_555 1_555
C24 C20 1_555 1_555
C25 C7 1_555 1_555
C26 C16 1_555 1_555
H12 C26 1_555 1_555
C27 C24 1_555 1_555
H13 C27 1_555 1_555
C28 C17 1_555 1_555
H14 C28 1_555 1_555
C29 C21 1_555 1_555
H15 C29 1_555 1_555
C30 C6 1_555 1_555
H16 C30 1_555 1_555
H17 C30 1_555 1_555
H18 C30 1_555 1_555
C31 C13 1_555 1_555
H19 C31 1_555 1_555
H20 C31 1_555 1_555
H21 C31 1_555 1_555
C32 C9 1_555 1_555
H22 C32 1_555 1_555
C33 C18 1_555 1_555
H23 C33 1_555 1_555
C34 C28 1_555 1_555
H24 C34 1_555 1_555
C35 C12 1_555 1_555
H25 C35 1_555 1_555
H26 C35 1_555 1_555
H27 C35 1_555 1_555
C36 C22 1_555 1_555
C37 C32 1_555 1_555
H28 C37 1_555 1_555
C38 C14 1_555 1_555
H29 C38 1_555 1_555
C39 C25 1_555 1_555
H30 C39 1_555 1_555
H31 C39 1_555 1_555
H32 C39 1_555 1_555
C40 C24 1_555 1_555
H33 C40 1_555 1_555
H34 C40 1_555 1_555
H35 C40 1_555 1_555
C41 C36 1_555 1_555
H36 C41 1_555 1_555
H37 C41 1_555 1_555
H38 C41 1_555 1_555
C42 C33 1_555 1_555
H39 C42 1_555 1_555
C43 C38 1_555 1_555
H40 C43 1_555 1_555
C1 B1 1_555 1_555
C4 C11 1_555 1_555
C15 C19 1_555 1_555
C23 C36 1_555 1_555
C25 C27 1_555 1_555
C26 C29 1_555 1_555
C34 C37 1_555 1_555
C42 C43 1_555 1_555

#END
