
#######################################################################
#
#                 Cambridge Crystallographic Data Centre
#                                CCDC 
#
#######################################################################
#
# If this CIF has been generated from an entry in the Cambridge 
# Structural Database, then it will include bibliographic, chemical, 
# crystal, experimental, refinement or atomic coordinate data resulting 
# from the CCDC's data processing and validation procedures.
#
#######################################################################

data_QEFTON
_chemical_formula_moiety         'C43 H38 B1 N1'
_chemical_name_systematic        
10-[bis(2,4,6-trimethylphenyl)boranyl]-10H-spiro[acridine-9,9'-fluorene]
_symmetry_cell_setting           monoclinic
_symmetry_space_group_name_H-M   'P 2/c'
_symmetry_Int_Tables_number      13
_space_group_name_Hall           '-P 2yc'
loop_
_symmetry_equiv_pos_site_id
_symmetry_equiv_pos_as_xyz
1 x,y,z
2 -x,y,1/2-z
3 -x,-y,-z
4 x,-y,1/2+z
_cell_length_a                   14.0414(3)
_cell_length_b                   8.3928(2)
_cell_length_c                   27.5660(6)
_cell_angle_alpha                90
_cell_angle_beta                 95.6628(13)
_cell_angle_gamma                90
_cell_volume                     3232.71
_exptl_crystal_colour            colorless
_exptl_crystal_description       needle
_cell_formula_units_Z            4
loop_
_atom_site_label
_atom_site_type_symbol
_atom_site_fract_x
_atom_site_fract_y
_atom_site_fract_z
N1 N 0.25080(11) 0.02906(17) 0.61235(5)
B1 B 0.27751(15) 0.1415(2) 0.57592(7)
C1 C 0.23153(13) -0.1339(2) 0.70767(6)
C2 C 0.15131(13) -0.0452(2) 0.67810(6)
C3 C 0.06326(14) -0.0389(2) 0.69752(7)
H1 H 0.0568 -0.0932 0.7273
C4 C -0.01454(14) 0.0421(2) 0.67562(7)
H2 H -0.0737 0.0435 0.6896
C5 C -0.00379(14) 0.1212(2) 0.63266(7)
H3 H -0.0559 0.1799 0.6170
C6 C 0.08194(14) 0.1159(2) 0.61214(7)
H4 H 0.0874 0.1710 0.5824
C7 C 0.16115(13) 0.0319(2) 0.63387(6)
C8 C 0.31840(13) -0.1492(2) 0.67922(6)
C9 C 0.39520(15) -0.2420(3) 0.69864(7)
H5 H 0.3946 -0.2839 0.7306
C10 C 0.47188(15) -0.2747(3) 0.67277(8)
H6 H 0.5252 -0.3330 0.6873
C11 C 0.46990(14) -0.2213(2) 0.62533(8)
H7 H 0.5204 -0.2483 0.6063
C12 C 0.39483(14) -0.1290(2) 0.60547(7)
H8 H 0.3929 -0.0966 0.5724
C13 C 0.32120(13) -0.0819(2) 0.63327(6)
C14 C 0.25545(14) -0.0605(2) 0.75850(7)
C15 C 0.28695(16) 0.0913(3) 0.77032(8)
H9 H 0.2971 0.1664 0.7455
C16 C 0.30349(19) 0.1324(3) 0.81926(9)
H10 H 0.3249 0.2369 0.8279
C17 C 0.2893(2) 0.0233(3) 0.85568(8)
H11 H 0.3020 0.0534 0.8889
C18 C 0.25706(18) -0.1274(3) 0.84412(8)
H12 H 0.2467 -0.2016 0.8691
C19 C 0.23973(14) -0.1702(3) 0.79514(7)
C20 C 0.20229(15) -0.3179(2) 0.77240(7)
C21 C 0.17153(19) -0.4579(3) 0.79255(9)
H13 H 0.1747 -0.4706 0.8269
C22 C 0.1361(2) -0.5789(3) 0.76174(11)
H14 H 0.1143 -0.6749 0.7751
C23 C 0.13210(18) -0.5614(3) 0.71172(10)
H15 H 0.1081 -0.6460 0.6911
C24 C 0.16268(15) -0.4219(2) 0.69128(8)
H16 H 0.1599 -0.4101 0.6569
C25 C 0.19732(13) -0.3003(2) 0.72193(7)
C26 C 0.20332(13) 0.2140(2) 0.53467(7)
C27 C 0.15212(14) 0.1132(2) 0.50064(7)
C28 C 0.09595(15) 0.1782(3) 0.46117(8)
H17 H 0.0637 0.1086 0.4378
C29 C 0.08549(15) 0.3410(3) 0.45478(8)
C30 C 0.13431(15) 0.4399(3) 0.48879(8)
H18 H 0.1271 0.5520 0.4853
C31 C 0.19375(14) 0.3799(2) 0.52793(7)
C32 C 0.15584(18) -0.0668(3) 0.50511(9)
H19 H 0.1197 -0.1148 0.4766
H20 H 0.1277 -0.0995 0.5347
H21 H 0.2226 -0.1024 0.5069
C33 C 0.0221(2) 0.4071(4) 0.41193(9)
H22 H -0.0317 0.4648 0.4238
H23 H -0.0024 0.3193 0.3908
H24 H 0.0593 0.4800 0.3934
C34 C 0.24575(16) 0.4969(2) 0.56272(8)
H25 H 0.3118 0.5093 0.5546
H26 H 0.2461 0.4571 0.5962
H27 H 0.2132 0.6002 0.5600
C35 C 0.38416(13) 0.2022(2) 0.57471(7)
C36 C 0.42844(14) 0.2058(2) 0.53073(7)
C37 C 0.51544(14) 0.2832(2) 0.52875(8)
H28 H 0.5442 0.2834 0.4990
C38 C 0.56138(14) 0.3599(2) 0.56881(8)
C39 C 0.51853(14) 0.3557(2) 0.61177(8)
H29 H 0.5492 0.4076 0.6397
C40 C 0.43175(14) 0.2779(2) 0.61574(7)
C41 C 0.38588(16) 0.1209(3) 0.48535(7)
H30 H 0.3349 0.1865 0.4687
H31 H 0.3593 0.0183 0.4944
H32 H 0.4358 0.1028 0.4635
C42 C 0.65588(17) 0.4436(3) 0.56602(11)
H33 H 0.7071 0.3643 0.5657
H34 H 0.6689 0.5134 0.5944
H35 H 0.6530 0.5074 0.5361
C43 C 0.39310(16) 0.2790(3) 0.66508(8)
H36 H 0.4076 0.1770 0.6815
H37 H 0.3236 0.2948 0.6608
H38 H 0.4230 0.3658 0.6849
loop_
_geom_bond_atom_site_label_1
_geom_bond_atom_site_label_2
_geom_bond_site_symmetry_1
_geom_bond_site_symmetry_2
N1 B1 1_555 1_555
B1 C26 1_555 1_555
C1 C2 1_555 1_555
C2 C3 1_555 1_555
C3 H1 1_555 1_555
C4 C3 1_555 1_555
H2 C4 1_555 1_555
C5 C4 1_555 1_555
H3 C5 1_555 1_555
C6 C5 1_555 1_555
H4 C6 1_555 1_555
C7 N1 1_555 1_555
C8 C1 1_555 1_555
C9 C8 1_555 1_555
H5 C9 1_555 1_555
C10 C9 1_555 1_555
H6 C10 1_555 1_555
C11 C10 1_555 1_555
H7 C11 1_555 1_555
C12 C11 1_555 1_555
H8 C12 1_555 1_555
C13 N1 1_555 1_555
C14 C1 1_555 1_555
C15 C14 1_555 1_555
H9 C15 1_555 1_555
C16 C15 1_555 1_555
H10 C16 1_555 1_555
C17 C16 1_555 1_555
H11 C17 1_555 1_555
C18 C17 1_555 1_555
H12 C18 1_555 1_555
C19 C14 1_555 1_555
C20 C19 1_555 1_555
C21 C20 1_555 1_555
H13 C21 1_555 1_555
C22 C21 1_555 1_555
H14 C22 1_555 1_555
C23 C22 1_555 1_555
H15 C23 1_555 1_555
C24 C23 1_555 1_555
H16 C24 1_555 1_555
C25 C1 1_555 1_555
C26 C27 1_555 1_555
C27 C28 1_555 1_555
C28 H17 1_555 1_555
C29 C28 1_555 1_555
C30 C29 1_555 1_555
H18 C30 1_555 1_555
C31 C26 1_555 1_555
C32 C27 1_555 1_555
H19 C32 1_555 1_555
H20 C32 1_555 1_555
H21 C32 1_555 1_555
C33 C29 1_555 1_555
H22 C33 1_555 1_555
H23 C33 1_555 1_555
H24 C33 1_555 1_555
C34 C31 1_555 1_555
H25 C34 1_555 1_555
H26 C34 1_555 1_555
H27 C34 1_555 1_555
C35 B1 1_555 1_555
C36 C35 1_555 1_555
C37 C36 1_555 1_555
H28 C37 1_555 1_555
C38 C37 1_555 1_555
C39 C38 1_555 1_555
H29 C39 1_555 1_555
C40 C35 1_555 1_555
C41 C36 1_555 1_555
H30 C41 1_555 1_555
H31 C41 1_555 1_555
H32 C41 1_555 1_555
C42 C38 1_555 1_555
H33 C42 1_555 1_555
H34 C42 1_555 1_555
H35 C42 1_555 1_555
C43 C40 1_555 1_555
H36 C43 1_555 1_555
H37 C43 1_555 1_555
H38 C43 1_555 1_555
C2 C7 1_555 1_555
C6 C7 1_555 1_555
C8 C13 1_555 1_555
C12 C13 1_555 1_555
C18 C19 1_555 1_555
C20 C25 1_555 1_555
C24 C25 1_555 1_555
C30 C31 1_555 1_555
C39 C40 1_555 1_555

#END
