
#######################################################################
#
#                 Cambridge Crystallographic Data Centre
#                                CCDC 
#
#######################################################################
#
# If this CIF has been generated from an entry in the Cambridge 
# Structural Database, then it will include bibliographic, chemical, 
# crystal, experimental, refinement or atomic coordinate data resulting 
# from the CCDC's data processing and validation procedures.
#
#######################################################################

data_QEGCIR
_chemical_formula_moiety         'C12 H18 O2 Si2'
_chemical_name_systematic        
3,3,7,7-tetramethyl-2,3,6,7-tetrahydrobenzo[1,2-d:4,5-d']bis[1,3]oxasilole
_symmetry_cell_setting           monoclinic
_symmetry_space_group_name_H-M   'P 21/n'
_symmetry_Int_Tables_number      14
_space_group_name_Hall           '-P 2yn'
loop_
_symmetry_equiv_pos_site_id
_symmetry_equiv_pos_as_xyz
1 x,y,z
2 1/2-x,1/2+y,1/2-z
3 -x,-y,-z
4 1/2+x,1/2-y,1/2+z
_cell_length_a                   6.6045(6)
_cell_length_b                   10.5502(10)
_cell_length_c                   9.9087(9)
_cell_angle_alpha                90
_cell_angle_beta                 99.277(2)
_cell_angle_gamma                90
_cell_volume                     681.396
_exptl_crystal_colour            colorless
_exptl_crystal_description       block
_cell_formula_units_Z            2
loop_
_atom_site_label
_atom_site_type_symbol
_atom_site_fract_x
_atom_site_fract_y
_atom_site_fract_z
Si1 Si 0.99795(4) 0.27632(2) 0.77406(3)
O1 O 0.65914(10) 0.38208(6) 0.85503(7)
C1 C 0.80143(13) 0.53599(8) 1.02032(9)
H1 H 0.6671 0.5596 1.0333
C2 C 0.83023(13) 0.44100(8) 0.92742(9)
C3 C 1.02610(13) 0.40388(8) 0.90569(9)
C4 C 0.70780(16) 0.28518(10) 0.76047(11)
H2 H 0.6449 0.3071 0.6658
H3 H 0.6529 0.2021 0.7839
C5 C 1.1053(2) 0.12048(10) 0.83669(12)
H4 H 1.0611 0.0553 0.7677
H5 H 1.0559 0.0987 0.9219
H6 H 1.2554 0.1252 0.8535
C6 C 1.09340(17) 0.32215(11) 0.61447(11)
H7 H 1.0289 0.4019 0.5799
H8 H 1.0590 0.2556 0.5456
H9 H 1.2426 0.3331 0.6337
Si1B Si 1.00205(4) 0.72368(2) 1.22594(3)
O1B O 1.34086(10) 0.61792(6) 1.14497(7)
C1B C 1.19857(13) 0.46401(8) 0.97968(9)
H1B H 1.3329 0.4404 0.9667
C2B C 1.16977(13) 0.55900(8) 1.07258(9)
C3B C 0.97390(13) 0.59612(8) 1.09431(9)
C4B C 1.29220(16) 0.71482(10) 1.23953(11)
H2B H 1.3551 0.6929 1.3342
H3B H 1.3471 0.7979 1.2161
C5B C 0.8947(2) 0.87952(10) 1.16331(12)
H4B H 0.9389 0.9447 1.2323
H5B H 0.9441 0.9013 1.0781
H6B H 0.7446 0.8748 1.1465
C6B C 0.90660(17) 0.67785(11) 1.38553(11)
H7B H 0.9711 0.5981 1.4201
H8B H 0.9410 0.7444 1.4544
H9B H 0.7574 0.6669 1.3663
loop_
_geom_bond_atom_site_label_1
_geom_bond_atom_site_label_2
_geom_bond_site_symmetry_1
_geom_bond_site_symmetry_2
Si1 C3 1_555 1_555
O1 C2 1_555 1_555
C1 H1 1_555 1_555
C2 C1 1_555 1_555
C3 C2 1_555 1_555
C4 Si1 1_555 1_555
H2 C4 1_555 1_555
H3 C4 1_555 1_555
C5 Si1 1_555 1_555
H4 C5 1_555 1_555
H5 C5 1_555 1_555
H6 C5 1_555 1_555
C6 Si1 1_555 1_555
H7 C6 1_555 1_555
H8 C6 1_555 1_555
H9 C6 1_555 1_555
Si1B C3B 1_555 1_555
O1B C2B 1_555 1_555
C1B C3 1_555 1_555
H1B C1B 1_555 1_555
C2B C1B 1_555 1_555
C3B C1 1_555 1_555
C4B Si1B 1_555 1_555
H2B C4B 1_555 1_555
H3B C4B 1_555 1_555
C5B Si1B 1_555 1_555
H4B C5B 1_555 1_555
H5B C5B 1_555 1_555
H6B C5B 1_555 1_555
C6B Si1B 1_555 1_555
H7B C6B 1_555 1_555
H8B C6B 1_555 1_555
H9B C6B 1_555 1_555
O1 C4 1_555 1_555
O1B C4B 1_555 1_555
C2B C3B 1_555 1_555

#END
