
#######################################################################
#
#                 Cambridge Crystallographic Data Centre
#                                CCDC 
#
#######################################################################
#
# If this CIF has been generated from an entry in the Cambridge 
# Structural Database, then it will include bibliographic, chemical, 
# crystal, experimental, refinement or atomic coordinate data resulting 
# from the CCDC's data processing and validation procedures.
#
#######################################################################

data_QEGFEQ
_chemical_formula_moiety         'C28 H31 F1 O4 Si1'
_chemical_name_systematic        
'4-fluorophenyl 2,3-dideoxy-6-O-[(1,1-dimethylethyl)diphenylsilyl]-\a-D-threo-hex-2-enopyranoside unknown solvate'
_symmetry_cell_setting           monoclinic
_symmetry_space_group_name_H-M   'P 21'
_symmetry_Int_Tables_number      4
_space_group_name_Hall           'P 2yb'
loop_
_symmetry_equiv_pos_site_id
_symmetry_equiv_pos_as_xyz
1 x,y,z
2 -x,1/2+y,-z
_cell_length_a                   12.7802(13)
_cell_length_b                   7.1634(7)
_cell_length_c                   16.5547(17)
_cell_angle_alpha                90
_cell_angle_beta                 103.478(3)
_cell_angle_gamma                90
_cell_volume                     1473.84
_exptl_crystal_colour            colorless
_exptl_crystal_description       plate
_cell_formula_units_Z            2
loop_
_atom_site_label
_atom_site_type_symbol
_atom_site_fract_x
_atom_site_fract_y
_atom_site_fract_z
C1 C 0.7320(6) 0.9522(12) 0.1834(5)
C2 C 0.7620(6) 0.7824(12) 0.1591(5)
H1 H 0.7973 0.7721 0.1154
C3 C 0.7392(5) 0.6269(12) 0.2004(4)
H2 H 0.7593 0.5083 0.185
C4 C 0.6873(5) 0.6430(10) 0.2638(4)
C5 C 0.6568(6) 0.8145(11) 0.2865(5)
H3 H 0.6206 0.8249 0.3296
C6 C 0.6798(6) 0.9737(11) 0.2453(5)
H4 H 0.6596 1.0928 0.2601
C7 C 0.6460(5) 0.4872(10) 0.3826(4)
H5 H 0.6883 0.5899 0.4147
C8 C 0.6807(6) 0.3081(11) 0.4247(4)
H6 H 0.7547 0.2812 0.4398
C9 C 0.6122(5) 0.1836(10) 0.4420(4)
H7 H 0.639 0.075 0.4715
C10 C 0.4934(5) 0.2127(10) 0.4154(4)
H8 H 0.4587 0.0944 0.3925
C11 C 0.4692(5) 0.3603(9) 0.3494(4)
H9 H 0.4861 0.309 0.2984
C12 C 0.3528(5) 0.4267(9) 0.3279(4)
H10 H 0.3334 0.4797 0.3771
H11 H 0.3422 0.5224 0.2845
C13 C 0.1414(5) -0.0234(9) 0.2783(4)
C14 C 0.1989(7) -0.1072(11) 0.2155(5)
H12 H 0.1874 -0.2411 0.2124
H13 H 0.2754 -0.0814 0.233
H14 H 0.1704 -0.0522 0.1613
C15 C 0.1894(6) -0.1040(10) 0.3643(4)
H15 H 0.1807 -0.2386 0.3629
H16 H 0.1528 -0.0512 0.4041
H17 H 0.2654 -0.0735 0.3806
C16 C 0.0215(6) -0.0743(11) 0.2530(5)
H18 H -0.0084 -0.032 0.1967
H19 H -0.0162 -0.0144 0.2905
H20 H 0.0134 -0.2086 0.2558
C17 C 0.0958(6) 0.3418(10) 0.1769(4)
C18 C 0.1595(8) 0.4086(11) 0.1258(5)
H21 H 0.2347 0.3994 0.1434
C19 C 0.1131(10) 0.4907(12) 0.0476(6)
H22 H 0.1572 0.5369 0.014
C20 C 0.0042(11) 0.5018(13) 0.0218(6)
H23 H -0.0265 0.5586 -0.0294
C21 C -0.0603(8) 0.4332(12) 0.0682(6)
H24 H -0.1354 0.4383 0.0485
C22 C -0.0159(6) 0.3550(11) 0.1451(4)
H25 H -0.0622 0.3092 0.1771
C23 C 0.1053(5) 0.3498(9) 0.3642(4)
C24 C 0.1677(5) 0.3504(9) 0.4456(4)
H26 H 0.2355 0.292 0.4569
C25 C 0.1332(5) 0.4343(9) 0.5103(4)
H27 H 0.1767 0.4313 0.5645
C26 C 0.0342(5) 0.5224(10) 0.4942(5)
H28 H 0.0103 0.5801 0.5376
C27 C -0.0287(5) 0.5256(10) 0.4154(5)
H29 H -0.0959 0.5857 0.4047
C28 C 0.0059(5) 0.4410(10) 0.3513(4)
H30 H -0.0387 0.4448 0.2974
F1 F 0.7559(4) 1.1072(7) 0.1422(3)
O1 O 0.6702(3) 0.4767(6) 0.3024(3)
O2 O 0.5349(3) 0.5237(6) 0.3737(3)
O3 O 0.4514(4) 0.2683(7) 0.4844(3)
H31 H 0.469 0.1906 0.5224
O4 O 0.2886(3) 0.2666(6) 0.2994(3)
Si1 Si 0.15819(14) 0.2376(2) 0.27978(11)
loop_
_geom_bond_atom_site_label_1
_geom_bond_atom_site_label_2
_geom_bond_site_symmetry_1
_geom_bond_site_symmetry_2
C1 C2 1_555 1_555
C2 H1 1_555 1_555
C3 C2 1_555 1_555
H2 C3 1_555 1_555
C4 C3 1_555 1_555
C5 C4 1_555 1_555
H3 C5 1_555 1_555
C6 C1 1_555 1_555
H4 C6 1_555 1_555
C7 H5 1_555 1_555
C8 C7 1_555 1_555
H6 C8 1_555 1_555
C9 C8 1_555 1_555
H7 C9 1_555 1_555
C10 C9 1_555 1_555
H8 C10 1_555 1_555
C11 C10 1_555 1_555
H9 C11 1_555 1_555
C12 C11 1_555 1_555
H10 C12 1_555 1_555
H11 C12 1_555 1_555
C13 C14 1_555 1_555
C14 H12 1_555 1_555
H13 C14 1_555 1_555
H14 C14 1_555 1_555
C15 C13 1_555 1_555
H15 C15 1_555 1_555
H16 C15 1_555 1_555
H17 C15 1_555 1_555
C16 C13 1_555 1_555
H18 C16 1_555 1_555
H19 C16 1_555 1_555
H20 C16 1_555 1_555
C17 C18 1_555 1_555
C18 H21 1_555 1_555
C19 C18 1_555 1_555
H22 C19 1_555 1_555
C20 C19 1_555 1_555
H23 C20 1_555 1_555
C21 C20 1_555 1_555
H24 C21 1_555 1_555
C22 C17 1_555 1_555
H25 C22 1_555 1_555
C23 C24 1_555 1_555
C24 H26 1_555 1_555
C25 C24 1_555 1_555
H27 C25 1_555 1_555
C26 C25 1_555 1_555
H28 C26 1_555 1_555
C27 C26 1_555 1_555
H29 C27 1_555 1_555
C28 C23 1_555 1_555
H30 C28 1_555 1_555
F1 C1 1_555 1_555
O1 C4 1_555 1_555
O2 C7 1_555 1_555
O3 C10 1_555 1_555
H31 O3 1_555 1_555
O4 C12 1_555 1_555
Si1 C13 1_555 1_555
C5 C6 1_555 1_555
C7 O1 1_555 1_555
C11 O2 1_555 1_555
C17 Si1 1_555 1_555
C21 C22 1_555 1_555
C23 Si1 1_555 1_555
C27 C28 1_555 1_555
O4 Si1 1_555 1_555

#END
