
#######################################################################
#
#                 Cambridge Crystallographic Data Centre
#                                CCDC 
#
#######################################################################
#
# If this CIF has been generated from an entry in the Cambridge 
# Structural Database, then it will include bibliographic, chemical, 
# crystal, experimental, refinement or atomic coordinate data resulting 
# from the CCDC's data processing and validation procedures.
#
#######################################################################

data_QEGFAM
_chemical_formula_moiety         'C14 H15 N1 O7'
_chemical_name_systematic        
'(3-hydroxy-6-methoxy-3,6-dihydro-2H-pyran-2-yl)methyl 4-nitrobenzoate'
_symmetry_cell_setting           orthorhombic
_symmetry_space_group_name_H-M   'P 21 21 21'
_symmetry_Int_Tables_number      19
_space_group_name_Hall           'P 2ac 2ab'
loop_
_symmetry_equiv_pos_site_id
_symmetry_equiv_pos_as_xyz
1 x,y,z
2 1/2-x,-y,1/2+z
3 -x,1/2+y,1/2-z
4 1/2+x,1/2-y,-z
_cell_length_a                   4.2909(2)
_cell_length_b                   10.6038(7)
_cell_length_c                   33.055(2)
_cell_angle_alpha                90
_cell_angle_beta                 90
_cell_angle_gamma                90
_cell_volume                     1504
_exptl_crystal_colour            colorless
_exptl_crystal_description       needle
_cell_formula_units_Z            4
loop_
_atom_site_label
_atom_site_type_symbol
_atom_site_fract_x
_atom_site_fract_y
_atom_site_fract_z
C1 C 0.2526(9) 0.7603(3) 0.59621(10)
H1 H 0.2471 0.674 0.6012
C2 C 0.1145(11) 0.8083(3) 0.56183(11)
H2 H 0.0177 0.755 0.5434
C3 C 0.1223(9) 0.9345(3) 0.55540(10)
C4 C 0.2577(11) 1.0155(3) 0.58189(11)
H3 H 0.2566 1.1019 0.577
C5 C 0.3971(9) 0.9672(3) 0.61616(10)
H4 H 0.4908 1.0215 0.6346
C6 C 0.3985(7) 0.8395(3) 0.62322(9)
C7 C 0.5566(7) 0.7909(3) 0.66006(9)
C8 C 0.6843(8) 0.6083(3) 0.69717(10)
H5 H 0.5829 0.6268 0.7227
H6 H 0.8979 0.638 0.6985
C9 C 0.6772(7) 0.4699(3) 0.68901(8)
H7 H 0.4636 0.4451 0.6822
C10 C 0.7866(7) 0.3931(3) 0.72503(9)
H8 H 0.6133 0.3846 0.7442
C11 C 0.8835(8) 0.2647(3) 0.71157(12)
H9 H 0.932 0.2047 0.7311
C12 C 0.9032(8) 0.2329(3) 0.67345(12)
H10 H 0.9619 0.1511 0.6668
C13 C 0.8344(8) 0.3236(3) 0.64058(10)
H11 H 0.62 0.3115 0.6311
C14 C 0.9550(13) 0.3722(4) 0.57322(11)
H12 H 0.9597 0.4611 0.5787
H13 H 0.7486 0.3482 0.5651
H14 H 1.0994 0.3531 0.5519
N1 N -0.0233(12) 0.9861(4) 0.51883(10)
O1 O -0.0425(12) 1.0977(4) 0.51473(10)
O2 O -0.1319(15) 0.9155(3) 0.49484(11)
O3 O 0.7060(7) 0.8563(2) 0.68270(7)
O4 O 0.5208(5) 0.6694(2) 0.66421(6)
O5 O 0.8723(5) 0.44895(18) 0.65477(5)
O6 O 1.0398(6) 0.3045(2) 0.60876(7)
O7 O 1.0357(5) 0.4598(2) 0.74449(6)
H15 H 1.0872 0.4222 0.7651
loop_
_geom_bond_atom_site_label_1
_geom_bond_atom_site_label_2
_geom_bond_site_symmetry_1
_geom_bond_site_symmetry_2
C1 H1 1_555 1_555
C2 C1 1_555 1_555
H2 C2 1_555 1_555
C3 C2 1_555 1_555
C4 C3 1_555 1_555
H3 C4 1_555 1_555
C5 C4 1_555 1_555
H4 C5 1_555 1_555
C6 C1 1_555 1_555
C7 C6 1_555 1_555
C8 H5 1_555 1_555
H6 C8 1_555 1_555
C9 C8 1_555 1_555
H7 C9 1_555 1_555
C10 C9 1_555 1_555
H8 C10 1_555 1_555
C11 C10 1_555 1_555
H9 C11 1_555 1_555
C12 C11 1_555 1_555
H10 C12 1_555 1_555
C13 C12 1_555 1_555
H11 C13 1_555 1_555
C14 H12 1_555 1_555
H13 C14 1_555 1_555
H14 C14 1_555 1_555
N1 C3 1_555 1_555
O1 N1 1_555 1_555
O2 N1 1_555 1_555
O3 C7 1_555 1_555
O4 C7 1_555 1_555
O5 C9 1_555 1_555
O6 C13 1_555 1_555
O7 C10 1_555 1_555
H15 O7 1_555 1_555
C5 C6 1_555 1_555
C8 O4 1_555 1_555
C13 O5 1_555 1_555
C14 O6 1_555 1_555

#END
