
#######################################################################
#
#                 Cambridge Crystallographic Data Centre
#                                CCDC 
#
#######################################################################
#
# If this CIF has been generated from an entry in the Cambridge 
# Structural Database, then it will include bibliographic, chemical, 
# crystal, experimental, refinement or atomic coordinate data resulting 
# from the CCDC's data processing and validation procedures.
#
#######################################################################

data_QEGHUF
_chemical_formula_moiety         'C13 H20 O6'
_chemical_name_systematic        
'7-Deoxy-2,3:4,5-di-O-isopropylidene-L-glycero-D-manno-heptonic acid \e-lactone'
_symmetry_cell_setting           orthorhombic
_symmetry_space_group_name_H-M   'P 21 21 21'
_symmetry_Int_Tables_number      19
_space_group_name_Hall           'P 2ac 2ab'
loop_
_symmetry_equiv_pos_site_id
_symmetry_equiv_pos_as_xyz
1 x,y,z
2 1/2-x,-y,1/2+z
3 1/2+x,1/2-y,-z
4 -x,1/2+y,1/2-z
_cell_length_a                   8.4308(4)
_cell_length_b                   10.5457(5)
_cell_length_c                   15.6538(8)
_cell_angle_alpha                90
_cell_angle_beta                 90
_cell_angle_gamma                90
_cell_volume                     1391.76
_exptl_crystal_colour            colorless
_exptl_crystal_description       plate
_chemical_melting_point          '132-134 deg.C'
_cell_formula_units_Z            4
loop_
_atom_site_label
_atom_site_type_symbol
_atom_site_fract_x
_atom_site_fract_y
_atom_site_fract_z
O1 O 0.18992(11) 0.32319(11) 0.38780(6)
O2 O 0.38986(11) 0.22011(11) 0.32153(6)
O3 O 0.25617(18) 0.06334(11) 0.15279(7)
O4 O 0.25863(13) 0.2716(1) 0.14977(6)
O5 O -0.04819(13) 0.3979(1) 0.14882(7)
O6 O -0.06892(13) 0.20963(9) 0.22013(6)
C1 C 0.34957(17) 0.27980(18) 0.40074(9)
C2 C 0.25067(19) 0.16135(14) 0.29033(8)
C3 C 0.25229(19) 0.16115(15) 0.19265(9)
C4 C 0.23029(18) 0.39250(15) 0.19289(8)
C5 C -0.13362(18) 0.27936(15) 0.14979(9)
C6 C -0.00590(15) 0.30074(13) 0.27851(9)
C7 C 0.2789(2) 0.49339(17) 0.1295(1)
C8 C -0.1006(3) 0.2060(2) 0.06835(11)
C9 C -0.3083(2) 0.30504(18) 0.16406(13)
C10 C 0.3569(2) 0.1854(2) 0.47396(11)
C11 C 0.4559(2) 0.3935(2) 0.41295(12)
C12 C 0.05694(17) 0.40448(12) 0.22055(8)
C13 C 0.11248(14) 0.23150(14) 0.33544(7)
H1 H 0.23968(19) 0.06911(14) 0.30389(8)
H2 H 0.29296(18) 0.40050(15) 0.24686(8)
H3 H -0.08035(15) 0.34119(13) 0.32011(9)
H4 H 0.2622(2) 0.57904(17) 0.1554(1)
H5 H 0.3935(2) 0.48257(17) 0.1147(1)
H6 H 0.2131(2) 0.48541(17) 0.0766(1)
H7 H -0.1602(3) 0.1240(2) 0.06954(11)
H8 H -0.1355(3) 0.2572(2) 0.01797(11)
H9 H 0.0156(3) 0.1883(2) 0.06387(11)
H10 H -0.3676(2) 0.22294(18) 0.16479(13)
H11 H -0.3230(2) 0.34944(18) 0.21995(13)
H12 H -0.3496(2) 0.35973(18) 0.11685(13)
H13 H 0.4689(2) 0.1564(2) 0.48203(11)
H14 H 0.3185(2) 0.2269(2) 0.52757(11)
H15 H 0.2881(2) 0.1108(2) 0.46045(11)
H16 H 0.5675(2) 0.3645(2) 0.42206(12)
H17 H 0.4197(2) 0.4430(2) 0.46385(12)
H18 H 0.4508(2) 0.4485(2) 0.36095(12)
H19 H 0.05848(17) 0.48758(12) 0.25131(8)
H20 H 0.04616(14) 0.16660(14) 0.36533(7)
loop_
_geom_bond_atom_site_label_1
_geom_bond_atom_site_label_2
_geom_bond_site_symmetry_1
_geom_bond_site_symmetry_2
O1 C1 1_555 1_555
O2 C1 1_555 1_555
O3 C3 1_555 1_555
O4 C3 1_555 1_555
O5 C5 1_555 1_555
O6 C5 1_555 1_555
C1 C10 1_555 1_555
C2 O2 1_555 1_555
C3 C2 1_555 1_555
C4 O4 1_555 1_555
C5 C8 1_555 1_555
C6 O6 1_555 1_555
C7 C4 1_555 1_555
C8 H7 1_555 1_555
C9 C5 1_555 1_555
C10 H13 1_555 1_555
C11 C1 1_555 1_555
C12 O5 1_555 1_555
C13 O1 1_555 1_555
H1 C2 1_555 1_555
H2 C4 1_555 1_555
H3 C6 1_555 1_555
H4 C7 1_555 1_555
H5 C7 1_555 1_555
H6 C7 1_555 1_555
H8 C8 1_555 1_555
H9 C8 1_555 1_555
H10 C9 1_555 1_555
H11 C9 1_555 1_555
H12 C9 1_555 1_555
H14 C10 1_555 1_555
H15 C10 1_555 1_555
H16 C11 1_555 1_555
H17 C11 1_555 1_555
H18 C11 1_555 1_555
H19 C12 1_555 1_555
H20 C13 1_555 1_555
C2 C13 1_555 1_555
C4 C12 1_555 1_555
C6 C12 1_555 1_555
C6 C13 1_555 1_555

#END
