
#######################################################################
#
#                 Cambridge Crystallographic Data Centre
#                                CCDC 
#
#######################################################################
#
# If this CIF has been generated from an entry in the Cambridge 
# Structural Database, then it will include bibliographic, chemical, 
# crystal, experimental, refinement or atomic coordinate data resulting 
# from the CCDC's data processing and validation procedures.
#
#######################################################################

data_QEGJUK
_chemical_formula_moiety         'C38 H32 N20,4(C2 H6 O1 S1)'
_chemical_name_systematic        
"6,6',6'',6'''-[ethene-1,1,2,2-tetrayltetrakis(4,1-phenylene)]tetrakis(1,3,5-triazine-2,4-diamine) dimethyl sulfoxide unknown solvate"
_symmetry_cell_setting           monoclinic
_symmetry_space_group_name_H-M   'C 2/c'
_symmetry_Int_Tables_number      15
_space_group_name_Hall           '-C 2yn'
loop_
_symmetry_equiv_pos_site_id
_symmetry_equiv_pos_as_xyz
1 x,y,z
2 -x,y,1/2-z
3 1/2+x,1/2+y,z
4 1/2-x,1/2+y,1/2-z
5 -x,-y,-z
6 x,-y,1/2+z
7 1/2-x,1/2-y,-z
8 1/2+x,1/2-y,1/2+z
_cell_length_a                   34.2654(9)
_cell_length_b                   22.1261(9)
_cell_length_c                   9.8254(3)
_cell_angle_alpha                90
_cell_angle_beta                 105.358(2)
_cell_angle_gamma                90
_cell_volume                     7183.21
_exptl_crystal_colour            colorless
_exptl_crystal_description       needle
_cell_formula_units_Z            4
loop_
_atom_site_label
_atom_site_type_symbol
_atom_site_fract_x
_atom_site_fract_y
_atom_site_fract_z
C1 C 0.28258(11) -0.12273(19) 0.5698(4)
C2 C 0.30551(11) -0.16300(19) 0.3920(4)
C3 C 0.34774(11) -0.10936(18) 0.5641(4)
C4 C 0.38785(10) -0.07959(17) 0.6212(4)
C5 C 0.42069(11) -0.09607(18) 0.5705(4)
H1 H 0.4180 -0.1275 0.5057
C6 C 0.45759(11) -0.06575(17) 0.6165(4)
H2 H 0.4798 -0.0789 0.5869
C7 C 0.46154(10) -0.01586(18) 0.7064(3)
C8 C 0.42833(10) -0.00023(17) 0.7591(3)
H3 H 0.4305 0.0319 0.8218
C9 C 0.39248(11) -0.03266(18) 0.7175(4)
H4 H 0.3711 -0.0227 0.7550
C10 C 0.5000 0.0191(2) 0.7500
C11 C 0.5000 0.0804(2) 0.7500
C12 C 0.53679(10) 0.11773(17) 0.8153(4)
C13 C 0.54840(11) 0.16395(19) 0.7367(4)
H5 H 0.5335 0.1705 0.6440
C14 C 0.58139(12) 0.19982(19) 0.7936(4)
H6 H 0.5893 0.2290 0.7384
C15 C 0.60340(11) 0.19220(18) 0.9372(4)
C16 C 0.59089(11) 0.14771(18) 1.0163(4)
H7 H 0.6046 0.1426 1.1108
C17 C 0.55830(11) 0.11101(18) 0.9559(4)
H8 H 0.5506 0.0812 1.0104
C18 C 0.63860(11) 0.23099(18) 0.9997(4)
C19 C 0.68791(11) 0.29452(19) 0.9715(4)
C20 C 0.68508(12) 0.26769(19) 1.1895(4)
N1 N 0.25240(10) -0.11354(17) 0.6283(3)
H9 H 0.2564 -0.0929 0.7049
H10 H 0.2288 -0.1283 0.5897
N2 N 0.29828(10) -0.19583(17) 0.2712(3)
H11 H 0.3175 -0.2024 0.2318
H12 H 0.2745 -0.2100 0.2340
N3 N 0.27357(10) -0.15441(16) 0.4467(3)
N4 N 0.34270(10) -0.14192(16) 0.4457(3)
N5 N 0.31929(9) -0.09910(15) 0.6327(3)
N6 N 0.70484(11) 0.32656(18) 0.8846(3)
H13 H 0.7258 0.3487 0.9192
H14 H 0.6947 0.3248 0.7948
N7 N 0.69965(11) 0.27127(17) 1.3309(3)
H15 H 0.7208 0.2928 1.3671
H16 H 0.6878 0.2520 1.3849
N8 N 0.70472(10) 0.29857(17) 1.1108(3)
N9 N 0.65118(10) 0.23345(16) 1.1404(3)
N10 N 0.65559(10) 0.25973(16) 0.9096(3)
C1A C 0.71742(11) -0.12273(19) 0.9302(4)
C2A C 0.69449(11) -0.16300(19) 1.1080(4)
C3A C 0.65226(11) -0.10936(18) 0.9359(4)
C4A C 0.61215(10) -0.07959(17) 0.8788(4)
C5A C 0.57931(11) -0.09607(18) 0.9295(4)
H1A H 0.5820 -0.1275 0.9943
C6A C 0.54241(11) -0.06575(17) 0.8835(4)
H2A H 0.5202 -0.0789 0.9131
C7A C 0.53846(10) -0.01586(18) 0.7936(3)
C8A C 0.57167(10) -0.00023(17) 0.7409(3)
H3A H 0.5695 0.0319 0.6782
C9A C 0.60752(11) -0.03266(18) 0.7825(4)
H4A H 0.6289 -0.0227 0.7450
C12A C 0.46321(10) 0.11773(17) 0.6847(4)
C13A C 0.45160(11) 0.16395(19) 0.7633(4)
H5A H 0.4665 0.1705 0.8560
C14A C 0.41861(12) 0.19982(19) 0.7064(4)
H6A H 0.4107 0.2290 0.7616
C15A C 0.39660(11) 0.19220(18) 0.5628(4)
C16A C 0.40911(11) 0.14771(18) 0.4837(4)
H7A H 0.3954 0.1426 0.3892
C17A C 0.44170(11) 0.11101(18) 0.5441(4)
H8A H 0.4494 0.0812 0.4896
C18A C 0.36140(11) 0.23099(18) 0.5003(4)
C19A C 0.31209(11) 0.29452(19) 0.5285(4)
C20A C 0.31492(12) 0.26769(19) 0.3105(4)
N1A N 0.74760(10) -0.11354(17) 0.8717(3)
H9A H 0.7436 -0.0929 0.7951
H10A H 0.7712 -0.1283 0.9103
N2A N 0.70172(10) -0.19583(17) 1.2288(3)
H11A H 0.6825 -0.2024 1.2682
H12A H 0.7255 -0.2100 1.2660
N3A N 0.72643(10) -0.15441(16) 1.0533(3)
N4A N 0.65730(10) -0.14192(16) 1.0543(3)
N5A N 0.68071(9) -0.09910(15) 0.8673(3)
N6A N 0.29516(11) 0.32656(18) 0.6154(3)
H13A H 0.2742 0.3487 0.5808
H14A H 0.3053 0.3248 0.7052
N7A N 0.30035(11) 0.27127(17) 0.1691(3)
H15A H 0.2792 0.2928 0.1329
H16A H 0.3122 0.2520 0.1151
N8A N 0.29528(10) 0.29857(17) 0.3892(3)
N9A N 0.34882(10) 0.23345(16) 0.3596(3)
N10A N 0.34441(10) 0.25973(16) 0.5904(3)
C21 C 0.17613(15) 0.4157(3) 0.4960(5)
H17 H 0.1833 0.3781 0.4601
H18 H 0.1516 0.4309 0.4336
H19 H 0.1721 0.4093 0.5880
C22 C 0.22149(14) 0.4592(2) 0.3337(4)
H20 H 0.2420 0.4865 0.3205
H21 H 0.1964 0.4679 0.2654
H22 H 0.2294 0.4184 0.3218
O1 O 0.25183(8) 0.43976(13) 0.6043(3)
S1 S 0.21529(3) 0.46844(5) 0.50779(10)
S2 S 0.37530(4) 0.64427(10) 0.48701(18)
O2 O 0.33118(11) 0.64505(19) 0.4167(4)
C23 C 0.3877(5) 0.7234(4) 0.5063(15)
H23 H 0.3733 0.7447 0.4230
H24 H 0.4163 0.7285 0.5197
H25 H 0.3801 0.7392 0.5867
C24 C 0.39924(19) 0.6282(3) 0.3469(6)
H26 H 0.3946 0.5867 0.3186
H27 H 0.4278 0.6354 0.3803
H28 H 0.3880 0.6540 0.2676
S3? S 0.3766(4) 0.6763(7) 0.4228(15)
O3? O 0.3930(18) 0.7169(17) 0.544(4)
C25? C 0.3775(13) 0.6014(11) 0.490(5)
H29? H 0.4048 0.5907 0.5378
H30? H 0.3673 0.5739 0.4131
H31? H 0.3609 0.5994 0.5545
C26? C 0.4187(14) 0.661(2) 0.350(6)
H32? H 0.4391 0.6918 0.3822
H33? H 0.4096 0.6623 0.2490
H34? H 0.4298 0.6224 0.3807
loop_
_geom_bond_atom_site_label_1
_geom_bond_atom_site_label_2
_geom_bond_site_symmetry_1
_geom_bond_site_symmetry_2
C1 N1 1_555 1_555
C2 N2 1_555 1_555
C3 C4 1_555 1_555
C4 C5 1_555 1_555
C5 H1 1_555 1_555
C6 C5 1_555 1_555
H2 C6 1_555 1_555
C7 C6 1_555 1_555
C8 C7 1_555 1_555
H3 C8 1_555 1_555
C9 C4 1_555 1_555
H4 C9 1_555 1_555
C10 C7 1_555 1_555
C11 C10 1_555 1_555
C12 C11 1_555 1_555
C13 C12 1_555 1_555
H5 C13 1_555 1_555
C14 C13 1_555 1_555
H6 C14 1_555 1_555
C15 C14 1_555 1_555
C16 C15 1_555 1_555
H7 C16 1_555 1_555
C17 C12 1_555 1_555
H8 C17 1_555 1_555
C18 C15 1_555 1_555
C19 N6 1_555 1_555
C20 N7 1_555 1_555
N1 H9 1_555 1_555
H10 N1 1_555 1_555
N2 H11 1_555 1_555
H12 N2 1_555 1_555
N3 C1 1_555 1_555
N4 C2 1_555 1_555
N5 C1 1_555 1_555
N6 H13 1_555 1_555
H14 N6 1_555 1_555
N7 H15 1_555 1_555
H16 N7 1_555 1_555
N8 C19 1_555 1_555
N9 C18 1_555 1_555
N10 C18 1_555 1_555
C21 H17 1_555 1_555
H18 C21 1_555 1_555
H19 C21 1_555 1_555
C22 H20 1_555 1_555
H21 C22 1_555 1_555
H22 C22 1_555 1_555
O1 S1 1_555 1_555
S1 C21 1_555 1_555
S2 O2 1_555 1_555
C23 S2 1_555 1_555
H23 C23 1_555 1_555
H24 C23 1_555 1_555
H25 C23 1_555 1_555
C24 S2 1_555 1_555
H26 C24 1_555 1_555
H27 C24 1_555 1_555
H28 C24 1_555 1_555
C1A N1A 1_555 1_555
C2A N2A 1_555 1_555
C3A C4A 1_555 1_555
C4A C5A 1_555 1_555
C5A H1A 1_555 1_555
C6A C5A 1_555 1_555
H2A C6A 1_555 1_555
C7A C10 1_555 1_555
C8A C7A 1_555 1_555
H3A C8A 1_555 1_555
C9A C4A 1_555 1_555
H4A C9A 1_555 1_555
C12A C11 1_555 1_555
C13A C12A 1_555 1_555
H5A C13A 1_555 1_555
C14A C13A 1_555 1_555
H6A C14A 1_555 1_555
C15A C14A 1_555 1_555
C16A C15A 1_555 1_555
H7A C16A 1_555 1_555
C17A C12A 1_555 1_555
H8A C17A 1_555 1_555
C18A C15A 1_555 1_555
C19A N6A 1_555 1_555
C20A N7A 1_555 1_555
N1A H9A 1_555 1_555
H10A N1A 1_555 1_555
N2A H11A 1_555 1_555
H12A N2A 1_555 1_555
N3A C1A 1_555 1_555
N4A C2A 1_555 1_555
N5A C1A 1_555 1_555
N6A H13A 1_555 1_555
H14A N6A 1_555 1_555
N7A H15A 1_555 1_555
H16A N7A 1_555 1_555
N8A C19A 1_555 1_555
N9A C18A 1_555 1_555
N10A C18A 1_555 1_555
C2 N3 1_555 1_555
C3 N4 1_555 1_555
C3 N5 1_555 1_555
C8 C9 1_555 1_555
C16 C17 1_555 1_555
C19 N10 1_555 1_555
C20 N8 1_555 1_555
C20 N9 1_555 1_555
C22 S1 1_555 1_555
C2A N3A 1_555 1_555
C3A N4A 1_555 1_555
C3A N5A 1_555 1_555
C6A C7A 1_555 1_555
C8A C9A 1_555 1_555
C16A C17A 1_555 1_555
C19A N10A 1_555 1_555
C20A N8A 1_555 1_555
C20A N9A 1_555 1_555

#END
