
#######################################################################
#
#                 Cambridge Crystallographic Data Centre
#                                CCDC 
#
#######################################################################
#
# If this CIF has been generated from an entry in the Cambridge 
# Structural Database, then it will include bibliographic, chemical, 
# crystal, experimental, refinement or atomic coordinate data resulting 
# from the CCDC's data processing and validation procedures.
#
#######################################################################

data_QEGJER
_chemical_formula_moiety         'C13 H20 O6'
_chemical_name_systematic        
'7-Deoxy-2,3:4,5-di-O-isopropylidene-D-glycero-D-manno-heptonic acid \e-lactone'
_symmetry_cell_setting           orthorhombic
_symmetry_space_group_name_H-M   'P 21 21 21'
_symmetry_Int_Tables_number      19
_space_group_name_Hall           'P 2ac 2ab'
loop_
_symmetry_equiv_pos_site_id
_symmetry_equiv_pos_as_xyz
1 x,y,z
2 1/2-x,-y,1/2+z
3 1/2+x,1/2-y,-z
4 -x,1/2+y,1/2-z
_cell_length_a                   6.5102(2)
_cell_length_b                   8.9104(4)
_cell_length_c                   23.7859(9)
_cell_angle_alpha                90
_cell_angle_beta                 90
_cell_angle_gamma                90
_cell_volume                     1379.78
_exptl_crystal_colour            colorless
_exptl_crystal_description       plate
_chemical_melting_point          '161-163 deg.C'
_cell_formula_units_Z            4
loop_
_atom_site_label
_atom_site_type_symbol
_atom_site_fract_x
_atom_site_fract_y
_atom_site_fract_z
O1 O 0.7927(2) 0.02086(14) 0.87935(5)
O2 O 0.7672(2) 0.12120(16) 0.96585(5)
O3 O 0.6915(3) 0.4124(2) 0.94977(7)
O4 O 0.9832(2) 0.46391(15) 0.90863(6)
O5 O 1.2985(2) 0.26329(16) 0.80745(6)
O6 O 1.0198(3) 0.12324(17) 0.78230(5)
C1 C 0.7301(3) -0.0136(2) 0.93489(7)
C2 C 0.9226(3) 0.2045(2) 0.93888(7)
C3 C 0.8521(3) 0.3657(2) 0.93263(8)
C4 C 1.1737(3) 0.4118(2) 0.88355(8)
C5 C 1.2280(4) 0.1583(2) 0.76629(8)
C6 C 0.9623(3) 0.2142(2) 0.82907(7)
C7 C 1.3073(4) 0.5490(2) 0.87595(9)
C8 C 1.3611(4) 0.0209(3) 0.7702(1)
C9 C 1.2250(4) 0.2271(3) 0.70832(8)
C10 C 0.5049(4) -0.0438(3) 0.93454(11)
C11 C 0.8559(5) -0.1410(3) 0.9585(1)
C12 C 1.1211(3) 0.3387(2) 0.82766(7)
C13 C 0.9615(3) 0.1204(2) 0.88260(7)
H1 H 1.0548(3) 0.2113(2) 0.96012(7)
H2 H 1.2484(3) 0.3363(2) 0.90699(8)
H3 H 0.8203(3) 0.2568(2) 0.82768(7)
H4 H 1.4412(4) 0.5191(2) 0.85867(9)
H5 H 1.3330(4) 0.5965(2) 0.91339(9)
H6 H 1.2360(4) 0.6224(2) 0.85082(9)
H7 H 1.3150(4) -0.0544(3) 0.7417(1)
H8 H 1.3492(4) -0.0233(3) 0.8088(1)
H9 H 1.5074(4) 0.0488(3) 0.7628(1)
H10 H 1.1754(4) 0.1511(3) 0.68052(8)
H11 H 1.3669(4) 0.2600(3) 0.69792(8)
H12 H 1.1308(4) 0.3157(3) 0.70813(8)
H13 H 0.4583(4) -0.0684(3) 0.97353(11)
H14 H 0.4303(4) 0.0472(3) 0.92083(11)
H15 H 0.4750(4) -0.1304(3) 0.90907(11)
H16 H 0.8091(5) -0.1633(3) 0.9976(1)
H17 H 1.0043(5) -0.1119(3) 0.9590(1)
H18 H 0.8376(5) -0.2321(3) 0.9345(1)
H19 H 1.0672(3) 0.4239(2) 0.80465(7)
H20 H 1.1025(3) 0.0760(2) 0.88387(7)
loop_
_geom_bond_atom_site_label_1
_geom_bond_atom_site_label_2
_geom_bond_site_symmetry_1
_geom_bond_site_symmetry_2
O1 C1 1_555 1_555
O2 C1 1_555 1_555
O3 C3 1_555 1_555
O4 C3 1_555 1_555
O5 C5 1_555 1_555
O6 C5 1_555 1_555
C1 C10 1_555 1_555
C2 O2 1_555 1_555
C3 C2 1_555 1_555
C4 O4 1_555 1_555
C5 C8 1_555 1_555
C6 O6 1_555 1_555
C7 C4 1_555 1_555
C8 H7 1_555 1_555
C9 C5 1_555 1_555
C10 H13 1_555 1_555
C11 C1 1_555 1_555
C12 O5 1_555 1_555
C13 O1 1_555 1_555
H1 C2 1_555 1_555
H2 C4 1_555 1_555
H3 C6 1_555 1_555
H4 C7 1_555 1_555
H5 C7 1_555 1_555
H6 C7 1_555 1_555
H8 C8 1_555 1_555
H9 C8 1_555 1_555
H10 C9 1_555 1_555
H11 C9 1_555 1_555
H12 C9 1_555 1_555
H14 C10 1_555 1_555
H15 C10 1_555 1_555
H16 C11 1_555 1_555
H17 C11 1_555 1_555
H18 C11 1_555 1_555
H19 C12 1_555 1_555
H20 C13 1_555 1_555
C2 C13 1_555 1_555
C4 C12 1_555 1_555
C6 C12 1_555 1_555
C6 C13 1_555 1_555

#END
