
#######################################################################
#
#                 Cambridge Crystallographic Data Centre
#                                CCDC 
#
#######################################################################
#
# If this CIF has been generated from an entry in the Cambridge 
# Structural Database, then it will include bibliographic, chemical, 
# crystal, experimental, refinement or atomic coordinate data resulting 
# from the CCDC's data processing and validation procedures.
#
#######################################################################

data_QEGKUL
_chemical_formula_moiety         'C16 H22 N2 O2'
_chemical_name_systematic        
3-(2,4,4-trimethylpentan-2-yl)quinazoline-2,4(1H,3H)-dione
_symmetry_cell_setting           triclinic
_symmetry_space_group_name_H-M   'P -1'
_symmetry_Int_Tables_number      2
_space_group_name_Hall           '-P 1'
loop_
_symmetry_equiv_pos_site_id
_symmetry_equiv_pos_as_xyz
1 x,y,z
2 -x,-y,-z
_cell_length_a                   10.3381(3)
_cell_length_b                   12.1298(3)
_cell_length_c                   12.7543(3)
_cell_angle_alpha                98.7084(7)
_cell_angle_beta                 97.6979(7)
_cell_angle_gamma                101.9694(7)
_cell_volume                     1523.79
_exptl_crystal_colour            colorless
_exptl_crystal_description       prism
_cell_formula_units_Z            4
loop_
_atom_site_label
_atom_site_type_symbol
_atom_site_fract_x
_atom_site_fract_y
_atom_site_fract_z
C1 C 0.87755(11) 0.11319(9) 0.48513(9)
C2 C 0.69416(11) 0.16191(9) 0.37268(9)
C3 C 0.70035(11) 0.06832(10) 0.28711(9)
C4 C 0.61634(13) 0.04690(11) 0.18726(10)
H1 H 0.5526 0.0917 0.1745
C5 C 0.62661(14) -0.03958(12) 0.10744(10)
H2 H 0.5704 -0.0539 0.0392
C6 C 0.71902(14) -0.10604(12) 0.12653(10)
H3 H 0.7252 -0.1655 0.0709
C7 C 0.80154(13) -0.08695(11) 0.22467(10)
H4 H 0.8639 -0.1330 0.2375
C8 C 0.79182(11) 0.00145(10) 0.30498(9)
C9 C 0.81912(11) 0.30764(9) 0.53708(9)
C10 C 0.70151(12) 0.31550(10) 0.59855(9)
H5 H 0.6236 0.3152 0.5440
H6 H 0.7258 0.3923 0.6451
C11 C 0.64957(13) 0.22959(11) 0.66973(10)
C12 C 0.95528(12) 0.34332(10) 0.61341(10)
H7 H 0.9553 0.2943 0.6678
H8 H 0.9702 0.4235 0.6490
H9 H 1.0271 0.3349 0.5720
C13 C 0.82700(13) 0.39718(10) 0.46274(10)
H10 H 0.9025 0.3948 0.4242
H11 H 0.8401 0.4738 0.5061
H12 H 0.7434 0.3798 0.4107
C14 C 0.75526(16) 0.21974(14) 0.76141(11)
H13 H 0.7118 0.1745 0.8099
H14 H 0.8010 0.2965 0.8015
H15 H 0.8209 0.1819 0.7317
C15 C 0.58435(15) 0.11020(12) 0.60349(12)
H16 H 0.6535 0.0755 0.5759
H17 H 0.5187 0.1165 0.5430
H18 H 0.5390 0.0621 0.6491
C16 C 0.53927(17) 0.27562(14) 0.71937(13)
H19 H 0.5013 0.2241 0.7654
H20 H 0.4684 0.2797 0.6618
H21 H 0.5778 0.3524 0.7625
N1 N 0.87077(10) 0.02322(8) 0.40518(8)
N2 N 0.79913(9) 0.19074(8) 0.46334(7)
O1 O 0.95041(9) 0.12198(7) 0.57186(7)
O2 O 0.60566(8) 0.21399(7) 0.36561(7)
H22 H 0.9266(16) -0.0214(13) 0.4185(12)
C17 C 0.59367(12) 0.62351(10) 0.63132(9)
C18 C 0.59859(11) 0.72617(10) 0.81071(9)
C19 C 0.48930(12) 0.63323(10) 0.82351(9)
C20 C 0.43863(13) 0.63616(12) 0.92009(10)
H23 H 0.4753 0.6986 0.9782
C21 C 0.33579(15) 0.54858(13) 0.93062(11)
H24 H 0.3030 0.5492 0.9968
C22 C 0.27958(14) 0.45873(12) 0.84398(12)
H25 H 0.2072 0.3993 0.8512
C23 C 0.32749(13) 0.45488(11) 0.74805(11)
H26 H 0.2881 0.3939 0.6892
C24 C 0.43491(12) 0.54201(10) 0.73870(9)
C25 C 0.79506(12) 0.78677(10) 0.71583(10)
C26 C 0.89150(13) 0.82281(11) 0.82550(10)
H27 H 0.9665 0.8841 0.8163
H28 H 0.8424 0.8593 0.8770
C27 C 0.95618(14) 0.73916(15) 0.88330(12)
C28 C 0.86986(14) 0.73394(13) 0.63261(11)
H29 H 0.8290 0.7394 0.5602
H30 H 0.8640 0.6532 0.6372
H31 H 0.9643 0.7755 0.6472
C29 C 0.75820(16) 0.89348(12) 0.68215(14)
H32 H 0.6944 0.8712 0.6143
H33 H 0.8394 0.9465 0.6725
H34 H 0.7172 0.9312 0.7381
C30 C 1.06524(18) 0.69760(19) 0.82959(17)
H35 H 1.1141 0.6588 0.8779
H36 H 1.1277 0.7634 0.8141
H37 H 1.0239 0.6440 0.7623
C31 C 1.0267(2) 0.8113(3) 0.99405(16)
H38 H 0.9612 0.8430 1.0305
H39 H 1.0980 0.8740 0.9842
H40 H 1.0656 0.7626 1.0378
C32 C 0.85506(17) 0.63687(18) 0.90108(17)
H41 H 0.8134 0.5875 0.8316
H42 H 0.7857 0.6635 0.9365
H43 H 0.9006 0.5934 0.9467
N3 N 0.48817(10) 0.54272(9) 0.64525(8)
N4 N 0.66390(9) 0.70402(8) 0.72241(7)
O3 O 0.62463(9) 0.62362(8) 0.54169(7)
O4 O 0.63312(9) 0.81647(7) 0.87487(7)
H44 H 0.4490(16) 0.4916(14) 0.5854(14)
loop_
_geom_bond_atom_site_label_1
_geom_bond_atom_site_label_2
_geom_bond_site_symmetry_1
_geom_bond_site_symmetry_2
C1 N1 1_555 1_555
C2 C3 1_555 1_555
C3 C4 1_555 1_555
C4 H1 1_555 1_555
C5 C4 1_555 1_555
H2 C5 1_555 1_555
C6 C5 1_555 1_555
H3 C6 1_555 1_555
C7 C6 1_555 1_555
H4 C7 1_555 1_555
C8 C3 1_555 1_555
C9 C10 1_555 1_555
C10 H5 1_555 1_555
H6 C10 1_555 1_555
C11 C10 1_555 1_555
C12 C9 1_555 1_555
H7 C12 1_555 1_555
H8 C12 1_555 1_555
H9 C12 1_555 1_555
C13 C9 1_555 1_555
H10 C13 1_555 1_555
H11 C13 1_555 1_555
H12 C13 1_555 1_555
C14 C11 1_555 1_555
H13 C14 1_555 1_555
H14 C14 1_555 1_555
H15 C14 1_555 1_555
C15 C11 1_555 1_555
H16 C15 1_555 1_555
H17 C15 1_555 1_555
H18 C15 1_555 1_555
C16 C11 1_555 1_555
H19 C16 1_555 1_555
H20 C16 1_555 1_555
H21 C16 1_555 1_555
N1 C8 1_555 1_555
N2 C1 1_555 1_555
O1 C1 1_555 1_555
O2 C2 1_555 1_555
H22 N1 1_555 1_555
C17 N3 1_555 1_555
C18 C19 1_555 1_555
C19 C20 1_555 1_555
C20 H23 1_555 1_555
C21 C20 1_555 1_555
H24 C21 1_555 1_555
C22 C21 1_555 1_555
H25 C22 1_555 1_555
C23 C22 1_555 1_555
H26 C23 1_555 1_555
C24 C19 1_555 1_555
C25 C26 1_555 1_555
C26 H27 1_555 1_555
H28 C26 1_555 1_555
C27 C26 1_555 1_555
C28 C25 1_555 1_555
H29 C28 1_555 1_555
H30 C28 1_555 1_555
H31 C28 1_555 1_555
C29 C25 1_555 1_555
H32 C29 1_555 1_555
H33 C29 1_555 1_555
H34 C29 1_555 1_555
C30 C27 1_555 1_555
H35 C30 1_555 1_555
H36 C30 1_555 1_555
H37 C30 1_555 1_555
C31 C27 1_555 1_555
H38 C31 1_555 1_555
H39 C31 1_555 1_555
H40 C31 1_555 1_555
C32 C27 1_555 1_555
H41 C32 1_555 1_555
H42 C32 1_555 1_555
H43 C32 1_555 1_555
N3 C24 1_555 1_555
N4 C17 1_555 1_555
O3 C17 1_555 1_555
O4 C18 1_555 1_555
H44 N3 1_555 1_555
C2 N2 1_555 1_555
C7 C8 1_555 1_555
C9 N2 1_555 1_555
C18 N4 1_555 1_555
C23 C24 1_555 1_555
C25 N4 1_555 1_555

#END
