
#######################################################################
#
#                 Cambridge Crystallographic Data Centre
#                                CCDC 
#
#######################################################################
#
# If this CIF has been generated from an entry in the Cambridge 
# Structural Database, then it will include bibliographic, chemical, 
# crystal, experimental, refinement or atomic coordinate data resulting 
# from the CCDC's data processing and validation procedures.
#
#######################################################################

data_QEGKAR
_chemical_formula_moiety         
'C38 H32 N20,4(C4 H8 O1),2(C3 H7 N1 O1),C2 H6 O1 S1'
_chemical_name_systematic        
"6,6',6'',6'''-[ethene-1,1,2,2-tetrayltetrakis(4,1-phenylene)]tetrakis(1,3,5-triazine-2,4-diamine) tetrahydrofuran dimethyl sulfoxide N,N-dimethylformamide solvate"
_symmetry_cell_setting           monoclinic
_symmetry_space_group_name_H-M   'C 2/c'
_symmetry_Int_Tables_number      15
_space_group_name_Hall           '-C 2yn'
loop_
_symmetry_equiv_pos_site_id
_symmetry_equiv_pos_as_xyz
1 x,y,z
2 -x,y,1/2-z
3 1/2+x,1/2+y,z
4 1/2-x,1/2+y,1/2-z
5 -x,-y,-z
6 x,-y,1/2+z
7 1/2-x,1/2-y,-z
8 1/2+x,1/2-y,1/2+z
_cell_length_a                   21.6470(5)
_cell_length_b                   22.0832(5)
_cell_length_c                   14.1759(3)
_cell_angle_alpha                90
_cell_angle_beta                 92.692(2)
_cell_angle_gamma                90
_cell_volume                     6769.1
_exptl_crystal_colour            colorless
_exptl_crystal_description       block
_cell_formula_units_Z            4
loop_
_atom_site_label
_atom_site_type_symbol
_atom_site_fract_x
_atom_site_fract_y
_atom_site_fract_z
N11 N 0.9339(4) 0.4644(4) 0.3979(6)
O1 O 0.9188(4) 0.4848(4) 0.5410(6)
C21 C 0.9566(5) 0.4920(4) 0.4781(7)
C22 C 0.8750(3) 0.4405(4) 0.4252(6)
H17 H 0.8808 0.4163 0.4811
H18 H 0.8558 0.4165 0.3755
H19 H 0.8491 0.4745 0.4380
C23 C 0.9633(8) 0.4628(7) 0.3091(9)
H20 H 0.9651 0.5030 0.2836
H21 H 0.9400 0.4372 0.2657
H22 H 1.0045 0.4470 0.3185
O2 O 0.7413(6) 0.7953(6) 0.4008(11)
C24 C 0.7914(9) 0.7527(8) 0.4092(13)
H23 H 0.7811 0.7188 0.4491
H24 H 0.8288 0.7719 0.4353
C25 C 0.7993(13) 0.7323(9) 0.3080(13)
H25 H 0.7771 0.6948 0.2955
H26 H 0.8427 0.7257 0.2970
C26 C 0.7733(11) 0.7827(8) 0.2442(12)
H27 H 0.7502 0.7661 0.1899
H28 H 0.8062 0.8082 0.2224
C27 C 0.7306(10) 0.8186(10) 0.3073(12)
H29 H 0.7403 0.8614 0.3054
H30 H 0.6877 0.8130 0.2863
O3 O 0.6358(7) 0.6165(6) -0.0497(11)
C28 C 0.7020(7) 0.6151(8) -0.0418(13)
H31 H 0.7188 0.6345 -0.0963
H32 H 0.7162 0.5734 -0.0397
C29 C 0.7244(6) 0.6481(8) 0.0485(13)
H33 H 0.7506 0.6823 0.0344
H34 H 0.7468 0.6211 0.0918
C30 C 0.6625(7) 0.6693(9) 0.0892(11)
H35 H 0.6475 0.6404 0.1342
H36 H 0.6666 0.7087 0.1190
C31 C 0.6202(8) 0.6720(7) -0.0007(13)
H37 H 0.5769 0.6724 0.0144
H38 H 0.6289 0.7074 -0.0382
N1 N 0.65269(14) 0.90116(13) 0.5753(2)
N2 N 0.65165(15) 0.92294(14) 0.7412(2)
N3 N 0.56867(14) 0.86758(12) 0.6634(2)
N4 N 0.73331(15) 0.95012(16) 0.6527(2)
H1 H 0.7511 0.9655 0.7026
H2 H 0.7512 0.9515 0.5999
N5 N 0.56869(16) 0.88980(16) 0.8222(2)
H3 H 0.5853 0.9054 0.8728
H4 H 0.5337 0.8715 0.8239
N6 N 0.70241(14) 0.55037(12) 0.5291(2)
N7 N 0.70329(15) 0.49638(13) 0.6754(2)
N8 N 0.60857(15) 0.53404(14) 0.6048(2)
N9 N 0.79261(15) 0.51158(15) 0.5985(2)
H5 H 0.8122 0.4922 0.6432
H6 H 0.8124 0.5258 0.5521
N10 N 0.61063(17) 0.48409(16) 0.7454(2)
H7 H 0.6298 0.4653 0.7912
H8 H 0.5713 0.4892 0.7459
C1 C 0.67823(17) 0.92422(15) 0.6572(2)
C2 C 0.59723(17) 0.89402(15) 0.7407(2)
C3 C 0.59922(16) 0.87346(13) 0.5838(2)
C4 C 0.57064(16) 0.84461(13) 0.4966(2)
C5 C 0.52265(18) 0.80441(17) 0.5020(3)
H9 H 0.5058 0.7971 0.5600
C6 C 0.49871(18) 0.77424(16) 0.4218(3)
H10 H 0.4663 0.7469 0.4269
C7 C 0.52326(16) 0.78497(13) 0.3341(2)
C8 C 0.5707(2) 0.82702(17) 0.3289(3)
H11 H 0.5867 0.8358 0.2707
C9 C 0.5946(2) 0.85614(17) 0.4094(3)
H12 H 0.6270 0.8835 0.4048
C10 C 0.73181(17) 0.51963(14) 0.6010(3)
C11 C 0.64194(18) 0.50524(16) 0.6737(3)
C12 C 0.64183(16) 0.55532(14) 0.5361(2)
C13 C 0.60566(16) 0.58835(14) 0.4603(2)
C14 C 0.54374(17) 0.57549(14) 0.4415(3)
H13 H 0.5249 0.5454 0.4758
C15 C 0.50930(16) 0.60685(14) 0.3721(2)
H14 H 0.4682 0.5966 0.3586
C16 C 0.53645(16) 0.65371(13) 0.3228(2)
C17 C 0.59923(16) 0.66649(13) 0.3405(2)
H15 H 0.6179 0.6970 0.3067
C18 C 0.63400(16) 0.63391(13) 0.4084(2)
H16 H 0.6758 0.6423 0.4193
C19 C 0.5000 0.7501(2) 0.2500
C20 C 0.5000 0.6891(2) 0.2500
N1A N 0.34731(14) 0.90116(13) -0.0753(2)
N2A N 0.34835(15) 0.92294(14) -0.2412(2)
N3A N 0.43133(14) 0.86758(12) -0.1634(2)
N4A N 0.26669(15) 0.95012(16) -0.1527(2)
H1A H 0.2489 0.9655 -0.2026
H2A H 0.2488 0.9515 -0.0999
N5A N 0.43131(16) 0.88980(16) -0.3222(2)
H3A H 0.4147 0.9054 -0.3728
H4A H 0.4663 0.8715 -0.3239
N6A N 0.29759(14) 0.55037(12) -0.0291(2)
N7A N 0.29671(15) 0.49638(13) -0.1754(2)
N8A N 0.39143(15) 0.53404(14) -0.1048(2)
N9A N 0.20739(15) 0.51158(15) -0.0985(2)
H5A H 0.1878 0.4922 -0.1432
H6A H 0.1876 0.5258 -0.0521
N10A N 0.38937(17) 0.48409(16) -0.2454(2)
H7A H 0.3702 0.4653 -0.2912
H8A H 0.4287 0.4892 -0.2459
C1A C 0.32177(17) 0.92422(15) -0.1572(2)
C2A C 0.40277(17) 0.89402(15) -0.2407(2)
C3A C 0.40078(16) 0.87346(13) -0.0838(2)
C4A C 0.42936(16) 0.84461(13) 0.0034(2)
C5A C 0.47735(18) 0.80441(17) -0.0020(3)
H9A H 0.4942 0.7971 -0.0600
C6A C 0.50129(18) 0.77424(16) 0.0782(3)
H10A H 0.5337 0.7469 0.0731
C7A C 0.47674(16) 0.78497(13) 0.1659(2)
C8A C 0.4293(2) 0.82702(17) 0.1711(3)
H11A H 0.4133 0.8358 0.2293
C9A C 0.4054(2) 0.85614(17) 0.0906(3)
H12A H 0.3730 0.8835 0.0952
C10A C 0.26819(17) 0.51963(14) -0.1010(3)
C11A C 0.35806(18) 0.50524(16) -0.1737(3)
C12A C 0.35817(16) 0.55532(14) -0.0361(2)
C13A C 0.39434(16) 0.58835(14) 0.0397(2)
C14A C 0.45626(17) 0.57549(14) 0.0585(3)
H13A H 0.4751 0.5454 0.0242
C15A C 0.49070(16) 0.60685(14) 0.1279(2)
H14A H 0.5318 0.5966 0.1414
C16A C 0.46355(16) 0.65371(13) 0.1772(2)
C17A C 0.40077(16) 0.66649(13) 0.1595(2)
H15A H 0.3821 0.6970 0.1933
C18A C 0.36600(16) 0.63391(13) 0.0916(2)
H16A H 0.3242 0.6423 0.0807
O4? O 0.7551(7) 0.8283(7) 0.3079(14)
O5? O 0.6484(14) 0.7224(11) -0.019(2)
C32? C 0.7196(7) 0.7792(7) 0.2651(17)
H39? H 0.7104 0.7861 0.1983
H40? H 0.6814 0.7724 0.2966
C33? C 0.7650(8) 0.7271(6) 0.282(2)
H41? H 0.7587 0.6960 0.2336
H42? H 0.7605 0.7090 0.3433
C34? C 0.8285(7) 0.7568(8) 0.275(2)
H43? H 0.8405 0.7586 0.2101
H44? H 0.8598 0.7345 0.3121
C35? C 0.8202(7) 0.8205(7) 0.3154(18)
H45? H 0.8357 0.8229 0.3806
H46? H 0.8411 0.8506 0.2785
C36? C 0.672(2) 0.7172(13) 0.077(2)
H47? H 0.6422 0.7343 0.1193
H48? H 0.7103 0.7391 0.0858
C37? C 0.682(2) 0.6497(15) 0.099(3)
H49? H 0.7252 0.6388 0.1038
H50? H 0.6629 0.6388 0.1575
C38? C 0.651(2) 0.6170(10) 0.014(3)
H51? H 0.6209 0.5876 0.0346
H52? H 0.6802 0.5966 -0.0247
C39? C 0.6156(19) 0.6676(14) -0.040(3)
H53? H 0.6139 0.6595 -0.1077
H54? H 0.5738 0.6730 -0.0202
S1? S 0.8807(6) 0.4689(5) 0.4104(7)
S2? S 0.8976(4) 0.4077(4) 0.4135(5)
O6? O 0.8986(5) 0.4474(5) 0.5021(5)
C40? C 0.8286(6) 0.4195(8) 0.3484(12)
H55? H 0.8007 0.4437 0.3832
H56? H 0.8106 0.3803 0.3367
H57? H 0.8359 0.4388 0.2893
H58? H 0.7887 0.4205 0.3754
H59? H 0.8243 0.4307 0.2830
H60? H 0.8454 0.3793 0.3538
C41? C 0.9448(7) 0.4522(8) 0.3431(12)
H61? H 0.9206 0.4853 0.3179
H62? H 0.9596 0.4284 0.2922
H63? H 0.9794 0.4677 0.3806
H64? H 0.9786 0.4770 0.3663
H65? H 0.9562 0.4103 0.3488
H66? H 0.9352 0.4617 0.2780
N12? N 0.5000 0.6566(3) 0.7500
O7? O 0.5000 0.5557(2) 0.7500
C42? C 0.4926(4) 0.6043(3) 0.7889(8)
H67? H 0.4802 0.6037 0.8530
C43? C 0.5203(8) 0.6594(7) 0.6510(7)
H68? H 0.5253 0.6190 0.6276
H69? H 0.4896 0.6802 0.6121
H70? H 0.5589 0.6806 0.6493
C44? C 0.4914(8) 0.7157(5) 0.7904(12)
H71? H 0.4785 0.7117 0.8540
H72? H 0.5297 0.7377 0.7905
H73? H 0.4603 0.7372 0.7533
H74? H 0.9941 0.5124 0.4849
loop_
_geom_bond_atom_site_label_1
_geom_bond_atom_site_label_2
_geom_bond_site_symmetry_1
_geom_bond_site_symmetry_2
N1 C1 1_555 1_555
N2 C1 1_555 1_555
N3 C2 1_555 1_555
N4 H1 1_555 1_555
H2 N4 1_555 1_555
N5 H3 1_555 1_555
H4 N5 1_555 1_555
N6 C10 1_555 1_555
N7 C10 1_555 1_555
N8 C11 1_555 1_555
N9 H5 1_555 1_555
H6 N9 1_555 1_555
N10 H7 1_555 1_555
H8 N10 1_555 1_555
C1 N4 1_555 1_555
C2 N2 1_555 1_555
C3 N1 1_555 1_555
C4 C3 1_555 1_555
C5 C4 1_555 1_555
H9 C5 1_555 1_555
C6 C5 1_555 1_555
H10 C6 1_555 1_555
C7 C6 1_555 1_555
C8 C7 1_555 1_555
H11 C8 1_555 1_555
C9 C4 1_555 1_555
H12 C9 1_555 1_555
C10 N9 1_555 1_555
C11 N7 1_555 1_555
C12 N6 1_555 1_555
C13 C12 1_555 1_555
C14 C13 1_555 1_555
H13 C14 1_555 1_555
C15 C14 1_555 1_555
H14 C15 1_555 1_555
C16 C15 1_555 1_555
C17 C16 1_555 1_555
H15 C17 1_555 1_555
C18 C13 1_555 1_555
H16 C18 1_555 1_555
C19 C7 1_555 1_555
C20 C16 1_555 1_555
N11 C21 1_555 1_555
O1 C21 1_555 1_555
C22 N11 1_555 1_555
H17 C22 1_555 1_555
H18 C22 1_555 1_555
H19 C22 1_555 1_555
C23 N11 1_555 1_555
H20 C23 1_555 1_555
H21 C23 1_555 1_555
H22 C23 1_555 1_555
O2 C24 1_555 1_555
C24 H23 1_555 1_555
H24 C24 1_555 1_555
C25 C24 1_555 1_555
H25 C25 1_555 1_555
H26 C25 1_555 1_555
C26 C25 1_555 1_555
H27 C26 1_555 1_555
H28 C26 1_555 1_555
C27 O2 1_555 1_555
H29 C27 1_555 1_555
H30 C27 1_555 1_555
O3 C28 1_555 1_555
C28 H31 1_555 1_555
H32 C28 1_555 1_555
C29 C28 1_555 1_555
H33 C29 1_555 1_555
H34 C29 1_555 1_555
C30 C29 1_555 1_555
H35 C30 1_555 1_555
H36 C30 1_555 1_555
C31 O3 1_555 1_555
H37 C31 1_555 1_555
H38 C31 1_555 1_555
N1A C1A 1_555 1_555
N2A C1A 1_555 1_555
N3A C2A 1_555 1_555
N4A H1A 1_555 1_555
H2A N4A 1_555 1_555
N5A H3A 1_555 1_555
H4A N5A 1_555 1_555
N6A C10A 1_555 1_555
N7A C10A 1_555 1_555
N8A C11A 1_555 1_555
N9A H5A 1_555 1_555
H6A N9A 1_555 1_555
N10A H7A 1_555 1_555
H8A N10A 1_555 1_555
C1A N4A 1_555 1_555
C2A N2A 1_555 1_555
C3A N1A 1_555 1_555
C4A C3A 1_555 1_555
C5A C4A 1_555 1_555
H9A C5A 1_555 1_555
C6A C5A 1_555 1_555
H10A C6A 1_555 1_555
C7A C19 1_555 1_555
C8A C7A 1_555 1_555
H11A C8A 1_555 1_555
C9A C4A 1_555 1_555
H12A C9A 1_555 1_555
C10A N9A 1_555 1_555
C11A N7A 1_555 1_555
C12A N6A 1_555 1_555
C13A C12A 1_555 1_555
C14A C13A 1_555 1_555
H13A C14A 1_555 1_555
C15A C14A 1_555 1_555
H14A C15A 1_555 1_555
C16A C20 1_555 1_555
C17A C16A 1_555 1_555
H15A C17A 1_555 1_555
C18A C13A 1_555 1_555
H16A C18A 1_555 1_555
N3 C3 1_555 1_555
N5 C2 1_555 1_555
N8 C12 1_555 1_555
N10 C11 1_555 1_555
C8 C9 1_555 1_555
C17 C18 1_555 1_555
C19 C20 1_555 1_555
C26 C27 1_555 1_555
C30 C31 1_555 1_555
N3A C3A 1_555 1_555
N5A C2A 1_555 1_555
N8A C12A 1_555 1_555
N10A C11A 1_555 1_555
C6A C7A 1_555 1_555
C8A C9A 1_555 1_555
C15A C16A 1_555 1_555
C17A C18A 1_555 1_555

#END
