
#######################################################################
#
#                 Cambridge Crystallographic Data Centre
#                                CCDC 
#
#######################################################################
#
# If this CIF has been generated from an entry in the Cambridge 
# Structural Database, then it will include bibliographic, chemical, 
# crystal, experimental, refinement or atomic coordinate data resulting 
# from the CCDC's data processing and validation procedures.
#
#######################################################################

data_QEGQUR
_chemical_formula_moiety         'C17 H16 N2 O3'
_chemical_name_systematic        
'(1R,2S,Z)-2-methyl-N-(4-nitrobenzylidene)-2-phenylcyclopropanamine oxide'
_symmetry_cell_setting           monoclinic
_symmetry_space_group_name_H-M   'P 21'
_symmetry_Int_Tables_number      4
_space_group_name_Hall           'P 2yb'
loop_
_symmetry_equiv_pos_site_id
_symmetry_equiv_pos_as_xyz
1 x,y,z
2 -x,1/2+y,-z
_cell_length_a                   8.353(5)
_cell_length_b                   15.877(5)
_cell_length_c                   11.442(5)
_cell_angle_alpha                90
_cell_angle_beta                 95.810(5)
_cell_angle_gamma                90
_cell_volume                     1509.65
_exptl_crystal_colour            colorless
_exptl_crystal_description       BLOCK
_cell_formula_units_Z            4
loop_
_atom_site_label
_atom_site_type_symbol
_atom_site_fract_x
_atom_site_fract_y
_atom_site_fract_z
N1 N -0.3070(3) -0.16494(17) -0.2717(2)
O1 O -0.4069(3) -0.20645(19) -0.2170(3)
C1 C -0.1776(3) -0.2872(2) -0.3544(2)
C2 C -0.4319(3) -0.0176(2) -0.3242(3)
C3 C -0.2404(4) -0.3517(2) -0.2903(3)
H1 H -0.3122 -0.3390 -0.2357
C4 C -0.2076(3) -0.1981(2) -0.3392(2)
H2 H -0.1500 -0.1610 -0.3819
C5 C -0.1970(4) -0.4343(2) -0.3071(3)
H3 H -0.2378 -0.4772 -0.2633
C6 C -0.3786(4) 0.0670(2) -0.3655(3)
C7 C -0.0933(4) -0.4525(2) -0.3891(3)
C8 C -0.0708(3) -0.3087(2) -0.4358(3)
H4 H -0.0268 -0.2662 -0.4785
C9 C -0.4388(4) 0.0997(2) -0.4736(3)
H5 H -0.5098 0.0677 -0.5234
C10 C -0.4286(4) -0.0324(3) -0.1950(3)
H6 H -0.3967 0.0142 -0.1431
H7 H -0.5112 -0.0685 -0.1682
N2 N -0.0501(4) -0.5402(2) -0.4091(3)
C11 C -0.0291(4) -0.3904(2) -0.4543(3)
H8 H 0.0409 -0.4038 -0.5097
C12 C -0.3029(4) -0.0726(2) -0.2577(3)
H9 H -0.1955 -0.0474 -0.2444
C13 C -0.5638(4) -0.0627(3) -0.4016(3)
H10 H -0.6588 -0.0284 -0.4099
H11 H -0.5875 -0.1155 -0.3661
H12 H -0.5282 -0.0728 -0.4775
C14 C -0.2889(4) 0.2269(3) -0.4377(4)
H13 H -0.2603 0.2802 -0.4618
C15 C -0.2242(4) 0.1955(3) -0.3303(4)
H14 H -0.1517 0.2274 -0.2818
O2 O -0.0892(4) -0.5934(2) -0.3408(4)
C16 C -0.2691(4) 0.1157(2) -0.2958(3)
H15 H -0.2244 0.0944 -0.2241
C17 C -0.3948(4) 0.1790(3) -0.5081(3)
H16 H -0.4379 0.2001 -0.5803
O3 O 0.0193(5) -0.5575(2) -0.4935(3)
O4 O -0.4695(4) -0.00793(18) 0.2184(3)
N3 N -0.3850(4) -0.04677(18) 0.1474(3)
C18 C -0.4034(4) -0.3170(2) 0.0530(3)
H17 H -0.4714 -0.2842 0.0021
C19 C -0.3528(4) -0.2858(2) 0.1636(3)
C20 C -0.4062(4) -0.2019(2) 0.2052(3)
C21 C -0.2629(4) -0.0119(2) 0.1013(3)
H18 H -0.2027 -0.0472 0.0577
C22 C -0.2123(3) 0.0743(2) 0.1107(3)
C23 C -0.0984(4) 0.0987(2) 0.0369(3)
H19 H -0.0552 0.0585 -0.0100
C24 C -0.1113(4) 0.2394(2) 0.1035(3)
C25 C -0.0481(4) 0.1812(3) 0.0317(3)
H20 H 0.0266 0.1972 -0.0190
C26 C -0.4273(4) -0.1343(2) 0.1145(3)
H21 H -0.4084 -0.1509 0.0346
C27 C -0.2027(5) -0.4163(3) 0.1969(5)
H22 H -0.1333 -0.4498 0.2456
C28 C -0.3564(5) -0.3953(3) 0.0152(4)
H23 H -0.3929 -0.4141 -0.0597
C29 C -0.2497(4) -0.3378(3) 0.2367(3)
H24 H -0.2126 -0.3198 0.3120
C30 C -0.2211(4) 0.2174(3) 0.1790(3)
H25 H -0.2613 0.2578 0.2272
C31 C -0.2711(4) 0.1360(2) 0.1831(3)
H26 H -0.3454 0.1210 0.2347
O5 O -0.0997(4) 0.3756(2) 0.1757(4)
N4 N -0.0588(4) 0.3274(3) 0.1004(4)
C32 C -0.5691(4) -0.1721(3) 0.1606(4)
H27 H -0.6358 -0.2094 0.1092
H28 H -0.6272 -0.1382 0.2128
C33 C -0.2575(5) -0.4446(3) 0.0872(5)
H29 H -0.2270 -0.4974 0.0622
C34 C -0.3417(5) -0.1763(3) 0.3297(3)
H30 H -0.3645 -0.2200 0.3836
H31 H -0.3924 -0.1250 0.3504
H32 H -0.2274 -0.1680 0.3333
O6 O 0.0256(5) 0.3479(3) 0.0268(5)
loop_
_geom_bond_atom_site_label_1
_geom_bond_atom_site_label_2
_geom_bond_site_symmetry_1
_geom_bond_site_symmetry_2
N1 O1 1_555 1_555
C1 C3 1_555 1_555
C2 C6 1_555 1_555
C3 H1 1_555 1_555
C4 N1 1_555 1_555
H2 C4 1_555 1_555
C5 C3 1_555 1_555
H3 C5 1_555 1_555
C6 C9 1_555 1_555
C7 C5 1_555 1_555
C8 C1 1_555 1_555
H4 C8 1_555 1_555
C9 H5 1_555 1_555
C10 C2 1_555 1_555
H6 C10 1_555 1_555
H7 C10 1_555 1_555
N2 C7 1_555 1_555
C11 C7 1_555 1_555
H8 C11 1_555 1_555
C12 N1 1_555 1_555
H9 C12 1_555 1_555
C13 C2 1_555 1_555
H10 C13 1_555 1_555
H11 C13 1_555 1_555
H12 C13 1_555 1_555
C14 H13 1_555 1_555
C15 C14 1_555 1_555
H14 C15 1_555 1_555
O2 N2 1_555 1_555
C16 C6 1_555 1_555
H15 C16 1_555 1_555
C17 C9 1_555 1_555
H16 C17 1_555 1_555
O3 N2 1_555 1_555
O4 N3 1_555 1_555
N3 C21 1_555 1_555
C18 H17 1_555 1_555
C19 C18 1_555 1_555
C20 C19 1_555 1_555
C21 H18 1_555 1_555
C22 C21 1_555 1_555
C23 C22 1_555 1_555
H19 C23 1_555 1_555
C24 C25 1_555 1_555
C25 C23 1_555 1_555
H20 C25 1_555 1_555
C26 N3 1_555 1_555
H21 C26 1_555 1_555
C27 H22 1_555 1_555
C28 C18 1_555 1_555
H23 C28 1_555 1_555
C29 C19 1_555 1_555
H24 C29 1_555 1_555
C30 C24 1_555 1_555
H25 C30 1_555 1_555
C31 C22 1_555 1_555
H26 C31 1_555 1_555
O5 N4 1_555 1_555
N4 C24 1_555 1_555
C32 C20 1_555 1_555
H27 C32 1_555 1_555
H28 C32 1_555 1_555
C33 C27 1_555 1_555
H29 C33 1_555 1_555
C34 C20 1_555 1_555
H30 C34 1_555 1_555
H31 C34 1_555 1_555
H32 C34 1_555 1_555
O6 N4 1_555 1_555
C1 C4 1_555 1_555
C2 C12 1_555 1_555
C8 C11 1_555 1_555
C10 C12 1_555 1_555
C14 C17 1_555 1_555
C15 C16 1_555 1_555
C20 C26 1_555 1_555
C26 C32 1_555 1_555
C27 C29 1_555 1_555
C28 C33 1_555 1_555
C30 C31 1_555 1_555

#END
