
#######################################################################
#
#                 Cambridge Crystallographic Data Centre
#                                CCDC 
#
#######################################################################
#
# If this CIF has been generated from an entry in the Cambridge 
# Structural Database, then it will include bibliographic, chemical, 
# crystal, experimental, refinement or atomic coordinate data resulting 
# from the CCDC's data processing and validation procedures.
#
#######################################################################

data_QEGQOL
_chemical_formula_moiety         'C19 H21 N1 O1'
_chemical_name_systematic        
'(rac)-2-methyl-2-phenyl-N-(1-phenylpropylidene)cyclopropanamine oxide'
_symmetry_cell_setting           monoclinic
_symmetry_space_group_name_H-M   'P 21/c'
_symmetry_Int_Tables_number      14
_space_group_name_Hall           '-P 2ybc'
loop_
_symmetry_equiv_pos_site_id
_symmetry_equiv_pos_as_xyz
1 x,y,z
2 -x,1/2+y,1/2-z
3 -x,-y,-z
4 x,1/2-y,1/2+z
_cell_length_a                   11.229
_cell_length_b                   8.075
_cell_length_c                   17.078
_cell_angle_alpha                90
_cell_angle_beta                 98.90
_cell_angle_gamma                90
_cell_volume                     1529.89
_exptl_crystal_colour            colorless
_exptl_crystal_description       BLOCK
_cell_formula_units_Z            4
loop_
_atom_site_label
_atom_site_type_symbol
_atom_site_fract_x
_atom_site_fract_y
_atom_site_fract_z
N1 N 0.66049(10) -0.01305(16) 0.04215(7)
O1 O 0.66940(10) 0.05130(15) -0.02669(6)
C1 C 0.62086(13) -0.24401(17) 0.12742(8)
C2 C 0.62615(12) -0.16650(19) 0.04946(8)
C3 C 0.71988(14) -0.25034(19) 0.18717(9)
H1 H 0.7916 -0.1991 0.1799
C4 C 0.86265(12) 0.14158(17) 0.22659(9)
C5 C 0.60784(17) -0.4108(2) 0.26886(10)
H2 H 0.6036 -0.4658 0.3162
C6 C 0.69169(12) 0.09284(17) 0.11138(9)
H3 H 0.6429 0.0773 0.1537
C7 C 0.96278(14) 0.0529(2) 0.26163(10)
H4 H 1.0075 -0.0067 0.2298
C8 C 0.82377(12) 0.13986(18) 0.13875(9)
C9 C 0.51541(13) -0.3249(2) 0.13988(9)
H5 H 0.4482 -0.3232 0.1005
C10 C 0.71261(16) -0.3322(2) 0.25729(10)
H6 H 0.7792 -0.3342 0.2971
C11 C 0.51014(16) -0.4072(2) 0.21001(10)
H7 H 0.4394 -0.4609 0.2174
C12 C 0.79953(14) 0.22824(19) 0.27722(10)
H8 H 0.7316 0.2885 0.2558
C13 C 0.83457(16) 0.2277(2) 0.35832(11)
H9 H 0.7906 0.2874 0.3906
C14 C 0.99717(15) 0.0514(2) 0.34262(11)
H10 H 1.0642 -0.0099 0.3646
C15 C 0.73248(14) 0.2648(2) 0.10046(11)
H11 H 0.7065 0.3501 0.1341
H12 H 0.7385 0.3004 0.0470
C16 C 0.91447(15) 0.0793(2) 0.08820(11)
H13 H 0.8794 0.0841 0.0333
H14 H 0.9366 -0.0330 0.1022
H15 H 0.9849 0.1482 0.0970
C17 C 0.93377(16) 0.1394(2) 0.39139(11)
H16 H 0.9579 0.1390 0.4460
C18 C 0.71809(18) -0.3403(3) -0.04404(11)
H17 H 0.7012 -0.4049 -0.0917
H18 H 0.7547 -0.4095 -0.0013
H19 H 0.7722 -0.2518 -0.0518
C19 C 0.60146(15) -0.2687(2) -0.02409(9)
H20 H 0.5635 -0.2006 -0.0677
H21 H 0.5466 -0.3578 -0.0164
loop_
_geom_bond_atom_site_label_1
_geom_bond_atom_site_label_2
_geom_bond_site_symmetry_1
_geom_bond_site_symmetry_2
N1 O1 1_555 1_555
C1 C2 1_555 1_555
C2 N1 1_555 1_555
C3 C1 1_555 1_555
H1 C3 1_555 1_555
C4 C7 1_555 1_555
C5 H2 1_555 1_555
C6 N1 1_555 1_555
H3 C6 1_555 1_555
C7 H4 1_555 1_555
C8 C4 1_555 1_555
C9 C1 1_555 1_555
H5 C9 1_555 1_555
C10 C3 1_555 1_555
H6 C10 1_555 1_555
C11 C5 1_555 1_555
H7 C11 1_555 1_555
C12 C4 1_555 1_555
H8 C12 1_555 1_555
C13 C12 1_555 1_555
H9 C13 1_555 1_555
C14 C7 1_555 1_555
H10 C14 1_555 1_555
C15 C6 1_555 1_555
H11 C15 1_555 1_555
H12 C15 1_555 1_555
C16 C8 1_555 1_555
H13 C16 1_555 1_555
H14 C16 1_555 1_555
H15 C16 1_555 1_555
C17 C13 1_555 1_555
H16 C17 1_555 1_555
C18 H17 1_555 1_555
H18 C18 1_555 1_555
H19 C18 1_555 1_555
C19 C2 1_555 1_555
H20 C19 1_555 1_555
H21 C19 1_555 1_555
C5 C10 1_555 1_555
C6 C8 1_555 1_555
C8 C15 1_555 1_555
C9 C11 1_555 1_555
C14 C17 1_555 1_555
C18 C19 1_555 1_555

#END
