
#######################################################################
#
#                 Cambridge Crystallographic Data Centre
#                                CCDC 
#
#######################################################################
#
# If this CIF has been generated from an entry in the Cambridge 
# Structural Database, then it will include bibliographic, chemical, 
# crystal, experimental, refinement or atomic coordinate data resulting 
# from the CCDC's data processing and validation procedures.
#
#######################################################################

data_QEGSIF
_chemical_name_common            Trioxatrishomobarrelene
_chemical_formula_moiety         'C8 H8 O3'
_chemical_name_systematic        
endo,exo,syn-3,7,10-Trioxapentacyclo(3.3.3.0^2,4^.0^6,8^.0^9,11^)undecane
_symmetry_cell_setting           monoclinic
_symmetry_space_group_name_H-M   'C 2/c'
_symmetry_Int_Tables_number      15
_space_group_name_Hall           '-C 2yn'
loop_
_symmetry_equiv_pos_site_id
_symmetry_equiv_pos_as_xyz
1 x,y,z
2 1/2+x,1/2+y,z
3 -x,y,1/2-z
4 1/2-x,1/2+y,1/2-z
5 -x,-y,-z
6 1/2-x,1/2-y,-z
7 x,-y,1/2+z
8 1/2+x,1/2-y,1/2+z
_cell_length_a                   18.884(2)
_cell_length_b                   10.892(2)
_cell_length_c                   11.877(2)
_cell_angle_alpha                90
_cell_angle_beta                 127.12(2)
_cell_angle_gamma                90
_cell_volume                     1947.92
_exptl_crystal_colour            colorless
_exptl_crystal_description       plate
_chemical_melting_point          223-226deg.C(dec)
_cell_formula_units_Z            12
_exptl_crystal_recrystallization_method 'carbon tetrachloride'
loop_
_atom_site_label
_atom_site_type_symbol
_atom_site_fract_x
_atom_site_fract_y
_atom_site_fract_z
H9 H 0.5987 0.9310 0.4958
H10 H 0.5470 1.1226 0.3666
O4 O 0.41449(19) 1.0533(3) 0.2558(4)
C11 C 0.5099(3) 1.0382(4) 0.3302(5)
C12 C 0.5461(5) 0.9094(7) 0.3837(10)
H13 H 0.6347 0.8015 0.3618
O5 O 0.39450(17) 0.9644(3) 0.2528(3)
C14 C 0.4668(3) 0.8801(4) 0.3347(5)
H15 H 0.4362 0.8159 0.3635
O6 O 0.54070(17) 0.7239(2) 0.2683(3)
C16 C 0.5942(4) 0.8335(5) 0.3380(6)
H9B H 0.4013 0.9310 0.0042
H10B H 0.4530 1.1226 0.1334
O4B O 0.58551(19) 1.0533(3) 0.2442(4)
C11B C 0.4901(3) 1.0382(4) 0.1698(5)
C12B C 0.4539(5) 0.9094(7) 0.1163(10)
H13B H 0.3653 0.8015 0.1382
O5B O 0.60550(17) 0.9644(3) 0.2472(3)
C14B C 0.5332(3) 0.8801(4) 0.1653(5)
H15B H 0.5638 0.8159 0.1365
O6B O 0.45930(17) 0.7239(2) 0.2317(3)
C16B C 0.4058(4) 0.8335(5) 0.1620(6)
C1 C 0.41339(12) 0.49312(18) 0.27916(18)
H1 H 0.4681 0.5434 0.3196
C2 C 0.36279(12) 0.46986(17) 0.12088(18)
H2 H 0.3603 0.5373 0.0615
O1 O 0.35934(8) 0.34428(12) 0.07806(12)
C3 C 0.28370(12) 0.39687(18) 0.06312(18)
H3 H 0.2297 0.4167 -0.0342
C4 C 0.27085(12) 0.3626(2) 0.17443(18)
H4 H 0.2160 0.3127 0.1341
C5 C 0.26893(12) 0.4833(2) 0.23814(19)
H5 H 0.2419 0.4830 0.2892
O2 O 0.26497(9) 0.59601(15) 0.16949(14)
C6 C 0.34826(12) 0.5551(2) 0.29660(18)
H6 H 0.3730 0.6015 0.3859
C7 C 0.35449(13) 0.2946(2) 0.29060(18)
H7 H 0.3577 0.2042 0.2795
O3 O 0.40329(9) 0.34408(15) 0.43285(13)
C8 C 0.43415(12) 0.3676(2) 0.34876(18)
H8 H 0.4890 0.3245 0.3753
C9? C 0.5587(5) 0.9245(7) 0.3904(10)
C10? C 0.5484(3) 1.0462(3) 0.3213(5)
H11? H 0.4504 1.1095 0.1151
H12? H 0.4140 0.9037 0.0109
C13? C 0.4082(4) 0.8716(5) 0.1821(6)
H14? H 0.4621 0.8156 0.3897
C15? C 0.5361(3) 0.8264(4) 0.1858(5)
H16? H 0.6598 0.8285 0.3886
loop_
_geom_bond_atom_site_label_1
_geom_bond_atom_site_label_2
_geom_bond_site_symmetry_1
_geom_bond_site_symmetry_2
C1 H1 1_555 1_555
C2 C1 1_555 1_555
H2 C2 1_555 1_555
O1 C2 1_555 1_555
C3 C2 1_555 1_555
H3 C3 1_555 1_555
C4 C3 1_555 1_555
H4 C4 1_555 1_555
C5 C4 1_555 1_555
H5 C5 1_555 1_555
O2 C5 1_555 1_555
C6 C1 1_555 1_555
H6 C6 1_555 1_555
C7 C4 1_555 1_555
H7 C7 1_555 1_555
O3 C7 1_555 1_555
C8 C1 1_555 1_555
H8 C8 1_555 1_555
H9 C12 1_555 1_555
H10 C11 1_555 1_555
O4 C11 1_555 1_555
C11 C12 1_555 1_555
C12 C14 1_555 1_555
H13 C16 1_555 1_555
O5 O4 1_555 1_555
C14 O5 1_555 1_555
H15 C14 1_555 1_555
O6 C16 1_555 1_555
C16 C12 1_555 1_555
H9B C12B 1_555 1_555
H10B C11B 1_555 1_555
O4B C11B 1_555 1_555
C11B C11 1_555 1_555
C12B C11B 1_555 1_555
H13B C16B 1_555 1_555
O5B O4B 1_555 1_555
C14B C16 1_555 1_555
H15B C14B 1_555 1_555
O6B O6 1_555 1_555
C16B C14 1_555 1_555
O1 C3 1_555 1_555
C5 C6 1_555 1_555
O2 C6 1_555 1_555
C7 C8 1_555 1_555
O3 C8 1_555 1_555
C12B C14B 1_555 1_555
C12B C16B 1_555 1_555
O5B C14B 1_555 1_555
O6B C16B 1_555 1_555

#END
