
#######################################################################
#
#                 Cambridge Crystallographic Data Centre
#                                CCDC 
#
#######################################################################
#
# If this CIF has been generated from an entry in the Cambridge 
# Structural Database, then it will include bibliographic, chemical, 
# crystal, experimental, refinement or atomic coordinate data resulting 
# from the CCDC's data processing and validation procedures.
#
#######################################################################

data_QEGTOO
_chemical_formula_moiety         'C23 H29 N1 O3'
_chemical_name_systematic        
'1-[2-(benzenecarbonyl)cyclopropyl]ethyl tricyclo[3.3.1.1^3,7^]decan-1-ylcarbamate'
_symmetry_cell_setting           monoclinic
_symmetry_space_group_name_H-M   'P 21'
_symmetry_Int_Tables_number      4
_space_group_name_Hall           'P 2yb'
loop_
_symmetry_equiv_pos_site_id
_symmetry_equiv_pos_as_xyz
1 x,y,z
2 -x,1/2+y,-z
_cell_length_a                   12.4742(5)
_cell_length_b                   9.8102(4)
_cell_length_c                   17.1419(8)
_cell_angle_alpha                90
_cell_angle_beta                 103.499(2)
_cell_angle_gamma                90
_cell_volume                     2039.78
_exptl_crystal_colour            colorless
_exptl_crystal_description       Columnar
_cell_formula_units_Z            4
loop_
_atom_site_label
_atom_site_type_symbol
_atom_site_fract_x
_atom_site_fract_y
_atom_site_fract_z
O1 O -0.2501(2) -0.7648(4) -0.31987(17)
O2 O -0.1376(2) -0.7334(4) -0.40536(17)
O3 O -0.3938(3) -0.3129(5) -0.3974(3)
N1 N -0.0735(3) -0.7344(5) -0.2694(2)
H1 H -0.0956 -0.7390 -0.2255
C1 C -0.2273(4) -0.1603(6) -0.4386(3)
H2 H -0.2877 -0.1125 -0.4297
C2 C -0.1363(5) -0.0905(6) -0.4493(3)
H3 H -0.1360 0.0042 -0.4488
C3 C -0.0464(5) -0.1597(7) -0.4606(3)
H4 H 0.0152 -0.1120 -0.4675
C4 C -0.0465(4) -0.2988(6) -0.4618(3)
H5 H 0.0156 -0.3452 -0.4687
C5 C -0.1389(4) -0.3723(6) -0.4527(3)
H6 H -0.1390 -0.4670 -0.4546
C6 C -0.2295(3) -0.3026(5) -0.4410(2)
C7 C -0.3290(4) -0.3756(5) -0.4276(3)
C8 C -0.3481(4) -0.5192(6) -0.4511(3)
H7 H -0.2990 -0.5591 -0.4821
C9 C -0.4649(4) -0.5710(7) -0.4693(3)
H8 H -0.5226 -0.5067 -0.4656
H9 H -0.4858 -0.6390 -0.5111
C10 C -0.3874(3) -0.6129(6) -0.3934(3)
H10 H -0.3992 -0.5694 -0.3447
C11 C -0.3475(4) -0.7585(6) -0.3836(2)
H11 H -0.3308 -0.7906 -0.4337
C12 C -0.1510(3) -0.7429(5) -0.3380(2)
C13 C 0.0458(3) -0.7181(5) -0.2618(2)
C14 C 0.0958(4) -0.8401(5) -0.2955(3)
H12 H 0.0634 -0.8482 -0.3526
H13 H 0.0795 -0.9229 -0.2696
C15 C 0.2205(4) -0.8231(6) -0.2817(3)
H14 H 0.2517 -0.9019 -0.3037
C16 C 0.2469(4) -0.6940(8) -0.3220(3)
H15 H 0.3262 -0.6832 -0.3126
H16 H 0.2167 -0.7000 -0.3794
C17 C 0.1983(5) -0.5735(6) -0.2886(4)
H17 H 0.2143 -0.4905 -0.3156
C18 C 0.0725(4) -0.5911(5) -0.3032(3)
H18 H 0.0409 -0.5123 -0.2828
H19 H 0.0405 -0.5978 -0.3603
C19 C 0.0983(4) -0.7074(7) -0.1718(2)
H20 H 0.0673 -0.6301 -0.1495
H21 H 0.0819 -0.7891 -0.1449
C20 C 0.2230(4) -0.6902(7) -0.1576(3)
H22 H 0.2556 -0.6834 -0.0999
C21 C 0.2709(4) -0.8124(6) -0.1917(3)
H23 H 0.2554 -0.8948 -0.1651
H24 H 0.3503 -0.8027 -0.1824
C22 C 0.2479(5) -0.5609(7) -0.1995(4)
H25 H 0.2169 -0.4825 -0.1782
H26 H 0.3270 -0.5481 -0.1900
C23 C -0.4305(5) -0.8530(7) -0.3596(4)
H27 H -0.4016 -0.9440 -0.3537
H28 H -0.4981 -0.8516 -0.4002
H29 H -0.4445 -0.8230 -0.3096
O4 O -0.3427(3) -0.8122(4) -0.0874(3)
O5 O -0.1778(2) -0.7991(4) -0.11949(19)
O6 O -0.5374(3) -0.6632(5) 0.0944(2)
N2 N -0.2618(4) -0.9995(6) -0.1113(5)
H30 H -0.3240 -1.0311 -0.1061
C24 C -0.4372(5) -0.7120(13) 0.2569(4)
H31 H -0.5137 -0.7179 0.2413
C25 C -0.3863(6) -0.7308(14) 0.3361(4)
H32 H -0.4288 -0.7464 0.3731
C26 C -0.2747(5) -0.7271(8) 0.3612(4)
H33 H -0.2403 -0.7398 0.4150
C27 C -0.2150(4) -0.7044(7) 0.3060(3)
H34 H -0.1385 -0.7033 0.3219
C28 C -0.2659(4) -0.6828(6) 0.2266(3)
H35 H -0.2226 -0.6667 0.1901
C29 C -0.3789(4) -0.6845(6) 0.1996(3)
C30 C -0.4372(4) -0.6572(6) 0.1154(3)
C31 C -0.3731(4) -0.6166(6) 0.0565(3)
H36 H -0.2927 -0.6250 0.0735
C32 C -0.4176(5) -0.4954(6) 0.0042(4)
H37 H -0.4857 -0.4546 0.0108
H38 H -0.3647 -0.4316 -0.0085
C33 C -0.4236(4) -0.6318(5) -0.0318(3)
H39 H -0.4972 -0.6730 -0.0453
C34 C -0.3509(4) -0.6660(5) -0.0880(3)
H40 H -0.2775 -0.6271 -0.0668
C35 C -0.2521(4) -0.8663(5) -0.1073(3)
C36 C -0.1819(3) -1.1020(5) -0.1234(3)
C37 C -0.1792(15) -1.202(2) -0.0699(9)
H41 H -0.2527 -1.2176 -0.0618
H42 H -0.1314 -1.1765 -0.0188
C38 C -0.1262(7) -1.3626(7) -0.1081(6)
H43 H -0.1477 -1.4487 -0.0871
C39 C -0.1521(6) -1.3483(10) -0.1951(6)
H44 H -0.1310 -1.4319 -0.2178
H45 H -0.2314 -1.3389 -0.2138
C40 C -0.1038(13) -1.2428(13) -0.2243(5)
H46 H -0.1116 -1.2489 -0.2824
C41 C -0.2081(10) -1.1404(17) -0.1984(6)
H47 H -0.2204 -1.0603 -0.2325
H48 H -0.2765 -1.1916 -0.2082
C42 C -0.0123(8) -1.1874(13) -0.1879(9)
H49 H -0.0155 -1.0922 -0.2036
H50 H 0.0458 -1.2292 -0.2087
C43 C 0.0223(5) -1.1920(9) -0.1001(7)
H51 H 0.1001 -1.1736 -0.0756
C44 C -0.0301(12) -1.306(2) -0.0667(7)
H52 H 0.0238 -1.3787 -0.0548
H53 H -0.0425 -1.2751 -0.0157
C45 C -0.0660(9) -1.0620(15) -0.1058(15)
H54 H -0.0488 -1.0130 -0.0553
H55 H -0.0551 -0.9997 -0.1472
C46 C -0.3952(5) -0.6135(8) -0.1706(3)
H56 H -0.3462 -0.6382 -0.2040
H57 H -0.4015 -0.5161 -0.1692
H58 H -0.4666 -0.6525 -0.1921
loop_
_geom_bond_atom_site_label_1
_geom_bond_atom_site_label_2
_geom_bond_site_symmetry_1
_geom_bond_site_symmetry_2
O1 C11 1_555 1_555
O2 C12 1_555 1_555
O3 C7 1_555 1_555
N1 H1 1_555 1_555
C1 H2 1_555 1_555
C2 C1 1_555 1_555
H3 C2 1_555 1_555
C3 C2 1_555 1_555
H4 C3 1_555 1_555
C4 C3 1_555 1_555
H5 C4 1_555 1_555
C5 C4 1_555 1_555
H6 C5 1_555 1_555
C6 C1 1_555 1_555
C7 C6 1_555 1_555
C8 C7 1_555 1_555
H7 C8 1_555 1_555
C9 C8 1_555 1_555
H8 C9 1_555 1_555
H9 C9 1_555 1_555
C10 C8 1_555 1_555
H10 C10 1_555 1_555
C11 C10 1_555 1_555
H11 C11 1_555 1_555
C12 O1 1_555 1_555
C13 N1 1_555 1_555
C14 C13 1_555 1_555
H12 C14 1_555 1_555
H13 C14 1_555 1_555
C15 C14 1_555 1_555
H14 C15 1_555 1_555
C16 C15 1_555 1_555
H15 C16 1_555 1_555
H16 C16 1_555 1_555
C17 C16 1_555 1_555
H17 C17 1_555 1_555
C18 C13 1_555 1_555
H18 C18 1_555 1_555
H19 C18 1_555 1_555
C19 C13 1_555 1_555
H20 C19 1_555 1_555
H21 C19 1_555 1_555
C20 C19 1_555 1_555
H22 C20 1_555 1_555
C21 C15 1_555 1_555
H23 C21 1_555 1_555
H24 C21 1_555 1_555
C22 C17 1_555 1_555
H25 C22 1_555 1_555
H26 C22 1_555 1_555
C23 C11 1_555 1_555
H27 C23 1_555 1_555
H28 C23 1_555 1_555
H29 C23 1_555 1_555
O4 C34 1_555 1_555
O5 C35 1_555 1_555
O6 C30 1_555 1_555
N2 H30 1_555 1_555
C24 H31 1_555 1_555
C25 C24 1_555 1_555
H32 C25 1_555 1_555
C26 C25 1_555 1_555
H33 C26 1_555 1_555
C27 C26 1_555 1_555
H34 C27 1_555 1_555
C28 C27 1_555 1_555
H35 C28 1_555 1_555
C29 C24 1_555 1_555
C30 C29 1_555 1_555
C31 C30 1_555 1_555
H36 C31 1_555 1_555
C32 C31 1_555 1_555
H37 C32 1_555 1_555
H38 C32 1_555 1_555
C33 C31 1_555 1_555
H39 C33 1_555 1_555
C34 C33 1_555 1_555
H40 C34 1_555 1_555
C35 O4 1_555 1_555
C36 N2 1_555 1_555
C37 C36 1_555 1_555
H41 C37 1_555 1_555
H42 C37 1_555 1_555
C38 C37 1_555 1_555
H43 C38 1_555 1_555
C39 C38 1_555 1_555
H44 C39 1_555 1_555
H45 C39 1_555 1_555
C40 C39 1_555 1_555
H46 C40 1_555 1_555
C41 C36 1_555 1_555
H47 C41 1_555 1_555
H48 C41 1_555 1_555
C42 C40 1_555 1_555
H49 C42 1_555 1_555
H50 C42 1_555 1_555
C43 C42 1_555 1_555
H51 C43 1_555 1_555
C44 C38 1_555 1_555
H52 C44 1_555 1_555
H53 C44 1_555 1_555
C45 C36 1_555 1_555
H54 C45 1_555 1_555
H55 C45 1_555 1_555
C46 C34 1_555 1_555
H56 C46 1_555 1_555
H57 C46 1_555 1_555
H58 C46 1_555 1_555
N1 C12 1_555 1_555
C5 C6 1_555 1_555
C9 C10 1_555 1_555
C17 C18 1_555 1_555
C20 C21 1_555 1_555
C20 C22 1_555 1_555
N2 C35 1_555 1_555
C28 C29 1_555 1_555
C32 C33 1_555 1_555
C40 C41 1_555 1_555
C43 C44 1_555 1_555
C43 C45 1_555 1_555

#END
