
#######################################################################
#
#                 Cambridge Crystallographic Data Centre
#                                CCDC 
#
#######################################################################
#
# If this CIF has been generated from an entry in the Cambridge 
# Structural Database, then it will include bibliographic, chemical, 
# crystal, experimental, refinement or atomic coordinate data resulting 
# from the CCDC's data processing and validation procedures.
#
#######################################################################

data_QEGTAY
_chemical_formula_moiety         'C32 H20 N6 O6,3(C1 H2 Cl2)'
_chemical_name_systematic        
'endo,exo,syn-3,7,10-tris(N-Phthalimidyl)-3,7,10-triazapentacyclo(3.3.3.0^2,4^.0^6,8^.0^9,11^)undecane dichloromethane solvate'
_symmetry_cell_setting           hexagonal
_symmetry_space_group_name_H-M   'P 63/m'
_symmetry_Int_Tables_number      176
_space_group_name_Hall           '-P 6c'
loop_
_symmetry_equiv_pos_site_id
_symmetry_equiv_pos_as_xyz
1 x,y,z
2 -y,x-y,z
3 -x+y,-x,z
4 y,-x+y,1/2+z
5 x-y,x,1/2+z
6 -x,-y,1/2+z
7 -x,-y,-z
8 y,-x+y,-z
9 x-y,x,-z
10 -y,x-y,1/2-z
11 -x+y,-x,1/2-z
12 x,y,1/2-z
_cell_length_a                   13.63340(10)
_cell_length_b                   13.63340(10)
_cell_length_c                   11.3890(2)
_cell_angle_alpha                90
_cell_angle_beta                 90
_cell_angle_gamma                120
_cell_volume                     1833.26
_exptl_crystal_colour            colorless
_exptl_crystal_description       prism
_chemical_melting_point          279-281deg.C(dec)
_cell_formula_units_Z            2
loop_
_atom_site_label
_atom_site_type_symbol
_atom_site_fract_x
_atom_site_fract_y
_atom_site_fract_z
O1 O 0.03244(11) 0.62666(11) 0.45147(12)
N1 N 0.17754(16) 0.67766(16) 0.2500
N2 N 0.05767(16) 0.62621(16) 0.2500
C1 C 0.3333 0.6667 0.3657(3)
C2 C 0.21309(13) 0.60403(13) 0.31461(17)
C3 C -0.00362(13) 0.61578(13) 0.35245(15)
C4 C -0.11835(12) 0.58681(13) 0.31125(13)
C5 C -0.21389(13) 0.56265(15) 0.37499(15)
H1 H -0.2133 0.5640 0.4584
C6 C -0.31170(14) 0.53605(17) 0.31099(15)
H2 H 0.3333 0.6667 0.454(4)
H3 H 0.1521(19) 0.5401(19) 0.358(2)
H4 H -0.378(2) 0.527(2) 0.352(2)
O1A O 0.37334(11) 0.40578(16) 0.45147(12)
O1I O 0.37334(11) 0.40578(16) 0.04853(12)
O1J O 0.59422(16) 0.96756(11) 0.04853(12)
O1B O 0.59422(16) 0.96756(11) 0.45147(12)
O1K O 0.03244(11) 0.62666(11) 0.04853(12)
N1A N 0.32234(16) 0.49988(23) 0.2500
N1B N 0.50012(23) 0.82246(16) 0.2500
N2A N 0.37379(16) 0.43146(23) 0.2500
N2B N 0.56854(23) 0.94233(16) 0.2500
C1I C 0.3333 0.6666 0.1343(3)
C2A C 0.39597(13) 0.60906(18) 0.31461(17)
C2I C 0.39597(13) 0.60906(18) 0.18539(17)
C2J C 0.39094(18) 0.78691(13) 0.18539(17)
C2B C 0.39094(18) 0.78691(13) 0.31461(17)
C2K C 0.21309(13) 0.60403(13) 0.18539(17)
C3A C 0.38422(13) 0.38060(18) 0.35245(15)
C3I C 0.38422(13) 0.38060(18) 0.14755(15)
C3J C 0.61940(18) 1.00362(13) 0.14755(15)
C3B C 0.61940(18) 1.00362(13) 0.35245(15)
C3K C -0.00362(13) 0.61578(13) 0.14755(15)
C4A C 0.41319(13) 0.29484(18) 0.31125(13)
C4I C 0.41319(13) 0.29484(18) 0.18875(13)
C4J C 0.70516(18) 1.11835(12) 0.18875(13)
C4B C 0.70516(18) 1.11835(12) 0.31125(13)
C4K C -0.11835(12) 0.58681(13) 0.18875(13)
C5I C 0.43735(15) 0.22346(20) 0.12501(15)
C5A C 0.43735(15) 0.22346(20) 0.37499(15)
C5B C 0.77654(20) 1.21389(13) 0.37499(15)
C5J C 0.77654(20) 1.21389(13) 0.12501(15)
C5K C -0.21389(13) 0.56265(15) 0.12501(15)
H1I H 0.4360 0.2227 0.0416
H1A H 0.4360 0.2227 0.4584
H1B H 0.7773 1.2133 0.4584
H1J H 0.7773 1.2133 0.0416
H1K H -0.2133 0.5640 0.0416
C6I C 0.46395(17) 0.15225(22) 0.18901(15)
C6A C 0.46395(17) 0.15225(22) 0.31099(15)
C6B C 0.84775(22) 1.31170(14) 0.31099(15)
C6J C 0.84775(22) 1.31170(14) 0.18901(15)
C6K C -0.31170(14) 0.53605(17) 0.18901(15)
H2I H 0.3333 0.6666 0.046(4)
H3J H 0.3880(27) 0.8479(19) 0.142(2)
H3B H 0.3880(27) 0.8479(19) 0.358(2)
H3K H 0.1521(19) 0.5401(19) 0.142(2)
H3I H 0.4599(19) 0.6120(27) 0.142(2)
H3A H 0.4599(19) 0.6120(27) 0.358(2)
H4A H 0.473(2) 0.095(3) 0.352(2)
H4I H 0.473(2) 0.095(3) 0.148(2)
H4J H 0.905(3) 1.378(2) 0.148(2)
H4B H 0.905(3) 1.378(2) 0.352(2)
H4K H -0.378(2) 0.527(2) 0.148(2)
Cl1 Cl 0.1937(5) 0.0870(4) 0.6238(4)
C7 C 0.2312(8) 0.1810(8) 0.7500
H5 H 0.1887 0.2199 0.7500
H6 H 0.3102 0.2353 0.7500
Cl1K Cl 0.1937(5) 0.0870(4) 0.8762(4)
Cl2? Cl 0.2147(6) 0.1211(5) 0.6257(6)
C8? C 0.1646(15) 0.1407(14) 0.7500
H7? H 0.0799 0.0859 0.7500
H8? H 0.1702 0.2134 0.7500
loop_
_geom_bond_atom_site_label_1
_geom_bond_atom_site_label_2
_geom_bond_site_symmetry_1
_geom_bond_site_symmetry_2
O1 C3 1_555 1_555
N1 N2 1_555 1_555
N2 C3 1_555 1_555
C1 C2 1_555 1_555
C2 N1 1_555 1_555
C3 C4 1_555 1_555
C4 C5 1_555 1_555
C5 H1 1_555 1_555
C6 C5 1_555 1_555
H2 C1 1_555 1_555
H3 C2 1_555 1_555
H4 C6 1_555 1_555
Cl1 C7 1_555 1_555
C7 H5 1_555 1_555
H6 C7 1_555 1_555
O1A C3A 1_555 1_555
O1I C3I 1_555 1_555
O1J C3J 1_555 1_555
O1B C3B 1_555 1_555
O1K C3K 1_555 1_555
N1A N2A 1_555 1_555
N1B N2B 1_555 1_555
N2A C3A 1_555 1_555
N2B C3J 1_555 1_555
C1I C2I 1_555 1_555
C2A C1 1_555 1_555
C2I N1A 1_555 1_555
C2J N1B 1_555 1_555
C2B C1 1_555 1_555
C2K N1 1_555 1_555
C3A C4A 1_555 1_555
C3I N2A 1_555 1_555
C3J C4J 1_555 1_555
C3B N2B 1_555 1_555
C3K N2 1_555 1_555
C4A C4I 1_555 1_555
C4I C3I 1_555 1_555
C4J C4B 1_555 1_555
C4B C3B 1_555 1_555
C4K C4 1_555 1_555
C5I C4I 1_555 1_555
C5A C4A 1_555 1_555
C5B C4B 1_555 1_555
C5J C4J 1_555 1_555
C5K C4K 1_555 1_555
H1I C5I 1_555 1_555
H1A C5A 1_555 1_555
H1B C5B 1_555 1_555
H1J C5J 1_555 1_555
H1K C5K 1_555 1_555
C6I C5I 1_555 1_555
C6A C5A 1_555 1_555
C6B C5B 1_555 1_555
C6J C5J 1_555 1_555
C6K C6 1_555 1_555
H2I C1I 1_555 1_555
H3J C2J 1_555 1_555
H3B C2B 1_555 1_555
H3K C2K 1_555 1_555
H3I C2I 1_555 1_555
H3A C2A 1_555 1_555
H4A C6A 1_555 1_555
H4I C6I 1_555 1_555
H4J C6J 1_555 1_555
H4B C6B 1_555 1_555
H4K C6K 1_555 1_555
Cl1K C7 1_555 1_555
C2 C2K 1_555 1_555
N1A C2A 1_555 1_555
N1B C2B 1_555 1_555
C1I C2J 1_555 1_555
C1I C2K 1_555 1_555
C2A C2I 1_555 1_555
C2J C2B 1_555 1_555
C3K C4K 1_555 1_555
C5K C6K 1_555 1_555
C6I C6A 1_555 1_555
C6B C6J 1_555 1_555

#END
