
#######################################################################
#
#                 Cambridge Crystallographic Data Centre
#                                CCDC 
#
#######################################################################
#
# If this CIF has been generated from an entry in the Cambridge 
# Structural Database, then it will include bibliographic, chemical, 
# crystal, experimental, refinement or atomic coordinate data resulting 
# from the CCDC's data processing and validation procedures.
#
#######################################################################

data_QEGTEC
_chemical_formula_moiety         'C32 H20 N6 O6,C1 H4 O1'
_chemical_name_systematic        
'rac-4,7,11-tris(N-Phthalimidyl)-4,7,11-triazapentacyclo(6.3.0.0^2,6^.0^3,10^.0^5.9^)undecane methanol solvate'
_symmetry_cell_setting           triclinic
_symmetry_space_group_name_H-M   'P -1'
_symmetry_Int_Tables_number      2
_space_group_name_Hall           '-P 1'
loop_
_symmetry_equiv_pos_site_id
_symmetry_equiv_pos_as_xyz
1 x,y,z
2 -x,-y,-z
_cell_length_a                   5.5789(9)
_cell_length_b                   12.634(2)
_cell_length_c                   19.548(3)
_cell_angle_alpha                73.36(6)
_cell_angle_beta                 84.34(8)
_cell_angle_gamma                89.37(7)
_cell_volume                     1313.47
_exptl_crystal_colour            'light yellow'
_exptl_crystal_description       plate
_chemical_melting_point          'decomposes at 310deg.C'
_cell_formula_units_Z            2
_exptl_crystal_recrystallization_method methanol/dichloromethane
loop_
_atom_site_label
_atom_site_type_symbol
_atom_site_fract_x
_atom_site_fract_y
_atom_site_fract_z
O1 O 0.0591(8) 0.8883(4) 0.1887(2)
O2 O 0.7835(8) 0.8305(4) 0.0738(2)
O3 O 0.1568(8) 0.3286(4) 0.2969(2)
O4 O 0.8818(8) 0.2855(4) 0.1731(2)
O5 O 0.2562(8) 0.5202(4) 0.4261(2)
O6 O 0.9339(8) 0.7456(4) 0.3699(2)
N1 N 0.3498(9) 0.7171(4) 0.1701(3)
N2 N 0.4146(9) 0.8301(4) 0.1407(3)
N3 N 0.5757(10) 0.4516(4) 0.1943(3)
N4 N 0.5249(9) 0.3370(4) 0.2264(3)
N5 N 0.7009(9) 0.5923(4) 0.3198(3)
N6 N 0.6052(10) 0.6278(5) 0.3794(3)
C1 C 0.7368(11) 0.6215(5) 0.1930(3)
H1 H 0.8939 0.6478 0.1640
C2 C 0.6580(11) 0.6796(5) 0.2527(3)
H2 H 0.7362 0.7532 0.2463
C3 C 0.3829(11) 0.6807(5) 0.2481(3)
H3 H 0.2861 0.7204 0.2786
C4 C 0.3379(11) 0.5525(5) 0.2684(3)
H4 H 0.1818 0.5253 0.2976
C5 C 0.3726(12) 0.5285(5) 0.1926(3)
H5 H 0.2237 0.5100 0.1734
C6 C 0.5092(11) 0.6358(5) 0.1490(4)
H6 H 0.5430 0.6461 0.0963
C7 C 0.7240(12) 0.4971(5) 0.2373(3)
H7 H 0.8828 0.4610 0.2464
C8 C 0.5647(11) 0.5043(5) 0.3037(4)
H8 H 0.5398 0.4337 0.3433
C9 C 0.2509(12) 0.9108(6) 0.1518(3)
C10 C 0.3633(7) 1.0168(3) 0.1144(2)
C11 C 0.2902(6) 1.1239(4) 0.1097(2)
H9 H 0.1385 1.1362 0.1326
C12 C 0.4389(8) 1.2131(3) 0.0715(2)
H10 H 0.3889 1.2863 0.0683
C13 C 0.6608(7) 1.1951(3) 0.0380(2)
H11 H 0.7624 1.2561 0.0119
C14 C 0.7339(6) 1.0879(4) 0.0427(2)
H12 H 0.8856 1.0757 0.0198
C15 C 0.5852(7) 0.9988(3) 0.0809(2)
C16 C 0.6211(12) 0.8799(6) 0.0955(3)
C17 C 0.3227(12) 0.2850(6) 0.2716(3)
C18 C 0.3637(7) 0.1658(3) 0.2838(2)
C19 C 0.2222(6) 0.0746(4) 0.3229(2)
H13 H 0.0704 0.0847 0.3466
C20 C 0.3028(7) -0.0314(3) 0.3274(2)
H14 H 0.2061 -0.0938 0.3542
C21 C 0.5249(8) -0.0463(3) 0.2927(2)
H15 H 0.5800 -0.1187 0.2958
C22 C 0.6664(6) 0.0449(4) 0.2536(2)
H16 H 0.8182 0.0348 0.2299
C23 C 0.5858(7) 0.1510(3) 0.2491(2)
C24 C 0.6900(12) 0.2612(6) 0.2103(4)
C25 C 0.3919(12) 0.5936(6) 0.4270(4)
C26 C 0.3887(7) 0.6625(3) 0.4762(2)
C27 C 0.2149(6) 0.6721(3) 0.5301(2)
H17 H 0.0746 0.6259 0.5416
C28 C 0.2464(7) 0.7490(4) 0.56712(19)
H18 H 0.1276 0.7555 0.6039
C29 C 0.4516(8) 0.8165(3) 0.5503(2)
H19 H 0.4731 0.8691 0.5756
C30 C 0.6254(6) 0.8070(3) 0.4964(2)
H20 H 0.7656 0.8531 0.4849
C31 C 0.5939(7) 0.7300(4) 0.4594(2)
C32 C 0.7424(12) 0.7065(5) 0.3986(3)
C33? C 0.5000 0.5000 0.0000
C34? C 0.2185(16) 0.5090(7) 0.0253(5)
C35? C -0.042(3) 0.5246(11) 0.0392(7)
C36? C 0.663(2) 0.4939(12) 0.0007(7)
C37? C -0.123(2) 0.5000(11) 0.0313(8)
loop_
_geom_bond_atom_site_label_1
_geom_bond_atom_site_label_2
_geom_bond_site_symmetry_1
_geom_bond_site_symmetry_2
O1 C9 1_555 1_555
O2 C16 1_555 1_555
O3 C17 1_555 1_555
O4 C24 1_555 1_555
O5 C25 1_555 1_555
O6 C32 1_555 1_555
N1 N2 1_555 1_555
N2 C9 1_555 1_555
N3 N4 1_555 1_555
N4 C17 1_555 1_555
N5 N6 1_555 1_555
N6 C25 1_555 1_555
C1 H1 1_555 1_555
C2 N5 1_555 1_555
H2 C2 1_555 1_555
C3 N1 1_555 1_555
H3 C3 1_555 1_555
C4 C3 1_555 1_555
H4 C4 1_555 1_555
C5 N3 1_555 1_555
H5 C5 1_555 1_555
C6 N1 1_555 1_555
H6 C6 1_555 1_555
C7 N3 1_555 1_555
H7 C7 1_555 1_555
C8 N5 1_555 1_555
H8 C8 1_555 1_555
C9 C10 1_555 1_555
C10 C11 1_555 1_555
C11 H9 1_555 1_555
C12 C11 1_555 1_555
H10 C12 1_555 1_555
C13 C12 1_555 1_555
H11 C13 1_555 1_555
C14 C13 1_555 1_555
H12 C14 1_555 1_555
C15 C10 1_555 1_555
C16 N2 1_555 1_555
C17 C18 1_555 1_555
C18 C19 1_555 1_555
C19 H13 1_555 1_555
C20 C19 1_555 1_555
H14 C20 1_555 1_555
C21 C20 1_555 1_555
H15 C21 1_555 1_555
C22 C21 1_555 1_555
H16 C22 1_555 1_555
C23 C18 1_555 1_555
C24 N4 1_555 1_555
C25 C26 1_555 1_555
C26 C27 1_555 1_555
C27 H17 1_555 1_555
C28 C27 1_555 1_555
H18 C28 1_555 1_555
C29 C28 1_555 1_555
H19 C29 1_555 1_555
C30 C29 1_555 1_555
H20 C30 1_555 1_555
C31 C26 1_555 1_555
C32 N6 1_555 1_555
C1 C2 1_555 1_555
C1 C6 1_555 1_555
C1 C7 1_555 1_555
C2 C3 1_555 1_555
C4 C5 1_555 1_555
C4 C8 1_555 1_555
C5 C6 1_555 1_555
C7 C8 1_555 1_555
C14 C15 1_555 1_555
C15 C16 1_555 1_555
C22 C23 1_555 1_555
C23 C24 1_555 1_555
C30 C31 1_555 1_555
C31 C32 1_555 1_555

#END
