
#######################################################################
#
#                 Cambridge Crystallographic Data Centre
#                                CCDC 
#
#######################################################################
#
# If this CIF has been generated from an entry in the Cambridge 
# Structural Database, then it will include bibliographic, chemical, 
# crystal, experimental, refinement or atomic coordinate data resulting 
# from the CCDC's data processing and validation procedures.
#
#######################################################################

data_QEHCUE
_chemical_formula_moiety         'C25 H23 N1 O1 S1'
_chemical_name_systematic        
2,2-dimethyl-N-[2-(2-phenyl-1-benzothiophen-3-yl)phenyl]propanamide
_symmetry_cell_setting           monoclinic
_symmetry_space_group_name_H-M   'P 21/n'
_symmetry_Int_Tables_number      14
_space_group_name_Hall           '-P 2yn'
loop_
_symmetry_equiv_pos_site_id
_symmetry_equiv_pos_as_xyz
1 x,y,z
2 1/2-x,1/2+y,1/2-z
3 -x,-y,-z
4 1/2+x,1/2-y,1/2+z
_cell_length_a                   10.190(2)
_cell_length_b                   15.310(3)
_cell_length_c                   13.623(3)
_cell_angle_alpha                90
_cell_angle_beta                 97.81(3)
_cell_angle_gamma                90
_cell_volume                     2105.6
_exptl_crystal_colour            colorless
_exptl_crystal_description       block
_cell_formula_units_Z            4
loop_
_atom_site_label
_atom_site_type_symbol
_atom_site_fract_x
_atom_site_fract_y
_atom_site_fract_z
S1 S 0.50205(6) 0.15309(4) 0.30158(4)
N1 N 0.2583(2) 0.27253(13) 0.51518(14)
H1 H 0.2717 0.2613 0.4555
O1 O 0.1939(2) 0.37831(13) 0.61144(15)
C1 C 0.6275(2) 0.16796(15) 0.39955(17)
C2 C 0.7605(2) 0.18496(19) 0.3938(2)
H2 H 0.7908 0.1912 0.3328
C3 C 0.8458(3) 0.1923(2) 0.4809(2)
H3 H 0.9350 0.2035 0.4785
C4 C 0.8012(3) 0.1831(2) 0.5723(2)
H4 H 0.8609 0.1878 0.6301
C5 C 0.6694(2) 0.16730(16) 0.57817(18)
H5 H 0.6399 0.1623 0.6396
C6 C 0.5806(2) 0.15875(14) 0.49125(16)
C7 C 0.4403(2) 0.14086(13) 0.48003(15)
C8 C 0.3863(2) 0.13457(13) 0.38301(15)
C9 C 0.2483(2) 0.11469(14) 0.34104(15)
C10 C 0.1741(2) 0.05433(17) 0.38571(17)
H6 H 0.2118 0.0258 0.4429
C11 C 0.0454(3) 0.0361(2) 0.3466(2)
H7 H -0.0031 -0.0046 0.3774
C12 C -0.0119(3) 0.0779(2) 0.2622(2)
H8 H -0.0990 0.0657 0.2361
C13 C 0.0595(3) 0.13734(19) 0.2169(2)
H9 H 0.0207 0.1659 0.1600
C14 C 0.1897(2) 0.15536(17) 0.25540(18)
H10 H 0.2381 0.1952 0.2234
C15 C 0.3637(2) 0.13568(14) 0.56556(15)
C16 C 0.3821(2) 0.06672(15) 0.63170(16)
H11 H 0.4433 0.0235 0.6224
C17 C 0.3116(2) 0.06071(17) 0.71131(17)
H12 H 0.3254 0.0141 0.7553
C18 C 0.2210(3) 0.12436(18) 0.72444(17)
H13 H 0.1727 0.1204 0.7775
C19 C 0.2004(2) 0.19418(17) 0.66019(17)
H14 H 0.1379 0.2365 0.6697
C20 C 0.2730(2) 0.20147(14) 0.58110(15)
C21 C 0.2260(2) 0.35568(16) 0.53284(17)
C22 C 0.2341(3) 0.41992(17) 0.44799(19)
C23 C 0.3476(5) 0.4008(3) 0.3908(3)
H15 H 0.4297 0.4046 0.4345
H16 H 0.3476 0.4425 0.3383
H17 H 0.3378 0.3430 0.3634
C24 C 0.1073(5) 0.4108(4) 0.3758(3)
H18 H 0.1005 0.3523 0.3503
H19 H 0.1089 0.4512 0.3220
H20 H 0.0325 0.4232 0.4094
C25 C 0.2459(5) 0.5114(2) 0.4892(3)
H21 H 0.1758 0.5218 0.5283
H22 H 0.2396 0.5526 0.4357
H23 H 0.3299 0.5180 0.5300
loop_
_geom_bond_atom_site_label_1
_geom_bond_atom_site_label_2
_geom_bond_site_symmetry_1
_geom_bond_site_symmetry_2
S1 C1 1_555 1_555
N1 H1 1_555 1_555
O1 C21 1_555 1_555
C1 C2 1_555 1_555
C2 H2 1_555 1_555
C3 C2 1_555 1_555
H3 C3 1_555 1_555
C4 C3 1_555 1_555
H4 C4 1_555 1_555
C5 C4 1_555 1_555
H5 C5 1_555 1_555
C6 C1 1_555 1_555
C7 C6 1_555 1_555
C8 S1 1_555 1_555
C9 C8 1_555 1_555
C10 C9 1_555 1_555
H6 C10 1_555 1_555
C11 C10 1_555 1_555
H7 C11 1_555 1_555
C12 C11 1_555 1_555
H8 C12 1_555 1_555
C13 C12 1_555 1_555
H9 C13 1_555 1_555
C14 C9 1_555 1_555
H10 C14 1_555 1_555
C15 C7 1_555 1_555
C16 C15 1_555 1_555
H11 C16 1_555 1_555
C17 C16 1_555 1_555
H12 C17 1_555 1_555
C18 C17 1_555 1_555
H13 C18 1_555 1_555
C19 C18 1_555 1_555
H14 C19 1_555 1_555
C20 N1 1_555 1_555
C21 N1 1_555 1_555
C22 C21 1_555 1_555
C23 C22 1_555 1_555
H15 C23 1_555 1_555
H16 C23 1_555 1_555
H17 C23 1_555 1_555
C24 C22 1_555 1_555
H18 C24 1_555 1_555
H19 C24 1_555 1_555
H20 C24 1_555 1_555
C25 C22 1_555 1_555
H21 C25 1_555 1_555
H22 C25 1_555 1_555
H23 C25 1_555 1_555
C5 C6 1_555 1_555
C7 C8 1_555 1_555
C13 C14 1_555 1_555
C15 C20 1_555 1_555
C19 C20 1_555 1_555

#END
