
#######################################################################
#
#                 Cambridge Crystallographic Data Centre
#                                CCDC 
#
#######################################################################
#
# If this CIF has been generated from an entry in the Cambridge 
# Structural Database, then it will include bibliographic, chemical, 
# crystal, experimental, refinement or atomic coordinate data resulting 
# from the CCDC's data processing and validation procedures.
#
#######################################################################

data_QEHWAD
_chemical_formula_moiety         'C39 H55 N2 O2 P2 Rb1 Si2'
_chemical_name_systematic        
bis(tetrahydrofuran)-(bis(N-(trimethylsilyl)diphenylphosphinimino)-methanide-N,N')-rubidium
_symmetry_cell_setting           monoclinic
_symmetry_space_group_name_H-M   'P 21/n'
_symmetry_Int_Tables_number      14
_space_group_name_Hall           '-P 2yn'
loop_
_symmetry_equiv_pos_site_id
_symmetry_equiv_pos_as_xyz
1 x,y,z
2 1/2-x,1/2+y,1/2-z
3 -x,-y,-z
4 1/2+x,1/2-y,1/2+z
_cell_length_a                   10.5328(5)
_cell_length_b                   17.2302(9)
_cell_length_c                   23.0134(12)
_cell_angle_alpha                90
_cell_angle_beta                 94.0980(10)
_cell_angle_gamma                90
_cell_volume                     4165.85
_exptl_crystal_colour            colorless
_exptl_crystal_description       column
_cell_formula_units_Z            4
loop_
_atom_site_label
_atom_site_type_symbol
_atom_site_fract_x
_atom_site_fract_y
_atom_site_fract_z
Rb1 Rb 0.95400(2) 0.696955(15) 0.236136(9)
C1 C 0.96591(19) 0.75077(12) 0.05524(8)
H1 H 0.9658 0.7616 0.0148
P1 P 0.83656(5) 0.70601(3) 0.08174(2)
C2 C 0.7325(2) 0.68076(11) 0.01774(9)
C3 C 0.7828(2) 0.65394(13) -0.03277(10)
H2 H 0.8724 0.6536 -0.0353
C4 C 0.7038(2) 0.62767(14) -0.07954(10)
H3 H 0.7394 0.6099 -0.1139
C5 C 0.5734(2) 0.62735(13) -0.07610(10)
H4 H 0.5192 0.6096 -0.1081
C6 C 0.5223(2) 0.65275(14) -0.02621(10)
H5 H 0.4326 0.6521 -0.0237
C7 C 0.6012(2) 0.67937(13) 0.02066(9)
H6 H 0.5649 0.6968 0.0550
C8 C 0.7427(2) 0.77733(12) 0.11932(9)
C9 C 0.7504(2) 0.85645(12) 0.10689(10)
H7 H 0.8047 0.8738 0.0783
C10 C 0.6795(2) 0.90982(14) 0.13591(11)
H8 H 0.6857 0.9635 0.1271
C11 C 0.6000(2) 0.88577(15) 0.17748(11)
H9 H 0.5517 0.9227 0.1972
C12 C 0.5908(2) 0.80773(16) 0.19032(11)
H10 H 0.5360 0.7909 0.2188
C13 C 0.6621(2) 0.75374(14) 0.16147(10)
H11 H 0.6557 0.7002 0.1706
N1 N 0.85797(17) 0.63682(10) 0.12597(7)
Si1 Si 0.8731(2) 0.53766(13) 0.11571(13)
C14 C 0.7144(6) 0.4901(4) 0.1075(4)
H12 H 0.7254 0.4341 0.1025
H13 H 0.6656 0.5113 0.0732
H14 H 0.6685 0.4999 0.1423
C15 C 0.9698(15) 0.5007(5) 0.1796(5)
H15 H 0.9895 0.4458 0.1736
H16 H 0.9222 0.5062 0.2144
H17 H 1.0491 0.5304 0.1847
C16 C 0.9560(6) 0.5042(3) 0.0500(3)
H18 H 0.9606 0.4474 0.0499
H19 H 1.0422 0.5258 0.0517
H20 H 0.9081 0.5221 0.0144
P2 P 1.09526(5) 0.77628(3) 0.10053(2)
C17 C 1.18977(19) 0.83984(11) 0.05660(8)
C18 C 1.3215(2) 0.84012(13) 0.06370(9)
H21 H 1.3637 0.8052 0.0906
C19 C 1.3925(2) 0.89069(15) 0.03208(10)
H22 H 1.4828 0.8897 0.0371
C20 C 1.3324(2) 0.94243(14) -0.00666(10)
H23 H 1.3811 0.9769 -0.0284
C21 C 1.2011(2) 0.94382(13) -0.01360(10)
H24 H 1.1594 0.9796 -0.0399
C22 C 1.1298(2) 0.89283(12) 0.01787(9)
H25 H 1.0395 0.8941 0.0129
C23 C 1.20425(19) 0.69433(11) 0.11476(8)
C24 C 1.2254(2) 0.64084(12) 0.07108(9)
H26 H 1.1800 0.6455 0.0341
C25 C 1.3119(3) 0.58101(13) 0.08103(11)
H27 H 1.3260 0.5451 0.0508
C26 C 1.3774(2) 0.57334(14) 0.13456(12)
H28 H 1.4372 0.5325 0.1412
C27 C 1.3564(2) 0.62505(14) 0.17863(11)
H29 H 1.4006 0.6192 0.2158
C28 C 1.2705(2) 0.68567(13) 0.16872(10)
H30 H 1.2571 0.7214 0.1991
N2 N 1.06801(17) 0.81001(10) 0.16193(7)
Si2 Si 1.08743(6) 0.89471(4) 0.19727(3)
C29 C 1.2510(4) 0.9090(3) 0.2297(3)
H31 H 1.2751 0.8651 0.2552
H32 H 1.2551 0.9572 0.2524
H33 H 1.3098 0.9124 0.1986
C30 C 0.9763(7) 0.8915(3) 0.2585(2)
H34 H 0.9665 0.9439 0.2742
H35 H 1.0119 0.8572 0.2895
H36 H 0.8930 0.8718 0.2435
C31 C 1.0394(8) 0.9808(3) 0.1529(3)
H37 H 1.0536 1.0279 0.1765
H38 H 0.9490 0.9768 0.1399
H39 H 1.0902 0.9834 0.1189
O1 O 1.1160(2) 0.63986(15) 0.32851(8)
C32 C 1.2401(3) 0.6687(2) 0.34576(12)
H40 H 1.2429 0.7258 0.3415
H41 H 1.3043 0.6453 0.3216
C33 C 1.2657(3) 0.64568(18) 0.40907(11)
H42 H 1.3156 0.5970 0.4127
H43 H 1.3126 0.6871 0.4314
C34 C 1.1376(3) 0.63485(18) 0.42967(12)
H44 H 1.1008 0.6849 0.4413
H45 H 1.1394 0.5984 0.4630
C35 C 1.0655(4) 0.6020(2) 0.37761(15)
H46 H 1.0780 0.5451 0.3756
H47 H 0.9734 0.6128 0.3787
O2 O 0.7716(2) 0.70345(13) 0.32140(9)
C36 C 0.7709(5) 0.7739(3) 0.3559(2)
H48 H 0.7424 0.8187 0.3314
H49 H 0.8570 0.7850 0.3741
C37 C 0.6802(4) 0.7587(2) 0.40122(14)
H50 H 0.6401 0.8072 0.4140
H51 H 0.7221 0.7319 0.4355
C38 C 0.5845(3) 0.7066(2) 0.36795(17)
H52 H 0.5416 0.6720 0.3948
H53 H 0.5193 0.7376 0.3452
C39 C 0.6615(3) 0.6614(2) 0.32911(14)
H54 H 0.6833 0.6102 0.3467
H55 H 0.6133 0.6528 0.2911
C40? C 0.7448(7) 0.4952(3) 0.0749(3)
C41? C 0.9999(6) 0.4940(4) 0.1401(4)
C42? C 0.7676(7) 0.5222(3) 0.2043(2)
C43? C 1.2635(11) 0.9273(8) 0.2041(7)
C44? C 1.0390(14) 0.8899(7) 0.2728(4)
C45? C 1.012(2) 0.9854(11) 0.1639(8)
C46? C 0.7962(13) 0.7338(10) 0.3821(7)
C47? C 0.6802(4) 0.7587(2) 0.40122(14)
C48? C 0.5845(3) 0.7066(2) 0.36795(17)
C49? C 0.6615(3) 0.6614(2) 0.32911(14)
H56? H 0.7772 0.4427 0.0689
H57? H 0.7493 0.5254 0.0391
H58? H 0.6562 0.4922 0.0851
H59? H 0.9956 0.4476 0.1154
H60? H 1.0224 0.4789 0.1806
H61? H 1.0646 0.5295 0.1269
H62? H 0.7146 0.4756 0.1993
H63? H 0.7146 0.5664 0.2141
H64? H 0.8339 0.5137 0.2357
H65? H 1.0874 0.8490 0.2940
H66? H 0.9478 0.8783 0.2722
H67? H 1.2728 0.9723 0.2301
H68? H 1.2901 0.9415 0.1656
H69? H 1.3168 0.8847 0.2201
H70? H 1.0560 0.9399 0.2921
H71? H 1.0530 1.0312 0.1822
H72? H 0.9211 0.9858 0.1702
H73? H 1.0232 0.9860 0.1220
H74? H 0.8330 0.6925 0.4080
H75? H 0.8571 0.7776 0.3825
H76? H 0.6643 0.8140 0.3915
H77? H 0.6776 0.7515 0.4438
H78? H 0.5416 0.6720 0.3948
H79? H 0.5193 0.7376 0.3452
H80? H 0.6833 0.6102 0.3467
H81? H 0.6133 0.6528 0.2911
Si3? Si 0.8431(3) 0.54305(14) 0.13519(10)
loop_
_geom_bond_atom_site_label_1
_geom_bond_atom_site_label_2
_geom_bond_site_symmetry_1
_geom_bond_site_symmetry_2
Rb1 N1 1_555 1_555
C1 H1 1_555 1_555
P1 C1 1_555 1_555
C2 P1 1_555 1_555
C3 C2 1_555 1_555
H2 C3 1_555 1_555
C4 C3 1_555 1_555
H3 C4 1_555 1_555
C5 C4 1_555 1_555
H4 C5 1_555 1_555
C6 C5 1_555 1_555
H5 C6 1_555 1_555
C7 C2 1_555 1_555
H6 C7 1_555 1_555
C8 P1 1_555 1_555
C9 C8 1_555 1_555
H7 C9 1_555 1_555
C10 C9 1_555 1_555
H8 C10 1_555 1_555
C11 C10 1_555 1_555
H9 C11 1_555 1_555
C12 C11 1_555 1_555
H10 C12 1_555 1_555
C13 C8 1_555 1_555
H11 C13 1_555 1_555
N1 P1 1_555 1_555
Si1 N1 1_555 1_555
C14 Si1 1_555 1_555
H12 C14 1_555 1_555
H13 C14 1_555 1_555
H14 C14 1_555 1_555
C15 Si1 1_555 1_555
H15 C15 1_555 1_555
H16 C15 1_555 1_555
H17 C15 1_555 1_555
C16 Si1 1_555 1_555
H18 C16 1_555 1_555
H19 C16 1_555 1_555
H20 C16 1_555 1_555
P2 C1 1_555 1_555
C17 P2 1_555 1_555
C18 C17 1_555 1_555
H21 C18 1_555 1_555
C19 C18 1_555 1_555
H22 C19 1_555 1_555
C20 C19 1_555 1_555
H23 C20 1_555 1_555
C21 C20 1_555 1_555
H24 C21 1_555 1_555
C22 C17 1_555 1_555
H25 C22 1_555 1_555
C23 P2 1_555 1_555
C24 C23 1_555 1_555
H26 C24 1_555 1_555
C25 C24 1_555 1_555
H27 C25 1_555 1_555
C26 C25 1_555 1_555
H28 C26 1_555 1_555
C27 C26 1_555 1_555
H29 C27 1_555 1_555
C28 C23 1_555 1_555
H30 C28 1_555 1_555
N2 Rb1 1_555 1_555
Si2 N2 1_555 1_555
C29 Si2 1_555 1_555
H31 C29 1_555 1_555
H32 C29 1_555 1_555
H33 C29 1_555 1_555
C30 Si2 1_555 1_555
H34 C30 1_555 1_555
H35 C30 1_555 1_555
H36 C30 1_555 1_555
C31 Si2 1_555 1_555
H37 C31 1_555 1_555
H38 C31 1_555 1_555
H39 C31 1_555 1_555
O1 Rb1 1_555 1_555
C32 O1 1_555 1_555
H40 C32 1_555 1_555
H41 C32 1_555 1_555
C33 C32 1_555 1_555
H42 C33 1_555 1_555
H43 C33 1_555 1_555
C34 C33 1_555 1_555
H44 C34 1_555 1_555
H45 C34 1_555 1_555
C35 O1 1_555 1_555
H46 C35 1_555 1_555
H47 C35 1_555 1_555
O2 Rb1 1_555 1_555
C36 O2 1_555 1_555
H48 C36 1_555 1_555
H49 C36 1_555 1_555
C37 C36 1_555 1_555
H50 C37 1_555 1_555
H51 C37 1_555 1_555
C38 C37 1_555 1_555
H52 C38 1_555 1_555
H53 C38 1_555 1_555
C39 O2 1_555 1_555
H54 C39 1_555 1_555
H55 C39 1_555 1_555
C6 C7 1_555 1_555
C12 C13 1_555 1_555
P2 N2 1_555 1_555
C21 C22 1_555 1_555
C27 C28 1_555 1_555
C34 C35 1_555 1_555
C38 C39 1_555 1_555

#END
