
#######################################################################
#
#                 Cambridge Crystallographic Data Centre
#                                CCDC 
#
#######################################################################
#
# If this CIF has been generated from an entry in the Cambridge 
# Structural Database, then it will include bibliographic, chemical, 
# crystal, experimental, refinement or atomic coordinate data resulting 
# from the CCDC's data processing and validation procedures.
#
#######################################################################

data_QEHWIL
_chemical_formula_moiety         'C45 H52 N2 P2'
_chemical_name_systematic        
Methylenebis((adamantan-1-ylimino)(diphenyl)phosphorane)
_symmetry_cell_setting           triclinic
_symmetry_space_group_name_H-M   'P -1'
_symmetry_Int_Tables_number      2
_space_group_name_Hall           '-P 1'
loop_
_symmetry_equiv_pos_site_id
_symmetry_equiv_pos_as_xyz
1 x,y,z
2 -x,-y,-z
_cell_length_a                   10.5879(11)
_cell_length_b                   11.1951(12)
_cell_length_c                   16.3420(12)
_cell_angle_alpha                107.630(8)
_cell_angle_beta                 102.177(8)
_cell_angle_gamma                92.073(9)
_cell_volume                     1794.11
_exptl_crystal_colour            colorless
_exptl_crystal_description       block
_cell_formula_units_Z            2
loop_
_atom_site_label
_atom_site_type_symbol
_atom_site_fract_x
_atom_site_fract_y
_atom_site_fract_z
C1 C 0.3365(2) 0.41540(17) 0.29758(12)
H1 H 0.2688 0.4185 0.3297
H2 H 0.4138 0.3963 0.3331
P1 P 0.37140(4) 0.57630(4) 0.29394(3)
C2 C 0.25169(19) 0.59491(18) 0.20372(12)
C3 C 0.2912(2) 0.65849(19) 0.15084(13)
H3 H 0.3790 0.6834 0.1592
C4 C 0.2007(2) 0.6850(2) 0.08570(14)
H4 H 0.2276 0.7282 0.0508
C5 C 0.0707(2) 0.6471(2) 0.07280(15)
H5 H 0.0099 0.6646 0.0290
C6 C 0.0302(2) 0.5827(2) 0.12500(15)
H6 H -0.0575 0.5566 0.1157
C7 C 0.1207(2) 0.5574(2) 0.19087(14)
H7 H 0.0936 0.5153 0.2263
C8 C 0.31991(18) 0.67530(18) 0.39052(12)
C9 C 0.2774(2) 0.79074(19) 0.38802(13)
H8 H 0.2672 0.8110 0.3360
C10 C 0.2502(2) 0.8755(2) 0.46158(14)
H9 H 0.2221 0.9523 0.4588
C11 C 0.2647(2) 0.8467(2) 0.53986(13)
H10 H 0.2464 0.9038 0.5895
C12 C 0.3066(2) 0.7327(2) 0.54330(13)
H11 H 0.3165 0.7132 0.5956
C13 C 0.3341(2) 0.64673(18) 0.46971(13)
H12 H 0.3619 0.5701 0.4728
N1 N 0.50652(16) 0.61721(15) 0.28296(10)
C14 C 0.63798(18) 0.63933(18) 0.33774(12)
C15 C 0.65458(19) 0.74495(18) 0.42738(12)
H13 H 0.6272 0.8220 0.4171
H14 H 0.5999 0.7207 0.4617
C16 C 0.68453(19) 0.52009(18) 0.35786(13)
H15 H 0.6306 0.4948 0.3922
H16 H 0.6748 0.4519 0.3028
C17 C 0.72820(19) 0.67905(19) 0.28569(13)
H17 H 0.7201 0.6130 0.2298
H18 H 0.7014 0.7548 0.2731
C18 C 0.7973(2) 0.76870(19) 0.47946(13)
H19 H 0.8061 0.8357 0.5358
C19 C 0.8836(2) 0.8087(2) 0.42539(14)
H20 H 0.8575 0.8857 0.4145
H21 H 0.9735 0.8250 0.4583
C20 C 0.8708(2) 0.7039(2) 0.33727(14)
H22 H 0.9255 0.7296 0.3027
C21 C 0.9134(2) 0.5829(2) 0.35503(14)
H23 H 1.0036 0.5974 0.3872
H24 H 0.9057 0.5164 0.2995
C22 C 0.8275(2) 0.54268(19) 0.40924(14)
H25 H 0.8545 0.4652 0.4205
C23 C 0.8408(2) 0.6477(2) 0.49670(13)
H26 H 0.9306 0.6631 0.5298
H27 H 0.7878 0.6224 0.5315
P2 P 0.28619(5) 0.27852(4) 0.19475(3)
C24 C 0.37335(19) 0.15535(18) 0.22577(13)
C25 C 0.4102(2) 0.05906(19) 0.16071(14)
H28 H 0.4013 0.0645 0.1041
C26 C 0.4603(2) -0.0447(2) 0.18039(16)
H29 H 0.4859 -0.1078 0.1372
C27 C 0.4721(2) -0.0545(2) 0.26440(16)
H30 H 0.5045 -0.1246 0.2771
C28 C 0.4357(2) 0.0404(2) 0.32920(16)
H31 H 0.4438 0.0340 0.3855
C29 C 0.3872(2) 0.1448(2) 0.31030(14)
H32 H 0.3637 0.2085 0.3543
C30 C 0.3600(2) 0.31163(18) 0.11268(13)
C31 C 0.2784(2) 0.3175(2) 0.03572(14)
H33 H 0.1887 0.3072 0.0285
C32 C 0.3303(3) 0.3386(2) -0.03032(15)
H34 H 0.2755 0.3420 -0.0820
C33 C 0.4635(3) 0.3545(2) -0.01945(16)
H35 H 0.4983 0.3694 -0.0636
C34 C 0.5451(2) 0.3481(2) 0.05692(17)
H36 H 0.6347 0.3585 0.0639
C35 C 0.4936(2) 0.3264(2) 0.12317(15)
H37 H 0.5485 0.3217 0.1744
N2 N 0.13910(16) 0.24600(15) 0.15295(11)
C36 C 0.03568(19) 0.17882(18) 0.17338(12)
C37 C 0.03274(19) 0.22362(19) 0.27177(13)
H38 H 0.1133 0.2089 0.3066
H39 H 0.0254 0.3135 0.2907
C38 C -0.09362(19) 0.2017(2) 0.12025(13)
H40 H -0.0941 0.1732 0.0579
H41 H -0.1021 0.2914 0.1375
C39 C 0.0456(2) 0.03581(18) 0.14533(13)
H42 H 0.0470 0.0055 0.0833
H43 H 0.1261 0.0191 0.1790
C40 C -0.0700(2) -0.03516(19) 0.16060(14)
H44 H -0.0619 -0.1258 0.1422
C41 C -0.1971(2) -0.0098(2) 0.10697(14)
H45 H -0.1980 -0.0399 0.0446
H46 H -0.2701 -0.0547 0.1163
C42 C -0.2097(2) 0.1317(2) 0.13558(14)
H47 H -0.2909 0.1480 0.1011
C43 C -0.2093(2) 0.1782(2) 0.23409(14)
H48 H -0.2181 0.2678 0.2525
H49 H -0.2823 0.1347 0.2444
C44 C -0.0824(2) 0.1533(2) 0.28780(13)
H50 H -0.0824 0.1833 0.3507
C45 C -0.0702(2) 0.0121(2) 0.25955(14)
H51 H -0.1423 -0.0324 0.2700
H52 H 0.0098 -0.0043 0.2940
loop_
_geom_bond_atom_site_label_1
_geom_bond_atom_site_label_2
_geom_bond_site_symmetry_1
_geom_bond_site_symmetry_2
C1 H1 1_555 1_555
H2 C1 1_555 1_555
P1 C1 1_555 1_555
C2 P1 1_555 1_555
C3 C2 1_555 1_555
H3 C3 1_555 1_555
C4 C3 1_555 1_555
H4 C4 1_555 1_555
C5 C4 1_555 1_555
H5 C5 1_555 1_555
C6 C5 1_555 1_555
H6 C6 1_555 1_555
C7 C2 1_555 1_555
H7 C7 1_555 1_555
C8 P1 1_555 1_555
C9 C8 1_555 1_555
H8 C9 1_555 1_555
C10 C9 1_555 1_555
H9 C10 1_555 1_555
C11 C10 1_555 1_555
H10 C11 1_555 1_555
C12 C11 1_555 1_555
H11 C12 1_555 1_555
C13 C8 1_555 1_555
H12 C13 1_555 1_555
N1 P1 1_555 1_555
C14 N1 1_555 1_555
C15 C14 1_555 1_555
H13 C15 1_555 1_555
H14 C15 1_555 1_555
C16 C14 1_555 1_555
H15 C16 1_555 1_555
H16 C16 1_555 1_555
C17 C14 1_555 1_555
H17 C17 1_555 1_555
H18 C17 1_555 1_555
C18 C15 1_555 1_555
H19 C18 1_555 1_555
C19 C18 1_555 1_555
H20 C19 1_555 1_555
H21 C19 1_555 1_555
C20 C17 1_555 1_555
H22 C20 1_555 1_555
C21 C20 1_555 1_555
H23 C21 1_555 1_555
H24 C21 1_555 1_555
C22 C16 1_555 1_555
H25 C22 1_555 1_555
C23 C18 1_555 1_555
H26 C23 1_555 1_555
H27 C23 1_555 1_555
P2 C1 1_555 1_555
C24 P2 1_555 1_555
C25 C24 1_555 1_555
H28 C25 1_555 1_555
C26 C25 1_555 1_555
H29 C26 1_555 1_555
C27 C26 1_555 1_555
H30 C27 1_555 1_555
C28 C27 1_555 1_555
H31 C28 1_555 1_555
C29 C24 1_555 1_555
H32 C29 1_555 1_555
C30 P2 1_555 1_555
C31 C30 1_555 1_555
H33 C31 1_555 1_555
C32 C31 1_555 1_555
H34 C32 1_555 1_555
C33 C32 1_555 1_555
H35 C33 1_555 1_555
C34 C33 1_555 1_555
H36 C34 1_555 1_555
C35 C30 1_555 1_555
H37 C35 1_555 1_555
N2 P2 1_555 1_555
C36 N2 1_555 1_555
C37 C36 1_555 1_555
H38 C37 1_555 1_555
H39 C37 1_555 1_555
C38 C36 1_555 1_555
H40 C38 1_555 1_555
H41 C38 1_555 1_555
C39 C36 1_555 1_555
H42 C39 1_555 1_555
H43 C39 1_555 1_555
C40 C39 1_555 1_555
H44 C40 1_555 1_555
C41 C40 1_555 1_555
H45 C41 1_555 1_555
H46 C41 1_555 1_555
C42 C38 1_555 1_555
H47 C42 1_555 1_555
C43 C42 1_555 1_555
H48 C43 1_555 1_555
H49 C43 1_555 1_555
C44 C37 1_555 1_555
H50 C44 1_555 1_555
C45 C40 1_555 1_555
H51 C45 1_555 1_555
H52 C45 1_555 1_555
C6 C7 1_555 1_555
C12 C13 1_555 1_555
C19 C20 1_555 1_555
C21 C22 1_555 1_555
C22 C23 1_555 1_555
C28 C29 1_555 1_555
C34 C35 1_555 1_555
C41 C42 1_555 1_555
C43 C44 1_555 1_555
C44 C45 1_555 1_555

#END
