
#######################################################################
#
#                 Cambridge Crystallographic Data Centre
#                                CCDC 
#
#######################################################################
#
# If this CIF has been generated from an entry in the Cambridge 
# Structural Database, then it will include bibliographic, chemical, 
# crystal, experimental, refinement or atomic coordinate data resulting 
# from the CCDC's data processing and validation procedures.
#
#######################################################################

data_QEHWUX
_chemical_formula_moiety         'C53 H67 N2 Na1 O2 P2'
_chemical_name_systematic        
bis(tetrahydrofuran)-(bis(N-(1-adamantyl)-diphenylphosphinimino)methanide-N,N')-sodium
_symmetry_cell_setting           monoclinic
_symmetry_space_group_name_H-M   'P 21/c'
_symmetry_Int_Tables_number      14
_space_group_name_Hall           '-P 2ybc'
loop_
_symmetry_equiv_pos_site_id
_symmetry_equiv_pos_as_xyz
1 x,y,z
2 -x,1/2+y,1/2-z
3 -x,-y,-z
4 x,1/2-y,1/2+z
_cell_length_a                   29.1701(4)
_cell_length_b                   20.3182(3)
_cell_length_c                   23.9244(3)
_cell_angle_alpha                90
_cell_angle_beta                 105.7572(14)
_cell_angle_gamma                90
_cell_volume                     13646.8
_exptl_crystal_colour            colorless
_exptl_crystal_description       block
_cell_formula_units_Z            12
loop_
_atom_site_label
_atom_site_type_symbol
_atom_site_fract_x
_atom_site_fract_y
_atom_site_fract_z
P1 P 0.550454(11) 0.337543(16) 0.134523(14)
P2 P 0.547351(11) 0.184862(16) 0.126054(14)
Na1 Na 0.631022(19) 0.24016(3) 0.23079(2)
O1 O 0.65719(4) 0.19201(5) 0.32539(5)
O2 O 0.70779(4) 0.28563(6) 0.25009(5)
N1 N 0.57929(4) 0.33584(6) 0.20086(5)
N2 N 0.60169(4) 0.16334(6) 0.14987(5)
C1 C 0.53003(5) 0.26347(6) 0.10214(6)
H1 H 0.5065 0.2662 0.0671
C2 C 0.49742(5) 0.39071(7) 0.11247(6)
C3 C 0.45429(5) 0.36745(7) 0.11992(6)
H2 H 0.4529 0.3255 0.1350
C4 C 0.41353(5) 0.40605(8) 0.10507(6)
H3 H 0.3852 0.3900 0.1104
C5 C 0.41497(5) 0.46854(8) 0.08234(7)
H4 H 0.3877 0.4945 0.0724
C6 C 0.45746(5) 0.49214(8) 0.07451(7)
H5 H 0.4586 0.5340 0.0591
C7 C 0.49832(5) 0.45359(7) 0.08955(6)
H6 H 0.5266 0.4699 0.0843
C8 C 0.58978(5) 0.37689(7) 0.09546(6)
C9 C 0.58820(5) 0.35907(7) 0.03881(6)
H7 H 0.5655 0.3290 0.0191
C10 C 0.62026(5) 0.38576(8) 0.01121(6)
H8 H 0.6190 0.3731 -0.0265
C11 C 0.65402(5) 0.43101(8) 0.03982(7)
H9 H 0.6760 0.4479 0.0218
C12 C 0.65486(6) 0.45087(8) 0.09526(8)
H10 H 0.6769 0.4822 0.1142
C13 C 0.62289(5) 0.42413(8) 0.12302(7)
H11 H 0.6237 0.4379 0.1603
C14 C 0.56963(4) 0.36666(7) 0.25177(6)
C15 C 0.55833(5) 0.44099(7) 0.24519(6)
H12 H 0.5841 0.4637 0.2347
H13 H 0.5294 0.4477 0.2141
C16 C 0.61524(5) 0.35911(7) 0.30225(6)
H14 H 0.6232 0.3128 0.3079
H15 H 0.6414 0.3812 0.2922
C17 C 0.52893(5) 0.33204(7) 0.26992(6)
H16 H 0.4996 0.3366 0.2392
H17 H 0.5361 0.2855 0.2755
C18 C 0.60922(5) 0.38810(8) 0.35912(6)
H18 H 0.6387 0.3820 0.3902
C19 C 0.56807(5) 0.35276(8) 0.37544(6)
H19 H 0.5754 0.3063 0.3816
H20 H 0.5639 0.3711 0.4112
C20 C 0.52215(5) 0.36142(7) 0.32630(6)
H21 H 0.4959 0.3388 0.3366
C21 C 0.51066(5) 0.43485(7) 0.31776(6)
H22 H 0.5060 0.4534 0.3532
H23 H 0.4815 0.4408 0.2870
C22 C 0.55186(5) 0.47039(7) 0.30187(6)
H24 H 0.5444 0.5174 0.2963
C23 C 0.59804(5) 0.46158(8) 0.35067(7)
H25 H 0.6240 0.4841 0.3406
H26 H 0.5943 0.4805 0.3864
C24 C 0.52434(5) 0.16186(7) 0.18771(6)
C25 C 0.54921(5) 0.11873(8) 0.23053(6)
H27 H 0.5781 0.1012 0.2282
C26 C 0.53106(6) 0.10158(10) 0.27692(7)
H28 H 0.5482 0.0735 0.3058
C27 C 0.48767(6) 0.12632(9) 0.27985(7)
H29 H 0.4756 0.1148 0.3107
C28 C 0.46215(6) 0.16832(8) 0.23700(7)
H30 H 0.4327 0.1845 0.2387
C29 C 0.48057(5) 0.18622(7) 0.19144(7)
H31 H 0.4635 0.2149 0.1630
C30 C 0.50909(4) 0.13618(7) 0.06628(6)
C31 C 0.50433(5) 0.15476(7) 0.00862(6)
H32 H 0.5200 0.1921 0.0010
C32 C 0.47660(5) 0.11841(7) -0.03731(6)
H33 H 0.4738 0.1316 -0.0753
C33 C 0.45303(5) 0.06232(8) -0.02675(6)
H34 H 0.4342 0.0381 -0.0575
C34 C 0.45778(5) 0.04281(7) 0.03013(7)
H35 H 0.4423 0.0051 0.0375
C35 C 0.48560(5) 0.07924(7) 0.07624(6)
H36 H 0.4886 0.0655 0.1141
C36 C 0.63709(4) 0.15524(7) 0.11717(6)
C37 C 0.62294(5) 0.10326(7) 0.06844(6)
H37 H 0.6167 0.0617 0.0849
H38 H 0.5939 0.1171 0.0403
C38 C 0.64797(5) 0.21967(7) 0.08977(6)
H39 H 0.6571 0.2532 0.1196
H40 H 0.6195 0.2346 0.0612
C39 C 0.68343(5) 0.13125(7) 0.16045(6)
H41 H 0.6937 0.1634 0.1913
H42 H 0.6773 0.0902 0.1778
C40 C 0.72340(5) 0.12072(7) 0.13062(6)
H43 H 0.7522 0.1054 0.1592
C41 C 0.70795(5) 0.06951(8) 0.08193(6)
H44 H 0.7331 0.0633 0.0629
H45 H 0.7019 0.0276 0.0981
C42 C 0.66253(5) 0.09371(8) 0.03771(6)
H46 H 0.6523 0.0612 0.0066
C43 C 0.67253(5) 0.15969(8) 0.01201(6)
H47 H 0.6973 0.1540 -0.0076
H48 H 0.6440 0.1750 -0.0162
C44 C 0.68834(5) 0.21050(8) 0.06041(6)
H49 H 0.6948 0.2525 0.0439
C45 C 0.73366(5) 0.18617(8) 0.10458(7)
H50 H 0.7588 0.1802 0.0856
H51 H 0.7442 0.2185 0.1352
C46 C 0.67640(6) 0.12704(8) 0.32290(7)
H52 H 0.7044 0.1290 0.3085
H53 H 0.6529 0.0988 0.2975
C47 C 0.68916(6) 0.10136(8) 0.38457(8)
H54 H 0.7153 0.0702 0.3915
H55 H 0.6620 0.0806 0.3935
C48 C 0.70355(6) 0.16395(9) 0.41922(7)
H56 H 0.7014 0.1591 0.4587
H57 H 0.7356 0.1772 0.4199
C49 C 0.66707(7) 0.21193(8) 0.38538(7)
H58 H 0.6383 0.2102 0.3983
H59 H 0.6795 0.2565 0.3904
C50 C 0.73908(6) 0.30198(9) 0.30585(7)
H60 H 0.7567 0.2635 0.3239
H61 H 0.7212 0.3192 0.3314
C51 C 0.77228(7) 0.35343(11) 0.29398(9)
H62 H 0.7994 0.3335 0.2843
H63 H 0.7836 0.3825 0.3270
C52 C 0.74086(7) 0.38959(9) 0.24272(8)
H64 H 0.7206 0.4213 0.2548
H65 H 0.7595 0.4119 0.2205
C53 C 0.71245(8) 0.33411(11) 0.20900(9)
H66 H 0.6813 0.3496 0.1870
H67 H 0.7287 0.3158 0.1821
P3 P 0.789436(11) 0.812452(16) 0.196572(14)
P4 P 0.777915(11) 0.661875(16) 0.188872(14)
Na2 Na 0.688389(18) 0.74394(3) 0.10844(2)
O3 O 0.61369(4) 0.68859(6) 0.09202(5)
O4 O 0.65011(4) 0.80429(6) 0.02491(5)
N3 N 0.73379(4) 0.82689(6) 0.17510(5)
N4 N 0.74489(4) 0.65533(6) 0.12426(5)
C54 C 0.80861(5) 0.73296(6) 0.21393(6)
H68 H 0.8387 0.7280 0.2395
C55 C 0.82596(4) 0.85862(7) 0.25958(6)
C56 C 0.83033(5) 0.83464(7) 0.31561(6)
H69 H 0.8148 0.7959 0.3204
C57 C 0.85747(5) 0.86777(7) 0.36428(6)
H70 H 0.8599 0.8513 0.4012
C58 C 0.88092(5) 0.92563(8) 0.35752(6)
H71 H 0.8993 0.9479 0.3899
C59 C 0.87670(5) 0.94989(8) 0.30221(7)
H72 H 0.8922 0.9887 0.2976
C60 C 0.84950(5) 0.91680(7) 0.25354(6)
H73 H 0.8470 0.9336 0.2167
C61 C 0.81332(5) 0.84329(7) 0.13775(6)
C62 C 0.85541(5) 0.81801(7) 0.12931(6)
H74 H 0.8720 0.7855 0.1541
C63 C 0.87297(6) 0.84093(8) 0.08417(7)
H75 H 0.9013 0.8241 0.0792
C64 C 0.84814(6) 0.88882(8) 0.04668(7)
H76 H 0.8593 0.9033 0.0159
C65 C 0.80663(6) 0.91516(8) 0.05504(7)
H77 H 0.7902 0.9477 0.0302
C66 C 0.78957(5) 0.89296(7) 0.10068(6)
H78 H 0.7621 0.9114 0.1065
C67 C 0.70278(4) 0.85699(7) 0.20684(6)
C68 C 0.65201(5) 0.85933(8) 0.16556(6)
H79 H 0.6524 0.8843 0.1311
H80 H 0.6417 0.8149 0.1535
C69 C 0.71709(5) 0.92846(7) 0.22502(6)
H81 H 0.7488 0.9290 0.2516
H82 H 0.7179 0.9539 0.1910
C70 C 0.69987(5) 0.81777(7) 0.26087(6)
H83 H 0.6897 0.7731 0.2495
H84 H 0.7312 0.8156 0.2882
C71 C 0.68118(5) 0.92010(8) 0.30822(6)
H85 H 0.6597 0.9404 0.3278
H86 H 0.7128 0.9193 0.3350
C72 C 0.66482(5) 0.84967(7) 0.29059(6)
H87 H 0.6642 0.8243 0.3252
C73 C 0.61480(5) 0.85091(7) 0.24830(6)
H88 H 0.5925 0.8708 0.2669
H89 H 0.6043 0.8064 0.2371
C74 C 0.61630(5) 0.89091(7) 0.19442(6)
H90 H 0.5846 0.8914 0.1669
C75 C 0.63171(5) 0.96135(7) 0.21238(7)
H91 H 0.6095 0.9813 0.2310
H92 H 0.6318 0.9872 0.1783
C76 C 0.68184(5) 0.96031(7) 0.25453(7)
H93 H 0.6920 1.0054 0.2661
C77 C 0.82471(5) 0.59937(7) 0.21451(5)
C78 C 0.87046(5) 0.61060(7) 0.20839(6)
H94 H 0.8772 0.6503 0.1929
C79 C 0.90588(5) 0.56338(8) 0.22512(6)
H95 H 0.9360 0.5715 0.2205
C80 C 0.89647(5) 0.50403(8) 0.24869(6)
H96 H 0.9202 0.4724 0.2599
C81 C 0.85143(5) 0.49231(7) 0.25538(6)
H97 H 0.8451 0.4528 0.2715
C82 C 0.81563(5) 0.53937(7) 0.23809(6)
H98 H 0.7854 0.5308 0.2423
C83 C 0.73557(5) 0.64288(7) 0.23115(6)
C84 C 0.74609(5) 0.66076(7) 0.28961(6)
H99 H 0.7748 0.6817 0.3070
C85 C 0.71426(5) 0.64764(7) 0.32217(6)
H100 H 0.7218 0.6595 0.3611
C86 C 0.67126(5) 0.61686(8) 0.29661(7)
H101 H 0.6498 0.6084 0.3183
C87 C 0.66034(5) 0.59874(9) 0.23858(7)
H102 H 0.6315 0.5781 0.2213
C88 C 0.69247(5) 0.61138(8) 0.20612(6)
H103 H 0.6851 0.5987 0.1674
C89 C 0.75875(4) 0.63770(7) 0.07194(5)
C90 C 0.71542(5) 0.65151(7) 0.01958(6)
H104 H 0.6881 0.6271 0.0243
H105 H 0.7077 0.6980 0.0186
C91 C 0.77044(5) 0.56383(7) 0.07118(6)
H106 H 0.7980 0.5539 0.1032
H107 H 0.7438 0.5383 0.0765
C92 C 0.80088(5) 0.67740(7) 0.06201(6)
H108 H 0.7935 0.7240 0.0611
H109 H 0.8290 0.6697 0.0940
C93 C 0.81132(5) 0.65763(7) 0.00456(6)
H110 H 0.8385 0.6830 -0.0004
C94 C 0.82313(5) 0.58388(7) 0.00603(6)
H111 H 0.8301 0.5712 -0.0299
H112 H 0.8510 0.5748 0.0379
C95 C 0.78059(5) 0.54389(7) 0.01374(6)
H113 H 0.7881 0.4968 0.0145
C96 C 0.73689(5) 0.55835(7) -0.03700(6)
H114 H 0.7099 0.5329 -0.0327
H115 H 0.7433 0.5457 -0.0733
C97 C 0.72512(5) 0.63192(7) -0.03821(6)
H116 H 0.6969 0.6410 -0.0704
C98 C 0.76752(5) 0.67177(7) -0.04630(6)
H117 H 0.7740 0.6597 -0.0826
H118 H 0.7601 0.7184 -0.0477
C99 C 0.59965(6) 0.62809(9) 0.06036(8)
H119 H 0.6226 0.5935 0.0756
H120 H 0.5975 0.6342 0.0195
C100 C 0.55159(6) 0.61058(9) 0.06845(7)
H121 H 0.5547 0.5858 0.1039
H122 H 0.5327 0.5855 0.0358
C101 C 0.53020(5) 0.67806(9) 0.07179(7)
H123 H 0.5168 0.6965 0.0334
H124 H 0.5057 0.6764 0.0923
C102 C 0.57314(5) 0.71720(8) 0.10553(8)
H125 H 0.5699 0.7631 0.0940
H126 H 0.5764 0.7144 0.1469
C103 C 0.61967(5) 0.78073(10) -0.02867(7)
H127 H 0.5874 0.7966 -0.0342
H128 H 0.6193 0.7330 -0.0295
C104 C 0.64079(8) 0.80784(13) -0.07517(8)
H129 H 0.6624 0.7763 -0.0849
H130 H 0.6160 0.8187 -0.1100
C105 C 0.66706(13) 0.86851(13) -0.04821(11)
H131 H 0.6999 0.8671 -0.0500
H132 H 0.6520 0.9076 -0.0683
C106 C 0.66488(6) 0.86889(9) 0.01339(8)
H133 H 0.6959 0.8791 0.0393
H134 H 0.6422 0.9015 0.0188
P5 P 0.881722(11) 0.345933(16) 0.468477(13)
P6 P 0.875237(11) 0.195515(16) 0.461567(14)
Na3 Na 0.976279(18) 0.27172(3) 0.54471(2)
O5 O 1.01491(4) 0.21253(5) 0.63229(4)
O6 O 1.04839(3) 0.32770(5) 0.54943(5)
N5 N 0.91786(4) 0.35629(6) 0.53075(5)
N6 N 0.93167(4) 0.19081(6) 0.47806(5)
C107 C 0.85137(5) 0.27331(7) 0.44815(6)
H135 H 0.8193 0.2764 0.4282
C108 C 0.83346(5) 0.40683(7) 0.44406(6)
C109 C 0.78867(5) 0.39624(7) 0.45348(6)
H136 H 0.7836 0.3588 0.4734
C110 C 0.75174(5) 0.44099(8) 0.43349(6)
H137 H 0.7223 0.4333 0.4402
C111 C 0.75865(5) 0.49698(8) 0.40359(7)
H138 H 0.7338 0.5264 0.3896
C112 C 0.80311(5) 0.50860(7) 0.39483(7)
H139 H 0.8081 0.5462 0.3751
C113 C 0.84023(5) 0.46433(7) 0.41529(6)
H140 H 0.8700 0.4731 0.4097
C114 C 0.92024(5) 0.36367(7) 0.42084(6)
C115 C 0.96244(5) 0.39881(8) 0.44089(6)
H141 H 0.9708 0.4153 0.4786
C116 C 0.99226(6) 0.40963(10) 0.40517(8)
H142 H 1.0206 0.4326 0.4194
C117 C 0.97995(6) 0.38651(8) 0.34881(7)
H143 H 1.0001 0.3934 0.3252
C118 C 0.93753(6) 0.35300(7) 0.32773(7)
H144 H 0.9288 0.3381 0.2896
C119 C 0.90791(5) 0.34157(7) 0.36355(6)
H145 H 0.8795 0.3189 0.3490
C120 C 0.90803(4) 0.37536(7) 0.58515(6)
C121 C 0.86715(5) 0.33749(7) 0.60013(6)
H146 H 0.8377 0.3454 0.5703
H147 H 0.8738 0.2907 0.6011
C122 C 0.89747(5) 0.44954(7) 0.58585(6)
H148 H 0.9232 0.4740 0.5770
H149 H 0.8684 0.4593 0.5560
C123 C 0.95362(5) 0.36138(8) 0.63438(6)
H150 H 0.9604 0.3146 0.6356
H151 H 0.9803 0.3842 0.6262
C124 C 0.94866(5) 0.38352(8) 0.69382(6)
H152 H 0.9783 0.3742 0.7238
C125 C 0.90740(5) 0.34548(8) 0.70725(6)
H153 H 0.9037 0.3591 0.7446
H154 H 0.9142 0.2987 0.7090
C126 C 0.86132(5) 0.35935(7) 0.65944(6)
H155 H 0.8349 0.3351 0.6678
C127 C 0.85076(5) 0.43332(8) 0.65827(6)
H156 H 0.8468 0.4470 0.6955
H157 H 0.8214 0.4426 0.6287
C128 C 0.89204(5) 0.47171(7) 0.64518(6)
H158 H 0.8852 0.5190 0.6442
C129 C 0.93835(5) 0.45748(8) 0.69224(6)
H159 H 0.9645 0.4815 0.6839
H160 H 0.9353 0.4718 0.7297
C130 C 0.84103(4) 0.14639(7) 0.39911(6)
C131 C 0.83165(5) 0.17358(7) 0.34350(6)
H161 H 0.8416 0.2163 0.3391
C132 C 0.80780(5) 0.13803(8) 0.29455(6)
H162 H 0.8020 0.1570 0.2579
C133 C 0.79262(5) 0.07421(8) 0.30045(6)
H163 H 0.7768 0.0501 0.2678
C134 C 0.80122(5) 0.04667(7) 0.35543(7)
H164 H 0.7909 0.0041 0.3596
C135 C 0.82511(5) 0.08220(7) 0.40438(6)
H165 H 0.8306 0.0632 0.4410
C136 C 0.85552(5) 0.15815(7) 0.52142(6)
C137 C 0.81601(5) 0.18279(7) 0.53696(6)
H166 H 0.7995 0.2187 0.5171
C138 C 0.80104(6) 0.15425(8) 0.58186(7)
H167 H 0.7744 0.1707 0.5915
C139 C 0.82572(6) 0.10123(8) 0.61235(7)
H168 H 0.8159 0.0825 0.6427
C140 C 0.86511(5) 0.07623(8) 0.59737(6)
H169 H 0.8818 0.0407 0.6177
C141 C 0.87960(5) 0.10429(7) 0.55208(6)
H170 H 0.9058 0.0869 0.5420
C142 C 0.96306(4) 0.15747(6) 0.44867(6)
C143 C 0.95831(5) 0.18245(8) 0.38652(6)
H171 H 0.9634 0.2297 0.3874
H172 H 0.9263 0.1738 0.3625
C144 C 0.95692(5) 0.08243(7) 0.44717(7)
H173 H 0.9248 0.0714 0.4248
H174 H 0.9613 0.0662 0.4864
C145 C 1.01464(5) 0.17236(7) 0.48380(6)
H175 H 1.0198 0.2195 0.4845
H176 H 1.0192 0.1577 0.5235
C146 C 1.05135(5) 0.13844(7) 0.45817(6)
H177 H 1.0835 0.1486 0.4821
C147 C 1.04546(5) 0.16372(8) 0.39635(7)
H178 H 1.0684 0.1424 0.3796
H179 H 1.0511 0.2108 0.3970
C148 C 0.99459(5) 0.14853(8) 0.35968(6)
H180 H 0.9904 0.1647 0.3200
C149 C 0.98634(5) 0.07438(9) 0.35832(7)
H181 H 1.0087 0.0527 0.3409
H182 H 0.9544 0.0646 0.3349
C150 C 0.99290(5) 0.04860(7) 0.42001(7)
H183 H 0.9877 0.0009 0.4189
C151 C 1.04361(5) 0.06393(8) 0.45698(7)
H184 H 1.0479 0.0476 0.4962
H185 H 1.0666 0.0423 0.4406
C152 C 0.99794(7) 0.14756(10) 0.63824(8)
H186 H 1.0198 0.1151 0.6304
H187 H 0.9669 0.1409 0.6110
C153 C 0.99461(12) 0.14091(13) 0.69857(10)
H188 H 1.0080 0.0993 0.7150
H189 H 0.9616 0.1429 0.6996
C154 C 1.02241(7) 0.19735(11) 0.73199(8)
H190 H 1.0469 0.1816 0.7654
H191 H 1.0016 0.2273 0.7452
C155 C 1.04423(5) 0.23080(8) 0.68865(6)
H192 H 1.0444 0.2782 0.6935
H193 H 1.0767 0.2160 0.6938
C156 C 1.05939(5) 0.39470(7) 0.56685(6)
H194 H 1.0311 0.4181 0.5697
H195 H 1.0730 0.4175 0.5395
C157 C 1.09514(6) 0.38897(8) 0.62563(6)
H196 H 1.0796 0.3798 0.6558
H197 H 1.1140 0.4287 0.6355
C158 C 1.12558(5) 0.33092(8) 0.61657(7)
H198 H 1.1364 0.3051 0.6518
H199 H 1.1531 0.3459 0.6048
C159 C 1.09201(5) 0.29067(8) 0.56822(7)
H200 H 1.1060 0.2842 0.5362
H201 H 1.0860 0.2479 0.5828
loop_
_geom_bond_atom_site_label_1
_geom_bond_atom_site_label_2
_geom_bond_site_symmetry_1
_geom_bond_site_symmetry_2
P1 N1 1_555 1_555
P2 N2 1_555 1_555
Na1 O1 1_555 1_555
O1 C46 1_555 1_555
O2 Na1 1_555 1_555
N1 Na1 1_555 1_555
N2 Na1 1_555 1_555
C1 P1 1_555 1_555
H1 C1 1_555 1_555
C2 P1 1_555 1_555
C3 C2 1_555 1_555
H2 C3 1_555 1_555
C4 C3 1_555 1_555
H3 C4 1_555 1_555
C5 C4 1_555 1_555
H4 C5 1_555 1_555
C6 C5 1_555 1_555
H5 C6 1_555 1_555
C7 C2 1_555 1_555
H6 C7 1_555 1_555
C8 P1 1_555 1_555
C9 C8 1_555 1_555
H7 C9 1_555 1_555
C10 C9 1_555 1_555
H8 C10 1_555 1_555
C11 C10 1_555 1_555
H9 C11 1_555 1_555
C12 C11 1_555 1_555
H10 C12 1_555 1_555
C13 C8 1_555 1_555
H11 C13 1_555 1_555
C14 N1 1_555 1_555
C15 C14 1_555 1_555
H12 C15 1_555 1_555
H13 C15 1_555 1_555
C16 C14 1_555 1_555
H14 C16 1_555 1_555
H15 C16 1_555 1_555
C17 C14 1_555 1_555
H16 C17 1_555 1_555
H17 C17 1_555 1_555
C18 C16 1_555 1_555
H18 C18 1_555 1_555
C19 C18 1_555 1_555
H19 C19 1_555 1_555
H20 C19 1_555 1_555
C20 C17 1_555 1_555
H21 C20 1_555 1_555
C21 C20 1_555 1_555
H22 C21 1_555 1_555
H23 C21 1_555 1_555
C22 C15 1_555 1_555
H24 C22 1_555 1_555
C23 C18 1_555 1_555
H25 C23 1_555 1_555
H26 C23 1_555 1_555
C24 P2 1_555 1_555
C25 C24 1_555 1_555
H27 C25 1_555 1_555
C26 C25 1_555 1_555
H28 C26 1_555 1_555
C27 C26 1_555 1_555
H29 C27 1_555 1_555
C28 C27 1_555 1_555
H30 C28 1_555 1_555
C29 C24 1_555 1_555
H31 C29 1_555 1_555
C30 P2 1_555 1_555
C31 C30 1_555 1_555
H32 C31 1_555 1_555
C32 C31 1_555 1_555
H33 C32 1_555 1_555
C33 C32 1_555 1_555
H34 C33 1_555 1_555
C34 C33 1_555 1_555
H35 C34 1_555 1_555
C35 C30 1_555 1_555
H36 C35 1_555 1_555
C36 N2 1_555 1_555
C37 C36 1_555 1_555
H37 C37 1_555 1_555
H38 C37 1_555 1_555
C38 C36 1_555 1_555
H39 C38 1_555 1_555
H40 C38 1_555 1_555
C39 C36 1_555 1_555
H41 C39 1_555 1_555
H42 C39 1_555 1_555
C40 C39 1_555 1_555
H43 C40 1_555 1_555
C41 C40 1_555 1_555
H44 C41 1_555 1_555
H45 C41 1_555 1_555
C42 C37 1_555 1_555
H46 C42 1_555 1_555
C43 C42 1_555 1_555
H47 C43 1_555 1_555
H48 C43 1_555 1_555
C44 C38 1_555 1_555
H49 C44 1_555 1_555
C45 C40 1_555 1_555
H50 C45 1_555 1_555
H51 C45 1_555 1_555
C46 H52 1_555 1_555
H53 C46 1_555 1_555
C47 C46 1_555 1_555
H54 C47 1_555 1_555
H55 C47 1_555 1_555
C48 C47 1_555 1_555
H56 C48 1_555 1_555
H57 C48 1_555 1_555
C49 O1 1_555 1_555
H58 C49 1_555 1_555
H59 C49 1_555 1_555
C50 O2 1_555 1_555
H60 C50 1_555 1_555
H61 C50 1_555 1_555
C51 C50 1_555 1_555
H62 C51 1_555 1_555
H63 C51 1_555 1_555
C52 C51 1_555 1_555
H64 C52 1_555 1_555
H65 C52 1_555 1_555
C53 O2 1_555 1_555
H66 C53 1_555 1_555
H67 C53 1_555 1_555
P3 N3 1_555 1_555
P4 N4 1_555 1_555
Na2 O3 1_555 1_555
O3 C99 1_555 1_555
O4 Na2 1_555 1_555
N3 Na2 1_555 1_555
N4 Na2 1_555 1_555
C54 P3 1_555 1_555
H68 C54 1_555 1_555
C55 P3 1_555 1_555
C56 C55 1_555 1_555
H69 C56 1_555 1_555
C57 C56 1_555 1_555
H70 C57 1_555 1_555
C58 C57 1_555 1_555
H71 C58 1_555 1_555
C59 C58 1_555 1_555
H72 C59 1_555 1_555
C60 C55 1_555 1_555
H73 C60 1_555 1_555
C61 P3 1_555 1_555
C62 C61 1_555 1_555
H74 C62 1_555 1_555
C63 C62 1_555 1_555
H75 C63 1_555 1_555
C64 C63 1_555 1_555
H76 C64 1_555 1_555
C65 C64 1_555 1_555
H77 C65 1_555 1_555
C66 C61 1_555 1_555
H78 C66 1_555 1_555
C67 N3 1_555 1_555
C68 C67 1_555 1_555
H79 C68 1_555 1_555
H80 C68 1_555 1_555
C69 C67 1_555 1_555
H81 C69 1_555 1_555
H82 C69 1_555 1_555
C70 C67 1_555 1_555
H83 C70 1_555 1_555
H84 C70 1_555 1_555
C71 H85 1_555 1_555
H86 C71 1_555 1_555
C72 C70 1_555 1_555
H87 C72 1_555 1_555
C73 C72 1_555 1_555
H88 C73 1_555 1_555
H89 C73 1_555 1_555
C74 C68 1_555 1_555
H90 C74 1_555 1_555
C75 C74 1_555 1_555
H91 C75 1_555 1_555
H92 C75 1_555 1_555
C76 C69 1_555 1_555
H93 C76 1_555 1_555
C77 P4 1_555 1_555
C78 C77 1_555 1_555
H94 C78 1_555 1_555
C79 C78 1_555 1_555
H95 C79 1_555 1_555
C80 C79 1_555 1_555
H96 C80 1_555 1_555
C81 C80 1_555 1_555
H97 C81 1_555 1_555
C82 C77 1_555 1_555
H98 C82 1_555 1_555
C83 P4 1_555 1_555
C84 C83 1_555 1_555
H99 C84 1_555 1_555
C85 C84 1_555 1_555
H100 C85 1_555 1_555
C86 C85 1_555 1_555
H101 C86 1_555 1_555
C87 C86 1_555 1_555
H102 C87 1_555 1_555
C88 C83 1_555 1_555
H103 C88 1_555 1_555
C89 N4 1_555 1_555
C90 C89 1_555 1_555
H104 C90 1_555 1_555
H105 C90 1_555 1_555
C91 C89 1_555 1_555
H106 C91 1_555 1_555
H107 C91 1_555 1_555
C92 C89 1_555 1_555
H108 C92 1_555 1_555
H109 C92 1_555 1_555
C93 C92 1_555 1_555
H110 C93 1_555 1_555
C94 C93 1_555 1_555
H111 C94 1_555 1_555
H112 C94 1_555 1_555
C95 C91 1_555 1_555
H113 C95 1_555 1_555
C96 C95 1_555 1_555
H114 C96 1_555 1_555
H115 C96 1_555 1_555
C97 C90 1_555 1_555
H116 C97 1_555 1_555
C98 C93 1_555 1_555
H117 C98 1_555 1_555
H118 C98 1_555 1_555
C99 H119 1_555 1_555
H120 C99 1_555 1_555
C100 C99 1_555 1_555
H121 C100 1_555 1_555
H122 C100 1_555 1_555
C101 C100 1_555 1_555
H123 C101 1_555 1_555
H124 C101 1_555 1_555
C102 O3 1_555 1_555
H125 C102 1_555 1_555
H126 C102 1_555 1_555
C103 O4 1_555 1_555
H127 C103 1_555 1_555
H128 C103 1_555 1_555
C104 C103 1_555 1_555
H129 C104 1_555 1_555
H130 C104 1_555 1_555
C105 C104 1_555 1_555
H131 C105 1_555 1_555
H132 C105 1_555 1_555
C106 O4 1_555 1_555
H133 C106 1_555 1_555
H134 C106 1_555 1_555
P5 N5 1_555 1_555
P6 N6 1_555 1_555
Na3 O5 1_555 1_555
O5 C152 1_555 1_555
O6 Na3 1_555 1_555
N5 Na3 1_555 1_555
N6 Na3 1_555 1_555
C107 P5 1_555 1_555
H135 C107 1_555 1_555
C108 P5 1_555 1_555
C109 C108 1_555 1_555
H136 C109 1_555 1_555
C110 C109 1_555 1_555
H137 C110 1_555 1_555
C111 C110 1_555 1_555
H138 C111 1_555 1_555
C112 C111 1_555 1_555
H139 C112 1_555 1_555
C113 C108 1_555 1_555
H140 C113 1_555 1_555
C114 P5 1_555 1_555
C115 C114 1_555 1_555
H141 C115 1_555 1_555
C116 C115 1_555 1_555
H142 C116 1_555 1_555
C117 C116 1_555 1_555
H143 C117 1_555 1_555
C118 C117 1_555 1_555
H144 C118 1_555 1_555
C119 C114 1_555 1_555
H145 C119 1_555 1_555
C120 N5 1_555 1_555
C121 C120 1_555 1_555
H146 C121 1_555 1_555
H147 C121 1_555 1_555
C122 C120 1_555 1_555
H148 C122 1_555 1_555
H149 C122 1_555 1_555
C123 C120 1_555 1_555
H150 C123 1_555 1_555
H151 C123 1_555 1_555
C124 C123 1_555 1_555
H152 C124 1_555 1_555
C125 C124 1_555 1_555
H153 C125 1_555 1_555
H154 C125 1_555 1_555
C126 C121 1_555 1_555
H155 C126 1_555 1_555
C127 C126 1_555 1_555
H156 C127 1_555 1_555
H157 C127 1_555 1_555
C128 C122 1_555 1_555
H158 C128 1_555 1_555
C129 C124 1_555 1_555
H159 C129 1_555 1_555
H160 C129 1_555 1_555
C130 P6 1_555 1_555
C131 C130 1_555 1_555
H161 C131 1_555 1_555
C132 C131 1_555 1_555
H162 C132 1_555 1_555
C133 C132 1_555 1_555
H163 C133 1_555 1_555
C134 C133 1_555 1_555
H164 C134 1_555 1_555
C135 C130 1_555 1_555
H165 C135 1_555 1_555
C136 P6 1_555 1_555
C137 C136 1_555 1_555
H166 C137 1_555 1_555
C138 C137 1_555 1_555
H167 C138 1_555 1_555
C139 C138 1_555 1_555
H168 C139 1_555 1_555
C140 C139 1_555 1_555
H169 C140 1_555 1_555
C141 C136 1_555 1_555
H170 C141 1_555 1_555
C142 N6 1_555 1_555
C143 C142 1_555 1_555
H171 C143 1_555 1_555
H172 C143 1_555 1_555
C144 C142 1_555 1_555
H173 C144 1_555 1_555
H174 C144 1_555 1_555
C145 C142 1_555 1_555
H175 C145 1_555 1_555
H176 C145 1_555 1_555
C146 C145 1_555 1_555
H177 C146 1_555 1_555
C147 C146 1_555 1_555
H178 C147 1_555 1_555
H179 C147 1_555 1_555
C148 C143 1_555 1_555
H180 C148 1_555 1_555
C149 C148 1_555 1_555
H181 C149 1_555 1_555
H182 C149 1_555 1_555
C150 C144 1_555 1_555
H183 C150 1_555 1_555
C151 C146 1_555 1_555
H184 C151 1_555 1_555
H185 C151 1_555 1_555
C152 H186 1_555 1_555
H187 C152 1_555 1_555
C153 C152 1_555 1_555
H188 C153 1_555 1_555
H189 C153 1_555 1_555
C154 C153 1_555 1_555
H190 C154 1_555 1_555
H191 C154 1_555 1_555
C155 O5 1_555 1_555
H192 C155 1_555 1_555
H193 C155 1_555 1_555
C156 O6 1_555 1_555
H194 C156 1_555 1_555
H195 C156 1_555 1_555
C157 C156 1_555 1_555
H196 C157 1_555 1_555
H197 C157 1_555 1_555
C158 C157 1_555 1_555
H198 C158 1_555 1_555
H199 C158 1_555 1_555
C159 O6 1_555 1_555
H200 C159 1_555 1_555
H201 C159 1_555 1_555
P2 C1 1_555 1_555
C6 C7 1_555 1_555
C12 C13 1_555 1_555
C19 C20 1_555 1_555
C21 C22 1_555 1_555
C22 C23 1_555 1_555
C28 C29 1_555 1_555
C34 C35 1_555 1_555
C41 C42 1_555 1_555
C43 C44 1_555 1_555
C44 C45 1_555 1_555
C48 C49 1_555 1_555
C52 C53 1_555 1_555
P4 C54 1_555 1_555
C59 C60 1_555 1_555
C65 C66 1_555 1_555
C71 C72 1_555 1_555
C71 C76 1_555 1_555
C73 C74 1_555 1_555
C75 C76 1_555 1_555
C81 C82 1_555 1_555
C87 C88 1_555 1_555
C94 C95 1_555 1_555
C96 C97 1_555 1_555
C97 C98 1_555 1_555
C101 C102 1_555 1_555
C105 C106 1_555 1_555
P6 C107 1_555 1_555
C112 C113 1_555 1_555
C118 C119 1_555 1_555
C125 C126 1_555 1_555
C127 C128 1_555 1_555
C128 C129 1_555 1_555
C134 C135 1_555 1_555
C140 C141 1_555 1_555
C147 C148 1_555 1_555
C149 C150 1_555 1_555
C150 C151 1_555 1_555
C154 C155 1_555 1_555
C158 C159 1_555 1_555

#END
