
#######################################################################
#
#                 Cambridge Crystallographic Data Centre
#                                CCDC 
#
#######################################################################
#
# If this CIF has been generated from an entry in the Cambridge 
# Structural Database, then it will include bibliographic, chemical, 
# crystal, experimental, refinement or atomic coordinate data resulting 
# from the CCDC's data processing and validation procedures.
#
#######################################################################

data_QEHXEI
_chemical_formula_moiety         'C53 H67 N2 O2 P2 Rb1,0.5(C7 H8)'
_chemical_name_systematic        
"bis(tetrahydrofuran)-(bis(N-(1-adamantyl)-diphenylphosphinimino)methanide-N,N')-rubidium toluene solvate"
_symmetry_cell_setting           triclinic
_symmetry_space_group_name_H-M   'P -1'
_symmetry_Int_Tables_number      2
_space_group_name_Hall           '-P 1'
loop_
_symmetry_equiv_pos_site_id
_symmetry_equiv_pos_as_xyz
1 x,y,z
2 -x,-y,-z
_cell_length_a                   11.2873(9)
_cell_length_b                   14.3668(10)
_cell_length_c                   16.6811(12)
_cell_angle_alpha                80.260(6)
_cell_angle_beta                 73.219(7)
_cell_angle_gamma                71.248(7)
_cell_volume                     2443.67
_exptl_crystal_colour            yellow
_exptl_crystal_description       block
_cell_formula_units_Z            2
loop_
_atom_site_label
_atom_site_type_symbol
_atom_site_fract_x
_atom_site_fract_y
_atom_site_fract_z
Rb1 Rb 0.479018(14) 0.739420(11) 0.726008(10)
C1 C 0.69823(16) 0.87254(12) 0.80550(10)
H1 H 0.706(2) 0.9135(18) 0.8395(15)
P1 P 0.61524(4) 0.93361(3) 0.73070(2)
C2 C 0.65832(15) 1.05087(11) 0.70587(10)
C3 C 0.76649(16) 1.06426(12) 0.72156(11)
H2 H 0.8203 1.0128 0.7479
C4 C 0.79452(18) 1.15434(13) 0.69795(12)
H3 H 0.8673 1.1624 0.7082
C5 C 0.71435(19) 1.23184(13) 0.65934(12)
H4 H 0.7332 1.2918 0.6438
C6 C 0.60611(18) 1.21984(13) 0.64397(11)
H5 H 0.5516 1.2719 0.6185
C7 C 0.57919(16) 1.12952(12) 0.66674(11)
H6 H 0.5070 1.1216 0.6556
C8 C 0.69619(15) 0.87785(11) 0.63041(10)
C9 C 0.62778(17) 0.88844(14) 0.57010(11)
H7 H 0.5395 0.9203 0.5823
C10 C 0.6908(2) 0.85168(15) 0.49178(12)
H8 H 0.6443 0.8585 0.4523
C11 C 0.8226(2) 0.80495(14) 0.47278(12)
H9 H 0.8647 0.7807 0.4205
C12 C 0.89126(18) 0.79460(13) 0.53198(12)
H10 H 0.9797 0.7633 0.5193
C13 C 0.82845(16) 0.83082(12) 0.61050(11)
H11 H 0.8754 0.8235 0.6499
N1 N 0.46882(13) 0.94614(10) 0.73543(8)
C14 C 0.35230(15) 0.99756(11) 0.79528(10)
C15 C 0.37310(15) 1.05961(12) 0.85430(10)
H12 H 0.4302 1.0170 0.8878
H13 H 0.4140 1.1084 0.8210
C16 C 0.25743(16) 1.06684(12) 0.74510(10)
H14 H 0.2961 1.1161 0.7104
H15 H 0.2421 1.0289 0.7082
C17 C 0.28425(15) 0.92269(12) 0.85083(11)
H16 H 0.2682 0.8838 0.8151
H17 H 0.3409 0.8781 0.8837
C18 C 0.15570(16) 0.97376(13) 0.91027(11)
H18 H 0.1161 0.9240 0.9448
C19 C 0.18091(16) 1.03494(13) 0.96715(11)
H19 H 0.1001 1.0675 1.0049
H20 H 0.2376 0.9921 1.0008
C20 C 0.24368(16) 1.11205(12) 0.91288(11)
H21 H 0.2593 1.1515 0.9492
C21 C 0.15315(18) 1.17962(13) 0.86023(12)
H22 H 0.1921 1.2291 0.8262
H23 H 0.0720 1.2133 0.8971
C22 C 0.12791(16) 1.11863(13) 0.80328(11)
H24 H 0.0704 1.1621 0.7695
C23 C 0.06486(16) 1.04179(14) 0.85774(11)
H25 H 0.0478 1.0032 0.8222
H26 H -0.0168 1.0746 0.8946
P2 P 0.70676(4) 0.75348(3) 0.84971(2)
C24 C 0.83832(15) 0.72194(12) 0.90269(10)
C25 C 0.94146(16) 0.76237(13) 0.87064(11)
H27 H 0.9393 0.8104 0.8256
C26 C 1.04755(17) 0.73145(14) 0.90542(13)
H28 H 1.1161 0.7584 0.8833
C27 C 1.05100(18) 0.66045(14) 0.97291(13)
H29 H 1.1223 0.6392 0.9957
C28 C 0.94807(18) 0.62118(13) 1.00642(12)
H30 H 0.9497 0.5745 1.0524
C29 C 0.84219(17) 0.65146(12) 0.97152(11)
H31 H 0.7736 0.6246 0.9942
C30 C 0.56633(15) 0.75341(12) 0.94014(10)
C31 C 0.52184(16) 0.82472(13) 0.99792(11)
H32 H 0.5648 0.8720 0.9914
C32 C 0.41460(17) 0.82601(15) 1.06489(11)
H33 H 0.3877 0.8727 1.1037
C33 C 0.34726(18) 0.75722(16) 1.07393(12)
H34 H 0.2742 0.7588 1.1180
C34 C 0.38957(18) 0.68652(15) 1.01696(13)
H35 H 0.3446 0.6407 1.0227
C35 C 0.49956(17) 0.68375(13) 0.95096(11)
H36 H 0.5286 0.6350 0.9138
N2 N 0.71067(13) 0.67708(10) 0.79082(9)
C36 C 0.81048(15) 0.58950(11) 0.75770(10)
C37 C 0.77117(17) 0.56373(12) 0.68454(11)
H37 H 0.6861 0.5539 0.7051
H38 H 0.7664 0.6185 0.6415
C38 C 0.81988(16) 0.49954(12) 0.82372(10)
H39 H 0.8461 0.5132 0.8699
H40 H 0.7354 0.4888 0.8459
C39 C 0.94713(16) 0.60212(12) 0.72288(10)
H41 H 0.9752 0.6164 0.7680
H42 H 0.9445 0.6577 0.6807
C40 C 1.04509(16) 0.50870(12) 0.68361(11)
H43 H 1.1306 0.5193 0.6619
C41 C 1.05169(17) 0.42129(12) 0.75074(11)
H44 H 1.0810 0.4342 0.7958
H45 H 1.1129 0.3622 0.7263
C42 C 0.91748(17) 0.40565(12) 0.78565(11)
H46 H 0.9214 0.3502 0.8290
C43 C 0.87389(18) 0.38319(13) 0.71401(13)
H47 H 0.7892 0.3728 0.7355
H48 H 0.9340 0.3234 0.6902
C44 C 0.86842(18) 0.46988(13) 0.64573(11)
H49 H 0.8405 0.4554 0.5999
C45 C 1.00212(18) 0.48628(13) 0.61142(11)
H50 H 0.9986 0.5410 0.5684
H51 H 1.0638 0.4277 0.5864
O1 O 0.28416(14) 0.81397(12) 0.62879(10)
C46 C 0.31064(18) 0.88408(14) 0.55881(12)
H52 H 0.3801 0.8519 0.5136
H53 H 0.3351 0.9353 0.5755
C47 C 0.18588(18) 0.92708(14) 0.53133(12)
H54 H 0.1803 0.9920 0.5019
H55 H 0.1764 0.8843 0.4959
C48 C 0.08737(19) 0.93205(17) 0.61501(13)
H56 H 0.0772 0.9897 0.6423
H57 H 0.0041 0.9332 0.6088
C49 C 0.1459(2) 0.8386(2) 0.66306(16)
H58 H 0.1241 0.8482 0.7223
H59 H 0.1136 0.7859 0.6568
O2 O 0.37280(14) 0.57919(10) 0.80430(10)
C50 C 0.4160(2) 0.49129(16) 0.85630(14)
H60 H 0.3583 0.4943 0.9122
H61 H 0.5022 0.4841 0.8609
C51 C 0.4161(3) 0.40448(16) 0.81456(14)
H62 H 0.5010 0.3567 0.8035
H63 H 0.3537 0.3719 0.8498
C52 C 0.3793(2) 0.45061(15) 0.73324(14)
H64 H 0.3258 0.4179 0.7193
H65 H 0.4553 0.4487 0.6870
C53 C 0.3046(2) 0.55561(16) 0.75408(16)
H66 H 0.3036 0.5999 0.7033
H67 H 0.2162 0.5599 0.7852
loop_
_geom_bond_atom_site_label_1
_geom_bond_atom_site_label_2
_geom_bond_site_symmetry_1
_geom_bond_site_symmetry_2
Rb1 N1 1_555 1_555
C1 H1 1_555 1_555
P1 C1 1_555 1_555
C2 P1 1_555 1_555
C3 C2 1_555 1_555
H2 C3 1_555 1_555
C4 C3 1_555 1_555
H3 C4 1_555 1_555
C5 C4 1_555 1_555
H4 C5 1_555 1_555
C6 C5 1_555 1_555
H5 C6 1_555 1_555
C7 C2 1_555 1_555
H6 C7 1_555 1_555
C8 P1 1_555 1_555
C9 C8 1_555 1_555
H7 C9 1_555 1_555
C10 C9 1_555 1_555
H8 C10 1_555 1_555
C11 C10 1_555 1_555
H9 C11 1_555 1_555
C12 C11 1_555 1_555
H10 C12 1_555 1_555
C13 C8 1_555 1_555
H11 C13 1_555 1_555
N1 P1 1_555 1_555
C14 N1 1_555 1_555
C15 C14 1_555 1_555
H12 C15 1_555 1_555
H13 C15 1_555 1_555
C16 C14 1_555 1_555
H14 C16 1_555 1_555
H15 C16 1_555 1_555
C17 C14 1_555 1_555
H16 C17 1_555 1_555
H17 C17 1_555 1_555
C18 C17 1_555 1_555
H18 C18 1_555 1_555
C19 C18 1_555 1_555
H19 C19 1_555 1_555
H20 C19 1_555 1_555
C20 C15 1_555 1_555
H21 C20 1_555 1_555
C21 C20 1_555 1_555
H22 C21 1_555 1_555
H23 C21 1_555 1_555
C22 C16 1_555 1_555
H24 C22 1_555 1_555
C23 C18 1_555 1_555
H25 C23 1_555 1_555
H26 C23 1_555 1_555
P2 C1 1_555 1_555
C24 P2 1_555 1_555
C25 C24 1_555 1_555
H27 C25 1_555 1_555
C26 C25 1_555 1_555
H28 C26 1_555 1_555
C27 C26 1_555 1_555
H29 C27 1_555 1_555
C28 C27 1_555 1_555
H30 C28 1_555 1_555
C29 C24 1_555 1_555
H31 C29 1_555 1_555
C30 P2 1_555 1_555
C31 C30 1_555 1_555
H32 C31 1_555 1_555
C32 C31 1_555 1_555
H33 C32 1_555 1_555
C33 C32 1_555 1_555
H34 C33 1_555 1_555
C34 C33 1_555 1_555
H35 C34 1_555 1_555
C35 C30 1_555 1_555
H36 C35 1_555 1_555
N2 Rb1 1_555 1_555
C36 N2 1_555 1_555
C37 C36 1_555 1_555
H37 C37 1_555 1_555
H38 C37 1_555 1_555
C38 C36 1_555 1_555
H39 C38 1_555 1_555
H40 C38 1_555 1_555
C39 C36 1_555 1_555
H41 C39 1_555 1_555
H42 C39 1_555 1_555
C40 C39 1_555 1_555
H43 C40 1_555 1_555
C41 C40 1_555 1_555
H44 C41 1_555 1_555
H45 C41 1_555 1_555
C42 C38 1_555 1_555
H46 C42 1_555 1_555
C43 C42 1_555 1_555
H47 C43 1_555 1_555
H48 C43 1_555 1_555
C44 C37 1_555 1_555
H49 C44 1_555 1_555
C45 C40 1_555 1_555
H50 C45 1_555 1_555
H51 C45 1_555 1_555
O1 Rb1 1_555 1_555
C46 O1 1_555 1_555
H52 C46 1_555 1_555
H53 C46 1_555 1_555
C47 C46 1_555 1_555
H54 C47 1_555 1_555
H55 C47 1_555 1_555
C48 C47 1_555 1_555
H56 C48 1_555 1_555
H57 C48 1_555 1_555
C49 O1 1_555 1_555
H58 C49 1_555 1_555
H59 C49 1_555 1_555
O2 Rb1 1_555 1_555
C50 O2 1_555 1_555
H60 C50 1_555 1_555
H61 C50 1_555 1_555
C51 C50 1_555 1_555
H62 C51 1_555 1_555
H63 C51 1_555 1_555
C52 C51 1_555 1_555
H64 C52 1_555 1_555
H65 C52 1_555 1_555
C53 O2 1_555 1_555
H66 C53 1_555 1_555
H67 C53 1_555 1_555
C6 C7 1_555 1_555
C12 C13 1_555 1_555
C19 C20 1_555 1_555
C21 C22 1_555 1_555
C22 C23 1_555 1_555
P2 N2 1_555 1_555
C28 C29 1_555 1_555
C34 C35 1_555 1_555
C41 C42 1_555 1_555
C43 C44 1_555 1_555
C44 C45 1_555 1_555
C48 C49 1_555 1_555
C52 C53 1_555 1_555

#END
