
#######################################################################
#
#                 Cambridge Crystallographic Data Centre
#                                CCDC 
#
#######################################################################
#
# If this CIF has been generated from an entry in the Cambridge 
# Structural Database, then it will include bibliographic, chemical, 
# crystal, experimental, refinement or atomic coordinate data resulting 
# from the CCDC's data processing and validation procedures.
#
#######################################################################

data_QEHXEH
_chemical_compound_source        'Aspergillus niger IFB-E003'
_chemical_name_common            Aspernigerin
_chemical_formula_moiety         'C26 H32 N4 O2'
_chemical_name_systematic        
1,4-bis(2-(3,4-Dihydro-2H-quinolin-1-yl)-2-oxoethyl)piperazine
_chemical_properties_biological  
'cytotoxic activity against the tumour cell lines nasopharynyeal epidermoid KB, cervical carcinoma Hela and colorectal carcinoma SW1116'
_symmetry_cell_setting           monoclinic
_symmetry_space_group_name_H-M   'P 21/c'
_symmetry_Int_Tables_number      14
_space_group_name_Hall           '-P 2ybc'
loop_
_symmetry_equiv_pos_site_id
_symmetry_equiv_pos_as_xyz
1 x,y,z
2 -x,1/2+y,1/2-z
3 -x,-y,-z
4 x,1/2-y,1/2+z
_cell_length_a                   8.1567(16)
_cell_length_b                   17.152(3)
_cell_length_c                   8.6908(17)
_cell_angle_alpha                90
_cell_angle_beta                 110.36(3)
_cell_angle_gamma                90
_cell_volume                     1139.91
_exptl_crystal_colour            colorless
_chemical_melting_point          '186-188 deg.C'
_cell_formula_units_Z            2
_exptl_crystal_recrystallization_method methanol
loop_
_atom_site_label
_atom_site_type_symbol
_atom_site_fract_x
_atom_site_fract_y
_atom_site_fract_z
N1 N 0.32723(15) 0.34055(7) 0.39354(15)
N2 N 0.10688(16) 0.43275(7) 0.53029(14)
O1 O 0.52680(17) 0.35514(10) 0.64567(17)
C1 C 0.4668(2) 0.33514(11) 0.3220(2)
H1 H 0.4955 0.2807 0.3150
H2 H 0.5707 0.3610 0.3945
C2 C 0.4161(2) 0.37107(13) 0.1546(3)
H3 H 0.3855 0.3301 0.0726
H4 H 0.5156 0.3991 0.1453
C3 C 0.2630(2) 0.42662(11) 0.1207(2)
H5 H 0.2944 0.4699 0.1972
H6 H 0.2304 0.4472 0.0101
C4 C -0.0551(2) 0.37967(11) 0.02640(19)
H7 H -0.0837 0.4104 -0.0675
C5 C -0.1806(2) 0.33264(12) 0.0504(2)
H8 H -0.2939 0.3327 -0.0255
C6 C -0.1390(2) 0.28557(11) 0.1862(2)
H9 H -0.2236 0.2531 0.2011
C7 C 0.0281(2) 0.28632(9) 0.3008(2)
H10 H 0.0572 0.2535 0.3915
C8 C 0.15188(18) 0.33609(8) 0.28022(18)
C9 C 0.11349(19) 0.38199(9) 0.14015(18)
C10 C 0.3734(2) 0.35609(10) 0.5555(2)
C11 C 0.2323(2) 0.37564(11) 0.6259(2)
H11 H 0.1704 0.3282 0.6327
H12 H 0.2873 0.3954 0.7366
C12 C 0.1812(2) 0.51018(10) 0.5428(2)
H13 H 0.2861 0.5084 0.5143
H14 H 0.2134 0.5287 0.6549
C13 C -0.0507(2) 0.43483(9) 0.5710(2)
H15 H -0.0228 0.4520 0.6836
H16 H -0.1007 0.3830 0.5610
N1B N -0.32723(15) 0.65945(7) 0.60646(15)
N2B N -0.10688(16) 0.56725(7) 0.46971(14)
O1B O -0.52680(17) 0.64486(10) 0.35433(17)
C1B C -0.4668(2) 0.66486(11) 0.6780(2)
H1B H -0.4955 0.7193 0.6850
H2B H -0.5707 0.6390 0.6055
C2B C -0.4161(2) 0.62893(13) 0.8454(3)
H3B H -0.3855 0.6699 0.9274
H4B H -0.5156 0.6009 0.8547
C3B C -0.2630(2) 0.57338(11) 0.8793(2)
H5B H -0.2944 0.5301 0.8028
H6B H -0.2304 0.5528 0.9899
C4B C 0.0551(2) 0.62033(11) 0.97360(19)
H7B H 0.0837 0.5896 1.0675
C5B C 0.1806(2) 0.66736(12) 0.9496(2)
H8B H 0.2939 0.6673 1.0255
C6B C 0.1390(2) 0.71443(11) 0.8138(2)
H9B H 0.2236 0.7469 0.7989
C7B C -0.0281(2) 0.71368(9) 0.6992(2)
H10B H -0.0572 0.7465 0.6085
C8B C -0.15188(18) 0.66391(8) 0.71978(18)
C9B C -0.11349(19) 0.61801(9) 0.85985(18)
C10B C -0.3734(2) 0.64391(10) 0.4445(2)
C11B C -0.2323(2) 0.62436(11) 0.3741(2)
H11B H -0.1704 0.6718 0.3673
H12B H -0.2873 0.6046 0.2634
C12B C -0.1812(2) 0.48982(10) 0.4572(2)
H13B H -0.2861 0.4916 0.4857
H14B H -0.2134 0.4713 0.3451
C13B C 0.0507(2) 0.56517(9) 0.4290(2)
H15B H 0.0228 0.5480 0.3164
H16B H 0.1007 0.6170 0.4390
loop_
_geom_bond_atom_site_label_1
_geom_bond_atom_site_label_2
_geom_bond_site_symmetry_1
_geom_bond_site_symmetry_2
N1 C1 1_555 1_555
N2 C11 1_555 1_555
O1 C10 1_555 1_555
C1 H1 1_555 1_555
H2 C1 1_555 1_555
C2 C1 1_555 1_555
H3 C2 1_555 1_555
H4 C2 1_555 1_555
C3 C2 1_555 1_555
H5 C3 1_555 1_555
H6 C3 1_555 1_555
C4 H7 1_555 1_555
C5 C4 1_555 1_555
H8 C5 1_555 1_555
C6 C5 1_555 1_555
H9 C6 1_555 1_555
C7 C6 1_555 1_555
H10 C7 1_555 1_555
C8 N1 1_555 1_555
C9 C3 1_555 1_555
C10 N1 1_555 1_555
C11 C10 1_555 1_555
H11 C11 1_555 1_555
H12 C11 1_555 1_555
C12 N2 1_555 1_555
H13 C12 1_555 1_555
H14 C12 1_555 1_555
C13 N2 1_555 1_555
H15 C13 1_555 1_555
H16 C13 1_555 1_555
N1B C1B 1_555 1_555
N2B C11B 1_555 1_555
O1B C10B 1_555 1_555
C1B H1B 1_555 1_555
H2B C1B 1_555 1_555
C2B C1B 1_555 1_555
H3B C2B 1_555 1_555
H4B C2B 1_555 1_555
C3B C2B 1_555 1_555
H5B C3B 1_555 1_555
H6B C3B 1_555 1_555
C4B H7B 1_555 1_555
C5B C4B 1_555 1_555
H8B C5B 1_555 1_555
C6B C5B 1_555 1_555
H9B C6B 1_555 1_555
C7B C6B 1_555 1_555
H10B C7B 1_555 1_555
C8B N1B 1_555 1_555
C9B C3B 1_555 1_555
C10B N1B 1_555 1_555
C11B C10B 1_555 1_555
H11B C11B 1_555 1_555
H12B C11B 1_555 1_555
C12B C13 1_555 1_555
H13B C12B 1_555 1_555
H14B C12B 1_555 1_555
C13B C12 1_555 1_555
H15B C13B 1_555 1_555
H16B C13B 1_555 1_555
C4 C9 1_555 1_555
C7 C8 1_555 1_555
C8 C9 1_555 1_555
N2B C12B 1_555 1_555
N2B C13B 1_555 1_555
C4B C9B 1_555 1_555
C7B C8B 1_555 1_555
C8B C9B 1_555 1_555

#END
