
#######################################################################
#
#                 Cambridge Crystallographic Data Centre
#                                CCDC 
#
#######################################################################
#
# If this CIF has been generated from an entry in the Cambridge 
# Structural Database, then it will include bibliographic, chemical, 
# crystal, experimental, refinement or atomic coordinate data resulting 
# from the CCDC's data processing and validation procedures.
#
#######################################################################

data_QEHXAE
_chemical_formula_moiety         'C53 H67 K1 N2 O2 P2'
_chemical_name_systematic        
bis(tetrahydrofuran)-(bis(N-(1-adamantyl)-diphenylphosphinimino)methanide-N,N')-potassium
_symmetry_cell_setting           monoclinic
_symmetry_space_group_name_H-M   'P 21'
_symmetry_Int_Tables_number      4
_space_group_name_Hall           'P 2yb'
loop_
_symmetry_equiv_pos_site_id
_symmetry_equiv_pos_as_xyz
1 x,y,z
2 -x,1/2+y,-z
_cell_length_a                   10.2558(11)
_cell_length_b                   20.195(2)
_cell_length_c                   10.8602(11)
_cell_angle_alpha                90
_cell_angle_beta                 94.588(2)
_cell_angle_gamma                90
_cell_volume                     2242.11
_exptl_crystal_colour            yellow
_exptl_crystal_description       block
_cell_formula_units_Z            2
loop_
_atom_site_label
_atom_site_type_symbol
_atom_site_fract_x
_atom_site_fract_y
_atom_site_fract_z
K1 K 0.01895(3) 0.725363(15) 0.39901(3)
P1 P 0.34686(3) 0.687402(18) 0.45450(3)
P2 P 0.26085(3) 0.641041(17) 0.18858(3)
O1 O -0.08577(11) 0.81463(7) 0.54540(12)
O2 O -0.19033(11) 0.79583(6) 0.26334(11)
N1 N 0.27826(12) 0.75611(6) 0.47759(12)
N2 N 0.11590(12) 0.63471(6) 0.22677(11)
C1 C 0.37310(14) 0.65437(7) 0.31298(14)
H1 H 0.460(2) 0.6553(11) 0.289(2)
C2 C 0.24416(14) 0.63188(7) 0.53924(13)
C3 C 0.22855(15) 0.56534(8) 0.50656(15)
H2 H 0.2714 0.5482 0.4390
C4 C 0.15079(18) 0.52392(9) 0.57204(16)
H3 H 0.1403 0.4788 0.5484
C5 C 0.08842(16) 0.54795(9) 0.67169(16)
H4 H 0.0357 0.5195 0.7165
C6 C 0.10381(16) 0.61382(9) 0.70513(16)
H5 H 0.0615 0.6305 0.7734
C7 C 0.18052(15) 0.65562(8) 0.63968(15)
H6 H 0.1899 0.7008 0.6633
C8 C 0.50782(14) 0.67804(7) 0.54264(14)
C9 C 0.61877(15) 0.64943(8) 0.49784(15)
H7 H 0.6142 0.6324 0.4160
C10 C 0.73627(15) 0.64552(8) 0.57203(16)
H8 H 0.8115 0.6271 0.5394
C11 C 0.74398(16) 0.66810(8) 0.69191(16)
H9 H 0.8236 0.6646 0.7425
C12 C 0.63413(17) 0.69608(9) 0.73839(16)
H10 H 0.6383 0.7112 0.8214
C13 C 0.51794(16) 0.70196(9) 0.66347(15)
H11 H 0.4444 0.7226 0.6952
C14 C 0.31648(14) 0.82187(7) 0.43700(14)
C15 C 0.43782(14) 0.82494(7) 0.36149(15)
H12 H 0.5145 0.8068 0.4115
H13 H 0.4225 0.7973 0.2865
C16 C 0.34268(15) 0.86715(8) 0.55066(14)
H14 H 0.2659 0.8662 0.6004
H15 H 0.4190 0.8501 0.6028
C17 C 0.20008(14) 0.85160(7) 0.35671(14)
H16 H 0.1814 0.8237 0.2824
H17 H 0.1215 0.8513 0.4040
C18 C 0.22787(14) 0.92279(8) 0.31656(15)
H18 H 0.1508 0.9402 0.2642
C19 C 0.34918(15) 0.92368(8) 0.24230(15)
H19 H 0.3674 0.9695 0.2163
H20 H 0.3335 0.8961 0.1673
C20 C 0.46684(15) 0.89646(8) 0.32378(15)
H21 H 0.5463 0.8970 0.2760
C21 C 0.49045(15) 0.94062(8) 0.43807(16)
H22 H 0.5076 0.9866 0.4124
H23 H 0.5679 0.9247 0.4899
C22 C 0.36948(15) 0.93895(8) 0.51271(15)
H24 H 0.3854 0.9670 0.5883
C23 C 0.25196(15) 0.96595(8) 0.43232(16)
H25 H 0.2692 1.0122 0.4081
H26 H 0.1734 0.9657 0.4797
C24 C 0.27666(14) 0.70840(7) 0.07555(14)
C25 C 0.39524(14) 0.72209(8) 0.02491(15)
H27 H 0.4692 0.6947 0.0455
C26 C 0.40591(16) 0.77516(8) -0.05498(15)
H28 H 0.4872 0.7840 -0.0880
C27 C 0.29880(17) 0.81543(8) -0.08708(15)
H29 H 0.3061 0.8513 -0.1426
C28 C 0.18159(16) 0.80276(8) -0.03748(16)
H30 H 0.1079 0.8302 -0.0586
C29 C 0.17088(15) 0.74974(8) 0.04370(14)
H31 H 0.0898 0.7418 0.0778
C30 C 0.32913(14) 0.57064(7) 0.10597(14)
C31 C 0.32364(15) 0.56610(8) -0.02306(14)
H32 H 0.2857 0.6011 -0.0722
C32 C 0.37318(15) 0.51077(8) -0.08004(15)
H33 H 0.3701 0.5086 -0.1676
C33 C 0.42686(15) 0.45892(8) -0.01001(16)
H34 H 0.4595 0.4210 -0.0491
C34 C 0.43266(15) 0.46275(8) 0.11850(16)
H35 H 0.4693 0.4272 0.1671
C35 C 0.38512(15) 0.51816(8) 0.17565(15)
H36 H 0.3907 0.5205 0.2633
C36 C 0.00750(14) 0.59515(7) 0.16874(13)
C37 C 0.02523(15) 0.52061(8) 0.19701(15)
H37 H 0.1038 0.5041 0.1593
H38 H 0.0389 0.5140 0.2875
C38 C -0.01697(15) 0.60289(8) 0.02731(14)
H39 H -0.0309 0.6503 0.0069
H40 H 0.0614 0.5878 -0.0124
C39 C -0.11747(15) 0.61746(8) 0.22644(15)
H41 H -0.1316 0.6653 0.2103
H42 H -0.1059 0.6111 0.3170
C40 C -0.25860(16) 0.58762(8) 0.03393(17)
H43 H -0.2734 0.6350 0.0138
H44 H -0.3362 0.5623 0.0007
C41 C -0.23885(16) 0.57860(9) 0.17426(16)
H45 H -0.3179 0.5949 0.2133
C42 C -0.13654(15) 0.56285(8) -0.02451(15)
H46 H -0.1486 0.5687 -0.1161
C43 C -0.11492(16) 0.48975(8) 0.00575(15)
H47 H -0.0368 0.4735 -0.0330
H48 H -0.1915 0.4637 -0.0277
C44 C -0.21724(17) 0.50535(9) 0.20456(16)
H49 H -0.2945 0.4794 0.1723
H50 H -0.2058 0.4992 0.2952
C45 C -0.09553(16) 0.48086(8) 0.14596(16)
H51 H -0.0817 0.4329 0.1657
C46 C -0.22400(15) 0.82852(8) 0.54390(15)
H52 H -0.2752 0.7870 0.5334
H53 H -0.2515 0.8588 0.4749
C47 C -0.24626(17) 0.86085(10) 0.66744(16)
H54 H -0.3268 0.8438 0.7008
H55 H -0.2528 0.9096 0.6593
C48 C -0.12478(16) 0.84089(9) 0.74930(16)
H56 H -0.1046 0.8733 0.8166
H57 H -0.1343 0.7963 0.7852
C49 C -0.02185(16) 0.84171(9) 0.65641(16)
H58 H 0.0082 0.8875 0.6424
H59 H 0.0545 0.8143 0.6858
C50 C -0.15081(16) 0.86174(8) 0.23363(16)
H60 H -0.0667 0.8733 0.2798
H61 H -0.2179 0.8944 0.2538
C51 C -0.13634(17) 0.86038(9) 0.09533(17)
H62 H -0.0442 0.8525 0.0783
H63 H -0.1661 0.9026 0.0562
C52 C -0.22440(18) 0.80245(9) 0.04795(17)
H64 H -0.2925 0.8175 -0.0156
H65 H -0.1724 0.7667 0.0130
C53 C -0.28494(16) 0.77929(8) 0.16471(16)
H66 H -0.3687 0.8024 0.1742
H67 H -0.3011 0.7310 0.1620
loop_
_geom_bond_atom_site_label_1
_geom_bond_atom_site_label_2
_geom_bond_site_symmetry_1
_geom_bond_site_symmetry_2
K1 O1 1_555 1_555
P1 N1 1_555 1_555
P2 N2 1_555 1_555
O1 C46 1_555 1_555
O2 K1 1_555 1_555
N1 K1 1_555 1_555
N2 K1 1_555 1_555
C1 P1 1_555 1_555
H1 C1 1_555 1_555
C2 P1 1_555 1_555
C3 C2 1_555 1_555
H2 C3 1_555 1_555
C4 C3 1_555 1_555
H3 C4 1_555 1_555
C5 C4 1_555 1_555
H4 C5 1_555 1_555
C6 C5 1_555 1_555
H5 C6 1_555 1_555
C7 C2 1_555 1_555
H6 C7 1_555 1_555
C8 P1 1_555 1_555
C9 C8 1_555 1_555
H7 C9 1_555 1_555
C10 C9 1_555 1_555
H8 C10 1_555 1_555
C11 C10 1_555 1_555
H9 C11 1_555 1_555
C12 C11 1_555 1_555
H10 C12 1_555 1_555
C13 C8 1_555 1_555
H11 C13 1_555 1_555
C14 N1 1_555 1_555
C15 C14 1_555 1_555
H12 C15 1_555 1_555
H13 C15 1_555 1_555
C16 C14 1_555 1_555
H14 C16 1_555 1_555
H15 C16 1_555 1_555
C17 C14 1_555 1_555
H16 C17 1_555 1_555
H17 C17 1_555 1_555
C18 C17 1_555 1_555
H18 C18 1_555 1_555
C19 C18 1_555 1_555
H19 C19 1_555 1_555
H20 C19 1_555 1_555
C20 C15 1_555 1_555
H21 C20 1_555 1_555
C21 C20 1_555 1_555
H22 C21 1_555 1_555
H23 C21 1_555 1_555
C22 C16 1_555 1_555
H24 C22 1_555 1_555
C23 C18 1_555 1_555
H25 C23 1_555 1_555
H26 C23 1_555 1_555
C24 P2 1_555 1_555
C25 C24 1_555 1_555
H27 C25 1_555 1_555
C26 C25 1_555 1_555
H28 C26 1_555 1_555
C27 C26 1_555 1_555
H29 C27 1_555 1_555
C28 C27 1_555 1_555
H30 C28 1_555 1_555
C29 C24 1_555 1_555
H31 C29 1_555 1_555
C30 P2 1_555 1_555
C31 C30 1_555 1_555
H32 C31 1_555 1_555
C32 C31 1_555 1_555
H33 C32 1_555 1_555
C33 C32 1_555 1_555
H34 C33 1_555 1_555
C34 C33 1_555 1_555
H35 C34 1_555 1_555
C35 C30 1_555 1_555
H36 C35 1_555 1_555
C36 N2 1_555 1_555
C37 C36 1_555 1_555
H37 C37 1_555 1_555
H38 C37 1_555 1_555
C38 C36 1_555 1_555
H39 C38 1_555 1_555
H40 C38 1_555 1_555
C39 C36 1_555 1_555
H41 C39 1_555 1_555
H42 C39 1_555 1_555
C40 H43 1_555 1_555
H44 C40 1_555 1_555
C41 C39 1_555 1_555
H45 C41 1_555 1_555
C42 C38 1_555 1_555
H46 C42 1_555 1_555
C43 C42 1_555 1_555
H47 C43 1_555 1_555
H48 C43 1_555 1_555
C44 C41 1_555 1_555
H49 C44 1_555 1_555
H50 C44 1_555 1_555
C45 C37 1_555 1_555
H51 C45 1_555 1_555
C46 H52 1_555 1_555
H53 C46 1_555 1_555
C47 C46 1_555 1_555
H54 C47 1_555 1_555
H55 C47 1_555 1_555
C48 C47 1_555 1_555
H56 C48 1_555 1_555
H57 C48 1_555 1_555
C49 O1 1_555 1_555
H58 C49 1_555 1_555
H59 C49 1_555 1_555
C50 O2 1_555 1_555
H60 C50 1_555 1_555
H61 C50 1_555 1_555
C51 C50 1_555 1_555
H62 C51 1_555 1_555
H63 C51 1_555 1_555
C52 C51 1_555 1_555
H64 C52 1_555 1_555
H65 C52 1_555 1_555
C53 O2 1_555 1_555
H66 C53 1_555 1_555
H67 C53 1_555 1_555
P2 C1 1_555 1_555
C6 C7 1_555 1_555
C12 C13 1_555 1_555
C19 C20 1_555 1_555
C21 C22 1_555 1_555
C22 C23 1_555 1_555
C28 C29 1_555 1_555
C34 C35 1_555 1_555
C40 C41 1_555 1_555
C40 C42 1_555 1_555
C43 C45 1_555 1_555
C44 C45 1_555 1_555
C48 C49 1_555 1_555
C52 C53 1_555 1_555

#END
