
#######################################################################
#
#                 Cambridge Crystallographic Data Centre
#                                CCDC 
#
#######################################################################
#
# If this CIF has been generated from an entry in the Cambridge 
# Structural Database, then it will include bibliographic, chemical, 
# crystal, experimental, refinement or atomic coordinate data resulting 
# from the CCDC's data processing and validation procedures.
#
#######################################################################

data_QEHYAF
_chemical_formula_moiety         'C51 H59 N2 Na1 O2 P2'
_chemical_name_systematic        
bis(tetrahydrofuran)-(bis((N-mesityl)-diphenylphosphinimino)methanide-N,N')-sodium
_symmetry_cell_setting           monoclinic
_symmetry_space_group_name_H-M   'P 21/n'
_symmetry_Int_Tables_number      14
_space_group_name_Hall           '-P 2yn'
loop_
_symmetry_equiv_pos_site_id
_symmetry_equiv_pos_as_xyz
1 x,y,z
2 1/2-x,1/2+y,1/2-z
3 -x,-y,-z
4 1/2+x,1/2-y,1/2+z
_cell_length_a                   10.6126(11)
_cell_length_b                   17.3394(18)
_cell_length_c                   24.612(3)
_cell_angle_alpha                90
_cell_angle_beta                 97.076(2)
_cell_angle_gamma                90
_cell_volume                     4494.51
_exptl_crystal_colour            colorless
_exptl_crystal_description       block
_cell_formula_units_Z            4
loop_
_atom_site_label
_atom_site_type_symbol
_atom_site_fract_x
_atom_site_fract_y
_atom_site_fract_z
Na1 Na 0.79521(9) 0.23160(5) 0.16795(4)
C1 C 0.7360(2) 0.34499(13) 0.04715(10)
H1 H 0.6737 0.3670 0.0206
P1 P 0.79726(6) 0.25882(3) 0.02916(3)
C2 C 0.6614(2) 0.21256(13) -0.01242(10)
C3 C 0.5623(2) 0.18484(15) 0.01455(11)
H2 H 0.5679 0.1895 0.0532
C4 C 0.4571(3) 0.15108(16) -0.01366(12)
H3 H 0.3903 0.1332 0.0055
C5 C 0.4479(3) 0.14307(15) -0.06991(11)
H4 H 0.3756 0.1190 -0.0894
C6 C 0.5440(2) 0.17004(15) -0.09734(11)
H5 H 0.5378 0.1648 -0.1360
C7 C 0.6500(2) 0.20489(14) -0.06906(10)
H6 H 0.7156 0.2237 -0.0886
C8 C 0.9085(2) 0.26666(14) -0.02192(10)
C9 C 0.9193(3) 0.33560(15) -0.04994(11)
H7 H 0.8665 0.3779 -0.0433
C10 C 1.0059(3) 0.34356(16) -0.08743(12)
H8 H 1.0126 0.3912 -0.1059
C11 C 1.0820(3) 0.28241(17) -0.09799(12)
H9 H 1.1422 0.2881 -0.1233
C12 C 1.0705(2) 0.21276(16) -0.07166(11)
H10 H 1.1226 0.1705 -0.0791
C13 C 0.9835(2) 0.20425(15) -0.03451(10)
H11 H 0.9746 0.1557 -0.0174
N1 N 0.85643(19) 0.21074(11) 0.08116(8)
C14 C 0.9532(2) 0.15439(13) 0.08243(10)
C15 C 0.9229(2) 0.07490(14) 0.07745(10)
C16 C 1.0207(3) 0.02125(14) 0.07773(11)
H12 H 0.9993 -0.0318 0.0736
C17 C 1.1475(3) 0.04192(15) 0.08379(11)
C18 C 1.1753(2) 0.11949(15) 0.09149(11)
H13 H 1.2618 0.1350 0.0970
C19 C 1.0815(2) 0.17547(14) 0.09151(10)
C20 C 1.1193(2) 0.25865(15) 0.09977(12)
H14 H 1.2083 0.2617 0.1159
H15 H 1.0654 0.2832 0.1244
H16 H 1.1089 0.2853 0.0644
C21 C 0.7876(3) 0.04841(16) 0.07208(13)
H17 H 0.7848 -0.0080 0.0702
H18 H 0.7412 0.0701 0.0386
H19 H 0.7482 0.0659 0.1039
C22 C 1.2518(3) -0.01680(16) 0.08292(13)
H20 H 1.3129 0.0013 0.0590
H21 H 1.2153 -0.0660 0.0691
H22 H 1.2951 -0.0239 0.1201
P2 P 0.77077(6) 0.39778(3) 0.10645(3)
C23 C 0.6945(2) 0.49107(13) 0.09258(10)
C24 C 0.6575(2) 0.51853(14) 0.03991(10)
H23 H 0.6662 0.4867 0.0092
C25 C 0.6077(3) 0.59275(15) 0.03212(11)
H24 H 0.5839 0.6115 -0.0040
C26 C 0.5928(2) 0.63894(15) 0.07632(11)
H25 H 0.5582 0.6893 0.0707
C27 C 0.6281(2) 0.61210(14) 0.12885(11)
H26 H 0.6177 0.6439 0.1594
C28 C 0.6790(2) 0.53808(14) 0.13704(11)
H27 H 0.7033 0.5198 0.1732
C29 C 0.9388(2) 0.42403(13) 0.11499(10)
C30 C 1.0073(2) 0.43203(15) 0.16624(11)
H28 H 0.9680 0.4211 0.1980
C31 C 1.1327(2) 0.45586(16) 0.17163(12)
H29 H 1.1781 0.4619 0.2071
C32 C 1.1924(3) 0.47084(15) 0.12622(12)
H30 H 1.2790 0.4863 0.1302
C33 C 1.1250(2) 0.46320(14) 0.07479(12)
H31 H 1.1655 0.4733 0.0432
C34 C 0.9985(2) 0.44077(14) 0.06906(11)
H32 H 0.9523 0.4368 0.0336
N2 N 0.74816(18) 0.36752(11) 0.16570(8)
C35 C 0.6450(2) 0.36992(13) 0.19609(10)
C36 C 0.6717(2) 0.38417(16) 0.25301(11)
C37 C 0.5754(3) 0.38078(17) 0.28651(11)
H33 H 0.5959 0.3909 0.3245
C38 C 0.4511(3) 0.36328(16) 0.26672(11)
C39 C 0.4250(2) 0.35177(15) 0.21077(11)
H34 H 0.3400 0.3405 0.1960
C40 C 0.5170(2) 0.35583(14) 0.17523(10)
C41 C 0.4779(3) 0.34504(17) 0.11533(11)
H35 H 0.3879 0.3309 0.1091
H36 H 0.5290 0.3040 0.1016
H37 H 0.4912 0.3932 0.0960
C42 C 0.8044(3) 0.4044(2) 0.27730(12)
H38 H 0.8055 0.4156 0.3164
H39 H 0.8333 0.4498 0.2587
H40 H 0.8611 0.3609 0.2727
C43 C 0.3488(3) 0.3580(2) 0.30413(13)
H41 H 0.2660 0.3515 0.2822
H42 H 0.3484 0.4054 0.3258
H43 H 0.3656 0.3138 0.3287
O1 O 0.94777(18) 0.17470(11) 0.23080(8)
C44 C 0.9579(3) 0.09169(16) 0.22738(12)
H44 H 0.9538 0.0753 0.1887
H45 H 0.8876 0.0667 0.2437
C45 C 1.0834(3) 0.0696(2) 0.25839(19)
H46 H 1.0721 0.0290 0.2857
H47 H 1.1418 0.0501 0.2331
C46 C 1.1342(3) 0.1413(2) 0.28591(16)
H48 H 1.2278 0.1437 0.2876
H49 H 1.1106 0.1450 0.3235
C47 C 1.0718(3) 0.2038(2) 0.24984(14)
H50 H 1.0660 0.2521 0.2708
H51 H 1.1203 0.2140 0.2187
O2 O 0.63284(17) 0.15605(11) 0.19400(8)
C48 C 0.5156(3) 0.1292(2) 0.16571(13)
H52 H 0.5314 0.0917 0.1370
H53 H 0.4660 0.1729 0.1482
C49 C 0.4449(3) 0.0916(2) 0.20747(13)
H54 H 0.3519 0.0945 0.1969
H55 H 0.4702 0.0370 0.2132
C50 C 0.4855(4) 0.1393(2) 0.25715(15)
H56 H 0.4285 0.1842 0.2589
H57 H 0.4849 0.1082 0.2909
C51 C 0.6161(3) 0.16472(19) 0.25065(12)
H58 H 0.6282 0.2193 0.2619
H59 H 0.6790 0.1329 0.2738
loop_
_geom_bond_atom_site_label_1
_geom_bond_atom_site_label_2
_geom_bond_site_symmetry_1
_geom_bond_site_symmetry_2
Na1 N1 1_555 1_555
C1 H1 1_555 1_555
P1 C1 1_555 1_555
C2 P1 1_555 1_555
C3 C2 1_555 1_555
H2 C3 1_555 1_555
C4 C3 1_555 1_555
H3 C4 1_555 1_555
C5 C4 1_555 1_555
H4 C5 1_555 1_555
C6 C5 1_555 1_555
H5 C6 1_555 1_555
C7 C2 1_555 1_555
H6 C7 1_555 1_555
C8 P1 1_555 1_555
C9 C8 1_555 1_555
H7 C9 1_555 1_555
C10 C9 1_555 1_555
H8 C10 1_555 1_555
C11 C10 1_555 1_555
H9 C11 1_555 1_555
C12 C11 1_555 1_555
H10 C12 1_555 1_555
C13 C8 1_555 1_555
H11 C13 1_555 1_555
N1 P1 1_555 1_555
C14 N1 1_555 1_555
C15 C14 1_555 1_555
C16 C15 1_555 1_555
H12 C16 1_555 1_555
C17 C16 1_555 1_555
C18 C17 1_555 1_555
H13 C18 1_555 1_555
C19 C14 1_555 1_555
C20 C19 1_555 1_555
H14 C20 1_555 1_555
H15 C20 1_555 1_555
H16 C20 1_555 1_555
C21 C15 1_555 1_555
H17 C21 1_555 1_555
H18 C21 1_555 1_555
H19 C21 1_555 1_555
C22 C17 1_555 1_555
H20 C22 1_555 1_555
H21 C22 1_555 1_555
H22 C22 1_555 1_555
P2 C1 1_555 1_555
C23 P2 1_555 1_555
C24 C23 1_555 1_555
H23 C24 1_555 1_555
C25 C24 1_555 1_555
H24 C25 1_555 1_555
C26 C25 1_555 1_555
H25 C26 1_555 1_555
C27 C26 1_555 1_555
H26 C27 1_555 1_555
C28 C23 1_555 1_555
H27 C28 1_555 1_555
C29 P2 1_555 1_555
C30 C29 1_555 1_555
H28 C30 1_555 1_555
C31 C30 1_555 1_555
H29 C31 1_555 1_555
C32 C31 1_555 1_555
H30 C32 1_555 1_555
C33 C32 1_555 1_555
H31 C33 1_555 1_555
C34 C29 1_555 1_555
H32 C34 1_555 1_555
N2 Na1 1_555 1_555
C35 N2 1_555 1_555
C36 C35 1_555 1_555
C37 C36 1_555 1_555
H33 C37 1_555 1_555
C38 C37 1_555 1_555
C39 C38 1_555 1_555
H34 C39 1_555 1_555
C40 C35 1_555 1_555
C41 C40 1_555 1_555
H35 C41 1_555 1_555
H36 C41 1_555 1_555
H37 C41 1_555 1_555
C42 C36 1_555 1_555
H38 C42 1_555 1_555
H39 C42 1_555 1_555
H40 C42 1_555 1_555
C43 C38 1_555 1_555
H41 C43 1_555 1_555
H42 C43 1_555 1_555
H43 C43 1_555 1_555
O1 Na1 1_555 1_555
C44 O1 1_555 1_555
H44 C44 1_555 1_555
H45 C44 1_555 1_555
C45 C44 1_555 1_555
H46 C45 1_555 1_555
H47 C45 1_555 1_555
C46 C45 1_555 1_555
H48 C46 1_555 1_555
H49 C46 1_555 1_555
C47 O1 1_555 1_555
H50 C47 1_555 1_555
H51 C47 1_555 1_555
O2 Na1 1_555 1_555
C48 O2 1_555 1_555
H52 C48 1_555 1_555
H53 C48 1_555 1_555
C49 C48 1_555 1_555
H54 C49 1_555 1_555
H55 C49 1_555 1_555
C50 C49 1_555 1_555
H56 C50 1_555 1_555
H57 C50 1_555 1_555
C51 O2 1_555 1_555
H58 C51 1_555 1_555
H59 C51 1_555 1_555
C6 C7 1_555 1_555
C12 C13 1_555 1_555
C18 C19 1_555 1_555
P2 N2 1_555 1_555
C27 C28 1_555 1_555
C33 C34 1_555 1_555
C39 C40 1_555 1_555
C46 C47 1_555 1_555
C50 C51 1_555 1_555

#END
