
#######################################################################
#
#                 Cambridge Crystallographic Data Centre
#                                CCDC 
#
#######################################################################
#
# If this CIF has been generated from an entry in the Cambridge 
# Structural Database, then it will include bibliographic, chemical, 
# crystal, experimental, refinement or atomic coordinate data resulting 
# from the CCDC's data processing and validation procedures.
#
#######################################################################

data_QEHZIO
_chemical_formula_moiety         'C61 H79 Cs1 N2 O3 P2,C4 H10 O1'
_chemical_name_systematic        
'tris(tetrahydrofuran)-(\h^6^-bis((N-(2,6-di-isopropylphenyl)-diphenylphosphinimino)methanide-N))-cesium diethyl ether solvate'
_symmetry_cell_setting           monoclinic
_symmetry_space_group_name_H-M   'P 21/c'
_symmetry_Int_Tables_number      14
_space_group_name_Hall           '-P 2ybc'
loop_
_symmetry_equiv_pos_site_id
_symmetry_equiv_pos_as_xyz
1 x,y,z
2 -x,1/2+y,1/2-z
3 -x,-y,-z
4 x,1/2-y,1/2+z
_cell_length_a                   10.7463(7)
_cell_length_b                   20.3503(13)
_cell_length_c                   28.0299(18)
_cell_angle_alpha                90
_cell_angle_beta                 94.4670(10)
_cell_angle_gamma                90
_cell_volume                     6111.25
_exptl_crystal_colour            colorless
_exptl_crystal_description       column
_cell_formula_units_Z            4
loop_
_atom_site_label
_atom_site_type_symbol
_atom_site_fract_x
_atom_site_fract_y
_atom_site_fract_z
Cs1 Cs 0.29300(3) 0.732199(13) 0.273375(9)
C1 C 0.1815(3) 0.67867(15) 0.40765(11)
H1 H 0.0995 0.6837 0.3928
P1 P 0.22451(7) 0.73805(4) 0.44921(3)
C2 C 0.0846(3) 0.76151(14) 0.47904(10)
C3 C 0.0876(3) 0.82150(16) 0.50380(11)
H2 H 0.1606 0.8479 0.5046
C4 C -0.0146(3) 0.84291(17) 0.52715(12)
H3 H -0.0107 0.8833 0.5441
C5 C -0.1230(3) 0.80484(18) 0.52555(12)
H4 H -0.1933 0.8195 0.5412
C6 C -0.1276(3) 0.74584(17) 0.50115(12)
H5 H -0.2012 0.7198 0.5001
C7 C -0.0241(3) 0.72417(16) 0.47795(12)
H6 H -0.0283 0.6835 0.4613
C8 C 0.3197(3) 0.70131(15) 0.49918(10)
C9 C 0.4320(3) 0.72959(17) 0.51574(12)
H7 H 0.4592 0.7689 0.5016
C10 C 0.5051(3) 0.7003(2) 0.55323(13)
H8 H 0.5831 0.7193 0.5640
C11 C 0.4649(4) 0.6438(2) 0.57480(12)
H9 H 0.5147 0.6244 0.6005
C12 C 0.3521(4) 0.61584(18) 0.55891(12)
H10 H 0.3243 0.5771 0.5737
C13 C 0.2790(3) 0.64450(16) 0.52108(11)
H11 H 0.2014 0.6253 0.5102
N1 N 0.2966(2) 0.80242(13) 0.43518(9)
C14 C 0.3019(3) 0.83363(15) 0.39134(11)
C15 C 0.4233(3) 0.85358(15) 0.37858(11)
C16 C 0.4358(3) 0.88573(17) 0.33571(12)
H12 H 0.5168 0.8978 0.3275
C17 C 0.3329(3) 0.90096(17) 0.30427(12)
H13 H 0.3433 0.9228 0.2749
C18 C 0.2154(3) 0.88367(17) 0.31678(12)
H14 H 0.1447 0.8948 0.2958
C19 C 0.1972(3) 0.85035(16) 0.35933(11)
C20 C 0.0635(3) 0.83850(18) 0.37141(12)
H15 H 0.0665 0.8097 0.4004
C21 C 0.0014(3) 0.9034(2) 0.38417(14)
H16 H -0.0054 0.9322 0.3560
H17 H 0.0520 0.9250 0.4102
H18 H -0.0821 0.8945 0.3944
C22 C -0.0154(3) 0.8033(2) 0.33141(13)
H19 H -0.0239 0.8315 0.3030
H20 H -0.0983 0.7939 0.3421
H21 H 0.0254 0.7621 0.3236
C23 C 0.5354(3) 0.84092(16) 0.41409(12)
H22 H 0.5249 0.7960 0.4277
C24 C 0.5373(4) 0.89005(18) 0.45578(14)
H23 H 0.5496 0.9346 0.4437
H24 H 0.6057 0.8790 0.4796
H25 H 0.4578 0.8879 0.4706
C25 C 0.6602(3) 0.8419(2) 0.39163(16)
H26 H 0.6559 0.8128 0.3637
H27 H 0.7263 0.8268 0.4151
H28 H 0.6785 0.8868 0.3816
P2 P 0.26057(7) 0.61209(4) 0.38824(3)
C26 C 0.4221(3) 0.61427(15) 0.41459(10)
C27 C 0.4999(3) 0.66259(16) 0.39722(11)
H29 H 0.4652 0.6953 0.3760
C28 C 0.6274(3) 0.66332(17) 0.41071(12)
H30 H 0.6789 0.6963 0.3986
C29 C 0.6792(3) 0.61566(17) 0.44187(13)
H31 H 0.7665 0.6153 0.4504
C30 C 0.6032(3) 0.56881(17) 0.46043(12)
H32 H 0.6379 0.5373 0.4826
C31 C 0.4758(3) 0.56777(16) 0.44661(11)
H33 H 0.4246 0.5349 0.4592
C32 C 0.1973(3) 0.53455(16) 0.40980(11)
C33 C 0.0852(3) 0.53491(17) 0.43173(12)
H34 H 0.0471 0.5756 0.4385
C34 C 0.0284(4) 0.47645(19) 0.44382(14)
H35 H -0.0493 0.4775 0.4578
C35 C 0.0844(4) 0.41701(18) 0.43555(13)
H36 H 0.0467 0.3772 0.4448
C36 C 0.1954(3) 0.41544(17) 0.41383(13)
H37 H 0.2344 0.3746 0.4082
C37 C 0.2499(3) 0.47361(16) 0.40031(12)
H38 H 0.3245 0.4720 0.3843
N2 N 0.2562(2) 0.60944(13) 0.33134(9)
C38 C 0.2472(3) 0.55396(15) 0.30148(10)
C39 C 0.1277(3) 0.52902(18) 0.28517(12)
C40 C 0.1201(4) 0.4764(2) 0.25313(14)
H39 H 0.0401 0.4598 0.2424
C41 C 0.2250(4) 0.4478(2) 0.23656(14)
H40 H 0.2175 0.4117 0.2150
C42 C 0.3407(4) 0.47247(19) 0.25198(13)
H41 H 0.4132 0.4529 0.2408
C43 C 0.3544(3) 0.52538(17) 0.28356(11)
C44 C 0.0109(3) 0.5609(2) 0.30135(14)
H42 H 0.0356 0.5847 0.3319
C45 C -0.0384(5) 0.6129(3) 0.2648(2)
H43 H 0.0278 0.6448 0.2599
H44 H -0.1100 0.6356 0.2768
H45 H -0.0642 0.5915 0.2343
C46 C -0.0893(5) 0.5110(4) 0.3124(2)
H46 H -0.1233 0.4903 0.2826
H47 H -0.1565 0.5334 0.3277
H48 H -0.0523 0.4772 0.3341
C47 C 0.4842(3) 0.55187(19) 0.29835(12)
H49 H 0.4737 0.5912 0.3190
C48 C 0.5526(3) 0.5744(2) 0.25530(14)
H50 H 0.5645 0.5368 0.2343
H51 H 0.6341 0.5927 0.2665
H52 H 0.5030 0.6081 0.2376
C49 C 0.5627(3) 0.5020(2) 0.32815(14)
H53 H 0.5172 0.4878 0.3553
H54 H 0.6419 0.5223 0.3400
H55 H 0.5794 0.4638 0.3083
O1 O 0.5452(4) 0.7678(2) 0.24417(14)
C50 C 0.550(3) 0.8011(17) 0.1994(8)
H56 H 0.5348 0.8488 0.2032
H57 H 0.4858 0.7833 0.1754
C51 C 0.681(2) 0.7887(12) 0.1839(8)
H58 H 0.7355 0.8275 0.1897
H59 H 0.6791 0.7761 0.1497
C52 C 0.7225(13) 0.7309(8) 0.2171(4)
H60 H 0.6830 0.6888 0.2065
H61 H 0.8144 0.7258 0.2207
C53 C 0.6707(9) 0.7576(10) 0.2620(5)
H62 H 0.6774 0.7252 0.2884
H63 H 0.7120 0.7991 0.2727
O2 O 0.3162(3) 0.65879(18) 0.17371(12)
C54 C 0.3993(11) 0.6623(7) 0.1363(4)
H64 H 0.4861 0.6533 0.1490
H65 H 0.3962 0.7066 0.1216
C55 C 0.3550(9) 0.6100(4) 0.0991(2)
H66 H 0.2872 0.6269 0.0765
H67 H 0.4245 0.5940 0.0811
C56 C 0.3080(13) 0.5565(4) 0.1318(3)
H68 H 0.2488 0.5263 0.1141
H69 H 0.3777 0.5309 0.1478
C57 C 0.2428(7) 0.5990(4) 0.1675(3)
H70 H 0.1564 0.6093 0.1549
H71 H 0.2398 0.5758 0.1985
C62 C 0.0764(11) 0.8394(5) 0.1886(3)
H82 H 0.1214 0.8605 0.2167
H83 H -0.0040 0.8624 0.1814
C63 C 0.1548(12) 0.8420(8) 0.1455(4)
H84 H 0.2450 0.8443 0.1558
H85 H 0.1319 0.8804 0.1250
C64 C 0.123(2) 0.7773(9) 0.1190(7)
H86 H 0.0812 0.7854 0.0868
H87 H 0.1980 0.7500 0.1161
C65 C 0.0332(12) 0.7448(7) 0.1521(5)
H88 H -0.0545 0.7530 0.1399
H89 H 0.0473 0.6968 0.1533
O4 O 0.0561(8) 0.7721(4) 0.1976(3)
C58 C 0.2303(9) 1.0827(5) 0.3623(3)
H72 H 0.2679 1.0760 0.3319
H73 H 0.2522 1.1265 0.3748
H74 H 0.1393 1.0790 0.3571
O3 O 0.2110(4) 1.0377(2) 0.43666(17)
C59 C 0.2794(8) 1.0305(4) 0.3984(3)
H75 H 0.2684 0.9859 0.3846
H76 H 0.3691 1.0376 0.4078
C60 C 0.2499(8) 0.9932(3) 0.4742(3)
H77 H 0.3375 1.0023 0.4858
H78 H 0.2448 0.9474 0.4621
C61 C 0.1661(9) 1.0015(4) 0.5145(3)
H79 H 0.0808 0.9885 0.5035
H80 H 0.1666 1.0477 0.5245
H81 H 0.1964 0.9739 0.5415
C66? C 0.544(3) 0.8059(18) 0.2016(9)
C67? C 0.673(2) 0.7960(14) 0.1837(9)
C68? C 0.7521(13) 0.7600(10) 0.2240(4)
C69? C 0.6654(9) 0.7498(12) 0.2636(5)
C70? C 0.387(4) 0.6512(14) 0.1325(11)
C71? C 0.3574(19) 0.5780(11) 0.1222(11)
C72? C 0.2154(17) 0.5782(12) 0.1279(7)
C73? C 0.2079(18) 0.6179(11) 0.1744(9)
C74? C 0.1893(13) 0.8224(7) 0.1518(4)
C75? C 0.1120(12) 0.7755(6) 0.1186(4)
C76? C -0.0075(11) 0.7634(7) 0.1436(4)
C77? C 0.0135(9) 0.8044(9) 0.1897(4)
C78? C 0.3311(14) 1.1197(7) 0.4021(5)
C79? C 0.3471(15) 1.0488(7) 0.4209(8)
H90? H 0.5293 0.8529 0.2085
H91? H 0.4780 0.7904 0.1776
H92? H 0.7115 0.8389 0.1767
H93? H 0.6675 0.7692 0.1541
H94? H 0.7822 0.7173 0.2126
H95? H 0.8251 0.7870 0.2356
H96? H 0.6665 0.7033 0.2739
H97? H 0.6913 0.7777 0.2916
H98? H 0.4776 0.6588 0.1402
H99? H 0.3564 0.6800 0.1056
H100? H 0.3763 0.5651 0.0895
H101? H 0.4028 0.5487 0.1458
H102? H 0.1688 0.6000 0.1005
H103? H 0.1830 0.5330 0.1313
H104? H 0.1305 0.6443 0.1737
H105? H 0.2127 0.5889 0.2028
H106? H 0.2794 0.8120 0.1519
H107? H 0.1761 0.8685 0.1414
H108? H 0.0927 0.7957 0.0868
H109? H 0.1575 0.7338 0.1145
H110? H -0.0177 0.7162 0.1510
H111? H -0.0820 0.7788 0.1237
H112? H -0.0281 0.8477 0.1857
H113? H -0.0208 0.7813 0.2169
H114? H 0.4099 1.1350 0.3906
H115? H 0.3076 1.1484 0.4280
H116? H 0.2656 1.1208 0.3757
H117? H 0.4109 1.0458 0.4482
H118? H 0.3678 1.0178 0.3955
O5? O 0.1466(7) 0.8126(4) 0.1983(2)
loop_
_geom_bond_atom_site_label_1
_geom_bond_atom_site_label_2
_geom_bond_site_symmetry_1
_geom_bond_site_symmetry_2
Cs1 C14 1_555 1_555
C1 H1 1_555 1_555
P1 C1 1_555 1_555
C2 P1 1_555 1_555
C3 C2 1_555 1_555
H2 C3 1_555 1_555
C4 C3 1_555 1_555
H3 C4 1_555 1_555
C5 C4 1_555 1_555
H4 C5 1_555 1_555
C6 C5 1_555 1_555
H5 C6 1_555 1_555
C7 C2 1_555 1_555
H6 C7 1_555 1_555
C8 P1 1_555 1_555
C9 C8 1_555 1_555
H7 C9 1_555 1_555
C10 C9 1_555 1_555
H8 C10 1_555 1_555
C11 C10 1_555 1_555
H9 C11 1_555 1_555
C12 C11 1_555 1_555
H10 C12 1_555 1_555
C13 C8 1_555 1_555
H11 C13 1_555 1_555
N1 P1 1_555 1_555
C14 N1 1_555 1_555
C15 Cs1 1_555 1_555
C16 Cs1 1_555 1_555
H12 C16 1_555 1_555
C17 Cs1 1_555 1_555
H13 C17 1_555 1_555
C18 Cs1 1_555 1_555
H14 C18 1_555 1_555
C19 Cs1 1_555 1_555
C20 C19 1_555 1_555
H15 C20 1_555 1_555
C21 C20 1_555 1_555
H16 C21 1_555 1_555
H17 C21 1_555 1_555
H18 C21 1_555 1_555
C22 C20 1_555 1_555
H19 C22 1_555 1_555
H20 C22 1_555 1_555
H21 C22 1_555 1_555
C23 C15 1_555 1_555
H22 C23 1_555 1_555
C24 C23 1_555 1_555
H23 C24 1_555 1_555
H24 C24 1_555 1_555
H25 C24 1_555 1_555
C25 C23 1_555 1_555
H26 C25 1_555 1_555
H27 C25 1_555 1_555
H28 C25 1_555 1_555
P2 C1 1_555 1_555
C26 P2 1_555 1_555
C27 C26 1_555 1_555
H29 C27 1_555 1_555
C28 C27 1_555 1_555
H30 C28 1_555 1_555
C29 C28 1_555 1_555
H31 C29 1_555 1_555
C30 C29 1_555 1_555
H32 C30 1_555 1_555
C31 C26 1_555 1_555
H33 C31 1_555 1_555
C32 P2 1_555 1_555
C33 C32 1_555 1_555
H34 C33 1_555 1_555
C34 C33 1_555 1_555
H35 C34 1_555 1_555
C35 C34 1_555 1_555
H36 C35 1_555 1_555
C36 C35 1_555 1_555
H37 C36 1_555 1_555
C37 C32 1_555 1_555
H38 C37 1_555 1_555
N2 Cs1 1_555 1_555
C38 N2 1_555 1_555
C39 C38 1_555 1_555
C40 C39 1_555 1_555
H39 C40 1_555 1_555
C41 C40 1_555 1_555
H40 C41 1_555 1_555
C42 C41 1_555 1_555
H41 C42 1_555 1_555
C43 C38 1_555 1_555
C44 C39 1_555 1_555
H42 C44 1_555 1_555
C45 C44 1_555 1_555
H43 C45 1_555 1_555
H44 C45 1_555 1_555
H45 C45 1_555 1_555
C46 C44 1_555 1_555
H46 C46 1_555 1_555
H47 C46 1_555 1_555
H48 C46 1_555 1_555
C47 C43 1_555 1_555
H49 C47 1_555 1_555
C48 C47 1_555 1_555
H50 C48 1_555 1_555
H51 C48 1_555 1_555
H52 C48 1_555 1_555
C49 C47 1_555 1_555
H53 C49 1_555 1_555
H54 C49 1_555 1_555
H55 C49 1_555 1_555
O1 Cs1 1_555 1_555
C50 O1 1_555 1_555
H56 C50 1_555 1_555
H57 C50 1_555 1_555
C51 C50 1_555 1_555
H58 C51 1_555 1_555
H59 C51 1_555 1_555
C52 C51 1_555 1_555
H60 C52 1_555 1_555
H61 C52 1_555 1_555
C53 O1 1_555 1_555
H62 C53 1_555 1_555
H63 C53 1_555 1_555
O2 Cs1 1_555 1_555
C54 O2 1_555 1_555
H64 C54 1_555 1_555
H65 C54 1_555 1_555
C55 C54 1_555 1_555
H66 C55 1_555 1_555
H67 C55 1_555 1_555
C56 C55 1_555 1_555
H68 C56 1_555 1_555
H69 C56 1_555 1_555
C57 O2 1_555 1_555
H70 C57 1_555 1_555
H71 C57 1_555 1_555
C58 H72 1_555 1_555
H73 C58 1_555 1_555
H74 C58 1_555 1_555
O3 C59 1_555 1_555
C59 C58 1_555 1_555
H75 C59 1_555 1_555
H76 C59 1_555 1_555
C60 O3 1_555 1_555
H77 C60 1_555 1_555
H78 C60 1_555 1_555
C61 C60 1_555 1_555
H79 C61 1_555 1_555
H80 C61 1_555 1_555
H81 C61 1_555 1_555
C62 H82 1_555 1_555
H83 C62 1_555 1_555
C63 C62 1_555 1_555
H84 C63 1_555 1_555
H85 C63 1_555 1_555
C64 C63 1_555 1_555
H86 C64 1_555 1_555
H87 C64 1_555 1_555
C65 C64 1_555 1_555
H88 C65 1_555 1_555
H89 C65 1_555 1_555
O4 Cs1 1_555 1_555
C6 C7 1_555 1_555
C12 C13 1_555 1_555
C14 C15 1_555 1_555
C14 C19 1_555 1_555
C15 C16 1_555 1_555
C16 C17 1_555 1_555
C17 C18 1_555 1_555
C18 C19 1_555 1_555
P2 N2 1_555 1_555
C30 C31 1_555 1_555
C36 C37 1_555 1_555
C42 C43 1_555 1_555
C52 C53 1_555 1_555
C56 C57 1_555 1_555
C62 O4 1_555 1_555
C65 O4 1_555 1_555

#END
