
#######################################################################
#
#                 Cambridge Crystallographic Data Centre
#                                CCDC 
#
#######################################################################
#
# If this CIF has been generated from an entry in the Cambridge 
# Structural Database, then it will include bibliographic, chemical, 
# crystal, experimental, refinement or atomic coordinate data resulting 
# from the CCDC's data processing and validation procedures.
#
#######################################################################

data_QEHZEK
_chemical_formula_moiety         'C61 H79 N2 O3 P2 Rb1,C4 H8 O1'
_chemical_name_systematic        
'tris(tetrahydrofuran)-bis((N-(2,6-di-isopropylphenyl)-diphenylphosphinimino)methanide-N)-rubidium tetrahydrofuran solvate'
_symmetry_cell_setting           triclinic
_symmetry_space_group_name_H-M   'P -1'
_symmetry_Int_Tables_number      2
_space_group_name_Hall           '-P 1'
loop_
_symmetry_equiv_pos_site_id
_symmetry_equiv_pos_as_xyz
1 x,y,z
2 -x,-y,-z
_cell_length_a                   12.7002(18)
_cell_length_b                   13.3967(19)
_cell_length_c                   20.018(3)
_cell_angle_alpha                95.281(2)
_cell_angle_beta                 106.173(2)
_cell_angle_gamma                111.971(2)
_cell_volume                     2958.97
_exptl_crystal_colour            colorless
_exptl_crystal_description       block
_cell_formula_units_Z            2
loop_
_atom_site_label
_atom_site_type_symbol
_atom_site_fract_x
_atom_site_fract_y
_atom_site_fract_z
Rb1 Rb 0.66828(3) 0.49600(2) 0.741919(17)
C1 C 0.9167(3) 0.7912(2) 0.86071(16)
H1 H 0.9731 0.8050 0.9069
P1 P 0.78028(7) 0.78995(6) 0.85942(4)
C2 C 0.7785(3) 0.9269(2) 0.86566(16)
C3 C 0.8829(3) 1.0208(3) 0.90633(17)
H2 H 0.9544 1.0128 0.9298
C4 C 0.8841(3) 1.1250(3) 0.91315(19)
H3 H 0.9557 1.1875 0.9411
C5 C 0.7794(3) 1.1375(3) 0.8786(2)
H4 H 0.7797 1.2088 0.8820
C6 C 0.6755(3) 1.0454(3) 0.8394(2)
H5 H 0.6037 1.0537 0.8167
C7 C 0.6742(3) 0.9408(3) 0.83256(18)
H6 H 0.6019 0.8783 0.8052
C8 C 0.7832(2) 0.7687(2) 0.94964(16)
C9 C 0.7781(3) 0.8416(3) 1.00135(17)
H7 H 0.7712 0.9069 0.9904
C10 C 0.7828(3) 0.8214(3) 1.06908(17)
H8 H 0.7814 0.8734 1.1041
C11 C 0.7895(3) 0.7250(3) 1.08476(18)
H9 H 0.7927 0.7107 1.1307
C12 C 0.7916(3) 0.6490(3) 1.03345(18)
H10 H 0.7950 0.5824 1.0441
C13 C 0.7885(3) 0.6709(2) 0.96640(17)
H11 H 0.7900 0.6189 0.9315
N1 N 0.6707(2) 0.7024(2) 0.79419(14)
C14 C 0.5503(3) 0.6835(2) 0.75895(16)
C15 C 0.4564(3) 0.6286(2) 0.78672(17)
C16 C 0.3375(3) 0.6054(3) 0.74718(18)
H12 H 0.2757 0.5711 0.7663
C17 C 0.3061(3) 0.6305(3) 0.68106(18)
H13 H 0.2242 0.6131 0.6549
C18 C 0.3964(3) 0.6813(3) 0.65382(18)
H14 H 0.3756 0.6989 0.6084
C19 C 0.5175(3) 0.7077(3) 0.69119(17)
C20 C 0.6124(3) 0.7637(3) 0.65744(18)
H15 H 0.6938 0.7880 0.6945
C21 C 0.6033(4) 0.6813(3) 0.5952(2)
H16 H 0.6184 0.6204 0.6129
H17 H 0.6632 0.7187 0.5735
H18 H 0.5222 0.6522 0.5595
C22 C 0.6039(4) 0.8655(3) 0.6327(2)
H19 H 0.6708 0.9016 0.6155
H20 H 0.6085 0.9169 0.6727
H21 H 0.5271 0.8434 0.5940
C23 C 0.4853(3) 0.5989(3) 0.85859(17)
H22 H 0.5711 0.6084 0.8738
C24 C 0.4745(3) 0.6763(3) 0.91477(19)
H23 H 0.5256 0.7529 0.9163
H24 H 0.5005 0.6594 0.9616
H25 H 0.3903 0.6662 0.9024
C25 C 0.4064(3) 0.4792(3) 0.8566(2)
H26 H 0.3216 0.4675 0.8418
H27 H 0.4302 0.4640 0.9041
H28 H 0.4169 0.4295 0.8225
P2 P 0.96730(6) 0.77120(6) 0.79121(4)
C26 C 1.1322(3) 0.8284(2) 0.83193(16)
C27 C 1.1945(3) 0.8988(2) 0.89923(17)
H29 H 1.1510 0.9177 0.9261
C28 C 1.3201(3) 0.9416(3) 0.92739(18)
H30 H 1.3619 0.9892 0.9734
C29 C 1.3842(3) 0.9146(3) 0.88798(18)
H31 H 1.4698 0.9439 0.9070
C30 C 1.3233(3) 0.8455(3) 0.82151(18)
H32 H 1.3673 0.8272 0.7948
C31 C 1.1983(3) 0.8020(3) 0.79298(17)
H33 H 1.1573 0.7543 0.7470
C32 C 0.9503(3) 0.8687(3) 0.73536(17)
C33 C 0.9209(3) 0.8428(3) 0.66192(19)
H34 H 0.9023 0.7703 0.6385
C34 C 0.9185(4) 0.9227(3) 0.6222(2)
H35 H 0.8979 0.9041 0.5719
C35 C 0.9457(3) 1.0285(3) 0.6554(2)
H36 H 0.9442 1.0826 0.6281
C36 C 0.9751(3) 1.0554(3) 0.7284(2)
H37 H 0.9932 1.1280 0.7514
C37 C 0.9781(3) 0.9762(3) 0.76825(19)
H38 H 0.9994 0.9955 0.8186
N2 N 0.9160(2) 0.6544(2) 0.73847(13)
C38 C 0.9554(3) 0.5699(2) 0.73619(16)
C39 C 0.9433(3) 0.5162(3) 0.66786(17)
C40 C 0.9856(3) 0.4347(3) 0.66175(18)
H39 H 0.9800 0.4019 0.6160
C41 C 1.0358(3) 0.4005(3) 0.72117(18)
H40 H 1.0662 0.3463 0.7166
C42 C 1.0407(3) 0.4468(3) 0.78694(18)
H41 H 1.0722 0.4215 0.8275
C43 C 1.0008(3) 0.5296(2) 0.79607(16)
C44 C 0.8872(3) 0.5488(3) 0.60052(17)
H42 H 0.8461 0.5945 0.6136
C45 C 0.9854(3) 0.6209(3) 0.5736(2)
H43 H 1.0276 0.5785 0.5605
H44 H 1.0430 0.6860 0.6114
H45 H 0.9483 0.6444 0.5318
C46 C 0.7918(3) 0.4495(3) 0.5416(2)
H46 H 0.7539 0.4754 0.5013
H47 H 0.7303 0.4044 0.5600
H48 H 0.8302 0.4052 0.5256
C47 C 1.0026(3) 0.5689(3) 0.87025(16)
H49 H 0.9675 0.6245 0.8672
C48 C 1.1304(3) 0.6252(3) 0.92566(18)
H50 H 1.1639 0.5705 0.9339
H51 H 1.1270 0.6576 0.9705
H52 H 1.1819 0.6834 0.9080
C49 C 0.9232(3) 0.4734(3) 0.89616(19)
H53 H 0.8412 0.4387 0.8613
H54 H 0.9208 0.5020 0.9423
H55 H 0.9571 0.4186 0.9014
O1 O 0.6279(2) 0.2933(2) 0.65585(14)
C50 C 0.7203(3) 0.2602(3) 0.6917(2)
H56 H 0.7024 0.2272 0.7317
H57 H 0.8001 0.3240 0.7105
C51 C 0.7181(4) 0.1756(3) 0.6349(3)
H58 H 0.7668 0.2114 0.6058
H59 H 0.7477 0.1231 0.6561
C52 C 0.5849(4) 0.1190(4) 0.5912(3)
H60 H 0.5726 0.0909 0.5408
H61 H 0.5425 0.0567 0.6107
C53 C 0.5409(4) 0.2069(3) 0.5972(2)
H62 H 0.5303 0.2349 0.5528
H63 H 0.4622 0.1770 0.6048
O2 O 0.3972(2) 0.3660(2) 0.66489(13)
C54 C 0.2779(3) 0.3223(3) 0.6713(2)
H64 H 0.2702 0.3774 0.7039
H65 H 0.2638 0.2548 0.6906
C55 C 0.1875(4) 0.2959(4) 0.5973(2)
H66 H 0.1522 0.3505 0.5925
H67 H 0.1216 0.2213 0.5865
C56 C 0.2611(3) 0.3020(4) 0.5483(2)
H68 H 0.2645 0.2306 0.5349
H69 H 0.2289 0.3255 0.5045
C57 C 0.3837(3) 0.3895(3) 0.5962(2)
H70 H 0.4486 0.3851 0.5796
H71 H 0.3860 0.4643 0.5967
O3 O 0.5975(2) 0.3334(2) 0.82883(13)
C58 C 0.6075(3) 0.3309(3) 0.90238(19)
H72 H 0.5887 0.3893 0.9234
H73 H 0.6903 0.3428 0.9308
C59 C 0.5175(3) 0.2181(3) 0.9019(2)
H74 H 0.4811 0.2223 0.9393
H75 H 0.5560 0.1661 0.9093
C60 C 0.4234(3) 0.1832(3) 0.82778(19)
H76 H 0.3638 0.2147 0.8258
H77 H 0.3808 0.1019 0.8120
C61 C 0.5021(3) 0.2324(3) 0.78347(19)
H78 H 0.5352 0.1813 0.7688
H79 H 0.4546 0.2470 0.7402
O4 O 0.2919(6) 0.9203(6) 0.6378(3)
C62 C 0.282(2) 0.893(2) 0.5636(5)
H80 H 0.2784 0.8179 0.5510
H81 H 0.3511 0.9469 0.5536
C63 C 0.1627(12) 0.8983(9) 0.5229(5)
H82 H 0.1485 0.8918 0.4712
H83 H 0.0922 0.8430 0.5308
C64 C 0.1971(11) 1.0139(7) 0.5614(6)
H84 H 0.1290 1.0358 0.5492
H85 H 0.2678 1.0691 0.5536
C65 C 0.2275(18) 0.9914(15) 0.6373(5)
H86 H 0.2791 1.0614 0.6732
H87 H 0.1528 0.9539 0.6482
C66? C 0.270(2) 0.875(2) 0.5637(6)
C67? C 0.2202(9) 0.9444(9) 0.5199(5)
C68? C 0.1469(9) 0.9625(11) 0.5614(5)
C69? C 0.2470(18) 1.0067(16) 0.6351(5)
H88? H 0.2117 0.7971 0.5490
H89? H 0.3464 0.8805 0.5571
H90? H 0.1702 0.9033 0.4702
H91? H 0.2848 1.0145 0.5197
H92? H 0.0791 0.8931 0.5592
H93? H 0.1161 1.0177 0.5466
H94? H 0.3109 1.0792 0.6379
H95? H 0.2140 1.0132 0.6738
loop_
_geom_bond_atom_site_label_1
_geom_bond_atom_site_label_2
_geom_bond_site_symmetry_1
_geom_bond_site_symmetry_2
Rb1 N1 1_555 1_555
C1 H1 1_555 1_555
P1 C1 1_555 1_555
C2 P1 1_555 1_555
C3 C2 1_555 1_555
H2 C3 1_555 1_555
C4 C3 1_555 1_555
H3 C4 1_555 1_555
C5 C4 1_555 1_555
H4 C5 1_555 1_555
C6 C5 1_555 1_555
H5 C6 1_555 1_555
C7 C2 1_555 1_555
H6 C7 1_555 1_555
C8 P1 1_555 1_555
C9 C8 1_555 1_555
H7 C9 1_555 1_555
C10 C9 1_555 1_555
H8 C10 1_555 1_555
C11 C10 1_555 1_555
H9 C11 1_555 1_555
C12 C11 1_555 1_555
H10 C12 1_555 1_555
C13 C8 1_555 1_555
H11 C13 1_555 1_555
N1 P1 1_555 1_555
C14 N1 1_555 1_555
C15 C14 1_555 1_555
C16 C15 1_555 1_555
H12 C16 1_555 1_555
C17 C16 1_555 1_555
H13 C17 1_555 1_555
C18 C17 1_555 1_555
H14 C18 1_555 1_555
C19 C14 1_555 1_555
C20 C19 1_555 1_555
H15 C20 1_555 1_555
C21 C20 1_555 1_555
H16 C21 1_555 1_555
H17 C21 1_555 1_555
H18 C21 1_555 1_555
C22 C20 1_555 1_555
H19 C22 1_555 1_555
H20 C22 1_555 1_555
H21 C22 1_555 1_555
C23 C15 1_555 1_555
H22 C23 1_555 1_555
C24 C23 1_555 1_555
H23 C24 1_555 1_555
H24 C24 1_555 1_555
H25 C24 1_555 1_555
C25 C23 1_555 1_555
H26 C25 1_555 1_555
H27 C25 1_555 1_555
H28 C25 1_555 1_555
P2 C1 1_555 1_555
C26 P2 1_555 1_555
C27 C26 1_555 1_555
H29 C27 1_555 1_555
C28 C27 1_555 1_555
H30 C28 1_555 1_555
C29 C28 1_555 1_555
H31 C29 1_555 1_555
C30 C29 1_555 1_555
H32 C30 1_555 1_555
C31 C26 1_555 1_555
H33 C31 1_555 1_555
C32 P2 1_555 1_555
C33 C32 1_555 1_555
H34 C33 1_555 1_555
C34 C33 1_555 1_555
H35 C34 1_555 1_555
C35 C34 1_555 1_555
H36 C35 1_555 1_555
C36 C35 1_555 1_555
H37 C36 1_555 1_555
C37 C32 1_555 1_555
H38 C37 1_555 1_555
N2 Rb1 1_555 1_555
C38 N2 1_555 1_555
C39 C38 1_555 1_555
C40 C39 1_555 1_555
H39 C40 1_555 1_555
C41 C40 1_555 1_555
H40 C41 1_555 1_555
C42 C41 1_555 1_555
H41 C42 1_555 1_555
C43 C38 1_555 1_555
C44 C39 1_555 1_555
H42 C44 1_555 1_555
C45 C44 1_555 1_555
H43 C45 1_555 1_555
H44 C45 1_555 1_555
H45 C45 1_555 1_555
C46 C44 1_555 1_555
H46 C46 1_555 1_555
H47 C46 1_555 1_555
H48 C46 1_555 1_555
C47 C43 1_555 1_555
H49 C47 1_555 1_555
C48 C47 1_555 1_555
H50 C48 1_555 1_555
H51 C48 1_555 1_555
H52 C48 1_555 1_555
C49 C47 1_555 1_555
H53 C49 1_555 1_555
H54 C49 1_555 1_555
H55 C49 1_555 1_555
O1 Rb1 1_555 1_555
C50 O1 1_555 1_555
H56 C50 1_555 1_555
H57 C50 1_555 1_555
C51 C50 1_555 1_555
H58 C51 1_555 1_555
H59 C51 1_555 1_555
C52 C51 1_555 1_555
H60 C52 1_555 1_555
H61 C52 1_555 1_555
C53 O1 1_555 1_555
H62 C53 1_555 1_555
H63 C53 1_555 1_555
O2 Rb1 1_555 1_555
C54 O2 1_555 1_555
H64 C54 1_555 1_555
H65 C54 1_555 1_555
C55 C54 1_555 1_555
H66 C55 1_555 1_555
H67 C55 1_555 1_555
C56 C55 1_555 1_555
H68 C56 1_555 1_555
H69 C56 1_555 1_555
C57 O2 1_555 1_555
H70 C57 1_555 1_555
H71 C57 1_555 1_555
O3 Rb1 1_555 1_555
C58 O3 1_555 1_555
H72 C58 1_555 1_555
H73 C58 1_555 1_555
C59 C58 1_555 1_555
H74 C59 1_555 1_555
H75 C59 1_555 1_555
C60 C59 1_555 1_555
H76 C60 1_555 1_555
H77 C60 1_555 1_555
C61 O3 1_555 1_555
H78 C61 1_555 1_555
H79 C61 1_555 1_555
O4 C62 1_555 1_555
C62 H80 1_555 1_555
H81 C62 1_555 1_555
C63 C62 1_555 1_555
H82 C63 1_555 1_555
H83 C63 1_555 1_555
C64 C63 1_555 1_555
H84 C64 1_555 1_555
H85 C64 1_555 1_555
C65 O4 1_555 1_555
H86 C65 1_555 1_555
H87 C65 1_555 1_555
C6 C7 1_555 1_555
C12 C13 1_555 1_555
C18 C19 1_555 1_555
P2 N2 1_555 1_555
C30 C31 1_555 1_555
C36 C37 1_555 1_555
C42 C43 1_555 1_555
C52 C53 1_555 1_555
C56 C57 1_555 1_555
C60 C61 1_555 1_555
C64 C65 1_555 1_555

#END
