
#######################################################################
#
#                 Cambridge Crystallographic Data Centre
#                                CCDC 
#
#######################################################################
#
# If this CIF has been generated from an entry in the Cambridge 
# Structural Database, then it will include bibliographic, chemical, 
# crystal, experimental, refinement or atomic coordinate data resulting 
# from the CCDC's data processing and validation procedures.
#
#######################################################################

data_QEJBOZ
_chemical_formula_moiety         'C13 H7 Br2 N1 O1'
_chemical_name_systematic        7,9-dibromobenzo[h]quinolin-10-ol
_symmetry_cell_setting           monoclinic
_symmetry_space_group_name_H-M   'P 21/n'
_symmetry_Int_Tables_number      14
_space_group_name_Hall           '-P 2yn'
loop_
_symmetry_equiv_pos_site_id
_symmetry_equiv_pos_as_xyz
1 x,y,z
2 1/2-x,1/2+y,1/2-z
3 -x,-y,-z
4 1/2+x,1/2-y,1/2+z
_cell_length_a                   3.9573(4)
_cell_length_b                   18.0416(18)
_cell_length_c                   15.8210(16)
_cell_angle_alpha                90
_cell_angle_beta                 96.139(3)
_cell_angle_gamma                90
_cell_volume                     1123.08
_exptl_crystal_colour            orange
_exptl_crystal_description       parallelepiped
_cell_formula_units_Z            4
loop_
_atom_site_label
_atom_site_type_symbol
_atom_site_fract_x
_atom_site_fract_y
_atom_site_fract_z
Br1 Br 0.1118(2) 0.72568(4) 0.40081(5)
Br2 Br 0.0200(2) 0.64985(5) 0.05591(4)
O1 O 0.4785(13) 0.5801(3) 0.4233(3)
H1 H 0.56(2) 0.528(5) 0.429(6)
N1 N 0.7463(14) 0.4604(3) 0.3807(3)
C1 C 0.3801(16) 0.5928(3) 0.3411(4)
C2 C 0.2098(16) 0.6572(3) 0.3162(4)
C3 C 0.1032(16) 0.6729(4) 0.2318(4)
H2 H -0.0151 0.7164 0.2171
C4 C 0.1753(16) 0.6231(4) 0.1697(4)
C5 C 0.3490(15) 0.5571(3) 0.1896(4)
C6 C 0.4213(18) 0.5035(4) 0.1259(4)
H3 H 0.3470 0.5124 0.0691
C7 C 0.5925(19) 0.4414(4) 0.1473(4)
H4 H 0.6366 0.4084 0.1047
C8 C 0.7091(16) 0.4241(3) 0.2324(4)
C9 C 0.8891(19) 0.3587(3) 0.2583(4)
H5 H 0.9362 0.3235 0.2183
C10 C 0.9918(19) 0.3479(4) 0.3417(5)
H6 H 1.1158 0.3057 0.3587
C11 C 0.9139(19) 0.3995(4) 0.4024(4)
H7 H 0.9822 0.3904 0.4596
C12 C 0.6421(15) 0.4746(3) 0.2964(4)
C13 C 0.4586(15) 0.5424(3) 0.2768(4)
loop_
_geom_bond_atom_site_label_1
_geom_bond_atom_site_label_2
_geom_bond_site_symmetry_1
_geom_bond_site_symmetry_2
Br1 C2 1_555 1_555
Br2 C4 1_555 1_555
O1 H1 1_555 1_555
N1 C11 1_555 1_555
C1 O1 1_555 1_555
C2 C1 1_555 1_555
C3 C2 1_555 1_555
H2 C3 1_555 1_555
C4 C3 1_555 1_555
C5 C4 1_555 1_555
C6 C5 1_555 1_555
H3 C6 1_555 1_555
C7 C6 1_555 1_555
H4 C7 1_555 1_555
C8 C7 1_555 1_555
C9 C8 1_555 1_555
H5 C9 1_555 1_555
C10 C9 1_555 1_555
H6 C10 1_555 1_555
C11 C10 1_555 1_555
H7 C11 1_555 1_555
C12 N1 1_555 1_555
C13 C1 1_555 1_555
C5 C13 1_555 1_555
C8 C12 1_555 1_555
C12 C13 1_555 1_555

#END
