
#######################################################################
#
#                 Cambridge Crystallographic Data Centre
#                                CCDC 
#
#######################################################################
#
# If this CIF has been generated from an entry in the Cambridge 
# Structural Database, then it will include bibliographic, chemical, 
# crystal, experimental, refinement or atomic coordinate data resulting 
# from the CCDC's data processing and validation procedures.
#
#######################################################################

data_QEJBAI
_chemical_formula_moiety         'C16 H19 Br1 O3'
_chemical_name_systematic        
(S)-(-)-5-(p-Bromobenzoyl)-2,2-dimethyl-6,8-dioxanona-3,4-diene
_symmetry_cell_setting           monoclinic
_symmetry_space_group_name_H-M   'P 21'
_symmetry_Int_Tables_number      4
_space_group_name_Hall           'P 2yb'
loop_
_symmetry_equiv_pos_site_id
_symmetry_equiv_pos_as_xyz
1 x,y,z
2 -x,1/2+y,-z
_cell_length_a                   11.40(2)
_cell_length_b                   6.61(1)
_cell_length_c                   11.41(2)
_cell_angle_alpha                90
_cell_angle_beta                 97.07(1)
_cell_angle_gamma                90
_cell_volume                     853.252
_exptl_crystal_colour            yellow
_exptl_crystal_description       needle
_cell_formula_units_Z            2
loop_
_atom_site_label
_atom_site_type_symbol
_atom_site_fract_x
_atom_site_fract_y
_atom_site_fract_z
Br1 Br 0.2321(3) 0.0000 0.8442(2)
C1 C 0.3655(1) -0.1711(19) 0.8427(8)
C2 C 0.3566(11) -0.3719(20) 0.8066(8)
C3 C 0.4582(14) -0.4877(14) 0.8048(7)
C4 C 0.5686(11) -0.4026(20) 0.8390(8)
C5 C 0.5774(10) -0.2018(20) 0.8751(8)
C6 C 0.4759(13) -0.0860(14) 0.8769(8)
C7 C 0.6696(22) -0.5305(35) 0.8293(12)
O1 O 0.6641(20) -0.7234(27) 0.8551(10)
C8 C 0.7876(24) -0.4676(34) 0.7965(12)
O2 O 0.8736(23) -0.5991(24) 0.8200(11)
C9 C 0.7953(25) -0.2765(29) 0.7457(13)
C10 C 0.7839(22) -0.1138(30) 0.6929(13)
C11 C 0.7495(30) -0.0666(37) 0.5601(15)
C12 C 0.6617(33) 0.0684(43) 0.5432(18)
C13 C 0.7292(29) -0.2564(44) 0.4938(16)
C14 C 0.8708(27) 0.0495(43) 0.5203(17)
C15 C 0.9822(33) -0.5547(40) 0.7903(18)
O3 O 1.0612(26) -0.4218(25) 0.8555(15)
C16 C 1.0865(25) -0.4827(66) 0.9752(13)
H1 H 0.2827(12) -0.4289(29) 0.7838(12)
H2 H 0.4522(19) -0.6221(15) 0.7806(11)
H3 H 0.6513(12) -0.1448(29) 0.8980(12)
H4 H 0.4818(19) 0.0484(14) 0.9011(12)
H5 H 0.7983(22) -0.0003(30) 0.7407(13)
H6 H 0.6787(40) 0.1803(68) 0.5962(65)
H7 H 0.5890(30) 0.0057(49) 0.5580(76)
H8 H 0.6543(74) 0.116(13) 0.4632(33)
H9 H 0.6738(78) -0.338(10) 0.5295(69)
H10 H 0.8026(29) -0.3282(92) 0.4950(92)
H11 H 0.698(12) -0.2268(46) 0.4137(34)
H12 H 0.8489(33) 0.1791(76) 0.4865(74)
H13 H 0.9042(52) -0.0321(82) 0.4633(68)
H14 H 0.9279(47) 0.067(13) 0.5886(25)
H15 H 0.9701(33) -0.5025(40) 0.7103(18)
H16 H 1.0235(33) -0.6825(40) 0.7868(18)
H17 H 1.0148(30) -0.525(18) 1.0043(37)
H18 H 1.120(11) -0.371(10) 1.0216(25)
H19 H 1.1415(93) -0.593(17) 0.9808(21)
loop_
_geom_bond_atom_site_label_1
_geom_bond_atom_site_label_2
_geom_bond_site_symmetry_1
_geom_bond_site_symmetry_2
Br1 C1 1_555 1_555
C1 C2 1_555 1_555
C2 C3 1_555 1_555
C3 C4 1_555 1_555
C4 C5 1_555 1_555
C5 C6 1_555 1_555
C6 C1 1_555 1_555
C7 C4 1_555 1_555
O1 C7 1_555 1_555
C8 C7 1_555 1_555
O2 C8 1_555 1_555
C9 C8 1_555 1_555
C10 C9 1_555 1_555
C11 C10 1_555 1_555
C12 C11 1_555 1_555
C13 C11 1_555 1_555
C14 C11 1_555 1_555
C15 O2 1_555 1_555
O3 C15 1_555 1_555
C16 O3 1_555 1_555
H1 C2 1_555 1_555
H2 C3 1_555 1_555
H3 C5 1_555 1_555
H4 C6 1_555 1_555
H5 C10 1_555 1_555
H6 C12 1_555 1_555
H7 C12 1_555 1_555
H8 C12 1_555 1_555
H9 C13 1_555 1_555
H10 C13 1_555 1_555
H11 C13 1_555 1_555
H12 C14 1_555 1_555
H13 C14 1_555 1_555
H14 C14 1_555 1_555
H15 C15 1_555 1_555
H16 C15 1_555 1_555
H17 C16 1_555 1_555
H18 C16 1_555 1_555
H19 C16 1_555 1_555

#END
