
#######################################################################
#
#                 Cambridge Crystallographic Data Centre
#                                CCDC 
#
#######################################################################
#
# If this CIF has been generated from an entry in the Cambridge 
# Structural Database, then it will include bibliographic, chemical, 
# crystal, experimental, refinement or atomic coordinate data resulting 
# from the CCDC's data processing and validation procedures.
#
#######################################################################

data_QEJBUC
_chemical_formula_moiety         'C30 H43 N2 O5 S1 1+,C4 H3 O4 1-'
_chemical_name_systematic        
'(2S)-(-)-2-(3,5-Di-t-butyl-4-hydroxyphenyl)-3-(3-(N-methyl-N-(2-(3,4-(methylenedioxy)phenoxy)ethyl)ammonio)propyl)-1,3-thiazolidin-4-one hydrogen fumarate'
_chemical_properties_biological  
'Ca2+ antagonist with Ca2+ overload inhibition and antioxidant activity. Possible use in the treatment of ischemic heart diseases'
_symmetry_cell_setting           orthorhombic
_symmetry_space_group_name_H-M   'P 21 21 21'
_symmetry_Int_Tables_number      19
_space_group_name_Hall           'P 2ac 2ab'
loop_
_symmetry_equiv_pos_site_id
_symmetry_equiv_pos_as_xyz
1 x,y,z
2 1/2-x,-y,1/2+z
3 1/2+x,1/2-y,-z
4 -x,1/2+y,1/2-z
_cell_length_a                   11.863(2)
_cell_length_b                   25.798(2)
_cell_length_c                   11.348(2)
_cell_angle_alpha                90
_cell_angle_beta                 90
_cell_angle_gamma                90
_cell_volume                     3472.96
_exptl_crystal_colour            colorless
_chemical_melting_point          '143-144 deg.C'
_cell_formula_units_Z            4
_exptl_crystal_recrystallization_method 'hexane/ethyl acetate'
loop_
_atom_site_label
_atom_site_type_symbol
_atom_site_fract_x
_atom_site_fract_y
_atom_site_fract_z
S1 S 0.77226(6) 0.39123(3) 0.42950(6)
O1 O 0.9437(1) 0.36580(9) 0.1483(2)
O2 O 0.3385(1) 0.53224(7) 0.2784(2)
O3 O 0.8295(2) 0.13708(8) 0.0385(2)
O4 O 0.9850(3) 0.0675(1) 0.4026(2)
O5 O 1.0814(2) 0.00378(9) 0.3025(2)
N1 N 0.7612(1) 0.38110(7) 0.2012(2)
N2 N 0.6276(2) 0.24418(9) 0.0133(2)
C1 C 0.8721(2) 0.3728(1) 0.2231(2)
C2 C 0.8982(2) 0.3740(1) 0.3522(3)
C3 C 0.6827(2) 0.38155(9) 0.2993(2)
C4 C 0.5921(2) 0.42228(9) 0.2909(2)
C5 C 0.4805(2) 0.40694(9) 0.3009(2)
C6 C 0.3919(2) 0.44225(9) 0.2972(2)
C7 C 0.4207(2) 0.49457(9) 0.2829(2)
C8 C 0.5329(2) 0.51218(9) 0.2725(2)
C9 C 0.6165(2) 0.4745(1) 0.2766(2)
C10 C 0.2692(2) 0.4243(1) 0.3101(3)
C11 C 0.2612(2) 0.3655(1) 0.3205(4)
C12 C 0.1991(2) 0.4392(1) 0.2006(3)
C13 C 0.2187(2) 0.4473(1) 0.4236(3)
C14 C 0.5611(2) 0.5701(1) 0.2614(2)
C15 C 0.6875(2) 0.5796(1) 0.2552(3)
C16 C 0.5083(3) 0.5926(1) 0.1493(3)
C17 C 0.5157(3) 0.5997(1) 0.3699(3)
C18 C 0.7195(2) 0.3841(1) 0.0808(2)
C19 C 0.6427(2) 0.3403(1) 0.0452(2)
C20 C 0.7051(2) 0.2892(1) 0.0369(3)
C21 C 0.5523(3) 0.2538(1) -0.0904(4)
C22 C 0.6938(3) 0.1959(1) -0.0102(3)
C23 C 0.7598(2) 0.1753(1) 0.0924(3)
C24 C 0.8924(2) 0.1043(1) 0.1068(3)
C25 C 0.8984(3) 0.1083(1) 0.2272(3)
C26 C 0.9661(3) 0.0717(1) 0.2831(3)
C27 C 1.0229(2) 0.0345(1) 0.2243(3)
C28 C 1.0201(2) 0.0315(1) 0.1052(3)
C29 C 0.9525(2) 0.0669(1) 0.0455(3)
C30 C 1.0490(4) 0.0209(2) 0.4150(3)
O6 O 0.5896(4) 0.2428(1) 0.2775(3)
O7 O 0.4401(4) 0.2411(1) 0.1696(3)
O8 O 0.2236(6) 0.2572(2) 0.5396(4)
O9 O 0.3652(5) 0.2565(2) 0.6625(4)
C31 C 0.4833(7) 0.2430(1) 0.2668(4)
C32 C 0.4113(6) 0.2450(2) 0.3732(5)
C33 C 0.408(1) 0.2520(3) 0.4630(7)
C34 C 0.329(1) 0.2548(2) 0.5698(7)
loop_
_geom_bond_atom_site_label_1
_geom_bond_atom_site_label_2
_geom_bond_site_symmetry_1
_geom_bond_site_symmetry_2
S1 C2 1_555 1_555
O1 C1 1_555 1_555
O2 C7 1_555 1_555
O3 C23 1_555 1_555
O4 C26 1_555 1_555
O5 C27 1_555 1_555
O6 C31 1_555 1_555
O7 C31 1_555 1_555
O8 C34 1_555 1_555
O9 C34 1_555 1_555
N1 C1 1_555 1_555
N2 C20 1_555 1_555
C1 C2 1_555 1_555
C3 S1 1_555 1_555
C4 C3 1_555 1_555
C5 C4 1_555 1_555
C6 C5 1_555 1_555
C7 C6 1_555 1_555
C8 C7 1_555 1_555
C9 C4 1_555 1_555
C10 C6 1_555 1_555
C11 C10 1_555 1_555
C12 C10 1_555 1_555
C13 C10 1_555 1_555
C14 C8 1_555 1_555
C15 C14 1_555 1_555
C16 C14 1_555 1_555
C17 C14 1_555 1_555
C18 N1 1_555 1_555
C19 C18 1_555 1_555
C20 C19 1_555 1_555
C21 N2 1_555 1_555
C22 N2 1_555 1_555
C23 C22 1_555 1_555
C24 O3 1_555 1_555
C25 C24 1_555 1_555
C26 C25 1_555 1_555
C27 C26 1_555 1_555
C28 C27 1_555 1_555
C29 C24 1_555 1_555
C30 O4 1_555 1_555
C31 C32 1_555 1_555
C32 C33 1_555 1_555
C33 C34 1_555 1_555
O5 C30 1_555 1_555
N1 C3 1_555 1_555
C8 C9 1_555 1_555
C28 C29 1_555 1_555

#END
