
#######################################################################
#
#                 Cambridge Crystallographic Data Centre
#                                CCDC 
#
#######################################################################
#
# If this CIF has been generated from an entry in the Cambridge 
# Structural Database, then it will include bibliographic, chemical, 
# crystal, experimental, refinement or atomic coordinate data resulting 
# from the CCDC's data processing and validation procedures.
#
#######################################################################

data_QEJBEM
_chemical_formula_moiety         'C27 H41 N1 O4 Si1'
_chemical_name_systematic        
(-)-3-((t-Butyl(dimethyl)siloxy)methyl)-4-(2,2-dimethylpropylidene)-2-methyl-5-oxocyclopentenylN-(1-phenylethyl)carbamate
_symmetry_cell_setting           orthorhombic
_symmetry_space_group_name_H-M   'P 21 21 2'
_symmetry_Int_Tables_number      18
_space_group_name_Hall           'P 2 2ab'
loop_
_symmetry_equiv_pos_site_id
_symmetry_equiv_pos_as_xyz
1 x,y,z
2 -x,-y,z
3 1/2+x,1/2-y,-z
4 1/2-x,1/2+y,-z
_cell_length_a                   15.65(2)
_cell_length_b                   29.43(4)
_cell_length_c                   6.833(8)
_cell_angle_alpha                90
_cell_angle_beta                 90
_cell_angle_gamma                90
_cell_volume                     3147.14
_exptl_crystal_colour            colorless
_exptl_crystal_description       needle
_cell_formula_units_Z            4
loop_
_atom_site_label
_atom_site_type_symbol
_atom_site_fract_x
_atom_site_fract_y
_atom_site_fract_z
Si1 Si 0.7574(4) 0.2264(2) 0.3926(6)
O1 O 0.6732(8) 0.0336(4) -0.2281(16)
O2 O 0.4978(9) 0.0638(4) -0.1629(19)
O3 O 0.5115(8) 0.1032(4) -0.4539(16)
O4 O 0.7559(7) 0.1742(3) 0.3133(15)
C1 C 0.6572(16) 0.0690(7) -0.1389(26)
C2 C 0.5705(17) 0.0857(7) -0.0915(26)
C3 C 0.5708(12) 0.1255(7) 0.0159(25)
C4 C 0.6612(12) 0.1389(6) 0.0694(25)
C5 C 0.7160(14) 0.1020(7) -0.0342(26)
C6 C 0.4917(11) 0.1523(5) 0.0810(21)
C7 C 0.8031(15) 0.1027(5) -0.0340(27)
C8 C 0.6798(12) 0.1469(6) 0.2820(26)
C9 C 0.8699(14) 0.0708(9) -0.1166(40)
C10 C 0.8625(10) 0.0220(6) -0.0166(31)
C11 C 0.8639(13) 0.0672(7) -0.3303(35)
C12 C 0.9580(12) 0.0894(6) -0.0479(39)
C13 C 0.8742(14) 0.2419(8) 0.3975(39)
C14 C 0.9209(14) 0.2109(8) 0.5401(38)
C15 C 0.8862(14) 0.2923(7) 0.4465(33)
C16 C 0.9137(14) 0.2344(7) 0.1938(38)
C17 C 0.6947(15) 0.2645(6) 0.2215(24)
C18 C 0.7091(12) 0.2322(6) 0.6438(21)
C19 C 0.4781(11) 0.0723(7) -0.3605(35)
N1 N 0.4169(10) 0.0445(4) -0.4234(20)
C20 C 0.3785(12) 0.0472(6) -0.6205(26)
C21 C 0.3631(9) -0.0026(6) -0.7024(20)
C22 C 0.2966(15) 0.0741(7) -0.6336(45)
C23 C 0.2418(24) 0.0786(7) -0.4741(42)
C24 C 0.1641(26) 0.1034(11) -0.4895(52)
C25 C 0.1402(22) 0.1213(13) -0.6613(76)
C26 C 0.1945(25) 0.1191(9) -0.8237(49)
C27 C 0.2689(19) 0.0945(8) -0.8060(43)
H1 H 0.6733(12) 0.1674(6) 0.0071(25)
H2 H 0.4419(12) 0.1401(15) 0.0177(76)
H3 H 0.4983(22) 0.1837(7) 0.0459(87)
H4 H 0.4852(25) 0.1498(18) 0.2204(24)
H5 H 0.8272(15) 0.1275(5) 0.0392(27)
H6 H 0.6858(12) 0.1178(6) 0.3446(26)
H7 H 0.6324(12) 0.1626(6) 0.3397(26)
H8 H 0.8124(27) 0.0068(11) -0.0644(78)
H9 H 0.8584(42) 0.0255(6) 0.1228(31)
H10 H 0.9121(24) 0.0043(10) -0.0480(89)
H11 H 0.8114(24) 0.0524(21) -0.3650(35)
H12 H 0.9113(26) 0.0498(18) -0.3788(36)
H13 H 0.8652(42) 0.0971(7) -0.3870(36)
H14 H 0.9643(22) 0.1203(10) -0.0904(88)
H15 H 1.0028(12) 0.0713(16) -0.1032(91)
H16 H 0.9612(20) 0.0882(20) 0.0923(40)
H17 H 0.9673(30) 0.2273(10) 0.5991(77)
H18 H 0.9428(35) 0.1850(13) 0.4713(41)
H19 H 0.8820(18) 0.2010(19) 0.6401(64)
H20 H 0.9447(18) 0.3008(9) 0.425(10)
H21 H 0.8715(44) 0.2975(8) 0.5811(45)
H22 H 0.8498(37) 0.3103(7) 0.3641(81)
H23 H 0.9710(19) 0.2460(21) 0.1923(47)
H24 H 0.8801(27) 0.2500(19) 0.0973(40)
H25 H 0.9146(40) 0.2025(7) 0.1646(54)
H26 H 0.7280(22) 0.2704(19) 0.1062(53)
H27 H 0.6820(41) 0.2926(12) 0.2862(44)
H28 H 0.6424(24) 0.2497(12) 0.1852(79)
H29 H 0.7401(27) 0.2135(18) 0.7344(27)
H30 H 0.6505(16) 0.2228(20) 0.6402(28)
H31 H 0.7123(38) 0.2634(7) 0.6850(44)
H32 H 0.3987(10) 0.0238(4) -0.3449(20)
H33 H 0.4206(12) 0.0618(6) -0.7010(26)
H34 H 0.3239(35) -0.0014(7) -0.8103(69)
H35 H 0.3397(40) -0.0213(8) -0.6007(37)
H36 H 0.4165(12) -0.0152(10) -0.7456(88)
H37 H 0.2610(24) 0.0665(7) -0.3512(42)
H38 H 0.1297(26) 0.1073(11) -0.3798(52)
H39 H 0.0868(22) 0.1370(13) -0.6757(76)
H40 H 0.1793(25) 0.1354(9) -0.9404(49)
H41 H 0.3022(19) 0.0890(8) -0.9215(43)
loop_
_geom_bond_atom_site_label_1
_geom_bond_atom_site_label_2
_geom_bond_site_symmetry_1
_geom_bond_site_symmetry_2
Si1 O4 1_555 1_555
O1 C1 1_555 1_555
O2 C2 1_555 1_555
O3 C19 1_555 1_555
O4 C8 1_555 1_555
C1 C2 1_555 1_555
C2 C3 1_555 1_555
C3 C4 1_555 1_555
C4 C5 1_555 1_555
C5 C1 1_555 1_555
C6 C3 1_555 1_555
C7 C5 1_555 1_555
C8 C4 1_555 1_555
C9 C7 1_555 1_555
C10 C9 1_555 1_555
C11 C9 1_555 1_555
C12 C9 1_555 1_555
C13 Si1 1_555 1_555
C14 C13 1_555 1_555
C15 C13 1_555 1_555
C16 C13 1_555 1_555
C17 Si1 1_555 1_555
C18 Si1 1_555 1_555
C19 O2 1_555 1_555
N1 C19 1_555 1_555
C20 N1 1_555 1_555
C21 C20 1_555 1_555
C22 C20 1_555 1_555
C23 C22 1_555 1_555
C24 C23 1_555 1_555
C25 C24 1_555 1_555
C26 C25 1_555 1_555
C27 C22 1_555 1_555
H1 C4 1_555 1_555
H2 C6 1_555 1_555
H3 C6 1_555 1_555
H4 C6 1_555 1_555
H5 C7 1_555 1_555
H6 C8 1_555 1_555
H7 C8 1_555 1_555
H8 C10 1_555 1_555
H9 C10 1_555 1_555
H10 C10 1_555 1_555
H11 C11 1_555 1_555
H12 C11 1_555 1_555
H13 C11 1_555 1_555
H14 C12 1_555 1_555
H15 C12 1_555 1_555
H16 C12 1_555 1_555
H17 C14 1_555 1_555
H18 C14 1_555 1_555
H19 C14 1_555 1_555
H20 C15 1_555 1_555
H21 C15 1_555 1_555
H22 C15 1_555 1_555
H23 C16 1_555 1_555
H24 C16 1_555 1_555
H25 C16 1_555 1_555
H26 C17 1_555 1_555
H27 C17 1_555 1_555
H28 C17 1_555 1_555
H29 C18 1_555 1_555
H30 C18 1_555 1_555
H31 C18 1_555 1_555
H32 N1 1_555 1_555
H33 C20 1_555 1_555
H34 C21 1_555 1_555
H35 C21 1_555 1_555
H36 C21 1_555 1_555
H37 C23 1_555 1_555
H38 C24 1_555 1_555
H39 C25 1_555 1_555
H40 C26 1_555 1_555
H41 C27 1_555 1_555
C26 C27 1_555 1_555

#END
