
#######################################################################
#
#                 Cambridge Crystallographic Data Centre
#                                CCDC 
#
#######################################################################
#
# If this CIF has been generated from an entry in the Cambridge 
# Structural Database, then it will include bibliographic, chemical, 
# crystal, experimental, refinement or atomic coordinate data resulting 
# from the CCDC's data processing and validation procedures.
#
#######################################################################

data_QEJBIQ
_chemical_formula_moiety         'C20 H36 O1 Si2'
_chemical_name_systematic        
7-Methyl-2-((trimethylsilyl)methyl)-3-(trimethylsilyl)-1,2,4,5,5a,6,7,8-octahydro-9H-cyclopenta(c)inden-9-one
_symmetry_cell_setting           orthorhombic
_symmetry_space_group_name_H-M   'P 21 21 21'
_symmetry_Int_Tables_number      19
_space_group_name_Hall           'P 2ac 2ab'
loop_
_symmetry_equiv_pos_site_id
_symmetry_equiv_pos_as_xyz
1 x,y,z
2 1/2-x,-y,1/2+z
3 1/2+x,1/2-y,-z
4 -x,1/2+y,1/2-z
_cell_length_a                   6.779(3)
_cell_length_b                   10.946(7)
_cell_length_c                   30.86(3)
_cell_angle_alpha                90
_cell_angle_beta                 90
_cell_angle_gamma                90
_cell_volume                     2289.9
_exptl_crystal_colour            colorless
_exptl_crystal_description       column
_cell_formula_units_Z            4
loop_
_atom_site_label
_atom_site_type_symbol
_atom_site_fract_x
_atom_site_fract_y
_atom_site_fract_z
Si1 Si 0.8100(5) 1.0736(3) 0.2425(1)
Si2 Si 0.7782(5) 0.8015(3) 0.1059(1)
O1 O 0.7217(12) 1.2156(7) 0.0469(3)
C1 C 0.5496(17) 1.0137(9) 0.0857(3)
C2 C 0.4122(20) 0.9794(10) 0.0493(3)
C3 C 0.2472(19) 1.0696(9) 0.0500(3)
C4 C 0.2688(17) 1.1460(9) 0.0920(3)
C5 C 0.1757(18) 1.2713(11) 0.0933(4)
C6 C 0.2738(27) 1.3595(11) 0.0637(4)
C7 C 0.1885(28) 1.4864(12) 0.0659(4)
C8 C 0.5005(22) 1.3631(10) 0.0722(4)
C9 C 0.5878(19) 1.2370(11) 0.0701(4)
C10 C 0.4960(15) 1.1411(9) 0.0992(3)
C11 C 0.5719(16) 1.1511(8) 0.1453(3)
C12 C 0.7232(15) 1.0457(7) 0.1502(2)
C13 C 0.7173(19) 0.9868(8) 0.1959(3)
C14 C 0.6840(20) 1.2264(10) 0.2497(3)
C15 C 1.0790(20) 1.0978(13) 0.2355(5)
C16 C 0.7819(29) 0.9783(10) 0.2920(3)
C17 C 0.6733(16) 0.9576(8) 0.1132(3)
C18 C 0.7876(26) 0.7613(9) 0.0469(4)
C19 C 0.6355(21) 0.6864(10) 0.1351(4)
C20 C 1.0374(16) 0.8049(10) 0.1280(4)
H1 H 0.4913 0.9637 0.0240
H2 H 0.3736 0.9200 0.0491
H3 H 0.1333 1.0604 0.0458
H4 H 0.2842 1.1295 0.0270
H5 H 0.1912 1.0972 0.1192
H6 H 0.0224 1.2501 0.0796
H7 H 0.1652 1.2926 0.1156
H8 H 0.2466 1.3272 0.0418
H9 H 0.2364 1.5498 0.0402
H10 H 0.0638 1.4887 0.0613
H11 H 0.2018 1.5115 0.0915
H12 H 0.5986 1.4247 0.0693
H13 H 0.5054 1.3917 0.0978
H14 H 0.6008 1.2300 0.1557
H15 H 0.4781 1.1585 0.1739
H16 H 0.8557 1.0772 0.1455
H17 H 0.7696 0.9280 0.1939
H18 H 0.5764 0.9643 0.2019
H19 H 0.5712 1.1948 0.2558
H20 H 0.7570 1.2675 0.2725
H21 H 0.6816 1.2753 0.2229
H22 H 1.1036 1.1594 0.2570
H23 H 1.0690 1.1268 0.2146
H24 H 1.1670 1.0165 0.2390
H25 H 0.7979 1.0088 0.3210
H26 H 0.7188 0.8973 0.2891
H27 H 0.6373 1.0096 0.2945
H28 H 0.8432 0.8479 0.0443
H29 H 0.8157 0.7008 0.0364
H30 H 0.6468 0.7262 0.0382
H31 H 0.6908 0.6303 0.1424
H32 H 0.6357 0.7015 0.1681
H33 H 0.5027 0.6698 0.1231
H34 H 1.0721 0.7678 0.1094
H35 H 1.0543 0.7323 0.1504
H36 H 1.1058 0.8866 0.1328
loop_
_geom_bond_atom_site_label_1
_geom_bond_atom_site_label_2
_geom_bond_site_symmetry_1
_geom_bond_site_symmetry_2
Si1 C13 1_555 1_555
Si2 C17 1_555 1_555
O1 C9 1_555 1_555
C1 C2 1_555 1_555
C2 C3 1_555 1_555
C3 C4 1_555 1_555
C4 C5 1_555 1_555
C5 C6 1_555 1_555
C6 C7 1_555 1_555
C7 H9 1_555 1_555
C8 C6 1_555 1_555
C9 C8 1_555 1_555
C10 C1 1_555 1_555
C11 C10 1_555 1_555
C12 C11 1_555 1_555
C13 C12 1_555 1_555
C14 Si1 1_555 1_555
C15 Si1 1_555 1_555
C16 Si1 1_555 1_555
C17 C1 1_555 1_555
C18 Si2 1_555 1_555
C19 Si2 1_555 1_555
C20 Si2 1_555 1_555
H1 C2 1_555 1_555
H2 C2 1_555 1_555
H3 C3 1_555 1_555
H4 C3 1_555 1_555
H5 C4 1_555 1_555
H6 C5 1_555 1_555
H7 C5 1_555 1_555
H8 C6 1_555 1_555
H10 C7 1_555 1_555
H11 C7 1_555 1_555
H12 C8 1_555 1_555
H13 C8 1_555 1_555
H14 C11 1_555 1_555
H15 C11 1_555 1_555
H16 C12 1_555 1_555
H17 C13 1_555 1_555
H18 C13 1_555 1_555
H19 C14 1_555 1_555
H20 C14 1_555 1_555
H21 C14 1_555 1_555
H22 C15 1_555 1_555
H23 C15 1_555 1_555
H24 C15 1_555 1_555
H25 C16 1_555 1_555
H26 C16 1_555 1_555
H27 C16 1_555 1_555
H28 C18 1_555 1_555
H29 C18 1_555 1_555
H30 C18 1_555 1_555
H31 C19 1_555 1_555
H32 C19 1_555 1_555
H33 C19 1_555 1_555
H34 C20 1_555 1_555
H35 C20 1_555 1_555
H36 C20 1_555 1_555
C4 C10 1_555 1_555
C9 C10 1_555 1_555
C12 C17 1_555 1_555

#END
