
#######################################################################
#
#                 Cambridge Crystallographic Data Centre
#                                CCDC 
#
#######################################################################
#
# If this CIF has been generated from an entry in the Cambridge 
# Structural Database, then it will include bibliographic, chemical, 
# crystal, experimental, refinement or atomic coordinate data resulting 
# from the CCDC's data processing and validation procedures.
#
#######################################################################

data_QEJDEQ
_chemical_formula_moiety         'C32 H36,0.5(C6 H14)'
_chemical_name_systematic        
'2,7-Di-t-butyl-10b,10c-dimethyl-4-phenyl-10b,10c-dihydropyrene hexane solvate'
_symmetry_cell_setting           monoclinic
_symmetry_space_group_name_H-M   'P 21/n'
_symmetry_Int_Tables_number      14
_space_group_name_Hall           '-P 2yn'
loop_
_symmetry_equiv_pos_site_id
_symmetry_equiv_pos_as_xyz
1 x,y,z
2 1/2-x,1/2+y,1/2-z
3 -x,-y,-z
4 1/2+x,1/2-y,1/2+z
_cell_length_a                   14.2907(9)
_cell_length_b                   6.2072(4)
_cell_length_c                   30.942(2)
_cell_angle_alpha                90
_cell_angle_beta                 94.707(5)
_cell_angle_gamma                90
_cell_volume                     2735.46
_exptl_crystal_colour            colorless
_exptl_crystal_description       rod
_cell_formula_units_Z            4
loop_
_atom_site_label
_atom_site_type_symbol
_atom_site_fract_x
_atom_site_fract_y
_atom_site_fract_z
C1 C 0.2928(2) 0.5278(5) 0.31334(10)
H1 H 0.3114 0.6239 0.2917
C2 C 0.3602(2) 0.4673(5) 0.34719(11)
C3 C 0.3324(2) 0.3333(5) 0.37987(10)
H2 H 0.3776 0.2959 0.4029
C4 C 0.2417(2) 0.2510(5) 0.38063(10)
C5 C 0.2109(2) 0.1221(5) 0.41362(10)
C6 C 0.1182(2) 0.0446(5) 0.41128(10)
H3 H 0.1011 -0.0531 0.4329
C7 C 0.0505(2) 0.1043(5) 0.37884(11)
C8 C -0.0409(2) 0.0256(5) 0.37478(11)
H4 H -0.0602 -0.0684 0.3966
C9 C -0.1057(2) 0.0781(5) 0.34024(11)
C10 C -0.0774(2) 0.2179(5) 0.30784(11)
H5 H -0.1215 0.2514 0.2842
C11 C 0.0104(2) 0.3082(5) 0.30859(10)
C12 C 0.0422(2) 0.4415(5) 0.27619(11)
H6 H -0.0007 0.4812 0.2524
C13 C 0.1331(2) 0.5174(5) 0.27746(10)
H7 H 0.1498 0.6147 0.2557
C14 C 0.2018(2) 0.4545(5) 0.31013(10)
C15 C 0.1770(3) 0.2686(8) 0.33916(14)
C16 C 0.1905(4) 0.0552(7) 0.31298(13)
H8 H 0.1721 -0.0686 0.3300
H9 H 0.2565 0.0407 0.3071
H10 H 0.1512 0.0603 0.2855
C17 C 0.0744(3) 0.2920(8) 0.35032(15)
C18 C 0.0614(4) 0.5021(7) 0.37649(14)
H11 H 0.0801 0.6263 0.3597
H12 H 0.1005 0.4955 0.4040
H13 H -0.0047 0.5169 0.3823
C19 C 0.4605(2) 0.5539(5) 0.34718(10)
C20 C 0.5025(2) 0.4825(6) 0.30537(11)
H14 H 0.5028 0.3248 0.3038
H15 H 0.5669 0.5365 0.3054
H16 H 0.4645 0.5407 0.2802
C21 C 0.4587(2) 0.8008(6) 0.34937(12)
H17 H 0.4313 0.8462 0.3759
H18 H 0.4208 0.8575 0.3241
H19 H 0.5229 0.8564 0.3495
C22 C 0.5244(2) 0.4696(6) 0.38541(11)
H20 H 0.4996 0.5143 0.4126
H21 H 0.5877 0.5285 0.3840
H22 H 0.5269 0.3120 0.3842
C23 C -0.2039(2) -0.0196(6) 0.33613(12)
C24 C -0.2216(4) -0.1704(10) 0.37377(19)
H23 H -0.1748 -0.2864 0.3754
H24 H -0.2846 -0.2325 0.3690
H25 H -0.2165 -0.0890 0.4010
C25 C -0.2761(4) 0.1567(10) 0.3327(2)
H26 H -0.3389 0.0933 0.3282
H27 H -0.2649 0.2505 0.3082
H28 H -0.2715 0.2414 0.3595
C26 C -0.2119(4) -0.1605(10) 0.29493(19)
H29 H -0.2013 -0.0713 0.2697
H30 H -0.2748 -0.2243 0.2911
H31 H -0.1647 -0.2753 0.2978
C27 C 0.2765(2) 0.0576(6) 0.45176(11)
C28 C 0.2990(3) 0.2024(7) 0.48475(11)
H32 H 0.2733 0.3436 0.4831
C29 C 0.3591(3) 0.1435(8) 0.52047(13)
H33 H 0.3743 0.2443 0.5431
C30 C 0.3964(3) -0.0604(9) 0.52303(14)
H34 H 0.4375 -0.1006 0.5474
C31 C 0.3745(3) -0.2057(8) 0.49056(14)
H35 H 0.4007 -0.3464 0.4923
C32 C 0.3144(3) -0.1481(6) 0.45530(13)
H36 H 0.2986 -0.2508 0.4331
C33 C 0.1555(9) 0.5988(19) 0.5470(3)
H37 H 0.2183 0.6633 0.5488
H38 H 0.1606 0.4430 0.5426
H39 H 0.1263 0.6266 0.5740
C34 C 0.1049(7) 0.6822(16) 0.5150(3)
H40 H 0.1417 0.6691 0.4894
H41 H 0.1007 0.8381 0.5213
C35 C -0.0088(9) 0.5979(13) 0.4984(3)
H42 H -0.0555 0.6460 0.5182
H43 H -0.0288 0.6417 0.4683
C33B C -0.1555(9) 0.4012(19) 0.4530(3)
H37B H -0.2183 0.3367 0.4512
H38B H -0.1606 0.5570 0.4574
H39B H -0.1263 0.3734 0.4260
C34B C -0.1049(7) 0.3178(16) 0.4850(3)
H40B H -0.1417 0.3309 0.5106
H41B H -0.1007 0.1619 0.4787
C35B C 0.0088(9) 0.4021(13) 0.5016(3)
H42B H 0.0555 0.3540 0.4818
H43B H 0.0288 0.3583 0.5317
C36? C 0.1611(15) 0.372(4) 0.3522(7)
C37? C 0.1203(17) 0.548(3) 0.3806(6)
C38? C 0.0923(16) 0.201(4) 0.3382(7)
C39? C 0.1332(16) 0.016(3) 0.3109(6)
C40? C -0.2747(11) 0.076(3) 0.3003(6)
C41? C -0.2017(11) -0.256(3) 0.3328(6)
C42? C -0.2544(11) 0.043(3) 0.3797(5)
H44? H 0.1703 0.6486 0.3908
H45? H 0.0941 0.4809 0.4056
H46? H 0.0707 0.6270 0.3635
H47? H 0.0840 -0.0903 0.3032
H48? H 0.1855 -0.0534 0.3280
H49? H 0.1557 0.0767 0.2844
H50? H -0.2566 0.0326 0.2717
H51? H -0.2742 0.2336 0.3024
H52? H -0.3379 0.0223 0.3042
H53? H -0.1829 -0.2977 0.3042
H54? H -0.2643 -0.3143 0.3366
H55? H -0.1566 -0.3144 0.3554
H56? H -0.2156 -0.0078 0.4053
H57? H -0.3163 -0.0255 0.3788
H58? H -0.2616 0.1996 0.3813
loop_
_geom_bond_atom_site_label_1
_geom_bond_atom_site_label_2
_geom_bond_site_symmetry_1
_geom_bond_site_symmetry_2
C1 H1 1_555 1_555
C2 C1 1_555 1_555
C3 C2 1_555 1_555
H2 C3 1_555 1_555
C4 C3 1_555 1_555
C5 C4 1_555 1_555
C6 C5 1_555 1_555
H3 C6 1_555 1_555
C7 C6 1_555 1_555
C8 C7 1_555 1_555
H4 C8 1_555 1_555
C9 C8 1_555 1_555
C10 C9 1_555 1_555
H5 C10 1_555 1_555
C11 C10 1_555 1_555
C12 C11 1_555 1_555
H6 C12 1_555 1_555
C13 C12 1_555 1_555
H7 C13 1_555 1_555
C14 C1 1_555 1_555
C15 C4 1_555 1_555
C16 C15 1_555 1_555
H8 C16 1_555 1_555
H9 C16 1_555 1_555
H10 C16 1_555 1_555
C17 C7 1_555 1_555
C18 C17 1_555 1_555
H11 C18 1_555 1_555
H12 C18 1_555 1_555
H13 C18 1_555 1_555
C19 C2 1_555 1_555
C20 C19 1_555 1_555
H14 C20 1_555 1_555
H15 C20 1_555 1_555
H16 C20 1_555 1_555
C21 C19 1_555 1_555
H17 C21 1_555 1_555
H18 C21 1_555 1_555
H19 C21 1_555 1_555
C22 C19 1_555 1_555
H20 C22 1_555 1_555
H21 C22 1_555 1_555
H22 C22 1_555 1_555
C23 C9 1_555 1_555
C24 C23 1_555 1_555
H23 C24 1_555 1_555
H24 C24 1_555 1_555
H25 C24 1_555 1_555
C25 C23 1_555 1_555
H26 C25 1_555 1_555
H27 C25 1_555 1_555
H28 C25 1_555 1_555
C26 C23 1_555 1_555
H29 C26 1_555 1_555
H30 C26 1_555 1_555
H31 C26 1_555 1_555
C27 C5 1_555 1_555
C28 C27 1_555 1_555
H32 C28 1_555 1_555
C29 C28 1_555 1_555
H33 C29 1_555 1_555
C30 C29 1_555 1_555
H34 C30 1_555 1_555
C31 C30 1_555 1_555
H35 C31 1_555 1_555
C32 C27 1_555 1_555
H36 C32 1_555 1_555
C33 H37 1_555 1_555
H38 C33 1_555 1_555
H39 C33 1_555 1_555
C34 C33 1_555 1_555
H40 C34 1_555 1_555
H41 C34 1_555 1_555
C35 C34 1_555 1_555
H42 C35 1_555 1_555
H43 C35 1_555 1_555
C33B H37B 1_555 1_555
H38B C33B 1_555 1_555
H39B C33B 1_555 1_555
C34B C33B 1_555 1_555
H40B C34B 1_555 1_555
H41B C34B 1_555 1_555
C35B C35 1_555 1_555
H42B C35B 1_555 1_555
H43B C35B 1_555 1_555
C11 C17 1_555 1_555
C13 C14 1_555 1_555
C14 C15 1_555 1_555
C15 C17 1_555 1_555
C31 C32 1_555 1_555
C34B C35B 1_555 1_555

#END
