
#######################################################################
#
#                 Cambridge Crystallographic Data Centre
#                                CCDC 
#
#######################################################################
#
# If this CIF has been generated from an entry in the Cambridge 
# Structural Database, then it will include bibliographic, chemical, 
# crystal, experimental, refinement or atomic coordinate data resulting 
# from the CCDC's data processing and validation procedures.
#
#######################################################################

data_QEJDUH
_chemical_formula_moiety         'C13 H22 O4'
_chemical_name_systematic        
3a-(1,3-dioxolan-2-yl)-6a-ethyloctahydropentalene-1,2-diol
_symmetry_cell_setting           triclinic
_symmetry_space_group_name_H-M   'P -1'
_symmetry_Int_Tables_number      2
_space_group_name_Hall           '-P 1'
loop_
_symmetry_equiv_pos_site_id
_symmetry_equiv_pos_as_xyz
1 x,y,z
2 -x,-y,-z
_cell_length_a                   9.8273(9)
_cell_length_b                   11.3792(11)
_cell_length_c                   11.6772(11)
_cell_angle_alpha                75.657(5)
_cell_angle_beta                 86.929(5)
_cell_angle_gamma                87.177(4)
_cell_volume                     1262.43
_exptl_crystal_colour            colorless
_exptl_crystal_description       needle
_cell_formula_units_Z            4
loop_
_atom_site_label
_atom_site_type_symbol
_atom_site_fract_x
_atom_site_fract_y
_atom_site_fract_z
O1 O 0.27403(16) 0.82248(15) 0.72478(15)
O2 O 0.21230(17) 0.65648(15) 0.86583(14)
O3 O 0.11304(15) 0.41477(12) 0.65301(14)
H1 H 0.082737 0.429982 0.586642
O4 O -0.12051(14) 0.55009(13) 0.60105(12)
H2 H -0.203750 0.545947 0.607361
C1 C 0.1596(2) 0.7600(2) 0.7843(2)
H3 H 0.107360 0.812026 0.827709
C2 C 0.0696(2) 0.72956(17) 0.69470(17)
C3 C 0.1423(2) 0.63379(18) 0.63845(18)
H4 H 0.125097 0.650575 0.554822
H5 H 0.239936 0.631960 0.647777
C4 C 0.0822(2) 0.51480(17) 0.70484(18)
H6 H 0.116193 0.493626 0.785025
C5 C -0.0689(2) 0.54774(17) 0.71310(17)
H7 H -0.115068 0.487208 0.775656
C6 C -0.0739(2) 0.67256(17) 0.74496(17)
C7 C -0.1801(2) 0.76346(19) 0.67640(19)
H8 H -0.256923 0.721175 0.659322
H9 H -0.213251 0.820265 0.722142
C8 C -0.1072(2) 0.8295(2) 0.5628(2)
H10 H -0.100615 0.780689 0.505196
H11 H -0.153459 0.906485 0.528565
C9 C 0.0316(2) 0.84795(19) 0.6031(2)
H12 H 0.028639 0.916528 0.638805
H13 H 0.097773 0.862676 0.536913
C10 C -0.1022(2) 0.6517(2) 0.87960(19)
H14 H -0.038689 0.589221 0.920162
H15 H -0.085506 0.725891 0.902451
C11 C -0.2472(3) 0.6140(3) 0.9203(2)
H16 H -0.310414 0.679105 0.887432
H17 H -0.255721 0.595919 1.005104
H18 H -0.266597 0.543326 0.894030
C12 C 0.3751(15) 0.7988(11) 0.8131(13)
H19 H 0.359950 0.851132 0.867064
H20 H 0.466450 0.809245 0.777334
C13 C 0.352(2) 0.6672(12) 0.8756(15)
H21 H 0.405335 0.612761 0.836833
H22 H 0.376076 0.650006 0.957769
O5 O 0.74359(16) 0.17652(16) 0.87046(14)
O6 O 0.83462(16) 0.08757(16) 0.72901(16)
O7 O 0.60119(15) 0.51937(12) 0.65652(13)
H27 H 0.567989 0.537151 0.591227
O8 O 0.38963(13) 0.40354(12) 0.60210(12)
H28 H 0.306153 0.407196 0.608926
C16 C 0.7100(2) 0.1124(2) 0.7867(2)
H29 H 0.669042 0.035762 0.828096
C17 C 0.6131(2) 0.18431(17) 0.69537(17)
C18 C 0.5963(2) 0.1108(2) 0.6030(2)
H30 H 0.665220 0.130991 0.539361
H31 H 0.603817 0.024394 0.639110
C19 C 0.4551(2) 0.1466(2) 0.5572(2)
H32 H 0.422009 0.086434 0.520507
H33 H 0.454387 0.224923 0.500463
C20 C 0.3705(2) 0.15195(19) 0.66864(19)
H34 H 0.345585 0.071139 0.712161
H35 H 0.287782 0.201428 0.648950
C21 C 0.4609(2) 0.20867(17) 0.74240(17)
C22 C 0.4306(2) 0.1568(2) 0.87560(19)
H36 H 0.466836 0.073813 0.897714
H37 H 0.477774 0.203421 0.919272
C23 C 0.2796(3) 0.1581(3) 0.9120(2)
H38 H 0.239273 0.237053 0.879243
H39 H 0.268984 0.139357 0.996692
H40 H 0.235174 0.098613 0.882932
C24 C 0.4442(2) 0.34931(17) 0.71437(17)
H41 H 0.389934 0.374680 0.777536
C25 C 0.5887(2) 0.39214(17) 0.70803(18)
H42 H 0.621475 0.373918 0.788578
C26 C 0.6669(2) 0.31081(18) 0.64155(18)
H43 H 0.764081 0.311867 0.652057
H44 H 0.650328 0.336350 0.557714
C27 C 0.888(2) 0.1731(15) 0.8767(16)
H45 H 0.915185 0.149473 0.958111
H46 H 0.925058 0.251258 0.838472
C28 C 0.9339(15) 0.0786(12) 0.8114(13)
H47 H 1.023042 0.095836 0.772615
H48 H 0.937665 -0.001747 0.864608
C14? C 0.397(2) 0.7752(17) 0.7796(16)
H23? H 0.449361 0.838978 0.795802
H24? H 0.452820 0.731818 0.731342
C15? C 0.344(3) 0.689(2) 0.894(2)
H25? H 0.404569 0.618180 0.916589
H26? H 0.335886 0.729815 0.958247
C29? C 0.880(3) 0.145(2) 0.8982(19)
H49? H 0.885667 0.073076 0.962779
H50? H 0.922052 0.211057 0.920764
C30? C 0.9486(18) 0.1223(15) 0.7858(15)
H51? H 0.989402 0.194941 0.737393
H52? H 1.017884 0.057420 0.803371
loop_
_geom_bond_atom_site_label_1
_geom_bond_atom_site_label_2
_geom_bond_site_symmetry_1
_geom_bond_site_symmetry_2
O1 C1 1_555 1_555
O2 C1 1_555 1_555
O3 H1 1_555 1_555
O4 H2 1_555 1_555
C1 H3 1_555 1_555
C2 C1 1_555 1_555
C3 C2 1_555 1_555
H4 C3 1_555 1_555
H5 C3 1_555 1_555
C4 O3 1_555 1_555
H6 C4 1_555 1_555
C5 O4 1_555 1_555
H7 C5 1_555 1_555
C6 C2 1_555 1_555
C7 C6 1_555 1_555
H8 C7 1_555 1_555
H9 C7 1_555 1_555
C8 C7 1_555 1_555
H10 C8 1_555 1_555
H11 C8 1_555 1_555
C9 C2 1_555 1_555
H12 C9 1_555 1_555
H13 C9 1_555 1_555
C10 C6 1_555 1_555
H14 C10 1_555 1_555
H15 C10 1_555 1_555
C11 C10 1_555 1_555
H16 C11 1_555 1_555
H17 C11 1_555 1_555
H18 C11 1_555 1_555
C12 O1 1_555 1_555
H19 C12 1_555 1_555
H20 C12 1_555 1_555
C13 O2 1_555 1_555
H21 C13 1_555 1_555
H22 C13 1_555 1_555
O5 C16 1_555 1_555
O6 C16 1_555 1_555
O7 H27 1_555 1_555
O8 H28 1_555 1_555
C16 H29 1_555 1_555
C17 C16 1_555 1_555
C18 C17 1_555 1_555
H30 C18 1_555 1_555
H31 C18 1_555 1_555
C19 C18 1_555 1_555
H32 C19 1_555 1_555
H33 C19 1_555 1_555
C20 C19 1_555 1_555
H34 C20 1_555 1_555
H35 C20 1_555 1_555
C21 C17 1_555 1_555
C22 C21 1_555 1_555
H36 C22 1_555 1_555
H37 C22 1_555 1_555
C23 C22 1_555 1_555
H38 C23 1_555 1_555
H39 C23 1_555 1_555
H40 C23 1_555 1_555
C24 O8 1_555 1_555
H41 C24 1_555 1_555
C25 O7 1_555 1_555
H42 C25 1_555 1_555
C26 C17 1_555 1_555
H43 C26 1_555 1_555
H44 C26 1_555 1_555
C27 O5 1_555 1_555
H45 C27 1_555 1_555
H46 C27 1_555 1_555
C28 O6 1_555 1_555
H47 C28 1_555 1_555
H48 C28 1_555 1_555
C3 C4 1_555 1_555
C4 C5 1_555 1_555
C5 C6 1_555 1_555
C8 C9 1_555 1_555
C12 C13 1_555 1_555
C20 C21 1_555 1_555
C21 C24 1_555 1_555
C24 C25 1_555 1_555
C25 C26 1_555 1_555
C27 C28 1_555 1_555

#END
