
#######################################################################
#
#                 Cambridge Crystallographic Data Centre
#                                CCDC 
#
#######################################################################
#
# If this CIF has been generated from an entry in the Cambridge 
# Structural Database, then it will include bibliographic, chemical, 
# crystal, experimental, refinement or atomic coordinate data resulting 
# from the CCDC's data processing and validation procedures.
#
#######################################################################

data_QEJGUK
_chemical_formula_moiety         'C57 H63 N3 O3'
_chemical_name_systematic        
1,3,5-tris[4-(3-hexyloxy-5-pyridyl)phenyl]benzene
_symmetry_cell_setting           triclinic
_symmetry_space_group_name_H-M   'P -1'
_symmetry_Int_Tables_number      2
_space_group_name_Hall           '-P 1'
loop_
_symmetry_equiv_pos_site_id
_symmetry_equiv_pos_as_xyz
1 x,y,z
2 -x,-y,-z
_cell_length_a                   8.139(3)
_cell_length_b                   16.270(7)
_cell_length_c                   17.795(4)
_cell_angle_alpha                76.53(3)
_cell_angle_beta                 81.14(3)
_cell_angle_gamma                87.74(3)
_cell_volume                     2264.26
_exptl_crystal_colour            colorless
_exptl_crystal_description       plate
_cell_formula_units_Z            2
_exptl_crystal_recrystallization_method acetonitrile
_exptl_crystal_preparation       
'Crystals were grown by cooling a hot, saturated acetonitrile solution to RT.'
loop_
_atom_site_label
_atom_site_type_symbol
_atom_site_fract_x
_atom_site_fract_y
_atom_site_fract_z
O1 O 0.4481(11) 0.2790(7) 0.2050(5)
O2 O -0.1981(11) -0.4101(6) 1.2731(5)
O3 O 1.5593(11) 0.2590(6) 0.7463(4)
N1 N 0.0912(12) 0.1474(8) 0.2892(5)
N2 N -0.3819(12) -0.3818(7) 1.0946(5)
N3 N 1.4056(12) 0.1292(8) 0.9411(5)
C1 C 0.4164(14) -0.0061(9) 0.7012(7)
C2 C 0.3124(14) -0.0624(9) 0.7581(6)
H1 H 0.2140 -0.0820 0.7455
C3 C 0.3538(14) -0.0907(9) 0.8354(7)
C4 C 0.4984(13) -0.0631(9) 0.8506(7)
H2 H 0.5274 -0.0829 0.9015
C5 C 0.6042(14) -0.0081(9) 0.7963(7)
C6 C 0.5599(13) 0.0229(9) 0.7195(6)
H3 H 0.6286 0.0630 0.6815
C7 C 0.3717(15) 0.0302(11) 0.6227(7)
C8 C 0.4079(14) 0.1124(10) 0.5840(6)
H4 H 0.4636 0.1462 0.6091
C9 C 0.3677(14) 0.1491(10) 0.5103(6)
H5 H 0.3867 0.2075 0.4879
C10 C 0.2982(15) 0.0977(11) 0.4698(7)
C11 C 0.2556(14) 0.0145(10) 0.5092(6)
H6 H 0.1985 -0.0187 0.4841
C12 C 0.2931(14) -0.0212(10) 0.5830(6)
H7 H 0.2675 -0.0786 0.6070
C13 C 0.1262(14) 0.1151(9) 0.3626(6)
H8 H 0.0502 0.0762 0.3979
C14 C 0.2687(16) 0.1363(10) 0.3884(7)
C15 C 0.3825(15) 0.1883(9) 0.3364(6)
H9 H 0.4848 0.2001 0.3511
C16 C 0.3475(16) 0.2234(10) 0.2624(8)
C17 C 0.2034(15) 0.1985(10) 0.2418(7)
H10 H 0.1839 0.2200 0.1896
C18 C 0.6012(16) 0.3007(10) 0.2261(7)
H11 H 0.6669 0.2488 0.2422
H12 H 0.5771 0.3279 0.2709
C19 C 0.6995(16) 0.3596(9) 0.1585(7)
H13 H 0.6359 0.4127 0.1442
H14 H 0.7184 0.3336 0.1129
C20 C 0.8649(16) 0.3794(10) 0.1789(7)
H15 H 0.9230 0.3254 0.1967
H16 H 0.8433 0.4071 0.2235
C21 C 0.9817(17) 0.4359(10) 0.1131(7)
H17 H 1.0084 0.4065 0.0699
H18 H 0.9208 0.4883 0.0931
C22 C 1.1414(16) 0.4603(10) 0.1333(7)
H19 H 1.1155 0.4948 0.1727
H20 H 1.1980 0.4082 0.1579
C23 C 1.2586(16) 0.5082(11) 0.0668(7)
H21 H 1.2787 0.4769 0.0254
H22 H 1.3640 0.5159 0.0845
H23 H 1.2106 0.5637 0.0464
C24 C 0.2318(15) -0.1435(9) 0.8936(6)
C25 C 0.0650(14) -0.1418(9) 0.8915(6)
H24 H 0.0240 -0.1029 0.8499
C26 C -0.0481(15) -0.1934(9) 0.9467(6)
H25 H -0.1633 -0.1877 0.9430
C27 C 0.0064(15) -0.2552(9) 1.0092(6)
C28 C 0.1758(14) -0.2551(9) 1.0144(6)
H26 H 0.2163 -0.2919 1.0575
C29 C 0.2873(15) -0.2023(9) 0.9577(6)
H27 H 0.4024 -0.2056 0.9620
C30 C -0.2621(15) -0.3327(9) 1.0473(7)
H28 H -0.2786 -0.3133 0.9943
C31 C -0.1170(15) -0.3068(9) 1.0665(7)
C32 C -0.0989(15) -0.3342(9) 1.1448(6)
H29 H -0.0033 -0.3191 1.1631
C33 C -0.2221(15) -0.3839(10) 1.1959(7)
C34 C -0.3599(14) -0.4074(9) 1.1699(6)
H30 H -0.4411 -0.4425 1.2059
C35 C -0.3265(16) -0.4595(10) 1.3242(7)
H31 H -0.3444 -0.5111 1.3061
H32 H -0.4318 -0.4269 1.3262
C36 C -0.2706(17) -0.4831(12) 1.4056(8)
H33 H -0.3384 -0.5313 1.4383
H34 H -0.1533 -0.5022 1.3996
C37 C -0.2853(17) -0.4114(11) 1.4485(8)
H35 H -0.3986 -0.3867 1.4494
H36 H -0.2045 -0.3663 1.4211
C38 C -0.2495(19) -0.4475(12) 1.5344(8)
H37 H -0.3201 -0.4977 1.5583
H38 H -0.1320 -0.4662 1.5325
C39 C -0.2803(19) -0.3865(11) 1.5846(8)
H39 H -0.3974 -0.3672 1.5863
H40 H -0.2083 -0.3365 1.5614
C40 C -0.2467(17) -0.4237(10) 1.6672(7)
H41 H -0.3155 -0.4740 1.6899
H42 H -0.2740 -0.3817 1.6988
H43 H -0.1290 -0.4393 1.6662
C41 C 0.7588(14) 0.0245(9) 0.8108(7)
C42 C 0.7737(14) 0.0376(9) 0.8851(7)
H44 H 0.6828 0.0256 0.9263
C43 C 0.9234(14) 0.0687(9) 0.8981(7)
H45 H 0.9344 0.0713 0.9499
C44 C 1.0548(14) 0.0954(9) 0.8395(7)
C45 C 1.0372(14) 0.0824(9) 0.7645(7)
H46 H 1.1267 0.0960 0.7227
C46 C 0.8930(13) 0.0506(9) 0.7521(7)
H47 H 0.8840 0.0461 0.7006
C47 C 1.2644(15) 0.0999(9) 0.9253(7)
H48 H 1.1988 0.0601 0.9650
C48 C 1.2121(15) 0.1268(10) 0.8516(7)
C49 C 1.3145(14) 0.1796(9) 0.7933(7)
H49 H 1.2838 0.1970 0.7426
C50 C 1.4613(16) 0.2074(10) 0.8079(7)
C51 C 1.5018(16) 0.1812(9) 0.8831(7)
H50 H 1.6021 0.2011 0.8936
C52 C 1.7230(15) 0.2791(9) 0.7557(7)
H51 H 1.7834 0.2272 0.7775
H52 H 1.7177 0.3176 0.7917
C53 C 1.8089(17) 0.3210(11) 0.6768(8)
H53 H 1.9161 0.3443 0.6819
H54 H 1.7397 0.3686 0.6532
C54 C 1.8413(17) 0.2590(11) 0.6229(8)
H55 H 1.9550 0.2356 0.6251
H56 H 1.7622 0.2114 0.6428
C55 C 1.8240(18) 0.2984(10) 0.5380(8)
H57 H 1.7117 0.3237 0.5361
H58 H 1.9059 0.3446 0.5177
C56 C 1.8495(17) 0.2372(10) 0.4848(8)
H59 H 1.7700 0.1898 0.5055
H60 H 1.9634 0.2134 0.4845
C57 C 1.8245(16) 0.2798(10) 0.4007(7)
H61 H 1.7082 0.2975 0.3999
H62 H 1.8525 0.2397 0.3672
H63 H 1.8968 0.3293 0.3814
loop_
_geom_bond_atom_site_label_1
_geom_bond_atom_site_label_2
_geom_bond_site_symmetry_1
_geom_bond_site_symmetry_2
O1 C16 1_555 1_555
O2 C33 1_555 1_555
O3 C50 1_555 1_555
N1 C13 1_555 1_555
N2 C30 1_555 1_555
N3 C47 1_555 1_555
C1 C2 1_555 1_555
C2 H1 1_555 1_555
C3 C2 1_555 1_555
C4 C3 1_555 1_555
H2 C4 1_555 1_555
C5 C4 1_555 1_555
C6 C1 1_555 1_555
H3 C6 1_555 1_555
C7 C1 1_555 1_555
C8 C7 1_555 1_555
H4 C8 1_555 1_555
C9 C8 1_555 1_555
H5 C9 1_555 1_555
C10 C9 1_555 1_555
C11 C10 1_555 1_555
H6 C11 1_555 1_555
C12 C7 1_555 1_555
H7 C12 1_555 1_555
C13 H8 1_555 1_555
C14 C10 1_555 1_555
C15 C14 1_555 1_555
H9 C15 1_555 1_555
C16 C15 1_555 1_555
C17 N1 1_555 1_555
H10 C17 1_555 1_555
C18 O1 1_555 1_555
H11 C18 1_555 1_555
H12 C18 1_555 1_555
C19 C18 1_555 1_555
H13 C19 1_555 1_555
H14 C19 1_555 1_555
C20 C19 1_555 1_555
H15 C20 1_555 1_555
H16 C20 1_555 1_555
C21 C20 1_555 1_555
H17 C21 1_555 1_555
H18 C21 1_555 1_555
C22 C21 1_555 1_555
H19 C22 1_555 1_555
H20 C22 1_555 1_555
C23 C22 1_555 1_555
H21 C23 1_555 1_555
H22 C23 1_555 1_555
H23 C23 1_555 1_555
C24 C3 1_555 1_555
C25 C24 1_555 1_555
H24 C25 1_555 1_555
C26 C25 1_555 1_555
H25 C26 1_555 1_555
C27 C26 1_555 1_555
C28 C27 1_555 1_555
H26 C28 1_555 1_555
C29 C24 1_555 1_555
H27 C29 1_555 1_555
C30 H28 1_555 1_555
C31 C27 1_555 1_555
C32 C31 1_555 1_555
H29 C32 1_555 1_555
C33 C32 1_555 1_555
C34 N2 1_555 1_555
H30 C34 1_555 1_555
C35 O2 1_555 1_555
H31 C35 1_555 1_555
H32 C35 1_555 1_555
C36 C35 1_555 1_555
H33 C36 1_555 1_555
H34 C36 1_555 1_555
C37 C36 1_555 1_555
H35 C37 1_555 1_555
H36 C37 1_555 1_555
C38 C37 1_555 1_555
H37 C38 1_555 1_555
H38 C38 1_555 1_555
C39 C38 1_555 1_555
H39 C39 1_555 1_555
H40 C39 1_555 1_555
C40 C39 1_555 1_555
H41 C40 1_555 1_555
H42 C40 1_555 1_555
H43 C40 1_555 1_555
C41 C5 1_555 1_555
C42 C41 1_555 1_555
H44 C42 1_555 1_555
C43 C42 1_555 1_555
H45 C43 1_555 1_555
C44 C43 1_555 1_555
C45 C44 1_555 1_555
H46 C45 1_555 1_555
C46 C41 1_555 1_555
H47 C46 1_555 1_555
C47 H48 1_555 1_555
C48 C44 1_555 1_555
C49 C48 1_555 1_555
H49 C49 1_555 1_555
C50 C49 1_555 1_555
C51 N3 1_555 1_555
H50 C51 1_555 1_555
C52 O3 1_555 1_555
H51 C52 1_555 1_555
H52 C52 1_555 1_555
C53 C52 1_555 1_555
H53 C53 1_555 1_555
H54 C53 1_555 1_555
C54 C53 1_555 1_555
H55 C54 1_555 1_555
H56 C54 1_555 1_555
C55 C54 1_555 1_555
H57 C55 1_555 1_555
H58 C55 1_555 1_555
C56 C55 1_555 1_555
H59 C56 1_555 1_555
H60 C56 1_555 1_555
C57 C56 1_555 1_555
H61 C57 1_555 1_555
H62 C57 1_555 1_555
H63 C57 1_555 1_555
C5 C6 1_555 1_555
C11 C12 1_555 1_555
C13 C14 1_555 1_555
C16 C17 1_555 1_555
C28 C29 1_555 1_555
C30 C31 1_555 1_555
C33 C34 1_555 1_555
C45 C46 1_555 1_555
C47 C48 1_555 1_555
C50 C51 1_555 1_555

#END
