
#######################################################################
#
#                 Cambridge Crystallographic Data Centre
#                                CCDC 
#
#######################################################################
#
# If this CIF has been generated from an entry in the Cambridge 
# Structural Database, then it will include bibliographic, chemical, 
# crystal, experimental, refinement or atomic coordinate data resulting 
# from the CCDC's data processing and validation procedures.
#
#######################################################################

data_QEJMEX
_chemical_formula_moiety         'C12 H9 Cl1 N4 O2'
_chemical_name_systematic        
trans-1-(4-Chlorophenyl)-3-(4-nitrophenyl)-1-triazene
_symmetry_cell_setting           orthorhombic
_symmetry_space_group_name_H-M   'P b c a'
_symmetry_Int_Tables_number      61
_space_group_name_Hall           '-P 2ac 2ab'
loop_
_symmetry_equiv_pos_site_id
_symmetry_equiv_pos_as_xyz
1 x,y,z
2 1/2-x,-y,1/2+z
3 1/2+x,1/2-y,-z
4 -x,1/2+y,1/2-z
5 -x,-y,-z
6 1/2+x,y,1/2-z
7 1/2-x,1/2+y,z
8 x,1/2-y,1/2+z
_cell_length_a                   13.793(2)
_cell_length_b                   10.843(2)
_cell_length_c                   16.851(2)
_cell_angle_alpha                90
_cell_angle_beta                 90
_cell_angle_gamma                90
_cell_volume                     2520.19
_exptl_crystal_colour            red
_chemical_melting_point          '173-174 deg.C'
_cell_formula_units_Z            8
_exptl_crystal_recrystallization_method ethanol/water
loop_
_atom_site_label
_atom_site_type_symbol
_atom_site_fract_x
_atom_site_fract_y
_atom_site_fract_z
Cl1 Cl 0.54143(5) 0.20389(6) 0.27140(4)
O1 O 1.38825(13) 0.4984(2) 0.08081(11)
O2 O 1.39231(12) 0.6808(2) 0.03326(11)
N1 N 0.80211(15) 0.5528(2) 0.10643(10)
N2 N 0.8917(2) 0.5308(2) 0.11202(10)
N3 N 0.9452(2) 0.6158(2) 0.07436(12)
N4 N 1.3487(2) 0.5923(2) 0.05897(12)
C1 C 0.6201(2) 0.3045(2) 0.22314(13)
C2 C 0.7183(2) 0.2872(2) 0.22898(15)
C3 C 0.7804(2) 0.3666(2) 0.19198(15)
C4 C 0.7447(2) 0.4646(2) 0.14761(12)
C5 C 0.6456(2) 0.4800(2) 0.14223(15)
C6 C 0.5835(2) 0.4008(2) 0.1800(2)
C7 C 1.0451(2) 0.6097(2) 0.07263(11)
C8 C 1.0947(2) 0.5114(2) 0.10713(14)
C9 C 1.1932(2) 0.5067(2) 0.10250(14)
C10 C 1.2429(2) 0.5999(2) 0.06469(12)
C11 C 1.1955(2) 0.6984(2) 0.03133(15)
C12 C 1.0963(2) 0.7028(2) 0.03492(15)
loop_
_geom_bond_atom_site_label_1
_geom_bond_atom_site_label_2
_geom_bond_site_symmetry_1
_geom_bond_site_symmetry_2
Cl1 C1 1_555 1_555
O1 N4 1_555 1_555
O2 N4 1_555 1_555
N1 N2 1_555 1_555
N2 N3 1_555 1_555
N3 C7 1_555 1_555
N4 C10 1_555 1_555
C1 C2 1_555 1_555
C2 C3 1_555 1_555
C3 C4 1_555 1_555
C4 N1 1_555 1_555
C5 C4 1_555 1_555
C6 C1 1_555 1_555
C7 C8 1_555 1_555
C8 C9 1_555 1_555
C9 C10 1_555 1_555
C10 C11 1_555 1_555
C11 C12 1_555 1_555
C12 C7 1_555 1_555
C5 C6 1_555 1_555

#END
