
#######################################################################
#
#                 Cambridge Crystallographic Data Centre
#                                CCDC 
#
#######################################################################
#
# If this CIF has been generated from an entry in the Cambridge 
# Structural Database, then it will include bibliographic, chemical, 
# crystal, experimental, refinement or atomic coordinate data resulting 
# from the CCDC's data processing and validation procedures.
#
#######################################################################

data_QEJMUQ
_chemical_formula_moiety         'C24 H18 O4'
_chemical_name_systematic        
'dimethyl 5-(anthracen-9-yl)benzene-1,3-dicarboxylate'
_symmetry_cell_setting           tetragonal
_symmetry_space_group_name_H-M   'P 43 21 2'
_symmetry_Int_Tables_number      96
_space_group_name_Hall           'P 4nw 2abw'
loop_
_symmetry_equiv_pos_site_id
_symmetry_equiv_pos_as_xyz
1 x,y,z
2 -x,-y,1/2+z
3 1/2-y,1/2+x,3/4+z
4 1/2+y,1/2-x,1/4+z
5 1/2-x,1/2+y,3/4-z
6 1/2+x,1/2-y,1/4-z
7 y,x,-z
8 -y,-x,1/2-z
_cell_length_a                   12.0708(3)
_cell_length_b                   12.0708(3)
_cell_length_c                   12.6719(4)
_cell_angle_alpha                90
_cell_angle_beta                 90
_cell_angle_gamma                90
_cell_volume                     1846.35
_exptl_crystal_colour            colorless
_exptl_crystal_description       rod
_cell_formula_units_Z            4
loop_
_atom_site_label
_atom_site_type_symbol
_atom_site_fract_x
_atom_site_fract_y
_atom_site_fract_z
O1 O 0.34804(16) 0.18655(15) 0.33910(13)
C1 C 0.4117(2) 0.27664(19) 0.32215(18)
O2 O 0.46353(15) 0.29056(14) 0.24200(13)
C2 C 0.3490(3) 0.1057(2) 0.2553(2)
H1 H 0.314711 0.137513 0.192107
H2 H 0.307415 0.039992 0.277379
H3 H 0.425701 0.084753 0.239493
C3 C 0.4134(2) 0.35257(19) 0.41423(17)
C4 C 0.4942(2) 0.4357(2) 0.41406(16)
H4 H 0.541344 0.444023 0.354528
C5 C 0.5064(2) 0.5064(2) 0.500000
C6 C 0.59366(19) 0.59366(19) 0.500000
C7 C 0.6826(2) 0.58675(19) 0.57194(18)
C8 C 0.7652(2) 0.6721(2) 0.57322(17)
C9 C 0.8519(2) 0.6677(2) 0.65032(17)
H5 H 0.906092 0.724715 0.652341
C10 C 0.7784(2) 0.4957(2) 0.71705(18)
H6 H 0.784339 0.435741 0.765228
C11 C 0.6940(2) 0.4971(2) 0.64558(17)
H7 H 0.642160 0.437893 0.644449
C12 C 0.8575(2) 0.5829(2) 0.7206(2)
H8 H 0.914534 0.581797 0.772245
C13 C 0.75882(19) 0.75882(19) 0.500000
H9 H 0.814465 0.814468 0.500001
C14 C 0.34166(19) 0.34166(19) 0.500000
H10 H 0.286005 0.286008 0.500000
O1F O 0.18655(15) 0.34804(16) 0.66090(13)
C1F C 0.27664(19) 0.4117(2) 0.67785(18)
O2F O 0.29056(14) 0.46353(15) 0.75800(13)
C2F C 0.1057(2) 0.3490(3) 0.7447(2)
H1F H 0.137513 0.314711 0.807893
H2F H 0.039992 0.307415 0.722621
H3F H 0.084753 0.425701 0.760507
C3F C 0.35257(19) 0.4134(2) 0.58577(17)
C4F C 0.4357(2) 0.4942(2) 0.58594(16)
H4F H 0.444023 0.541344 0.645472
C7F C 0.58675(19) 0.6826(2) 0.42806(18)
C8F C 0.6721(2) 0.7652(2) 0.42678(17)
C9F C 0.6677(2) 0.8519(2) 0.34968(17)
H5F H 0.724715 0.906092 0.347659
C10F C 0.4957(2) 0.7784(2) 0.28295(18)
H6F H 0.435741 0.784339 0.234772
C11F C 0.4971(2) 0.6940(2) 0.35442(17)
H7F H 0.437893 0.642160 0.355551
C12F C 0.5829(2) 0.8575(2) 0.2794(2)
H8F H 0.581797 0.914534 0.227755
loop_
_geom_bond_atom_site_label_1
_geom_bond_atom_site_label_2
_geom_bond_site_symmetry_1
_geom_bond_site_symmetry_2
O1 C1 1_555 1_555
C1 O2 1_555 1_555
C2 O1 1_555 1_555
H1 C2 1_555 1_555
H2 C2 1_555 1_555
H3 C2 1_555 1_555
C3 C1 1_555 1_555
C4 C3 1_555 1_555
H4 C4 1_555 1_555
C5 C4 1_555 1_555
C6 C5 1_555 1_555
C7 C6 1_555 1_555
C8 C7 1_555 1_555
C9 C8 1_555 1_555
H5 C9 1_555 1_555
C10 H6 1_555 1_555
C11 C7 1_555 1_555
H7 C11 1_555 1_555
C12 C9 1_555 1_555
H8 C12 1_555 1_555
C13 C8 1_555 1_555
H9 C13 1_555 1_555
C14 C3 1_555 1_555
H10 C14 1_555 1_555
O1F C1F 1_555 1_555
C1F O2F 1_555 1_555
C2F O1F 1_555 1_555
H1F C2F 1_555 1_555
H2F C2F 1_555 1_555
H3F C2F 1_555 1_555
C3F C14 1_555 1_555
C4F C5 1_555 1_555
H4F C4F 1_555 1_555
C7F C6 1_555 1_555
C8F C13 1_555 1_555
C9F C8F 1_555 1_555
H5F C9F 1_555 1_555
C10F H6F 1_555 1_555
C11F C7F 1_555 1_555
H7F C11F 1_555 1_555
C12F C9F 1_555 1_555
H8F C12F 1_555 1_555
C10 C11 1_555 1_555
C10 C12 1_555 1_555
C1F C3F 1_555 1_555
C3F C4F 1_555 1_555
C7F C8F 1_555 1_555
C10F C11F 1_555 1_555
C10F C12F 1_555 1_555

#END
