
#######################################################################
#
#                 Cambridge Crystallographic Data Centre
#                                CCDC 
#
#######################################################################
#
# If this CIF has been generated from an entry in the Cambridge 
# Structural Database, then it will include bibliographic, chemical, 
# crystal, experimental, refinement or atomic coordinate data resulting 
# from the CCDC's data processing and validation procedures.
#
#######################################################################

data_QEJQEB
_chemical_formula_moiety         'C10 H8 O4 S1'
_chemical_name_systematic        '(Z)-3-(2-Carboxyphenylthio)-2-propenoic acid'
_symmetry_cell_setting           monoclinic
_symmetry_space_group_name_H-M   'P 21/n'
_symmetry_Int_Tables_number      14
_space_group_name_Hall           '-P 2yn'
loop_
_symmetry_equiv_pos_site_id
_symmetry_equiv_pos_as_xyz
1 x,y,z
2 1/2-x,1/2+y,1/2-z
3 -x,-y,-z
4 1/2+x,1/2-y,1/2+z
_cell_length_a                   5.273(2)
_cell_length_b                   13.846(5)
_cell_length_c                   13.532(4)
_cell_angle_alpha                90
_cell_angle_beta                 97.53(3)
_cell_angle_gamma                90
_cell_volume                     979.451
_chemical_melting_point          184-186deg.C
_cell_formula_units_Z            4
_exptl_crystal_recrystallization_method methanol
loop_
_atom_site_label
_atom_site_type_symbol
_atom_site_fract_x
_atom_site_fract_y
_atom_site_fract_z
S1 S 0.0040(2) 0.3775(1) 0.8849(1)
O1 O 0.3627(4) 0.2245(2) 0.8815(2)
O2 O 0.2384(5) 0.0771(2) 0.9200(2)
O3 O 0.0345(4) 0.5240(2) 0.7340(2)
O4 O -0.2351(4) 0.6484(2) 0.7171(2)
C1 C -0.0508(6) 0.3006(2) 0.9862(2)
C2 C 0.0559(6) 0.2083(2) 0.9952(2)
C3 C -0.0056(7) 0.1474(2) 1.0708(3)
C4 C -0.1688(7) 0.1768(3) 1.1357(3)
C5 C -0.2676(7) 0.2689(3) 1.1280(2)
C6 C -0.2076(6) 0.3302(2) 1.0560(2)
C7 C 0.2331(6) 0.1718(2) 0.9270(2)
C8 C -0.2852(6) 0.4366(2) 0.8643(2)
C9 C -0.3424(6) 0.5144(2) 0.8075(2)
C10 C -0.1659(6) 0.5616(2) 0.7506(2)
H1 H 0.0661 0.0836 1.0768
H2 H -0.2112 0.1341 1.1870
H3 H -0.3827 0.2895 1.1732
H4 H -0.2733 0.3949 1.0535
H5 H -0.4205 0.4107 0.8974
H6 H -0.5117 0.5407 0.8042
loop_
_geom_bond_atom_site_label_1
_geom_bond_atom_site_label_2
_geom_bond_site_symmetry_1
_geom_bond_site_symmetry_2
S1 C1 1_555 1_555
O1 C7 1_555 1_555
O2 C7 1_555 1_555
O3 C10 1_555 1_555
O4 C10 1_555 1_555
C1 C2 1_555 1_555
C2 C3 1_555 1_555
C3 C4 1_555 1_555
C4 C5 1_555 1_555
C5 C6 1_555 1_555
C6 C1 1_555 1_555
C7 C2 1_555 1_555
C8 S1 1_555 1_555
C9 C8 1_555 1_555
C10 C9 1_555 1_555
H1 C3 1_555 1_555
H2 C4 1_555 1_555
H3 C5 1_555 1_555
H4 C6 1_555 1_555
H5 C8 1_555 1_555
H6 C9 1_555 1_555

#END
