
#######################################################################
#
#                 Cambridge Crystallographic Data Centre
#                                CCDC 
#
#######################################################################
#
# If this CIF has been generated from an entry in the Cambridge 
# Structural Database, then it will include bibliographic, chemical, 
# crystal, experimental, refinement or atomic coordinate data resulting 
# from the CCDC's data processing and validation procedures.
#
#######################################################################

data_QEJVOT
_chemical_formula_moiety         'C104 H92 N20'
_chemical_name_systematic        
'2,15,28,41-tetrakis(2-ethylhexyl)-2,15,28,41-tetraazatridecacyclo[47.3.1.1^3,7^.1^10,14^.1^16,20^.1^23,27^.1^29,33^.1^36,40^.1^42,46^.0^4,52^.0^13,17^.0^26,30^.0^39,43^]hexaconta-1(53),3(60),4,6,10(59),11,13,16(58),17,19,23(57),24,26,29(56),30,32,36(55),37,39,42(54),43,45,49,51-tetracosaene-8,8,9,9,21,21,22,22,34,34,35,35,47,47,48,48-hexadecacarbonitrile unknown solvate'
_symmetry_cell_setting           tetragonal
_symmetry_space_group_name_H-M   'P -4 21 c'
_symmetry_Int_Tables_number      114
_space_group_name_Hall           'P -4 2n'
loop_
_symmetry_equiv_pos_site_id
_symmetry_equiv_pos_as_xyz
1 x,y,z
2 -x,-y,z
3 y,-x,-z
4 -y,x,-z
5 1/2-x,1/2+y,1/2-z
6 1/2+x,1/2-y,1/2-z
7 1/2-y,1/2-x,1/2+z
8 1/2+y,1/2+x,1/2+z
_cell_length_a                   19.2754(3)
_cell_length_b                   19.2754(3)
_cell_length_c                   13.7933(5)
_cell_angle_alpha                90
_cell_angle_beta                 90
_cell_angle_gamma                90
_cell_volume                     5124.78
_exptl_crystal_colour            pink
_exptl_crystal_description       block
_cell_formula_units_Z            2
loop_
_atom_site_label
_atom_site_type_symbol
_atom_site_fract_x
_atom_site_fract_y
_atom_site_fract_z
N1 N 0.66301(18) 1.22276(17) -0.1585(2)
N2 N 0.51004(15) 1.09020(16) -0.0383(2)
N3 N 0.73620(18) 0.58598(18) -0.1015(3)
N4 N 0.94011(17) 0.61919(16) -0.1998(2)
N5 N 0.70215(12) 0.87026(13) -0.01612(19)
C1 C 0.75949(14) 0.83316(16) -0.0475(2)
C2 C 0.80681(15) 0.87914(16) -0.0927(2)
C3 C 0.77585(15) 0.94712(16) -0.0881(2)
C4 C 0.71168(15) 0.93917(15) -0.0402(2)
C5 C 0.66700(15) 0.99430(15) -0.0249(2)
H1 H 0.6238 0.9882 0.0072
C6 C 0.68813(15) 1.05899(16) -0.0585(2)
C7 C 0.75116(17) 1.06787(16) -0.1063(2)
H2 H 0.7642 1.1127 -0.1283
C8 C 0.79468(16) 1.01255(16) -0.1221(2)
H3 H 0.8372 1.0189 -0.1558
C9 C 0.64211(15) 1.12181(15) -0.0366(2)
C10 C 0.65368(17) 1.17817(17) -0.1058(2)
C11 C 0.56757(16) 1.10352(15) -0.0386(2)
C12 C 0.86829(15) 0.85177(16) -0.1312(2)
H4 H 0.9009 0.8813 -0.1621
C13 C 0.88100(15) 0.78179(17) -0.1237(2)
H5 H 0.9232 0.7633 -0.1482
C14 C 0.83285(15) 0.73790(16) -0.0808(2)
C15 C 0.77114(14) 0.76241(15) -0.0427(2)
H6 H 0.7381 0.7319 -0.0144
C16 C 0.84773(16) 0.65955(16) -0.0710(2)
C17 C 0.78505(18) 0.61757(17) -0.0886(3)
C18 C 0.90052(17) 0.63749(17) -0.1435(2)
C19 C 0.64941(17) 0.84464(17) 0.0510(3)
H7 H 0.6090 0.8763 0.0474
H8 H 0.6338 0.7987 0.0276
C20 C 0.6686(5) 0.8377(6) 0.1506(7)
H9 H 0.6943 0.7931 0.1594
C21 C 0.6114(6) 0.8441(7) 0.2328(8)
H10 H 0.6040 0.7966 0.2582
H11 H 0.6328 0.8711 0.2861
C22 C 0.5453(3) 0.8726(3) 0.2176(4)
H12 H 0.5476 0.9231 0.2245
H13 H 0.5129 0.8536 0.2654
H14 H 0.5294 0.8608 0.1521
C23 C 0.7091(6) 0.8922(5) 0.1876(5)
H15 H 0.6792 0.9339 0.1909
H16 H 0.7460 0.9021 0.1396
C24 C 0.7441(9) 0.8839(10) 0.2864(14)
H17 H 0.7096 0.8740 0.3377
H18 H 0.7790 0.8462 0.2852
C25 C 0.7776(5) 0.9527(5) 0.3016(8)
H19 H 0.8142 0.9556 0.2514
H20 H 0.7420 0.9872 0.2830
C26 C 0.8082(10) 0.9792(9) 0.3864(14)
H21 H 0.7867 0.9576 0.4433
H22 H 0.8012 1.0295 0.3890
H23 H 0.8580 0.9690 0.3860
N1B N 1.22276(17) 1.33699(18) 0.1585(2)
N2B N 1.09020(16) 1.48996(15) 0.0383(2)
N3B N 0.58598(18) 1.26380(18) 0.1015(3)
N4B N 0.61919(16) 1.05989(17) 0.1998(2)
N5B N 0.87026(13) 1.29785(12) 0.01612(19)
C1B C 0.83316(16) 1.24051(14) 0.0475(2)
C2B C 0.87914(16) 1.19319(15) 0.0927(2)
C3B C 0.94712(16) 1.22415(15) 0.0881(2)
C4B C 0.93917(15) 1.28832(15) 0.0402(2)
C5B C 0.99430(15) 1.33300(15) 0.0249(2)
H1B H 0.9882 1.3762 -0.0072
C6B C 1.05899(16) 1.31187(15) 0.0585(2)
C7B C 1.06787(16) 1.24884(17) 0.1063(2)
H2B H 1.1127 1.2358 0.1283
C8B C 1.01255(16) 1.20532(16) 0.1221(2)
H3B H 1.0189 1.1628 0.1558
C9B C 1.12181(15) 1.35789(15) 0.0366(2)
C10B C 1.17817(17) 1.34632(17) 0.1058(2)
C11B C 1.10352(15) 1.43243(16) 0.0386(2)
C12B C 0.85177(16) 1.13171(15) 0.1312(2)
H4B H 0.8813 1.0991 0.1621
C13B C 0.78179(17) 1.11900(15) 0.1237(2)
H5B H 0.7633 1.0768 0.1482
C14B C 0.73790(16) 1.16715(15) 0.0808(2)
C15B C 0.76241(15) 1.22886(14) 0.0427(2)
H6B H 0.7319 1.2619 0.0144
C16B C 0.65955(16) 1.15227(16) 0.0710(2)
C17B C 0.61757(17) 1.21495(18) 0.0886(3)
C18B C 0.63749(17) 1.09948(17) 0.1435(2)
C19B C 0.84464(17) 1.35059(17) -0.0510(3)
H7B H 0.8763 1.3910 -0.0474
H8B H 0.7987 1.3662 -0.0276
C20B C 0.8377(6) 1.3314(5) -0.1506(7)
H9B H 0.7931 1.3057 -0.1594
C21B C 0.8441(7) 1.3886(6) -0.2328(8)
H10B H 0.7966 1.3960 -0.2582
H11B H 0.8711 1.3672 -0.2861
C22B C 0.8726(3) 1.4547(3) -0.2176(4)
H12B H 0.9231 1.4524 -0.2245
H13B H 0.8536 1.4871 -0.2654
H14B H 0.8608 1.4706 -0.1521
C23B C 0.8922(5) 1.2909(6) -0.1876(5)
H15B H 0.9339 1.3208 -0.1909
H16B H 0.9021 1.2540 -0.1396
C24B C 0.8839(10) 1.2559(9) -0.2864(14)
H17B H 0.8740 1.2904 -0.3377
H18B H 0.8462 1.2210 -0.2852
C25B C 0.9527(5) 1.2224(5) -0.3016(8)
H19B H 0.9556 1.1858 -0.2514
H20B H 0.9872 1.2580 -0.2830
C26B C 0.9792(9) 1.1918(10) -0.3864(14)
H21B H 0.9576 1.2133 -0.4433
H22B H 1.0295 1.1988 -0.3890
H23B H 0.9690 1.1420 -0.3860
N1C N 0.77724(17) 0.66301(18) 0.1585(2)
N2C N 0.90980(16) 0.51004(15) 0.0383(2)
N3C N 1.41402(18) 0.73620(18) 0.1015(3)
N4C N 1.38081(16) 0.94011(17) 0.1998(2)
N5C N 1.12974(13) 0.70215(12) 0.01612(19)
C1C C 1.16684(16) 0.75949(14) 0.0475(2)
C2C C 1.12086(16) 0.80681(15) 0.0927(2)
C3C C 1.05288(16) 0.77585(15) 0.0881(2)
C4C C 1.06083(15) 0.71168(15) 0.0402(2)
C5C C 1.00570(15) 0.66700(15) 0.0249(2)
H1C H 1.0118 0.6238 -0.0072
C6C C 0.94101(16) 0.68813(15) 0.0585(2)
C7C C 0.93213(16) 0.75116(17) 0.1063(2)
H2C H 0.8873 0.7642 0.1283
C8C C 0.98745(16) 0.79468(16) 0.1221(2)
H3C H 0.9811 0.8372 0.1558
C9C C 0.87819(15) 0.64211(15) 0.0366(2)
C10C C 0.82183(17) 0.65368(17) 0.1058(2)
C11C C 0.89648(15) 0.56757(16) 0.0386(2)
C12C C 1.14823(16) 0.86829(15) 0.1312(2)
H4C H 1.1187 0.9009 0.1621
C13C C 1.21821(17) 0.88100(15) 0.1237(2)
H5C H 1.2367 0.9232 0.1482
C14C C 1.26210(16) 0.83285(15) 0.0808(2)
C15C C 1.23759(15) 0.77114(14) 0.0427(2)
H6C H 1.2681 0.7381 0.0144
C16C C 1.34045(16) 0.84773(16) 0.0710(2)
C17C C 1.38243(17) 0.78505(18) 0.0886(3)
C18C C 1.36251(17) 0.90052(17) 0.1435(2)
C19C C 1.15536(17) 0.64941(17) -0.0510(3)
H7C H 1.1237 0.6090 -0.0474
H8C H 1.2013 0.6338 -0.0276
C20C C 1.1623(6) 0.6686(5) -0.1506(7)
H9C H 1.2069 0.6943 -0.1594
C21C C 1.1559(7) 0.6114(6) -0.2328(8)
H10C H 1.2034 0.6040 -0.2582
H11C H 1.1289 0.6328 -0.2861
C22C C 1.1274(3) 0.5453(3) -0.2176(4)
H12C H 1.0769 0.5476 -0.2245
H13C H 1.1464 0.5129 -0.2654
H14C H 1.1392 0.5294 -0.1521
C23C C 1.1078(5) 0.7091(6) -0.1876(5)
H15C H 1.0661 0.6792 -0.1909
H16C H 1.0979 0.7460 -0.1396
C24C C 1.1161(10) 0.7441(9) -0.2864(14)
H17C H 1.1260 0.7096 -0.3377
H18C H 1.1538 0.7790 -0.2852
C25C C 1.0473(5) 0.7776(5) -0.3016(8)
H19C H 1.0444 0.8142 -0.2514
H20C H 1.0128 0.7420 -0.2830
C26C C 1.0208(9) 0.8082(10) -0.3864(14)
H21C H 1.0424 0.7867 -0.4433
H22C H 0.9705 0.8012 -0.3890
H23C H 1.0310 0.8580 -0.3860
N1A N 1.33699(18) 0.77724(17) -0.1585(2)
N2A N 1.48996(15) 0.90980(16) -0.0383(2)
N3A N 1.26380(18) 1.41402(18) -0.1015(3)
N4A N 1.05989(17) 1.38081(16) -0.1998(2)
N5A N 1.29785(12) 1.12974(13) -0.01612(19)
C1A C 1.24051(14) 1.16684(16) -0.0475(2)
C2A C 1.19319(15) 1.12086(16) -0.0927(2)
C3A C 1.22415(15) 1.05288(16) -0.0881(2)
C4A C 1.28832(15) 1.06083(15) -0.0402(2)
C5A C 1.33300(15) 1.00570(15) -0.0249(2)
H1A H 1.3762 1.0118 0.0072
C6A C 1.31187(15) 0.94101(16) -0.0585(2)
C7A C 1.24884(17) 0.93213(16) -0.1063(2)
H2A H 1.2358 0.8873 -0.1283
C8A C 1.20532(16) 0.98745(16) -0.1221(2)
H3A H 1.1628 0.9811 -0.1558
C9A C 1.35789(15) 0.87819(15) -0.0366(2)
C10A C 1.34632(17) 0.82183(17) -0.1058(2)
C11A C 1.43243(16) 0.89648(15) -0.0386(2)
C12A C 1.13171(15) 1.14823(16) -0.1312(2)
H4A H 1.0991 1.1187 -0.1621
C13A C 1.11900(15) 1.21821(17) -0.1237(2)
H5A H 1.0768 1.2367 -0.1482
C14A C 1.16715(15) 1.26210(16) -0.0808(2)
C15A C 1.22886(14) 1.23759(15) -0.0427(2)
H6A H 1.2619 1.2681 -0.0144
C16A C 1.15227(16) 1.34045(16) -0.0710(2)
C17A C 1.21495(18) 1.38243(17) -0.0886(3)
C18A C 1.09948(17) 1.36251(17) -0.1435(2)
C19A C 1.35059(17) 1.15536(17) 0.0510(3)
H7A H 1.3910 1.1237 0.0474
H8A H 1.3662 1.2013 0.0276
C20A C 1.3314(5) 1.1623(6) 0.1506(7)
H9A H 1.3057 1.2069 0.1594
C21A C 1.3886(6) 1.1559(7) 0.2328(8)
H10A H 1.3960 1.2034 0.2582
H11A H 1.3672 1.1289 0.2861
C22A C 1.4547(3) 1.1274(3) 0.2176(4)
H12A H 1.4524 1.0769 0.2245
H13A H 1.4871 1.1464 0.2654
H14A H 1.4706 1.1392 0.1521
C23A C 1.2909(6) 1.1078(5) 0.1876(5)
H15A H 1.3208 1.0661 0.1909
H16A H 1.2540 1.0979 0.1396
C24A C 1.2559(9) 1.1161(10) 0.2864(14)
H17A H 1.2904 1.1260 0.3377
H18A H 1.2210 1.1538 0.2852
C25A C 1.2224(5) 1.0473(5) 0.3016(8)
H19A H 1.1858 1.0444 0.2514
H20A H 1.2580 1.0128 0.2830
C26A C 1.1918(10) 1.0208(9) 0.3864(14)
H21A H 1.2133 1.0424 0.4433
H22A H 1.1988 0.9705 0.3890
H23A H 1.1420 1.0310 0.3860
H24? H 0.6493 0.7933 0.0509
H25? H 0.6030 0.8608 0.0301
C27? C 0.6662(6) 0.8736(5) 0.1612(8)
H26? H 0.6554 0.9235 0.1743
C28? C 0.6086(9) 0.8135(9) 0.2052(11)
H27? H 0.5972 0.7766 0.1578
H28? H 0.6233 0.7928 0.2677
H29? H 0.5625 0.9118 0.2559
H30? H 0.5056 0.8515 0.2506
H31? H 0.5310 0.8890 0.1534
C29? C 0.7405(7) 0.8458(7) 0.1971(8)
H32? H 0.7373 0.7949 0.2060
H33? H 0.7747 0.8545 0.1450
C30? C 0.7686(11) 0.8778(9) 0.2918(14)
H34? H 0.7823 0.8385 0.3338
H35? H 0.7287 0.9005 0.3240
C31? C 0.8295(15) 0.9308(16) 0.2956(19)
H36? H 0.8712 0.9121 0.2629
H37? H 0.8163 0.9752 0.2645
C32? C 0.842(2) 0.941(2) 0.404(2)
H38? H 0.8053 0.9176 0.4409
H39? H 0.8427 0.9901 0.4195
H40? H 0.8871 0.9200 0.4216
loop_
_geom_bond_atom_site_label_1
_geom_bond_atom_site_label_2
_geom_bond_site_symmetry_1
_geom_bond_site_symmetry_2
N1 C10 1_555 1_555
N2 C11 1_555 1_555
N3 C17 1_555 1_555
N4 C18 1_555 1_555
N5 C1 1_555 1_555
C1 C2 1_555 1_555
C2 C3 1_555 1_555
C3 C4 1_555 1_555
C4 N5 1_555 1_555
C5 C4 1_555 1_555
H1 C5 1_555 1_555
C6 C5 1_555 1_555
C7 C6 1_555 1_555
H2 C7 1_555 1_555
C8 C3 1_555 1_555
H3 C8 1_555 1_555
C9 C6 1_555 1_555
C10 C9 1_555 1_555
C11 C9 1_555 1_555
C12 C2 1_555 1_555
H4 C12 1_555 1_555
C13 C12 1_555 1_555
H5 C13 1_555 1_555
C14 C13 1_555 1_555
C15 C1 1_555 1_555
H6 C15 1_555 1_555
C16 C14 1_555 1_555
C17 C16 1_555 1_555
C18 C16 1_555 1_555
C19 N5 1_555 1_555
H7 C19 1_555 1_555
H8 C19 1_555 1_555
C20 C19 1_555 1_555
H9 C20 1_555 1_555
C21 C20 1_555 1_555
H10 C21 1_555 1_555
H11 C21 1_555 1_555
C22 C21 1_555 1_555
H12 C22 1_555 1_555
H13 C22 1_555 1_555
H14 C22 1_555 1_555
C23 C20 1_555 1_555
H15 C23 1_555 1_555
H16 C23 1_555 1_555
C24 C23 1_555 1_555
H17 C24 1_555 1_555
H18 C24 1_555 1_555
C25 C24 1_555 1_555
H19 C25 1_555 1_555
H20 C25 1_555 1_555
C26 C25 1_555 1_555
H21 C26 1_555 1_555
H22 C26 1_555 1_555
H23 C26 1_555 1_555
N1B C10B 1_555 1_555
N2B C11B 1_555 1_555
N3B C17B 1_555 1_555
N4B C18B 1_555 1_555
N5B C1B 1_555 1_555
C1B C2B 1_555 1_555
C2B C3B 1_555 1_555
C3B C4B 1_555 1_555
C4B N5B 1_555 1_555
C5B C4B 1_555 1_555
H1B C5B 1_555 1_555
C6B C5B 1_555 1_555
C7B C6B 1_555 1_555
H2B C7B 1_555 1_555
C8B C3B 1_555 1_555
H3B C8B 1_555 1_555
C9B C6B 1_555 1_555
C10B C9B 1_555 1_555
C11B C9B 1_555 1_555
C12B C2B 1_555 1_555
H4B C12B 1_555 1_555
C13B C12B 1_555 1_555
H5B C13B 1_555 1_555
C14B C13B 1_555 1_555
C15B C1B 1_555 1_555
H6B C15B 1_555 1_555
C16B C9 1_555 1_555
C17B C16B 1_555 1_555
C18B C16B 1_555 1_555
C19B N5B 1_555 1_555
H7B C19B 1_555 1_555
H8B C19B 1_555 1_555
C20B C19B 1_555 1_555
H9B C20B 1_555 1_555
C21B C20B 1_555 1_555
H10B C21B 1_555 1_555
H11B C21B 1_555 1_555
C22B C21B 1_555 1_555
H12B C22B 1_555 1_555
H13B C22B 1_555 1_555
H14B C22B 1_555 1_555
C23B C20B 1_555 1_555
H15B C23B 1_555 1_555
H16B C23B 1_555 1_555
C24B C23B 1_555 1_555
H17B C24B 1_555 1_555
H18B C24B 1_555 1_555
C25B C24B 1_555 1_555
H19B C25B 1_555 1_555
H20B C25B 1_555 1_555
C26B C25B 1_555 1_555
H21B C26B 1_555 1_555
H22B C26B 1_555 1_555
H23B C26B 1_555 1_555
N1C C10C 1_555 1_555
N2C C11C 1_555 1_555
N3C C17C 1_555 1_555
N4C C18C 1_555 1_555
N5C C1C 1_555 1_555
C1C C2C 1_555 1_555
C2C C3C 1_555 1_555
C3C C4C 1_555 1_555
C4C N5C 1_555 1_555
C5C C4C 1_555 1_555
H1C C5C 1_555 1_555
C6C C5C 1_555 1_555
C7C C6C 1_555 1_555
H2C C7C 1_555 1_555
C8C C3C 1_555 1_555
H3C C8C 1_555 1_555
C9C C16 1_555 1_555
C10C C9C 1_555 1_555
C11C C9C 1_555 1_555
C12C C2C 1_555 1_555
H4C C12C 1_555 1_555
C13C C12C 1_555 1_555
H5C C13C 1_555 1_555
C14C C13C 1_555 1_555
C15C C1C 1_555 1_555
H6C C15C 1_555 1_555
C16C C14C 1_555 1_555
C17C C16C 1_555 1_555
C18C C16C 1_555 1_555
C19C N5C 1_555 1_555
H7C C19C 1_555 1_555
H8C C19C 1_555 1_555
C20C C19C 1_555 1_555
H9C C20C 1_555 1_555
C21C C20C 1_555 1_555
H10C C21C 1_555 1_555
H11C C21C 1_555 1_555
C22C C21C 1_555 1_555
H12C C22C 1_555 1_555
H13C C22C 1_555 1_555
H14C C22C 1_555 1_555
C23C C20C 1_555 1_555
H15C C23C 1_555 1_555
H16C C23C 1_555 1_555
C24C C23C 1_555 1_555
H17C C24C 1_555 1_555
H18C C24C 1_555 1_555
C25C C24C 1_555 1_555
H19C C25C 1_555 1_555
H20C C25C 1_555 1_555
C26C C25C 1_555 1_555
H21C C26C 1_555 1_555
H22C C26C 1_555 1_555
H23C C26C 1_555 1_555
N1A C10A 1_555 1_555
N2A C11A 1_555 1_555
N3A C17A 1_555 1_555
N4A C18A 1_555 1_555
N5A C1A 1_555 1_555
C1A C2A 1_555 1_555
C2A C3A 1_555 1_555
C3A C4A 1_555 1_555
C4A N5A 1_555 1_555
C5A C4A 1_555 1_555
H1A C5A 1_555 1_555
C6A C5A 1_555 1_555
C7A C6A 1_555 1_555
H2A C7A 1_555 1_555
C8A C3A 1_555 1_555
H3A C8A 1_555 1_555
C9A C16C 1_555 1_555
C10A C9A 1_555 1_555
C11A C9A 1_555 1_555
C12A C2A 1_555 1_555
H4A C12A 1_555 1_555
C13A C12A 1_555 1_555
H5A C13A 1_555 1_555
C14A C13A 1_555 1_555
C15A C1A 1_555 1_555
H6A C15A 1_555 1_555
C16A C9B 1_555 1_555
C17A C16A 1_555 1_555
C18A C16A 1_555 1_555
C19A N5A 1_555 1_555
H7A C19A 1_555 1_555
H8A C19A 1_555 1_555
C20A C19A 1_555 1_555
H9A C20A 1_555 1_555
C21A C20A 1_555 1_555
H10A C21A 1_555 1_555
H11A C21A 1_555 1_555
C22A C21A 1_555 1_555
H12A C22A 1_555 1_555
H13A C22A 1_555 1_555
H14A C22A 1_555 1_555
C23A C20A 1_555 1_555
H15A C23A 1_555 1_555
H16A C23A 1_555 1_555
C24A C23A 1_555 1_555
H17A C24A 1_555 1_555
H18A C24A 1_555 1_555
C25A C24A 1_555 1_555
H19A C25A 1_555 1_555
H20A C25A 1_555 1_555
C26A C25A 1_555 1_555
H21A C26A 1_555 1_555
H22A C26A 1_555 1_555
H23A C26A 1_555 1_555
C7 C8 1_555 1_555
C14 C15 1_555 1_555
C7B C8B 1_555 1_555
C14B C15B 1_555 1_555
C14B C16B 1_555 1_555
C6C C9C 1_555 1_555
C7C C8C 1_555 1_555
C14C C15C 1_555 1_555
C6A C9A 1_555 1_555
C7A C8A 1_555 1_555
C14A C15A 1_555 1_555
C14A C16A 1_555 1_555

#END
