
#######################################################################
#
#                 Cambridge Crystallographic Data Centre
#                                CCDC 
#
#######################################################################
#
# If this CIF has been generated from an entry in the Cambridge 
# Structural Database, then it will include bibliographic, chemical, 
# crystal, experimental, refinement or atomic coordinate data resulting 
# from the CCDC's data processing and validation procedures.
#
#######################################################################

data_QEJYOW
_chemical_formula_moiety         'C30 H52 O4'
_chemical_name_systematic        
10-(hydroxymethyl)-4,4,7a,10,13a,15b-hexamethyldocosahydro-6aH-cyclohepta[1,2-a:5,4-a']dinaphthalene-3,6a,11-triol
_symmetry_cell_setting           monoclinic
_symmetry_space_group_name_H-M   'P 21'
_symmetry_Int_Tables_number      4
_space_group_name_Hall           'P 2yb'
loop_
_symmetry_equiv_pos_site_id
_symmetry_equiv_pos_as_xyz
1 x,y,z
2 -x,1/2+y,-z
_cell_length_a                   7.2477(13)
_cell_length_b                   16.652(3)
_cell_length_c                   11.339(2)
_cell_angle_alpha                90
_cell_angle_beta                 102.296(7)
_cell_angle_gamma                90
_cell_volume                     1337.1
_exptl_crystal_colour            colorless
_exptl_crystal_description       needle
_cell_formula_units_Z            2
_exptl_crystal_recrystallization_method methanol/dichloromethane
loop_
_atom_site_label
_atom_site_type_symbol
_atom_site_fract_x
_atom_site_fract_y
_atom_site_fract_z
O1 O 0.7131(2) 0.40072(9) -0.00404(13)
O2 O 0.5785(2) 0.78298(10) 0.00120(15)
O3 O 1.0395(2) 0.33020(11) 0.91099(14)
H1 H 1.1489 0.3152 0.9401
O4 O 0.6518(4) 0.21732(16) 0.6377(2)
C1 C 0.7963(3) 0.45806(13) 0.08949(19)
C2 C 0.5305(3) 0.56275(13) 0.00842(19)
C3 C 0.8336(3) 0.55668(13) -0.0734(2)
H2 H 0.7757 0.5190 -0.1369
H3 H 0.9257 0.5892 -0.1042
C4 C 0.8986(3) 0.40529(12) 0.19650(19)
H4 H 1.0241 0.3945 0.1809
H5 H 0.8317 0.3538 0.1873
C5 C 1.1029(3) 0.35473(14) 0.5287(2)
H6 H 1.1548 0.4051 0.5665
H7 H 1.1931 0.3116 0.5580
C6 C 0.4016(3) 0.50760(14) -0.0835(2)
H8 H 0.4742 0.4842 -0.1376
H9 H 0.2981 0.5388 -0.1299
H10 H 0.3515 0.4651 -0.0408
C7 C 0.9146(3) 0.33671(13) 0.56341(19)
H11 H 0.8618 0.2914 0.5104
C8 C 0.6391(3) 0.51236(13) 0.11782(19)
H12 H 0.7065 0.5527 0.1754
C9 C 0.5131(3) 0.46677(14) 0.1891(2)
H13 H 0.3850 0.4890 0.1681
H14 H 0.5060 0.4103 0.1643
C10 C 1.0747(3) 0.36165(14) 0.3924(2)
H15 H 1.0328 0.3094 0.3566
H16 H 1.1970 0.3736 0.3725
C11 C 0.5834(3) 0.47112(14) 0.3259(2)
H17 H 0.4765 0.4602 0.3639
H18 H 0.6253 0.5262 0.3471
C12 C 0.6813(3) 0.61127(12) -0.0423(2)
H19 H 0.7484 0.6432 0.0274
C13 C 0.3212(3) 0.68755(13) -0.0408(2)
H20 H 0.2351 0.6601 -0.1069
H21 H 0.2472 0.7265 -0.0054
C14 C 0.7457(3) 0.41354(13) 0.38115(19)
H22 H 0.6998 0.3599 0.3507
C15 C 0.6039(3) 0.67522(14) -0.14078(19)
C16 C 0.9342(3) 0.50994(13) 0.0374(2)
H23 H 0.9974 0.5477 0.0992
H24 H 1.0310 0.4755 0.0152
C17 C 0.4067(3) 0.62591(13) 0.0552(2)
H25 H 0.3045 0.5983 0.0832
H26 H 0.4837 0.6540 0.1245
C18 C 1.0300(3) 0.36139(14) 0.7921(2)
H27 H 1.1582 0.3725 0.7813
H28 H 0.9602 0.4122 0.7833
C19 C 0.9315(3) 0.42612(12) 0.33311(19)
C20 C 0.9333(3) 0.30283(14) 0.6939(2)
C21 C 1.0240(3) 0.50913(14) 0.3582(2)
H29 H 1.1189 0.5158 0.3102
H30 H 1.0831 0.5134 0.4432
H31 H 0.9286 0.5505 0.3372
C22 C 0.4705(3) 0.73199(13) -0.0913(2)
H32 H 0.4054 0.7666 -0.1583
C23 C 0.5821(3) 0.38202(18) 0.5529(2)
H33 H 0.4958 0.4280 0.5387
H34 H 0.5259 0.3388 0.4982
C24 C 0.7725(3) 0.40666(14) 0.52260(19)
C25 C 0.8326(3) 0.48793(14) 0.5853(2)
H35 H 0.7915 0.4903 0.6612
H36 H 0.7750 0.5315 0.5335
H37 H 0.9690 0.4930 0.6005
C26 C 0.7680(3) 0.72466(15) -0.1696(2)
H38 H 0.8592 0.7358 -0.0955
H39 H 0.7198 0.7749 -0.2074
H40 H 0.8284 0.6945 -0.2241
C27 C 1.0512(4) 0.22547(16) 0.7076(2)
H41 H 1.0133 0.1928 0.6357
H42 H 1.0308 0.1957 0.7773
H43 H 1.1839 0.2390 0.7186
C28 C 0.4951(4) 0.64099(15) -0.2615(2)
H44 H 0.5681 0.5982 -0.2874
H45 H 0.4740 0.6832 -0.3218
H46 H 0.3746 0.6200 -0.2515
C29 C 0.6012(3) 0.3535(2) 0.6835(2)
H47 H 0.6479 0.3980 0.7384
H48 H 0.4765 0.3382 0.6964
C30 C 0.7336(4) 0.28314(17) 0.7133(2)
H49 H 0.7427 0.2681 0.7988
H50 H 0.802(4) 0.3770(19) -0.020(3)
H51 H 0.508(4) 0.8215(17) 0.008(3)
H52 H 0.695(10) 0.173(2) 0.660(6)
loop_
_geom_bond_atom_site_label_1
_geom_bond_atom_site_label_2
_geom_bond_site_symmetry_1
_geom_bond_site_symmetry_2
O1 C1 1_555 1_555
O2 C22 1_555 1_555
O3 H1 1_555 1_555
O4 C30 1_555 1_555
C1 C4 1_555 1_555
C2 C6 1_555 1_555
C3 H2 1_555 1_555
H3 C3 1_555 1_555
C4 H4 1_555 1_555
H5 C4 1_555 1_555
C5 H6 1_555 1_555
H7 C5 1_555 1_555
C6 H8 1_555 1_555
H9 C6 1_555 1_555
H10 C6 1_555 1_555
C7 C5 1_555 1_555
H11 C7 1_555 1_555
C8 C1 1_555 1_555
H12 C8 1_555 1_555
C9 C8 1_555 1_555
H13 C9 1_555 1_555
H14 C9 1_555 1_555
C10 C5 1_555 1_555
H15 C10 1_555 1_555
H16 C10 1_555 1_555
C11 C9 1_555 1_555
H17 C11 1_555 1_555
H18 C11 1_555 1_555
C12 C2 1_555 1_555
H19 C12 1_555 1_555
C13 H20 1_555 1_555
H21 C13 1_555 1_555
C14 C11 1_555 1_555
H22 C14 1_555 1_555
C15 C12 1_555 1_555
C16 C1 1_555 1_555
H23 C16 1_555 1_555
H24 C16 1_555 1_555
C17 C2 1_555 1_555
H25 C17 1_555 1_555
H26 C17 1_555 1_555
C18 O3 1_555 1_555
H27 C18 1_555 1_555
H28 C18 1_555 1_555
C19 C4 1_555 1_555
C20 C7 1_555 1_555
C21 C19 1_555 1_555
H29 C21 1_555 1_555
H30 C21 1_555 1_555
H31 C21 1_555 1_555
C22 C13 1_555 1_555
H32 C22 1_555 1_555
C23 H33 1_555 1_555
H34 C23 1_555 1_555
C24 C7 1_555 1_555
C25 C24 1_555 1_555
H35 C25 1_555 1_555
H36 C25 1_555 1_555
H37 C25 1_555 1_555
C26 C15 1_555 1_555
H38 C26 1_555 1_555
H39 C26 1_555 1_555
H40 C26 1_555 1_555
C27 C20 1_555 1_555
H41 C27 1_555 1_555
H42 C27 1_555 1_555
H43 C27 1_555 1_555
C28 C15 1_555 1_555
H44 C28 1_555 1_555
H45 C28 1_555 1_555
H46 C28 1_555 1_555
C29 C23 1_555 1_555
H47 C29 1_555 1_555
H48 C29 1_555 1_555
C30 C20 1_555 1_555
H49 C30 1_555 1_555
H50 O1 1_555 1_555
H51 O2 1_555 1_555
H52 O4 1_555 1_555
C2 C8 1_555 1_555
C3 C12 1_555 1_555
C3 C16 1_555 1_555
C10 C19 1_555 1_555
C13 C17 1_555 1_555
C14 C19 1_555 1_555
C14 C24 1_555 1_555
C15 C22 1_555 1_555
C18 C20 1_555 1_555
C23 C24 1_555 1_555
C29 C30 1_555 1_555

#END
