
#######################################################################
#
#                 Cambridge Crystallographic Data Centre
#                                CCDC 
#
#######################################################################
#
# If this CIF has been generated from an entry in the Cambridge 
# Structural Database, then it will include bibliographic, chemical, 
# crystal, experimental, refinement or atomic coordinate data resulting 
# from the CCDC's data processing and validation procedures.
#
#######################################################################

data_QEKBUE
_chemical_formula_moiety         
'C36 H36 N24 O12,C18 H28 N4 2+,2(N1 O3 1-),H2 O1'
_chemical_name_systematic        
"(2)-(cucurbit[6]uril)-(N,N'-bis(3-pyridylmethyl)-1,6-hexanediaminium)-pseudorotaxane dinitrate monohydrate"
_symmetry_cell_setting           triclinic
_symmetry_space_group_name_H-M   'P -1'
_symmetry_Int_Tables_number      2
_space_group_name_Hall           '-P 1'
loop_
_symmetry_equiv_pos_site_id
_symmetry_equiv_pos_as_xyz
1 x,y,z
2 -x,-y,-z
_cell_length_a                   14.5600(13)
_cell_length_b                   15.0070(12)
_cell_length_c                   15.239(3)
_cell_angle_alpha                83.050(3)
_cell_angle_beta                 81.650(3)
_cell_angle_gamma                81.720(3)
_cell_volume                     3243.03
_exptl_crystal_colour            colorless
_cell_formula_units_Z            2
loop_
_atom_site_label
_atom_site_type_symbol
_atom_site_fract_x
_atom_site_fract_y
_atom_site_fract_z
C1 C -0.0555(2) 0.8108(2) 0.81604(19)
C2 C 0.2084(2) 0.82200(19) 0.83499(19)
C3 C 0.2804(2) 1.04725(19) 0.8905(2)
C4 C -0.2478(2) 1.0286(2) 0.85471(19)
C5 C 0.1713(2) 0.7304(2) 1.0847(2)
C6 C -0.0910(2) 0.72543(18) 1.06929(19)
C7 C -0.1479(2) 0.7357(2) 0.93269(19)
H1 H -0.1934 0.6971 0.9224
C8 C -0.0457(2) 0.6848(2) 0.92434(19)
H2 H -0.0445 0.6226 0.9104
C9 C 0.2037(2) 0.6938(2) 0.9401(2)
H3 H 0.2313 0.6342 0.9222
C10 C 0.2802(2) 0.7490(2) 0.9565(2)
H4 H 0.3421 0.7130 0.9531
C11 C 0.3462(2) 0.96525(19) 1.01010(19)
H5 H 0.4133 0.9451 1.0102
C12 C 0.3206(2) 1.06421(18) 1.03160(18)
H6 H 0.3759 1.0922 1.0372
C13 C 0.0983(2) 0.7184(2) 0.8167(2)
H7 H 0.1077 0.7466 0.7559
H8 H 0.1136 0.6535 0.8150
C14 C 0.3417(2) 0.88940(19) 0.87135(19)
H9 H 0.4027 0.8587 0.8831
H10 H 0.3471 0.9124 0.8088
C15 C 0.2541(2) 1.2033(2) 0.9344(2)
H11 H 0.2565 1.2169 0.8703
H12 H 0.3021 1.2324 0.9534
C16 C -0.2227(2) 0.8654(2) 0.8342(2)
H13 H -0.2069 0.8878 0.7722
H14 H -0.2717 0.8272 0.8373
C17 C 0.3002(2) 0.81888(19) 1.09932(19)
H15 H 0.2805 0.8029 1.1622
H16 H 0.3659 0.7956 1.0867
C18 C 0.0664(2) 0.6356(2) 1.0393(2)
H17 H 0.0542 0.6168 1.1026
H18 H 0.0819 0.5813 1.0086
N1 N -0.14201(17) 0.81219(17) 0.86545(16)
N2 N 0.00190(16) 0.73788(16) 0.85144(15)
N3 N 0.16227(16) 0.74931(16) 0.86757(16)
N4 N 0.27592(17) 0.82330(16) 0.88695(16)
N5 N 0.31854(17) 0.96507(16) 0.92345(16)
N6 N 0.27384(16) 1.10731(16) 0.95520(16)
N7 N -0.25794(17) 0.94186(16) 0.88562(15)
N8 N 0.28982(16) 0.91500(16) 1.08197(15)
N9 N 0.24672(17) 0.77539(16) 1.04723(16)
N10 N 0.14551(16) 0.68541(15) 1.02349(16)
N11 N -0.01755(17) 0.68615(15) 1.01023(16)
N12 N -0.16238(17) 0.75933(16) 1.02294(16)
O1 O -0.03309(15) 0.86547(15) 0.75107(14)
O2 O 0.19611(13) 0.87300(13) 0.76803(13)
O3 O 0.25525(13) 1.06907(13) 0.81713(13)
O4 O -0.20716(14) 1.05644(15) 0.78225(13)
O5 O 0.13685(13) 0.73119(14) 1.16325(12)
O6 O -0.08684(14) 0.72680(14) 1.14723(13)
C1A C 0.0555(2) 1.1892(2) 1.18396(19)
C2A C -0.2084(2) 1.17800(19) 1.16501(19)
C3A C -0.2804(2) 0.95275(19) 1.1095(2)
C4A C 0.2478(2) 0.9714(2) 1.14529(19)
C5A C -0.1713(2) 1.2696(2) 0.9153(2)
C6A C 0.0910(2) 1.27457(18) 0.93071(19)
C7A C 0.1479(2) 1.2643(2) 1.06731(19)
H1A H 0.1934 1.3029 1.0776
C8A C 0.0457(2) 1.3152(2) 1.07566(19)
H2A H 0.0445 1.3774 1.0896
C9A C -0.2037(2) 1.3062(2) 1.0599(2)
H3A H -0.2313 1.3658 1.0778
C10A C -0.2802(2) 1.2510(2) 1.0435(2)
H4A H -0.3421 1.2870 1.0469
C11A C -0.3462(2) 1.03475(19) 0.98990(19)
H5A H -0.4133 1.0549 0.9898
C12A C -0.3206(2) 0.93579(18) 0.96840(18)
H6A H -0.3759 0.9078 0.9628
C13A C -0.0983(2) 1.2816(2) 1.1833(2)
H7A H -0.1077 1.2534 1.2441
H8A H -0.1136 1.3465 1.1850
C14A C -0.3417(2) 1.11060(19) 1.12865(19)
H9A H -0.4027 1.1413 1.1169
H10A H -0.3471 1.0876 1.1912
C15A C -0.2541(2) 0.7967(2) 1.0656(2)
H11A H -0.2565 0.7831 1.1297
H12A H -0.3021 0.7676 1.0466
C16A C 0.2227(2) 1.1346(2) 1.1658(2)
H13A H 0.2069 1.1122 1.2278
H14A H 0.2717 1.1728 1.1627
C17A C -0.3002(2) 1.18112(19) 0.90068(19)
H15A H -0.2805 1.1971 0.8378
H16A H -0.3659 1.2044 0.9133
C18A C -0.0664(2) 1.3644(2) 0.9607(2)
H17A H -0.0542 1.3832 0.8974
H18A H -0.0819 1.4187 0.9914
N1A N 0.14201(17) 1.18781(17) 1.13455(16)
N2A N -0.00190(16) 1.26212(16) 1.14856(15)
N3A N -0.16227(16) 1.25069(16) 1.13243(16)
N4A N -0.27592(17) 1.17670(16) 1.11305(16)
N5A N -0.31854(17) 1.03493(16) 1.07655(16)
N6A N -0.27384(16) 0.89269(16) 1.04480(16)
N7A N 0.25794(17) 1.05814(16) 1.11438(15)
N8A N -0.28982(16) 1.08500(16) 0.91803(15)
N9A N -0.24672(17) 1.22461(16) 0.95277(16)
N10A N -0.14551(16) 1.31459(15) 0.97651(16)
N11A N 0.01755(17) 1.31385(15) 0.98977(16)
N12A N 0.16238(17) 1.24067(16) 0.97706(16)
O1A O 0.03309(15) 1.13453(15) 1.24893(14)
O2A O -0.19611(13) 1.12700(13) 1.23197(13)
O3A O -0.25525(13) 0.93093(13) 1.18287(13)
O4A O 0.20716(14) 0.94356(15) 1.21775(13)
O5A O -0.13685(13) 1.26881(14) 0.83675(12)
O6A O 0.08684(14) 1.27320(14) 0.85277(13)
C19 C 0.5849(2) 0.3639(2) 0.2465(2)
C20 C 0.6104(2) 0.2075(2) 0.4762(2)
C21 C 0.6626(2) 0.31431(19) 0.68241(19)
C22 C 0.6075(2) 0.63361(19) 0.24319(19)
C23 C 0.3425(2) 0.24566(19) 0.55265(18)
C24 C 0.3223(2) 0.4169(2) 0.33852(19)
C25 C 0.4358(2) 0.4160(2) 0.2135(2)
H19 H 0.4217 0.4191 0.1522
C26 C 0.4369(2) 0.3186(2) 0.2601(2)
H20 H 0.4196 0.2769 0.2225
C27 C 0.46539(19) 0.1643(2) 0.46661(19)
H21 H 0.4632 0.1064 0.4439
C28 C 0.48324(19) 0.15130(19) 0.56534(17)
H22 H 0.4834 0.0880 0.5904
C29 C 0.5300(2) 0.2586(2) 0.7609(2)
H23 H 0.5314 0.2059 0.8057
C30 C 0.5442(2) 0.3445(2) 0.8005(2)
H24 H 0.5564 0.3314 0.8626
C31 C 0.5687(2) 0.21080(19) 0.32508(18)
H25 H 0.6364 0.2009 0.3116
H26 H 0.5439 0.1622 0.3033
C32 C 0.6243(2) 0.1723(2) 0.63693(19)
H27 H 0.6907 0.1637 0.6156
H28 H 0.6098 0.1182 0.6751
C33 C 0.6779(2) 0.44226(19) 0.76103(19)
H29 H 0.7415 0.4324 0.7311
H30 H 0.6809 0.4367 0.8247
C34 C 0.5655(2) 0.51435(19) 0.16442(19)
H31 H 0.5415 0.5245 0.1075
H32 H 0.6331 0.5006 0.1526
C35 C 0.3880(2) 0.2158(2) 0.70128(19)
H33 H 0.4065 0.1570 0.7322
H34 H 0.3212 0.2311 0.7177
C36 C 0.3303(2) 0.2519(2) 0.39127(19)
H35 H 0.2638 0.2678 0.4091
H36 H 0.3379 0.2033 0.3532
N13 N 0.52844(17) 0.43693(17) 0.21530(16)
N14 N 0.53433(17) 0.29531(16) 0.27910(16)
N15 N 0.54325(17) 0.20708(17) 0.42248(16)
N16 N 0.57392(18) 0.18121(16) 0.56256(16)
N17 N 0.60550(16) 0.24713(15) 0.68922(16)
N18 N 0.62616(16) 0.37303(16) 0.74154(15)
N19 N 0.54328(16) 0.59632(16) 0.20741(15)
N20 N 0.43678(16) 0.28314(15) 0.73203(15)
N21 N 0.40592(17) 0.20934(16) 0.60828(16)
N22 N 0.37598(17) 0.22003(16) 0.47034(16)
N23 N 0.36863(17) 0.33040(16) 0.34082(16)
N24 N 0.36376(16) 0.46646(16) 0.26685(15)
O7 O 0.67095(13) 0.36005(13) 0.24855(13)
O8 O 0.68754(14) 0.23225(13) 0.45390(13)
O9 O 0.73454(14) 0.31767(14) 0.63026(13)
O10 O 0.68248(14) 0.60184(13) 0.25385(13)
O11 O 0.26810(14) 0.29457(13) 0.57269(13)
O12 O 0.25674(14) 0.44182(13) 0.39207(13)
C19A C 0.4151(2) 0.6361(2) 0.7535(2)
C20A C 0.3896(2) 0.7925(2) 0.5238(2)
C21A C 0.3374(2) 0.68569(19) 0.31759(19)
C22A C 0.3925(2) 0.36639(19) 0.75681(19)
C23A C 0.6575(2) 0.75434(19) 0.44735(18)
C24A C 0.6777(2) 0.5831(2) 0.66148(19)
C25A C 0.5642(2) 0.5840(2) 0.7865(2)
H19A H 0.5783 0.5809 0.8478
C26A C 0.5631(2) 0.6814(2) 0.7399(2)
H20A H 0.5804 0.7231 0.7775
C27A C 0.53461(19) 0.8357(2) 0.53339(19)
H21A H 0.5368 0.8936 0.5561
C28A C 0.51676(19) 0.84870(19) 0.43466(17)
H22A H 0.5166 0.9120 0.4096
C29A C 0.4700(2) 0.7414(2) 0.2391(2)
H23A H 0.4686 0.7941 0.1943
C30A C 0.4558(2) 0.6555(2) 0.1995(2)
H24A H 0.4436 0.6686 0.1374
C31A C 0.4313(2) 0.78920(19) 0.67492(18)
H25A H 0.3636 0.7991 0.6884
H26A H 0.4561 0.8378 0.6967
C32A C 0.3757(2) 0.8277(2) 0.36307(19)
H27A H 0.3093 0.8363 0.3844
H28A H 0.3902 0.8818 0.3249
C33A C 0.3221(2) 0.55774(19) 0.23897(19)
H29A H 0.2585 0.5676 0.2689
H30A H 0.3191 0.5633 0.1753
C34A C 0.4345(2) 0.48565(19) 0.83558(19)
H31A H 0.4585 0.4755 0.8925
H32A H 0.3669 0.4994 0.8474
C35A C 0.6120(2) 0.7842(2) 0.29872(19)
H33A H 0.5935 0.8430 0.2678
H34A H 0.6788 0.7689 0.2823
C36A C 0.6697(2) 0.7481(2) 0.60873(19)
H35A H 0.7362 0.7322 0.5909
H36A H 0.6621 0.7967 0.6468
N13A N 0.47156(17) 0.56307(17) 0.78470(16)
N14A N 0.46567(17) 0.70469(16) 0.72090(16)
N15A N 0.45675(17) 0.79292(17) 0.57752(16)
N16A N 0.42608(18) 0.81879(16) 0.43744(16)
N17A N 0.39450(16) 0.75287(15) 0.31078(16)
N18A N 0.37384(16) 0.62697(16) 0.25846(15)
N19A N 0.45672(16) 0.40368(16) 0.79259(15)
N20A N 0.56322(16) 0.71686(15) 0.26797(15)
N21A N 0.59408(17) 0.79066(16) 0.39172(16)
N22A N 0.62402(17) 0.77997(16) 0.52966(16)
N23A N 0.63137(17) 0.66960(16) 0.65918(16)
N24A N 0.63624(16) 0.53354(16) 0.73315(15)
O7A O 0.32905(13) 0.63995(13) 0.75145(13)
O8A O 0.31246(14) 0.76775(13) 0.54610(13)
O9A O 0.26546(14) 0.68233(14) 0.36974(13)
O10A O 0.31752(14) 0.39816(13) 0.74615(13)
O11A O 0.73190(14) 0.70543(13) 0.42731(13)
O12A O 0.74326(14) 0.55818(13) 0.60793(13)
C37 C 0.1821(2) 0.0812(2) 0.59374(19)
C38 C 0.1469(2) 0.0973(2) 0.51233(19)
H37 H 0.0872 0.1281 0.5086
C39 C 0.2016(3) 0.0669(3) 0.4369(2)
H38 H 0.1778 0.0760 0.3826
C40 C 0.2918(2) 0.0230(2) 0.4418(2)
H39 H 0.3288 0.0043 0.3906
C41 C 0.2731(2) 0.0363(2) 0.5982(3)
H40 H 0.2972 0.0262 0.6524
C42 C 0.1256(2) 0.1182(2) 0.6742(2)
H41 H 0.0757 0.1636 0.6559
H42 H 0.1651 0.1473 0.7050
C43 C 0.0299(2) 0.0848(2) 0.8117(2)
H43 H -0.0256 0.1213 0.7925
H44 H 0.0666 0.1248 0.8332
C44 C -0.0015(3) 0.0114(2) 0.8789(2)
H45 H 0.0106 -0.0447 0.8512
H46 H -0.0687 0.0244 0.8945
C45 C 0.0423(2) -0.0032(2) 0.9627(2)
H47 H 0.0819 0.0431 0.9647
H48 H 0.0795 -0.0622 0.9682
N25 N 0.3266(2) 0.00718(18) 0.52265(18)
N26 N 0.08419(17) 0.04503(16) 0.73671(16)
H49 H 0.0475 0.0176 0.7086
H50 H 0.1301 0.0032 0.7551
C37A C -0.1821(2) -0.0812(2) 1.40626(19)
C38A C -0.1469(2) -0.0973(2) 1.48767(19)
H37A H -0.0872 -0.1281 1.4914
C39A C -0.2016(3) -0.0669(3) 1.5631(2)
H38A H -0.1778 -0.0760 1.6174
C40A C -0.2918(2) -0.0230(2) 1.5582(2)
H39A H -0.3288 -0.0043 1.6094
C41A C -0.2731(2) -0.0363(2) 1.4018(3)
H40A H -0.2972 -0.0262 1.3476
C42A C -0.1256(2) -0.1182(2) 1.3258(2)
H41A H -0.0757 -0.1636 1.3441
H42A H -0.1651 -0.1473 1.2950
C43A C -0.0299(2) -0.0848(2) 1.1883(2)
H43A H 0.0256 -0.1213 1.2075
H44A H -0.0666 -0.1248 1.1668
C44A C 0.0015(3) -0.0114(2) 1.1211(2)
H45A H -0.0106 0.0447 1.1488
H46A H 0.0687 -0.0244 1.1055
C45A C -0.0423(2) 0.0032(2) 1.0373(2)
H47A H -0.0819 -0.0431 1.0353
H48A H -0.0795 0.0622 1.0318
N25A N -0.3266(2) -0.00718(18) 1.47735(18)
N26A N -0.08419(17) -0.04503(16) 1.26329(16)
H49A H -0.0475 -0.0176 1.2914
H50A H -0.1301 -0.0032 1.2449
C46 C 0.9223(2) 0.5670(2) 0.3899(2)
C47 C 0.9670(2) 0.5935(2) 0.3059(2)
H51 H 0.9570 0.5701 0.2548
C48 C 1.0451(2) 0.6909(2) 0.3765(2)
H52 H 1.0894 0.7309 0.3704
C49 C 0.9982(2) 0.6662(2) 0.4601(2)
H53 H 1.0066 0.6914 0.5108
C50 C 0.9358(2) 0.5993(2) 0.4635(2)
H54 H 0.9046 0.5785 0.5181
C51 C 0.8700(2) 0.4880(2) 0.3878(2)
H55 H 0.8952 0.4358 0.4250
H56 H 0.8748 0.4719 0.3273
C52 C 0.70455(19) 0.4481(2) 0.4319(2)
H57 H 0.7102 0.4050 0.4843
H58 H 0.7096 0.4170 0.3789
C53 C 0.6160(2) 0.5200(3) 0.4428(3)
H59 H 0.6233 0.5638 0.4823
H60 H 0.6032 0.5517 0.3856
C54 C 0.5388(2) 0.4629(3) 0.4831(2)
H61 H 0.5581 0.4195 0.5315
H62 H 0.5190 0.4313 0.4385
N27 N 1.02621(19) 0.65627(18) 0.30357(18)
N28 N 0.76945(18) 0.51851(17) 0.42283(18)
H63 H 0.7680 0.5381 0.4766
H64 H 0.7477 0.5660 0.3861
C46A C 0.0777(2) 0.4330(2) 0.6101(2)
C47A C 0.0330(2) 0.4065(2) 0.6941(2)
H51A H 0.0430 0.4299 0.7452
C48A C -0.0451(2) 0.3091(2) 0.6235(2)
H52A H -0.0894 0.2691 0.6296
C49A C 0.0018(2) 0.3338(2) 0.5399(2)
H53A H -0.0066 0.3086 0.4892
C50A C 0.0642(2) 0.4007(2) 0.5365(2)
H54A H 0.0954 0.4215 0.4819
C51A C 0.1300(2) 0.5120(2) 0.6122(2)
H55A H 0.1048 0.5642 0.5750
H56A H 0.1252 0.5281 0.6727
C52A C 0.29545(19) 0.5519(2) 0.5681(2)
H57A H 0.2898 0.5950 0.5157
H58A H 0.2904 0.5830 0.6211
C53A C 0.3840(2) 0.4800(3) 0.5572(3)
H59A H 0.3767 0.4362 0.5177
H60A H 0.3968 0.4483 0.6144
C54A C 0.4612(2) 0.5371(3) 0.5169(2)
H61A H 0.4419 0.5805 0.4685
H62A H 0.4810 0.5687 0.5615
N27A N -0.02621(19) 0.34373(18) 0.69643(18)
N28A N 0.23055(18) 0.48149(17) 0.57717(18)
H63A H 0.2320 0.4619 0.5234
H64A H 0.2523 0.4340 0.6139
N29 N 0.44921(16) 0.29507(16) 0.01934(16)
O13 O 0.50834(14) 0.34835(13) 0.02061(13)
O14 O 0.47377(15) 0.22692(13) -0.02125(13)
O15 O 0.36891(15) 0.30687(16) 0.05760(15)
N30 N 0.46699(16) 0.02995(15) 0.21533(15)
O16 O 0.43571(14) 0.10903(13) 0.19004(14)
O17 O 0.47072(14) -0.02991(14) 0.16545(13)
O18 O 0.50039(16) 0.01260(15) 0.28364(15)
O19 O 0.1645(4) 0.4717(4) 0.8881(5)
H65 H 0.1608 0.4372 0.8487
H66 H 0.1445 0.4472 0.9392
O20 O 0.8721(4) 0.1892(5) 0.5044(4)
H67 H 0.8202 0.2098 0.5328
H68 H 0.8648 0.1857 0.4506
O21 O 0.8799(3) 0.5983(4) 0.7493(3)
H69 H 0.9058 0.6396 0.7158
H70 H 0.8957 0.5482 0.7271
H71? H 0.3819 -0.0211 0.5257
H72? H 1.0537 0.6754 0.2524
loop_
_geom_bond_atom_site_label_1
_geom_bond_atom_site_label_2
_geom_bond_site_symmetry_1
_geom_bond_site_symmetry_2
C1 N1 1_555 1_555
C2 N3 1_555 1_555
C3 N5 1_555 1_555
C4 N7 1_555 1_555
C5 N9 1_555 1_555
C6 N11 1_555 1_555
C7 H1 1_555 1_555
C8 C7 1_555 1_555
H2 C8 1_555 1_555
C9 H3 1_555 1_555
C10 C9 1_555 1_555
H4 C10 1_555 1_555
C11 H5 1_555 1_555
C12 C11 1_555 1_555
H6 C12 1_555 1_555
C13 H7 1_555 1_555
H8 C13 1_555 1_555
C14 H9 1_555 1_555
H10 C14 1_555 1_555
C15 H11 1_555 1_555
H12 C15 1_555 1_555
C16 H13 1_555 1_555
H14 C16 1_555 1_555
C17 H15 1_555 1_555
H16 C17 1_555 1_555
C18 H17 1_555 1_555
H18 C18 1_555 1_555
N1 C7 1_555 1_555
N2 C1 1_555 1_555
N3 C9 1_555 1_555
N4 C2 1_555 1_555
N5 C11 1_555 1_555
N6 C3 1_555 1_555
N7 C16 1_555 1_555
N8 C11 1_555 1_555
N9 C10 1_555 1_555
N10 C5 1_555 1_555
N11 C8 1_555 1_555
N12 C6 1_555 1_555
O1 C1 1_555 1_555
O2 C2 1_555 1_555
O3 C3 1_555 1_555
O4 C4 1_555 1_555
O5 C5 1_555 1_555
O6 C6 1_555 1_555
C19 N13 1_555 1_555
C20 N15 1_555 1_555
C21 N17 1_555 1_555
C22 N19 1_555 1_555
C23 N21 1_555 1_555
C24 N23 1_555 1_555
C25 H19 1_555 1_555
C26 C25 1_555 1_555
H20 C26 1_555 1_555
C27 H21 1_555 1_555
C28 C27 1_555 1_555
H22 C28 1_555 1_555
C29 H23 1_555 1_555
C30 C29 1_555 1_555
H24 C30 1_555 1_555
C31 H25 1_555 1_555
H26 C31 1_555 1_555
C32 H27 1_555 1_555
H28 C32 1_555 1_555
C33 H29 1_555 1_555
H30 C33 1_555 1_555
C34 H31 1_555 1_555
H32 C34 1_555 1_555
C35 H33 1_555 1_555
H34 C35 1_555 1_555
C36 H35 1_555 1_555
H36 C36 1_555 1_555
N13 C25 1_555 1_555
N14 C19 1_555 1_555
N15 C27 1_555 1_555
N16 C20 1_555 1_555
N17 C29 1_555 1_555
N18 C21 1_555 1_555
N19 C34 1_555 1_555
N20 C29 1_555 1_555
N21 C28 1_555 1_555
N22 C23 1_555 1_555
N23 C26 1_555 1_555
N24 C24 1_555 1_555
O7 C19 1_555 1_555
O8 C20 1_555 1_555
O9 C21 1_555 1_555
O10 C22 1_555 1_555
O11 C23 1_555 1_555
O12 C24 1_555 1_555
C37 C38 1_555 1_555
C38 H37 1_555 1_555
C39 C38 1_555 1_555
H38 C39 1_555 1_555
C40 C39 1_555 1_555
H39 C40 1_555 1_555
C41 C37 1_555 1_555
H40 C41 1_555 1_555
C42 C37 1_555 1_555
H41 C42 1_555 1_555
H42 C42 1_555 1_555
C43 H43 1_555 1_555
H44 C43 1_555 1_555
C44 C43 1_555 1_555
H45 C44 1_555 1_555
H46 C44 1_555 1_555
C45 C44 1_555 1_555
H47 C45 1_555 1_555
H48 C45 1_555 1_555
N25 C40 1_555 1_555
N26 C42 1_555 1_555
H49 N26 1_555 1_555
H50 N26 1_555 1_555
C46 C47 1_555 1_555
C47 H51 1_555 1_555
C48 H52 1_555 1_555
C49 C48 1_555 1_555
H53 C49 1_555 1_555
C50 C46 1_555 1_555
H54 C50 1_555 1_555
C51 C46 1_555 1_555
H55 C51 1_555 1_555
H56 C51 1_555 1_555
C52 H57 1_555 1_555
H58 C52 1_555 1_555
C53 C52 1_555 1_555
H59 C53 1_555 1_555
H60 C53 1_555 1_555
C54 C53 1_555 1_555
H61 C54 1_555 1_555
H62 C54 1_555 1_555
N27 C47 1_555 1_555
N28 C51 1_555 1_555
H63 N28 1_555 1_555
H64 N28 1_555 1_555
N29 O13 1_555 1_555
O14 N29 1_555 1_555
O15 N29 1_555 1_555
N30 O16 1_555 1_555
O17 N30 1_555 1_555
O18 N30 1_555 1_555
O19 H65 1_555 1_555
H66 O19 1_555 1_555
O20 H67 1_555 1_555
H68 O20 1_555 1_555
O21 H69 1_555 1_555
H70 O21 1_555 1_555
C1A N1A 1_555 1_555
C2A N3A 1_555 1_555
C3A N5A 1_555 1_555
C4A N8 1_555 1_555
C5A N9A 1_555 1_555
C6A N11A 1_555 1_555
C7A H1A 1_555 1_555
C8A C7A 1_555 1_555
H2A C8A 1_555 1_555
C9A H3A 1_555 1_555
C10A C9A 1_555 1_555
H4A C10A 1_555 1_555
C11A H5A 1_555 1_555
C12A N7 1_555 1_555
H6A C12A 1_555 1_555
C13A H7A 1_555 1_555
H8A C13A 1_555 1_555
C14A H9A 1_555 1_555
H10A C14A 1_555 1_555
C15A N12 1_555 1_555
H11A C15A 1_555 1_555
H12A C15A 1_555 1_555
C16A H13A 1_555 1_555
H14A C16A 1_555 1_555
C17A H15A 1_555 1_555
H16A C17A 1_555 1_555
C18A H17A 1_555 1_555
H18A C18A 1_555 1_555
N1A C7A 1_555 1_555
N2A C1A 1_555 1_555
N3A C9A 1_555 1_555
N4A C2A 1_555 1_555
N5A C11A 1_555 1_555
N6A C3A 1_555 1_555
N7A C12 1_555 1_555
N8A C4 1_555 1_555
N9A C10A 1_555 1_555
N10A C5A 1_555 1_555
N11A C8A 1_555 1_555
N12A C15 1_555 1_555
O1A C1A 1_555 1_555
O2A C2A 1_555 1_555
O3A C3A 1_555 1_555
O4A C4A 1_555 1_555
O5A C5A 1_555 1_555
O6A C6A 1_555 1_555
C19A N13A 1_555 1_555
C20A N15A 1_555 1_555
C21A N17A 1_555 1_555
C22A N20 1_555 1_555
C23A N21A 1_555 1_555
C24A N23A 1_555 1_555
C25A H19A 1_555 1_555
C26A C25A 1_555 1_555
H20A C26A 1_555 1_555
C27A H21A 1_555 1_555
C28A C27A 1_555 1_555
H22A C28A 1_555 1_555
C29A H23A 1_555 1_555
C30A N19 1_555 1_555
H24A C30A 1_555 1_555
C31A H25A 1_555 1_555
H26A C31A 1_555 1_555
C32A H27A 1_555 1_555
H28A C32A 1_555 1_555
C33A N24 1_555 1_555
H29A C33A 1_555 1_555
H30A C33A 1_555 1_555
C34A H31A 1_555 1_555
H32A C34A 1_555 1_555
C35A H33A 1_555 1_555
H34A C35A 1_555 1_555
C36A H35A 1_555 1_555
H36A C36A 1_555 1_555
N13A C25A 1_555 1_555
N14A C19A 1_555 1_555
N15A C27A 1_555 1_555
N16A C20A 1_555 1_555
N17A C29A 1_555 1_555
N18A C21A 1_555 1_555
N19A C30 1_555 1_555
N20A C22 1_555 1_555
N21A C28A 1_555 1_555
N22A C23A 1_555 1_555
N23A C26A 1_555 1_555
N24A C33 1_555 1_555
O7A C19A 1_555 1_555
O8A C20A 1_555 1_555
O9A C21A 1_555 1_555
O10A C22A 1_555 1_555
O11A C23A 1_555 1_555
O12A C24A 1_555 1_555
C37A C38A 1_555 1_555
C38A H37A 1_555 1_555
C39A C38A 1_555 1_555
H38A C39A 1_555 1_555
C40A C39A 1_555 1_555
H39A C40A 1_555 1_555
C41A C37A 1_555 1_555
H40A C41A 1_555 1_555
C42A C37A 1_555 1_555
H41A C42A 1_555 1_555
H42A C42A 1_555 1_555
C43A H43A 1_555 1_555
H44A C43A 1_555 1_555
C44A C43A 1_555 1_555
H45A C44A 1_555 1_555
H46A C44A 1_555 1_555
C45A C45 1_555 1_555
H47A C45A 1_555 1_555
H48A C45A 1_555 1_555
N25A C40A 1_555 1_555
N26A C42A 1_555 1_555
H49A N26A 1_555 1_555
H50A N26A 1_555 1_555
C46A C47A 1_555 1_555
C47A H51A 1_555 1_555
C48A H52A 1_555 1_555
C49A C48A 1_555 1_555
H53A C49A 1_555 1_555
C50A C46A 1_555 1_555
H54A C50A 1_555 1_555
C51A C46A 1_555 1_555
H55A C51A 1_555 1_555
H56A C51A 1_555 1_555
C52A H57A 1_555 1_555
H58A C52A 1_555 1_555
C53A C52A 1_555 1_555
H59A C53A 1_555 1_555
H60A C53A 1_555 1_555
C54A C54 1_555 1_555
H61A C54A 1_555 1_555
H62A C54A 1_555 1_555
N27A C47A 1_555 1_555
N28A C51A 1_555 1_555
H63A N28A 1_555 1_555
H64A N28A 1_555 1_555
C7 N12 1_555 1_555
C8 N2 1_555 1_555
C9 N10 1_555 1_555
C10 N4 1_555 1_555
C12 N6 1_555 1_555
C13 N2 1_555 1_555
C13 N3 1_555 1_555
C14 N4 1_555 1_555
C14 N5 1_555 1_555
C15 N6 1_555 1_555
C16 N1 1_555 1_555
C17 N8 1_555 1_555
C17 N9 1_555 1_555
C18 N10 1_555 1_555
C18 N11 1_555 1_555
C25 N24 1_555 1_555
C26 N14 1_555 1_555
C27 N22 1_555 1_555
C28 N16 1_555 1_555
C30 N18 1_555 1_555
C31 N14 1_555 1_555
C31 N15 1_555 1_555
C32 N16 1_555 1_555
C32 N17 1_555 1_555
C33 N18 1_555 1_555
C34 N13 1_555 1_555
C35 N20 1_555 1_555
C35 N21 1_555 1_555
C36 N22 1_555 1_555
C36 N23 1_555 1_555
C41 N25 1_555 1_555
C43 N26 1_555 1_555
C48 N27 1_555 1_555
C49 C50 1_555 1_555
C52 N28 1_555 1_555
C4A N7A 1_555 1_555
C6A N12A 1_555 1_555
C7A N12A 1_555 1_555
C8A N2A 1_555 1_555
C9A N10A 1_555 1_555
C10A N4A 1_555 1_555
C11A C12A 1_555 1_555
C11A N8A 1_555 1_555
C12A N6A 1_555 1_555
C13A N2A 1_555 1_555
C13A N3A 1_555 1_555
C14A N4A 1_555 1_555
C14A N5A 1_555 1_555
C15A N6A 1_555 1_555
C16A N1A 1_555 1_555
C16A N7A 1_555 1_555
C17A N8A 1_555 1_555
C17A N9A 1_555 1_555
C18A N10A 1_555 1_555
C18A N11A 1_555 1_555
C22A N19A 1_555 1_555
C24A N24A 1_555 1_555
C25A N24A 1_555 1_555
C26A N14A 1_555 1_555
C27A N22A 1_555 1_555
C28A N16A 1_555 1_555
C29A C30A 1_555 1_555
C29A N20A 1_555 1_555
C30A N18A 1_555 1_555
C31A N14A 1_555 1_555
C31A N15A 1_555 1_555
C32A N16A 1_555 1_555
C32A N17A 1_555 1_555
C33A N18A 1_555 1_555
C34A N13A 1_555 1_555
C34A N19A 1_555 1_555
C35A N20A 1_555 1_555
C35A N21A 1_555 1_555
C36A N22A 1_555 1_555
C36A N23A 1_555 1_555
C41A N25A 1_555 1_555
C43A N26A 1_555 1_555
C44A C45A 1_555 1_555
C48A N27A 1_555 1_555
C49A C50A 1_555 1_555
C52A N28A 1_555 1_555
C53A C54A 1_555 1_555

#END
