
#######################################################################
#
#                 Cambridge Crystallographic Data Centre
#                                CCDC 
#
#######################################################################
#
# If this CIF has been generated from an entry in the Cambridge 
# Structural Database, then it will include bibliographic, chemical, 
# crystal, experimental, refinement or atomic coordinate data resulting 
# from the CCDC's data processing and validation procedures.
#
#######################################################################

data_QEKDUI
_chemical_formula_moiety         'C21 H15 N3 O4,H2 O1'
_chemical_name_systematic        
'4-[3,5-bis(2-hydroxyphenyl)-1H-1,2,4-triazol-1-yl]benzoic acid monohydrate'
_symmetry_cell_setting           monoclinic
_symmetry_space_group_name_H-M   'P 21/c'
_symmetry_Int_Tables_number      14
_space_group_name_Hall           '-P 2ybc'
loop_
_symmetry_equiv_pos_site_id
_symmetry_equiv_pos_as_xyz
1 x,y,z
2 -x,1/2+y,1/2-z
3 -x,-y,-z
4 x,1/2-y,1/2+z
_cell_length_a                   8.9201(2)
_cell_length_b                   29.7303(8)
_cell_length_c                   7.20740(19)
_cell_angle_alpha                90
_cell_angle_beta                 97.790(3)
_cell_angle_gamma                90
_cell_volume                     1893.74
_exptl_crystal_colour            colorless
_cell_formula_units_Z            4
loop_
_atom_site_label
_atom_site_type_symbol
_atom_site_fract_x
_atom_site_fract_y
_atom_site_fract_z
C1 C 0.80640(16) 0.66452(5) 0.60367(18)
C2 C 0.62356(15) 0.64134(5) 0.73858(18)
C3 C 0.94280(16) 0.68853(5) 0.56476(18)
C4 C 0.93076(17) 0.73325(5) 0.50537(19)
C5 C 1.06112(19) 0.75661(6) 0.4808(2)
H1 H 1.0547 0.7866 0.4439
C6 C 1.19970(19) 0.73578(6) 0.5105(2)
H2 H 1.2862 0.7517 0.4921
C7 C 1.21206(19) 0.69140(6) 0.5674(2)
H3 H 1.3063 0.6775 0.5864
C8 C 1.08385(17) 0.66786(5) 0.5959(2)
H4 H 1.0918 0.6381 0.6360
C9 C 0.51692(15) 0.63638(5) 0.87516(19)
C10 C 0.41268(18) 0.60115(6) 0.8619(2)
C11 C 0.3138(2) 0.59654(7) 0.9928(3)
H5 H 0.2443 0.5731 0.9822
C12 C 0.3180(2) 0.62653(7) 1.1386(2)
H6 H 0.2518 0.6232 1.2268
C13 C 0.4199(2) 0.66158(6) 1.1542(2)
H7 H 0.4226 0.6818 1.2529
C14 C 0.51802(18) 0.66655(6) 1.0232(2)
H8 H 0.5860 0.6904 1.0339
C15 C 0.77609(16) 0.60639(5) 0.34255(19)
C16 C 0.86280(17) 0.62747(5) 0.2217(2)
H9 H 0.8977 0.6566 0.2455
C17 C 0.89642(17) 0.60460(5) 0.0661(2)
H10 H 0.9571 0.6182 -0.0129
C18 C 0.84120(17) 0.56172(5) 0.02593(19)
C19 C 0.7527(2) 0.54155(6) 0.1458(2)
H11 H 0.7140 0.5129 0.1191
C20 C 0.7212(2) 0.56357(6) 0.3048(2)
H12 H 0.6632 0.5496 0.3860
C21 C 0.87749(18) 0.53937(5) -0.1475(2)
N1 N 0.73423(13) 0.67322(4) 0.74844(16)
N2 N 0.74051(13) 0.62890(4) 0.50679(16)
N3 N 0.62348(14) 0.61376(4) 0.59408(16)
O1 O 0.78960(13) 0.75099(4) 0.47490(19)
H13 H 0.7897 0.7732 0.4073
O2 O 0.40297(15) 0.56994(5) 0.72002(19)
H14 H 0.4666 0.5756 0.6512
O3 O 0.95093(14) 0.55735(4) -0.25555(15)
O4 O 0.82272(18) 0.49863(4) -0.17064(18)
H15 H 0.8383 0.4890 -0.2729
O5 O 0.13744(16) 0.54359(6) 0.47342(17)
H16 H 0.2186 0.5499 0.5446
H17 H 0.0638 0.5434 0.5369
loop_
_geom_bond_atom_site_label_1
_geom_bond_atom_site_label_2
_geom_bond_site_symmetry_1
_geom_bond_site_symmetry_2
C1 C3 1_555 1_555
C2 C9 1_555 1_555
C3 C4 1_555 1_555
C4 C5 1_555 1_555
C5 H1 1_555 1_555
C6 C5 1_555 1_555
H2 C6 1_555 1_555
C7 C6 1_555 1_555
H3 C7 1_555 1_555
C8 C3 1_555 1_555
H4 C8 1_555 1_555
C9 C10 1_555 1_555
C10 C11 1_555 1_555
C11 H5 1_555 1_555
C12 C11 1_555 1_555
H6 C12 1_555 1_555
C13 C12 1_555 1_555
H7 C13 1_555 1_555
C14 C9 1_555 1_555
H8 C14 1_555 1_555
C15 C16 1_555 1_555
C16 H9 1_555 1_555
C17 C16 1_555 1_555
H10 C17 1_555 1_555
C18 C17 1_555 1_555
C19 C18 1_555 1_555
H11 C19 1_555 1_555
C20 C15 1_555 1_555
H12 C20 1_555 1_555
C21 C18 1_555 1_555
N1 C1 1_555 1_555
N2 C1 1_555 1_555
N3 C2 1_555 1_555
O1 C4 1_555 1_555
H13 O1 1_555 1_555
O2 C10 1_555 1_555
H14 O2 1_555 1_555
O3 C21 1_555 1_555
O4 C21 1_555 1_555
H15 O4 1_555 1_555
O5 H16 1_555 1_555
H17 O5 1_555 1_555
C2 N1 1_555 1_555
C7 C8 1_555 1_555
C13 C14 1_555 1_555
C15 N2 1_555 1_555
C19 C20 1_555 1_555
N2 N3 1_555 1_555

#END
