
#######################################################################
#
#                 Cambridge Crystallographic Data Centre
#                                CCDC 
#
#######################################################################
#
# If this CIF has been generated from an entry in the Cambridge 
# Structural Database, then it will include bibliographic, chemical, 
# crystal, experimental, refinement or atomic coordinate data resulting 
# from the CCDC's data processing and validation procedures.
#
#######################################################################

data_QEKDEP
_chemical_formula_moiety         'C14 H14 N2'
_chemical_name_systematic        (Z)-1,1'-Bi-3-cyanocyclohex-2-enylidene
_symmetry_cell_setting           triclinic
_symmetry_space_group_name_H-M   'P -1'
_symmetry_Int_Tables_number      2
_space_group_name_Hall           '-P 1'
loop_
_symmetry_equiv_pos_site_id
_symmetry_equiv_pos_as_xyz
1 x,y,z
2 -x,-y,-z
_cell_length_a                   7.0790(6)
_cell_length_b                   11.3155(9)
_cell_length_c                   15.386(1)
_cell_angle_alpha                104.943(1)
_cell_angle_beta                 90.164(2)
_cell_angle_gamma                99.494(2)
_cell_volume                     1173.13
_exptl_crystal_colour            colorless
_exptl_crystal_description       needle
_chemical_melting_point          '171.5 deg.C'
_cell_formula_units_Z            4
_exptl_crystal_recrystallization_method 'ethyl acetate/petroleum ether'
loop_
_atom_site_label
_atom_site_type_symbol
_atom_site_fract_x
_atom_site_fract_y
_atom_site_fract_z
N1 N 0.2371(3) 0.3841(2) 0.6901(1)
N2 N 0.2308(3) 1.0388(2) 0.5672(1)
C1 C 0.2615(2) 0.5100(2) 0.4110(1)
C2 C 0.2489(2) 0.4978(2) 0.5022(1)
C3 C 0.2457(2) 0.3897(2) 0.5234(1)
C4 C 0.2473(3) 0.2685(2) 0.4542(1)
C5 C 0.1779(3) 0.2761(2) 0.3632(1)
C6 C 0.2800(3) 0.3923(2) 0.3400(1)
C7 C 0.2408(3) 0.3879(2) 0.6165(2)
C8 C 0.2632(3) 0.6204(2) 0.3899(1)
C9 C 0.2515(2) 0.7342(2) 0.4581(1)
C10 C 0.2459(2) 0.8427(2) 0.4392(1)
C11 C 0.2529(3) 0.8582(2) 0.3453(1)
C12 C 0.3460(4) 0.7590(2) 0.2862(2)
C13 C 0.2730(3) 0.6309(2) 0.2944(1)
C14 C 0.2374(3) 0.9499(2) 0.5110(2)
N3 N -0.1581(3) 0.8843(2) -0.1140(1)
N4 N 0.6475(3) 1.2032(2) 0.3030(1)
C15 C 0.4057(3) 0.7623(2) -0.0030(1)
C16 C 0.2531(3) 0.8232(2) -0.0235(1)
C17 C 0.1100(3) 0.7670(2) -0.0844(1)
C18 C 0.0855(4) 0.6336(2) -0.1360(2)
C19 C 0.1991(4) 0.5644(2) -0.0896(2)
C20 C 0.4023(3) 0.6331(2) -0.0641(2)
C21 C -0.0354(3) 0.8345(2) -0.1005(1)
C22 C 0.5407(3) 0.8160(2) 0.0657(1)
C23 C 0.5387(3) 0.9373(2) 0.1265(1)
C24 C 0.6671(3) 0.9882(2) 0.1962(1)
C25 C 0.8285(3) 0.9274(2) 0.2172(1)
C26 C 0.8740(3) 0.8357(2) 0.1328(1)
C27 C 0.6960(3) 0.7483(2) 0.0863(1)
C28 C 0.6519(3) 1.1074(2) 0.2549(1)
loop_
_geom_bond_atom_site_label_1
_geom_bond_atom_site_label_2
_geom_bond_site_symmetry_1
_geom_bond_site_symmetry_2
N1 C7 1_555 1_555
N2 C14 1_555 1_555
C1 C2 1_555 1_555
C2 C3 1_555 1_555
C3 C4 1_555 1_555
C4 C5 1_555 1_555
C5 C6 1_555 1_555
C6 C1 1_555 1_555
C7 C3 1_555 1_555
C8 C1 1_555 1_555
C9 C8 1_555 1_555
C10 C9 1_555 1_555
C11 C10 1_555 1_555
C12 C11 1_555 1_555
C13 C8 1_555 1_555
C14 C10 1_555 1_555
N3 C21 1_555 1_555
N4 C28 1_555 1_555
C15 C16 1_555 1_555
C16 C17 1_555 1_555
C17 C18 1_555 1_555
C18 C19 1_555 1_555
C19 C20 1_555 1_555
C20 C15 1_555 1_555
C21 C17 1_555 1_555
C22 C15 1_555 1_555
C23 C22 1_555 1_555
C24 C23 1_555 1_555
C25 C24 1_555 1_555
C26 C25 1_555 1_555
C27 C22 1_555 1_555
C28 C24 1_555 1_555
C12 C13 1_555 1_555
C26 C27 1_555 1_555

#END
