
#######################################################################
#
#                 Cambridge Crystallographic Data Centre
#                                CCDC 
#
#######################################################################
#
# If this CIF has been generated from an entry in the Cambridge 
# Structural Database, then it will include bibliographic, chemical, 
# crystal, experimental, refinement or atomic coordinate data resulting 
# from the CCDC's data processing and validation procedures.
#
#######################################################################

data_QEKGAR
_chemical_formula_moiety         'C21 H15 N3 O4,2(C6 H6 N2 O1)'
_chemical_name_systematic        
'4-[3,5-bis(2-hydroxyphenyl)-1H-1,2,4-triazol-1-yl]benzoic acid pyridine-4-carboxamide'
_symmetry_cell_setting           monoclinic
_symmetry_space_group_name_H-M   'C 2/c'
_symmetry_Int_Tables_number      15
_space_group_name_Hall           '-C 2yn'
loop_
_symmetry_equiv_pos_site_id
_symmetry_equiv_pos_as_xyz
1 x,y,z
2 -x,y,1/2-z
3 1/2+x,1/2+y,z
4 1/2-x,1/2+y,1/2-z
5 -x,-y,-z
6 x,-y,1/2+z
7 1/2-x,1/2-y,-z
8 1/2+x,1/2-y,1/2+z
_cell_length_a                   21.5782(6)
_cell_length_b                   8.4837(2)
_cell_length_c                   37.8874(12)
_cell_angle_alpha                90
_cell_angle_beta                 101.377(3)
_cell_angle_gamma                90
_cell_volume                     6799.5
_exptl_crystal_colour            colorless
_cell_formula_units_Z            8
loop_
_atom_site_label
_atom_site_type_symbol
_atom_site_fract_x
_atom_site_fract_y
_atom_site_fract_z
O1 O 0.65749(5) -0.02956(14) 0.48846(3)
H1 H 0.6871 -0.0674 0.5029
O2 O 0.35488(6) -0.0737(2) 0.40742(4)
H2 H 0.3826 -0.0251 0.4211
O3 O 0.45984(6) 0.47140(17) 0.58754(3)
O4 O 0.55797(6) 0.55630(16) 0.58797(3)
H3 H 0.5526 0.6033 0.6060
N1 N 0.54769(5) 0.00194(15) 0.40197(3)
N2 N 0.52272(5) 0.11988(14) 0.44889(3)
N3 N 0.46837(5) 0.04812(14) 0.43125(3)
C1 C 0.56967(6) 0.08945(17) 0.43062(4)
C2 C 0.48560(6) -0.02177(17) 0.40360(4)
C3 C 0.63625(6) 0.14149(17) 0.43889(4)
C4 C 0.67993(7) 0.07236(17) 0.46672(4)
C5 C 0.74332(7) 0.11139(19) 0.47076(4)
H4 H 0.7728 0.0651 0.4891
C6 C 0.76306(7) 0.2179(2) 0.44796(4)
H5 H 0.8057 0.2430 0.4510
C7 C 0.72019(7) 0.2878(2) 0.42062(4)
H6 H 0.7338 0.3605 0.4054
C8 C 0.65690(7) 0.24911(19) 0.41602(4)
H7 H 0.6279 0.2953 0.3975
C9 C 0.44239(7) -0.11943(19) 0.37781(4)
C10 C 0.38006(7) -0.1437(2) 0.38139(5)
C11 C 0.34130(9) -0.2433(3) 0.35765(6)
H8 H 0.3000 -0.2613 0.3604
C12 C 0.36323(10) -0.3146(3) 0.33041(6)
H9 H 0.3365 -0.3794 0.3144
C13 C 0.42476(10) -0.2917(3) 0.32632(6)
H10 H 0.4397 -0.3410 0.3077
C14 C 0.46378(9) -0.1951(3) 0.35010(5)
H11 H 0.5054 -0.1803 0.3475
C15 C 0.52148(6) 0.20635(16) 0.48107(4)
C16 C 0.57018(7) 0.30730(18) 0.49595(4)
H12 H 0.6051 0.3194 0.4852
C17 C 0.56643(7) 0.38962(18) 0.52682(4)
H13 H 0.5996 0.4554 0.5371
C18 C 0.51435(7) 0.37666(17) 0.54293(4)
C19 C 0.46597(7) 0.27419(18) 0.52768(4)
H14 H 0.4308 0.2631 0.5383
C20 C 0.46937(7) 0.18900(17) 0.49715(4)
H15 H 0.4369 0.1202 0.4874
C21 C 0.50748(7) 0.47081(19) 0.57511(4)
O5 O 0.59544(7) 0.9207(3) 0.77507(4)
N4 N 0.56620(8) 0.7159(2) 0.64981(4)
N5 N 0.69041(10) 0.9718(4) 0.76237(6)
H16 H 0.7183(14) 0.978(4) 0.7461(8)
H17 H 0.7050(12) 1.009(3) 0.7848(8)
C22 C 0.62666(10) 0.7456(3) 0.66178(6)
H18 H 0.6548 0.7202 0.6470
C23 C 0.65072(10) 0.8118(3) 0.69476(6)
H19 H 0.6939 0.8300 0.7019
C24 C 0.60999(9) 0.8503(3) 0.71687(5)
C25 C 0.54670(9) 0.8224(3) 0.70446(5)
H20 H 0.5174 0.8486 0.7185
C26 C 0.52705(9) 0.7553(3) 0.67114(5)
H21 H 0.4841 0.7368 0.6632
C27 C 0.63183(10) 0.9184(3) 0.75392(5)
H22 H 0.1092(10) 0.463(2) 0.3641(6)
O6 O 0.23062(6) 0.4271(2) 0.33618(4)
N6 N 0.26474(7) 0.17984(17) 0.45690(4)
N7 N 0.13339(7) 0.4562(2) 0.34842(4)
H23 H 0.1187(11) 0.498(3) 0.3262(7)
C28 C 0.21596(7) 0.3358(2) 0.39263(4)
C29 C 0.27940(8) 0.3475(2) 0.40856(4)
H24 H 0.3067 0.4080 0.3980
C30 C 0.30123(8) 0.2684(2) 0.44016(4)
H25 H 0.3439 0.2769 0.4505
C31 C 0.20363(8) 0.1712(2) 0.44159(5)
H26 H 0.1773 0.1112 0.4530
C32 C 0.17738(8) 0.2457(2) 0.41004(4)
H27 H 0.1344 0.2359 0.4004
C33 C 0.19348(8) 0.4125(2) 0.35679(4)
loop_
_geom_bond_atom_site_label_1
_geom_bond_atom_site_label_2
_geom_bond_site_symmetry_1
_geom_bond_site_symmetry_2
O1 H1 1_555 1_555
O2 H2 1_555 1_555
O3 C21 1_555 1_555
O4 H3 1_555 1_555
N1 C1 1_555 1_555
N2 N3 1_555 1_555
N3 C2 1_555 1_555
C1 N2 1_555 1_555
C2 N1 1_555 1_555
C3 C1 1_555 1_555
C4 O1 1_555 1_555
C5 C4 1_555 1_555
H4 C5 1_555 1_555
C6 C5 1_555 1_555
H5 C6 1_555 1_555
C7 C6 1_555 1_555
H6 C7 1_555 1_555
C8 C3 1_555 1_555
H7 C8 1_555 1_555
C9 C2 1_555 1_555
C10 O2 1_555 1_555
C11 C10 1_555 1_555
H8 C11 1_555 1_555
C12 C11 1_555 1_555
H9 C12 1_555 1_555
C13 C12 1_555 1_555
H10 C13 1_555 1_555
C14 C9 1_555 1_555
H11 C14 1_555 1_555
C15 N2 1_555 1_555
C16 C15 1_555 1_555
H12 C16 1_555 1_555
C17 C16 1_555 1_555
H13 C17 1_555 1_555
C18 C17 1_555 1_555
C19 C18 1_555 1_555
H14 C19 1_555 1_555
C20 C15 1_555 1_555
H15 C20 1_555 1_555
C21 O4 1_555 1_555
O5 C27 1_555 1_555
N4 C22 1_555 1_555
N5 H16 1_555 1_555
H17 N5 1_555 1_555
C22 H18 1_555 1_555
C23 C22 1_555 1_555
H19 C23 1_555 1_555
C24 C23 1_555 1_555
C25 C24 1_555 1_555
H20 C25 1_555 1_555
C26 N4 1_555 1_555
H21 C26 1_555 1_555
C27 N5 1_555 1_555
H22 N7 1_555 1_555
O6 C33 1_555 1_555
N6 C30 1_555 1_555
N7 H23 1_555 1_555
C28 C29 1_555 1_555
C29 H24 1_555 1_555
C30 C29 1_555 1_555
H25 C30 1_555 1_555
C31 N6 1_555 1_555
H26 C31 1_555 1_555
C32 C28 1_555 1_555
H27 C32 1_555 1_555
C33 N7 1_555 1_555
C3 C4 1_555 1_555
C7 C8 1_555 1_555
C9 C10 1_555 1_555
C13 C14 1_555 1_555
C18 C21 1_555 1_555
C19 C20 1_555 1_555
C24 C27 1_555 1_555
C25 C26 1_555 1_555
C28 C33 1_555 1_555
C31 C32 1_555 1_555

#END
