
#######################################################################
#
#                 Cambridge Crystallographic Data Centre
#                                CCDC 
#
#######################################################################
#
# If this CIF has been generated from an entry in the Cambridge 
# Structural Database, then it will include bibliographic, chemical, 
# crystal, experimental, refinement or atomic coordinate data resulting 
# from the CCDC's data processing and validation procedures.
#
#######################################################################

data_QEKNAW
_chemical_formula_moiety         'C29 H30 N2 O9,C1 H4 O1'
_chemical_name_systematic        
'rac-9^2^-Benzyloxy-1^4^-(methoxycarbonyl)-6,12-dioxo-5,13-diaza-2,8,10,16-tetraoxa-1(1,2),9(1,3)-dibenzenahexadecacyclophane methanol solvate'
_symmetry_cell_setting           rhombohedral
_symmetry_space_group_name_H-M   'R -3'
_symmetry_Int_Tables_number      148
_space_group_name_Hall           '-P 3*'
loop_
_symmetry_equiv_pos_site_id
_symmetry_equiv_pos_as_xyz
1 x,y,z
2 z,x,y
3 y,z,x
4 -x,-y,-z
5 -z,-x,-y
6 -y,-z,-x
_cell_length_a                   25.502(6)
_cell_length_b                   25.502(6)
_cell_length_c                   25.502(6)
_cell_angle_alpha                118.94(3)
_cell_angle_beta                 118.94(3)
_cell_angle_gamma                118.94(3)
_cell_volume                     4417.14
_exptl_crystal_colour            colorless
_chemical_melting_point          '108.8-110.2 deg.C'
_cell_formula_units_Z            6
_exptl_crystal_recrystallization_method methanol/chloroform
loop_
_atom_site_label
_atom_site_type_symbol
_atom_site_fract_x
_atom_site_fract_y
_atom_site_fract_z
C1 C 0.4500(6) 0.1490(6) 0.2511(6)
C2 C 0.3109(6) 0.0244(6) 0.0902(6)
H1 H 0.2471 0.0009 0.0467
C3 C 0.2665(6) -0.0651(6) -0.0059(6)
H2 H 0.1724 -0.1492 -0.1156
C4 C 0.3547(6) -0.0363(6) 0.0523(6)
H3 H 0.3215 -0.1000 -0.0162
C5 C 0.4924(5) 0.0876(5) 0.2130(5)
C6 C 0.5422(5) 0.1825(5) 0.3135(5)
C7 C 0.8422(5) 0.4700(5) 0.6088(5)
H4 H 0.8510 0.5215 0.6301
H5 H 0.8545 0.4588 0.5762
C8 C 0.9799(5) 0.5811(5) 0.7669(5)
C9 C 1.0611(6) 0.6992(6) 0.8943(6)
H6 H 1.0248 0.7058 0.8790
C10 C 1.1955(7) 0.8082(6) 1.0443(6)
H7 H 1.2527 0.8912 1.1328
C11 C 1.2468(6) 0.7975(6) 1.0664(6)
H8 H 1.3395 0.8732 1.1702
C12 C 1.1639(6) 0.6771(6) 0.9385(6)
H9 H 1.1970 0.6672 0.9521
C13 C 1.0325(6) 0.5710(6) 0.7905(6)
H10 H 0.9768 0.4895 0.7032
C14 C 0.3902(7) 0.1599(7) 0.2986(7)
H11 H 0.2731 0.0354 0.1736
H12 H 0.3867 0.2010 0.3167
C15 C 0.4402(6) 0.1855(6) 0.3892(6)
C16 C 0.6361(6) 0.3113(6) 0.5989(6)
H13 H 0.6522 0.3620 0.6537
H14 H 0.7508 0.4007 0.6917
C17 C 0.5259(6) 0.1636(6) 0.5027(6)
H15 H 0.5639 0.1961 0.5737
H16 H 0.4046 0.0634 0.3952
C18 C 0.4666(5) 0.0033(5) 0.3964(5)
C19 C 0.3543(5) -0.0964(5) 0.3359(5)
H17 H 0.3239 -0.0863 0.3386
C20 C 0.2867(5) -0.2101(5) 0.2719(5)
C21 C 0.1735(5) -0.3087(5) 0.2162(5)
C22 C 0.0264(6) -0.4964(6) 0.1220(6)
H18 H 0.0966 -0.4121 0.2242
H19 H -0.0051 -0.5667 0.0834
H20 H -0.0781 -0.5707 0.0300
C23 C 0.3305(5) -0.2258(5) 0.2673(5)
H21 H 0.2832 -0.3049 0.2222
C24 C 0.4428(5) -0.1260(5) 0.3285(5)
H22 H 0.4739 -0.1356 0.3268
C25 C 0.5112(5) -0.0116(6) 0.3928(5)
C26 C 0.6659(6) 0.0738(6) 0.4481(6)
H23 H 0.5600 -0.0470 0.3280
H24 H 0.7265 0.1067 0.5203
C27 C 0.7796(6) 0.1899(6) 0.5125(6)
H25 H 0.8872 0.3106 0.6344
H26 H 0.8104 0.1793 0.5071
C28 C 0.5963(5) 0.0320(6) 0.2700(6)
C29 C 0.5107(6) -0.0035(5) 0.1760(5)
H27 H 0.5224 -0.0054 0.1438
H28 H 0.3867 -0.1171 0.0695
H35 H 0.613(6) 0.292(6) 0.502(6)
H36 H 0.690(6) 0.180(6) 0.427(6)
N1 N 0.5666(5) 0.2653(5) 0.4929(5)
N2 N 0.6968(5) 0.1486(5) 0.4127(5)
O1 O 0.6773(3) 0.3024(3) 0.4720(3)
O2 O 0.5060(4) 0.2484(4) 0.3575(4)
O3 O 0.3596(5) 0.1305(5) 0.3620(5)
O4 O 0.5400(4) 0.1196(4) 0.4631(4)
O5 O 0.1349(4) -0.2968(4) 0.2215(4)
O6 O 0.1234(4) -0.4079(4) 0.1635(4)
O7 O 0.6234(4) 0.0923(4) 0.4568(4)
O8 O 0.5731(4) -0.0433(4) 0.2153(4)
O9 O 0.5907(4) 0.1288(4) 0.2860(4)
C30 C 0.211(3) 0.386(2) 0.255(2)
H29 H 0.3148 0.4628 0.3308
H30 H 0.2413 0.4456 0.3242
H31 H 0.1562 0.3545 0.1828
O10 O 0.095(3) 0.236(3) 0.149(3)
H37 H 0.0362 0.1986 0.1256
C31? C 0.8661(18) -0.005(2) -0.016(2)
H32? H 0.8799 -0.0039 0.0278
H33? H 0.7814 -0.1099 -0.1250
H34? H 0.8263 -0.0003 -0.0343
O11? O 1.0248(15) 0.1394(17) 0.1045(15)
H38? H 1.0213 0.1073 0.0661
loop_
_geom_bond_atom_site_label_1
_geom_bond_atom_site_label_2
_geom_bond_site_symmetry_1
_geom_bond_site_symmetry_2
C1 C2 1_555 1_555
C2 H1 1_555 1_555
C3 C2 1_555 1_555
H2 C3 1_555 1_555
C4 C3 1_555 1_555
H3 C4 1_555 1_555
C5 C4 1_555 1_555
C6 C1 1_555 1_555
C7 H4 1_555 1_555
H5 C7 1_555 1_555
C8 C7 1_555 1_555
C9 C8 1_555 1_555
H6 C9 1_555 1_555
C10 C9 1_555 1_555
H7 C10 1_555 1_555
C11 C10 1_555 1_555
H8 C11 1_555 1_555
C12 C11 1_555 1_555
H9 C12 1_555 1_555
C13 C8 1_555 1_555
H10 C13 1_555 1_555
C14 H11 1_555 1_555
H12 C14 1_555 1_555
C15 C14 1_555 1_555
C16 H13 1_555 1_555
H14 C16 1_555 1_555
C17 C16 1_555 1_555
H15 C17 1_555 1_555
H16 C17 1_555 1_555
C18 C19 1_555 1_555
C19 H17 1_555 1_555
C20 C19 1_555 1_555
C21 C20 1_555 1_555
C22 H18 1_555 1_555
H19 C22 1_555 1_555
H20 C22 1_555 1_555
C23 C20 1_555 1_555
H21 C23 1_555 1_555
C24 C23 1_555 1_555
H22 C24 1_555 1_555
C25 C18 1_555 1_555
C26 H23 1_555 1_555
H24 C26 1_555 1_555
C27 C26 1_555 1_555
H25 C27 1_555 1_555
H26 C27 1_555 1_555
C28 C29 1_555 1_555
C29 H27 1_555 1_555
H28 C29 1_555 1_555
C30 H29 1_555 1_555
H30 C30 1_555 1_555
H31 C30 1_555 1_555
H35 N1 1_555 1_555
H36 N2 1_555 1_555
N1 C15 1_555 1_555
N2 C27 1_555 1_555
O1 C6 1_555 1_555
O2 C1 1_555 1_555
O3 C15 1_555 1_555
O4 C17 1_555 1_555
O5 C21 1_555 1_555
O6 C21 1_555 1_555
O7 C25 1_555 1_555
O8 C28 1_555 1_555
O9 C5 1_555 1_555
O10 C30 1_555 1_555
H37 O10 1_555 1_555
C5 C6 1_555 1_555
C7 O1 1_555 1_555
C12 C13 1_555 1_555
C14 O2 1_555 1_555
C16 N1 1_555 1_555
C18 O4 1_555 1_555
C22 O6 1_555 1_555
C24 C25 1_555 1_555
C26 O7 1_555 1_555
C28 N2 1_555 1_555
C29 O9 1_555 1_555

#END
