
#######################################################################
#
#                 Cambridge Crystallographic Data Centre
#                                CCDC 
#
#######################################################################
#
# If this CIF has been generated from an entry in the Cambridge 
# Structural Database, then it will include bibliographic, chemical, 
# crystal, experimental, refinement or atomic coordinate data resulting 
# from the CCDC's data processing and validation procedures.
#
#######################################################################

data_QEKNEC
_chemical_formula_moiety         'C14 H20 N1 O2 1+,Cl1 1-'
_chemical_name_systematic        
'2-(2-methoxy-2-oxo-1-phenylethyl)piperidinium chloride'
_symmetry_cell_setting           orthorhombic
_symmetry_space_group_name_H-M   'P 21 21 21'
_symmetry_Int_Tables_number      19
_space_group_name_Hall           'P 2ac 2ab'
loop_
_symmetry_equiv_pos_site_id
_symmetry_equiv_pos_as_xyz
1 x,y,z
2 1/2-x,-y,1/2+z
3 -x,1/2+y,1/2-z
4 1/2+x,1/2-y,-z
_cell_length_a                   7.4963(3)
_cell_length_b                   9.2316(4)
_cell_length_c                   20.6628(8)
_cell_angle_alpha                90
_cell_angle_beta                 90
_cell_angle_gamma                90
_cell_volume                     1429.92
_exptl_crystal_colour            colorless
_exptl_crystal_description       prismatic
_cell_formula_units_Z            4
loop_
_atom_site_label
_atom_site_type_symbol
_atom_site_fract_x
_atom_site_fract_y
_atom_site_fract_z
Cl1 Cl 0.72399(4) 0.05012(3) 0.507430(18)
O1 O 0.57200(15) 0.26576(12) 0.38790(6)
O2 O 0.84914(15) 0.22069(11) 0.35301(5)
N1 N 0.80484(16) 0.37757(13) 0.51962(6)
H1 H 0.784(2) 0.292(2) 0.5076(8)
H2 H 0.919(2) 0.3905(17) 0.5199(7)
C1 C 0.7256(2) 0.30174(16) 0.38177(7)
C2 C 0.80000(18) 0.44692(16) 0.40429(7)
H3 H 0.9330 0.4405 0.4067
C3 C 0.7262(2) 0.48295(14) 0.47168(7)
H4 H 0.5936 0.4706 0.4711
C4 C 0.77003(19) 0.63588(14) 0.49490(7)
H5 H 0.7167 0.7074 0.4649
H6 H 0.9010 0.6499 0.4946
C5 C 0.6982(2) 0.66155(16) 0.56336(7)
H7 H 0.7335 0.7594 0.5782
H8 H 0.5663 0.6568 0.5628
C6 C 0.7708(2) 0.54838(16) 0.61005(7)
H9 H 0.9016 0.5598 0.6142
H10 H 0.7170 0.5626 0.6533
C7 C 0.7281(2) 0.39765(15) 0.58569(7)
H11 H 0.7788 0.3246 0.6156
H12 H 0.5972 0.3839 0.5842
C8 C 0.7485(2) 0.55915(16) 0.35390(7)
C9 C 0.5705(3) 0.59657(18) 0.34408(8)
H13 H 0.4797 0.5528 0.3695
C10 C 0.5260(3) 0.6980(2) 0.29712(9)
H14 H 0.4047 0.7248 0.2911
C11 C 0.6550(4) 0.7593(2) 0.25957(9)
H15 H 0.6226 0.8270 0.2270
C12 C 0.8310(4) 0.7241(2) 0.26833(9)
H16 H 0.9199 0.7679 0.2421
C13 C 0.8801(3) 0.62327(19) 0.31622(8)
H17 H 1.0020 0.5993 0.3227
C14 C 0.7910(3) 0.07698(17) 0.33291(8)
H18 H 0.8906 0.0260 0.3123
H19 H 0.6923 0.0860 0.3021
H20 H 0.7511 0.0222 0.3709
loop_
_geom_bond_atom_site_label_1
_geom_bond_atom_site_label_2
_geom_bond_site_symmetry_1
_geom_bond_site_symmetry_2
O1 C1 1_555 1_555
O2 C1 1_555 1_555
N1 H1 1_555 1_555
H2 N1 1_555 1_555
C1 C2 1_555 1_555
C2 H3 1_555 1_555
C3 N1 1_555 1_555
H4 C3 1_555 1_555
C4 C3 1_555 1_555
H5 C4 1_555 1_555
H6 C4 1_555 1_555
C5 C4 1_555 1_555
H7 C5 1_555 1_555
H8 C5 1_555 1_555
C6 C5 1_555 1_555
H9 C6 1_555 1_555
H10 C6 1_555 1_555
C7 N1 1_555 1_555
H11 C7 1_555 1_555
H12 C7 1_555 1_555
C8 C2 1_555 1_555
C9 C8 1_555 1_555
H13 C9 1_555 1_555
C10 C9 1_555 1_555
H14 C10 1_555 1_555
C11 C10 1_555 1_555
H15 C11 1_555 1_555
C12 C11 1_555 1_555
H16 C12 1_555 1_555
C13 C8 1_555 1_555
H17 C13 1_555 1_555
C14 O2 1_555 1_555
H18 C14 1_555 1_555
H19 C14 1_555 1_555
H20 C14 1_555 1_555
C2 C3 1_555 1_555
C6 C7 1_555 1_555
C12 C13 1_555 1_555

#END
