
#######################################################################
#
#                 Cambridge Crystallographic Data Centre
#                                CCDC 
#
#######################################################################
#
# If this CIF has been generated from an entry in the Cambridge 
# Structural Database, then it will include bibliographic, chemical, 
# crystal, experimental, refinement or atomic coordinate data resulting 
# from the CCDC's data processing and validation procedures.
#
#######################################################################

data_QEKNEA
_chemical_formula_moiety         'C26 H27 N3 O7,C1 H4 O1'
_chemical_name_systematic        
'rac-25-Benzyloxy-7,13,19-trioxa-1,4,16-triazatricyclo(18.3.1.1^8,12^)pentacosa-8(25),9,11,20,22-pentaene-5,15,24-trione methanol solvate'
_symmetry_cell_setting           monoclinic
_symmetry_space_group_name_H-M   'P 21/c'
_symmetry_Int_Tables_number      14
_space_group_name_Hall           '-P 2ybc'
loop_
_symmetry_equiv_pos_site_id
_symmetry_equiv_pos_as_xyz
1 x,y,z
2 -x,1/2+y,1/2-z
3 -x,-y,-z
4 x,1/2-y,1/2+z
_cell_length_a                   7.6615(15)
_cell_length_b                   19.539(4)
_cell_length_c                   16.915(3)
_cell_angle_alpha                90
_cell_angle_beta                 98.58(3)
_cell_angle_gamma                90
_cell_volume                     2503.8
_exptl_crystal_colour            colorless
_chemical_melting_point          '104.5-107.2 deg.C'
_cell_formula_units_Z            4
_exptl_crystal_recrystallization_method methanol/chloroform
loop_
_atom_site_label
_atom_site_type_symbol
_atom_site_fract_x
_atom_site_fract_y
_atom_site_fract_z
N1 N 1.1422(2) 0.74381(11) 0.55355(12)
H1 H 0.868(3) 0.7977(11) 0.4619(12)
O1 O 1.2104(2) 0.63258(8) 0.72316(10)
O2 O 1.0941(2) 0.62923(8) 0.56608(10)
O3 O 0.6380(2) 0.59013(8) 0.53483(10)
O4 O 0.7725(2) 0.49654(8) 0.79101(10)
O5 O 0.7267(2) 0.48413(8) 0.63124(10)
C1 C 1.1422(3) 0.68446(13) 0.59881(15)
C2 C 1.2023(3) 0.69348(13) 0.68285(15)
C3 C 0.7093(3) 0.54789(12) 0.66475(15)
O6 O 0.5308(2) 0.74269(9) 0.41895(11)
N2 N 1.1141(3) 0.53015(11) 0.83569(15)
C4 C 1.1893(3) 0.80744(14) 0.58656(18)
C5 C 0.7321(3) 0.55555(13) 0.74664(15)
C6 C 0.6598(3) 0.60386(13) 0.61578(15)
N3 N 0.7939(3) 0.69668(11) 0.46930(13)
C7 C 1.0297(3) 0.44314(13) 0.64456(15)
O7 O 1.0518(2) 0.57589(8) 0.95141(11)
C8 C 0.6409(3) 0.66765(14) 0.64858(17)
C9 C 1.2477(3) 0.75533(13) 0.71565(16)
C10 C 1.2652(4) 0.63675(14) 0.80768(17)
C11 C 1.0934(4) 0.73871(16) 0.46691(16)
C12 C 1.1333(4) 0.35413(14) 0.73759(17)
C13 C 0.8976(3) 0.75110(15) 0.43998(18)
C14 C 0.7135(3) 0.61913(14) 0.78058(17)
C15 C 1.2845(4) 0.56415(14) 0.83967(19)
C16 C 0.8311(4) 0.50619(15) 0.87502(16)
C17 C 0.6680(3) 0.67454(14) 0.73080(17)
C18 C 1.2393(3) 0.81373(14) 0.66558(17)
C19 C 1.0094(4) 0.54130(13) 0.89103(17)
C20 C 1.3386(4) 0.43117(15) 0.69202(18)
C21 C 0.8808(4) 0.47731(15) 0.59085(17)
C22 C 0.6190(4) 0.69641(14) 0.45472(15)
C23 C 1.2025(4) 0.46550(14) 0.64645(17)
C24 C 0.5262(4) 0.63529(15) 0.48430(18)
C25 C 0.9965(4) 0.38736(13) 0.69092(16)
C26 C 1.3038(4) 0.37557(15) 0.73769(18)
H3 H 1.284(2) 0.7615(9) 0.7769(12)
H4 H 0.836(3) 0.4426(11) 0.5375(14)
H5 H 1.227(3) 0.5079(11) 0.6153(13)
H6 H 0.665(2) 0.7204(10) 0.7551(12)
H7 H 0.925(3) 0.5232(12) 0.5771(15)
H8 H 1.178(3) 0.6670(11) 0.8306(13)
H9 H 1.105(3) 0.3135(11) 0.7698(14)
H10 H 1.381(3) 0.6599(11) 0.8193(14)
H11 H 1.262(3) 0.8622(10) 0.6915(12)
H12 H 0.883(3) 0.7506(10) 0.3787(13)
H13 H 1.355(3) 0.5667(12) 0.8977(15)
H14 H 0.733(3) 0.5331(11) 0.8957(13)
H15 H 0.726(2) 0.6254(10) 0.8384(12)
H16 H 0.606(2) 0.7046(10) 0.6148(12)
H17 H 1.404(3) 0.3526(12) 0.7722(15)
H18 H 1.157(3) 0.7710(11) 0.4436(14)
H19 H 1.174(3) 0.8414(11) 0.5443(14)
H20 H 0.474(3) 0.6078(12) 0.4323(15)
H22 H 0.868(3) 0.3713(11) 0.6900(13)
H24 H 0.858(3) 0.4593(11) 0.8975(13)
H25 H 0.423(3) 0.6525(11) 0.5130(14)
H26 H 1.133(2) 0.6893(10) 0.4495(12)
H27 H 1.358(3) 0.5349(12) 0.8040(15)
H28 H 1.464(3) 0.4517(12) 0.6913(14)
H29 H 0.856(3) 0.6586(11) 0.4973(13)
H30 H 1.071(3) 0.5070(12) 0.7919(15)
H2 H 0.757(7) 0.603(3) 0.069(3)
O8 O 0.5863(3) 0.62296(11) -0.02948(13)
C27 C 0.6461(8) 0.6169(3) 0.0524(2)
H21 H 0.671(7) 0.653(3) 0.087(3)
H23 H 0.603(5) 0.569(2) 0.073(2)
H31 H 0.555(7) 0.683(3) -0.039(3)
loop_
_geom_bond_atom_site_label_1
_geom_bond_atom_site_label_2
_geom_bond_site_symmetry_1
_geom_bond_site_symmetry_2
N1 C1 1_555 1_555
H1 C13 1_555 1_555
H2 C27 1_555 1_555
O1 C2 1_555 1_555
O2 C1 1_555 1_555
O3 C6 1_555 1_555
O4 C5 1_555 1_555
O5 C3 1_555 1_555
C1 C2 1_555 1_555
C2 C9 1_555 1_555
C3 C5 1_555 1_555
O6 C22 1_555 1_555
N2 C15 1_555 1_555
C4 N1 1_555 1_555
C5 C14 1_555 1_555
C6 C3 1_555 1_555
N3 C13 1_555 1_555
C7 C21 1_555 1_555
O7 C19 1_555 1_555
C8 C6 1_555 1_555
C9 C18 1_555 1_555
C10 O1 1_555 1_555
C11 N1 1_555 1_555
C12 C25 1_555 1_555
C13 C11 1_555 1_555
C14 C17 1_555 1_555
C15 C10 1_555 1_555
C16 O4 1_555 1_555
C17 C8 1_555 1_555
C18 C4 1_555 1_555
C19 N2 1_555 1_555
C20 C23 1_555 1_555
C21 O5 1_555 1_555
C22 N3 1_555 1_555
C23 C7 1_555 1_555
C24 O3 1_555 1_555
C25 C7 1_555 1_555
C26 C12 1_555 1_555
H3 C9 1_555 1_555
H4 C21 1_555 1_555
H5 C23 1_555 1_555
H6 C17 1_555 1_555
H7 C21 1_555 1_555
H8 C10 1_555 1_555
H9 C12 1_555 1_555
H10 C10 1_555 1_555
H11 C18 1_555 1_555
H12 C13 1_555 1_555
H13 C15 1_555 1_555
H14 C16 1_555 1_555
H15 C14 1_555 1_555
H16 C8 1_555 1_555
O8 C27 1_555 1_555
C27 H21 1_555 1_555
H17 C26 1_555 1_555
H18 C11 1_555 1_555
H19 C4 1_555 1_555
H20 C24 1_555 1_555
H22 C25 1_555 1_555
H23 C27 1_555 1_555
H24 C16 1_555 1_555
H25 C24 1_555 1_555
H26 C11 1_555 1_555
H27 C15 1_555 1_555
H28 C20 1_555 1_555
H29 N3 1_555 1_555
H30 N2 1_555 1_555
H31 O8 1_555 1_555
C16 C19 1_555 1_555
C20 C26 1_555 1_555
C22 C24 1_555 1_555

#END
