
#######################################################################
#
#                 Cambridge Crystallographic Data Centre
#                                CCDC 
#
#######################################################################
#
# If this CIF has been generated from an entry in the Cambridge 
# Structural Database, then it will include bibliographic, chemical, 
# crystal, experimental, refinement or atomic coordinate data resulting 
# from the CCDC's data processing and validation procedures.
#
#######################################################################

data_QEKVOS
_chemical_formula_moiety         
'C22 H31 N6 O4 S1 1+,C7 H4 N1 O3 S1 1-,0.5(C2 H6 O1 S1)'
_chemical_name_systematic        
'Sildenafil saccharinate hemikis(dimethylsulfoxide) clathrate'
_symmetry_cell_setting           triclinic
_symmetry_space_group_name_H-M   'P -1'
_symmetry_Int_Tables_number      2
_space_group_name_Hall           '-P 1'
loop_
_symmetry_equiv_pos_site_id
_symmetry_equiv_pos_as_xyz
1 x,y,z
2 -x,-y,-z
_cell_length_a                   9.912(2)
_cell_length_b                   11.977(2)
_cell_length_c                   14.587(3)
_cell_angle_alpha                86.23(3)
_cell_angle_beta                 72.56(3)
_cell_angle_gamma                89.31(3)
_cell_volume                     1648.48
_exptl_crystal_colour            colorless
_exptl_crystal_description       block
_cell_formula_units_Z            2
loop_
_atom_site_label
_atom_site_type_symbol
_atom_site_fract_x
_atom_site_fract_y
_atom_site_fract_z
S2 S 0.6096(5) 0.9343(5) 0.9776(3)
C8 C 0.4953(10) 0.9921(8) 0.9009(8)
O4 O 0.5813(12) 0.8228(10) 1.0000(8)
S2A S 0.3904(5) 1.0657(5) 1.0224(3)
C8A C 0.5047(10) 1.0079(8) 1.0991(8)
O4A O 0.4187(12) 1.1772(10) 1.0000(8)
S3 S 0.29777(19) 0.47957(13) 0.85690(12)
O5 O 0.5864(4) 0.1736(3) 0.5589(3)
O6 O 0.4835(5) 0.2037(4) 0.2926(3)
O7 O 0.3628(5) 0.4765(4) 0.9338(3)
O8 O 0.2699(5) 0.5864(3) 0.8139(3)
N2 N 0.3281(5) 0.4369(4) 0.4986(4)
N3 N 0.4644(6) 0.2800(5) 0.4371(4)
N4 N 0.3071(5) 0.4136(4) 0.2600(4)
N5 N 0.1418(6) 0.4164(4) 0.9041(4)
N6 N 0.2212(6) 0.5048(4) 0.2850(4)
C9 C 0.3779(6) 0.4074(5) 0.6738(4)
H5 H 0.3220 0.4651 0.6598
C10 C 0.4411(7) 0.3344(5) 0.6025(4)
C11 C 0.3564(6) 0.3770(5) 0.3347(4)
C12 C 0.4417(7) 0.2790(5) 0.3466(5)
N7 N -0.0985(6) 0.2652(4) 0.9450(4)
C13 C 0.5476(7) 0.2384(5) 0.7185(5)
H6 H 0.6052 0.1822 0.7327
C14 C 0.3961(7) 0.3967(5) 0.7657(4)
C15 C 0.4102(6) 0.3531(5) 0.5088(4)
C16 C 0.2172(7) 0.5253(5) 0.3748(5)
C17 C 0.4851(7) 0.3108(5) 0.7875(5)
H7 H 0.5003 0.3042 0.8475
C18 C 0.3034(6) 0.4467(5) 0.4104(4)
C19 C 0.5277(6) 0.2463(5) 0.6274(4)
C20 C 0.7050(8) 0.0042(5) 0.5011(5)
H8 H 0.6319 -0.0080 0.4720
H9 H 0.7395 -0.0667 0.5190
H10 H 0.7812 0.0459 0.4560
C21 C 0.1459(7) 0.3012(5) 0.9509(5)
H11 H 0.2055 0.3017 0.9928
H12 H 0.1853 0.2488 0.9020
C22 C 0.0512(7) 0.4149(6) 0.8381(5)
H13 H 0.0896 0.3628 0.7888
H14 H 0.0505 0.4887 0.8067
C23 C 0.3348(7) 0.3715(6) 0.1655(5)
H15 H 0.3918 0.3055 0.1615
H16 H 0.3841 0.4275 0.1175
H17 H 0.2469 0.3534 0.1548
C24 C 0.1282(6) 0.6193(5) 0.4279(4)
H18 H 0.1908 0.6761 0.4373
H19 H 0.0716 0.5894 0.4910
C25 C -0.0978(7) 0.3801(5) 0.8957(5)
H20 H -0.1368 0.4337 0.9436
H21 H -0.1566 0.3796 0.8533
C26 C -0.0033(7) 0.2649(6) 1.0090(5)
H22 H -0.0013 0.1903 1.0388
H23 H -0.0406 0.3154 1.0598
C27 C -0.2465(8) 0.2279(6) 1.0001(5)
H24 H -0.2850 0.2764 1.0513
H25 H -0.2449 0.1526 1.0267
H26 H -0.3042 0.2309 0.9576
C28 C 0.6463(7) 0.0688(5) 0.5894(5)
H27 H 0.5733 0.0253 0.6373
H28 H 0.7206 0.0856 0.6172
C29 C 0.0293(7) 0.6745(6) 0.3748(5)
H29 H 0.0852 0.7022 0.3108
H30 H -0.0361 0.6186 0.3676
C30 C -0.0544(7) 0.7710(5) 0.4273(5)
H31 H -0.1075 0.7447 0.4915
H32 H -0.1179 0.7999 0.3933
H33 H 0.0096 0.8292 0.4303
H34 H 0.501(7) 0.236(5) 0.447(4)
S1 S 0.14846(18) 1.03889(14) 0.80326(13)
O1 O 0.1628(5) 1.0121(4) 0.8987(3)
O2 O 0.2683(5) 1.0934(4) 0.7343(4)
O3 O -0.2080(5) 1.0881(4) 0.7779(4)
C1 C -0.0359(7) 0.9389(5) 0.7441(5)
N1 N 0.0037(6) 1.1088(4) 0.8114(4)
C2 C 0.1723(7) 0.8206(5) 0.7288(4)
H1 H 0.2608 0.8083 0.7372
C3 C -0.0262(8) 0.7597(6) 0.6775(5)
H2 H -0.0680 0.7051 0.6521
C4 C 0.1092(7) 0.7420(6) 0.6894(5)
H3 H 0.1567 0.6761 0.6704
C5 C -0.0889(7) 1.0523(6) 0.7799(5)
C6 C 0.0987(6) 0.9187(5) 0.7552(4)
C7 C -0.0963(7) 0.8595(6) 0.7040(5)
H4 H -0.1841 0.8727 0.6947
loop_
_geom_bond_atom_site_label_1
_geom_bond_atom_site_label_2
_geom_bond_site_symmetry_1
_geom_bond_site_symmetry_2
S1 O1 1_555 1_555
O2 S1 1_555 1_555
O3 C5 1_555 1_555
C1 C5 1_555 1_555
N1 S1 1_555 1_555
C2 H1 1_555 1_555
C3 H2 1_555 1_555
C4 C2 1_555 1_555
H3 C4 1_555 1_555
C5 N1 1_555 1_555
C6 S1 1_555 1_555
C7 C1 1_555 1_555
H4 C7 1_555 1_555
S2 C8 1_555 1_555
C8 S2A 1_555 1_555
O4 S2 1_555 1_555
S3 O7 1_555 1_555
O5 C19 1_555 1_555
O6 C12 1_555 1_555
O8 S3 1_555 1_555
N2 C15 1_555 1_555
N3 C12 1_555 1_555
N4 N6 1_555 1_555
N5 S3 1_555 1_555
N6 C16 1_555 1_555
C9 H5 1_555 1_555
C10 C9 1_555 1_555
C11 N4 1_555 1_555
C12 C11 1_555 1_555
N7 C25 1_555 1_555
C13 H6 1_555 1_555
C14 S3 1_555 1_555
C15 N3 1_555 1_555
C16 C18 1_555 1_555
C17 C13 1_555 1_555
H7 C17 1_555 1_555
C18 N2 1_555 1_555
C19 C10 1_555 1_555
C20 H8 1_555 1_555
H9 C20 1_555 1_555
H10 C20 1_555 1_555
C21 N5 1_555 1_555
H11 C21 1_555 1_555
H12 C21 1_555 1_555
C22 N5 1_555 1_555
H13 C22 1_555 1_555
H14 C22 1_555 1_555
C23 N4 1_555 1_555
H15 C23 1_555 1_555
H16 C23 1_555 1_555
H17 C23 1_555 1_555
C24 C16 1_555 1_555
H18 C24 1_555 1_555
H19 C24 1_555 1_555
C25 C22 1_555 1_555
H20 C25 1_555 1_555
H21 C25 1_555 1_555
C26 N7 1_555 1_555
H22 C26 1_555 1_555
H23 C26 1_555 1_555
C27 N7 1_555 1_555
H24 C27 1_555 1_555
H25 C27 1_555 1_555
H26 C27 1_555 1_555
C28 O5 1_555 1_555
H27 C28 1_555 1_555
H28 C28 1_555 1_555
C29 C24 1_555 1_555
H29 C29 1_555 1_555
H30 C29 1_555 1_555
C30 C29 1_555 1_555
H31 C30 1_555 1_555
H32 C30 1_555 1_555
H33 C30 1_555 1_555
H34 N3 1_555 1_555
S2A C8A 1_555 1_555
C8A S2 1_555 1_555
O4A S2A 1_555 1_555
C1 C6 1_555 1_555
C2 C6 1_555 1_555
C3 C4 1_555 1_555
C3 C7 1_555 1_555
C9 C14 1_555 1_555
C10 C15 1_555 1_555
C11 C18 1_555 1_555
C13 C19 1_555 1_555
C14 C17 1_555 1_555
C20 C28 1_555 1_555
C21 C26 1_555 1_555

#END
