
#######################################################################
#
#                 Cambridge Crystallographic Data Centre
#                                CCDC 
#
#######################################################################
#
# If this CIF has been generated from an entry in the Cambridge 
# Structural Database, then it will include bibliographic, chemical, 
# crystal, experimental, refinement or atomic coordinate data resulting 
# from the CCDC's data processing and validation procedures.
#
#######################################################################

data_QEKVEI
_chemical_formula_moiety         
'C22 H31 N6 O4 S1 1+,C7 H4 N1 O3 S1 1-,0.5(C2 H6 O1)'
_chemical_name_systematic        
'Sildenafil saccharinate hemikis(ethanol) clathrate'
_symmetry_cell_setting           triclinic
_symmetry_space_group_name_H-M   'P -1'
_symmetry_Int_Tables_number      2
_space_group_name_Hall           '-P 1'
loop_
_symmetry_equiv_pos_site_id
_symmetry_equiv_pos_as_xyz
1 x,y,z
2 -x,-y,-z
_cell_length_a                   9.7393(13)
_cell_length_b                   11.8275(16)
_cell_length_c                   14.4853(19)
_cell_angle_alpha                93.674(2)
_cell_angle_beta                 107.399(2)
_cell_angle_gamma                90.050(2)
_cell_volume                     1588.62
_exptl_crystal_colour            colorless
_exptl_crystal_description       Block
_cell_formula_units_Z            2
loop_
_atom_site_label
_atom_site_type_symbol
_atom_site_fract_x
_atom_site_fract_y
_atom_site_fract_z
O4 O 0.1119(9) 0.8535(5) 0.4853(5)
C8 C 0.1400(13) 0.8837(12) 0.5319(14)
C9 C 0.033(2) 0.9876(15) 0.5594(14)
O4A O -0.1119(9) 1.1465(5) 0.5147(5)
C8A C -0.1400(13) 1.1163(12) 0.4681(14)
C9A C -0.033(2) 1.0124(15) 0.4406(14)
S2 S 0.20909(7) 0.52314(5) 0.35877(4)
O5 O 0.01474(17) 0.79473(13) -0.20658(11)
O6 O 0.14381(18) 0.52605(14) 0.43505(12)
O7 O 0.23515(19) 0.41655(13) 0.31555(12)
O8 O -0.08322(17) 0.82780(13) 0.06050(11)
N2 N 0.1720(2) 0.56252(15) -0.00077(13)
N3 N 0.0362(2) 0.72069(17) -0.06125(14)
N4 N 0.2746(2) 0.49329(16) -0.21564(14)
C10 C 0.1417(2) 0.62198(19) -0.16442(16)
N5 N 0.1890(2) 0.58430(16) -0.23949(13)
N6 N 0.6107(2) 0.73973(17) 0.44672(14)
C11 C 0.0617(2) 0.66680(18) 0.10477(16)
C12 C -0.0409(3) 0.7652(2) 0.22127(17)
C13 C 0.0914(2) 0.64684(18) 0.01041(16)
C14 C 0.0251(3) 0.6928(2) 0.29038(18)
C15 C -0.0211(2) 0.75488(18) 0.12960(16)
C16 C 0.1266(2) 0.59342(19) 0.17600(16)
N7 N 0.3682(2) 0.58717(16) 0.40551(14)
C17 C 0.2810(2) 0.47286(19) -0.12473(16)
C18 C 0.1968(2) 0.55191(18) -0.08954(16)
C19 C 0.4573(3) 0.5899(2) 0.33886(17)
C20 C 0.0589(2) 0.71927(19) -0.15160(16)
C21 C 0.1092(2) 0.60625(19) 0.26737(17)
C22 C 0.5155(3) 0.7397(2) 0.51074(18)
C23 C 0.3640(3) 0.7007(2) 0.45293(18)
C24 C -0.1445(3) 0.9309(2) 0.09014(18)
C25 C 0.3680(3) 0.3791(2) -0.07249(17)
C26 C -0.2081(3) 0.9937(2) 0.0012(2)
C27 C 0.1610(3) 0.6269(2) -0.33548(18)
C28 C 0.4644(3) 0.3221(2) -0.12648(19)
C29 C 0.7599(3) 0.7791(3) 0.5009(2)
C30 C 0.6092(3) 0.6260(2) 0.39637(18)
C31 C 0.5517(3) 0.2271(2) -0.0727(2)
H5 H 0.184(2) 0.5333(19) 0.1603(16)
H6 H 0.306(3) 0.6970(19) 0.4949(17)
H7 H 0.454(2) 0.511(2) 0.3055(17)
H8 H 0.324(2) 0.757(2) 0.4043(17)
H9 H 0.799(3) 0.728(2) 0.548(2)
H10 H -0.016(3) 0.772(2) -0.0502(19)
H11 H 0.430(3) 0.413(2) -0.0089(18)
H12 H -0.098(3) 0.824(2) 0.2340(18)
H13 H 0.417(3) 0.642(2) 0.2915(17)
H14 H 0.755(3) 0.849(2) 0.5322(19)
H15 H 0.302(3) 0.323(2) -0.0590(18)
H16 H 0.017(3) 0.703(2) 0.3510(19)
H17 H -0.218(3) 0.911(2) 0.1198(18)
H18 H -0.067(3) 0.974(2) 0.1387(17)
H19 H -0.139(3) 1.014(2) -0.0328(18)
H20 H -0.241(3) 1.061(2) 0.0185(19)
H21 H 0.508(2) 0.818(2) 0.5373(17)
H22 H 0.654(3) 0.574(2) 0.4450(18)
H23 H 0.667(2) 0.6342(19) 0.3538(17)
H24 H 0.611(3) 0.253(2) -0.0076(19)
H25 H 0.250(3) 0.650(2) -0.3438(18)
H26 H 0.554(3) 0.693(2) 0.5621(18)
H27 H 0.529(3) 0.380(2) -0.1394(19)
H28 H 0.109(3) 0.696(3) -0.338(2)
H29 H 0.616(3) 0.194(2) -0.1046(19)
H30 H 0.400(3) 0.290(2) -0.189(2)
H31 H 0.817(3) 0.782(2) 0.454(2)
H32 H -0.285(3) 0.952(2) -0.042(2)
H33 H 0.569(3) 0.794(2) 0.396(2)
H34 H 0.109(3) 0.568(3) -0.383(2)
H35 H 0.490(3) 0.170(3) -0.064(2)
S1 S 0.35518(7) -0.03684(5) 0.30179(4)
O1 O 0.3358(2) -0.01110(15) 0.39536(13)
O2 O 0.2369(2) -0.09506(15) 0.23051(14)
O3 O 0.7164(2) -0.07824(17) 0.27983(14)
C1 C 0.3278(3) 0.1819(2) 0.22728(17)
C2 C 0.5257(3) 0.2451(2) 0.17415(18)
N1 N 0.5036(2) -0.10292(17) 0.31282(15)
C3 C 0.3912(3) 0.2626(2) 0.18642(18)
C4 C 0.4041(2) 0.08524(19) 0.25390(16)
C5 C 0.5389(2) 0.0671(2) 0.24311(17)
C6 C 0.5966(3) -0.0443(2) 0.27953(17)
C7 C 0.6014(3) 0.1476(2) 0.20272(18)
H1 H 0.236(3) 0.193(2) 0.2363(18)
H2 H 0.567(3) 0.304(2) 0.1458(18)
H3 H 0.340(2) 0.328(2) 0.1644(16)
H4 H 0.690(3) 0.139(2) 0.1960(18)
C32? C 0.0251(4) 0.9486(3) 0.6434(3)
loop_
_geom_bond_atom_site_label_1
_geom_bond_atom_site_label_2
_geom_bond_site_symmetry_1
_geom_bond_site_symmetry_2
S1 O1 1_555 1_555
O2 S1 1_555 1_555
O3 C6 1_555 1_555
C1 C3 1_555 1_555
C2 C3 1_555 1_555
N1 S1 1_555 1_555
C3 H3 1_555 1_555
C4 S1 1_555 1_555
C5 C4 1_555 1_555
C6 N1 1_555 1_555
C7 C2 1_555 1_555
H1 C1 1_555 1_555
H2 C2 1_555 1_555
H4 C7 1_555 1_555
O4 C8 1_555 1_555
C8 C9 1_555 1_555
C9 C9A 1_555 1_555
S2 O6 1_555 1_555
O5 C20 1_555 1_555
O7 S2 1_555 1_555
O8 C15 1_555 1_555
N2 C13 1_555 1_555
N3 C13 1_555 1_555
N4 N5 1_555 1_555
C10 N5 1_555 1_555
N5 C27 1_555 1_555
N6 C22 1_555 1_555
C11 C13 1_555 1_555
C12 C14 1_555 1_555
C14 C21 1_555 1_555
C15 C11 1_555 1_555
C16 C11 1_555 1_555
N7 S2 1_555 1_555
C17 N4 1_555 1_555
C18 N2 1_555 1_555
C19 N7 1_555 1_555
C20 N3 1_555 1_555
C21 S2 1_555 1_555
C22 C23 1_555 1_555
C23 N7 1_555 1_555
C24 O8 1_555 1_555
C25 C17 1_555 1_555
C26 C24 1_555 1_555
C27 H25 1_555 1_555
C28 C25 1_555 1_555
C29 N6 1_555 1_555
C30 N6 1_555 1_555
C31 C28 1_555 1_555
H5 C16 1_555 1_555
H6 C23 1_555 1_555
H7 C19 1_555 1_555
H8 C23 1_555 1_555
H9 C29 1_555 1_555
H10 N3 1_555 1_555
H11 C25 1_555 1_555
H12 C12 1_555 1_555
H13 C19 1_555 1_555
H14 C29 1_555 1_555
H15 C25 1_555 1_555
H16 C14 1_555 1_555
H17 C24 1_555 1_555
H18 C24 1_555 1_555
H19 C26 1_555 1_555
H20 C26 1_555 1_555
H21 C22 1_555 1_555
H22 C30 1_555 1_555
H23 C30 1_555 1_555
H24 C31 1_555 1_555
H26 C22 1_555 1_555
H27 C28 1_555 1_555
H28 C27 1_555 1_555
H29 C31 1_555 1_555
H30 C28 1_555 1_555
H31 C29 1_555 1_555
H32 C26 1_555 1_555
H33 N6 1_555 1_555
H34 C27 1_555 1_555
H35 C31 1_555 1_555
O4A C8A 1_555 1_555
C8A C9A 1_555 1_555
C1 C4 1_555 1_555
C5 C6 1_555 1_555
C5 C7 1_555 1_555
C10 C18 1_555 1_555
C10 C20 1_555 1_555
C12 C15 1_555 1_555
C16 C21 1_555 1_555
C17 C18 1_555 1_555
C19 C30 1_555 1_555

#END
