
#######################################################################
#
#                 Cambridge Crystallographic Data Centre
#                                CCDC 
#
#######################################################################
#
# If this CIF has been generated from an entry in the Cambridge 
# Structural Database, then it will include bibliographic, chemical, 
# crystal, experimental, refinement or atomic coordinate data resulting 
# from the CCDC's data processing and validation procedures.
#
#######################################################################

data_QEKVIM
_chemical_formula_moiety         
'C22 H31 N6 O4 S1 1+,C7 H4 N1 O3 S1 1-,C1 H4 O1'
_chemical_name_systematic        'Sildenafil saccharinate methanol clathrate'
_symmetry_cell_setting           monoclinic
_symmetry_space_group_name_H-M   'C 2/c'
_symmetry_Int_Tables_number      15
_space_group_name_Hall           '-C 2yn'
loop_
_symmetry_equiv_pos_site_id
_symmetry_equiv_pos_as_xyz
1 x,y,z
2 1/2+x,1/2+y,z
3 -x,y,1/2-z
4 1/2-x,1/2+y,1/2-z
5 -x,-y,-z
6 1/2-x,1/2-y,-z
7 x,-y,1/2+z
8 1/2+x,1/2-y,1/2+z
_cell_length_a                   40.736(4)
_cell_length_b                   8.1842(7)
_cell_length_c                   20.6300(18)
_cell_angle_alpha                90
_cell_angle_beta                 104.870(2)
_cell_angle_gamma                90
_cell_volume                     6647.53
_exptl_crystal_colour            colorless
_exptl_crystal_description       block
_cell_formula_units_Z            8
loop_
_atom_site_label
_atom_site_type_symbol
_atom_site_fract_x
_atom_site_fract_y
_atom_site_fract_z
S1 S 0.11795(3) 0.45102(15) 0.19174(7)
O1 O 0.28919(8) 0.7318(4) 0.04779(16)
O2 O 0.14225(8) 0.4774(4) 0.25447(16)
O3 O 0.19323(8) 0.4219(4) -0.01640(16)
O4 O 0.09488(8) 0.3163(4) 0.18295(17)
N1 N 0.24318(10) 0.6073(5) 0.0712(2)
N2 N 0.05842(10) 0.9110(5) 0.1310(2)
N3 N 0.33292(10) 0.5422(5) 0.2482(2)
N4 N 0.09372(9) 0.6155(5) 0.1780(2)
N5 N 0.32804(9) 0.6039(5) 0.1859(2)
C1 C 0.17427(12) 0.4312(6) 0.0290(3)
C2 C 0.27752(11) 0.5255(5) 0.1943(2)
N6 N 0.24325(10) 0.4910(5) 0.1765(2)
C3 C 0.29776(13) 0.4352(6) 0.3201(2)
H1 H 0.3165 0.3597 0.3408
H2 H 0.2762 0.3737 0.3122
C4 C 0.22786(12) 0.5301(5) 0.1150(3)
C5 C 0.11167(12) 0.7724(6) 0.1885(3)
H3 H 0.1222 0.7935 0.1511
H4 H 0.1300 0.7685 0.2307
C6 C 0.17305(12) 0.4945(5) 0.1417(3)
H5 H 0.1839 0.5334 0.1854
C7 C 0.30241(12) 0.4958(5) 0.2547(3)
C8 C 0.08726(12) 0.9082(6) 0.1924(2)
H6 H 0.0784 0.8925 0.2324
H7 H 0.0993 1.0143 0.1971
C9 C 0.19095(11) 0.4907(5) 0.0932(3)
C10 C 0.12350(12) 0.3849(6) 0.0649(3)
H8 H 0.1006 0.3484 0.0557
C11 C 0.29485(11) 0.5953(5) 0.1516(2)
C12 C 0.03360(12) 1.0432(6) 0.1345(3)
H9 H 0.0157 1.0463 0.0924
H10 H 0.0454 1.1487 0.1416
H11 H 0.0234 1.0213 0.1718
C13 C 0.27718(12) 0.6517(5) 0.0870(2)
C14 C 0.29721(14) 0.5758(6) 0.3680(3)
H12 H 0.2786 0.6516 0.3470
H13 H 0.3189 0.6369 0.3759
C15 C 0.13972(11) 0.4433(6) 0.1283(2)
C16 C 0.17696(13) 0.3601(7) -0.0827(3)
H14 H 0.1578 0.4320 -0.1050
H15 H 0.1680 0.2488 -0.0795
C17 C 0.14058(12) 0.3803(6) 0.0160(3)
H16 H 0.1294 0.3418 -0.0275
C18 C 0.06586(11) 0.6152(6) 0.1165(3)
H17 H 0.0542 0.5080 0.1111
H18 H 0.0750 0.6339 0.0771
C19 C 0.04112(11) 0.7484(5) 0.1213(3)
H19 H 0.0224 0.7503 0.0797
H20 H 0.0312 0.7259 0.1594
C20 C 0.20309(13) 0.3565(7) -0.1219(3)
H21 H 0.2114 0.4676 -0.1257
H22 H 0.1929 0.3128 -0.1668
H23 H 0.2221 0.2867 -0.0990
C21 C 0.29228(14) 0.5169(7) 0.4351(3)
H24 H 0.2702 0.4629 0.4278
H25 H 0.2932 0.6105 0.4651
H26 H 0.3103 0.4394 0.4554
C22 C 0.35694(11) 0.6473(6) 0.1596(3)
H27 H 0.3679 0.5475 0.1493
H28 H 0.3733 0.7112 0.1931
H29 H 0.3490 0.7123 0.1186
H30 H 0.0680(11) 0.937(5) 0.092(2)
H31 H 0.2280(18) 0.644(9) 0.030(4)
S2 S 0.06191(3) 0.78944(15) 0.35938(7)
O5 O 0.03250(8) 0.6778(4) 0.50683(17)
O6 O 0.09756(8) 0.8176(4) 0.36623(17)
O7 O 0.03924(9) 0.8734(4) 0.30432(17)
N7 N 0.05183(10) 0.8226(5) 0.4293(2)
C23 C 0.03395(12) 0.3773(6) 0.4209(3)
H32 H 0.0256 0.3478 0.4582
C24 C 0.04128(11) 0.6837(6) 0.4544(3)
C25 C 0.05338(12) 0.5779(6) 0.3553(3)
C26 C 0.05750(12) 0.4645(6) 0.3083(3)
H33 H 0.0653 0.4954 0.2704
C27 C 0.04227(11) 0.5381(6) 0.4108(2)
C28 C 0.03823(13) 0.2611(6) 0.3748(3)
H34 H 0.0332 0.1499 0.3814
C29 C 0.04965(13) 0.3036(6) 0.3192(3)
H35 H 0.0521 0.2215 0.2882
O8 O 0.08087(9) 0.9454(5) 0.0200(2)
C30 C 0.11218(15) 0.9007(8) 0.0062(3)
H36 H 0.1127 0.9423 -0.0380
H37 H 0.1142 0.7814 0.0067
H38 H 0.1311 0.9476 0.0405
H39 H 0.071(2) 1.010(11) -0.016(4)
loop_
_geom_bond_atom_site_label_1
_geom_bond_atom_site_label_2
_geom_bond_site_symmetry_1
_geom_bond_site_symmetry_2
S1 O2 1_555 1_555
O1 C13 1_555 1_555
O3 C1 1_555 1_555
O4 S1 1_555 1_555
N1 C4 1_555 1_555
N2 C8 1_555 1_555
N3 N5 1_555 1_555
N4 S1 1_555 1_555
N5 C11 1_555 1_555
C1 C9 1_555 1_555
C2 N6 1_555 1_555
N6 C4 1_555 1_555
C3 H1 1_555 1_555
H2 C3 1_555 1_555
C4 C9 1_555 1_555
C5 N4 1_555 1_555
H3 C5 1_555 1_555
H4 C5 1_555 1_555
C6 H5 1_555 1_555
C7 N3 1_555 1_555
C8 C5 1_555 1_555
H6 C8 1_555 1_555
H7 C8 1_555 1_555
C9 C6 1_555 1_555
C10 H8 1_555 1_555
C11 C2 1_555 1_555
C12 N2 1_555 1_555
H9 C12 1_555 1_555
H10 C12 1_555 1_555
H11 C12 1_555 1_555
C13 N1 1_555 1_555
C14 C3 1_555 1_555
H12 C14 1_555 1_555
H13 C14 1_555 1_555
C15 S1 1_555 1_555
C16 O3 1_555 1_555
H14 C16 1_555 1_555
H15 C16 1_555 1_555
C17 C1 1_555 1_555
H16 C17 1_555 1_555
C18 N4 1_555 1_555
H17 C18 1_555 1_555
H18 C18 1_555 1_555
C19 N2 1_555 1_555
H19 C19 1_555 1_555
H20 C19 1_555 1_555
C20 C16 1_555 1_555
H21 C20 1_555 1_555
H22 C20 1_555 1_555
H23 C20 1_555 1_555
C21 C14 1_555 1_555
H24 C21 1_555 1_555
H25 C21 1_555 1_555
H26 C21 1_555 1_555
C22 N5 1_555 1_555
H27 C22 1_555 1_555
H28 C22 1_555 1_555
H29 C22 1_555 1_555
H30 N2 1_555 1_555
H31 N1 1_555 1_555
S2 O6 1_555 1_555
O5 C24 1_555 1_555
O7 S2 1_555 1_555
N7 S2 1_555 1_555
C23 H32 1_555 1_555
C24 N7 1_555 1_555
C25 S2 1_555 1_555
C26 C25 1_555 1_555
H33 C26 1_555 1_555
C27 C23 1_555 1_555
C28 C23 1_555 1_555
H34 C28 1_555 1_555
C29 C26 1_555 1_555
H35 C29 1_555 1_555
O8 C30 1_555 1_555
C30 H36 1_555 1_555
H37 C30 1_555 1_555
H38 C30 1_555 1_555
H39 O8 1_555 1_555
C2 C7 1_555 1_555
C3 C7 1_555 1_555
C6 C15 1_555 1_555
C10 C15 1_555 1_555
C10 C17 1_555 1_555
C11 C13 1_555 1_555
C18 C19 1_555 1_555
C24 C27 1_555 1_555
C25 C27 1_555 1_555
C28 C29 1_555 1_555

#END
