
#######################################################################
#
#                 Cambridge Crystallographic Data Centre
#                                CCDC 
#
#######################################################################
#
# If this CIF has been generated from an entry in the Cambridge 
# Structural Database, then it will include bibliographic, chemical, 
# crystal, experimental, refinement or atomic coordinate data resulting 
# from the CCDC's data processing and validation procedures.
#
#######################################################################

data_QEKWOS
_chemical_formula_moiety         'C23 H32 O4'
_chemical_name_systematic        
'Ethyl 1,4a-dimethyl-7-isopropyl-8-methoxy-1,1a,2,3,4,4a,9,10-octahydrophenanthren-2-one-1-carboxylate'
_symmetry_cell_setting           triclinic
_symmetry_space_group_name_H-M   'P -1'
_symmetry_Int_Tables_number      2
_space_group_name_Hall           '-P 1'
loop_
_symmetry_equiv_pos_site_id
_symmetry_equiv_pos_as_xyz
1 x,y,z
2 -x,-y,-z
_cell_length_a                   7.368(2)
_cell_length_b                   11.610(2)
_cell_length_c                   12.320(2)
_cell_angle_alpha                104.19(2)
_cell_angle_beta                 92.11(2)
_cell_angle_gamma                93.71(2)
_cell_volume                     1018.07
_exptl_crystal_colour            colorless
_cell_formula_units_Z            2
loop_
_atom_site_label
_atom_site_type_symbol
_atom_site_fract_x
_atom_site_fract_y
_atom_site_fract_z
O1 O 0.1004(2) 0.7648(2) 0.5727(1)
O2 O -0.2184(2) 0.5395(1) 0.5192(1)
O3 O -0.2999(2) 0.7261(1) 0.5737(1)
O4 O -0.0418(2) 0.1316(1) 0.7545(1)
C1 C 0.1383(2) 0.5635(2) 0.8075(1)
C2 C 0.3031(2) 0.6188(2) 0.7593(2)
C3 C 0.2666(3) 0.7372(2) 0.7322(2)
C4 C 0.0977(3) 0.7269(2) 0.6553(2)
C5 C -0.0747(2) 0.6695(2) 0.6907(1)
C6 C -0.0272(2) 0.5527(2) 0.7229(1)
C7 C -0.1885(2) 0.4832(2) 0.7571(2)
C8 C -0.1459(2) 0.3538(2) 0.7373(2)
C9 C 0.0452(2) 0.3393(2) 0.7800(1)
C10 C 0.0924(2) 0.2268(2) 0.7864(1)
C11 C 0.2599(2) 0.2043(2) 0.8283(2)
C12 C 0.3850(3) 0.3038(2) 0.8670(2)
C13 C 0.3434(2) 0.4161(2) 0.8601(2)
C14 C 0.1749(2) 0.4368(2) 0.8153(1)
C15 C 0.1139(3) 0.6369(2) 0.9288(2)
C16 C -0.1582(3) 0.7612(2) 0.7846(2)
C17 C -0.2061(2) 0.6344(2) 0.5852(2)
C18 C -0.4091(3) 0.7098(2) 0.4697(2)
C19 C -0.4687(3) 0.8283(2) 0.4652(2)
C20 C -0.0469(4) 0.0723(2) 0.6376(2)
C21 C 0.3030(3) 0.0810(2) 0.8365(2)
C22 C 0.5026(4) 0.0573(3) 0.8246(4)
C23 C 0.2354(6) 0.0571(3) 0.9436(3)
H1 H 0.212(4) 0.614(2) 0.978(2)
H2 H -0.001(4) 0.614(2) 0.953(2)
H3 H 0.103(3) 0.723(3) 0.934(2)
H4 H -0.273(4) 0.725(2) 0.801(2)
H5 H -0.082(4) 0.794(2) 0.844(2)
H6 H -0.197(3) 0.829(2) 0.762(2)
H7 H -0.350(4) 0.896(2) 0.469(2)
H8 H -0.549(3) 0.860(2) 0.531(2)
H9 H -0.543(4) 0.819(2) 0.396(2)
H10 H -0.076(3) 0.125(2) 0.583(2)
H11 H -0.132(4) 0.014(2) 0.623(2)
H12 H 0.063(4) 0.031(2) 0.625(2)
H13 H 0.540(4) 0.077(2) 0.756(2)
H14 H 0.517(3) -0.035(2) 0.832(2)
H15 H 0.573(4) 0.112(2) 0.886(2)
H16 H 0.242(3) -0.016(2) 0.951(2)
H17 H 0.303(3) 0.120(2) 1.014(2)
H18 H 0.119(4) 0.079(3) 0.960(2)
H19 H 0.4035 0.6319 0.8126
H20 H 0.3325 0.5641 0.6923
H21 H 0.2510 0.7945 0.8001
H22 H 0.3685 0.7627 0.6965
H23 H 0.0084 0.5024 0.6553
H24 H -0.2081 0.5147 0.8341
H25 H -0.2948 0.4889 0.7131
H26 H -0.2308 0.3144 0.7747
H27 H -0.1579 0.3182 0.6590
H28 H 0.5008 0.2936 0.8984
H29 H 0.4318 0.4813 0.8866
H30 H -0.3386 0.6794 0.4076
H31 H -0.5123 0.6558 0.4686
H32 H 0.2367 0.0257 0.7762
loop_
_geom_bond_atom_site_label_1
_geom_bond_atom_site_label_2
_geom_bond_site_symmetry_1
_geom_bond_site_symmetry_2
O1 C4 1_555 1_555
O2 C17 1_555 1_555
O3 C17 1_555 1_555
O4 C10 1_555 1_555
C1 C2 1_555 1_555
C2 C3 1_555 1_555
C3 C4 1_555 1_555
C4 C5 1_555 1_555
C5 C6 1_555 1_555
C6 C1 1_555 1_555
C7 C6 1_555 1_555
C8 C7 1_555 1_555
C9 C8 1_555 1_555
C10 C9 1_555 1_555
C11 C10 1_555 1_555
C12 C11 1_555 1_555
C13 C12 1_555 1_555
C14 C1 1_555 1_555
C15 C1 1_555 1_555
C16 C5 1_555 1_555
C17 C5 1_555 1_555
C18 O3 1_555 1_555
C19 C18 1_555 1_555
C20 O4 1_555 1_555
C21 C11 1_555 1_555
C22 C21 1_555 1_555
C23 C21 1_555 1_555
H1 C15 1_555 1_555
H2 C15 1_555 1_555
H3 C15 1_555 1_555
H4 C16 1_555 1_555
H5 C16 1_555 1_555
H6 C16 1_555 1_555
H7 C19 1_555 1_555
H8 C19 1_555 1_555
H9 C19 1_555 1_555
H10 C20 1_555 1_555
H11 C20 1_555 1_555
H12 C20 1_555 1_555
H13 C22 1_555 1_555
H14 C22 1_555 1_555
H15 C22 1_555 1_555
H16 C23 1_555 1_555
H17 C23 1_555 1_555
H18 C23 1_555 1_555
H19 C2 1_555 1_555
H20 C2 1_555 1_555
H21 C3 1_555 1_555
H22 C3 1_555 1_555
H23 C6 1_555 1_555
H24 C7 1_555 1_555
H25 C7 1_555 1_555
H26 C8 1_555 1_555
H27 C8 1_555 1_555
H28 C12 1_555 1_555
H29 C13 1_555 1_555
H30 C18 1_555 1_555
H31 C18 1_555 1_555
H32 C21 1_555 1_555
C9 C14 1_555 1_555
C13 C14 1_555 1_555

#END
