
#######################################################################
#
#                 Cambridge Crystallographic Data Centre
#                                CCDC 
#
#######################################################################
#
# If this CIF has been generated from an entry in the Cambridge 
# Structural Database, then it will include bibliographic, chemical, 
# crystal, experimental, refinement or atomic coordinate data resulting 
# from the CCDC's data processing and validation procedures.
#
#######################################################################

data_QEKWUZ
_chemical_formula_moiety         
'C22 H31 N6 O4 S1 1+,C7 H4 N1 O3 S1 1-,0.5(C2 H6 O2)'
_chemical_name_systematic        
'Sildenafil saccharinate hemikis(ethylene glycol) clathrate'
_symmetry_cell_setting           triclinic
_symmetry_space_group_name_H-M   'P -1'
_symmetry_Int_Tables_number      2
_space_group_name_Hall           '-P 1'
loop_
_symmetry_equiv_pos_site_id
_symmetry_equiv_pos_as_xyz
1 x,y,z
2 -x,-y,-z
_cell_length_a                   9.8344(10)
_cell_length_b                   11.9909(12)
_cell_length_c                   14.4669(14)
_cell_angle_alpha                85.5520(10)
_cell_angle_beta                 73.6810(10)
_cell_angle_gamma                88.6810(10)
_cell_volume                     1632.32
_exptl_crystal_colour            colorless
_exptl_crystal_description       block
_cell_formula_units_Z            2
loop_
_atom_site_label
_atom_site_type_symbol
_atom_site_fract_x
_atom_site_fract_y
_atom_site_fract_z
C1 C 1.0172(2) 0.24326(19) -0.01666(16)
H1 H 1.0532 0.1936 -0.0679
H2 H 1.0150 0.3185 -0.0461
C2 C 1.2638(2) 0.2730(2) -0.01059(17)
H3 H 1.3216 0.2761 0.0327
H4 H 1.2626 0.3451 -0.0442
H5 H 1.3021 0.2186 -0.0564
O1 O 0.73234(16) -0.07868(12) 0.18310(11)
O2 O 0.64396(16) 0.03499(13) 0.06031(11)
S1 S 0.70696(5) 0.02940(4) 0.13834(4)
N1 N 0.67202(18) 0.06384(14) 0.49774(12)
O3 O 0.41713(15) 0.33167(12) 0.43378(10)
N2 N 0.53743(19) 0.22169(15) 0.55741(13)
O4 O 0.52075(16) 0.29413(12) 0.70166(11)
C3 C 0.6437(2) 0.12071(17) 0.66147(15)
C4 C 0.5917(2) 0.14881(17) 0.48598(15)
N3 N 0.69194(18) 0.08105(14) 0.73677(12)
C5 C 0.6234(2) 0.09692(17) 0.32114(15)
H6 H 0.6776 0.0375 0.3365
C6 C 0.5602(2) 0.17032(17) 0.39129(15)
N4 N 0.86597(19) 0.09334(15) 0.09211(12)
C7 C 0.4782(2) 0.25915(17) 0.36530(15)
C8 C 0.5621(2) 0.21910(17) 0.64743(15)
C9 C 0.6972(2) 0.05112(17) 0.58685(15)
N5 N 0.77584(18) -0.01054(15) 0.71356(13)
C10 C 0.6066(2) 0.11136(17) 0.22899(15)
N6 N 1.11327(19) 0.23991(15) 0.04674(13)
C11 C 0.5230(2) 0.19811(18) 0.20463(15)
H7 H 0.5109 0.2066 0.1430
C12 C 0.7810(2) -0.02939(17) 0.62271(15)
C13 C 0.4585(2) 0.27127(18) 0.27318(15)
H8 H 0.4017 0.3288 0.2579
C14 C 0.9531(2) 0.09372(19) 0.15986(15)
H9 H 0.9523 0.0201 0.1930
H10 H 0.9151 0.1470 0.2078
C15 C 0.8650(2) 0.20721(18) 0.04189(16)
H11 H 0.8257 0.2608 0.0893
H12 H 0.8054 0.2065 -0.0013
C16 C 0.3556(2) 0.43500(18) 0.40243(16)
H13 H 0.2832 0.4180 0.3719
H14 H 0.4282 0.4801 0.3564
C17 C 0.8670(2) -0.12259(18) 0.57099(15)
H15 H 0.9274 -0.0918 0.5096
H16 H 0.8031 -0.1753 0.5574
C18 C 1.1064(2) 0.12642(18) 0.10191(16)
H17 H 1.1646 0.1276 0.1460
H18 H 1.1449 0.0703 0.0568
C19 C 0.6615(2) 0.11988(19) 0.83364(15)
H19 H 0.6056 0.1869 0.8371
H20 H 0.7488 0.1351 0.8476
H21 H 0.6100 0.0632 0.8799
C20 C 0.2919(3) 0.49695(19) 0.49125(17)
H22 H 0.2164 0.4534 0.5345
H23 H 0.2554 0.5676 0.4730
H24 H 0.3634 0.5093 0.5229
C21 C 0.9591(3) -0.1855(2) 0.62609(17)
H25 H 0.8991 -0.2174 0.6872
H26 H 1.0231 -0.1331 0.6401
C22 C 1.0459(3) -0.2788(2) 0.57101(17)
H27 H 0.9832 -0.3336 0.5606
H28 H 1.1048 -0.3134 0.6079
H29 H 1.1043 -0.2480 0.5099
H30 H 0.491(3) 0.277(2) 0.5408(18)
H31 H 1.081(3) 0.293(2) 0.0910(19)
S2 S 0.86447(6) 0.45768(4) 0.19633(4)
C23 C 1.0424(2) 0.57083(18) 0.25000(15)
C24 C 0.9034(2) 0.58080(18) 0.24506(15)
O5 O 0.83875(18) 0.48606(14) 0.10400(12)
C25 C 0.8184(2) 0.67160(18) 0.27524(15)
H32 H 0.7260 0.6767 0.2705
N7 N 1.02128(19) 0.40085(15) 0.17955(13)
O6 O 1.23762(16) 0.44212(14) 0.20141(12)
C26 C 1.1113(2) 0.46520(18) 0.20836(15)
C27 C 0.8777(2) 0.75531(19) 0.31312(16)
H33 H 0.8241 0.8181 0.3342
C28 C 1.0166(2) 0.74647(19) 0.31991(16)
H34 H 1.0532 0.8030 0.3464
O7 O 0.75542(18) 0.38994(14) 0.26833(13)
C29 C 1.1012(2) 0.65468(19) 0.28770(16)
H35 H 1.1941 0.6497 0.2913
O8 O 0.5748(2) 0.38145(16) 0.92836(14)
H36 H 0.6601 0.3816 0.9013
C30 C 0.5464(3) 0.4502(2) 1.00704(19)
H37 H 0.6352 0.4771 1.0138
H38 H 0.4993 0.4063 1.0661
O8A O 0.4252(2) 0.61855(16) 1.07164(14)
H36A H 0.3399 0.6184 1.0987
C30A C 0.4536(3) 0.5498(2) 0.99296(19)
H37A H 0.3648 0.5229 0.9862
H38A H 0.5007 0.5937 0.9339
loop_
_geom_bond_atom_site_label_1
_geom_bond_atom_site_label_2
_geom_bond_site_symmetry_1
_geom_bond_site_symmetry_2
C1 H1 1_555 1_555
H2 C1 1_555 1_555
C2 H3 1_555 1_555
H4 C2 1_555 1_555
H5 C2 1_555 1_555
O1 S1 1_555 1_555
O2 S1 1_555 1_555
S1 N4 1_555 1_555
N1 C4 1_555 1_555
O3 C7 1_555 1_555
N2 C4 1_555 1_555
O4 C8 1_555 1_555
C3 N3 1_555 1_555
C4 C6 1_555 1_555
N3 N5 1_555 1_555
C5 H6 1_555 1_555
C6 C5 1_555 1_555
N4 C14 1_555 1_555
C7 C6 1_555 1_555
C8 N2 1_555 1_555
C9 N1 1_555 1_555
N5 C12 1_555 1_555
C10 S1 1_555 1_555
N6 C1 1_555 1_555
C11 C10 1_555 1_555
H7 C11 1_555 1_555
C12 C9 1_555 1_555
C13 C7 1_555 1_555
H8 C13 1_555 1_555
C14 H9 1_555 1_555
H10 C14 1_555 1_555
C15 C1 1_555 1_555
H11 C15 1_555 1_555
H12 C15 1_555 1_555
C16 O3 1_555 1_555
H13 C16 1_555 1_555
H14 C16 1_555 1_555
C17 C12 1_555 1_555
H15 C17 1_555 1_555
H16 C17 1_555 1_555
C18 N6 1_555 1_555
H17 C18 1_555 1_555
H18 C18 1_555 1_555
C19 N3 1_555 1_555
H19 C19 1_555 1_555
H20 C19 1_555 1_555
H21 C19 1_555 1_555
C20 C16 1_555 1_555
H22 C20 1_555 1_555
H23 C20 1_555 1_555
H24 C20 1_555 1_555
C21 C17 1_555 1_555
H25 C21 1_555 1_555
H26 C21 1_555 1_555
C22 C21 1_555 1_555
H27 C22 1_555 1_555
H28 C22 1_555 1_555
H29 C22 1_555 1_555
H30 N2 1_555 1_555
H31 N6 1_555 1_555
S2 C24 1_555 1_555
C23 C24 1_555 1_555
C24 C25 1_555 1_555
O5 S2 1_555 1_555
C25 H32 1_555 1_555
N7 S2 1_555 1_555
O6 C26 1_555 1_555
C26 C23 1_555 1_555
C27 C25 1_555 1_555
H33 C27 1_555 1_555
C28 C27 1_555 1_555
H34 C28 1_555 1_555
O7 S2 1_555 1_555
C29 C23 1_555 1_555
H35 C29 1_555 1_555
O8 H36 1_555 1_555
C30 O8 1_555 1_555
H37 C30 1_555 1_555
H38 C30 1_555 1_555
O8A H36A 1_555 1_555
C30A C30 1_555 1_555
H37A C30A 1_555 1_555
H38A C30A 1_555 1_555
C2 N6 1_555 1_555
C3 C8 1_555 1_555
C3 C9 1_555 1_555
C5 C10 1_555 1_555
N4 C15 1_555 1_555
C11 C13 1_555 1_555
C14 C18 1_555 1_555
N7 C26 1_555 1_555
C28 C29 1_555 1_555
O8A C30A 1_555 1_555

#END
