
#######################################################################
#
#                 Cambridge Crystallographic Data Centre
#                                CCDC 
#
#######################################################################
#
# If this CIF has been generated from an entry in the Cambridge 
# Structural Database, then it will include bibliographic, chemical, 
# crystal, experimental, refinement or atomic coordinate data resulting 
# from the CCDC's data processing and validation procedures.
#
#######################################################################

data_QELGEW
_chemical_formula_moiety         'C2 H5 N4 1+,C6 H2 N3 O7 1-'
_chemical_name_systematic        
'1-amino-1H-1,2,3-triazol-3-ium 2,4,6-trinitrophenolate'
_symmetry_cell_setting           triclinic
_symmetry_space_group_name_H-M   'P -1'
_symmetry_Int_Tables_number      2
_space_group_name_Hall           '-P 1'
loop_
_symmetry_equiv_pos_site_id
_symmetry_equiv_pos_as_xyz
1 x,y,z
2 -x,-y,-z
_cell_length_a                   6.714(3)
_cell_length_b                   13.200(6)
_cell_length_c                   14.084(7)
_cell_angle_alpha                76.076(6)
_cell_angle_beta                 88.697(6)
_cell_angle_gamma                86.957(6)
_cell_volume                     1209.74
_exptl_crystal_colour            yellow
_exptl_crystal_description       block
_cell_formula_units_Z            4
loop_
_atom_site_label
_atom_site_type_symbol
_atom_site_fract_x
_atom_site_fract_y
_atom_site_fract_z
N1 N 0.2933(3) 0.06877(17) 0.69687(16)
N2 N 0.1997(4) -0.01858(17) 0.72245(17)
N3 N 0.1790(3) -0.04364(17) 0.63774(17)
H1 H 0.1226 -0.0988 0.6321
N4 N 0.3546(4) 0.11545(18) 0.76876(17)
H2 H 0.3313 0.0871 0.8294
H3 H 0.4161 0.1727 0.7528
C1 C 0.2544(4) 0.0251(2) 0.5624(2)
H4 H 0.2546 0.0226 0.4970
C2 C 0.3309(4) 0.0996(2) 0.6005(2)
H5 H 0.3950 0.1588 0.5673
N5 N 0.1659(3) 0.87265(16) 0.01374(16)
N6 N 0.2364(3) 0.96675(17) -0.01050(16)
N7 N 0.2592(3) 0.98911(17) 0.07543(17)
H6 H 0.3045 1.0467 0.0820
N8 N 0.1117(4) 0.82627(17) -0.05965(17)
H7 H 0.1244 0.8589 -0.1200
H8 H 0.0655 0.7649 -0.0448
C3 C 0.2045(4) 0.9128(2) 0.1504(2)
H9 H 0.2084 0.9122 0.2166
C4 C 0.1418(4) 0.8360(2) 0.1106(2)
H10 H 0.0930 0.7722 0.1433
N9 N 0.3464(4) 0.2906(2) -0.04940(19)
N10 N 0.1969(5) 0.53891(19) 0.1494(2)
N11 N 0.3653(4) 0.17706(18) 0.31335(18)
O1 O 0.4365(3) 0.13556(13) 0.12774(14)
O2 O 0.3256(4) 0.2038(2) -0.06027(17)
O3 O 0.4080(8) 0.3620(2) -0.1181(2)
O4 O 0.134(2) 0.6020(4) 0.0718(4)
O5 O 0.1869(4) 0.55915(16) 0.22920(19)
O6 O 0.4463(3) 0.20071(16) 0.38169(14)
O7 O 0.3017(3) 0.09040(15) 0.31742(15)
C5 C 0.3717(4) 0.2262(2) 0.1314(2)
C6 C 0.3315(4) 0.3105(2) 0.0478(2)
C7 C 0.2790(4) 0.4113(2) 0.0530(2)
H11 H 0.2560 0.4633 -0.0037
C8 C 0.2610(4) 0.43411(19) 0.1435(2)
C9 C 0.2923(4) 0.3572(2) 0.2292(2)
H12 H 0.2803 0.3732 0.2899
C10 C 0.3413(4) 0.25692(19) 0.22192(19)
N12 N 0.1955(3) 0.65334(19) 0.76255(17)
N13 N 0.3305(3) 0.39830(18) 0.5682(2)
N14 N 0.1110(4) 0.75203(18) 0.40131(17)
O10 O 0.0462(3) 0.79660(13) 0.58447(14)
O11 O 0.1800(3) 0.74391(16) 0.76854(14)
O12 O 0.2152(4) 0.58103(18) 0.83494(15)
O13 O 0.4068(3) 0.34039(15) 0.64251(17)
O14 O 0.3121(3) 0.37177(15) 0.49180(17)
O15 O 0.0176(3) 0.72581(16) 0.33811(14)
O16 O 0.1735(3) 0.83957(16) 0.39158(15)
C11 C 0.1277(4) 0.70894(19) 0.58295(19)
C12 C 0.1945(4) 0.62926(19) 0.66712(19)
C13 C 0.2590(4) 0.52974(19) 0.66185(19)
H13 H 0.3010 0.4810 0.7180
C14 C 0.2610(4) 0.50290(19) 0.5735(2)
C15 C 0.2078(4) 0.57552(19) 0.48796(19)
H14 H 0.2106 0.5570 0.4283
C16 C 0.1512(4) 0.67497(19) 0.49353(19)
O8? O 0.241(3) 0.3445(10) -0.1132(9)
O9? O 0.241(4) 0.6085(12) 0.0753(14)
loop_
_geom_bond_atom_site_label_1
_geom_bond_atom_site_label_2
_geom_bond_site_symmetry_1
_geom_bond_site_symmetry_2
N1 N2 1_555 1_555
N2 N3 1_555 1_555
N3 H1 1_555 1_555
N4 N1 1_555 1_555
H2 N4 1_555 1_555
H3 N4 1_555 1_555
C1 N3 1_555 1_555
H4 C1 1_555 1_555
C2 N1 1_555 1_555
H5 C2 1_555 1_555
N5 N6 1_555 1_555
N6 N7 1_555 1_555
N7 H6 1_555 1_555
N8 N5 1_555 1_555
H7 N8 1_555 1_555
H8 N8 1_555 1_555
C3 N7 1_555 1_555
H9 C3 1_555 1_555
C4 N5 1_555 1_555
H10 C4 1_555 1_555
N9 O2 1_555 1_555
N10 O4 1_555 1_555
N11 O6 1_555 1_555
O1 C5 1_555 1_555
O3 N9 1_555 1_555
O5 N10 1_555 1_555
O7 N11 1_555 1_555
C5 C6 1_555 1_555
C6 N9 1_555 1_555
C7 C6 1_555 1_555
H11 C7 1_555 1_555
C8 N10 1_555 1_555
C9 C8 1_555 1_555
H12 C9 1_555 1_555
C10 N11 1_555 1_555
N12 O11 1_555 1_555
N13 O13 1_555 1_555
N14 O15 1_555 1_555
O10 C11 1_555 1_555
O12 N12 1_555 1_555
O14 N13 1_555 1_555
O16 N14 1_555 1_555
C11 C12 1_555 1_555
C12 N12 1_555 1_555
C13 C12 1_555 1_555
H13 C13 1_555 1_555
C14 N13 1_555 1_555
C15 C14 1_555 1_555
H14 C15 1_555 1_555
C16 N14 1_555 1_555
C1 C2 1_555 1_555
C3 C4 1_555 1_555
C5 C10 1_555 1_555
C7 C8 1_555 1_555
C9 C10 1_555 1_555
C11 C16 1_555 1_555
C13 C14 1_555 1_555
C15 C16 1_555 1_555

#END
