
#######################################################################
#
#                 Cambridge Crystallographic Data Centre
#                                CCDC 
#
#######################################################################
#
# If this CIF has been generated from an entry in the Cambridge 
# Structural Database, then it will include bibliographic, chemical, 
# crystal, experimental, refinement or atomic coordinate data resulting 
# from the CCDC's data processing and validation procedures.
#
#######################################################################

data_QELHIZ
_chemical_formula_moiety         'C19 H27 Cl1 O1'
_chemical_name_systematic        3\b-chloro-androst-5-en-17-one
_symmetry_cell_setting           monoclinic
_symmetry_space_group_name_H-M   'P 21'
_symmetry_Int_Tables_number      4
_space_group_name_Hall           'P 2yb'
loop_
_symmetry_equiv_pos_site_id
_symmetry_equiv_pos_as_xyz
1 x,y,z
2 -x,1/2+y,-z
_cell_length_a                   6.5364(13)
_cell_length_b                   7.6371(15)
_cell_length_c                   17.067(3)
_cell_angle_alpha                90
_cell_angle_beta                 96.77(3)
_cell_angle_gamma                90
_cell_volume                     846.029
_exptl_crystal_colour            colorless
_exptl_crystal_description       Prismatic
_chemical_melting_point          '151-152 deg.C'
_cell_formula_units_Z            2
loop_
_atom_site_label
_atom_site_type_symbol
_atom_site_fract_x
_atom_site_fract_y
_atom_site_fract_z
C1 C -0.0568(4) 0.6891(4) 0.87767(16)
H1 H -0.1383 0.7606 0.9093
H2 H -0.1497 0.6080 0.8477
C2 C 0.0980(5) 0.5845(5) 0.93282(18)
H3 H 0.1826 0.6638 0.9672
H4 H 0.0252 0.5080 0.9655
C3 C 0.2331(5) 0.4767(4) 0.88569(19)
H5 H 0.1454 0.3930 0.8538
C4 C 0.3414(5) 0.5881(5) 0.83101(19)
H6 H 0.4176 0.5135 0.7987
H7 H 0.4391 0.6641 0.8617
C5 C 0.1893(4) 0.6989(4) 0.77788(15)
C6 C 0.1882(5) 0.6950(4) 0.69910(17)
H8 H 0.2793 0.6185 0.6787
C7 C 0.0536(5) 0.8027(4) 0.64220(17)
H9 H -0.0510 0.7282 0.6143
H10 H 0.1354 0.8515 0.6037
C8 C -0.0519(4) 0.9519(4) 0.68164(15)
H11 H 0.0495 1.0446 0.6957
C9 C -0.1330(4) 0.8853(3) 0.75831(15)
H12 H -0.2245 0.7867 0.7425
C10 C 0.0416(4) 0.8104(3) 0.81877(15)
C11 C -0.2672(4) 1.0229(5) 0.79417(17)
H13 H -0.1793 1.1172 0.8163
H14 H -0.3300 0.9693 0.8370
C12 C -0.4384(4) 1.1006(5) 0.73432(18)
H15 H -0.5380 1.0103 0.7170
H16 H -0.5095 1.1929 0.7593
C13 C -0.3456(4) 1.1740(4) 0.66362(16)
C14 C -0.2284(4) 1.0278(4) 0.62680(15)
H17 H -0.3275 0.9320 0.6160
C15 C -0.1908(5) 1.1002(5) 0.54549(17)
H18 H -0.1672 1.0063 0.5093
H19 H -0.0740 1.1794 0.5499
C16 C -0.3934(5) 1.1977(6) 0.5185(2)
H20 H -0.3657 1.3086 0.4941
H21 H -0.4812 1.1278 0.4808
C17 C -0.4951(5) 1.2271(5) 0.5930(2)
C18 C -0.2133(5) 1.3370(5) 0.6851(2)
H22 H -0.2949 1.4241 0.7075
H23 H -0.1641 1.3830 0.6384
H24 H -0.0983 1.3058 0.7228
C19 C 0.1618(4) 0.9588(4) 0.86463(17)
H25 H 0.2221 1.0335 0.8283
H26 H 0.2687 0.9095 0.9015
H27 H 0.0697 1.0258 0.8926
Cl1 Cl 0.41970(15) 0.35440(14) 0.95076(6)
O1 O -0.6690(4) 1.2822(5) 0.59587(18)
loop_
_geom_bond_atom_site_label_1
_geom_bond_atom_site_label_2
_geom_bond_site_symmetry_1
_geom_bond_site_symmetry_2
C1 H1 1_555 1_555
H2 C1 1_555 1_555
C2 C1 1_555 1_555
H3 C2 1_555 1_555
H4 C2 1_555 1_555
C3 C2 1_555 1_555
H5 C3 1_555 1_555
C4 C3 1_555 1_555
H6 C4 1_555 1_555
H7 C4 1_555 1_555
C5 C4 1_555 1_555
C6 C5 1_555 1_555
H8 C6 1_555 1_555
C7 C6 1_555 1_555
H9 C7 1_555 1_555
H10 C7 1_555 1_555
C8 C7 1_555 1_555
H11 C8 1_555 1_555
C9 C8 1_555 1_555
H12 C9 1_555 1_555
C10 C1 1_555 1_555
C11 C9 1_555 1_555
H13 C11 1_555 1_555
H14 C11 1_555 1_555
C12 C11 1_555 1_555
H15 C12 1_555 1_555
H16 C12 1_555 1_555
C13 C12 1_555 1_555
C14 C8 1_555 1_555
H17 C14 1_555 1_555
C15 C14 1_555 1_555
H18 C15 1_555 1_555
H19 C15 1_555 1_555
C16 C15 1_555 1_555
H20 C16 1_555 1_555
H21 C16 1_555 1_555
C17 C13 1_555 1_555
C18 C13 1_555 1_555
H22 C18 1_555 1_555
H23 C18 1_555 1_555
H24 C18 1_555 1_555
C19 C10 1_555 1_555
H25 C19 1_555 1_555
H26 C19 1_555 1_555
H27 C19 1_555 1_555
Cl1 C3 1_555 1_555
O1 C17 1_555 1_555
C5 C10 1_555 1_555
C9 C10 1_555 1_555
C13 C14 1_555 1_555
C16 C17 1_555 1_555

#END
