
#######################################################################
#
#                 Cambridge Crystallographic Data Centre
#                                CCDC 
#
#######################################################################
#
# If this CIF has been generated from an entry in the Cambridge 
# Structural Database, then it will include bibliographic, chemical, 
# crystal, experimental, refinement or atomic coordinate data resulting 
# from the CCDC's data processing and validation procedures.
#
#######################################################################

data_QELLIF
_chemical_formula_moiety         'C32 H36 O4 P2 S4'
_chemical_name_systematic        
"O,O,O',O'-tetrakis(3,5-dimethylphenyl) disulfanediylbis(phosphonothioate)"
_symmetry_cell_setting           triclinic
_symmetry_space_group_name_H-M   'P -1'
_symmetry_Int_Tables_number      2
_space_group_name_Hall           '-P 1'
loop_
_symmetry_equiv_pos_site_id
_symmetry_equiv_pos_as_xyz
1 x,y,z
2 -x,-y,-z
_cell_length_a                   10.2722(7)
_cell_length_b                   11.1236(8)
_cell_length_c                   17.8011(8)
_cell_angle_alpha                80.627(5)
_cell_angle_beta                 77.259(5)
_cell_angle_gamma                63.473(7)
_cell_volume                     1770.24
_exptl_crystal_colour            colorless
_exptl_crystal_description       Prism
_cell_formula_units_Z            2
loop_
_atom_site_label
_atom_site_type_symbol
_atom_site_fract_x
_atom_site_fract_y
_atom_site_fract_z
C1 C -0.2052(3) 0.9504(3) 0.20011(18)
C2 C -0.2491(3) 0.9613(3) 0.27805(18)
H1 H -0.1817 0.9474 0.3095
C3 C -0.3966(4) 0.9934(3) 0.30943(19)
C4 C -0.4922(3) 1.0123(3) 0.2601(2)
H2 H -0.5906 1.0332 0.2809
C5 C -0.4483(3) 1.0015(3) 0.1819(2)
C6 C -0.3008(3) 0.9689(3) 0.15116(18)
H3 H -0.2672 0.9597 0.0985
C7 C -0.5556(4) 1.0266(4) 0.1293(2)
H4 H -0.5079 0.9656 0.0890
H5 H -0.5885 1.1177 0.1069
H6 H -0.6388 1.0125 0.1584
C8 C -0.4467(4) 1.0086(4) 0.39477(19)
H7 H -0.3730 0.9400 0.4223
H8 H -0.5378 0.9998 0.4105
H9 H -0.4613 1.0958 0.4059
C9 C 0.0472(3) 1.1054(3) 0.32095(17)
C10 C 0.0930(3) 1.1709(3) 0.36096(17)
H10 H 0.1040 1.1442 0.4123
C11 C 0.1224(3) 1.2775(3) 0.3233(2)
C12 C 0.1018(3) 1.3158(3) 0.2476(2)
H11 H 0.1198 1.3884 0.2226
C13 C 0.0552(3) 1.2497(3) 0.20775(19)
C14 C 0.0264(3) 1.1423(3) 0.24613(18)
H12 H -0.0064 1.0966 0.2211
C15 C 0.0358(5) 1.2907(4) 0.1241(2)
H13 H 0.0039 1.2327 0.1065
H14 H 0.1281 1.2830 0.0932
H15 H -0.0368 1.3822 0.1197
C16 C 0.1782(4) 1.3493(3) 0.3650(2)
H16 H 0.1626 1.3257 0.4195
H17 H 0.1256 1.4449 0.3553
H18 H 0.2817 1.3225 0.3466
C17 C 0.3566(3) 0.7760(3) 0.44639(18)
C18 C 0.3263(3) 0.7488(3) 0.52443(18)
H19 H 0.2303 0.7896 0.5508
C19 C 0.4379(4) 0.6614(3) 0.5638(2)
C20 C 0.5777(4) 0.6048(3) 0.5227(2)
H20 H 0.6537 0.5459 0.5491
C21 C 0.6117(3) 0.6308(3) 0.4439(2)
C22 C 0.4961(3) 0.7203(3) 0.4053(2)
H21 H 0.5139 0.7415 0.3525
C23 C 0.4087(5) 0.6314(4) 0.6502(2)
H22 H 0.3141 0.6291 0.6650
H23 H 0.4096 0.7003 0.6760
H24 H 0.4840 0.5456 0.6646
C24 C 0.7683(4) 0.5706(4) 0.4003(3)
H25 H 0.7675 0.5938 0.3459
H26 H 0.8104 0.4743 0.4098
H27 H 0.8262 0.6055 0.4173
C25 C 0.3055(3) 0.7687(3) 0.04216(16)
C26 C 0.4344(3) 0.7209(3) 0.07057(17)
H28 H 0.4327 0.7360 0.1207
C27 C 0.5681(3) 0.6497(3) 0.02420(18)
C28 C 0.5654(3) 0.6296(3) -0.04965(18)
H29 H 0.6540 0.5814 -0.0810
C29 C 0.4370(4) 0.6779(3) -0.07849(17)
C30 C 0.3031(3) 0.7484(3) -0.03163(16)
H30 H 0.2143 0.7809 -0.0498
C31 C 0.7099(3) 0.6003(4) 0.0540(2)
H31 H 0.6926 0.5844 0.1091
H32 H 0.7483 0.6668 0.0405
H33 H 0.7800 0.5179 0.0315
C32 C 0.4374(4) 0.6577(4) -0.16110(17)
H34 H 0.3418 0.6672 -0.1657
H35 H 0.5102 0.5692 -0.1740
H36 H 0.4603 0.7240 -0.1957
P1 P 0.06658(8) 0.78762(8) 0.14042(4)
P2 P 0.12718(8) 0.84961(7) 0.37495(4)
O1 O 0.17211(19) 0.84827(18) 0.08859(10)
O2 O -0.0580(2) 0.92830(18) 0.16726(12)
O3 O 0.01058(19) 0.99939(18) 0.36037(10)
O4 O 0.2420(2) 0.87500(18) 0.40882(11)
S1 S 0.01433(10) 0.67210(9) 0.09832(5)
S2 S 0.16651(10) 0.67463(8) 0.23368(5)
S3 S 0.25796(8) 0.78355(8) 0.26766(4)
S4 S 0.03860(10) 0.73829(8) 0.43158(5)
loop_
_geom_bond_atom_site_label_1
_geom_bond_atom_site_label_2
_geom_bond_site_symmetry_1
_geom_bond_site_symmetry_2
C1 C2 1_555 1_555
C2 H1 1_555 1_555
C3 C2 1_555 1_555
C4 C3 1_555 1_555
H2 C4 1_555 1_555
C5 C4 1_555 1_555
C6 C1 1_555 1_555
H3 C6 1_555 1_555
C7 C5 1_555 1_555
H4 C7 1_555 1_555
H5 C7 1_555 1_555
H6 C7 1_555 1_555
C8 C3 1_555 1_555
H7 C8 1_555 1_555
H8 C8 1_555 1_555
H9 C8 1_555 1_555
C9 C10 1_555 1_555
C10 H10 1_555 1_555
C11 C10 1_555 1_555
C12 C11 1_555 1_555
H11 C12 1_555 1_555
C13 C12 1_555 1_555
C14 C9 1_555 1_555
H12 C14 1_555 1_555
C15 C13 1_555 1_555
H13 C15 1_555 1_555
H14 C15 1_555 1_555
H15 C15 1_555 1_555
C16 C11 1_555 1_555
H16 C16 1_555 1_555
H17 C16 1_555 1_555
H18 C16 1_555 1_555
C17 C18 1_555 1_555
C18 H19 1_555 1_555
C19 C18 1_555 1_555
C20 C19 1_555 1_555
H20 C20 1_555 1_555
C21 C20 1_555 1_555
C22 C17 1_555 1_555
H21 C22 1_555 1_555
C23 C19 1_555 1_555
H22 C23 1_555 1_555
H23 C23 1_555 1_555
H24 C23 1_555 1_555
C24 C21 1_555 1_555
H25 C24 1_555 1_555
H26 C24 1_555 1_555
H27 C24 1_555 1_555
C25 C26 1_555 1_555
C26 H28 1_555 1_555
C27 C26 1_555 1_555
C28 C27 1_555 1_555
H29 C28 1_555 1_555
C29 C28 1_555 1_555
C30 C25 1_555 1_555
H30 C30 1_555 1_555
C31 C27 1_555 1_555
H31 C31 1_555 1_555
H32 C31 1_555 1_555
H33 C31 1_555 1_555
C32 C29 1_555 1_555
H34 C32 1_555 1_555
H35 C32 1_555 1_555
H36 C32 1_555 1_555
P1 O1 1_555 1_555
P2 O3 1_555 1_555
O1 C25 1_555 1_555
O2 C1 1_555 1_555
O3 C9 1_555 1_555
O4 C17 1_555 1_555
S1 P1 1_555 1_555
S2 P1 1_555 1_555
S3 P2 1_555 1_555
S4 P2 1_555 1_555
C5 C6 1_555 1_555
C13 C14 1_555 1_555
C21 C22 1_555 1_555
C29 C30 1_555 1_555
P1 O2 1_555 1_555
P2 O4 1_555 1_555
S2 S3 1_555 1_555

#END
