
#######################################################################
#
#                 Cambridge Crystallographic Data Centre
#                                CCDC 
#
#######################################################################
#
# If this CIF has been generated from an entry in the Cambridge 
# Structural Database, then it will include bibliographic, chemical, 
# crystal, experimental, refinement or atomic coordinate data resulting 
# from the CCDC's data processing and validation procedures.
#
#######################################################################

data_QELQEG
_chemical_formula_moiety         'C17 H14 N4 O3'
_chemical_name_systematic        
2-amino-N-benzyl-3-nitroquinoline-4-carboxamide
_symmetry_cell_setting           monoclinic
_symmetry_space_group_name_H-M   'P 21/c'
_symmetry_Int_Tables_number      14
_space_group_name_Hall           '-P 2ybc'
loop_
_symmetry_equiv_pos_site_id
_symmetry_equiv_pos_as_xyz
1 x,y,z
2 -x,1/2+y,1/2-z
3 -x,-y,-z
4 x,1/2-y,1/2+z
_cell_length_a                   9.4009(11)
_cell_length_b                   9.7452(11)
_cell_length_c                   16.927(2)
_cell_angle_alpha                90
_cell_angle_beta                 102.4860(10)
_cell_angle_gamma                90
_cell_volume                     1514.07
_exptl_crystal_colour            colorless
_exptl_crystal_description       block
_cell_formula_units_Z            4
loop_
_atom_site_label
_atom_site_type_symbol
_atom_site_fract_x
_atom_site_fract_y
_atom_site_fract_z
O1 O 0.48940(12) 0.43581(12) 0.07517(7)
O2 O 0.59284(12) 0.62511(13) 0.12009(8)
O3 O 0.54501(11) 0.84572(10) 0.24464(6)
N1 N 0.48677(13) 0.54959(13) 0.10587(7)
N2 N 0.09111(13) 0.60010(12) 0.09511(7)
N3 N 0.57136(13) 0.62889(12) 0.29518(7)
H1 H 0.5305 0.5499 0.2950
N4 N 0.20150(14) 0.47290(16) 0.01275(8)
H2 H 0.1168 0.4520 -0.0155
H3 H 0.2785 0.4414 -0.0005
C1 C 0.35210(14) 0.59690(14) 0.12651(8)
C2 C 0.21344(15) 0.55465(15) 0.07756(8)
C3 C 0.09614(16) 0.68595(14) 0.15923(9)
C4 C 0.22872(15) 0.72936(14) 0.21041(8)
C5 C 0.36012(15) 0.68170(13) 0.19192(8)
C6 C 0.50353(16) 0.72617(14) 0.24606(8)
C7 C 0.71306(17) 0.65160(18) 0.34956(9)
H4 H 0.7273 0.7492 0.3593
H5 H 0.7893 0.6193 0.3237
C8 C 0.72575(17) 0.57886(16) 0.42926(10)
C9 C 0.6491(2) 0.62387(18) 0.48514(11)
H6 H 0.5866 0.6985 0.4727
C10 C 0.6635(3) 0.5600(2) 0.55934(13)
H7 H 0.6118 0.5922 0.5966
C11 C 0.7532(4) 0.4503(3) 0.57745(15)
H8 H 0.7633 0.4074 0.6274
C12 C 0.8285(3) 0.4024(2) 0.52320(17)
H9 H 0.8878 0.3256 0.5357
C13 C 0.8174(2) 0.4679(2) 0.44884(13)
H10 H 0.8717 0.4368 0.4126
C14 C 0.22364(18) 0.81852(15) 0.27609(9)
H11 H 0.3098 0.8458 0.3107
C15 C 0.09401(19) 0.86433(17) 0.28878(10)
H12 H 0.0920 0.9231 0.3318
C16 C -0.03691(19) 0.82335(18) 0.23726(11)
H13 H -0.1250 0.8563 0.2461
C17 C -0.03668(17) 0.73592(17) 0.17441(10)
H14 H -0.1245 0.7089 0.1413
loop_
_geom_bond_atom_site_label_1
_geom_bond_atom_site_label_2
_geom_bond_site_symmetry_1
_geom_bond_site_symmetry_2
O1 N1 1_555 1_555
O2 N1 1_555 1_555
O3 C6 1_555 1_555
N1 C1 1_555 1_555
N2 C2 1_555 1_555
N3 H1 1_555 1_555
N4 H2 1_555 1_555
H3 N4 1_555 1_555
C1 C2 1_555 1_555
C2 N4 1_555 1_555
C3 N2 1_555 1_555
C4 C3 1_555 1_555
C5 C1 1_555 1_555
C6 N3 1_555 1_555
C7 N3 1_555 1_555
H4 C7 1_555 1_555
H5 C7 1_555 1_555
C8 C7 1_555 1_555
C9 C8 1_555 1_555
H6 C9 1_555 1_555
C10 C9 1_555 1_555
H7 C10 1_555 1_555
C11 C10 1_555 1_555
H8 C11 1_555 1_555
C12 C11 1_555 1_555
H9 C12 1_555 1_555
C13 C8 1_555 1_555
H10 C13 1_555 1_555
C14 C4 1_555 1_555
H11 C14 1_555 1_555
C15 C14 1_555 1_555
H12 C15 1_555 1_555
C16 C15 1_555 1_555
H13 C16 1_555 1_555
C17 C3 1_555 1_555
H14 C17 1_555 1_555
C4 C5 1_555 1_555
C5 C6 1_555 1_555
C12 C13 1_555 1_555
C16 C17 1_555 1_555

#END
