
#######################################################################
#
#                 Cambridge Crystallographic Data Centre
#                                CCDC 
#
#######################################################################
#
# If this CIF has been generated from an entry in the Cambridge 
# Structural Database, then it will include bibliographic, chemical, 
# crystal, experimental, refinement or atomic coordinate data resulting 
# from the CCDC's data processing and validation procedures.
#
#######################################################################

data_QELQOQ
_chemical_formula_moiety         'C32 H26 F1 N3 O2'
_chemical_name_systematic        
2-benzyl-4-(benzylamino)-3-(4-fluorophenyl)-3-hydroxy-8-methyl-2,3-dihydro-1H-pyrrolo[3,4-c]quinolin-1-one
_symmetry_cell_setting           monoclinic
_symmetry_space_group_name_H-M   'P 21'
_symmetry_Int_Tables_number      4
_space_group_name_Hall           'P 2yb'
loop_
_symmetry_equiv_pos_site_id
_symmetry_equiv_pos_as_xyz
1 x,y,z
2 -x,1/2+y,-z
_cell_length_a                   14.536(2)
_cell_length_b                   10.3088(16)
_cell_length_c                   18.813(3)
_cell_angle_alpha                90
_cell_angle_beta                 111.418(2)
_cell_angle_gamma                90
_cell_volume                     2624.42
_exptl_crystal_colour            colorless
_exptl_crystal_description       block
_cell_formula_units_Z            4
loop_
_atom_site_label
_atom_site_type_symbol
_atom_site_fract_x
_atom_site_fract_y
_atom_site_fract_z
F1 F 0.76815(17) 0.7860(3) 0.20546(15)
O1 O 0.48411(13) 0.42087(19) 0.28958(10)
H1 H 0.437129 0.389836 0.297975
O2 O 0.20365(14) 0.6169(2) 0.17195(11)
N1 N 0.37157(15) 0.5883(2) 0.22909(11)
N2 N 0.36448(18) 0.2673(2) 0.05478(13)
N3 N 0.52249(17) 0.2914(3) 0.14359(14)
H2 H 0.561521 0.330863 0.183490
C1 C 0.6910(3) 0.7154(4) 0.2101(2)
C2 C 0.7052(2) 0.6459(4) 0.2737(2)
H3 H 0.766149 0.646006 0.313708
C3 C 0.6274(2) 0.5744(3) 0.27847(17)
H4 H 0.636241 0.524929 0.321824
C4 C 0.53632(18) 0.5755(3) 0.21942(15)
C5 C 0.44892(19) 0.5011(3) 0.22428(14)
C6 C 0.2809(2) 0.5627(3) 0.17600(15)
C7 C 0.29466(19) 0.4589(3) 0.12633(15)
C8 C 0.39175(18) 0.4246(3) 0.15347(14)
C9 C 0.4254(2) 0.3265(3) 0.11559(16)
C10 C 0.2660(2) 0.2988(3) 0.02892(16)
C11 C 0.22541(19) 0.3949(3) 0.06225(15)
C12 C 0.1223(2) 0.4204(3) 0.03206(16)
H5 H 0.096228 0.485036 0.053596
C13 C 0.0612(2) 0.3503(4) -0.02858(18)
C14 C 0.1021(3) 0.2535(4) -0.0604(2)
H6 H 0.060584 0.204782 -0.101102
C15 C 0.2009(3) 0.2290(4) -0.03345(18)
H7 H 0.225690 0.165304 -0.056549
C16 C -0.0493(2) 0.3770(5) -0.0602(2)
H8 H -0.066399 0.428487 -0.024329
H9 H -0.084647 0.296365 -0.068594
H10 H -0.066485 0.423103 -0.107630
C17 C 0.5635(2) 0.1916(3) 0.1100(2)
H11 H 0.510576 0.134758 0.079619
H12 H 0.609562 0.139993 0.150586
C18 C 0.61649(19) 0.2434(3) 0.06001(16)
C19 C 0.6879(2) 0.1684(3) 0.04764(18)
H13 H 0.702129 0.086196 0.069302
C20 C 0.7386(2) 0.2148(4) 0.0031(2)
H14 H 0.787614 0.164602 -0.004090
C21 C 0.7164(3) 0.3338(4) -0.0300(2)
H15 H 0.749709 0.364325 -0.060551
C22 C 0.6458(3) 0.4083(4) -0.0187(2)
H16 H 0.631055 0.489699 -0.041301
C23 C 0.5961(2) 0.3635(4) 0.02632(19)
H17 H 0.548085 0.415220 0.033934
C24 C 0.3886(2) 0.6809(3) 0.29135(15)
H18 H 0.445732 0.652913 0.334606
H19 H 0.332002 0.679799 0.306987
C25 C 0.4055(2) 0.8174(3) 0.27126(16)
C26 C 0.3267(3) 0.8951(4) 0.23241(19)
H20 H 0.262683 0.862790 0.217881
C27 C 0.3420(6) 1.0215(5) 0.2147(3)
H21 H 0.288630 1.074129 0.187840
C28 C 0.4354(8) 1.0680(6) 0.2370(4)
H22 H 0.445315 1.153956 0.226642
C29 C 0.5145(6) 0.9930(6) 0.2738(4)
H23 H 0.578255 1.025462 0.286795
C30 C 0.4992(3) 0.8667(4) 0.2920(3)
H24 H 0.553124 0.814702 0.318659
C31 C 0.5258(2) 0.6473(3) 0.15496(17)
H25 H 0.465278 0.648148 0.114495
C32 C 0.6039(3) 0.7178(4) 0.1497(2)
H26 H 0.597066 0.765479 0.106033
F2 F -0.26108(16) 0.2435(3) 0.29148(15)
O3 O 0.05147(13) 0.5768(2) 0.22383(10)
H27 H 0.099564 0.598503 0.213695
O4 O 0.31203(13) 0.33518(19) 0.31675(10)
N4 N 0.14720(14) 0.3880(2) 0.27156(11)
N5 N 0.2017(2) 0.6985(3) 0.46092(14)
N6 N 0.0370(2) 0.6937(3) 0.38418(15)
H28 H -0.009605 0.658546 0.346642
C33 C -0.1783(2) 0.3036(4) 0.2904(2)
C34 C -0.1865(2) 0.3813(4) 0.2301(2)
H29 H -0.247061 0.392704 0.190411
C35 C -0.1027(2) 0.4427(3) 0.22921(18)
H30 H -0.107033 0.497317 0.188765
C36 C -0.01231(19) 0.4245(3) 0.28742(15)
C37 C 0.08089(18) 0.4865(3) 0.28402(15)
C38 C 0.24219(19) 0.3983(3) 0.32061(14)
C39 C 0.24283(19) 0.4992(3) 0.37737(14)
C40 C 0.1502(2) 0.5472(3) 0.35770(14)
C41 C 0.1304(2) 0.6485(3) 0.40201(17)
C42 C 0.2957(3) 0.6506(3) 0.48062(17)
C43 C 0.3222(2) 0.5482(3) 0.44160(15)
C44 C 0.4200(2) 0.5029(3) 0.46629(16)
H31 H 0.435988 0.435147 0.440292
C45 C 0.4925(3) 0.5576(4) 0.52848(19)
C46 C 0.4659(3) 0.6592(5) 0.5661(2)
H32 H 0.514711 0.697295 0.607716
C47 C 0.3720(3) 0.7051(4) 0.5446(2)
H33 H 0.357590 0.772294 0.571898
C48 C 0.5976(3) 0.5086(5) 0.5571(2)
H34 H 0.603064 0.433921 0.588919
H35 H 0.641149 0.575423 0.586202
H36 H 0.615512 0.485165 0.514488
C49 C 0.0120(3) 0.7984(4) 0.4254(2)
H37 H 0.003354 0.877543 0.395739
H38 H 0.066545 0.811840 0.473360
C50 C -0.0800(2) 0.7732(3) 0.44138(17)
C51 C -0.0956(3) 0.6561(4) 0.46960(19)
H39 H -0.050166 0.589389 0.476181
C52 C -0.1782(3) 0.6359(5) 0.4885(2)
H40 H -0.187496 0.556609 0.508428
C53 C -0.2449(4) 0.7320(7) 0.4777(3)
H41 H -0.300404 0.718026 0.490146
C54 C -0.2325(3) 0.8485(6) 0.4490(2)
H42 H -0.279082 0.913986 0.441538
C55 C -0.1493(3) 0.8686(4) 0.4310(2)
H43 H -0.140281 0.948487 0.411553
C56 C 0.1150(2) 0.3014(3) 0.20547(14)
H44 H 0.170796 0.284142 0.190211
H45 H 0.064925 0.345212 0.163367
C57 C 0.0740(2) 0.1747(3) 0.21946(15)
C58 C -0.0225(2) 0.1389(3) 0.17799(19)
H46 H -0.063019 0.195750 0.141573
C59 C -0.0598(3) 0.0226(4) 0.1891(2)
H47 H -0.124965 0.001037 0.160363
C60 C -0.0020(3) -0.0618(4) 0.2420(2)
H48 H -0.027148 -0.141633 0.249161
C61 C 0.0938(3) -0.0285(4) 0.2849(2)
H49 H 0.133322 -0.085375 0.321840
C62 C 0.1316(2) 0.0892(3) 0.27338(18)
H50 H 0.196666 0.110782 0.302406
C63 C -0.0078(2) 0.3445(3) 0.34704(17)
H51 H 0.052387 0.330914 0.386748
C64 C -0.0919(3) 0.2842(4) 0.3483(2)
H52 H -0.088747 0.230664 0.388923
loop_
_geom_bond_atom_site_label_1
_geom_bond_atom_site_label_2
_geom_bond_site_symmetry_1
_geom_bond_site_symmetry_2
F1 C1 1_555 1_555
O1 H1 1_555 1_555
O2 C6 1_555 1_555
N1 C5 1_555 1_555
N2 C9 1_555 1_555
N3 H2 1_555 1_555
C1 C2 1_555 1_555
C2 H3 1_555 1_555
C3 C2 1_555 1_555
H4 C3 1_555 1_555
C4 C3 1_555 1_555
C5 O1 1_555 1_555
C6 N1 1_555 1_555
C7 C6 1_555 1_555
C8 C5 1_555 1_555
C9 N3 1_555 1_555
C10 N2 1_555 1_555
C11 C7 1_555 1_555
C12 C11 1_555 1_555
H5 C12 1_555 1_555
C13 C12 1_555 1_555
C14 C13 1_555 1_555
H6 C14 1_555 1_555
C15 C10 1_555 1_555
H7 C15 1_555 1_555
C16 C13 1_555 1_555
H8 C16 1_555 1_555
H9 C16 1_555 1_555
H10 C16 1_555 1_555
C17 N3 1_555 1_555
H11 C17 1_555 1_555
H12 C17 1_555 1_555
C18 C17 1_555 1_555
C19 C18 1_555 1_555
H13 C19 1_555 1_555
C20 C19 1_555 1_555
H14 C20 1_555 1_555
C21 C20 1_555 1_555
H15 C21 1_555 1_555
C22 C21 1_555 1_555
H16 C22 1_555 1_555
C23 C18 1_555 1_555
H17 C23 1_555 1_555
C24 N1 1_555 1_555
H18 C24 1_555 1_555
H19 C24 1_555 1_555
C25 C24 1_555 1_555
C26 C25 1_555 1_555
H20 C26 1_555 1_555
C27 C26 1_555 1_555
H21 C27 1_555 1_555
C28 C27 1_555 1_555
H22 C28 1_555 1_555
C29 C28 1_555 1_555
H23 C29 1_555 1_555
C30 C25 1_555 1_555
H24 C30 1_555 1_555
C31 C4 1_555 1_555
H25 C31 1_555 1_555
C32 C1 1_555 1_555
H26 C32 1_555 1_555
F2 C33 1_555 1_555
O3 H27 1_555 1_555
O4 C38 1_555 1_555
N4 C37 1_555 1_555
N5 C41 1_555 1_555
N6 H28 1_555 1_555
C33 C34 1_555 1_555
C34 H29 1_555 1_555
C35 C34 1_555 1_555
H30 C35 1_555 1_555
C36 C35 1_555 1_555
C37 O3 1_555 1_555
C38 N4 1_555 1_555
C39 C38 1_555 1_555
C40 C37 1_555 1_555
C41 N6 1_555 1_555
C42 N5 1_555 1_555
C43 C39 1_555 1_555
C44 C43 1_555 1_555
H31 C44 1_555 1_555
C45 C44 1_555 1_555
C46 C45 1_555 1_555
H32 C46 1_555 1_555
C47 C42 1_555 1_555
H33 C47 1_555 1_555
C48 C45 1_555 1_555
H34 C48 1_555 1_555
H35 C48 1_555 1_555
H36 C48 1_555 1_555
C49 N6 1_555 1_555
H37 C49 1_555 1_555
H38 C49 1_555 1_555
C50 C49 1_555 1_555
C51 C50 1_555 1_555
H39 C51 1_555 1_555
C52 C51 1_555 1_555
H40 C52 1_555 1_555
C53 C52 1_555 1_555
H41 C53 1_555 1_555
C54 C53 1_555 1_555
H42 C54 1_555 1_555
C55 C50 1_555 1_555
H43 C55 1_555 1_555
C56 N4 1_555 1_555
H44 C56 1_555 1_555
H45 C56 1_555 1_555
C57 C56 1_555 1_555
C58 C57 1_555 1_555
H46 C58 1_555 1_555
C59 C58 1_555 1_555
H47 C59 1_555 1_555
C60 C59 1_555 1_555
H48 C60 1_555 1_555
C61 C60 1_555 1_555
H49 C61 1_555 1_555
C62 C57 1_555 1_555
H50 C62 1_555 1_555
C63 C36 1_555 1_555
H51 C63 1_555 1_555
C64 C33 1_555 1_555
H52 C64 1_555 1_555
C4 C5 1_555 1_555
C7 C8 1_555 1_555
C8 C9 1_555 1_555
C10 C11 1_555 1_555
C14 C15 1_555 1_555
C22 C23 1_555 1_555
C29 C30 1_555 1_555
C31 C32 1_555 1_555
C36 C37 1_555 1_555
C39 C40 1_555 1_555
C40 C41 1_555 1_555
C42 C43 1_555 1_555
C46 C47 1_555 1_555
C54 C55 1_555 1_555
C61 C62 1_555 1_555
C63 C64 1_555 1_555

#END
