
#######################################################################
#
#                 Cambridge Crystallographic Data Centre
#                                CCDC 
#
#######################################################################
#
# If this CIF has been generated from an entry in the Cambridge 
# Structural Database, then it will include bibliographic, chemical, 
# crystal, experimental, refinement or atomic coordinate data resulting 
# from the CCDC's data processing and validation procedures.
#
#######################################################################

data_QELWAF
_chemical_formula_moiety         'C26 H31 N1 O1'
_chemical_name_systematic        
(2-(1-(Dimethylamino)ethyl)phenyl)phenyl-(2,4,5-trimethylphenyl)methanol
_symmetry_cell_setting           orthorhombic
_symmetry_space_group_name_H-M   'P 21 21 21'
_symmetry_Int_Tables_number      19
_space_group_name_Hall           'P 2ac 2ab'
loop_
_symmetry_equiv_pos_site_id
_symmetry_equiv_pos_as_xyz
1 x,y,z
2 1/2-x,-y,1/2+z
3 1/2+x,1/2-y,-z
4 -x,1/2+y,1/2-z
_cell_length_a                   8.276(7)
_cell_length_b                   8.511(5)
_cell_length_c                   30.63(1)
_cell_angle_alpha                90
_cell_angle_beta                 90
_cell_angle_gamma                90
_cell_volume                     2157.49
_cell_formula_units_Z            4
loop_
_atom_site_label
_atom_site_type_symbol
_atom_site_fract_x
_atom_site_fract_y
_atom_site_fract_z
O1 O 0.69169(38) 0.67019(34) 0.07763(10)
N1 N 0.76533(49) 0.90979(47) 0.01777(13)
C1 C 0.63776(54) 0.75460(49) 0.11595(15)
C2 C 0.52065(53) 0.88543(51) 0.10011(14)
C3 C 0.57122(53) 1.00732(52) 0.07143(15)
C4 C 0.45835(63) 1.11705(51) 0.05780(16)
C5 C 0.29663(58) 1.10747(59) 0.07012(18)
C6 C 0.24774(58) 0.98871(60) 0.09713(16)
C7 C 0.35783(56) 0.87836(53) 0.11155(16)
C8 C 0.74529(54) 1.01973(54) 0.05509(15)
C9 C 0.80095(62) 1.18836(58) 0.04686(17)
C10 C 0.93563(77) 0.88157(75) 0.00805(22)
C11 C 0.67872(79) 0.95319(58) -0.02154(17)
C12 C 0.78165(52) 0.81878(49) 0.14222(14)
C13 C 0.91669(55) 0.72342(50) 0.15154(15)
C14 C 1.03797(57) 0.78519(55) 0.17784(15)
C15 C 1.03379(60) 0.93687(58) 0.19543(15)
C16 C 0.89880(59) 1.03028(55) 0.18638(16)
C17 C 0.77643(55) 0.96770(50) 0.16070(15)
C18 C 0.94021(64) 0.55821(55) 0.13404(18)
C19 C 1.17484(67) 0.99919(65) 0.22118(20)
C20 C 0.88586(73) 1.19456(59) 0.20381(18)
C21 C 0.55225(57) 0.63448(48) 0.14585(16)
C22 C 0.49416(62) 0.49307(55) 0.12959(16)
C23 C 0.41590(73) 0.38754(56) 0.15688(19)
C24 C 0.39213(65) 0.42185(61) 0.20000(20)
C25 C 0.44863(62) 0.56270(57) 0.21688(16)
C26 C 0.52850(58) 0.66698(52) 0.18935(16)
H1 H 0.6939(60) 0.7405(56) 0.0497(16)
H2 H 0.4828(51) 1.1932(49) 0.0393(14)
H3 H 0.2306(70) 1.1896(67) 0.0600(19)
H4 H 0.1341(53) 0.9756(49) 0.1069(15)
H5 H 0.3283(49) 0.7928(43) 0.1318(13)
H6 H 0.8177(49) 0.9803(45) 0.0791(14)
H7 H 0.7990(48) 1.2514(44) 0.0737(13)
H8 H 0.7459(58) 1.2397(54) 0.0236(15)
H9 H 0.9139(61) 1.1929(57) 0.0382(16)
H10 H 0.9924(78) 0.8603(71) 0.0364(22)
H11 H 0.9849(89) 0.9747(84) -0.0038(26)
H12 H 0.9429(58) 0.7964(53) -0.0155(15)
H13 H 0.7214(59) 1.0466(56) -0.0351(16)
H14 H 0.5577(71) 0.9643(66) -0.0176(19)
H15 H 0.6893(59) 0.8731(51) -0.0486(16)
H16 H 1.1294(47) 0.7217(44) 0.1847(12)
H17 H 0.6709(60) 1.0308(52) 0.1506(16)
H18 H 0.9469(61) 0.5533(59) 0.1023(17)
H19 H 0.8500(61) 0.4881(54) 0.1403(16)
H20 H 1.0377(74) 0.5030(65) 0.1513(19)
H21 H 1.1496(88) 1.0297(72) 0.2520(24)
H22 H 1.2227(62) 1.0815(56) 0.2012(17)
H23 H 1.2567(77) 0.9228(74) 0.2244(22)
H24 H 0.9769(77) 1.2594(69) 0.1923(20)
H25 H 0.8888(58) 1.1987(55) 0.2349(15)
H26 H 0.7861(57) 1.2422(56) 0.1937(16)
H27 H 0.4971(47) 0.4742(44) 0.0987(12)
H28 H 0.3702(64) 0.2951(54) 0.1435(16)
H29 H 0.3403(60) 0.3433(52) 0.2183(16)
H30 H 0.4421(47) 0.5930(41) 0.2498(13)
H31 H 0.5631(55) 0.7559(48) 0.2037(14)
loop_
_geom_bond_atom_site_label_1
_geom_bond_atom_site_label_2
_geom_bond_site_symmetry_1
_geom_bond_site_symmetry_2
O1 C1 1_555 1_555
N1 C8 1_555 1_555
C1 C2 1_555 1_555
C2 C3 1_555 1_555
C3 C4 1_555 1_555
C4 C5 1_555 1_555
C5 C6 1_555 1_555
C6 C7 1_555 1_555
C7 C2 1_555 1_555
C8 C3 1_555 1_555
C9 C8 1_555 1_555
C10 N1 1_555 1_555
C11 N1 1_555 1_555
C12 C1 1_555 1_555
C13 C12 1_555 1_555
C14 C13 1_555 1_555
C15 C14 1_555 1_555
C16 C15 1_555 1_555
C17 C12 1_555 1_555
C18 C13 1_555 1_555
C19 C15 1_555 1_555
C20 C16 1_555 1_555
C21 C1 1_555 1_555
C22 C21 1_555 1_555
C23 C22 1_555 1_555
C24 C23 1_555 1_555
C25 C24 1_555 1_555
C26 C21 1_555 1_555
H1 O1 1_555 1_555
H2 C4 1_555 1_555
H3 C5 1_555 1_555
H4 C6 1_555 1_555
H5 C7 1_555 1_555
H6 C8 1_555 1_555
H7 C9 1_555 1_555
H8 C9 1_555 1_555
H9 C9 1_555 1_555
H10 C10 1_555 1_555
H11 C10 1_555 1_555
H12 C10 1_555 1_555
H13 C11 1_555 1_555
H14 C11 1_555 1_555
H15 C11 1_555 1_555
H16 C14 1_555 1_555
H17 C17 1_555 1_555
H18 C18 1_555 1_555
H19 C18 1_555 1_555
H20 C18 1_555 1_555
H21 C19 1_555 1_555
H22 C19 1_555 1_555
H23 C19 1_555 1_555
H24 C20 1_555 1_555
H25 C20 1_555 1_555
H26 C20 1_555 1_555
H27 C22 1_555 1_555
H28 C23 1_555 1_555
H29 C24 1_555 1_555
H30 C25 1_555 1_555
H31 C26 1_555 1_555
C16 C17 1_555 1_555
C25 C26 1_555 1_555

#END
