
#######################################################################
#
#                 Cambridge Crystallographic Data Centre
#                                CCDC 
#
#######################################################################
#
# If this CIF has been generated from an entry in the Cambridge 
# Structural Database, then it will include bibliographic, chemical, 
# crystal, experimental, refinement or atomic coordinate data resulting 
# from the CCDC's data processing and validation procedures.
#
#######################################################################

data_QELZEP
_chemical_formula_moiety         'C12 H13 N3 O2'
_chemical_name_systematic        
'ethyl 1-(4-methylphenyl)-1H-1,2,4-triazole-3-carboxylate'
_symmetry_cell_setting           monoclinic
_symmetry_space_group_name_H-M   'P 21/c'
_symmetry_Int_Tables_number      14
_space_group_name_Hall           '-P 2ybc'
loop_
_symmetry_equiv_pos_site_id
_symmetry_equiv_pos_as_xyz
1 x,y,z
2 -x,1/2+y,1/2-z
3 -x,-y,-z
4 x,1/2-y,1/2+z
_cell_length_a                   8.9668(11)
_cell_length_b                   6.7106(8)
_cell_length_c                   19.967(2)
_cell_angle_alpha                90
_cell_angle_beta                 101.9130(10)
_cell_angle_gamma                90
_cell_volume                     1175.59
_exptl_crystal_colour            colorless
_exptl_crystal_description       block
_cell_formula_units_Z            4
loop_
_atom_site_label
_atom_site_type_symbol
_atom_site_fract_x
_atom_site_fract_y
_atom_site_fract_z
N1 N 0.28618(13) 0.87741(18) 0.14894(6)
N2 N 0.28430(13) 0.75714(19) 0.09408(6)
N3 N 0.44558(16) 0.6376(2) 0.18743(7)
O1 O 0.35091(14) 0.4240(2) 0.01878(6)
O2 O 0.52279(13) 0.33008(16) 0.11203(6)
C1 C 0.38342(19) 0.8029(2) 0.20352(8)
H1 H 0.4038 0.8607 0.2468
C2 C 0.38188(15) 0.6160(2) 0.12023(8)
C3 C 0.19499(15) 1.0546(2) 0.14306(8)
C4 C 0.10977(19) 1.1093(3) 0.08052(9)
H2 H 0.1119 1.0325 0.0420
C5 C 0.02044(19) 1.2799(3) 0.07505(9)
H3 H -0.0384 1.3152 0.0327
C6 C 0.01738(16) 1.3985(2) 0.13156(9)
C7 C 0.1062(2) 1.3412(3) 0.19312(10)
H4 H 0.1068 1.4198 0.2315
C8 C 0.1947(2) 1.1705(3) 0.19995(9)
H5 H 0.2532 1.1347 0.2423
C9 C -0.0780(2) 1.5842(3) 0.12497(11)
H6 H -0.1319 1.5988 0.0784
H7 H -0.0132 1.6977 0.1378
H8 H -0.1497 1.5748 0.1545
C10 C 0.41415(16) 0.4480(2) 0.07693(8)
C11 C 0.5633(2) 0.1615(3) 0.07378(11)
H9 H 0.6077 0.2074 0.0362
H10 H 0.4735 0.0829 0.0552
C12 C 0.6764(2) 0.0386(3) 0.12246(13)
H11 H 0.7059 -0.0745 0.0987
H12 H 0.6311 -0.0063 0.1593
H13 H 0.7647 0.1179 0.1405
loop_
_geom_bond_atom_site_label_1
_geom_bond_atom_site_label_2
_geom_bond_site_symmetry_1
_geom_bond_site_symmetry_2
N1 N2 1_555 1_555
N2 C2 1_555 1_555
N3 C1 1_555 1_555
O1 C10 1_555 1_555
O2 C10 1_555 1_555
C1 N1 1_555 1_555
H1 C1 1_555 1_555
C2 N3 1_555 1_555
C3 N1 1_555 1_555
C4 C3 1_555 1_555
H2 C4 1_555 1_555
C5 C4 1_555 1_555
H3 C5 1_555 1_555
C6 C5 1_555 1_555
C7 C6 1_555 1_555
H4 C7 1_555 1_555
C8 C3 1_555 1_555
H5 C8 1_555 1_555
C9 C6 1_555 1_555
H6 C9 1_555 1_555
H7 C9 1_555 1_555
H8 C9 1_555 1_555
C10 C2 1_555 1_555
C11 O2 1_555 1_555
H9 C11 1_555 1_555
H10 C11 1_555 1_555
C12 C11 1_555 1_555
H11 C12 1_555 1_555
H12 C12 1_555 1_555
H13 C12 1_555 1_555
C7 C8 1_555 1_555

#END
