
#######################################################################
#
#                 Cambridge Crystallographic Data Centre
#                                CCDC 
#
#######################################################################
#
# If this CIF has been generated from an entry in the Cambridge 
# Structural Database, then it will include bibliographic, chemical, 
# crystal, experimental, refinement or atomic coordinate data resulting 
# from the CCDC's data processing and validation procedures.
#
#######################################################################

data_QEMGEX
_chemical_formula_moiety         'C31 H23 Br1 F1 N3 O4'
_chemical_name_systematic        
1'-benzyl-3-(4-bromo-2-fluorophenyl)-3a-nitro-2,3,3a,9b-tetrahydro-4H-spiro[1-benzopyrano[3,4-c]pyrrole-1,3'-indol]-2'(1'H)-one
_symmetry_cell_setting           orthorhombic
_symmetry_space_group_name_H-M   'P 21 21 21'
_symmetry_Int_Tables_number      19
_space_group_name_Hall           'P 2ac 2ab'
loop_
_symmetry_equiv_pos_site_id
_symmetry_equiv_pos_as_xyz
1 x,y,z
2 1/2-x,-y,1/2+z
3 -x,1/2+y,1/2-z
4 1/2+x,1/2-y,-z
_cell_length_a                   9.608(4)
_cell_length_b                   9.984(5)
_cell_length_c                   28.090(13)
_cell_angle_alpha                90
_cell_angle_beta                 90
_cell_angle_gamma                90
_cell_volume                     2694.57
_exptl_crystal_colour            yellow
_exptl_crystal_description       block
_cell_formula_units_Z            4
loop_
_atom_site_label
_atom_site_type_symbol
_atom_site_fract_x
_atom_site_fract_y
_atom_site_fract_z
F1 F 1.2437(3) 0.6081(4) 0.73866(12)
C1 C 1.5565(4) 0.7723(4) 0.57904(15)
C2 C 1.3611(4) 1.0539(4) 0.57613(15)
C3 C 1.4064(4) 0.7998(4) 0.59274(15)
H1 H 1.3494 0.7863 0.5642
C4 C 0.9965(5) 0.7919(5) 0.66945(16)
H2 H 0.9935 0.8495 0.6434
C5 C 1.3740(4) 0.9415(4) 0.61198(14)
C6 C 1.3503(4) 0.7050(4) 0.63155(15)
C7 C 1.1239(4) 0.7451(4) 0.68475(15)
C8 C 1.4444(4) 1.1588(4) 0.59053(16)
C9 C 1.8123(5) 1.1257(5) 0.61860(18)
H3 H 1.7605 1.0521 0.6088
C10 C 1.7585(5) 0.6273(6) 0.58036(19)
H4 H 1.8015 0.5494 0.5910
C11 C 1.6235(5) 0.6589(4) 0.59492(17)
C12 C 1.1214(5) 0.6555(5) 0.72299(17)
C13 C 1.8275(5) 0.7135(6) 0.54996(19)
H5 H 1.9181 0.6944 0.5404
C14 C 1.7498(4) 1.2245(4) 0.64558(16)
C15 C 1.6268(5) 0.8557(5) 0.54751(15)
H6 H 1.5824 0.9313 0.5355
C16 C 1.9518(5) 1.1352(6) 0.60602(19)
H7 H 1.9925 1.0685 0.5876
C17 C 1.4853(4) 0.9980(4) 0.64639(14)
C18 C 1.2611(4) 0.7964(4) 0.66530(14)
H8 H 1.3196 0.8204 0.6925
C19 C 1.2853(5) 1.0625(5) 0.53497(16)
H9 H 1.2293 0.9916 0.5253
C20 C 2.0295(6) 1.2420(6) 0.6206(3)
H10 H 2.1228 1.2489 0.6121
C21 C 1.4534(6) 1.2769(5) 0.5649(2)
H11 H 1.5087 1.3480 0.5750
C22 C 0.8740(5) 0.7566(5) 0.69119(18)
H12 H 0.7896 0.7915 0.6807
C23 C 1.7626(5) 0.8275(5) 0.53371(18)
H13 H 1.8096 0.8857 0.5135
C24 C 1.9678(6) 1.3388(7) 0.6478(3)
H14 H 2.0201 1.4115 0.6582
C25 C 1.2933(7) 1.1782(6) 0.5081(2)
H15 H 1.2436 1.1852 0.4798
C26 C 1.8292(6) 1.3301(5) 0.6602(3)
H16 H 1.7893 1.3971 0.6787
C27 C 1.5991(5) 1.2155(5) 0.66144(18)
H17 H 1.5968 1.1855 0.6943
H18 H 1.5587 1.3045 0.6604
C28 C 1.3754(7) 1.2836(6) 0.5234(2)
H19 H 1.3785 1.3614 0.5052
C29 C 1.4667(5) 0.6339(5) 0.65783(17)
H20 H 1.5173 0.6982 0.6770
H21 H 1.4271 0.5674 0.6791
N1 N 1.2426(3) 0.9161(3) 0.63670(12)
H22 H 1.1681 0.9634 0.6347
N2 N 1.5135(3) 1.1266(3) 0.63314(12)
N3 N 1.2540(4) 0.5997(4) 0.60946(17)
O1 O 1.1760(5) 0.6350(5) 0.57803(16)
O2 O 1.2558(5) 0.4874(4) 0.6267(2)
O3 O 1.5605(4) 0.5700(3) 0.62574(14)
O4 O 1.5342(3) 0.9429(3) 0.68130(11)
Br1 Br 0.71089(6) 0.61744(9) 0.75926(2)
C30 C 0.8788(5) 0.6689(6) 0.72868(16)
C31 C 1.0017(6) 0.6168(6) 0.74486(17)
H23 H 1.0034 0.5566 0.7701
loop_
_geom_bond_atom_site_label_1
_geom_bond_atom_site_label_2
_geom_bond_site_symmetry_1
_geom_bond_site_symmetry_2
F1 C12 1_555 1_555
C1 C3 1_555 1_555
C2 C5 1_555 1_555
C3 H1 1_555 1_555
C4 H2 1_555 1_555
C5 C3 1_555 1_555
C6 C3 1_555 1_555
C7 C4 1_555 1_555
C8 C2 1_555 1_555
C9 H3 1_555 1_555
C10 H4 1_555 1_555
C11 C1 1_555 1_555
C12 C7 1_555 1_555
C13 C10 1_555 1_555
H5 C13 1_555 1_555
C14 C9 1_555 1_555
C15 C1 1_555 1_555
H6 C15 1_555 1_555
C16 C9 1_555 1_555
H7 C16 1_555 1_555
C17 C5 1_555 1_555
C18 C6 1_555 1_555
H8 C18 1_555 1_555
C19 C2 1_555 1_555
H9 C19 1_555 1_555
C20 C16 1_555 1_555
H10 C20 1_555 1_555
C21 C8 1_555 1_555
H11 C21 1_555 1_555
C22 C4 1_555 1_555
H12 C22 1_555 1_555
C23 C13 1_555 1_555
H13 C23 1_555 1_555
C24 C20 1_555 1_555
H14 C24 1_555 1_555
C25 C19 1_555 1_555
H15 C25 1_555 1_555
C26 C14 1_555 1_555
H16 C26 1_555 1_555
C27 C14 1_555 1_555
H17 C27 1_555 1_555
H18 C27 1_555 1_555
C28 C21 1_555 1_555
H19 C28 1_555 1_555
C29 C6 1_555 1_555
H20 C29 1_555 1_555
H21 C29 1_555 1_555
N1 C5 1_555 1_555
H22 N1 1_555 1_555
N2 C8 1_555 1_555
N3 C6 1_555 1_555
O1 N3 1_555 1_555
O2 N3 1_555 1_555
O3 C11 1_555 1_555
O4 C17 1_555 1_555
Br1 C30 1_555 1_555
C30 C22 1_555 1_555
C31 C12 1_555 1_555
H23 C31 1_555 1_555
C7 C18 1_555 1_555
C10 C11 1_555 1_555
C15 C23 1_555 1_555
C17 N2 1_555 1_555
C18 N1 1_555 1_555
C24 C26 1_555 1_555
C25 C28 1_555 1_555
C27 N2 1_555 1_555
C29 O3 1_555 1_555
C30 C31 1_555 1_555

#END
