
#######################################################################
#
#                 Cambridge Crystallographic Data Centre
#                                CCDC 
#
#######################################################################
#
# If this CIF has been generated from an entry in the Cambridge 
# Structural Database, then it will include bibliographic, chemical, 
# crystal, experimental, refinement or atomic coordinate data resulting 
# from the CCDC's data processing and validation procedures.
#
#######################################################################

data_QEMHIA
_chemical_formula_moiety         'C18 H20 N2 O6'
_chemical_name_systematic        N,N'-bis(2,5-Dimethoxyphenyl)oxamide
_symmetry_cell_setting           monoclinic
_symmetry_space_group_name_H-M   'P 21'
_symmetry_Int_Tables_number      4
_space_group_name_Hall           'P 2yb'
loop_
_symmetry_equiv_pos_site_id
_symmetry_equiv_pos_as_xyz
1 x,y,z
2 -x,1/2+y,-z
_cell_length_a                   6.597(3)
_cell_length_b                   17.427(7)
_cell_length_c                   15.433(6)
_cell_angle_alpha                90
_cell_angle_beta                 91.496(9)
_cell_angle_gamma                90
_cell_volume                     1773.66
_exptl_crystal_colour            colorless
_exptl_crystal_description       needle
_cell_formula_units_Z            4
_exptl_crystal_recrystallization_method DMF
loop_
_atom_site_label
_atom_site_type_symbol
_atom_site_fract_x
_atom_site_fract_y
_atom_site_fract_z
O1 O 0.0963(6) 0.5206(2) 0.3587(3)
O2 O -0.0475(6) 0.7127(3) 0.3808(3)
O3 O 0.7043(6) 0.4066(3) 0.4727(3)
O4 O 0.4993(6) 0.7093(2) 0.5196(3)
O5 O -0.4385(6) 0.5239(3) 0.2147(3)
O6 O -0.6562(7) 0.8249(3) 0.2676(3)
N1 N 0.2550(7) 0.6197(3) 0.4299(3)
H1 H 0.2383 0.6675 0.4412
N2 N -0.2047(7) 0.6132(3) 0.3089(3)
H2 H -0.1872 0.5654 0.2975
C1 C 0.4891(10) 0.5103(4) 0.4519(4)
H3 H 0.4076 0.4786 0.4172
C2 C 0.6620(11) 0.4825(4) 0.4898(5)
C3 C 0.7906(10) 0.5291(4) 0.5394(5)
H4 H 0.9087 0.5093 0.5649
C4 C 0.7396(9) 0.6061(4) 0.5503(4)
H5 H 0.8248 0.6381 0.5828
C5 C 0.5655(10) 0.6348(4) 0.5134(4)
C6 C 0.4349(9) 0.5859(4) 0.4651(4)
C7 C 0.1100(8) 0.5873(4) 0.3820(4)
C8 C -0.0567(10) 0.6464(4) 0.3568(4)
C9 C -0.3855(9) 0.6459(4) 0.2745(4)
C10 C -0.5117(9) 0.5978(4) 0.2246(4)
C11 C -0.6871(10) 0.6262(4) 0.1893(4)
H6 H -0.7714 0.5940 0.1565
C12 C -0.7430(10) 0.7022(4) 0.2014(4)
H7 H -0.8623 0.7212 0.1762
C13 C -0.6196(10) 0.7486(4) 0.2511(5)
C14 C -0.4390(8) 0.7218(4) 0.2882(4)
H8 H -0.3559 0.7541 0.3214
C15 C 0.8739(12) 0.3721(4) 0.5163(5)
H9 H 0.8737 0.3179 0.5052
H10 H 0.8657 0.3809 0.5775
H11 H 0.9968 0.3943 0.4956
C16 C 0.6344(11) 0.7639(4) 0.5571(6)
H12 H 0.5730 0.8138 0.5547
H13 H 0.7579 0.7645 0.5255
H14 H 0.6638 0.7503 0.6163
C17 C -0.5735(12) 0.4696(4) 0.1749(6)
H15 H -0.5130 0.4195 0.1770
H16 H -0.5997 0.4839 0.1156
H17 H -0.6987 0.4689 0.2052
C18 C -0.8358(10) 0.8574(4) 0.2288(5)
H18 H -0.8415 0.9111 0.2420
H19 H -0.9528 0.8322 0.2512
H20 H -0.8337 0.8506 0.1671
O7 O 0.4509(6) 0.0885(3) 0.1340(3)
O8 O 0.5941(6) 0.2808(2) 0.1082(3)
O9 O -0.1468(7) 0.0002(2) 0.2712(3)
O10 O 0.0723(7) 0.3042(2) 0.2465(3)
O11 O 0.9768(6) 0.0643(2) -0.0009(3)
O12 O 1.1908(7) 0.3674(3) -0.0315(3)
N3 N 0.3008(7) 0.1994(3) 0.1788(3)
H21 H 0.3181 0.2483 0.1782
N4 N 0.7457(7) 0.1697(3) 0.0631(3)
H22 H 0.7269 0.1208 0.0631
C19 C 0.0684(9) 0.0978(4) 0.2276(4)
H23 H 0.1481 0.0599 0.2032
C20 C -0.1059(9) 0.0778(4) 0.2706(5)
C21 C -0.2227(10) 0.1345(4) 0.3064(4)
H24 H -0.3405 0.1218 0.3349
C22 C -0.1643(9) 0.2100(4) 0.3000(5)
H25 H -0.2427 0.2479 0.3253
C23 C 0.0061(9) 0.2307(4) 0.2573(4)
C24 C 0.1232(9) 0.1735(4) 0.2213(4)
C25 C 0.4431(9) 0.1587(4) 0.1401(4)
C26 C 0.6028(9) 0.2107(4) 0.1025(5)
C27 C 0.9218(8) 0.1945(4) 0.0217(4)
C28 C 1.0439(10) 0.1386(4) -0.0120(4)
C29 C 1.2167(10) 0.1579(4) -0.0537(4)
H26 H 1.2984 0.1196 -0.0761
C30 C 1.2709(10) 0.2350(4) -0.0627(5)
H27 H 1.3866 0.2483 -0.0924
C31 C 1.1550(10) 0.2897(4) -0.0282(5)
C32 C 0.9742(10) 0.2716(4) 0.0137(4)
H28 H 0.8919 0.3100 0.0354
C33 C -0.3286(11) -0.0235(4) 0.3114(5)
H29 H -0.3340 -0.0786 0.3130
H30 H -0.4436 -0.0043 0.2788
H31 H -0.3305 -0.0037 0.3694
C34 C -0.0659(11) 0.3657(4) 0.2633(6)
H32 H 0.0013 0.4140 0.2551
H33 H -0.1104 0.3622 0.3219
H34 H -0.1809 0.3622 0.2241
C35 C 1.1113(11) 0.0038(4) -0.0232(6)
H35 H 1.0502 -0.0447 -0.0103
H36 H 1.2362 0.0090 0.0096
H37 H 1.1382 0.0064 -0.0840
C36 C 1.3657(12) 0.3916(5) -0.0769(5)
H38 H 1.3718 0.4466 -0.0775
H39 H 1.3573 0.3728 -0.1354
H40 H 1.4855 0.3715 -0.0485
loop_
_geom_bond_atom_site_label_1
_geom_bond_atom_site_label_2
_geom_bond_site_symmetry_1
_geom_bond_site_symmetry_2
O1 C7 1_555 1_555
O2 C8 1_555 1_555
O3 C2 1_555 1_555
O4 C5 1_555 1_555
O5 C10 1_555 1_555
O6 C13 1_555 1_555
N1 H1 1_555 1_555
N2 H2 1_555 1_555
C1 H3 1_555 1_555
C2 C1 1_555 1_555
C3 C2 1_555 1_555
H4 C3 1_555 1_555
C4 C3 1_555 1_555
H5 C4 1_555 1_555
C5 C4 1_555 1_555
C6 N1 1_555 1_555
C7 N1 1_555 1_555
C8 N2 1_555 1_555
C9 N2 1_555 1_555
C10 C9 1_555 1_555
C11 C10 1_555 1_555
H6 C11 1_555 1_555
C12 C11 1_555 1_555
H7 C12 1_555 1_555
C13 C12 1_555 1_555
C14 C9 1_555 1_555
H8 C14 1_555 1_555
C15 O3 1_555 1_555
H9 C15 1_555 1_555
H10 C15 1_555 1_555
H11 C15 1_555 1_555
C16 O4 1_555 1_555
H12 C16 1_555 1_555
H13 C16 1_555 1_555
H14 C16 1_555 1_555
C17 O5 1_555 1_555
H15 C17 1_555 1_555
H16 C17 1_555 1_555
H17 C17 1_555 1_555
C18 O6 1_555 1_555
H18 C18 1_555 1_555
H19 C18 1_555 1_555
H20 C18 1_555 1_555
O7 C25 1_555 1_555
O8 C26 1_555 1_555
O9 C20 1_555 1_555
O10 C23 1_555 1_555
O11 C28 1_555 1_555
O12 C31 1_555 1_555
N3 H21 1_555 1_555
N4 H22 1_555 1_555
C19 H23 1_555 1_555
C20 C19 1_555 1_555
C21 C20 1_555 1_555
H24 C21 1_555 1_555
C22 C21 1_555 1_555
H25 C22 1_555 1_555
C23 C22 1_555 1_555
C24 N3 1_555 1_555
C25 N3 1_555 1_555
C26 N4 1_555 1_555
C27 N4 1_555 1_555
C28 C27 1_555 1_555
C29 C28 1_555 1_555
H26 C29 1_555 1_555
C30 C29 1_555 1_555
H27 C30 1_555 1_555
C31 C30 1_555 1_555
C32 C27 1_555 1_555
H28 C32 1_555 1_555
C33 O9 1_555 1_555
H29 C33 1_555 1_555
H30 C33 1_555 1_555
H31 C33 1_555 1_555
C34 O10 1_555 1_555
H32 C34 1_555 1_555
H33 C34 1_555 1_555
H34 C34 1_555 1_555
C35 O11 1_555 1_555
H35 C35 1_555 1_555
H36 C35 1_555 1_555
H37 C35 1_555 1_555
C36 O12 1_555 1_555
H38 C36 1_555 1_555
H39 C36 1_555 1_555
H40 C36 1_555 1_555
C1 C6 1_555 1_555
C5 C6 1_555 1_555
C7 C8 1_555 1_555
C13 C14 1_555 1_555
C19 C24 1_555 1_555
C23 C24 1_555 1_555
C25 C26 1_555 1_555
C31 C32 1_555 1_555

#END
