
#######################################################################
#
#                 Cambridge Crystallographic Data Centre
#                                CCDC 
#
#######################################################################
#
# If this CIF has been generated from an entry in the Cambridge 
# Structural Database, then it will include bibliographic, chemical, 
# crystal, experimental, refinement or atomic coordinate data resulting 
# from the CCDC's data processing and validation procedures.
#
#######################################################################

data_QEMKUP
_chemical_formula_moiety         'C32 H20 N6 O6,C1 H2 Cl2,C8 H18'
_chemical_name_systematic        
'endo,exo,syn-3,7,10-tris(N-Phthalimidyl)-3,7,10-triazapentacyclo(3.3.3.0^2,4^.0^6,8^.0^9,11^)undecane n-octane dichloromethane solvate'
_symmetry_cell_setting           trigonal
_symmetry_space_group_name_H-M   'P -3'
_symmetry_Int_Tables_number      147
_space_group_name_Hall           '-P 3'
loop_
_symmetry_equiv_pos_site_id
_symmetry_equiv_pos_as_xyz
1 x,y,z
2 -y,x-y,z
3 -x+y,-x,z
4 -x,-y,-z
5 y,-x+y,-z
6 x-y,x,-z
_cell_length_a                   13.9411(3)
_cell_length_b                   13.9411(3)
_cell_length_c                   11.3411(3)
_cell_angle_alpha                90
_cell_angle_beta                 90
_cell_angle_gamma                120
_cell_volume                     1908.89
_exptl_crystal_colour            colorless
_exptl_crystal_description       prism
_chemical_melting_point          279-281deg.C(dec)
_cell_formula_units_Z            2
_exptl_crystal_recrystallization_method dichloromethane/octane
loop_
_atom_site_label
_atom_site_type_symbol
_atom_site_fract_x
_atom_site_fract_y
_atom_site_fract_z
C14 C -0.0661(11) 0.1595(12) 0.1374(12)
H11 H -0.0168 0.2188 0.0912
H13 H -0.1400 0.1545 0.1350
C18 C -0.0973(10) 0.1329(10) 0.2609(12)
C19 C 0.0003(8) 0.1493(7) 0.3368(8)
H22 H 0.0130 0.0883 0.3179
C20 C -0.0061(11) 0.1546(10) 0.4601(11)
O1 O 0.03056(14) 0.40748(15) 0.96089(16)
O2 O 0.04462(15) 0.42022(16) 0.55772(16)
N1 N 0.17790(13) 0.50594(13) 0.76352(19)
N2 N 0.06070(12) 0.44183(13) 0.76027(18)
C1 C 0.3333 0.6667 0.8822(4)
C2 C 0.21533(18) 0.61295(17) 0.8296(2)
H1 H 0.1584 0.6240 0.8713
C3 C 0.21641(17) 0.61365(18) 0.6994(2)
H2 H 0.1601 0.6252 0.6570
C4 C 0.3333 0.6667 0.6488(4)
C5 C -0.00179(18) 0.38870(18) 0.86052(19)
C6 C -0.20877(19) 0.2351(2) 0.87389(19)
H3 H -0.2111 0.2322 0.9576
C7 C -0.30237(18) 0.1666(2) 0.8056(2)
H4 H -0.3695 0.1161 0.8440
C8 C -0.29928(18) 0.1710(2) 0.6833(2)
H5 H -0.3644 0.1241 0.6397
C9 C -0.20216(19) 0.2431(2) 0.62336(19)
H6 H -0.1994 0.2458 0.5397
C10 C 0.00433(18) 0.39419(18) 0.6542(2)
C11 C -0.11006(17) 0.31041(17) 0.69096(18)
C12 C -0.11307(16) 0.30684(17) 0.81413(17)
H7 H 0.3333 0.6667 0.9764(18)
H8 H 0.3333 0.6667 0.5563(18)
O1A O 0.59252(15) 0.62308(21) 0.96089(16)
O1B O 0.37692(21) 0.96944(14) 0.96089(16)
O2A O 0.57978(16) 0.62440(22) 0.55772(16)
O2B O 0.37560(22) 0.95538(15) 0.55772(16)
N1A N 0.49406(13) 0.67196(18) 0.76352(19)
N1B N 0.32804(18) 0.82210(13) 0.76352(19)
N2A N 0.55817(13) 0.61887(18) 0.76027(18)
N2B N 0.38113(18) 0.93930(12) 0.76027(18)
C2A C 0.38705(17) 0.60238(25) 0.8296(2)
C2B C 0.39762(25) 0.78467(18) 0.8296(2)
H1A H 0.3760 0.5344 0.8713
H1B H 0.4656 0.8416 0.8713
C3A C 0.38635(18) 0.60276(25) 0.6994(2)
C3B C 0.39724(25) 0.78359(17) 0.6994(2)
H2A H 0.3748 0.5349 0.6570
H2B H 0.4651 0.8399 0.6570
C5A C 0.61130(18) 0.60951(25) 0.86052(19)
C5B C 0.39049(25) 1.00179(18) 0.86052(19)
C6A C 0.7649(2) 0.55613(28) 0.87389(19)
C6B C 0.44387(28) 1.20877(19) 0.87389(19)
H3A H 0.7678 0.5567 0.9576
H3B H 0.4433 1.2111 0.9576
C7A C 0.8334(2) 0.53103(27) 0.8056(2)
C7B C 0.46897(27) 1.30237(18) 0.8056(2)
H4A H 0.8839 0.5144 0.8440
H4B H 0.4856 1.3695 0.8440
C8A C 0.8290(2) 0.52972(27) 0.6833(2)
C8B C 0.47028(27) 1.29928(18) 0.6833(2)
H5A H 0.8759 0.5115 0.6397
H5B H 0.4885 1.3644 0.6397
C9A C 0.7569(2) 0.55474(28) 0.62336(19)
C9B C 0.44526(28) 1.20216(19) 0.62336(19)
H6A H 0.7542 0.5548 0.5397
H6B H 0.4452 1.1994 0.5397
C10A C 0.60581(18) 0.61014(25) 0.6542(2)
C10B C 0.38986(25) 0.99567(18) 0.6542(2)
C11A C 0.68959(17) 0.57953(24) 0.69096(18)
C11B C 0.42047(24) 1.11006(17) 0.69096(18)
C12A C 0.69316(17) 0.58009(23) 0.81413(17)
C12B C 0.41991(23) 1.11307(16) 0.81413(17)
Cl1? Cl -0.0760(4) 0.1909(4) 0.3366(4)
Cl2? Cl -0.1117(4) 0.0828(4) 0.1144(4)
C13? C -0.0657(12) 0.1996(12) 0.1922(12)
H9? H 0.0134 0.2486 0.1724
H10? H -0.1060 0.2371 0.1645
H12? H -0.0775 0.0899 0.1069
C15? C -0.0293(12) 0.1705(11) 0.2574(14)
H14? H -0.0234 0.2400 0.2853
H15? H 0.0385 0.1760 0.2576
C16? C -0.1125(10) 0.0748(11) 0.3376(10)
H16? H -0.1859 0.0688 0.3284
H17? H -0.1191 0.0050 0.3077
C17? C -0.0872(10) 0.0824(10) 0.4657(11)
H18? H -0.0158 0.0867 0.4773
H19? H -0.0815 0.1494 0.4983
H20? H -0.1577 0.0549 0.2671
H21? H -0.1256 0.1806 0.2911
H23? H 0.0651 0.2190 0.3112
H24? H -0.0177 0.2150 0.4818
H25? H -0.0688 0.0863 0.4891
loop_
_geom_bond_atom_site_label_1
_geom_bond_atom_site_label_2
_geom_bond_site_symmetry_1
_geom_bond_site_symmetry_2
O1 C5 1_555 1_555
O2 C10 1_555 1_555
N1 N2 1_555 1_555
N2 C5 1_555 1_555
C1 C2 1_555 1_555
C2 N1 1_555 1_555
H1 C2 1_555 1_555
C3 N1 1_555 1_555
H2 C3 1_555 1_555
C4 C3 1_555 1_555
C5 C12 1_555 1_555
C6 H3 1_555 1_555
C7 C6 1_555 1_555
H4 C7 1_555 1_555
C8 C7 1_555 1_555
H5 C8 1_555 1_555
C9 C8 1_555 1_555
H6 C9 1_555 1_555
C10 N2 1_555 1_555
C11 C9 1_555 1_555
C12 C6 1_555 1_555
H7 C1 1_555 1_555
H8 C4 1_555 1_555
C14 H11 1_555 1_555
H13 C14 1_555 1_555
C18 C14 1_555 1_555
C19 C18 1_555 1_555
H22 C19 1_555 1_555
C20 C19 1_555 1_555
O1A C5A 1_555 1_555
O1B C5B 1_555 1_555
O2A C10A 1_555 1_555
O2B C10B 1_555 1_555
N1A N2A 1_555 1_555
N1B N2B 1_555 1_555
N2A C5A 1_555 1_555
N2B C5B 1_555 1_555
C2A C1 1_555 1_555
C2B C1 1_555 1_555
H1A C2A 1_555 1_555
H1B C2B 1_555 1_555
C3A C4 1_555 1_555
C3B C4 1_555 1_555
H2A C3A 1_555 1_555
H2B C3B 1_555 1_555
C5A C12A 1_555 1_555
C5B C12B 1_555 1_555
C6A H3A 1_555 1_555
C6B H3B 1_555 1_555
C7A C6A 1_555 1_555
C7B C6B 1_555 1_555
H4A C7A 1_555 1_555
H4B C7B 1_555 1_555
C8A C7A 1_555 1_555
C8B C7B 1_555 1_555
H5A C8A 1_555 1_555
H5B C8B 1_555 1_555
C9A C8A 1_555 1_555
C9B C8B 1_555 1_555
H6A C9A 1_555 1_555
H6B C9B 1_555 1_555
C10A N2A 1_555 1_555
C10B N2B 1_555 1_555
C11A C9A 1_555 1_555
C11B C9B 1_555 1_555
C12A C6A 1_555 1_555
C12B C6B 1_555 1_555
C2 C3 1_555 1_555
C10 C11 1_555 1_555
C11 C12 1_555 1_555
N1A C2A 1_555 1_555
N1A C3A 1_555 1_555
N1B C2B 1_555 1_555
N1B C3B 1_555 1_555
C2A C3A 1_555 1_555
C2B C3B 1_555 1_555
C10A C11A 1_555 1_555
C10B C11B 1_555 1_555
C11A C12A 1_555 1_555
C11B C12B 1_555 1_555

#END
