
#######################################################################
#
#                 Cambridge Crystallographic Data Centre
#                                CCDC 
#
#######################################################################
#
# If this CIF has been generated from an entry in the Cambridge 
# Structural Database, then it will include bibliographic, chemical, 
# crystal, experimental, refinement or atomic coordinate data resulting 
# from the CCDC's data processing and validation procedures.
#
#######################################################################

data_QEMKID
_chemical_formula_moiety         'C24 H34 O8'
_chemical_name_systematic        
5-t-Butyl-3-((6-(2,2-dimethyl-1,3-dioxolan-4-yl)-2,2-dimethyltetrahydrofuro(3,4-d)(1,3)dioxol-4-yloxy)methyl)-2-hydroxybenzaldehyde
_symmetry_cell_setting           monoclinic
_symmetry_space_group_name_H-M   'P 21'
_symmetry_Int_Tables_number      4
_space_group_name_Hall           'P 2yb'
loop_
_symmetry_equiv_pos_site_id
_symmetry_equiv_pos_as_xyz
1 x,y,z
2 -x,1/2+y,-z
_cell_length_a                   12.7880(19)
_cell_length_b                   6.7749(10)
_cell_length_c                   26.859(4)
_cell_angle_alpha                90
_cell_angle_beta                 92.118(2)
_cell_angle_gamma                90
_cell_volume                     2325.4
_exptl_crystal_colour            colorless
_exptl_crystal_description       block
_chemical_melting_point          '353-354 K'
_cell_formula_units_Z            4
_exptl_crystal_recrystallization_method 'petroleum ether/ethyl acetate'
loop_
_atom_site_label
_atom_site_type_symbol
_atom_site_fract_x
_atom_site_fract_y
_atom_site_fract_z
O1 O 0.91593(10) 0.3987(2) 0.53454(5)
O2 O 1.02030(11) 0.6998(3) 0.65133(5)
O3 O 1.08587(11) 0.6557(3) 0.57443(6)
O4 O 0.76486(11) 0.7683(2) 0.54200(6)
O5 O 0.65579(11) 0.5508(2) 0.50069(6)
O6 O 0.75627(10) 0.3427(2) 0.57202(5)
O7 O 0.89507(11) 0.2272(3) 0.69972(6)
H1 H 0.913(2) 0.240(5) 0.7300(10)
O8 O 0.88326(11) 0.2509(3) 0.79662(6)
C1 C 0.92996(16) 0.6050(4) 0.52297(8)
H3 H 0.9790 0.6131 0.4949
C2 C 0.82470(16) 0.6815(4) 0.50394(8)
H4 H 0.8308 0.7704 0.4745
C3 C 0.76042(15) 0.4975(4) 0.49166(8)
H5 H 0.7679 0.4579 0.4561
C4 C 0.80899(15) 0.3417(4) 0.52716(8)
H6 H 0.8044 0.2080 0.5115
C5 C 0.97909(15) 0.7186(4) 0.56669(8)
H7 H 0.9783 0.8626 0.5585
C6 C 0.93160(16) 0.6890(4) 0.61768(7)
H8 H 0.8804 0.7942 0.6246
H9 H 0.8967 0.5591 0.6197
C7 C 1.10545(17) 0.6165(5) 0.62707(9)
C8 C 1.11021(19) 0.3940(5) 0.63521(10)
H10 H 1.1232 0.3664 0.6707
H11 H 1.1669 0.3382 0.6161
H12 H 1.0435 0.3345 0.6241
C9 C 1.20460(18) 0.7193(6) 0.64393(9)
H13 H 1.1980 0.8610 0.6372
H14 H 1.2634 0.6658 0.6258
H15 H 1.2171 0.6981 0.6797
C10 C 0.65674(16) 0.7317(4) 0.52891(8)
C11 C 0.59823(16) 0.7074(4) 0.57620(8)
H16 H 0.6257 0.5926 0.5946
H17 H 0.5237 0.6877 0.5679
H18 H 0.6073 0.8260 0.5968
C12 C 0.61268(18) 0.8966(4) 0.49570(9)
H19 H 0.6117 1.0201 0.5147
H20 H 0.5413 0.8628 0.4842
H21 H 0.6567 0.9128 0.4669
C13 C 0.79383(16) 0.1888(4) 0.60520(8)
H22 H 0.8698 0.2057 0.6125
H23 H 0.7826 0.0582 0.5894
C14 C 0.73549(16) 0.2002(4) 0.65257(8)
C15 C 0.78955(15) 0.2165(4) 0.69860(8)
C16 C 0.73270(15) 0.2205(4) 0.74268(8)
C17 C 0.62358(15) 0.2100(4) 0.74022(8)
H24 H 0.5865 0.2128 0.7702
C18 C 0.56744(15) 0.1954(4) 0.69456(8)
C19 C 0.62634(16) 0.1927(4) 0.65201(8)
H25 H 0.5900 0.1851 0.6206
C20 C 0.78781(16) 0.2378(4) 0.79084(8)
H26 H 0.7472 0.2390 0.8198
C21 C 0.44747(16) 0.1876(4) 0.69335(8)
C22 C 0.41108(18) 0.0097(4) 0.72357(10)
H27 H 0.3344 0.0065 0.7231
H28 H 0.4383 0.0212 0.7580
H29 H 0.4373 -0.1122 0.7089
C23 C 0.40579(18) 0.3771(4) 0.71705(10)
H30 H 0.4252 0.4914 0.6970
H31 H 0.4362 0.3911 0.7509
H32 H 0.3294 0.3697 0.7183
C24 C 0.40202(17) 0.1704(5) 0.64015(9)
H33 H 0.4279 0.0495 0.6248
H34 H 0.4235 0.2850 0.6207
H35 H 0.3255 0.1658 0.6407
O9 O 0.58285(11) 0.0076(3) 0.96376(5)
O10 O 0.48277(11) 0.2354(3) 0.85229(6)
O11 O 0.41827(11) 0.2964(3) 0.92771(5)
O12 O 0.73800(11) 0.3717(2) 0.95802(5)
O13 O 0.84706(11) 0.1416(3) 0.99473(6)
O14 O 0.73971(10) -0.0635(2) 0.92468(5)
O15 O 0.59794(11) -0.2747(3) 0.79814(6)
H2 H 0.579(2) -0.282(5) 0.7684(10)
O16 O 0.61340(11) -0.3151(3) 0.70180(6)
C25 C 0.57271(15) 0.2129(4) 0.97700(8)
H36 H 0.5236 0.2220 1.0050
C26 C 0.67982(16) 0.2804(4) 0.99632(8)
H37 H 0.6761 0.3646 1.0268
C27 C 0.74244(15) 0.0923(4) 1.00574(8)
H38 H 0.7379 0.0491 1.0412
C28 C 0.68843(15) -0.0578(4) 0.97029(8)
H39 H 0.6900 -0.1917 0.9860
C29 C 0.52813(15) 0.3369(4) 0.93401(7)
H40 H 0.5382 0.4799 0.9421
C30 C 0.57120(16) 0.2942(4) 0.88228(7)
H41 H 0.6038 0.4139 0.8685
H42 H 0.6241 0.1875 0.8843
C31 C 0.39389(17) 0.3107(5) 0.87526(9)
C32 C 0.3010(2) 0.1842(7) 0.86324(11)
H43 H 0.2868 0.1836 0.8271
H44 H 0.2400 0.2367 0.8799
H45 H 0.3150 0.0492 0.8748
C33 C 0.3774(2) 0.5282(5) 0.86059(9)
H46 H 0.4405 0.6039 0.8697
H47 H 0.3179 0.5818 0.8782
H48 H 0.3632 0.5376 0.8246
C34 C 0.84638(16) 0.3301(4) 0.96909(8)
C35 C 0.89372(17) 0.4858(4) 1.00377(9)
H49 H 0.8940 0.6135 0.9866
H50 H 0.9656 0.4485 1.0135
H51 H 0.8521 0.4960 1.0336
C36 C 0.90176(17) 0.3086(4) 0.92078(8)
H52 H 0.8719 0.1970 0.9019
H53 H 0.9764 0.2851 0.9279
H54 H 0.8929 0.4298 0.9012
C37 C 0.69266(16) -0.2076(4) 0.89179(8)
H55 H 0.6201 -0.1676 0.8825
H56 H 0.6901 -0.3369 0.9089
C38 C 0.75537(16) -0.2256(3) 0.84562(8)
C39 C 0.70394(15) -0.2600(4) 0.79991(8)
C40 C 0.76215(15) -0.2783(4) 0.75646(8)
C41 C 0.87189(16) -0.2680(4) 0.76004(8)
H57 H 0.9107 -0.2817 0.7307
C42 C 0.92517(16) -0.2382(3) 0.80565(8)
C43 C 0.86457(16) -0.2152(3) 0.84735(8)
H58 H 0.8994 -0.1913 0.8786
C44 C 0.70873(16) -0.3062(4) 0.70828(8)
H59 H 0.7504 -0.3184 0.6799
C45 C 1.04541(16) -0.2330(4) 0.80789(9)
C46 C 1.08826(17) -0.1983(5) 0.86128(9)
H60 H 1.0654 -0.3056 0.8828
H61 H 1.0618 -0.0723 0.8736
H62 H 1.1649 -0.1948 0.8616
C47 C 1.08636(18) -0.4316(4) 0.78949(10)
H63 H 1.1630 -0.4306 0.7911
H64 H 1.0613 -0.4533 0.7550
H65 H 1.0609 -0.5379 0.8106
C48 C 1.08484(17) -0.0666(5) 0.77467(9)
H66 H 1.1615 -0.0678 0.7753
H67 H 1.0603 0.0607 0.7870
H68 H 1.0579 -0.0865 0.7404
loop_
_geom_bond_atom_site_label_1
_geom_bond_atom_site_label_2
_geom_bond_site_symmetry_1
_geom_bond_site_symmetry_2
O1 C1 1_555 1_555
O2 C6 1_555 1_555
O3 C5 1_555 1_555
O4 C2 1_555 1_555
O5 C3 1_555 1_555
O6 C4 1_555 1_555
O7 H1 1_555 1_555
O8 C20 1_555 1_555
O9 C25 1_555 1_555
O10 C30 1_555 1_555
O11 C29 1_555 1_555
O12 C26 1_555 1_555
O13 C27 1_555 1_555
O14 C28 1_555 1_555
O15 H2 1_555 1_555
O16 C44 1_555 1_555
C1 H3 1_555 1_555
C2 C1 1_555 1_555
H4 C2 1_555 1_555
C3 C2 1_555 1_555
H5 C3 1_555 1_555
C4 O1 1_555 1_555
H6 C4 1_555 1_555
C5 C1 1_555 1_555
H7 C5 1_555 1_555
C6 C5 1_555 1_555
H8 C6 1_555 1_555
H9 C6 1_555 1_555
C7 O2 1_555 1_555
C8 C7 1_555 1_555
H10 C8 1_555 1_555
H11 C8 1_555 1_555
H12 C8 1_555 1_555
C9 C7 1_555 1_555
H13 C9 1_555 1_555
H14 C9 1_555 1_555
H15 C9 1_555 1_555
C10 O4 1_555 1_555
C11 C10 1_555 1_555
H16 C11 1_555 1_555
H17 C11 1_555 1_555
H18 C11 1_555 1_555
C12 C10 1_555 1_555
H19 C12 1_555 1_555
H20 C12 1_555 1_555
H21 C12 1_555 1_555
C13 O6 1_555 1_555
H22 C13 1_555 1_555
H23 C13 1_555 1_555
C14 C13 1_555 1_555
C15 O7 1_555 1_555
C16 C15 1_555 1_555
C17 C16 1_555 1_555
H24 C17 1_555 1_555
C18 C17 1_555 1_555
C19 C14 1_555 1_555
H25 C19 1_555 1_555
C20 C16 1_555 1_555
H26 C20 1_555 1_555
C21 C18 1_555 1_555
C22 C21 1_555 1_555
H27 C22 1_555 1_555
H28 C22 1_555 1_555
H29 C22 1_555 1_555
C23 C21 1_555 1_555
H30 C23 1_555 1_555
H31 C23 1_555 1_555
H32 C23 1_555 1_555
C24 C21 1_555 1_555
H33 C24 1_555 1_555
H34 C24 1_555 1_555
H35 C24 1_555 1_555
C25 H36 1_555 1_555
C26 C25 1_555 1_555
H37 C26 1_555 1_555
C27 C26 1_555 1_555
H38 C27 1_555 1_555
C28 O9 1_555 1_555
H39 C28 1_555 1_555
C29 C25 1_555 1_555
H40 C29 1_555 1_555
C30 C29 1_555 1_555
H41 C30 1_555 1_555
H42 C30 1_555 1_555
C31 O10 1_555 1_555
C32 C31 1_555 1_555
H43 C32 1_555 1_555
H44 C32 1_555 1_555
H45 C32 1_555 1_555
C33 C31 1_555 1_555
H46 C33 1_555 1_555
H47 C33 1_555 1_555
H48 C33 1_555 1_555
C34 O12 1_555 1_555
C35 C34 1_555 1_555
H49 C35 1_555 1_555
H50 C35 1_555 1_555
H51 C35 1_555 1_555
C36 C34 1_555 1_555
H52 C36 1_555 1_555
H53 C36 1_555 1_555
H54 C36 1_555 1_555
C37 O14 1_555 1_555
H55 C37 1_555 1_555
H56 C37 1_555 1_555
C38 C37 1_555 1_555
C39 O15 1_555 1_555
C40 C39 1_555 1_555
C41 C40 1_555 1_555
H57 C41 1_555 1_555
C42 C41 1_555 1_555
C43 C38 1_555 1_555
H58 C43 1_555 1_555
C44 C40 1_555 1_555
H59 C44 1_555 1_555
C45 C42 1_555 1_555
C46 C45 1_555 1_555
H60 C46 1_555 1_555
H61 C46 1_555 1_555
H62 C46 1_555 1_555
C47 C45 1_555 1_555
H63 C47 1_555 1_555
H64 C47 1_555 1_555
H65 C47 1_555 1_555
C48 C45 1_555 1_555
H66 C48 1_555 1_555
H67 C48 1_555 1_555
H68 C48 1_555 1_555
O3 C7 1_555 1_555
O5 C10 1_555 1_555
O11 C31 1_555 1_555
O13 C34 1_555 1_555
C3 C4 1_555 1_555
C14 C15 1_555 1_555
C18 C19 1_555 1_555
C27 C28 1_555 1_555
C38 C39 1_555 1_555
C42 C43 1_555 1_555

#END
