
#######################################################################
#
#                 Cambridge Crystallographic Data Centre
#                                CCDC 
#
#######################################################################
#
# If this CIF has been generated from an entry in the Cambridge 
# Structural Database, then it will include bibliographic, chemical, 
# crystal, experimental, refinement or atomic coordinate data resulting 
# from the CCDC's data processing and validation procedures.
#
#######################################################################

data_QEMLEA
_chemical_formula_moiety         
'C22 H31 N6 O4 S1 1+,C7 H4 N1 O3 S1 1-,0.5(C3 H7 N1 O1)'
_chemical_name_systematic        
'Sildenafil saccharinate hemikis(dimethylformamide) clathrate'
_symmetry_cell_setting           triclinic
_symmetry_space_group_name_H-M   'P -1'
_symmetry_Int_Tables_number      2
_space_group_name_Hall           '-P 1'
loop_
_symmetry_equiv_pos_site_id
_symmetry_equiv_pos_as_xyz
1 x,y,z
2 -x,-y,-z
_cell_length_a                   9.8323(8)
_cell_length_b                   11.8486(10)
_cell_length_c                   14.4885(12)
_cell_angle_alpha                86.2120(10)
_cell_angle_beta                 72.4360(10)
_cell_angle_gamma                89.5080(10)
_cell_volume                     1605.58
_exptl_crystal_colour            colorless
_exptl_crystal_description       Block
_cell_formula_units_Z            2
loop_
_atom_site_label
_atom_site_type_symbol
_atom_site_fract_x
_atom_site_fract_y
_atom_site_fract_z
N2 N 0.5000 0.5000 0.5000
O4 O 0.3925(4) 0.6685(3) 0.5064(3)
C8 C 0.4982(5) 0.5194(6) 0.6175(4)
C9 C 0.4411(7) 0.5931(5) 0.4688(5)
C10 C 0.4212(7) 0.5862(5) 0.5453(7)
O4A O 0.6075(4) 0.3315(3) 0.4936(3)
C8A C 0.5018(5) 0.4806(6) 0.3825(4)
C9A C 0.5589(7) 0.4069(5) 0.5312(5)
C10A C 0.5788(7) 0.4138(5) 0.4547(7)
S2 S 0.29547(4) 0.98016(3) 0.35712(3)
O5 O 0.58628(12) 0.67387(9) 0.05865(8)
O6 O 0.36050(13) 0.97692(11) 0.43350(9)
O7 O 0.48534(13) 0.70513(10) -0.20807(8)
O8 O 0.26725(13) 1.08710(10) 0.31418(9)
N3 N 0.32740(14) 0.93767(11) -0.00159(9)
N4 N 0.46490(14) 0.77953(12) -0.06266(10)
N5 N 0.22150(14) 1.00481(11) -0.21512(10)
N6 N 0.13842(15) 0.91609(11) 0.40383(10)
N7 N -0.10074(15) 0.76453(12) 0.44516(10)
C11 C 0.54789(17) 0.73942(13) 0.21818(12)
H5 H 0.6087 0.6825 0.2323
C12 C 0.37609(17) 0.90881(13) 0.17445(11)
H6 H 0.3182 0.9680 0.1604
C13 C 0.48256(17) 0.81302(14) 0.28755(12)
H7 H 0.4968 0.8065 0.3497
C14 C 0.35701(16) 0.87735(13) -0.16517(11)
N8 N 0.30808(14) 0.91427(11) -0.23953(10)
C15 C 0.44043(16) 0.83472(13) 0.10294(11)
C16 C 0.40896(16) 0.85360(13) 0.00908(11)
C17 C 0.39535(17) 0.89720(13) 0.26528(11)
C18 C 0.44069(16) 0.78053(13) -0.15275(11)
C19 C 0.21605(16) 1.02596(13) -0.12469(11)
C20 C 0.52542(16) 0.74772(13) 0.12730(11)
C21 C 0.04966(18) 0.91451(15) 0.33771(12)
H8 H 0.0898 0.8610 0.2870
H9 H 0.0490 0.9908 0.3055
C22 C 0.30182(16) 0.94784(13) -0.08974(11)
C23 C 0.14354(18) 0.80228(14) 0.45113(12)
H10 H 0.2038 0.8047 0.4947
H11 H 0.1861 0.7483 0.4013
C24 C -0.00648(19) 0.76331(15) 0.50910(12)
H12 H -0.0035 0.6858 0.5383
H13 H -0.0458 0.8139 0.5623
C25 C 0.12826(17) 1.11956(13) -0.07224(11)
H14 H 0.1931 1.1779 -0.0624
H15 H 0.0694 1.0888 -0.0074
C26 C 0.64621(19) 0.57051(14) 0.08964(12)
H16 H 0.5711 0.5254 0.1390
H17 H 0.7221 0.5890 0.1184
C27 C -0.10090(18) 0.87844(14) 0.39549(12)
H18 H -0.1422 0.9339 0.4443
H19 H -0.1608 0.8765 0.3516
C28 C 0.03064(19) 1.17522(15) -0.12542(12)
H20 H -0.0353 1.1172 -0.1344
H21 H 0.0892 1.2052 -0.1906
C29 C -0.2481(2) 0.72456(16) 0.49926(14)
H22 H -0.2923 0.7770 0.5491
H23 H -0.2445 0.6490 0.5302
H24 H -0.3046 0.7214 0.4541
C30 C 0.7070(2) 0.50480(15) 0.00108(13)
H25 H 0.6322 0.4911 -0.0290
H26 H 0.7428 0.4323 0.0200
H27 H 0.7854 0.5483 -0.0454
C31 C 0.33596(19) 0.87116(15) -0.33553(12)
H28 H 0.3978 0.8051 -0.3406
H29 H 0.3832 0.9302 -0.3852
H30 H 0.2456 0.8493 -0.3452
C32 C -0.05658(19) 1.27121(15) -0.07214(13)
H31 H -0.1164 1.2419 -0.0080
H32 H -0.1173 1.3034 -0.1096
H33 H 0.0079 1.3300 -0.0645
H34 H -0.062(2) 0.7122(19) 0.3965(17)
H35 H 0.514(3) 0.724(2) -0.0487(17)
S1 S 0.14622(5) 0.53845(3) 0.30347(3)
O1 O 0.15971(15) 0.51068(11) 0.39882(10)
O2 O -0.20939(15) 0.58833(13) 0.27759(11)
O3 O 0.26745(15) 0.59440(12) 0.23456(11)
C1 C 0.17146(18) 0.32045(14) 0.22852(12)
H1 H 0.2620 0.3078 0.2379
C2 C -0.03633(18) 0.43896(14) 0.24315(12)
C3 C -0.0259(2) 0.26018(15) 0.17517(13)
H2 H -0.0671 0.2048 0.1469
C4 C 0.10713(19) 0.24098(14) 0.18779(13)
H3 H 0.1551 0.1726 0.1683
C5 C 0.09676(17) 0.41848(13) 0.25447(11)
C6 C -0.09192(19) 0.55196(15) 0.27829(12)
N1 N 0.00159(17) 0.60837(12) 0.31188(11)
C7 C -0.10010(19) 0.35918(15) 0.20323(13)
H4 H -0.1916 0.3716 0.1952
loop_
_geom_bond_atom_site_label_1
_geom_bond_atom_site_label_2
_geom_bond_site_symmetry_1
_geom_bond_site_symmetry_2
S1 O1 1_555 1_555
O2 C6 1_555 1_555
O3 S1 1_555 1_555
C1 H1 1_555 1_555
C2 C5 1_555 1_555
C3 H2 1_555 1_555
C4 C1 1_555 1_555
H3 C4 1_555 1_555
C5 S1 1_555 1_555
C6 C2 1_555 1_555
N1 S1 1_555 1_555
C7 C2 1_555 1_555
H4 C7 1_555 1_555
N2 C8 1_555 1_555
O4 C9 1_555 1_555
C8 C10 1_555 1_555
C9 N2 1_555 1_555
C10 N2 1_555 1_555
S2 O6 1_555 1_555
O5 C20 1_555 1_555
O7 C18 1_555 1_555
O8 S2 1_555 1_555
N3 C16 1_555 1_555
N4 C16 1_555 1_555
N5 N8 1_555 1_555
N6 S2 1_555 1_555
N7 C24 1_555 1_555
C11 H5 1_555 1_555
C12 H6 1_555 1_555
C13 C11 1_555 1_555
H7 C13 1_555 1_555
C14 N8 1_555 1_555
N8 C31 1_555 1_555
C15 C12 1_555 1_555
C16 C15 1_555 1_555
C17 S2 1_555 1_555
C18 N4 1_555 1_555
C19 N5 1_555 1_555
C20 C11 1_555 1_555
C21 N6 1_555 1_555
H8 C21 1_555 1_555
H9 C21 1_555 1_555
C22 N3 1_555 1_555
C23 N6 1_555 1_555
H10 C23 1_555 1_555
H11 C23 1_555 1_555
C24 C23 1_555 1_555
H12 C24 1_555 1_555
H13 C24 1_555 1_555
C25 C19 1_555 1_555
H14 C25 1_555 1_555
H15 C25 1_555 1_555
C26 O5 1_555 1_555
H16 C26 1_555 1_555
H17 C26 1_555 1_555
C27 N7 1_555 1_555
H18 C27 1_555 1_555
H19 C27 1_555 1_555
C28 C25 1_555 1_555
H20 C28 1_555 1_555
H21 C28 1_555 1_555
C29 N7 1_555 1_555
H22 C29 1_555 1_555
H23 C29 1_555 1_555
H24 C29 1_555 1_555
C30 C26 1_555 1_555
H25 C30 1_555 1_555
H26 C30 1_555 1_555
H27 C30 1_555 1_555
C31 H28 1_555 1_555
H29 C31 1_555 1_555
H30 C31 1_555 1_555
C32 C28 1_555 1_555
H31 C32 1_555 1_555
H32 C32 1_555 1_555
H33 C32 1_555 1_555
H34 N7 1_555 1_555
H35 N4 1_555 1_555
O4A C9A 1_555 1_555
C8A N2 1_555 1_555
C9A N2 1_555 1_555
C10A N2 1_555 1_555
C1 C5 1_555 1_555
C3 C4 1_555 1_555
C3 C7 1_555 1_555
C6 N1 1_555 1_555
O4 C10 1_555 1_555
C9 C10 1_555 1_555
C12 C17 1_555 1_555
C13 C17 1_555 1_555
C14 C18 1_555 1_555
C14 C22 1_555 1_555
C15 C20 1_555 1_555
C19 C22 1_555 1_555
C21 C27 1_555 1_555
O4A C10A 1_555 1_555
C8A C10A 1_555 1_555
C9A C10A 1_555 1_555

#END
