
#######################################################################
#
#                 Cambridge Crystallographic Data Centre
#                                CCDC 
#
#######################################################################
#
# If this CIF has been generated from an entry in the Cambridge 
# Structural Database, then it will include bibliographic, chemical, 
# crystal, experimental, refinement or atomic coordinate data resulting 
# from the CCDC's data processing and validation procedures.
#
#######################################################################

data_QEMPAC
_chemical_formula_moiety         'C16 H25 F3 N1 O4 P1 S1'
_chemical_name_systematic        
'diethyl {1-[(t-butylsulfinyl)amino]-2,2,2-trifluoro-1-phenylethyl}phosphonate'
_symmetry_cell_setting           orthorhombic
_symmetry_space_group_name_H-M   'P 21 21 21'
_symmetry_Int_Tables_number      19
_space_group_name_Hall           'P 2ac 2ab'
loop_
_symmetry_equiv_pos_site_id
_symmetry_equiv_pos_as_xyz
1 x,y,z
2 1/2-x,-y,1/2+z
3 -x,1/2+y,1/2-z
4 1/2+x,1/2-y,-z
_cell_length_a                   9.8835(8)
_cell_length_b                   17.7207(15)
_cell_length_c                   23.657(2)
_cell_angle_alpha                90
_cell_angle_beta                 90
_cell_angle_gamma                90
_cell_volume                     4143.35
_cell_formula_units_Z            8
loop_
_atom_site_label
_atom_site_type_symbol
_atom_site_fract_x
_atom_site_fract_y
_atom_site_fract_z
S1 S 0.8302(1) 0.9152(1) 0.2112(1)
P1 P 0.8168(1) 0.6742(1) 0.2093(1)
O1 O 0.7084(4) 0.9443(2) 0.1835(3)
O2 O 0.7750(3) 0.6810(2) 0.1501(1)
O3 O 0.9649(3) 0.6503(2) 0.2200(1)
O4 O 0.7372(3) 0.6173(2) 0.2461(1)
N1 N 0.8441(3) 0.8214(2) 0.2025(2)
F1 F 0.8789(3) 0.7130(2) 0.3298(1)
F2 F 1.0164(2) 0.7826(2) 0.2833(1)
F3 F 0.8540(3) 0.8330(2) 0.3292(1)
C1 C 0.7942(4) 0.7682(2) 0.2452(2)
C2 C 0.8879(5) 0.7748(3) 0.2974(2)
C3 C 0.6445(4) 0.7757(2) 0.2614(2)
C4 C 0.5548(4) 0.8010(3) 0.2211(2)
C5 C 0.4181(5) 0.8061(3) 0.2317(2)
C6 C 0.3680(5) 0.7859(3) 0.2836(2)
C7 C 0.4574(5) 0.7617(3) 0.3239(2)
C8 C 0.5928(5) 0.7555(3) 0.3128(2)
C9 C 0.9687(4) 0.9436(2) 0.1645(2)
C10 C 1.0993(5) 0.9121(4) 0.1865(3)
C11 C 0.9673(6) 1.0283(3) 0.1663(2)
C12 C 0.9400(7) 0.9166(3) 0.1047(2)
C13 C 1.0729(5) 0.6580(5) 0.1815(2)
C14 C 1.1968(5) 0.6302(4) 0.1998(3)
C15 C 0.6074(6) 0.5868(3) 0.2306(2)
C16 C 0.5655(7) 0.5296(5) 0.2669(4)
H1 H 0.5875 0.8151 0.1858
H2 H 0.3598 0.8231 0.2036
H3 H 0.2759 0.7886 0.2913
H4 H 0.4254 0.7492 0.3596
H5 H 0.6506 0.7372 0.3407
H6 H 1.1731 0.9314 0.1644
H7 H 1.0975 0.8581 0.1839
H8 H 1.1108 0.9268 0.2253
H9 H 1.0425 1.0476 0.1451
H10 H 0.9742 1.0449 0.2049
H11 H 0.8844 1.0466 0.1502
H12 H 0.8486 0.9289 0.0947
H13 H 0.9523 0.8629 0.1027
H14 H 1.0011 0.9408 0.0789
H15 H 1.0486 0.6323 0.1468
H16 H 1.0835 0.7111 0.1727
H17 H 1.2174 0.6508 0.2364
H18 H 1.2661 0.6444 0.1735
H19 H 1.1925 0.5762 0.2023
H20 H 0.5407 0.6269 0.2310
H21 H 0.6124 0.5671 0.1924
H22 H 0.6208 0.4857 0.2612
H23 H 0.4727 0.5173 0.2593
H24 H 0.5742 0.5463 0.3054
H25 H 0.8240(30) 0.8090(20) 0.1715(15)
S2 S 0.9765(1) 0.5877(1) 0.0099(1)
P2 P 0.7898(1) 0.4409(1) -0.0108(1)
O5 O 1.0939(3) 0.6045(2) 0.0464(1)
O6 O 0.7398(3) 0.4861(2) -0.0578(1)
O7 O 0.9353(3) 0.4097(2) -0.0162(1)
O8 O 0.7062(3) 0.3692(2) 0.0033(1)
N2 N 0.8379(3) 0.5706(2) 0.0480(1)
F4 F 0.8499(3) 0.3824(2) 0.1083(1)
F5 F 0.8552(3) 0.4871(2) 0.1533(1)
F6 F 1.0063(2) 0.4615(2) 0.0923(1)
C17 C 0.7879(4) 0.4944(2) 0.0576(2)
C18 C 0.8756(4) 0.4553(3) 0.1023(2)
C19 C 0.6384(4) 0.4983(2) 0.0749(2)
C20 C 0.5545(4) 0.5517(3) 0.0492(2)
C21 C 0.4187(5) 0.5529(3) 0.0599(2)
C22 C 0.3618(4) 0.5042(3) 0.0962(2)
C23 C 0.4421(5) 0.4524(3) 0.1230(3)
C24 C 0.5788(5) 0.4495(3) 0.1123(2)
C25 C 0.9326(4) 0.6795(2) -0.0208(2)
C26 C 0.9199(6) 0.7378(3) 0.0240(2)
C27 C 1.0525(6) 0.6955(3) -0.0595(2)
C28 C 0.8025(5) 0.6719(3) -0.0553(2)
C29 C 1.0163(8) 0.4158(4) -0.0669(3)
C30 C 1.1578(9) 0.4088(6) -0.0511(5)
C31 C 0.5794(10) 0.3571(6) -0.0208(4)
C32 C 0.5232(11) 0.2837(6) -0.0181(4)
H26 H 0.5916 0.5868 0.0244
H27 H 0.3645 0.5882 0.0417
H28 H 0.2692 0.5055 0.1030
H29 H 0.4039 0.4188 0.1487
H30 H 0.6317 0.4137 0.1307
H31 H 0.9123 0.7867 0.0069
H32 H 0.9984 0.7364 0.0479
H33 H 0.8406 0.7278 0.0463
H34 H 1.0396 0.7432 -0.0780
H35 H 1.0593 0.6563 -0.0874
H36 H 1.1341 0.6970 -0.0376
H37 H 0.7269 0.6663 -0.0302
H38 H 0.8087 0.6284 -0.0793
H39 H 0.7904 0.7162 -0.0781
H40 H 1.0005 0.4641 -0.0850
H41 H 0.9920 0.3761 -0.0933
H42 H 1.1717 0.4313 -0.0146
H43 H 1.2130 0.4342 -0.0786
H44 H 1.1823 0.3565 -0.0497
H45 H 0.5847 0.3713 -0.0603
H46 H 0.5161 0.3914 -0.0028
H47 H 0.5899 0.2474 -0.0296
H48 H 0.4463 0.2807 -0.0428
H49 H 0.4954 0.2731 0.0200
H50 H 0.8190(30) 0.6060(20) 0.0711(14)
loop_
_geom_bond_atom_site_label_1
_geom_bond_atom_site_label_2
_geom_bond_site_symmetry_1
_geom_bond_site_symmetry_2
S1 O1 1_555 1_555
P1 O2 1_555 1_555
O3 P1 1_555 1_555
O4 P1 1_555 1_555
N1 S1 1_555 1_555
F1 C2 1_555 1_555
F2 C2 1_555 1_555
F3 C2 1_555 1_555
C1 P1 1_555 1_555
C2 C1 1_555 1_555
C3 C1 1_555 1_555
C4 C3 1_555 1_555
C5 C4 1_555 1_555
C6 C5 1_555 1_555
C7 C6 1_555 1_555
C8 C3 1_555 1_555
C9 S1 1_555 1_555
C10 C9 1_555 1_555
C11 C9 1_555 1_555
C12 C9 1_555 1_555
C13 O3 1_555 1_555
C14 C13 1_555 1_555
C15 O4 1_555 1_555
C16 C15 1_555 1_555
H1 C4 1_555 1_555
H2 C5 1_555 1_555
H3 C6 1_555 1_555
H4 C7 1_555 1_555
H5 C8 1_555 1_555
H6 C10 1_555 1_555
H7 C10 1_555 1_555
H8 C10 1_555 1_555
H9 C11 1_555 1_555
H10 C11 1_555 1_555
H11 C11 1_555 1_555
H12 C12 1_555 1_555
H13 C12 1_555 1_555
H14 C12 1_555 1_555
H15 C13 1_555 1_555
H16 C13 1_555 1_555
H17 C14 1_555 1_555
H18 C14 1_555 1_555
H19 C14 1_555 1_555
H20 C15 1_555 1_555
H21 C15 1_555 1_555
H22 C16 1_555 1_555
H23 C16 1_555 1_555
H24 C16 1_555 1_555
H25 N1 1_555 1_555
S2 O5 1_555 1_555
P2 O6 1_555 1_555
O7 P2 1_555 1_555
O8 P2 1_555 1_555
N2 S2 1_555 1_555
F4 C18 1_555 1_555
F5 C18 1_555 1_555
F6 C18 1_555 1_555
C17 P2 1_555 1_555
C18 C17 1_555 1_555
C19 C17 1_555 1_555
C20 C19 1_555 1_555
C21 C20 1_555 1_555
C22 C21 1_555 1_555
C23 C22 1_555 1_555
C24 C19 1_555 1_555
C25 S2 1_555 1_555
C26 C25 1_555 1_555
C27 C25 1_555 1_555
C28 C25 1_555 1_555
C29 O7 1_555 1_555
C30 C29 1_555 1_555
C31 O8 1_555 1_555
C32 C31 1_555 1_555
H26 C20 1_555 1_555
H27 C21 1_555 1_555
H28 C22 1_555 1_555
H29 C23 1_555 1_555
H30 C24 1_555 1_555
H31 C26 1_555 1_555
H32 C26 1_555 1_555
H33 C26 1_555 1_555
H34 C27 1_555 1_555
H35 C27 1_555 1_555
H36 C27 1_555 1_555
H37 C28 1_555 1_555
H38 C28 1_555 1_555
H39 C28 1_555 1_555
H40 C29 1_555 1_555
H41 C29 1_555 1_555
H42 C30 1_555 1_555
H43 C30 1_555 1_555
H44 C30 1_555 1_555
H45 C31 1_555 1_555
H46 C31 1_555 1_555
H47 C32 1_555 1_555
H48 C32 1_555 1_555
H49 C32 1_555 1_555
H50 N2 1_555 1_555
N1 C1 1_555 1_555
C7 C8 1_555 1_555
N2 C17 1_555 1_555
C23 C24 1_555 1_555

#END
