
#######################################################################
#
#                 Cambridge Crystallographic Data Centre
#                                CCDC 
#
#######################################################################
#
# If this CIF has been generated from an entry in the Cambridge 
# Structural Database, then it will include bibliographic, chemical, 
# crystal, experimental, refinement or atomic coordinate data resulting 
# from the CCDC's data processing and validation procedures.
#
#######################################################################

data_QEMPIK
_chemical_formula_moiety         'C30 H37 N1 O1 Si3'
_chemical_name_systematic        
5-methyl-1,3a-diphenyl-2,2-bis(trimethylsilyl)-2,3,3a,5-tetrahydro-4H-silolo[3,4-c]quinolin-4-one
_symmetry_cell_setting           triclinic
_symmetry_space_group_name_H-M   'P -1'
_symmetry_Int_Tables_number      2
_space_group_name_Hall           '-P 1'
loop_
_symmetry_equiv_pos_site_id
_symmetry_equiv_pos_as_xyz
1 x,y,z
2 -x,-y,-z
_cell_length_a                   10.4692(7)
_cell_length_b                   11.8609(8)
_cell_length_c                   12.6888(9)
_cell_angle_alpha                109.3200(10)
_cell_angle_beta                 90.0710(10)
_cell_angle_gamma                92.8340(10)
_cell_volume                     1484.81
_exptl_crystal_colour            colorless
_cell_formula_units_Z            2
_exptl_crystal_recrystallization_method 'n-hexane and dichloromethane'
loop_
_atom_site_label
_atom_site_type_symbol
_atom_site_fract_x
_atom_site_fract_y
_atom_site_fract_z
Si1 Si 0.29509(4) 0.26478(4) 0.32849(4)
O1 O 0.31881(13) 0.59411(12) 0.21263(12)
C1 C 0.22441(16) 0.52576(14) 0.19757(13)
N1 N 0.10525(14) 0.56240(12) 0.18394(12)
C2 C 0.23615(14) 0.39480(14) 0.19168(12)
Si2 Si 0.38071(7) 0.07904(5) 0.23513(5)
Si3 Si 0.33138(5) 0.31763(4) 0.52252(4)
C3 C 0.34665(16) 0.38826(16) 0.27101(14)
H1 H 0.3600 0.4639 0.3311
H2 H 0.4256 0.3698 0.2304
C4 C 0.12276(15) 0.27985(14) 0.29606(13)
C5 C 0.11202(14) 0.34673(13) 0.22898(12)
C6 C -0.00616(15) 0.37718(14) 0.18378(13)
C7 C -0.11637(17) 0.30163(17) 0.15831(15)
H3 H -0.1173 0.2294 0.1723
C8 C -0.22466(18) 0.3317(2) 0.11257(16)
H4 H -0.2973 0.2801 0.0958
C9 C -0.22337(19) 0.4386(2) 0.09230(17)
H5 H -0.2961 0.4597 0.0626
C10 C -0.11588(18) 0.51483(18) 0.11537(16)
H6 H -0.1164 0.5867 0.1010
C11 C -0.00590(16) 0.48477(15) 0.16033(13)
C12 C 0.0953(2) 0.68658(17) 0.1877(2)
H7 H 0.1732 0.7318 0.2183
H8 H 0.0251 0.7210 0.2339
H9 H 0.0811 0.6883 0.1135
C13 C 0.26727(16) 0.32434(15) 0.06946(13)
C14 C 0.3784(2) 0.3563(2) 0.02281(17)
H10 H 0.4314 0.4205 0.0654
C15 C 0.4108(3) 0.2936(2) -0.0862(2)
H11 H 0.4849 0.3160 -0.1162
C16 C 0.3338(3) 0.1992(2) -0.14958(19)
H12 H 0.3557 0.1571 -0.2225
C17 C 0.2243(3) 0.1665(2) -0.10568(18)
H13 H 0.1721 0.1021 -0.1492
C18 C 0.1904(2) 0.22881(17) 0.00371(15)
H14 H 0.1156 0.2060 0.0325
C19 C 0.2998(5) -0.0036(3) 0.0995(3)
H15 H 0.3162 0.0388 0.0478
H16 H 0.2094 -0.0102 0.1102
H17 H 0.3320 -0.0821 0.0702
C20 C 0.5533(4) 0.1143(3) 0.2152(4)
H18 H 0.5872 0.1749 0.2813
H19 H 0.5613 0.1426 0.1527
H20 H 0.6002 0.0434 0.2013
C21 C 0.3679(3) -0.0213(2) 0.3206(2)
H21 H 0.3926 -0.0997 0.2769
H22 H 0.2813 -0.0260 0.3440
H23 H 0.4234 0.0100 0.3851
C22 C 0.4929(2) 0.2747(2) 0.5520(2)
H24 H 0.5110 0.3065 0.6309
H25 H 0.5560 0.3064 0.5130
H26 H 0.4950 0.1891 0.5274
C23 C 0.2099(3) 0.2396(3) 0.5854(2)
H27 H 0.2106 0.1549 0.5479
H28 H 0.1266 0.2666 0.5774
H29 H 0.2299 0.2573 0.6632
C24 C 0.3226(3) 0.4826(2) 0.5892(2)
H30 H 0.3379 0.5040 0.6681
H31 H 0.2391 0.5058 0.5758
H32 H 0.3860 0.5228 0.5579
C25 C 0.01681(15) 0.23173(16) 0.34935(14)
C26 C 0.0028(2) 0.1100(2) 0.3329(2)
H33 H 0.0552 0.0574 0.2830
C27 C -0.0889(3) 0.0666(3) 0.3906(3)
H34 H -0.0989 -0.0152 0.3780
C28 C -0.1648(3) 0.1434(4) 0.4660(3)
H35 H -0.2255 0.1139 0.5050
C29 C -0.1513(2) 0.2638(3) 0.4839(2)
H36 H -0.2026 0.3160 0.5355
C30 C -0.06117(19) 0.3082(2) 0.42521(18)
H37 H -0.0533 0.3900 0.4371
loop_
_geom_bond_atom_site_label_1
_geom_bond_atom_site_label_2
_geom_bond_site_symmetry_1
_geom_bond_site_symmetry_2
Si1 Si2 1_555 1_555
O1 C1 1_555 1_555
C1 N1 1_555 1_555
N1 C11 1_555 1_555
C2 C1 1_555 1_555
Si2 C19 1_555 1_555
Si3 Si1 1_555 1_555
C3 Si1 1_555 1_555
H1 C3 1_555 1_555
H2 C3 1_555 1_555
C4 Si1 1_555 1_555
C5 C2 1_555 1_555
C6 C5 1_555 1_555
C7 C6 1_555 1_555
H3 C7 1_555 1_555
C8 C7 1_555 1_555
H4 C8 1_555 1_555
C9 C8 1_555 1_555
H5 C9 1_555 1_555
C10 C9 1_555 1_555
H6 C10 1_555 1_555
C11 C6 1_555 1_555
C12 N1 1_555 1_555
H7 C12 1_555 1_555
H8 C12 1_555 1_555
H9 C12 1_555 1_555
C13 C2 1_555 1_555
C14 C13 1_555 1_555
H10 C14 1_555 1_555
C15 C14 1_555 1_555
H11 C15 1_555 1_555
C16 C15 1_555 1_555
H12 C16 1_555 1_555
C17 C16 1_555 1_555
H13 C17 1_555 1_555
C18 C13 1_555 1_555
H14 C18 1_555 1_555
C19 H15 1_555 1_555
H16 C19 1_555 1_555
H17 C19 1_555 1_555
C20 Si2 1_555 1_555
H18 C20 1_555 1_555
H19 C20 1_555 1_555
H20 C20 1_555 1_555
C21 Si2 1_555 1_555
H21 C21 1_555 1_555
H22 C21 1_555 1_555
H23 C21 1_555 1_555
C22 Si3 1_555 1_555
H24 C22 1_555 1_555
H25 C22 1_555 1_555
H26 C22 1_555 1_555
C23 Si3 1_555 1_555
H27 C23 1_555 1_555
H28 C23 1_555 1_555
H29 C23 1_555 1_555
C24 Si3 1_555 1_555
H30 C24 1_555 1_555
H31 C24 1_555 1_555
H32 C24 1_555 1_555
C25 C4 1_555 1_555
C26 C25 1_555 1_555
H33 C26 1_555 1_555
C27 C26 1_555 1_555
H34 C27 1_555 1_555
C28 C27 1_555 1_555
H35 C28 1_555 1_555
C29 C28 1_555 1_555
H36 C29 1_555 1_555
C30 C25 1_555 1_555
H37 C30 1_555 1_555
C2 C3 1_555 1_555
C4 C5 1_555 1_555
C10 C11 1_555 1_555
C17 C18 1_555 1_555
C29 C30 1_555 1_555

#END
