
#######################################################################
#
#                 Cambridge Crystallographic Data Centre
#                                CCDC 
#
#######################################################################
#
# If this CIF has been generated from an entry in the Cambridge 
# Structural Database, then it will include bibliographic, chemical, 
# crystal, experimental, refinement or atomic coordinate data resulting 
# from the CCDC's data processing and validation procedures.
#
#######################################################################

data_QEMPEG
_chemical_formula_moiety         'C23 H33 N1 O1 S1 Si3'
_chemical_name_systematic        
3a,5-dimethyl-1-(thiophen-2-yl)-2,2-bis(trimethylsilyl)-2,3,3a,5-tetrahydro-4H-silolo[3,4-c]quinolin-4-one
_symmetry_cell_setting           monoclinic
_symmetry_space_group_name_H-M   'P 21/c'
_symmetry_Int_Tables_number      14
_space_group_name_Hall           '-P 2ybc'
loop_
_symmetry_equiv_pos_site_id
_symmetry_equiv_pos_as_xyz
1 x,y,z
2 -x,1/2+y,1/2-z
3 -x,-y,-z
4 x,1/2-y,1/2+z
_cell_length_a                   15.2467(12)
_cell_length_b                   12.7713(10)
_cell_length_c                   14.1931(11)
_cell_angle_alpha                90
_cell_angle_beta                 111.9210(10)
_cell_angle_gamma                90
_cell_volume                     2563.87
_exptl_crystal_colour            colorless
_cell_formula_units_Z            4
loop_
_atom_site_label
_atom_site_type_symbol
_atom_site_fract_x
_atom_site_fract_y
_atom_site_fract_z
Si1 Si 0.81736(4) 0.90931(4) 0.71986(4)
O1 O 0.61282(15) 0.98975(17) 0.84728(17)
N1 N 0.57694(14) 1.13089(18) 0.74501(17)
C1 C 0.63758(17) 1.05513(18) 0.79999(18)
Si2 Si 0.97611(5) 0.85864(5) 0.77926(6)
C2 C 0.73830(15) 1.06022(17) 0.80314(16)
Si3 Si 0.71139(5) 0.78559(5) 0.61812(6)
C3 C 0.7866(2) 0.9525(2) 0.83066(19)
H1 H 0.7443 0.9024 0.8429
H2 H 0.8434 0.9578 0.8915
C4 C 0.77833(15) 1.03713(16) 0.65153(15)
C5 C 0.73636(15) 1.09728(16) 0.70012(15)
C6 C 0.68252(15) 1.19463(16) 0.66510(16)
C7 C 0.70705(18) 1.27253(18) 0.61117(18)
H3 H 0.7612 1.2646 0.5963
C8 C 0.6524(2) 1.36167(19) 0.5791(2)
H4 H 0.6689 1.4126 0.5419
C9 C 0.5737(2) 1.3742(2) 0.6030(2)
H5 H 0.5365 1.4338 0.5812
C10 C 0.54901(18) 1.3001(2) 0.6583(2)
H6 H 0.4961 1.3104 0.6749
C11 C 0.60269(15) 1.20930(17) 0.69003(17)
C12 C 0.4821(2) 1.1320(3) 0.7478(3)
H7 H 0.4461 1.1880 0.7060
H8 H 0.4865 1.1422 0.8165
H9 H 0.4513 1.0665 0.7228
C13 C 0.79025(19) 1.1406(2) 0.88595(18)
H10 H 0.8546 1.1468 0.8911
H11 H 0.7890 1.1178 0.9499
H12 H 0.7595 1.2074 0.8685
C14 C 1.0553(2) 0.9743(3) 0.8242(3)
H13 H 1.0386 1.0121 0.8735
H14 H 1.0485 1.0192 0.7676
H15 H 1.1198 0.9511 0.8546
C15 C 0.9902(2) 0.7700(3) 0.8886(3)
H16 H 0.9738 0.8071 0.9386
H17 H 1.0546 0.7467 0.9183
H18 H 0.9493 0.7105 0.8652
C16 C 1.0090(3) 0.7851(3) 0.6840(3)
H19 H 1.0018 0.8297 0.6272
H20 H 0.9686 0.7251 0.6613
H21 H 1.0736 0.7625 0.7145
C17 C 0.7241(3) 0.6600(2) 0.6888(3)
H22 H 0.7134 0.6721 0.7504
H23 H 0.7867 0.6328 0.7048
H24 H 0.6786 0.6104 0.6475
C18 C 0.7326(2) 0.7603(3) 0.4988(3)
H25 H 0.7265 0.8246 0.4618
H26 H 0.6871 0.7106 0.4578
H27 H 0.7951 0.7327 0.5154
C19 C 0.5904(2) 0.8420(3) 0.5869(3)
H28 H 0.5801 0.8552 0.6486
H29 H 0.5439 0.7934 0.5457
H30 H 0.5852 0.9065 0.5504
C20 C 0.77854(17) 1.05104(16) 0.54913(16)
S1 S 0.68586(9) 1.08434(9) 0.44613(8)
C21 C 0.86714(12) 1.01897(13) 0.52126(11)
H31 H 0.9270 0.9964 0.5632
C22 C 0.8269(3) 1.0353(3) 0.4088(3)
H32 H 0.8629 1.0242 0.3694
C23 C 0.7387(3) 1.0660(2) 0.3682(2)
H33 H 0.7084 1.0765 0.2987
C24? C 0.68586(9) 1.08434(9) 0.44613(8)
H34? H 0.6249 1.1060 0.4369
S2? S 0.86714(12) 1.01897(13) 0.52126(11)
loop_
_geom_bond_atom_site_label_1
_geom_bond_atom_site_label_2
_geom_bond_site_symmetry_1
_geom_bond_site_symmetry_2
Si1 Si2 1_555 1_555
O1 C1 1_555 1_555
N1 C1 1_555 1_555
C1 C2 1_555 1_555
Si2 C14 1_555 1_555
C2 C3 1_555 1_555
Si3 Si1 1_555 1_555
C3 Si1 1_555 1_555
H1 C3 1_555 1_555
H2 C3 1_555 1_555
C4 Si1 1_555 1_555
C5 C2 1_555 1_555
C6 C5 1_555 1_555
C7 C6 1_555 1_555
H3 C7 1_555 1_555
C8 C7 1_555 1_555
H4 C8 1_555 1_555
C9 C8 1_555 1_555
H5 C9 1_555 1_555
C10 C9 1_555 1_555
H6 C10 1_555 1_555
C11 N1 1_555 1_555
C12 N1 1_555 1_555
H7 C12 1_555 1_555
H8 C12 1_555 1_555
H9 C12 1_555 1_555
C13 C2 1_555 1_555
H10 C13 1_555 1_555
H11 C13 1_555 1_555
H12 C13 1_555 1_555
C14 H13 1_555 1_555
H14 C14 1_555 1_555
H15 C14 1_555 1_555
C15 Si2 1_555 1_555
H16 C15 1_555 1_555
H17 C15 1_555 1_555
H18 C15 1_555 1_555
C16 Si2 1_555 1_555
H19 C16 1_555 1_555
H20 C16 1_555 1_555
H21 C16 1_555 1_555
C17 Si3 1_555 1_555
H22 C17 1_555 1_555
H23 C17 1_555 1_555
H24 C17 1_555 1_555
C18 Si3 1_555 1_555
H25 C18 1_555 1_555
H26 C18 1_555 1_555
H27 C18 1_555 1_555
C19 Si3 1_555 1_555
H28 C19 1_555 1_555
H29 C19 1_555 1_555
H30 C19 1_555 1_555
C20 C4 1_555 1_555
S1 C20 1_555 1_555
C21 C20 1_555 1_555
H31 C21 1_555 1_555
C22 C21 1_555 1_555
H32 C22 1_555 1_555
C23 S1 1_555 1_555
H33 C23 1_555 1_555
C4 C5 1_555 1_555
C6 C11 1_555 1_555
C10 C11 1_555 1_555
C22 C23 1_555 1_555

#END
