
#######################################################################
#
#                 Cambridge Crystallographic Data Centre
#                                CCDC 
#
#######################################################################
#
# If this CIF has been generated from an entry in the Cambridge 
# Structural Database, then it will include bibliographic, chemical, 
# crystal, experimental, refinement or atomic coordinate data resulting 
# from the CCDC's data processing and validation procedures.
#
#######################################################################

data_QEMSEJ
_chemical_formula_moiety         'C21 H19 N1 O4'
_chemical_name_systematic        
'ethyl 2-formyl-1-(4-methoxyphenyl)-5-phenyl-1H-pyrrole-3-carboxylate'
_symmetry_cell_setting           triclinic
_symmetry_space_group_name_H-M   'P -1'
_symmetry_Int_Tables_number      2
_space_group_name_Hall           '-P 1'
loop_
_symmetry_equiv_pos_site_id
_symmetry_equiv_pos_as_xyz
1 x,y,z
2 -x,-y,-z
_cell_length_a                   9.450(3)
_cell_length_b                   10.350(3)
_cell_length_c                   10.713(3)
_cell_angle_alpha                73.113(5)
_cell_angle_beta                 68.846(5)
_cell_angle_gamma                77.579(5)
_cell_volume                     927.901
_exptl_crystal_colour            colorless
_exptl_crystal_description       Block
_cell_formula_units_Z            2
loop_
_atom_site_label
_atom_site_type_symbol
_atom_site_fract_x
_atom_site_fract_y
_atom_site_fract_z
C1 C 0.0425(5) 0.3050(4) 0.7752(3)
H1 H -0.0048 0.2793 0.7251
C2 C -0.0242(7) 0.2885(5) 0.9167(4)
H2 H -0.1173 0.2536 0.9601
C3 C 0.0430(6) 0.3218(4) 0.9914(3)
H3 H -0.0015 0.3077 1.0864
C4 C 0.1776(6) 0.3766(4) 0.9275(4)
H4 H 0.2243 0.4009 0.9789
C5 C 0.2443(4) 0.3962(4) 0.7870(3)
H5 H 0.3352 0.4347 0.7439
C6 C 0.1770(3) 0.3589(2) 0.7097(2)
C7 C 0.2470(2) 0.3780(2) 0.5592(2)
C8 C 0.3033(3) 0.2821(2) 0.4819(2)
H6 H 0.3027 0.1885 0.5152
C9 C 0.3618(3) 0.3502(2) 0.3442(2)
C10 C 0.3389(3) 0.4891(2) 0.3381(2)
C11 C 0.3698(3) 0.6014(3) 0.2178(3)
H7 H 0.4167 0.5797 0.1325
C12 C 0.4399(4) 0.2881(3) 0.2257(3)
C13 C 0.2156(2) 0.6287(2) 0.5176(2)
C14 C 0.3182(3) 0.7049(3) 0.5190(3)
H8 H 0.4228 0.6795 0.4840
C15 C 0.2654(3) 0.8179(3) 0.5722(3)
H9 H 0.3343 0.8694 0.5730
C16 C 0.1082(3) 0.8562(2) 0.6251(3)
C17 C 0.0064(3) 0.7823(2) 0.6196(2)
H10 H -0.0982 0.8093 0.6516
C18 C 0.0602(3) 0.6681(2) 0.5665(2)
H11 H -0.0083 0.6174 0.5636
C19 C -0.0914(4) 1.0061(3) 0.7408(4)
H12 H -0.1412 1.0340 0.6717
H13 H -0.1048 1.0800 0.7829
H14 H -0.1353 0.9297 0.8096
C20 C 0.4916(10) 0.0697(11) 0.1574(11)
H15 H 0.4935 0.1237 0.0663
H16 H 0.4271 -0.0014 0.1841
C21 C 0.6447(10) 0.0125(12) 0.1604(10)
H17 H 0.6892 -0.0455 0.0969
H18 H 0.7061 0.0846 0.1346
H19 H 0.6402 -0.0397 0.2516
N1 N 0.2684(2) 0.50346(18) 0.47207(17)
O1 O 0.4359(3) 0.1563(2) 0.2588(2)
O2 O 0.5097(6) 0.3454(3) 0.1149(3)
O3 O 0.3399(3) 0.7204(2) 0.2185(2)
O4 O 0.0671(3) 0.9683(2) 0.6790(2)
C22? C 0.550(2) 0.1044(12) 0.1400(13)
H20? H 0.5138 0.1310 0.0611
H21? H 0.6474 0.1378 0.1138
C23? C 0.563(2) -0.0425(9) 0.1926(12)
H22? H 0.6350 -0.0854 0.1224
H23? H 0.5976 -0.0661 0.2713
H24? H 0.4650 -0.0729 0.2189
loop_
_geom_bond_atom_site_label_1
_geom_bond_atom_site_label_2
_geom_bond_site_symmetry_1
_geom_bond_site_symmetry_2
C1 H1 1_555 1_555
C2 C1 1_555 1_555
H2 C2 1_555 1_555
C3 C2 1_555 1_555
H3 C3 1_555 1_555
C4 C3 1_555 1_555
H4 C4 1_555 1_555
C5 C4 1_555 1_555
H5 C5 1_555 1_555
C6 C1 1_555 1_555
C7 C6 1_555 1_555
C8 C7 1_555 1_555
H6 C8 1_555 1_555
C9 C8 1_555 1_555
C10 C9 1_555 1_555
C11 C10 1_555 1_555
H7 C11 1_555 1_555
C12 C9 1_555 1_555
C13 C14 1_555 1_555
C14 H8 1_555 1_555
C15 C14 1_555 1_555
H9 C15 1_555 1_555
C16 C15 1_555 1_555
C17 C16 1_555 1_555
H10 C17 1_555 1_555
C18 C13 1_555 1_555
H11 C18 1_555 1_555
C19 H12 1_555 1_555
H13 C19 1_555 1_555
H14 C19 1_555 1_555
C20 H15 1_555 1_555
H16 C20 1_555 1_555
C21 C20 1_555 1_555
H17 C21 1_555 1_555
H18 C21 1_555 1_555
H19 C21 1_555 1_555
N1 C7 1_555 1_555
O1 C12 1_555 1_555
O2 C12 1_555 1_555
O3 C11 1_555 1_555
O4 C16 1_555 1_555
C5 C6 1_555 1_555
C10 N1 1_555 1_555
C13 N1 1_555 1_555
C17 C18 1_555 1_555
C19 O4 1_555 1_555
C20 O1 1_555 1_555

#END
