
#######################################################################
#
#                 Cambridge Crystallographic Data Centre
#                                CCDC 
#
#######################################################################
#
# If this CIF has been generated from an entry in the Cambridge 
# Structural Database, then it will include bibliographic, chemical, 
# crystal, experimental, refinement or atomic coordinate data resulting 
# from the CCDC's data processing and validation procedures.
#
#######################################################################

data_QEMVEM
_chemical_formula_moiety         'C26 H17 N3 O3'
_chemical_name_systematic        
2-(2-oxo-4-phenyl-1,2,3,4-tetrahydro-1,10-phenanthrolin-3-yl)-1H-isoindole-1,3(2H)-dione
_symmetry_cell_setting           triclinic
_symmetry_space_group_name_H-M   'P -1'
_symmetry_Int_Tables_number      2
_space_group_name_Hall           '-P 1'
loop_
_symmetry_equiv_pos_site_id
_symmetry_equiv_pos_as_xyz
1 x,y,z
2 -x,-y,-z
_cell_length_a                   10.4947(11)
_cell_length_b                   11.2966(10)
_cell_length_c                   17.2337(18)
_cell_angle_alpha                89.066(3)
_cell_angle_beta                 76.232(4)
_cell_angle_gamma                83.865(3)
_cell_volume                     1972.97
_exptl_crystal_description       block
_cell_formula_units_Z            4
loop_
_atom_site_label
_atom_site_type_symbol
_atom_site_fract_x
_atom_site_fract_y
_atom_site_fract_z
C1 C 0.8860(4) -0.2842(3) 0.3616(2)
C2 C 0.9337(4) -0.4802(3) 0.3914(3)
H1 H 0.9586 -0.5393 0.4263
C3 C 0.9143(4) -0.5177(3) 0.3180(3)
H2 H 0.9209 -0.6003 0.3062
C4 C 0.8864(4) -0.4369(3) 0.2641(3)
H3 H 0.8761 -0.4615 0.2137
C5 C 0.8728(4) -0.3142(3) 0.2848(3)
C6 C 0.8428(4) -0.2237(3) 0.2330(3)
H4 H 0.8389 -0.2431 0.1803
C7 C 0.8192(4) -0.1072(3) 0.2588(2)
H5 H 0.7972 -0.0467 0.2238
C8 C 0.8272(3) -0.0758(2) 0.3358(2)
C9 C 0.7989(4) 0.0525(2) 0.3668(2)
H6 H 0.8849 0.0863 0.3606
C10 C 0.7332(4) 0.0482(2) 0.4557(2)
H7 H 0.6505 0.0097 0.4596
C11 C 0.8148(4) -0.0304(3) 0.5021(2)
C12 C 0.8624(4) -0.1618(2) 0.3860(2)
C13 C 0.7158(4) 0.1297(2) 0.3205(2)
C14 C 0.5862(4) 0.1117(3) 0.3261(3)
H8 H 0.5472 0.0533 0.3615
C15 C 0.5124(5) 0.1775(3) 0.2810(3)
H9 H 0.4234 0.1637 0.2851
C16 C 0.5678(5) 0.2629(3) 0.2301(3)
H10 H 0.5157 0.3098 0.2004
C17 C 0.6987(5) 0.2815(3) 0.2215(2)
H11 H 0.7375 0.3388 0.1850
C18 C 0.7732(4) 0.2139(3) 0.2680(2)
H12 H 0.8629 0.2261 0.2634
C19 C 0.7761(4) 0.2521(3) 0.4978(2)
C20 C 0.5594(4) 0.2052(3) 0.5252(2)
C21 C 0.5594(4) 0.3294(2) 0.5534(2)
C22 C 0.6863(4) 0.3567(2) 0.5390(2)
C23 C 0.7151(4) 0.4659(3) 0.5613(2)
H13 H 0.8033 0.4849 0.5529
C24 C 0.6078(4) 0.5467(3) 0.5967(2)
H14 H 0.6236 0.6234 0.6115
C25 C 0.4796(4) 0.5189(3) 0.6109(2)
H15 H 0.4093 0.5761 0.6358
C26 C 0.4517(4) 0.4083(3) 0.5892(2)
H16 H 0.3638 0.3879 0.5985
N1 N 0.9191(3) -0.3667(2) 0.4147(2)
N2 N 0.8735(3) -0.1325(2) 0.46209(19)
H17 H 0.919(3) -0.183(2) 0.486(2)
N3 N 0.6921(3) 0.16548(19) 0.49275(17)
O1 O 0.8231(3) -0.00713(18) 0.56950(16)
O2 O 0.8937(3) 0.24160(18) 0.47111(16)
O3 O 0.4677(3) 0.14820(19) 0.52868(18)
C27 C 0.8645(4) 0.7244(3) 0.8468(2)
C28 C 0.9299(4) 0.9043(3) 0.8693(3)
H18 H 0.9629 0.9550 0.9015
C29 C 0.9051(4) 0.9502(3) 0.7981(3)
H19 H 0.9190 1.0303 0.7839
C30 C 0.8607(4) 0.8794(3) 0.7489(3)
H20 H 0.8437 0.9090 0.7000
C31 C 0.8406(4) 0.7611(3) 0.7723(2)
C32 C 0.7946(4) 0.6809(3) 0.7269(2)
H21 H 0.7795 0.7042 0.6763
C33 C 0.7713(4) 0.5694(3) 0.7546(2)
H22 H 0.7399 0.5164 0.7230
C34 C 0.7928(4) 0.5313(3) 0.8291(2)
C35 C 0.7744(4) 0.4061(3) 0.8601(2)
H23 H 0.8635 0.3595 0.8477
C36 C 0.7264(4) 0.4121(3) 0.9500(2)
H24 H 0.6387 0.4611 0.9601
C37 C 0.8100(4) 0.4803(3) 0.9908(3)
C38 C 0.8396(4) 0.6079(3) 0.8740(2)
C39 C 0.6876(4) 0.3427(3) 0.8194(2)
C40 C 0.5544(4) 0.3765(3) 0.8324(3)
H25 H 0.5150 0.4384 0.8698
C41 C 0.4780(5) 0.3237(4) 0.7929(3)
H26 H 0.3863 0.3492 0.8026
C42 C 0.5319(6) 0.2347(4) 0.7399(3)
H27 H 0.4764 0.1971 0.7140
C43 C 0.6661(6) 0.1964(3) 0.7220(3)
H28 H 0.7033 0.1348 0.6839
C44 C 0.7455(5) 0.2536(3) 0.7634(3)
H29 H 0.8379 0.2308 0.7528
C45 C 0.7919(5) 0.1997(3) 0.9886(3)
C46 C 0.5722(5) 0.2765(3) 1.0240(2)
C47 C 0.5815(4) 0.1513(3) 1.0503(2)
C48 C 0.7127(4) 0.1066(3) 1.0312(2)
C49 C 0.7501(5) -0.0094(3) 1.0503(2)
H30 H 0.8401 -0.0416 1.0380
C50 C 0.6503(5) -0.0767(3) 1.0882(3)
H31 H 0.6733 -0.1565 1.1022
C51 C 0.5195(5) -0.0322(3) 1.1062(2)
H32 H 0.4543 -0.0817 1.1314
C52 C 0.4813(4) 0.0848(3) 1.0879(2)
H33 H 0.3914 0.1172 1.1005
N4 N 0.9107(3) 0.7954(2) 0.8951(2)
N5 N 0.8625(4) 0.5728(3) 0.9484(2)
H34 H 0.907(4) 0.625(3) 0.965(2)
N6 N 0.6992(3) 0.2998(2) 0.9874(2)
O4 O 0.8253(3) 0.4566(2) 1.05770(18)
O5 O 0.9082(3) 0.1959(2) 0.95899(18)
O6 O 0.4735(3) 0.3472(2) 1.03136(18)
loop_
_geom_bond_atom_site_label_1
_geom_bond_atom_site_label_2
_geom_bond_site_symmetry_1
_geom_bond_site_symmetry_2
C1 C5 1_555 1_555
C2 H1 1_555 1_555
C3 C2 1_555 1_555
H2 C3 1_555 1_555
C4 C3 1_555 1_555
H3 C4 1_555 1_555
C5 C4 1_555 1_555
C6 C5 1_555 1_555
H4 C6 1_555 1_555
C7 C6 1_555 1_555
H5 C7 1_555 1_555
C8 C7 1_555 1_555
C9 C8 1_555 1_555
H6 C9 1_555 1_555
C10 C9 1_555 1_555
H7 C10 1_555 1_555
C11 C10 1_555 1_555
C12 C1 1_555 1_555
C13 C9 1_555 1_555
C14 C13 1_555 1_555
H8 C14 1_555 1_555
C15 C14 1_555 1_555
H9 C15 1_555 1_555
C16 C15 1_555 1_555
H10 C16 1_555 1_555
C17 C16 1_555 1_555
H11 C17 1_555 1_555
C18 C13 1_555 1_555
H12 C18 1_555 1_555
C19 C22 1_555 1_555
C20 C21 1_555 1_555
C21 C22 1_555 1_555
C22 C23 1_555 1_555
C23 H13 1_555 1_555
C24 C23 1_555 1_555
H14 C24 1_555 1_555
C25 C24 1_555 1_555
H15 C25 1_555 1_555
C26 C21 1_555 1_555
H16 C26 1_555 1_555
N1 C1 1_555 1_555
N2 C11 1_555 1_555
H17 N2 1_555 1_555
N3 C10 1_555 1_555
O1 C11 1_555 1_555
O2 C19 1_555 1_555
O3 C20 1_555 1_555
C27 C31 1_555 1_555
C28 H18 1_555 1_555
C29 C28 1_555 1_555
H19 C29 1_555 1_555
C30 C29 1_555 1_555
H20 C30 1_555 1_555
C31 C30 1_555 1_555
C32 C31 1_555 1_555
H21 C32 1_555 1_555
C33 C32 1_555 1_555
H22 C33 1_555 1_555
C34 C33 1_555 1_555
C35 C34 1_555 1_555
H23 C35 1_555 1_555
C36 C35 1_555 1_555
H24 C36 1_555 1_555
C37 C36 1_555 1_555
C38 C27 1_555 1_555
C39 C35 1_555 1_555
C40 C39 1_555 1_555
H25 C40 1_555 1_555
C41 C40 1_555 1_555
H26 C41 1_555 1_555
C42 C41 1_555 1_555
H27 C42 1_555 1_555
C43 C42 1_555 1_555
H28 C43 1_555 1_555
C44 C39 1_555 1_555
H29 C44 1_555 1_555
C45 C48 1_555 1_555
C46 C47 1_555 1_555
C47 C48 1_555 1_555
C48 C49 1_555 1_555
C49 H30 1_555 1_555
C50 C49 1_555 1_555
H31 C50 1_555 1_555
C51 C50 1_555 1_555
H32 C51 1_555 1_555
C52 C47 1_555 1_555
H33 C52 1_555 1_555
N4 C27 1_555 1_555
N5 C37 1_555 1_555
H34 N5 1_555 1_555
N6 C36 1_555 1_555
O4 C37 1_555 1_555
O5 C45 1_555 1_555
O6 C46 1_555 1_555
C2 N1 1_555 1_555
C8 C12 1_555 1_555
C12 N2 1_555 1_555
C17 C18 1_555 1_555
C19 N3 1_555 1_555
C20 N3 1_555 1_555
C25 C26 1_555 1_555
C28 N4 1_555 1_555
C34 C38 1_555 1_555
C38 N5 1_555 1_555
C43 C44 1_555 1_555
C45 N6 1_555 1_555
C46 N6 1_555 1_555
C51 C52 1_555 1_555

#END
