
#######################################################################
#
#                 Cambridge Crystallographic Data Centre
#                                CCDC 
#
#######################################################################
#
# If this CIF has been generated from an entry in the Cambridge 
# Structural Database, then it will include bibliographic, chemical, 
# crystal, experimental, refinement or atomic coordinate data resulting 
# from the CCDC's data processing and validation procedures.
#
#######################################################################

data_QEMXEM
_chemical_compound_source        'Heterotheca inuloides Cass. (Asteraceae)'
_chemical_formula_moiety         'C15 H20 O1'
_chemical_name_systematic        (8R)-(-)-3-Hydroxy-\a-calacorene
_symmetry_cell_setting           monoclinic
_symmetry_space_group_name_H-M   'P 21'
_symmetry_Int_Tables_number      4
_space_group_name_Hall           'P 2yb'
loop_
_symmetry_equiv_pos_site_id
_symmetry_equiv_pos_as_xyz
1 x,y,z
2 -x,1/2+y,-z
_cell_length_a                   5.1062(2)
_cell_length_b                   25.0019(7)
_cell_length_c                   15.2519(5)
_cell_angle_alpha                90
_cell_angle_beta                 93.276(2)
_cell_angle_gamma                90
_cell_volume                     1943.95
_exptl_crystal_colour            colorless
_exptl_crystal_description       needle
_chemical_melting_point          '103.5-105.0 deg.C'
_cell_formula_units_Z            6
loop_
_atom_site_label
_atom_site_type_symbol
_atom_site_fract_x
_atom_site_fract_y
_atom_site_fract_z
O1 O 0.40376(15) 0.31235(3) 0.45656(4)
H1 H 0.2986 0.3322 0.4817
C1 C 0.0074(2) 0.41083(4) 0.20416(6)
C2 C 0.1748(2) 0.36712(4) 0.24123(6)
C3 C 0.2020(2) 0.35840(4) 0.33174(6)
H2 H 0.1004 0.3788 0.3699
C4 C 0.3754(2) 0.32027(4) 0.36657(6)
C5 C 0.5243(2) 0.28868(4) 0.31340(6)
C6 C 0.4884(2) 0.29714(4) 0.22313(6)
H3 H 0.5853 0.2756 0.1853
C7 C 0.3190(2) 0.33532(4) 0.18530(6)
C8 C 0.2744(2) 0.34222(4) 0.08703(6)
H4 H 0.4330 0.3287 0.0585
C9 C 0.2477(2) 0.40226(4) 0.06746(6)
H5 H 0.4194 0.4200 0.0795
H6 H 0.1949 0.4075 0.0046
C10 C 0.0470(2) 0.42752(4) 0.12285(6)
H7 H -0.0552 0.4564 0.0991
C11 C 0.7144(2) 0.24747(4) 0.35085(6)
H8 H 0.7985 0.2294 0.3029
H9 H 0.6200 0.2212 0.3847
H10 H 0.8485 0.2651 0.3893
C12 C 0.0337(2) 0.30986(4) 0.05063(6)
H11 H -0.1257 0.3250 0.0766
C13 C 0.0530(3) 0.25117(4) 0.07592(7)
H12 H -0.1023 0.2321 0.0515
H13 H 0.0628 0.2479 0.1401
H14 H 0.2108 0.2356 0.0525
C14 C -0.0039(3) 0.31429(5) -0.04882(7)
H15 H -0.1581 0.2935 -0.0694
H16 H 0.1519 0.3003 -0.0758
H17 H -0.0295 0.3519 -0.0653
C15 C -0.1887(2) 0.43631(4) 0.26074(6)
H18 H -0.2846 0.4643 0.2273
H19 H -0.0972 0.4521 0.3127
H20 H -0.3124 0.4091 0.2792
O2 O 0.78724(15) 0.28870(2) 0.57814(4)
H21 H 0.6524 0.2896 0.5440
C16 C 0.4388(2) 0.10907(4) 0.62973(6)
C17 C 0.6069(2) 0.15510(4) 0.65716(6)
C18 C 0.6084(2) 0.20183(4) 0.60683(6)
H22 H 0.4873 0.2058 0.5576
C19 C 0.7857(2) 0.24251(4) 0.62828(6)
C20 C 0.9665(2) 0.23847(4) 0.69926(6)
C21 C 0.9548(2) 0.19261(4) 0.75058(6)
H23 H 1.0720 0.1896 0.8010
C22 C 0.7800(2) 0.15111(4) 0.73177(6)
C23 C 0.7647(2) 0.10205(4) 0.78981(6)
H24 H 0.9356 0.0983 0.8246
C24 C 0.7290(2) 0.05317(4) 0.72917(7)
H25 H 0.8909 0.0474 0.6977
H26 H 0.6986 0.0209 0.7648
C25 C 0.5013(2) 0.06122(4) 0.66383(6)
H27 H 0.3977 0.0311 0.6461
C26 C 1.1667(2) 0.28165(4) 0.72025(6)
H28 H 1.2771 0.2713 0.7722
H29 H 1.0766 0.3153 0.7320
H30 H 1.2766 0.2865 0.6702
C27 C 0.5448(2) 0.10783(4) 0.85449(6)
H31 H 0.3759 0.1135 0.8192
C28 C 0.5890(3) 0.15596(4) 0.91452(7)
H32 H 0.4467 0.1582 0.9548
H33 H 0.5919 0.1886 0.8791
H34 H 0.7569 0.1521 0.9483
C29 C 0.5157(3) 0.05764(4) 0.91007(6)
H35 H 0.3753 0.0630 0.9504
H36 H 0.6810 0.0505 0.9439
H37 H 0.4723 0.0271 0.8716
C30 C 0.2204(2) 0.11685(4) 0.56128(6)
H38 H 0.1274 0.0829 0.5511
H39 H 0.2926 0.1289 0.5065
H40 H 0.0981 0.1438 0.5814
O3 O 1.05821(14) 0.37742(2) 0.54208(4)
H41 H 0.9694 0.3510 0.5571
C31 C 0.7194(2) 0.44453(4) 0.81585(6)
C32 C 0.8689(2) 0.45229(4) 0.73679(6)
C33 C 0.8802(2) 0.41272(4) 0.67265(6)
H42 H 0.7747 0.3816 0.6765
C34 C 1.0416(2) 0.41791(4) 0.60374(6)
C35 C 1.1914(2) 0.46381(4) 0.59269(6)
C36 C 1.1722(2) 0.50384(4) 0.65598(6)
H43 H 1.2704 0.5358 0.6497
C37 C 1.0173(2) 0.49939(4) 0.72742(6)
C38 C 0.9946(2) 0.54335(4) 0.79494(6)
H44 H 1.1554 0.5661 0.7942
C39 C 0.9900(2) 0.51714(4) 0.88510(6)
H45 H 1.1635 0.5010 0.9007
H46 H 0.9559 0.5447 0.9296
C40 C 0.7822(2) 0.47469(4) 0.88626(6)
H47 H 0.6930 0.4691 0.9385
C41 C 1.3657(2) 0.46954(4) 0.51722(7)
H48 H 1.3516 0.4374 0.4805
H49 H 1.5478 0.4741 0.5398
H50 H 1.3113 0.5009 0.4821
C42 C 0.7544(2) 0.57920(4) 0.77292(6)
H51 H 0.5955 0.5557 0.7707
C43 C 0.7182(3) 0.62156(5) 0.84303(8)
H52 H 0.5629 0.6432 0.8267
H53 H 0.8733 0.6447 0.8479
H54 H 0.6950 0.6041 0.8996
C44 C 0.7663(3) 0.60565(5) 0.68380(7)
H55 H 0.6099 0.6278 0.6723
H56 H 0.7732 0.5781 0.6383
H57 H 0.9235 0.6281 0.6832
C45 C 0.5156(2) 0.40132(4) 0.81559(6)
H58 H 0.4330 0.4012 0.8720
H59 H 0.5986 0.3666 0.8065
H60 H 0.3821 0.4080 0.7681
loop_
_geom_bond_atom_site_label_1
_geom_bond_atom_site_label_2
_geom_bond_site_symmetry_1
_geom_bond_site_symmetry_2
O1 H1 1_555 1_555
C1 C2 1_555 1_555
C2 C3 1_555 1_555
C3 H2 1_555 1_555
C4 O1 1_555 1_555
C5 C4 1_555 1_555
C6 C5 1_555 1_555
H3 C6 1_555 1_555
C7 C2 1_555 1_555
C8 C7 1_555 1_555
H4 C8 1_555 1_555
C9 C8 1_555 1_555
H5 C9 1_555 1_555
H6 C9 1_555 1_555
C10 C1 1_555 1_555
H7 C10 1_555 1_555
C11 C5 1_555 1_555
H8 C11 1_555 1_555
H9 C11 1_555 1_555
H10 C11 1_555 1_555
C12 C8 1_555 1_555
H11 C12 1_555 1_555
C13 C12 1_555 1_555
H12 C13 1_555 1_555
H13 C13 1_555 1_555
H14 C13 1_555 1_555
C14 C12 1_555 1_555
H15 C14 1_555 1_555
H16 C14 1_555 1_555
H17 C14 1_555 1_555
C15 C1 1_555 1_555
H18 C15 1_555 1_555
H19 C15 1_555 1_555
H20 C15 1_555 1_555
O2 H21 1_555 1_555
C16 C17 1_555 1_555
C17 C18 1_555 1_555
C18 H22 1_555 1_555
C19 O2 1_555 1_555
C20 C19 1_555 1_555
C21 C20 1_555 1_555
H23 C21 1_555 1_555
C22 C17 1_555 1_555
C23 C22 1_555 1_555
H24 C23 1_555 1_555
C24 C23 1_555 1_555
H25 C24 1_555 1_555
H26 C24 1_555 1_555
C25 C16 1_555 1_555
H27 C25 1_555 1_555
C26 C20 1_555 1_555
H28 C26 1_555 1_555
H29 C26 1_555 1_555
H30 C26 1_555 1_555
C27 C23 1_555 1_555
H31 C27 1_555 1_555
C28 C27 1_555 1_555
H32 C28 1_555 1_555
H33 C28 1_555 1_555
H34 C28 1_555 1_555
C29 C27 1_555 1_555
H35 C29 1_555 1_555
H36 C29 1_555 1_555
H37 C29 1_555 1_555
C30 C16 1_555 1_555
H38 C30 1_555 1_555
H39 C30 1_555 1_555
H40 C30 1_555 1_555
O3 H41 1_555 1_555
C31 C32 1_555 1_555
C32 C33 1_555 1_555
C33 H42 1_555 1_555
C34 O3 1_555 1_555
C35 C34 1_555 1_555
C36 C35 1_555 1_555
H43 C36 1_555 1_555
C37 C32 1_555 1_555
C38 C37 1_555 1_555
H44 C38 1_555 1_555
C39 C38 1_555 1_555
H45 C39 1_555 1_555
H46 C39 1_555 1_555
C40 C31 1_555 1_555
H47 C40 1_555 1_555
C41 C35 1_555 1_555
H48 C41 1_555 1_555
H49 C41 1_555 1_555
H50 C41 1_555 1_555
C42 C38 1_555 1_555
H51 C42 1_555 1_555
C43 C42 1_555 1_555
H52 C43 1_555 1_555
H53 C43 1_555 1_555
H54 C43 1_555 1_555
C44 C42 1_555 1_555
H55 C44 1_555 1_555
H56 C44 1_555 1_555
H57 C44 1_555 1_555
C45 C31 1_555 1_555
H58 C45 1_555 1_555
H59 C45 1_555 1_555
H60 C45 1_555 1_555
C3 C4 1_555 1_555
C6 C7 1_555 1_555
C9 C10 1_555 1_555
C18 C19 1_555 1_555
C21 C22 1_555 1_555
C24 C25 1_555 1_555
C33 C34 1_555 1_555
C36 C37 1_555 1_555
C39 C40 1_555 1_555

#END
