
#######################################################################
#
#                 Cambridge Crystallographic Data Centre
#                                CCDC 
#
#######################################################################
#
# If this CIF has been generated from an entry in the Cambridge 
# Structural Database, then it will include bibliographic, chemical, 
# crystal, experimental, refinement or atomic coordinate data resulting 
# from the CCDC's data processing and validation procedures.
#
#######################################################################

data_QEMYOX
_chemical_compound_source        'dried roots of Euphorbia fischeriana'
_chemical_formula_moiety         'C20 H32 O2,0.5(H2 O1)'
_chemical_name_systematic        
'3\a,17-dihydroxy-ent-pimara-8(14),15-diene hemihydrate'
_symmetry_cell_setting           monoclinic
_symmetry_space_group_name_H-M   'C 2'
_symmetry_Int_Tables_number      5
_space_group_name_Hall           'C 2y'
loop_
_symmetry_equiv_pos_site_id
_symmetry_equiv_pos_as_xyz
1 x,y,z
2 -x,y,-z
3 1/2+x,1/2+y,z
4 1/2-x,1/2+y,-z
_cell_length_a                   24.054(4)
_cell_length_b                   6.5688(12)
_cell_length_c                   11.748(2)
_cell_angle_alpha                90
_cell_angle_beta                 102.161(3)
_cell_angle_gamma                90
_cell_volume                     1814.6
_exptl_crystal_colour            colorless
_exptl_crystal_description       needles
_cell_formula_units_Z            4
loop_
_atom_site_label
_atom_site_type_symbol
_atom_site_fract_x
_atom_site_fract_y
_atom_site_fract_z
O1 O 0.54094(10) 0.7154(6) 0.3495(3)
O2 O 0.99161(10) 0.8260(5) 0.3332(3)
C1 C 0.69715(14) 0.8174(7) 0.4196(3)
C2 C 0.63395(14) 0.8456(7) 0.4190(3)
H1 H 0.6274 0.8255 0.4969
H2 H 0.6224 0.9830 0.3946
C3 C 0.59924(14) 0.6954(6) 0.3372(3)
C4 C 0.60510(13) 0.7210(7) 0.2099(3)
C5 C 0.67033(13) 0.7036(6) 0.2106(3)
H3 H 0.6804 0.5636 0.2353
C6 C 0.68422(15) 0.7207(8) 0.0906(3)
C7 C 0.74539(15) 0.6507(6) 0.0935(3)
H4 H 0.7473 0.5039 0.1027
H5 H 0.7550 0.6832 0.0195
C8 C 0.78876(13) 0.7464(5) 0.1897(3)
C9 C 0.77251(13) 0.7496(6) 0.3071(3)
C10 C 0.71159(13) 0.8391(5) 0.2992(3)
C11 C 0.81821(13) 0.8490(7) 0.4002(3)
C12 C 0.87836(13) 0.7989(7) 0.3861(3)
H6 H 0.8840 0.6527 0.3900
H7 H 0.9058 0.8607 0.4490
C13 C 0.88773(13) 0.8791(6) 0.2687(3)
C14 C 0.83926(14) 0.8089(6) 0.1731(3)
C15 C 0.89353(16) 1.1064(7) 0.2734(4)
H8 H 0.9265 1.1581 0.3206
C16 C 0.85741(18) 1.2387(7) 0.2187(4)
H9 H 0.8238 1.1950 0.1705
H10 H 0.8652 1.3772 0.2278
C17 C 0.94271(14) 0.7833(7) 0.2444(4)
H11 H 0.9378 0.6370 0.2373
H12 H 0.9490 0.8344 0.1706
C18 C 0.57671(17) 0.9161(8) 0.1570(4)
H13 H 0.5858 0.9383 0.0822
H14 H 0.5902 1.0288 0.2073
H15 H 0.5362 0.9043 0.1481
C19 C 0.57449(17) 0.5432(8) 0.1391(4)
H16 H 0.5360 0.5360 0.1498
H17 H 0.5939 0.4184 0.1651
H18 H 0.5744 0.5635 0.0582
C20 C 0.71030(15) 1.0633(6) 0.2653(3)
H19 H 0.7371 1.1374 0.3226
H20 H 0.6728 1.1167 0.2613
H21 H 0.7202 1.0769 0.1907
H22 H 0.7181(15) 0.915(6) 0.474(3)
H23 H 0.7064(18) 0.676(8) 0.443(4)
H24 H 0.6126(14) 0.553(6) 0.357(3)
H25 H 0.6837(14) 0.863(6) 0.063(3)
H26 H 0.6631(16) 0.624(6) 0.040(3)
H27 H 0.7692(13) 0.605(6) 0.331(3)
H28 H 0.8132(16) 0.794(6) 0.476(4)
H29 H 0.8130(13) 0.998(6) 0.395(3)
H30 H 0.8441(15) 0.809(6) 0.091(3)
H31 H 0.5285(18) 0.586(8) 0.341(4)
H32 H 0.994(2) 0.716(11) 0.381(5)
O3 O 1.0000 0.4899(8) 0.5000
H33 H 1.007(3) 0.370(11) 0.459(6)
H33A H 0.993(3) 0.370(11) 0.541(6)
loop_
_geom_bond_atom_site_label_1
_geom_bond_atom_site_label_2
_geom_bond_site_symmetry_1
_geom_bond_site_symmetry_2
O1 C3 1_555 1_555
O2 C17 1_555 1_555
O3 H33 1_555 1_555
C1 C2 1_555 1_555
C2 H1 1_555 1_555
H2 C2 1_555 1_555
C3 C2 1_555 1_555
C4 C3 1_555 1_555
C5 C4 1_555 1_555
H3 C5 1_555 1_555
C6 C5 1_555 1_555
C7 C6 1_555 1_555
H4 C7 1_555 1_555
H5 C7 1_555 1_555
C8 C7 1_555 1_555
C9 C8 1_555 1_555
C10 C1 1_555 1_555
C11 C9 1_555 1_555
C12 C11 1_555 1_555
H6 C12 1_555 1_555
H7 C12 1_555 1_555
C13 C12 1_555 1_555
C14 C8 1_555 1_555
C15 C13 1_555 1_555
H8 C15 1_555 1_555
C16 C15 1_555 1_555
H9 C16 1_555 1_555
H10 C16 1_555 1_555
C17 C13 1_555 1_555
H11 C17 1_555 1_555
H12 C17 1_555 1_555
C18 C4 1_555 1_555
H13 C18 1_555 1_555
H14 C18 1_555 1_555
H15 C18 1_555 1_555
C19 C4 1_555 1_555
H16 C19 1_555 1_555
H17 C19 1_555 1_555
H18 C19 1_555 1_555
C20 C10 1_555 1_555
H19 C20 1_555 1_555
H20 C20 1_555 1_555
H21 C20 1_555 1_555
H22 C1 1_555 1_555
H23 C1 1_555 1_555
H24 C3 1_555 1_555
H25 C6 1_555 1_555
H26 C6 1_555 1_555
H27 C9 1_555 1_555
H28 C11 1_555 1_555
H29 C11 1_555 1_555
H30 C14 1_555 1_555
H31 O1 1_555 1_555
H32 O2 1_555 1_555
H33A O3 1_555 1_555
C5 C10 1_555 1_555
C9 C10 1_555 1_555
C13 C14 1_555 1_555

#END
