
#######################################################################
#
#                 Cambridge Crystallographic Data Centre
#                                CCDC 
#
#######################################################################
#
# If this CIF has been generated from an entry in the Cambridge 
# Structural Database, then it will include bibliographic, chemical, 
# crystal, experimental, refinement or atomic coordinate data resulting 
# from the CCDC's data processing and validation procedures.
#
#######################################################################

data_QENCUH
_chemical_formula_moiety         'C30 H44 O4 S2'
_chemical_name_systematic        
4-(2-(t-Butylthioxycarbonyl)-2-(3-hydroxy-6-methyl-2-phenylsulfanylbicyclo(4.3.0)nonen-7-yl)ethyl)-2,2,5,5-tetramethyl-1,3-dioxolane
_symmetry_cell_setting           monoclinic
_symmetry_space_group_name_H-M   'P 21'
_symmetry_Int_Tables_number      4
_space_group_name_Hall           'P 2yb'
loop_
_symmetry_equiv_pos_site_id
_symmetry_equiv_pos_as_xyz
1 x,y,z
2 -x,1/2+y,-z
_cell_length_a                   10.8070(4)
_cell_length_b                   10.1654(5)
_cell_length_c                   13.9794(8)
_cell_angle_alpha                90
_cell_angle_beta                 97.980(4)
_cell_angle_gamma                90
_cell_volume                     1520.87
_exptl_crystal_colour            white
_exptl_crystal_description       plate
_cell_formula_units_Z            2
_exptl_crystal_recrystallization_method benzene
loop_
_atom_site_label
_atom_site_type_symbol
_atom_site_fract_x
_atom_site_fract_y
_atom_site_fract_z
S1 S 0.40279(10) 0.72507(13) 0.06188(8)
S2 S 0.17050(9) 0.29978(10) 0.49901(7)
O1 O 0.4047(3) 0.3780(3) 0.5039(2)
O2 O 0.2322(3) 0.6000(3) 0.81403(17)
O3 O 0.1375(3) 0.5895(4) 0.65837(17)
O4 O 0.2436(4) 0.4667(5) 0.0009(2)
H1 H 0.278(7) 0.511(7) -0.038(5)
C1 C 0.2930(4) 0.8516(5) 0.0288(3)
C2 C 0.3385(4) 0.9703(5) 0.0031(3)
H2 H 0.4244 0.9810 0.0057
C3 C 0.2605(6) 1.0744(6) -0.0264(4)
H3 H 0.2935 1.1542 -0.0436
C4 C 0.1347(6) 1.0591(7) -0.0302(4)
H4 H 0.0816 1.1285 -0.0507
C5 C 0.0856(5) 0.9420(8) -0.0039(4)
H5 H -0.0002 0.9331 -0.0049
C6 C 0.1652(4) 0.8364(6) 0.0242(3)
H6 H 0.1322 0.7560 0.0399
C7 C 0.3291(4) 0.6113(5) 0.1321(3)
C8 C 0.3202(4) 0.4732(5) 0.0927(3)
H7 H 0.4045 0.4433 0.0850
C9 C 0.2639(5) 0.3761(4) 0.1566(3)
H8 H 0.2957 0.2888 0.1459
H9 H 0.1740 0.3742 0.1382
C10 C 0.2925(5) 0.4090(4) 0.2635(3)
H10 H 0.3820 0.4040 0.2835
H11 H 0.2527 0.3447 0.3005
C11 C 0.2462(4) 0.5470(4) 0.2850(2)
C12 C 0.2948(4) 0.6456(4) 0.2174(3)
C13 C 0.3111(5) 0.7769(4) 0.2653(3)
H12 H 0.2501 0.8390 0.2344
H13 H 0.3942 0.8111 0.2622
C14 C 0.2911(5) 0.7533(4) 0.3709(3)
H14 H 0.3536 0.7995 0.4151
H15 H 0.2088 0.7824 0.3819
C15 C 0.3047(4) 0.6034(4) 0.3842(2)
H16 H 0.3942 0.5835 0.3918
C16 C 0.1033(4) 0.5516(5) 0.2729(3)
H17 H 0.0731 0.4863 0.3136
H18 H 0.0704 0.5341 0.2067
H19 H 0.0766 0.6371 0.2907
C17 C 0.2547(4) 0.5512(4) 0.4750(2)
H20 H 0.1633 0.5559 0.4648
C18 C 0.2943(4) 0.4079(4) 0.4929(2)
C19 C 0.2677(4) 0.5767(4) 0.6582(2)
H21 H 0.2892 0.4831 0.6624
C20 C 0.3043(4) 0.6309(4) 0.5653(2)
H22 H 0.3947 0.6341 0.5712
H23 H 0.2735 0.7204 0.5569
C21 C 0.3225(4) 0.6429(4) 0.7526(3)
C22 C 0.1164(4) 0.5680(6) 0.7564(3)
C23 C 0.3218(6) 0.7917(6) 0.7471(3)
H24 H 0.2392 0.8217 0.7226
H25 H 0.3793 0.8202 0.7048
H26 H 0.3464 0.8275 0.8104
C24 C 0.4484(4) 0.5891(8) 0.7925(3)
H27 H 0.4416 0.4965 0.8042
H28 H 0.4784 0.6330 0.8520
H29 H 0.5057 0.6034 0.7469
C25 C 0.0876(7) 0.4245(7) 0.7721(4)
H30 H 0.0089 0.4022 0.7349
H31 H 0.0833 0.4095 0.8393
H32 H 0.1523 0.3707 0.7519
C26 C 0.0154(6) 0.6600(9) 0.7782(4)
H33 H -0.0573 0.6482 0.7311
H34 H 0.0442 0.7491 0.7759
H35 H -0.0052 0.6414 0.8414
C27 C 0.2435(4) 0.1386(4) 0.5275(4)
C28 C 0.3173(5) 0.0974(6) 0.4474(5)
H36 H 0.2619 0.0907 0.3877
H37 H 0.3559 0.0137 0.4630
H38 H 0.3805 0.1619 0.4410
C29 C 0.1312(5) 0.0449(5) 0.5289(4)
H39 H 0.0824 0.0431 0.4660
H40 H 0.0803 0.0755 0.5755
H41 H 0.1610 -0.0420 0.5460
C30 C 0.3238(6) 0.1436(6) 0.6257(4)
H42 H 0.3909 0.2049 0.6236
H43 H 0.3574 0.0578 0.6419
H44 H 0.2737 0.1712 0.6736
loop_
_geom_bond_atom_site_label_1
_geom_bond_atom_site_label_2
_geom_bond_site_symmetry_1
_geom_bond_site_symmetry_2
S1 C1 1_555 1_555
S2 C18 1_555 1_555
O1 C18 1_555 1_555
O2 C21 1_555 1_555
O3 C19 1_555 1_555
O4 H1 1_555 1_555
C1 C2 1_555 1_555
C2 H2 1_555 1_555
C3 C2 1_555 1_555
H3 C3 1_555 1_555
C4 C3 1_555 1_555
H4 C4 1_555 1_555
C5 C4 1_555 1_555
H5 C5 1_555 1_555
C6 C1 1_555 1_555
H6 C6 1_555 1_555
C7 S1 1_555 1_555
C8 O4 1_555 1_555
H7 C8 1_555 1_555
C9 C8 1_555 1_555
H8 C9 1_555 1_555
H9 C9 1_555 1_555
C10 C9 1_555 1_555
H10 C10 1_555 1_555
H11 C10 1_555 1_555
C11 C10 1_555 1_555
C12 C7 1_555 1_555
C13 C12 1_555 1_555
H12 C13 1_555 1_555
H13 C13 1_555 1_555
C14 C13 1_555 1_555
H14 C14 1_555 1_555
H15 C14 1_555 1_555
C15 C11 1_555 1_555
H16 C15 1_555 1_555
C16 C11 1_555 1_555
H17 C16 1_555 1_555
H18 C16 1_555 1_555
H19 C16 1_555 1_555
C17 C15 1_555 1_555
H20 C17 1_555 1_555
C18 C17 1_555 1_555
C19 H21 1_555 1_555
C20 C17 1_555 1_555
H22 C20 1_555 1_555
H23 C20 1_555 1_555
C21 C19 1_555 1_555
C22 O2 1_555 1_555
C23 C21 1_555 1_555
H24 C23 1_555 1_555
H25 C23 1_555 1_555
H26 C23 1_555 1_555
C24 C21 1_555 1_555
H27 C24 1_555 1_555
H28 C24 1_555 1_555
H29 C24 1_555 1_555
C25 C22 1_555 1_555
H30 C25 1_555 1_555
H31 C25 1_555 1_555
H32 C25 1_555 1_555
C26 C22 1_555 1_555
H33 C26 1_555 1_555
H34 C26 1_555 1_555
H35 C26 1_555 1_555
C27 S2 1_555 1_555
C28 C27 1_555 1_555
H36 C28 1_555 1_555
H37 C28 1_555 1_555
H38 C28 1_555 1_555
C29 C27 1_555 1_555
H39 C29 1_555 1_555
H40 C29 1_555 1_555
H41 C29 1_555 1_555
C30 C27 1_555 1_555
H42 C30 1_555 1_555
H43 C30 1_555 1_555
H44 C30 1_555 1_555
O3 C22 1_555 1_555
C5 C6 1_555 1_555
C7 C8 1_555 1_555
C11 C12 1_555 1_555
C14 C15 1_555 1_555
C19 C20 1_555 1_555

#END
