
#######################################################################
#
#                 Cambridge Crystallographic Data Centre
#                                CCDC 
#
#######################################################################
#
# If this CIF has been generated from an entry in the Cambridge 
# Structural Database, then it will include bibliographic, chemical, 
# crystal, experimental, refinement or atomic coordinate data resulting 
# from the CCDC's data processing and validation procedures.
#
#######################################################################

data_QENPUX
_chemical_formula_moiety         'C45 H29 N5'
_chemical_name_systematic        
5-[4-(4,6-diphenyl-1,3,5-triazin-2-yl)phenyl]-7-phenyl-5,7-dihydroindolo[2,3-b]carbazole
_symmetry_cell_setting           monoclinic
_symmetry_space_group_name_H-M   'P c'
_symmetry_Int_Tables_number      7
_space_group_name_Hall           'P -2yc'
loop_
_symmetry_equiv_pos_site_id
_symmetry_equiv_pos_as_xyz
1 x,y,z
2 x,-y,1/2+z
_cell_length_a                   47.439(10)
_cell_length_b                   23.113(5)
_cell_length_c                   12.040(2)
_cell_angle_alpha                90
_cell_angle_beta                 90.00(3)
_cell_angle_gamma                90
_cell_volume                     13201.3
_cell_formula_units_Z            16
loop_
_atom_site_label
_atom_site_type_symbol
_atom_site_fract_x
_atom_site_fract_y
_atom_site_fract_z
N1 N 1.1450(2) 0.8498(5) 1.5434(9)
N2 N 1.1017(2) 0.9010(5) 1.5419(9)
N3 N 1.1212(2) 0.8640(5) 1.7108(9)
N4 N 1.0164(2) 1.0080(4) 1.9078(8)
N5 N 1.0124(2) 1.2117(4) 1.7636(8)
C1 C 1.1240(3) 0.8746(6) 1.4905(11)
C2 C 1.1245(3) 0.8831(6) 1.3668(11)
C3 C 1.1045(3) 0.9135(6) 1.3078(11)
H1 H 1.0895 0.9308 1.3479
C4 C 1.1050(3) 0.9201(6) 1.1950(11)
H2 H 1.0905 0.9401 1.1566
C5 C 1.1281(3) 0.8959(6) 1.1389(12)
H3 H 1.1293 0.9004 1.0606
C6 C 1.1486(3) 0.8665(6) 1.1912(11)
H4 H 1.1643 0.8521 1.1507
C7 C 1.1467(3) 0.8568(6) 1.3113(11)
H5 H 1.1600 0.8335 1.3494
C8 C 1.1425(3) 0.8438(6) 1.6482(11)
C9 C 1.1653(3) 0.8149(6) 1.7175(11)
C10 C 1.1886(3) 0.7946(6) 1.6670(12)
H6 H 1.1895 0.7991 1.5887
C11 C 1.2111(3) 0.7684(6) 1.7159(11)
H7 H 1.2268 0.7533 1.6763
C12 C 1.2084(3) 0.7663(6) 1.8345(12)
H8 H 1.2238 0.7517 1.8765
C13 C 1.1856(3) 0.7837(6) 1.8887(12)
H9 H 1.1840 0.7789 1.9668
C14 C 1.1635(3) 0.8100(6) 1.8256(11)
H10 H 1.1472 0.8241 1.8628
C15 C 1.1013(3) 0.8938(6) 1.6540(11)
C16 C 1.0776(3) 0.9206(6) 1.7210(11)
C17 C 1.0775(3) 0.9145(5) 1.8352(10)
H11 H 1.0914 0.8912 1.8703
C18 C 1.0572(3) 0.9422(5) 1.8987(11)
H12 H 1.0567 0.9372 1.9770
C19 C 1.0373(3) 0.9783(5) 1.8439(10)
C20 C 1.0358(3) 0.9830(5) 1.7316(10)
H13 H 1.0212 1.0048 1.6978
C21 C 1.0576(3) 0.9532(5) 1.6619(11)
H14 H 1.0578 0.9562 1.5832
C22 C 0.9988(3) 0.9805(5) 1.9918(10)
C23 C 0.9984(2) 0.9231(5) 2.0277(10)
H15 H 1.0107 0.8947 1.9976
C24 C 0.9788(2) 0.9100(5) 2.1107(10)
H16 H 0.9780 0.8719 2.1400
C25 C 0.9606(2) 0.9521(5) 2.1507(10)
H17 H 0.9487 0.9426 2.2115
C26 C 0.9589(3) 1.0065(5) 2.1069(10)
H18 H 0.9441 1.0321 2.1267
C27 C 0.9808(2) 1.0235(5) 2.0287(10)
C28 C 0.9861(2) 1.0795(5) 1.9671(10)
C29 C 1.0084(2) 1.0672(5) 1.8958(10)
C30 C 1.0205(2) 1.1081(5) 1.8259(10)
H19 H 1.0362 1.1000 1.7798
C31 C 1.0074(3) 1.1618(5) 1.8295(10)
C32 C 0.9836(3) 1.1750(5) 1.8975(10)
C33 C 0.9759(3) 1.2323(5) 1.8685(10)
C34 C 0.9546(2) 1.2717(5) 1.9190(10)
H20 H 0.9419 1.2590 1.9748
C35 C 0.9545(3) 1.3295(5) 1.8787(10)
H21 H 0.9416 1.3568 1.9084
C36 C 0.9733(2) 1.3461(5) 1.7954(10)
H22 H 0.9723 1.3845 1.7673
C37 C 0.9921(3) 1.3115(5) 1.7549(10)
H23 H 1.0045 1.3246 1.6985
C38 C 0.9941(3) 1.2546(5) 1.7940(10)
C39 C 1.0358(3) 1.2186(5) 1.6859(10)
C40 C 1.0630(2) 1.2126(5) 1.7230(10)
H24 H 1.0671 1.2001 1.7965
C41 C 0.9733(3) 1.1318(5) 1.9665(10)
H25 H 0.9574 1.1388 2.0125
C42 C 1.0847(3) 1.2259(5) 1.6456(10)
H26 H 1.1037 1.2240 1.6702
C43 C 1.0796(3) 1.2416(5) 1.5361(10)
H27 H 1.0946 1.2504 1.4865
C44 C 1.0509(3) 1.2440(5) 1.5019(11)
H28 H 1.0468 1.2523 1.4264
C45 C 1.0288(3) 1.2344(5) 1.5753(10)
H29 H 1.0098 1.2383 1.5524
N6 N 1.1409(2) 0.3431(5) 1.5445(9)
N7 N 1.0983(2) 0.3967(5) 1.5439(9)
N8 N 1.1168(2) 0.3646(5) 1.7159(9)
N9 N 1.0138(2) 0.5218(4) 1.8840(8)
N10 N 1.0184(2) 0.7206(4) 1.7293(8)
C46 C 1.1201(3) 0.3725(6) 1.4919(11)
C47 C 1.1215(3) 0.3741(6) 1.3689(11)
C48 C 1.0995(3) 0.4012(6) 1.3117(11)
H30 H 1.0838 0.4168 1.3500
C49 C 1.1017(3) 0.4047(6) 1.1950(11)
H31 H 1.0867 0.4230 1.1559
C50 C 1.1232(3) 0.3839(6) 1.1359(12)
H32 H 1.1232 0.3854 1.0571
C51 C 1.1470(3) 0.3589(6) 1.1969(11)
H33 H 1.1632 0.3452 1.1588
C52 C 1.1452(3) 0.3558(6) 1.3074(11)
H34 H 1.1608 0.3404 1.3470
C53 C 1.1391(3) 0.3434(6) 1.6568(11)
C54 C 1.1616(3) 0.3147(6) 1.7170(11)
C55 C 1.1601(3) 0.3107(6) 1.8409(11)
H35 H 1.1441 0.3263 1.8780
C56 C 1.1806(3) 0.2860(6) 1.9011(12)
H36 H 1.1787 0.2813 1.9791
C57 C 1.2058(3) 0.2667(6) 1.8438(12)
H37 H 1.2214 0.2529 1.8854
C58 C 1.2071(3) 0.2680(6) 1.7379(11)
H38 H 1.2232 0.2506 1.7043
C59 C 1.1863(3) 0.2937(6) 1.6643(12)
H39 H 1.1890 0.2962 1.5863
C60 C 1.0976(3) 0.3935(6) 1.6566(11)
C61 C 1.0756(3) 0.4253(5) 1.7132(11)
C62 C 1.0792(3) 0.4358(5) 1.8274(10)
H40 H 1.0959 0.4237 1.8645
C63 C 1.0580(3) 0.4641(5) 1.8844(11)
H41 H 1.0596 0.4690 1.9625
C64 C 1.0336(3) 0.4863(5) 1.8280(10)
C65 C 1.0314(3) 0.4750(5) 1.7142(10)
H42 H 1.0153 0.4881 1.6750
C66 C 1.0515(3) 0.4463(5) 1.6594(11)
H43 H 1.0493 0.4399 1.5820
C67 C 0.9960(2) 0.4986(5) 1.9673(10)
C68 C 0.9942(2) 0.4417(5) 2.0067(9)
H44 H 1.0057 0.4115 1.9786
C69 C 0.9738(2) 0.4322(5) 2.0917(10)
H45 H 0.9720 0.3944 2.1217
C70 C 0.9565(2) 0.4754(5) 2.1326(10)
H46 H 0.9433 0.4679 2.1902
C71 C 0.9592(2) 0.5295(5) 2.0862(9)
H47 H 0.9474 0.5594 2.1143
C72 C 0.9775(2) 0.5436(5) 2.0028(10)
C73 C 0.9859(2) 0.5962(5) 1.9377(10)
C74 C 1.0074(2) 0.5774(5) 1.8668(10)
C75 C 1.0213(2) 0.6177(5) 1.7897(10)
H48 H 1.0365 0.6070 1.7428
C76 C 1.0099(2) 0.6725(5) 1.7923(10)
C77 C 0.9875(2) 0.6902(5) 1.8646(10)
C78 C 0.9750(2) 0.6522(5) 1.9379(10)
H49 H 0.9600 0.6634 1.9855
C79 C 0.9825(2) 0.7505(5) 1.8434(10)
C80 C 0.9631(2) 0.7914(5) 1.8861(10)
H50 H 0.9491 0.7800 1.9380
C81 C 0.9649(2) 0.8490(5) 1.8504(9)
H51 H 0.9534 0.8780 1.8832
C82 C 0.9836(2) 0.8629(5) 1.7672(9)
H52 H 0.9837 0.9015 1.7403
C83 C 1.0024(2) 0.8239(5) 1.7202(10)
H53 H 1.0149 0.8349 1.6622
C84 C 1.0021(2) 0.7698(5) 1.7605(10)
C85 C 1.0400(2) 0.7202(5) 1.6436(10)
C86 C 1.0322(2) 0.7002(5) 1.5397(10)
H54 H 1.0134 0.6880 1.5263
C87 C 1.0517(2) 0.6982(5) 1.4565(10)
H55 H 1.0467 0.6848 1.3846
C88 C 1.0809(2) 0.7169(5) 1.4800(10)
H56 H 1.0951 0.7148 1.4244
C89 C 1.0870(3) 0.7374(5) 1.5835(10)
H57 H 1.1054 0.7520 1.5975
C90 C 1.0671(2) 0.7379(5) 1.6708(10)
H58 H 1.0720 0.7496 1.7440
N11 N 0.8576(2) 0.7882(4) 1.5097(8)
N12 N 0.8522(2) 0.9949(4) 1.6449(8)
N13 N 0.7669(2) 1.0984(5) 1.2750(9)
N14 N 0.7235(2) 1.1488(5) 1.2700(9)
N15 N 0.7476(2) 1.1340(5) 1.4438(9)
C91 C 0.7444(3) 1.1188(6) 1.2210(11)
C92 C 0.7440(3) 1.1156(6) 1.0992(11)
C93 C 0.7210(3) 1.1400(6) 1.0429(11)
H59 H 0.7067 1.1601 1.0825
C94 C 0.7195(3) 1.1340(6) 0.9245(11)
H60 H 0.7036 1.1491 0.8863
C95 C 0.7412(3) 1.1061(6) 0.8625(11)
H61 H 0.7412 1.1049 0.7837
C96 C 0.7626(3) 1.0807(6) 0.9266(11)
H62 H 0.7765 1.0584 0.8890
C97 C 0.7648(3) 1.0858(6) 1.0406(11)
H63 H 0.7804 1.0692 1.0787
C98 C 0.7264(3) 1.1528(6) 1.3843(11)
C99 C 0.7022(3) 1.1823(6) 1.4497(11)
C100 C 0.7061(3) 1.1877(6) 1.5616(11)
H64 H 0.7229 1.1757 1.5980
C101 C 0.6825(3) 1.2135(6) 1.6203(12)
H65 H 0.6840 1.2191 1.6982
C102 C 0.6573(3) 1.2308(6) 1.5661(11)
H66 H 0.6416 1.2442 1.6077
C103 C 0.6561(3) 1.2277(6) 1.4550(11)
H67 H 0.6403 1.2431 1.4163
C104 C 0.6789(3) 1.2008(6) 1.3944(12)
H68 H 0.6776 1.1960 1.3162
C105 C 0.7674(3) 1.1053(6) 1.3851(11)
C106 C 0.7901(3) 1.0784(5) 1.4489(11)
C107 C 0.7913(3) 1.0839(5) 1.5667(10)
H69 H 0.7779 1.1074 1.6045
C108 C 0.8122(3) 1.0548(5) 1.6265(11)
H70 H 0.8121 1.0576 1.7052
C109 C 0.8317(3) 1.0239(5) 1.5786(10)
C110 C 0.8323(3) 1.0175(5) 1.4631(10)
H71 H 0.8468 0.9957 1.4285
C111 C 0.8111(3) 1.0439(5) 1.3994(11)
H72 H 0.8110 1.0385 1.3212
C112 C 0.8704(2) 1.0226(5) 1.7192(10)
C113 C 0.8714(3) 1.0798(5) 1.7564(10)
H73 H 0.8595 1.1082 1.7238
C114 C 0.8892(2) 1.0946(5) 1.8378(10)
H74 H 0.8892 1.1333 1.8645
C115 C 0.9080(2) 1.0536(5) 1.8853(10)
H75 H 0.9206 1.0651 1.9425
C116 C 0.9079(2) 0.9951(5) 1.8472(10)
H76 H 0.9202 0.9672 1.8793
C117 C 0.8900(2) 0.9802(5) 1.7638(10)
C118 C 0.8842(2) 0.9289(5) 1.7039(10)
C119 C 0.8616(2) 0.9364(5) 1.6289(10)
C120 C 0.8495(3) 0.8938(5) 1.5593(10)
H77 H 0.8341 0.9013 1.5110
C121 C 0.8623(3) 0.8402(5) 1.5683(10)
C122 C 0.8849(2) 0.8266(5) 1.6444(10)
C123 C 0.8962(2) 0.8700(5) 1.7098(10)
H78 H 0.9116 0.8621 1.7580
C124 C 0.8924(3) 0.7664(5) 1.6256(10)
C125 C 0.9126(3) 0.7297(5) 1.6758(10)
H79 H 0.9255 0.7443 1.7293
C126 C 0.9131(3) 0.6724(5) 1.6449(10)
H80 H 0.9257 0.6464 1.6808
C127 C 0.8945(3) 0.6513(5) 1.5573(10)
H81 H 0.8949 0.6117 1.5361
C128 C 0.8769(3) 0.6878(5) 1.5075(10)
H82 H 0.8653 0.6744 1.4485
C129 C 0.8753(3) 0.7451(5) 1.5403(10)
C130 C 0.8329(3) 0.7801(5) 1.4339(10)
C131 C 0.8066(3) 0.7865(5) 1.4611(10)
H83 H 0.8026 0.7997 1.5341
C132 C 0.7839(3) 0.7755(5) 1.3919(10)
H84 H 0.7650 0.7786 1.4167
C133 C 0.7909(3) 0.7590(5) 1.2796(11)
H85 H 0.7765 0.7534 1.2259
C134 C 0.8178(3) 0.7518(5) 1.2528(11)
H86 H 0.8219 0.7382 1.1800
C135 C 0.8400(3) 0.7623(5) 1.3215(10)
H87 H 0.8590 0.7583 1.2974
N16 N 0.8489(2) 0.7198(4) 0.9675(9)
N17 N 0.8511(2) 0.5196(4) 1.1267(8)
N18 N 0.7674(2) 0.3978(5) 0.7783(9)
N19 N 0.7480(2) 0.3623(5) 0.9504(9)
N20 N 0.7252(2) 0.3406(5) 0.7839(9)
C136 C 0.7467(3) 0.3697(6) 0.7276(11)
C137 C 0.7452(3) 0.3731(6) 0.6017(11)
C138 C 0.7228(3) 0.3506(6) 0.5463(11)
H88 H 0.7078 0.3334 0.5868
C139 C 0.7215(3) 0.3525(6) 0.4336(11)
H89 H 0.7069 0.3337 0.3935
C140 C 0.7417(3) 0.3820(6) 0.3819(12)
H90 H 0.7394 0.3882 0.3044
C141 C 0.7651(3) 0.4039(6) 0.4295(11)
H91 H 0.7800 0.4206 0.3875
C142 C 0.7660(3) 0.4000(6) 0.5474(11)
H92 H 0.7812 0.4166 0.5874
C143 C 0.7276(3) 0.3407(6) 0.8931(11)
C144 C 0.7043(3) 0.3137(6) 0.9576(11)
C145 C 0.7050(3) 0.3109(6) 1.0713(11)
H93 H 0.7209 0.3266 1.1088
C146 C 0.6842(3) 0.2868(6) 1.1329(12)
H94 H 0.6855 0.2855 1.2116
C147 C 0.6605(3) 0.2637(6) 1.0781(12)
H95 H 0.6456 0.2471 1.1200
C148 C 0.6588(3) 0.2653(6) 0.9564(11)
H96 H 0.6431 0.2497 0.9170
C149 C 0.6810(3) 0.2906(6) 0.9035(12)
H97 H 0.6806 0.2925 0.8247
C150 C 0.7681(3) 0.3927(6) 0.8904(11)
C151 C 0.7913(3) 0.4236(6) 0.9543(11)
C152 C 0.7872(3) 0.4336(5) 1.0692(11)
H98 H 0.7714 0.4178 1.1068
C153 C 0.8070(3) 0.4669(5) 1.1263(11)
H99 H 0.8044 0.4758 1.2026
C154 C 0.8307(3) 0.4871(5) 1.0687(11)
C155 C 0.8345(3) 0.4754(5) 0.9531(10)
H100 H 0.8505 0.4903 0.9154
C156 C 0.8146(3) 0.4418(5) 0.8952(11)
H101 H 0.8171 0.4322 0.8191
C157 C 0.8699(3) 0.4983(5) 1.2111(10)
C158 C 0.8708(3) 0.4434(5) 1.2544(10)
H102 H 0.8585 0.4140 1.2285
C159 C 0.8899(2) 0.4327(5) 1.3351(10)
H103 H 0.8908 0.3949 1.3659
C160 C 0.9076(3) 0.4732(5) 1.3734(10)
H104 H 0.9207 0.4639 1.4304
C161 C 0.9068(3) 0.5305(5) 1.3285(10)
H105 H 0.9195 0.5592 1.3541
C162 C 0.8871(3) 0.5434(5) 1.2471(10)
C163 C 0.8808(3) 0.5950(5) 1.1829(10)
C164 C 0.8923(3) 0.6487(5) 1.1730(10)
H106 H 0.9086 0.6590 1.2143
C165 C 0.8799(3) 0.6880(5) 1.1019(10)
C166 C 0.8574(3) 0.6714(5) 1.0320(10)
C167 C 0.8466(3) 0.6188(5) 1.0296(10)
H107 H 0.8318 0.6085 0.9801
C168 C 0.8585(3) 0.5784(5) 1.1068(10)
C169 C 0.8853(3) 0.7501(5) 1.0789(10)
C170 C 0.9043(3) 0.7892(5) 1.1156(10)
H108 H 0.9174 0.7776 1.1712
C171 C 0.9056(3) 0.8446(5) 1.0764(10)
H109 H 0.9194 0.8713 1.1018
C172 C 0.8846(3) 0.8603(5) 0.9931(10)
H110 H 0.8846 0.8990 0.9666
C173 C 0.8649(3) 0.8230(5) 0.9506(10)
H111 H 0.8513 0.8353 0.8978
C174 C 0.8658(3) 0.7653(5) 0.9892(10)
C175 C 0.8278(3) 0.7178(5) 0.8837(10)
C176 C 0.8003(3) 0.7397(5) 0.9076(11)
H112 H 0.7960 0.7550 0.9788
C177 C 0.7804(3) 0.7382(5) 0.8271(10)
H113 H 0.7618 0.7514 0.8412
C178 C 0.7880(3) 0.7167(5) 0.7219(11)
H114 H 0.7740 0.7140 0.6657
C179 C 0.8133(3) 0.7006(5) 0.6994(11)
H115 H 0.8178 0.6891 0.6257
C180 C 0.8341(3) 0.6994(5) 0.7784(10)
H116 H 0.8525 0.6861 0.7606
N21 N 0.6442(3) 0.4027(5) 0.3245(10)
N22 N 0.6007(3) 0.3513(5) 0.3235(10)
N23 N 0.6198(3) 0.3826(5) 0.1527(10)
N24 N 0.5162(3) 0.2344(6) -0.0276(11)
N25 N 0.5156(3) 0.0346(6) 0.1145(11)
C181 C 0.6421(3) 0.4057(7) 0.2157(13)
C182 C 0.6643(3) 0.4338(7) 0.1505(13)
C183 C 0.6897(3) 0.4565(6) 0.2021(13)
H117 H 0.6912 0.4559 0.2808
C184 C 0.7107(3) 0.4777(7) 0.1444(13)
H118 H 0.7278 0.4883 0.1806
C185 C 0.7082(3) 0.4845(7) 0.0343(13)
H119 H 0.7228 0.5035 -0.0053
C186 C 0.6859(3) 0.4656(7) -0.0211(13)
H120 H 0.6848 0.4708 -0.0992
C187 C 0.6646(3) 0.4388(7) 0.0336(13)
H121 H 0.6495 0.4228 -0.0079
C188 C 0.6224(3) 0.3754(7) 0.3758(13)
C189 C 0.6242(3) 0.3723(7) 0.4995(13)
C190 C 0.6481(3) 0.3923(6) 0.5611(12)
H122 H 0.6635 0.4103 0.5244
C191 C 0.6483(3) 0.3851(6) 0.6730(13)
H123 H 0.6640 0.3989 0.7142
C192 C 0.6271(3) 0.3594(7) 0.7274(13)
H124 H 0.6276 0.3579 0.8062
C193 C 0.6038(3) 0.3341(7) 0.6698(13)
H125 H 0.5895 0.3131 0.7079
C194 C 0.6030(3) 0.3416(7) 0.5590(13)
H126 H 0.5876 0.3256 0.5187
C195 C 0.6013(3) 0.3561(7) 0.2147(13)
C196 C 0.5773(3) 0.3279(7) 0.1523(13)
C197 C 0.5548(3) 0.3012(7) 0.2048(13)
H127 H 0.5529 0.3041 0.2831
C198 C 0.5353(3) 0.2707(7) 0.1445(13)
H128 H 0.5205 0.2518 0.1833
C199 C 0.5362(3) 0.2661(7) 0.0291(13)
C200 C 0.5589(3) 0.2905(7) -0.0229(13)
H129 H 0.5612 0.2854 -0.1007
C201 C 0.5789(3) 0.3227(7) 0.0363(13)
H130 H 0.5937 0.3413 -0.0027
C202 C 0.4990(3) 0.2624(7) -0.1140(14)
C203 C 0.4985(3) 0.3169(7) -0.1538(13)
H131 H 0.5110 0.3458 -0.1269
C204 C 0.4783(3) 0.3290(7) -0.2375(13)
H132 H 0.4776 0.3666 -0.2691
C205 C 0.4595(3) 0.2861(7) -0.2745(14)
H133 H 0.4462 0.2963 -0.3302
C206 C 0.4592(3) 0.2300(7) -0.2348(13)
H134 H 0.4458 0.2026 -0.2606
C207 C 0.4802(3) 0.2147(7) -0.1514(14)
C208 C 0.4864(3) 0.1633(7) -0.0893(14)
C209 C 0.4743(4) 0.1103(7) -0.0818(14)
H135 H 0.4578 0.1020 -0.1235
C210 C 0.4853(4) 0.0701(7) -0.0174(14)
C211 C 0.5079(4) 0.0846(7) 0.0554(14)
C212 C 0.5207(4) 0.1375(7) 0.0557(14)
H136 H 0.5367 0.1461 0.1005
C213 C 0.5087(3) 0.1766(7) -0.0133(14)
C214 C 0.4790(4) 0.0075(8) 0.0084(14)
C215 C 0.4575(4) -0.0305(7) -0.0305(14)
C216 C 0.4576(4) -0.0814(8) -0.0017(14)
H137 H 0.4444 -0.1065 -0.0363
C217 C 0.4716(4) -0.1000(8) 0.0600(15)
C218 C 0.4964(4) -0.0692(7) 0.1286(15)
H138 H 0.5086 -0.0859 0.1821
C219 C 0.4957(4) -0.0094(8) 0.0894(14)
C220 C 0.5369(4) 0.0324(8) 0.2024(15)
C221 C 0.5307(4) 0.0291(8) 0.3031(14)
H139 H 0.5125 0.0382 0.3313
C222 C 0.5525(4) 0.0113(8) 0.3683(15)
H140 H 0.5484 -0.0015 0.4415
C223 C 0.5819(4) 0.0109(8) 0.3312(15)
H141 H 0.5975 0.0045 0.3795
C224 C 0.5843(4) 0.0193(8) 0.2359(15)
H142 H 0.6031 0.0214 0.2086
C225 C 0.5650(4) 0.0259(7) 0.1644(15)
H143 H 0.5692 0.0265 0.0873
N26 N 0.6427(3) 0.0965(5) -0.1825(10)
N27 N 0.6181(3) 0.1140(5) -0.3512(10)
N28 N 0.6002(3) 0.1497(5) -0.1807(10)
N29 N 0.5141(3) 0.2654(6) -0.5377(11)
N30 N 0.5163(3) 0.4659(6) -0.3852(12)
C226 C 0.6396(3) 0.0917(6) -0.2947(12)
C227 C 0.6623(3) 0.0641(6) -0.3582(12)
C228 C 0.6867(3) 0.0458(6) -0.3069(13)
H144 H 0.6894 0.0508 -0.2293
C229 C 0.7077(3) 0.0193(6) -0.3737(12)
H145 H 0.7237 0.0030 -0.3378
C230 C 0.7062(3) 0.0160(6) -0.4871(12)
H146 H 0.7210 -0.0004 -0.5300
C231 C 0.6822(3) 0.0374(6) -0.5354(13)
H147 H 0.6805 0.0355 -0.6140
C232 C 0.6599(3) 0.0621(6) -0.4748(12)
H148 H 0.6437 0.0769 -0.5113
C233 C 0.6219(3) 0.1228(6) -0.1317(12)
C234 C 0.6231(3) 0.1288(6) -0.0089(12)
C235 C 0.6448(3) 0.1022(6) 0.0495(12)
H149 H 0.6581 0.0794 0.0101
C236 C 0.6476(3) 0.1081(6) 0.1650(12)
H150 H 0.6633 0.0920 0.2026
C237 C 0.6259(3) 0.1393(6) 0.2262(13)
H151 H 0.6274 0.1458 0.3038
C238 C 0.6031(3) 0.1589(6) 0.1663(12)
H152 H 0.5877 0.1753 0.2058
C239 C 0.6013(3) 0.1558(6) 0.0489(12)
H153 H 0.5857 0.1719 0.0105
C240 C 0.5990(3) 0.1431(7) -0.2957(13)
C241 C 0.5766(3) 0.1720(7) -0.3565(13)
C242 C 0.5536(3) 0.2009(7) -0.3044(13)
H154 H 0.5519 0.1983 -0.2260
C243 C 0.5345(3) 0.2312(7) -0.3598(13)
H155 H 0.5199 0.2509 -0.3211
C244 C 0.5360(3) 0.2338(7) -0.4731(13)
C245 C 0.5572(3) 0.1987(7) -0.5314(14)
H156 H 0.5565 0.1940 -0.6098
C246 C 0.5773(3) 0.1739(7) -0.4721(13)
H157 H 0.5928 0.1567 -0.5098
C247 C 0.4953(3) 0.2417(7) -0.6151(14)
C248 C 0.4949(3) 0.1849(7) -0.6546(13)
H158 H 0.5075 0.1564 -0.6272
C249 C 0.4752(3) 0.1724(7) -0.7356(13)
H159 H 0.4736 0.1342 -0.7638
C250 C 0.4579(3) 0.2161(7) -0.7756(14)
H160 H 0.4447 0.2072 -0.8326
C251 C 0.4590(3) 0.2677(7) -0.7385(14)
H161 H 0.4471 0.2962 -0.7710
C252 C 0.4778(3) 0.2850(7) -0.6475(14)
C253 C 0.4848(3) 0.3367(7) -0.5906(14)
C254 C 0.4750(4) 0.3949(7) -0.5941(14)
H162 H 0.4613 0.4061 -0.6477
C255 C 0.4855(4) 0.4359(7) -0.5177(14)
C256 C 0.5091(4) 0.4195(7) -0.4487(14)
C257 C 0.5213(4) 0.3627(7) -0.4517(14)
H163 H 0.5377 0.3528 -0.4104
C258 C 0.5076(3) 0.3238(7) -0.5183(14)
C259 C 0.4795(2) 0.4963(3) -0.4996(9)
C260 C 0.4607(2) 0.5373(4) -0.5405(8)
H164 H 0.4475 0.5267 -0.5960
C261 C 0.4613(2) 0.5936(4) -0.5000(9)
H165 H 0.4485 0.6216 -0.5280
C262 C 0.4807(2) 0.6090(3) -0.4187(9)
H166 H 0.4811 0.6475 -0.3911
C263 C 0.4995(2) 0.5681(5) -0.3778(8)
H167 H 0.5128 0.5786 -0.3222
C264 C 0.4989(2) 0.5117(4) -0.4182(9)
C265 C 0.5390(2) 0.4725(5) -0.2987(8)
C266 C 0.5670(2) 0.4846(5) -0.3235(7)
H168 H 0.5724 0.4936 -0.3976
C267 C 0.58722(17) 0.4836(5) -0.2399(9)
H169 H 0.6064 0.4919 -0.2569
C268 C 0.5794(2) 0.4705(5) -0.1315(8)
H170 H 0.5932 0.4699 -0.0744
C269 C 0.5514(2) 0.4584(5) -0.1067(7)
H171 H 0.5461 0.4494 -0.0326
C270 C 0.53123(17) 0.4594(5) -0.1903(9)
H172 H 0.5121 0.4511 -0.1734
N31 N 0.2467(3) 0.3840(5) -0.0801(10)
N32 N 0.2234(3) 0.4040(5) 0.0913(10)
N33 N 0.2657(3) 0.3497(5) 0.0879(10)
N34 N 0.3511(3) 0.2379(6) -0.2671(11)
N35 N 0.3525(3) 0.0372(7) -0.1231(12)
C271 C 0.2448(3) 0.3753(7) 0.1378(12)
C272 C 0.2433(3) 0.3702(7) 0.2627(13)
C273 C 0.2212(3) 0.3959(7) 0.3246(13)
H173 H 0.2068 0.4171 0.2872
C274 C 0.2202(3) 0.3905(7) 0.4375(13)
H174 H 0.2055 0.4089 0.4776
C275 C 0.2400(3) 0.3590(6) 0.4941(13)
H175 H 0.2376 0.3512 0.5710
C276 C 0.2637(3) 0.3385(6) 0.4379(13)
H176 H 0.2790 0.3223 0.4783
C277 C 0.2649(3) 0.3419(6) 0.3210(12)
H177 H 0.2803 0.3251 0.2820
C278 C 0.2260(3) 0.4073(7) -0.0257(13)
C279 C 0.2016(3) 0.4359(7) -0.0838(13)
C280 C 0.1782(3) 0.4547(6) -0.0312(13)
H178 H 0.1764 0.4478 0.0463
C281 C 0.1571(3) 0.4834(7) -0.0856(13)
H179 H 0.1422 0.5008 -0.0446
C282 C 0.1574(3) 0.4871(7) -0.2009(13)
H180 H 0.1422 0.5047 -0.2400
C283 C 0.1816(3) 0.4632(6) -0.2600(13)
H181 H 0.1823 0.4639 -0.3388
C284 C 0.2032(3) 0.4398(6) -0.1999(13)
H182 H 0.2195 0.4260 -0.2373
C285 C 0.2664(3) 0.3552(7) -0.0219(13)
C286 C 0.2896(3) 0.3286(7) -0.0906(13)
C287 C 0.3117(3) 0.3033(7) -0.0359(14)
H183 H 0.3130 0.3066 0.0426
C288 C 0.3320(3) 0.2732(7) -0.0936(13)
H184 H 0.3474 0.2564 -0.0548
C289 C 0.3301(3) 0.2673(7) -0.2049(13)
C290 C 0.3073(3) 0.2953(7) -0.2595(14)
H185 H 0.3051 0.2914 -0.3376
C291 C 0.2880(3) 0.3286(7) -0.1989(13)
H186 H 0.2740 0.3507 -0.2358
C292 C 0.3692(4) 0.2606(7) -0.3457(14)
C293 C 0.3696(4) 0.3144(7) -0.3876(14)
H187 H 0.3569 0.3430 -0.3612
C294 C 0.3890(3) 0.3275(8) -0.4699(14)
H188 H 0.3905 0.3655 -0.4995
C295 C 0.4068(4) 0.2811(7) -0.5089(14)
H189 H 0.4197 0.2899 -0.5667
C296 C 0.4067(4) 0.2341(8) -0.4757(14)
H190 H 0.4193 0.2066 -0.5068
C297 C 0.3868(4) 0.2155(8) -0.3834(14)
C298 C 0.3824(4) 0.1663(8) -0.3250(14)
C299 C 0.3931(4) 0.1096(8) -0.3198(15)
H191 H 0.4090 0.1000 -0.3640
C300 C 0.3818(4) 0.0684(8) -0.2554(15)
C301 C 0.3582(4) 0.0830(8) -0.1857(15)
C302 C 0.3464(4) 0.1366(7) -0.1818(15)
H192 H 0.3306 0.1449 -0.1360
C303 C 0.3588(4) 0.1791(7) -0.2491(14)
C304 C 0.3900(4) 0.0119(8) -0.2380(15)
C305 C 0.3695(4) -0.0106(8) -0.1450(15)
C306 C 0.3678(4) -0.0684(8) -0.1023(15)
H193 H 0.3541 -0.0790 -0.0484
C307 C 0.3874(4) -0.1085(8) -0.1437(15)
H194 H 0.3875 -0.1474 -0.1182
C308 C 0.4039(4) -0.0923(8) -0.2123(15)
H195 H 0.4172 -0.1207 -0.2356
C309 C 0.4074(4) -0.0281(8) -0.2734(16)
H196 H 0.4211 -0.0210 -0.3296
C310 C 0.3315(2) 0.0351(6) -0.0483(9)
C311 C 0.33763(18) 0.0327(6) 0.0645(9)
H197 H 0.3565 0.0366 0.0894
C312 C 0.3161(2) 0.0245(6) 0.1410(7)
H198 H 0.3202 0.0228 0.2181
C313 C 0.2884(2) 0.0187(6) 0.1047(9)
H199 H 0.2736 0.0131 0.1569
C314 C 0.28230(18) 0.0212(6) -0.0082(9)
H200 H 0.2634 0.0172 -0.0330
C315 C 0.3039(2) 0.0294(6) -0.0846(7)
H201 H 0.2997 0.0310 -0.1617
N36 N 0.2494(3) 0.1156(5) 0.4146(10)
N37 N 0.2687(3) 0.1510(5) 0.5870(10)
N38 N 0.2250(3) 0.0972(5) 0.5801(10)
N39 N 0.3530(3) 0.2630(6) 0.2282(11)
N40 N 0.3522(3) 0.4658(7) 0.3710(13)
C316 C 0.2275(3) 0.0925(7) 0.4711(13)
C317 C 0.2063(3) 0.0663(7) 0.4063(13)
C318 C 0.1809(3) 0.0449(7) 0.4621(13)
H202 H 0.1797 0.0454 0.5408
C319 C 0.1586(3) 0.0237(6) 0.3986(13)
H203 H 0.1415 0.0123 0.4340
C320 C 0.1611(3) 0.0193(7) 0.2818(13)
H204 H 0.1463 0.0032 0.2388
C321 C 0.1848(3) 0.0383(7) 0.2328(13)
H205 H 0.1865 0.0346 0.1544
C322 C 0.2066(3) 0.0626(7) 0.2903(13)
H206 H 0.2224 0.0774 0.2506
C323 C 0.2454(3) 0.1240(7) 0.6355(13)
C324 C 0.2452(3) 0.1284(7) 0.7598(13)
C325 C 0.2215(3) 0.1057(7) 0.8165(13)
H207 H 0.2067 0.0870 0.7772
C326 C 0.2205(3) 0.1115(7) 0.9321(13)
H208 H 0.2048 0.0971 0.9722
C327 C 0.2423(3) 0.1380(7) 0.9881(13)
H209 H 0.2423 0.1371 1.0670
C328 C 0.2644(3) 0.1662(7) 0.9341(13)
H210 H 0.2774 0.1900 0.9730
C329 C 0.2665(3) 0.1573(7) 0.8188(13)
H211 H 0.2826 0.1711 0.7801
C330 C 0.2683(3) 0.1437(7) 0.4752(13)
C331 C 0.2903(3) 0.1724(7) 0.4146(13)
C332 C 0.3138(3) 0.2027(7) 0.4666(14)
H212 H 0.3154 0.2011 0.5452
C333 C 0.3335(3) 0.2329(7) 0.4093(13)
H213 H 0.3476 0.2544 0.4474
C334 C 0.3327(3) 0.2320(7) 0.2893(14)
C335 C 0.3120(3) 0.2026(7) 0.2339(14)
H214 H 0.3121 0.2000 0.1551
C336 C 0.2911(3) 0.1769(7) 0.2953(13)
H215 H 0.2757 0.1606 0.2554
C337 C 0.3697(4) 0.2376(8) 0.1443(14)
C338 C 0.3709(4) 0.1814(8) 0.1076(14)
H216 H 0.3589 0.1523 0.1371
C339 C 0.3902(4) 0.1694(8) 0.0261(14)
H217 H 0.3910 0.1311 -0.0022
C340 C 0.4090(4) 0.2106(7) -0.0181(15)
H218 H 0.4224 0.2002 -0.0733
C341 C 0.4072(4) 0.2721(8) 0.0255(14)
H219 H 0.4181 0.3026 -0.0055
C342 C 0.3898(4) 0.2808(8) 0.1080(15)
C343 C 0.3836(4) 0.3344(8) 0.1656(15)
C344 C 0.3601(4) 0.3215(8) 0.2382(14)
C345 C 0.3497(4) 0.3622(8) 0.3098(15)
H220 H 0.3345 0.3526 0.3580
C346 C 0.3612(4) 0.4179(8) 0.3124(15)
C347 C 0.3849(4) 0.4252(8) 0.2280(15)
C348 C 0.3954(4) 0.3889(8) 0.1572(15)
H221 H 0.4097 0.3986 0.1051
C349 C 0.3927(3) 0.4857(4) 0.2427(10)
C350 C 0.4129(2) 0.5210(5) 0.1933(9)
H222 H 0.4251 0.5057 0.1383
C351 C 0.4151(2) 0.5788(5) 0.2244(9)
H223 H 0.4289 0.6029 0.1907
C352 C 0.3972(3) 0.6012(4) 0.3049(10)
H224 H 0.3987 0.6407 0.3262
C353 C 0.3770(2) 0.5659(5) 0.3543(9)
H225 H 0.3648 0.5812 0.4093
C354 C 0.3748(2) 0.5082(5) 0.3232(10)
C355 C 0.3291(2) 0.4702(6) 0.4693(9)
C356 C 0.33537(19) 0.4534(6) 0.5773(10)
H226 H 0.3540 0.4420 0.5961
C357 C 0.3144(2) 0.4531(6) 0.6578(7)
H227 H 0.3187 0.4416 0.7316
C358 C 0.2871(2) 0.4696(6) 0.6302(9)
H228 H 0.2727 0.4694 0.6852
C359 C 0.28080(19) 0.4865(6) 0.5222(10)
H229 H 0.2621 0.4978 0.5033
C360 C 0.3018(2) 0.4867(6) 0.4417(7)
H230 H 0.2975 0.4983 0.3679
loop_
_geom_bond_atom_site_label_1
_geom_bond_atom_site_label_2
_geom_bond_site_symmetry_1
_geom_bond_site_symmetry_2
N1 C1 1_555 1_555
N2 C1 1_555 1_555
N3 C8 1_555 1_555
N4 C19 1_555 1_555
N5 C31 1_555 1_555
C1 C2 1_555 1_555
C2 C3 1_555 1_555
C3 H1 1_555 1_555
C4 C3 1_555 1_555
H2 C4 1_555 1_555
C5 C4 1_555 1_555
H3 C5 1_555 1_555
C6 C5 1_555 1_555
H4 C6 1_555 1_555
C7 C2 1_555 1_555
H5 C7 1_555 1_555
C8 N1 1_555 1_555
C9 C8 1_555 1_555
C10 C9 1_555 1_555
H6 C10 1_555 1_555
C11 C10 1_555 1_555
H7 C11 1_555 1_555
C12 C11 1_555 1_555
H8 C12 1_555 1_555
C13 C12 1_555 1_555
H9 C13 1_555 1_555
C14 C9 1_555 1_555
H10 C14 1_555 1_555
C15 N2 1_555 1_555
C16 C15 1_555 1_555
C17 C16 1_555 1_555
H11 C17 1_555 1_555
C18 C17 1_555 1_555
H12 C18 1_555 1_555
C19 C18 1_555 1_555
C20 C19 1_555 1_555
H13 C20 1_555 1_555
C21 C16 1_555 1_555
H14 C21 1_555 1_555
C22 N4 1_555 1_555
C23 C22 1_555 1_555
H15 C23 1_555 1_555
C24 C23 1_555 1_555
H16 C24 1_555 1_555
C25 C24 1_555 1_555
H17 C25 1_555 1_555
C26 C25 1_555 1_555
H18 C26 1_555 1_555
C27 C22 1_555 1_555
C28 C27 1_555 1_555
C29 N4 1_555 1_555
C30 C29 1_555 1_555
H19 C30 1_555 1_555
C31 C30 1_555 1_555
C32 C31 1_555 1_555
C33 C32 1_555 1_555
C34 C33 1_555 1_555
H20 C34 1_555 1_555
C35 C34 1_555 1_555
H21 C35 1_555 1_555
C36 C35 1_555 1_555
H22 C36 1_555 1_555
C37 C36 1_555 1_555
H23 C37 1_555 1_555
C38 N5 1_555 1_555
C39 N5 1_555 1_555
C40 C39 1_555 1_555
H24 C40 1_555 1_555
C41 C28 1_555 1_555
H25 C41 1_555 1_555
C42 C40 1_555 1_555
H26 C42 1_555 1_555
C43 C42 1_555 1_555
H27 C43 1_555 1_555
C44 C43 1_555 1_555
H28 C44 1_555 1_555
C45 C39 1_555 1_555
H29 C45 1_555 1_555
N6 C46 1_555 1_555
N7 C46 1_555 1_555
N8 C53 1_555 1_555
N9 C64 1_555 1_555
N10 C76 1_555 1_555
C46 C47 1_555 1_555
C47 C48 1_555 1_555
C48 H30 1_555 1_555
C49 C48 1_555 1_555
H31 C49 1_555 1_555
C50 C49 1_555 1_555
H32 C50 1_555 1_555
C51 C50 1_555 1_555
H33 C51 1_555 1_555
C52 C47 1_555 1_555
H34 C52 1_555 1_555
C53 N6 1_555 1_555
C54 C53 1_555 1_555
C55 C54 1_555 1_555
H35 C55 1_555 1_555
C56 C55 1_555 1_555
H36 C56 1_555 1_555
C57 C56 1_555 1_555
H37 C57 1_555 1_555
C58 C57 1_555 1_555
H38 C58 1_555 1_555
C59 C54 1_555 1_555
H39 C59 1_555 1_555
C60 N7 1_555 1_555
C61 C60 1_555 1_555
C62 C61 1_555 1_555
H40 C62 1_555 1_555
C63 C62 1_555 1_555
H41 C63 1_555 1_555
C64 C63 1_555 1_555
C65 C64 1_555 1_555
H42 C65 1_555 1_555
C66 C61 1_555 1_555
H43 C66 1_555 1_555
C67 N9 1_555 1_555
C68 C67 1_555 1_555
H44 C68 1_555 1_555
C69 C68 1_555 1_555
H45 C69 1_555 1_555
C70 C69 1_555 1_555
H46 C70 1_555 1_555
C71 C70 1_555 1_555
H47 C71 1_555 1_555
C72 C67 1_555 1_555
C73 C72 1_555 1_555
C74 N9 1_555 1_555
C75 C74 1_555 1_555
H48 C75 1_555 1_555
C76 C75 1_555 1_555
C77 C76 1_555 1_555
C78 C73 1_555 1_555
H49 C78 1_555 1_555
C79 C77 1_555 1_555
C80 C79 1_555 1_555
H50 C80 1_555 1_555
C81 C80 1_555 1_555
H51 C81 1_555 1_555
C82 C81 1_555 1_555
H52 C82 1_555 1_555
C83 C82 1_555 1_555
H53 C83 1_555 1_555
C84 N10 1_555 1_555
C85 N10 1_555 1_555
C86 C85 1_555 1_555
H54 C86 1_555 1_555
C87 C86 1_555 1_555
H55 C87 1_555 1_555
C88 C87 1_555 1_555
H56 C88 1_555 1_555
C89 C88 1_555 1_555
H57 C89 1_555 1_555
C90 C85 1_555 1_555
H58 C90 1_555 1_555
N11 C121 1_555 1_555
N12 C109 1_555 1_555
N13 C91 1_555 1_555
N14 C91 1_555 1_555
N15 C98 1_555 1_555
C91 C92 1_555 1_555
C92 C93 1_555 1_555
C93 H59 1_555 1_555
C94 C93 1_555 1_555
H60 C94 1_555 1_555
C95 C94 1_555 1_555
H61 C95 1_555 1_555
C96 C95 1_555 1_555
H62 C96 1_555 1_555
C97 C92 1_555 1_555
H63 C97 1_555 1_555
C98 N14 1_555 1_555
C99 C98 1_555 1_555
C100 C99 1_555 1_555
H64 C100 1_555 1_555
C101 C100 1_555 1_555
H65 C101 1_555 1_555
C102 C101 1_555 1_555
H66 C102 1_555 1_555
C103 C102 1_555 1_555
H67 C103 1_555 1_555
C104 C99 1_555 1_555
H68 C104 1_555 1_555
C105 N13 1_555 1_555
C106 C105 1_555 1_555
C107 C106 1_555 1_555
H69 C107 1_555 1_555
C108 C107 1_555 1_555
H70 C108 1_555 1_555
C109 C108 1_555 1_555
C110 C109 1_555 1_555
H71 C110 1_555 1_555
C111 C106 1_555 1_555
H72 C111 1_555 1_555
C112 N12 1_555 1_555
C113 C112 1_555 1_555
H73 C113 1_555 1_555
C114 C113 1_555 1_555
H74 C114 1_555 1_555
C115 C114 1_555 1_555
H75 C115 1_555 1_555
C116 C115 1_555 1_555
H76 C116 1_555 1_555
C117 C112 1_555 1_555
C118 C117 1_555 1_555
C119 N12 1_555 1_555
C120 C119 1_555 1_555
H77 C120 1_555 1_555
C121 C120 1_555 1_555
C122 C121 1_555 1_555
C123 C118 1_555 1_555
H78 C123 1_555 1_555
C124 C122 1_555 1_555
C125 C124 1_555 1_555
H79 C125 1_555 1_555
C126 C125 1_555 1_555
H80 C126 1_555 1_555
C127 C126 1_555 1_555
H81 C127 1_555 1_555
C128 C127 1_555 1_555
H82 C128 1_555 1_555
C129 N11 1_555 1_555
C130 N11 1_555 1_555
C131 C130 1_555 1_555
H83 C131 1_555 1_555
C132 C131 1_555 1_555
H84 C132 1_555 1_555
C133 C132 1_555 1_555
H85 C133 1_555 1_555
C134 C133 1_555 1_555
H86 C134 1_555 1_555
C135 C130 1_555 1_555
H87 C135 1_555 1_555
N16 C166 1_555 1_555
N17 C154 1_555 1_555
N18 C136 1_555 1_555
N19 C143 1_555 1_555
N20 C136 1_555 1_555
C136 C137 1_555 1_555
C137 C138 1_555 1_555
C138 H88 1_555 1_555
C139 C138 1_555 1_555
H89 C139 1_555 1_555
C140 C139 1_555 1_555
H90 C140 1_555 1_555
C141 C140 1_555 1_555
H91 C141 1_555 1_555
C142 C137 1_555 1_555
H92 C142 1_555 1_555
C143 N20 1_555 1_555
C144 C143 1_555 1_555
C145 C144 1_555 1_555
H93 C145 1_555 1_555
C146 C145 1_555 1_555
H94 C146 1_555 1_555
C147 C146 1_555 1_555
H95 C147 1_555 1_555
C148 C147 1_555 1_555
H96 C148 1_555 1_555
C149 C144 1_555 1_555
H97 C149 1_555 1_555
C150 N18 1_555 1_555
C151 C150 1_555 1_555
C152 C151 1_555 1_555
H98 C152 1_555 1_555
C153 C152 1_555 1_555
H99 C153 1_555 1_555
C154 C153 1_555 1_555
C155 C154 1_555 1_555
H100 C155 1_555 1_555
C156 C151 1_555 1_555
H101 C156 1_555 1_555
C157 N17 1_555 1_555
C158 C157 1_555 1_555
H102 C158 1_555 1_555
C159 C158 1_555 1_555
H103 C159 1_555 1_555
C160 C159 1_555 1_555
H104 C160 1_555 1_555
C161 C160 1_555 1_555
H105 C161 1_555 1_555
C162 C157 1_555 1_555
C163 C162 1_555 1_555
C164 C163 1_555 1_555
H106 C164 1_555 1_555
C165 C164 1_555 1_555
C166 C165 1_555 1_555
C167 C166 1_555 1_555
H107 C167 1_555 1_555
C168 N17 1_555 1_555
C169 C165 1_555 1_555
C170 C169 1_555 1_555
H108 C170 1_555 1_555
C171 C170 1_555 1_555
H109 C171 1_555 1_555
C172 C171 1_555 1_555
H110 C172 1_555 1_555
C173 C172 1_555 1_555
H111 C173 1_555 1_555
C174 N16 1_555 1_555
C175 N16 1_555 1_555
C176 C175 1_555 1_555
H112 C176 1_555 1_555
C177 C176 1_555 1_555
H113 C177 1_555 1_555
C178 C177 1_555 1_555
H114 C178 1_555 1_555
C179 C178 1_555 1_555
H115 C179 1_555 1_555
C180 C175 1_555 1_555
H116 C180 1_555 1_555
N21 C181 1_555 1_555
N22 C188 1_555 1_555
N23 C181 1_555 1_555
N24 C199 1_555 1_555
N25 C211 1_555 1_555
C181 C182 1_555 1_555
C182 C183 1_555 1_555
C183 H117 1_555 1_555
C184 C183 1_555 1_555
H118 C184 1_555 1_555
C185 C184 1_555 1_555
H119 C185 1_555 1_555
C186 C185 1_555 1_555
H120 C186 1_555 1_555
C187 C182 1_555 1_555
H121 C187 1_555 1_555
C188 N21 1_555 1_555
C189 C188 1_555 1_555
C190 C189 1_555 1_555
H122 C190 1_555 1_555
C191 C190 1_555 1_555
H123 C191 1_555 1_555
C192 C191 1_555 1_555
H124 C192 1_555 1_555
C193 C192 1_555 1_555
H125 C193 1_555 1_555
C194 C189 1_555 1_555
H126 C194 1_555 1_555
C195 N22 1_555 1_555
C196 C195 1_555 1_555
C197 C196 1_555 1_555
H127 C197 1_555 1_555
C198 C197 1_555 1_555
H128 C198 1_555 1_555
C199 C198 1_555 1_555
C200 C199 1_555 1_555
H129 C200 1_555 1_555
C201 C196 1_555 1_555
H130 C201 1_555 1_555
C202 N24 1_555 1_555
C203 C202 1_555 1_555
H131 C203 1_555 1_555
C204 C203 1_555 1_555
H132 C204 1_555 1_555
C205 C204 1_555 1_555
H133 C205 1_555 1_555
C206 C205 1_555 1_555
H134 C206 1_555 1_555
C207 C202 1_555 1_555
C208 C207 1_555 1_555
C209 C208 1_555 1_555
H135 C209 1_555 1_555
C210 C209 1_555 1_555
C211 C210 1_555 1_555
C212 C211 1_555 1_555
H136 C212 1_555 1_555
C213 N24 1_555 1_555
C214 C210 1_555 1_555
C215 C214 1_555 1_555
C216 C215 1_555 1_555
H137 C216 1_555 1_555
C217 C216 1_555 1_555
C218 C217 1_555 1_555
H138 C218 1_555 1_555
C219 N25 1_555 1_555
C220 N25 1_555 1_555
C221 C220 1_555 1_555
H139 C221 1_555 1_555
C222 C221 1_555 1_555
H140 C222 1_555 1_555
C223 C222 1_555 1_555
H141 C223 1_555 1_555
C224 C223 1_555 1_555
H142 C224 1_555 1_555
C225 C220 1_555 1_555
H143 C225 1_555 1_555
N26 C226 1_555 1_555
N27 C226 1_555 1_555
N28 C233 1_555 1_555
N29 C244 1_555 1_555
N30 C256 1_555 1_555
C226 C227 1_555 1_555
C227 C228 1_555 1_555
C228 H144 1_555 1_555
C229 C228 1_555 1_555
H145 C229 1_555 1_555
C230 C229 1_555 1_555
H146 C230 1_555 1_555
C231 C230 1_555 1_555
H147 C231 1_555 1_555
C232 C227 1_555 1_555
H148 C232 1_555 1_555
C233 N26 1_555 1_555
C234 C233 1_555 1_555
C235 C234 1_555 1_555
H149 C235 1_555 1_555
C236 C235 1_555 1_555
H150 C236 1_555 1_555
C237 C236 1_555 1_555
H151 C237 1_555 1_555
C238 C237 1_555 1_555
H152 C238 1_555 1_555
C239 C234 1_555 1_555
H153 C239 1_555 1_555
C240 N27 1_555 1_555
C241 C240 1_555 1_555
C242 C241 1_555 1_555
H154 C242 1_555 1_555
C243 C242 1_555 1_555
H155 C243 1_555 1_555
C244 C243 1_555 1_555
C245 C244 1_555 1_555
H156 C245 1_555 1_555
C246 C241 1_555 1_555
H157 C246 1_555 1_555
C247 N29 1_555 1_555
C248 C247 1_555 1_555
H158 C248 1_555 1_555
C249 C248 1_555 1_555
H159 C249 1_555 1_555
C250 C249 1_555 1_555
H160 C250 1_555 1_555
C251 C250 1_555 1_555
H161 C251 1_555 1_555
C252 C247 1_555 1_555
C253 C252 1_555 1_555
C254 C253 1_555 1_555
H162 C254 1_555 1_555
C255 C254 1_555 1_555
C256 C255 1_555 1_555
C257 C256 1_555 1_555
H163 C257 1_555 1_555
C258 N29 1_555 1_555
C259 C255 1_555 1_555
C260 C259 1_555 1_555
H164 C260 1_555 1_555
C261 C260 1_555 1_555
H165 C261 1_555 1_555
C262 C261 1_555 1_555
H166 C262 1_555 1_555
C263 C262 1_555 1_555
H167 C263 1_555 1_555
C264 N30 1_555 1_555
C265 N30 1_555 1_555
C266 C265 1_555 1_555
H168 C266 1_555 1_555
C267 C266 1_555 1_555
H169 C267 1_555 1_555
C268 C267 1_555 1_555
H170 C268 1_555 1_555
C269 C268 1_555 1_555
H171 C269 1_555 1_555
C270 C265 1_555 1_555
H172 C270 1_555 1_555
N31 C278 1_555 1_555
N32 C271 1_555 1_555
N33 C271 1_555 1_555
N34 C289 1_555 1_555
N35 C301 1_555 1_555
C271 C272 1_555 1_555
C272 C273 1_555 1_555
C273 H173 1_555 1_555
C274 C273 1_555 1_555
H174 C274 1_555 1_555
C275 C274 1_555 1_555
H175 C275 1_555 1_555
C276 C275 1_555 1_555
H176 C276 1_555 1_555
C277 C272 1_555 1_555
H177 C277 1_555 1_555
C278 N32 1_555 1_555
C279 C278 1_555 1_555
C280 C279 1_555 1_555
H178 C280 1_555 1_555
C281 C280 1_555 1_555
H179 C281 1_555 1_555
C282 C281 1_555 1_555
H180 C282 1_555 1_555
C283 C282 1_555 1_555
H181 C283 1_555 1_555
C284 C279 1_555 1_555
H182 C284 1_555 1_555
C285 N31 1_555 1_555
C286 C285 1_555 1_555
C287 C286 1_555 1_555
H183 C287 1_555 1_555
C288 C287 1_555 1_555
H184 C288 1_555 1_555
C289 C288 1_555 1_555
C290 C289 1_555 1_555
H185 C290 1_555 1_555
C291 C286 1_555 1_555
H186 C291 1_555 1_555
C292 N34 1_555 1_555
C293 C292 1_555 1_555
H187 C293 1_555 1_555
C294 C293 1_555 1_555
H188 C294 1_555 1_555
C295 C294 1_555 1_555
H189 C295 1_555 1_555
C296 C295 1_555 1_555
H190 C296 1_555 1_555
C297 C292 1_555 1_555
C298 C297 1_555 1_555
C299 C298 1_555 1_555
H191 C299 1_555 1_555
C300 C299 1_555 1_555
C301 C300 1_555 1_555
C302 C301 1_555 1_555
H192 C302 1_555 1_555
C303 N34 1_555 1_555
C304 C300 1_555 1_555
C305 N35 1_555 1_555
C306 C305 1_555 1_555
H193 C306 1_555 1_555
C307 C306 1_555 1_555
H194 C307 1_555 1_555
C308 C307 1_555 1_555
H195 C308 1_555 1_555
C309 C304 1_555 1_555
H196 C309 1_555 1_555
C310 N35 1_555 1_555
C311 C310 1_555 1_555
H197 C311 1_555 1_555
C312 C311 1_555 1_555
H198 C312 1_555 1_555
C313 C312 1_555 1_555
H199 C313 1_555 1_555
C314 C313 1_555 1_555
H200 C314 1_555 1_555
C315 C310 1_555 1_555
H201 C315 1_555 1_555
N36 C316 1_555 1_555
N37 C323 1_555 1_555
N38 C316 1_555 1_555
N39 C334 1_555 1_555
N40 C346 1_555 1_555
C316 C317 1_555 1_555
C317 C318 1_555 1_555
C318 H202 1_555 1_555
C319 C318 1_555 1_555
H203 C319 1_555 1_555
C320 C319 1_555 1_555
H204 C320 1_555 1_555
C321 C320 1_555 1_555
H205 C321 1_555 1_555
C322 C317 1_555 1_555
H206 C322 1_555 1_555
C323 N38 1_555 1_555
C324 C323 1_555 1_555
C325 C324 1_555 1_555
H207 C325 1_555 1_555
C326 C325 1_555 1_555
H208 C326 1_555 1_555
C327 C326 1_555 1_555
H209 C327 1_555 1_555
C328 C327 1_555 1_555
H210 C328 1_555 1_555
C329 C324 1_555 1_555
H211 C329 1_555 1_555
C330 N36 1_555 1_555
C331 C330 1_555 1_555
C332 C331 1_555 1_555
H212 C332 1_555 1_555
C333 C332 1_555 1_555
H213 C333 1_555 1_555
C334 C333 1_555 1_555
C335 C334 1_555 1_555
H214 C335 1_555 1_555
C336 C331 1_555 1_555
H215 C336 1_555 1_555
C337 N39 1_555 1_555
C338 C337 1_555 1_555
H216 C338 1_555 1_555
C339 C338 1_555 1_555
H217 C339 1_555 1_555
C340 C339 1_555 1_555
H218 C340 1_555 1_555
C341 C340 1_555 1_555
H219 C341 1_555 1_555
C342 C337 1_555 1_555
C343 C342 1_555 1_555
C344 N39 1_555 1_555
C345 C344 1_555 1_555
H220 C345 1_555 1_555
C346 C345 1_555 1_555
C347 C346 1_555 1_555
C348 C343 1_555 1_555
H221 C348 1_555 1_555
C349 C347 1_555 1_555
C350 C349 1_555 1_555
H222 C350 1_555 1_555
C351 C350 1_555 1_555
H223 C351 1_555 1_555
C352 C351 1_555 1_555
H224 C352 1_555 1_555
C353 C352 1_555 1_555
H225 C353 1_555 1_555
C354 N40 1_555 1_555
C355 N40 1_555 1_555
C356 C355 1_555 1_555
H226 C356 1_555 1_555
C357 C356 1_555 1_555
H227 C357 1_555 1_555
C358 C357 1_555 1_555
H228 C358 1_555 1_555
C359 C358 1_555 1_555
H229 C359 1_555 1_555
C360 C355 1_555 1_555
H230 C360 1_555 1_555
N3 C15 1_555 1_555
C6 C7 1_555 1_555
C13 C14 1_555 1_555
C20 C21 1_555 1_555
C26 C27 1_555 1_555
C28 C29 1_555 1_555
C32 C41 1_555 1_555
C33 C38 1_555 1_555
C37 C38 1_555 1_555
C44 C45 1_555 1_555
N8 C60 1_555 1_555
C51 C52 1_555 1_555
C58 C59 1_555 1_555
C65 C66 1_555 1_555
C71 C72 1_555 1_555
C73 C74 1_555 1_555
C77 C78 1_555 1_555
C79 C84 1_555 1_555
C83 C84 1_555 1_555
C89 C90 1_555 1_555
N15 C105 1_555 1_555
C96 C97 1_555 1_555
C103 C104 1_555 1_555
C110 C111 1_555 1_555
C116 C117 1_555 1_555
C118 C119 1_555 1_555
C122 C123 1_555 1_555
C124 C129 1_555 1_555
C128 C129 1_555 1_555
C134 C135 1_555 1_555
N19 C150 1_555 1_555
C141 C142 1_555 1_555
C148 C149 1_555 1_555
C155 C156 1_555 1_555
C161 C162 1_555 1_555
C163 C168 1_555 1_555
C167 C168 1_555 1_555
C169 C174 1_555 1_555
C173 C174 1_555 1_555
C179 C180 1_555 1_555
N23 C195 1_555 1_555
C186 C187 1_555 1_555
C193 C194 1_555 1_555
C200 C201 1_555 1_555
C206 C207 1_555 1_555
C208 C213 1_555 1_555
C212 C213 1_555 1_555
C214 C219 1_555 1_555
C218 C219 1_555 1_555
C224 C225 1_555 1_555
N28 C240 1_555 1_555
C231 C232 1_555 1_555
C238 C239 1_555 1_555
C245 C246 1_555 1_555
C251 C252 1_555 1_555
C253 C258 1_555 1_555
C257 C258 1_555 1_555
C259 C264 1_555 1_555
C263 C264 1_555 1_555
C269 C270 1_555 1_555
N33 C285 1_555 1_555
C276 C277 1_555 1_555
C283 C284 1_555 1_555
C290 C291 1_555 1_555
C296 C297 1_555 1_555
C298 C303 1_555 1_555
C302 C303 1_555 1_555
C304 C305 1_555 1_555
C308 C309 1_555 1_555
C314 C315 1_555 1_555
N37 C330 1_555 1_555
C321 C322 1_555 1_555
C328 C329 1_555 1_555
C335 C336 1_555 1_555
C341 C342 1_555 1_555
C343 C344 1_555 1_555
C347 C348 1_555 1_555
C349 C354 1_555 1_555
C353 C354 1_555 1_555
C359 C360 1_555 1_555

#END
