
#######################################################################
#
#                 Cambridge Crystallographic Data Centre
#                                CCDC 
#
#######################################################################
#
# If this CIF has been generated from an entry in the Cambridge 
# Structural Database, then it will include bibliographic, chemical, 
# crystal, experimental, refinement or atomic coordinate data resulting 
# from the CCDC's data processing and validation procedures.
#
#######################################################################

data_QENQOP
_chemical_formula_moiety         'C92 H166 O8 Si10'
_chemical_name_systematic        
(all-E)-3,4,9,10,15,16,21,22-octakis((t-Butyl(dimethyl)siloxy)methyl)-1,24-bis(triethylsiloxy)-tetracosa-3,9,15,21-tetraene-1,5,7,11,13,17,19,23-octayne
_symmetry_cell_setting           triclinic
_symmetry_space_group_name_H-M   'P -1'
_symmetry_Int_Tables_number      2
_space_group_name_Hall           '-P 1'
loop_
_symmetry_equiv_pos_site_id
_symmetry_equiv_pos_as_xyz
1 x,y,z
2 -x,-y,-z
_cell_length_a                   6.625(86)
_cell_length_b                   13.174(90)
_cell_length_c                   32.726(92)
_cell_angle_alpha                86.17(9)
_cell_angle_beta                 89.59(9)
_cell_angle_gamma                84.28(10)
_cell_volume                     2835.68
_exptl_crystal_colour            yellow
_cell_formula_units_Z            1
_exptl_crystal_recrystallization_method 
dichloromethane/methanol/dimethylsulfoxide
loop_
_atom_site_label
_atom_site_type_symbol
_atom_site_fract_x
_atom_site_fract_y
_atom_site_fract_z
C1 C -0.7235(18) 0.2236(11) -0.4062(3)
C2 C -0.6811(16) 0.1882(9) -0.3731(3)
C3 C -0.6446(15) 0.1456(8) -0.3300(3)
C4 C -0.4997(15) 0.1764(7) -0.3098(3)
C5 C -0.4466(15) 0.1431(8) -0.2668(3)
C6 C -0.3989(15) 0.1165(8) -0.2325(3)
C7 C -0.3495(14) 0.0859(7) -0.1895(3)
C8 C -0.3038(14) 0.0647(8) -0.1556(3)
C9 C -0.2600(15) 0.0318(7) -0.1159(3)
C10 C -0.1179(14) 0.0741(7) -0.0961(3)
C11 C -0.0772(14) 0.0378(7) -0.0539(3)
C12 C -0.0325(13) 0.0131(7) -0.0188(3)
Si1 Si -0.9476(8) -0.0828(4) -0.3428(2)
C13 C -0.8441(24) -0.1929(13) -0.3706(6)
C14 C -1.1139(24) -0.1128(12) -0.2948(5)
H1 H -1.0278(24) -0.1472(12) -0.2737(5)
H2 H -1.1791(24) -0.0505(12) -0.2852(5)
H3 H -1.2149(24) -0.1561(12) -0.3018(5)
C15 C -1.1520(21) -0.0091(15) -0.3824(5)
H4 H -1.0831(21) 0.0092(15) -0.4074(5)
H5 H -1.2524(21) -0.0540(15) -0.3880(5)
H6 H -1.2166(21) 0.0516(15) -0.3714(5)
O1 O -0.7816(12) -0.0080(7) -0.3371(3)
C16 C -0.6962(34) -0.2569(16) -0.3358(9)
H7 H -0.6299(34) -0.3183(16) -0.3460(9)
H8 H -0.5962(34) -0.2133(16) -0.3286(9)
H9 H -0.7754(34) -0.2738(16) -0.3121(9)
C17 C -0.7456(27) -0.1426(15) -0.4113(6)
H10 H -0.6882(27) -0.1949(15) -0.4282(6)
H11 H -0.8508(27) -0.1005(15) -0.4261(6)
H12 H -0.6419(27) -0.1014(15) -0.4038(6)
C18 C -1.0334(22) -0.2542(11) -0.3800(6)
H13 H -0.9898(22) -0.3133(11) -0.3947(6)
H14 H -1.0945(22) -0.2754(11) -0.3546(6)
H15 H -1.1306(22) -0.2101(11) -0.3962(6)
C19 C -0.7604(18) 0.0638(10) -0.3135(3)
H16 H -0.8942(18) 0.0938(10) -0.3073(3)
H17 H -0.6993(18) 0.0354(10) -0.2883(3)
Si2 Si -0.1866(7) 0.4086(4) -0.2893(2)
C20 C -0.1050(24) 0.3999(12) -0.2350(5)
C21 C 0.0469(20) 0.4269(12) -0.3257(4)
H18 H 0.1404(20) 0.3662(12) -0.3238(4)
H19 H 0.0005(20) 0.4400(12) -0.3535(4)
H20 H 0.1136(20) 0.4838(12) -0.3177(4)
C22 C -0.3601(24) 0.5394(13) -0.2984(8)
H21 H -0.4787(24) 0.5361(13) -0.2815(8)
H22 H -0.2868(24) 0.5945(13) -0.2908(8)
H23 H -0.4000(24) 0.5507(13) -0.3266(8)
O2 O -0.3110(14) 0.3161(7) -0.2995(3)
C23 C -0.3113(26) 0.4010(14) -0.2109(5)
H24 H -0.2865(26) 0.3973(14) -0.1820(5)
H25 H -0.3964(26) 0.4625(14) -0.2186(5)
H26 H -0.3775(26) 0.3428(14) -0.2177(5)
C24 C 0.0525(21) 0.2947(12) -0.2344(5)
H27 H 0.1091(21) 0.2797(12) -0.2075(5)
H28 H -0.0227(21) 0.2397(12) -0.2415(5)
H29 H 0.1598(21) 0.3024(12) -0.2539(5)
C25 C -0.0153(21) 0.5111(11) -0.2303(4)
H30 H 0.0316(21) 0.5148(11) -0.2028(4)
H31 H 0.0953(21) 0.5180(11) -0.2491(4)
H32 H -0.1209(21) 0.5653(11) -0.2364(4)
C26 C -0.3713(17) 0.2578(9) -0.3248(3)
H33 H -0.4469(17) 0.2995(9) -0.3457(3)
H34 H -0.2537(17) 0.2253(9) -0.3376(3)
Si3 Si 0.1855(6) 0.3064(4) -0.08253(14)
C27 C 0.2879(21) 0.2989(11) -0.0307(4)
C28 C 0.3868(18) 0.3241(10) -0.1257(4)
H35 H 0.4863(18) 0.2658(10) -0.1242(4)
H36 H 0.3214(18) 0.3300(10) -0.1519(4)
H37 H 0.4520(18) 0.3848(10) -0.1220(4)
C29 C -0.0126(19) 0.4407(9) -0.0913(6)
H38 H -0.1184(19) 0.4390(9) -0.0712(6)
H39 H 0.0597(19) 0.4994(9) -0.0883(6)
H40 H -0.0709(19) 0.4446(9) -0.1182(6)
O3 O 0.0425(12) 0.2151(6) -0.0900(2)
C30 C 0.0885(22) 0.3012(11) -0.0023(4)
H41 H 0.1293(22) 0.2969(11) 0.0259(4)
H42 H 0.0035(22) 0.3638(11) -0.0083(4)
H43 H 0.0146(22) 0.2442(11) -0.0072(4)
C31 C 0.4318(20) 0.1925(11) -0.0287(5)
H44 H 0.4924(20) 0.1813(11) -0.0020(5)
H45 H 0.3513(20) 0.1378(11) -0.0334(5)
H46 H 0.5365(20) 0.1949(11) -0.0491(5)
C32 C 0.3910(16) 0.4032(9) -0.0259(4)
H47 H 0.4463(16) 0.4017(9) 0.0012(4)
H48 H 0.4979(16) 0.4080(9) -0.0457(4)
H49 H 0.2922(16) 0.4613(9) -0.0301(4)
C33 C -0.0014(16) 0.1540(8) -0.1154(3)
H50 H -0.0799(16) 0.1904(8) -0.1372(3)
H51 H 0.1209(16) 0.1224(8) -0.1269(3)
Si4 Si -0.5665(7) -0.2000(4) -0.1294(2)
C34 C -0.6546(30) -0.2045(14) -0.1815(6)
C35 C -0.7756(18) -0.2216(12) -0.0880(4)
H52 H -0.8728(18) -0.1624(12) -0.0883(4)
H53 H -0.8428(18) -0.2802(12) -0.0940(4)
H54 H -0.7139(18) -0.2331(12) -0.0614(4)
C36 C -0.3866(22) -0.3402(11) -0.1187(6)
H55 H -0.2729(22) -0.3427(11) -0.1371(6)
H56 H -0.3387(22) -0.3476(11) -0.0909(6)
H57 H -0.4676(22) -0.3947(11) -0.1235(6)
O4 O -0.4165(12) -0.1168(6) -0.1217(2)
C37 C -0.4343(22) -0.2104(14) -0.2062(4)
H58 H -0.4564(22) -0.2129(14) -0.2351(4)
H59 H -0.3669(22) -0.1511(14) -0.2013(4)
H60 H -0.3515(22) -0.2708(14) -0.1962(4)
C38 C -0.8018(20) -0.0909(11) -0.1814(5)
H61 H -0.8696(20) -0.0748(11) -0.2072(5)
H62 H -0.9008(20) -0.0967(11) -0.1601(5)
H63 H -0.7190(20) -0.0375(11) -0.1761(5)
C39 C -0.7590(23) -0.3176(10) -0.1789(5)
H64 H -0.8131(23) -0.3298(10) -0.2050(5)
H65 H -0.6557(23) -0.3714(10) -0.1709(5)
H66 H -0.8657(23) -0.3157(10) -0.1589(5)
C40 C -0.3715(15) -0.0561(8) -0.0978(3)
H67 H -0.4930(15) -0.0280(8) -0.0848(3)
H68 H -0.2883(15) -0.0931(8) -0.0767(3)
Si5 Si -0.7835(9) 0.2802(6) -0.4556(2)
C41 C -0.5978(42) 0.2255(18) -0.4950(7)
H69 H -0.4612(42) 0.2234(18) -0.4851(7)
H70 H -0.6095(42) 0.2662(18) -0.5205(7)
C42 C -1.0504(24) 0.2432(24) -0.4633(6)
H71 H -1.0450(24) 0.1702(24) -0.4587(6)
H72 H -1.0944(24) 0.2619(24) -0.4909(6)
C43 C -0.8474(45) 0.4243(18) -0.4471(8)
H73 H -0.9277(45) 0.4257(18) -0.4226(8)
H74 H -0.9273(45) 0.4598(18) -0.4690(8)
C44 C -0.6675(37) 0.4747(16) -0.4328(8)
H75 H -0.7060(37) 0.5440(16) -0.4265(8)
H76 H -0.5887(37) 0.4397(16) -0.4107(8)
H77 H -0.5881(37) 0.4742(16) -0.4575(8)
C45 C -0.6447(56) 0.1158(17) -0.5012(8)
H78 H -0.5553(56) 0.0834(17) -0.5207(8)
H79 H -0.6331(56) 0.0767(17) -0.4754(8)
H80 H -0.7819(56) 0.1196(17) -0.5109(8)
C46 C -1.2015(40) 0.2901(51) -0.4333(15)
H81 H -1.3353(40) 0.2698(51) -0.4366(15)
H82 H -1.1552(40) 0.2708(51) -0.4059(15)
H83 H -1.2048(40) 0.3629(51) -0.4382(15)
C12A C 0.0325(13) -0.0131(7) 0.0188(3)
C11A C 0.0772(14) -0.0378(7) 0.0539(3)
C10A C 0.1179(14) -0.0741(7) 0.0961(3)
C9A C 0.2600(15) -0.0318(7) 0.1159(3)
C8A C 0.3038(14) -0.0647(8) 0.1556(3)
C7A C 0.3495(14) -0.0859(7) 0.1895(3)
C6A C 0.3989(15) -0.1165(8) 0.2325(3)
C5A C 0.4466(15) -0.1431(8) 0.2668(3)
C4A C 0.4997(15) -0.1764(7) 0.3098(3)
C3A C 0.6446(15) -0.1456(8) 0.3300(3)
C2A C 0.6811(16) -0.1882(9) 0.3731(3)
C1A C 0.7235(18) -0.2236(11) 0.4062(3)
Si5A Si 0.7835(9) -0.2802(6) 0.4556(2)
C41A C 0.5978(42) -0.2255(18) 0.4950(7)
H69A H 0.4612(42) -0.2234(18) 0.4851(7)
H70A H 0.6095(42) -0.2662(18) 0.5205(7)
C45A C 0.6447(56) -0.1158(17) 0.5012(8)
H78A H 0.5553(56) -0.0834(17) 0.5207(8)
H79A H 0.6331(56) -0.0767(17) 0.4754(8)
H80A H 0.7819(56) -0.1196(17) 0.5109(8)
C42A C 1.0504(24) -0.2432(24) 0.4633(6)
H71A H 1.0450(24) -0.1702(24) 0.4587(6)
H72A H 1.0944(24) -0.2619(24) 0.4909(6)
C46A C 1.2015(40) -0.2901(51) 0.4333(15)
H81A H 1.3353(40) -0.2698(51) 0.4366(15)
H82A H 1.1552(40) -0.2708(51) 0.4059(15)
H83A H 1.2048(40) -0.3629(51) 0.4382(15)
C43A C 0.8474(45) -0.4243(18) 0.4471(8)
H73A H 0.9277(45) -0.4257(18) 0.4226(8)
H74A H 0.9273(45) -0.4598(18) 0.4690(8)
C44A C 0.6675(37) -0.4747(16) 0.4328(8)
H75A H 0.7060(37) -0.5440(16) 0.4265(8)
H76A H 0.5887(37) -0.4397(16) 0.4107(8)
H77A H 0.5881(37) -0.4742(16) 0.4575(8)
C19A C 0.7604(18) -0.0638(10) 0.3135(3)
O1A O 0.7816(12) 0.0080(7) 0.3371(3)
Si1A Si 0.9476(8) 0.0828(4) 0.3428(2)
C13A C 0.8441(24) 0.1929(13) 0.3706(6)
C16A C 0.6962(34) 0.2569(16) 0.3358(9)
H7A H 0.6299(34) 0.3183(16) 0.3460(9)
H8A H 0.5962(34) 0.2133(16) 0.3286(9)
H9A H 0.7754(34) 0.2738(16) 0.3121(9)
C17A C 0.7456(27) 0.1426(15) 0.4113(6)
H10A H 0.6882(27) 0.1949(15) 0.4282(6)
H11A H 0.8508(27) 0.1005(15) 0.4261(6)
H12A H 0.6419(27) 0.1014(15) 0.4038(6)
C18A C 1.0334(22) 0.2542(11) 0.3800(6)
H13A H 0.9898(22) 0.3133(11) 0.3947(6)
H14A H 1.0945(22) 0.2754(11) 0.3546(6)
H15A H 1.1306(22) 0.2101(11) 0.3962(6)
C14A C 1.1139(24) 0.1128(12) 0.2948(5)
H1A H 1.0278(24) 0.1472(12) 0.2737(5)
H2A H 1.1791(24) 0.0505(12) 0.2852(5)
H3A H 1.2149(24) 0.1561(12) 0.3018(5)
C15A C 1.1520(21) 0.0091(15) 0.3824(5)
H4A H 1.0831(21) -0.0092(15) 0.4074(5)
H5A H 1.2524(21) 0.0540(15) 0.3880(5)
H6A H 1.2166(21) -0.0516(15) 0.3714(5)
H16A H 0.8942(18) -0.0938(10) 0.3073(3)
H17A H 0.6993(18) -0.0354(10) 0.2883(3)
C26A C 0.3713(17) -0.2578(9) 0.3248(3)
O2A O 0.3110(14) -0.3161(7) 0.2995(3)
Si2A Si 0.1866(7) -0.4086(4) 0.2893(2)
C20A C 0.1050(24) -0.3999(12) 0.2350(5)
C23A C 0.3113(26) -0.4010(14) 0.2109(5)
H24A H 0.2865(26) -0.3973(14) 0.1820(5)
H25A H 0.3964(26) -0.4625(14) 0.2186(5)
H26A H 0.3775(26) -0.3428(14) 0.2177(5)
C24A C -0.0525(21) -0.2947(12) 0.2344(5)
H27A H -0.1091(21) -0.2797(12) 0.2075(5)
H28A H 0.0227(21) -0.2397(12) 0.2415(5)
H29A H -0.1598(21) -0.3024(12) 0.2539(5)
C25A C 0.0153(21) -0.5111(11) 0.2303(4)
H30A H -0.0316(21) -0.5148(11) 0.2028(4)
H31A H -0.0953(21) -0.5180(11) 0.2491(4)
H32A H 0.1209(21) -0.5653(11) 0.2364(4)
C21A C -0.0469(20) -0.4269(12) 0.3257(4)
H18A H -0.1404(20) -0.3662(12) 0.3238(4)
H19A H -0.0005(20) -0.4400(12) 0.3535(4)
H20A H -0.1136(20) -0.4838(12) 0.3177(4)
C22A C 0.3601(24) -0.5394(13) 0.2984(8)
H21A H 0.4787(24) -0.5361(13) 0.2815(8)
H22A H 0.2868(24) -0.5945(13) 0.2908(8)
H23A H 0.4000(24) -0.5507(13) 0.3266(8)
H33A H 0.4469(17) -0.2995(9) 0.3457(3)
H34A H 0.2537(17) -0.2253(9) 0.3376(3)
C40A C 0.3715(15) 0.0561(8) 0.0978(3)
O4A O 0.4165(12) 0.1168(6) 0.1217(2)
Si4A Si 0.5665(7) 0.2000(4) 0.1294(2)
C34A C 0.6546(30) 0.2045(14) 0.1815(6)
C37A C 0.4343(22) 0.2104(14) 0.2062(4)
H58A H 0.4564(22) 0.2129(14) 0.2351(4)
H59A H 0.3669(22) 0.1511(14) 0.2013(4)
H60A H 0.3515(22) 0.2708(14) 0.1962(4)
C38A C 0.8018(20) 0.0909(11) 0.1814(5)
H61A H 0.8696(20) 0.0748(11) 0.2072(5)
H62A H 0.9008(20) 0.0967(11) 0.1601(5)
H63A H 0.7190(20) 0.0375(11) 0.1761(5)
C39A C 0.7590(23) 0.3176(10) 0.1789(5)
H64A H 0.8131(23) 0.3298(10) 0.2050(5)
H65A H 0.6557(23) 0.3714(10) 0.1709(5)
H66A H 0.8657(23) 0.3157(10) 0.1589(5)
C35A C 0.7756(18) 0.2216(12) 0.0880(4)
H52A H 0.8728(18) 0.1624(12) 0.0883(4)
H53A H 0.8428(18) 0.2802(12) 0.0940(4)
H54A H 0.7139(18) 0.2331(12) 0.0614(4)
C36A C 0.3866(22) 0.3402(11) 0.1187(6)
H55A H 0.2729(22) 0.3427(11) 0.1371(6)
H56A H 0.3387(22) 0.3476(11) 0.0909(6)
H57A H 0.4676(22) 0.3947(11) 0.1235(6)
H67A H 0.4930(15) 0.0280(8) 0.0848(3)
H68A H 0.2883(15) 0.0931(8) 0.0767(3)
C33A C 0.0014(16) -0.1540(8) 0.1154(3)
O3A O -0.0425(12) -0.2151(6) 0.0900(2)
Si3A Si -0.1855(6) -0.3064(4) 0.08253(14)
C27A C -0.2879(21) -0.2989(11) 0.0307(4)
C30A C -0.0885(22) -0.3012(11) 0.0023(4)
H41A H -0.1293(22) -0.2969(11) -0.0259(4)
H42A H -0.0035(22) -0.3638(11) 0.0083(4)
H43A H -0.0146(22) -0.2442(11) 0.0072(4)
C31A C -0.4318(20) -0.1925(11) 0.0287(5)
H44A H -0.4924(20) -0.1813(11) 0.0020(5)
H45A H -0.3513(20) -0.1378(11) 0.0334(5)
H46A H -0.5365(20) -0.1949(11) 0.0491(5)
C32A C -0.3910(16) -0.4032(9) 0.0259(4)
H47A H -0.4463(16) -0.4017(9) -0.0012(4)
H48A H -0.4979(16) -0.4080(9) 0.0457(4)
H49A H -0.2922(16) -0.4613(9) 0.0301(4)
C28A C -0.3868(18) -0.3241(10) 0.1257(4)
H35A H -0.4863(18) -0.2658(10) 0.1242(4)
H36A H -0.3214(18) -0.3300(10) 0.1519(4)
H37A H -0.4520(18) -0.3848(10) 0.1220(4)
C29A C 0.0126(19) -0.4407(9) 0.0913(6)
H38A H 0.1184(19) -0.4390(9) 0.0712(6)
H39A H -0.0597(19) -0.4994(9) 0.0883(6)
H40A H 0.0709(19) -0.4446(9) 0.1182(6)
H50A H 0.0799(16) -0.1904(8) 0.1372(3)
H51A H -0.1209(16) -0.1224(8) 0.1269(3)
loop_
_geom_bond_atom_site_label_1
_geom_bond_atom_site_label_2
_geom_bond_site_symmetry_1
_geom_bond_site_symmetry_2
C1 C2 1_555 1_555
C2 C3 1_555 1_555
C3 C4 1_555 1_555
C4 C5 1_555 1_555
C5 C6 1_555 1_555
C6 C7 1_555 1_555
C7 C8 1_555 1_555
C8 C9 1_555 1_555
C9 C10 1_555 1_555
C10 C11 1_555 1_555
C11 C12 1_555 1_555
C12 C12A 1_555 1_555
Si1 C13 1_555 1_555
C13 C16 1_555 1_555
C14 Si1 1_555 1_555
H1 C14 1_555 1_555
H2 C14 1_555 1_555
H3 C14 1_555 1_555
C15 Si1 1_555 1_555
H4 C15 1_555 1_555
H5 C15 1_555 1_555
H6 C15 1_555 1_555
O1 Si1 1_555 1_555
C16 H7 1_555 1_555
H8 C16 1_555 1_555
H9 C16 1_555 1_555
C17 C13 1_555 1_555
H10 C17 1_555 1_555
H11 C17 1_555 1_555
H12 C17 1_555 1_555
C18 C13 1_555 1_555
H13 C18 1_555 1_555
H14 C18 1_555 1_555
H15 C18 1_555 1_555
C19 C3 1_555 1_555
H16 C19 1_555 1_555
H17 C19 1_555 1_555
Si2 C20 1_555 1_555
C20 C23 1_555 1_555
C21 Si2 1_555 1_555
H18 C21 1_555 1_555
H19 C21 1_555 1_555
H20 C21 1_555 1_555
C22 Si2 1_555 1_555
H21 C22 1_555 1_555
H22 C22 1_555 1_555
H23 C22 1_555 1_555
O2 Si2 1_555 1_555
C23 H24 1_555 1_555
H25 C23 1_555 1_555
H26 C23 1_555 1_555
C24 C20 1_555 1_555
H27 C24 1_555 1_555
H28 C24 1_555 1_555
H29 C24 1_555 1_555
C25 C20 1_555 1_555
H30 C25 1_555 1_555
H31 C25 1_555 1_555
H32 C25 1_555 1_555
C26 C4 1_555 1_555
H33 C26 1_555 1_555
H34 C26 1_555 1_555
Si3 C27 1_555 1_555
C27 C30 1_555 1_555
C28 Si3 1_555 1_555
H35 C28 1_555 1_555
H36 C28 1_555 1_555
H37 C28 1_555 1_555
C29 Si3 1_555 1_555
H38 C29 1_555 1_555
H39 C29 1_555 1_555
H40 C29 1_555 1_555
O3 Si3 1_555 1_555
C30 H41 1_555 1_555
H42 C30 1_555 1_555
H43 C30 1_555 1_555
C31 C27 1_555 1_555
H44 C31 1_555 1_555
H45 C31 1_555 1_555
H46 C31 1_555 1_555
C32 C27 1_555 1_555
H47 C32 1_555 1_555
H48 C32 1_555 1_555
H49 C32 1_555 1_555
C33 C10 1_555 1_555
H50 C33 1_555 1_555
H51 C33 1_555 1_555
Si4 C34 1_555 1_555
C34 C37 1_555 1_555
C35 Si4 1_555 1_555
H52 C35 1_555 1_555
H53 C35 1_555 1_555
H54 C35 1_555 1_555
C36 Si4 1_555 1_555
H55 C36 1_555 1_555
H56 C36 1_555 1_555
H57 C36 1_555 1_555
O4 Si4 1_555 1_555
C37 H58 1_555 1_555
H59 C37 1_555 1_555
H60 C37 1_555 1_555
C38 C34 1_555 1_555
H61 C38 1_555 1_555
H62 C38 1_555 1_555
H63 C38 1_555 1_555
C39 C34 1_555 1_555
H64 C39 1_555 1_555
H65 C39 1_555 1_555
H66 C39 1_555 1_555
C40 C9 1_555 1_555
H67 C40 1_555 1_555
H68 C40 1_555 1_555
Si5 C1 1_555 1_555
C41 Si5 1_555 1_555
H69 C41 1_555 1_555
H70 C41 1_555 1_555
C42 Si5 1_555 1_555
H71 C42 1_555 1_555
H72 C42 1_555 1_555
C43 Si5 1_555 1_555
H73 C43 1_555 1_555
H74 C43 1_555 1_555
C44 C43 1_555 1_555
H75 C44 1_555 1_555
H76 C44 1_555 1_555
H77 C44 1_555 1_555
C45 C41 1_555 1_555
H78 C45 1_555 1_555
H79 C45 1_555 1_555
H80 C45 1_555 1_555
C46 C42 1_555 1_555
H81 C46 1_555 1_555
H82 C46 1_555 1_555
H83 C46 1_555 1_555
C12A C11A 1_555 1_555
C11A C10A 1_555 1_555
C10A C9A 1_555 1_555
C9A C8A 1_555 1_555
C8A C7A 1_555 1_555
C7A C6A 1_555 1_555
C6A C5A 1_555 1_555
C5A C4A 1_555 1_555
C4A C3A 1_555 1_555
C3A C2A 1_555 1_555
C2A C1A 1_555 1_555
C1A Si5A 1_555 1_555
Si5A C41A 1_555 1_555
C41A H69A 1_555 1_555
H70A C41A 1_555 1_555
C45A C41A 1_555 1_555
H78A C45A 1_555 1_555
H79A C45A 1_555 1_555
H80A C45A 1_555 1_555
C42A Si5A 1_555 1_555
H71A C42A 1_555 1_555
H72A C42A 1_555 1_555
C46A C42A 1_555 1_555
H81A C46A 1_555 1_555
H82A C46A 1_555 1_555
H83A C46A 1_555 1_555
C43A Si5A 1_555 1_555
H73A C43A 1_555 1_555
H74A C43A 1_555 1_555
C44A C43A 1_555 1_555
H75A C44A 1_555 1_555
H76A C44A 1_555 1_555
H77A C44A 1_555 1_555
C19A C3A 1_555 1_555
O1A C19A 1_555 1_555
Si1A O1A 1_555 1_555
C13A Si1A 1_555 1_555
C16A C13A 1_555 1_555
H7A C16A 1_555 1_555
H8A C16A 1_555 1_555
H9A C16A 1_555 1_555
C17A C13A 1_555 1_555
H10A C17A 1_555 1_555
H11A C17A 1_555 1_555
H12A C17A 1_555 1_555
C18A C13A 1_555 1_555
H13A C18A 1_555 1_555
H14A C18A 1_555 1_555
H15A C18A 1_555 1_555
C14A Si1A 1_555 1_555
H1A C14A 1_555 1_555
H2A C14A 1_555 1_555
H3A C14A 1_555 1_555
C15A Si1A 1_555 1_555
H4A C15A 1_555 1_555
H5A C15A 1_555 1_555
H6A C15A 1_555 1_555
H16A C19A 1_555 1_555
H17A C19A 1_555 1_555
C26A C4A 1_555 1_555
O2A C26A 1_555 1_555
Si2A O2A 1_555 1_555
C20A Si2A 1_555 1_555
C23A C20A 1_555 1_555
H24A C23A 1_555 1_555
H25A C23A 1_555 1_555
H26A C23A 1_555 1_555
C24A C20A 1_555 1_555
H27A C24A 1_555 1_555
H28A C24A 1_555 1_555
H29A C24A 1_555 1_555
C25A C20A 1_555 1_555
H30A C25A 1_555 1_555
H31A C25A 1_555 1_555
H32A C25A 1_555 1_555
C21A Si2A 1_555 1_555
H18A C21A 1_555 1_555
H19A C21A 1_555 1_555
H20A C21A 1_555 1_555
C22A Si2A 1_555 1_555
H21A C22A 1_555 1_555
H22A C22A 1_555 1_555
H23A C22A 1_555 1_555
H33A C26A 1_555 1_555
H34A C26A 1_555 1_555
C40A C9A 1_555 1_555
O4A C40A 1_555 1_555
Si4A O4A 1_555 1_555
C34A Si4A 1_555 1_555
C37A C34A 1_555 1_555
H58A C37A 1_555 1_555
H59A C37A 1_555 1_555
H60A C37A 1_555 1_555
C38A C34A 1_555 1_555
H61A C38A 1_555 1_555
H62A C38A 1_555 1_555
H63A C38A 1_555 1_555
C39A C34A 1_555 1_555
H64A C39A 1_555 1_555
H65A C39A 1_555 1_555
H66A C39A 1_555 1_555
C35A Si4A 1_555 1_555
H52A C35A 1_555 1_555
H53A C35A 1_555 1_555
H54A C35A 1_555 1_555
C36A Si4A 1_555 1_555
H55A C36A 1_555 1_555
H56A C36A 1_555 1_555
H57A C36A 1_555 1_555
H67A C40A 1_555 1_555
H68A C40A 1_555 1_555
C33A C10A 1_555 1_555
O3A C33A 1_555 1_555
Si3A O3A 1_555 1_555
C27A Si3A 1_555 1_555
C30A C27A 1_555 1_555
H41A C30A 1_555 1_555
H42A C30A 1_555 1_555
H43A C30A 1_555 1_555
C31A C27A 1_555 1_555
H44A C31A 1_555 1_555
H45A C31A 1_555 1_555
H46A C31A 1_555 1_555
C32A C27A 1_555 1_555
H47A C32A 1_555 1_555
H48A C32A 1_555 1_555
H49A C32A 1_555 1_555
C28A Si3A 1_555 1_555
H35A C28A 1_555 1_555
H36A C28A 1_555 1_555
H37A C28A 1_555 1_555
C29A Si3A 1_555 1_555
H38A C29A 1_555 1_555
H39A C29A 1_555 1_555
H40A C29A 1_555 1_555
H50A C33A 1_555 1_555
H51A C33A 1_555 1_555
O1 C19 1_555 1_555
O2 C26 1_555 1_555
O3 C33 1_555 1_555
O4 C40 1_555 1_555

#END
