
#######################################################################
#
#                 Cambridge Crystallographic Data Centre
#                                CCDC 
#
#######################################################################
#
# If this CIF has been generated from an entry in the Cambridge 
# Structural Database, then it will include bibliographic, chemical, 
# crystal, experimental, refinement or atomic coordinate data resulting 
# from the CCDC's data processing and validation procedures.
#
#######################################################################

data_QENTUB
_chemical_compound_source        'sponge-derived fungus Eupenicillium sp. 6A-9'
_chemical_name_common            'Hydroberkeleyone B dimethyl sulfoxide solvate'
_chemical_formula_moiety         'C26 H36 O8,C2 H6 O1 S1'
_chemical_name_systematic        
'3-[7-hydroxy-2-(2-hydroxypropan-2-yl)-5-(methoxycarbonyl)-1,4a,7,9-tetramethyl-11-methylidene-6,8-dioxo-1,4,4a,5,6,7,8,9,10,10a-decahydro-5,9-methanobenzo[8]annulen-1-yl]propanoic acid dimethyl sulfoxide solvate'
_chemical_properties_biological  
'tested for cytotoxic acitivty against K562, A549, Jurkat and HepG2 cells and assessed for TNF-alpha immune-suppressive activity'
_symmetry_cell_setting           orthorhombic
_symmetry_space_group_name_H-M   'P 21 21 21'
_symmetry_Int_Tables_number      19
_space_group_name_Hall           'P 2ac 2ab'
loop_
_symmetry_equiv_pos_site_id
_symmetry_equiv_pos_as_xyz
1 x,y,z
2 1/2-x,-y,1/2+z
3 -x,1/2+y,1/2-z
4 1/2+x,1/2-y,-z
_cell_length_a                   9.4205(3)
_cell_length_b                   11.7014(4)
_cell_length_c                   25.7983(10)
_cell_angle_alpha                90
_cell_angle_beta                 90
_cell_angle_gamma                90
_cell_volume                     2843.83
_exptl_crystal_colour            colorless
_exptl_crystal_description       block
_chemical_melting_point          '507 K'
_cell_formula_units_Z            4
loop_
_atom_site_label
_atom_site_type_symbol
_atom_site_fract_x
_atom_site_fract_y
_atom_site_fract_z
O1 O 0.7430(3) 0.0792(2) 0.58708(11)
H1 H 0.7962 0.0292 0.5742
O2 O 0.5899(3) -0.06347(19) 0.58888(11)
O3 O 0.5386(3) 0.28429(18) 0.74692(10)
O4 O 0.4865(3) 0.54795(18) 0.74676(9)
H2 H 0.4547 0.6088 0.7340
O5 O 0.4495(3) 0.53741(18) 0.62245(8)
O6 O 0.0775(3) 0.61225(19) 0.62743(11)
O7 O 0.2501(3) 0.67720(17) 0.67860(9)
O8 O 0.1931(3) -0.02464(16) 0.53694(8)
H3 H 0.1056 -0.0371 0.5397
C1 C 0.6158(4) 0.0355(3) 0.59490(13)
C2 C 0.5099(4) 0.1242(3) 0.61276(12)
H4 H 0.4981 0.1822 0.5851
H5 H 0.5481 0.1634 0.6438
C3 C 0.3656(3) 0.0739(2) 0.62584(11)
H6 H 0.3674 0.0486 0.6624
H7 H 0.3512 0.0050 0.6042
C4 C 0.2355(3) 0.1538(2) 0.61839(10)
C5 C 0.2631(3) 0.2661(2) 0.65098(10)
H8 H 0.3657 0.2846 0.6457
C6 C 0.2474(4) 0.2421(2) 0.70941(10)
H9 H 0.3045 0.1740 0.7184
H10 H 0.1468 0.2245 0.7171
C7 C 0.2953(4) 0.3435(2) 0.74373(11)
C8 C 0.4534(4) 0.3565(2) 0.73392(11)
C9 C 0.5047(4) 0.4649(2) 0.70642(12)
C10 C 0.4021(4) 0.4949(2) 0.66163(11)
C11 C 0.2412(3) 0.4779(2) 0.66971(11)
C12 C 0.1811(3) 0.3751(2) 0.63467(11)
C13 C 0.2103(4) 0.3980(2) 0.57700(11)
H11 H 0.1383 0.4521 0.5636
H12 H 0.3046 0.4345 0.5734
C14 C 0.2070(4) 0.2911(2) 0.54486(11)
H13 H 0.1964 0.3019 0.5086
C15 C 0.2171(3) 0.1834(2) 0.56056(10)
C16 C 0.2153(4) 0.0889(2) 0.51761(11)
C17 C 0.3594(4) 0.0833(3) 0.49099(14)
H14 H 0.4307 0.0552 0.5156
H15 H 0.3863 0.1597 0.4790
H16 H 0.3540 0.0313 0.4613
C18 C 0.1006(5) 0.1126(3) 0.47830(16)
H17 H 0.0922 0.0475 0.4546
H18 H 0.1249 0.1814 0.4585
H19 H 0.0100 0.1244 0.4962
C19 C 0.0200(4) 0.3623(3) 0.64279(12)
H20 H -0.0187 0.3100 0.6167
H21 H -0.0257 0.4371 0.6394
H22 H 0.0017 0.3314 0.6775
C20 C 0.1768(4) 0.5945(2) 0.65511(12)
C21 C 0.6563(4) 0.4570(3) 0.68834(15)
H23 H 0.6824 0.5278 0.6704
H24 H 0.6664 0.3922 0.6646
H25 H 0.7188 0.4460 0.7183
C22 C 0.2124(4) 0.4486(2) 0.72667(11)
C23 C 0.1210(4) 0.5030(3) 0.75577(13)
H26 H 0.1027 0.4774 0.7901
H27 H 0.0729 0.5682 0.7426
C24 C 0.2718(5) 0.3126(3) 0.80069(12)
H28 H 0.1706 0.2985 0.8067
H29 H 0.3037 0.3760 0.8227
H30 H 0.3261 0.2437 0.8092
C25 C 0.1055(3) 0.0874(2) 0.63834(11)
H31 H 0.0957 0.0160 0.6188
H32 H 0.0199 0.1339 0.6337
H33 H 0.1181 0.0699 0.6752
C26 C 0.2067(5) 0.7931(3) 0.66696(16)
H34 H 0.2108 0.8056 0.6294
H35 H 0.2707 0.8469 0.6844
H36 H 0.1095 0.8054 0.6792
S1 S 0.31262(11) 0.66868(8) 0.48164(4)
O9 O 0.4010(6) 0.5772(4) 0.4555(2)
C27 C 0.2863(5) 0.7835(3) 0.43435(14)
H37 H 0.2293 0.8445 0.4500
H38 H 0.3787 0.8143 0.4239
H39 H 0.2370 0.7533 0.4039
C28 C 0.4301(6) 0.7428(4) 0.5239(2)
H40 H 0.5123 0.7701 0.5042
H41 H 0.4622 0.6910 0.5513
H42 H 0.3806 0.8080 0.5394
S2? S 0.4100(5) 0.7266(3) 0.46470(16)
O10? O 0.4235(18) 0.6089(12) 0.4385(5)
H43? H 0.2690 0.8602 0.4482
H44? H 0.3117 0.7891 0.3976
H45? H 0.2003 0.7372 0.4381
C29? C 0.315(2) 0.7015(14) 0.5212(7)
H46? H 0.2995 0.7740 0.5394
H47? H 0.3690 0.6495 0.5436
H48? H 0.2235 0.6669 0.5126
loop_
_geom_bond_atom_site_label_1
_geom_bond_atom_site_label_2
_geom_bond_site_symmetry_1
_geom_bond_site_symmetry_2
O1 H1 1_555 1_555
O2 C1 1_555 1_555
O3 C8 1_555 1_555
O4 H2 1_555 1_555
O5 C10 1_555 1_555
O6 C20 1_555 1_555
O7 C20 1_555 1_555
O8 H3 1_555 1_555
C1 O1 1_555 1_555
C2 C1 1_555 1_555
H4 C2 1_555 1_555
H5 C2 1_555 1_555
C3 C2 1_555 1_555
H6 C3 1_555 1_555
H7 C3 1_555 1_555
C4 C3 1_555 1_555
C5 C4 1_555 1_555
H8 C5 1_555 1_555
C6 C5 1_555 1_555
H9 C6 1_555 1_555
H10 C6 1_555 1_555
C7 C6 1_555 1_555
C8 C7 1_555 1_555
C9 O4 1_555 1_555
C10 C9 1_555 1_555
C11 C10 1_555 1_555
C12 C5 1_555 1_555
C13 C12 1_555 1_555
H11 C13 1_555 1_555
H12 C13 1_555 1_555
C14 C13 1_555 1_555
H13 C14 1_555 1_555
C15 C4 1_555 1_555
C16 O8 1_555 1_555
C17 C16 1_555 1_555
H14 C17 1_555 1_555
H15 C17 1_555 1_555
H16 C17 1_555 1_555
C18 C16 1_555 1_555
H17 C18 1_555 1_555
H18 C18 1_555 1_555
H19 C18 1_555 1_555
C19 C12 1_555 1_555
H20 C19 1_555 1_555
H21 C19 1_555 1_555
H22 C19 1_555 1_555
C20 C11 1_555 1_555
C21 C9 1_555 1_555
H23 C21 1_555 1_555
H24 C21 1_555 1_555
H25 C21 1_555 1_555
C22 C7 1_555 1_555
C23 C22 1_555 1_555
H26 C23 1_555 1_555
H27 C23 1_555 1_555
C24 C7 1_555 1_555
H28 C24 1_555 1_555
H29 C24 1_555 1_555
H30 C24 1_555 1_555
C25 C4 1_555 1_555
H31 C25 1_555 1_555
H32 C25 1_555 1_555
H33 C25 1_555 1_555
C26 O7 1_555 1_555
H34 C26 1_555 1_555
H35 C26 1_555 1_555
H36 C26 1_555 1_555
S1 O9 1_555 1_555
C27 S1 1_555 1_555
H37 C27 1_555 1_555
H38 C27 1_555 1_555
H39 C27 1_555 1_555
C28 S1 1_555 1_555
H40 C28 1_555 1_555
H41 C28 1_555 1_555
H42 C28 1_555 1_555
C8 C9 1_555 1_555
C11 C12 1_555 1_555
C11 C22 1_555 1_555
C14 C15 1_555 1_555
C15 C16 1_555 1_555

#END
