
#######################################################################
#
#                 Cambridge Crystallographic Data Centre
#                                CCDC 
#
#######################################################################
#
# If this CIF has been generated from an entry in the Cambridge 
# Structural Database, then it will include bibliographic, chemical, 
# crystal, experimental, refinement or atomic coordinate data resulting 
# from the CCDC's data processing and validation procedures.
#
#######################################################################

data_QENWIS
_chemical_name_common            
11-methoxy-19-methyl-19,20-didehydro-16,17-dihydroformosanan-2,21-dione
_chemical_formula_moiety         'C20 H22 N2 O4'
_chemical_name_systematic        
(3S,4a'R,5a'S)-6-methoxy-1'-methyl-4',4a',5',5a',7',8'-hexahydro-3'H,10'H-spiro[indoline-3,6'-pyrano[3,4-f]indolizine]-2,10'-dione
_symmetry_cell_setting           orthorhombic
_symmetry_space_group_name_H-M   'P 21 21 21'
_symmetry_Int_Tables_number      19
_space_group_name_Hall           'P 2ac 2ab'
loop_
_symmetry_equiv_pos_site_id
_symmetry_equiv_pos_as_xyz
1 x,y,z
2 1/2-x,-y,1/2+z
3 -x,1/2+y,1/2-z
4 1/2+x,1/2-y,-z
_cell_length_a                   6.4100(4)
_cell_length_b                   12.0057(9)
_cell_length_c                   22.2391(15)
_cell_angle_alpha                90
_cell_angle_beta                 90
_cell_angle_gamma                90
_cell_volume                     1711.44
_exptl_crystal_colour            colorless
_exptl_crystal_description       block
_cell_formula_units_Z            4
_exptl_crystal_recrystallization_method 'ethyl acetate'
loop_
_atom_site_label
_atom_site_type_symbol
_atom_site_fract_x
_atom_site_fract_y
_atom_site_fract_z
O1 O 0.9583(2) 0.76664(13) 0.75170(7)
O2 O 0.3687(3) 0.42782(11) 0.59943(6)
O3 O -0.0154(2) 0.69629(12) 0.53964(7)
O4 O 0.0825(3) 0.57946(14) 0.92112(7)
N1 N 0.7050(3) 0.74007(13) 0.82365(7)
H1 H 0.7410 0.7937 0.8485
N2 N 0.5691(3) 0.54972(13) 0.64929(7)
C1 C 0.0509(5) 0.6703(2) 0.96007(11)
H2 H 0.0297 0.7382 0.9364
H3 H 0.1734 0.6795 0.9860
H4 H -0.0725 0.6565 0.9850
C2 C 0.2351(3) 0.58931(17) 0.87802(9)
C3 C 0.3923(4) 0.67002(17) 0.87957(8)
H5 H 0.4013 0.7231 0.9111
C4 C 0.5340(3) 0.66841(15) 0.83267(8)
C5 C 0.5224(3) 0.59310(15) 0.78521(8)
C6 C 0.3657(3) 0.51446(15) 0.78525(8)
H6 H 0.3548 0.4624 0.7532
C7 C 0.2242(3) 0.51188(17) 0.83226(9)
H7 H 0.1187 0.4563 0.8330
C8 C 0.8077(3) 0.71606(16) 0.77166(9)
C9 C 0.6946(3) 0.61890(14) 0.74121(8)
C10 C 0.8311(3) 0.51910(17) 0.72252(9)
H8 H 0.9668 0.5445 0.7063
H9 H 0.8565 0.4689 0.7571
C11 C 0.7023(3) 0.46089(17) 0.67401(9)
H10 H 0.7936 0.4292 0.6425
H11 H 0.6167 0.4004 0.6915
C12 C 0.6152(3) 0.65696(15) 0.67849(8)
H12 H 0.7334 0.6931 0.6566
C13 C 0.4298(3) 0.73366(14) 0.67632(8)
H13 H 0.4711 0.8091 0.6898
H14 H 0.3194 0.7059 0.7036
C14 C 0.3476(3) 0.73874(15) 0.61222(8)
H15 H 0.4625 0.7640 0.5850
C15 C 0.1675(3) 0.82073(16) 0.60767(8)
H16 H 0.0669 0.8067 0.6406
H17 H 0.2209 0.8977 0.6121
C16 C 0.0593(3) 0.80892(17) 0.54816(9)
H18 H -0.0597 0.8613 0.5463
H19 H 0.1574 0.8283 0.5154
C17 C 0.0100(4) 0.50457(19) 0.53490(11)
H20 H -0.1412 0.5061 0.5412
H21 H 0.0698 0.4404 0.5560
H22 H 0.0396 0.4985 0.4918
C18 C 0.1049(3) 0.60983(17) 0.55896(8)
C19 C 0.2774(3) 0.62307(15) 0.59286(8)
C20 C 0.4038(3) 0.52694(16) 0.61341(8)
loop_
_geom_bond_atom_site_label_1
_geom_bond_atom_site_label_2
_geom_bond_site_symmetry_1
_geom_bond_site_symmetry_2
O1 C8 1_555 1_555
O2 C20 1_555 1_555
O3 C16 1_555 1_555
O4 C1 1_555 1_555
N1 H1 1_555 1_555
N2 C11 1_555 1_555
C1 H2 1_555 1_555
H3 C1 1_555 1_555
H4 C1 1_555 1_555
C2 O4 1_555 1_555
C3 C2 1_555 1_555
H5 C3 1_555 1_555
C4 N1 1_555 1_555
C5 C4 1_555 1_555
C6 C5 1_555 1_555
H6 C6 1_555 1_555
C7 C2 1_555 1_555
H7 C7 1_555 1_555
C8 N1 1_555 1_555
C9 C5 1_555 1_555
C10 C9 1_555 1_555
H8 C10 1_555 1_555
H9 C10 1_555 1_555
C11 C10 1_555 1_555
H10 C11 1_555 1_555
H11 C11 1_555 1_555
C12 N2 1_555 1_555
H12 C12 1_555 1_555
C13 C12 1_555 1_555
H13 C13 1_555 1_555
H14 C13 1_555 1_555
C14 C13 1_555 1_555
H15 C14 1_555 1_555
C15 C14 1_555 1_555
H16 C15 1_555 1_555
H17 C15 1_555 1_555
C16 C15 1_555 1_555
H18 C16 1_555 1_555
H19 C16 1_555 1_555
C17 H20 1_555 1_555
H21 C17 1_555 1_555
H22 C17 1_555 1_555
C18 O3 1_555 1_555
C19 C14 1_555 1_555
C20 N2 1_555 1_555
C3 C4 1_555 1_555
C6 C7 1_555 1_555
C8 C9 1_555 1_555
C9 C12 1_555 1_555
C17 C18 1_555 1_555
C18 C19 1_555 1_555
C19 C20 1_555 1_555

#END
