
#######################################################################
#
#                 Cambridge Crystallographic Data Centre
#                                CCDC 
#
#######################################################################
#
# If this CIF has been generated from an entry in the Cambridge 
# Structural Database, then it will include bibliographic, chemical, 
# crystal, experimental, refinement or atomic coordinate data resulting 
# from the CCDC's data processing and validation procedures.
#
#######################################################################

data_QENYUG
_chemical_formula_moiety         'C22 H22 N2 O1'
_chemical_name_systematic        
3-butyl-10-(furan-2-yl)-5,6-dihydro-4H-indolo[3,2,1-ij][1,6]naphthyridine
_symmetry_cell_setting           triclinic
_symmetry_space_group_name_H-M   'P -1'
_symmetry_Int_Tables_number      2
_space_group_name_Hall           '-P 1'
loop_
_symmetry_equiv_pos_site_id
_symmetry_equiv_pos_as_xyz
1 x,y,z
2 -x,-y,-z
_cell_length_a                   7.9922(5)
_cell_length_b                   8.6781(5)
_cell_length_c                   12.2571(7)
_cell_angle_alpha                91.7530(10)
_cell_angle_beta                 97.9670(10)
_cell_angle_gamma                98.9960(10)
_cell_volume                     830.368
_exptl_crystal_colour            colorless
_exptl_crystal_description       plate
_cell_formula_units_Z            2
loop_
_atom_site_label
_atom_site_type_symbol
_atom_site_fract_x
_atom_site_fract_y
_atom_site_fract_z
C1 C 0.3849(2) 0.53394(17) 0.66042(12)
H1 H 0.2652 0.5006 0.6412
C2 C 0.46894(19) 0.63738(16) 0.59349(12)
C3 C 0.42810(19) 0.72171(16) 0.49485(12)
C4 C 0.27892(19) 0.73216(17) 0.42440(12)
H2 H 0.1729 0.6736 0.4364
C5 C 0.28582(19) 0.82930(17) 0.33586(12)
C6 C 0.4433(2) 0.91646(17) 0.31953(12)
H3 H 0.4460 0.9844 0.2603
C7 C 0.5939(2) 0.90633(17) 0.38690(12)
H4 H 0.6997 0.9649 0.3744
C8 C 0.58548(19) 0.80719(17) 0.47393(12)
C9 C 0.89973(19) 0.82994(18) 0.56342(13)
H5 H 0.9282 0.9326 0.6049
H6 H 0.9362 0.8426 0.4898
C10 C 0.9929(2) 0.71074(18) 0.62523(12)
H7 H 1.1167 0.7533 0.6406
H8 H 0.9791 0.6144 0.5772
C11 C 0.92791(19) 0.66840(18) 0.73466(12)
H9 H 0.9826 0.5817 0.7661
H10 H 0.9592 0.7596 0.7881
C12 C 0.73595(19) 0.62010(17) 0.71531(12)
C13 C 0.63712(19) 0.52239(17) 0.77817(12)
C14 C 0.64654(19) 0.67592(17) 0.62422(12)
C15 C 0.13316(19) 0.84032(17) 0.25829(12)
C16 C 0.1018(2) 0.92264(19) 0.16789(13)
H11 H 0.1829 0.9950 0.1378
C17 C -0.0757(2) 0.8805(2) 0.12613(14)
H12 H -0.1353 0.9188 0.0628
C18 C -0.1427(2) 0.77602(19) 0.19374(13)
H13 H -0.2593 0.7281 0.1857
C19 C 0.7206(2) 0.46528(18) 0.88393(12)
H14 H 0.7616 0.5568 0.9364
H15 H 0.8226 0.4220 0.8679
C20 C 0.6116(2) 0.34245(17) 0.94148(12)
H16 H 0.5059 0.3812 0.9552
H17 H 0.5779 0.2460 0.8930
C21 C 0.7091(2) 0.30512(18) 1.05039(12)
H18 H 0.7439 0.4025 1.0977
H19 H 0.8146 0.2668 1.0358
C22 C 0.6071(2) 0.18381(19) 1.11280(13)
H20 H 0.5017 0.2201 1.1270
H21 H 0.6758 0.1683 1.1831
H22 H 0.5782 0.0848 1.0686
N1 N 0.46524(16) 0.47947(14) 0.75051(10)
N2 N 0.71652(16) 0.77528(14) 0.55148(10)
O1 O -0.01700(13) 0.74905(12) 0.27609(9)
loop_
_geom_bond_atom_site_label_1
_geom_bond_atom_site_label_2
_geom_bond_site_symmetry_1
_geom_bond_site_symmetry_2
C1 H1 1_555 1_555
C2 C1 1_555 1_555
C3 C2 1_555 1_555
C4 C3 1_555 1_555
H2 C4 1_555 1_555
C5 C4 1_555 1_555
C6 C5 1_555 1_555
H3 C6 1_555 1_555
C7 C6 1_555 1_555
H4 C7 1_555 1_555
C8 C3 1_555 1_555
C9 H5 1_555 1_555
H6 C9 1_555 1_555
C10 C9 1_555 1_555
H7 C10 1_555 1_555
H8 C10 1_555 1_555
C11 C10 1_555 1_555
H9 C11 1_555 1_555
H10 C11 1_555 1_555
C12 C11 1_555 1_555
C13 C12 1_555 1_555
C14 C2 1_555 1_555
C15 C5 1_555 1_555
C16 C15 1_555 1_555
H11 C16 1_555 1_555
C17 C16 1_555 1_555
H12 C17 1_555 1_555
C18 C17 1_555 1_555
H13 C18 1_555 1_555
C19 C13 1_555 1_555
H14 C19 1_555 1_555
H15 C19 1_555 1_555
C20 C19 1_555 1_555
H16 C20 1_555 1_555
H17 C20 1_555 1_555
C21 C20 1_555 1_555
H18 C21 1_555 1_555
H19 C21 1_555 1_555
C22 C21 1_555 1_555
H20 C22 1_555 1_555
H21 C22 1_555 1_555
H22 C22 1_555 1_555
N1 C1 1_555 1_555
N2 C8 1_555 1_555
O1 C15 1_555 1_555
C7 C8 1_555 1_555
C9 N2 1_555 1_555
C12 C14 1_555 1_555
C13 N1 1_555 1_555
C14 N2 1_555 1_555
C18 O1 1_555 1_555

#END
