
#######################################################################
#
#                 Cambridge Crystallographic Data Centre
#                                CCDC 
#
#######################################################################
#
# If this CIF has been generated from an entry in the Cambridge 
# Structural Database, then it will include bibliographic, chemical, 
# crystal, experimental, refinement or atomic coordinate data resulting 
# from the CCDC's data processing and validation procedures.
#
#######################################################################

data_QEPBUL
_chemical_formula_moiety         'C31 H40 O8,C1 H4 O1'
_chemical_name_systematic        
'3a,4-bis(acetyloxy)-11-hydroxy-2,5,8,8,12-pentamethyl-9-oxo-2,3,3a,4,5,8,9,10,11,13a-decahydro-1H-cyclopenta[12]annulen-1-yl benzoate methanol solvate'
_symmetry_cell_setting           orthorhombic
_symmetry_space_group_name_H-M   'P 21 21 21'
_symmetry_Int_Tables_number      19
_space_group_name_Hall           'P 2ac 2ab'
loop_
_symmetry_equiv_pos_site_id
_symmetry_equiv_pos_as_xyz
1 x,y,z
2 1/2-x,-y,1/2+z
3 1/2+x,1/2-y,-z
4 -x,1/2+y,1/2-z
_cell_length_a                   8.2569(3)
_cell_length_b                   9.83390(16)
_cell_length_c                   37.9262(11)
_cell_angle_alpha                90
_cell_angle_beta                 90
_cell_angle_gamma                90
_cell_volume                     3079.51
_cell_formula_units_Z            4
loop_
_atom_site_label
_atom_site_type_symbol
_atom_site_fract_x
_atom_site_fract_y
_atom_site_fract_z
O1 O -0.2765(2) -0.82164(19) -0.07321(5)
O2 O 0.0971(2) -0.68516(19) -0.11339(5)
O3 O -0.1690(2) -1.0185(2) -0.05331(5)
O4 O 0.1373(3) -0.2825(2) -0.16123(6)
H1 H 0.2140 -0.3202 -0.1516
O5 O -0.2212(2) -0.5715(2) -0.19317(5)
C1 C 0.2043(4) -0.3488(3) -0.04720(7)
O6 O 0.2087(3) -0.8717(2) -0.08870(7)
C2 C 0.3772(4) -0.7042(3) -0.11696(10)
H2 H 0.3723 -0.6072 -0.1143
H3 H 0.3927 -0.7266 -0.1414
H4 H 0.4660 -0.7393 -0.1034
C3 C -0.1177(3) -0.7577(3) -0.07248(7)
H5 H -0.0395 -0.8224 -0.0627
C4 C -0.0946(4) -0.8508(3) -0.13631(7)
H6 H -0.1915 -0.9014 -0.1303
H7 H -0.0020 -0.9113 -0.1351
C5 C -0.1302(3) -0.6349(3) -0.04756(7)
H8 H -0.2112 -0.5716 -0.0570
C6 C -0.3173(4) -0.3631(3) -0.21655(7)
C7 C -0.1461(5) -0.2110(3) -0.24958(8)
H9 H -0.0438 -0.1825 -0.2566
C8 C -0.2253(3) -0.6718(3) -0.16526(7)
H10 H -0.3354 -0.7077 -0.1629
O7 O -0.4588(3) -0.4897(2) -0.17291(6)
C9 C -0.2575(4) -0.3072(3) -0.11093(9)
H11 H -0.3108 -0.2453 -0.1267
H12 H -0.2334 -0.2614 -0.0892
H13 H -0.3271 -0.3833 -0.1063
C10 C -0.1677(4) -0.8843(3) -0.20174(9)
H14 H -0.2656 -0.9280 -0.1942
H15 H -0.0860 -0.9518 -0.2060
H16 H -0.1879 -0.8345 -0.2231
C11 C 0.1904(4) -0.2255(3) -0.02246(8)
H17 H 0.2827 -0.1674 -0.0257
H18 H 0.1866 -0.2562 0.0016
H19 H 0.0934 -0.1759 -0.0278
C12 C 0.2216(3) -0.7662(3) -0.10413(8)
C13 C -0.1856(4) -0.6828(4) -0.01071(7)
H20 H -0.1048 -0.7416 -0.0008
H21 H -0.2861 -0.7312 -0.0128
H22 H -0.2003 -0.6052 0.0043
C14 C 0.3518(4) -0.4341(3) -0.03737(8)
H23 H 0.3414 -0.4649 -0.0135
H24 H 0.4479 -0.3799 -0.0396
H25 H 0.3589 -0.5111 -0.0528
C15 C -0.2832(5) -0.1412(3) -0.26091(9)
H26 H -0.2722 -0.0680 -0.2763
C16 C -0.4513(4) -1.0096(3) -0.06737(10)
H27 H -0.4712 -1.0310 -0.0917
H28 H -0.5280 -0.9427 -0.0596
H29 H -0.4623 -1.0903 -0.0534
C17 C -0.1026(4) -0.3565(3) -0.12751(7)
C18 C 0.1038(4) -0.1964(3) -0.10094(8)
H30 H 0.1626 -0.1130 -0.1057
H31 H 0.0217 -0.1762 -0.0834
O8 O 0.3254(3) -0.3482(2) -0.10483(6)
C19 C -0.1696(3) -0.6094(3) -0.12937(7)
H32 H -0.2643 -0.5863 -0.1150
C20 C 0.0200(4) -0.2448(3) -0.13525(9)
H33 H -0.0404 -0.1671 -0.1447
C21 C -0.3422(4) -0.4790(3) -0.19192(7)
C22 C -0.2831(3) -0.9543(3) -0.06348(7)
C23 C 0.0307(3) -0.5616(3) -0.04486(7)
H34 H 0.1235 -0.6136 -0.0416
C24 C -0.1627(4) -0.3237(3) -0.22766(7)
H35 H -0.0719 -0.3723 -0.2205
C25 C -0.0722(3) -0.7289(3) -0.11148(7)
C26 C 0.2202(3) -0.3008(3) -0.08599(7)
C27 C -0.1097(3) -0.7870(3) -0.17323(7)
H36 H -0.0047 -0.7491 -0.1802
C28 C -0.4526(4) -0.2896(4) -0.22708(9)
H37 H -0.5547 -0.3145 -0.2190
C29 C 0.0468(4) -0.4280(3) -0.04692(7)
H38 H -0.0482 -0.3776 -0.0483
C30 C -0.4361(5) -0.1797(4) -0.24953(10)
H39 H -0.5271 -0.1318 -0.2570
C31 C -0.0682(3) -0.4839(3) -0.13563(7)
H40 H 0.0312 -0.4981 -0.1466
O9 O 0.2085(4) -0.0813(4) -0.20942(9)
H41 H 0.1684 -0.1388 -0.1964
C32 C 0.3092(7) 0.0072(5) -0.18921(13)
H42 H 0.2549 0.0312 -0.1677
H43 H 0.3313 0.0881 -0.2025
H44 H 0.4092 -0.0380 -0.1838
loop_
_geom_bond_atom_site_label_1
_geom_bond_atom_site_label_2
_geom_bond_site_symmetry_1
_geom_bond_site_symmetry_2
O1 C3 1_555 1_555
O2 C12 1_555 1_555
O3 C22 1_555 1_555
O4 H1 1_555 1_555
O5 C8 1_555 1_555
C1 C11 1_555 1_555
O6 C12 1_555 1_555
C2 H2 1_555 1_555
H3 C2 1_555 1_555
H4 C2 1_555 1_555
C3 H5 1_555 1_555
C4 H6 1_555 1_555
H7 C4 1_555 1_555
C5 C3 1_555 1_555
H8 C5 1_555 1_555
C6 C21 1_555 1_555
C7 H9 1_555 1_555
C8 H10 1_555 1_555
O7 C21 1_555 1_555
C9 H11 1_555 1_555
H12 C9 1_555 1_555
H13 C9 1_555 1_555
C10 H14 1_555 1_555
H15 C10 1_555 1_555
H16 C10 1_555 1_555
C11 H17 1_555 1_555
H18 C11 1_555 1_555
H19 C11 1_555 1_555
C12 C2 1_555 1_555
C13 C5 1_555 1_555
H20 C13 1_555 1_555
H21 C13 1_555 1_555
H22 C13 1_555 1_555
C14 C1 1_555 1_555
H23 C14 1_555 1_555
H24 C14 1_555 1_555
H25 C14 1_555 1_555
C15 C7 1_555 1_555
H26 C15 1_555 1_555
C16 H27 1_555 1_555
H28 C16 1_555 1_555
H29 C16 1_555 1_555
C17 C9 1_555 1_555
C18 H30 1_555 1_555
H31 C18 1_555 1_555
O8 C26 1_555 1_555
C19 C8 1_555 1_555
H32 C19 1_555 1_555
C20 O4 1_555 1_555
H33 C20 1_555 1_555
C21 O5 1_555 1_555
C22 O1 1_555 1_555
C23 C5 1_555 1_555
H34 C23 1_555 1_555
C24 C6 1_555 1_555
H35 C24 1_555 1_555
C25 O2 1_555 1_555
C26 C1 1_555 1_555
C27 C4 1_555 1_555
H36 C27 1_555 1_555
C28 C6 1_555 1_555
H37 C28 1_555 1_555
C29 C1 1_555 1_555
H38 C29 1_555 1_555
C30 C15 1_555 1_555
H39 C30 1_555 1_555
C31 C17 1_555 1_555
H40 C31 1_555 1_555
O9 H41 1_555 1_555
C32 O9 1_555 1_555
H42 C32 1_555 1_555
H43 C32 1_555 1_555
H44 C32 1_555 1_555
C3 C25 1_555 1_555
C4 C25 1_555 1_555
C7 C24 1_555 1_555
C8 C27 1_555 1_555
C10 C27 1_555 1_555
C16 C22 1_555 1_555
C17 C20 1_555 1_555
C18 C20 1_555 1_555
C18 C26 1_555 1_555
C19 C25 1_555 1_555
C19 C31 1_555 1_555
C23 C29 1_555 1_555
C28 C30 1_555 1_555

#END
