
#######################################################################
#
#                 Cambridge Crystallographic Data Centre
#                                CCDC 
#
#######################################################################
#
# If this CIF has been generated from an entry in the Cambridge 
# Structural Database, then it will include bibliographic, chemical, 
# crystal, experimental, refinement or atomic coordinate data resulting 
# from the CCDC's data processing and validation procedures.
#
#######################################################################

data_QEPGIE
_chemical_formula_moiety         'C14 H22 F2 N2 O4'
_chemical_name_systematic        
'di-t-butyl 1,1-difluoro-4,5-diazaspiro[2.3]hexane-4,5-dicarboxylate'
_symmetry_cell_setting           monoclinic
_symmetry_space_group_name_H-M   'P 21/c'
_symmetry_Int_Tables_number      14
_space_group_name_Hall           '-P 2ybc'
loop_
_symmetry_equiv_pos_site_id
_symmetry_equiv_pos_as_xyz
1 x,y,z
2 -x,1/2+y,1/2-z
3 -x,-y,-z
4 x,1/2-y,1/2+z
_cell_length_a                   14.02756(10)
_cell_length_b                   5.73781(4)
_cell_length_c                   21.00103(12)
_cell_angle_alpha                90
_cell_angle_beta                 102.1203(7)
_cell_angle_gamma                90
_cell_volume                     1652.64
_exptl_crystal_colour            colorless
_exptl_crystal_description       block
_cell_formula_units_Z            4
loop_
_atom_site_label
_atom_site_type_symbol
_atom_site_fract_x
_atom_site_fract_y
_atom_site_fract_z
F1 F 1.02124(6) -0.14362(18) 0.70886(5)
F2 F 0.95139(6) 0.13062(17) 0.64202(4)
O1 O 0.78953(7) 0.07219(17) 0.87624(4)
O2 O 0.62192(6) 0.20731(17) 0.67783(4)
O3 O 0.74208(7) 0.38389(17) 0.80994(4)
O4 O 0.72035(7) 0.2050(2) 0.60412(5)
N1 N 0.76191(7) 0.01921(19) 0.76967(5)
N2 N 0.78018(7) 0.1158(2) 0.70927(5)
C1 C 0.76449(9) 0.1830(2) 0.81922(6)
C2 C 0.84940(9) -0.0717(2) 0.70524(6)
C3 C 0.80184(10) 0.2043(2) 0.93814(6)
C4 C 0.84226(9) -0.1544(2) 0.77271(6)
H1 H 0.8213 -0.3187 0.7744
H2 H 0.9010 -0.1216 0.8069
C5 C 0.70477(9) 0.1768(2) 0.65812(6)
C6 C 0.93477(9) -0.0611(3) 0.67536(7)
C7 C 0.54376(10) 0.3550(2) 0.63945(7)
C8 C 0.85594(11) -0.2218(3) 0.64602(7)
H3 H 0.8674 -0.3910 0.6529
H4 H 0.8145 -0.1786 0.6035
C9 C 0.70825(11) 0.3293(3) 0.94272(7)
H5 H 0.6539 0.2186 0.9343
H6 H 0.6959 0.4548 0.9104
H7 H 0.7145 0.3952 0.9865
C10 C 0.50630(11) 0.2546(3) 0.57200(7)
H8 H 0.4902 0.0896 0.5757
H9 H 0.5567 0.2697 0.5462
H10 H 0.4478 0.3397 0.5505
C11 C 0.88691(11) 0.3701(3) 0.94301(8)
H11 H 0.8698 0.4936 0.9104
H12 H 0.9439 0.2847 0.9352
H13 H 0.9022 0.4394 0.9866
C12 C 0.82443(14) 0.0127(3) 0.98866(7)
H14 H 0.8842 -0.0681 0.9842
H15 H 0.7702 -0.0985 0.9822
H16 H 0.8335 0.0807 1.0323
C13 C 0.46600(11) 0.3431(3) 0.67991(8)
H17 H 0.4935 0.3963 0.7243
H18 H 0.4433 0.1819 0.6812
H19 H 0.4111 0.4433 0.6604
C14 C 0.58394(14) 0.6003(3) 0.63798(10)
H20 H 0.6326 0.6030 0.6106
H21 H 0.6145 0.6487 0.6823
H22 H 0.5307 0.7075 0.6201
loop_
_geom_bond_atom_site_label_1
_geom_bond_atom_site_label_2
_geom_bond_site_symmetry_1
_geom_bond_site_symmetry_2
F1 C6 1_555 1_555
F2 C6 1_555 1_555
O1 C1 1_555 1_555
O2 C5 1_555 1_555
O3 C1 1_555 1_555
O4 C5 1_555 1_555
N1 N2 1_555 1_555
N2 C2 1_555 1_555
C1 N1 1_555 1_555
C2 C4 1_555 1_555
C3 O1 1_555 1_555
C4 N1 1_555 1_555
H1 C4 1_555 1_555
H2 C4 1_555 1_555
C5 N2 1_555 1_555
C6 C2 1_555 1_555
C7 O2 1_555 1_555
C8 C2 1_555 1_555
H3 C8 1_555 1_555
H4 C8 1_555 1_555
C9 C3 1_555 1_555
H5 C9 1_555 1_555
H6 C9 1_555 1_555
H7 C9 1_555 1_555
C10 C7 1_555 1_555
H8 C10 1_555 1_555
H9 C10 1_555 1_555
H10 C10 1_555 1_555
C11 C3 1_555 1_555
H11 C11 1_555 1_555
H12 C11 1_555 1_555
H13 C11 1_555 1_555
C12 C3 1_555 1_555
H14 C12 1_555 1_555
H15 C12 1_555 1_555
H16 C12 1_555 1_555
C13 C7 1_555 1_555
H17 C13 1_555 1_555
H18 C13 1_555 1_555
H19 C13 1_555 1_555
C14 C7 1_555 1_555
H20 C14 1_555 1_555
H21 C14 1_555 1_555
H22 C14 1_555 1_555
C6 C8 1_555 1_555

#END
