
#######################################################################
#
#                 Cambridge Crystallographic Data Centre
#                                CCDC 
#
#######################################################################
#
# If this CIF has been generated from an entry in the Cambridge 
# Structural Database, then it will include bibliographic, chemical, 
# crystal, experimental, refinement or atomic coordinate data resulting 
# from the CCDC's data processing and validation procedures.
#
#######################################################################

data_QEPHAX
_chemical_formula_moiety         'C17 H18 N6 O4'
_chemical_name_systematic        
'diisopropyl 5,5,6,6-tetracyano-1,2-diazaspiro[3.3]heptane-1,2-dicarboxylate'
_symmetry_cell_setting           orthorhombic
_symmetry_space_group_name_H-M   'P c a 21'
_symmetry_Int_Tables_number      29
_space_group_name_Hall           'P 2c -2ac'
loop_
_symmetry_equiv_pos_site_id
_symmetry_equiv_pos_as_xyz
1 x,y,z
2 -x,-y,1/2+z
3 1/2+x,-y,z
4 1/2-x,y,1/2+z
_cell_length_a                   18.4527(8)
_cell_length_b                   14.5187(8)
_cell_length_c                   7.1119(3)
_cell_angle_alpha                90
_cell_angle_beta                 90
_cell_angle_gamma                90
_cell_volume                     1905.34
_exptl_crystal_colour            colorless
_exptl_crystal_description       rod
_cell_formula_units_Z            4
loop_
_atom_site_label
_atom_site_type_symbol
_atom_site_fract_x
_atom_site_fract_y
_atom_site_fract_z
C1 C -0.17371(14) 0.0807(2) 0.3397(5)
H1 H -0.2049 0.0914 0.2304
H2 H -0.1698 0.1376 0.4131
H3 H -0.1947 0.0321 0.4182
C2 C -0.09915(12) 0.05145(16) 0.2740(4)
H4 H -0.1032 -0.0043 0.1921
C3 C -0.04601(14) 0.0331(2) 0.4320(4)
H5 H 0.0022 0.0214 0.3792
H6 H -0.0619 -0.0209 0.5038
H7 H -0.0439 0.0868 0.5152
O1 O -0.06672(8) 0.12742(10) 0.1673(2)
O2 O -0.12841(8) 0.08806(10) -0.0967(3)
C4 C -0.08691(10) 0.13625(14) -0.0108(3)
N1 N -0.04965(9) 0.20889(12) -0.0988(3)
N2 N -0.02991(8) 0.28592(11) 0.0213(3)
O3 O 0.05793(7) 0.37662(10) 0.1434(2)
C5 C 0.03951(11) 0.30182(14) 0.0871(3)
O4 O 0.07724(8) 0.22445(10) 0.0888(2)
C6 C 0.1499(7) 0.2311(6) 0.1641(19)
H8 H 0.1501 0.2696 0.2807
C7 C 0.2013(4) 0.2744(6) 0.0109(12)
H9 H 0.1875 0.3387 -0.0109
H10 H 0.1968 0.2396 -0.1066
H11 H 0.2516 0.2717 0.0551
C8 C 0.1728(5) 0.1340(4) 0.208(2)
H12 H 0.1397 0.1076 0.3014
H13 H 0.2222 0.1343 0.2587
H14 H 0.1714 0.0970 0.0931
C9 C -0.09479(10) 0.27221(14) -0.2166(3)
H15 H -0.1469 0.2559 -0.2195
H16 H -0.0757 0.2818 -0.3452
C10 C -0.07617(9) 0.35066(13) -0.0783(3)
C11 C -0.05355(10) 0.44609(14) -0.1492(3)
H17 H -0.0503 0.4501 -0.2879
H18 H -0.0087 0.4695 -0.0898
C12 C -0.12469(9) 0.49038(13) -0.0666(3)
C13 C -0.13799(9) 0.39634(13) 0.0478(3)
C14 C -0.11542(10) 0.40460(14) 0.2442(3)
N3 N -0.09447(10) 0.41188(13) 0.3943(3)
C15 C -0.20883(10) 0.35116(14) 0.0315(3)
N4 N -0.26016(9) 0.30796(12) 0.0108(3)
C16 C -0.11115(10) 0.57215(14) 0.0505(3)
N5 N -0.09563(10) 0.63396(13) 0.1417(3)
C17 C -0.18311(10) 0.50770(13) -0.2023(3)
N6 N -0.23083(9) 0.51743(14) -0.3027(3)
C18? C 0.1529(19) 0.226(2) 0.180(6)
H19? H 0.1559 0.2783 0.2705
C19? C 0.1985(11) 0.241(2) 0.035(3)
H20? H 0.1861 0.3001 -0.0249
H21? H 0.1938 0.1914 -0.0574
H22? H 0.2484 0.2436 0.0811
C20? C 0.1529(11) 0.1352(11) 0.290(4)
H23? H 0.1985 0.1291 0.3594
H24? H 0.1478 0.0835 0.2025
H25? H 0.1122 0.1349 0.3789
loop_
_geom_bond_atom_site_label_1
_geom_bond_atom_site_label_2
_geom_bond_site_symmetry_1
_geom_bond_site_symmetry_2
C1 H1 1_555 1_555
H2 C1 1_555 1_555
H3 C1 1_555 1_555
C2 C1 1_555 1_555
H4 C2 1_555 1_555
C3 C2 1_555 1_555
H5 C3 1_555 1_555
H6 C3 1_555 1_555
H7 C3 1_555 1_555
O1 C2 1_555 1_555
O2 C4 1_555 1_555
C4 O1 1_555 1_555
N1 C4 1_555 1_555
N2 N1 1_555 1_555
O3 C5 1_555 1_555
C5 N2 1_555 1_555
O4 C5 1_555 1_555
C6 O4 1_555 1_555
H8 C6 1_555 1_555
C7 C6 1_555 1_555
H9 C7 1_555 1_555
H10 C7 1_555 1_555
H11 C7 1_555 1_555
C8 C6 1_555 1_555
H12 C8 1_555 1_555
H13 C8 1_555 1_555
H14 C8 1_555 1_555
C9 N1 1_555 1_555
H15 C9 1_555 1_555
H16 C9 1_555 1_555
C10 N2 1_555 1_555
C11 C10 1_555 1_555
H17 C11 1_555 1_555
H18 C11 1_555 1_555
C12 C11 1_555 1_555
C13 C10 1_555 1_555
C14 C13 1_555 1_555
N3 C14 1_555 1_555
C15 C13 1_555 1_555
N4 C15 1_555 1_555
C16 C12 1_555 1_555
N5 C16 1_555 1_555
C17 C12 1_555 1_555
N6 C17 1_555 1_555
C9 C10 1_555 1_555
C12 C13 1_555 1_555

#END
