
#######################################################################
#
#                 Cambridge Crystallographic Data Centre
#                                CCDC 
#
#######################################################################
#
# If this CIF has been generated from an entry in the Cambridge 
# Structural Database, then it will include bibliographic, chemical, 
# crystal, experimental, refinement or atomic coordinate data resulting 
# from the CCDC's data processing and validation procedures.
#
#######################################################################

data_QEPKIG
_chemical_formula_moiety         'C34 H54 S2'
_chemical_name_systematic        4,8-didodecylbenzo[1,2-b:4,5-b']dithiophene
_symmetry_cell_setting           monoclinic
_symmetry_space_group_name_H-M   'P 21/c'
_symmetry_Int_Tables_number      14
_space_group_name_Hall           '-P 2ybc'
loop_
_symmetry_equiv_pos_site_id
_symmetry_equiv_pos_as_xyz
1 x,y,z
2 -x,1/2+y,1/2-z
3 -x,-y,-z
4 x,1/2-y,1/2+z
_cell_length_a                   21.4080(5)
_cell_length_b                   4.83790(10)
_cell_length_c                   17.0953(4)
_cell_angle_alpha                90
_cell_angle_beta                 110.1960(10)
_cell_angle_gamma                90
_cell_volume                     1661.7
_exptl_crystal_colour            colorless
_exptl_crystal_description       rod
_cell_formula_units_Z            2
_exptl_crystal_recrystallization_method 2-propanol
loop_
_atom_site_label
_atom_site_type_symbol
_atom_site_fract_x
_atom_site_fract_y
_atom_site_fract_z
S1 S 0.46436(5) 0.6253(2) 0.62290(7)
C1 C 0.58258(7) 0.9537(3) 0.68375(8)
H1 H 0.6213 1.0353 0.7192
C3 C 0.53244(15) 0.7251(7) 0.6973(2)
C4 C 0.53953(11) 0.9891(4) 0.58354(16)
C5 C 0.48139(11) 0.8246(4) 0.55168(17)
C6 C 0.55896(11) 1.1703(4) 0.53183(17)
C7 C 0.62159(11) 1.3394(5) 0.56583(18)
H3 H 0.6280 1.3901 0.6230
H4 H 0.6163 1.5085 0.5337
C8 C 0.68339(11) 1.1877(5) 0.5635(2)
H5 H 0.6882 1.0178 0.5952
H6 H 0.6767 1.1375 0.5063
C9 C 0.74699(12) 1.3492(6) 0.5974(2)
H7 H 0.7415 1.5230 0.5675
H8 H 0.7548 1.3919 0.6555
C10 C 0.80719(12) 1.2043(6) 0.5915(2)
H9 H 0.8134 1.0350 0.6237
H10 H 0.7978 1.1519 0.5338
C11 C 0.87132(13) 1.3597(6) 0.6200(2)
H11 H 0.8645 1.5337 0.5901
H12 H 0.8822 1.4026 0.6787
C12 C 0.92958(12) 1.2196(7) 0.6095(2)
H13 H 0.9360 1.0459 0.6396
H14 H 0.9180 1.1748 0.5509
C13 C 0.99418(13) 1.3651(7) 0.6361(2)
H15 H 0.9876 1.5410 0.6072
H16 H 1.0065 1.4051 0.6951
C14 C 1.05107(13) 1.2261(8) 0.6231(2)
H17 H 1.0572 1.0498 0.6518
H18 H 1.0384 1.1861 0.5641
C15 C 1.11636(14) 1.3642(8) 0.6490(3)
H19 H 1.1100 1.5436 0.6221
H20 H 1.1300 1.3973 0.7085
C16 C 1.17189(14) 1.2285(10) 0.6329(3)
H21 H 1.1779 1.0493 0.6600
H22 H 1.1577 1.1939 0.5734
C17 C 1.23738(17) 1.3576(11) 0.6569(3)
H23 H 1.2316 1.5416 0.6330
H24 H 1.2537 1.3794 0.7170
C18 C 1.28904(18) 1.2202(14) 0.6341(3)
H25 H 1.3293 1.3263 0.6542
H26 H 1.2751 1.2043 0.5746
H27 H 1.2968 1.0392 0.6586
H28 H 0.5462(15) 0.637(7) 0.748(2)
S1B S 0.53564(5) 1.3747(2) 0.37710(7)
C1B C 0.41742(7) 1.0463(3) 0.31625(8)
H1B H 0.3787 0.9647 0.2808
C3B C 0.46756(15) 1.2749(7) 0.3027(2)
C4B C 0.46047(11) 1.0109(4) 0.41646(16)
C5B C 0.51861(11) 1.1754(4) 0.44832(17)
C6B C 0.44104(11) 0.8297(4) 0.46817(17)
C7B C 0.37841(11) 0.6606(5) 0.43417(18)
H3B H 0.3720 0.6099 0.3770
H4B H 0.3837 0.4915 0.4663
C8B C 0.31661(11) 0.8123(5) 0.4365(2)
H5B H 0.3118 0.9822 0.4048
H6B H 0.3233 0.8625 0.4937
C9B C 0.25301(12) 0.6508(6) 0.4026(2)
H7B H 0.2585 0.4770 0.4325
H8B H 0.2452 0.6081 0.3445
C10B C 0.19281(12) 0.7957(6) 0.4085(2)
H9B H 0.1866 0.9650 0.3763
H10B H 0.2022 0.8481 0.4662
C11B C 0.12868(13) 0.6403(6) 0.3800(2)
H11B H 0.1355 0.4663 0.4099
H12B H 0.1178 0.5974 0.3213
C12B C 0.07042(12) 0.7804(7) 0.3905(2)
H13B H 0.0640 0.9541 0.3604
H14B H 0.0820 0.8252 0.4491
C13B C 0.00582(13) 0.6349(7) 0.3639(2)
H15B H 0.0124 0.4590 0.3928
H16B H -0.0065 0.5949 0.3049
C14B C -0.05107(13) 0.7739(8) 0.3769(2)
H17B H -0.0572 0.9502 0.3482
H18B H -0.0384 0.8139 0.4359
C15B C -0.11636(14) 0.6358(8) 0.3510(3)
H19B H -0.1100 0.4564 0.3779
H20B H -0.1300 0.6027 0.2915
C16B C -0.17189(14) 0.7715(10) 0.3671(3)
H21B H -0.1779 0.9507 0.3400
H22B H -0.1577 0.8061 0.4266
C17B C -0.23738(17) 0.6424(11) 0.3431(3)
H23B H -0.2316 0.4584 0.3670
H24B H -0.2537 0.6206 0.2830
C18B C -0.28904(18) 0.7798(14) 0.3659(3)
H25B H -0.3293 0.6737 0.3458
H26B H -0.2751 0.7957 0.4254
H27B H -0.2968 0.9608 0.3414
H28B H 0.4538(15) 1.363(7) 0.252(2)
S2? S 0.58258(7) 0.9537(3) 0.68375(8)
C2? C 0.46436(5) 0.6253(2) 0.62290(7)
H2? H 0.4298 0.5056 0.6208
loop_
_geom_bond_atom_site_label_1
_geom_bond_atom_site_label_2
_geom_bond_site_symmetry_1
_geom_bond_site_symmetry_2
S1 C3 1_555 1_555
C1 H1 1_555 1_555
C3 C1 1_555 1_555
C4 C1 1_555 1_555
C5 S1 1_555 1_555
C6 C4 1_555 1_555
C7 C6 1_555 1_555
H3 C7 1_555 1_555
H4 C7 1_555 1_555
C8 C7 1_555 1_555
H5 C8 1_555 1_555
H6 C8 1_555 1_555
C9 C8 1_555 1_555
H7 C9 1_555 1_555
H8 C9 1_555 1_555
C10 C9 1_555 1_555
H9 C10 1_555 1_555
H10 C10 1_555 1_555
C11 C10 1_555 1_555
H11 C11 1_555 1_555
H12 C11 1_555 1_555
C12 C11 1_555 1_555
H13 C12 1_555 1_555
H14 C12 1_555 1_555
C13 C12 1_555 1_555
H15 C13 1_555 1_555
H16 C13 1_555 1_555
C14 C13 1_555 1_555
H17 C14 1_555 1_555
H18 C14 1_555 1_555
C15 C14 1_555 1_555
H19 C15 1_555 1_555
H20 C15 1_555 1_555
C16 C15 1_555 1_555
H21 C16 1_555 1_555
H22 C16 1_555 1_555
C17 C16 1_555 1_555
H23 C17 1_555 1_555
H24 C17 1_555 1_555
C18 C17 1_555 1_555
H25 C18 1_555 1_555
H26 C18 1_555 1_555
H27 C18 1_555 1_555
H28 C3 1_555 1_555
S1B C3B 1_555 1_555
C1B H1B 1_555 1_555
C3B C1B 1_555 1_555
C4B C1B 1_555 1_555
C5B C6 1_555 1_555
C6B C5 1_555 1_555
C7B C6B 1_555 1_555
H3B C7B 1_555 1_555
H4B C7B 1_555 1_555
C8B C7B 1_555 1_555
H5B C8B 1_555 1_555
H6B C8B 1_555 1_555
C9B C8B 1_555 1_555
H7B C9B 1_555 1_555
H8B C9B 1_555 1_555
C10B C9B 1_555 1_555
H9B C10B 1_555 1_555
H10B C10B 1_555 1_555
C11B C10B 1_555 1_555
H11B C11B 1_555 1_555
H12B C11B 1_555 1_555
C12B C11B 1_555 1_555
H13B C12B 1_555 1_555
H14B C12B 1_555 1_555
C13B C12B 1_555 1_555
H15B C13B 1_555 1_555
H16B C13B 1_555 1_555
C14B C13B 1_555 1_555
H17B C14B 1_555 1_555
H18B C14B 1_555 1_555
C15B C14B 1_555 1_555
H19B C15B 1_555 1_555
H20B C15B 1_555 1_555
C16B C15B 1_555 1_555
H21B C16B 1_555 1_555
H22B C16B 1_555 1_555
C17B C16B 1_555 1_555
H23B C17B 1_555 1_555
H24B C17B 1_555 1_555
C18B C17B 1_555 1_555
H25B C18B 1_555 1_555
H26B C18B 1_555 1_555
H27B C18B 1_555 1_555
H28B C3B 1_555 1_555
C4 C5 1_555 1_555
S1B C5B 1_555 1_555
C4B C5B 1_555 1_555
C4B C6B 1_555 1_555

#END
