
#######################################################################
#
#                 Cambridge Crystallographic Data Centre
#                                CCDC 
#
#######################################################################
#
# If this CIF has been generated from an entry in the Cambridge 
# Structural Database, then it will include bibliographic, chemical, 
# crystal, experimental, refinement or atomic coordinate data resulting 
# from the CCDC's data processing and validation procedures.
#
#######################################################################

data_QEPKAA
_chemical_formula_moiety         'C20 H16 F3 N1 O6'
_chemical_name_systematic        
'ethyl 2-{2-nitro-1-[2-(trifluoromethyl)phenyl]ethyl}-3-oxo-2,3-dihydro-1-benzofuran-2-carboxylate'
_symmetry_cell_setting           orthorhombic
_symmetry_space_group_name_H-M   'P 21 21 21'
_symmetry_Int_Tables_number      19
_space_group_name_Hall           'P 2ac 2ab'
loop_
_symmetry_equiv_pos_site_id
_symmetry_equiv_pos_as_xyz
1 x,y,z
2 1/2-x,-y,1/2+z
3 -x,1/2+y,1/2-z
4 1/2+x,1/2-y,-z
_cell_length_a                   9.2101(3)
_cell_length_b                   10.6504(4)
_cell_length_c                   20.8336(7)
_cell_angle_alpha                90
_cell_angle_beta                 90
_cell_angle_gamma                90
_cell_volume                     2043.59
_exptl_crystal_colour            colorless
_exptl_crystal_description       block
_cell_formula_units_Z            4
loop_
_atom_site_label
_atom_site_type_symbol
_atom_site_fract_x
_atom_site_fract_y
_atom_site_fract_z
N1 N -0.0121(2) 0.92312(19) 0.86507(10)
O1 O 0.09638(18) 0.88513(15) 0.66798(8)
O2 O 0.21020(19) 1.20302(16) 0.66506(9)
O3 O -0.0997(2) 0.99897(19) 0.88561(10)
O4 O 0.0641(3) 0.8596(2) 0.89954(11)
O5 O -0.0977(2) 1.0373(2) 0.61339(10)
O6 O -0.1510(2) 1.11377(18) 0.71077(10)
F1 F 0.2252(2) 1.28017(15) 0.79923(9)
F2 F 0.3471(2) 1.26891(19) 0.88662(12)
F3 F 0.1390(2) 1.18183(16) 0.87966(8)
C1 C 0.1922(2) 1.0920(2) 0.65611(11)
C2 C 0.2575(3) 1.0068(2) 0.61040(11)
C3 C 0.3618(3) 1.0255(3) 0.56230(13)
H1 H 0.4033 1.1050 0.5554
C4 C 0.4014(3) 0.9243(3) 0.52557(13)
H2 H 0.4717 0.9342 0.4932
C5 C 0.3384(4) 0.8065(3) 0.53572(13)
H3 H 0.3677 0.7386 0.5100
C6 C 0.2341(3) 0.7869(3) 0.58257(12)
H4 H 0.1913 0.7077 0.5889
C7 C 0.1963(3) 0.8894(2) 0.61936(11)
C8 C 0.0799(2) 1.0102(2) 0.69317(11)
C9 C 0.0998(2) 1.0122(2) 0.76638(11)
H5 H 0.0657 1.0944 0.7826
C10 C 0.2567(3) 0.9943(2) 0.78750(11)
C11 C 0.3327(3) 1.0839(2) 0.82410(12)
C12 C 0.4751(3) 1.0623(3) 0.84234(18)
H6 H 0.5254 1.1231 0.8664
C13 C 0.5442(3) 0.9511(4) 0.8252(2)
H7 H 0.6413 0.9371 0.8372
C14 C 0.4705(3) 0.8621(3) 0.79081(16)
H8 H 0.5164 0.7861 0.7800
C15 C 0.3290(3) 0.8834(3) 0.77201(13)
H9 H 0.2801 0.8216 0.7481
C16 C 0.2624(3) 1.2033(3) 0.84696(13)
C17 C 0.0008(3) 0.9093(2) 0.79430(11)
H10 H -0.0957 0.9151 0.7747
H11 H 0.0412 0.8265 0.7841
C18 C -0.0721(3) 1.0591(2) 0.67429(12)
C19 C -0.2334(4) 1.0874(3) 0.58732(17)
H12 H -0.2535 1.1704 0.6056
H13 H -0.3145 1.0314 0.5977
C20 C -0.2150(7) 1.0968(5) 0.5167(2)
H14 H -0.2067 1.0132 0.4986
H15 H -0.1278 1.1443 0.5071
H16 H -0.2985 1.1390 0.4983
loop_
_geom_bond_atom_site_label_1
_geom_bond_atom_site_label_2
_geom_bond_site_symmetry_1
_geom_bond_site_symmetry_2
N1 O3 1_555 1_555
O1 C7 1_555 1_555
O2 C1 1_555 1_555
O4 N1 1_555 1_555
O5 C18 1_555 1_555
O6 C18 1_555 1_555
F1 C16 1_555 1_555
F2 C16 1_555 1_555
F3 C16 1_555 1_555
C1 C2 1_555 1_555
C2 C3 1_555 1_555
C3 H1 1_555 1_555
C4 C3 1_555 1_555
H2 C4 1_555 1_555
C5 C4 1_555 1_555
H3 C5 1_555 1_555
C6 C5 1_555 1_555
H4 C6 1_555 1_555
C7 C2 1_555 1_555
C8 O1 1_555 1_555
C9 C8 1_555 1_555
H5 C9 1_555 1_555
C10 C9 1_555 1_555
C11 C10 1_555 1_555
C12 C11 1_555 1_555
H6 C12 1_555 1_555
C13 C12 1_555 1_555
H7 C13 1_555 1_555
C14 C13 1_555 1_555
H8 C14 1_555 1_555
C15 C10 1_555 1_555
H9 C15 1_555 1_555
C16 C11 1_555 1_555
C17 N1 1_555 1_555
H10 C17 1_555 1_555
H11 C17 1_555 1_555
C18 C8 1_555 1_555
C19 O5 1_555 1_555
H12 C19 1_555 1_555
H13 C19 1_555 1_555
C20 C19 1_555 1_555
H14 C20 1_555 1_555
H15 C20 1_555 1_555
H16 C20 1_555 1_555
C1 C8 1_555 1_555
C6 C7 1_555 1_555
C9 C17 1_555 1_555
C14 C15 1_555 1_555

#END
