
#######################################################################
#
#                 Cambridge Crystallographic Data Centre
#                                CCDC 
#
#######################################################################
#
# If this CIF has been generated from an entry in the Cambridge 
# Structural Database, then it will include bibliographic, chemical, 
# crystal, experimental, refinement or atomic coordinate data resulting 
# from the CCDC's data processing and validation procedures.
#
#######################################################################

data_QEPLIH01
_chemical_formula_moiety         'C14 H8 S4'
_chemical_name_systematic        2,5-bis(2-thienyl)thieno[3,2-b]thiophene
_symmetry_cell_setting           triclinic
_symmetry_space_group_name_H-M   'P -1'
_symmetry_Int_Tables_number      2
_space_group_name_Hall           '-P 1'
loop_
_symmetry_equiv_pos_site_id
_symmetry_equiv_pos_as_xyz
1 x,y,z
2 -x,-y,-z
_cell_length_a                   5.7171(3)
_cell_length_b                   8.6010(6)
_cell_length_c                   13.2287(8)
_cell_angle_alpha                87.647(5)
_cell_angle_beta                 77.952(4)
_cell_angle_gamma                82.023(4)
_cell_volume                     629.959
_exptl_crystal_colour            yellow
_exptl_crystal_description       flake
_cell_formula_units_Z            2
loop_
_atom_site_label
_atom_site_type_symbol
_atom_site_fract_x
_atom_site_fract_y
_atom_site_fract_z
S1 S 0.3229(2) -0.20500(16) 0.85473(8)
C1 C 0.1062(9) -0.3166(8) 0.9183(4)
H1 H 0.0859 -0.3461 0.9893
C2 C -0.0313(17) -0.3567(13) 0.8537(5)
H2 H -0.1615 -0.4164 0.8743
C3 C 0.0428(14) -0.2990(13) 0.7525(7)
H3 H -0.0311 -0.3196 0.6973
C4 C 0.2280(5) -0.2116(4) 0.7395(2)
C5 C 0.3373(5) -0.1304(4) 0.6473(2)
C6 C 0.5257(18) -0.0421(13) 0.6318(8)
H4 H 0.6112 -0.0251 0.6838
S2 S 0.2187(3) -0.1341(2) 0.53762(13)
C7 C 0.5799(5) 0.0224(4) 0.5270(3)
S1A S 0.6771(2) 0.20500(16) 0.14527(8)
C1A C 0.8938(9) 0.3166(8) 0.0817(4)
H1A H 0.9141 0.3461 0.0107
C2A C 1.0313(17) 0.3567(13) 0.1463(5)
H2A H 1.1615 0.4164 0.1257
C3A C 0.9572(14) 0.2990(13) 0.2475(7)
H3A H 1.0311 0.3196 0.3027
C4A C 0.7720(5) 0.2116(4) 0.2605(2)
C5A C 0.6627(5) 0.1304(4) 0.3527(2)
C6A C 0.4743(18) 0.0421(13) 0.3682(8)
H4A H 0.3888 0.0251 0.3162
S2A S 0.7813(3) 0.1341(2) 0.46238(13)
C7A C 0.4201(5) -0.0224(4) 0.4730(3)
S5 S 0.5231(3) 0.6671(4) 0.1860(2)
C12 C 0.480(2) 0.8141(14) 0.0970(9)
H9 H 0.6005 0.8369 0.0393
C13 C 0.2533(16) 0.8937(16) 0.1188(9)
H10 H 0.1956 0.9781 0.0781
C14 C 0.111(3) 0.834(2) 0.2115(14)
H11 H -0.0506 0.8758 0.2399
C15 C 0.2377(5) 0.7085(4) 0.2547(2)
C16 C 0.1468(5) 0.6258(3) 0.3487(2)
C17 C 0.2708(18) 0.5154(13) 0.4010(9)
H12 H 0.4373 0.4777 0.3789
S6 S -0.1547(3) 0.6687(2) 0.40838(16)
C18 C 0.1125(5) 0.4592(4) 0.4987(3)
S5A S -0.5231(3) 0.3329(4) 0.8140(2)
C12A C -0.480(2) 0.1859(14) 0.9030(9)
H9A H -0.6005 0.1631 0.9607
C13A C -0.2533(16) 0.1063(16) 0.8812(9)
H10A H -0.1956 0.0219 0.9219
C14A C -0.111(3) 0.166(2) 0.7885(14)
H11A H 0.0506 0.1242 0.7601
C15A C -0.2377(5) 0.2915(4) 0.7453(2)
C16A C -0.1468(5) 0.3742(3) 0.6513(2)
C17A C -0.2708(18) 0.4846(13) 0.5990(9)
H12A H -0.4373 0.5223 0.6211
S6A S 0.1547(3) 0.3313(2) 0.59162(16)
C18A C -0.1125(5) 0.5408(4) 0.5013(3)
S3? S -0.015(2) -0.299(2) 0.7444(11)
C8? C -0.019(10) -0.357(8) 0.872(3)
H5? H -0.1312 -0.4195 0.9114
C9? C 0.161(7) -0.301(6) 0.907(2)
H6? H 0.1847 -0.3154 0.9758
C10? C 0.308(6) -0.220(5) 0.8286(18)
H7? H 0.4456 -0.1766 0.8379
C11? C 0.266(3) -0.122(2) 0.5530(11)
H8? H 0.1385 -0.1726 0.5393
S4? S 0.5727(7) -0.0286(5) 0.6471(3)
S7? S 0.0743(10) 0.8532(7) 0.2027(5)
C19? C 0.311(3) 0.884(3) 0.1042(16)
H13? H 0.3019 0.9624 0.0520
C20? C 0.513(4) 0.782(3) 0.1096(17)
H14? H 0.6628 0.7819 0.0622
C21? C 0.472(3) 0.674(3) 0.1963(18)
H15? H 0.5883 0.5911 0.2115
C22? C -0.0841(16) 0.6432(13) 0.4068(9)
H16? H -0.2129 0.7134 0.3887
S8? S 0.3368(3) 0.4886(3) 0.40320(18)
loop_
_geom_bond_atom_site_label_1
_geom_bond_atom_site_label_2
_geom_bond_site_symmetry_1
_geom_bond_site_symmetry_2
S1 C1 1_555 1_555
C1 H1 1_555 1_555
C2 C1 1_555 1_555
H2 C2 1_555 1_555
C3 C2 1_555 1_555
H3 C3 1_555 1_555
C4 S1 1_555 1_555
C5 C4 1_555 1_555
C6 C5 1_555 1_555
H4 C6 1_555 1_555
S2 C5 1_555 1_555
C7 C6 1_555 1_555
S5 C12 1_555 1_555
C12 H9 1_555 1_555
C13 C12 1_555 1_555
H10 C13 1_555 1_555
C14 C13 1_555 1_555
H11 C14 1_555 1_555
C15 S5 1_555 1_555
C16 C15 1_555 1_555
C17 C16 1_555 1_555
H12 C17 1_555 1_555
S6 C16 1_555 1_555
C18 C17 1_555 1_555
S1A C1A 1_555 1_555
C1A H1A 1_555 1_555
C2A C1A 1_555 1_555
H2A C2A 1_555 1_555
C3A C2A 1_555 1_555
H3A C3A 1_555 1_555
C4A S1A 1_555 1_555
C5A C4A 1_555 1_555
C6A C5A 1_555 1_555
H4A C6A 1_555 1_555
S2A C7 1_555 1_555
C7A S2 1_555 1_555
S5A C12A 1_555 1_555
C12A H9A 1_555 1_555
C13A C12A 1_555 1_555
H10A C13A 1_555 1_555
C14A C13A 1_555 1_555
H11A C14A 1_555 1_555
C15A S5A 1_555 1_555
C16A C15A 1_555 1_555
C17A C16A 1_555 1_555
H12A C17A 1_555 1_555
S6A C18 1_555 1_555
C18A S6 1_555 1_555
C3 C4 1_555 1_555
C7 C7A 1_555 1_555
C14 C15 1_555 1_555
C18 C18A 1_555 1_555
C3A C4A 1_555 1_555
C5A S2A 1_555 1_555
C6A C7A 1_555 1_555
C14A C15A 1_555 1_555
C16A S6A 1_555 1_555
C17A C18A 1_555 1_555

#END
