
#######################################################################
#
#                 Cambridge Crystallographic Data Centre
#                                CCDC 
#
#######################################################################
#
# If this CIF has been generated from an entry in the Cambridge 
# Structural Database, then it will include bibliographic, chemical, 
# crystal, experimental, refinement or atomic coordinate data resulting 
# from the CCDC's data processing and validation procedures.
#
#######################################################################

data_QEPLON
_chemical_formula_moiety         'C12 H6 S4'
_chemical_name_systematic        2,2'-bi(thieno[3,2-b]thiophenyl)
_symmetry_cell_setting           triclinic
_symmetry_space_group_name_H-M   'P -1'
_symmetry_Int_Tables_number      2
_space_group_name_Hall           '-P 1'
loop_
_symmetry_equiv_pos_site_id
_symmetry_equiv_pos_as_xyz
1 x,y,z
2 -x,-y,-z
_cell_length_a                   5.7668(16)
_cell_length_b                   7.551(2)
_cell_length_c                   12.884(4)
_cell_angle_alpha                85.131(7)
_cell_angle_beta                 88.367(7)
_cell_angle_gamma                89.927(8)
_cell_volume                     558.783
_exptl_crystal_colour            yellow
_exptl_crystal_description       needle
_cell_formula_units_Z            2
loop_
_atom_site_label
_atom_site_type_symbol
_atom_site_fract_x
_atom_site_fract_y
_atom_site_fract_z
C3 C 0.4006(6) 0.4368(4) 0.85852(19)
H3 H 0.2598 0.3764 0.8616
S3 S 0.52334(17) 0.46689(15) 0.63676(7)
C4 C 0.9140(5) 0.6350(4) 0.68884(19)
H4 H 1.0565 0.6930 0.6854
S4 S 0.80062(16) 0.61249(14) 0.91014(7)
C9 C 0.5379(5) 0.5070(4) 0.9456(2)
C10 C 0.5585(5) 0.4934(4) 0.7650(2)
C11 C 0.7787(6) 0.5713(5) 0.6030(3)
H9 H 0.8312 0.5878 0.5340
C12 C 0.7618(6) 0.5817(5) 0.7823(3)
C3A C 0.5994(6) 0.5632(4) 1.14148(19)
H3A H 0.7402 0.6236 1.1384
S3A S 0.47666(17) 0.53311(15) 1.36324(7)
C4A C 0.0860(5) 0.3650(4) 1.31116(19)
H4A H -0.0565 0.3070 1.3146
S4A S 0.19938(16) 0.38751(14) 1.08986(7)
C9A C 0.4621(5) 0.4930(4) 1.0544(2)
C10A C 0.4415(5) 0.5066(4) 1.2350(2)
C11A C 0.2213(6) 0.4287(5) 1.3970(3)
H9A H 0.1688 0.4122 1.4660
C12A C 0.2382(6) 0.4183(5) 1.2177(3)
C5 C 1.4161(3) -0.0514(2) 0.68634(12)
H5 H 1.5591 -0.1077 0.6816
S5 S 1.2957(3) -0.0808(2) 0.90812(11)
C6 C 0.8654(3) 0.1175(2) 0.85694(12)
H6 H 0.7243 0.1768 0.8609
S6 S 1.0119(2) 0.1288(2) 0.63678(11)
C13 C 1.0378(5) 0.0097(4) 0.9454(2)
C14 C 1.2499(6) -0.0152(5) 0.7845(3)
C15 C 1.2531(6) 0.0420(6) 0.5994(3)
H10 H 1.2961 0.0462 0.5291
C16 C 1.0478(6) 0.0756(5) 0.7604(3)
C5A C 0.5839(3) 0.0514(2) 1.31366(12)
H5A H 0.4409 0.1077 1.3184
S5A S 0.7043(3) 0.0808(2) 1.09188(11)
C6A C 1.1346(3) -0.1175(2) 1.14306(12)
H6A H 1.2757 -0.1768 1.1391
S6A S 0.9881(2) -0.1288(2) 1.36322(11)
C13A C 0.9622(5) -0.0097(4) 1.0546(2)
C14A C 0.7501(6) 0.0152(5) 1.2155(3)
C15A C 0.7469(6) -0.0420(6) 1.4006(3)
H10A H 0.7039 -0.0462 1.4709
C16A C 0.9522(6) -0.0756(5) 1.2396(3)
S1? S 0.4006(6) 0.4368(4) 0.85852(19)
C1? C 0.52334(17) 0.46689(15) 0.63676(7)
H1? H 0.4091 0.4154 0.5996
S2? S 0.9140(5) 0.6350(4) 0.68884(19)
C2? C 0.80062(16) 0.61249(14) 0.91014(7)
H2? H 0.9158 0.6646 0.9464
S7? S 1.4161(3) -0.0514(2) 0.68634(12)
C7? C 1.2957(3) -0.0808(2) 0.90812(11)
H7? H 1.4140 -0.1421 0.9432
S8? S 0.8654(3) 0.1175(2) 0.85694(12)
C8? C 1.0119(2) 0.1288(2) 0.63678(11)
H8? H 0.8939 0.1882 0.6005
loop_
_geom_bond_atom_site_label_1
_geom_bond_atom_site_label_2
_geom_bond_site_symmetry_1
_geom_bond_site_symmetry_2
C3 H3 1_555 1_555
S3 C10 1_555 1_555
C4 H4 1_555 1_555
S4 C9 1_555 1_555
C5 H5 1_555 1_555
S5 C13 1_555 1_555
C6 H6 1_555 1_555
S6 C15 1_555 1_555
C9 C3 1_555 1_555
C10 C3 1_555 1_555
C11 S3 1_555 1_555
H9 C11 1_555 1_555
C12 C4 1_555 1_555
C13 C6 1_555 1_555
C14 C5 1_555 1_555
C15 C5 1_555 1_555
H10 C15 1_555 1_555
C16 C6 1_555 1_555
C3A H3A 1_555 1_555
S3A C10A 1_555 1_555
C4A H4A 1_555 1_555
S4A C9A 1_555 1_555
C5A H5A 1_555 1_555
S5A C13A 1_555 1_555
C6A H6A 1_555 1_555
S6A C15A 1_555 1_555
C9A C9 1_555 1_555
C10A C3A 1_555 1_555
C11A S3A 1_555 1_555
H9A C11A 1_555 1_555
C12A C4A 1_555 1_555
C13A C13 1_555 1_555
C14A C5A 1_555 1_555
C15A C5A 1_555 1_555
H10A C15A 1_555 1_555
C16A C6A 1_555 1_555
C4 C11 1_555 1_555
S4 C12 1_555 1_555
S5 C14 1_555 1_555
S6 C16 1_555 1_555
C10 C12 1_555 1_555
C14 C16 1_555 1_555
C3A C9A 1_555 1_555
C4A C11A 1_555 1_555
S4A C12A 1_555 1_555
S5A C14A 1_555 1_555
C6A C13A 1_555 1_555
S6A C16A 1_555 1_555
C10A C12A 1_555 1_555
C14A C16A 1_555 1_555

#END
