
#######################################################################
#
#                 Cambridge Crystallographic Data Centre
#                                CCDC 
#
#######################################################################
#
# If this CIF has been generated from an entry in the Cambridge 
# Structural Database, then it will include bibliographic, chemical, 
# crystal, experimental, refinement or atomic coordinate data resulting 
# from the CCDC's data processing and validation procedures.
#
#######################################################################

data_QEPLIH
_chemical_formula_moiety         'C14 H8 S4'
_chemical_name_systematic        2,5-bis(2-thienyl)thieno[3,2-b]thiophene
_symmetry_cell_setting           triclinic
_symmetry_space_group_name_H-M   'P -1'
_symmetry_Int_Tables_number      2
_space_group_name_Hall           '-P 1'
loop_
_symmetry_equiv_pos_site_id
_symmetry_equiv_pos_as_xyz
1 x,y,z
2 -x,-y,-z
_cell_length_a                   5.7083(15)
_cell_length_b                   8.616(2)
_cell_length_c                   13.272(4)
_cell_angle_alpha                88.226(6)
_cell_angle_beta                 77.637(6)
_cell_angle_gamma                82.068(6)
_cell_volume                     631.515
_exptl_crystal_colour            yellow
_exptl_crystal_description       plate
_cell_formula_units_Z            2
loop_
_atom_site_label
_atom_site_type_symbol
_atom_site_fract_x
_atom_site_fract_y
_atom_site_fract_z
C1 C 0.0829(5) 0.8478(3) 0.20586(19)
H1 H -0.0816 0.8921 0.2276
S1 S 0.5171(3) 0.6679(2) 0.18729(13)
S2 S -0.1471(3) 0.6654(2) 0.40850(14)
C2 C 0.3257(4) 0.4934(3) 0.40245(16)
H2 H 0.4923 0.4526 0.3834
C3 C 0.4910(10) 0.8022(7) 0.1018(4)
H3 H 0.6208 0.8187 0.0462
C4 C 0.2734(11) 0.8889(7) 0.1145(4)
H4 H 0.2402 0.9719 0.0687
C5 C 0.2361(7) 0.7095(5) 0.2550(3)
C6 C 0.1484(7) 0.6256(5) 0.3485(3)
C7 C -0.1126(7) 0.5406(5) 0.5012(4)
C1A C -0.0829(5) 0.1522(3) 0.79414(19)
H1A H 0.0816 0.1079 0.7724
S1A S -0.5171(3) 0.3321(2) 0.81271(13)
S2A S 0.1471(3) 0.3346(2) 0.59150(14)
C2A C -0.3257(4) 0.5066(3) 0.59755(16)
H2A H -0.4923 0.5474 0.6166
C3A C -0.4910(10) 0.1978(7) 0.8982(4)
H3A H -0.6208 0.1813 0.9538
C4A C -0.2734(11) 0.1111(7) 0.8855(4)
H4A H -0.2402 0.0281 0.9313
C5A C -0.2361(7) 0.2905(5) 0.7450(3)
C6A C -0.1484(7) 0.3744(5) 0.6515(3)
C7A C 0.1126(7) 0.4594(5) 0.4988(4)
C8 C 0.9804(7) 0.2997(5) 0.2506(3)
H5 H 1.0649 0.3164 0.3029
S3 S 0.6766(2) 0.20535(19) 0.14618(11)
C9 C 0.7783(3) 0.1342(2) 0.46113(12)
H6 H 0.9054 0.1822 0.4777
S4 S 0.4413(5) 0.0331(3) 0.3575(2)
C10 C 1.0295(8) 0.3556(6) 0.1443(4)
H7 H 1.1560 0.4170 0.1193
C11 C 0.8859(10) 0.3157(7) 0.0833(4)
H8 H 0.9007 0.3461 0.0130
C12 C 0.7714(8) 0.2114(5) 0.2604(4)
C13 C 0.6628(8) 0.1299(5) 0.3530(3)
C14 C 0.5811(7) 0.0211(5) 0.5269(4)
C8A C 0.0196(7) -0.2997(5) 0.7494(3)
H5A H -0.0649 -0.3164 0.6971
S3A S 0.3234(2) -0.20535(19) 0.85382(11)
C9A C 0.2217(3) -0.1342(2) 0.53887(12)
H6A H 0.0946 -0.1822 0.5223
S4A S 0.5587(5) -0.0331(3) 0.6425(2)
C10A C -0.0295(8) -0.3556(6) 0.8557(4)
H7A H -0.1560 -0.4170 0.8807
C11A C 0.1141(10) -0.3157(7) 0.9167(4)
H8A H 0.0993 -0.3461 0.9870
C12A C 0.2286(8) -0.2114(5) 0.7396(4)
C13A C 0.3372(8) -0.1299(5) 0.6470(3)
C14A C 0.4189(7) -0.0211(5) 0.4731(4)
S5? S 0.0829(5) 0.8478(3) 0.20586(19)
C15? C 0.5171(3) 0.6679(2) 0.18729(13)
H9? H 0.6480 0.5913 0.1960
C16? C -0.1471(3) 0.6654(2) 0.40850(14)
H10? H -0.2810 0.7340 0.3939
S6? S 0.3257(4) 0.4934(3) 0.40245(16)
S7? S 0.9804(7) 0.2997(5) 0.2506(3)
C17? C 0.6766(2) 0.20535(19) 0.14618(11)
H11? H 0.5532 0.1579 0.1260
S8? S 0.7783(3) 0.1342(2) 0.46113(12)
C18? C 0.4413(5) 0.0331(3) 0.3575(2)
H12? H 0.3526 0.0144 0.3072
loop_
_geom_bond_atom_site_label_1
_geom_bond_atom_site_label_2
_geom_bond_site_symmetry_1
_geom_bond_site_symmetry_2
C1 H1 1_555 1_555
S1 C3 1_555 1_555
S2 C6 1_555 1_555
C2 H2 1_555 1_555
C3 H3 1_555 1_555
C4 C1 1_555 1_555
H4 C4 1_555 1_555
C5 C1 1_555 1_555
C6 C2 1_555 1_555
C7 S2 1_555 1_555
C8 H5 1_555 1_555
S3 C11 1_555 1_555
C9 H6 1_555 1_555
S4 C13 1_555 1_555
C10 C8 1_555 1_555
H7 C10 1_555 1_555
C11 C10 1_555 1_555
H8 C11 1_555 1_555
C12 C8 1_555 1_555
C13 C9 1_555 1_555
C14 C9 1_555 1_555
C1A H1A 1_555 1_555
S1A C3A 1_555 1_555
S2A C6A 1_555 1_555
C2A C7 1_555 1_555
H2A C2A 1_555 1_555
C3A H3A 1_555 1_555
C4A C1A 1_555 1_555
H4A C4A 1_555 1_555
C5A C1A 1_555 1_555
C6A C2A 1_555 1_555
C7A C2 1_555 1_555
C8A H5A 1_555 1_555
S3A C11A 1_555 1_555
C9A H6A 1_555 1_555
S4A C14 1_555 1_555
C10A C8A 1_555 1_555
H7A C10A 1_555 1_555
C11A C10A 1_555 1_555
H8A C11A 1_555 1_555
C12A C8A 1_555 1_555
C13A C9A 1_555 1_555
C14A S4 1_555 1_555
S1 C5 1_555 1_555
C3 C4 1_555 1_555
C5 C6 1_555 1_555
C7 C7A 1_555 1_555
S3 C12 1_555 1_555
C12 C13 1_555 1_555
C14 C14A 1_555 1_555
S1A C5A 1_555 1_555
S2A C7A 1_555 1_555
C3A C4A 1_555 1_555
C5A C6A 1_555 1_555
S3A C12A 1_555 1_555
C9A C14A 1_555 1_555
S4A C13A 1_555 1_555
C12A C13A 1_555 1_555

#END
