
#######################################################################
#
#                 Cambridge Crystallographic Data Centre
#                                CCDC 
#
#######################################################################
#
# If this CIF has been generated from an entry in the Cambridge 
# Structural Database, then it will include bibliographic, chemical, 
# crystal, experimental, refinement or atomic coordinate data resulting 
# from the CCDC's data processing and validation procedures.
#
#######################################################################

data_QEPLUV
_chemical_formula_moiety         'C10 H15 N1 O3'
_chemical_name_systematic        
6-t-butoxy-3-azabicyclo[3.2.0]heptane-2,4-dione
_symmetry_cell_setting           monoclinic
_symmetry_space_group_name_H-M   'P 21/n'
_symmetry_Int_Tables_number      14
_space_group_name_Hall           '-P 2yn'
loop_
_symmetry_equiv_pos_site_id
_symmetry_equiv_pos_as_xyz
1 x,y,z
2 1/2-x,1/2+y,1/2-z
3 -x,-y,-z
4 1/2+x,1/2-y,1/2+z
_cell_length_a                   9.1273(4)
_cell_length_b                   9.0984(3)
_cell_length_c                   13.1203(5)
_cell_angle_alpha                90
_cell_angle_beta                 109.613(2)
_cell_angle_gamma                90
_cell_volume                     1026.35
_exptl_crystal_colour            colorless
_exptl_crystal_description       plate
_cell_formula_units_Z            4
loop_
_atom_site_label
_atom_site_type_symbol
_atom_site_fract_x
_atom_site_fract_y
_atom_site_fract_z
O1 O 0.79653(8) 0.86607(8) -0.00334(6)
O2 O 0.43185(8) 0.77887(9) -0.04563(6)
O3 O 0.53620(8) 1.01470(9) 0.27836(6)
N1 N 0.45461(9) 0.91348(9) 0.10744(7)
H1 H 0.3660 0.9613 0.0818
C1 C 0.69897(11) 0.84277(11) 0.22248(8)
H2 H 0.7429 0.7874 0.2919
C2 C 0.55769(10) 0.93362(11) 0.21154(8)
C3 C 0.65807(11) 0.74963(11) 0.11812(8)
H3 H 0.6594 0.6409 0.1297
C4 C 0.50355(11) 0.81123(11) 0.04732(8)
C5 C 0.81889(11) 0.93117(12) 0.18539(8)
H4 H 0.7812 1.0292 0.1550
H5 H 0.9234 0.9380 0.2411
C6 C 0.80601(11) 0.81296(11) 0.09932(8)
H6 H 0.8941 0.7418 0.1260
C7 C 0.86206(11) 0.76950(12) -0.06672(8)
C8 C 0.82318(14) 0.84660(14) -0.17501(9)
H7 H 0.7100 0.8518 -0.2094
H8 H 0.8680 0.7916 -0.2216
H9 H 0.8664 0.9463 -0.1640
C9 C 1.03803(12) 0.76029(13) -0.01229(9)
H10 H 1.0824 0.8595 -0.0035
H11 H 1.0827 0.7017 -0.0573
H12 H 1.0620 0.7138 0.0588
C10 C 0.78550(14) 0.61924(13) -0.07916(10)
H13 H 0.8141 0.5712 -0.0083
H14 H 0.8208 0.5590 -0.1284
H15 H 0.6723 0.6306 -0.1088
loop_
_geom_bond_atom_site_label_1
_geom_bond_atom_site_label_2
_geom_bond_site_symmetry_1
_geom_bond_site_symmetry_2
O1 C6 1_555 1_555
O2 C4 1_555 1_555
O3 C2 1_555 1_555
N1 H1 1_555 1_555
C1 H2 1_555 1_555
C2 N1 1_555 1_555
C3 C1 1_555 1_555
H3 C3 1_555 1_555
C4 N1 1_555 1_555
C5 C1 1_555 1_555
H4 C5 1_555 1_555
H5 C5 1_555 1_555
C6 C3 1_555 1_555
H6 C6 1_555 1_555
C7 O1 1_555 1_555
C8 C7 1_555 1_555
H7 C8 1_555 1_555
H8 C8 1_555 1_555
H9 C8 1_555 1_555
C9 C7 1_555 1_555
H10 C9 1_555 1_555
H11 C9 1_555 1_555
H12 C9 1_555 1_555
C10 C7 1_555 1_555
H13 C10 1_555 1_555
H14 C10 1_555 1_555
H15 C10 1_555 1_555
C1 C2 1_555 1_555
C3 C4 1_555 1_555
C5 C6 1_555 1_555

#END
