
#######################################################################
#
#                 Cambridge Crystallographic Data Centre
#                                CCDC 
#
#######################################################################
#
# If this CIF has been generated from an entry in the Cambridge 
# Structural Database, then it will include bibliographic, chemical, 
# crystal, experimental, refinement or atomic coordinate data resulting 
# from the CCDC's data processing and validation procedures.
#
#######################################################################

data_QEPMEG
_chemical_formula_moiety         'C22 H33 N3 O6,0.25(H2 O1)'
_chemical_name_systematic        
't-butyl (2-t-butoxy-4-{[1-(4-nitrophenyl)ethyl]carbamoyl}cyclobutyl)carbamate hydrate'
_symmetry_cell_setting           monoclinic
_symmetry_space_group_name_H-M   'C 2'
_symmetry_Int_Tables_number      5
_space_group_name_Hall           'C 2y'
loop_
_symmetry_equiv_pos_site_id
_symmetry_equiv_pos_as_xyz
1 x,y,z
2 -x,y,-z
3 1/2+x,1/2+y,z
4 1/2-x,1/2+y,-z
_cell_length_a                   36.124(12)
_cell_length_b                   9.409(3)
_cell_length_c                   14.680(4)
_cell_angle_alpha                90
_cell_angle_beta                 93.390(8)
_cell_angle_gamma                90
_cell_volume                     4980.86
_exptl_crystal_colour            colorless
_exptl_crystal_description       plate
_cell_formula_units_Z            8
loop_
_atom_site_label
_atom_site_type_symbol
_atom_site_fract_x
_atom_site_fract_y
_atom_site_fract_z
C1 C 0.58235(19) 0.1955(8) 0.6507(5)
H1 H 0.578376 0.094791 0.664184
C2 C 0.5542(2) 0.2494(8) 0.5760(5)
H2 H 0.531457 0.194333 0.570495
H3 H 0.548921 0.350225 0.579898
C3 C 0.5818(2) 0.2120(8) 0.5050(5)
H4 H 0.577631 0.115487 0.481513
C4 C 0.6139(2) 0.2154(8) 0.5818(4)
H5 H 0.630875 0.134467 0.579910
C5 C 0.5885(2) 0.2808(10) 0.7365(5)
C6 C 0.6175(2) 0.2735(8) 0.8922(5)
H6 H 0.620469 0.376022 0.883242
C7 C 0.6546(2) 0.2137(10) 0.9299(6)
H7 H 0.673335 0.233648 0.888049
H8 H 0.652468 0.112770 0.937684
H9 H 0.661258 0.257088 0.987770
C8 C 0.5873(2) 0.2516(9) 0.9595(5)
C9 C 0.5738(2) 0.3664(9) 1.0055(5)
H10 H 0.582580 0.457412 0.994795
C10 C 0.5469(2) 0.3452(10) 1.0680(5)
H11 H 0.537707 0.421478 1.099930
C11 C 0.5344(2) 0.2122(11) 1.0816(5)
C12 C 0.5476(3) 0.0956(11) 1.0372(6)
H12 H 0.538848 0.004812 1.048975
C13 C 0.5740(3) 0.1171(9) 0.9748(6)
H13 H 0.582948 0.040257 0.942758
C14 C 0.6006(2) 0.2664(9) 0.3520(5)
C15 C 0.5781(2) 0.1477(9) 0.3064(6)
H14 H 0.552239 0.172214 0.304269
H15 H 0.581990 0.061407 0.340527
H16 H 0.585680 0.134135 0.245416
C16 C 0.5992(3) 0.3980(10) 0.2928(6)
H17 H 0.611649 0.474683 0.325041
H18 H 0.573817 0.423646 0.278334
H19 H 0.611235 0.379159 0.237492
C17 C 0.6402(2) 0.2192(10) 0.3751(5)
H20 H 0.640135 0.137074 0.413889
H21 H 0.653637 0.294731 0.406164
H22 H 0.651882 0.196035 0.319980
C18 C 0.6688(3) 0.3763(12) 0.5950(5)
C19 C 0.7285(2) 0.2570(9) 0.6126(6)
C20 C 0.7381(3) 0.1052(10) 0.6368(7)
H23 H 0.726484 0.042717 0.592042
H24 H 0.729450 0.083248 0.695796
H25 H 0.764512 0.092980 0.638074
C21 C 0.7394(3) 0.2908(14) 0.5169(7)
H26 H 0.733578 0.388241 0.502983
H27 H 0.725894 0.230058 0.474128
H28 H 0.765485 0.275391 0.513083
C22 C 0.7453(3) 0.3535(12) 0.6822(8)
H29 H 0.733917 0.338914 0.738885
H30 H 0.741574 0.450101 0.662722
H31 H 0.771390 0.334383 0.690279
N1 N 0.5064(2) 0.1886(13) 1.1512(6)
N2 N 0.60689(17) 0.2100(7) 0.8037(4)
H32 H 0.612804 0.122875 0.794470
N3 N 0.63225(19) 0.3507(7) 0.5869(4)
H33 H 0.618093 0.424275 0.584444
O1 O 0.49580(19) 0.2919(9) 1.1921(5)
O2 O 0.49650(19) 0.0655(9) 1.1625(4)
O3 O 0.57904(16) 0.4056(6) 0.7420(4)
O4 O 0.58236(14) 0.3120(5) 0.4330(3)
O5 O 0.68224(17) 0.4943(7) 0.5873(5)
O6 O 0.68794(14) 0.2573(5) 0.6132(3)
C23 C 0.6385(2) 0.7147(9) 0.7379(5)
H34 H 0.633633 0.630624 0.699567
C24 C 0.6673(2) 0.8131(9) 0.6979(5)
H35 H 0.663183 0.913168 0.709574
H36 H 0.670841 0.796348 0.633847
C25 C 0.6974(2) 0.7454(9) 0.7627(5)
H37 H 0.711604 0.672023 0.732708
C26 C 0.6668(2) 0.6821(9) 0.8199(5)
H38 H 0.669941 0.580390 0.832427
C27 C 0.6031(3) 0.7846(10) 0.7631(5)
C28 C 0.5377(2) 0.7501(9) 0.7903(5)
H39 H 0.540139 0.850424 0.807679
C29 C 0.5243(2) 0.6683(10) 0.8714(5)
H40 H 0.540393 0.687162 0.924291
H41 H 0.524401 0.568352 0.858228
H42 H 0.499503 0.697705 0.882714
C30 C 0.5103(2) 0.7400(9) 0.7065(5)
C31 C 0.4969(2) 0.6127(9) 0.6751(5)
H43 H 0.504823 0.529170 0.703835
C32 C 0.4711(2) 0.6064(8) 0.5997(5)
H44 H 0.462294 0.519812 0.576813
C33 C 0.4596(2) 0.7312(9) 0.5614(5)
C34 C 0.4731(2) 0.8585(9) 0.5891(6)
H45 H 0.465580 0.941682 0.559239
C35 C 0.4986(2) 0.8619(10) 0.6635(6)
H46 H 0.507860 0.948911 0.684501
C36 C 0.7554(2) 0.8045(9) 0.8504(5)
C37 C 0.7841(2) 0.7893(9) 0.7791(6)
H47 H 0.786370 0.877777 0.747304
H48 H 0.776466 0.716210 0.736417
H49 H 0.807650 0.764412 0.808642
C38 C 0.7651(2) 0.9256(9) 0.9149(5)
H50 H 0.747960 0.927307 0.962472
H51 H 0.763655 1.013758 0.882008
H52 H 0.789814 0.912629 0.941257
C39 C 0.7519(2) 0.6676(8) 0.9028(5)
H53 H 0.745160 0.591989 0.861096
H54 H 0.733115 0.677904 0.945924
H55 H 0.775176 0.645772 0.934593
C40 C 0.6499(2) 0.7129(10) 0.9780(6)
C41 C 0.6403(2) 0.7884(8) 1.1353(5)
C42 C 0.5993(2) 0.7507(9) 1.1345(5)
H56 H 0.595214 0.660814 1.104546
H57 H 0.585046 0.822807 1.102256
H58 H 0.591862 0.744532 1.196019
C43 C 0.6649(2) 0.6751(9) 1.1793(6)
H59 H 0.690330 0.696895 1.170094
H60 H 0.658671 0.584571 1.152311
H61 H 0.661230 0.671611 1.243525
C44 C 0.6475(3) 0.9314(8) 1.1810(6)
H62 H 0.634246 1.004137 1.146731
H63 H 0.673570 0.951718 1.183184
H64 H 0.639202 0.928754 1.241903
N4 N 0.43091(18) 0.7284(10) 0.4827(4)
N5 N 0.57355(18) 0.6993(7) 0.7668(4)
H65 H 0.576073 0.610537 0.754538
N6 N 0.66268(16) 0.7666(6) 0.9007(4)
H66 H 0.668634 0.855010 0.899484
O7 O 0.42195(15) 0.6117(6) 0.4513(3)
O8 O 0.41757(19) 0.8403(7) 0.4560(4)
O9 O 0.60198(16) 0.9129(6) 0.7813(4)
O10 O 0.72043(13) 0.8509(5) 0.8056(3)
O11 O 0.65116(14) 0.8177(5) 1.0423(3)
O12 O 0.63983(16) 0.5924(6) 0.9890(3)
O13 O 0.6569(7) 0.701(3) 1.4407(12)
H67 H 0.673(6) 0.65(3) 1.400(15)
H68 H 0.640(6) 0.75(3) 1.398(14)
loop_
_geom_bond_atom_site_label_1
_geom_bond_atom_site_label_2
_geom_bond_site_symmetry_1
_geom_bond_site_symmetry_2
C1 H1 1_555 1_555
C2 C1 1_555 1_555
H2 C2 1_555 1_555
H3 C2 1_555 1_555
C3 C2 1_555 1_555
H4 C3 1_555 1_555
C4 C1 1_555 1_555
H5 C4 1_555 1_555
C5 C1 1_555 1_555
C6 H6 1_555 1_555
C7 C6 1_555 1_555
H7 C7 1_555 1_555
H8 C7 1_555 1_555
H9 C7 1_555 1_555
C8 C6 1_555 1_555
C9 C8 1_555 1_555
H10 C9 1_555 1_555
C10 C9 1_555 1_555
H11 C10 1_555 1_555
C11 C10 1_555 1_555
C12 C11 1_555 1_555
H12 C12 1_555 1_555
C13 C8 1_555 1_555
H13 C13 1_555 1_555
C14 C15 1_555 1_555
C15 H14 1_555 1_555
H15 C15 1_555 1_555
H16 C15 1_555 1_555
C16 C14 1_555 1_555
H17 C16 1_555 1_555
H18 C16 1_555 1_555
H19 C16 1_555 1_555
C17 C14 1_555 1_555
H20 C17 1_555 1_555
H21 C17 1_555 1_555
H22 C17 1_555 1_555
C18 N3 1_555 1_555
C19 C20 1_555 1_555
C20 H23 1_555 1_555
H24 C20 1_555 1_555
H25 C20 1_555 1_555
C21 C19 1_555 1_555
H26 C21 1_555 1_555
H27 C21 1_555 1_555
H28 C21 1_555 1_555
C22 C19 1_555 1_555
H29 C22 1_555 1_555
H30 C22 1_555 1_555
H31 C22 1_555 1_555
N1 C11 1_555 1_555
N2 C5 1_555 1_555
H32 N2 1_555 1_555
N3 C4 1_555 1_555
H33 N3 1_555 1_555
O1 N1 1_555 1_555
O2 N1 1_555 1_555
O3 C5 1_555 1_555
O4 C3 1_555 1_555
O5 C18 1_555 1_555
O6 C18 1_555 1_555
C23 H34 1_555 1_555
C24 C23 1_555 1_555
H35 C24 1_555 1_555
H36 C24 1_555 1_555
C25 C24 1_555 1_555
H37 C25 1_555 1_555
C26 C23 1_555 1_555
H38 C26 1_555 1_555
C27 C23 1_555 1_555
C28 H39 1_555 1_555
C29 C28 1_555 1_555
H40 C29 1_555 1_555
H41 C29 1_555 1_555
H42 C29 1_555 1_555
C30 C28 1_555 1_555
C31 C30 1_555 1_555
H43 C31 1_555 1_555
C32 C31 1_555 1_555
H44 C32 1_555 1_555
C33 C32 1_555 1_555
C34 C33 1_555 1_555
H45 C34 1_555 1_555
C35 C30 1_555 1_555
H46 C35 1_555 1_555
C36 C37 1_555 1_555
C37 H47 1_555 1_555
H48 C37 1_555 1_555
H49 C37 1_555 1_555
C38 C36 1_555 1_555
H50 C38 1_555 1_555
H51 C38 1_555 1_555
H52 C38 1_555 1_555
C39 C36 1_555 1_555
H53 C39 1_555 1_555
H54 C39 1_555 1_555
H55 C39 1_555 1_555
C40 N6 1_555 1_555
C41 C42 1_555 1_555
C42 H56 1_555 1_555
H57 C42 1_555 1_555
H58 C42 1_555 1_555
C43 C41 1_555 1_555
H59 C43 1_555 1_555
H60 C43 1_555 1_555
H61 C43 1_555 1_555
C44 C41 1_555 1_555
H62 C44 1_555 1_555
H63 C44 1_555 1_555
H64 C44 1_555 1_555
N4 C33 1_555 1_555
N5 C27 1_555 1_555
H65 N5 1_555 1_555
N6 C26 1_555 1_555
H66 N6 1_555 1_555
O7 N4 1_555 1_555
O8 N4 1_555 1_555
O9 C27 1_555 1_555
O10 C25 1_555 1_555
O11 C40 1_555 1_555
O12 C40 1_555 1_555
O13 H67 1_555 1_555
H68 O13 1_555 1_555
C3 C4 1_555 1_555
C6 N2 1_555 1_555
C12 C13 1_555 1_555
C14 O4 1_555 1_555
C19 O6 1_555 1_555
C25 C26 1_555 1_555
C28 N5 1_555 1_555
C34 C35 1_555 1_555
C36 O10 1_555 1_555
C41 O11 1_555 1_555

#END
