
#######################################################################
#
#                 Cambridge Crystallographic Data Centre
#                                CCDC 
#
#######################################################################
#
# If this CIF has been generated from an entry in the Cambridge 
# Structural Database, then it will include bibliographic, chemical, 
# crystal, experimental, refinement or atomic coordinate data resulting 
# from the CCDC's data processing and validation procedures.
#
#######################################################################

data_QEPRAH
_chemical_formula_moiety         'C9 H14 N3 O3 1+,C2 H3 O2 1-'
_chemical_name_systematic        
'2-[(2-methoxy-4-nitrophenyl)amino]ethan-1-aminium acetate'
_symmetry_cell_setting           orthorhombic
_symmetry_space_group_name_H-M   'F d d 2'
_symmetry_Int_Tables_number      43
_space_group_name_Hall           'F 2 -2d'
loop_
_symmetry_equiv_pos_site_id
_symmetry_equiv_pos_as_xyz
1 x,y,z
2 -x,-y,z
3 1/4+x,1/4-y,1/4+z
4 1/4-x,1/4+y,1/4+z
5 x,1/2+y,1/2+z
6 -x,1/2-y,1/2+z
7 1/4+x,3/4-y,3/4+z
8 1/4-x,3/4+y,3/4+z
9 1/2+x,y,1/2+z
10 1/2-x,-y,1/2+z
11 3/4+x,1/4-y,3/4+z
12 3/4-x,1/4+y,3/4+z
13 1/2+x,1/2+y,z
14 1/2-x,1/2-y,z
15 3/4+x,3/4-y,1/4+z
16 3/4-x,3/4+y,1/4+z
_cell_length_a                   38.6992(5)
_cell_length_b                   23.6558(3)
_cell_length_c                   5.90730(10)
_cell_angle_alpha                90
_cell_angle_beta                 90
_cell_angle_gamma                90
_cell_volume                     5407.9
_exptl_crystal_colour            yellow
_exptl_crystal_description       needle
_cell_formula_units_Z            16
_exptl_crystal_recrystallization_method 'dry ethyl acetate'
_exptl_crystal_preparation       'SHG active compound'
loop_
_atom_site_label
_atom_site_type_symbol
_atom_site_fract_x
_atom_site_fract_y
_atom_site_fract_z
O1 O 0.42080(4) 0.51138(6) 0.6841(3)
O2 O 0.41211(7) 0.63910(10) 0.0126(5)
O3 O 0.35986(6) 0.67028(9) 0.0161(4)
N1 N 0.27066(4) 0.45786(7) 0.9415(3)
H1 H 0.2715(7) 0.4472(13) 1.100(6)
H2 H 0.2572(6) 0.4298(10) 0.852(5)
H3 H 0.2613(5) 0.4928(10) 0.937(4)
N2 N 0.36036(4) 0.51534(8) 0.8786(3)
H4 H 0.3772(7) 0.4937(11) 0.921(5)
N3 N 0.38304(6) 0.64167(9) 0.0973(4)
C1 C 0.30657(5) 0.46219(8) 0.8560(3)
H5 H 0.3061 0.4722 0.6968
H6 H 0.3178 0.4257 0.8700
C2 C 0.32714(5) 0.50600(8) 0.9851(4)
H7 H 0.3143 0.5412 0.9897
H8 H 0.3306 0.4933 1.1396
C3 C 0.36428(5) 0.54581(7) 0.6858(4)
C4 C 0.39712(5) 0.54514(8) 0.5783(4)
C5 C 0.40304(5) 0.57636(8) 0.3870(4)
H9 H 0.4245 0.5757 0.3166
C6 C 0.37634(6) 0.60892(8) 0.3003(4)
C7 C 0.34395(6) 0.61029(8) 0.3971(4)
H10 H 0.3264 0.6322 0.3344
C8 C 0.33808(5) 0.57850(9) 0.5884(4)
H11 H 0.3162 0.5788 0.6542
C9 C 0.45279(6) 0.50310(11) 0.5724(6)
H12 H 0.4487 0.4896 0.4215
H13 H 0.4662 0.4758 0.6540
H14 H 0.4651 0.5383 0.5660
O4 O 0.24387(5) 0.37623(7) 0.6722(3)
O5 O 0.25537(4) 0.43344(5) 0.3858(3)
C10 C 0.24767(10) 0.33639(11) 0.3066(6)
H15 H 0.2479 0.3016 0.3902
H16 H 0.2673 0.3377 0.2077
H17 H 0.2269 0.3386 0.2184
C11 C 0.24904(5) 0.38533(8) 0.4681(4)
loop_
_geom_bond_atom_site_label_1
_geom_bond_atom_site_label_2
_geom_bond_site_symmetry_1
_geom_bond_site_symmetry_2
O1 C4 1_555 1_555
O2 N3 1_555 1_555
O3 N3 1_555 1_555
N1 H1 1_555 1_555
H2 N1 1_555 1_555
H3 N1 1_555 1_555
N2 H4 1_555 1_555
N3 C6 1_555 1_555
C1 N1 1_555 1_555
H5 C1 1_555 1_555
H6 C1 1_555 1_555
C2 N2 1_555 1_555
H7 C2 1_555 1_555
H8 C2 1_555 1_555
C3 N2 1_555 1_555
C4 C3 1_555 1_555
C5 C4 1_555 1_555
H9 C5 1_555 1_555
C6 C5 1_555 1_555
C7 C6 1_555 1_555
H10 C7 1_555 1_555
C8 C3 1_555 1_555
H11 C8 1_555 1_555
C9 O1 1_555 1_555
H12 C9 1_555 1_555
H13 C9 1_555 1_555
H14 C9 1_555 1_555
O4 C11 1_555 1_555
O5 C11 1_555 1_555
C10 H15 1_555 1_555
H16 C10 1_555 1_555
H17 C10 1_555 1_555
C11 C10 1_555 1_555
C1 C2 1_555 1_555
C7 C8 1_555 1_555

#END
