
#######################################################################
#
#                 Cambridge Crystallographic Data Centre
#                                CCDC 
#
#######################################################################
#
# If this CIF has been generated from an entry in the Cambridge 
# Structural Database, then it will include bibliographic, chemical, 
# crystal, experimental, refinement or atomic coordinate data resulting 
# from the CCDC's data processing and validation procedures.
#
#######################################################################

data_QEPWOX
_chemical_formula_moiety         'C25 H62 B8 Mg1 O2 Si4'
_chemical_name_systematic        
(Methyl-tetrakis(trimethylsilyl)-tetracarbadodecaborane)-bis(tetrahydrofuran)-magnesium
_symmetry_cell_setting           monoclinic
_symmetry_space_group_name_H-M   'P 21/c'
_symmetry_Int_Tables_number      14
_space_group_name_Hall           '-P 2ybc'
loop_
_symmetry_equiv_pos_site_id
_symmetry_equiv_pos_as_xyz
1 x,y,z
2 -x,1/2+y,1/2-z
3 -x,-y,-z
4 x,1/2-y,1/2+z
_cell_length_a                   10.309(2)
_cell_length_b                   33.730(7)
_cell_length_c                   11.617(3)
_cell_angle_alpha                90
_cell_angle_beta                 111.13(2)
_cell_angle_gamma                90
_cell_volume                     3767.9
_exptl_crystal_colour            colorless
_chemical_melting_point          'above 250 deg.C'
_cell_formula_units_Z            4
_exptl_crystal_recrystallization_method tetrahydrofuran
loop_
_atom_site_label
_atom_site_type_symbol
_atom_site_fract_x
_atom_site_fract_y
_atom_site_fract_z
Mg1 Mg 0.1738(2) 0.3658(1) 0.0544(1)
Si1 Si 0.3996(2) 0.4423(1) 0.1111(1)
Si2 Si 0.6029(2) 0.3271(1) 0.4339(1)
Si3 Si -0.0004(1) 0.2924(1) 0.0902(1)
Si4 Si 0.1215(2) 0.4405(1) 0.4195(1)
C1 C 0.3286(5) 0.4038(1) 0.1850(4)
B1 B 0.2259(6) 0.4169(2) 0.2430(5)
B2 B 0.4144(6) 0.3682(2) 0.2424(5)
C2 C 0.4158(4) 0.3456(1) 0.3641(4)
B3 B 0.2914(6) 0.3136(2) 0.2713(5)
C3 C 0.1336(4) 0.3285(1) 0.1914(4)
B4 B 0.0848(6) 0.3632(2) 0.2652(5)
C4 C 0.1979(5) 0.3975(1) 0.3566(4)
B5 B 0.3504(6) 0.3757(2) 0.4429(5)
C5 C 0.4521(6) 0.3994(2) 0.5590(5)
B6 B 0.3197(6) 0.3235(2) 0.4342(5)
B7 B 0.1860(6) 0.3558(2) 0.4303(5)
B8 B 0.1484(6) 0.3144(2) 0.3288(5)
C6 C 0.4932(7) 0.4806(2) 0.2280(5)
C7 C 0.2627(6) 0.4688(2) -0.0186(5)
C8 C 0.5309(6) 0.4222(2) 0.0480(5)
C9 C 0.7243(6) 0.3686(2) 0.4399(6)
C10 C 0.6538(6) 0.3072(2) 0.5957(5)
C11 C 0.6379(6) 0.2869(2) 0.3393(5)
C12 C -0.1672(5) 0.2979(2) 0.1185(5)
C13 C 0.0630(6) 0.2400(1) 0.1191(5)
C14 C -0.0516(6) 0.2996(2) -0.0808(4)
C15 C 0.1002(7) 0.4309(2) 0.5703(5)
C16 C -0.0562(5) 0.4538(2) 0.3106(5)
C17 C 0.2376(6) 0.4848(2) 0.4452(5)
O1 O 0.0047(3) 0.3945(1) -0.0627(3)
C18 C -0.0363(6) 0.4007(2) -0.1950(4)
C19 C -0.1616(7) 0.4263(3) -0.2296(6)
C20 C -0.2112(8) 0.4245(3) -0.1349(6)
C21 C -0.0999(6) 0.4127(2) -0.0224(5)
O2 O 0.2502(3) 0.3378(1) -0.0622(3)
C22 C 0.2637(6) 0.3511(2) -0.1766(4)
C23 C 0.3892(7) 0.3295(2) -0.1849(6)
C24 C 0.4354(7) 0.3026(2) -0.0758(7)
C25 C 0.3239(7) 0.2999(2) -0.0294(5)
H1 H 0.1590(38) 0.4419(11) 0.2075(33)
H2 H 0.4922(39) 0.3543(11) 0.2065(34)
H3 H 0.3270(39) 0.2843(11) 0.2451(34)
H4 H -0.0216(40) 0.3695(11) 0.2365(35)
H5 H 0.3701(39) 0.3014(11) 0.5095(34)
H6 H 0.1351(39) 0.3577(11) 0.5028(34)
H7 H 0.0991(39) 0.2898(11) 0.3514(34)
H8 H 0.5346 0.4069 0.5442
H9 H 0.4056 0.4228 0.5714
H10 H 0.4770 0.3830 0.6313
H11 H 0.5643 0.4681 0.2959
H12 H 0.5348 0.4997 0.1906
H13 H 0.4285 0.4937 0.2574
H14 H 0.1939 0.4794 0.0107
H15 H 0.3049 0.4900 -0.0477
H16 H 0.2194 0.4506 -0.0848
H17 H 0.6027 0.4084 0.1120
H18 H 0.4858 0.4043 -0.0187
H19 H 0.5712 0.4437 0.0184
H20 H 0.8185 0.3593 0.4751
H21 H 0.7067 0.3783 0.3579
H22 H 0.7104 0.3896 0.4899
H23 H 0.7489 0.2986 0.6240
H24 H 0.6436 0.3277 0.6491
H25 H 0.5949 0.2852 0.5964
H26 H 0.7326 0.2783 0.3769
H27 H 0.5767 0.2650 0.3347
H28 H 0.6222 0.2966 0.2577
H29 H -0.2028 0.2722 0.1267
H30 H -0.1506 0.3128 0.1929
H31 H -0.2339 0.3117 0.0503
H32 H -0.0093 0.2234 0.1266
H33 H 0.0879 0.2309 0.0515
H34 H 0.1429 0.2388 0.1940
H35 H -0.1194 0.2800 -0.1236
H36 H -0.0904 0.3256 -0.1030
H37 H 0.0290 0.2968 -0.1030
H38 H 0.0616 0.4540 0.5945
H39 H 0.0388 0.4088 0.5616
H40 H 0.1892 0.4250 0.6322
H41 H -0.0919 0.4754 0.3443
H42 H -0.0514 0.4616 0.2328
H43 H -0.1166 0.4313 0.2989
H44 H 0.1989 0.5062 0.4767
H45 H 0.3280 0.4783 0.5036
H46 H 0.2453 0.4925 0.3685
H47 H 0.0367 0.4136 -0.2137
H48 H -0.0582 0.3758 -0.2381
H49 H -0.2309 0.4170 -0.3047
H50 H -0.1373 0.4532 -0.2407
H51 H -0.2456 0.4500 -0.1235
H52 H -0.2851 0.4054 -0.1547
H53 H -0.0621 0.4354 0.0285
H54 H -0.1332 0.3940 0.0228
H55 H 0.1816 0.3445 -0.2459
H56 H 0.2782 0.3793 -0.1745
H57 H 0.4615 0.3479 -0.1812
H58 H 0.3638 0.3145 -0.2601
H59 H 0.5170 0.3131 -0.0133
H60 H 0.4558 0.2768 -0.0999
H61 H 0.2631 0.2783 -0.0675
H62 H 0.3599 0.2963 0.0585
loop_
_geom_bond_atom_site_label_1
_geom_bond_atom_site_label_2
_geom_bond_site_symmetry_1
_geom_bond_site_symmetry_2
Mg1 C1 1_555 1_555
Si1 C1 1_555 1_555
Si2 C2 1_555 1_555
Si3 C3 1_555 1_555
Si4 C4 1_555 1_555
C1 B1 1_555 1_555
B1 C4 1_555 1_555
B2 C1 1_555 1_555
C2 B2 1_555 1_555
B3 C2 1_555 1_555
C3 Mg1 1_555 1_555
B4 C3 1_555 1_555
C4 B4 1_555 1_555
B5 C2 1_555 1_555
C5 B5 1_555 1_555
B6 C2 1_555 1_555
B7 B4 1_555 1_555
B8 B3 1_555 1_555
C6 Si1 1_555 1_555
C7 Si1 1_555 1_555
C8 Si1 1_555 1_555
C9 Si2 1_555 1_555
C10 Si2 1_555 1_555
C11 Si2 1_555 1_555
C12 Si3 1_555 1_555
C13 Si3 1_555 1_555
C14 Si3 1_555 1_555
C15 Si4 1_555 1_555
C16 Si4 1_555 1_555
C17 Si4 1_555 1_555
O1 Mg1 1_555 1_555
C18 O1 1_555 1_555
C19 C18 1_555 1_555
C20 C19 1_555 1_555
C21 O1 1_555 1_555
O2 Mg1 1_555 1_555
C22 O2 1_555 1_555
C23 C22 1_555 1_555
C24 C23 1_555 1_555
C25 O2 1_555 1_555
H1 B1 1_555 1_555
H2 B2 1_555 1_555
H3 B3 1_555 1_555
H4 B4 1_555 1_555
H5 B6 1_555 1_555
H6 B7 1_555 1_555
H7 B8 1_555 1_555
H8 C5 1_555 1_555
H9 C5 1_555 1_555
H10 C5 1_555 1_555
H11 C6 1_555 1_555
H12 C6 1_555 1_555
H13 C6 1_555 1_555
H14 C7 1_555 1_555
H15 C7 1_555 1_555
H16 C7 1_555 1_555
H17 C8 1_555 1_555
H18 C8 1_555 1_555
H19 C8 1_555 1_555
H20 C9 1_555 1_555
H21 C9 1_555 1_555
H22 C9 1_555 1_555
H23 C10 1_555 1_555
H24 C10 1_555 1_555
H25 C10 1_555 1_555
H26 C11 1_555 1_555
H27 C11 1_555 1_555
H28 C11 1_555 1_555
H29 C12 1_555 1_555
H30 C12 1_555 1_555
H31 C12 1_555 1_555
H32 C13 1_555 1_555
H33 C13 1_555 1_555
H34 C13 1_555 1_555
H35 C14 1_555 1_555
H36 C14 1_555 1_555
H37 C14 1_555 1_555
H38 C15 1_555 1_555
H39 C15 1_555 1_555
H40 C15 1_555 1_555
H41 C16 1_555 1_555
H42 C16 1_555 1_555
H43 C16 1_555 1_555
H44 C17 1_555 1_555
H45 C17 1_555 1_555
H46 C17 1_555 1_555
H47 C18 1_555 1_555
H48 C18 1_555 1_555
H49 C19 1_555 1_555
H50 C19 1_555 1_555
H51 C20 1_555 1_555
H52 C20 1_555 1_555
H53 C21 1_555 1_555
H54 C21 1_555 1_555
H55 C22 1_555 1_555
H56 C22 1_555 1_555
H57 C23 1_555 1_555
H58 C23 1_555 1_555
H59 C24 1_555 1_555
H60 C24 1_555 1_555
H61 C25 1_555 1_555
H62 C25 1_555 1_555
B3 C3 1_555 1_555
B3 B6 1_555 1_555
C3 B8 1_555 1_555
B4 B8 1_555 1_555
C4 B5 1_555 1_555
C4 B7 1_555 1_555
B5 B6 1_555 1_555
B5 B7 1_555 1_555
B6 B7 1_555 1_555
B6 B8 1_555 1_555
B7 B8 1_555 1_555
C20 C21 1_555 1_555
C24 C25 1_555 1_555

#END
