
#######################################################################
#
#                 Cambridge Crystallographic Data Centre
#                                CCDC 
#
#######################################################################
#
# If this CIF has been generated from an entry in the Cambridge 
# Structural Database, then it will include bibliographic, chemical, 
# crystal, experimental, refinement or atomic coordinate data resulting 
# from the CCDC's data processing and validation procedures.
#
#######################################################################

data_QEPWUD
_chemical_formula_moiety         'C28 H68 B8 Mg1 O2 Si4,0.5(C6 H6)'
_chemical_name_systematic        
'(t-Butyl-tetrakis(trimethylsilyl)-tetracarbadodecaborane)-bis(tetrahydrofuran)-magnesium benzene solvate'
_symmetry_cell_setting           triclinic
_symmetry_space_group_name_H-M   'P -1'
_symmetry_Int_Tables_number      2
_space_group_name_Hall           '-P 1'
loop_
_symmetry_equiv_pos_site_id
_symmetry_equiv_pos_as_xyz
1 x,y,z
2 -x,-y,-z
_cell_length_a                   10.807(3)
_cell_length_b                   11.413(3)
_cell_length_c                   19.552
_cell_angle_alpha                78.98(2)
_cell_angle_beta                 77.89(2)
_cell_angle_gamma                71.17(2)
_cell_volume                     2211.75
_exptl_crystal_colour            colorless
_cell_formula_units_Z            2
loop_
_atom_site_label
_atom_site_type_symbol
_atom_site_fract_x
_atom_site_fract_y
_atom_site_fract_z
Mg1 Mg 0.3294(1) -0.0233(1) 0.7779(1)
Si1 Si 0.0025(1) -0.0325(1) 0.8482(1)
Si2 Si 0.5443(1) 0.1838(1) 0.6903(1)
Si3 Si 0.1724(1) 0.1122(1) 0.5561(1)
Si4 Si -0.0200(1) 0.4779(1) 0.6948(1)
C1 C 0.1023(3) 0.0654(3) 0.7878(2)
B1 B 0.0335(4) 0.2234(3) 0.7889(2)
B2 B 0.1245(4) 0.0561(3) 0.7079(2)
C2 C 0.1890(3) 0.1350(3) 0.6459(2)
B3 B 0.1609(4) 0.1318(3) 0.8378(2)
B4 B 0.3048(4) 0.1806(4) 0.7997(2)
C3 C 0.3729(3) 0.1623(3) 0.7166(2)
C4 C 0.0945(3) 0.3241(3) 0.7306(2)
B5 B 0.1716(4) 0.2723(4) 0.6584(2)
B6 B 0.3345(4) 0.1257(3) 0.6538(2)
B7 B 0.2558(4) 0.3063(3) 0.7330(2)
B8 B 0.1445(4) 0.2917(3) 0.8139(2)
C5 C -0.0698(4) -0.1157(4) 0.8006(2)
C6 C 0.1085(4) -0.1568(3) 0.9072(2)
C7 C -0.1390(4) 0.0589(4) 0.9087(2)
C8 C 0.5953(4) 0.2428(5) 0.7594(2)
C9 C 0.6668(4) 0.0288(4) 0.6746(2)
C10 C 0.5555(4) 0.2952(4) 0.6075(2)
C11 C -0.0042(4) 0.1389(4) 0.5481(2)
C12 C 0.2644(4) -0.0511(4) 0.5375(2)
C13 C 0.2391(4) 0.2202(4) 0.4851(2)
C14 C -0.1020(4) 0.4423(4) 0.6293(2)
C15 C -0.1648(4) 0.5558(4) 0.7585(2)
C16 C 0.0668(5) 0.5964(4) 0.6516(3)
C17 C 0.1087(3) 0.3833(3) 0.8741(2)
C18 C 0.1306(4) 0.5112(3) 0.8450(2)
C19 C 0.1971(4) 0.3246(4) 0.9315(2)
C20 C -0.0342(4) 0.3995(4) 0.9133(2)
O1 O 0.3914(2) -0.1760(2) 0.7259(1)
C21 C 0.3308(5) -0.2766(4) 0.7438(3)
C22 C 0.4170(7) -0.3740(5) 0.7027(4)
C23 C 0.4976(5) -0.3269(4) 0.6484(3)
C24 C 0.4988(4) -0.2044(3) 0.6664(2)
O2 O 0.4428(2) -0.1167(2) 0.8533(1)
C25 C 0.4251(5) -0.0815(4) 0.9238(2)
C26 C 0.5534(5) -0.1303(4) 0.9459(3)
C27 C 0.6234(4) -0.2430(4) 0.9098(2)
C28 C 0.5617(4) -0.2212(4) 0.8457(2)
H1 H -0.0766(27) 0.2562(25) 0.8109(14)
H2 H 0.0830(27) -0.0114(26) 0.6900(14)
H3 H 0.1479(27) 0.0989(25) 0.8923(14)
H4 H 0.3730(27) 0.1895(25) 0.8330(14)
H5 H 0.1987(27) 0.3441(25) 0.6124(14)
H6 H 0.4112(27) 0.1051(26) 0.6076(14)
H7 H 0.2903(27) 0.3862(25) 0.7206(14)
H8 H -0.1250 -0.0562 0.7694
H9 H 0.0007 -0.1726 0.7737
H10 H -0.1217 -0.1613 0.8342
H11 H 0.1833 -0.2070 0.8790
H12 H 0.1388 -0.1181 0.9373
H13 H 0.0574 -0.2087 0.9357
H14 H -0.1970 0.1242 0.8814
H15 H -0.1869 0.0042 0.9372
H16 H -0.1055 0.0949 0.9388
H17 H 0.6824 0.2516 0.7430
H18 H 0.5339 0.3225 0.7685
H19 H 0.5960 0.1849 0.8021
H20 H 0.7541 0.0385 0.6612
H21 H 0.6642 -0.0303 0.7166
H22 H 0.6453 -0.0009 0.6371
H23 H 0.6431 0.3042 0.5955
H24 H 0.5370 0.2634 0.5699
H25 H 0.4922 0.3750 0.6143
H26 H -0.0549 0.2221 0.5572
H27 H -0.0098 0.1284 0.5014
H28 H -0.0387 0.0797 0.5820
H29 H 0.3562 -0.0686 0.5408
H30 H 0.2275 -0.1086 0.5715
H31 H 0.2564 -0.0600 0.4909
H32 H 0.3301 0.2083 0.4879
H33 H 0.2330 0.2030 0.4399
H34 H 0.1886 0.3050 0.4908
H35 H -0.0350 0.4017 0.5936
H36 H -0.1540 0.3879 0.6528
H37 H -0.1581 0.5181 0.6079
H38 H -0.2157 0.6326 0.7351
H39 H -0.2194 0.5015 0.7765
H40 H -0.1332 0.5728 0.7968
H41 H 0.1416 0.5593 0.6182
H42 H 0.0068 0.6655 0.6275
H43 H 0.0966 0.6255 0.6864
H44 H 0.1079 0.5614 0.8825
H45 H 0.2218 0.5001 0.8243
H46 H 0.0754 0.5520 0.8096
H47 H 0.1752 0.3793 0.9667
H48 H 0.1839 0.2457 0.9531
H49 H 0.2881 0.3120 0.9101
H50 H -0.0537 0.4539 0.9485
H51 H -0.0948 0.4348 0.8801
H52 H -0.0429 0.3194 0.9355
H53 H 0.2451 -0.2485 0.7295
H54 H 0.3210 -0.3046 0.7936
H55 H 0.3662 -0.4137 0.6852
H56 H 0.4712 -0.4357 0.7334
H57 H 0.4620 -0.3129 0.6055
H58 H 0.5855 -0.3837 0.6423
H59 H 0.5821 -0.2128 0.6799
H60 H 0.4841 -0.1392 0.6272
H61 H 0.3624 -0.1172 0.9559
H62 H 0.3934 0.0078 0.9219
H63 H 0.5452 -0.1530 0.9961
H64 H 0.6006 -0.0690 0.9323
H65 H 0.6131 -0.3175 0.9398
H66 H 0.7162 -0.2508 0.8970
H67 H 0.6208 -0.2021 0.8041
H68 H 0.5404 -0.2946 0.8415
C29 C 0.5188(13) -0.4738(9) 1.0596(3)
C30 C 0.3992(9) -0.4223(5) 1.0379(6)
C31 C 0.6182(7) -0.5493(8) 1.0222(6)
H69 H 0.5300 -0.4549 1.1033
H70 H 0.3266 -0.3677 1.0650
H71 H 0.7018 -0.5839 1.0387
C31A C 0.3818(7) -0.4507(8) 0.9778(6)
C29A C 0.4812(13) -0.5262(9) 0.9404(3)
C30A C 0.6008(9) -0.5777(5) 0.9621(6)
H70A H 0.6734 -0.6323 0.9350
H69A H 0.4700 -0.5451 0.8967
H71A H 0.2982 -0.4161 0.9613
loop_
_geom_bond_atom_site_label_1
_geom_bond_atom_site_label_2
_geom_bond_site_symmetry_1
_geom_bond_site_symmetry_2
Mg1 C1 1_555 1_555
Si1 C1 1_555 1_555
Si2 C3 1_555 1_555
Si3 C2 1_555 1_555
Si4 C4 1_555 1_555
C1 B1 1_555 1_555
B1 B3 1_555 1_555
B2 C1 1_555 1_555
C2 B2 1_555 1_555
B3 Mg1 1_555 1_555
B4 Mg1 1_555 1_555
C3 Mg1 1_555 1_555
C4 B1 1_555 1_555
B5 C2 1_555 1_555
B6 C2 1_555 1_555
B7 B4 1_555 1_555
B8 B1 1_555 1_555
C5 Si1 1_555 1_555
C6 Si1 1_555 1_555
C7 Si1 1_555 1_555
C8 Si2 1_555 1_555
C9 Si2 1_555 1_555
C10 Si2 1_555 1_555
C11 Si3 1_555 1_555
C12 Si3 1_555 1_555
C13 Si3 1_555 1_555
C14 Si4 1_555 1_555
C15 Si4 1_555 1_555
C16 Si4 1_555 1_555
C17 B8 1_555 1_555
C18 C17 1_555 1_555
C19 C17 1_555 1_555
C20 C17 1_555 1_555
O1 Mg1 1_555 1_555
C21 O1 1_555 1_555
C22 C21 1_555 1_555
C23 C22 1_555 1_555
C24 O1 1_555 1_555
O2 Mg1 1_555 1_555
C25 O2 1_555 1_555
C26 C25 1_555 1_555
C27 C26 1_555 1_555
C28 O2 1_555 1_555
H1 B1 1_555 1_555
H2 B2 1_555 1_555
H3 B3 1_555 1_555
H4 B4 1_555 1_555
H5 B5 1_555 1_555
H6 B6 1_555 1_555
H7 B7 1_555 1_555
H8 C5 1_555 1_555
H9 C5 1_555 1_555
H10 C5 1_555 1_555
H11 C6 1_555 1_555
H12 C6 1_555 1_555
H13 C6 1_555 1_555
H14 C7 1_555 1_555
H15 C7 1_555 1_555
H16 C7 1_555 1_555
H17 C8 1_555 1_555
H18 C8 1_555 1_555
H19 C8 1_555 1_555
H20 C9 1_555 1_555
H21 C9 1_555 1_555
H22 C9 1_555 1_555
H23 C10 1_555 1_555
H24 C10 1_555 1_555
H25 C10 1_555 1_555
H26 C11 1_555 1_555
H27 C11 1_555 1_555
H28 C11 1_555 1_555
H29 C12 1_555 1_555
H30 C12 1_555 1_555
H31 C12 1_555 1_555
H32 C13 1_555 1_555
H33 C13 1_555 1_555
H34 C13 1_555 1_555
H35 C14 1_555 1_555
H36 C14 1_555 1_555
H37 C14 1_555 1_555
H38 C15 1_555 1_555
H39 C15 1_555 1_555
H40 C15 1_555 1_555
H41 C16 1_555 1_555
H42 C16 1_555 1_555
H43 C16 1_555 1_555
H44 C18 1_555 1_555
H45 C18 1_555 1_555
H46 C18 1_555 1_555
H47 C19 1_555 1_555
H48 C19 1_555 1_555
H49 C19 1_555 1_555
H50 C20 1_555 1_555
H51 C20 1_555 1_555
H52 C20 1_555 1_555
H53 C21 1_555 1_555
H54 C21 1_555 1_555
H55 C22 1_555 1_555
H56 C22 1_555 1_555
H57 C23 1_555 1_555
H58 C23 1_555 1_555
H59 C24 1_555 1_555
H60 C24 1_555 1_555
H61 C25 1_555 1_555
H62 C25 1_555 1_555
H63 C26 1_555 1_555
H64 C26 1_555 1_555
H65 C27 1_555 1_555
H66 C27 1_555 1_555
H67 C28 1_555 1_555
H68 C28 1_555 1_555
C29 C30 1_555 1_555
C30 H70 1_555 1_555
C31 C29 1_555 1_555
H69 C29 1_555 1_555
H71 C31 1_555 1_555
C31A C30 1_555 1_555
C29A C31A 1_555 1_555
C30A C31 1_555 1_555
H70A C30A 1_555 1_555
H69A C29A 1_555 1_555
H71A C31A 1_555 1_555
C1 B3 1_555 1_555
B3 B4 1_555 1_555
B3 B8 1_555 1_555
B4 C3 1_555 1_555
B4 B8 1_555 1_555
C3 B6 1_555 1_555
C3 B7 1_555 1_555
C4 B5 1_555 1_555
C4 B7 1_555 1_555
C4 B8 1_555 1_555
B5 B6 1_555 1_555
B5 B7 1_555 1_555
B7 B8 1_555 1_555
C23 C24 1_555 1_555
C27 C28 1_555 1_555
C29A C30A 1_555 1_555

#END
