
#######################################################################
#
#                 Cambridge Crystallographic Data Centre
#                                CCDC 
#
#######################################################################
#
# If this CIF has been generated from an entry in the Cambridge 
# Structural Database, then it will include bibliographic, chemical, 
# crystal, experimental, refinement or atomic coordinate data resulting 
# from the CCDC's data processing and validation procedures.
#
#######################################################################

data_QEPXUE
_chemical_formula_moiety         'C12 H24 Mg1 O3 2+,C12 H32 B8 Si2 2-'
_chemical_name_systematic        
'tris(Tetrahydrofuran)-magnesium 6,9-(but-2-ene-2,3-diyl)-8,10-bis(trimethylsilyl)-octahydro-8,10-dicarba-arachno-decaborate'
_symmetry_cell_setting           monoclinic
_symmetry_space_group_name_H-M   'P 21/c'
_symmetry_Int_Tables_number      14
_space_group_name_Hall           '-P 2ybc'
loop_
_symmetry_equiv_pos_site_id
_symmetry_equiv_pos_as_xyz
1 x,y,z
2 -x,1/2+y,1/2-z
3 -x,-y,-z
4 x,1/2-y,1/2+z
_cell_length_a                   9.973(10)
_cell_length_b                   21.190(2)
_cell_length_c                   16.514(10)
_cell_angle_alpha                90
_cell_angle_beta                 102.180(10)
_cell_angle_gamma                90
_cell_volume                     3411.31
_exptl_crystal_colour            colorless
_chemical_melting_point          '78-80 deg.C'
_cell_formula_units_Z            4
_chemical_properties_physical    air-sensitive
_exptl_crystal_recrystallization_method tetrahydrofuran/benzene
loop_
_atom_site_label
_atom_site_type_symbol
_atom_site_fract_x
_atom_site_fract_y
_atom_site_fract_z
Mg1 Mg 0.4033(1) 0.5511(1) 0.3080(1)
O1 O 0.6094(3) 0.5532(1) 0.3499(2)
C1 C 0.7046(5) 0.5128(3) 0.3185(4)
C2 C 0.8397(6) 0.5197(3) 0.3765(5)
C3 C 0.8340(6) 0.5847(4) 0.4067(4)
C4 C 0.6884(5) 0.5921(3) 0.4153(3)
O2 O 0.3611(3) 0.6145(1) 0.3925(2)
C5 C 0.2612(6) 0.6638(2) 0.3642(3)
C6 C 0.2143(8) 0.6852(3) 0.4382(4)
C7 C 0.2625(8) 0.6424(4) 0.5034(4)
C8 C 0.3540(7) 0.5982(3) 0.4757(3)
O3 O 0.3939(3) 0.6150(1) 0.2168(2)
C9 C 0.3038(7) 0.6108(3) 0.1362(3)
C10 C 0.3167(6) 0.6677(3) 0.0939(3)
C11 C 0.4420(7) 0.6990(3) 0.1364(3)
C12 C 0.4921(6) 0.6643(3) 0.2130(3)
H1 H 0.6746 0.4697 0.3170
H2 H 0.7112 0.5258 0.2638
H3 H 0.9139 0.5145 0.3483
H4 H 0.8495 0.4899 0.4211
H5 H 0.8962 0.5902 0.4591
H6 H 0.8557 0.6144 0.3675
H7 H 0.6603 0.6355 0.4081
H8 H 0.6776 0.5777 0.4687
H9 H 0.3029 0.6981 0.3404
H10 H 0.1857 0.6474 0.3238
H11 H 0.1159 0.6864 0.4268
H12 H 0.2501 0.7265 0.4536
H13 H 0.3109 0.6648 0.5512
H14 H 0.1865 0.6201 0.5172
H15 H 0.3193 0.5560 0.4772
H16 H 0.4436 0.6008 0.5110
H17 H 0.2107 0.6055 0.1420
H18 H 0.3298 0.5758 0.1060
H19 H 0.3221 0.6587 0.0376
H20 H 0.2391 0.6943 0.0943
H21 H 0.4228 0.7419 0.1486
H22 H 0.5092 0.6982 0.1025
H23 H 0.4992 0.6920 0.2598
H24 H 0.5804 0.6463 0.2128
Si1 Si 0.0480(1) 0.2871(1) 0.3138(1)
Si2 Si 0.4046(1) 0.3725(1) 0.0999(1)
C13 C 0.0581(4) 0.4195(2) 0.1523(2)
C14 C 0.0770(4) 0.4732(2) 0.1950(2)
C15 C 0.1668(4) 0.3479(2) 0.2903(2)
C16 C 0.3304(4) 0.3869(2) 0.1925(2)
B1 B 0.2035(5) 0.4800(2) 0.2729(3)
B2 B 0.3541(4) 0.4532(2) 0.2366(3)
B3 B 0.3440(4) 0.4406(2) 0.3415(3)
B4 B 0.1785(5) 0.4130(2) 0.3400(3)
B5 B 0.1574(5) 0.3633(2) 0.1820(3)
B6 B 0.3211(5) 0.3592(2) 0.3550(3)
B7 B 0.4309(5) 0.3849(2) 0.2895(3)
B8 B 0.3049(5) 0.3283(2) 0.2551(3)
C17 C -0.0562(4) 0.4100(2) 0.0763(3)
C18 C -0.0152(4) 0.5302(2) 0.1735(3)
C19 C 0.0590(6) 0.2781(3) 0.4271(3)
C20 C 0.0851(6) 0.2086(2) 0.2734(4)
C21 C -0.1299(5) 0.3106(3) 0.2634(4)
C22 C 0.4356(7) 0.2870(3) 0.0874(3)
C23 C 0.5691(5) 0.4149(3) 0.1078(3)
C24 C 0.2847(5) 0.4022(3) 0.0059(3)
H25 H 0.2162(34) 0.5328(15) 0.3030(21)
H26 H 0.4242(33) 0.4864(16) 0.2203(20)
H27 H 0.4033(34) 0.4737(16) 0.3931(20)
H28 H 0.1219(34) 0.4190(16) 0.3919(20)
H29 H 0.1392(32) 0.3212(16) 0.1452(20)
H30 H 0.3583(33) 0.3289(15) 0.4145(21)
H31 H 0.5446(33) 0.3744(15) 0.3037(21)
H32 H 0.3327(34) 0.2803(16) 0.2419(20)
H33 H -0.0511 0.3681 0.0552
H34 H -0.0462 0.4401 0.0345
H35 H -0.1434 0.4159 0.0911
H36 H 0.0167 0.5636 0.2120
H37 H -0.1073 0.5191 0.1766
H38 H -0.0134 0.5440 0.1184
H39 H 0.0403 0.3179 0.4502
H40 H 0.1494 0.2642 0.4532
H41 H -0.0071 0.2474 0.4364
H42 H 0.0803 0.2115 0.2148
H43 H 0.0188 0.1785 0.2838
H44 H 0.1753 0.1952 0.3006
H45 H -0.1933 0.2795 0.2749
H46 H -0.1373 0.3137 0.2046
H47 H -0.1507 0.3508 0.2846
H48 H 0.4706 0.2805 0.0381
H49 H 0.3510 0.2643 0.0829
H50 H 0.5011 0.2720 0.1346
H51 H 0.6336 0.4006 0.1559
H52 H 0.5543 0.4594 0.1124
H53 H 0.6049 0.4067 0.0592
H54 H 0.1981 0.3810 0.0001
H55 H 0.3223 0.3941 -0.0420
H56 H 0.2718 0.4468 0.0112
loop_
_geom_bond_atom_site_label_1
_geom_bond_atom_site_label_2
_geom_bond_site_symmetry_1
_geom_bond_site_symmetry_2
Mg1 O1 1_555 1_555
O1 C1 1_555 1_555
C1 C2 1_555 1_555
C2 C3 1_555 1_555
C3 C4 1_555 1_555
C4 O1 1_555 1_555
O2 Mg1 1_555 1_555
C5 O2 1_555 1_555
C6 C5 1_555 1_555
C7 C6 1_555 1_555
C8 O2 1_555 1_555
O3 Mg1 1_555 1_555
C9 O3 1_555 1_555
C10 C9 1_555 1_555
C11 C10 1_555 1_555
C12 O3 1_555 1_555
H1 C1 1_555 1_555
H2 C1 1_555 1_555
H3 C2 1_555 1_555
H4 C2 1_555 1_555
H5 C3 1_555 1_555
H6 C3 1_555 1_555
H7 C4 1_555 1_555
H8 C4 1_555 1_555
H9 C5 1_555 1_555
H10 C5 1_555 1_555
H11 C6 1_555 1_555
H12 C6 1_555 1_555
H13 C7 1_555 1_555
H14 C7 1_555 1_555
H15 C8 1_555 1_555
H16 C8 1_555 1_555
H17 C9 1_555 1_555
H18 C9 1_555 1_555
H19 C10 1_555 1_555
H20 C10 1_555 1_555
H21 C11 1_555 1_555
H22 C11 1_555 1_555
H23 C12 1_555 1_555
H24 C12 1_555 1_555
Si1 C15 1_555 1_555
Si2 C16 1_555 1_555
C13 C14 1_555 1_555
C14 B1 1_555 1_555
C15 B4 1_555 1_555
C16 B2 1_555 1_555
B1 B2 1_555 1_555
B2 B3 1_555 1_555
B3 B1 1_555 1_555
B4 B1 1_555 1_555
B5 C13 1_555 1_555
B6 C15 1_555 1_555
B7 C16 1_555 1_555
B8 C15 1_555 1_555
C17 C13 1_555 1_555
C18 C14 1_555 1_555
C19 Si1 1_555 1_555
C20 Si1 1_555 1_555
C21 Si1 1_555 1_555
C22 Si2 1_555 1_555
C23 Si2 1_555 1_555
C24 Si2 1_555 1_555
H25 B1 1_555 1_555
H26 B2 1_555 1_555
H27 B3 1_555 1_555
H28 B4 1_555 1_555
H29 B5 1_555 1_555
H30 B6 1_555 1_555
H31 B7 1_555 1_555
H32 B8 1_555 1_555
H33 C17 1_555 1_555
H34 C17 1_555 1_555
H35 C17 1_555 1_555
H36 C18 1_555 1_555
H37 C18 1_555 1_555
H38 C18 1_555 1_555
H39 C19 1_555 1_555
H40 C19 1_555 1_555
H41 C19 1_555 1_555
H42 C20 1_555 1_555
H43 C20 1_555 1_555
H44 C20 1_555 1_555
H45 C21 1_555 1_555
H46 C21 1_555 1_555
H47 C21 1_555 1_555
H48 C22 1_555 1_555
H49 C22 1_555 1_555
H50 C22 1_555 1_555
H51 C23 1_555 1_555
H52 C23 1_555 1_555
H53 C23 1_555 1_555
H54 C24 1_555 1_555
H55 C24 1_555 1_555
H56 C24 1_555 1_555
C7 C8 1_555 1_555
C11 C12 1_555 1_555
C15 B5 1_555 1_555
C16 B5 1_555 1_555
C16 B8 1_555 1_555
B2 B7 1_555 1_555
B3 B4 1_555 1_555
B3 B6 1_555 1_555
B3 B7 1_555 1_555
B4 B6 1_555 1_555
B5 B8 1_555 1_555
B6 B7 1_555 1_555
B6 B8 1_555 1_555
B7 B8 1_555 1_555

#END
