
#######################################################################
#
#                 Cambridge Crystallographic Data Centre
#                                CCDC 
#
#######################################################################
#
# If this CIF has been generated from an entry in the Cambridge 
# Structural Database, then it will include bibliographic, chemical, 
# crystal, experimental, refinement or atomic coordinate data resulting 
# from the CCDC's data processing and validation procedures.
#
#######################################################################

data_QEQJEE
_chemical_formula_moiety         'C29 H25 N1 O3 S1'
_chemical_name_systematic        
{1-[(4-methylphenyl)sulfonyl]-2-(naphthalen-2-yl)-1,2,5,6-tetrahydropyridin-3-yl}(phenyl)methanone
_symmetry_cell_setting           monoclinic
_symmetry_space_group_name_H-M   'P 21'
_symmetry_Int_Tables_number      4
_space_group_name_Hall           'P 2yb'
loop_
_symmetry_equiv_pos_site_id
_symmetry_equiv_pos_as_xyz
1 x,y,z
2 -x,1/2+y,-z
_cell_length_a                   9.769(3)
_cell_length_b                   13.123(3)
_cell_length_c                   10.039(3)
_cell_angle_alpha                90
_cell_angle_beta                 114.345(3)
_cell_angle_gamma                90
_cell_volume                     1172.55
_exptl_crystal_colour            colorless
_exptl_crystal_description       block
_cell_formula_units_Z            2
loop_
_atom_site_label
_atom_site_type_symbol
_atom_site_fract_x
_atom_site_fract_y
_atom_site_fract_z
S1 S 0.60541(8) 0.26307(5) 0.67388(7)
O1 O 0.8272(2) 0.48038(17) 0.4139(2)
O2 O 0.7061(3) 0.19826(16) 0.6426(2)
O3 O 0.4939(3) 0.22045(16) 0.7158(2)
N1 N 0.5133(3) 0.32826(17) 0.5230(2)
C1 C 0.6019(3) 0.3768(2) 0.4515(3)
H1 H 0.6944 0.3374 0.4762
C2 C 0.6447(3) 0.4850(2) 0.5076(3)
C3 C 0.5577(3) 0.5392(2) 0.5548(3)
H2 H 0.5834 0.6068 0.5810
C4 C 0.4213(3) 0.4975(2) 0.5681(3)
H3 H 0.3367 0.5418 0.5154
H4 H 0.4380 0.4984 0.6703
C5 C 0.3811(3) 0.3889(2) 0.5095(3)
H5 H 0.3306 0.3549 0.5624
H6 H 0.3116 0.3920 0.4073
C6 C 0.5118(3) 0.3722(2) 0.2863(3)
C7 C 0.4580(3) 0.4580(2) 0.2037(3)
H7 H 0.4785 0.5214 0.2491
C8 C 0.3714(3) 0.4525(2) 0.0503(3)
C9 C 0.3193(3) 0.5412(3) -0.0356(3)
H8 H 0.3432 0.6051 0.0082
C10 C 0.2334(3) 0.5337(3) -0.1837(3)
H9 H 0.1998 0.5925 -0.2394
C11 C 0.1965(3) 0.4381(3) -0.2509(3)
H10 H 0.1370 0.4338 -0.3507
C12 C 0.2473(4) 0.3507(3) -0.1709(3)
H11 H 0.2228 0.2878 -0.2172
C13 C 0.3372(3) 0.3552(2) -0.0177(3)
C14 C 0.3964(3) 0.2670(3) 0.0704(3)
H12 H 0.3766 0.2028 0.0275
C15 C 0.4814(3) 0.2757(2) 0.2163(3)
H13 H 0.5203 0.2172 0.2714
C16 C 0.7786(3) 0.5264(2) 0.4921(3)
C17 C 0.8570(3) 0.6213(2) 0.5672(3)
C18 C 0.9327(3) 0.6761(2) 0.4995(3)
H14 H 0.9281 0.6548 0.4094
C19 C 1.0144(3) 0.7619(3) 0.5650(4)
H15 H 1.0640 0.7983 0.5187
C20 C 1.0224(4) 0.7937(2) 0.6987(4)
H16 H 1.0772 0.8517 0.7423
C21 C 0.9501(4) 0.7402(2) 0.7676(4)
H17 H 0.9567 0.7619 0.8582
C22 C 0.8667(3) 0.6536(2) 0.7032(3)
H18 H 0.8178 0.6176 0.7505
C23 C 0.7172(3) 0.3477(2) 0.8138(3)
C24 C 0.8635(3) 0.3684(2) 0.8317(3)
H19 H 0.9040 0.3359 0.7740
C25 C 0.9476(3) 0.4383(2) 0.9368(3)
H20 H 1.0455 0.4524 0.9495
C26 C 0.8890(3) 0.4877(2) 1.0237(3)
C27 C 0.7436(4) 0.4641(2) 1.0052(3)
H21 H 0.7035 0.4958 1.0640
C28 C 0.6575(3) 0.3945(2) 0.9014(3)
H22 H 0.5605 0.3793 0.8905
C29 C 0.9826(5) 0.5639(3) 1.1377(4)
H23 H 1.0801 0.5693 1.1366
H24 H 0.9930 0.5416 1.2325
H25 H 0.9341 0.6292 1.1164
loop_
_geom_bond_atom_site_label_1
_geom_bond_atom_site_label_2
_geom_bond_site_symmetry_1
_geom_bond_site_symmetry_2
S1 O2 1_555 1_555
O1 C16 1_555 1_555
O3 S1 1_555 1_555
N1 S1 1_555 1_555
C1 N1 1_555 1_555
H1 C1 1_555 1_555
C2 C1 1_555 1_555
C3 C2 1_555 1_555
H2 C3 1_555 1_555
C4 C3 1_555 1_555
H3 C4 1_555 1_555
H4 C4 1_555 1_555
C5 N1 1_555 1_555
H5 C5 1_555 1_555
H6 C5 1_555 1_555
C6 C1 1_555 1_555
C7 C6 1_555 1_555
H7 C7 1_555 1_555
C8 C7 1_555 1_555
C9 C8 1_555 1_555
H8 C9 1_555 1_555
C10 C9 1_555 1_555
H9 C10 1_555 1_555
C11 C10 1_555 1_555
H10 C11 1_555 1_555
C12 C11 1_555 1_555
H11 C12 1_555 1_555
C13 C8 1_555 1_555
C14 C13 1_555 1_555
H12 C14 1_555 1_555
C15 C6 1_555 1_555
H13 C15 1_555 1_555
C16 C2 1_555 1_555
C17 C16 1_555 1_555
C18 C17 1_555 1_555
H14 C18 1_555 1_555
C19 C18 1_555 1_555
H15 C19 1_555 1_555
C20 C19 1_555 1_555
H16 C20 1_555 1_555
C21 C20 1_555 1_555
H17 C21 1_555 1_555
C22 C17 1_555 1_555
H18 C22 1_555 1_555
C23 S1 1_555 1_555
C24 C23 1_555 1_555
H19 C24 1_555 1_555
C25 C24 1_555 1_555
H20 C25 1_555 1_555
C26 C25 1_555 1_555
C27 C26 1_555 1_555
H21 C27 1_555 1_555
C28 C23 1_555 1_555
H22 C28 1_555 1_555
C29 C26 1_555 1_555
H23 C29 1_555 1_555
H24 C29 1_555 1_555
H25 C29 1_555 1_555
C4 C5 1_555 1_555
C12 C13 1_555 1_555
C14 C15 1_555 1_555
C21 C22 1_555 1_555
C27 C28 1_555 1_555

#END
