
#######################################################################
#
#                 Cambridge Crystallographic Data Centre
#                                CCDC 
#
#######################################################################
#
# If this CIF has been generated from an entry in the Cambridge 
# Structural Database, then it will include bibliographic, chemical, 
# crystal, experimental, refinement or atomic coordinate data resulting 
# from the CCDC's data processing and validation procedures.
#
#######################################################################

data_QEQJII
_chemical_formula_moiety         'C19 H24 O6'
_chemical_name_systematic        
7-hydroxy-5b,8a-dimethyl-2-isopropyl-5b,6,7,8,8a,8b,10a,10b-octahydro-2H,4H,9H-furo[2',3',4':4,5]oxireno[2,3]naphtho[2,1-c]pyran-4,9-dione
_symmetry_cell_setting           orthorhombic
_symmetry_space_group_name_H-M   'P 21 21 21'
_symmetry_Int_Tables_number      19
_space_group_name_Hall           'P 2ac 2ab'
loop_
_symmetry_equiv_pos_site_id
_symmetry_equiv_pos_as_xyz
1 x,y,z
2 1/2+x,1/2-y,-z
3 -x,1/2+y,1/2-z
4 1/2-x,-y,1/2+z
_cell_length_a                   7.78470(10)
_cell_length_b                   12.1522(2)
_cell_length_c                   17.5418(3)
_cell_angle_alpha                90
_cell_angle_beta                 90
_cell_angle_gamma                90
_cell_volume                     1659.48
_exptl_crystal_colour            colorless
_exptl_crystal_description       prism
_cell_formula_units_Z            4
loop_
_atom_site_label
_atom_site_type_symbol
_atom_site_fract_x
_atom_site_fract_y
_atom_site_fract_z
O1 O 1.05420(18) 0.28715(10) 0.83665(7)
H1 H 1.159(4) 0.306(2) 0.8416(14)
O2 O 0.44711(16) 0.54796(10) 0.89841(7)
O3 O 0.73135(16) 0.77020(10) 0.97129(6)
O4 O 0.95475(15) 0.91357(9) 0.86115(7)
O5 O 1.23372(15) 0.88220(10) 0.86081(8)
O6 O 0.39295(16) 0.37672(11) 0.85875(8)
C1 C 0.9597(2) 0.36795(14) 0.87779(10)
H2 H 0.9957 0.3648 0.9325
C2 C 0.9962(2) 0.48454(14) 0.84741(10)
H3 H 1.0252 0.4795 0.7926
H4 H 1.0978 0.5145 0.8743
C3 C 0.8450(2) 0.56556(14) 0.85724(10)
C4 C 0.9012(2) 0.68400(14) 0.86697(9)
C5 C 0.7633(2) 0.76356(14) 0.88968(9)
C6 C 0.7811(2) 0.87064(15) 0.84688(9)
H5 H 0.7735 0.8531 0.7913
C7 C 0.6555(2) 0.96449(14) 0.86247(10)
H6 H 0.5368 0.9351 0.8547
C8 C 0.6635(3) 1.01232(17) 0.94270(11)
H7 H 0.6422 0.9539 0.9800
H8 H 0.5760 1.0698 0.9482
H9 H 0.7775 1.0441 0.9515
C9 C 0.7425(2) 0.53230(14) 0.92922(9)
H10 H 0.8190 0.5364 0.9749
C10 C 0.6652(2) 0.41601(15) 0.92302(10)
C11 C 0.7702(2) 0.33692(14) 0.87302(10)
H11 H 0.7539 0.2603 0.8908
H12 H 0.7306 0.3416 0.8195
C12 C 0.4890(2) 0.44053(15) 0.88945(10)
C13 C 0.5827(2) 0.60226(14) 0.94251(10)
H13 H 0.5518 0.5969 0.9977
C14 C 0.6011(2) 0.72261(15) 0.92269(10)
H14 H 0.4941 0.7661 0.9133
C15 C 1.0550(2) 0.72515(14) 0.85025(10)
H15 H 1.1437 0.6771 0.8337
C16 C 1.0903(2) 0.84400(15) 0.85689(10)
C17 C 0.6835(2) 1.05641(15) 0.80378(10)
H16 H 0.5971 1.1141 0.8113
H17 H 0.6727 1.0261 0.7522
H18 H 0.7985 1.0877 0.8104
C18 C 0.6377(2) 0.36580(16) 1.00290(10)
H19 H 0.5872 0.4212 1.0367
H20 H 0.7484 0.3417 1.0236
H21 H 0.5601 0.3025 0.9991
C19 C 0.7357(2) 0.56797(15) 0.78307(10)
H22 H 0.6402 0.6197 0.7893
H23 H 0.6902 0.4942 0.7729
H24 H 0.8077 0.5915 0.7403
loop_
_geom_bond_atom_site_label_1
_geom_bond_atom_site_label_2
_geom_bond_site_symmetry_1
_geom_bond_site_symmetry_2
O1 H1 1_555 1_555
O2 C12 1_555 1_555
O3 C5 1_555 1_555
O4 C6 1_555 1_555
O5 C16 1_555 1_555
O6 C12 1_555 1_555
C1 O1 1_555 1_555
H2 C1 1_555 1_555
C2 C1 1_555 1_555
H3 C2 1_555 1_555
H4 C2 1_555 1_555
C3 C2 1_555 1_555
C4 C3 1_555 1_555
C5 C4 1_555 1_555
C6 C5 1_555 1_555
H5 C6 1_555 1_555
C7 C6 1_555 1_555
H6 C7 1_555 1_555
C8 C7 1_555 1_555
H7 C8 1_555 1_555
H8 C8 1_555 1_555
H9 C8 1_555 1_555
C9 C3 1_555 1_555
H10 C9 1_555 1_555
C10 C9 1_555 1_555
C11 C1 1_555 1_555
H11 C11 1_555 1_555
H12 C11 1_555 1_555
C12 C10 1_555 1_555
C13 O2 1_555 1_555
H13 C13 1_555 1_555
C14 O3 1_555 1_555
H14 C14 1_555 1_555
C15 C4 1_555 1_555
H15 C15 1_555 1_555
C16 O4 1_555 1_555
C17 C7 1_555 1_555
H16 C17 1_555 1_555
H17 C17 1_555 1_555
H18 C17 1_555 1_555
C18 C10 1_555 1_555
H19 C18 1_555 1_555
H20 C18 1_555 1_555
H21 C18 1_555 1_555
C19 C3 1_555 1_555
H22 C19 1_555 1_555
H23 C19 1_555 1_555
H24 C19 1_555 1_555
C5 C14 1_555 1_555
C9 C13 1_555 1_555
C10 C11 1_555 1_555
C13 C14 1_555 1_555
C15 C16 1_555 1_555

#END
