
#######################################################################
#
#                 Cambridge Crystallographic Data Centre
#                                CCDC 
#
#######################################################################
#
# If this CIF has been generated from an entry in the Cambridge 
# Structural Database, then it will include bibliographic, chemical, 
# crystal, experimental, refinement or atomic coordinate data resulting 
# from the CCDC's data processing and validation procedures.
#
#######################################################################

data_QEQMUV
_chemical_formula_moiety         'C51 H58 B2 S2'
_chemical_name_systematic        
1,2-bis(2-methyl-5-(dimesitylboryl)thien-3-yl)cyclopent-1-ene
_symmetry_cell_setting           monoclinic
_symmetry_space_group_name_H-M   'C 2/c'
_symmetry_Int_Tables_number      15
_space_group_name_Hall           '-C 2yn'
loop_
_symmetry_equiv_pos_site_id
_symmetry_equiv_pos_as_xyz
1 x,y,z
2 1/2+x,1/2+y,z
3 -x,y,1/2-z
4 1/2-x,1/2+y,1/2-z
5 -x,-y,-z
6 1/2-x,1/2-y,-z
7 x,-y,1/2+z
8 1/2+x,1/2-y,1/2+z
_cell_length_a                   14.231(3)
_cell_length_b                   11.851(2)
_cell_length_c                   27.763(6)
_cell_angle_alpha                90
_cell_angle_beta                 90.34(3)
_cell_angle_gamma                90
_cell_volume                     4682.19
_cell_formula_units_Z            4
_exptl_crystal_recrystallization_method dichloromethane/acetonitrile
loop_
_atom_site_label
_atom_site_type_symbol
_atom_site_fract_x
_atom_site_fract_y
_atom_site_fract_z
S1 S 0.20720(4) 0.75479(5) 0.19749(2)
B1 B 0.08793(19) 0.8484(2) 0.12343(8)
C1 C -0.3083(2) 0.9147(3) 0.05813(14)
H1 H -0.3473 0.9289 0.0856
H2 H -0.3282 0.8463 0.0426
H3 H -0.3137 0.9765 0.0359
C2 C -0.20641(19) 0.9030(2) 0.07449(11)
C3 C -0.1348(2) 0.8820(2) 0.04194(10)
H4 H -0.1499 0.8770 0.0094
C4 C -0.04071(18) 0.86817(19) 0.05596(8)
C5 C -0.01586(16) 0.87410(18) 0.10599(7)
C6 C -0.08895(17) 0.90038(19) 0.13924(8)
C7 C -0.18189(18) 0.9142(2) 0.12274(10)
H5 H -0.2285 0.9315 0.1449
C8 C 0.0319(2) 0.8440(3) 0.01736(8)
H6 H 0.0018 0.8432 -0.0137
H7 H 0.0604 0.7718 0.0234
H8 H 0.0793 0.9015 0.0180
C9 C -0.0696(2) 0.9221(3) 0.19248(9)
H9 H -0.0041 0.9099 0.1992
H10 H -0.1066 0.8714 0.2116
H11 H -0.0858 0.9985 0.2002
C10 C 0.18028(16) 0.90683(17) 0.10275(7)
C11 C 0.19228(16) 1.02605(18) 0.10501(7)
C12 C 0.27868(17) 1.07479(19) 0.09170(8)
H12 H 0.2859 1.1526 0.0942
C13 C 0.35360(17) 1.0104(2) 0.07492(8)
C14 C 0.34012(18) 0.8945(2) 0.07075(8)
H13 H 0.3888 0.8506 0.0588
C15 C 0.25598(17) 0.84139(18) 0.08392(8)
C16 C 0.11377(18) 1.1031(2) 0.12264(9)
H14 H 0.1345 1.1802 0.1216
H15 H 0.0979 1.0835 0.1551
H16 H 0.0595 1.0942 0.1023
C17 C 0.44608(19) 1.0642(3) 0.06079(11)
H17 H 0.4426 1.1443 0.0657
H18 H 0.4583 1.0490 0.0275
H19 H 0.4959 1.0335 0.0802
C18 C 0.2485(2) 0.7141(2) 0.07516(10)
H20 H 0.3071 0.6863 0.0630
H21 H 0.1995 0.6995 0.0521
H22 H 0.2341 0.6767 0.1049
C19 C 0.10341(15) 0.75916(18) 0.16401(7)
C20 C 0.04599(15) 0.67079(19) 0.17884(7)
H23 H -0.0135 0.6588 0.1658
C21 C 0.08463(14) 0.59996(17) 0.21537(7)
C22 C 0.17294(15) 0.63803(19) 0.23005(7)
C23 C 0.23312(19) 0.5923(3) 0.27093(10)
H24 H 0.2028 0.5278 0.2849
H25 H 0.2412 0.6496 0.2950
H26 H 0.2934 0.5705 0.2587
C24 C 0.03747(15) 0.49812(17) 0.23533(7)
C25 C 0.0683(2) 0.3779(2) 0.22309(10)
H27 H 0.0642 0.3645 0.1887
H28 H 0.1323 0.3643 0.2338
C26 C 0.0000 0.3035(4) 0.2500
H29 H 0.029(3) 0.239(2) 0.2653(15)
S1B S -0.20720(4) 0.75479(5) 0.30251(2)
B1B B -0.08793(19) 0.8484(2) 0.37657(8)
C1B C 0.3083(2) 0.9147(3) 0.44187(14)
H1B H 0.3473 0.9289 0.4144
H2B H 0.3282 0.8463 0.4574
H3B H 0.3137 0.9765 0.4641
C2B C 0.20641(19) 0.9030(2) 0.42551(11)
C3B C 0.1348(2) 0.8820(2) 0.45806(10)
H4B H 0.1499 0.8770 0.4906
C4B C 0.04071(18) 0.86817(19) 0.44404(8)
C5B C 0.01586(16) 0.87410(18) 0.39401(7)
C6B C 0.08895(17) 0.90038(19) 0.36076(8)
C7B C 0.18189(18) 0.9142(2) 0.37726(10)
H5B H 0.2285 0.9315 0.3551
C8B C -0.0319(2) 0.8440(3) 0.48264(8)
H6B H -0.0018 0.8432 0.5137
H7B H -0.0604 0.7718 0.4766
H8B H -0.0793 0.9015 0.4820
C9B C 0.0696(2) 0.9221(3) 0.30752(9)
H9B H 0.0041 0.9099 0.3008
H10B H 0.1066 0.8714 0.2884
H11B H 0.0858 0.9985 0.2998
C10B C -0.18028(16) 0.90683(17) 0.39725(7)
C11B C -0.19228(16) 1.02605(18) 0.39499(7)
C12B C -0.27868(17) 1.07479(19) 0.40830(8)
H12B H -0.2859 1.1526 0.4058
C13B C -0.35360(17) 1.0104(2) 0.42508(8)
C14B C -0.34012(18) 0.8945(2) 0.42925(8)
H13B H -0.3888 0.8506 0.4412
C15B C -0.25598(17) 0.84139(18) 0.41608(8)
C16B C -0.11377(18) 1.1031(2) 0.37736(9)
H14B H -0.1345 1.1802 0.3784
H15B H -0.0979 1.0835 0.3449
H16B H -0.0595 1.0942 0.3977
C17B C -0.44608(19) 1.0642(3) 0.43921(11)
H17B H -0.4426 1.1443 0.4343
H18B H -0.4583 1.0490 0.4725
H19B H -0.4959 1.0335 0.4198
C18B C -0.2485(2) 0.7141(2) 0.42484(10)
H20B H -0.3071 0.6863 0.4370
H21B H -0.1995 0.6995 0.4479
H22B H -0.2341 0.6767 0.3951
C19B C -0.10341(15) 0.75916(18) 0.33599(7)
C20B C -0.04599(15) 0.67079(19) 0.32116(7)
H23B H 0.0135 0.6588 0.3342
C21B C -0.08463(14) 0.59996(17) 0.28463(7)
C22B C -0.17294(15) 0.63803(19) 0.26995(7)
C23B C -0.23312(19) 0.5923(3) 0.22907(10)
H24B H -0.2028 0.5278 0.2151
H25B H -0.2412 0.6496 0.2050
H26B H -0.2934 0.5705 0.2413
C24B C -0.03747(15) 0.49812(17) 0.26467(7)
C25B C -0.0683(2) 0.3779(2) 0.27691(10)
H27B H -0.0642 0.3645 0.3113
H28B H -0.1323 0.3643 0.2662
H29B H -0.029(3) 0.239(2) 0.2347(15)
loop_
_geom_bond_atom_site_label_1
_geom_bond_atom_site_label_2
_geom_bond_site_symmetry_1
_geom_bond_site_symmetry_2
S1 C19 1_555 1_555
B1 C5 1_555 1_555
C1 H1 1_555 1_555
H2 C1 1_555 1_555
H3 C1 1_555 1_555
C2 C1 1_555 1_555
C3 C2 1_555 1_555
H4 C3 1_555 1_555
C4 C3 1_555 1_555
C5 C4 1_555 1_555
C6 C5 1_555 1_555
C7 C2 1_555 1_555
H5 C7 1_555 1_555
C8 C4 1_555 1_555
H6 C8 1_555 1_555
H7 C8 1_555 1_555
H8 C8 1_555 1_555
C9 C6 1_555 1_555
H9 C9 1_555 1_555
H10 C9 1_555 1_555
H11 C9 1_555 1_555
C10 B1 1_555 1_555
C11 C10 1_555 1_555
C12 C11 1_555 1_555
H12 C12 1_555 1_555
C13 C12 1_555 1_555
C14 C13 1_555 1_555
H13 C14 1_555 1_555
C15 C10 1_555 1_555
C16 C11 1_555 1_555
H14 C16 1_555 1_555
H15 C16 1_555 1_555
H16 C16 1_555 1_555
C17 C13 1_555 1_555
H17 C17 1_555 1_555
H18 C17 1_555 1_555
H19 C17 1_555 1_555
C18 C15 1_555 1_555
H20 C18 1_555 1_555
H21 C18 1_555 1_555
H22 C18 1_555 1_555
C19 B1 1_555 1_555
C20 C19 1_555 1_555
H23 C20 1_555 1_555
C21 C20 1_555 1_555
C22 S1 1_555 1_555
C23 C22 1_555 1_555
H24 C23 1_555 1_555
H25 C23 1_555 1_555
H26 C23 1_555 1_555
C24 C21 1_555 1_555
C25 C24 1_555 1_555
H27 C25 1_555 1_555
H28 C25 1_555 1_555
C26 C25 1_555 1_555
H29 C26 1_555 1_555
S1B C19B 1_555 1_555
B1B C5B 1_555 1_555
C1B H1B 1_555 1_555
H2B C1B 1_555 1_555
H3B C1B 1_555 1_555
C2B C1B 1_555 1_555
C3B C2B 1_555 1_555
H4B C3B 1_555 1_555
C4B C3B 1_555 1_555
C5B C4B 1_555 1_555
C6B C5B 1_555 1_555
C7B C2B 1_555 1_555
H5B C7B 1_555 1_555
C8B C4B 1_555 1_555
H6B C8B 1_555 1_555
H7B C8B 1_555 1_555
H8B C8B 1_555 1_555
C9B C6B 1_555 1_555
H9B C9B 1_555 1_555
H10B C9B 1_555 1_555
H11B C9B 1_555 1_555
C10B B1B 1_555 1_555
C11B C10B 1_555 1_555
C12B C11B 1_555 1_555
H12B C12B 1_555 1_555
C13B C12B 1_555 1_555
C14B C13B 1_555 1_555
H13B C14B 1_555 1_555
C15B C10B 1_555 1_555
C16B C11B 1_555 1_555
H14B C16B 1_555 1_555
H15B C16B 1_555 1_555
H16B C16B 1_555 1_555
C17B C13B 1_555 1_555
H17B C17B 1_555 1_555
H18B C17B 1_555 1_555
H19B C17B 1_555 1_555
C18B C15B 1_555 1_555
H20B C18B 1_555 1_555
H21B C18B 1_555 1_555
H22B C18B 1_555 1_555
C19B B1B 1_555 1_555
C20B C19B 1_555 1_555
H23B C20B 1_555 1_555
C21B C20B 1_555 1_555
C22B S1B 1_555 1_555
C23B C22B 1_555 1_555
H24B C23B 1_555 1_555
H25B C23B 1_555 1_555
H26B C23B 1_555 1_555
C24B C24 1_555 1_555
C25B C26 1_555 1_555
H27B C25B 1_555 1_555
H28B C25B 1_555 1_555
H29B C26 1_555 1_555
C6 C7 1_555 1_555
C14 C15 1_555 1_555
C21 C22 1_555 1_555
C6B C7B 1_555 1_555
C14B C15B 1_555 1_555
C21B C22B 1_555 1_555
C21B C24B 1_555 1_555
C24B C25B 1_555 1_555

#END
