
#######################################################################
#
#                 Cambridge Crystallographic Data Centre
#                                CCDC 
#
#######################################################################
#
# If this CIF has been generated from an entry in the Cambridge 
# Structural Database, then it will include bibliographic, chemical, 
# crystal, experimental, refinement or atomic coordinate data resulting 
# from the CCDC's data processing and validation procedures.
#
#######################################################################

data_QEQNUW
_chemical_formula_moiety         'C20 H25 N1 O2'
_chemical_name_systematic        17\a-cyano-17\b-hydroxyandrost-1,4-dien-3-one
_symmetry_cell_setting           orthorhombic
_symmetry_space_group_name_H-M   'P 21 21 21'
_symmetry_Int_Tables_number      19
_space_group_name_Hall           'P 2ac 2ab'
loop_
_symmetry_equiv_pos_site_id
_symmetry_equiv_pos_as_xyz
1 x,y,z
2 1/2-x,-y,1/2+z
3 -x,1/2+y,1/2-z
4 1/2+x,1/2-y,-z
_cell_length_a                   8.468(2)
_cell_length_b                   11.715(6)
_cell_length_c                   17.085(5)
_cell_angle_alpha                90
_cell_angle_beta                 90
_cell_angle_gamma                90
_cell_volume                     1694.88
_exptl_crystal_colour            colorless
_exptl_crystal_description       parallelepiped
_chemical_melting_point          '178-181 deg.C'
_cell_formula_units_Z            4
_exptl_crystal_recrystallization_method 'ethyl acetate'
loop_
_atom_site_label
_atom_site_type_symbol
_atom_site_fract_x
_atom_site_fract_y
_atom_site_fract_z
O1 O 0.9770(5) 1.3096(3) -0.2255(2)
O2 O 0.7966(4) 0.7292(2) 0.18661(19)
H1 H 0.7144 0.7207 0.2113
N1 N 0.5523(6) 0.9089(3) 0.0944(2)
C1 C 1.1392(5) 1.0508(4) -0.1574(2)
H2 H 1.1526 0.9763 -0.1749
C2 C 1.0789(5) 1.1248(4) -0.2076(3)
H3 H 1.0528 1.1014 -0.2580
C3 C 1.0531(6) 1.2426(4) -0.1841(3)
C4 C 1.1161(5) 1.2764(4) -0.1089(3)
H4 H 1.1144 1.3533 -0.0956
C5 C 1.1763(5) 1.2029(3) -0.0580(2)
C6 C 1.2180(6) 1.2378(4) 0.0239(2)
H5 H 1.2072 1.3198 0.0293
H6 H 1.3268 1.2176 0.0349
C7 C 1.1087(5) 1.1776(3) 0.0820(2)
H7 H 1.0028 1.2082 0.0765
H8 H 1.1443 1.1938 0.1348
C8 C 1.1035(5) 1.0483(3) 0.0701(2)
H9 H 1.2044 1.0152 0.0865
C9 C 1.0717(5) 1.0166(3) -0.0166(2)
H10 H 0.9666 1.0466 -0.0288
C10 C 1.1882(5) 1.0765(3) -0.0749(2)
C11 C 1.0607(6) 0.8871(3) -0.0272(2)
H11 H 1.0375 0.8701 -0.0815
H12 H 1.1620 0.8530 -0.0146
C12 C 0.9334(5) 0.8340(3) 0.0246(2)
H13 H 0.9359 0.7517 0.0187
H14 H 0.8305 0.8606 0.0076
C13 C 0.9567(5) 0.8646(4) 0.1109(2)
C14 C 0.9713(5) 0.9956(3) 0.1175(2)
H15 H 0.8734 1.0263 0.0953
C15 C 0.9615(6) 1.0189(4) 0.2060(2)
H16 H 1.0642 1.0109 0.2306
H17 H 0.9209 1.0949 0.2163
C16 C 0.8460(6) 0.9265(4) 0.2351(2)
H18 H 0.7485 0.9612 0.2530
H19 H 0.8922 0.8843 0.2783
C17 C 0.8132(5) 0.8457(4) 0.1654(3)
C18 C 1.0994(6) 0.8014(4) 0.1447(3)
H20 H 1.0847 0.7207 0.1385
H21 H 1.1098 0.8193 0.1993
H22 H 1.1932 0.8246 0.1175
C19 C 1.3592(5) 1.0346(4) -0.0657(3)
H23 H 1.4284 1.0825 -0.0957
H24 H 1.3671 0.9574 -0.0841
H25 H 1.3889 1.0377 -0.0115
C20 C 0.6648(6) 0.8816(4) 0.1249(3)
loop_
_geom_bond_atom_site_label_1
_geom_bond_atom_site_label_2
_geom_bond_site_symmetry_1
_geom_bond_site_symmetry_2
O1 C3 1_555 1_555
O2 H1 1_555 1_555
N1 C20 1_555 1_555
C1 H2 1_555 1_555
C2 C1 1_555 1_555
H3 C2 1_555 1_555
C3 C2 1_555 1_555
C4 C3 1_555 1_555
H4 C4 1_555 1_555
C5 C4 1_555 1_555
C6 C5 1_555 1_555
H5 C6 1_555 1_555
H6 C6 1_555 1_555
C7 C6 1_555 1_555
H7 C7 1_555 1_555
H8 C7 1_555 1_555
C8 C7 1_555 1_555
H9 C8 1_555 1_555
C9 C8 1_555 1_555
H10 C9 1_555 1_555
C10 C1 1_555 1_555
C11 C9 1_555 1_555
H11 C11 1_555 1_555
H12 C11 1_555 1_555
C12 C11 1_555 1_555
H13 C12 1_555 1_555
H14 C12 1_555 1_555
C13 C12 1_555 1_555
C14 C8 1_555 1_555
H15 C14 1_555 1_555
C15 C14 1_555 1_555
H16 C15 1_555 1_555
H17 C15 1_555 1_555
C16 C15 1_555 1_555
H18 C16 1_555 1_555
H19 C16 1_555 1_555
C17 O2 1_555 1_555
C18 C13 1_555 1_555
H20 C18 1_555 1_555
H21 C18 1_555 1_555
H22 C18 1_555 1_555
C19 C10 1_555 1_555
H23 C19 1_555 1_555
H24 C19 1_555 1_555
H25 C19 1_555 1_555
C20 C17 1_555 1_555
C5 C10 1_555 1_555
C9 C10 1_555 1_555
C13 C14 1_555 1_555
C13 C17 1_555 1_555
C16 C17 1_555 1_555

#END
