
#######################################################################
#
#                 Cambridge Crystallographic Data Centre
#                                CCDC 
#
#######################################################################
#
# If this CIF has been generated from an entry in the Cambridge 
# Structural Database, then it will include bibliographic, chemical, 
# crystal, experimental, refinement or atomic coordinate data resulting 
# from the CCDC's data processing and validation procedures.
#
#######################################################################

data_QEQPEI
_chemical_formula_moiety         'C20 H25 N1 O3'
_chemical_name_systematic        
17\b-cyano-11\a,17\a-dihydroxyandrost-1,4-dien-3-one
_symmetry_cell_setting           monoclinic
_symmetry_space_group_name_H-M   'P 21'
_symmetry_Int_Tables_number      4
_space_group_name_Hall           'P 2yb'
loop_
_symmetry_equiv_pos_site_id
_symmetry_equiv_pos_as_xyz
1 x,y,z
2 -x,1/2+y,-z
_cell_length_a                   11.831(3)
_cell_length_b                   6.0630(18)
_cell_length_c                   13.250(3)
_cell_angle_alpha                90
_cell_angle_beta                 115.260(17)
_cell_angle_gamma                90
_cell_volume                     859.56
_exptl_crystal_colour            colorless
_exptl_crystal_description       needle
_chemical_melting_point          '218-222 deg.C'
_cell_formula_units_Z            2
_exptl_crystal_recrystallization_method 'ethyl acetate'
loop_
_atom_site_label
_atom_site_type_symbol
_atom_site_fract_x
_atom_site_fract_y
_atom_site_fract_z
O1 O 1.0572(3) 0.9907(7) 0.6107(3)
O2 O 0.7652(3) 0.8998(6) 0.8959(2)
H1 H 0.7688 0.8655 0.9571
O3 O 0.3102(2) 1.0068(5) 0.6980(2)
H2 H 0.2344 0.9866 0.6698
N1 N 0.2563(3) 1.2517(8) 0.9011(3)
C1 C 0.9291(3) 1.0338(7) 0.8070(4)
H3 H 0.9336 0.9586 0.8698
C2 C 0.9953(3) 0.9552(9) 0.7554(4)
H4 H 1.0453 0.8317 0.7844
C3 C 0.9916(3) 1.0562(8) 0.6560(3)
C4 C 0.9101(3) 1.2450(9) 0.6140(3)
H5 H 0.9035 1.3106 0.5483
C5 C 0.8442(3) 1.3293(7) 0.6645(3)
C6 C 0.7588(3) 1.5213(7) 0.6152(3)
H6 H 0.7608 1.5636 0.5454
H7 H 0.7870 1.6459 0.6658
C7 C 0.6260(3) 1.4612(8) 0.5946(3)
H8 H 0.5953 1.3454 0.5389
H9 H 0.5723 1.5889 0.5659
C8 C 0.6208(3) 1.3829(6) 0.7020(3)
H10 H 0.6482 1.5046 0.7558
C9 C 0.7090(3) 1.1832(6) 0.7542(3)
H11 H 0.6785 1.0626 0.7000
C10 C 0.8474(3) 1.2351(6) 0.7714(3)
C11 C 0.6976(3) 1.1043(7) 0.8599(3)
H12 H 0.7350 1.2150 0.9188
C12 C 0.5624(3) 1.0640(7) 0.8405(3)
H13 H 0.5296 0.9391 0.7908
H14 H 0.5608 1.0267 0.9111
C13 C 0.4791(3) 1.2616(6) 0.7910(3)
C14 C 0.4884(3) 1.3199(6) 0.6820(3)
H15 H 0.4678 1.1852 0.6367
C15 C 0.3807(3) 1.4800(7) 0.6235(3)
H16 H 0.3517 1.4721 0.5432
H17 H 0.4064 1.6302 0.6476
C16 C 0.2777(4) 1.4054(8) 0.6576(3)
H18 H 0.2061 1.3489 0.5936
H19 H 0.2506 1.5276 0.6892
C17 C 0.3372(3) 1.2216(7) 0.7459(3)
C18 C 0.5145(4) 1.4547(8) 0.8745(3)
H20 H 0.5973 1.5048 0.8900
H21 H 0.5121 1.4062 0.9425
H22 H 0.4563 1.5735 0.8431
C19 C 0.9110(3) 1.4053(7) 0.8667(3)
H23 H 0.8596 1.5348 0.8520
H24 H 0.9913 1.4447 0.8706
H25 H 0.9212 1.3417 0.9364
C20 C 0.2918(2) 1.2355(6) 0.8340(3)
loop_
_geom_bond_atom_site_label_1
_geom_bond_atom_site_label_2
_geom_bond_site_symmetry_1
_geom_bond_site_symmetry_2
O1 C3 1_555 1_555
O2 H1 1_555 1_555
O3 H2 1_555 1_555
N1 C20 1_555 1_555
C1 H3 1_555 1_555
C2 C1 1_555 1_555
H4 C2 1_555 1_555
C3 C2 1_555 1_555
C4 C3 1_555 1_555
H5 C4 1_555 1_555
C5 C4 1_555 1_555
C6 C5 1_555 1_555
H6 C6 1_555 1_555
H7 C6 1_555 1_555
C7 C6 1_555 1_555
H8 C7 1_555 1_555
H9 C7 1_555 1_555
C8 C7 1_555 1_555
H10 C8 1_555 1_555
C9 C8 1_555 1_555
H11 C9 1_555 1_555
C10 C1 1_555 1_555
C11 O2 1_555 1_555
H12 C11 1_555 1_555
C12 C11 1_555 1_555
H13 C12 1_555 1_555
H14 C12 1_555 1_555
C13 C12 1_555 1_555
C14 C8 1_555 1_555
H15 C14 1_555 1_555
C15 C14 1_555 1_555
H16 C15 1_555 1_555
H17 C15 1_555 1_555
C16 C15 1_555 1_555
H18 C16 1_555 1_555
H19 C16 1_555 1_555
C17 O3 1_555 1_555
C18 C13 1_555 1_555
H20 C18 1_555 1_555
H21 C18 1_555 1_555
H22 C18 1_555 1_555
C19 C10 1_555 1_555
H23 C19 1_555 1_555
H24 C19 1_555 1_555
H25 C19 1_555 1_555
C20 C17 1_555 1_555
C5 C10 1_555 1_555
C9 C10 1_555 1_555
C9 C11 1_555 1_555
C13 C14 1_555 1_555
C13 C17 1_555 1_555
C16 C17 1_555 1_555

#END
