
#######################################################################
#
#                 Cambridge Crystallographic Data Centre
#                                CCDC 
#
#######################################################################
#
# If this CIF has been generated from an entry in the Cambridge 
# Structural Database, then it will include bibliographic, chemical, 
# crystal, experimental, refinement or atomic coordinate data resulting 
# from the CCDC's data processing and validation procedures.
#
#######################################################################

data_QEQPEK
_chemical_formula_moiety         'C26 H17 Cl1 N2 O1'
_chemical_name_systematic        
2-(4-chlorophenyl)-2a-phenyl-2,2a-dihydro-1H-2,10b-diazabenzo[a]cyclopenta[cd]azulen-1-one
_symmetry_cell_setting           monoclinic
_symmetry_space_group_name_H-M   'P 21/n'
_symmetry_Int_Tables_number      14
_space_group_name_Hall           '-P 2yn'
loop_
_symmetry_equiv_pos_site_id
_symmetry_equiv_pos_as_xyz
1 x,y,z
2 1/2-x,1/2+y,1/2-z
3 -x,-y,-z
4 1/2+x,1/2-y,1/2+z
_cell_length_a                   8.6055(4)
_cell_length_b                   9.1351(7)
_cell_length_c                   25.7927(13)
_cell_angle_alpha                90
_cell_angle_beta                 99.119(5)
_cell_angle_gamma                90
_cell_volume                     2001.99
_exptl_crystal_description       block
_cell_formula_units_Z            4
loop_
_atom_site_label
_atom_site_type_symbol
_atom_site_fract_x
_atom_site_fract_y
_atom_site_fract_z
Cl1 Cl 0.58101(8) 0.68287(8) 0.44644(3)
O1 O 0.10432(16) 0.43040(16) 0.60208(6)
N1 N -0.05298(17) 0.59304(18) 0.64001(6)
N2 N 0.10596(18) 0.68261(18) 0.58897(7)
C1 C 0.0606(2) 0.5532(2) 0.60900(8)
C2 C -0.1665(2) 0.5241(2) 0.66491(7)
C3 C -0.1859(2) 0.3779(2) 0.67643(8)
H1 H -0.1177 0.3061 0.6678
C4 C -0.3120(3) 0.3444(3) 0.70147(9)
H2 H -0.3294 0.2475 0.7100
C5 C -0.4132(3) 0.4521(3) 0.71412(9)
H3 H -0.4964 0.4256 0.7312
C6 C -0.3940(2) 0.5966(3) 0.70221(9)
H4 H -0.4633 0.6672 0.7109
C7 C -0.2684(2) 0.6358(2) 0.67678(8)
C8 C -0.2169(2) 0.7744(2) 0.65648(8)
C9 C -0.2890(2) 0.9166(3) 0.65071(9)
H5 H -0.3500 0.9467 0.6755
C10 C -0.2722(3) 1.0080(3) 0.61108(10)
H6 H -0.3182 1.0998 0.6123
C11 C -0.1919(2) 0.9818(2) 0.56683(9)
H7 H -0.2332 1.0324 0.5365
C12 C -0.0681(2) 0.8969(2) 0.56216(8)
H8 H -0.0392 0.8876 0.5291
C13 C 0.0273(2) 0.8154(2) 0.60712(8)
C14 C -0.0865(2) 0.7394(2) 0.63581(7)
C15 C 0.2204(2) 0.6863(2) 0.55419(7)
C16 C 0.3738(2) 0.7261(3) 0.57255(9)
H9 H 0.4031 0.7537 0.6074
C17 C 0.4843(3) 0.7249(3) 0.53883(10)
H10 H 0.5880 0.7513 0.5511
C18 C 0.4410(3) 0.6853(2) 0.48787(9)
C19 C 0.2887(3) 0.6458(3) 0.46924(8)
H11 H 0.2599 0.6180 0.4344
C20 C 0.1783(2) 0.6477(3) 0.50265(8)
H12 H 0.0745 0.6224 0.4900
C21 C 0.1452(2) 0.9099(2) 0.64350(8)
C22 C 0.1744(3) 1.0543(3) 0.63300(10)
H13 H 0.1223 1.0980 0.6026
C23 C 0.2819(3) 1.1352(3) 0.66786(11)
H14 H 0.3023 1.2321 0.6601
C24 C 0.3570(3) 1.0741(3) 0.71297(10)
H15 H 0.4278 1.1290 0.7362
C25 C 0.3274(2) 0.9297(3) 0.72406(9)
H16 H 0.3780 0.8872 0.7549
C26 C 0.2232(2) 0.8489(2) 0.68948(8)
H17 H 0.2049 0.7515 0.6971
loop_
_geom_bond_atom_site_label_1
_geom_bond_atom_site_label_2
_geom_bond_site_symmetry_1
_geom_bond_site_symmetry_2
Cl1 C18 1_555 1_555
O1 C1 1_555 1_555
N1 C1 1_555 1_555
N2 C1 1_555 1_555
C2 N1 1_555 1_555
C3 C2 1_555 1_555
H1 C3 1_555 1_555
C4 C3 1_555 1_555
H2 C4 1_555 1_555
C5 C4 1_555 1_555
H3 C5 1_555 1_555
C6 C5 1_555 1_555
H4 C6 1_555 1_555
C7 C2 1_555 1_555
C8 C7 1_555 1_555
C9 C8 1_555 1_555
H5 C9 1_555 1_555
C10 C9 1_555 1_555
H6 C10 1_555 1_555
C11 C10 1_555 1_555
H7 C11 1_555 1_555
C12 C11 1_555 1_555
H8 C12 1_555 1_555
C13 N2 1_555 1_555
C14 N1 1_555 1_555
C15 N2 1_555 1_555
C16 C15 1_555 1_555
H9 C16 1_555 1_555
C17 C16 1_555 1_555
H10 C17 1_555 1_555
C18 C17 1_555 1_555
C19 C18 1_555 1_555
H11 C19 1_555 1_555
C20 C15 1_555 1_555
H12 C20 1_555 1_555
C21 C13 1_555 1_555
C22 C21 1_555 1_555
H13 C22 1_555 1_555
C23 C22 1_555 1_555
H14 C23 1_555 1_555
C24 C23 1_555 1_555
H15 C24 1_555 1_555
C25 C24 1_555 1_555
H16 C25 1_555 1_555
C26 C21 1_555 1_555
H17 C26 1_555 1_555
C6 C7 1_555 1_555
C8 C14 1_555 1_555
C12 C13 1_555 1_555
C13 C14 1_555 1_555
C19 C20 1_555 1_555
C25 C26 1_555 1_555

#END
