
#######################################################################
#
#                 Cambridge Crystallographic Data Centre
#                                CCDC 
#
#######################################################################
#
# If this CIF has been generated from an entry in the Cambridge 
# Structural Database, then it will include bibliographic, chemical, 
# crystal, experimental, refinement or atomic coordinate data resulting 
# from the CCDC's data processing and validation procedures.
#
#######################################################################

data_QEQSEN
_chemical_formula_moiety         'C27 H20 N2 O1,C1 H2 O2'
_chemical_name_systematic        
'1-[3-phenyl-5-(pyren-1-yl)-4,5-dihydro-1H-pyrazol-1-yl]ethan-1-one formic acid solvate'
_symmetry_cell_setting           monoclinic
_symmetry_space_group_name_H-M   'P 21/c'
_symmetry_Int_Tables_number      14
_space_group_name_Hall           '-P 2ybc'
loop_
_symmetry_equiv_pos_site_id
_symmetry_equiv_pos_as_xyz
1 x,y,z
2 -x,1/2+y,1/2-z
3 -x,-y,-z
4 x,1/2-y,1/2+z
_cell_length_a                   9.1829(5)
_cell_length_b                   25.6141(16)
_cell_length_c                   18.5826(12)
_cell_angle_alpha                90
_cell_angle_beta                 99.823(2)
_cell_angle_gamma                90
_cell_volume                     4306.77
_exptl_crystal_colour            yellow
_exptl_crystal_description       needle
_cell_formula_units_Z            8
loop_
_atom_site_label
_atom_site_type_symbol
_atom_site_fract_x
_atom_site_fract_y
_atom_site_fract_z
C1 C 0.0760(4) 0.71949(14) 0.37426(18)
H1 H 0.0070 0.7400 0.3422
C2 C 0.0829(4) 0.66747(14) 0.3630(2)
H2 H 0.0158 0.6521 0.3242
C3 C 0.1867(4) 0.63505(14) 0.4072(2)
C4 C 0.2841(4) 0.65810(14) 0.4662(2)
C5 C 0.2740(3) 0.71258(13) 0.48078(18)
C6 C 0.1717(3) 0.74446(13) 0.43403(17)
C7 C 0.1977(5) 0.58142(16) 0.3948(2)
H3 H 0.1302 0.5652 0.3569
C8 C 0.3061(6) 0.55169(17) 0.4371(3)
H4 H 0.3152 0.5157 0.4265
C9 C 0.4002(5) 0.57379(18) 0.4944(3)
H5 H 0.4731 0.5527 0.5230
C10 C 0.3912(4) 0.62668(15) 0.5114(2)
C11 C 0.4841(4) 0.65118(19) 0.5718(2)
H6 H 0.5570 0.6308 0.6017
C12 C 0.4719(4) 0.70160(19) 0.5875(2)
H7 H 0.5328 0.7158 0.6294
C13 C 0.3681(4) 0.73503(15) 0.54203(19)
C14 C 0.3591(4) 0.78805(16) 0.5544(2)
H8 H 0.4200 0.8033 0.5955
C15 C 0.2624(4) 0.81910(14) 0.50769(19)
H9 H 0.2601 0.8556 0.5167
C16 C 0.1687(3) 0.79845(13) 0.44795(18)
C17 C 0.0715(4) 0.83416(13) 0.39481(19)
H10 H -0.0251 0.8166 0.3767
C18 C 0.1452(4) 0.85028(13) 0.32930(19)
H11 H 0.2434 0.8337 0.3320
H12 H 0.0825 0.8409 0.2823
C19 C 0.1585(4) 0.90832(13) 0.3384(2)
C20 C -0.0379(5) 0.89158(19) 0.4781(2)
C21 C -0.0589(9) 0.9429(3) 0.5066(4)
H13 H -0.1315 0.9411 0.5395
H14 H -0.0948 0.9667 0.4661
H15 H 0.0353 0.9558 0.5335
C22 C 0.2276(4) 0.94258(15) 0.2895(2)
C23 C 0.2000(6) 0.99608(18) 0.2875(3)
H16 H 0.1371 1.0111 0.3175
C24 C 0.2676(7) 1.0277(2) 0.2398(3)
H17 H 0.2479 1.0641 0.2368
C25 C 0.3593(6) 1.0064(2) 0.1987(3)
H18 H 0.4070 1.0282 0.1685
C26 C 0.3848(5) 0.9544(2) 0.1994(2)
H19 H 0.4487 0.9400 0.1695
C27 C 0.3170(5) 0.92195(17) 0.2444(2)
H20 H 0.3329 0.8853 0.2438
N1 N 0.0452(3) 0.88484(12) 0.42637(17)
N2 N 0.1027(3) 0.92683(12) 0.39208(19)
O1 O -0.0942(3) 0.85388(13) 0.50460(16)
C28 C 0.5626(5) 0.62536(17) 0.9180(2)
H21 H 0.5191 0.6479 0.9491
C29 C 0.5596(6) 0.57352(19) 0.9277(3)
H22 H 0.5103 0.5604 0.9649
C30 C 0.6257(6) 0.53735(17) 0.8857(2)
C31 C 0.6948(4) 0.55678(15) 0.8284(2)
C32 C 0.6936(4) 0.61183(14) 0.81522(18)
C33 C 0.6323(4) 0.64724(14) 0.85997(19)
C34 C 0.6272(7) 0.48312(19) 0.8966(3)
H23 H 0.5774 0.4691 0.9331
C35 C 0.6979(7) 0.44996(19) 0.8566(3)
H24 H 0.7016 0.4136 0.8671
C36 C 0.7637(6) 0.46922(17) 0.8008(2)
H25 H 0.8111 0.4458 0.7726
C37 C 0.7619(4) 0.52235(15) 0.7851(2)
C38 C 0.8231(4) 0.54448(15) 0.7259(2)
H26 H 0.8670 0.5217 0.6954
C39 C 0.8213(4) 0.59451(16) 0.7119(2)
H27 H 0.8624 0.6067 0.6715
C40 C 0.7595(3) 0.63114(14) 0.75577(18)
C41 C 0.7620(3) 0.68450(14) 0.74385(19)
H28 H 0.8044 0.6975 0.7042
C42 C 0.7042(4) 0.71916(14) 0.7883(2)
H29 H 0.7092 0.7556 0.7796
C43 C 0.6375(3) 0.70100(14) 0.84664(19)
C44 C 0.5865(4) 0.74042(14) 0.8981(2)
H30 H 0.5017 0.7258 0.9189
C45 C 0.7082(4) 0.75884(14) 0.9603(2)
H31 H 0.6791 0.7527 1.0085
H32 H 0.8024 0.7404 0.9587
C46 C 0.7227(4) 0.81594(15) 0.9464(2)
C47 C 0.4302(5) 0.79698(18) 0.8067(3)
C48 C 0.4121(7) 0.8503(2) 0.7756(3)
H33 H 0.3240 0.8515 0.7376
H34 H 0.4993 0.8595 0.7544
H35 H 0.4010 0.8752 0.8143
C49 C 0.8291(4) 0.85157(15) 0.9902(2)
C50 C 0.8137(5) 0.90532(17) 0.9827(3)
H36 H 0.7322 0.9197 0.9504
C51 C 0.9183(6) 0.93803(18) 1.0229(3)
H37 H 0.9086 0.9748 1.0175
C52 C 1.0355(6) 0.9175(2) 1.0702(3)
H38 H 1.1066 0.9403 1.0970
C53 C 1.0511(5) 0.8645(2) 1.0794(2)
H39 H 1.1320 0.8504 1.1125
C54 C 0.9466(4) 0.83158(17) 1.0394(2)
H40 H 0.9559 0.7949 1.0459
N3 N 0.5439(3) 0.79011(13) 0.86221(18)
N4 N 0.6287(4) 0.83310(13) 0.8909(2)
O2 O 0.3553(3) 0.75816(12) 0.78398(17)
C55 C 0.0697(7) 0.7942(4) 0.6566(3)
H41 H -0.0088 0.7912 0.6163
O3 O 0.1033(7) 0.8383(2) 0.6768(3)
O4 O 0.1261(4) 0.75203(15) 0.68238(19)
H42 H 0.2162 0.7515 0.6792
C56 C 0.7618(17) 0.8504(7) 0.6501(7)
H43 H 0.8418 0.8744 0.6587
O5 O 0.6978(10) 0.8385(3) 0.6987(5)
O6 O 0.7228(9) 0.8312(4) 0.5883(5)
H44 H 0.7767 0.8431 0.5599
C57? C 0.689(2) 0.8566(6) 0.6459(11)
H45? H 0.6236 0.8693 0.6766
O7? O 0.7409(13) 0.8885(4) 0.6039(6)
H46? H 0.6735 0.8983 0.5702
O8? O 0.7202(12) 0.8102(5) 0.6477(7)
loop_
_geom_bond_atom_site_label_1
_geom_bond_atom_site_label_2
_geom_bond_site_symmetry_1
_geom_bond_site_symmetry_2
C1 H1 1_555 1_555
C2 C1 1_555 1_555
H2 C2 1_555 1_555
C3 C2 1_555 1_555
C4 C3 1_555 1_555
C5 C4 1_555 1_555
C6 C1 1_555 1_555
C7 C3 1_555 1_555
H3 C7 1_555 1_555
C8 C7 1_555 1_555
H4 C8 1_555 1_555
C9 C8 1_555 1_555
H5 C9 1_555 1_555
C10 C4 1_555 1_555
C11 C10 1_555 1_555
H6 C11 1_555 1_555
C12 C11 1_555 1_555
H7 C12 1_555 1_555
C13 C5 1_555 1_555
C14 C13 1_555 1_555
H8 C14 1_555 1_555
C15 C14 1_555 1_555
H9 C15 1_555 1_555
C16 C6 1_555 1_555
C17 C16 1_555 1_555
H10 C17 1_555 1_555
C18 C17 1_555 1_555
H11 C18 1_555 1_555
H12 C18 1_555 1_555
C19 C18 1_555 1_555
C20 C21 1_555 1_555
C21 H13 1_555 1_555
H14 C21 1_555 1_555
H15 C21 1_555 1_555
C22 C19 1_555 1_555
C23 C22 1_555 1_555
H16 C23 1_555 1_555
C24 C23 1_555 1_555
H17 C24 1_555 1_555
C25 C24 1_555 1_555
H18 C25 1_555 1_555
C26 C25 1_555 1_555
H19 C26 1_555 1_555
C27 C22 1_555 1_555
H20 C27 1_555 1_555
N1 C17 1_555 1_555
N2 C19 1_555 1_555
O1 C20 1_555 1_555
C28 H21 1_555 1_555
C29 C28 1_555 1_555
H22 C29 1_555 1_555
C30 C29 1_555 1_555
C31 C30 1_555 1_555
C32 C31 1_555 1_555
C33 C28 1_555 1_555
C34 C30 1_555 1_555
H23 C34 1_555 1_555
C35 C34 1_555 1_555
H24 C35 1_555 1_555
C36 C35 1_555 1_555
H25 C36 1_555 1_555
C37 C31 1_555 1_555
C38 C37 1_555 1_555
H26 C38 1_555 1_555
C39 C38 1_555 1_555
H27 C39 1_555 1_555
C40 C32 1_555 1_555
C41 C40 1_555 1_555
H28 C41 1_555 1_555
C42 C41 1_555 1_555
H29 C42 1_555 1_555
C43 C33 1_555 1_555
C44 C43 1_555 1_555
H30 C44 1_555 1_555
C45 C44 1_555 1_555
H31 C45 1_555 1_555
H32 C45 1_555 1_555
C46 C45 1_555 1_555
C47 C48 1_555 1_555
C48 H33 1_555 1_555
H34 C48 1_555 1_555
H35 C48 1_555 1_555
C49 C46 1_555 1_555
C50 C49 1_555 1_555
H36 C50 1_555 1_555
C51 C50 1_555 1_555
H37 C51 1_555 1_555
C52 C51 1_555 1_555
H38 C52 1_555 1_555
C53 C52 1_555 1_555
H39 C53 1_555 1_555
C54 C49 1_555 1_555
H40 C54 1_555 1_555
N3 C44 1_555 1_555
N4 C46 1_555 1_555
O2 C47 1_555 1_555
C55 H41 1_555 1_555
O3 C55 1_555 1_555
O4 C55 1_555 1_555
H42 O4 1_555 1_555
C56 H43 1_555 1_555
O5 C56 1_555 1_555
O6 C56 1_555 1_555
H44 O6 1_555 1_555
C5 C6 1_555 1_555
C9 C10 1_555 1_555
C12 C13 1_555 1_555
C15 C16 1_555 1_555
C20 N1 1_555 1_555
C26 C27 1_555 1_555
N1 N2 1_555 1_555
C32 C33 1_555 1_555
C36 C37 1_555 1_555
C39 C40 1_555 1_555
C42 C43 1_555 1_555
C47 N3 1_555 1_555
C53 C54 1_555 1_555
N3 N4 1_555 1_555

#END
