
#######################################################################
#
#                 Cambridge Crystallographic Data Centre
#                                CCDC 
#
#######################################################################
#
# If this CIF has been generated from an entry in the Cambridge 
# Structural Database, then it will include bibliographic, chemical, 
# crystal, experimental, refinement or atomic coordinate data resulting 
# from the CCDC's data processing and validation procedures.
#
#######################################################################

data_QEQVUE
_chemical_formula_moiety         'C18 H11 Cl1 O3'
_chemical_name_systematic        
2-Chloro-3,4-dihydrotetraphene-1,7,12(2H)-trione
_symmetry_cell_setting           monoclinic
_symmetry_space_group_name_H-M   'P 21/n'
_symmetry_Int_Tables_number      14
_space_group_name_Hall           '-P 2yn'
loop_
_symmetry_equiv_pos_site_id
_symmetry_equiv_pos_as_xyz
1 x,y,z
2 1/2-x,1/2+y,1/2-z
3 -x,-y,-z
4 1/2+x,1/2-y,1/2+z
_cell_length_a                   7.9106(11)
_cell_length_b                   21.345(3)
_cell_length_c                   8.4292(11)
_cell_angle_alpha                90
_cell_angle_beta                 100.600(2)
_cell_angle_gamma                90
_cell_volume                     1399
_cell_formula_units_Z            4
loop_
_atom_site_label
_atom_site_type_symbol
_atom_site_fract_x
_atom_site_fract_y
_atom_site_fract_z
Cl1 Cl 0.27804(9) 0.25128(3) -0.13137(10)
O1 O 0.38199(18) 0.04858(6) 0.08755(17)
O2 O 1.0067(2) -0.03666(8) 0.3194(3)
O3 O 0.4234(2) 0.17601(7) 0.14657(18)
C1 C 0.5233(2) 0.03694(9) 0.1648(2)
C2 C 0.5499(2) -0.01699(8) 0.2792(2)
C3 C 0.4086(3) -0.04483(9) 0.3261(3)
H1 H 0.2980 -0.0314 0.2819
C4 C 0.4325(3) -0.09247(9) 0.4385(3)
H2 H 0.3379 -0.1106 0.4718
C5 C 0.5959(3) -0.11342(10) 0.5019(3)
H3 H 0.6113 -0.1450 0.5792
C6 C 0.7363(3) -0.08763(10) 0.4508(3)
H4 H 0.8461 -0.1026 0.4917
C7 C 0.7142(3) -0.03944(9) 0.3386(2)
C8 C 0.8658(3) -0.01269(10) 0.2828(3)
C9 C 0.8404(3) 0.04483(9) 0.1822(3)
C10 C 0.9808(3) 0.07148(11) 0.1297(3)
H5 H 1.0889 0.0533 0.1588
C11 C 0.9613(3) 0.12386(10) 0.0360(3)
H6 H 1.0551 0.1397 -0.0033
C12 C 0.8033(3) 0.15413(10) -0.0019(3)
C13 C 0.6629(2) 0.13017(9) 0.0566(2)
C14 C 0.6785(2) 0.07313(9) 0.1418(2)
C15 C 0.5045(3) 0.16981(9) 0.0403(3)
C16 C 0.4691(3) 0.20670(12) -0.1149(3)
H7 H 0.4564 0.1773 -0.2057
C17 C 0.6244(3) 0.24758(11) -0.1189(4)
H8 H 0.6043 0.2722 -0.2173
H9 H 0.6384 0.2764 -0.0285
C18 C 0.7857(3) 0.21106(11) -0.1112(3)
H10 H 0.8824 0.2387 -0.0748
H11 H 0.7930 0.1974 -0.2195
loop_
_geom_bond_atom_site_label_1
_geom_bond_atom_site_label_2
_geom_bond_site_symmetry_1
_geom_bond_site_symmetry_2
Cl1 C16 1_555 1_555
O1 C1 1_555 1_555
O2 C8 1_555 1_555
O3 C15 1_555 1_555
C1 C2 1_555 1_555
C2 C3 1_555 1_555
C3 H1 1_555 1_555
C4 C3 1_555 1_555
H2 C4 1_555 1_555
C5 C4 1_555 1_555
H3 C5 1_555 1_555
C6 C5 1_555 1_555
H4 C6 1_555 1_555
C7 C2 1_555 1_555
C8 C7 1_555 1_555
C9 C8 1_555 1_555
C10 C9 1_555 1_555
H5 C10 1_555 1_555
C11 C10 1_555 1_555
H6 C11 1_555 1_555
C12 C11 1_555 1_555
C13 C12 1_555 1_555
C14 C1 1_555 1_555
C15 C13 1_555 1_555
C16 C15 1_555 1_555
H7 C16 1_555 1_555
C17 C16 1_555 1_555
H8 C17 1_555 1_555
H9 C17 1_555 1_555
C18 C12 1_555 1_555
H10 C18 1_555 1_555
H11 C18 1_555 1_555
C6 C7 1_555 1_555
C9 C14 1_555 1_555
C13 C14 1_555 1_555
C17 C18 1_555 1_555

#END
