
#######################################################################
#
#                 Cambridge Crystallographic Data Centre
#                                CCDC 
#
#######################################################################
#
# If this CIF has been generated from an entry in the Cambridge 
# Structural Database, then it will include bibliographic, chemical, 
# crystal, experimental, refinement or atomic coordinate data resulting 
# from the CCDC's data processing and validation procedures.
#
#######################################################################

data_QEQZUI
_chemical_formula_moiety         'C16 H17 N1 O2'
_chemical_name_systematic        2-(1-(Benzylimino)ethyl)-5-methoxyphenol
_chemical_properties_biological  'antimicrobial activity'
_symmetry_cell_setting           orthorhombic
_symmetry_space_group_name_H-M   'P b c a'
_symmetry_Int_Tables_number      61
_space_group_name_Hall           '-P 2ac 2ab'
loop_
_symmetry_equiv_pos_site_id
_symmetry_equiv_pos_as_xyz
1 x,y,z
2 1/2-x,-y,1/2+z
3 -x,1/2+y,1/2-z
4 1/2+x,1/2-y,-z
5 -x,-y,-z
6 1/2+x,y,1/2-z
7 x,1/2-y,1/2+z
8 1/2-x,1/2+y,z
_cell_length_a                   8.9849(10)
_cell_length_b                   13.2699(15)
_cell_length_c                   22.975(2)
_cell_angle_alpha                90
_cell_angle_beta                 90
_cell_angle_gamma                90
_cell_volume                     2739.28
_exptl_crystal_colour            yellow
_exptl_crystal_description       block
_cell_formula_units_Z            8
loop_
_atom_site_label
_atom_site_type_symbol
_atom_site_fract_x
_atom_site_fract_y
_atom_site_fract_z
C1 C 0.4110(3) 0.25048(18) 0.34731(10)
C2 C 0.3583(4) 0.3055(2) 0.30074(16)
H1 H 0.3915 0.3712 0.2952
C3 C 0.2587(5) 0.2653(4) 0.26286(16)
H2 H 0.2247 0.3040 0.2318
C4 C 0.2085(4) 0.1714(4) 0.26926(16)
H3 H 0.1398 0.1447 0.2432
C5 C 0.2596(4) 0.1150(3) 0.31468(17)
H4 H 0.2262 0.0491 0.3193
C6 C 0.3600(3) 0.1545(2) 0.35366(12)
H5 H 0.3934 0.1154 0.3846
C7 C 0.5210(3) 0.2925(3) 0.38966(14)
H6 H 0.5806 0.2382 0.4057
H7 H 0.5873 0.3388 0.3697
C8 C 0.4867(2) 0.34470(16) 0.49071(11)
C9 C 0.6261(3) 0.2910(2) 0.51017(14)
H8 H 0.6892 0.2792 0.4772
H9 H 0.5999 0.2278 0.5277
H10 H 0.6779 0.3320 0.5381
C10 C 0.3962(2) 0.39783(15) 0.53261(10)
C11 C 0.2681(2) 0.45325(15) 0.51498(9)
C12 C 0.1822(2) 0.50224(16) 0.55720(10)
H11 H 0.0980 0.5380 0.5459
C13 C 0.2198(2) 0.49843(17) 0.61482(10)
C14 C 0.3444(3) 0.44390(19) 0.63267(11)
H12 H 0.3689 0.4403 0.6719
C15 C 0.4297(3) 0.39623(18) 0.59257(11)
H13 H 0.5135 0.3612 0.6050
C16 C 0.0292(3) 0.6135(3) 0.64253(13)
H14 H 0.0684 0.6640 0.6168
H15 H -0.0099 0.6453 0.6768
H16 H -0.0488 0.5771 0.6232
N1 N 0.4440(2) 0.34556(16) 0.43709(9)
O1 O 0.22811(18) 0.45869(13) 0.46045(7)
H17 H 0.2875 0.4272 0.4404
O2 O 0.14436(19) 0.54592(14) 0.65846(7)
loop_
_geom_bond_atom_site_label_1
_geom_bond_atom_site_label_2
_geom_bond_site_symmetry_1
_geom_bond_site_symmetry_2
C1 C2 1_555 1_555
C2 H1 1_555 1_555
C3 C2 1_555 1_555
H2 C3 1_555 1_555
C4 C3 1_555 1_555
H3 C4 1_555 1_555
C5 C4 1_555 1_555
H4 C5 1_555 1_555
C6 C1 1_555 1_555
H5 C6 1_555 1_555
C7 C1 1_555 1_555
H6 C7 1_555 1_555
H7 C7 1_555 1_555
C8 C9 1_555 1_555
C9 H8 1_555 1_555
H9 C9 1_555 1_555
H10 C9 1_555 1_555
C10 C8 1_555 1_555
C11 C10 1_555 1_555
C12 C11 1_555 1_555
H11 C12 1_555 1_555
C13 C12 1_555 1_555
C14 C13 1_555 1_555
H12 C14 1_555 1_555
C15 C10 1_555 1_555
H13 C15 1_555 1_555
C16 H14 1_555 1_555
H15 C16 1_555 1_555
H16 C16 1_555 1_555
N1 C7 1_555 1_555
O1 C11 1_555 1_555
H17 O1 1_555 1_555
O2 C13 1_555 1_555
C5 C6 1_555 1_555
C8 N1 1_555 1_555
C14 C15 1_555 1_555
C16 O2 1_555 1_555

#END
