
#######################################################################
#
#                 Cambridge Crystallographic Data Centre
#                                CCDC 
#
#######################################################################
#
# If this CIF has been generated from an entry in the Cambridge 
# Structural Database, then it will include bibliographic, chemical, 
# crystal, experimental, refinement or atomic coordinate data resulting 
# from the CCDC's data processing and validation procedures.
#
#######################################################################

data_QERDID
_chemical_formula_moiety         'C30 H25 Cl1 N2 O5'
_chemical_name_systematic        
2-(4-chlorophenyl)-10c-(3,5-dimethoxyphenyl)-7,9-dimethoxy-2,10c-dihydro-1H-2,10b-diazabenzo[a]cyclopenta[cd]azulen-1-one
_symmetry_cell_setting           monoclinic
_symmetry_space_group_name_H-M   'P 21/c'
_symmetry_Int_Tables_number      14
_space_group_name_Hall           '-P 2ybc'
loop_
_symmetry_equiv_pos_site_id
_symmetry_equiv_pos_as_xyz
1 x,y,z
2 -x,1/2+y,1/2-z
3 -x,-y,-z
4 x,1/2-y,1/2+z
_cell_length_a                   7.7752(4)
_cell_length_b                   16.9598(6)
_cell_length_c                   19.2518(10)
_cell_angle_alpha                90
_cell_angle_beta                 91.874(4)
_cell_angle_gamma                90
_cell_volume                     2537.3
_cell_formula_units_Z            4
loop_
_atom_site_label
_atom_site_type_symbol
_atom_site_fract_x
_atom_site_fract_y
_atom_site_fract_z
Cl1 Cl 1.66653(11) 0.35472(6) 0.26847(4)
O1 O 0.96933(19) 0.18308(9) 0.38476(8)
O2 O 0.9258(2) 0.03338(9) 0.69057(8)
O3 O 0.6871(2) -0.07326(9) 0.48095(10)
O4 O 0.7249(3) 0.49897(10) 0.48099(11)
O5 O 0.6187(2) 0.42441(10) 0.70678(9)
N1 N 1.1396(2) 0.25344(10) 0.46360(9)
N2 N 0.8925(2) 0.20083(9) 0.49976(8)
C1 C 0.9979(3) 0.20925(11) 0.44256(11)
C2 C 1.1424(3) 0.26861(11) 0.53534(10)
C3 C 1.2682(3) 0.30180(12) 0.57411(11)
H1 H 1.3643 0.3206 0.5519
C4 C 1.2633(3) 0.31007(13) 0.64843(12)
H2 H 1.3291 0.3509 0.6676
C5 C 1.1757(3) 0.26625(13) 0.69379(12)
H3 H 1.1862 0.2811 0.7402
C6 C 1.0678(3) 0.19919(13) 0.67861(11)
H4 H 1.0556 0.1624 0.7139
C7 C 0.9832(3) 0.18493(12) 0.61809(11)
C8 C 0.8963(3) 0.11397(12) 0.59224(11)
C9 C 0.8704(3) 0.04006(12) 0.62306(12)
C10 C 0.7972(3) -0.01980(13) 0.58378(13)
H5 H 0.7774 -0.0685 0.6042
C11 C 0.7527(3) -0.00834(12) 0.51386(13)
C12 C 0.7760(3) 0.06419(12) 0.48166(12)
H6 H 0.7448 0.0724 0.4352
C13 C 0.8480(2) 0.12325(11) 0.52258(11)
C14 C 0.9682(3) 0.24508(11) 0.56030(10)
C15 C 1.2685(3) 0.27768(12) 0.41702(11)
C16 C 1.4318(3) 0.24657(15) 0.42270(13)
H7 H 1.4590 0.2093 0.4568
C17 C 1.5552(3) 0.27118(17) 0.37721(15)
H8 H 1.6663 0.2509 0.3808
C18 C 1.5126(3) 0.32565(16) 0.32683(13)
C19 C 1.3512(4) 0.35704(14) 0.32074(12)
H9 H 1.3241 0.3939 0.2863
C20 C 1.2286(3) 0.33297(13) 0.36678(12)
H10 H 1.1184 0.3543 0.3637
C21 C 0.8922(4) -0.03866(15) 0.72629(14)
H11 H 0.9401 -0.0820 0.7013
H12 H 0.7702 -0.0458 0.7293
H13 H 0.9439 -0.0365 0.7722
C22 C 0.6378(3) -0.06742(15) 0.40945(15)
H14 H 0.7357 -0.0525 0.3833
H15 H 0.5492 -0.0283 0.4035
H16 H 0.5953 -0.1175 0.3932
C23 C 0.8584(3) 0.31860(12) 0.57447(11)
C24 C 0.8391(3) 0.37316(12) 0.52006(12)
H17 H 0.8883 0.3634 0.4775
C25 C 0.7465(3) 0.44141(13) 0.53008(13)
C26 C 0.6739(3) 0.45551(13) 0.59279(13)
H18 H 0.6105 0.5013 0.5989
C27 C 0.6935(3) 0.40321(13) 0.64635(12)
C28 C 0.7853(3) 0.33271(13) 0.63746(12)
H19 H 0.7964 0.2963 0.6734
C29 C 0.8034(5) 0.48847(17) 0.41652(15)
H20 H 0.7771 0.5327 0.3869
H21 H 0.7607 0.4410 0.3949
H22 H 0.9258 0.4846 0.4239
C30 C 0.6349(4) 0.3732(2) 0.76371(14)
H23 H 0.5871 0.3227 0.7513
H24 H 0.5743 0.3946 0.8021
H25 H 0.7544 0.3671 0.7768
loop_
_geom_bond_atom_site_label_1
_geom_bond_atom_site_label_2
_geom_bond_site_symmetry_1
_geom_bond_site_symmetry_2
Cl1 C18 1_555 1_555
O1 C1 1_555 1_555
O2 C9 1_555 1_555
O3 C11 1_555 1_555
O4 C25 1_555 1_555
O5 C27 1_555 1_555
N1 C1 1_555 1_555
N2 C1 1_555 1_555
C2 N1 1_555 1_555
C3 C2 1_555 1_555
H1 C3 1_555 1_555
C4 C3 1_555 1_555
H2 C4 1_555 1_555
C5 C4 1_555 1_555
H3 C5 1_555 1_555
C6 C5 1_555 1_555
H4 C6 1_555 1_555
C7 C6 1_555 1_555
C8 C7 1_555 1_555
C9 C8 1_555 1_555
C10 C9 1_555 1_555
H5 C10 1_555 1_555
C11 C10 1_555 1_555
C12 C11 1_555 1_555
H6 C12 1_555 1_555
C13 N2 1_555 1_555
C14 N2 1_555 1_555
C15 N1 1_555 1_555
C16 C15 1_555 1_555
H7 C16 1_555 1_555
C17 C16 1_555 1_555
H8 C17 1_555 1_555
C18 C17 1_555 1_555
C19 C18 1_555 1_555
H9 C19 1_555 1_555
C20 C15 1_555 1_555
H10 C20 1_555 1_555
C21 O2 1_555 1_555
H11 C21 1_555 1_555
H12 C21 1_555 1_555
H13 C21 1_555 1_555
C22 O3 1_555 1_555
H14 C22 1_555 1_555
H15 C22 1_555 1_555
H16 C22 1_555 1_555
C23 C14 1_555 1_555
C24 C23 1_555 1_555
H17 C24 1_555 1_555
C25 C24 1_555 1_555
C26 C25 1_555 1_555
H18 C26 1_555 1_555
C27 C26 1_555 1_555
C28 C23 1_555 1_555
H19 C28 1_555 1_555
C29 O4 1_555 1_555
H20 C29 1_555 1_555
H21 C29 1_555 1_555
H22 C29 1_555 1_555
C30 O5 1_555 1_555
H23 C30 1_555 1_555
H24 C30 1_555 1_555
H25 C30 1_555 1_555
C2 C14 1_555 1_555
C7 C14 1_555 1_555
C8 C13 1_555 1_555
C12 C13 1_555 1_555
C19 C20 1_555 1_555
C27 C28 1_555 1_555

#END
