
#######################################################################
#
#                 Cambridge Crystallographic Data Centre
#                                CCDC 
#
#######################################################################
#
# If this CIF has been generated from an entry in the Cambridge 
# Structural Database, then it will include bibliographic, chemical, 
# crystal, experimental, refinement or atomic coordinate data resulting 
# from the CCDC's data processing and validation procedures.
#
#######################################################################

data_QERFOL
_chemical_formula_moiety         'C19 H17 Br1 N4'
_chemical_name_systematic        
N-[(4-bromophenyl)methyl]-N-methyl-4-[(pyridin-4-yl)diazenyl]aniline
_symmetry_cell_setting           monoclinic
_symmetry_space_group_name_H-M   'P 21/c'
_symmetry_Int_Tables_number      14
_space_group_name_Hall           '-P 2ybc'
loop_
_symmetry_equiv_pos_site_id
_symmetry_equiv_pos_as_xyz
1 x,y,z
2 -x,1/2+y,1/2-z
3 -x,-y,-z
4 x,1/2-y,1/2+z
_cell_length_a                   16.5467(7)
_cell_length_b                   5.6802(2)
_cell_length_c                   19.0432(8)
_cell_angle_alpha                90
_cell_angle_beta                 112.1985(16)
_cell_angle_gamma                90
_cell_volume                     1657.18
_exptl_crystal_colour            orange
_exptl_crystal_description       plate
_cell_formula_units_Z            4
loop_
_atom_site_label
_atom_site_type_symbol
_atom_site_fract_x
_atom_site_fract_y
_atom_site_fract_z
Br1 Br 0.02394(2) 0.42293(3) 0.39788(2)
N1 N 0.35774(8) -0.3762(2) 0.56880(7)
N2 N 0.62603(8) 0.2817(2) 0.69219(7)
N3 N 0.69276(8) 0.2660(2) 0.67556(7)
N4 N 0.89338(9) 0.7514(2) 0.78859(7)
C1 C 0.10200(9) 0.1861(3) 0.45523(8)
C2 C 0.10069(10) 0.1149(3) 0.52457(9)
H1 H 0.0612 0.1846 0.5440
C3 C 0.15781(10) -0.0592(3) 0.56496(8)
H2 H 0.1569 -0.1091 0.6123
C4 C 0.21659(9) -0.1631(3) 0.53780(8)
C5 C 0.21649(10) -0.0883(3) 0.46786(8)
H3 H 0.2561 -0.1572 0.4485
C6 C 0.15951(10) 0.0845(3) 0.42650(8)
H4 H 0.1597 0.1333 0.3788
C7 C 0.27742(10) -0.3561(3) 0.58292(8)
H5 H 0.2926 -0.3258 0.6376
H6 H 0.2461 -0.5083 0.5706
C8 C 0.36035(11) -0.5468(3) 0.51254(9)
H7 H 0.3626 -0.4636 0.4682
H8 H 0.3079 -0.6455 0.4970
H9 H 0.4123 -0.6461 0.5345
C9 C 0.41802(10) -0.0298(3) 0.64602(8)
H10 H 0.3679 -0.0160 0.6587
C10 C 0.48596(10) 0.1275(3) 0.67561(8)
H11 H 0.4824 0.2464 0.7094
C11 C 0.55998(10) 0.1162(3) 0.65703(8)
C12 C 0.56426(10) -0.0597(3) 0.60690(9)
H12 H 0.6136 -0.0688 0.5930
C13 C 0.49718(10) -0.2194(3) 0.57778(8)
H13 H 0.5012 -0.3377 0.5440
C14 C 0.42253(9) -0.2118(3) 0.59682(8)
C15 C 0.75788(10) 0.4378(3) 0.71403(8)
C16 C 0.74050(10) 0.6511(3) 0.74180(8)
H14 H 0.6828 0.6930 0.7361
C17 C 0.81003(11) 0.7997(3) 0.77793(9)
H15 H 0.7981 0.9456 0.7965
C18 C 0.90811(11) 0.5464(3) 0.76135(9)
H16 H 0.9666 0.5080 0.7685
C19 C 0.84319(10) 0.3862(3) 0.72318(9)
H17 H 0.8568 0.2441 0.7037
loop_
_geom_bond_atom_site_label_1
_geom_bond_atom_site_label_2
_geom_bond_site_symmetry_1
_geom_bond_site_symmetry_2
Br1 C1 1_555 1_555
N1 C7 1_555 1_555
N2 N3 1_555 1_555
N3 C15 1_555 1_555
N4 C17 1_555 1_555
C1 C2 1_555 1_555
C2 H1 1_555 1_555
C3 C2 1_555 1_555
H2 C3 1_555 1_555
C4 C3 1_555 1_555
C5 C4 1_555 1_555
H3 C5 1_555 1_555
C6 C1 1_555 1_555
H4 C6 1_555 1_555
C7 C4 1_555 1_555
H5 C7 1_555 1_555
H6 C7 1_555 1_555
C8 N1 1_555 1_555
H7 C8 1_555 1_555
H8 C8 1_555 1_555
H9 C8 1_555 1_555
C9 H10 1_555 1_555
C10 C9 1_555 1_555
H11 C10 1_555 1_555
C11 N2 1_555 1_555
C12 C11 1_555 1_555
H12 C12 1_555 1_555
C13 C12 1_555 1_555
H13 C13 1_555 1_555
C14 N1 1_555 1_555
C15 C16 1_555 1_555
C16 H14 1_555 1_555
C17 C16 1_555 1_555
H15 C17 1_555 1_555
C18 N4 1_555 1_555
H16 C18 1_555 1_555
C19 C15 1_555 1_555
H17 C19 1_555 1_555
C5 C6 1_555 1_555
C9 C14 1_555 1_555
C10 C11 1_555 1_555
C13 C14 1_555 1_555
C18 C19 1_555 1_555

#END
