
#######################################################################
#
#                 Cambridge Crystallographic Data Centre
#                                CCDC 
#
#######################################################################
#
# If this CIF has been generated from an entry in the Cambridge 
# Structural Database, then it will include bibliographic, chemical, 
# crystal, experimental, refinement or atomic coordinate data resulting 
# from the CCDC's data processing and validation procedures.
#
#######################################################################

data_QERFEB
_chemical_formula_moiety         'C32 H25 N1'
_chemical_name_systematic        
13-(4-methylphenyl)-14-phenyl-5,13-dihydro-5,13a-methanobenzo[7,8]cyclo-octa[1,2-b]indole
_symmetry_cell_setting           monoclinic
_symmetry_space_group_name_H-M   'P 21/n'
_symmetry_Int_Tables_number      14
_space_group_name_Hall           '-P 2yn'
loop_
_symmetry_equiv_pos_site_id
_symmetry_equiv_pos_as_xyz
1 x,y,z
2 1/2-x,1/2+y,1/2-z
3 -x,-y,-z
4 1/2+x,1/2-y,1/2+z
_cell_length_a                   13.9734(12)
_cell_length_b                   11.0690(7)
_cell_length_c                   15.6642(13)
_cell_angle_alpha                90
_cell_angle_beta                 109.906(9)
_cell_angle_gamma                90
_cell_volume                     2278.05
_cell_formula_units_Z            4
loop_
_atom_site_label
_atom_site_type_symbol
_atom_site_fract_x
_atom_site_fract_y
_atom_site_fract_z
N1 N 0.7454(2) 0.7843(3) 0.5230(2)
C1 C 0.8577(5) 1.0975(5) 0.5420(4)
H1 H 0.9281 1.1247 0.5556
C2 C 0.7828(5) 1.1913(5) 0.4898(4)
H2 H 0.8091 1.2676 0.4865
C3 C 0.6836(5) 1.1778(5) 0.4481(4)
H3 H 0.6484 1.2484 0.4246
C4 C 0.6226(4) 1.0714(5) 0.4338(3)
H4 H 0.5542 1.0822 0.3996
C5 C 0.6490(3) 0.9593(4) 0.4619(3)
C6 C 0.7544(3) 0.9180(4) 0.5236(3)
C7 C 0.7732(4) 0.9768(5) 0.6230(3)
C8 C 0.7354(4) 0.9444(5) 0.6848(3)
H5 H 0.6946 0.8759 0.6759
C9 C 0.7553(4) 1.0106(6) 0.7632(3)
H6 H 0.7251 0.9892 0.8056
C10 C 0.8207(5) 1.1098(5) 0.7793(4)
H7 H 0.8366 1.1539 0.8329
C11 C 0.8625(5) 1.1414(5) 0.7107(5)
H8 H 0.9066 1.2065 0.7178
C12 C 0.8338(4) 1.0694(6) 0.6318(4)
C13 C 0.8428(4) 0.9737(4) 0.5048(4)
H9 H 0.9032 0.9273 0.5396
C14 C 0.8353(4) 0.9670(5) 0.4031(3)
C15 C 0.7934(4) 0.8638(5) 0.3484(4)
H10 H 0.7631 0.8023 0.3707
C16 C 0.7985(4) 0.8566(5) 0.2616(3)
H11 H 0.7721 0.7894 0.2257
C17 C 0.8411(4) 0.9457(6) 0.2294(4)
H12 H 0.8444 0.9391 0.1712
C18 C 0.8784(4) 1.0428(6) 0.2783(5)
H13 H 0.9070 1.1035 0.2537
C19 C 0.8762(4) 1.0558(5) 0.3624(4)
H14 H 0.9025 1.1258 0.3947
C20 C 0.5845(3) 0.8517(4) 0.4447(3)
C21 C 0.4810(3) 0.8398(6) 0.4003(3)
H15 H 0.4410 0.9074 0.3773
C22 C 0.4373(4) 0.7253(7) 0.3905(3)
H16 H 0.3675 0.7158 0.3617
C23 C 0.4972(4) 0.6276(5) 0.4230(3)
H17 H 0.4672 0.5515 0.4133
C24 C 0.6008(3) 0.6356(4) 0.4701(3)
H18 H 0.6395 0.5676 0.4945
C25 C 0.6442(3) 0.7501(4) 0.4792(3)
C26 C 0.8273(3) 0.7040(4) 0.5597(3)
C27 C 0.9013(3) 0.7225(4) 0.6441(3)
H19 H 0.8997 0.7922 0.6768
C28 C 0.9778(3) 0.6374(4) 0.6799(3)
H20 H 1.0272 0.6526 0.7361
C29 C 0.9832(3) 0.5317(4) 0.6356(3)
C30 C 0.9097(3) 0.5151(4) 0.5503(3)
H21 H 0.9111 0.4452 0.5179
C31 C 0.8339(3) 0.6010(4) 0.5124(3)
H22 H 0.7872 0.5887 0.4544
C32 C 1.0613(4) 0.4365(4) 0.6787(4)
H23 H 1.1241 0.4745 0.7140
H24 H 1.0722 0.3876 0.6323
H25 H 1.0376 0.3866 0.7175
loop_
_geom_bond_atom_site_label_1
_geom_bond_atom_site_label_2
_geom_bond_site_symmetry_1
_geom_bond_site_symmetry_2
N1 C6 1_555 1_555
C1 H1 1_555 1_555
C2 C1 1_555 1_555
H2 C2 1_555 1_555
C3 C2 1_555 1_555
H3 C3 1_555 1_555
C4 C3 1_555 1_555
H4 C4 1_555 1_555
C5 C4 1_555 1_555
C6 C5 1_555 1_555
C7 C6 1_555 1_555
C8 C7 1_555 1_555
H5 C8 1_555 1_555
C9 C8 1_555 1_555
H6 C9 1_555 1_555
C10 C9 1_555 1_555
H7 C10 1_555 1_555
C11 C10 1_555 1_555
H8 C11 1_555 1_555
C12 C1 1_555 1_555
C13 C1 1_555 1_555
H9 C13 1_555 1_555
C14 C13 1_555 1_555
C15 C14 1_555 1_555
H10 C15 1_555 1_555
C16 C15 1_555 1_555
H11 C16 1_555 1_555
C17 C16 1_555 1_555
H12 C17 1_555 1_555
C18 C17 1_555 1_555
H13 C18 1_555 1_555
C19 C14 1_555 1_555
H14 C19 1_555 1_555
C20 C5 1_555 1_555
C21 C20 1_555 1_555
H15 C21 1_555 1_555
C22 C21 1_555 1_555
H16 C22 1_555 1_555
C23 C22 1_555 1_555
H17 C23 1_555 1_555
C24 C23 1_555 1_555
H18 C24 1_555 1_555
C25 N1 1_555 1_555
C26 N1 1_555 1_555
C27 C26 1_555 1_555
H19 C27 1_555 1_555
C28 C27 1_555 1_555
H20 C28 1_555 1_555
C29 C28 1_555 1_555
C30 C29 1_555 1_555
H21 C30 1_555 1_555
C31 C26 1_555 1_555
H22 C31 1_555 1_555
C32 C29 1_555 1_555
H23 C32 1_555 1_555
H24 C32 1_555 1_555
H25 C32 1_555 1_555
C6 C13 1_555 1_555
C7 C12 1_555 1_555
C11 C12 1_555 1_555
C18 C19 1_555 1_555
C20 C25 1_555 1_555
C24 C25 1_555 1_555
C30 C31 1_555 1_555

#END
