
#######################################################################
#
#                 Cambridge Crystallographic Data Centre
#                                CCDC 
#
#######################################################################
#
# If this CIF has been generated from an entry in the Cambridge 
# Structural Database, then it will include bibliographic, chemical, 
# crystal, experimental, refinement or atomic coordinate data resulting 
# from the CCDC's data processing and validation procedures.
#
#######################################################################

data_QERJIH
_chemical_formula_moiety         
'H12 Mg1 O6 2+,C5 H3 N2 O4 1-,C5 H3 N2 O4 1-,2(H2 O1)'
_chemical_name_systematic        
'Hexaaqua-magnesium(ii) bis(5-carboxy-1H-imidazole-4-carboxylate) dihydrate'
_symmetry_cell_setting           monoclinic
_symmetry_space_group_name_H-M   'P 21'
_symmetry_Int_Tables_number      4
_space_group_name_Hall           'P 2yb'
loop_
_symmetry_equiv_pos_site_id
_symmetry_equiv_pos_as_xyz
1 x,y,z
2 -x,1/2+y,-z
_cell_length_a                   7.0532(14)
_cell_length_b                   14.637(3)
_cell_length_c                   9.7455(19)
_cell_angle_alpha                90
_cell_angle_beta                 107.47(3)
_cell_angle_gamma                90
_cell_volume                     959.696
_exptl_crystal_colour            colorless
_exptl_crystal_description       Prism
_cell_formula_units_Z            2
loop_
_atom_site_label
_atom_site_type_symbol
_atom_site_fract_x
_atom_site_fract_y
_atom_site_fract_z
Mg1 Mg 0.62751(7) 0.27058(4) 0.02643(6)
O1 O 0.74430(17) 0.27436(9) -0.14125(14)
H1 H 0.829(3) 0.3167(10) -0.133(3)
H2 H 0.768(3) 0.2301(10) -0.189(2)
O2 O 0.33247(16) 0.25581(8) -0.10976(13)
H3 H 0.271(3) 0.3060(8) -0.111(3)
H4 H 0.272(3) 0.2137(9) -0.081(2)
O3 O 0.6178(2) 0.40872(9) 0.00429(15)
H5 H 0.611(4) 0.4362(14) -0.0730(14)
H6 H 0.626(3) 0.4466(13) 0.0716(16)
O4 O 0.5245(2) 0.28426(8) 0.20041(15)
H7 H 0.469(3) 0.2460(11) 0.241(2)
H8 H 0.544(3) 0.3341(9) 0.246(2)
O5 O 0.91789(16) 0.26258(9) 0.17419(14)
H9 H 0.978(3) 0.3112(10) 0.209(2)
H10 H 0.989(3) 0.2306(11) 0.137(2)
O6 O 0.63638(19) 0.13149(9) 0.03609(15)
H11 H 0.572(3) 0.0981(13) -0.0331(17)
H12 H 0.719(3) 0.0987(13) 0.0985(18)
O7 O 0.9296(2) -0.10964(9) 0.08077(16)
H13 H 0.910(3) -0.0833(15) 0.0000(13)
H14 H 0.938(3) -0.0696(13) 0.1453(17)
O8 O 0.87695(19) 0.65116(9) 0.97016(16)
H15 H 0.957(3) 0.6150(12) 1.029(2)
H16 H 0.788(2) 0.6196(13) 0.913(2)
O9 O 0.5798(2) 0.43973(9) 0.60504(16)
H17 H 0.583(4) 0.441(2) 0.5168(14)
O10 O 0.6099(2) 0.53552(10) 0.78204(15)
O11 O 0.5900(2) 0.44149(9) 0.35430(16)
O12 O 0.6247(2) 0.54339(9) 0.19409(15)
N1 N 0.6349(2) 0.68659(10) 0.60970(17)
N2 N 0.6446(2) 0.68475(10) 0.38531(16)
H19 H 0.6525 0.7045 0.3041
C1 C 0.6486(2) 0.73604(13) 0.5006(2)
H21 H 0.6597 0.7994 0.5028
C2 C 0.6206(2) 0.59752(11) 0.56157(19)
C3 C 0.6258(2) 0.59576(11) 0.42054(19)
C4 C 0.6029(3) 0.52187(12) 0.6573(2)
C5 C 0.6115(3) 0.52191(12) 0.3141(2)
O13 O 0.8910(2) 0.01181(10) 0.84554(16)
O14 O 0.9207(2) -0.08061(9) 0.67328(15)
O15 O 0.9051(2) 0.03060(10) 0.25867(15)
O16 O 0.9324(2) -0.07536(9) 0.42596(16)
H18 H 0.926(4) -0.075(2) 0.5131(14)
N3 N 0.8608(2) 0.16499(10) 0.66682(17)
N4 N 0.8720(2) 0.16819(10) 0.44308(16)
H20 H 0.8710 0.1895 0.3606
C6 C 0.8556(3) 0.21710(12) 0.5558(2)
H22 H 0.8422 0.2803 0.5553
C7 C 0.8832(2) 0.07754(11) 0.6232(2)
C8 C 0.8906(2) 0.07868(12) 0.48357(19)
C9 C 0.8986(3) -0.00084(13) 0.7236(2)
C10 C 0.9094(2) 0.00755(12) 0.3808(2)
loop_
_geom_bond_atom_site_label_1
_geom_bond_atom_site_label_2
_geom_bond_site_symmetry_1
_geom_bond_site_symmetry_2
Mg1 O1 1_555 1_555
O1 H1 1_555 1_555
H2 O1 1_555 1_555
O2 Mg1 1_555 1_555
H3 O2 1_555 1_555
H4 O2 1_555 1_555
O3 Mg1 1_555 1_555
H5 O3 1_555 1_555
H6 O3 1_555 1_555
O4 Mg1 1_555 1_555
H7 O4 1_555 1_555
H8 O4 1_555 1_555
O5 Mg1 1_555 1_555
H9 O5 1_555 1_555
H10 O5 1_555 1_555
O6 Mg1 1_555 1_555
H11 O6 1_555 1_555
H12 O6 1_555 1_555
O7 H13 1_555 1_555
H14 O7 1_555 1_555
O8 H15 1_555 1_555
H16 O8 1_555 1_555
O9 H17 1_555 1_555
O10 C4 1_555 1_555
O11 C5 1_555 1_555
O12 C5 1_555 1_555
O13 C9 1_555 1_555
O14 C9 1_555 1_555
O15 C10 1_555 1_555
O16 H18 1_555 1_555
N1 C1 1_555 1_555
N2 H19 1_555 1_555
N3 C6 1_555 1_555
N4 H20 1_555 1_555
C1 N2 1_555 1_555
H21 C1 1_555 1_555
C2 N1 1_555 1_555
C3 N2 1_555 1_555
C4 O9 1_555 1_555
C5 C3 1_555 1_555
C6 N4 1_555 1_555
H22 C6 1_555 1_555
C7 N3 1_555 1_555
C8 N4 1_555 1_555
C9 C7 1_555 1_555
C10 O16 1_555 1_555
C2 C3 1_555 1_555
C2 C4 1_555 1_555
C7 C8 1_555 1_555
C8 C10 1_555 1_555

#END
