
#######################################################################
#
#                 Cambridge Crystallographic Data Centre
#                                CCDC 
#
#######################################################################
#
# If this CIF has been generated from an entry in the Cambridge 
# Structural Database, then it will include bibliographic, chemical, 
# crystal, experimental, refinement or atomic coordinate data resulting 
# from the CCDC's data processing and validation procedures.
#
#######################################################################

data_QERJEC
_chemical_formula_moiety         'C23 H30 O9'
_chemical_name_systematic        'Rosnecatrol tetra-acetate'
_symmetry_cell_setting           triclinic
_symmetry_space_group_name_H-M   'P 1'
_symmetry_Int_Tables_number      1
_space_group_name_Hall           'P 1'
loop_
_symmetry_equiv_pos_site_id
_symmetry_equiv_pos_as_xyz
1 x,y,z
_cell_length_a                   8.3738(17)
_cell_length_b                   8.5966(17)
_cell_length_c                   10.291(2)
_cell_angle_alpha                67.40(3)
_cell_angle_beta                 75.08(3)
_cell_angle_gamma                67.33(3)
_cell_volume                     625.862
_exptl_crystal_colour            colorless
_exptl_crystal_description       block
_chemical_melting_point          103deg.C
_cell_formula_units_Z            1
loop_
_atom_site_label
_atom_site_type_symbol
_atom_site_fract_x
_atom_site_fract_y
_atom_site_fract_z
O1 O 0.5155(3) 0.5136(3) 0.4216(2)
O2 O 0.4428(3) 0.1311(3) 0.3979(3)
O3 O 0.3790(5) 0.1740(5) 0.1861(4)
O4 O 0.5674(3) 0.2123(3) 0.7898(3)
O5 O 0.7988(5) 0.2558(5) 0.8157(5)
O6 O 0.2988(3) 0.7069(3) 0.7936(3)
O7 O 0.1932(6) 0.7286(5) 1.0070(4)
O8 O 0.1551(3) 0.5237(3) 0.4086(2)
O9 O 0.0040(4) 0.3350(5) 0.4604(4)
C1 C 0.4486(4) 0.3683(4) 0.4567(3)
C2 C 0.5763(4) 0.3556(4) 0.5385(4)
C3 C 0.5195(4) 0.3850(4) 0.6806(4)
C4 C 0.3254(4) 0.4703(4) 0.7146(3)
C5 C 0.2083(4) 0.4818(4) 0.6406(3)
C6 C 0.2618(4) 0.4028(4) 0.5219(3)
C7 C 0.5012(4) 0.2873(4) 0.3374(4)
C8 C 0.3829(5) 0.0907(5) 0.3093(5)
C9 C 0.3203(8) -0.0657(6) 0.3857(7)
H1 H 0.2077 -0.0294 0.4385
H2 H 0.4012 -0.1551 0.4496
H3 H 0.3117 -0.1134 0.3183
C10 C 0.6915(5) 0.2322(5) 0.2843(4)
C11 C 0.7686(5) 0.3190(6) 0.1651(4)
C12 C 0.6754(7) 0.4948(7) 0.0663(5)
H4 H 0.6056 0.4774 0.0155
H5 H 0.7593 0.5471 0.0001
H6 H 0.6015 0.5725 0.1199
C13 C 0.9607(6) 0.2465(9) 0.1212(6)
H7 H 1.0068 0.1291 0.1852
H8 H 1.0182 0.3226 0.1235
H9 H 0.9799 0.2413 0.0266
C14 C 0.7081(5) 0.1661(5) 0.8535(4)
C15 C 0.7329(7) -0.0047(7) 0.9698(5)
H10 H 0.7959 -0.0076 1.0370
H11 H 0.7978 -0.1008 0.9320
H12 H 0.6211 -0.0169 1.0162
C16 C 0.2738(5) 0.5335(5) 0.8406(4)
C17 C 0.2494(5) 0.7917(5) 0.8881(5)
C18 C 0.2686(7) 0.9723(6) 0.8263(6)
H13 H 0.1614 1.0582 0.7929
H14 H 0.3611 0.9738 0.7485
H15 H 0.2956 1.0013 0.8977
C19 C 0.0170(4) 0.5617(4) 0.6716(4)
C20 C -0.0687(5) 0.7281(5) 0.6555(5)
C21 C -0.2661(5) 0.8044(6) 0.6754(6)
H16 H -0.3151 0.7092 0.7130
H17 H -0.3059 0.8812 0.5855
H18 H -0.3024 0.8711 0.7402
C22 C 0.0241(4) 0.4764(6) 0.3939(4)
C23 C -0.0891(6) 0.6279(8) 0.2916(6)
H19 H -0.1856 0.5968 0.2870
H20 H -0.0226 0.6539 0.1994
H21 H -0.1322 0.7306 0.3225
H22 H 0.7539 0.0986 0.3554
H23 H 0.4240 0.3842 0.2574
H24 H -0.0576 0.4939 0.6832
H25 H 0.3416 0.4540 0.9211
H26 H 0.1520 0.5691 0.8855
H27 H 0.7172 0.2854 0.5224
H28 H 0.2236 0.2913 0.5527
H29 H 0.0022 0.8244 0.6259
H30 H 0.5856 0.4566 0.6862
loop_
_geom_bond_atom_site_label_1
_geom_bond_atom_site_label_2
_geom_bond_site_symmetry_1
_geom_bond_site_symmetry_2
O1 C1 1_555 1_555
O2 C7 1_555 1_555
O3 C8 1_555 1_555
O4 C3 1_555 1_555
O5 C14 1_555 1_555
O6 C16 1_555 1_555
O7 C17 1_555 1_555
O8 C6 1_555 1_555
O9 C22 1_555 1_555
C1 C2 1_555 1_555
C2 O1 1_555 1_555
C3 C2 1_555 1_555
C4 C3 1_555 1_555
C5 C4 1_555 1_555
C6 C1 1_555 1_555
C7 C1 1_555 1_555
C8 O2 1_555 1_555
C9 C8 1_555 1_555
H1 C9 1_555 1_555
H2 C9 1_555 1_555
H3 C9 1_555 1_555
C10 C7 1_555 1_555
C11 C10 1_555 1_555
C12 C11 1_555 1_555
H4 C12 1_555 1_555
H5 C12 1_555 1_555
H6 C12 1_555 1_555
C13 C11 1_555 1_555
H7 C13 1_555 1_555
H8 C13 1_555 1_555
H9 C13 1_555 1_555
C14 O4 1_555 1_555
C15 C14 1_555 1_555
H10 C15 1_555 1_555
H11 C15 1_555 1_555
H12 C15 1_555 1_555
C16 C4 1_555 1_555
C17 O6 1_555 1_555
C18 C17 1_555 1_555
H13 C18 1_555 1_555
H14 C18 1_555 1_555
H15 C18 1_555 1_555
C19 C5 1_555 1_555
C20 C19 1_555 1_555
C21 C20 1_555 1_555
H16 C21 1_555 1_555
H17 C21 1_555 1_555
H18 C21 1_555 1_555
C22 O8 1_555 1_555
C23 C22 1_555 1_555
H19 C23 1_555 1_555
H20 C23 1_555 1_555
H21 C23 1_555 1_555
H22 C10 1_555 1_555
H23 C7 1_555 1_555
H24 C19 1_555 1_555
H25 C16 1_555 1_555
H26 C16 1_555 1_555
H27 C2 1_555 1_555
H28 C6 1_555 1_555
H29 C20 1_555 1_555
H30 C3 1_555 1_555
C5 C6 1_555 1_555

#END
