
#######################################################################
#
#                 Cambridge Crystallographic Data Centre
#                                CCDC 
#
#######################################################################
#
# If this CIF has been generated from an entry in the Cambridge 
# Structural Database, then it will include bibliographic, chemical, 
# crystal, experimental, refinement or atomic coordinate data resulting 
# from the CCDC's data processing and validation procedures.
#
#######################################################################

data_QERJOM
_chemical_formula_moiety         'C19 H15 F3 O2 S1'
_chemical_name_systematic        
'(Z)-4-(p-Tolyl)-2-(trifluoromethyl)-1-methylbut-1-en-3-ynyl phenyl sulfone'
_symmetry_cell_setting           orthorhombic
_symmetry_space_group_name_H-M   'P n a 21'
_symmetry_Int_Tables_number      33
_space_group_name_Hall           'P 2c -2n'
loop_
_symmetry_equiv_pos_site_id
_symmetry_equiv_pos_as_xyz
1 x,y,z
2 -x,-y,1/2+z
3 1/2-x,1/2+y,1/2+z
4 1/2+x,1/2-y,z
_cell_length_a                   24.847(4)
_cell_length_b                   5.433(1)
_cell_length_c                   13.118(3)
_cell_angle_alpha                90
_cell_angle_beta                 90
_cell_angle_gamma                90
_cell_volume                     1770.85
_exptl_crystal_colour            colorless
_exptl_crystal_description       prismatic
_chemical_melting_point          93-94deg.C
_cell_formula_units_Z            4
loop_
_atom_site_label
_atom_site_type_symbol
_atom_site_fract_x
_atom_site_fract_y
_atom_site_fract_z
S1 S 0.6353(1) 0.0662(5) 0.7499
F1 F 0.5878(3) 0.120(1) 0.9890(5)
F2 F 0.5654(3) 0.484(1) 1.0292(6)
F3 F 0.6436(3) 0.408(1) 0.9698(7)
O1 O 0.6118(3) -0.121(1) 0.6848(8)
O2 O 0.6572(3) -0.004(2) 0.8389(7)
C1 C 0.5863(3) 0.295(1) 0.7664(7)
C2 C 0.5714(3) 0.403(2) 0.8541(8)
C3 C 0.5300(3) 0.584(2) 0.8529(8)
C4 C 0.4971(4) 0.741(2) 0.8486(8)
C5 C 0.4566(3) 0.932(2) 0.8386(7)
C6 C 0.4384(4) 1.069(2) 0.9212(7)
C7 C 0.3993(4) 1.244(2) 0.907(1)
C8 C 0.3783(3) 1.292(2) 0.811(1)
C9 C 0.3960(4) 1.158(2) 0.7317(9)
C10 C 0.4350(4) 0.976(2) 0.7418(9)
C11 C 0.5601(4) 0.352(2) 0.6682(9)
C12 C 0.5930(5) 0.357(2) 0.9622(9)
C13 C 0.3354(5) 1.486(2) 0.799(2)
C14 C 0.6848(4) 0.218(1) 0.6798(9)
C15 C 0.7121(5) 0.420(2) 0.714(1)
C16 C 0.7517(6) 0.520(3) 0.649(2)
C17 C 0.7644(8) 0.433(5) 0.565(2)
C18 C 0.7387(5) 0.237(4) 0.528(1)
C19 C 0.6980(4) 0.131(2) 0.587(1)
H1 H 0.4535 1.0339 0.9862
H2 H 0.3862 1.3332 0.9645
H3 H 0.3817 1.1835 0.6638
H4 H 0.4475 0.8805 0.6843
H5 H 0.5351 0.2274 0.6516
H6 H 0.5875 0.3563 0.6157
H7 H 0.5430 0.5068 0.6707
H8 H 0.3052 1.4464 0.8396
H9 H 0.3498 1.6409 0.8212
H10 H 0.3249 1.5004 0.7297
H11 H 0.7063 0.4854 0.7770
H12 H 0.7708 0.6594 0.6671
H13 H 0.7914 0.4941 0.5178
H14 H 0.7456 0.1696 0.4627
H15 H 0.6795 -0.0043 0.5599
loop_
_geom_bond_atom_site_label_1
_geom_bond_atom_site_label_2
_geom_bond_site_symmetry_1
_geom_bond_site_symmetry_2
S1 O1 1_555 1_555
F1 C12 1_555 1_555
F2 C12 1_555 1_555
F3 C12 1_555 1_555
O2 S1 1_555 1_555
C1 S1 1_555 1_555
C2 C1 1_555 1_555
C3 C2 1_555 1_555
C4 C3 1_555 1_555
C5 C4 1_555 1_555
C6 C5 1_555 1_555
C7 C6 1_555 1_555
C8 C7 1_555 1_555
C9 C8 1_555 1_555
C10 C5 1_555 1_555
C11 C1 1_555 1_555
C12 C2 1_555 1_555
C13 C8 1_555 1_555
C14 S1 1_555 1_555
C15 C14 1_555 1_555
C16 C15 1_555 1_555
C17 C16 1_555 1_555
C18 C17 1_555 1_555
C19 C14 1_555 1_555
H1 C6 1_555 1_555
H2 C7 1_555 1_555
H3 C9 1_555 1_555
H4 C10 1_555 1_555
H5 C11 1_555 1_555
H6 C11 1_555 1_555
H7 C11 1_555 1_555
H8 C13 1_555 1_555
H9 C13 1_555 1_555
H10 C13 1_555 1_555
H11 C15 1_555 1_555
H12 C16 1_555 1_555
H13 C17 1_555 1_555
H14 C18 1_555 1_555
H15 C19 1_555 1_555
C9 C10 1_555 1_555
C18 C19 1_555 1_555

#END
