
#######################################################################
#
#                 Cambridge Crystallographic Data Centre
#                                CCDC 
#
#######################################################################
#
# If this CIF has been generated from an entry in the Cambridge 
# Structural Database, then it will include bibliographic, chemical, 
# crystal, experimental, refinement or atomic coordinate data resulting 
# from the CCDC's data processing and validation procedures.
#
#######################################################################

data_QERMAE
_chemical_formula_moiety         'C30 H23 O4 P1'
_chemical_name_systematic        
1,2-bis(1-benzofuran-2-yl)-2-(diphenylphosphoryl)ethan-1-ol
_symmetry_cell_setting           monoclinic
_symmetry_space_group_name_H-M   'C 2/c'
_symmetry_Int_Tables_number      15
_space_group_name_Hall           '-C 2yn'
loop_
_symmetry_equiv_pos_site_id
_symmetry_equiv_pos_as_xyz
1 x,y,z
2 -x,y,1/2-z
3 1/2+x,1/2+y,z
4 1/2-x,1/2+y,1/2-z
5 -x,-y,-z
6 x,-y,1/2+z
7 1/2-x,1/2-y,-z
8 1/2+x,1/2-y,1/2+z
_cell_length_a                   43.187(19)
_cell_length_b                   5.914(3)
_cell_length_c                   18.935(8)
_cell_angle_alpha                90
_cell_angle_beta                 99.206(5)
_cell_angle_gamma                90
_cell_volume                     4773.86
_exptl_crystal_colour            white
_exptl_crystal_description       Block
_cell_formula_units_Z            8
loop_
_atom_site_label
_atom_site_type_symbol
_atom_site_fract_x
_atom_site_fract_y
_atom_site_fract_z
C1 C 0.07128(7) 0.6551(6) 0.46912(14)
H1 H 0.0769 0.5172 0.4912
C2 C 0.05061(7) 0.7970(7) 0.49479(16)
H2 H 0.0422 0.7536 0.5349
C3 C 0.04191(7) 1.0026(7) 0.46290(17)
H3 H 0.0277 1.0936 0.4817
C4 C 0.05402(6) 1.0748(5) 0.40378(16)
H4 H 0.0485 1.2131 0.3821
C5 C 0.07479(5) 0.9309(4) 0.37861(13)
C6 C 0.08378(5) 0.7239(4) 0.40866(12)
C7 C 0.10607(6) 0.6348(4) 0.36704(13)
H5 H 0.1163 0.4964 0.3737
C8 C 0.10923(5) 0.7893(4) 0.31682(12)
C9 C 0.12920(5) 0.8029(4) 0.25983(11)
H6 H 0.1233 0.9403 0.2320
C10 C 0.16400(5) 0.8281(4) 0.29499(13)
H7 H 0.1684 0.7071 0.3305
C11 C 0.18744(5) 0.8069(4) 0.24526(12)
C12 C 0.20861(5) 0.6470(4) 0.23703(13)
H8 H 0.2116 0.5107 0.2617
C13 C 0.22570(5) 0.7260(4) 0.18300(12)
C14 C 0.25056(6) 0.6457(5) 0.15068(14)
H9 H 0.2598 0.5065 0.1635
C15 C 0.26094(6) 0.7771(6) 0.09976(15)
H10 H 0.2773 0.7251 0.0776
C16 C 0.24765(7) 0.9852(6) 0.08053(15)
H11 H 0.2553 1.0698 0.0456
C17 C 0.22342(6) 1.0703(5) 0.11174(14)
H12 H 0.2146 1.2108 0.0992
C18 C 0.21309(5) 0.9365(4) 0.16228(13)
C19 C 0.07878(5) 0.5553(4) 0.17953(12)
C20 C 0.06343(6) 0.3699(5) 0.20047(15)
H13 H 0.0750 0.2488 0.2221
C21 C 0.03091(7) 0.3605(6) 0.18978(19)
H14 H 0.0208 0.2332 0.2039
C22 C 0.01370(6) 0.5380(6) 0.15859(17)
H15 H -0.0081 0.5328 0.1521
C23 C 0.02846(6) 0.7220(6) 0.13708(18)
H16 H 0.0167 0.8418 0.1152
C24 C 0.06080(6) 0.7331(5) 0.14727(16)
H17 H 0.0706 0.8606 0.1324
C25 C 0.13548(5) 0.6316(4) 0.11765(12)
C26 C 0.15269(6) 0.4695(4) 0.08795(13)
H18 H 0.1569 0.3310 0.1107
C27 C 0.16368(6) 0.5131(5) 0.02437(14)
H19 H 0.1753 0.4039 0.0049
C28 C 0.15752(6) 0.7158(5) -0.00981(14)
H20 H 0.1648 0.7430 -0.0526
C29 C 0.14060(6) 0.8793(5) 0.01864(15)
H21 H 0.1364 1.0168 -0.0048
C30 C 0.12984(6) 0.8375(4) 0.08254(13)
H22 H 0.1187 0.9491 0.1022
O1 O 0.09019(4) 0.9745(3) 0.32192(9)
O2 O 0.16711(4) 1.0369(3) 0.33303(9)
H23 H 0.1758 1.1299 0.3106
O3 O 0.18930(3) 0.9890(3) 0.20008(9)
O4 O 0.13398(4) 0.3445(3) 0.23090(8)
P1 P 0.12117(2) 0.56097(10) 0.19907(3)
loop_
_geom_bond_atom_site_label_1
_geom_bond_atom_site_label_2
_geom_bond_site_symmetry_1
_geom_bond_site_symmetry_2
C1 H1 1_555 1_555
C2 C1 1_555 1_555
H2 C2 1_555 1_555
C3 C2 1_555 1_555
H3 C3 1_555 1_555
C4 C3 1_555 1_555
H4 C4 1_555 1_555
C5 C4 1_555 1_555
C6 C1 1_555 1_555
C7 C6 1_555 1_555
H5 C7 1_555 1_555
C8 C7 1_555 1_555
C9 C8 1_555 1_555
H6 C9 1_555 1_555
C10 C9 1_555 1_555
H7 C10 1_555 1_555
C11 C10 1_555 1_555
C12 C11 1_555 1_555
H8 C12 1_555 1_555
C13 C12 1_555 1_555
C14 C13 1_555 1_555
H9 C14 1_555 1_555
C15 C14 1_555 1_555
H10 C15 1_555 1_555
C16 C15 1_555 1_555
H11 C16 1_555 1_555
C17 C16 1_555 1_555
H12 C17 1_555 1_555
C18 C13 1_555 1_555
C19 C20 1_555 1_555
C20 H13 1_555 1_555
C21 C20 1_555 1_555
H14 C21 1_555 1_555
C22 C21 1_555 1_555
H15 C22 1_555 1_555
C23 C22 1_555 1_555
H16 C23 1_555 1_555
C24 C19 1_555 1_555
H17 C24 1_555 1_555
C25 C26 1_555 1_555
C26 H18 1_555 1_555
C27 C26 1_555 1_555
H19 C27 1_555 1_555
C28 C27 1_555 1_555
H20 C28 1_555 1_555
C29 C28 1_555 1_555
H21 C29 1_555 1_555
C30 C25 1_555 1_555
H22 C30 1_555 1_555
O1 C5 1_555 1_555
O2 C10 1_555 1_555
H23 O2 1_555 1_555
O3 C11 1_555 1_555
O4 P1 1_555 1_555
P1 C9 1_555 1_555
C5 C6 1_555 1_555
C8 O1 1_555 1_555
C17 C18 1_555 1_555
C18 O3 1_555 1_555
C19 P1 1_555 1_555
C23 C24 1_555 1_555
C25 P1 1_555 1_555
C29 C30 1_555 1_555

#END
