
#######################################################################
#
#                 Cambridge Crystallographic Data Centre
#                                CCDC 
#
#######################################################################
#
# If this CIF has been generated from an entry in the Cambridge 
# Structural Database, then it will include bibliographic, chemical, 
# crystal, experimental, refinement or atomic coordinate data resulting 
# from the CCDC's data processing and validation procedures.
#
#######################################################################

data_QERQAG
_chemical_formula_moiety         'C12 H12 N1 O2 P1'
_chemical_name_systematic        N-(Diphenylphosphinoyl)hydroxylamine
_symmetry_cell_setting           monoclinic
_symmetry_space_group_name_H-M   'P 21'
_symmetry_Int_Tables_number      4
_space_group_name_Hall           'P 2yb'
loop_
_symmetry_equiv_pos_site_id
_symmetry_equiv_pos_as_xyz
1 x,y,z
2 -x,1/2+y,-z
_cell_length_a                   8.5195(9)
_cell_length_b                   5.7511(6)
_cell_length_c                   11.9580(10)
_cell_angle_alpha                90
_cell_angle_beta                 105.320(10)
_cell_angle_gamma                90
_cell_volume                     565.08
_exptl_crystal_colour            colorless
_exptl_crystal_description       block
_chemical_melting_point          '400.9-404.7 K(dec.)'
_cell_formula_units_Z            2
_exptl_crystal_recrystallization_method methanol
loop_
_atom_site_label
_atom_site_type_symbol
_atom_site_fract_x
_atom_site_fract_y
_atom_site_fract_z
P1 P 0.49405(5) 0.54483(9) 0.31719(4)
O1 O 0.34049(18) 0.1992(3) 0.37448(14)
H1 H 0.352(3) 0.072(7) 0.357(2)
O2 O 0.41802(17) 0.7499(3) 0.35948(12)
N1 N 0.5009(2) 0.2928(3) 0.38621(15)
H2 H 0.549(3) 0.293(5) 0.461(2)
C1 C 0.7066(2) 0.5917(3) 0.32967(16)
C2 C 0.7774(2) 0.8000(4) 0.37769(17)
H3 H 0.708(3) 0.916(5) 0.407(2)
C3 C 0.9428(3) 0.8397(4) 0.38948(18)
H4 H 0.994(3) 0.982(6) 0.421(2)
C4 C 1.0360(3) 0.6723(4) 0.35245(19)
H5 H 1.148(3) 0.688(6) 0.357(2)
C5 C 0.9659(3) 0.4657(4) 0.3037(2)
H6 H 1.024(4) 0.349(6) 0.279(3)
C6 C 0.8007(2) 0.4248(4) 0.29228(18)
H7 H 0.753(3) 0.281(6) 0.261(2)
C7 C 0.3864(2) 0.4761(4) 0.17032(17)
C8 C 0.4124(3) 0.2693(4) 0.11705(19)
H8 H 0.490(4) 0.166(6) 0.161(3)
C9 C 0.3292(3) 0.2269(5) 0.0022(2)
H9 H 0.354(4) 0.086(6) -0.032(3)
C10 C 0.2185(3) 0.3873(5) -0.0585(2)
H10 H 0.155(4) 0.361(7) -0.133(3)
C11 C 0.1895(3) 0.5920(5) -0.0057(2)
H11 H 0.114(4) 0.687(6) -0.048(3)
C12 C 0.2744(3) 0.6370(4) 0.10921(19)
H12 H 0.263(3) 0.778(6) 0.148(2)
loop_
_geom_bond_atom_site_label_1
_geom_bond_atom_site_label_2
_geom_bond_site_symmetry_1
_geom_bond_site_symmetry_2
P1 O2 1_555 1_555
O1 H1 1_555 1_555
N1 P1 1_555 1_555
H2 N1 1_555 1_555
C1 P1 1_555 1_555
C2 C1 1_555 1_555
H3 C2 1_555 1_555
C3 C2 1_555 1_555
H4 C3 1_555 1_555
C4 C3 1_555 1_555
H5 C4 1_555 1_555
C5 C4 1_555 1_555
H6 C5 1_555 1_555
C6 C1 1_555 1_555
H7 C6 1_555 1_555
C7 P1 1_555 1_555
C8 C7 1_555 1_555
H8 C8 1_555 1_555
C9 C8 1_555 1_555
H9 C9 1_555 1_555
C10 C9 1_555 1_555
H10 C10 1_555 1_555
C11 C10 1_555 1_555
H11 C11 1_555 1_555
C12 C7 1_555 1_555
H12 C12 1_555 1_555
O1 N1 1_555 1_555
C5 C6 1_555 1_555
C11 C12 1_555 1_555

#END
