
#######################################################################
#
#                 Cambridge Crystallographic Data Centre
#                                CCDC 
#
#######################################################################
#
# If this CIF has been generated from an entry in the Cambridge 
# Structural Database, then it will include bibliographic, chemical, 
# crystal, experimental, refinement or atomic coordinate data resulting 
# from the CCDC's data processing and validation procedures.
#
#######################################################################

data_QERTIR
_chemical_formula_moiety         'C13 H9 Cl1 N2'
_chemical_name_systematic        2-(4-Chlorophenyl)-1H-benzimidazole
_symmetry_cell_setting           orthorhombic
_symmetry_space_group_name_H-M   'P b c a'
_symmetry_Int_Tables_number      61
_space_group_name_Hall           '-P 2ac 2ab'
loop_
_symmetry_equiv_pos_site_id
_symmetry_equiv_pos_as_xyz
1 x,y,z
2 1/2-x,-y,1/2+z
3 1/2+x,1/2-y,-z
4 -x,1/2+y,1/2-z
5 -x,-y,-z
6 1/2+x,y,1/2-z
7 1/2-x,1/2+y,z
8 x,1/2-y,1/2+z
_cell_length_a                   9.1284(18)
_cell_length_b                   9.783(2)
_cell_length_c                   24.156(5)
_cell_angle_alpha                90
_cell_angle_beta                 90
_cell_angle_gamma                90
_cell_volume                     2157.21
_exptl_crystal_colour            yellow
_exptl_crystal_description       block
_cell_formula_units_Z            8
_exptl_crystal_recrystallization_method ethanol
loop_
_atom_site_label
_atom_site_type_symbol
_atom_site_fract_x
_atom_site_fract_y
_atom_site_fract_z
Cl1 Cl 1.34701(9) -0.07473(10) 0.02323(5)
N1 N 0.6692(2) -0.0889(2) 0.13941(10)
N2 N 0.7172(2) 0.1341(2) 0.14534(9)
H1 H 0.7634 0.2102 0.1415
C1 C 0.5544(3) -0.0235(2) 0.16643(11)
C2 C 0.4265(3) -0.0753(3) 0.18964(13)
H2 H 0.4043 -0.1679 0.1873
C3 C 0.3334(3) 0.0140(3) 0.21623(13)
H3 H 0.2476 -0.0189 0.2321
C4 C 0.3661(3) 0.1526(3) 0.21969(13)
H4 H 0.3019 0.2103 0.2383
C5 C 0.4896(3) 0.2062(3) 0.19650(11)
H5 H 0.5098 0.2992 0.1983
C6 C 0.5837(3) 0.1165(3) 0.17025(11)
C7 C 0.7632(3) 0.0092(2) 0.12779(10)
C8 C 0.9056(3) -0.0106(3) 0.10083(11)
C9 C 1.0205(3) 0.0773(3) 0.11153(13)
H6 H 1.0058 0.1511 0.1352
C10 C 1.1559(3) 0.0581(3) 0.08804(14)
H7 H 1.2323 0.1183 0.0954
C11 C 1.1763(3) -0.0510(3) 0.05364(13)
C12 C 1.0652(3) -0.1409(3) 0.04201(12)
H8 H 1.0811 -0.2148 0.0186
C13 C 0.9296(3) -0.1199(3) 0.06552(11)
H9 H 0.8533 -0.1798 0.0576
loop_
_geom_bond_atom_site_label_1
_geom_bond_atom_site_label_2
_geom_bond_site_symmetry_1
_geom_bond_site_symmetry_2
Cl1 C11 1_555 1_555
N1 C1 1_555 1_555
N2 H1 1_555 1_555
C1 C2 1_555 1_555
C2 H2 1_555 1_555
C3 C2 1_555 1_555
H3 C3 1_555 1_555
C4 C3 1_555 1_555
H4 C4 1_555 1_555
C5 C4 1_555 1_555
H5 C5 1_555 1_555
C6 N2 1_555 1_555
C7 N1 1_555 1_555
C8 C7 1_555 1_555
C9 C8 1_555 1_555
H6 C9 1_555 1_555
C10 C9 1_555 1_555
H7 C10 1_555 1_555
C11 C10 1_555 1_555
C12 C11 1_555 1_555
H8 C12 1_555 1_555
C13 C8 1_555 1_555
H9 C13 1_555 1_555
N2 C7 1_555 1_555
C1 C6 1_555 1_555
C5 C6 1_555 1_555
C12 C13 1_555 1_555

#END
