
#######################################################################
#
#                 Cambridge Crystallographic Data Centre
#                                CCDC 
#
#######################################################################
#
# If this CIF has been generated from an entry in the Cambridge 
# Structural Database, then it will include bibliographic, chemical, 
# crystal, experimental, refinement or atomic coordinate data resulting 
# from the CCDC's data processing and validation procedures.
#
#######################################################################

data_QERVOB
_chemical_formula_moiety         'C20 H19 N1 O2'
_chemical_name_systematic        
3,8-diphenyl-4,5,6,7,8,8a-hexahydro-2H-furo[2,3-b]azepin-2-one
_symmetry_cell_setting           orthorhombic
_symmetry_space_group_name_H-M   'P b c a'
_symmetry_Int_Tables_number      61
_space_group_name_Hall           '-P 2ac 2ab'
loop_
_symmetry_equiv_pos_site_id
_symmetry_equiv_pos_as_xyz
1 x,y,z
2 1/2-x,-y,1/2+z
3 -x,1/2+y,1/2-z
4 1/2+x,1/2-y,-z
5 -x,-y,-z
6 1/2+x,y,1/2-z
7 x,1/2-y,1/2+z
8 1/2-x,1/2+y,z
_cell_length_a                   17.7473(5)
_cell_length_b                   9.9799(3)
_cell_length_c                   17.8779(4)
_cell_angle_alpha                90
_cell_angle_beta                 90
_cell_angle_gamma                90
_cell_volume                     3166.47
_exptl_crystal_colour            colorless
_exptl_crystal_description       block
_cell_formula_units_Z            8
loop_
_atom_site_label
_atom_site_type_symbol
_atom_site_fract_x
_atom_site_fract_y
_atom_site_fract_z
O1 O 0.10133(7) 0.10633(15) 0.44338(7)
O2 O 0.07716(9) 0.20813(19) 0.55215(8)
N1 N 0.08899(9) 0.11052(16) 0.31017(9)
C1 C 0.17972(10) -0.0715(2) 0.30102(11)
H1 H 0.1746 -0.0881 0.3519
C2 C 0.22818(12) -0.1499(2) 0.25853(13)
H2 H 0.2544 -0.2197 0.2811
C3 C 0.23791(13) -0.1254(3) 0.18291(14)
H3 H 0.2709 -0.1772 0.1547
C4 C 0.19800(13) -0.0234(3) 0.15036(12)
H4 H 0.2042 -0.0063 0.0996
C5 C 0.14862(12) 0.0547(2) 0.19146(11)
H5 H 0.1218 0.1229 0.1680
C6 C 0.13885(9) 0.03166(18) 0.26804(10)
C7 C 0.05948(12) 0.2371(2) 0.28156(12)
H6 H 0.0977 0.2789 0.2506
H7 H 0.0497 0.2963 0.3235
C8 C -0.01261(13) 0.2231(3) 0.23577(13)
H8 H -0.0427 0.3034 0.2422
H9 H 0.0006 0.2166 0.1833
C9 C -0.05901(14) 0.1046(3) 0.25646(12)
H10 H -0.0307 0.0244 0.2443
H11 H -0.1040 0.1047 0.2256
C10 C -0.08286(11) 0.0964(2) 0.33759(11)
H12 H -0.1206 0.1648 0.3467
H13 H -0.1066 0.0101 0.3459
C11 C -0.02078(10) 0.11323(19) 0.39383(10)
C12 C 0.05774(10) 0.06231(19) 0.37782(9)
H14 H 0.0568 -0.0358 0.3765
C13 C 0.05464(11) 0.1685(2) 0.49259(10)
C14 C -0.02220(10) 0.17409(19) 0.46029(10)
C15 C -0.08577(11) 0.2423(2) 0.49733(10)
C16 C -0.15862(11) 0.1917(2) 0.49269(12)
H15 H -0.1670 0.1105 0.4686
C17 C -0.21893(13) 0.2609(3) 0.52344(13)
H16 H -0.2674 0.2263 0.5196
C18 C -0.20703(16) 0.3795(3) 0.55932(14)
H17 H -0.2476 0.4260 0.5797
C19 C -0.13595(17) 0.4304(3) 0.56555(14)
H18 H -0.1283 0.5111 0.5905
C20 C -0.07439(14) 0.3623(2) 0.53469(12)
H19 H -0.0261 0.3974 0.5392
loop_
_geom_bond_atom_site_label_1
_geom_bond_atom_site_label_2
_geom_bond_site_symmetry_1
_geom_bond_site_symmetry_2
O1 C12 1_555 1_555
O2 C13 1_555 1_555
N1 C6 1_555 1_555
C1 H1 1_555 1_555
C2 C1 1_555 1_555
H2 C2 1_555 1_555
C3 C2 1_555 1_555
H3 C3 1_555 1_555
C4 C3 1_555 1_555
H4 C4 1_555 1_555
C5 C4 1_555 1_555
H5 C5 1_555 1_555
C6 C1 1_555 1_555
C7 N1 1_555 1_555
H6 C7 1_555 1_555
H7 C7 1_555 1_555
C8 C7 1_555 1_555
H8 C8 1_555 1_555
H9 C8 1_555 1_555
C9 C8 1_555 1_555
H10 C9 1_555 1_555
H11 C9 1_555 1_555
C10 C9 1_555 1_555
H12 C10 1_555 1_555
H13 C10 1_555 1_555
C11 C10 1_555 1_555
C12 N1 1_555 1_555
H14 C12 1_555 1_555
C13 O1 1_555 1_555
C14 C11 1_555 1_555
C15 C14 1_555 1_555
C16 C15 1_555 1_555
H15 C16 1_555 1_555
C17 C16 1_555 1_555
H16 C17 1_555 1_555
C18 C17 1_555 1_555
H17 C18 1_555 1_555
C19 C18 1_555 1_555
H18 C19 1_555 1_555
C20 C15 1_555 1_555
H19 C20 1_555 1_555
C5 C6 1_555 1_555
C11 C12 1_555 1_555
C13 C14 1_555 1_555
C19 C20 1_555 1_555

#END
