
#######################################################################
#
#                 Cambridge Crystallographic Data Centre
#                                CCDC 
#
#######################################################################
#
# If this CIF has been generated from an entry in the Cambridge 
# Structural Database, then it will include bibliographic, chemical, 
# crystal, experimental, refinement or atomic coordinate data resulting 
# from the CCDC's data processing and validation procedures.
#
#######################################################################

data_QERYIV
_chemical_formula_moiety         'C32 H40 O4'
_chemical_name_systematic        
'(exo,cis,exo) 3,24-Dioxaundecacyclo(24.5.1.1^1,28^.1^26,30^.0^4,8^.0^7,11^.0^9,13^.0^12,15^.0^14,18^.0^16,20^.0^19,23^)tetratriacontane-2,25-dione'
_symmetry_cell_setting           monoclinic
_symmetry_space_group_name_H-M   'P 21/c'
_symmetry_Int_Tables_number      14
_space_group_name_Hall           '-P 2ybc'
loop_
_symmetry_equiv_pos_site_id
_symmetry_equiv_pos_as_xyz
1 x,y,z
2 x,1/2-y,1/2+z
3 -x,-y,-z
4 -x,1/2+y,1/2-z
_cell_length_a                   6.4064(4)
_cell_length_b                   18.6371(13)
_cell_length_c                   20.6833(11)
_cell_angle_alpha                90
_cell_angle_beta                 95.306(5)
_cell_angle_gamma                90
_cell_volume                     2458.94
_exptl_crystal_colour            colorless
_exptl_crystal_description       'thick prism'
_chemical_melting_point          573K
_cell_formula_units_Z            4
loop_
_atom_site_label
_atom_site_type_symbol
_atom_site_fract_x
_atom_site_fract_y
_atom_site_fract_z
C1 C 0.4065(3) 0.16757(14) 0.69013(10)
O1 O 0.5549(3) 0.27314(12) 0.74538(9)
C2 C 0.4084(4) 0.24401(15) 0.71593(10)
O2 O 0.2256(2) 0.27808(10) 0.69894(7)
C3 C 0.2192(4) 0.35588(15) 0.70492(11)
H1 H 0.2652 0.3694 0.7498
C4 C -0.0064(4) 0.38134(16) 0.68818(12)
H2 H -0.0791 0.3502 0.6559
H3 H -0.0826 0.3818 0.7266
C5 C 0.0132(4) 0.45698(16) 0.66144(13)
H4 H 0.0114 0.4919 0.6962
H5 H -0.1030 0.4671 0.6293
C6 C 0.2224(4) 0.46119(15) 0.63032(12)
H6 H 0.2947 0.5054 0.6451
C7 C 0.3543(4) 0.39558(14) 0.65859(11)
H7 H 0.4834 0.4127 0.6828
C8 C 0.4074(3) 0.35748(13) 0.59664(10)
H8 H 0.5219 0.3226 0.6027
C9 C 0.4535(4) 0.42314(15) 0.55613(13)
H9 H 0.4919 0.4106 0.5133
H10 H 0.5590 0.4543 0.5780
C10 C 0.2320(4) 0.45450(15) 0.55457(13)
H11 H 0.2080 0.4990 0.5298
C11 C 0.0809(19) 0.3932(6) 0.5356(4)
H12 H -0.0491 0.4001 0.5563
C12 C 0.1996(17) 0.3273(8) 0.5660(6)
H13 H 0.1206 0.3012 0.5969
C13 C 0.1972(17) 0.2899(5) 0.4999(6)
H14 H 0.1335 0.2423 0.5028
C14 C 0.0323(8) 0.3421(3) 0.4692(2)
H15 H -0.1072 0.3205 0.4692
C15 C 0.0919(6) 0.3469(2) 0.40024(19)
H16 H 0.0167 0.3837 0.3735
C16 C 0.325(2) 0.3577(14) 0.4110(10)
H17 H 0.3636 0.4001 0.4365
H18 H 0.3924 0.3582 0.3709
C17 C 0.364(4) 0.2871(12) 0.4499(10)
H19 H 0.5082 0.2810 0.4694
C18 C 0.2951(14) 0.2316(8) 0.3982(8)
H20 H 0.3938 0.2340 0.3647
C19 C 0.0839(8) 0.2695(3) 0.3696(2)
H21 H 0.0841 0.2737 0.3224
C20 C -0.0865(9) 0.2160(3) 0.3850(3)
H22 H -0.1351 0.2255 0.4272
H23 H -0.2050 0.2175 0.3523
C21 C 0.0252(13) 0.1449(4) 0.3843(5)
H24 H 0.0185 0.1269 0.3402
H25 H -0.0443 0.1105 0.4103
C22 C 0.2566(9) 0.1524(7) 0.4116(2)
H26 H 0.3474 0.1217 0.3878
O3 O 0.2691(3) 0.13247(9) 0.48075(7)
C35 C 0.4494(4) 0.11039(15) 0.51221(12)
O4 O 0.6071(3) 0.10313(15) 0.48671(10)
C36 C 0.4277(3) 0.09839(14) 0.58442(11)
C37 C 0.2238(3) 0.05958(15) 0.59558(11)
H42 H 0.2229 0.0123 0.5759
H43 H 0.1052 0.0863 0.5755
C38 C 0.2060(4) 0.05271(15) 0.66862(12)
H44 H 0.0757 0.0275 0.6756
C39 C 0.2015(3) 0.12733(15) 0.69902(11)
H45 H 0.1839 0.1230 0.7449
H46 H 0.0835 0.1542 0.6787
C40 C 0.5922(4) 0.12396(17) 0.72125(12)
H47 H 0.7224 0.1487 0.7153
H48 H 0.5809 0.1190 0.7675
C41 C 0.5932(4) 0.04982(17) 0.68978(13)
H49 H 0.7121 0.0222 0.7100
C42 C 0.6141(4) 0.05639(16) 0.61643(12)
H50 H 0.7436 0.0809 0.6094
H51 H 0.6181 0.0090 0.5972
C43 C 0.4278(3) 0.17274(14) 0.61637(10)
H52 H 0.3124 0.2008 0.5960
H53 H 0.5572 0.1974 0.6094
C44 C 0.3900(4) 0.01047(16) 0.70018(14)
H54 H 0.3919 -0.0371 0.6812
H55 H 0.3767 0.0054 0.7463
C23? C 0.101(4) 0.3942(11) 0.5212(7)
H27? H -0.0435 0.3970 0.5332
C24? C 0.213(3) 0.3293(14) 0.5548(12)
H28? H 0.1180 0.3139 0.5867
C25? C 0.187(3) 0.2713(10) 0.5016(11)
H29? H 0.1702 0.2217 0.5162
C26? C 0.0115(14) 0.3012(5) 0.4534(4)
H30? H -0.1271 0.2996 0.4698
C27? C 0.0993(13) 0.3789(5) 0.4484(4)
H31? H 0.0120 0.4114 0.4202
C28? C 0.309(5) 0.358(3) 0.423(2)
H32? H 0.4172 0.3926 0.4353
H33? H 0.2944 0.3527 0.3760
C29? C 0.360(7) 0.285(2) 0.4561(18)
H34? H 0.5050 0.2758 0.4731
C30? C 0.0286(17) 0.2533(5) 0.3939(4)
H35? H -0.0126 0.2788 0.3534
C31? C -0.083(2) 0.1807(6) 0.3967(7)
H36? H -0.2075 0.1808 0.3661
H37? H -0.1276 0.1736 0.4398
C32? C 0.061(3) 0.1183(7) 0.3804(10)
H38? H 0.0289 0.0737 0.4014
H39? H 0.0649 0.1111 0.3340
C33? C 0.263(2) 0.2359(14) 0.4012(15)
H40? H 0.3251 0.2466 0.3607
C34? C 0.2594(15) 0.1549(12) 0.4122(3)
H41? H 0.3804 0.1341 0.3934
loop_
_geom_bond_atom_site_label_1
_geom_bond_atom_site_label_2
_geom_bond_site_symmetry_1
_geom_bond_site_symmetry_2
C1 C2 1_555 1_555
O1 C2 1_555 1_555
C2 O2 1_555 1_555
O2 C3 1_555 1_555
C3 H1 1_555 1_555
C4 C3 1_555 1_555
H2 C4 1_555 1_555
H3 C4 1_555 1_555
C5 C4 1_555 1_555
H4 C5 1_555 1_555
H5 C5 1_555 1_555
C6 C5 1_555 1_555
H6 C6 1_555 1_555
C7 C3 1_555 1_555
H7 C7 1_555 1_555
C8 C7 1_555 1_555
H8 C8 1_555 1_555
C9 C8 1_555 1_555
H9 C9 1_555 1_555
H10 C9 1_555 1_555
C10 C6 1_555 1_555
H11 C10 1_555 1_555
C11 C10 1_555 1_555
H12 C11 1_555 1_555
C12 C8 1_555 1_555
H13 C12 1_555 1_555
C13 C12 1_555 1_555
H14 C13 1_555 1_555
C14 C11 1_555 1_555
H15 C14 1_555 1_555
C15 C14 1_555 1_555
H16 C15 1_555 1_555
C16 C15 1_555 1_555
H17 C16 1_555 1_555
H18 C16 1_555 1_555
C17 C13 1_555 1_555
H19 C17 1_555 1_555
C18 C17 1_555 1_555
H20 C18 1_555 1_555
C19 C15 1_555 1_555
H21 C19 1_555 1_555
C20 C19 1_555 1_555
H22 C20 1_555 1_555
H23 C20 1_555 1_555
C21 C20 1_555 1_555
H24 C21 1_555 1_555
H25 C21 1_555 1_555
C22 C18 1_555 1_555
H26 C22 1_555 1_555
O3 C22 1_555 1_555
C35 O3 1_555 1_555
O4 C35 1_555 1_555
C36 C35 1_555 1_555
C37 C36 1_555 1_555
H42 C37 1_555 1_555
H43 C37 1_555 1_555
C38 C37 1_555 1_555
H44 C38 1_555 1_555
C39 C1 1_555 1_555
H45 C39 1_555 1_555
H46 C39 1_555 1_555
C40 C1 1_555 1_555
H47 C40 1_555 1_555
H48 C40 1_555 1_555
C41 C40 1_555 1_555
H49 C41 1_555 1_555
C42 C36 1_555 1_555
H50 C42 1_555 1_555
H51 C42 1_555 1_555
C43 C1 1_555 1_555
H52 C43 1_555 1_555
H53 C43 1_555 1_555
C44 C38 1_555 1_555
H54 C44 1_555 1_555
H55 C44 1_555 1_555
C6 C7 1_555 1_555
C9 C10 1_555 1_555
C11 C12 1_555 1_555
C13 C14 1_555 1_555
C16 C17 1_555 1_555
C18 C19 1_555 1_555
C21 C22 1_555 1_555
C36 C43 1_555 1_555
C38 C39 1_555 1_555
C41 C42 1_555 1_555
C41 C44 1_555 1_555

#END
