
#######################################################################
#
#                 Cambridge Crystallographic Data Centre
#                                CCDC 
#
#######################################################################
#
# If this CIF has been generated from an entry in the Cambridge 
# Structural Database, then it will include bibliographic, chemical, 
# crystal, experimental, refinement or atomic coordinate data resulting 
# from the CCDC's data processing and validation procedures.
#
#######################################################################

data_QERYAQ
_chemical_formula_moiety         'C16 H14 O4 S2'
_chemical_name_systematic        
1,1'-(ethyne-1,2-diyl)bis[4-(methylsulfonyl)benzene]
_symmetry_cell_setting           monoclinic
_symmetry_space_group_name_H-M   'P 21/c'
_symmetry_Int_Tables_number      14
_space_group_name_Hall           '-P 2ybc'
loop_
_symmetry_equiv_pos_site_id
_symmetry_equiv_pos_as_xyz
1 x,y,z
2 -x,1/2+y,1/2-z
3 -x,-y,-z
4 x,1/2-y,1/2+z
_cell_length_a                   14.447(6)
_cell_length_b                   5.653(4)
_cell_length_c                   9.880(5)
_cell_angle_alpha                90
_cell_angle_beta                 90.987(16)
_cell_angle_gamma                90
_cell_volume                     806.769
_exptl_crystal_colour            yellow
_exptl_crystal_description       block
_cell_formula_units_Z            2
loop_
_atom_site_label
_atom_site_type_symbol
_atom_site_fract_x
_atom_site_fract_y
_atom_site_fract_z
S1 S 0.85917(3) 0.04806(10) 0.41380(5)
C1 C 0.76160(14) 0.0320(4) 0.3034(2)
C2 C 0.75518(15) -0.1450(4) 0.2089(2)
H1 H 0.8020 -0.2573 0.2030
C3 C 0.67932(16) -0.1562(5) 0.1228(2)
H2 H 0.6748 -0.2769 0.0591
C4 C 0.61009(14) 0.0106(4) 0.1305(2)
C5 C 0.61774(16) 0.1899(5) 0.2264(2)
H3 H 0.5716 0.3042 0.2319
C6 C 0.69313(15) 0.1992(5) 0.3130(2)
H4 H 0.6977 0.3181 0.3778
C7 C 0.53220(15) 0.0024(5) 0.0388(2)
C8 C 0.93103(16) 0.2573(4) 0.3412(2)
H5 H 0.9860 0.2754 0.3962
H6 H 0.8992 0.4061 0.3351
H7 H 0.9476 0.2062 0.2522
O1 O 0.82939(12) 0.1331(4) 0.54167(16)
O2 O 0.90481(12) -0.1756(3) 0.41049(18)
S1B S 0.14083(3) -0.04806(10) -0.41380(5)
C1B C 0.23840(14) -0.0320(4) -0.3034(2)
C2B C 0.24482(15) 0.1450(4) -0.2089(2)
H1B H 0.1980 0.2573 -0.2030
C3B C 0.32068(16) 0.1562(5) -0.1228(2)
H2B H 0.3252 0.2769 -0.0591
C4B C 0.38991(14) -0.0106(4) -0.1305(2)
C5B C 0.38226(16) -0.1899(5) -0.2264(2)
H3B H 0.4284 -0.3042 -0.2319
C6B C 0.30687(15) -0.1992(5) -0.3130(2)
H4B H 0.3023 -0.3181 -0.3778
C7B C 0.46780(15) -0.0024(5) -0.0388(2)
C8B C 0.06897(16) -0.2573(4) -0.3412(2)
H5B H 0.0140 -0.2754 -0.3962
H6B H 0.1008 -0.4061 -0.3351
H7B H 0.0524 -0.2062 -0.2522
O1B O 0.17061(12) -0.1331(4) -0.54167(16)
O2B O 0.09519(12) 0.1756(3) -0.41049(18)
loop_
_geom_bond_atom_site_label_1
_geom_bond_atom_site_label_2
_geom_bond_site_symmetry_1
_geom_bond_site_symmetry_2
S1 C1 1_555 1_555
C1 C2 1_555 1_555
C2 H1 1_555 1_555
C3 C2 1_555 1_555
H2 C3 1_555 1_555
C4 C3 1_555 1_555
C5 C4 1_555 1_555
H3 C5 1_555 1_555
C6 C1 1_555 1_555
H4 C6 1_555 1_555
C7 C4 1_555 1_555
C8 S1 1_555 1_555
H5 C8 1_555 1_555
H6 C8 1_555 1_555
H7 C8 1_555 1_555
O1 S1 1_555 1_555
O2 S1 1_555 1_555
S1B C1B 1_555 1_555
C1B C2B 1_555 1_555
C2B H1B 1_555 1_555
C3B C2B 1_555 1_555
H2B C3B 1_555 1_555
C4B C3B 1_555 1_555
C5B C4B 1_555 1_555
H3B C5B 1_555 1_555
C6B C1B 1_555 1_555
H4B C6B 1_555 1_555
C7B C7 1_555 1_555
C8B S1B 1_555 1_555
H5B C8B 1_555 1_555
H6B C8B 1_555 1_555
H7B C8B 1_555 1_555
O1B S1B 1_555 1_555
O2B S1B 1_555 1_555
C5 C6 1_555 1_555
C4B C7B 1_555 1_555
C5B C6B 1_555 1_555

#END
