
#######################################################################
#
#                 Cambridge Crystallographic Data Centre
#                                CCDC 
#
#######################################################################
#
# If this CIF has been generated from an entry in the Cambridge 
# Structural Database, then it will include bibliographic, chemical, 
# crystal, experimental, refinement or atomic coordinate data resulting 
# from the CCDC's data processing and validation procedures.
#
#######################################################################

data_QERYER
_chemical_formula_moiety         'C34 H44 O4'
_chemical_name_systematic        
'(exo,trans,exo) 4,25-dioxaundecacyclo(26.5.1.1^1,30^.1^28,32^.0^5,9^. 0^8,12^.0^10,14^.0^13,16^.0^15,19^.0^17,21^.0^20,24^)hexatriacontane-3,26-dione'
_symmetry_cell_setting           monoclinic
_symmetry_space_group_name_H-M   'C 2/c'
_symmetry_Int_Tables_number      15
_space_group_name_Hall           '-C 2yn'
loop_
_symmetry_equiv_pos_site_id
_symmetry_equiv_pos_as_xyz
1 x,y,z
2 1/2+x,1/2+y,z
3 x,-y,1/2+z
4 1/2+x,1/2-y,1/2+z
5 -x,-y,-z
6 1/2-x,1/2-y,-z
7 -x,y,1/2-z
8 1/2-x,1/2+y,1/2-z
_cell_length_a                   35.402(2)
_cell_length_b                   7.764(1)
_cell_length_c                   19.743(1)
_cell_angle_alpha                90
_cell_angle_beta                 100.14(1)
_cell_angle_gamma                90
_cell_volume                     5341.82
_exptl_crystal_colour            colorless
_exptl_crystal_description       lath
_chemical_melting_point          573K(dec.)
_cell_formula_units_Z            8
loop_
_atom_site_label
_atom_site_type_symbol
_atom_site_fract_x
_atom_site_fract_y
_atom_site_fract_z
C1 C 0.19642(9) 0.0703(4) 0.40721(16)
C2 C 0.17655(10) 0.1894(5) 0.45288(16)
H1 H 0.1904 0.2977 0.4579
H2 H 0.1509 0.2137 0.4282
O1 O 0.19895(7) 0.0846(4) 0.56789(12)
C3 C 0.17297(10) 0.1278(5) 0.52352(17)
O2 O 0.13614(6) 0.1302(3) 0.53275(11)
C4 C 0.12812(10) 0.0725(5) 0.59966(17)
H3 H 0.1439 0.1392 0.6362
C5 C 0.08581(11) 0.1061(5) 0.6016(2)
H4 H 0.0819 0.2230 0.6163
H5 H 0.0701 0.0871 0.5568
C6 C 0.07643(11) -0.0243(6) 0.6541(2)
H6 H 0.0495 -0.0551 0.6439
H7 H 0.0820 0.0239 0.7001
C7 C 0.10144(11) -0.1833(5) 0.64910(18)
H8 H 0.1119 -0.2237 0.6956
C8 C 0.13544(10) -0.1197(5) 0.61363(16)
H9 H 0.1599 -0.1356 0.6450
C9 C 0.13292(9) -0.2445(5) 0.55243(16)
H10 H 0.1565 -0.2521 0.5328
C10 C 0.12188(10) -0.4125(5) 0.58516(18)
H11 H 0.1170 -0.5066 0.5525
H12 H 0.1405 -0.4470 0.6249
C11 C 0.08505(10) -0.3390(5) 0.60457(17)
H13 H 0.0707 -0.4208 0.6280
C12 C 0.06345(10) -0.2757(5) 0.53547(16)
H14 H 0.0432 -0.1918 0.5388
C13 C 0.09661(9) -0.2051(4) 0.49961(15)
H15 H 0.0938 -0.0844 0.4852
C14 C 0.08614(9) -0.3369(4) 0.44100(15)
H16 H 0.1064 -0.4198 0.4361
C15 C 0.05296(9) -0.4088(5) 0.47605(17)
H17 H 0.0558 -0.5297 0.4903
C16 C 0.01737(10) -0.3693(6) 0.42232(18)
H18 H -0.0066 -0.3697 0.4406
C17 C 0.02732(10) -0.1947(5) 0.39424(19)
H19 H 0.0315 -0.1057 0.4292
H20 H 0.0086 -0.1568 0.3551
C18 C 0.06501(10) -0.2595(5) 0.37362(16)
H21 H 0.0795 -0.1706 0.3539
C19 C 0.04882(10) -0.4025(5) 0.32287(17)
H22 H 0.0374 -0.3508 0.2787
C20 C 0.01624(11) -0.4820(6) 0.35765(19)
H23 H -0.0084 -0.4639 0.3271
C21 C 0.02385(13) -0.6739(6) 0.3642(2)
H24 H 0.0193 -0.7154 0.4084
H25 H 0.0071 -0.7359 0.3282
C22 C 0.06508(13) -0.6994(5) 0.3578(2)
H26 H 0.0687 -0.8113 0.3381
H27 H 0.0816 -0.6914 0.4025
C23 C 0.07413(11) -0.5546(5) 0.31023(19)
H28 H 0.0676 -0.5916 0.2621
O3 O 0.11535(7) -0.5227(3) 0.32807(12)
C24 C 0.13160(12) -0.3972(5) 0.29560(19)
O4 O 0.11407(9) -0.3142(4) 0.24905(14)
C25 C 0.17364(11) -0.3866(4) 0.3262(2)
H29 H 0.1875 -0.4490 0.2958
H30 H 0.1774 -0.4490 0.3694
C26 C 0.19312(10) -0.2105(4) 0.34036(17)
C27 C 0.19443(11) -0.1086(5) 0.27499(17)
H31 H 0.1685 -0.0807 0.2526
H32 H 0.2062 -0.1780 0.2435
C28 C 0.21735(11) 0.0571(5) 0.29166(19)
H33 H 0.2179 0.1210 0.2490
C29 C 0.25828(11) 0.0151(6) 0.3261(2)
H34 H 0.2707 -0.0546 0.2956
H35 H 0.2729 0.1207 0.3361
C30 C 0.25710(10) -0.0826(5) 0.3926(2)
H36 H 0.2833 -0.1105 0.4150
C31 C 0.23791(9) 0.0282(5) 0.44101(18)
H37 H 0.2523 0.1342 0.4515
H38 H 0.2379 -0.0331 0.4838
C32 C 0.17393(9) -0.0981(4) 0.38907(16)
H39 H 0.1479 -0.0711 0.3672
H40 H 0.1727 -0.1617 0.4309
C33 C 0.19807(11) 0.1669(5) 0.33994(17)
H41 H 0.1722 0.1960 0.3175
H42 H 0.2123 0.2733 0.3502
C34 C 0.23436(10) -0.2486(5) 0.3762(2)
H43 H 0.2338 -0.3116 0.4185
H44 H 0.2469 -0.3203 0.3466
loop_
_geom_bond_atom_site_label_1
_geom_bond_atom_site_label_2
_geom_bond_site_symmetry_1
_geom_bond_site_symmetry_2
C1 C2 1_555 1_555
C2 H1 1_555 1_555
H2 C2 1_555 1_555
O1 C3 1_555 1_555
C3 C2 1_555 1_555
O2 C3 1_555 1_555
C4 O2 1_555 1_555
H3 C4 1_555 1_555
C5 C4 1_555 1_555
H4 C5 1_555 1_555
H5 C5 1_555 1_555
C6 C5 1_555 1_555
H6 C6 1_555 1_555
H7 C6 1_555 1_555
C7 C6 1_555 1_555
H8 C7 1_555 1_555
C8 C4 1_555 1_555
H9 C8 1_555 1_555
C9 C8 1_555 1_555
H10 C9 1_555 1_555
C10 C9 1_555 1_555
H11 C10 1_555 1_555
H12 C10 1_555 1_555
C11 C7 1_555 1_555
H13 C11 1_555 1_555
C12 C11 1_555 1_555
H14 C12 1_555 1_555
C13 C9 1_555 1_555
H15 C13 1_555 1_555
C14 C13 1_555 1_555
H16 C14 1_555 1_555
C15 C12 1_555 1_555
H17 C15 1_555 1_555
C16 C15 1_555 1_555
H18 C16 1_555 1_555
C17 C16 1_555 1_555
H19 C17 1_555 1_555
H20 C17 1_555 1_555
C18 C14 1_555 1_555
H21 C18 1_555 1_555
C19 C18 1_555 1_555
H22 C19 1_555 1_555
C20 C16 1_555 1_555
H23 C20 1_555 1_555
C21 C20 1_555 1_555
H24 C21 1_555 1_555
H25 C21 1_555 1_555
C22 C21 1_555 1_555
H26 C22 1_555 1_555
H27 C22 1_555 1_555
C23 C19 1_555 1_555
H28 C23 1_555 1_555
O3 C23 1_555 1_555
C24 O3 1_555 1_555
O4 C24 1_555 1_555
C25 C24 1_555 1_555
H29 C25 1_555 1_555
H30 C25 1_555 1_555
C26 C25 1_555 1_555
C27 C26 1_555 1_555
H31 C27 1_555 1_555
H32 C27 1_555 1_555
C28 C27 1_555 1_555
H33 C28 1_555 1_555
C29 C28 1_555 1_555
H34 C29 1_555 1_555
H35 C29 1_555 1_555
C30 C29 1_555 1_555
H36 C30 1_555 1_555
C31 C1 1_555 1_555
H37 C31 1_555 1_555
H38 C31 1_555 1_555
C32 C1 1_555 1_555
H39 C32 1_555 1_555
H40 C32 1_555 1_555
C33 C1 1_555 1_555
H41 C33 1_555 1_555
H42 C33 1_555 1_555
C34 C26 1_555 1_555
H43 C34 1_555 1_555
H44 C34 1_555 1_555
C7 C8 1_555 1_555
C10 C11 1_555 1_555
C12 C13 1_555 1_555
C14 C15 1_555 1_555
C17 C18 1_555 1_555
C19 C20 1_555 1_555
C22 C23 1_555 1_555
C26 C32 1_555 1_555
C28 C33 1_555 1_555
C30 C31 1_555 1_555
C30 C34 1_555 1_555

#END
