
#######################################################################
#
#                 Cambridge Crystallographic Data Centre
#                                CCDC 
#
#######################################################################
#
# If this CIF has been generated from an entry in the Cambridge 
# Structural Database, then it will include bibliographic, chemical, 
# crystal, experimental, refinement or atomic coordinate data resulting 
# from the CCDC's data processing and validation procedures.
#
#######################################################################

data_QERZIZ
_chemical_formula_moiety         'C4 N10 O6 2-,2(C1 H8 N5 1+)'
_chemical_name_systematic        
"bis(dihydrazinylmethaniminium) (4H,8H-bis[1,2,5]oxadiazolo[3,4-b:3',4'-e]pyrazine-4,8-diyl)bis(nitroazanide)"
_symmetry_cell_setting           triclinic
_symmetry_space_group_name_H-M   'P -1'
_symmetry_Int_Tables_number      2
_space_group_name_Hall           '-P 1'
loop_
_symmetry_equiv_pos_site_id
_symmetry_equiv_pos_as_xyz
1 x,y,z
2 -x,-y,-z
_cell_length_a                   4.3810(5)
_cell_length_b                   8.7102(10)
_cell_length_c                   12.1291(14)
_cell_angle_alpha                94.7190(10)
_cell_angle_beta                 97.9330(10)
_cell_angle_gamma                104.0850(10)
_cell_volume                     441.383
_exptl_crystal_colour            colorless
_exptl_crystal_description       block
_cell_formula_units_Z            1
loop_
_atom_site_label
_atom_site_type_symbol
_atom_site_fract_x
_atom_site_fract_y
_atom_site_fract_z
O1 O 0.5343(3) 0.82345(12) 0.00681(9)
O2 O 0.1652(3) 0.64086(12) 0.28055(9)
O3 O 0.4239(3) 0.50416(12) 0.38515(8)
N1 N 0.2971(3) 0.52933(14) 0.29043(10)
N2 N 0.1651(3) 0.46921(14) 0.10457(10)
N3 N 0.3221(3) 0.43184(15) 0.20392(10)
N4 N -0.2643(3) 0.23187(15) 0.07799(10)
N5 N 0.5362(3) 0.71711(15) 0.08873(11)
C1 C -0.1133(3) 0.36545(16) 0.04849(11)
C2 C 0.2781(3) 0.60389(17) 0.05473(11)
O1A O -0.5343(3) 0.17655(12) -0.00681(9)
O2A O -0.1652(3) 0.35914(12) -0.28055(9)
O3A O -0.4239(3) 0.49584(12) -0.38515(8)
N1A N -0.2971(3) 0.47067(14) -0.29043(10)
N2A N -0.1651(3) 0.53079(14) -0.10457(10)
N3A N -0.3221(3) 0.56816(15) -0.20392(10)
N4A N 0.2643(3) 0.76813(15) -0.07799(10)
N5A N -0.5362(3) 0.28289(15) -0.08873(11)
C1A C 0.1133(3) 0.63455(16) -0.04849(11)
C2A C -0.2781(3) 0.39611(17) -0.05473(11)
N6 N 0.6278(3) -0.03413(14) 0.35815(11)
H1 H 0.5090 -0.1205 0.3156
H2 H 0.7862 -0.0407 0.4091
N7 N 0.9825(3) 0.23069(15) 0.49695(11)
H3 H 1.1644 0.2980 0.4905
N8 N 0.3281(3) 0.11661(14) 0.26815(10)
H4 H 0.2665 0.2053 0.2650
N9 N 0.7411(3) 0.23919(15) 0.40903(11)
H5 H 0.7051 0.3318 0.3964
N10 N 0.1781(3) -0.02128(15) 0.19182(11)
H6 H -0.0285 -0.0475 0.1935
C3 C 0.5682(3) 0.10568(17) 0.34538(12)
H7 H 0.933(5) 0.267(2) 0.5603(18)
H8 H 0.210(5) 0.002(2) 0.1263(18)
loop_
_geom_bond_atom_site_label_1
_geom_bond_atom_site_label_2
_geom_bond_site_symmetry_1
_geom_bond_site_symmetry_2
O1 N5 1_555 1_555
O2 N1 1_555 1_555
O3 N1 1_555 1_555
N1 N3 1_555 1_555
N2 N3 1_555 1_555
N4 C1 1_555 1_555
N5 C2 1_555 1_555
C1 N2 1_555 1_555
C2 N2 1_555 1_555
N6 H1 1_555 1_555
H2 N6 1_555 1_555
N7 H3 1_555 1_555
N8 H4 1_555 1_555
N9 N7 1_555 1_555
H5 N9 1_555 1_555
N10 N8 1_555 1_555
H6 N10 1_555 1_555
C3 N6 1_555 1_555
H7 N7 1_555 1_555
H8 N10 1_555 1_555
O1A N4 1_555 1_555
O2A N1A 1_555 1_555
O3A N1A 1_555 1_555
N1A N3A 1_555 1_555
N2A N3A 1_555 1_555
N4A O1 1_555 1_555
N5A O1A 1_555 1_555
C1A C2 1_555 1_555
C2A C1 1_555 1_555
N8 C3 1_555 1_555
N9 C3 1_555 1_555
N2A C1A 1_555 1_555
N2A C2A 1_555 1_555
N4A C1A 1_555 1_555
N5A C2A 1_555 1_555

#END
