
#######################################################################
#
#                 Cambridge Crystallographic Data Centre
#                                CCDC 
#
#######################################################################
#
# If this CIF has been generated from an entry in the Cambridge 
# Structural Database, then it will include bibliographic, chemical, 
# crystal, experimental, refinement or atomic coordinate data resulting 
# from the CCDC's data processing and validation procedures.
#
#######################################################################

data_QERZEV
_chemical_formula_moiety         'C4 N10 O6 2-,2(H4 N1 O1 1+),2(H2 O1)'
_chemical_name_systematic        
"bis(hydroxyammonium) (4H,8H-bis[1,2,5]oxadiazolo[3,4-b:3',4'-e]pyrazine-4,8-diyl)bis(nitroazanide) dihydrate"
_symmetry_cell_setting           monoclinic
_symmetry_space_group_name_H-M   'P 21/c'
_symmetry_Int_Tables_number      14
_space_group_name_Hall           '-P 2ybc'
loop_
_symmetry_equiv_pos_site_id
_symmetry_equiv_pos_as_xyz
1 x,y,z
2 -x,1/2+y,1/2-z
3 -x,-y,-z
4 x,1/2-y,1/2+z
_cell_length_a                   11.5697(12)
_cell_length_b                   6.5468(7)
_cell_length_c                   9.4846(10)
_cell_angle_alpha                90
_cell_angle_beta                 100.611(2)
_cell_angle_gamma                90
_cell_volume                     706.122
_exptl_crystal_colour            colorless
_exptl_crystal_description       block
_cell_formula_units_Z            2
loop_
_atom_site_label
_atom_site_type_symbol
_atom_site_fract_x
_atom_site_fract_y
_atom_site_fract_z
O1 O 0.09108(10) 0.64968(18) 0.46960(13)
O2 O 0.22873(11) 0.7188(2) 0.34544(13)
O3 O 0.44890(11) 0.07380(19) 0.34015(14)
N1 N 0.19460(11) 0.63061(19) 0.44813(14)
N2 N 0.37741(11) 0.5169(2) 0.51020(15)
N3 N 0.26351(12) 0.5162(2) 0.54214(15)
N4 N 0.36276(13) 0.1947(2) 0.38749(16)
N5 N 0.43978(13) 0.8335(2) 0.62700(16)
C1 C 0.45816(14) 0.6657(2) 0.56324(17)
C2 C 0.42052(13) 0.3519(2) 0.44650(16)
O1B O 0.90892(10) 0.35032(18) 0.53040(13)
O2B O 0.77127(11) 0.2812(2) 0.65456(13)
O3B O 0.55110(11) 0.92620(19) 0.65985(14)
N1B N 0.80540(11) 0.36939(19) 0.55187(14)
N2B N 0.62259(11) 0.4831(2) 0.48980(15)
N3B N 0.73649(12) 0.4838(2) 0.45786(15)
N4B N 0.63724(13) 0.8053(2) 0.61251(16)
N5B N 0.56022(13) 0.1665(2) 0.37300(16)
C1B C 0.54184(14) 0.3343(2) 0.43676(17)
C2B C 0.57948(13) 0.6481(2) 0.55350(16)
O4 O 0.81194(13) 0.56153(19) 0.89723(14)
H1 H 0.8398 0.4615 0.8532
H2 H 0.7380 0.5317 0.8918
O5 O 0.94259(13) 0.8308(2) 0.65121(15)
N6 N 0.89138(13) 0.9255(2) 0.75798(15)
H3 H 0.8608 1.0407 0.7266
H4 H 0.9443 0.9467 0.8333
H5 H 0.899(2) 0.864(4) 0.575(3)
H6 H 0.836(2) 0.831(4) 0.787(3)
loop_
_geom_bond_atom_site_label_1
_geom_bond_atom_site_label_2
_geom_bond_site_symmetry_1
_geom_bond_site_symmetry_2
O1 N1 1_555 1_555
O2 N1 1_555 1_555
O3 N4 1_555 1_555
N1 N3 1_555 1_555
N2 N3 1_555 1_555
N4 C2 1_555 1_555
N5 C1 1_555 1_555
C1 N2 1_555 1_555
C2 N2 1_555 1_555
O4 H1 1_555 1_555
H2 O4 1_555 1_555
O5 N6 1_555 1_555
N6 H3 1_555 1_555
H4 N6 1_555 1_555
H5 O5 1_555 1_555
H6 N6 1_555 1_555
O1B N1B 1_555 1_555
O2B N1B 1_555 1_555
O3B N5 1_555 1_555
N1B N3B 1_555 1_555
N2B N3B 1_555 1_555
N4B O3B 1_555 1_555
N5B O3 1_555 1_555
C1B C2 1_555 1_555
C2B C1 1_555 1_555
N2B C1B 1_555 1_555
N2B C2B 1_555 1_555
N4B C2B 1_555 1_555
N5B C1B 1_555 1_555

#END
