
#######################################################################
#
#                 Cambridge Crystallographic Data Centre
#                                CCDC 
#
#######################################################################
#
# If this CIF has been generated from an entry in the Cambridge 
# Structural Database, then it will include bibliographic, chemical, 
# crystal, experimental, refinement or atomic coordinate data resulting 
# from the CCDC's data processing and validation procedures.
#
#######################################################################

data_QERZAP
_chemical_formula_moiety         'C23 H22 N4 O5 S1'
_chemical_name_systematic        
'(2S,3S,5R)-Diphenylmethyl 4,4-dioxo-3-(1,2,3-triazol-1-ylmethyl)-2-penicillanate'
_symmetry_cell_setting           orthorhombic
_symmetry_space_group_name_H-M   'P 21 21 21'
_symmetry_Int_Tables_number      19
_space_group_name_Hall           'P 2ac 2ab'
loop_
_symmetry_equiv_pos_site_id
_symmetry_equiv_pos_as_xyz
1 x,y,z
2 1/2+x,1/2-y,-z
3 -x,1/2+y,1/2-z
4 1/2-x,-y,1/2+z
_cell_length_a                   9.7075(14)
_cell_length_b                   10.5271(16)
_cell_length_c                   21.650(3)
_cell_angle_alpha                90
_cell_angle_beta                 90
_cell_angle_gamma                90
_cell_volume                     2212.45
_exptl_crystal_colour            colorless
_exptl_crystal_description       block
_cell_formula_units_Z            4
_exptl_crystal_recrystallization_method acetone
loop_
_atom_site_label
_atom_site_type_symbol
_atom_site_fract_x
_atom_site_fract_y
_atom_site_fract_z
S1 S 0.20685(4) 0.34880(4) 0.305500(18)
O1 O 0.53073(12) 0.61429(11) 0.30721(6)
O2 O 0.14144(12) 0.22731(11) 0.31381(5)
O3 O 0.18099(12) 0.45032(11) 0.34871(5)
O4 O 0.45008(12) 0.45390(12) 0.12749(5)
O5 O 0.26385(11) 0.58310(11) 0.12132(5)
N1 N 0.42111(13) 0.44394(13) 0.25684(6)
N2 N -0.07668(14) 0.43169(14) 0.22322(6)
N3 N -0.13024(16) 0.38008(17) 0.27375(7)
N4 N -0.24500(15) 0.32181(17) 0.25766(7)
C1 C 0.48981(15) 0.50656(16) 0.30476(8)
C2 C 0.48172(17) 0.39115(16) 0.34721(8)
H1 H 0.4334 0.4066 0.3868
H2 H 0.5706 0.3469 0.3537
C3 C 0.39019(16) 0.33293(15) 0.29576(7)
H3 H 0.4220 0.2493 0.2791
C4 C 0.18046(15) 0.41424(14) 0.22695(7)
C5 C 0.31174(15) 0.49847(15) 0.21859(7)
H4 H 0.2910 0.5860 0.2339
C6 C 0.35381(16) 0.50673(14) 0.15083(7)
C7 C 0.17279(16) 0.30267(15) 0.18127(7)
H5 H 0.2605 0.2565 0.1815
H6 H 0.1547 0.3352 0.1396
H7 H 0.0983 0.2452 0.1935
C8 C 0.05321(16) 0.50101(16) 0.22580(8)
H8 H 0.0538 0.5550 0.2632
H9 H 0.0593 0.5578 0.1894
C9 C -0.15664(18) 0.40790(19) 0.17385(8)
H10 H -0.1417 0.4332 0.1323
C10 C -0.26499(17) 0.33869(18) 0.19711(9)
H11 H -0.3413 0.3080 0.1740
C11 C 0.28133(16) 0.59692(15) 0.05421(7)
H12 H 0.3811 0.5880 0.0435
C12 C 0.23249(15) 0.72872(15) 0.03654(7)
C13 C 0.16502(17) 0.80947(16) 0.07691(7)
H13 H 0.1511 0.7847 0.1186
C14 C 0.11744(18) 0.92711(17) 0.05638(8)
H14 H 0.0726 0.9830 0.0843
C15 C 0.13536(17) 0.96261(16) -0.00472(8)
H15 H 0.1020 1.0424 -0.0188
C16 C 0.20235(18) 0.88116(16) -0.04546(8)
H16 H 0.2142 0.9049 -0.0875
C17 C 0.25157(17) 0.76568(16) -0.02473(7)
H17 H 0.2988 0.7110 -0.0524
C18 C 0.20003(17) 0.49502(14) 0.02147(7)
C19 C 0.26687(18) 0.39964(16) -0.01123(8)
H18 H 0.3647 0.3962 -0.0113
C20 C 0.19233(19) 0.30956(17) -0.04375(8)
H19 H 0.2392 0.2450 -0.0660
C21 C 0.04975(19) 0.31325(17) -0.04395(8)
H20 H -0.0014 0.2518 -0.0665
C22 C -0.01793(18) 0.40768(17) -0.01089(9)
H21 H -0.1158 0.4102 -0.0106
C23 C 0.05591(17) 0.49789(16) 0.02144(7)
H22 H 0.0087 0.5622 0.0438
loop_
_geom_bond_atom_site_label_1
_geom_bond_atom_site_label_2
_geom_bond_site_symmetry_1
_geom_bond_site_symmetry_2
S1 O2 1_555 1_555
O1 C1 1_555 1_555
O3 S1 1_555 1_555
O4 C6 1_555 1_555
O5 C6 1_555 1_555
N1 C1 1_555 1_555
N2 N3 1_555 1_555
N3 N4 1_555 1_555
N4 C10 1_555 1_555
C1 C2 1_555 1_555
C2 H1 1_555 1_555
H2 C2 1_555 1_555
C3 S1 1_555 1_555
H3 C3 1_555 1_555
C4 S1 1_555 1_555
C5 N1 1_555 1_555
H4 C5 1_555 1_555
C6 C5 1_555 1_555
C7 C4 1_555 1_555
H5 C7 1_555 1_555
H6 C7 1_555 1_555
H7 C7 1_555 1_555
C8 N2 1_555 1_555
H8 C8 1_555 1_555
H9 C8 1_555 1_555
C9 N2 1_555 1_555
H10 C9 1_555 1_555
C10 C9 1_555 1_555
H11 C10 1_555 1_555
C11 O5 1_555 1_555
H12 C11 1_555 1_555
C12 C11 1_555 1_555
C13 C12 1_555 1_555
H13 C13 1_555 1_555
C14 C13 1_555 1_555
H14 C14 1_555 1_555
C15 C14 1_555 1_555
H15 C15 1_555 1_555
C16 C15 1_555 1_555
H16 C16 1_555 1_555
C17 C12 1_555 1_555
H17 C17 1_555 1_555
C18 C11 1_555 1_555
C19 C18 1_555 1_555
H18 C19 1_555 1_555
C20 C19 1_555 1_555
H19 C20 1_555 1_555
C21 C20 1_555 1_555
H20 C21 1_555 1_555
C22 C21 1_555 1_555
H21 C22 1_555 1_555
C23 C18 1_555 1_555
H22 C23 1_555 1_555
N1 C3 1_555 1_555
C2 C3 1_555 1_555
C4 C5 1_555 1_555
C4 C8 1_555 1_555
C16 C17 1_555 1_555
C22 C23 1_555 1_555

#END
