
#######################################################################
#
#                 Cambridge Crystallographic Data Centre
#                                CCDC 
#
#######################################################################
#
# If this CIF has been generated from an entry in the Cambridge 
# Structural Database, then it will include bibliographic, chemical, 
# crystal, experimental, refinement or atomic coordinate data resulting 
# from the CCDC's data processing and validation procedures.
#
#######################################################################

data_QESCEX
_chemical_formula_moiety         'C8 H10 N4 S4'
_chemical_name_systematic        
2,2'-(1,4-Butanediyldithio)bis(1,3,4-thiadiazole)
_symmetry_cell_setting           monoclinic
_symmetry_space_group_name_H-M   'C 2/m'
_symmetry_Int_Tables_number      12
_space_group_name_Hall           '-C 2y'
loop_
_symmetry_equiv_pos_site_id
_symmetry_equiv_pos_as_xyz
1 x,y,z
2 1/2+x,1/2+y,z
3 -x,y,-z
4 1/2-x,1/2+y,-z
5 -x,-y,-z
6 1/2-x,1/2-y,-z
7 x,-y,z
8 1/2+x,1/2-y,z
_cell_length_a                   17.333(3)
_cell_length_b                   6.9652(14)
_cell_length_c                   5.3550(10)
_cell_angle_alpha                90
_cell_angle_beta                 107.926(3)
_cell_angle_gamma                90
_cell_volume                     615.113
_exptl_crystal_colour            colorless
_exptl_crystal_description       plate
_chemical_melting_point          '367 K'
_cell_formula_units_Z            2
_exptl_crystal_recrystallization_method ethanol
loop_
_atom_site_label
_atom_site_type_symbol
_atom_site_fract_x
_atom_site_fract_y
_atom_site_fract_z
S1 S 0.20691(5) 0.0000 0.83005(15)
S2 S 0.32221(4) 0.0000 0.49775(15)
N1 N 0.15985(16) 0.0000 0.3272(5)
N2 N 0.09044(17) 0.0000 0.4008(6)
C1 C 0.22525(18) 0.0000 0.5301(6)
C2 C 0.1064(2) 0.0000 0.6542(7)
H1 H 0.0658 0.0000 0.7343
C3 C 0.38371(18) 0.0000 0.8403(6)
H2 H 0.3716 0.1129 0.9275
H3 H 0.3716 -0.1129 0.9275
C4 C 0.47288(18) 0.0000 0.8568(6)
H4 H 0.4846 0.1127 0.7683
H5 H 0.4846 -0.1127 0.7683
S1D S 0.79309(5) 0.0000 1.16995(15)
S2D S 0.67779(4) 0.0000 1.50225(15)
N1D N 0.84015(16) 0.0000 1.6728(5)
N2D N 0.90956(17) 0.0000 1.5992(6)
C1D C 0.77475(18) 0.0000 1.4699(6)
C2D C 0.8936(2) 0.0000 1.3458(7)
H1D H 0.9342 0.0000 1.2657
C3D C 0.61629(18) 0.0000 1.1597(6)
H2D H 0.6284 -0.1129 1.0725
H2B H 0.6284 0.1129 1.0725
C4D C 0.52712(18) 0.0000 1.1432(6)
H4D H 0.5154 -0.1127 1.2317
H4B H 0.5154 0.1127 1.2317
loop_
_geom_bond_atom_site_label_1
_geom_bond_atom_site_label_2
_geom_bond_site_symmetry_1
_geom_bond_site_symmetry_2
S1 C1 1_555 1_555
S2 C1 1_555 1_555
N1 N2 1_555 1_555
N2 C2 1_555 1_555
C1 N1 1_555 1_555
C2 S1 1_555 1_555
H1 C2 1_555 1_555
C3 S2 1_555 1_555
H2 C3 1_555 1_555
H3 C3 1_555 1_555
C4 C3 1_555 1_555
H4 C4 1_555 1_555
H5 C4 1_555 1_555
S1D C1D 1_555 1_555
S2D C1D 1_555 1_555
N1D N2D 1_555 1_555
N2D C2D 1_555 1_555
C1D N1D 1_555 1_555
C2D S1D 1_555 1_555
H1D C2D 1_555 1_555
C3D S2D 1_555 1_555
H2D C3D 1_555 1_555
H2B C3D 1_555 1_555
C4D C4 1_555 1_555
H4D C4D 1_555 1_555
H4B C4D 1_555 1_555
C3D C4D 1_555 1_555

#END
