
#######################################################################
#
#                 Cambridge Crystallographic Data Centre
#                                CCDC 
#
#######################################################################
#
# If this CIF has been generated from an entry in the Cambridge 
# Structural Database, then it will include bibliographic, chemical, 
# crystal, experimental, refinement or atomic coordinate data resulting 
# from the CCDC's data processing and validation procedures.
#
#######################################################################

data_QESDOH
_chemical_formula_moiety         'C10 H10 Br4 N2 Si1'
_chemical_name_systematic        trans-Tetrabromobis(pyridine)silicon
_symmetry_cell_setting           monoclinic
_symmetry_space_group_name_H-M   'C 2/m'
_symmetry_Int_Tables_number      12
_space_group_name_Hall           '-C 2y'
loop_
_symmetry_equiv_pos_site_id
_symmetry_equiv_pos_as_xyz
1 x,y,z
2 1/2+x,1/2+y,z
3 x,-y,z
4 1/2+x,1/2-y,z
5 -x,-y,-z
6 1/2-x,1/2-y,-z
7 -x,y,-z
8 1/2-x,1/2+y,-z
_cell_length_a                   14.4250(2)
_cell_length_b                   7.3055(1)
_cell_length_c                   7.2839(1)
_cell_angle_alpha                90
_cell_angle_beta                 117.66(1)
_cell_angle_gamma                90
_cell_volume                     679.869
_exptl_crystal_colour            colorless
_exptl_crystal_description       block
_cell_formula_units_Z            2
loop_
_atom_site_label
_atom_site_type_symbol
_atom_site_fract_x
_atom_site_fract_y
_atom_site_fract_z
Br1 Br 0.066679(16) 0.23263(3) -0.13590(3)
Si1 Si 0.0000 0.0000 0.0000
N1 N 0.1339(2) 0.0000 0.2603(4)
C1 C 0.1348(2) 0.0000 0.4471(5)
H1 H 0.0701 0.0000 0.4515
C2 C 0.2267(2) 0.0000 0.6311(5)
H2 H 0.2245 0.0000 0.7595
C3 C 0.3219(2) 0.0000 0.6283(5)
H3 H 0.3859 0.0000 0.7535
C4 C 0.3210(2) 0.0000 0.4358(5)
H4 H 0.3849 0.0000 0.4282
C5 C 0.2274(2) 0.0000 0.2578(5)
H5 H 0.2280 0.0000 0.1280
Br1B Br 0.066679(16) -0.23263(3) -0.13590(3)
Br1D Br -0.066679(16) -0.23263(3) 0.13590(3)
Br1F Br -0.066679(16) 0.23263(3) 0.13590(3)
N1D N -0.1339(2) 0.0000 -0.2603(4)
C1D C -0.1348(2) 0.0000 -0.4471(5)
H1D H -0.0701 0.0000 -0.4515
C2D C -0.2267(2) 0.0000 -0.6311(5)
H2D H -0.2245 0.0000 -0.7595
C3D C -0.3219(2) 0.0000 -0.6283(5)
H3D H -0.3859 0.0000 -0.7535
C4D C -0.3210(2) 0.0000 -0.4358(5)
H4D H -0.3849 0.0000 -0.4282
C5D C -0.2274(2) 0.0000 -0.2578(5)
H5D H -0.2280 0.0000 -0.1280
loop_
_geom_bond_atom_site_label_1
_geom_bond_atom_site_label_2
_geom_bond_site_symmetry_1
_geom_bond_site_symmetry_2
Br1 Si1 1_555 1_555
Si1 N1 1_555 1_555
N1 C1 1_555 1_555
C1 H1 1_555 1_555
C2 C1 1_555 1_555
H2 C2 1_555 1_555
C3 C2 1_555 1_555
H3 C3 1_555 1_555
C4 C3 1_555 1_555
H4 C4 1_555 1_555
C5 N1 1_555 1_555
H5 C5 1_555 1_555
Br1B Si1 1_555 1_555
Br1D Si1 1_555 1_555
Br1F Si1 1_555 1_555
N1D Si1 1_555 1_555
C1D N1D 1_555 1_555
H1D C1D 1_555 1_555
C2D C1D 1_555 1_555
H2D C2D 1_555 1_555
C3D C2D 1_555 1_555
H3D C3D 1_555 1_555
C4D C3D 1_555 1_555
H4D C4D 1_555 1_555
C5D N1D 1_555 1_555
H5D C5D 1_555 1_555
C4 C5 1_555 1_555
C4D C5D 1_555 1_555

#END
