
#######################################################################
#
#                 Cambridge Crystallographic Data Centre
#                                CCDC 
#
#######################################################################
#
# If this CIF has been generated from an entry in the Cambridge 
# Structural Database, then it will include bibliographic, chemical, 
# crystal, experimental, refinement or atomic coordinate data resulting 
# from the CCDC's data processing and validation procedures.
#
#######################################################################

data_QESFEC
_chemical_formula_moiety         'C27 H22 N2 O2 S1'
_chemical_name_systematic        
5-methyl-7-[(4-methylphenyl)sulfonyl]-7,8-dihydro-7,13b-diazabenzo[c]cyclohepta[1,2,3-lm]fluorene
_symmetry_cell_setting           monoclinic
_symmetry_space_group_name_H-M   'P 21/c'
_symmetry_Int_Tables_number      14
_space_group_name_Hall           '-P 2ybc'
loop_
_symmetry_equiv_pos_site_id
_symmetry_equiv_pos_as_xyz
1 x,y,z
2 -x,1/2+y,1/2-z
3 -x,-y,-z
4 x,1/2-y,1/2+z
_cell_length_a                   14.938(5)
_cell_length_b                   7.167(2)
_cell_length_c                   19.366(7)
_cell_angle_alpha                90
_cell_angle_beta                 90.970(7)
_cell_angle_gamma                90
_cell_volume                     2073.04
_exptl_crystal_colour            colorless
_exptl_crystal_description       prismatic
_cell_formula_units_Z            4
loop_
_atom_site_label
_atom_site_type_symbol
_atom_site_fract_x
_atom_site_fract_y
_atom_site_fract_z
S1 S 0.31573(8) 0.38101(18) 1.06209(6)
N1 N 0.2334(2) 0.8769(5) 0.89380(17)
N2 N 0.2716(2) 0.5773(5) 1.08523(17)
O1 O 0.2632(2) 0.2411(5) 1.09232(17)
O2 O 0.4093(2) 0.3951(6) 1.07815(17)
C1 C 0.1444(3) 0.8740(7) 0.8706(2)
C2 C 0.1058(4) 0.9313(8) 0.8075(3)
H1 H 0.1408 0.9804 0.7726
C3 C 0.0154(4) 0.9126(9) 0.7989(3)
H2 H -0.0111 0.9493 0.7573
C4 C -0.0377(4) 0.8413(8) 0.8498(3)
H3 H -0.0989 0.8273 0.8418
C5 C -0.0010(3) 0.7908(7) 0.9124(3)
H4 H -0.0373 0.7437 0.9468
C6 C 0.0912(3) 0.8102(6) 0.9245(2)
C7 C 0.1498(3) 0.7726(6) 0.9837(2)
C8 C 0.2344(3) 0.8169(6) 0.9627(2)
C9 C 0.3186(3) 0.8157(6) 0.9997(2)
C10 C 0.3929(3) 0.8632(7) 0.9673(2)
H5 H 0.4470 0.8602 0.9918
C11 C 0.3934(3) 0.9181(6) 0.8970(2)
C12 C 0.3117(3) 0.9199(6) 0.8583(2)
C13 C 0.3149(4) 0.9595(8) 0.7886(2)
H6 H 0.2624 0.9567 0.7621
C14 C 0.3939(4) 1.0028(10) 0.7579(3)
H7 H 0.3944 1.0289 0.7109
C15 C 0.4730(4) 1.0084(9) 0.7957(3)
H8 H 0.5261 1.0435 0.7749
C16 C 0.4722(3) 0.9619(7) 0.8637(2)
H9 H 0.5260 0.9593 0.8886
C17 C 0.1221(3) 0.6870(6) 1.0488(2)
C18 C 0.1777(3) 0.5917(6) 1.0915(2)
H10 H 0.1520 0.5298 1.1284
C19 C 0.3198(3) 0.7537(7) 1.0741(2)
H11 H 0.3814 0.7388 1.0896
H12 H 0.2930 0.8504 1.1021
C20 C 0.0260(3) 0.6992(8) 1.0708(3)
H13 H -0.0090 0.6079 1.0460
H14 H 0.0031 0.8216 1.0608
H15 H 0.0225 0.6757 1.1194
C21 C 0.3035(3) 0.3709(6) 0.9713(2)
C22 C 0.3730(3) 0.4208(7) 0.9307(2)
H16 H 0.4297 0.4398 0.9500
C23 C 0.3589(3) 0.4428(7) 0.8616(2)
H17 H 0.4066 0.4761 0.8339
C24 C 0.2753(3) 0.4167(7) 0.8316(2)
C25 C 0.2068(3) 0.3593(7) 0.8732(2)
H18 H 0.1504 0.3375 0.8538
C26 C 0.2202(3) 0.3337(7) 0.9426(2)
H19 H 0.1739 0.2918 0.9700
C27 C 0.2586(4) 0.4512(10) 0.7560(3)
H20 H 0.2925 0.5577 0.7416
H21 H 0.1960 0.4741 0.7478
H22 H 0.2767 0.3437 0.7301
loop_
_geom_bond_atom_site_label_1
_geom_bond_atom_site_label_2
_geom_bond_site_symmetry_1
_geom_bond_site_symmetry_2
S1 N2 1_555 1_555
N1 C1 1_555 1_555
N2 C18 1_555 1_555
O1 S1 1_555 1_555
O2 S1 1_555 1_555
C1 C2 1_555 1_555
C2 H1 1_555 1_555
C3 C2 1_555 1_555
H2 C3 1_555 1_555
C4 C3 1_555 1_555
H3 C4 1_555 1_555
C5 C4 1_555 1_555
H4 C5 1_555 1_555
C6 C1 1_555 1_555
C7 C6 1_555 1_555
C8 N1 1_555 1_555
C9 C8 1_555 1_555
C10 C9 1_555 1_555
H5 C10 1_555 1_555
C11 C10 1_555 1_555
C12 N1 1_555 1_555
C13 C12 1_555 1_555
H6 C13 1_555 1_555
C14 C13 1_555 1_555
H7 C14 1_555 1_555
C15 C14 1_555 1_555
H8 C15 1_555 1_555
C16 C11 1_555 1_555
H9 C16 1_555 1_555
C17 C7 1_555 1_555
C18 C17 1_555 1_555
H10 C18 1_555 1_555
C19 N2 1_555 1_555
H11 C19 1_555 1_555
H12 C19 1_555 1_555
C20 C17 1_555 1_555
H13 C20 1_555 1_555
H14 C20 1_555 1_555
H15 C20 1_555 1_555
C21 S1 1_555 1_555
C22 C21 1_555 1_555
H16 C22 1_555 1_555
C23 C22 1_555 1_555
H17 C23 1_555 1_555
C24 C23 1_555 1_555
C25 C24 1_555 1_555
H18 C25 1_555 1_555
C26 C21 1_555 1_555
H19 C26 1_555 1_555
C27 C24 1_555 1_555
H20 C27 1_555 1_555
H21 C27 1_555 1_555
H22 C27 1_555 1_555
C5 C6 1_555 1_555
C7 C8 1_555 1_555
C9 C19 1_555 1_555
C11 C12 1_555 1_555
C15 C16 1_555 1_555
C25 C26 1_555 1_555

#END
