
#######################################################################
#
#                 Cambridge Crystallographic Data Centre
#                                CCDC 
#
#######################################################################
#
# If this CIF has been generated from an entry in the Cambridge 
# Structural Database, then it will include bibliographic, chemical, 
# crystal, experimental, refinement or atomic coordinate data resulting 
# from the CCDC's data processing and validation procedures.
#
#######################################################################

data_QESGED
_chemical_formula_moiety         'C24 H16 N2'
_chemical_name_systematic        2-(5-phenylpyridin-2-yl)benzo[h]quinoline
_symmetry_cell_setting           monoclinic
_symmetry_space_group_name_H-M   'P 21/n'
_symmetry_Int_Tables_number      14
_space_group_name_Hall           '-P 2yn'
loop_
_symmetry_equiv_pos_site_id
_symmetry_equiv_pos_as_xyz
1 x,y,z
2 1/2-x,1/2+y,1/2-z
3 -x,-y,-z
4 1/2+x,1/2-y,1/2+z
_cell_length_a                   16.841(9)
_cell_length_b                   3.9324(17)
_cell_length_c                   25.305(12)
_cell_angle_alpha                90
_cell_angle_beta                 102.38(4)
_cell_angle_gamma                90
_cell_volume                     1636.87
_exptl_crystal_colour            colorless
_exptl_crystal_description       plate
_cell_formula_units_Z            4
loop_
_atom_site_label
_atom_site_type_symbol
_atom_site_fract_x
_atom_site_fract_y
_atom_site_fract_z
N1 N 0.76695(7) 0.3281(3) 0.11969(5)
C1 C 0.80875(9) 0.3997(4) 0.08234(6)
N2 N 0.93610(8) 0.3504(4) 0.05493(5)
C2 C 0.77469(11) 0.5698(5) 0.03420(6)
H1 H 0.8060 0.6208 0.0091
C3 C 0.69535(11) 0.6584(5) 0.02502(6)
H2 H 0.6715 0.7700 -0.0068
C4 C 0.64902(10) 0.5833(4) 0.06305(6)
C5 C 0.56599(11) 0.6711(5) 0.05593(7)
H3 H 0.5403 0.7824 0.0245
C6 C 0.52373(10) 0.5975(5) 0.09353(8)
H4 H 0.4692 0.6585 0.0876
C7 C 0.56011(9) 0.4279(4) 0.14246(7)
C8 C 0.51637(10) 0.3489(5) 0.18217(8)
H5 H 0.4617 0.4082 0.1766
C9 C 0.55206(11) 0.1882(5) 0.22836(8)
H6 H 0.5219 0.1367 0.2541
C10 C 0.63338(10) 0.1002(5) 0.23738(7)
H7 H 0.6581 -0.0050 0.2696
C11 C 0.67739(10) 0.1669(4) 0.19920(6)
C12 C 0.64238(9) 0.3352(4) 0.15111(6)
C13 C 0.68789(9) 0.4160(4) 0.11041(6)
C14 C 0.89470(10) 0.2996(4) 0.09385(6)
C15 C 0.93098(11) 0.1612(5) 0.14310(7)
C16 C 1.01227(11) 0.0879(5) 0.15330(7)
C17 C 1.05664(10) 0.1438(4) 0.11413(6)
C18 C 1.01429(10) 0.2729(5) 0.06540(6)
C19 C 1.14424(10) 0.0788(4) 0.12424(6)
C20 C 1.18078(10) -0.0679(4) 0.08570(7)
H8 H 1.1491 -0.1264 0.0521
C21 C 1.26227(11) -0.1276(5) 0.09626(8)
H9 H 1.2856 -0.2283 0.0700
C22 C 1.30997(12) -0.0408(5) 0.14510(8)
H10 H 1.3657 -0.0813 0.1521
C23 C 1.27511(11) 0.1068(5) 0.18371(8)
H11 H 1.3073 0.1673 0.2170
C24 C 1.19339(11) 0.1651(5) 0.17350(7)
H12 H 1.1704 0.2644 0.2000
H13 H 0.7353(10) 0.082(5) 0.2053(6)
H14 H 1.0442(9) 0.308(4) 0.0374(7)
H15 H 0.8981(11) 0.111(5) 0.1702(7)
H16 H 1.0388(12) -0.015(5) 0.1884(8)
loop_
_geom_bond_atom_site_label_1
_geom_bond_atom_site_label_2
_geom_bond_site_symmetry_1
_geom_bond_site_symmetry_2
N1 C1 1_555 1_555
C1 C2 1_555 1_555
N2 C14 1_555 1_555
C2 H1 1_555 1_555
C3 C2 1_555 1_555
H2 C3 1_555 1_555
C4 C3 1_555 1_555
C5 C4 1_555 1_555
H3 C5 1_555 1_555
C6 C5 1_555 1_555
H4 C6 1_555 1_555
C7 C6 1_555 1_555
C8 C7 1_555 1_555
H5 C8 1_555 1_555
C9 C8 1_555 1_555
H6 C9 1_555 1_555
C10 C9 1_555 1_555
H7 C10 1_555 1_555
C11 C10 1_555 1_555
C12 C7 1_555 1_555
C13 N1 1_555 1_555
C14 C1 1_555 1_555
C15 C14 1_555 1_555
C16 C15 1_555 1_555
C17 C16 1_555 1_555
C18 N2 1_555 1_555
C19 C17 1_555 1_555
C20 C19 1_555 1_555
H8 C20 1_555 1_555
C21 C20 1_555 1_555
H9 C21 1_555 1_555
C22 C21 1_555 1_555
H10 C22 1_555 1_555
C23 C22 1_555 1_555
H11 C23 1_555 1_555
C24 C19 1_555 1_555
H12 C24 1_555 1_555
H13 C11 1_555 1_555
H14 C18 1_555 1_555
H15 C15 1_555 1_555
H16 C16 1_555 1_555
C4 C13 1_555 1_555
C11 C12 1_555 1_555
C12 C13 1_555 1_555
C17 C18 1_555 1_555
C23 C24 1_555 1_555

#END
