
#######################################################################
#
#                 Cambridge Crystallographic Data Centre
#                                CCDC 
#
#######################################################################
#
# If this CIF has been generated from an entry in the Cambridge 
# Structural Database, then it will include bibliographic, chemical, 
# crystal, experimental, refinement or atomic coordinate data resulting 
# from the CCDC's data processing and validation procedures.
#
#######################################################################

data_QESJIH
_chemical_formula_moiety         'C30 H72 Mg3 N12 O14 P2'
_chemical_name_systematic        
bis(\m~2~-N,N-Dimethylcarbamato-O,O,O')-tetrakis(\m~2~-N,N-dimethylcarbamato-O,O')-bis(hexamethylphosphoramide-O)-tri-magnesium
_symmetry_cell_setting           monoclinic
_symmetry_space_group_name_H-M   'P 21/c'
_symmetry_Int_Tables_number      14
_space_group_name_Hall           '-P 2ybc'
loop_
_symmetry_equiv_pos_site_id
_symmetry_equiv_pos_as_xyz
1 x,y,z
2 x,1/2-y,1/2+z
3 -x,-y,-z
4 -x,1/2+y,1/2-z
_cell_length_a                   9.4391(3)
_cell_length_b                   11.0815(4)
_cell_length_c                   23.5656(8)
_cell_angle_alpha                90
_cell_angle_beta                 91.777(1)
_cell_angle_gamma                90
_cell_volume                     2463.76
_exptl_crystal_colour            colorless
_exptl_crystal_description       block
_chemical_melting_point          'decomposes above 95 deg.C'
_cell_formula_units_Z            2
_chemical_properties_physical    'extremely air-sensitive and hygroscopic'
loop_
_atom_site_label
_atom_site_type_symbol
_atom_site_fract_x
_atom_site_fract_y
_atom_site_fract_z
Mg1 Mg 0.0000 0.5000 0.5000
Mg2 Mg 0.08136(8) 0.53483(8) 0.35882(3)
P1 P 0.14011(7) 0.51501(6) 0.21643(3)
O1 O 0.0941(2) 0.5236(2) 0.27582(8)
O2 O 0.1057(2) 0.6120(2) 0.44361(7)
O3 O 0.2161(2) 0.6819(2) 0.37016(8)
O4 O -0.1788(2) 0.5244(2) 0.45100(8)
O5 O -0.1275(2) 0.5353(2) 0.35831(8)
O6 O 0.0561(2) 0.3568(2) 0.45083(8)
O7 O 0.1937(2) 0.3873(2) 0.37695(7)
N1 N 0.0013(3) 0.4857(3) 0.17591(11)
N2 N 0.2645(3) 0.4122(3) 0.21149(11)
N3 N 0.2145(3) 0.6356(2) 0.18968(10)
N4 N 0.2625(2) 0.7672(2) 0.45653(10)
N5 N -0.3553(2) 0.5198(3) 0.38546(11)
N6 N 0.2466(3) 0.2376(2) 0.43927(11)
C1 C -0.1416(4) 0.4876(4) 0.1955(2)
H1 H -0.1401(4) 0.5042(4) 0.2364(2)
H2 H -0.1864(4) 0.4091(4) 0.1882(2)
H3 H -0.1956(4) 0.5508(4) 0.1754(2)
C2 C 0.0146(5) 0.4617(5) 0.11526(15)
H4 H 0.1150(5) 0.4620(5) 0.10585(15)
H5 H -0.0357(5) 0.5242(5) 0.09325(15)
H6 H -0.0265(5) 0.3826(5) 0.10607(15)
C3 C 0.2456(4) 0.2991(3) 0.24234(14)
H7 H 0.1816(4) 0.3125(3) 0.27369(14)
H8 H 0.3376(4) 0.2710(3) 0.25749(14)
H9 H 0.2049(4) 0.2382(3) 0.21649(14)
C4 C 0.3593(5) 0.4004(5) 0.1636(2)
H10 H 0.3680(5) 0.4786(5) 0.1446(2)
H11 H 0.3202(5) 0.3410(5) 0.1366(2)
H12 H 0.4530(5) 0.3737(5) 0.1776(2)
C5 C 0.3476(4) 0.6778(4) 0.2171(2)
H13 H 0.4051(4) 0.6081(4) 0.2291(2)
H14 H 0.3262(4) 0.7269(4) 0.2504(2)
H15 H 0.4002(4) 0.7265(4) 0.1902(2)
C6 C 0.1247(4) 0.7358(3) 0.1710(2)
H16 H 0.0374(4) 0.7043(3) 0.1529(2)
H17 H 0.1752(4) 0.7851(3) 0.1436(2)
H18 H 0.1012(4) 0.7855(3) 0.2038(2)
C7 C 0.1940(3) 0.6852(2) 0.42290(11)
C8 C 0.3659(3) 0.8475(3) 0.43318(14)
H19 H 0.4046(3) 0.9002(3) 0.46323(14)
H20 H 0.3207(3) 0.8967(3) 0.40319(14)
H21 H 0.4428(3) 0.8000(3) 0.41724(14)
C9 C 0.2327(4) 0.7801(3) 0.51592(13)
H22 H 0.2929(4) 0.8437(3) 0.53263(13)
H23 H 0.2522(4) 0.7037(3) 0.53558(13)
H24 H 0.1329(4) 0.8018(3) 0.51988(13)
C10 C -0.2130(3) 0.5274(2) 0.39915(11)
C11 C -0.4572(3) 0.5234(3) 0.43017(14)
H25 H -0.5533(3) 0.5170(3) 0.41350(14)
H26 H -0.4475(3) 0.5997(3) 0.45095(14)
H27 H -0.4396(3) 0.4559(3) 0.45632(14)
C12 C -0.4104(3) 0.5293(3) 0.32781(13)
H28 H -0.5138(3) 0.5215(3) 0.32736(13)
H29 H -0.3701(3) 0.4649(3) 0.30480(13)
H30 H -0.3846(3) 0.6079(3) 0.31212(13)
C13 C 0.1629(3) 0.3320(2) 0.42222(10)
C14 C 0.2249(5) 0.1833(3) 0.49437(14)
H31 H 0.2925(5) 0.1171(3) 0.50053(14)
H32 H 0.1280(5) 0.1518(3) 0.49568(14)
H33 H 0.2395(5) 0.2442(3) 0.52411(14)
C15 C 0.3750(3) 0.2105(3) 0.4103(2)
H34 H 0.4214(3) 0.1404(3) 0.4281(2)
H35 H 0.4389(3) 0.2802(3) 0.4127(2)
H36 H 0.3521(3) 0.1926(3) 0.3703(2)
O2B O -0.1057(2) 0.3880(2) 0.55639(7)
Mg2B Mg -0.08136(8) 0.46517(8) 0.64118(3)
O1B O -0.0941(2) 0.4764(2) 0.72418(8)
P1B P -0.14011(7) 0.48499(6) 0.78357(3)
N1B N -0.0013(3) 0.5143(3) 0.82409(11)
C1B C 0.1416(4) 0.5124(4) 0.8045(2)
H1B H 0.1401(4) 0.4958(4) 0.7636(2)
H2B H 0.1864(4) 0.5909(4) 0.8118(2)
H3B H 0.1956(4) 0.4492(4) 0.8246(2)
C2B C -0.0146(5) 0.5383(5) 0.88474(15)
H4B H -0.1150(5) 0.5380(5) 0.89415(15)
H5B H 0.0357(5) 0.4758(5) 0.90675(15)
H6B H 0.0265(5) 0.6174(5) 0.89393(15)
N2B N -0.2645(3) 0.5878(3) 0.78851(11)
C3B C -0.2456(4) 0.7009(3) 0.75766(14)
H7B H -0.1816(4) 0.6875(3) 0.72631(14)
H8B H -0.3376(4) 0.7290(3) 0.74251(14)
H9B H -0.2049(4) 0.7618(3) 0.78351(14)
C4B C -0.3593(5) 0.5996(5) 0.8364(2)
H10B H -0.3680(5) 0.5214(5) 0.8554(2)
H11B H -0.3202(5) 0.6590(5) 0.8634(2)
H12B H -0.4530(5) 0.6263(5) 0.8224(2)
N3B N -0.2145(3) 0.3644(2) 0.81032(10)
C5B C -0.3476(4) 0.3222(4) 0.7829(2)
H13B H -0.4051(4) 0.3919(4) 0.7709(2)
H14B H -0.3262(4) 0.2731(4) 0.7496(2)
H15B H -0.4002(4) 0.2735(4) 0.8098(2)
C6B C -0.1247(4) 0.2642(3) 0.8290(2)
H16B H -0.0374(4) 0.2957(3) 0.8471(2)
H17B H -0.1752(4) 0.2149(3) 0.8564(2)
H18B H -0.1012(4) 0.2145(3) 0.7962(2)
O3B O -0.2161(2) 0.3181(2) 0.62984(8)
C7B C -0.1940(3) 0.3148(2) 0.57710(11)
N4B N -0.2625(2) 0.2328(2) 0.54347(10)
C8B C -0.3659(3) 0.1525(3) 0.56682(14)
H19B H -0.4046(3) 0.0998(3) 0.53677(14)
H20B H -0.3207(3) 0.1033(3) 0.59681(14)
H21B H -0.4428(3) 0.2000(3) 0.58276(14)
C9B C -0.2327(4) 0.2199(3) 0.48408(13)
H22B H -0.2929(4) 0.1563(3) 0.46737(13)
H23B H -0.2522(4) 0.2963(3) 0.46442(13)
H24B H -0.1329(4) 0.1982(3) 0.48012(13)
O5B O 0.1275(2) 0.4647(2) 0.64169(8)
C10B C 0.2130(3) 0.4726(2) 0.60085(11)
O4B O 0.1788(2) 0.4756(2) 0.54900(8)
O6B O -0.0561(2) 0.6432(2) 0.54917(8)
C13B C -0.1629(3) 0.6680(2) 0.57778(10)
O7B O -0.1937(2) 0.6127(2) 0.62305(7)
N6B N -0.2466(3) 0.7624(2) 0.56073(11)
C14B C -0.2249(5) 0.8167(3) 0.50563(14)
H31B H -0.2925(5) 0.8829(3) 0.49947(14)
H32B H -0.1280(5) 0.8482(3) 0.50432(14)
H33B H -0.2395(5) 0.7558(3) 0.47589(14)
C15B C -0.3750(3) 0.7895(3) 0.5897(2)
H34B H -0.4214(3) 0.8596(3) 0.5719(2)
H35B H -0.4389(3) 0.7198(3) 0.5873(2)
H36B H -0.3521(3) 0.8074(3) 0.6297(2)
N5B N 0.3553(2) 0.4802(3) 0.61454(11)
C11B C 0.4572(3) 0.4766(3) 0.56983(14)
H25B H 0.5533(3) 0.4830(3) 0.58650(14)
H26B H 0.4475(3) 0.4003(3) 0.54905(14)
H27B H 0.4396(3) 0.5441(3) 0.54368(14)
C12B C 0.4104(3) 0.4707(3) 0.67219(13)
H28B H 0.5138(3) 0.4785(3) 0.67264(13)
H29B H 0.3701(3) 0.5351(3) 0.69520(13)
H30B H 0.3846(3) 0.3921(3) 0.68788(13)
loop_
_geom_bond_atom_site_label_1
_geom_bond_atom_site_label_2
_geom_bond_site_symmetry_1
_geom_bond_site_symmetry_2
Mg1 O2 1_555 1_555
Mg2 O1 1_555 1_555
P1 O1 1_555 1_555
O2 Mg2 1_555 1_555
O3 Mg2 1_555 1_555
O4 Mg1 1_555 1_555
O5 Mg2 1_555 1_555
O6 Mg1 1_555 1_555
O7 Mg2 1_555 1_555
N1 P1 1_555 1_555
N2 P1 1_555 1_555
N3 P1 1_555 1_555
N4 C7 1_555 1_555
N5 C10 1_555 1_555
N6 C13 1_555 1_555
C1 N1 1_555 1_555
H1 C1 1_555 1_555
H2 C1 1_555 1_555
H3 C1 1_555 1_555
C2 N1 1_555 1_555
H4 C2 1_555 1_555
H5 C2 1_555 1_555
H6 C2 1_555 1_555
C3 N2 1_555 1_555
H7 C3 1_555 1_555
H8 C3 1_555 1_555
H9 C3 1_555 1_555
C4 N2 1_555 1_555
H10 C4 1_555 1_555
H11 C4 1_555 1_555
H12 C4 1_555 1_555
C5 N3 1_555 1_555
H13 C5 1_555 1_555
H14 C5 1_555 1_555
H15 C5 1_555 1_555
C6 N3 1_555 1_555
H16 C6 1_555 1_555
H17 C6 1_555 1_555
H18 C6 1_555 1_555
C7 O2 1_555 1_555
C8 N4 1_555 1_555
H19 C8 1_555 1_555
H20 C8 1_555 1_555
H21 C8 1_555 1_555
C9 N4 1_555 1_555
H22 C9 1_555 1_555
H23 C9 1_555 1_555
H24 C9 1_555 1_555
C10 O4 1_555 1_555
C11 N5 1_555 1_555
H25 C11 1_555 1_555
H26 C11 1_555 1_555
H27 C11 1_555 1_555
C12 N5 1_555 1_555
H28 C12 1_555 1_555
H29 C12 1_555 1_555
H30 C12 1_555 1_555
C13 O6 1_555 1_555
C14 N6 1_555 1_555
H31 C14 1_555 1_555
H32 C14 1_555 1_555
H33 C14 1_555 1_555
C15 N6 1_555 1_555
H34 C15 1_555 1_555
H35 C15 1_555 1_555
H36 C15 1_555 1_555
O2B Mg1 1_555 1_555
Mg2B O2B 1_555 1_555
O1B Mg2B 1_555 1_555
P1B O1B 1_555 1_555
N1B P1B 1_555 1_555
C1B N1B 1_555 1_555
H1B C1B 1_555 1_555
H2B C1B 1_555 1_555
H3B C1B 1_555 1_555
C2B N1B 1_555 1_555
H4B C2B 1_555 1_555
H5B C2B 1_555 1_555
H6B C2B 1_555 1_555
N2B P1B 1_555 1_555
C3B N2B 1_555 1_555
H7B C3B 1_555 1_555
H8B C3B 1_555 1_555
H9B C3B 1_555 1_555
C4B N2B 1_555 1_555
H10B C4B 1_555 1_555
H11B C4B 1_555 1_555
H12B C4B 1_555 1_555
N3B P1B 1_555 1_555
C5B N3B 1_555 1_555
H13B C5B 1_555 1_555
H14B C5B 1_555 1_555
H15B C5B 1_555 1_555
C6B N3B 1_555 1_555
H16B C6B 1_555 1_555
H17B C6B 1_555 1_555
H18B C6B 1_555 1_555
O3B Mg2B 1_555 1_555
C7B O2B 1_555 1_555
N4B C7B 1_555 1_555
C8B N4B 1_555 1_555
H19B C8B 1_555 1_555
H20B C8B 1_555 1_555
H21B C8B 1_555 1_555
C9B N4B 1_555 1_555
H22B C9B 1_555 1_555
H23B C9B 1_555 1_555
H24B C9B 1_555 1_555
O5B Mg2B 1_555 1_555
C10B O5B 1_555 1_555
O4B Mg1 1_555 1_555
O6B Mg1 1_555 1_555
C13B O6B 1_555 1_555
O7B Mg2B 1_555 1_555
N6B C13B 1_555 1_555
C14B N6B 1_555 1_555
H31B C14B 1_555 1_555
H32B C14B 1_555 1_555
H33B C14B 1_555 1_555
C15B N6B 1_555 1_555
H34B C15B 1_555 1_555
H35B C15B 1_555 1_555
H36B C15B 1_555 1_555
N5B C10B 1_555 1_555
C11B N5B 1_555 1_555
H25B C11B 1_555 1_555
H26B C11B 1_555 1_555
H27B C11B 1_555 1_555
C12B N5B 1_555 1_555
H28B C12B 1_555 1_555
H29B C12B 1_555 1_555
H30B C12B 1_555 1_555
O3 C7 1_555 1_555
O5 C10 1_555 1_555
O7 C13 1_555 1_555
O3B C7B 1_555 1_555
C10B O4B 1_555 1_555
C13B O7B 1_555 1_555

#END
