
#######################################################################
#
#                 Cambridge Crystallographic Data Centre
#                                CCDC 
#
#######################################################################
#
# If this CIF has been generated from an entry in the Cambridge 
# Structural Database, then it will include bibliographic, chemical, 
# crystal, experimental, refinement or atomic coordinate data resulting 
# from the CCDC's data processing and validation procedures.
#
#######################################################################

data_QESJUT
_chemical_formula_moiety         'C156 H120 Mg6 N12 O24,C4 H8 O1'
_chemical_name_systematic        
"hexakis(\m~3~-N,N-Diphenylcarbamato-O,O,O')-hexakis(\m~2~-N,N-diphenylcarbamato-O,O')-hexa-magnesium tetrahydrofuran solvate"
_symmetry_cell_setting           triclinic
_symmetry_space_group_name_H-M   'P -1'
_symmetry_Int_Tables_number      2
_space_group_name_Hall           '-P 1'
loop_
_symmetry_equiv_pos_site_id
_symmetry_equiv_pos_as_xyz
1 x,y,z
2 -x,-y,-z
_cell_length_a                   15.4528(6)
_cell_length_b                   15.5306(6)
_cell_length_c                   16.7324(6)
_cell_angle_alpha                103.826(1)
_cell_angle_beta                 103.406(1)
_cell_angle_gamma                109.074(1)
_cell_volume                     3468.66
_exptl_crystal_colour            colorless
_exptl_crystal_description       plate
_chemical_melting_point          'decomposes above 49 deg.C'
_cell_formula_units_Z            1
_chemical_properties_physical    'extremely air-sensitive and hygroscopic'
_exptl_crystal_recrystallization_method toluene
loop_
_atom_site_label
_atom_site_type_symbol
_atom_site_fract_x
_atom_site_fract_y
_atom_site_fract_z
O13 O 0.5356(17) -0.5313(18) 0.0113(14)
C79 C 0.4192(17) -0.5683(18) -0.0337(14)
O13A O 0.4644(17) -0.4687(18) -0.0113(14)
C79A C 0.5808(17) -0.4317(18) 0.0337(14)
Mg1 Mg 0.30656(10) -0.17153(11) 0.36298(10)
Mg2 Mg 0.36778(9) 0.06359(10) 0.37204(9)
Mg3 Mg 0.38517(10) -0.15089(11) 0.57535(9)
O1 O 0.3186(2) -0.1005(2) 0.4872(2)
O2 O 0.3226(2) 0.0402(2) 0.4736(2)
O3 O 0.1901(2) -0.1519(2) 0.3037(2)
O4 O 0.2269(2) -0.0024(2) 0.2965(2)
O5 O 0.4100(2) 0.1128(2) 0.2813(2)
O6 O 0.4272(2) -0.1867(3) 0.6797(2)
O7 O 0.3938(2) -0.0583(2) 0.3362(2)
O8 O 0.4514(2) -0.0087(2) 0.6566(2)
O9 O 0.4226(2) -0.2090(2) 0.3888(2)
O10 O 0.4978(2) -0.1541(2) 0.5334(2)
O11 O 0.2238(2) -0.3012(2) 0.3617(2)
O12 O 0.2952(2) -0.2880(2) 0.4997(2)
N1 N 0.2316(3) -0.0298(3) 0.5461(3)
N2 N 0.0724(3) -0.1133(3) 0.2333(3)
N3 N 0.5228(3) -0.1835(4) 0.8054(3)
N4 N 0.4440(3) -0.1268(3) 0.2319(2)
N5 N 0.5240(3) -0.2707(3) 0.4476(2)
N6 N 0.1877(3) -0.4336(3) 0.4024(3)
C1 C 0.2945(3) -0.0279(3) 0.5004(3)
C2 C 0.1698(3) -0.0885(4) 0.2810(3)
C3 C 0.5126(3) -0.1593(4) 0.7293(3)
C4 C 0.4650(3) -0.0546(3) 0.3079(3)
C5 C 0.4790(3) -0.2092(3) 0.4556(3)
C6 C 0.2387(3) -0.3338(4) 0.4228(4)
C7 C 0.1945(4) -0.1101(4) 0.5768(4)
C8 C 0.2430(4) -0.1112(5) 0.6556(5)
H1 H 0.3035(4) -0.0587(5) 0.6907(5)
C9 C 0.2077(6) -0.1847(6) 0.6856(5)
H2 H 0.2441(6) -0.1850(6) 0.7397(5)
C10 C 0.1182(6) -0.2590(6) 0.6359(6)
H3 H 0.0893(6) -0.3094(6) 0.6565(6)
C11 C 0.0726(7) -0.2579(7) 0.5566(8)
H4 H 0.0125(7) -0.3104(7) 0.5205(8)
C12 C 0.1092(5) -0.1850(6) 0.5272(6)
H5 H 0.0748(5) -0.1867(6) 0.4714(6)
C13 C 0.1943(4) 0.0427(4) 0.5574(5)
C14 C 0.2148(6) 0.1021(6) 0.6407(6)
H6 H 0.2535(6) 0.0937(6) 0.6888(6)
C15 C 0.1803(7) 0.1742(7) 0.6559(7)
H7 H 0.1957(7) 0.2159(7) 0.7136(7)
C16 C 0.1231(6) 0.1834(6) 0.5851(9)
H8 H 0.0992(6) 0.2327(6) 0.5942(9)
C17 C 0.0994(6) 0.1220(7) 0.5001(8)
H9 H 0.0597(6) 0.1296(7) 0.4520(8)
C18 C 0.1343(5) 0.0497(6) 0.4864(5)
H10 H 0.1172(5) 0.0059(6) 0.4292(5)
C19 C -0.0009(4) -0.2100(5) 0.2033(5)
C20 C -0.0079(5) -0.2685(6) 0.2514(5)
H11 H 0.0399(5) -0.2477(6) 0.3072(5)
C21 C -0.0848(7) -0.3593(7) 0.2199(8)
H12 H -0.0912(7) -0.3990(7) 0.2552(8)
C22 C -0.1508(9) -0.3910(9) 0.1382(11)
H13 H -0.2041(9) -0.4523(9) 0.1172(11)
C23 C -0.1410(10) -0.3352(10) 0.0863(10)
H14 H -0.1842(10) -0.3583(10) 0.0279(10)
C24 C -0.0667(7) -0.2448(7) 0.1215(7)
H15 H -0.0608(7) -0.2043(7) 0.0868(7)
C25 C 0.0403(4) -0.0397(4) 0.2166(4)
C26 C -0.0262(5) -0.0224(7) 0.2515(6)
H16 H -0.0494(5) -0.0578(7) 0.2867(6)
C27 C -0.0600(7) 0.0462(8) 0.2363(7)
H17 H -0.1071(7) 0.0576(8) 0.2600(7)
C28 C -0.0254(7) 0.0962(7) 0.1874(7)
H18 H -0.0495(7) 0.1426(7) 0.1758(7)
C29 C 0.0430(5) 0.0825(6) 0.1541(5)
H19 H 0.0681(5) 0.1203(6) 0.1212(5)
C30 C 0.0761(4) 0.0125(5) 0.1688(4)
H20 H 0.1235(4) 0.0016(5) 0.1453(4)
C31 C 0.6177(4) -0.1597(7) 0.8655(4)
C32 C 0.6808(7) -0.0673(9) 0.9066(6)
H21 H 0.6631(7) -0.0185(9) 0.8919(6)
C33 C 0.7722(8) -0.0379(13) 0.9706(8)
H22 H 0.8132(8) 0.0284(13) 1.0031(8)
C34 C 0.7978(9) -0.1129(18) 0.9827(8)
H23 H 0.8601(9) -0.0981(18) 1.0221(8)
C35 C 0.7364(11) -0.2051(15) 0.9398(7)
H24 H 0.7550(11) -0.2553(15) 0.9496(7)
C36 C 0.6446(7) -0.2290(9) 0.8805(5)
H25 H 0.6013(7) -0.2951(9) 0.8508(5)
C37 C 0.4397(4) -0.2283(5) 0.8290(4)
C38 C 0.3635(5) -0.3128(6) 0.7741(4)
H26 H 0.3641(5) -0.3451(6) 0.7185(4)
C39 C 0.2839(6) -0.3512(7) 0.8015(6)
H27 H 0.2292(6) -0.4087(7) 0.7635(6)
C40 C 0.2860(6) -0.3054(8) 0.8826(6)
H28 H 0.2326(6) -0.3319(8) 0.9011(6)
C41 C 0.3630(7) -0.2225(8) 0.9378(6)
H29 H 0.3636(7) -0.1913(8) 0.9943(6)
C42 C 0.4402(6) -0.1844(7) 0.9106(5)
H30 H 0.4946(6) -0.1268(7) 0.9490(5)
C43 C 0.5192(5) -0.1237(6) 0.1947(5)
C44 C 0.5489(7) -0.0553(9) 0.1581(5)
H31 H 0.5162(7) -0.0132(9) 0.1570(5)
C45 C 0.6204(12) -0.0414(18) 0.1234(8)
H32 H 0.6438(12) 0.0129(18) 0.1055(8)
C46 C 0.6563(15) -0.1100(26) 0.1157(13)
H33 H 0.7041(15) -0.1074(26) 0.0883(13)
C47 C 0.6253(17) -0.1803(20) 0.1459(18)
H34 H 0.6527(17) -0.2271(20) 0.1409(18)
C48 C 0.5511(11) -0.1901(13) 0.1867(10)
H35 H 0.5277(11) -0.2429(13) 0.2063(10)
C49 C 0.3467(5) -0.1941(5) 0.1821(4)
C50 C 0.3114(10) -0.2872(6) 0.1778(7)
H36 H 0.3518(10) -0.3060(6) 0.2158(7)
C51 C 0.2255(11) -0.3546(9) 0.1256(9)
H37 H 0.2096(11) -0.4210(9) 0.1189(9)
C52 C 0.1622(8) -0.3273(7) 0.0829(6)
H38 H 0.1002(8) -0.3745(7) 0.0441(6)
C53 C 0.1847(6) -0.2343(7) 0.0940(5)
H39 H 0.1363(6) -0.2139(7) 0.0695(5)
C54 C 0.2777(5) -0.1679(6) 0.1409(5)
H40 H 0.2946(5) -0.1021(6) 0.1449(5)
C55 C 0.5010(5) -0.3434(5) 0.3653(4)
C56 C 0.5786(7) -0.3435(7) 0.3350(5)
H41 H 0.6435(7) -0.2985(7) 0.3684(5)
C57 C 0.5564(10) -0.4123(10) 0.2541(7)
H42 H 0.6070(10) -0.4120(10) 0.2309(7)
C58 C 0.4615(11) -0.4817(8) 0.2060(6)
H43 H 0.4485(11) -0.5284(8) 0.1514(6)
C59 C 0.3865(9) -0.4820(6) 0.2386(6)
H44 H 0.3214(9) -0.5275(6) 0.2068(6)
C60 C 0.4103(6) -0.4127(5) 0.3200(4)
H45 H 0.3605(6) -0.4144(5) 0.3447(4)
C61 C 0.5776(4) -0.2831(4) 0.5255(3)
C62 C 0.6780(4) -0.2317(5) 0.5619(4)
H46 H 0.7100(4) -0.1896(5) 0.5351(4)
C63 C 0.7320(5) -0.2394(6) 0.6343(5)
H47 H 0.8006(5) -0.2041(6) 0.6573(5)
C64 C 0.6858(7) -0.2991(7) 0.6738(5)
H48 H 0.7224(7) -0.3067(7) 0.7237(5)
C65 C 0.5844(8) -0.3489(7) 0.6400(6)
H49 H 0.5520(8) -0.3881(7) 0.6686(6)
C66 C 0.5313(6) -0.3414(6) 0.5657(5)
H50 H 0.4627(6) -0.3766(6) 0.5423(5)
C67 C 0.1987(4) -0.4743(4) 0.4708(4)
C68 C 0.2709(9) -0.5049(10) 0.4895(8)
H51 H 0.3163(9) -0.4963(10) 0.4592(8)
C69 C 0.2795(12) -0.5494(10) 0.5531(8)
H52 H 0.3273(12) -0.5751(10) 0.5641(8)
C70 C 0.2140(11) -0.5541(7) 0.5999(7)
H53 H 0.2163(11) -0.5851(7) 0.6424(7)
C71 C 0.1499(7) -0.5162(10) 0.5858(6)
H54 H 0.1104(7) -0.5150(10) 0.6215(6)
C72 C 0.1395(6) -0.4781(7) 0.5191(5)
H55 H 0.0902(6) -0.4545(7) 0.5072(5)
C73 C 0.1274(4) -0.4976(4) 0.3160(4)
C74 C 0.0771(12) -0.4769(7) 0.2585(8)
H56 H 0.0767(12) -0.4140(7) 0.2736(8)
C75 C 0.0215(11) -0.5427(8) 0.1730(9)
H57 H -0.0073(11) -0.5188(8) 0.1316(9)
C76 C 0.0081(8) -0.6259(6) 0.1490(7)
H58 H -0.0376(8) -0.6719(6) 0.0944(7)
C77 C 0.0637(22) -0.6473(9) 0.2064(10)
H59 H 0.0682(22) -0.7081(9) 0.1892(10)
C78 C 0.1172(17) -0.5821(7) 0.2937(8)
H60 H 0.1460(17) -0.6051(7) 0.3359(8)
O5A O 0.5900(2) -0.1128(2) 0.7187(2)
Mg2A Mg 0.63222(9) -0.06359(10) 0.62796(9)
O2A O 0.6774(2) -0.0402(2) 0.5264(2)
C1A C 0.7055(3) 0.0279(3) 0.4996(3)
O1A O 0.6814(2) 0.1005(2) 0.5128(2)
Mg1A Mg 0.69344(10) 0.17153(11) 0.63702(10)
O3A O 0.8099(2) 0.1519(2) 0.6963(2)
C2A C 0.8302(3) 0.0885(4) 0.7190(3)
O4A O 0.7731(2) 0.0024(2) 0.7035(2)
O7A O 0.6062(2) 0.0583(2) 0.6638(2)
O9A O 0.5774(2) 0.2090(2) 0.6112(2)
C5A C 0.5210(3) 0.2092(3) 0.5444(3)
O10A O 0.5022(2) 0.1541(2) 0.4666(2)
C3A C 0.4874(3) 0.1593(4) 0.2707(3)
O6A O 0.5728(2) 0.1867(3) 0.3203(2)
Mg3A Mg 0.61483(10) 0.15089(11) 0.42465(9)
O8A O 0.5486(2) 0.0087(2) 0.3434(2)
O12A O 0.7048(2) 0.2880(2) 0.5003(2)
C6A C 0.7613(3) 0.3338(4) 0.5772(4)
O11A O 0.7762(2) 0.3012(2) 0.6383(2)
N6A N 0.8123(3) 0.4336(3) 0.5976(3)
C67A C 0.8013(4) 0.4743(4) 0.5292(4)
C68A C 0.7291(9) 0.5049(10) 0.5105(8)
H51A H 0.6837(9) 0.4963(10) 0.5408(8)
C69A C 0.7205(12) 0.5494(10) 0.4469(8)
H52A H 0.6727(12) 0.5751(10) 0.4359(8)
C70A C 0.7860(11) 0.5541(7) 0.4001(7)
H53A H 0.7837(11) 0.5851(7) 0.3576(7)
C71A C 0.8501(7) 0.5162(10) 0.4142(6)
H54A H 0.8896(7) 0.5150(10) 0.3785(6)
C72A C 0.8605(6) 0.4781(7) 0.4809(5)
H55A H 0.9098(6) 0.4545(7) 0.4928(5)
C73A C 0.8726(4) 0.4976(4) 0.6840(4)
C74A C 0.9229(12) 0.4769(7) 0.7415(8)
H56A H 0.9233(12) 0.4140(7) 0.7264(8)
C75A C 0.9785(11) 0.5427(8) 0.8270(9)
H57A H 1.0073(11) 0.5188(8) 0.8684(9)
C76A C 0.9919(8) 0.6259(6) 0.8510(7)
H58A H 1.0376(8) 0.6719(6) 0.9056(7)
C77A C 0.9363(22) 0.6473(9) 0.7936(10)
H59A H 0.9318(22) 0.7081(9) 0.8108(10)
C78A C 0.8828(17) 0.5821(7) 0.7063(8)
H60A H 0.8540(17) 0.6051(7) 0.6641(8)
N3A N 0.4772(3) 0.1835(4) 0.1946(3)
C31A C 0.3823(4) 0.1597(7) 0.1345(4)
C32A C 0.3192(7) 0.0673(9) 0.0934(6)
H21A H 0.3369(7) 0.0185(9) 0.1081(6)
C33A C 0.2278(8) 0.0379(13) 0.0294(8)
H22A H 0.1868(8) -0.0284(13) -0.0031(8)
C34A C 0.2022(9) 0.1129(18) 0.0173(8)
H23A H 0.1399(9) 0.0981(18) -0.0221(8)
C35A C 0.2636(11) 0.2051(15) 0.0602(7)
H24A H 0.2450(11) 0.2553(15) 0.0504(7)
C36A C 0.3554(7) 0.2290(9) 0.1195(5)
H25A H 0.3987(7) 0.2951(9) 0.1492(5)
C37A C 0.5603(4) 0.2283(5) 0.1710(4)
C38A C 0.6365(5) 0.3128(6) 0.2259(4)
H26A H 0.6359(5) 0.3451(6) 0.2815(4)
C39A C 0.7161(6) 0.3512(7) 0.1985(6)
H27A H 0.7708(6) 0.4087(7) 0.2365(6)
C40A C 0.7140(6) 0.3054(8) 0.1174(6)
H28A H 0.7674(6) 0.3319(8) 0.0989(6)
C41A C 0.6370(7) 0.2225(8) 0.0622(6)
H29A H 0.6364(7) 0.1913(8) 0.0057(6)
C42A C 0.5598(6) 0.1844(7) 0.0894(5)
H30A H 0.5054(6) 0.1268(7) 0.0510(5)
C4A C 0.5350(3) 0.0546(3) 0.6921(3)
N4A N 0.5560(3) 0.1268(3) 0.7681(2)
C43A C 0.4808(5) 0.1237(6) 0.8053(5)
C44A C 0.4511(7) 0.0553(9) 0.8419(5)
H31A H 0.4838(7) 0.0132(9) 0.8430(5)
C45A C 0.3796(12) 0.0414(18) 0.8766(8)
H32A H 0.3562(12) -0.0129(18) 0.8945(8)
C46A C 0.3437(15) 0.1100(26) 0.8843(13)
H33A H 0.2959(15) 0.1074(26) 0.9117(13)
C47A C 0.3747(17) 0.1803(20) 0.8541(18)
H34A H 0.3473(17) 0.2271(20) 0.8591(18)
C48A C 0.4489(11) 0.1901(13) 0.8133(10)
H35A H 0.4723(11) 0.2429(13) 0.7937(10)
C49A C 0.6533(5) 0.1941(5) 0.8179(4)
C50A C 0.6886(10) 0.2872(6) 0.8222(7)
H36A H 0.6482(10) 0.3060(6) 0.7842(7)
C51A C 0.7745(11) 0.3546(9) 0.8744(9)
H37A H 0.7904(11) 0.4210(9) 0.8811(9)
C52A C 0.8378(8) 0.3273(7) 0.9171(6)
H38A H 0.8998(8) 0.3745(7) 0.9559(6)
C53A C 0.8153(6) 0.2343(7) 0.9060(5)
H39A H 0.8637(6) 0.2139(7) 0.9305(5)
C54A C 0.7223(5) 0.1679(6) 0.8591(5)
H40A H 0.7054(5) 0.1021(6) 0.8551(5)
N5A N 0.4760(3) 0.2707(3) 0.5524(2)
C55A C 0.4990(5) 0.3434(5) 0.6347(4)
C56A C 0.4214(7) 0.3435(7) 0.6650(5)
H41A H 0.3565(7) 0.2985(7) 0.6316(5)
C57A C 0.4436(10) 0.4123(10) 0.7459(7)
H42A H 0.3930(10) 0.4120(10) 0.7691(7)
C58A C 0.5385(11) 0.4817(8) 0.7940(6)
H43A H 0.5515(11) 0.5284(8) 0.8486(6)
C59A C 0.6135(9) 0.4820(6) 0.7614(6)
H44A H 0.6786(9) 0.5275(6) 0.7932(6)
C60A C 0.5897(6) 0.4127(5) 0.6800(4)
H45A H 0.6395(6) 0.4144(5) 0.6553(4)
C61A C 0.4224(4) 0.2831(4) 0.4745(3)
C62A C 0.3220(4) 0.2317(5) 0.4381(4)
H46A H 0.2900(4) 0.1896(5) 0.4649(4)
C63A C 0.2680(5) 0.2394(6) 0.3657(5)
H47A H 0.1994(5) 0.2041(6) 0.3427(5)
C64A C 0.3142(7) 0.2991(7) 0.3262(5)
H48A H 0.2776(7) 0.3067(7) 0.2763(5)
C65A C 0.4156(8) 0.3489(7) 0.3600(6)
H49A H 0.4480(8) 0.3881(7) 0.3314(6)
C66A C 0.4687(6) 0.3414(6) 0.4343(5)
H50A H 0.5373(6) 0.3766(6) 0.4577(5)
N2A N 0.9276(3) 0.1133(3) 0.7667(3)
C19A C 1.0009(4) 0.2100(5) 0.7967(5)
C20A C 1.0079(5) 0.2685(6) 0.7486(5)
H11A H 0.9601(5) 0.2477(6) 0.6928(5)
C21A C 1.0848(7) 0.3593(7) 0.7801(8)
H12A H 1.0912(7) 0.3990(7) 0.7448(8)
C22A C 1.1508(9) 0.3910(9) 0.8618(11)
H13A H 1.2041(9) 0.4523(9) 0.8828(11)
C23A C 1.1410(10) 0.3352(10) 0.9137(10)
H14A H 1.1842(10) 0.3583(10) 0.9721(10)
C24A C 1.0667(7) 0.2448(7) 0.8785(7)
H15A H 1.0608(7) 0.2043(7) 0.9132(7)
C25A C 0.9597(4) 0.0397(4) 0.7834(4)
C26A C 1.0262(5) 0.0224(7) 0.7485(6)
H16A H 1.0494(5) 0.0578(7) 0.7133(6)
C27A C 1.0600(7) -0.0462(8) 0.7637(7)
H17A H 1.1071(7) -0.0576(8) 0.7400(7)
C28A C 1.0254(7) -0.0962(7) 0.8126(7)
H18A H 1.0495(7) -0.1426(7) 0.8242(7)
C29A C 0.9570(5) -0.0825(6) 0.8459(5)
H19A H 0.9319(5) -0.1203(6) 0.8788(5)
C30A C 0.9239(4) -0.0125(5) 0.8312(4)
H20A H 0.8765(4) -0.0016(5) 0.8547(4)
N1A N 0.7684(3) 0.0298(3) 0.4539(3)
C7A C 0.8055(4) 0.1101(4) 0.4232(4)
C8A C 0.7570(4) 0.1112(5) 0.3444(5)
H1A H 0.6965(4) 0.0587(5) 0.3093(5)
C9A C 0.7923(6) 0.1847(6) 0.3144(5)
H2A H 0.7559(6) 0.1850(6) 0.2603(5)
C10A C 0.8818(6) 0.2590(6) 0.3641(6)
H3A H 0.9107(6) 0.3094(6) 0.3435(6)
C11A C 0.9274(7) 0.2579(7) 0.4434(8)
H4A H 0.9875(7) 0.3104(7) 0.4795(8)
C12A C 0.8908(5) 0.1850(6) 0.4728(6)
H5A H 0.9252(5) 0.1867(6) 0.5286(6)
C13A C 0.8057(4) -0.0427(4) 0.4426(5)
C14A C 0.7852(6) -0.1021(6) 0.3593(6)
H6A H 0.7465(6) -0.0937(6) 0.3112(6)
C15A C 0.8197(7) -0.1742(7) 0.3441(7)
H7A H 0.8043(7) -0.2159(7) 0.2864(7)
C16A C 0.8769(6) -0.1834(6) 0.4149(9)
H8A H 0.9008(6) -0.2327(6) 0.4058(9)
C17A C 0.9006(6) -0.1220(7) 0.4999(8)
H9A H 0.9403(6) -0.1296(7) 0.5480(8)
C18A C 0.8657(5) -0.0497(6) 0.5136(5)
H10A H 0.8828(5) -0.0059(6) 0.5708(5)
C80? C 0.5053(25) -0.6226(26) 0.0049(21)
C81? C 0.5961(23) -0.5554(23) 0.0362(19)
loop_
_geom_bond_atom_site_label_1
_geom_bond_atom_site_label_2
_geom_bond_site_symmetry_1
_geom_bond_site_symmetry_2
Mg1 O1 1_555 1_555
Mg2 O2 1_555 1_555
Mg3 O1 1_555 1_555
O1 C1 1_555 1_555
O2 C1 1_555 1_555
O3 Mg1 1_555 1_555
O4 Mg2 1_555 1_555
O5 Mg2 1_555 1_555
O6 Mg3 1_555 1_555
O7 Mg1 1_555 1_555
O8 Mg3 1_555 1_555
O9 Mg1 1_555 1_555
O10 Mg3 1_555 1_555
O11 Mg1 1_555 1_555
O12 Mg3 1_555 1_555
N1 C1 1_555 1_555
N2 C2 1_555 1_555
N3 C3 1_555 1_555
N4 C4 1_555 1_555
N5 C5 1_555 1_555
N6 C6 1_555 1_555
C2 O3 1_555 1_555
C3 O6 1_555 1_555
C4 O7 1_555 1_555
C5 O9 1_555 1_555
C6 O11 1_555 1_555
C7 N1 1_555 1_555
C8 C7 1_555 1_555
H1 C8 1_555 1_555
C9 C8 1_555 1_555
H2 C9 1_555 1_555
C10 C9 1_555 1_555
H3 C10 1_555 1_555
C11 C10 1_555 1_555
H4 C11 1_555 1_555
C12 C7 1_555 1_555
H5 C12 1_555 1_555
C13 N1 1_555 1_555
C14 C13 1_555 1_555
H6 C14 1_555 1_555
C15 C14 1_555 1_555
H7 C15 1_555 1_555
C16 C15 1_555 1_555
H8 C16 1_555 1_555
C17 C16 1_555 1_555
H9 C17 1_555 1_555
C18 C13 1_555 1_555
H10 C18 1_555 1_555
C19 N2 1_555 1_555
C20 C19 1_555 1_555
H11 C20 1_555 1_555
C21 C20 1_555 1_555
H12 C21 1_555 1_555
C22 C21 1_555 1_555
H13 C22 1_555 1_555
C23 C22 1_555 1_555
H14 C23 1_555 1_555
C24 C19 1_555 1_555
H15 C24 1_555 1_555
C25 N2 1_555 1_555
C26 C25 1_555 1_555
H16 C26 1_555 1_555
C27 C26 1_555 1_555
H17 C27 1_555 1_555
C28 C27 1_555 1_555
H18 C28 1_555 1_555
C29 C28 1_555 1_555
H19 C29 1_555 1_555
C30 C25 1_555 1_555
H20 C30 1_555 1_555
C31 N3 1_555 1_555
C32 C31 1_555 1_555
H21 C32 1_555 1_555
C33 C32 1_555 1_555
H22 C33 1_555 1_555
C34 C33 1_555 1_555
H23 C34 1_555 1_555
C35 C34 1_555 1_555
H24 C35 1_555 1_555
C36 C31 1_555 1_555
H25 C36 1_555 1_555
C37 N3 1_555 1_555
C38 C37 1_555 1_555
H26 C38 1_555 1_555
C39 C38 1_555 1_555
H27 C39 1_555 1_555
C40 C39 1_555 1_555
H28 C40 1_555 1_555
C41 C40 1_555 1_555
H29 C41 1_555 1_555
C42 C37 1_555 1_555
H30 C42 1_555 1_555
C43 N4 1_555 1_555
C44 C43 1_555 1_555
H31 C44 1_555 1_555
C45 C44 1_555 1_555
H32 C45 1_555 1_555
C46 C45 1_555 1_555
H33 C46 1_555 1_555
C47 C46 1_555 1_555
H34 C47 1_555 1_555
C48 C43 1_555 1_555
H35 C48 1_555 1_555
C49 N4 1_555 1_555
C50 C49 1_555 1_555
H36 C50 1_555 1_555
C51 C50 1_555 1_555
H37 C51 1_555 1_555
C52 C51 1_555 1_555
H38 C52 1_555 1_555
C53 C52 1_555 1_555
H39 C53 1_555 1_555
C54 C49 1_555 1_555
H40 C54 1_555 1_555
C55 N5 1_555 1_555
C56 C55 1_555 1_555
H41 C56 1_555 1_555
C57 C56 1_555 1_555
H42 C57 1_555 1_555
C58 C57 1_555 1_555
H43 C58 1_555 1_555
C59 C58 1_555 1_555
H44 C59 1_555 1_555
C60 C55 1_555 1_555
H45 C60 1_555 1_555
C61 N5 1_555 1_555
C62 C61 1_555 1_555
H46 C62 1_555 1_555
C63 C62 1_555 1_555
H47 C63 1_555 1_555
C64 C63 1_555 1_555
H48 C64 1_555 1_555
C65 C64 1_555 1_555
H49 C65 1_555 1_555
C66 C61 1_555 1_555
H50 C66 1_555 1_555
C67 N6 1_555 1_555
C68 C67 1_555 1_555
H51 C68 1_555 1_555
C69 C68 1_555 1_555
H52 C69 1_555 1_555
C70 C69 1_555 1_555
H53 C70 1_555 1_555
C71 C70 1_555 1_555
H54 C71 1_555 1_555
C72 C67 1_555 1_555
H55 C72 1_555 1_555
C73 N6 1_555 1_555
C74 C73 1_555 1_555
H56 C74 1_555 1_555
C75 C74 1_555 1_555
H57 C75 1_555 1_555
C76 C75 1_555 1_555
H58 C76 1_555 1_555
C77 C76 1_555 1_555
H59 C77 1_555 1_555
C78 C73 1_555 1_555
H60 C78 1_555 1_555
O13 C79 1_555 1_555
C79 O13A 1_555 1_555
O5A C3 1_555 1_555
Mg2A O10 1_555 1_555
O2A Mg2A 1_555 1_555
C1A O2A 1_555 1_555
O1A C1A 1_555 1_555
Mg1A O1A 1_555 1_555
O3A Mg1A 1_555 1_555
C2A O3A 1_555 1_555
O4A Mg2A 1_555 1_555
O7A Mg2A 1_555 1_555
O9A Mg1A 1_555 1_555
C5A O9A 1_555 1_555
O10A Mg2 1_555 1_555
C3A O5 1_555 1_555
O6A C3A 1_555 1_555
Mg3A O1A 1_555 1_555
O8A C4 1_555 1_555
O12A Mg3A 1_555 1_555
C6A O12A 1_555 1_555
O11A Mg1A 1_555 1_555
N6A C6A 1_555 1_555
C67A N6A 1_555 1_555
C68A C67A 1_555 1_555
H51A C68A 1_555 1_555
C69A C68A 1_555 1_555
H52A C69A 1_555 1_555
C70A C69A 1_555 1_555
H53A C70A 1_555 1_555
C71A C70A 1_555 1_555
H54A C71A 1_555 1_555
C72A C67A 1_555 1_555
H55A C72A 1_555 1_555
C73A N6A 1_555 1_555
C74A C73A 1_555 1_555
H56A C74A 1_555 1_555
C75A C74A 1_555 1_555
H57A C75A 1_555 1_555
C76A C75A 1_555 1_555
H58A C76A 1_555 1_555
C77A C76A 1_555 1_555
H59A C77A 1_555 1_555
C78A C73A 1_555 1_555
H60A C78A 1_555 1_555
N3A C3A 1_555 1_555
C31A N3A 1_555 1_555
C32A C31A 1_555 1_555
H21A C32A 1_555 1_555
C33A C32A 1_555 1_555
H22A C33A 1_555 1_555
C34A C33A 1_555 1_555
H23A C34A 1_555 1_555
C35A C34A 1_555 1_555
H24A C35A 1_555 1_555
C36A C31A 1_555 1_555
H25A C36A 1_555 1_555
C37A N3A 1_555 1_555
C38A C37A 1_555 1_555
H26A C38A 1_555 1_555
C39A C38A 1_555 1_555
H27A C39A 1_555 1_555
C40A C39A 1_555 1_555
H28A C40A 1_555 1_555
C41A C40A 1_555 1_555
H29A C41A 1_555 1_555
C42A C37A 1_555 1_555
H30A C42A 1_555 1_555
C4A O8 1_555 1_555
N4A C4A 1_555 1_555
C43A N4A 1_555 1_555
C44A C43A 1_555 1_555
H31A C44A 1_555 1_555
C45A C44A 1_555 1_555
H32A C45A 1_555 1_555
C46A C45A 1_555 1_555
H33A C46A 1_555 1_555
C47A C46A 1_555 1_555
H34A C47A 1_555 1_555
C48A C43A 1_555 1_555
H35A C48A 1_555 1_555
C49A N4A 1_555 1_555
C50A C49A 1_555 1_555
H36A C50A 1_555 1_555
C51A C50A 1_555 1_555
H37A C51A 1_555 1_555
C52A C51A 1_555 1_555
H38A C52A 1_555 1_555
C53A C52A 1_555 1_555
H39A C53A 1_555 1_555
C54A C49A 1_555 1_555
H40A C54A 1_555 1_555
N5A C5A 1_555 1_555
C55A N5A 1_555 1_555
C56A C55A 1_555 1_555
H41A C56A 1_555 1_555
C57A C56A 1_555 1_555
H42A C57A 1_555 1_555
C58A C57A 1_555 1_555
H43A C58A 1_555 1_555
C59A C58A 1_555 1_555
H44A C59A 1_555 1_555
C60A C55A 1_555 1_555
H45A C60A 1_555 1_555
C61A N5A 1_555 1_555
C62A C61A 1_555 1_555
H46A C62A 1_555 1_555
C63A C62A 1_555 1_555
H47A C63A 1_555 1_555
C64A C63A 1_555 1_555
H48A C64A 1_555 1_555
C65A C64A 1_555 1_555
H49A C65A 1_555 1_555
C66A C61A 1_555 1_555
H50A C66A 1_555 1_555
N2A C2A 1_555 1_555
C19A N2A 1_555 1_555
C20A C19A 1_555 1_555
H11A C20A 1_555 1_555
C21A C20A 1_555 1_555
H12A C21A 1_555 1_555
C22A C21A 1_555 1_555
H13A C22A 1_555 1_555
C23A C22A 1_555 1_555
H14A C23A 1_555 1_555
C24A C19A 1_555 1_555
H15A C24A 1_555 1_555
C25A N2A 1_555 1_555
C26A C25A 1_555 1_555
H16A C26A 1_555 1_555
C27A C26A 1_555 1_555
H17A C27A 1_555 1_555
C28A C27A 1_555 1_555
H18A C28A 1_555 1_555
C29A C28A 1_555 1_555
H19A C29A 1_555 1_555
C30A C25A 1_555 1_555
H20A C30A 1_555 1_555
N1A C1A 1_555 1_555
C7A N1A 1_555 1_555
C8A C7A 1_555 1_555
H1A C8A 1_555 1_555
C9A C8A 1_555 1_555
H2A C9A 1_555 1_555
C10A C9A 1_555 1_555
H3A C10A 1_555 1_555
C11A C10A 1_555 1_555
H4A C11A 1_555 1_555
C12A C7A 1_555 1_555
H5A C12A 1_555 1_555
C13A N1A 1_555 1_555
C14A C13A 1_555 1_555
H6A C14A 1_555 1_555
C15A C14A 1_555 1_555
H7A C15A 1_555 1_555
C16A C15A 1_555 1_555
H8A C16A 1_555 1_555
C17A C16A 1_555 1_555
H9A C17A 1_555 1_555
C18A C13A 1_555 1_555
H10A C18A 1_555 1_555
O13A O13 1_555 1_555
C79A O13 1_555 1_555
Mg2 O7 1_555 1_555
O4 C2 1_555 1_555
O10 C5 1_555 1_555
O12 C6 1_555 1_555
C11 C12 1_555 1_555
C17 C18 1_555 1_555
C23 C24 1_555 1_555
C29 C30 1_555 1_555
C35 C36 1_555 1_555
C41 C42 1_555 1_555
C47 C48 1_555 1_555
C53 C54 1_555 1_555
C59 C60 1_555 1_555
C65 C66 1_555 1_555
C71 C72 1_555 1_555
C77 C78 1_555 1_555
O5A Mg2A 1_555 1_555
Mg1A O7A 1_555 1_555
C2A O4A 1_555 1_555
O7A C4A 1_555 1_555
C5A O10A 1_555 1_555
O10A Mg3A 1_555 1_555
O6A Mg3A 1_555 1_555
Mg3A O8A 1_555 1_555
C6A O11A 1_555 1_555
C71A C72A 1_555 1_555
C77A C78A 1_555 1_555
C35A C36A 1_555 1_555
C41A C42A 1_555 1_555
C47A C48A 1_555 1_555
C53A C54A 1_555 1_555
C59A C60A 1_555 1_555
C65A C66A 1_555 1_555
C23A C24A 1_555 1_555
C29A C30A 1_555 1_555
C11A C12A 1_555 1_555
C17A C18A 1_555 1_555
O13A C79A 1_555 1_555

#END
