
#######################################################################
#
#                 Cambridge Crystallographic Data Centre
#                                CCDC 
#
#######################################################################
#
# If this CIF has been generated from an entry in the Cambridge 
# Structural Database, then it will include bibliographic, chemical, 
# crystal, experimental, refinement or atomic coordinate data resulting 
# from the CCDC's data processing and validation procedures.
#
#######################################################################

data_QESKAA
_chemical_formula_moiety         'C64 H76 Mg2 N10 O10 P2,C4 H8 O1'
_chemical_name_systematic        
"tetrakis(\m~2~-N,N-Diphenylcarbamato-O,O')-bis(hexamethylphosphoramide-O)-di-magnesium tetrahydrofuran solvate"
_symmetry_cell_setting           monoclinic
_symmetry_space_group_name_H-M   'P 21/n'
_symmetry_Int_Tables_number      14
_space_group_name_Hall           '-P 2yn'
loop_
_symmetry_equiv_pos_site_id
_symmetry_equiv_pos_as_xyz
1 x,y,z
2 1/2+x,1/2-y,1/2+z
3 -x,-y,-z
4 1/2-x,1/2+y,1/2-z
_cell_length_a                   10.7465(2)
_cell_length_b                   18.7006(3)
_cell_length_c                   18.1833(2)
_cell_angle_alpha                90
_cell_angle_beta                 95.741(1)
_cell_angle_gamma                90
_cell_volume                     3635.9
_exptl_crystal_colour            colorless
_exptl_crystal_description       block
_chemical_melting_point          'decomposes above 142 deg.C'
_cell_formula_units_Z            2
_chemical_properties_physical    'extremely air-sensitive and hygroscopic'
loop_
_atom_site_label
_atom_site_type_symbol
_atom_site_fract_x
_atom_site_fract_y
_atom_site_fract_z
O6 O -0.1450(11) 0.0404(4) 0.0509(5)
H48 H -0.0280 0.0056 -0.1098
H49 H -0.0525 -0.0716 -0.0815
C37 C -0.0617(12) 0.0105(7) 0.0161(15)
H50 H -0.1031 0.0553 0.0103
H51 H -0.1077 -0.0224 0.0437
C38 C -0.0747(19) -0.0188(6) -0.0518(7)
H52 H -0.0898 -0.0691 -0.0534
H53 H -0.0745 -0.0026 -0.1015
C39 C -0.1715(11) 0.0121(6) -0.0236(11)
H54 H -0.2037 0.0511 -0.0552
H55 H -0.2397 -0.0221 -0.0231
C37B C 0.0617(12) -0.0105(7) -0.0161(15)
O6B O 0.1450(11) -0.0404(4) -0.0509(5)
H50B H 0.1031 -0.0553 -0.0103
H51B H 0.1077 0.0224 -0.0437
C39B C 0.1715(11) -0.0121(6) 0.0236(11)
C38B C 0.0747(19) 0.0188(6) 0.0518(7)
H48B H 0.0280 -0.0056 0.1098
H53B H 0.0745 0.0026 0.1015
H49B H 0.0525 0.0716 0.0815
H52B H 0.0898 0.0691 0.0534
H54B H 0.2037 -0.0511 0.0552
H55B H 0.2397 0.0221 0.0231
Mg1 Mg 0.53943(7) 0.07305(4) 0.46597(4)
P1 P 0.64063(6) 0.22667(3) 0.40631(4)
O1 O 0.5899(2) 0.08381(10) 0.57621(9)
O2 O 0.4817(2) 0.01587(10) 0.37316(10)
O3 O 0.3630(2) 0.06473(12) 0.49456(12)
O4 O 0.7143(2) 0.03232(11) 0.45370(11)
O5 O 0.5565(2) 0.16961(9) 0.43000(10)
N1 N 0.5802(2) 0.07933(11) 0.69941(11)
N2 N 0.1879(2) 0.07526(11) 0.55281(12)
N3 N 0.5537(2) 0.29446(11) 0.37626(13)
N4 N 0.7183(3) 0.20041(15) 0.33874(15)
N5 N 0.7414(2) 0.25328(14) 0.4742(2)
C1 C 0.5615(2) 0.04643(14) 0.62933(13)
C2 C 0.2848(2) 0.0334(2) 0.52953(15)
C3 C 0.6078(3) 0.15442(14) 0.70346(14)
C4 C 0.7175(3) 0.1775(2) 0.7424(2)
H1 H 0.7750(3) 0.1438(2) 0.7653(2)
C5 C 0.7438(4) 0.2506(2) 0.7480(2)
H2 H 0.8189(4) 0.2663(2) 0.7752(2)
C6 C 0.6629(5) 0.2993(2) 0.7149(2)
H3 H 0.6810(5) 0.3489(2) 0.7190(2)
C7 C 0.5540(4) 0.2762(2) 0.6751(3)
H4 H 0.4976(4) 0.3102(2) 0.6517(3)
C8 C 0.5261(3) 0.2036(2) 0.6689(2)
H5 H 0.4514(3) 0.1881(2) 0.6411(2)
C9 C 0.5571(2) 0.04237(14) 0.76501(13)
C10 C 0.4932(3) 0.0764(2) 0.8180(2)
H6 H 0.4664(3) 0.1245(2) 0.8109(2)
C11 C 0.4688(4) 0.0394(2) 0.8816(2)
H7 H 0.4254(4) 0.0629(2) 0.9177(2)
C12 C 0.5061(4) -0.0301(2) 0.8932(2)
H8 H 0.4875(4) -0.0549(2) 0.9363(2)
C13 C 0.5710(4) -0.0636(2) 0.8413(2)
H9 H 0.5979(4) -0.1117(2) 0.8489(2)
C14 C 0.5972(3) -0.0275(2) 0.7780(2)
H10 H 0.6431(3) -0.0509(2) 0.7430(2)
C15 C 0.1728(2) 0.14908(14) 0.53222(14)
C16 C 0.1657(3) 0.1698(2) 0.4587(2)
H11 H 0.1714(3) 0.1350(2) 0.4212(2)
C17 C 0.1501(3) 0.2416(2) 0.4402(2)
H12 H 0.1460(3) 0.2555(2) 0.3897(2)
C18 C 0.1405(3) 0.2928(2) 0.4936(2)
H13 H 0.1300(3) 0.3417(2) 0.4803(2)
C19 C 0.1463(3) 0.2724(2) 0.5669(2)
H14 H 0.1395(3) 0.3074(2) 0.6041(2)
C20 C 0.1622(3) 0.20090(15) 0.5864(2)
H15 H 0.1659(3) 0.18725(15) 0.6369(2)
C21 C 0.1099(2) 0.04634(13) 0.60498(14)
C22 C 0.1619(3) 0.0201(2) 0.6729(2)
H16 H 0.2500(3) 0.0201(2) 0.6849(2)
C23 C 0.0837(4) -0.0060(2) 0.7229(2)
H17 H 0.1189(4) -0.0245(2) 0.7690(2)
C24 C -0.0447(3) -0.0055(2) 0.7065(2)
H18 H -0.0976(3) -0.0228(2) 0.7414(2)
C25 C -0.0956(3) 0.0204(2) 0.6391(2)
H19 H -0.1838(3) 0.0207(2) 0.6276(2)
C26 C -0.0191(2) 0.04582(15) 0.5879(2)
H20 H -0.0548(2) 0.06289(15) 0.5413(2)
C27 C 0.5944(4) 0.3485(2) 0.3256(2)
H21 H 0.6618(4) 0.3290(2) 0.2992(2)
H22 H 0.6248(4) 0.3908(2) 0.3538(2)
H23 H 0.5238(4) 0.3620(2) 0.2900(2)
C28 C 0.4529(3) 0.3170(2) 0.4194(2)
H24 H 0.4317(3) 0.2778(2) 0.4516(2)
H25 H 0.3792(3) 0.3298(2) 0.3859(2)
H26 H 0.4802(3) 0.3586(2) 0.4496(2)
C29 C 0.6497(5) 0.1592(2) 0.2782(2)
H27 H 0.7067(5) 0.1468(2) 0.2414(2)
H28 H 0.5807(5) 0.1882(2) 0.2549(2)
H29 H 0.6163(5) 0.1154(2) 0.2983(2)
C30 C 0.8617(6) 0.1818(5) 0.3620(4)
H30 H 0.8945(6) 0.2133(5) 0.4025(4)
H31 H 0.9098(6) 0.1889(5) 0.3196(4)
H32 H 0.8690(6) 0.1319(5) 0.3783(4)
C31 C 0.7496(10) 0.3153(7) 0.5051(6)
H33 H 0.6902(10) 0.3481(7) 0.4783(6)
H34 H 0.8347(10) 0.3338(7) 0.5042(6)
H35 H 0.7301(10) 0.3111(7) 0.5565(6)
C32 C 0.8219(8) 0.1900(5) 0.5028(6)
H36 H 0.8012(8) 0.1481(5) 0.4716(6)
H37 H 0.8059(8) 0.1793(5) 0.5538(6)
H38 H 0.9105(8) 0.2019(5) 0.5015(6)
O2B O 0.5183(2) -0.01587(10) 0.62684(10)
Mg1B Mg 0.46057(7) -0.07305(4) 0.53403(4)
O1B O 0.4101(2) -0.08381(10) 0.42379(9)
C1B C 0.4385(2) -0.04643(14) 0.37067(13)
O4B O 0.2857(2) -0.03232(11) 0.54630(11)
O3B O 0.6370(2) -0.06473(12) 0.50544(12)
C2B C 0.7152(2) -0.0334(2) 0.47047(15)
N2B N 0.8121(2) -0.07526(11) 0.44719(12)
C15B C 0.8272(2) -0.14908(14) 0.46778(14)
C16B C 0.8343(3) -0.1698(2) 0.5413(2)
H11B H 0.8286(3) -0.1350(2) 0.5788(2)
C17B C 0.8499(3) -0.2416(2) 0.5598(2)
H12B H 0.8540(3) -0.2555(2) 0.6103(2)
C18B C 0.8595(3) -0.2928(2) 0.5064(2)
H13B H 0.8700(3) -0.3417(2) 0.5197(2)
C19B C 0.8537(3) -0.2724(2) 0.4331(2)
H14B H 0.8605(3) -0.3074(2) 0.3959(2)
C20B C 0.8378(3) -0.20090(15) 0.4136(2)
H15B H 0.8341(3) -0.18725(15) 0.3631(2)
C21B C 0.8901(2) -0.04634(13) 0.39502(14)
C22B C 0.8381(3) -0.0201(2) 0.3271(2)
H16B H 0.7500(3) -0.0201(2) 0.3151(2)
C23B C 0.9163(4) 0.0060(2) 0.2771(2)
H17B H 0.8811(4) 0.0245(2) 0.2310(2)
C24B C 1.0447(3) 0.0055(2) 0.2935(2)
H18B H 1.0976(3) 0.0228(2) 0.2586(2)
C25B C 1.0956(3) -0.0204(2) 0.3609(2)
H19B H 1.1838(3) -0.0207(2) 0.3724(2)
C26B C 1.0191(2) -0.04582(15) 0.4121(2)
H20B H 1.0548(2) -0.06289(15) 0.4587(2)
O5B O 0.4435(2) -0.16961(9) 0.57000(10)
P1B P 0.35937(6) -0.22667(3) 0.59369(4)
N3B N 0.4463(2) -0.29446(11) 0.62374(13)
C27B C 0.4056(4) -0.3485(2) 0.6744(2)
H21B H 0.3382(4) -0.3290(2) 0.7008(2)
H22B H 0.3752(4) -0.3908(2) 0.6462(2)
H23B H 0.4762(4) -0.3620(2) 0.7100(2)
C28B C 0.5471(3) -0.3170(2) 0.5806(2)
H24B H 0.5683(3) -0.2778(2) 0.5484(2)
H25B H 0.6208(3) -0.3298(2) 0.6141(2)
H26B H 0.5198(3) -0.3586(2) 0.5504(2)
N4B N 0.2817(3) -0.20041(15) 0.66126(15)
C29B C 0.3503(5) -0.1592(2) 0.7218(2)
H27B H 0.2933(5) -0.1468(2) 0.7586(2)
H28B H 0.4193(5) -0.1882(2) 0.7451(2)
H29B H 0.3837(5) -0.1154(2) 0.7017(2)
C30B C 0.1383(6) -0.1818(5) 0.6380(4)
H30B H 0.1055(6) -0.2133(5) 0.5975(4)
H31B H 0.0902(6) -0.1889(5) 0.6804(4)
H32B H 0.1310(6) -0.1319(5) 0.6217(4)
N5B N 0.2586(2) -0.25328(14) 0.5258(2)
C31B C 0.2504(10) -0.3153(7) 0.4949(6)
H33B H 0.3098(10) -0.3481(7) 0.5217(6)
H34B H 0.1653(10) -0.3338(7) 0.4958(6)
H35B H 0.2699(10) -0.3111(7) 0.4435(6)
C32B C 0.1781(8) -0.1900(5) 0.4972(6)
H36B H 0.1988(8) -0.1481(5) 0.5284(6)
H37B H 0.1941(8) -0.1793(5) 0.4462(6)
H38B H 0.0895(8) -0.2019(5) 0.4985(6)
N1B N 0.4198(2) -0.07933(11) 0.30059(11)
C3B C 0.3922(3) -0.15442(14) 0.29654(14)
C4B C 0.2825(3) -0.1775(2) 0.2576(2)
H1B H 0.2250(3) -0.1438(2) 0.2347(2)
C5B C 0.2562(4) -0.2506(2) 0.2520(2)
H2B H 0.1811(4) -0.2663(2) 0.2248(2)
C6B C 0.3371(5) -0.2993(2) 0.2851(2)
H3B H 0.3190(5) -0.3489(2) 0.2810(2)
C7B C 0.4460(4) -0.2762(2) 0.3249(3)
H4B H 0.5024(4) -0.3102(2) 0.3483(3)
C8B C 0.4739(3) -0.2036(2) 0.3311(2)
H5B H 0.5486(3) -0.1881(2) 0.3589(2)
C9B C 0.4429(2) -0.04237(14) 0.23499(13)
C10B C 0.5068(3) -0.0764(2) 0.1820(2)
H6B H 0.5336(3) -0.1245(2) 0.1891(2)
C11B C 0.5312(4) -0.0394(2) 0.1184(2)
H7B H 0.5746(4) -0.0629(2) 0.0823(2)
C12B C 0.4939(4) 0.0301(2) 0.1068(2)
H8B H 0.5125(4) 0.0549(2) 0.0637(2)
C13B C 0.4290(4) 0.0636(2) 0.1587(2)
H9B H 0.4021(4) 0.1117(2) 0.1511(2)
C14B C 0.4028(3) 0.0275(2) 0.2220(2)
H10B H 0.3569(3) 0.0509(2) 0.2570(2)
C33? C 0.8305(8) 0.2177(5) 0.3161(6)
H39? H 0.8791(8) 0.2453(5) 0.3548(6)
H40? H 0.8179(8) 0.2466(5) 0.2709(6)
H41? H 0.8760(8) 0.1740(5) 0.3060(6)
C34? C 0.7909(10) 0.3280(6) 0.4840(9)
H42? H 0.7582(10) 0.3573(6) 0.4417(9)
H43? H 0.8824(10) 0.3271(6) 0.4871(9)
H44? H 0.7643(10) 0.3484(6) 0.5295(9)
C35? C 0.7920(9) 0.2101(5) 0.5386(4)
H45? H 0.7606(9) 0.1610(5) 0.5331(4)
H46? H 0.7654(9) 0.2309(5) 0.5840(4)
H47? H 0.8836(9) 0.2097(5) 0.5416(4)
C36? C 0.0113(18) 0.0274(9) 0.0697(8)
loop_
_geom_bond_atom_site_label_1
_geom_bond_atom_site_label_2
_geom_bond_site_symmetry_1
_geom_bond_site_symmetry_2
Mg1 O1 1_555 1_555
P1 O5 1_555 1_555
O1 C1 1_555 1_555
O2 Mg1 1_555 1_555
O3 Mg1 1_555 1_555
O4 Mg1 1_555 1_555
O5 Mg1 1_555 1_555
N1 C1 1_555 1_555
N2 C2 1_555 1_555
N3 P1 1_555 1_555
N4 P1 1_555 1_555
N5 P1 1_555 1_555
C1 O2B 1_555 1_555
C2 O3 1_555 1_555
C3 N1 1_555 1_555
C4 C3 1_555 1_555
H1 C4 1_555 1_555
C5 C4 1_555 1_555
H2 C5 1_555 1_555
C6 C5 1_555 1_555
H3 C6 1_555 1_555
C7 C6 1_555 1_555
H4 C7 1_555 1_555
C8 C3 1_555 1_555
H5 C8 1_555 1_555
C9 N1 1_555 1_555
C10 C9 1_555 1_555
H6 C10 1_555 1_555
C11 C10 1_555 1_555
H7 C11 1_555 1_555
C12 C11 1_555 1_555
H8 C12 1_555 1_555
C13 C12 1_555 1_555
H9 C13 1_555 1_555
C14 C9 1_555 1_555
H10 C14 1_555 1_555
C15 N2 1_555 1_555
C16 C15 1_555 1_555
H11 C16 1_555 1_555
C17 C16 1_555 1_555
H12 C17 1_555 1_555
C18 C17 1_555 1_555
H13 C18 1_555 1_555
C19 C18 1_555 1_555
H14 C19 1_555 1_555
C20 C15 1_555 1_555
H15 C20 1_555 1_555
C21 N2 1_555 1_555
C22 C21 1_555 1_555
H16 C22 1_555 1_555
C23 C22 1_555 1_555
H17 C23 1_555 1_555
C24 C23 1_555 1_555
H18 C24 1_555 1_555
C25 C24 1_555 1_555
H19 C25 1_555 1_555
C26 C21 1_555 1_555
H20 C26 1_555 1_555
C27 N3 1_555 1_555
H21 C27 1_555 1_555
H22 C27 1_555 1_555
H23 C27 1_555 1_555
C28 N3 1_555 1_555
H24 C28 1_555 1_555
H25 C28 1_555 1_555
H26 C28 1_555 1_555
C29 N4 1_555 1_555
H27 C29 1_555 1_555
H28 C29 1_555 1_555
H29 C29 1_555 1_555
C30 N4 1_555 1_555
H30 C30 1_555 1_555
H31 C30 1_555 1_555
H32 C30 1_555 1_555
C31 N5 1_555 1_555
H33 C31 1_555 1_555
H34 C31 1_555 1_555
H35 C31 1_555 1_555
C32 N5 1_555 1_555
H36 C32 1_555 1_555
H37 C32 1_555 1_555
H38 C32 1_555 1_555
O6 C37 1_555 1_555
H48 C38 1_555 1_555
H49 C38 1_555 1_555
C37 H50 1_555 1_555
H50 O6 1_555 1_555
H51 O6 1_555 1_555
C38 C37 1_555 1_555
H52 H49 1_555 1_555
H53 H48 1_555 1_555
C39 O6 1_555 1_555
H54 C39 1_555 1_555
H55 C39 1_555 1_555
O2B Mg1B 1_555 1_555
Mg1B O1B 1_555 1_555
O1B C1B 1_555 1_555
C1B O2 1_555 1_555
O4B C2 1_555 1_555
O3B Mg1B 1_555 1_555
C2B O4 1_555 1_555
N2B C2B 1_555 1_555
C15B N2B 1_555 1_555
C16B C15B 1_555 1_555
H11B C16B 1_555 1_555
C17B C16B 1_555 1_555
H12B C17B 1_555 1_555
C18B C17B 1_555 1_555
H13B C18B 1_555 1_555
C19B C18B 1_555 1_555
H14B C19B 1_555 1_555
C20B C15B 1_555 1_555
H15B C20B 1_555 1_555
C21B N2B 1_555 1_555
C22B C21B 1_555 1_555
H16B C22B 1_555 1_555
C23B C22B 1_555 1_555
H17B C23B 1_555 1_555
C24B C23B 1_555 1_555
H18B C24B 1_555 1_555
C25B C24B 1_555 1_555
H19B C25B 1_555 1_555
C26B C21B 1_555 1_555
H20B C26B 1_555 1_555
O5B Mg1B 1_555 1_555
P1B O5B 1_555 1_555
N3B P1B 1_555 1_555
C27B N3B 1_555 1_555
H21B C27B 1_555 1_555
H22B C27B 1_555 1_555
H23B C27B 1_555 1_555
C28B N3B 1_555 1_555
H24B C28B 1_555 1_555
H25B C28B 1_555 1_555
H26B C28B 1_555 1_555
N4B P1B 1_555 1_555
C29B N4B 1_555 1_555
H27B C29B 1_555 1_555
H28B C29B 1_555 1_555
H29B C29B 1_555 1_555
C30B N4B 1_555 1_555
H30B C30B 1_555 1_555
H31B C30B 1_555 1_555
H32B C30B 1_555 1_555
N5B P1B 1_555 1_555
C31B N5B 1_555 1_555
H33B C31B 1_555 1_555
H34B C31B 1_555 1_555
H35B C31B 1_555 1_555
C32B N5B 1_555 1_555
H36B C32B 1_555 1_555
H37B C32B 1_555 1_555
H38B C32B 1_555 1_555
N1B C1B 1_555 1_555
C3B N1B 1_555 1_555
C4B C3B 1_555 1_555
H1B C4B 1_555 1_555
C5B C4B 1_555 1_555
H2B C5B 1_555 1_555
C6B C5B 1_555 1_555
H3B C6B 1_555 1_555
C7B C6B 1_555 1_555
H4B C7B 1_555 1_555
C8B C3B 1_555 1_555
H5B C8B 1_555 1_555
C9B N1B 1_555 1_555
C10B C9B 1_555 1_555
H6B C10B 1_555 1_555
C11B C10B 1_555 1_555
H7B C11B 1_555 1_555
C12B C11B 1_555 1_555
H8B C12B 1_555 1_555
C13B C12B 1_555 1_555
H9B C13B 1_555 1_555
C14B C9B 1_555 1_555
H10B C14B 1_555 1_555
C37B C37 1_555 1_555
O6B C37B 1_555 1_555
H50B C37B 1_555 1_555
H51B C37B 1_555 1_555
C39B C37B 1_555 1_555
C38B C37 1_555 1_555
H48B C38B 1_555 1_555
H53B C38B 1_555 1_555
H49B C38B 1_555 1_555
H52B C38B 1_555 1_555
H54B C39B 1_555 1_555
H55B C39B 1_555 1_555
C7 C8 1_555 1_555
C13 C14 1_555 1_555
C19 C20 1_555 1_555
C25 C26 1_555 1_555
C37 C39 1_555 1_555
C37 H51 1_555 1_555
H50 C39 1_555 1_555
C38 C37B 1_555 1_555
C38 H53 1_555 1_555
C38 H52 1_555 1_555
C38 C39 1_555 1_555
Mg1B O4B 1_555 1_555
O3B C2B 1_555 1_555
C19B C20B 1_555 1_555
C25B C26B 1_555 1_555
C7B C8B 1_555 1_555
C13B C14B 1_555 1_555
C37B C38B 1_555 1_555
O6B H50B 1_555 1_555
O6B C39B 1_555 1_555
O6B H51B 1_555 1_555
H50B C39B 1_555 1_555
C39B C38B 1_555 1_555
H48B H53B 1_555 1_555
H49B H52B 1_555 1_555

#END
