
#######################################################################
#
#                 Cambridge Crystallographic Data Centre
#                                CCDC 
#
#######################################################################
#
# If this CIF has been generated from an entry in the Cambridge 
# Structural Database, then it will include bibliographic, chemical, 
# crystal, experimental, refinement or atomic coordinate data resulting 
# from the CCDC's data processing and validation procedures.
#
#######################################################################

data_QESKII
_chemical_formula_moiety         'C69 H148 Mg5 N14 O21 P2,C7 H8'
_chemical_name_systematic        
"(\m~5~-Carbonato-O,O,O',O',O'',O'')-bis(\m~2~-N,N-di-isopropylcarbamato-O,O,O')-hexakis(\m~2~-N,N-di-isopropylcarbamato-O,O')-bis(hexamethylphosphoramide-O)-penta-magnesium toluene solvate"
_symmetry_cell_setting           monoclinic
_symmetry_space_group_name_H-M   'P 21/n'
_symmetry_Int_Tables_number      14
_space_group_name_Hall           '-P 2yn'
loop_
_symmetry_equiv_pos_site_id
_symmetry_equiv_pos_as_xyz
1 x,y,z
2 1/2+x,1/2-y,1/2+z
3 -x,-y,-z
4 1/2-x,1/2+y,1/2-z
_cell_length_a                   16.6733(3)
_cell_length_b                   23.0033(4)
_cell_length_c                   27.1890(2)
_cell_angle_alpha                90
_cell_angle_beta                 92.876(1)
_cell_angle_gamma                90
_cell_volume                     10415
_exptl_crystal_colour            colorless
_exptl_crystal_description       block
_chemical_melting_point          'decomposes above 54 deg.C'
_cell_formula_units_Z            4
_chemical_properties_physical    'extremely air-sensitive and hygroscopic'
_exptl_crystal_recrystallization_method hexamethylphosphoramide/toluene
loop_
_atom_site_label
_atom_site_type_symbol
_atom_site_fract_x
_atom_site_fract_y
_atom_site_fract_z
Mg1 Mg 0.10497(7) 0.68205(5) 0.26207(4)
Mg2 Mg -0.09579(7) 0.64462(5) 0.27303(4)
Mg3 Mg -0.13939(7) 0.70984(5) 0.37976(4)
Mg4 Mg 0.01365(7) 0.79455(5) 0.42122(4)
Mg5 Mg 0.14105(7) 0.82102(5) 0.32764(4)
P1 P 0.01582(7) 0.77653(5) 0.17667(4)
P2 P 0.17887(7) 0.58911(5) 0.35212(4)
O1 O 0.00252(14) 0.67503(10) 0.30622(8)
O2 O -0.02305(14) 0.73714(10) 0.36675(8)
O3 O 0.08734(13) 0.74465(10) 0.32355(8)
O4 O 0.0295(2) 0.73422(11) 0.21738(9)
O5 O 0.1693(2) 0.62997(11) 0.31070(10)
O6 O 0.0825(2) 0.61511(11) 0.21680(10)
O7 O -0.04675(15) 0.59366(11) 0.22626(9)
O8 O -0.1454(2) 0.59368(12) 0.31987(10)
O9 O -0.2140(2) 0.64188(13) 0.37559(10)
O10 O -0.1875(2) 0.68049(14) 0.23336(9)
O11 O -0.16218(14) 0.72142(11) 0.30539(8)
O12 O -0.0995(2) 0.68160(12) 0.44592(10)
O13 O 0.0143(2) 0.72737(11) 0.46988(9)
O14 O -0.1857(2) 0.78264(11) 0.40430(9)
O15 O -0.0854(2) 0.82819(11) 0.44652(9)
O16 O 0.02913(15) 0.85685(10) 0.36724(9)
O17 O 0.0928(2) 0.89662(10) 0.30643(9)
O18 O 0.1240(2) 0.81174(12) 0.44699(9)
O19 O 0.2068(2) 0.83457(12) 0.38773(9)
O20 O 0.22322(15) 0.80427(11) 0.28098(9)
O21 O 0.20602(14) 0.71886(11) 0.24270(9)
N1 N 0.0932(2) 0.8124(2) 0.15776(13)
N2 N -0.0176(2) 0.74303(15) 0.12617(11)
N3 N -0.0487(3) 0.8250(2) 0.19408(13)
N4 N 0.2054(3) 0.6242(2) 0.4025(2)
N5 N 0.1012(3) 0.5502(2) 0.3668(2)
N6 N 0.2455(4) 0.5416(3) 0.3388(2)
N7 N 0.0202(2) 0.54972(13) 0.16665(11)
N8 N -0.2561(2) 0.5532(2) 0.34974(13)
N9 N -0.2782(2) 0.7446(2) 0.26111(12)
N10 N -0.0358(2) 0.65675(15) 0.51783(12)
N11 N -0.2118(2) 0.83585(15) 0.47157(11)
N12 N 0.0041(2) 0.95175(13) 0.34650(11)
N13 N 0.2461(2) 0.8486(2) 0.46753(11)
N14 N 0.3297(2) 0.75651(15) 0.25287(12)
C1 C 0.0211(2) 0.71953(14) 0.33276(11)
C2 C 0.1205(4) 0.8667(2) 0.1806(2)
H1 H 0.0755(4) 0.8854(2) 0.1964(2)
H2 H 0.1405(4) 0.8926(2) 0.1554(2)
H3 H 0.1636(4) 0.8586(2) 0.2055(2)
C3 C 0.1566(3) 0.7814(3) 0.1333(2)
H4 H 0.1348(3) 0.7455(3) 0.1188(2)
H5 H 0.2003(3) 0.7720(3) 0.1575(2)
H6 H 0.1772(3) 0.8060(3) 0.1074(2)
C4 C -0.0170(3) 0.7671(2) 0.0768(2)
H7 H 0.0212(3) 0.7994(2) 0.0764(2)
H8 H -0.0708(3) 0.7811(2) 0.0667(2)
H9 H -0.0009(3) 0.7369(2) 0.0538(2)
C5 C -0.0731(3) 0.6944(2) 0.1299(2)
H10 H -0.0712(3) 0.6800(2) 0.1638(2)
H11 H -0.0577(3) 0.6632(2) 0.1077(2)
H12 H -0.1278(3) 0.7074(2) 0.1206(2)
C6 C -0.0830(5) 0.8679(3) 0.1592(2)
H13 H -0.0622(5) 0.8611(3) 0.1266(2)
H14 H -0.0681(5) 0.9071(3) 0.1704(2)
H15 H -0.1416(5) 0.8642(3) 0.1572(2)
C7 C -0.0749(3) 0.8308(2) 0.2433(2)
H16 H -0.0496(3) 0.8006(2) 0.2642(2)
H17 H -0.1334(3) 0.8265(2) 0.2430(2)
H18 H -0.0596(3) 0.8692(2) 0.2563(2)
C8 C 0.2290(6) 0.6842(3) 0.4023(3)
H19 H 0.2246(6) 0.6991(3) 0.3685(3)
H20 H 0.2847(6) 0.6877(3) 0.4153(3)
H21 H 0.1939(6) 0.7067(3) 0.4229(3)
C9 C 0.2094(7) 0.5970(6) 0.4510(3)
H22 H 0.1924(7) 0.5563(6) 0.4480(3)
H23 H 0.1739(7) 0.6177(6) 0.4727(3)
H24 H 0.2647(7) 0.5987(6) 0.4650(3)
C10 C 0.0713(8) 0.5060(4) 0.3318(4)
H25 H 0.1160(8) 0.4908(4) 0.3136(4)
H26 H 0.0312(8) 0.5234(4) 0.3087(4)
H27 H 0.0466(8) 0.4743(4) 0.3497(4)
C11 C 0.0373(3) 0.5747(3) 0.3952(2)
H28 H 0.0599(3) 0.6042(3) 0.4180(2)
H29 H 0.0123(3) 0.5438(3) 0.4140(2)
H30 H -0.0033(3) 0.5928(3) 0.3728(2)
C12 C 0.2909(4) 0.5396(3) 0.2981(2)
H31 H 0.3262(4) 0.5056(3) 0.3002(2)
H32 H 0.3235(4) 0.5750(3) 0.2967(2)
H33 H 0.2554(4) 0.5370(3) 0.2683(2)
C13 C 0.2341(8) 0.4739(5) 0.3591(5)
H34 H 0.2017(8) 0.4744(5) 0.3882(5)
H35 H 0.2869(8) 0.4571(5) 0.3678(5)
H36 H 0.2069(8) 0.4505(5) 0.3332(5)
C15 C 0.0194(2) 0.58808(15) 0.20492(13)
C16 C 0.0944(3) 0.5381(2) 0.1415(2)
H40 H 0.0787(3) 0.5082(2) 0.1161(2)
C17 C 0.1225(6) 0.5879(3) 0.1131(3)
H41 H 0.0775(6) 0.6040(3) 0.0929(3)
H42 H 0.1647(6) 0.5750(3) 0.0918(3)
H43 H 0.1441(6) 0.6178(3) 0.1358(3)
C18 C 0.1575(4) 0.5081(3) 0.1749(3)
H44 H 0.1328(4) 0.4758(3) 0.1921(3)
H45 H 0.1800(4) 0.5360(3) 0.1991(3)
H46 H 0.2005(4) 0.4932(3) 0.1551(3)
C19 C -0.0510(3) 0.5159(2) 0.1520(2)
H47 H -0.0942(3) 0.5325(2) 0.1720(2)
C20 C -0.0810(6) 0.5253(3) 0.1000(3)
H48 H -0.0825(6) 0.5670(3) 0.0929(3)
H49 H -0.1352(6) 0.5091(3) 0.0952(3)
H50 H -0.0451(6) 0.5059(3) 0.0778(3)
C21 C -0.0459(5) 0.4547(3) 0.1673(3)
H51 H -0.0257(5) 0.4525(3) 0.2018(3)
H52 H -0.0092(5) 0.4339(3) 0.1465(3)
H53 H -0.0993(5) 0.4370(3) 0.1640(3)
C22 C -0.2037(2) 0.5982(2) 0.34867(14)
C23 C -0.3210(3) 0.5540(2) 0.3845(2)
H54 H -0.3160(3) 0.5912(2) 0.4035(2)
C24 C -0.4033(3) 0.5537(3) 0.3579(2)
H55 H -0.4071(3) 0.5860(3) 0.3345(2)
H56 H -0.4448(3) 0.5580(3) 0.3820(2)
H57 H -0.4112(3) 0.5169(3) 0.3402(2)
C25 C -0.3118(5) 0.5041(3) 0.4218(2)
H58 H -0.2581(5) 0.5056(3) 0.4382(2)
H59 H -0.3189(5) 0.4668(3) 0.4046(2)
H60 H -0.3525(5) 0.5079(3) 0.4464(2)
C26 C -0.2488(3) 0.5023(2) 0.3173(2)
H61 H -0.2941(3) 0.4759(2) 0.3251(2)
C27 C -0.2602(3) 0.5156(2) 0.2635(2)
H62 H -0.3099(3) 0.5378(2) 0.2575(2)
H63 H -0.2637(3) 0.4791(2) 0.2448(2)
H64 H -0.2145(3) 0.5384(2) 0.2529(2)
C28 C -0.1727(4) 0.4678(2) 0.3292(3)
H65 H -0.1677(4) 0.4601(2) 0.3647(3)
H66 H -0.1261(4) 0.4901(2) 0.3193(3)
H67 H -0.1752(4) 0.4308(2) 0.3112(3)
C29 C -0.2086(2) 0.7149(2) 0.26679(13)
C30 C -0.3021(3) 0.7855(2) 0.2994(2)
H68 H -0.2566(3) 0.7881(2) 0.3247(2)
C31 C -0.3735(3) 0.7648(4) 0.3247(2)
H69 H -0.3630(3) 0.7258(4) 0.3381(2)
H70 H -0.4199(3) 0.7634(4) 0.3011(2)
H71 H -0.3848(3) 0.7915(4) 0.3516(2)
C32 C -0.3157(6) 0.8463(3) 0.2778(3)
H72 H -0.2676(6) 0.8587(3) 0.2614(3)
H73 H -0.3266(6) 0.8736(3) 0.3044(3)
H74 H -0.3617(6) 0.8455(3) 0.2539(3)
C33 C -0.3337(4) 0.7332(4) 0.2176(2)
H76 H -0.3805(4) 0.7569(4) 0.2209(2)
C34 C -0.3613(4) 0.6709(5) 0.2142(3)
H77 H -0.3975(4) 0.6660(5) 0.1850(3)
H78 H -0.3896(4) 0.6608(5) 0.2438(3)
H79 H -0.3146(4) 0.6453(5) 0.2117(3)
C35 C -0.2819(10) 0.7755(7) 0.1721(5)
H80 H -0.2718(10) 0.8149(7) 0.1847(5)
H81 H -0.3155(10) 0.7776(7) 0.1415(5)
H82 H -0.2307(10) 0.7568(7) 0.1656(5)
C37 C -0.0403(2) 0.6904(2) 0.47597(13)
C38 C -0.0999(3) 0.6161(2) 0.5293(2)
H86 H -0.0831(3) 0.5991(2) 0.5621(2)
C39 C -0.1066(4) 0.5654(2) 0.4948(2)
H87 H -0.0534(4) 0.5480(2) 0.4917(2)
H88 H -0.1277(4) 0.5786(2) 0.4625(2)
H89 H -0.1430(4) 0.5364(2) 0.5078(2)
C40 C -0.1783(3) 0.6458(3) 0.5368(2)
H90 H -0.1696(3) 0.6784(3) 0.5597(2)
H91 H -0.2159(3) 0.6181(3) 0.5506(2)
H92 H -0.2008(3) 0.6604(3) 0.5052(2)
C41 C 0.0298(3) 0.6659(2) 0.5545(2)
H93 H 0.0669(3) 0.6949(2) 0.5403(2)
C42 C 0.0012(5) 0.6917(4) 0.6015(2)
H94 H -0.0297(5) 0.7271(4) 0.5939(2)
H95 H 0.0477(5) 0.7012(4) 0.6236(2)
H96 H -0.0329(5) 0.6635(4) 0.6176(2)
C43 C 0.0780(4) 0.6112(4) 0.5644(3)
H97 H 0.0957(4) 0.5955(4) 0.5333(3)
H98 H 0.0445(4) 0.5824(4) 0.5802(3)
H99 H 0.1249(4) 0.6202(4) 0.5862(3)
C44 C -0.1587(2) 0.8147(2) 0.43964(13)
C45 C -0.2984(3) 0.8223(2) 0.4642(2)
H100 H -0.3015(3) 0.7962(2) 0.4349(2)
C46 C -0.3312(4) 0.7867(3) 0.5042(3)
H101 H -0.2951(4) 0.7539(3) 0.5118(3)
H102 H -0.3844(4) 0.7719(3) 0.4934(3)
H103 H -0.3358(4) 0.8107(3) 0.5337(3)
C47 C -0.3463(4) 0.8738(3) 0.4485(3)
H104 H -0.3195(4) 0.8941(3) 0.4223(3)
H105 H -0.3513(4) 0.9000(3) 0.4766(3)
H106 H -0.3999(4) 0.8613(3) 0.4363(3)
C48 C -0.1869(3) 0.8692(2) 0.5153(2)
H107 H -0.2382(3) 0.8767(2) 0.5317(2)
C49 C -0.1578(4) 0.9272(3) 0.5039(2)
H108 H -0.1943(4) 0.9453(3) 0.4790(2)
H109 H -0.1040(4) 0.9243(3) 0.4912(2)
H110 H -0.1556(4) 0.9510(3) 0.5339(2)
C50 C -0.1378(4) 0.8364(3) 0.5525(2)
H111 H -0.1622(4) 0.7983(3) 0.5575(2)
H112 H -0.1350(4) 0.8579(3) 0.5836(2)
H113 H -0.0835(4) 0.8312(3) 0.5410(2)
C51 C 0.0424(2) 0.90079(15) 0.34011(13)
C52 C -0.0536(2) 0.9588(2) 0.38568(14)
H114 H -0.0592(2) 0.9200(2) 0.40171(14)
C53 C -0.1359(3) 0.9761(3) 0.3648(2)
H115 H -0.1543(3) 0.9479(3) 0.3397(2)
H116 H -0.1331(3) 1.0148(3) 0.3499(2)
H117 H -0.1736(3) 0.9768(3) 0.3913(2)
C54 C -0.0202(3) 1.0007(2) 0.4253(2)
H118 H 0.0330(3) 0.9875(2) 0.4375(2)
H119 H -0.0564(3) 1.0018(2) 0.4526(2)
H120 H -0.0159(3) 1.0398(2) 0.4113(2)
C55 C 0.0251(3) 1.0039(2) 0.3181(2)
H121 H -0.0087(3) 1.0362(2) 0.3304(2)
C56 C 0.0029(3) 0.9982(2) 0.2632(2)
H122 H -0.0533(3) 0.9861(2) 0.2586(2)
H123 H 0.0375(3) 0.9691(2) 0.2487(2)
H124 H 0.0102(3) 1.0358(2) 0.2471(2)
C57 C 0.1127(3) 1.0228(2) 0.3281(2)
H125 H 0.1242(3) 1.0258(2) 0.3637(2)
H126 H 0.1212(3) 1.0607(2) 0.3127(2)
H127 H 0.1485(3) 0.9940(2) 0.3143(2)
C58 C 0.1896(2) 0.8311(2) 0.43255(13)
C59 C 0.2346(3) 0.8404(2) 0.52037(14)
H128 H 0.2851(3) 0.8543(2) 0.53802(14)
C60 C 0.2269(3) 0.7758(3) 0.5331(2)
H129 H 0.2719(3) 0.7543(3) 0.5201(2)
H130 H 0.1763(3) 0.7606(3) 0.5184(2)
H131 H 0.2275(3) 0.7711(3) 0.5689(2)
C61 C 0.1673(4) 0.8774(3) 0.5390(2)
H132 H 0.1756(4) 0.9181(3) 0.5298(2)
H133 H 0.1669(4) 0.8743(3) 0.5749(2)
H134 H 0.1157(4) 0.8638(3) 0.5243(2)
C62 C 0.3213(3) 0.8746(2) 0.4525(2)
H135 H 0.3177(3) 0.8770(2) 0.4157(2)
C63 C 0.3309(5) 0.9366(3) 0.4717(2)
H136 H 0.2832(5) 0.9593(3) 0.4616(2)
H137 H 0.3785(5) 0.9543(3) 0.4582(2)
H138 H 0.3371(5) 0.9360(3) 0.5078(2)
C64 C 0.3924(3) 0.8361(4) 0.4665(3)
H139 H 0.3828(3) 0.7970(4) 0.4532(3)
H140 H 0.3995(3) 0.8340(4) 0.5024(3)
H141 H 0.4409(3) 0.8523(4) 0.4529(3)
C65 C 0.2496(2) 0.7601(2) 0.25935(12)
C66 C 0.3858(3) 0.8024(2) 0.2690(2)
H142 H 0.4399(3) 0.7887(2) 0.2598(2)
C67 C 0.3924(3) 0.8117(2) 0.3244(2)
H143 H 0.4023(3) 0.7744(2) 0.3409(2)
H144 H 0.3423(3) 0.8285(2) 0.3352(2)
H145 H 0.4370(3) 0.8383(2) 0.3326(2)
C68 C 0.3706(3) 0.8579(2) 0.2409(2)
H146 H 0.3668(3) 0.8495(2) 0.2055(2)
H147 H 0.4149(3) 0.8851(2) 0.2481(2)
H148 H 0.3201(3) 0.8753(2) 0.2507(2)
C69 C 0.3643(2) 0.7024(2) 0.2329(2)
H149 H 0.3179(2) 0.6761(2) 0.2245(2)
C70 C 0.4048(3) 0.7130(3) 0.1858(2)
H150 H 0.3678(3) 0.7333(3) 0.1626(2)
H151 H 0.4202(3) 0.6757(3) 0.1716(2)
H152 H 0.4529(3) 0.7368(3) 0.1924(2)
C71 C 0.4166(3) 0.6708(2) 0.2719(2)
H153 H 0.3864(3) 0.6654(2) 0.3016(2)
H154 H 0.4649(3) 0.6939(2) 0.2801(2)
H155 H 0.4323(3) 0.6328(2) 0.2593(2)
C72 C -0.4688(7) 0.6864(5) 0.4228(4)
H156 H -0.5257(7) 0.6928(5) 0.4136(4)
H157 H -0.4426(7) 0.6679(5) 0.3954(4)
H158 H -0.4429(7) 0.7238(5) 0.4303(4)
C73 C -0.4624(6) 0.6526(4) 0.4617(3)
C74 C -0.5490(8) 0.6288(6) 0.4635(5)
H159 H -0.5943(8) 0.6382(6) 0.4425(5)
C75 C -0.5452(7) 0.5924(5) 0.5010(4)
H160 H -0.5962(7) 0.5759(5) 0.5063(4)
C76 C -0.4794(6) 0.5688(5) 0.5392(4)
H161 H -0.4876(6) 0.5432(5) 0.5659(4)
C77 C -0.4156(7) 0.5897(5) 0.5277(4)
H162 H -0.3683(7) 0.5781(5) 0.5461(4)
C78 C -0.4071(4) 0.6312(3) 0.4882(2)
H163 H -0.3540(4) 0.6432(3) 0.4819(2)
C14? C 0.2995(10) 0.5143(7) 0.3826(5)
H37? H 0.2696(10) 0.5146(7) 0.4128(5)
H38? H 0.3487(10) 0.5372(7) 0.3878(5)
H39? H 0.3134(10) 0.4742(7) 0.3744(5)
H75? H -0.3832(4) 0.7560(4) 0.2239(2)
C36? C -0.3102(8) 0.7390(7) 0.1704(5)
H83? H -0.2897(8) 0.7784(7) 0.1656(5)
H84? H -0.3562(8) 0.7320(7) 0.1473(5)
H85? H -0.2678(8) 0.7107(7) 0.1644(5)
loop_
_geom_bond_atom_site_label_1
_geom_bond_atom_site_label_2
_geom_bond_site_symmetry_1
_geom_bond_site_symmetry_2
Mg1 O1 1_555 1_555
Mg2 O1 1_555 1_555
Mg3 O2 1_555 1_555
Mg4 O2 1_555 1_555
Mg5 O3 1_555 1_555
P1 O4 1_555 1_555
P2 O5 1_555 1_555
O1 C1 1_555 1_555
O2 C1 1_555 1_555
O3 Mg1 1_555 1_555
O4 Mg1 1_555 1_555
O5 Mg1 1_555 1_555
O6 Mg1 1_555 1_555
O7 Mg2 1_555 1_555
O8 Mg2 1_555 1_555
O9 Mg3 1_555 1_555
O10 Mg2 1_555 1_555
O11 Mg2 1_555 1_555
O12 Mg3 1_555 1_555
O13 Mg4 1_555 1_555
O14 Mg3 1_555 1_555
O15 Mg4 1_555 1_555
O16 Mg4 1_555 1_555
O17 Mg5 1_555 1_555
O18 Mg4 1_555 1_555
O19 Mg5 1_555 1_555
O20 Mg5 1_555 1_555
O21 Mg1 1_555 1_555
N1 P1 1_555 1_555
N2 P1 1_555 1_555
N3 P1 1_555 1_555
N4 P2 1_555 1_555
N5 P2 1_555 1_555
N6 P2 1_555 1_555
N7 C15 1_555 1_555
N8 C22 1_555 1_555
N9 C29 1_555 1_555
N10 C37 1_555 1_555
N11 C44 1_555 1_555
N12 C51 1_555 1_555
N13 C58 1_555 1_555
N14 C65 1_555 1_555
C1 O3 1_555 1_555
C2 N1 1_555 1_555
H1 C2 1_555 1_555
H2 C2 1_555 1_555
H3 C2 1_555 1_555
C3 N1 1_555 1_555
H4 C3 1_555 1_555
H5 C3 1_555 1_555
H6 C3 1_555 1_555
C4 N2 1_555 1_555
H7 C4 1_555 1_555
H8 C4 1_555 1_555
H9 C4 1_555 1_555
C5 N2 1_555 1_555
H10 C5 1_555 1_555
H11 C5 1_555 1_555
H12 C5 1_555 1_555
C6 N3 1_555 1_555
H13 C6 1_555 1_555
H14 C6 1_555 1_555
H15 C6 1_555 1_555
C7 N3 1_555 1_555
H16 C7 1_555 1_555
H17 C7 1_555 1_555
H18 C7 1_555 1_555
C8 N4 1_555 1_555
H19 C8 1_555 1_555
H20 C8 1_555 1_555
H21 C8 1_555 1_555
C9 N4 1_555 1_555
H22 C9 1_555 1_555
H23 C9 1_555 1_555
H24 C9 1_555 1_555
C10 N5 1_555 1_555
H25 C10 1_555 1_555
H26 C10 1_555 1_555
H27 C10 1_555 1_555
C11 N5 1_555 1_555
H28 C11 1_555 1_555
H29 C11 1_555 1_555
H30 C11 1_555 1_555
C12 N6 1_555 1_555
H31 C12 1_555 1_555
H32 C12 1_555 1_555
H33 C12 1_555 1_555
C13 N6 1_555 1_555
H34 C13 1_555 1_555
H35 C13 1_555 1_555
H36 C13 1_555 1_555
C15 O6 1_555 1_555
C16 N7 1_555 1_555
H40 C16 1_555 1_555
C17 C16 1_555 1_555
H41 C17 1_555 1_555
H42 C17 1_555 1_555
H43 C17 1_555 1_555
C18 C16 1_555 1_555
H44 C18 1_555 1_555
H45 C18 1_555 1_555
H46 C18 1_555 1_555
C19 N7 1_555 1_555
H47 C19 1_555 1_555
C20 C19 1_555 1_555
H48 C20 1_555 1_555
H49 C20 1_555 1_555
H50 C20 1_555 1_555
C21 C19 1_555 1_555
H51 C21 1_555 1_555
H52 C21 1_555 1_555
H53 C21 1_555 1_555
C22 O8 1_555 1_555
C23 N8 1_555 1_555
H54 C23 1_555 1_555
C24 C23 1_555 1_555
H55 C24 1_555 1_555
H56 C24 1_555 1_555
H57 C24 1_555 1_555
C25 C23 1_555 1_555
H58 C25 1_555 1_555
H59 C25 1_555 1_555
H60 C25 1_555 1_555
C26 N8 1_555 1_555
H61 C26 1_555 1_555
C27 C26 1_555 1_555
H62 C27 1_555 1_555
H63 C27 1_555 1_555
H64 C27 1_555 1_555
C28 C26 1_555 1_555
H65 C28 1_555 1_555
H66 C28 1_555 1_555
H67 C28 1_555 1_555
C29 O10 1_555 1_555
C30 N9 1_555 1_555
H68 C30 1_555 1_555
C31 C30 1_555 1_555
H69 C31 1_555 1_555
H70 C31 1_555 1_555
H71 C31 1_555 1_555
C32 C30 1_555 1_555
H72 C32 1_555 1_555
H73 C32 1_555 1_555
H74 C32 1_555 1_555
C33 N9 1_555 1_555
H76 C33 1_555 1_555
C34 C33 1_555 1_555
H77 C34 1_555 1_555
H78 C34 1_555 1_555
H79 C34 1_555 1_555
C35 C33 1_555 1_555
H80 C35 1_555 1_555
H81 C35 1_555 1_555
H82 C35 1_555 1_555
C37 O12 1_555 1_555
C38 N10 1_555 1_555
H86 C38 1_555 1_555
C39 C38 1_555 1_555
H87 C39 1_555 1_555
H88 C39 1_555 1_555
H89 C39 1_555 1_555
C40 C38 1_555 1_555
H90 C40 1_555 1_555
H91 C40 1_555 1_555
H92 C40 1_555 1_555
C41 N10 1_555 1_555
H93 C41 1_555 1_555
C42 C41 1_555 1_555
H94 C42 1_555 1_555
H95 C42 1_555 1_555
H96 C42 1_555 1_555
C43 C41 1_555 1_555
H97 C43 1_555 1_555
H98 C43 1_555 1_555
H99 C43 1_555 1_555
C44 O14 1_555 1_555
C45 N11 1_555 1_555
H100 C45 1_555 1_555
C46 C45 1_555 1_555
H101 C46 1_555 1_555
H102 C46 1_555 1_555
H103 C46 1_555 1_555
C47 C45 1_555 1_555
H104 C47 1_555 1_555
H105 C47 1_555 1_555
H106 C47 1_555 1_555
C48 N11 1_555 1_555
H107 C48 1_555 1_555
C49 C48 1_555 1_555
H108 C49 1_555 1_555
H109 C49 1_555 1_555
H110 C49 1_555 1_555
C50 C48 1_555 1_555
H111 C50 1_555 1_555
H112 C50 1_555 1_555
H113 C50 1_555 1_555
C51 O16 1_555 1_555
C52 N12 1_555 1_555
H114 C52 1_555 1_555
C53 C52 1_555 1_555
H115 C53 1_555 1_555
H116 C53 1_555 1_555
H117 C53 1_555 1_555
C54 C52 1_555 1_555
H118 C54 1_555 1_555
H119 C54 1_555 1_555
H120 C54 1_555 1_555
C55 N12 1_555 1_555
H121 C55 1_555 1_555
C56 C55 1_555 1_555
H122 C56 1_555 1_555
H123 C56 1_555 1_555
H124 C56 1_555 1_555
C57 C55 1_555 1_555
H125 C57 1_555 1_555
H126 C57 1_555 1_555
H127 C57 1_555 1_555
C58 O18 1_555 1_555
C59 N13 1_555 1_555
H128 C59 1_555 1_555
C60 C59 1_555 1_555
H129 C60 1_555 1_555
H130 C60 1_555 1_555
H131 C60 1_555 1_555
C61 C59 1_555 1_555
H132 C61 1_555 1_555
H133 C61 1_555 1_555
H134 C61 1_555 1_555
C62 N13 1_555 1_555
H135 C62 1_555 1_555
C63 C62 1_555 1_555
H136 C63 1_555 1_555
H137 C63 1_555 1_555
H138 C63 1_555 1_555
C64 C62 1_555 1_555
H139 C64 1_555 1_555
H140 C64 1_555 1_555
H141 C64 1_555 1_555
C65 O20 1_555 1_555
C66 N14 1_555 1_555
H142 C66 1_555 1_555
C67 C66 1_555 1_555
H143 C67 1_555 1_555
H144 C67 1_555 1_555
H145 C67 1_555 1_555
C68 C66 1_555 1_555
H146 C68 1_555 1_555
H147 C68 1_555 1_555
H148 C68 1_555 1_555
C69 N14 1_555 1_555
H149 C69 1_555 1_555
C70 C69 1_555 1_555
H150 C70 1_555 1_555
H151 C70 1_555 1_555
H152 C70 1_555 1_555
C71 C69 1_555 1_555
H153 C71 1_555 1_555
H154 C71 1_555 1_555
H155 C71 1_555 1_555
C72 H156 1_555 1_555
H157 C72 1_555 1_555
H158 C72 1_555 1_555
C73 C72 1_555 1_555
C74 C73 1_555 1_555
H159 C74 1_555 1_555
C75 C74 1_555 1_555
H160 C75 1_555 1_555
C76 C75 1_555 1_555
H161 C76 1_555 1_555
C77 C76 1_555 1_555
H162 C77 1_555 1_555
C78 C73 1_555 1_555
H163 C78 1_555 1_555
Mg3 O11 1_555 1_555
Mg5 O16 1_555 1_555
O7 C15 1_555 1_555
O9 C22 1_555 1_555
O11 C29 1_555 1_555
O13 C37 1_555 1_555
O15 C44 1_555 1_555
O17 C51 1_555 1_555
O19 C58 1_555 1_555
O21 C65 1_555 1_555
C77 C78 1_555 1_555

#END
