
#######################################################################
#
#                 Cambridge Crystallographic Data Centre
#                                CCDC 
#
#######################################################################
#
# If this CIF has been generated from an entry in the Cambridge 
# Structural Database, then it will include bibliographic, chemical, 
# crystal, experimental, refinement or atomic coordinate data resulting 
# from the CCDC's data processing and validation procedures.
#
#######################################################################

data_QESLEI
_chemical_formula_moiety         'C35 H35 B10 N1'
_chemical_name_systematic        
1-(9,9-dimethyl-9H-fluoren-2-yl)-2-(4-(9H-carbazol-9-yl)phenyl)-1,2-dicarba-closo-dodecaborane
_symmetry_cell_setting           monoclinic
_symmetry_space_group_name_H-M   'P 21/c'
_symmetry_Int_Tables_number      14
_space_group_name_Hall           '-P 2ybc'
loop_
_symmetry_equiv_pos_site_id
_symmetry_equiv_pos_as_xyz
1 x,y,z
2 -x,1/2+y,1/2-z
3 -x,-y,-z
4 x,1/2-y,1/2+z
_cell_length_a                   16.1519(7)
_cell_length_b                   14.2464(6)
_cell_length_c                   13.6406(8)
_cell_angle_alpha                90
_cell_angle_beta                 95.794(2)
_cell_angle_gamma                90
_cell_volume                     3122.75
_exptl_crystal_colour            colorless
_exptl_crystal_description       block
_cell_formula_units_Z            4
loop_
_atom_site_label
_atom_site_type_symbol
_atom_site_fract_x
_atom_site_fract_y
_atom_site_fract_z
N1 N 0.41412(9) 0.18121(9) 0.54971(11)
C1 C 0.15882(9) -0.02374(11) 0.27071(11)
H1 H 0.1863 -0.0614 0.2287
C2 C 0.08898(9) -0.00425(11) 0.41761(12)
H2 H 0.0702 -0.0297 0.4741
C3 C 0.13492(9) -0.06041(10) 0.35861(11)
C4 C 0.09947(9) 0.12622(10) 0.30903(12)
C5 C 0.29367(10) -0.03580(11) 0.58003(12)
H3 H 0.2614 -0.0626 0.6254
C6 C 0.30162(9) -0.08143(10) 0.49138(12)
C7 C 0.33326(10) 0.04909(11) 0.60168(12)
H4 H 0.3276 0.0790 0.6612
C8 C 0.06523(10) 0.30478(11) 0.30558(12)
H5 H 0.0374 0.3042 0.3620
C9 C 0.16007(9) -0.15828(10) 0.39105(11)
C10 C 0.07096(10) 0.08873(11) 0.39348(12)
H6 H 0.0403 0.1253 0.4332
C11 C 0.13803(9) 0.22254(11) 0.18393(12)
C12 C 0.25375(9) -0.16974(10) 0.46507(11)
C13 C 0.09739(9) 0.22231(11) 0.26959(11)
C14 C 0.14124(9) 0.06910(11) 0.24668(11)
C15 C 0.16556(10) 0.12408(11) 0.15837(12)
C16 C 0.46025(10) 0.21577(12) 0.63390(13)
C17 C 0.07585(11) 0.38784(11) 0.25489(13)
H7 H 0.0549 0.4437 0.2777
C18 C 0.31524(12) 0.34308(13) 0.35900(15)
H8 H 0.2776 0.3455 0.3027
C19 C 0.35408(10) -0.04284(12) 0.42690(13)
H9 H 0.3626 -0.0743 0.3690
C20 C 0.46949(10) 0.31356(12) 0.62293(14)
C21 C 0.42523(10) 0.33968(12) 0.52960(14)
C22 C 0.38127(10) 0.08925(11) 0.53445(13)
C23 C 0.11646(11) 0.08922(12) 0.06244(12)
H10 H 0.0579 0.0925 0.0689
H11 H 0.1316 0.0254 0.0502
H12 H 0.1293 0.1280 0.0084
C24 C 0.39363(11) 0.04197(12) 0.44845(13)
H13 H 0.4286 0.0672 0.4051
C25 C 0.49416(10) 0.16757(13) 0.71694(13)
H14 H 0.4885 0.1029 0.7224
C26 C 0.14870(10) 0.30603(11) 0.13411(13)
H15 H 0.1762 0.3068 0.0774
C27 C 0.25916(10) 0.11914(12) 0.14922(13)
H16 H 0.2892 0.1408 0.2093
H17 H 0.2724 0.1581 0.0955
H18 H 0.2746 0.0554 0.1371
C28 C 0.53685(11) 0.21994(15) 0.79142(15)
H19 H 0.5596 0.1899 0.8484
C29 C 0.11743(11) 0.38841(12) 0.17071(13)
H20 H 0.1245 0.4448 0.1382
C30 C 0.33412(11) 0.25744(13) 0.40351(13)
H21 H 0.3101 0.2022 0.3779
C31 C 0.40573(11) 0.42511(12) 0.48185(15)
H22 H 0.4291 0.4808 0.5072
C32 C 0.39007(10) 0.25677(11) 0.48754(13)
C33 C 0.35163(12) 0.42583(13) 0.39706(15)
H23 H 0.3392 0.4823 0.3647
C34 C 0.51358(11) 0.36407(14) 0.69932(16)
H24 H 0.5206 0.4286 0.6939
C35 C 0.54635(12) 0.31713(15) 0.78240(16)
H25 H 0.5753 0.3505 0.8335
B1 B 0.14494(11) -0.25448(12) 0.31691(13)
H26 H 0.1148 -0.2437 0.2444
B2 B 0.30055(11) -0.27319(12) 0.44048(13)
H27 H 0.3673 -0.2735 0.4485
B3 B 0.16021(11) -0.18493(12) 0.51490(13)
H28 H 0.1427 -0.1329 0.5636
B4 B 0.24633(11) -0.20691(12) 0.34400(13)
H29 H 0.2746 -0.1670 0.2892
B5 B 0.24667(11) -0.25939(12) 0.54685(14)
H30 H 0.2780 -0.2503 0.6197
B6 B 0.09125(11) -0.24081(12) 0.42349(13)
H31 H 0.0248 -0.2185 0.4170
B7 B 0.14494(11) -0.30688(12) 0.52034(14)
H32 H 0.1109 -0.3355 0.5762
B8 B 0.23198(12) -0.36252(13) 0.47413(14)
H33 H 0.2560 -0.4314 0.5063
B9 B 0.23235(12) -0.32927(12) 0.34792(14)
H34 H 0.2540 -0.3751 0.2901
B10 B 0.13616(12) -0.35131(13) 0.39750(14)
H35 H 0.0924 -0.4086 0.3781
loop_
_geom_bond_atom_site_label_1
_geom_bond_atom_site_label_2
_geom_bond_site_symmetry_1
_geom_bond_site_symmetry_2
N1 C16 1_555 1_555
C1 H1 1_555 1_555
C2 H2 1_555 1_555
C3 C1 1_555 1_555
C4 C10 1_555 1_555
C5 H3 1_555 1_555
C6 C5 1_555 1_555
C7 C5 1_555 1_555
H4 C7 1_555 1_555
C8 H5 1_555 1_555
C9 C3 1_555 1_555
C10 C2 1_555 1_555
H6 C10 1_555 1_555
C11 C13 1_555 1_555
C12 C6 1_555 1_555
C13 C4 1_555 1_555
C14 C1 1_555 1_555
C15 C11 1_555 1_555
C16 C20 1_555 1_555
C17 C8 1_555 1_555
H7 C17 1_555 1_555
C18 H8 1_555 1_555
C19 C6 1_555 1_555
H9 C19 1_555 1_555
C20 C21 1_555 1_555
C21 C31 1_555 1_555
C22 N1 1_555 1_555
C23 C15 1_555 1_555
H10 C23 1_555 1_555
H11 C23 1_555 1_555
H12 C23 1_555 1_555
C24 C19 1_555 1_555
H13 C24 1_555 1_555
C25 C16 1_555 1_555
H14 C25 1_555 1_555
C26 C11 1_555 1_555
H15 C26 1_555 1_555
C27 C15 1_555 1_555
H16 C27 1_555 1_555
H17 C27 1_555 1_555
H18 C27 1_555 1_555
C28 C25 1_555 1_555
H19 C28 1_555 1_555
C29 C17 1_555 1_555
H20 C29 1_555 1_555
C30 C18 1_555 1_555
H21 C30 1_555 1_555
C31 H22 1_555 1_555
C32 N1 1_555 1_555
C33 C18 1_555 1_555
H23 C33 1_555 1_555
C34 C20 1_555 1_555
H24 C34 1_555 1_555
C35 C28 1_555 1_555
H25 C35 1_555 1_555
B1 C9 1_555 1_555
H26 B1 1_555 1_555
B2 C12 1_555 1_555
H27 B2 1_555 1_555
B3 C9 1_555 1_555
H28 B3 1_555 1_555
B4 C9 1_555 1_555
H29 B4 1_555 1_555
B5 C12 1_555 1_555
H30 B5 1_555 1_555
B6 C9 1_555 1_555
H31 B6 1_555 1_555
B7 B3 1_555 1_555
H32 B7 1_555 1_555
B8 B2 1_555 1_555
H33 B8 1_555 1_555
B9 B1 1_555 1_555
H34 B9 1_555 1_555
B10 B1 1_555 1_555
H35 B10 1_555 1_555
C2 C3 1_555 1_555
C4 C14 1_555 1_555
C7 C22 1_555 1_555
C8 C13 1_555 1_555
C9 C12 1_555 1_555
C12 B3 1_555 1_555
C12 B4 1_555 1_555
C14 C15 1_555 1_555
C21 C32 1_555 1_555
C22 C24 1_555 1_555
C26 C29 1_555 1_555
C30 C32 1_555 1_555
C31 C33 1_555 1_555
C34 C35 1_555 1_555
B1 B4 1_555 1_555
B1 B6 1_555 1_555
B2 B4 1_555 1_555
B2 B5 1_555 1_555
B2 B9 1_555 1_555
B3 B5 1_555 1_555
B3 B6 1_555 1_555
B4 B9 1_555 1_555
B5 B7 1_555 1_555
B5 B8 1_555 1_555
B6 B7 1_555 1_555
B6 B10 1_555 1_555
B7 B8 1_555 1_555
B7 B10 1_555 1_555
B8 B9 1_555 1_555
B8 B10 1_555 1_555
B9 B10 1_555 1_555

#END
