
#######################################################################
#
#                 Cambridge Crystallographic Data Centre
#                                CCDC 
#
#######################################################################
#
# If this CIF has been generated from an entry in the Cambridge 
# Structural Database, then it will include bibliographic, chemical, 
# crystal, experimental, refinement or atomic coordinate data resulting 
# from the CCDC's data processing and validation procedures.
#
#######################################################################

data_QESLAE
_chemical_formula_moiety         'C35 H35 B10 N1'
_chemical_name_systematic        
1-(9,9-dimethyl-9H-fluoren-2-yl)-2-(9-phenyl-9H-carbazol-3-yl)-1,2-dicarba-closo-dodecaborane
_symmetry_cell_setting           triclinic
_symmetry_space_group_name_H-M   'P -1'
_symmetry_Int_Tables_number      2
_space_group_name_Hall           '-P 1'
loop_
_symmetry_equiv_pos_site_id
_symmetry_equiv_pos_as_xyz
1 x,y,z
2 -x,-y,-z
_cell_length_a                   10.3215(3)
_cell_length_b                   11.1601(4)
_cell_length_c                   15.0176(5)
_cell_angle_alpha                79.132(2)
_cell_angle_beta                 82.561(2)
_cell_angle_gamma                70.199(2)
_cell_volume                     1594.36
_exptl_crystal_colour            colorless
_exptl_crystal_description       block
_cell_formula_units_Z            2
loop_
_atom_site_label
_atom_site_type_symbol
_atom_site_fract_x
_atom_site_fract_y
_atom_site_fract_z
N1 N -0.01655(16) 0.25727(16) 0.20770(11)
C1 C 0.5274(2) -0.0583(2) 0.28037(14)
C2 C 0.6371(2) 0.0298(2) 0.28071(13)
C3 C 0.4801(2) 0.4346(2) 0.18136(13)
C4 C 0.2770(2) 0.04025(19) 0.32300(14)
H1 H 0.2937 0.0006 0.3826
C5 C 0.3554(2) 0.07681(19) 0.16514(14)
H2 H 0.4267 0.0615 0.1197
C6 C 0.4067(2) 0.57342(19) 0.16313(13)
C7 C 0.0187(2) 0.17018(19) 0.35651(14)
C8 C 0.1454(2) 0.12115(19) 0.30177(14)
C9 C 0.5878(2) 0.3541(2) 0.13280(14)
H3 H 0.6266 0.3877 0.0786
C10 C 0.4741(2) 0.2534(2) 0.29703(13)
H4 H 0.4374 0.2204 0.3523
C11 C 0.5815(2) 0.17206(19) 0.24783(13)
C12 C -0.1377(2) 0.4729(2) 0.13316(14)
H5 H -0.1415 0.5047 0.1867
C13 C 0.4227(2) 0.38328(19) 0.26299(13)
C14 C -0.0180(2) 0.1521(2) 0.44968(14)
H6 H 0.0461 0.0986 0.4902
C15 C 0.6366(2) 0.2242(2) 0.16575(13)
H7 H 0.7075 0.1702 0.1327
C16 C 0.2249(2) 0.15609(19) 0.14201(14)
H8 H 0.2077 0.1934 0.0821
C17 C 0.3834(2) 0.01877(19) 0.25512(14)
C18 C -0.2133(2) 0.3178(2) 0.32731(14)
H9 H -0.2777 0.3723 0.2873
C19 C -0.1510(2) 0.2151(2) 0.48033(14)
H10 H -0.1770 0.2033 0.5422
C20 C -0.0787(2) 0.2542(2) 0.29676(13)
C21 C -0.1241(2) 0.3783(2) -0.02745(14)
H11 H -0.1190 0.3469 -0.0814
C22 C -0.0757(2) 0.3427(2) 0.12927(14)
C23 C -0.2475(2) 0.2965(2) 0.41982(14)
H12 H -0.3369 0.3373 0.4423
C24 C 0.3050(2) 0.48737(19) 0.30362(14)
C25 C -0.0693(2) 0.2951(2) 0.04886(14)
H13 H -0.0283 0.2075 0.0466
C26 C 0.1207(2) 0.17805(19) 0.21107(14)
C27 C 0.2355(2) 0.8251(2) 0.16119(15)
H14 H 0.1783 0.9101 0.1600
C28 C 0.3046(2) 0.60524(19) 0.23352(14)
C29 C 0.3374(2) 0.7928(2) 0.09137(15)
H15 H 0.3472 0.8563 0.0436
C30 C 0.2187(2) 0.7316(2) 0.23239(15)
H16 H 0.1506 0.7533 0.2790
C31 C -0.1868(2) 0.5084(2) -0.02376(14)
H17 H -0.2240 0.5645 -0.0751
C32 C -0.1938(2) 0.5551(2) 0.05671(14)
H18 H -0.2366 0.6425 0.0592
C33 C 0.4243(2) 0.6673(2) 0.09210(14)
H19 H 0.4933 0.6461 0.0458
C34 C 0.1685(2) 0.4584(2) 0.31057(16)
H20 H 0.0948 0.5283 0.3322
H21 H 0.1752 0.3802 0.3521
H22 H 0.1502 0.4488 0.2517
C35 C 0.3362(3) 0.5023(2) 0.39739(14)
H23 H 0.2610 0.5693 0.4208
H24 H 0.4195 0.5242 0.3919
H25 H 0.3476 0.4226 0.4381
B1 B 0.5689(2) -0.0334(2) 0.38235(16)
H26 H 0.4913 0.0308 0.4200
B2 B 0.5607(3) -0.1850(2) 0.36776(16)
H27 H 0.4678 -0.2126 0.4007
B3 B 0.6212(3) -0.2088(2) 0.25414(17)
H28 H 0.5667 -0.2501 0.2149
B4 B 0.6647(2) -0.0701(2) 0.20001(17)
H29 H 0.6479 -0.0242 0.1315
B5 B 0.8040(2) -0.0612(2) 0.25462(16)
H30 H 0.8722 -0.0132 0.2149
B6 B 0.7434(2) -0.0382(2) 0.36841(16)
H31 H 0.7690 0.0283 0.3978
B7 B 0.6979(2) -0.1750(2) 0.42331(17)
H32 H 0.7044 -0.2069 0.4949
B8 B 0.7323(2) -0.2850(2) 0.34389(17)
H33 H 0.7558 -0.3928 0.3657
B9 B 0.7958(3) -0.2127(2) 0.23890(17)
H34 H 0.8726 -0.2661 0.1868
B10 B 0.8439(3) -0.1942(2) 0.34405(17)
H35 H 0.9518 -0.2395 0.3662
loop_
_geom_bond_atom_site_label_1
_geom_bond_atom_site_label_2
_geom_bond_site_symmetry_1
_geom_bond_site_symmetry_2
N1 C20 1_555 1_555
C1 C2 1_555 1_555
C2 C11 1_555 1_555
C3 C6 1_555 1_555
C4 H1 1_555 1_555
C5 H2 1_555 1_555
C6 C28 1_555 1_555
C7 C8 1_555 1_555
C8 C4 1_555 1_555
C9 C3 1_555 1_555
H3 C9 1_555 1_555
C10 H4 1_555 1_555
C11 C10 1_555 1_555
C12 H5 1_555 1_555
C13 C3 1_555 1_555
C14 C7 1_555 1_555
H6 C14 1_555 1_555
C15 C9 1_555 1_555
H7 C15 1_555 1_555
C16 C5 1_555 1_555
H8 C16 1_555 1_555
C17 C1 1_555 1_555
C18 H9 1_555 1_555
C19 C14 1_555 1_555
H10 C19 1_555 1_555
C20 C7 1_555 1_555
C21 H11 1_555 1_555
C22 N1 1_555 1_555
C23 C18 1_555 1_555
H12 C23 1_555 1_555
C24 C13 1_555 1_555
C25 C21 1_555 1_555
H13 C25 1_555 1_555
C26 N1 1_555 1_555
C27 H14 1_555 1_555
C28 C24 1_555 1_555
C29 C27 1_555 1_555
H15 C29 1_555 1_555
C30 C27 1_555 1_555
H16 C30 1_555 1_555
C31 C21 1_555 1_555
H17 C31 1_555 1_555
C32 C12 1_555 1_555
H18 C32 1_555 1_555
C33 C6 1_555 1_555
H19 C33 1_555 1_555
C34 C24 1_555 1_555
H20 C34 1_555 1_555
H21 C34 1_555 1_555
H22 C34 1_555 1_555
C35 C24 1_555 1_555
H23 C35 1_555 1_555
H24 C35 1_555 1_555
H25 C35 1_555 1_555
B1 C1 1_555 1_555
H26 B1 1_555 1_555
B2 C1 1_555 1_555
H27 B2 1_555 1_555
B3 C1 1_555 1_555
H28 B3 1_555 1_555
B4 C1 1_555 1_555
H29 B4 1_555 1_555
B5 C2 1_555 1_555
H30 B5 1_555 1_555
B6 C2 1_555 1_555
H31 B6 1_555 1_555
B7 B1 1_555 1_555
H32 B7 1_555 1_555
B8 B2 1_555 1_555
H33 B8 1_555 1_555
B9 B3 1_555 1_555
H34 B9 1_555 1_555
B10 B5 1_555 1_555
H35 B10 1_555 1_555
C2 B1 1_555 1_555
C2 B4 1_555 1_555
C4 C17 1_555 1_555
C5 C17 1_555 1_555
C8 C26 1_555 1_555
C10 C13 1_555 1_555
C11 C15 1_555 1_555
C12 C22 1_555 1_555
C16 C26 1_555 1_555
C18 C20 1_555 1_555
C19 C23 1_555 1_555
C22 C25 1_555 1_555
C28 C30 1_555 1_555
C29 C33 1_555 1_555
C31 C32 1_555 1_555
B1 B2 1_555 1_555
B1 B6 1_555 1_555
B2 B3 1_555 1_555
B2 B7 1_555 1_555
B3 B4 1_555 1_555
B3 B8 1_555 1_555
B4 B5 1_555 1_555
B4 B9 1_555 1_555
B5 B6 1_555 1_555
B5 B9 1_555 1_555
B6 B7 1_555 1_555
B6 B10 1_555 1_555
B7 B8 1_555 1_555
B7 B10 1_555 1_555
B8 B9 1_555 1_555
B8 B10 1_555 1_555
B9 B10 1_555 1_555

#END
