
#######################################################################
#
#                 Cambridge Crystallographic Data Centre
#                                CCDC 
#
#######################################################################
#
# If this CIF has been generated from an entry in the Cambridge 
# Structural Database, then it will include bibliographic, chemical, 
# crystal, experimental, refinement or atomic coordinate data resulting 
# from the CCDC's data processing and validation procedures.
#
#######################################################################

data_QESNEI
_chemical_compound_source        'Caragana spinifera Kom. (Leguminosae)'
_chemical_formula_moiety         'C17 H16 O5'
_chemical_name_systematic        (6aR,11aR)-4,9-dimethoxy-3-hydroxypterocarpan
_chemical_properties_biological  
'plant used as folk medicine for the treatment of asthenia syndrome, vascular hypertension, leukorrhagia, bruises and contused wounds'
_symmetry_cell_setting           monoclinic
_symmetry_space_group_name_H-M   'P 21'
_symmetry_Int_Tables_number      4
_space_group_name_Hall           'P 2yb'
loop_
_symmetry_equiv_pos_site_id
_symmetry_equiv_pos_as_xyz
1 x,y,z
2 -x,1/2+y,-z
_cell_length_a                   6.4778(13)
_cell_length_b                   12.631(3)
_cell_length_c                   8.8368(18)
_cell_angle_alpha                90
_cell_angle_beta                 95.8(3)
_cell_angle_gamma                90
_cell_volume                     719.335
_exptl_crystal_colour            colorless
_exptl_crystal_description       platelet
_chemical_melting_point          '168-170 deg.C'
_cell_formula_units_Z            2
loop_
_atom_site_label
_atom_site_type_symbol
_atom_site_fract_x
_atom_site_fract_y
_atom_site_fract_z
O1 O 0.4228(3) 0.4630(1) 0.6871(2)
O2 O 0.0444(2) 0.5375(1) 0.7413(2)
O3 O -0.0425(2) 0.7511(1) 0.7069(2)
O4 O 0.3839(2) 0.9618(1) 0.7025(2)
O5 O 0.2830(3) 1.3152(1) 0.8954(2)
C1 C 0.3782(3) 0.5679(2) 0.6665(2)
C2 C 0.5253(3) 0.6333(2) 0.6104(3)
C3 C 0.4817(3) 0.7387(2) 0.5864(2)
C4 C 0.2946(3) 0.7826(1) 0.6215(2)
C5 C 0.2493(3) 0.8971(2) 0.5934(2)
C6 C 0.2714(3) 1.0502(2) 0.7303(2)
C7 C 0.3549(3) 1.1385(2) 0.8060(2)
C8 C 0.2214(3) 1.2226(2) 0.8230(2)
C9 C 0.0155(4) 1.2186(2) 0.7637(3)
C10 C -0.0642(3) 1.1273(2) 0.6919(2)
C11 C 0.0648(3) 1.0419(2) 0.6759(2)
C12 C 0.0289(3) 0.9305(2) 0.6184(2)
C13 C -0.0496(3) 0.8616(2) 0.7426(3)
C14 C 0.1484(3) 0.7162(2) 0.6770(2)
C15 C 0.1888(3) 0.6086(2) 0.6984(2)
C16 C -0.0178(6) 0.5508(3) 0.8901(3)
C17 C 0.4769(5) 1.3147(2) 0.9860(4)
loop_
_geom_bond_atom_site_label_1
_geom_bond_atom_site_label_2
_geom_bond_site_symmetry_1
_geom_bond_site_symmetry_2
O1 C1 1_555 1_555
O2 C15 1_555 1_555
O3 C13 1_555 1_555
O4 C5 1_555 1_555
O5 C8 1_555 1_555
C1 C2 1_555 1_555
C2 C3 1_555 1_555
C3 C4 1_555 1_555
C4 C5 1_555 1_555
C5 C12 1_555 1_555
C6 O4 1_555 1_555
C7 C6 1_555 1_555
C8 C7 1_555 1_555
C9 C8 1_555 1_555
C10 C9 1_555 1_555
C11 C6 1_555 1_555
C12 C11 1_555 1_555
C13 C12 1_555 1_555
C14 O3 1_555 1_555
C15 C1 1_555 1_555
C16 O2 1_555 1_555
C17 O5 1_555 1_555
C4 C14 1_555 1_555
C10 C11 1_555 1_555
C14 C15 1_555 1_555

#END
