
#######################################################################
#
#                 Cambridge Crystallographic Data Centre
#                                CCDC 
#
#######################################################################
#
# If this CIF has been generated from an entry in the Cambridge 
# Structural Database, then it will include bibliographic, chemical, 
# crystal, experimental, refinement or atomic coordinate data resulting 
# from the CCDC's data processing and validation procedures.
#
#######################################################################

data_QESREL
_chemical_formula_moiety         'C19 H20 N2 O1 S2'
_chemical_name_systematic        
rac-5^2^,5^5^-Dimethyl-1^2^-oxo-3,7-dithia-1(1,3)-benzimidazola-5(1,4)-benzenacyclooctaphane
_symmetry_cell_setting           monoclinic
_symmetry_space_group_name_H-M   'C 2/c'
_symmetry_Int_Tables_number      15
_space_group_name_Hall           '-C 2yn'
loop_
_symmetry_equiv_pos_site_id
_symmetry_equiv_pos_as_xyz
1 x,y,z
2 1/2+x,1/2+y,z
3 x,-y,1/2+z
4 1/2+x,1/2-y,1/2+z
5 -x,-y,-z
6 1/2-x,1/2-y,-z
7 -x,y,1/2-z
8 1/2-x,1/2+y,1/2-z
_cell_length_a                   27.300(6)
_cell_length_b                   9.3010(19)
_cell_length_c                   17.584(4)
_cell_angle_alpha                90
_cell_angle_beta                 129.37(3)
_cell_angle_gamma                90
_cell_volume                     3451.65
_exptl_crystal_colour            colorless
_chemical_melting_point          '223.5-225 deg.C'
_cell_formula_units_Z            8
_exptl_crystal_recrystallization_method dichloromethane/pentane
loop_
_atom_site_label
_atom_site_type_symbol
_atom_site_fract_x
_atom_site_fract_y
_atom_site_fract_z
S1 S 0.06304(2) 0.61780(5) 1.06871(3)
S2 S 0.17211(2) 1.08376(5) 0.89685(3)
N1 N 0.07258(6) 0.93193(12) 0.86231(9)
O1 O 0.01991(5) 1.02976(12) 0.91480(9)
N2 N 0.03767(6) 0.78366(12) 0.91705(9)
C1 C 0.04141(6) 0.92751(15) 0.90085(10)
C2 C 0.08964(8) 1.06640(17) 0.84267(13)
C3 C 0.08509(6) 0.79249(15) 0.84934(10)
C4 C 0.06259(6) 0.69911(15) 0.88343(10)
C5 C 0.14104(8) 0.98295(18) 1.13558(12)
C6 C 0.01220(8) 0.73616(18) 0.96431(13)
C7 C 0.15354(8) 0.83696(17) 1.14246(11)
C8 C 0.21235(7) 0.88535(18) 1.08723(13)
C9 C 0.11247(8) 0.7422(2) 0.81031(13)
C10 C 0.16240(8) 1.08262(16) 1.10335(12)
C11 C 0.19632(7) 1.03091(17) 1.07467(11)
C12 C 0.19251(7) 0.78668(17) 1.12169(11)
C13 C 0.21360(10) 1.1270(2) 1.02592(14)
C14 C 0.06635(9) 0.55114(17) 0.87806(13)
C15 C 0.09400(10) 0.5006(2) 0.83869(15)
C16 C 0.12189(12) 0.7390(2) 1.16781(15)
C17 C 0.11657(9) 0.5935(2) 0.80561(16)
C18 C 0.14688(14) 1.2397(2) 1.0996(2)
C19 C 0.21113(12) 0.6310(2) 1.13265(19)
H1 H 0.0038(10) 0.823(2) 0.9889(16)
H2 H 0.2371(9) 0.851(2) 1.0683(16)
H3 H -0.0269(9) 0.679(2) 0.9181(14)
H4 H 0.1136(10) 1.018(2) 1.1517(15)
H5 H 0.0763(9) 1.145(2) 0.8654(15)
H6 H 0.0683(10) 1.074(2) 0.7725(17)
H7 H 0.2583(12) 1.111(2) 1.051(2)
H8 H 0.0501(10) 0.492(3) 0.9004(16)
H9 H 0.1264(10) 0.805(2) 0.7831(17)
H10 H 0.1531(11) 0.676(3) 1.2210(19)
H11 H 0.1369(10) 0.555(2) 0.7787(18)
H12 H 0.0981(11) 0.402(3) 0.8326(19)
H13 H 0.1133(14) 1.265(3) 1.039(2)
H14 H 0.2240(17) 0.590(4) 1.193(3)
H15 H 0.1774(15) 0.572(3) 1.082(2)
H16 H 0.1828(17) 1.291(4) 1.128(3)
H17 H 0.1068(14) 0.784(4) 1.193(3)
H18 H 0.2434(17) 0.621(3) 1.134(3)
H19 H 0.2062(12) 1.230(3) 1.031(2)
H20 H 0.1335(15) 1.260(4) 1.139(2)
loop_
_geom_bond_atom_site_label_1
_geom_bond_atom_site_label_2
_geom_bond_site_symmetry_1
_geom_bond_site_symmetry_2
S1 C6 1_555 1_555
S2 C2 1_555 1_555
N1 C1 1_555 1_555
O1 C1 1_555 1_555
N2 C1 1_555 1_555
C2 N1 1_555 1_555
C3 N1 1_555 1_555
C4 N2 1_555 1_555
C5 C7 1_555 1_555
C6 N2 1_555 1_555
C7 C12 1_555 1_555
C8 C11 1_555 1_555
C9 C3 1_555 1_555
C10 C5 1_555 1_555
C11 C10 1_555 1_555
C12 C8 1_555 1_555
C13 S2 1_555 1_555
C14 C4 1_555 1_555
C15 C14 1_555 1_555
C16 S1 1_555 1_555
C17 C9 1_555 1_555
C18 C10 1_555 1_555
C19 C12 1_555 1_555
H1 C6 1_555 1_555
H2 C8 1_555 1_555
H3 C6 1_555 1_555
H4 C5 1_555 1_555
H5 C2 1_555 1_555
H6 C2 1_555 1_555
H7 C13 1_555 1_555
H8 C14 1_555 1_555
H9 C9 1_555 1_555
H10 C16 1_555 1_555
H11 C17 1_555 1_555
H12 C15 1_555 1_555
H13 C18 1_555 1_555
H14 C19 1_555 1_555
H15 C19 1_555 1_555
H16 C18 1_555 1_555
H17 C16 1_555 1_555
H18 C19 1_555 1_555
H19 C13 1_555 1_555
H20 C18 1_555 1_555
C3 C4 1_555 1_555
C7 C16 1_555 1_555
C11 C13 1_555 1_555
C15 C17 1_555 1_555

#END
