
#######################################################################
#
#                 Cambridge Crystallographic Data Centre
#                                CCDC 
#
#######################################################################
#
# If this CIF has been generated from an entry in the Cambridge 
# Structural Database, then it will include bibliographic, chemical, 
# crystal, experimental, refinement or atomic coordinate data resulting 
# from the CCDC's data processing and validation procedures.
#
#######################################################################

data_QESSEP
_chemical_formula_moiety         'C43 H44 O10,C6 H8 N2,H2 O1'
_chemical_name_systematic        
'adiponitrile 9,14,19,24,26,28,30,32-octamethoxyhexacyclo[21.2.2.2^3,6^.2^8,11^.2^13,16^.2^18,21^]pentatriaconta-1(25),3(35),5,8,10,13,15,18,20,23,26,28,30,32-tetradecaene-4,34-dione monohydrate'
_symmetry_cell_setting           monoclinic
_symmetry_space_group_name_H-M   'P 21/c'
_symmetry_Int_Tables_number      14
_space_group_name_Hall           '-P 2ybc'
loop_
_symmetry_equiv_pos_site_id
_symmetry_equiv_pos_as_xyz
1 x,y,z
2 -x,1/2+y,1/2-z
3 -x,-y,-z
4 x,1/2-y,1/2+z
_cell_length_a                   18.3619(3)
_cell_length_b                   12.2241(2)
_cell_length_c                   19.6644(4)
_cell_angle_alpha                90
_cell_angle_beta                 95.7311(17)
_cell_angle_gamma                90
_cell_volume                     4391.76
_exptl_crystal_colour            yellow
_exptl_crystal_description       block
_cell_formula_units_Z            4
loop_
_atom_site_label
_atom_site_type_symbol
_atom_site_fract_x
_atom_site_fract_y
_atom_site_fract_z
O1 O 0.40372(13) 0.36593(19) 0.36703(12)
O2 O 0.35097(13) -0.2719(2) 0.54215(12)
O3 O 0.37877(13) -0.3044(2) 0.27613(12)
O4 O 0.19066(14) 0.2730(2) 0.17811(13)
O5 O 0.42429(15) 0.0584(2) 0.16391(13)
O6 O 0.01739(16) 0.0576(2) 0.28506(16)
O7 O 0.13205(13) -0.3172(2) 0.32968(14)
O8 O 0.16047(14) 0.3517(2) 0.45079(13)
O9 O 0.12189(15) -0.0701(2) 0.54557(14)
O10 O 0.52981(19) -0.0025(3) 0.42353(15)
C1 C 0.40962(17) 0.2870(3) 0.31761(16)
C2 C 0.36198(17) 0.2977(3) 0.25804(17)
C3 C 0.31451(17) -0.3227(2) 0.42871(17)
C4 C 0.23630(17) 0.3500(2) 0.28323(18)
C5 C 0.42781(16) -0.2476(3) 0.38636(17)
C6 C 0.29500(18) -0.2850(3) 0.49085(17)
C7 C 0.41493(17) -0.2362(3) 0.31056(17)
C8 C 0.41721(18) 0.1360(3) 0.21311(17)
C9 C 0.48618(16) -0.0657(3) 0.31378(17)
C10 C 0.16918(18) 0.3328(3) 0.38299(17)
C11 C 0.46412(17) 0.1255(3) 0.27284(18)
C12 C 0.44700(18) -0.1412(3) 0.27817(17)
H1 H 0.4394 -0.1340 0.2309
C13 C 0.11506(17) 0.2713(3) 0.34586(19)
C14 C 0.26002(17) -0.3358(3) 0.37471(17)
H2 H 0.2724 -0.3631 0.3332
C15 C 0.18727(18) -0.3089(3) 0.38156(18)
C16 C 0.18129(18) 0.2905(3) 0.24603(18)
C17 C 0.16756(18) -0.2713(3) 0.44430(19)
C18 C 0.22861(17) 0.3710(3) 0.35132(17)
H3 H 0.2643 0.4120 0.3767
C19 C 0.45961(17) 0.2013(3) 0.32465(17)
H4 H 0.4906 0.1947 0.3649
C20 C 0.39377(17) -0.3450(3) 0.41806(17)
H5 H 0.4210 -0.3616 0.4617
H6 H 0.3965 -0.4081 0.3885
C21 C 0.04292(18) 0.0228(3) 0.3493(2)
C22 C 0.22185(18) -0.2613(3) 0.49863(18)
H7 H 0.2092 -0.2384 0.5410
C23 C 0.12181(18) 0.2523(3) 0.27686(19)
H8 H 0.0855 0.2130 0.2510
C24 C 0.51905(17) 0.0323(3) 0.28109(18)
H9 H 0.5334 0.0118 0.2367
H10 H 0.5625 0.0561 0.3093
C25 C 0.05979(17) 0.1048(3) 0.3979(2)
C26 C 0.36712(18) 0.2218(3) 0.20608(17)
H11 H 0.3364 0.2284 0.1657
C27 C 0.30445(17) 0.3870(3) 0.25118(18)
H12 H 0.2917 0.4036 0.2032
H13 H 0.3239 0.4528 0.2737
C28 C 0.49680(19) -0.0738(3) 0.38918(18)
C29 C 0.46593(18) -0.1694(3) 0.42196(18)
H14 H 0.4732 -0.1757 0.4693
C30 C 0.09566(18) -0.0348(3) 0.48156(19)
C31 C 0.07826(17) -0.1171(3) 0.4335(2)
C32 C 0.04984(18) 0.2251(3) 0.3791(2)
H15 H 0.0433 0.2668 0.4200
H16 H 0.0059 0.2335 0.3478
C33 C 0.05200(18) -0.0868(3) 0.3675(2)
H17 H 0.0403 -0.1407 0.3348
C34 C 0.08572(18) 0.0745(3) 0.46365(19)
H18 H 0.0967 0.1283 0.4965
C35 C 0.08965(18) -0.2367(3) 0.4523(2)
H19 H 0.0794 -0.2480 0.4992
H20 H 0.0559 -0.2814 0.4231
C36 C 0.4510(2) 0.3567(3) 0.4282(2)
H21 H 0.5008 0.3550 0.4175
H22 H 0.4401 0.2904 0.4514
H23 H 0.4439 0.4183 0.4571
C37 C 0.3727(3) 0.0605(4) 0.1049(2)
H24 H 0.3819 0.0003 0.0755
H25 H 0.3774 0.1281 0.0808
H26 H 0.3241 0.0546 0.1184
C38 C 0.1524(2) -0.3509(4) 0.2649(2)
H27 H 0.1100 -0.3507 0.2321
H28 H 0.1725 -0.4234 0.2685
H29 H 0.1883 -0.3014 0.2503
C39 C 0.2130(2) 0.4227(4) 0.4869(2)
H30 H 0.2155 0.4901 0.4623
H31 H 0.2601 0.3881 0.4912
H32 H 0.1985 0.4374 0.5316
C40 C 0.1345(2) 0.2145(3) 0.1382(2)
H33 H 0.1464 0.2095 0.0919
H34 H 0.0888 0.2523 0.1393
H35 H 0.1304 0.1423 0.1567
C41 C 0.3326(2) -0.2316(4) 0.6062(2)
H36 H 0.3113 -0.1602 0.6001
H37 H 0.3760 -0.2273 0.6376
H38 H 0.2982 -0.2802 0.6242
C42 C 0.1416(3) 0.0106(4) 0.5961(2)
H39 H 0.1751 0.0616 0.5790
H40 H 0.1646 -0.0240 0.6365
H41 H 0.0986 0.0486 0.6070
C43 C 0.0002(3) -0.0223(4) 0.2341(3)
H42 H -0.0135 0.0131 0.1912
H43 H -0.0398 -0.0664 0.2463
H44 H 0.0421 -0.0679 0.2302
N1 N 0.3155(3) 0.1658(6) 0.5403(3)
N2 N 0.2092(3) -0.0811(4) 0.1933(2)
C44 C 0.2648(6) -0.0245(7) 0.3479(6)
H45 H 0.2247 -0.0673 0.3627
H46 H 0.3074 -0.0714 0.3478
C45 C 0.2371(7) -0.0646(12) 0.2340(7)
C46 C 0.2798(6) 0.0631(7) 0.3907(7)
H47 H 0.2368 0.1087 0.3919
H48 H 0.3189 0.1071 0.3751
C47 C 0.3031(6) 0.0152(7) 0.4618(7)
H49 H 0.2656 -0.0290 0.4797
H50 H 0.3493 -0.0237 0.4645
C48 C 0.3085(6) 0.1169(9) 0.4885(4)
C49 C 0.2441(7) 0.0222(8) 0.2774(7)
H51 H 0.1984 0.0621 0.2762
H52 H 0.2819 0.0715 0.2648
O11 O 0.0514(6) -0.0272(6) 0.0626(3)
H53 H 0.0579 0.0413 0.0676
H54 H 0.0393 -0.0413 0.0207
N3? N 0.3242(3) 0.1301(6) 0.5568(3)
loop_
_geom_bond_atom_site_label_1
_geom_bond_atom_site_label_2
_geom_bond_site_symmetry_1
_geom_bond_site_symmetry_2
O1 C1 1_555 1_555
O2 C6 1_555 1_555
O3 C7 1_555 1_555
O4 C16 1_555 1_555
O5 C8 1_555 1_555
O6 C21 1_555 1_555
O7 C15 1_555 1_555
O8 C10 1_555 1_555
O9 C30 1_555 1_555
O10 C28 1_555 1_555
C1 C2 1_555 1_555
C2 C26 1_555 1_555
C3 C6 1_555 1_555
C4 C16 1_555 1_555
C5 C7 1_555 1_555
C6 C22 1_555 1_555
C7 C12 1_555 1_555
C8 C11 1_555 1_555
C9 C12 1_555 1_555
C10 C13 1_555 1_555
C11 C19 1_555 1_555
C12 H1 1_555 1_555
C13 C23 1_555 1_555
C14 C3 1_555 1_555
H2 C14 1_555 1_555
C15 C14 1_555 1_555
C16 C23 1_555 1_555
C17 C15 1_555 1_555
C18 C4 1_555 1_555
H3 C18 1_555 1_555
C19 C1 1_555 1_555
H4 C19 1_555 1_555
C20 C3 1_555 1_555
H5 C20 1_555 1_555
H6 C20 1_555 1_555
C21 C25 1_555 1_555
C22 C17 1_555 1_555
H7 C22 1_555 1_555
C23 H8 1_555 1_555
C24 C9 1_555 1_555
H9 C24 1_555 1_555
H10 C24 1_555 1_555
C25 C32 1_555 1_555
C26 C8 1_555 1_555
H11 C26 1_555 1_555
C27 C2 1_555 1_555
H12 C27 1_555 1_555
H13 C27 1_555 1_555
C28 C9 1_555 1_555
C29 C5 1_555 1_555
H14 C29 1_555 1_555
C30 C31 1_555 1_555
C31 C33 1_555 1_555
C32 C13 1_555 1_555
H15 C32 1_555 1_555
H16 C32 1_555 1_555
C33 C21 1_555 1_555
H17 C33 1_555 1_555
C34 C25 1_555 1_555
H18 C34 1_555 1_555
C35 C17 1_555 1_555
H19 C35 1_555 1_555
H20 C35 1_555 1_555
C36 O1 1_555 1_555
H21 C36 1_555 1_555
H22 C36 1_555 1_555
H23 C36 1_555 1_555
C37 O5 1_555 1_555
H24 C37 1_555 1_555
H25 C37 1_555 1_555
H26 C37 1_555 1_555
C38 O7 1_555 1_555
H27 C38 1_555 1_555
H28 C38 1_555 1_555
H29 C38 1_555 1_555
C39 O8 1_555 1_555
H30 C39 1_555 1_555
H31 C39 1_555 1_555
H32 C39 1_555 1_555
C40 O4 1_555 1_555
H33 C40 1_555 1_555
H34 C40 1_555 1_555
H35 C40 1_555 1_555
C41 O2 1_555 1_555
H36 C41 1_555 1_555
H37 C41 1_555 1_555
H38 C41 1_555 1_555
C42 O9 1_555 1_555
H39 C42 1_555 1_555
H40 C42 1_555 1_555
H41 C42 1_555 1_555
C43 O6 1_555 1_555
H42 C43 1_555 1_555
H43 C43 1_555 1_555
H44 C43 1_555 1_555
N1 C48 1_555 1_555
N2 C45 1_555 1_555
C44 H45 1_555 1_555
H46 C44 1_555 1_555
C45 C49 1_555 1_555
C46 C44 1_555 1_555
H47 C46 1_555 1_555
H48 C46 1_555 1_555
C47 C46 1_555 1_555
H49 C47 1_555 1_555
H50 C47 1_555 1_555
C48 C47 1_555 1_555
C49 C44 1_555 1_555
H51 C49 1_555 1_555
H52 C49 1_555 1_555
O11 H53 1_555 1_555
H54 O11 1_555 1_555
C4 C27 1_555 1_555
C5 C20 1_555 1_555
C10 C18 1_555 1_555
C11 C24 1_555 1_555
C28 C29 1_555 1_555
C30 C34 1_555 1_555
C31 C35 1_555 1_555

#END
