
#######################################################################
#
#                 Cambridge Crystallographic Data Centre
#                                CCDC 
#
#######################################################################
#
# If this CIF has been generated from an entry in the Cambridge 
# Structural Database, then it will include bibliographic, chemical, 
# crystal, experimental, refinement or atomic coordinate data resulting 
# from the CCDC's data processing and validation procedures.
#
#######################################################################

data_QESTIS
_chemical_formula_moiety         'C9 H17 N1 O1 S1'
_chemical_name_systematic        
(R)-2-Hydroxymethyl-1-aza-4-thiasprio(4.5)decane
_symmetry_cell_setting           orthorhombic
_symmetry_space_group_name_H-M   'P 21 21 21'
_symmetry_Int_Tables_number      19
_space_group_name_Hall           'P 2ac 2ab'
loop_
_symmetry_equiv_pos_site_id
_symmetry_equiv_pos_as_xyz
1 x,y,z
2 1/2-x,-y,1/2+z
3 1/2+x,1/2-y,-z
4 -x,1/2+y,1/2-z
_cell_length_a                   6.704(1)
_cell_length_b                   8.167(2)
_cell_length_c                   18.267(4)
_cell_angle_alpha                90
_cell_angle_beta                 90
_cell_angle_gamma                90
_cell_volume                     1000.15
_cell_formula_units_Z            4
loop_
_atom_site_label
_atom_site_type_symbol
_atom_site_fract_x
_atom_site_fract_y
_atom_site_fract_z
S1 S 0.1130(1) 0.9710(1) 0.9421(1)
O1 O 0.4367(3) 0.6689(2) 0.7898(1)
N1 N 0.3309(3) 0.9979(2) 0.8209(1)
C1 C 0.1944(3) 1.1000(2) 0.8626(1)
C2 C 0.0130(3) 1.1477(3) 0.8179(1)
C3 C -0.1256(3) 1.2641(3) 0.8598(1)
C4 C -0.0177(4) 1.4140(3) 0.8872(1)
C5 C 0.1607(3) 1.3654(3) 0.9326(1)
C6 C 0.2994(3) 1.2537(2) 0.8906(1)
C7 C 0.3059(4) 0.8233(3) 0.9265(1)
C8 C 0.4498(3) 0.8975(2) 0.8709(1)
C9 C 0.5685(4) 0.7694(3) 0.8292(1)
loop_
_geom_bond_atom_site_label_1
_geom_bond_atom_site_label_2
_geom_bond_site_symmetry_1
_geom_bond_site_symmetry_2
S1 C1 1_555 1_555
O1 C9 1_555 1_555
N1 C1 1_555 1_555
C1 C2 1_555 1_555
C2 C3 1_555 1_555
C3 C4 1_555 1_555
C4 C5 1_555 1_555
C5 C6 1_555 1_555
C6 C1 1_555 1_555
C7 S1 1_555 1_555
C8 N1 1_555 1_555
C9 C8 1_555 1_555
C7 C8 1_555 1_555

#END
