
#######################################################################
#
#                 Cambridge Crystallographic Data Centre
#                                CCDC 
#
#######################################################################
#
# If this CIF has been generated from an entry in the Cambridge 
# Structural Database, then it will include bibliographic, chemical, 
# crystal, experimental, refinement or atomic coordinate data resulting 
# from the CCDC's data processing and validation procedures.
#
#######################################################################

data_QESWAP
_chemical_formula_moiety         'C20 H24 N2 O5'
_chemical_name_systematic        
't-butyl (4-methoxyphenyl)[(4-methoxyphenyl)carbamoyl]carbamate'
_symmetry_cell_setting           triclinic
_symmetry_space_group_name_H-M   'P -1'
_symmetry_Int_Tables_number      2
_space_group_name_Hall           '-P 1'
loop_
_symmetry_equiv_pos_site_id
_symmetry_equiv_pos_as_xyz
1 x,y,z
2 -x,-y,-z
_cell_length_a                   9.590(6)
_cell_length_b                   10.746(6)
_cell_length_c                   11.417(7)
_cell_angle_alpha                69.038(7)
_cell_angle_beta                 75.369(9)
_cell_angle_gamma                65.266(7)
_cell_volume                     990.534
_exptl_crystal_colour            colorless
_exptl_crystal_description       block
_cell_formula_units_Z            2
loop_
_atom_site_label
_atom_site_type_symbol
_atom_site_fract_x
_atom_site_fract_y
_atom_site_fract_z
C1 C 1.1336(3) -0.2121(3) 0.2770(3)
C2 C 1.1495(4) -0.1377(4) 0.1510(3)
H1 H 1.2038 -0.1869 0.0912
C3 C 1.0848(4) 0.0096(3) 0.1135(3)
H2 H 1.0985 0.0591 0.0286
C4 C 1.0008(3) 0.0839(3) 0.1992(3)
C5 C 0.9876(3) 0.0095(3) 0.3249(3)
H3 H 0.9340 0.0590 0.3845
C6 C 1.0535(3) -0.1387(3) 0.3638(3)
H4 H 1.0429 -0.1880 0.4491
C7 C 1.1781(5) -0.4397(4) 0.4299(3)
H5 H 1.2286 -0.4233 0.4827
H6 H 1.2203 -0.5394 0.4346
H7 H 1.0693 -0.4117 0.4583
C8 C 0.8643(3) 0.3303(3) 0.2162(3)
C9 C 0.7265(3) 0.5765(3) 0.2191(3)
C10 C 0.8119(3) 0.6467(3) 0.2313(3)
H8 H 0.9128 0.6298 0.1916
C11 C 0.7477(3) 0.7412(3) 0.3021(3)
H9 H 0.8052 0.7888 0.3097
C12 C 0.5990(3) 0.7664(3) 0.3621(3)
C13 C 0.5140(3) 0.6964(4) 0.3489(3)
H10 H 0.4130 0.7132 0.3883
C14 C 0.5784(3) 0.6023(4) 0.2778(3)
H11 H 0.5207 0.5555 0.2694
C15 C 0.3916(4) 0.8879(4) 0.4954(3)
H12 H 0.3211 0.9214 0.4347
H13 H 0.3661 0.9596 0.5367
H14 H 0.3839 0.8017 0.5570
C16 C 0.7736(3) 0.5200(3) 0.0187(3)
C17 C 0.6238(4) 0.7314(4) -0.1385(3)
C18 C 0.5352(6) 0.8821(4) -0.1294(4)
H15 H 0.6042 0.9189 -0.1170
H16 H 0.4549 0.8818 -0.0594
H17 H 0.4900 0.9414 -0.2061
C19 C 0.7490(5) 0.7269(5) -0.2469(3)
H18 H 0.8196 0.7632 -0.2364
H19 H 0.7045 0.7846 -0.3242
H20 H 0.8035 0.6300 -0.2501
C20 C 0.5193(5) 0.6602(5) -0.1404(4)
H21 H 0.4600 0.7159 -0.2104
H22 H 0.4506 0.6530 -0.0629
H23 H 0.5805 0.5662 -0.1492
N1 N 0.9315(3) 0.2352(3) 0.1510(2)
H24 H 0.9334 0.2690 0.0702
N2 N 0.7945(3) 0.4754(3) 0.1462(2)
O1 O 1.2021(3) -0.3584(2) 0.3040(2)
O2 O 0.8590(3) 0.3022(2) 0.32979(18)
O3 O 0.5454(2) 0.8595(2) 0.4328(2)
O4 O 0.8243(3) 0.4433(2) -0.04812(19)
O5 O 0.6898(3) 0.6593(2) -0.01603(19)
loop_
_geom_bond_atom_site_label_1
_geom_bond_atom_site_label_2
_geom_bond_site_symmetry_1
_geom_bond_site_symmetry_2
C1 C2 1_555 1_555
C2 H1 1_555 1_555
C3 C2 1_555 1_555
H2 C3 1_555 1_555
C4 C3 1_555 1_555
C5 C4 1_555 1_555
H3 C5 1_555 1_555
C6 C1 1_555 1_555
H4 C6 1_555 1_555
C7 H5 1_555 1_555
H6 C7 1_555 1_555
H7 C7 1_555 1_555
C8 N1 1_555 1_555
C9 C10 1_555 1_555
C10 H8 1_555 1_555
C11 C10 1_555 1_555
H9 C11 1_555 1_555
C12 C11 1_555 1_555
C13 C12 1_555 1_555
H10 C13 1_555 1_555
C14 C9 1_555 1_555
H11 C14 1_555 1_555
C15 H12 1_555 1_555
H13 C15 1_555 1_555
H14 C15 1_555 1_555
C16 N2 1_555 1_555
C17 C18 1_555 1_555
C18 H15 1_555 1_555
H16 C18 1_555 1_555
H17 C18 1_555 1_555
C19 C17 1_555 1_555
H18 C19 1_555 1_555
H19 C19 1_555 1_555
H20 C19 1_555 1_555
C20 C17 1_555 1_555
H21 C20 1_555 1_555
H22 C20 1_555 1_555
H23 C20 1_555 1_555
N1 C4 1_555 1_555
H24 N1 1_555 1_555
N2 C8 1_555 1_555
O1 C1 1_555 1_555
O2 C8 1_555 1_555
O3 C12 1_555 1_555
O4 C16 1_555 1_555
O5 C16 1_555 1_555
C5 C6 1_555 1_555
C7 O1 1_555 1_555
C9 N2 1_555 1_555
C13 C14 1_555 1_555
C15 O3 1_555 1_555
C17 O5 1_555 1_555

#END
