
#######################################################################
#
#                 Cambridge Crystallographic Data Centre
#                                CCDC 
#
#######################################################################
#
# If this CIF has been generated from an entry in the Cambridge 
# Structural Database, then it will include bibliographic, chemical, 
# crystal, experimental, refinement or atomic coordinate data resulting 
# from the CCDC's data processing and validation procedures.
#
#######################################################################

data_QESWET
_chemical_formula_moiety         'C26 H36 N2 O3'
_chemical_name_systematic        
't-butyl (4-t-butylphenyl)[(4-t-butylphenyl)carbamoyl]carbamate'
_symmetry_cell_setting           monoclinic
_symmetry_space_group_name_H-M   'P 21/c'
_symmetry_Int_Tables_number      14
_space_group_name_Hall           '-P 2ybc'
loop_
_symmetry_equiv_pos_site_id
_symmetry_equiv_pos_as_xyz
1 x,y,z
2 -x,1/2+y,1/2-z
3 -x,-y,-z
4 x,1/2-y,1/2+z
_cell_length_a                   6.021(3)
_cell_length_b                   16.943(7)
_cell_length_c                   24.995(11)
_cell_angle_alpha                90
_cell_angle_beta                 94.428(6)
_cell_angle_gamma                90
_cell_volume                     2542.22
_exptl_crystal_colour            colorless
_exptl_crystal_description       block
_cell_formula_units_Z            4
loop_
_atom_site_label
_atom_site_type_symbol
_atom_site_fract_x
_atom_site_fract_y
_atom_site_fract_z
C1 C 1.4792(4) 0.81639(13) 0.44292(9)
C2 C 1.4280(5) 0.74010(15) 0.42825(11)
H1 H 1.5068 0.6992 0.4458
C3 C 1.2648(5) 0.72179(15) 0.38869(11)
H2 H 1.2373 0.6692 0.3798
C4 C 1.1419(4) 0.77970(13) 0.36206(9)
C5 C 1.1930(5) 0.85633(14) 0.37495(10)
H3 H 1.1163 0.8972 0.3569
C6 C 1.3576(5) 0.87325(14) 0.41461(10)
H4 H 1.3881 0.9259 0.4226
C7 C 1.6491(4) 0.83687(16) 0.48913(10)
C8 C 1.8226(5) 0.7727(2) 0.49905(14)
H5 H 1.7516 0.7250 0.5095
H6 H 1.9305 0.7890 0.5272
H7 H 1.8956 0.7635 0.4668
C9 C 1.5242(6) 0.8466(3) 0.53985(12)
H8 H 1.4120 0.8866 0.5339
H9 H 1.6272 0.8618 0.5693
H10 H 1.4550 0.7975 0.5481
C10 C 1.7703(6) 0.9135(2) 0.47894(15)
H11 H 1.8426 0.9092 0.4462
H12 H 1.8797 0.9235 0.5082
H13 H 1.6652 0.9562 0.4761
C11 C 0.8473(4) 0.80169(14) 0.28964(9)
C12 C 0.5651(4) 0.81157(12) 0.21522(9)
C13 C 0.6469(4) 0.81899(14) 0.16597(9)
H14 H 0.7766 0.7928 0.1585
C14 C 0.5359(4) 0.86551(14) 0.12749(9)
H15 H 0.5920 0.8698 0.0940
C15 C 0.3439(4) 0.90599(12) 0.13706(8)
C16 C 0.2655(4) 0.89716(13) 0.18721(9)
H16 H 0.1358 0.9232 0.1950
C17 C 0.3758(4) 0.85045(14) 0.22599(9)
H17 H 0.3205 0.8455 0.2596
C18 C 0.2278(4) 0.95676(14) 0.09298(9)
C19 C 0.1371(6) 0.90395(18) 0.04787(12)
H18 H 0.2584 0.8814 0.0303
H19 H 0.0448 0.9343 0.0225
H20 H 0.0503 0.8625 0.0621
C20 C 0.3886(5) 1.01739(19) 0.07359(13)
H21 H 0.5056 0.9910 0.0567
H22 H 0.4515 1.0475 0.1036
H23 H 0.3105 1.0521 0.0482
C21 C 0.0333(5) 1.00367(17) 0.11345(11)
H24 H -0.0313 1.0368 0.0852
H25 H 0.0870 1.0358 0.1433
H26 H -0.0774 0.9677 0.1246
C22 C 0.6269(4) 0.68328(14) 0.25820(10)
C23 C 0.3715(4) 0.58575(13) 0.21508(9)
C24 C 0.2868(5) 0.55475(15) 0.26626(10)
H27 H 0.4098 0.5476 0.2926
H28 H 0.2135 0.5051 0.2593
H29 H 0.1833 0.5918 0.2794
C25 C 0.5480(5) 0.53431(16) 0.19417(11)
H30 H 0.6029 0.5584 0.1630
H31 H 0.4860 0.4835 0.1847
H32 H 0.6683 0.5281 0.2214
C26 C 0.1804(5) 0.59922(18) 0.17289(12)
H33 H 0.0738 0.6343 0.1868
H34 H 0.1100 0.5497 0.1636
H35 H 0.2366 0.6221 0.1415
N1 N 0.9706(3) 0.75542(11) 0.32386(7)
H36 H 0.9423 0.7057 0.3224
N2 N 0.6822(3) 0.76237(10) 0.25568(7)
O1 O 0.8694(3) 0.87194(9) 0.28521(7)
O2 O 0.4583(3) 0.66722(9) 0.22317(6)
O3 O 0.7237(3) 0.63627(9) 0.28822(7)
loop_
_geom_bond_atom_site_label_1
_geom_bond_atom_site_label_2
_geom_bond_site_symmetry_1
_geom_bond_site_symmetry_2
C1 C2 1_555 1_555
C2 H1 1_555 1_555
C3 C2 1_555 1_555
H2 C3 1_555 1_555
C4 C3 1_555 1_555
C5 C4 1_555 1_555
H3 C5 1_555 1_555
C6 C1 1_555 1_555
H4 C6 1_555 1_555
C7 C1 1_555 1_555
C8 C7 1_555 1_555
H5 C8 1_555 1_555
H6 C8 1_555 1_555
H7 C8 1_555 1_555
C9 C7 1_555 1_555
H8 C9 1_555 1_555
H9 C9 1_555 1_555
H10 C9 1_555 1_555
C10 C7 1_555 1_555
H11 C10 1_555 1_555
H12 C10 1_555 1_555
H13 C10 1_555 1_555
C11 N1 1_555 1_555
C12 C13 1_555 1_555
C13 H14 1_555 1_555
C14 C13 1_555 1_555
H15 C14 1_555 1_555
C15 C14 1_555 1_555
C16 C15 1_555 1_555
H16 C16 1_555 1_555
C17 C12 1_555 1_555
H17 C17 1_555 1_555
C18 C15 1_555 1_555
C19 C18 1_555 1_555
H18 C19 1_555 1_555
H19 C19 1_555 1_555
H20 C19 1_555 1_555
C20 C18 1_555 1_555
H21 C20 1_555 1_555
H22 C20 1_555 1_555
H23 C20 1_555 1_555
C21 C18 1_555 1_555
H24 C21 1_555 1_555
H25 C21 1_555 1_555
H26 C21 1_555 1_555
C22 N2 1_555 1_555
C23 C24 1_555 1_555
C24 H27 1_555 1_555
H28 C24 1_555 1_555
H29 C24 1_555 1_555
C25 C23 1_555 1_555
H30 C25 1_555 1_555
H31 C25 1_555 1_555
H32 C25 1_555 1_555
C26 C23 1_555 1_555
H33 C26 1_555 1_555
H34 C26 1_555 1_555
H35 C26 1_555 1_555
N1 C4 1_555 1_555
H36 N1 1_555 1_555
N2 C11 1_555 1_555
O1 C11 1_555 1_555
O2 C22 1_555 1_555
O3 C22 1_555 1_555
C5 C6 1_555 1_555
C12 N2 1_555 1_555
C16 C17 1_555 1_555
C23 O2 1_555 1_555

#END
