
#######################################################################
#
#                 Cambridge Crystallographic Data Centre
#                                CCDC 
#
#######################################################################
#
# If this CIF has been generated from an entry in the Cambridge 
# Structural Database, then it will include bibliographic, chemical, 
# crystal, experimental, refinement or atomic coordinate data resulting 
# from the CCDC's data processing and validation procedures.
#
#######################################################################

data_QESZUK02
_chemical_formula_moiety         'C28 H20 N2'
_chemical_name_systematic        
4,4'-(Anthracene-9,10-diyldiethene-2,1-diyl)dipyridine
_symmetry_cell_setting           monoclinic
_symmetry_space_group_name_H-M   'P 21/c'
_symmetry_Int_Tables_number      14
_space_group_name_Hall           '-P 2ybc'
loop_
_symmetry_equiv_pos_site_id
_symmetry_equiv_pos_as_xyz
1 x,y,z
2 -x,1/2+y,1/2-z
3 -x,-y,-z
4 x,1/2-y,1/2+z
_cell_length_a                   7.5957(15)
_cell_length_b                   5.7108(11)
_cell_length_c                   22.899(5)
_cell_angle_alpha                90
_cell_angle_beta                 95.95(3)
_cell_angle_gamma                90
_cell_volume                     987.951
_cell_formula_units_Z            2
loop_
_atom_site_label
_atom_site_type_symbol
_atom_site_fract_x
_atom_site_fract_y
_atom_site_fract_z
C1 C 0.19653(18) 1.0169(3) 0.29395(7)
H1 H 0.1171 1.1412 0.2928
C2 C 0.34156(18) 1.0222(2) 0.33582(6)
H2 H 0.3564 1.1459 0.3623
C3 C 0.46462(16) 0.8424(2) 0.33811(5)
C4 C 0.43031(18) 0.6624(2) 0.29820(6)
H3 H 0.5079 0.5365 0.2979
C5 C 0.2799(2) 0.6707(3) 0.25861(6)
H4 H 0.2589 0.5460 0.2327
C6 C 0.62647(17) 0.8367(2) 0.37986(6)
H5 H 0.6974 0.7043 0.3788
C7 C 0.68034(17) 0.9966(3) 0.41780(6)
H6 H 0.6086 1.1279 0.4193
C8 C 0.84523(16) 0.9921(2) 0.45930(5)
C9 C 0.86652(16) 0.8297(2) 0.50593(5)
C10 C 1.02341(16) 0.8396(2) 0.54712(5)
C11 C 1.03913(18) 0.6759(3) 0.59457(6)
H7 H 1.1369 0.6845 0.6225
C12 C 0.91570(19) 0.5088(3) 0.59993(6)
H8 H 0.9309 0.4019 0.6307
C13 C 0.76350(19) 0.4962(3) 0.55886(6)
H9 H 0.6799 0.3795 0.5624
C14 C 0.73863(18) 0.6531(3) 0.51437(6)
H10 H 0.6356 0.6455 0.4887
N1 N 0.16375(15) 0.8445(2) 0.25514(5)
C1B C 1.80347(18) 0.9831(3) 0.70605(7)
H1B H 1.8829 0.8588 0.7072
C2B C 1.65844(18) 0.9778(2) 0.66418(6)
H2B H 1.6436 0.8541 0.6377
C3B C 1.53538(16) 1.1576(2) 0.66189(5)
C4B C 1.56969(18) 1.3376(2) 0.70180(6)
H3B H 1.4921 1.4635 0.7021
C5B C 1.7201(2) 1.3293(3) 0.74139(6)
H4B H 1.7411 1.4540 0.7673
C6B C 1.37353(17) 1.1633(2) 0.62014(6)
H5B H 1.3026 1.2957 0.6212
C7B C 1.31966(17) 1.0034(3) 0.58220(6)
H6B H 1.3914 0.8721 0.5807
C8B C 1.15477(16) 1.0079(2) 0.54070(5)
C9B C 1.13348(16) 1.1703(2) 0.49407(5)
C10B C 0.97659(16) 1.1604(2) 0.45288(5)
C11B C 0.96087(18) 1.3241(3) 0.40543(6)
H7B H 0.8631 1.3155 0.3775
C12B C 1.08430(19) 1.4912(3) 0.40007(6)
H8B H 1.0691 1.5981 0.3693
C13B C 1.23650(19) 1.5038(3) 0.44114(6)
H9B H 1.3201 1.6205 0.4376
C14B C 1.26137(18) 1.3469(3) 0.48563(6)
H10B H 1.3644 1.3545 0.5113
N1B N 1.83625(15) 1.1555(2) 0.74486(5)
loop_
_geom_bond_atom_site_label_1
_geom_bond_atom_site_label_2
_geom_bond_site_symmetry_1
_geom_bond_site_symmetry_2
C1 H1 1_555 1_555
C2 C1 1_555 1_555
H2 C2 1_555 1_555
C3 C2 1_555 1_555
C4 C3 1_555 1_555
H3 C4 1_555 1_555
C5 C4 1_555 1_555
H4 C5 1_555 1_555
C6 C3 1_555 1_555
H5 C6 1_555 1_555
C7 C6 1_555 1_555
H6 C7 1_555 1_555
C8 C7 1_555 1_555
C9 C8 1_555 1_555
C10 C9 1_555 1_555
C11 C10 1_555 1_555
H7 C11 1_555 1_555
C12 C11 1_555 1_555
H8 C12 1_555 1_555
C13 C12 1_555 1_555
H9 C13 1_555 1_555
C14 C9 1_555 1_555
H10 C14 1_555 1_555
N1 C1 1_555 1_555
C1B H1B 1_555 1_555
C2B C1B 1_555 1_555
H2B C2B 1_555 1_555
C3B C2B 1_555 1_555
C4B C3B 1_555 1_555
H3B C4B 1_555 1_555
C5B C4B 1_555 1_555
H4B C5B 1_555 1_555
C6B C3B 1_555 1_555
H5B C6B 1_555 1_555
C7B C6B 1_555 1_555
H6B C7B 1_555 1_555
C8B C10 1_555 1_555
C9B C8B 1_555 1_555
C10B C8 1_555 1_555
C11B C10B 1_555 1_555
H7B C11B 1_555 1_555
C12B C11B 1_555 1_555
H8B C12B 1_555 1_555
C13B C12B 1_555 1_555
H9B C13B 1_555 1_555
C14B C9B 1_555 1_555
H10B C14B 1_555 1_555
N1B C1B 1_555 1_555
C5 N1 1_555 1_555
C13 C14 1_555 1_555
C5B N1B 1_555 1_555
C7B C8B 1_555 1_555
C9B C10B 1_555 1_555
C13B C14B 1_555 1_555

#END
