
#######################################################################
#
#                 Cambridge Crystallographic Data Centre
#                                CCDC 
#
#######################################################################
#
# If this CIF has been generated from an entry in the Cambridge 
# Structural Database, then it will include bibliographic, chemical, 
# crystal, experimental, refinement or atomic coordinate data resulting 
# from the CCDC's data processing and validation procedures.
#
#######################################################################

data_QESZUK01
_chemical_formula_moiety         'C28 H20 N2'
_chemical_name_systematic        
4,4'-(Anthracene-9,10-diyldiethene-2,1-diyl)dipyridine
_symmetry_cell_setting           triclinic
_symmetry_space_group_name_H-M   'P -1'
_symmetry_Int_Tables_number      2
_space_group_name_Hall           '-P 1'
loop_
_symmetry_equiv_pos_site_id
_symmetry_equiv_pos_as_xyz
1 x,y,z
2 -x,-y,-z
_cell_length_a                   6.850(7)
_cell_length_b                   9.230(12)
_cell_length_c                   9.341(10)
_cell_angle_alpha                65.88(4)
_cell_angle_beta                 69.95(4)
_cell_angle_gamma                77.39(5)
_cell_volume                     504.246
_cell_formula_units_Z            1
loop_
_atom_site_label
_atom_site_type_symbol
_atom_site_fract_x
_atom_site_fract_y
_atom_site_fract_z
C1 C 0.3008(3) 0.7197(2) 0.2621(2)
H1 H 0.2124 0.6852 0.2282
C2 C 0.3297(3) 0.8770(2) 0.1990(2)
H2 H 0.2599 0.9486 0.1245
C3 C 0.4657(3) 0.9322(2) 0.2463(2)
H3 H 0.4885 1.0396 0.2000
C4 C 0.5628(3) 0.8295(2) 0.3585(2)
H4 H 0.6495 0.8683 0.3899
C5 C 0.5355(2) 0.66293(19) 0.43014(18)
C6 C 0.4018(2) 0.60544(19) 0.37894(18)
C7 C 0.3690(2) 0.44249(19) 0.44836(18)
C8 C 0.2325(2) 0.3790(2) 0.3978(2)
H5 H 0.1120 0.3373 0.4769
C9 C 0.2664(3) 0.3765(2) 0.2519(2)
H6 H 0.3887 0.4165 0.1740
C10 C 0.1319(2) 0.3173(2) 0.1982(2)
C11 C -0.0525(3) 0.2500(2) 0.3008(2)
H7 H -0.0942 0.2357 0.4111
C12 C -0.1732(3) 0.2044(3) 0.2374(3)
H8 H -0.2973 0.1614 0.3082
C13 C 0.0538(3) 0.2783(3) -0.0135(3)
H9 H 0.0937 0.2875 -0.1224
C14 C 0.1845(3) 0.3289(2) 0.0369(2)
H10 H 0.3079 0.3708 -0.0370
N1 N -0.1253(3) 0.2175(2) 0.0825(2)
C1A C 0.6992(3) 0.2803(2) 0.7379(2)
H1A H 0.7876 0.3148 0.7718
C2A C 0.6703(3) 0.1230(2) 0.8010(2)
H2A H 0.7401 0.0514 0.8755
C3A C 0.5343(3) 0.0678(2) 0.7537(2)
H3A H 0.5115 -0.0396 0.8000
C4A C 0.4372(3) 0.1705(2) 0.6415(2)
H4A H 0.3505 0.1317 0.6101
C5A C 0.4645(2) 0.33707(19) 0.56986(18)
C6A C 0.5982(2) 0.39456(19) 0.62106(18)
C7A C 0.6310(2) 0.55751(19) 0.55164(18)
C8A C 0.7675(2) 0.6210(2) 0.6022(2)
H5A H 0.8880 0.6627 0.5231
C9A C 0.7336(3) 0.6235(2) 0.7481(2)
H6A H 0.6113 0.5835 0.8260
C10A C 0.8681(2) 0.6827(2) 0.8018(2)
C11A C 1.0525(3) 0.7500(2) 0.6992(2)
H7A H 1.0942 0.7643 0.5889
C12A C 1.1732(3) 0.7956(3) 0.7626(3)
H8A H 1.2973 0.8386 0.6918
C13A C 0.9462(3) 0.7217(3) 1.0135(3)
H9A H 0.9063 0.7125 1.1224
C14A C 0.8155(3) 0.6711(2) 0.9631(2)
H10A H 0.6921 0.6292 1.0370
N1A N 1.1253(3) 0.7825(2) 0.9175(2)
loop_
_geom_bond_atom_site_label_1
_geom_bond_atom_site_label_2
_geom_bond_site_symmetry_1
_geom_bond_site_symmetry_2
C1 H1 1_555 1_555
C2 C1 1_555 1_555
H2 C2 1_555 1_555
C3 C2 1_555 1_555
H3 C3 1_555 1_555
C4 C3 1_555 1_555
H4 C4 1_555 1_555
C5 C4 1_555 1_555
C6 C1 1_555 1_555
C7 C6 1_555 1_555
C8 C7 1_555 1_555
H5 C8 1_555 1_555
C9 C8 1_555 1_555
H6 C9 1_555 1_555
C10 C9 1_555 1_555
C11 C10 1_555 1_555
H7 C11 1_555 1_555
C12 C11 1_555 1_555
H8 C12 1_555 1_555
C13 H9 1_555 1_555
C14 C10 1_555 1_555
H10 C14 1_555 1_555
N1 C12 1_555 1_555
C1A H1A 1_555 1_555
C2A C1A 1_555 1_555
H2A C2A 1_555 1_555
C3A C2A 1_555 1_555
H3A C3A 1_555 1_555
C4A C3A 1_555 1_555
H4A C4A 1_555 1_555
C5A C7 1_555 1_555
C6A C1A 1_555 1_555
C7A C5 1_555 1_555
C8A C7A 1_555 1_555
H5A C8A 1_555 1_555
C9A C8A 1_555 1_555
H6A C9A 1_555 1_555
C10A C9A 1_555 1_555
C11A C10A 1_555 1_555
H7A C11A 1_555 1_555
C12A C11A 1_555 1_555
H8A C12A 1_555 1_555
C13A H9A 1_555 1_555
C14A C10A 1_555 1_555
H10A C14A 1_555 1_555
N1A C12A 1_555 1_555
C5 C6 1_555 1_555
C13 C14 1_555 1_555
C13 N1 1_555 1_555
C4A C5A 1_555 1_555
C5A C6A 1_555 1_555
C6A C7A 1_555 1_555
C13A C14A 1_555 1_555
C13A N1A 1_555 1_555

#END
