
#######################################################################
#
#                 Cambridge Crystallographic Data Centre
#                                CCDC 
#
#######################################################################
#
# If this CIF has been generated from an entry in the Cambridge 
# Structural Database, then it will include bibliographic, chemical, 
# crystal, experimental, refinement or atomic coordinate data resulting 
# from the CCDC's data processing and validation procedures.
#
#######################################################################

data_QETGII
_chemical_formula_moiety         'C22 H17 N3 O3 S1,C2 H6 O1'
_chemical_name_systematic        
'6-benzoyl-7-(4-methoxyphenyl)-2-oxo-5-thioxo-1,2,3,5,6,7-hexahydroimidazo[1,2-a]pyridine-8-carbonitrile ethanol solvate'
_symmetry_cell_setting           monoclinic
_symmetry_space_group_name_H-M   'P 21/c'
_symmetry_Int_Tables_number      14
_space_group_name_Hall           '-P 2ybc'
loop_
_symmetry_equiv_pos_site_id
_symmetry_equiv_pos_as_xyz
1 x,y,z
2 -x,1/2+y,1/2-z
3 -x,-y,-z
4 x,1/2-y,1/2+z
_cell_length_a                   15.206(4)
_cell_length_b                   5.5986(14)
_cell_length_c                   25.907(7)
_cell_angle_alpha                90
_cell_angle_beta                 90.562(3)
_cell_angle_gamma                90
_cell_volume                     2205.42
_cell_formula_units_Z            4
loop_
_atom_site_label
_atom_site_type_symbol
_atom_site_fract_x
_atom_site_fract_y
_atom_site_fract_z
S1 S 0.46035(9) 0.8699(3) 0.09988(6)
O1 O 0.3861(2) 1.5904(9) -0.03905(18)
O2 O -0.11691(19) 0.8490(6) 0.20741(12)
O3 O 0.2915(2) 0.5260(5) 0.14221(13)
N1 N 0.2732(2) 1.4060(7) 0.00337(14)
H1 H 0.2294 1.4913 -0.0092
N2 N 0.3473(2) 1.1415(7) 0.05119(14)
N3 N 0.0373(2) 1.2523(7) 0.02520(15)
C1 C 0.4136(3) 1.2609(12) 0.0199(2)
H2 H 0.4427 1.1475 -0.0038
H3 H 0.4588 1.3397 0.0418
C2 C 0.3592(3) 1.4414(12) -0.0094(2)
C3 C 0.2628(3) 1.2225(8) 0.03806(16)
C4 C 0.1901(2) 1.1199(7) 0.05635(15)
C5 C 0.1987(2) 0.9116(7) 0.09353(15)
H4 H 0.2030 0.7614 0.0728
C6 C 0.2853(2) 0.9412(7) 0.12470(15)
H5 H 0.2781 1.0828 0.1478
C7 C 0.3638(3) 0.9892(8) 0.09050(17)
C8 C 0.1059(3) 1.1942(7) 0.03834(15)
C9 C 0.1187(2) 0.8923(7) 0.12793(15)
C10 C 0.0973(3) 1.0690(8) 0.16311(15)
H6 H 0.1365 1.1992 0.1682
C11 C 0.0200(3) 1.0601(8) 0.19104(15)
H7 H 0.0068 1.1819 0.2153
C12 C -0.0375(3) 0.8731(7) 0.18324(15)
C13 C -0.0174(3) 0.6948(8) 0.14822(19)
H8 H -0.0567 0.5648 0.1431
C14 C 0.0599(3) 0.7068(8) 0.12084(18)
H9 H 0.0730 0.5849 0.0966
C15 C -0.1469(3) 1.0458(9) 0.2373(2)
H10 H -0.2068 1.0141 0.2491
H11 H -0.1467 1.1907 0.2160
H12 H -0.1078 1.0681 0.2672
C16 C 0.3046(3) 0.7263(7) 0.15881(16)
C17 C 0.3402(2) 0.7645(7) 0.21204(16)
C18 C 0.3935(3) 0.5868(8) 0.23334(18)
H13 H 0.4089 0.4512 0.2133
C19 C 0.4239(3) 0.6076(10) 0.28345(19)
H14 H 0.4610 0.4873 0.2977
C20 C 0.4009(3) 0.8016(10) 0.31293(19)
H15 H 0.4212 0.8142 0.3476
C21 C 0.3482(4) 0.9775(10) 0.29207(18)
H16 H 0.3321 1.1110 0.3126
C22 C 0.3183(3) 0.9616(8) 0.24136(17)
H17 H 0.2830 1.0853 0.2269
O4 O 0.1472(2) 0.8055(7) 0.46289(13)
H18 H 0.1049 0.9014 0.4603
C23 C 0.2244(5) 0.533(2) 0.4082(3)
H19 H 0.2366 0.5187 0.3712
H20 H 0.2062 0.3769 0.4216
H21 H 0.2777 0.5856 0.4265
C24 C 0.1601(5) 0.6919(16) 0.4153(3)
H22 H 0.1042 0.6107 0.4063
H23 H 0.1684 0.8196 0.3894
loop_
_geom_bond_atom_site_label_1
_geom_bond_atom_site_label_2
_geom_bond_site_symmetry_1
_geom_bond_site_symmetry_2
S1 C7 1_555 1_555
O1 C2 1_555 1_555
O2 C12 1_555 1_555
O3 C16 1_555 1_555
N1 H1 1_555 1_555
N2 C1 1_555 1_555
N3 C8 1_555 1_555
C1 H2 1_555 1_555
H3 C1 1_555 1_555
C2 N1 1_555 1_555
C3 N1 1_555 1_555
C4 C3 1_555 1_555
C5 C4 1_555 1_555
H4 C5 1_555 1_555
C6 C5 1_555 1_555
H5 C6 1_555 1_555
C7 N2 1_555 1_555
C8 C4 1_555 1_555
C9 C5 1_555 1_555
C10 C9 1_555 1_555
H6 C10 1_555 1_555
C11 C10 1_555 1_555
H7 C11 1_555 1_555
C12 C11 1_555 1_555
C13 C12 1_555 1_555
H8 C13 1_555 1_555
C14 C9 1_555 1_555
H9 C14 1_555 1_555
C15 O2 1_555 1_555
H10 C15 1_555 1_555
H11 C15 1_555 1_555
H12 C15 1_555 1_555
C16 C6 1_555 1_555
C17 C16 1_555 1_555
C18 C17 1_555 1_555
H13 C18 1_555 1_555
C19 C18 1_555 1_555
H14 C19 1_555 1_555
C20 C19 1_555 1_555
H15 C20 1_555 1_555
C21 C20 1_555 1_555
H16 C21 1_555 1_555
C22 C17 1_555 1_555
H17 C22 1_555 1_555
O4 H18 1_555 1_555
C23 H19 1_555 1_555
H20 C23 1_555 1_555
H21 C23 1_555 1_555
C24 O4 1_555 1_555
H22 C24 1_555 1_555
H23 C24 1_555 1_555
N2 C3 1_555 1_555
C1 C2 1_555 1_555
C6 C7 1_555 1_555
C13 C14 1_555 1_555
C21 C22 1_555 1_555
C23 C24 1_555 1_555

#END
