
#######################################################################
#
#                 Cambridge Crystallographic Data Centre
#                                CCDC 
#
#######################################################################
#
# If this CIF has been generated from an entry in the Cambridge 
# Structural Database, then it will include bibliographic, chemical, 
# crystal, experimental, refinement or atomic coordinate data resulting 
# from the CCDC's data processing and validation procedures.
#
#######################################################################

data_QETKOP01
_chemical_formula_moiety         'C2 H4 N4 S1'
_chemical_name_systematic        4-Amino-1,2,4-\D^2^-triazoline-5-thione
_symmetry_cell_setting           monoclinic
_symmetry_space_group_name_H-M   'C 2/c'
_symmetry_Int_Tables_number      15
_space_group_name_Hall           '-C 2yn'
loop_
_symmetry_equiv_pos_site_id
_symmetry_equiv_pos_as_xyz
1 x,y,z
2 1/2+x,1/2+y,z
3 -x,y,1/2-z
4 1/2-x,1/2+y,1/2-z
5 -x,-y,-z
6 1/2-x,1/2-y,-z
7 x,-y,1/2+z
8 1/2+x,1/2-y,1/2+z
_cell_length_a                   21.074(2)
_cell_length_b                   14.251(1)
_cell_length_c                   6.884(1)
_cell_angle_alpha                90
_cell_angle_beta                 104.55(1)
_cell_angle_gamma                90
_cell_volume                     2001.14
_exptl_crystal_colour            colorless
_exptl_crystal_description       needles
_cell_formula_units_Z            16
loop_
_atom_site_label
_atom_site_type_symbol
_atom_site_fract_x
_atom_site_fract_y
_atom_site_fract_z
S1 S 0.25299(4) 0.09623(6) 0.10045(14)
N1 N 0.22566(13) -0.09158(19) 0.0879(4)
H1 H 0.302(3) -0.102(4) 0.022(8)
H2 H 0.316(3) -0.097(4) 0.227(9)
N2 N 0.28863(15) -0.1256(2) 0.1075(6)
N3 N 0.11949(14) -0.0975(2) 0.0575(5)
N4 N 0.14129(14) -0.0061(2) 0.0671(5)
H3 H 0.113(2) 0.038(3) 0.053(7)
C1 C 0.20621(16) 0.0007(2) 0.0848(5)
C2 C 0.17231(17) -0.1470(3) 0.0721(6)
H7 H 0.174(2) -0.218(3) 0.056(7)
S2 S -0.06666(4) -0.36129(6) -0.54122(14)
N5 N 0.08754(16) -0.4084(2) -0.4528(5)
N6 N 0.06321(13) -0.31682(19) -0.4688(4)
H4 H 0.059(2) -0.441(3) -0.407(7)
H5 H 0.091(2) -0.427(3) -0.580(8)
N7 N 0.06446(14) -0.1634(2) -0.4676(5)
N8 N 0.00152(14) -0.1971(2) -0.5022(4)
H6 H -0.029(2) -0.160(3) -0.517(6)
C3 C -0.00118(16) -0.2907(2) -0.5052(5)
C4 C 0.10047(18) -0.2384(2) -0.4463(6)
H8 H 0.144(2) -0.239(3) -0.419(6)
loop_
_geom_bond_atom_site_label_1
_geom_bond_atom_site_label_2
_geom_bond_site_symmetry_1
_geom_bond_site_symmetry_2
S1 C1 1_555 1_555
S2 C3 1_555 1_555
N1 N2 1_555 1_555
H1 N2 1_555 1_555
H2 N2 1_555 1_555
N3 N4 1_555 1_555
N4 H3 1_555 1_555
N5 N6 1_555 1_555
N6 C3 1_555 1_555
H4 N5 1_555 1_555
H5 N5 1_555 1_555
N7 N8 1_555 1_555
N8 H6 1_555 1_555
C1 N1 1_555 1_555
C2 N1 1_555 1_555
H7 C2 1_555 1_555
C3 N8 1_555 1_555
C4 N6 1_555 1_555
H8 C4 1_555 1_555
N3 C2 1_555 1_555
N4 C1 1_555 1_555
N7 C4 1_555 1_555

#END
