
#######################################################################
#
#                 Cambridge Crystallographic Data Centre
#                                CCDC 
#
#######################################################################
#
# If this CIF has been generated from an entry in the Cambridge 
# Structural Database, then it will include bibliographic, chemical, 
# crystal, experimental, refinement or atomic coordinate data resulting 
# from the CCDC's data processing and validation procedures.
#
#######################################################################

data_QETNOT
_chemical_formula_moiety         'C18 H18 N4 O1 S1'
_chemical_name_systematic        
'3-(2- Hydroxyphenyl)-4-(4-isopropylbenzylideneamino)-(1H)-1,2,4-triazole-5-thione'
_chemical_properties_biological  
'moderate antibacterial activity against Staphylococcus aureus and Bacillus subtilis; almost no activity against Klebsiella pneumoniae and Escherichia coli'
_symmetry_cell_setting           monoclinic
_symmetry_space_group_name_H-M   'P 21/c'
_symmetry_Int_Tables_number      14
_space_group_name_Hall           '-P 2ybc'
loop_
_symmetry_equiv_pos_site_id
_symmetry_equiv_pos_as_xyz
1 x,y,z
2 -x,1/2+y,1/2-z
3 -x,-y,-z
4 x,1/2-y,1/2+z
_cell_length_a                   11.605(2)
_cell_length_b                   7.4010(10)
_cell_length_c                   20.339(2)
_cell_angle_alpha                90
_cell_angle_beta                 103.05(2)
_cell_angle_gamma                90
_cell_volume                     1701.77
_exptl_crystal_colour            colorless
_exptl_crystal_description       block
_chemical_melting_point          197-198deg.C
_cell_formula_units_Z            4
_exptl_crystal_recrystallization_method ethanol
loop_
_atom_site_label
_atom_site_type_symbol
_atom_site_fract_x
_atom_site_fract_y
_atom_site_fract_z
S1 S 0.09721(8) 0.07344(15) 0.10619(5)
N1 N -0.2362(2) -0.0487(4) 0.06330(13)
N2 N -0.1308(3) -0.0029(4) 0.04943(16)
H1 H -0.121(3) -0.008(5) 0.0099(17)
N3 N -0.0972(2) -0.0231(4) 0.15561(12)
N4 N -0.0506(2) 0.0046(4) 0.22483(13)
O1 O -0.4642(2) -0.0296(5) 0.06941(13)
H2 H -0.4029 -0.0178 0.0501
C1 C -0.4254(3) -0.0842(5) 0.13389(18)
C2 C -0.5111(3) -0.1278(6) 0.1691(2)
H3 H -0.5907 -0.1150 0.1482
C3 C -0.4804(4) -0.1890(7) 0.2337(2)
H4 H -0.5390 -0.2160 0.2566
C4 C -0.3635(3) -0.2112(6) 0.26540(19)
H5 H -0.3429 -0.2552 0.3093
C5 C -0.2779(3) -0.1682(5) 0.23174(17)
H6 H -0.1989 -0.1836 0.2534
C6 C -0.3053(3) -0.1020(5) 0.16612(15)
C7 C -0.0428(3) 0.0133(5) 0.10354(16)
C8 C -0.2157(3) -0.0579(5) 0.12915(16)
C9 C 0.0520(3) -0.0624(5) 0.24735(16)
H7 H 0.0896 -0.1235 0.2182
C10 C 0.1109(3) -0.0444(5) 0.31837(15)
C11 C 0.0552(3) 0.0269(5) 0.36584(16)
H8 H -0.0214 0.0721 0.3526
C12 C 0.1138(4) 0.0306(5) 0.43325(18)
H9 H 0.0758 0.0788 0.4650
C13 C 0.2285(3) -0.0364(6) 0.45447(18)
C14 C 0.2826(3) -0.1028(6) 0.40630(19)
H10 H 0.3599 -0.1452 0.4190
C15 C 0.2254(2) -0.1078(4) 0.34012(12)
H11 H 0.2642 -0.1551 0.3087
C16 C 0.2924(2) -0.0414(4) 0.52798(12)
H12 H 0.3433 -0.1474 0.5290
C17 C 0.2222(2) -0.0939(4) 0.57450(12)
H13 H 0.2717 -0.1021 0.6191
H14 H 0.1865 -0.2093 0.5615
H15 H 0.1615 -0.0055 0.5740
C18 C 0.3789(4) 0.1011(8) 0.5469(2)
H16 H 0.3392 0.2134 0.5501
H17 H 0.4250 0.1113 0.5133
H18 H 0.4301 0.0731 0.5897
loop_
_geom_bond_atom_site_label_1
_geom_bond_atom_site_label_2
_geom_bond_site_symmetry_1
_geom_bond_site_symmetry_2
S1 C7 1_555 1_555
N1 N2 1_555 1_555
N2 H1 1_555 1_555
N3 N4 1_555 1_555
N4 C9 1_555 1_555
O1 H2 1_555 1_555
C1 O1 1_555 1_555
C2 C1 1_555 1_555
H3 C2 1_555 1_555
C3 C2 1_555 1_555
H4 C3 1_555 1_555
C4 C3 1_555 1_555
H5 C4 1_555 1_555
C5 C4 1_555 1_555
H6 C5 1_555 1_555
C6 C1 1_555 1_555
C7 N2 1_555 1_555
C8 N1 1_555 1_555
C9 H7 1_555 1_555
C10 C9 1_555 1_555
C11 C10 1_555 1_555
H8 C11 1_555 1_555
C12 C11 1_555 1_555
H9 C12 1_555 1_555
C13 C12 1_555 1_555
C14 C13 1_555 1_555
H10 C14 1_555 1_555
C15 C10 1_555 1_555
H11 C15 1_555 1_555
C16 C13 1_555 1_555
H12 C16 1_555 1_555
C17 C16 1_555 1_555
H13 C17 1_555 1_555
H14 C17 1_555 1_555
H15 C17 1_555 1_555
C18 C16 1_555 1_555
H16 C18 1_555 1_555
H17 C18 1_555 1_555
H18 C18 1_555 1_555
N3 C7 1_555 1_555
N3 C8 1_555 1_555
C5 C6 1_555 1_555
C6 C8 1_555 1_555
C14 C15 1_555 1_555

#END
