
#######################################################################
#
#                 Cambridge Crystallographic Data Centre
#                                CCDC 
#
#######################################################################
#
# If this CIF has been generated from an entry in the Cambridge 
# Structural Database, then it will include bibliographic, chemical, 
# crystal, experimental, refinement or atomic coordinate data resulting 
# from the CCDC's data processing and validation procedures.
#
#######################################################################

data_QETRUF
_chemical_formula_moiety         'C32 H58 N10 O8'
_chemical_name_systematic        
N-(2-azido-2-methylpropanoyl)-2-methylalanyl-2-methylalanyl-2-methylalanyl-2-methylalanyl-2-methylalanyl-N-(1-hydroxy-2-methylpropan-2-yl)-2-methylalaninamide
_symmetry_cell_setting           monoclinic
_symmetry_space_group_name_H-M   'P 21/c'
_symmetry_Int_Tables_number      14
_space_group_name_Hall           '-P 2ybc'
loop_
_symmetry_equiv_pos_site_id
_symmetry_equiv_pos_as_xyz
1 x,y,z
2 -x,1/2+y,1/2-z
3 -x,-y,-z
4 x,1/2-y,1/2+z
_cell_length_a                   9.1449(5)
_cell_length_b                   13.9993(8)
_cell_length_c                   31.4075(13)
_cell_angle_alpha                90
_cell_angle_beta                 96.396(5)
_cell_angle_gamma                90
_cell_volume                     3995.83
_exptl_crystal_colour            colorless
_exptl_crystal_description       block
_cell_formula_units_Z            4
loop_
_atom_site_label
_atom_site_type_symbol
_atom_site_fract_x
_atom_site_fract_y
_atom_site_fract_z
O1 O 0.16280(15) 0.66254(10) 0.54967(4)
O2 O -0.00068(15) 0.76910(10) 0.28990(4)
O3 O 0.13305(16) 0.56486(10) 0.36552(4)
O4 O 0.50262(16) 0.72544(10) 0.58862(4)
O5 O 0.40225(15) 0.72254(10) 0.41217(4)
O6 O 0.12513(17) 0.84782(10) 0.47412(4)
O7 O 0.29766(19) 0.71783(11) 0.22620(4)
N1 N 0.21427(17) 0.76028(11) 0.33300(4)
H1 H 0.255262 0.754166 0.358854
N2 N 0.07212(17) 0.69785(11) 0.40079(4)
H2 H 0.082392 0.727930 0.424813
N3 N 0.22542(18) 0.61364(11) 0.27461(4)
H3 H 0.217194 0.606009 0.301411
N4 N 0.28915(17) 0.65886(12) 0.46583(4)
H4 H 0.272519 0.663332 0.492177
N5 N 0.38353(17) 0.70472(11) 0.64729(4)
H5 H 0.381906 0.716905 0.674067
N6 N 0.19081(18) 0.80108(11) 0.58633(5)
H6 H 0.223693 0.828324 0.610018
N7 N 0.34232(19) 0.82220(12) 0.51456(5)
H7 H 0.386455 0.817818 0.540133
N8 N 0.6521(2) 0.83760(14) 0.72414(5)
N9 N 0.6083(2) 0.77257(15) 0.69979(5)
C1 C 0.2021(2) 0.70558(13) 0.58322(5)
C2 C 0.1414(2) 0.61365(13) 0.39831(5)
C3 C 0.2714(2) 0.69828(14) 0.26314(5)
C4 C 0.0660(2) 0.75706(13) 0.32551(5)
C5 C 0.3705(2) 0.72643(15) 0.44931(5)
C6 C 0.2608(2) 0.65122(14) 0.62422(5)
C7 C 0.3072(2) 0.77383(14) 0.29850(5)
C8 C 0.4984(2) 0.73513(13) 0.62752(6)
C9 C 0.1973(2) 0.84036(14) 0.50967(5)
C10 C 0.2277(2) 0.57747(14) 0.44022(6)
C11 C -0.0199(2) 0.74101(14) 0.36470(5)
C12 C 0.4674(2) 0.75675(16) 0.31702(6)
H8 H 0.495167 0.802842 0.339074
H9 H 0.530319 0.763134 0.294665
H10 H 0.477053 0.693579 0.328892
C13 C 0.1863(2) 0.53014(14) 0.24644(6)
C14 C 0.1375(2) 0.64331(16) 0.65310(6)
H11 H 0.172636 0.609166 0.678722
H12 H 0.055710 0.609660 0.638233
H13 H 0.106662 0.706137 0.660496
C15 C 0.1244(2) 0.86064(15) 0.55073(6)
C16 C 0.1192(3) 0.52654(15) 0.46587(6)
H14 H 0.170004 0.503489 0.492273
H15 H 0.075834 0.473706 0.449561
H16 H 0.043462 0.570323 0.471943
C17 C 0.6240(2) 0.78798(15) 0.65369(6)
C18 C 0.2909(3) 0.87392(14) 0.27981(6)
H17 H 0.190848 0.883847 0.267794
H18 H 0.354974 0.881108 0.257803
H19 H 0.316530 0.920010 0.302020
C19 C 0.3119(3) 0.55239(15) 0.61235(7)
H20 H 0.386255 0.558332 0.593199
H21 H 0.229983 0.517080 0.598552
H22 H 0.351894 0.519334 0.637805
O8 O 0.1867(6) 0.5887(3) 0.17251(10)
H23 H 0.247122 0.627380 0.183369
C20 C -0.1553(2) 0.67969(17) 0.35161(6)
H24 H -0.124895 0.616635 0.344412
H25 H -0.211847 0.707804 0.327203
H26 H -0.214403 0.676018 0.374975
C21 C 0.4294(2) 0.80943(17) 0.47837(6)
C22 C -0.0658(2) 0.83966(16) 0.37928(6)
H27 H -0.117890 0.833074 0.404026
H28 H -0.128621 0.869575 0.356592
H29 H 0.020157 0.878294 0.386377
N10 N 0.6875(3) 0.89241(17) 0.74982(7)
C23 C 0.6112(3) 0.89522(17) 0.64024(7)
H30 H 0.520171 0.920818 0.647832
H31 H 0.613382 0.900464 0.609847
H32 H 0.691978 0.930359 0.654783
C24 C 0.1568(3) 0.96446(15) 0.56330(6)
H33 H 0.119470 0.977738 0.590075
H34 H 0.110050 1.005927 0.541539
H35 H 0.261118 0.975019 0.566208
C25 C 0.3505(3) 0.51043(17) 0.43008(7)
H36 H 0.416521 0.543963 0.413616
H37 H 0.308881 0.456872 0.413920
H38 H 0.403499 0.488209 0.456317
C26 C -0.0403(2) 0.84308(19) 0.54293(7)
H39 H -0.058233 0.776494 0.537214
H40 H -0.081324 0.880147 0.518796
H41 H -0.085358 0.861494 0.567868
C27 C 0.7686(3) 0.7442(2) 0.64411(8)
H42 H 0.848860 0.778385 0.659504
H43 H 0.776231 0.748161 0.613925
H44 H 0.772237 0.678492 0.652857
C28 C 0.4274(3) 0.90146(18) 0.45150(7)
H45 H 0.327625 0.917289 0.441071
H46 H 0.483040 0.891734 0.427691
H47 H 0.470128 0.952744 0.468961
C29 C 0.5855(3) 0.7845(2) 0.49625(7)
H48 H 0.626764 0.836097 0.513804
H49 H 0.643779 0.774161 0.473063
H50 H 0.584881 0.727478 0.513200
C30 C 0.0870(5) 0.4659(3) 0.27158(10)
H51 H 0.134482 0.455217 0.300009
H52 H 0.070956 0.405803 0.257102
H53 H -0.005757 0.497057 0.273168
C31 C 0.3280(4) 0.4761(2) 0.24110(11)
H54 H 0.396045 0.518091 0.229330
H55 H 0.306266 0.422961 0.222107
H56 H 0.370701 0.453139 0.268501
C32 C 0.0984(5) 0.5547(2) 0.20448(10)
H57 H 0.044860 0.498351 0.193565
H58 H 0.026651 0.603285 0.209482
C33? C 0.2913(9) 0.5150(5) 0.2102(2)
H59? H 0.392066 0.521109 0.223261
H60? H 0.278758 0.449896 0.199870
O9? O 0.2729(14) 0.5768(7) 0.1741(3)
H61? H 0.269869 0.632357 0.182232
C34? C 0.0312(8) 0.5565(6) 0.2240(3)
H62? H -0.035272 0.565696 0.245304
H63? H -0.004397 0.505793 0.205090
H64? H 0.037437 0.614381 0.207940
C35? C 0.1872(12) 0.4459(5) 0.2723(2)
H65? H 0.286639 0.430616 0.283307
H66? H 0.145553 0.393681 0.255199
H67? H 0.130145 0.456819 0.295681
loop_
_geom_bond_atom_site_label_1
_geom_bond_atom_site_label_2
_geom_bond_site_symmetry_1
_geom_bond_site_symmetry_2
O1 C1 1_555 1_555
O2 C4 1_555 1_555
O3 C2 1_555 1_555
O4 C8 1_555 1_555
O5 C5 1_555 1_555
O6 C9 1_555 1_555
O7 C3 1_555 1_555
N1 H1 1_555 1_555
N2 H2 1_555 1_555
N3 H3 1_555 1_555
N4 H4 1_555 1_555
N5 H5 1_555 1_555
N6 H6 1_555 1_555
N7 H7 1_555 1_555
N8 N9 1_555 1_555
N9 C17 1_555 1_555
C1 N6 1_555 1_555
C2 N2 1_555 1_555
C3 N3 1_555 1_555
C4 N1 1_555 1_555
C5 N4 1_555 1_555
C6 N5 1_555 1_555
C7 N1 1_555 1_555
C8 N5 1_555 1_555
C9 N7 1_555 1_555
C10 N4 1_555 1_555
C11 N2 1_555 1_555
C12 C7 1_555 1_555
H8 C12 1_555 1_555
H9 C12 1_555 1_555
H10 C12 1_555 1_555
C13 N3 1_555 1_555
C14 C6 1_555 1_555
H11 C14 1_555 1_555
H12 C14 1_555 1_555
H13 C14 1_555 1_555
C15 N6 1_555 1_555
C16 C10 1_555 1_555
H14 C16 1_555 1_555
H15 C16 1_555 1_555
H16 C16 1_555 1_555
C17 C8 1_555 1_555
C18 C7 1_555 1_555
H17 C18 1_555 1_555
H18 C18 1_555 1_555
H19 C18 1_555 1_555
C19 C6 1_555 1_555
H20 C19 1_555 1_555
H21 C19 1_555 1_555
H22 C19 1_555 1_555
O8 H23 1_555 1_555
C20 C11 1_555 1_555
H24 C20 1_555 1_555
H25 C20 1_555 1_555
H26 C20 1_555 1_555
C21 N7 1_555 1_555
C22 C11 1_555 1_555
H27 C22 1_555 1_555
H28 C22 1_555 1_555
H29 C22 1_555 1_555
N10 N8 1_555 1_555
C23 C17 1_555 1_555
H30 C23 1_555 1_555
H31 C23 1_555 1_555
H32 C23 1_555 1_555
C24 C15 1_555 1_555
H33 C24 1_555 1_555
H34 C24 1_555 1_555
H35 C24 1_555 1_555
C25 C10 1_555 1_555
H36 C25 1_555 1_555
H37 C25 1_555 1_555
H38 C25 1_555 1_555
C26 C15 1_555 1_555
H39 C26 1_555 1_555
H40 C26 1_555 1_555
H41 C26 1_555 1_555
C27 C17 1_555 1_555
H42 C27 1_555 1_555
H43 C27 1_555 1_555
H44 C27 1_555 1_555
C28 C21 1_555 1_555
H45 C28 1_555 1_555
H46 C28 1_555 1_555
H47 C28 1_555 1_555
C29 C21 1_555 1_555
H48 C29 1_555 1_555
H49 C29 1_555 1_555
H50 C29 1_555 1_555
C30 C13 1_555 1_555
H51 C30 1_555 1_555
H52 C30 1_555 1_555
H53 C30 1_555 1_555
C31 C13 1_555 1_555
H54 C31 1_555 1_555
H55 C31 1_555 1_555
H56 C31 1_555 1_555
C32 C13 1_555 1_555
H57 C32 1_555 1_555
H58 C32 1_555 1_555
C1 C6 1_555 1_555
C2 C10 1_555 1_555
C3 C7 1_555 1_555
C4 C11 1_555 1_555
C5 C21 1_555 1_555
C9 C15 1_555 1_555
O8 C32 1_555 1_555

#END
