
#######################################################################
#
#                 Cambridge Crystallographic Data Centre
#                                CCDC 
#
#######################################################################
#
# If this CIF has been generated from an entry in the Cambridge 
# Structural Database, then it will include bibliographic, chemical, 
# crystal, experimental, refinement or atomic coordinate data resulting 
# from the CCDC's data processing and validation procedures.
#
#######################################################################

data_QETROW
_chemical_formula_moiety         'C11 H14 N4 O2'
_chemical_name_systematic        
3-(5-Methyl-4-nitroso-1-propyl-1H-3-pyrazolyl)-5-methylisoxazole
_chemical_properties_biological  'antifungal activity'
_symmetry_cell_setting           monoclinic
_symmetry_space_group_name_H-M   'C c'
_symmetry_Int_Tables_number      9
_space_group_name_Hall           'C -2yc'
loop_
_symmetry_equiv_pos_site_id
_symmetry_equiv_pos_as_xyz
1 x,y,z
2 x,-y,1/2+z
3 1/2+x,1/2+y,z
4 1/2+x,1/2-y,1/2+z
_cell_length_a                   11.059(3)
_cell_length_b                   12.388(3)
_cell_length_c                   8.828(2)
_cell_angle_alpha                90
_cell_angle_beta                 95.89(2)
_cell_angle_gamma                90
_cell_volume                     1203.04
_exptl_crystal_colour            'blue green'
_exptl_crystal_description       needle
_chemical_melting_point          58-59deg.C
_cell_formula_units_Z            4
_exptl_crystal_recrystallization_method ethanol
loop_
_atom_site_label
_atom_site_type_symbol
_atom_site_fract_x
_atom_site_fract_y
_atom_site_fract_z
O1 O -0.9837(5) 0.2272(4) -0.4064(7)
O2 O -0.8744(5) -0.2656(4) -0.3045(8)
N1 N -0.8892(6) 0.1830(4) -0.3012(8)
N2 N -0.7249(3) 0.0501(3) -0.1310(5)
N3 N -0.6631(3) -0.0380(3) -0.0689(5)
N4 N -0.8889(4) -0.1698(4) -0.3200(7)
C1 C -1.0412(4) 0.1454(4) -0.4800(7)
C2 C -0.9923(5) 0.0534(4) -0.4323(8)
H1 H -1.002(6) -0.027(5) -0.453(7)
C3 C -0.8970(4) 0.0816(4) -0.3199(6)
C4 C -0.8120(4) 0.0093(4) -0.2303(6)
C5 C -0.8054(4) -0.1041(4) -0.2309(6)
C6 C -0.7068(4) -0.1319(4) -0.1231(6)
C7 C -1.1414(6) 0.1782(6) -0.5964(10)
H2 H -1.1728 0.1156 -0.6513
H3 H -1.1109 0.2284 -0.6660
H4 H -1.2051 0.2116 -0.5470
C8 C -0.6547(6) -0.2382(5) -0.0725(9)
H5 H -0.5682 -0.2369 -0.0753
H6 H -0.6894 -0.2939 -0.1391
H7 H -0.6729 -0.2526 0.0296
C9 C -0.5574(4) -0.0170(5) 0.0441(6)
H8 H -0.574(7) 0.043(5) 0.099(8)
H9 H -0.541(7) -0.088(7) 0.108(8)
C10 C -0.4440(4) -0.0006(5) -0.0345(7)
H10 H -0.431(6) -0.076(6) -0.079(7)
H11 H -0.455(8) 0.049(6) -0.119(10)
C11 C -0.3352(5) 0.0248(5) 0.0809(8)
H12 H -0.3503 0.0904 0.1337
H13 H -0.2637 0.0333 0.0287
H14 H -0.3230 -0.0333 0.1527
loop_
_geom_bond_atom_site_label_1
_geom_bond_atom_site_label_2
_geom_bond_site_symmetry_1
_geom_bond_site_symmetry_2
O1 N1 1_555 1_555
O2 N4 1_555 1_555
N1 C3 1_555 1_555
N2 N3 1_555 1_555
N3 C6 1_555 1_555
N4 C5 1_555 1_555
C1 O1 1_555 1_555
C2 C1 1_555 1_555
H1 C2 1_555 1_555
C3 C2 1_555 1_555
C4 N2 1_555 1_555
C5 C4 1_555 1_555
C6 C5 1_555 1_555
C7 C1 1_555 1_555
H2 C7 1_555 1_555
H3 C7 1_555 1_555
H4 C7 1_555 1_555
C8 C6 1_555 1_555
H5 C8 1_555 1_555
H6 C8 1_555 1_555
H7 C8 1_555 1_555
C9 N3 1_555 1_555
H8 C9 1_555 1_555
H9 C9 1_555 1_555
C10 C9 1_555 1_555
H10 C10 1_555 1_555
H11 C10 1_555 1_555
C11 C10 1_555 1_555
H12 C11 1_555 1_555
H13 C11 1_555 1_555
H14 C11 1_555 1_555
C3 C4 1_555 1_555

#END
