
#######################################################################
#
#                 Cambridge Crystallographic Data Centre
#                                CCDC 
#
#######################################################################
#
# If this CIF has been generated from an entry in the Cambridge 
# Structural Database, then it will include bibliographic, chemical, 
# crystal, experimental, refinement or atomic coordinate data resulting 
# from the CCDC's data processing and validation procedures.
#
#######################################################################

data_QETVIX
_chemical_name_common            spiro-rhombimine
_chemical_formula_moiety         'C54 H60 N4 O8'
_chemical_name_systematic        
3,24,28,49,52,57,60,65-octaoxa-10,17,35,42-tetraazaundecacyclo[46.2.2.2^1,4^.2^5,8^.2^19,22^.2^23,26^.2^26,29^.2^30,33^.2^44,47^.0^11,16^.0^36,41^]hexahexaconta-5,7,9,17,19,21,30,32,34,42,44,46,53,55,61,63-hexadecaene
_symmetry_cell_setting           orthorhombic
_symmetry_space_group_name_H-M   'P 21 21 21'
_symmetry_Int_Tables_number      19
_space_group_name_Hall           'P 2ac 2ab'
loop_
_symmetry_equiv_pos_site_id
_symmetry_equiv_pos_as_xyz
1 x,y,z
2 1/2-x,-y,1/2+z
3 1/2+x,1/2-y,-z
4 -x,1/2+y,1/2-z
_cell_length_a                   10.7257(2)
_cell_length_b                   11.3249(2)
_cell_length_c                   39.4835(5)
_cell_angle_alpha                90
_cell_angle_beta                 90
_cell_angle_gamma                90
_cell_volume                     4795.96
_exptl_crystal_colour            colorless
_exptl_crystal_description       block
_cell_formula_units_Z            4
loop_
_atom_site_label
_atom_site_type_symbol
_atom_site_fract_x
_atom_site_fract_y
_atom_site_fract_z
O1 O 0.2350(3) 0.8960(2) 0.47249(5)
O2 O 0.2357(2) 0.6940(2) 0.46455(5)
O3 O 0.1533(2) 0.6530(2) 0.57219(6)
O4 O 0.3590(2) 0.6610(2) 0.55454(6)
O5 O 1.04250(19) 0.1737(2) 0.52239(5)
O6 O 0.83276(19) 0.1747(2) 0.50615(5)
O7 O 0.9485(2) 0.30073(19) 0.40751(5)
O8 O 0.8979(2) 0.42996(19) 0.45128(5)
N1 N 0.6158(3) 0.6156(2) 0.28935(6)
N2 N 0.3884(3) 0.7590(2) 0.29512(6)
N3 N 0.4853(3) 0.2807(3) 0.69300(7)
N4 N 0.6825(3) 0.1137(3) 0.67894(7)
C1 C 0.5204(3) 0.6268(3) 0.26307(7)
H1 H 0.4533 0.5673 0.2672
C2 C 0.4635(3) 0.7518(3) 0.26458(7)
H2 H 0.5314 0.8122 0.2654
C3 C 0.3795(3) 0.7740(3) 0.23387(8)
H3 H 0.3065 0.7207 0.2350
H4 H 0.3485 0.8563 0.2346
C4 C 0.4477(4) 0.7538(3) 0.20056(8)
H5 H 0.3905 0.7688 0.1814
H6 H 0.5189 0.8091 0.1987
C5 C 0.4946(4) 0.6273(3) 0.19910(8)
H7 H 0.5400 0.6144 0.1776
H8 H 0.4228 0.5724 0.1997
C6 C 0.5812(3) 0.6018(3) 0.22895(7)
H9 H 0.6068 0.5178 0.2282
H10 H 0.6572 0.6507 0.2267
C7 C 0.4288(3) 0.8182(3) 0.31971(7)
H11 H 0.5037 0.8619 0.3170
C8 C 0.3639(3) 0.8219(3) 0.35266(7)
C9 C 0.2570(3) 0.7545(3) 0.35858(8)
H12 H 0.2209 0.7100 0.3407
C10 C 0.2042(3) 0.7528(3) 0.39029(8)
H13 H 0.1323 0.7056 0.3942
C11 C 0.2532(3) 0.8179(3) 0.41658(8)
C12 C 0.3572(4) 0.8881(3) 0.41079(8)
H14 H 0.3906 0.9350 0.4286
C13 C 0.4125(3) 0.8895(3) 0.37881(8)
H15 H 0.4840 0.9372 0.3749
C14 C 0.1956(3) 0.8046(3) 0.45145(8)
H16 H 0.1026 0.8056 0.4496
C15 C 0.1722(4) 0.8850(3) 0.50489(8)
H17 H 0.0810 0.8914 0.5014
H18 H 0.1984 0.9505 0.5199
C16 C 0.1765(3) 0.6690(3) 0.49636(8)
H19 H 0.2085 0.5934 0.5054
H20 H 0.0855 0.6608 0.4929
C17 C 0.2017(3) 0.7678(3) 0.52191(7)
C18 C 0.1183(4) 0.7550(3) 0.55284(9)
H21 H 0.1254 0.8265 0.5671
H22 H 0.0304 0.7473 0.5455
C19 C 0.3357(3) 0.7628(3) 0.53352(8)
H23 H 0.3911 0.7601 0.5135
H24 H 0.3556 0.8354 0.5464
C20 C 0.2764(4) 0.6621(3) 0.58275(8)
H25 H 0.2879 0.7370 0.5958
C21 C 0.3068(4) 0.5572(3) 0.60528(8)
C22 C 0.2312(3) 0.4586(3) 0.60683(8)
H26 H 0.1582 0.4542 0.5933
C23 C 0.2625(3) 0.3652(3) 0.62846(7)
H27 H 0.2101 0.2977 0.6296
C24 C 0.3684(3) 0.3704(3) 0.64806(7)
C25 C 0.4459(4) 0.4691(3) 0.64554(8)
H28 H 0.5207 0.4723 0.6584
C26 C 0.4144(4) 0.5624(3) 0.62443(8)
H29 H 0.4669 0.6299 0.6231
C27 C 0.3999(3) 0.2719(3) 0.67118(7)
H30 H 0.3545 0.2000 0.6695
C28 C 0.5077(3) 0.1790(3) 0.71501(8)
H31 H 0.4557 0.1103 0.7077
C29 C 0.6460(3) 0.1478(4) 0.71335(8)
H32 H 0.6954 0.2189 0.7201
C30 C 0.6759(4) 0.0479(5) 0.73776(10)
H33 H 0.7658 0.0289 0.7363
H34 H 0.6285 -0.0235 0.7311
C31 C 0.6433(4) 0.0806(5) 0.77411(10)
H35 H 0.6601 0.0125 0.7892
H36 H 0.6962 0.1473 0.7816
C32 C 0.5068(4) 0.1152(5) 0.77675(10)
H37 H 0.4885 0.1422 0.8001
H38 H 0.4538 0.0456 0.7719
C33 C 0.4761(4) 0.2140(4) 0.75166(8)
H39 H 0.5237 0.2857 0.7578
H40 H 0.3862 0.2331 0.7532
C34 C 0.7416(3) 0.1906(3) 0.66226(7)
H41 H 0.7551 0.2657 0.6723
C35 C 0.7908(3) 0.1693(3) 0.62786(7)
C36 C 0.7820(3) 0.0594(3) 0.61246(8)
H42 H 0.7447 -0.0044 0.6243
C37 C 0.8273(3) 0.0418(3) 0.57980(8)
H43 H 0.8193 -0.0333 0.5693
C38 C 0.8842(3) 0.1342(3) 0.56250(7)
C39 C 0.8953(3) 0.2435(3) 0.57798(8)
H44 H 0.9348 0.3066 0.5663
C40 C 0.8488(3) 0.2614(3) 0.61054(8)
H45 H 0.8567 0.3367 0.6210
C41 C 0.9250(3) 0.1190(3) 0.52620(7)
H46 H 0.9307 0.0333 0.5204
C42 C 1.0819(3) 0.1751(3) 0.48762(7)
H47 H 1.0925 0.0930 0.4795
H48 H 1.1636 0.2154 0.4859
C43 C 0.8634(3) 0.1755(3) 0.47066(7)
H49 H 0.7971 0.2167 0.4578
H50 H 0.8691 0.0935 0.4622
C44 C 0.9874(3) 0.2383(3) 0.46538(7)
C45 C 1.0296(3) 0.2322(3) 0.42852(7)
H51 H 1.1158 0.2626 0.4266
H52 H 1.0291 0.1490 0.4208
C46 C 0.9779(3) 0.3693(3) 0.47475(7)
H53 H 0.9442 0.3772 0.4980
H54 H 1.0620 0.4054 0.4743
C47 C 0.9412(3) 0.4193(3) 0.41763(7)
H55 H 1.0242 0.4585 0.4151
C48 C 0.8474(3) 0.4748(3) 0.39390(8)
C49 C 0.8873(3) 0.5356(3) 0.36529(8)
H56 H 0.9733 0.5533 0.3626
C50 C 0.8025(3) 0.5705(3) 0.34069(8)
H57 H 0.8303 0.6134 0.3214
C51 C 0.6766(3) 0.5427(3) 0.34424(7)
C52 C 0.6366(3) 0.4849(3) 0.37352(7)
H58 H 0.5505 0.4681 0.3765
C53 C 0.7214(3) 0.4517(3) 0.39830(8)
H59 H 0.6933 0.4132 0.4183
C54 C 0.5863(3) 0.5653(3) 0.31680(7)
H60 H 0.5022 0.5411 0.3199
loop_
_geom_bond_atom_site_label_1
_geom_bond_atom_site_label_2
_geom_bond_site_symmetry_1
_geom_bond_site_symmetry_2
O1 C14 1_555 1_555
O2 C14 1_555 1_555
O3 C18 1_555 1_555
O4 C19 1_555 1_555
O5 C41 1_555 1_555
O6 C41 1_555 1_555
O7 C45 1_555 1_555
O8 C46 1_555 1_555
N1 C1 1_555 1_555
N2 C2 1_555 1_555
N3 C27 1_555 1_555
N4 C29 1_555 1_555
C1 H1 1_555 1_555
C2 C1 1_555 1_555
H2 C2 1_555 1_555
C3 C2 1_555 1_555
H3 C3 1_555 1_555
H4 C3 1_555 1_555
C4 C3 1_555 1_555
H5 C4 1_555 1_555
H6 C4 1_555 1_555
C5 C4 1_555 1_555
H7 C5 1_555 1_555
H8 C5 1_555 1_555
C6 C1 1_555 1_555
H9 C6 1_555 1_555
H10 C6 1_555 1_555
C7 N2 1_555 1_555
H11 C7 1_555 1_555
C8 C7 1_555 1_555
C9 C8 1_555 1_555
H12 C9 1_555 1_555
C10 C9 1_555 1_555
H13 C10 1_555 1_555
C11 C10 1_555 1_555
C12 C11 1_555 1_555
H14 C12 1_555 1_555
C13 C8 1_555 1_555
H15 C13 1_555 1_555
C14 C11 1_555 1_555
H16 C14 1_555 1_555
C15 O1 1_555 1_555
H17 C15 1_555 1_555
H18 C15 1_555 1_555
C16 O2 1_555 1_555
H19 C16 1_555 1_555
H20 C16 1_555 1_555
C17 C15 1_555 1_555
C18 C17 1_555 1_555
H21 C18 1_555 1_555
H22 C18 1_555 1_555
C19 C17 1_555 1_555
H23 C19 1_555 1_555
H24 C19 1_555 1_555
C20 O3 1_555 1_555
H25 C20 1_555 1_555
C21 C20 1_555 1_555
C22 C21 1_555 1_555
H26 C22 1_555 1_555
C23 C22 1_555 1_555
H27 C23 1_555 1_555
C24 C23 1_555 1_555
C25 C24 1_555 1_555
H28 C25 1_555 1_555
C26 C21 1_555 1_555
H29 C26 1_555 1_555
C27 C24 1_555 1_555
H30 C27 1_555 1_555
C28 N3 1_555 1_555
H31 C28 1_555 1_555
C29 C28 1_555 1_555
H32 C29 1_555 1_555
C30 C29 1_555 1_555
H33 C30 1_555 1_555
H34 C30 1_555 1_555
C31 C30 1_555 1_555
H35 C31 1_555 1_555
H36 C31 1_555 1_555
C32 C31 1_555 1_555
H37 C32 1_555 1_555
H38 C32 1_555 1_555
C33 C28 1_555 1_555
H39 C33 1_555 1_555
H40 C33 1_555 1_555
C34 N4 1_555 1_555
H41 C34 1_555 1_555
C35 C34 1_555 1_555
C36 C35 1_555 1_555
H42 C36 1_555 1_555
C37 C36 1_555 1_555
H43 C37 1_555 1_555
C38 C37 1_555 1_555
C39 C38 1_555 1_555
H44 C39 1_555 1_555
C40 C35 1_555 1_555
H45 C40 1_555 1_555
C41 C38 1_555 1_555
H46 C41 1_555 1_555
C42 O5 1_555 1_555
H47 C42 1_555 1_555
H48 C42 1_555 1_555
C43 O6 1_555 1_555
H49 C43 1_555 1_555
H50 C43 1_555 1_555
C44 C42 1_555 1_555
C45 C44 1_555 1_555
H51 C45 1_555 1_555
H52 C45 1_555 1_555
C46 C44 1_555 1_555
H53 C46 1_555 1_555
H54 C46 1_555 1_555
C47 O7 1_555 1_555
H55 C47 1_555 1_555
C48 C47 1_555 1_555
C49 C48 1_555 1_555
H56 C49 1_555 1_555
C50 C49 1_555 1_555
H57 C50 1_555 1_555
C51 C50 1_555 1_555
C52 C51 1_555 1_555
H58 C52 1_555 1_555
C53 C48 1_555 1_555
H59 C53 1_555 1_555
C54 N1 1_555 1_555
H60 C54 1_555 1_555
O4 C20 1_555 1_555
O8 C47 1_555 1_555
C5 C6 1_555 1_555
C12 C13 1_555 1_555
C16 C17 1_555 1_555
C25 C26 1_555 1_555
C32 C33 1_555 1_555
C39 C40 1_555 1_555
C43 C44 1_555 1_555
C51 C54 1_555 1_555
C52 C53 1_555 1_555

#END
