
#######################################################################
#
#                 Cambridge Crystallographic Data Centre
#                                CCDC 
#
#######################################################################
#
# If this CIF has been generated from an entry in the Cambridge 
# Structural Database, then it will include bibliographic, chemical, 
# crystal, experimental, refinement or atomic coordinate data resulting 
# from the CCDC's data processing and validation procedures.
#
#######################################################################

data_QETWAN
_chemical_formula_moiety         'C51 H60 O12'
_chemical_name_systematic        
25,26,27-(Benzene-1,3,5-tris((methyleneoxy)carbonyl)methoxy)-7,15,23-tris(t-butyl)-2,3,10,11,18,19-hexahomo-3,9,11-trioxacalix[3]arene
_symmetry_cell_setting           triclinic
_symmetry_space_group_name_H-M   'P -1'
_symmetry_Int_Tables_number      2
_space_group_name_Hall           '-P 1'
loop_
_symmetry_equiv_pos_site_id
_symmetry_equiv_pos_as_xyz
1 x,y,z
2 -x,-y,-z
_cell_length_a                   14.2037
_cell_length_b                   15.2283
_cell_length_c                   11.5267
_cell_angle_alpha                102.11
_cell_angle_beta                 109.79
_cell_angle_gamma                84.23
_cell_volume                     2292.57
_exptl_crystal_colour            colorless
_exptl_crystal_description       prism
_chemical_melting_point          202-204deg.C
_cell_formula_units_Z            2
_exptl_crystal_recrystallization_method dichloromethane
loop_
_atom_site_label
_atom_site_type_symbol
_atom_site_fract_x
_atom_site_fract_y
_atom_site_fract_z
O1 O 0.0640(2) 0.1018(2) 0.0558(3)
C1 C 0.0465(3) 0.2476(3) 0.1783(4)
C2 C 0.0306(4) 0.3906(3) 0.3091(4)
C3 C 0.0753(3) 0.3341(3) 0.2299(4)
C4 C -0.0390(3) 0.2204(3) 0.1900(4)
C5 C 0.1232(3) 0.0404(3) -0.0044(5)
O2 O 0.1586(2) 0.3625(2) 0.2098(3)
C6 C -0.0944(3) 0.2779(3) 0.2581(4)
O3 O 0.3329(2) 0.0949(2) 0.1079(3)
C7 C -0.0559(3) 0.3603(3) 0.3198(4)
C8 C 0.2627(4) 0.3339(3) 0.4994(4)
C9 C 0.2203(4) 0.1850(3) 0.5007(5)
C10 C 0.2478(4) -0.1250(4) 0.2125(5)
C11 C -0.1943(4) 0.2495(3) 0.2584(5)
C12 C 0.1120(3) 0.1841(3) 0.1171(5)
C13 C 0.3676(4) 0.2085(3) 0.4494(5)
C14 C 0.2049(3) -0.0064(3) 0.0883(4)
C15 C 0.3397(4) 0.4804(4) 0.0072(5)
O4 O 0.4122(3) 0.3651(2) 0.4768(3)
C16 C 0.3467(4) 0.3005(3) 0.4716(5)
C17 C 0.3038(4) 0.0224(3) 0.1433(5)
C18 C 0.3030(4) 0.1530(4) 0.4663(5)
C19 C 0.1996(4) 0.2763(3) 0.5139(4)
O5 O 0.1417(2) 0.4623(2) 0.5126(3)
C20 C 0.0763(4) 0.4763(3) 0.3910(5)
C21 C 0.2193(5) -0.2090(4) 0.2448(5)
C22 C 0.1353(4) 0.4315(4) 0.1363(5)
O6 O 0.4807(3) 0.0790(2) 0.4224(4)
C23 C 0.3441(4) -0.0916(4) 0.2679(5)
C24 C 0.1801(4) -0.0798(3) 0.1256(4)
C25 C 0.4756(4) 0.0184(4) 0.3054(6)
C26 C 0.3737(4) -0.0179(3) 0.2359(5)
C27 C 0.4544(4) 0.2278(4) -0.1390(6)
O7 O 0.1282(3) 0.4688(3) -0.0497(4)
C28 C 0.1532(4) 0.1190(4) 0.5185(5)
O8 O 0.4022(3) 0.1570(2) -0.1207(3)
C29 C 0.2789(4) 0.4270(4) -0.1018(5)
C30 C 0.4598(4) 0.1683(4) 0.4100(6)
C31 C 0.2423(4) 0.4357(3) 0.5212(5)
C32 C 0.4220(4) 0.1441(4) -0.0036(6)
C33 C 0.4419(4) 0.4428(4) 0.3321(5)
C34 C 0.4962(4) 0.5048(4) 0.1913(5)
O9 O 0.3753(3) 0.4990(3) 0.3307(4)
O10 O 0.5132(3) 0.4466(3) 0.2837(3)
C35 C 0.3577(4) 0.0728(4) -0.0023(6)
C36 C 0.4362(4) 0.4539(4) 0.0683(5)
C37 C 0.4733(4) 0.3731(4) 0.0171(5)
O11 O 0.4838(3) 0.1825(3) 0.0876(4)
C38 C 0.1363(4) 0.3973(4) 0.0054(5)
C39 C 0.3178(4) 0.3462(4) -0.1514(5)
C40 C 0.4165(4) 0.3188(4) -0.0916(5)
O12 O 0.1452(3) 0.3214(3) -0.0433(4)
C41 C 0.1693(4) 0.4518(5) -0.1535(5)
C42 C 0.4535(4) 0.3575(4) 0.3769(5)
C43 C 0.0971(5) 0.0620(4) 0.3911(6)
C44 C -0.1904(5) 0.1521(5) 0.2737(9)
C45 C 0.2189(6) 0.0571(5) 0.6083(7)
C46 C 0.0740(5) 0.1705(5) 0.5752(7)
C47 C -0.2318(5) 0.3128(6) 0.3548(8)
C48 C -0.2721(5) 0.2520(7) 0.1299(9)
C49 C 0.242(1) -0.1968(7) 0.3809(9)
C50 C 0.284(1) -0.2845(6) 0.213(1)
C51 C 0.1167(7) -0.2292(6) 0.193(1)
loop_
_geom_bond_atom_site_label_1
_geom_bond_atom_site_label_2
_geom_bond_site_symmetry_1
_geom_bond_site_symmetry_2
O1 C5 1_555 1_555
C1 C3 1_555 1_555
C2 C3 1_555 1_555
C3 O2 1_555 1_555
C4 C1 1_555 1_555
C5 C14 1_555 1_555
O2 C22 1_555 1_555
C6 C4 1_555 1_555
O3 C17 1_555 1_555
C7 C2 1_555 1_555
C8 C16 1_555 1_555
C9 C18 1_555 1_555
C10 C21 1_555 1_555
C11 C6 1_555 1_555
C12 O1 1_555 1_555
C13 C16 1_555 1_555
C14 C17 1_555 1_555
C15 C29 1_555 1_555
O4 C16 1_555 1_555
C17 C26 1_555 1_555
C18 C13 1_555 1_555
C19 C8 1_555 1_555
O5 C20 1_555 1_555
C20 C2 1_555 1_555
C21 C49 1_555 1_555
C22 C38 1_555 1_555
O6 C25 1_555 1_555
C23 C10 1_555 1_555
C24 C10 1_555 1_555
C25 C26 1_555 1_555
C26 C23 1_555 1_555
C27 O8 1_555 1_555
O7 C38 1_555 1_555
C28 C9 1_555 1_555
O8 C32 1_555 1_555
C29 C39 1_555 1_555
C30 C13 1_555 1_555
C31 C8 1_555 1_555
C32 C35 1_555 1_555
C33 O9 1_555 1_555
C34 O10 1_555 1_555
O10 C33 1_555 1_555
C35 O3 1_555 1_555
C36 C15 1_555 1_555
C37 C36 1_555 1_555
O11 C32 1_555 1_555
C38 O12 1_555 1_555
C39 C40 1_555 1_555
C40 C27 1_555 1_555
C41 O7 1_555 1_555
C42 O4 1_555 1_555
C43 C28 1_555 1_555
C44 C11 1_555 1_555
C45 C28 1_555 1_555
C46 C28 1_555 1_555
C47 C11 1_555 1_555
C48 C11 1_555 1_555
C50 C21 1_555 1_555
C51 C21 1_555 1_555
C1 C12 1_555 1_555
C6 C7 1_555 1_555
C9 C19 1_555 1_555
C14 C24 1_555 1_555
O5 C31 1_555 1_555
O6 C30 1_555 1_555
C29 C41 1_555 1_555
C33 C42 1_555 1_555
C34 C36 1_555 1_555
C37 C40 1_555 1_555

#END
