
#######################################################################
#
#                 Cambridge Crystallographic Data Centre
#                                CCDC 
#
#######################################################################
#
# If this CIF has been generated from an entry in the Cambridge 
# Structural Database, then it will include bibliographic, chemical, 
# crystal, experimental, refinement or atomic coordinate data resulting 
# from the CCDC's data processing and validation procedures.
#
#######################################################################

data_QETWES
_chemical_formula_moiety         'C29 H34 O6 S1 Si1'
_chemical_name_systematic        
(4R,6S)-4-(t-Butyl-diphenylsiloxy)-6-((p-toluenesulfonyl)oxymethyl)-tetrahydropyran-2-one
_symmetry_cell_setting           monoclinic
_symmetry_space_group_name_H-M   'P 21'
_symmetry_Int_Tables_number      4
_space_group_name_Hall           'P 2yb'
loop_
_symmetry_equiv_pos_site_id
_symmetry_equiv_pos_as_xyz
1 x,y,z
2 -x,1/2+y,-z
_cell_length_a                   9.625(2)
_cell_length_b                   10.660(2)
_cell_length_c                   13.965(3)
_cell_angle_alpha                90
_cell_angle_beta                 93.17(3)
_cell_angle_gamma                90
_cell_volume                     1430.65
_exptl_crystal_colour            colorless
_exptl_crystal_description       prism
_chemical_melting_point          '124-126 deg.C'
_cell_formula_units_Z            2
_exptl_crystal_recrystallization_method 'hexane/ethyl acetate'
loop_
_atom_site_label
_atom_site_type_symbol
_atom_site_fract_x
_atom_site_fract_y
_atom_site_fract_z
C1 C 0.6808(3) 0.2866(3) 1.0246(2)
C2 C 0.8197(2) 0.2293(2) 1.0132(2)
H1 H 0.8830(2) 0.2545(2) 1.0681(2)
H2 H 0.8584(2) 0.2626(2) 0.9541(2)
C3 C 0.8159(2) 0.0881(2) 1.00758(14)
H3 H 0.9123(2) 0.0533(2) 1.00699(14)
C4 C 0.7436(2) 0.0407(2) 1.09363(14)
H4 H 0.7421(2) -0.0522(2) 1.09285(14)
H5 H 0.7958(2) 0.0680(2) 1.15303(14)
C5 C 0.5973(2) 0.0893(2) 1.09343(14)
H6 H 0.5395(2) 0.0389(2) 1.04579(14)
C6 C 0.5341(2) 0.0766(3) 1.18866(14)
H7 H 0.4364(2) 0.1060(3) 1.18389(14)
H8 H 0.5350(2) -0.0124(3) 1.20891(14)
C7 C 0.4819(2) 0.0834(2) 1.40930(14)
C8 C 0.4191(3) 0.1868(2) 1.4482(2)
H9 H 0.4628(3) 0.2667(2) 1.4476(2)
C9 C 0.2920(3) 0.1724(3) 1.4879(2)
H10 H 0.2488(3) 0.2430(3) 1.5152(2)
C10 C 0.2259(3) 0.0563(3) 1.4888(2)
C11 C 0.2917(3) -0.0454(3) 1.4495(2)
H11 H 0.2485(3) -0.1255(3) 1.4498(2)
C12 C 0.4191(3) -0.0325(3) 1.4098(2)
H12 H 0.4630(3) -0.1031(3) 1.3830(2)
C13 C 0.9580(2) 0.1029(2) 0.79758(14)
C14 C 1.0871(2) 0.0595(2) 0.8340(2)
H13 H 1.0918(2) -0.0177(2) 0.8680(2)
C15 C 1.2083(2) 0.1257(3) 0.8220(2)
H14 H 1.2946(2) 0.0945(3) 0.8483(2)
C16 C 1.2038(3) 0.2363(3) 0.7722(2)
H15 H 1.2873(3) 0.2811(3) 0.7627(2)
C17 C 1.0785(3) 0.2824(2) 0.7358(2)
H16 H 1.0751(3) 0.3594(2) 0.7016(2)
C18 C 0.9576(2) 0.2168(2) 0.7491(2)
H17 H 0.8715(2) 0.2504(2) 0.7244(2)
C19 C 0.8451(2) -0.1598(2) 0.8252(2)
C20 C 0.9211(2) -0.2157(2) 0.7541(2)
H18 H 0.9579(2) -0.1646(2) 0.7059(2)
C21 C 0.9439(3) -0.3434(3) 0.7526(2)
H19 H 0.9959(3) -0.3796(3) 0.7037(2)
C22 C 0.8907(3) -0.4186(3) 0.8226(2)
H20 H 0.9041(3) -0.5069(3) 0.8209(2)
C23 C 0.8193(3) -0.3661(2) 0.8937(2)
H21 H 0.7857(3) -0.4177(2) 0.9429(2)
C24 C 0.7949(2) -0.2382(2) 0.8952(2)
H22 H 0.7432(2) -0.2034(2) 0.9448(2)
C25 C 0.6476(2) 0.0358(2) 0.73049(14)
C26 C 0.5364(2) -0.0647(3) 0.7486(2)
H23 H 0.5052(2) -0.0553(3) 0.8139(2)
H24 H 0.5766(2) -0.1484(3) 0.7412(2)
H25 H 0.4570(2) -0.0540(3) 0.7023(2)
C27 C 0.6946(2) 0.0192(3) 0.62822(15)
H26 H 0.7365(2) -0.0640(3) 0.62183(15)
H27 H 0.7634(2) 0.0838(3) 0.61492(15)
H28 H 0.6141(2) 0.0272(3) 0.58251(15)
C28 C 0.5818(2) 0.1656(3) 0.7413(2)
H29 H 0.5520(2) 0.1755(3) 0.8069(2)
H30 H 0.5011(2) 0.1738(3) 0.6958(2)
H31 H 0.6503(2) 0.2305(3) 0.7283(2)
C29 C 0.0870(4) 0.0398(5) 1.5321(2)
H32 H 0.0557(4) 0.1207(5) 1.5564(2)
H33 H 0.0963(4) -0.0206(5) 1.5850(2)
H34 H 0.0189(4) 0.0087(5) 1.4830(2)
O1 O 0.5822(2) 0.2210(2) 1.06684(11)
O2 O 0.6530(2) 0.3919(2) 1.0003(2)
O3 O 0.73602(14) 0.05179(14) 0.92327(9)
O4 O 0.6150(2) 0.1519(2) 1.25829(10)
O5 O 0.7059(2) -0.0217(2) 1.35542(13)
O6 O 0.7234(2) 0.1962(2) 1.40987(12)
Si1 Si 0.79747(6) 0.01052(5) 0.82016(4)
S1 S 0.64637(6) 0.09931(6) 1.36199(4)
loop_
_geom_bond_atom_site_label_1
_geom_bond_atom_site_label_2
_geom_bond_site_symmetry_1
_geom_bond_site_symmetry_2
C1 C2 1_555 1_555
C2 H1 1_555 1_555
H2 C2 1_555 1_555
C3 C2 1_555 1_555
H3 C3 1_555 1_555
C4 C3 1_555 1_555
H4 C4 1_555 1_555
H5 C4 1_555 1_555
C5 C4 1_555 1_555
H6 C5 1_555 1_555
C6 C5 1_555 1_555
H7 C6 1_555 1_555
H8 C6 1_555 1_555
C7 C8 1_555 1_555
C8 H9 1_555 1_555
C9 C8 1_555 1_555
H10 C9 1_555 1_555
C10 C9 1_555 1_555
C11 C10 1_555 1_555
H11 C11 1_555 1_555
C12 C7 1_555 1_555
H12 C12 1_555 1_555
C13 C14 1_555 1_555
C14 H13 1_555 1_555
C15 C14 1_555 1_555
H14 C15 1_555 1_555
C16 C15 1_555 1_555
H15 C16 1_555 1_555
C17 C16 1_555 1_555
H16 C17 1_555 1_555
C18 C13 1_555 1_555
H17 C18 1_555 1_555
C19 C20 1_555 1_555
C20 H18 1_555 1_555
C21 C20 1_555 1_555
H19 C21 1_555 1_555
C22 C21 1_555 1_555
H20 C22 1_555 1_555
C23 C22 1_555 1_555
H21 C23 1_555 1_555
C24 C19 1_555 1_555
H22 C24 1_555 1_555
C25 C26 1_555 1_555
C26 H23 1_555 1_555
H24 C26 1_555 1_555
H25 C26 1_555 1_555
C27 C25 1_555 1_555
H26 C27 1_555 1_555
H27 C27 1_555 1_555
H28 C27 1_555 1_555
C28 C25 1_555 1_555
H29 C28 1_555 1_555
H30 C28 1_555 1_555
H31 C28 1_555 1_555
C29 C10 1_555 1_555
H32 C29 1_555 1_555
H33 C29 1_555 1_555
H34 C29 1_555 1_555
O1 C1 1_555 1_555
O2 C1 1_555 1_555
O3 C3 1_555 1_555
O4 C6 1_555 1_555
O5 S1 1_555 1_555
O6 S1 1_555 1_555
Si1 C13 1_555 1_555
S1 C7 1_555 1_555
C5 O1 1_555 1_555
C11 C12 1_555 1_555
C17 C18 1_555 1_555
C19 Si1 1_555 1_555
C23 C24 1_555 1_555
C25 Si1 1_555 1_555
O3 Si1 1_555 1_555
O4 S1 1_555 1_555

#END
