
#######################################################################
#
#                 Cambridge Crystallographic Data Centre
#                                CCDC 
#
#######################################################################
#
# If this CIF has been generated from an entry in the Cambridge 
# Structural Database, then it will include bibliographic, chemical, 
# crystal, experimental, refinement or atomic coordinate data resulting 
# from the CCDC's data processing and validation procedures.
#
#######################################################################

data_QEVBEZ
_chemical_formula_moiety         'C30 H24 Br4 O4'
_chemical_name_systematic        
5,11,17,23-Tetrabromo-25,27-dihydroxy-26,28-dimethoxycalix(4)arene
_symmetry_cell_setting           monoclinic
_symmetry_space_group_name_H-M   'P 21/c'
_symmetry_Int_Tables_number      14
_space_group_name_Hall           '-P 2ybc'
loop_
_symmetry_equiv_pos_site_id
_symmetry_equiv_pos_as_xyz
1 x,y,z
2 -x,1/2+y,1/2-z
3 -x,-y,-z
4 x,1/2-y,1/2+z
_cell_length_a                   9.8096(14)
_cell_length_b                   27.121(6)
_cell_length_c                   11.410(3)
_cell_angle_alpha                90
_cell_angle_beta                 110.310(14)
_cell_angle_gamma                90
_cell_volume                     2846.86
_exptl_crystal_colour            green
_exptl_crystal_description       prism
_cell_formula_units_Z            4
_exptl_crystal_recrystallization_method chloroform/methanol
loop_
_atom_site_label
_atom_site_type_symbol
_atom_site_fract_x
_atom_site_fract_y
_atom_site_fract_z
Br1 Br 0.48849(5) 1.074648(17) 1.13317(4)
Br2 Br 0.33281(6) 1.042007(19) 0.43339(5)
Br3 Br 0.79851(5) 0.828309(19) 0.66163(5)
Br4 Br 0.86503(6) 0.84679(2) 1.31766(5)
O1 O 0.0738(2) 0.90848(9) 0.9104(2)
O2 O 0.0962(2) 0.88850(9) 0.6937(2)
H1 H 0.0428 0.8695 0.6421
O3 O 0.2252(2) 0.79294(8) 0.7272(2)
O4 O 0.2544(2) 0.81870(9) 0.96125(19)
H2 H 0.2059 0.8440 0.9527
C1 C 0.2970(4) 0.89296(13) 1.1487(3)
H3 H 0.2060 0.8749 1.1187
H4 H 0.3162 0.9010 1.2358
C2 C 0.2801(4) 0.93991(13) 1.0758(3)
C3 C 0.1783(3) 0.94534(13) 0.9635(3)
C4 C 0.1809(4) 0.98625(16) 0.8966(3)
C5 C 0.2771(3) 1.02366(13) 0.9439(3)
H5 H 0.2779 1.0511 0.8951
C6 C 0.3679(3) 1.02061(12) 1.0583(3)
C7 C 0.3731(3) 0.97833(13) 1.1255(3)
H6 H 0.4407 0.9757 1.2060
C8 C 0.0765(4) 0.99064(15) 0.7649(3)
H7 H 0.0476 1.0249 0.7487
H8 H -0.0100 0.9717 0.7573
C9 C 0.1364(4) 0.97315(14) 0.6660(3)
C10 C 0.1444(4) 0.92405(14) 0.6342(3)
C11 C 0.2094(3) 0.90816(13) 0.5500(3)
C12 C 0.2629(4) 0.94371(13) 0.4897(3)
H9 H 0.3035 0.9342 0.4307
C13 C 0.2559(4) 0.99373(14) 0.5173(3)
C14 C 0.1947(4) 1.00704(14) 0.6052(3)
H10 H 0.1924 1.0403 0.6245
C15 C 0.2242(4) 0.85410(12) 0.5190(3)
H11 H 0.2331 0.8519 0.4370
H12 H 0.1372 0.8364 0.5160
C16 C 0.3556(3) 0.83006(12) 0.6147(3)
C17 C 0.3579(4) 0.80306(13) 0.7150(3)
C18 C 0.4811(4) 0.78623(12) 0.8064(3)
C19 C 0.6140(4) 0.79467(13) 0.7907(3)
H13 H 0.6995 0.7830 0.8496
C20 C 0.6181(3) 0.81938(14) 0.6919(3)
C21 C 0.4926(4) 0.83928(12) 0.6003(3)
H14 H 0.4990 0.8576 0.5335
C22 C 0.4770(4) 0.76289(12) 0.9226(3)
H15 H 0.5511 0.7375 0.9489
H16 H 0.3832 0.7473 0.9060
C23 C 0.5017(4) 0.79961(12) 1.0252(3)
C24 C 0.3901(4) 0.82694(13) 1.0443(3)
C25 C 0.4190(4) 0.85939(15) 1.1401(3)
C26 C 0.5617(4) 0.86445(14) 1.2200(3)
H17 H 0.5831 0.8872 1.2849
C27 C 0.6703(4) 0.83729(15) 1.2060(4)
C28 C 0.6442(4) 0.80668(14) 1.1080(3)
H18 H 0.7208 0.7901 1.0950
C29 C -0.0532(4) 0.91440(16) 0.9471(4)
H19 H -0.1219 0.8887 0.9100
H20 H -0.0972 0.9459 0.9190
H21 H -0.0244 0.9126 1.0364
C30 C 0.1577(4) 0.74773(13) 0.6671(3)
H22 H 0.0672 0.7430 0.6804
H23 H 0.2211 0.7204 0.7019
H24 H 0.1401 0.7498 0.5790
loop_
_geom_bond_atom_site_label_1
_geom_bond_atom_site_label_2
_geom_bond_site_symmetry_1
_geom_bond_site_symmetry_2
Br1 C6 1_555 1_555
Br2 C13 1_555 1_555
Br3 C20 1_555 1_555
Br4 C27 1_555 1_555
O1 C3 1_555 1_555
O2 H1 1_555 1_555
O3 C17 1_555 1_555
O4 H2 1_555 1_555
C1 H3 1_555 1_555
H4 C1 1_555 1_555
C2 C1 1_555 1_555
C3 C2 1_555 1_555
C4 C3 1_555 1_555
C5 C4 1_555 1_555
H5 C5 1_555 1_555
C6 C5 1_555 1_555
C7 C2 1_555 1_555
H6 C7 1_555 1_555
C8 C4 1_555 1_555
H7 C8 1_555 1_555
H8 C8 1_555 1_555
C9 C8 1_555 1_555
C10 O2 1_555 1_555
C11 C10 1_555 1_555
C12 C11 1_555 1_555
H9 C12 1_555 1_555
C13 C12 1_555 1_555
C14 C9 1_555 1_555
H10 C14 1_555 1_555
C15 C11 1_555 1_555
H11 C15 1_555 1_555
H12 C15 1_555 1_555
C16 C15 1_555 1_555
C17 C16 1_555 1_555
C18 C17 1_555 1_555
C19 C18 1_555 1_555
H13 C19 1_555 1_555
C20 C19 1_555 1_555
C21 C16 1_555 1_555
H14 C21 1_555 1_555
C22 C18 1_555 1_555
H15 C22 1_555 1_555
H16 C22 1_555 1_555
C23 C22 1_555 1_555
C24 O4 1_555 1_555
C25 C1 1_555 1_555
C26 C25 1_555 1_555
H17 C26 1_555 1_555
C27 C26 1_555 1_555
C28 C23 1_555 1_555
H18 C28 1_555 1_555
C29 O1 1_555 1_555
H19 C29 1_555 1_555
H20 C29 1_555 1_555
H21 C29 1_555 1_555
C30 O3 1_555 1_555
H22 C30 1_555 1_555
H23 C30 1_555 1_555
H24 C30 1_555 1_555
C6 C7 1_555 1_555
C9 C10 1_555 1_555
C13 C14 1_555 1_555
C20 C21 1_555 1_555
C23 C24 1_555 1_555
C24 C25 1_555 1_555
C27 C28 1_555 1_555

#END
