
#######################################################################
#
#                 Cambridge Crystallographic Data Centre
#                                CCDC 
#
#######################################################################
#
# If this CIF has been generated from an entry in the Cambridge 
# Structural Database, then it will include bibliographic, chemical, 
# crystal, experimental, refinement or atomic coordinate data resulting 
# from the CCDC's data processing and validation procedures.
#
#######################################################################

data_QEVBUP
_chemical_formula_moiety         'C48 H66 N2 O6'
_chemical_name_systematic        
5,17-bis(N-t-butylhydroxyamino)-25,26,27,28-tetrapropoxycalix(4)arene
_symmetry_cell_setting           monoclinic
_symmetry_space_group_name_H-M   'P 21/c'
_symmetry_Int_Tables_number      14
_space_group_name_Hall           '-P 2ybc'
loop_
_symmetry_equiv_pos_site_id
_symmetry_equiv_pos_as_xyz
1 x,y,z
2 -x,1/2+y,1/2-z
3 -x,-y,-z
4 x,1/2-y,1/2+z
_cell_length_a                   14.636(2)
_cell_length_b                   16.807(2)
_cell_length_c                   19.131(2)
_cell_angle_alpha                90
_cell_angle_beta                 102.9810(10)
_cell_angle_gamma                90
_cell_volume                     4585.72
_exptl_crystal_colour            colorless
_exptl_crystal_description       prism
_cell_formula_units_Z            4
loop_
_atom_site_label
_atom_site_type_symbol
_atom_site_fract_x
_atom_site_fract_y
_atom_site_fract_z
O1 O 0.83959(6) 0.46935(6) 0.14534(5)
O2 O 0.83460(6) 0.29635(6) 0.24000(5)
O3 O 0.88260(6) 0.30065(7) 0.41998(5)
O4 O 0.85010(6) 0.47897(6) 0.32209(5)
O5 O 0.45231(9) 0.47497(9) 0.22979(7)
H1 H 0.4624 0.4498 0.2675
O6 O 0.46136(9) 0.29200(9) 0.25943(7)
H2 H 0.4611 0.3169 0.2225
N1 N 0.46817(7) 0.42249(7) 0.17067(6)
N2 N 0.49392(7) 0.34436(7) 0.32205(6)
C1 C 0.75651(10) 0.58912(9) 0.22020(8)
H3 H 0.8216 0.5860 0.2168
H4 H 0.7297 0.6371 0.1957
C2 C 0.70387(9) 0.51726(9) 0.18389(7)
C3 C 0.74592(8) 0.45926(9) 0.14982(7)
C4 C 0.70076(9) 0.38916(9) 0.12442(7)
C5 C 0.60850(9) 0.37850(9) 0.13154(7)
H5 H 0.5770 0.3315 0.1156
C6 C 0.56355(8) 0.43703(9) 0.16201(7)
C7 C 0.61147(9) 0.50503(9) 0.18901(7)
H6 H 0.5816 0.5433 0.2110
C8 C 0.74937(10) 0.32126(9) 0.09436(7)
H7 H 0.7223 0.3154 0.0435
H8 H 0.8154 0.3335 0.1003
C9 C 0.73859(9) 0.24490(9) 0.13228(8)
C10 C 0.77662(8) 0.23646(8) 0.20532(7)
C11 C 0.75089(9) 0.17554(9) 0.24639(8)
C12 C 0.69175(11) 0.11676(10) 0.20999(10)
H9 H 0.6738 0.0748 0.2356
C13 C 0.65906(12) 0.11992(11) 0.13561(10)
H10 H 0.6221 0.0790 0.1116
C14 C 0.68190(11) 0.18400(10) 0.09791(10)
H11 H 0.6589 0.1864 0.0485
C15 C 0.77819(10) 0.17981(9) 0.32659(8)
H12 H 0.8459 0.1838 0.3419
H13 H 0.7587 0.1314 0.3467
C16 C 0.73311(9) 0.25136(9) 0.35456(7)
C17 C 0.78495(9) 0.30991(9) 0.39720(7)
C18 C 0.74412(9) 0.37995(9) 0.41415(7)
C19 C 0.64786(9) 0.38951(9) 0.38858(7)
H14 H 0.6193 0.4364 0.3984
C20 C 0.59437(9) 0.33072(9) 0.34907(7)
C21 C 0.63663(9) 0.26266(9) 0.33102(7)
H15 H 0.6004 0.2240 0.3029
C22 C 0.80104(11) 0.44835(10) 0.45354(8)
H16 H 0.7891 0.4532 0.5012
H17 H 0.8674 0.4378 0.4585
C23 C 0.77494(10) 0.52505(10) 0.41262(8)
C24 C 0.79433(9) 0.53486(9) 0.34536(8)
C25 C 0.75173(9) 0.59342(9) 0.29757(8)
C26 C 0.69646(11) 0.64906(10) 0.32282(9)
H18 H 0.6686 0.6900 0.2928
C27 C 0.68218(12) 0.64452(11) 0.39192(10)
H19 H 0.6474 0.6834 0.4088
C28 C 0.72011(11) 0.58184(11) 0.43535(9)
H20 H 0.7084 0.5778 0.4810
C29 C 0.84974(10) 0.51052(12) 0.08218(8)
H21 H 0.8109 0.5579 0.0758
H22 H 0.8287 0.4766 0.0406
C30 C 0.94862(12) 0.53311(18) 0.08771(13)
H23 H 0.9538 0.5439 0.0389
H24 H 0.9563 0.5839 0.1123
C31 C 1.02413(15) 0.4915(2) 0.11685(14)
H25 H 1.0792 0.5212 0.1139
H26 H 1.0235 0.4421 0.0916
H27 H 1.0246 0.4809 0.1663
C32 C 0.93309(14) 0.2758(2) 0.26233(13)
H28 H 0.9383 0.2208 0.2781
H29 H 0.9617 0.3087 0.3030
C33 C 0.98603(15) 0.2859(3) 0.20546(15)
H30 H 0.9728 0.3383 0.1843
H31 H 0.9642 0.2469 0.1681
C34 C 1.09146(16) 0.2770(3) 0.23214(19)
H32 H 1.1216 0.2851 0.1930
H33 H 1.1055 0.2246 0.2514
H34 H 1.1139 0.3158 0.2688
C35 C 0.92196(15) 0.2753(2) 0.49236(12)
H35 H 0.9198 0.2177 0.4946
H36 H 0.8841 0.2962 0.5238
C36 C 1.02472(15) 0.3033(2) 0.51964(14)
H37 H 1.0318 0.3587 0.5076
H38 H 1.0449 0.2968 0.5712
C37 C 1.0765(2) 0.2527(3) 0.4831(2)
H39 H 1.1423 0.2632 0.4997
H40 H 1.0582 0.2627 0.4325
H41 H 1.0639 0.1982 0.4925
C38 C 0.94108(15) 0.5083(2) 0.31357(16)
H42 H 0.9398 0.5660 0.3142
H43 H 0.9495 0.4921 0.2668
C39 C 1.02306(17) 0.4811(2) 0.36827(17)
H44 H 1.0247 0.4234 0.3702
H45 H 1.0197 0.5011 0.4152
C40 C 1.1109(2) 0.5130(3) 0.3468(2)
H46 H 1.1658 0.4933 0.3795
H47 H 1.1107 0.5701 0.3484
H48 H 1.1112 0.4958 0.2990
C41 C 0.39213(9) 0.44611(10) 0.10678(7)
C42 C 0.29867(9) 0.42636(11) 0.12630(9)
H49 H 0.2957 0.3703 0.1351
H50 H 0.2478 0.4412 0.0874
H51 H 0.2939 0.4552 0.1686
C43 C 0.40140(11) 0.39813(11) 0.04129(8)
H52 H 0.4598 0.4108 0.0290
H53 H 0.3505 0.4110 0.0017
H54 H 0.3997 0.3424 0.0518
C44 C 0.39798(11) 0.53530(10) 0.09170(9)
H55 H 0.4565 0.5467 0.0790
H56 H 0.3940 0.5650 0.1338
H57 H 0.3471 0.5501 0.0528
C45 C 0.43393(10) 0.32234(11) 0.37409(8)
C46 C 0.33197(10) 0.33909(12) 0.33538(9)
H58 H 0.2911 0.3263 0.3666
H59 H 0.3158 0.3071 0.2928
H60 H 0.3253 0.3943 0.3225
C47 C 0.44709(12) 0.23479(12) 0.39340(10)
H61 H 0.5106 0.2257 0.4189
H62 H 0.4339 0.2034 0.3504
H63 H 0.4050 0.2199 0.4231
C48 C 0.45972(12) 0.37368(14) 0.44077(9)
H64 H 0.5229 0.3623 0.4656
H65 H 0.4179 0.3625 0.4716
H66 H 0.4547 0.4288 0.4273
O7? O 0.45383(18) 0.33384(15) 0.17322(16)
H67? H 0.4532 0.3205 0.2143
O8? O 0.47541(18) 0.43099(14) 0.31659(16)
H68? H 0.4719 0.4456 0.2752
C49? C 0.92559(18) 0.3025(2) 0.22451(18)
H69? H 0.9460 0.3575 0.2285
H70? H 0.9229 0.2848 0.1758
C50? C 0.9936(2) 0.2526(3) 0.2757(2)
H71? H 0.9775 0.1969 0.2672
H72? H 0.9895 0.2653 0.3244
C51? C 1.0932(2) 0.2663(3) 0.2676(3)
H73? H 1.1351 0.2316 0.2995
H74? H 1.1106 0.3206 0.2792
H75? H 1.0968 0.2555 0.2191
C52? C 0.8991(2) 0.2521(3) 0.48304(19)
H76? H 0.8670 0.2015 0.4734
H77? H 0.8779 0.2786 0.5216
C53? C 1.00543(19) 0.2405(3) 0.5024(2)
H78? H 1.0129 0.1831 0.5052
H79? H 1.0248 0.2560 0.4590
C54? C 1.0811(4) 0.2698(6) 0.5599(3)
H80? H 1.1365 0.2777 0.5417
H81? H 1.0939 0.2315 0.5981
H82? H 1.0628 0.3193 0.5777
C55? C 0.94656(18) 0.4794(2) 0.35945(17)
H83? H 0.9695 0.4253 0.3679
H84? H 0.9533 0.5058 0.4054
C56? C 1.00087(19) 0.5224(3) 0.3147(2)
H85? H 0.9889 0.5791 0.3159
H86? H 0.9823 0.5044 0.2653
C57? C 1.1057(2) 0.5056(4) 0.3445(3)
H87? H 1.1417 0.5311 0.3148
H88? H 1.1165 0.4492 0.3449
H89? H 1.1242 0.5259 0.3925
loop_
_geom_bond_atom_site_label_1
_geom_bond_atom_site_label_2
_geom_bond_site_symmetry_1
_geom_bond_site_symmetry_2
O1 C3 1_555 1_555
O2 C10 1_555 1_555
O3 C17 1_555 1_555
O4 C24 1_555 1_555
O5 H1 1_555 1_555
O6 H2 1_555 1_555
N1 O5 1_555 1_555
N2 O6 1_555 1_555
C1 H3 1_555 1_555
H4 C1 1_555 1_555
C2 C1 1_555 1_555
C3 C2 1_555 1_555
C4 C3 1_555 1_555
C5 C4 1_555 1_555
H5 C5 1_555 1_555
C6 N1 1_555 1_555
C7 C2 1_555 1_555
H6 C7 1_555 1_555
C8 C4 1_555 1_555
H7 C8 1_555 1_555
H8 C8 1_555 1_555
C9 C8 1_555 1_555
C10 C9 1_555 1_555
C11 C10 1_555 1_555
C12 C11 1_555 1_555
H9 C12 1_555 1_555
C13 C12 1_555 1_555
H10 C13 1_555 1_555
C14 C9 1_555 1_555
H11 C14 1_555 1_555
C15 C11 1_555 1_555
H12 C15 1_555 1_555
H13 C15 1_555 1_555
C16 C15 1_555 1_555
C17 C16 1_555 1_555
C18 C17 1_555 1_555
C19 C18 1_555 1_555
H14 C19 1_555 1_555
C20 N2 1_555 1_555
C21 C16 1_555 1_555
H15 C21 1_555 1_555
C22 C18 1_555 1_555
H16 C22 1_555 1_555
H17 C22 1_555 1_555
C23 C22 1_555 1_555
C24 C23 1_555 1_555
C25 C1 1_555 1_555
C26 C25 1_555 1_555
H18 C26 1_555 1_555
C27 C26 1_555 1_555
H19 C27 1_555 1_555
C28 C23 1_555 1_555
H20 C28 1_555 1_555
C29 O1 1_555 1_555
H21 C29 1_555 1_555
H22 C29 1_555 1_555
C30 C29 1_555 1_555
H23 C30 1_555 1_555
H24 C30 1_555 1_555
C31 C30 1_555 1_555
H25 C31 1_555 1_555
H26 C31 1_555 1_555
H27 C31 1_555 1_555
C32 O2 1_555 1_555
H28 C32 1_555 1_555
H29 C32 1_555 1_555
C33 C32 1_555 1_555
H30 C33 1_555 1_555
H31 C33 1_555 1_555
C34 C33 1_555 1_555
H32 C34 1_555 1_555
H33 C34 1_555 1_555
H34 C34 1_555 1_555
C35 O3 1_555 1_555
H35 C35 1_555 1_555
H36 C35 1_555 1_555
C36 C35 1_555 1_555
H37 C36 1_555 1_555
H38 C36 1_555 1_555
C37 C36 1_555 1_555
H39 C37 1_555 1_555
H40 C37 1_555 1_555
H41 C37 1_555 1_555
C38 O4 1_555 1_555
H42 C38 1_555 1_555
H43 C38 1_555 1_555
C39 C38 1_555 1_555
H44 C39 1_555 1_555
H45 C39 1_555 1_555
C40 C39 1_555 1_555
H46 C40 1_555 1_555
H47 C40 1_555 1_555
H48 C40 1_555 1_555
C41 N1 1_555 1_555
C42 C41 1_555 1_555
H49 C42 1_555 1_555
H50 C42 1_555 1_555
H51 C42 1_555 1_555
C43 C41 1_555 1_555
H52 C43 1_555 1_555
H53 C43 1_555 1_555
H54 C43 1_555 1_555
C44 C41 1_555 1_555
H55 C44 1_555 1_555
H56 C44 1_555 1_555
H57 C44 1_555 1_555
C45 N2 1_555 1_555
C46 C45 1_555 1_555
H58 C46 1_555 1_555
H59 C46 1_555 1_555
H60 C46 1_555 1_555
C47 C45 1_555 1_555
H61 C47 1_555 1_555
H62 C47 1_555 1_555
H63 C47 1_555 1_555
C48 C45 1_555 1_555
H64 C48 1_555 1_555
H65 C48 1_555 1_555
H66 C48 1_555 1_555
C5 C6 1_555 1_555
C6 C7 1_555 1_555
C13 C14 1_555 1_555
C19 C20 1_555 1_555
C20 C21 1_555 1_555
C24 C25 1_555 1_555
C27 C28 1_555 1_555

#END
