
#######################################################################
#
#                 Cambridge Crystallographic Data Centre
#                                CCDC 
#
#######################################################################
#
# If this CIF has been generated from an entry in the Cambridge 
# Structural Database, then it will include bibliographic, chemical, 
# crystal, experimental, refinement or atomic coordinate data resulting 
# from the CCDC's data processing and validation procedures.
#
#######################################################################

data_QEVFAB
_chemical_formula_moiety         'C32 H46 O10,C1 H4 O1,H2 O1'
_chemical_name_systematic        
'12-hydroxy-8-(1-hydroxyethyl)-2-[5-(3-hydroxyphenyl)-5-methoxypentan-2-yl]-3,12,14,14-tetramethylhexahydro-2H,6H-4,14a-methano-1,5,9-benzotrioxacyclododecine-6,10,11(10aH,12H)-trione methanol solvate monohydrate'
_symmetry_cell_setting           monoclinic
_symmetry_space_group_name_H-M   'P 21'
_symmetry_Int_Tables_number      4
_space_group_name_Hall           'P 2yb'
loop_
_symmetry_equiv_pos_site_id
_symmetry_equiv_pos_as_xyz
1 x,y,z
2 -x,1/2+y,-z
_cell_length_a                   12.9501(2)
_cell_length_b                   8.63820(10)
_cell_length_c                   15.3464(2)
_cell_angle_alpha                90
_cell_angle_beta                 90.1430(10)
_cell_angle_gamma                90
_cell_volume                     1716.73
_exptl_crystal_colour            colorless
_exptl_crystal_description       prismatic
_cell_formula_units_Z            2
loop_
_atom_site_label
_atom_site_type_symbol
_atom_site_fract_x
_atom_site_fract_y
_atom_site_fract_z
O1 O 0.49965(13) 0.1997(3) 0.30796(13)
O2 O 0.34284(11) 0.2759(2) 0.26098(10)
O3 O 0.16904(12) 0.30722(19) 0.38305(11)
O4 O 0.29898(11) 0.15948(18) 0.43190(10)
O5 O 0.37807(16) 0.1494(3) 0.59771(12)
H1 H 0.3468 0.0755 0.5769
O6 O -0.00394(13) 0.1240(2) 0.38325(14)
O7 O 0.04961(14) -0.2405(2) 0.42446(10)
H2 H 0.0332 -0.2029 0.4715
O8 O 0.12836(11) 0.05750(18) 0.20022(9)
O9 O -0.24658(15) 0.1177(3) 0.11620(14)
O10 O -0.4653(2) 0.6879(4) 0.23673(18)
H3 H -0.4273 0.6868 0.2795
C1 C 0.42428(17) 0.2787(3) 0.31561(16)
C2 C 0.4022(2) 0.3861(3) 0.39015(17)
H4 H 0.3558 0.4675 0.3710
H5 H 0.4659 0.4338 0.4098
C3 C 0.35258(17) 0.2960(3) 0.46576(15)
H6 H 0.3034 0.3628 0.4964
C4 C 0.20875(15) 0.1826(3) 0.38920(13)
C5 C 0.16787(15) 0.0283(2) 0.35607(13)
H7 H 0.1977 -0.0514 0.3940
C6 C 0.19477(15) -0.0214(3) 0.25880(13)
C7 C 0.31022(16) 0.0004(3) 0.23665(15)
H8 H 0.3500 -0.0120 0.2898
H9 H 0.3306 -0.0819 0.1973
C8 C 0.33956(15) 0.1545(3) 0.19549(14)
H10 H 0.4077 0.1450 0.1683
C9 C 0.26137(17) 0.2075(3) 0.12728(14)
H11 H 0.2600 0.1295 0.0809
C10 C 0.15422(16) 0.2102(3) 0.16949(13)
H12 H 0.1561 0.2809 0.2194
C11 C 0.16257(17) -0.1953(3) 0.24794(14)
C12 C 0.04674(17) -0.2141(3) 0.26919(14)
H13 H 0.0075 -0.1664 0.2224
H14 H 0.0309 -0.3238 0.2684
C13 C 0.00753(17) -0.1479(3) 0.35499(16)
C14 C 0.05063(16) 0.0167(3) 0.36669(13)
C15 C -0.1093(2) -0.1476(4) 0.3591(2)
H15 H -0.1346 -0.2513 0.3515
H16 H -0.1364 -0.0828 0.3136
H17 H -0.1312 -0.1086 0.4146
C16 C 0.23018(19) -0.3054(3) 0.30235(16)
H18 H 0.2256 -0.2775 0.3628
H19 H 0.3006 -0.2974 0.2836
H20 H 0.2065 -0.4098 0.2947
C17 C 0.1738(2) -0.2454(3) 0.15188(16)
H21 H 0.2456 -0.2502 0.1370
H22 H 0.1397 -0.1715 0.1150
H23 H 0.1429 -0.3455 0.1439
C18 C 0.2925(2) 0.3603(4) 0.08637(18)
H24 H 0.2918 0.4401 0.1299
H25 H 0.2446 0.3863 0.0408
H26 H 0.3606 0.3514 0.0625
C19 C 0.43003(18) 0.2304(3) 0.53024(15)
H27 H 0.4759 0.1584 0.4997
C20 C 0.4948(3) 0.3536(4) 0.5747(2)
H28 H 0.4503 0.4307 0.5995
H29 H 0.5396 0.4012 0.5327
H30 H 0.5356 0.3070 0.6199
C21 C 0.06462(17) 0.2572(3) 0.10978(14)
H31 H 0.0729 0.3672 0.0958
C22 C 0.0630(2) 0.1672(4) 0.02406(17)
H32 H 0.1241 0.1908 -0.0087
H33 H 0.0031 0.1961 -0.0091
H34 H 0.0609 0.0582 0.0361
C23 C -0.03695(18) 0.2386(4) 0.15888(16)
H35 H -0.0539 0.1293 0.1615
H36 H -0.0271 0.2744 0.2182
C24 C -0.12838(18) 0.3251(4) 0.11933(18)
H37 H -0.1220 0.4345 0.1326
H38 H -0.1268 0.3136 0.0565
C25 C -0.23155(19) 0.2662(4) 0.15342(16)
H39 H -0.2267 0.2551 0.2168
C26 C -0.31804(18) 0.3778(4) 0.13249(15)
C27 C -0.3604(2) 0.3845(4) 0.04901(16)
H40 H -0.3384 0.3160 0.0062
C28 C -0.4350(2) 0.4931(5) 0.03024(18)
H41 H -0.4627 0.4974 -0.0257
C29 C -0.4694(2) 0.5952(4) 0.0923(2)
H42 H -0.5195 0.6685 0.0787
C30 C -0.4283(2) 0.5875(4) 0.17542(18)
C31 C -0.35279(19) 0.4790(4) 0.19472(16)
H43 H -0.3253 0.4747 0.2507
C32 C -0.3240(3) 0.0302(5) 0.1576(3)
H44 H -0.3080 0.0205 0.2185
H45 H -0.3275 -0.0709 0.1317
H46 H -0.3894 0.0812 0.1509
O11 O 0.75851(18) 0.4084(3) 0.4234(2)
H47 H 0.8196 0.4219 0.4117
C33 C 0.7366(3) 0.2501(5) 0.4226(2)
H48 H 0.7317 0.2128 0.4814
H49 H 0.7907 0.1958 0.3928
H50 H 0.6722 0.2327 0.3930
O12 O 0.97302(15) 0.4480(3) 0.42282(14)
H51 H 0.995(3) 0.538(3) 0.426(2)
H52 H 1.017(3) 0.389(3) 0.402(2)
loop_
_geom_bond_atom_site_label_1
_geom_bond_atom_site_label_2
_geom_bond_site_symmetry_1
_geom_bond_site_symmetry_2
O1 C1 1_555 1_555
O2 C1 1_555 1_555
O3 C4 1_555 1_555
O4 C3 1_555 1_555
O5 H1 1_555 1_555
O6 C14 1_555 1_555
O7 H2 1_555 1_555
O8 C6 1_555 1_555
O9 C25 1_555 1_555
O10 H3 1_555 1_555
C1 C2 1_555 1_555
C2 H4 1_555 1_555
H5 C2 1_555 1_555
C3 C2 1_555 1_555
H6 C3 1_555 1_555
C4 O4 1_555 1_555
C5 C4 1_555 1_555
H7 C5 1_555 1_555
C6 C5 1_555 1_555
C7 C6 1_555 1_555
H8 C7 1_555 1_555
H9 C7 1_555 1_555
C8 O2 1_555 1_555
H10 C8 1_555 1_555
C9 C8 1_555 1_555
H11 C9 1_555 1_555
C10 O8 1_555 1_555
H12 C10 1_555 1_555
C11 C6 1_555 1_555
C12 C11 1_555 1_555
H13 C12 1_555 1_555
H14 C12 1_555 1_555
C13 O7 1_555 1_555
C14 C5 1_555 1_555
C15 C13 1_555 1_555
H15 C15 1_555 1_555
H16 C15 1_555 1_555
H17 C15 1_555 1_555
C16 C11 1_555 1_555
H18 C16 1_555 1_555
H19 C16 1_555 1_555
H20 C16 1_555 1_555
C17 C11 1_555 1_555
H21 C17 1_555 1_555
H22 C17 1_555 1_555
H23 C17 1_555 1_555
C18 C9 1_555 1_555
H24 C18 1_555 1_555
H25 C18 1_555 1_555
H26 C18 1_555 1_555
C19 O5 1_555 1_555
H27 C19 1_555 1_555
C20 C19 1_555 1_555
H28 C20 1_555 1_555
H29 C20 1_555 1_555
H30 C20 1_555 1_555
C21 C10 1_555 1_555
H31 C21 1_555 1_555
C22 C21 1_555 1_555
H32 C22 1_555 1_555
H33 C22 1_555 1_555
H34 C22 1_555 1_555
C23 C21 1_555 1_555
H35 C23 1_555 1_555
H36 C23 1_555 1_555
C24 C23 1_555 1_555
H37 C24 1_555 1_555
H38 C24 1_555 1_555
C25 C24 1_555 1_555
H39 C25 1_555 1_555
C26 C25 1_555 1_555
C27 C26 1_555 1_555
H40 C27 1_555 1_555
C28 C27 1_555 1_555
H41 C28 1_555 1_555
C29 C28 1_555 1_555
H42 C29 1_555 1_555
C30 O10 1_555 1_555
C31 C26 1_555 1_555
H43 C31 1_555 1_555
C32 O9 1_555 1_555
H44 C32 1_555 1_555
H45 C32 1_555 1_555
H46 C32 1_555 1_555
O11 H47 1_555 1_555
C33 O11 1_555 1_555
H48 C33 1_555 1_555
H49 C33 1_555 1_555
H50 C33 1_555 1_555
O12 H51 1_555 1_555
H52 O12 1_555 1_555
C3 C19 1_555 1_555
C7 C8 1_555 1_555
C9 C10 1_555 1_555
C12 C13 1_555 1_555
C13 C14 1_555 1_555
C29 C30 1_555 1_555
C30 C31 1_555 1_555

#END
