
#######################################################################
#
#                 Cambridge Crystallographic Data Centre
#                                CCDC 
#
#######################################################################
#
# If this CIF has been generated from an entry in the Cambridge 
# Structural Database, then it will include bibliographic, chemical, 
# crystal, experimental, refinement or atomic coordinate data resulting 
# from the CCDC's data processing and validation procedures.
#
#######################################################################

data_QEVGED
_chemical_formula_moiety         'C20 H16 O6'
_chemical_name_systematic        
2,5-bis(Methoxycarbonyl)-3,6-diphenyl-1,4-dioxine
_symmetry_cell_setting           monoclinic
_symmetry_space_group_name_H-M   'P 21/n'
_symmetry_Int_Tables_number      14
_space_group_name_Hall           '-P 2yn'
loop_
_symmetry_equiv_pos_site_id
_symmetry_equiv_pos_as_xyz
1 x,y,z
2 1/2-x,1/2+y,1/2-z
3 -x,-y,-z
4 1/2+x,1/2-y,1/2+z
_cell_length_a                   11.808(8)
_cell_length_b                   5.4988(3)
_cell_length_c                   13.794(6)
_cell_angle_alpha                90
_cell_angle_beta                 110.22(4)
_cell_angle_gamma                90
_cell_volume                     840.446
_exptl_crystal_colour            colorless
_exptl_crystal_description       needle
_chemical_melting_point          '211-212 deg.C'
_cell_formula_units_Z            2
_exptl_crystal_recrystallization_method propan-2-ol
loop_
_atom_site_label
_atom_site_type_symbol
_atom_site_fract_x
_atom_site_fract_y
_atom_site_fract_z
C1 C 0.5758(2) 0.1862(4) 1.0058(1)
O1 O 0.5458(1) 0.1303(3) 1.0926(1)
O2 O 0.7056(2) 0.4561(4) 0.9609(1)
O3 O 0.6925(1) 0.4774(3) 1.1178(1)
C2 C 0.5306(2) 0.0632(4) 0.9167(1)
C3 C 0.6652(2) 0.3854(4) 1.0232(2)
C4 C 0.7786(2) 0.6748(5) 1.1422(2)
C5 C 0.5520(2) 0.1052(4) 0.8187(1)
C6 C 0.5016(2) 0.3073(5) 0.7574(2)
C7 C 0.5167(2) 0.3331(5) 0.6630(2)
C8 C 0.5798(2) 0.1636(5) 0.6288(2)
C9 C 0.6315(2) -0.0329(5) 0.6899(2)
C10 C 0.6159(2) -0.0639(5) 0.7841(2)
H1 H 0.462(2) 0.432(5) 0.782(2)
H2 H 0.492(3) 0.477(6) 0.621(3)
H3 H 0.594(2) 0.178(5) 0.563(2)
H4 H 0.676(2) -0.143(4) 0.665(2)
H5 H 0.638(2) -0.209(6) 0.834(2)
H6 H 0.809(3) 0.705(6) 1.210(2)
H7 H 0.856(3) 0.618(7) 1.135(3)
H8 H 0.701(4) 0.831(9) 1.101(4)
C2B C 0.4694(2) -0.0632(4) 1.0833(1)
C1B C 0.4242(2) -0.1862(4) 0.9942(1)
O1B O 0.4542(1) -0.1303(3) 0.9074(1)
C3B C 0.3348(2) -0.3854(4) 0.9768(2)
O2B O 0.2944(2) -0.4561(4) 1.0391(1)
O3B O 0.3075(1) -0.4774(3) 0.8822(1)
C4B C 0.2214(2) -0.6748(5) 0.8578(2)
H6B H 0.191(3) -0.705(6) 0.790(2)
H7B H 0.144(3) -0.618(7) 0.865(3)
H8B H 0.299(4) -0.831(9) 0.899(4)
C5B C 0.4480(2) -0.1052(4) 1.1813(1)
C6B C 0.4984(2) -0.3073(5) 1.2426(2)
C7B C 0.4833(2) -0.3331(5) 1.3370(2)
C8B C 0.4202(2) -0.1636(5) 1.3712(2)
C9B C 0.3685(2) 0.0329(5) 1.3101(2)
C10B C 0.3841(2) 0.0639(5) 1.2159(2)
H5B H 0.362(2) 0.209(6) 1.166(2)
H4B H 0.324(2) 0.143(4) 1.335(2)
H3B H 0.406(2) -0.178(5) 1.437(2)
H2B H 0.508(3) -0.477(6) 1.379(3)
H1B H 0.538(2) -0.432(5) 1.218(2)
loop_
_geom_bond_atom_site_label_1
_geom_bond_atom_site_label_2
_geom_bond_site_symmetry_1
_geom_bond_site_symmetry_2
C1 O1 1_555 1_555
O1 C2B 1_555 1_555
O2 C3 1_555 1_555
O3 C3 1_555 1_555
C2 C1 1_555 1_555
C3 C1 1_555 1_555
C4 O3 1_555 1_555
C5 C2 1_555 1_555
C6 C5 1_555 1_555
C7 C6 1_555 1_555
C8 C7 1_555 1_555
C9 C8 1_555 1_555
C10 C5 1_555 1_555
H1 C6 1_555 1_555
H2 C7 1_555 1_555
H3 C8 1_555 1_555
H4 C9 1_555 1_555
H5 C10 1_555 1_555
H6 C4 1_555 1_555
H7 C4 1_555 1_555
H8 C4 1_555 1_555
C2B C1B 1_555 1_555
C1B O1B 1_555 1_555
O1B C2 1_555 1_555
C3B C1B 1_555 1_555
O2B C3B 1_555 1_555
O3B C3B 1_555 1_555
C4B O3B 1_555 1_555
H6B C4B 1_555 1_555
H7B C4B 1_555 1_555
H8B C4B 1_555 1_555
C5B C2B 1_555 1_555
C6B C5B 1_555 1_555
C7B C6B 1_555 1_555
C8B C7B 1_555 1_555
C9B C8B 1_555 1_555
C10B C5B 1_555 1_555
H5B C10B 1_555 1_555
H4B C9B 1_555 1_555
H3B C8B 1_555 1_555
H2B C7B 1_555 1_555
H1B C6B 1_555 1_555
C9 C10 1_555 1_555
C9B C10B 1_555 1_555

#END
