
#######################################################################
#
#                 Cambridge Crystallographic Data Centre
#                                CCDC 
#
#######################################################################
#
# If this CIF has been generated from an entry in the Cambridge 
# Structural Database, then it will include bibliographic, chemical, 
# crystal, experimental, refinement or atomic coordinate data resulting 
# from the CCDC's data processing and validation procedures.
#
#######################################################################

data_QEVGIH
_chemical_formula_moiety         'C20 H16 O6'
_chemical_name_systematic        
2,6-bis(Methoxycarbonyl)-3,5-diphenyl-1,4-dioxine
_symmetry_cell_setting           monoclinic
_symmetry_space_group_name_H-M   'P 21/c'
_symmetry_Int_Tables_number      14
_space_group_name_Hall           '-P 2ybc'
loop_
_symmetry_equiv_pos_site_id
_symmetry_equiv_pos_as_xyz
1 x,y,z
2 -x,1/2+y,1/2-z
3 -x,-y,-z
4 x,1/2-y,1/2+z
_cell_length_a                   11.264(2)
_cell_length_b                   10.533(6)
_cell_length_c                   14.610(6)
_cell_angle_alpha                90
_cell_angle_beta                 93.71(3)
_cell_angle_gamma                90
_cell_volume                     1729.75
_exptl_crystal_colour            yellow
_exptl_crystal_description       prism
_chemical_melting_point          '145-147 deg.C'
_cell_formula_units_Z            4
_exptl_crystal_recrystallization_method propan-2-ol
loop_
_atom_site_label
_atom_site_type_symbol
_atom_site_fract_x
_atom_site_fract_y
_atom_site_fract_z
O1 O 0.85233(9) -0.1084(1) 0.54307(8)
O2 O 0.7272(1) 0.0217(1) 0.41068(7)
O3 O 0.9912(1) 0.0058(1) 0.6717(1)
O4 O 0.9354(1) 0.1978(1) 0.62373(8)
O5 O 0.5971(1) -0.3046(1) 0.5514(1)
O6 O 0.7809(1) -0.3123(1) 0.61834(9)
C1 C 0.8599(1) 0.0237(1) 0.5412(1)
C2 C 0.8009(1) 0.0881(1) 0.4743(1)
C3 C 0.6804(1) -0.0915(1) 0.4421(1)
C4 C 0.7402(1) -0.1531(1) 0.5104(1)
C5 C 0.9354(1) 0.0728(1) 0.6196(1)
C6 C 1.0098(2) 0.2553(2) 0.6955(1)
C7 C 0.7983(1) 0.2255(1) 0.45610(9)
C8 C 0.6925(1) 0.2920(2) 0.4608(1)
C9 C 0.6891(2) 0.4205(2) 0.4435(1)
C10 C 0.7907(2) 0.4839(2) 0.4210(1)
C11 C 0.8957(2) 0.4176(2) 0.4149(1)
C12 C 0.9004(1) 0.2890(2) 0.4319(1)
C13 C 0.5679(1) -0.1235(1) 0.3903(1)
C14 C 0.4841(2) -0.0289(2) 0.3711(1)
C15 C 0.3802(2) -0.0558(2) 0.3192(1)
C16 C 0.3592(2) -0.1762(2) 0.2853(1)
C17 C 0.4423(2) -0.2701(2) 0.3026(1)
C18 C 0.5466(2) -0.2449(2) 0.3547(1)
C19 C 0.6969(1) -0.2633(1) 0.5613(1)
C20 C 0.7456(2) -0.4222(2) 0.6701(1)
H1 H 0.622(1) 0.247(2) 0.474(1)
H2 H 0.616(2) 0.465(2) 0.448(1)
H3 H 0.786(2) 0.575(2) 0.405(1)
H4 H 0.960(2) 0.464(2) 0.399(2)
H5 H 0.977(2) 0.243(2) 0.428(1)
H6 H 0.500(2) 0.058(2) 0.393(1)
H7 H 0.321(2) 0.018(2) 0.309(1)
H8 H 0.290(2) -0.196(2) 0.241(2)
H9 H 0.428(2) -0.354(2) 0.280(1)
H10 H 0.606(2) -0.311(2) 0.375(1)
H11 H 1.009(2) 0.214(3) 0.754(2)
H12 H 0.981(2) 0.344(2) 0.694(2)
H13 H 1.091(3) 0.274(4) 0.677(3)
H14 H 0.721(2) -0.486(2) 0.628(2)
H15 H 0.817(2) -0.439(2) 0.716(2)
H16 H 0.679(3) -0.381(3) 0.698(2)
loop_
_geom_bond_atom_site_label_1
_geom_bond_atom_site_label_2
_geom_bond_site_symmetry_1
_geom_bond_site_symmetry_2
O1 C1 1_555 1_555
O2 C2 1_555 1_555
O3 C5 1_555 1_555
O4 C5 1_555 1_555
O5 C19 1_555 1_555
O6 C19 1_555 1_555
C1 C2 1_555 1_555
C2 C7 1_555 1_555
C3 O2 1_555 1_555
C4 O1 1_555 1_555
C5 C1 1_555 1_555
C6 O4 1_555 1_555
C7 C8 1_555 1_555
C8 C9 1_555 1_555
C9 C10 1_555 1_555
C10 C11 1_555 1_555
C11 C12 1_555 1_555
C12 C7 1_555 1_555
C13 C3 1_555 1_555
C14 C13 1_555 1_555
C15 C14 1_555 1_555
C16 C15 1_555 1_555
C17 C16 1_555 1_555
C18 C13 1_555 1_555
C19 C4 1_555 1_555
C20 O6 1_555 1_555
H1 C8 1_555 1_555
H2 C9 1_555 1_555
H3 C10 1_555 1_555
H4 C11 1_555 1_555
H5 C12 1_555 1_555
H6 C14 1_555 1_555
H7 C15 1_555 1_555
H8 C16 1_555 1_555
H9 C17 1_555 1_555
H10 C18 1_555 1_555
H11 C6 1_555 1_555
H12 C6 1_555 1_555
H13 C6 1_555 1_555
H14 C20 1_555 1_555
H15 C20 1_555 1_555
H16 C20 1_555 1_555
C3 C4 1_555 1_555
C17 C18 1_555 1_555

#END
