
#######################################################################
#
#                 Cambridge Crystallographic Data Centre
#                                CCDC 
#
#######################################################################
#
# If this CIF has been generated from an entry in the Cambridge 
# Structural Database, then it will include bibliographic, chemical, 
# crystal, experimental, refinement or atomic coordinate data resulting 
# from the CCDC's data processing and validation procedures.
#
#######################################################################

data_QEVMAI
_chemical_name_common            
(E)-2-(4-cyanobenzylidene)-2,3-dihydro-1H-tetral-1-one
_chemical_formula_moiety         'C18 H13 N1 O1'
_chemical_name_systematic        
(E)-4-((1-oxo-3,4-dihydronaphthalen-2(1H)-ylidene)methyl)benzonitrile
_symmetry_cell_setting           triclinic
_symmetry_space_group_name_H-M   'P -1'
_symmetry_Int_Tables_number      2
_space_group_name_Hall           '-P 1'
loop_
_symmetry_equiv_pos_site_id
_symmetry_equiv_pos_as_xyz
1 x,y,z
2 -x,-y,-z
_cell_length_a                   7.8934(3)
_cell_length_b                   9.6246(4)
_cell_length_c                   10.2611(3)
_cell_angle_alpha                86.556(3)
_cell_angle_beta                 69.913(3)
_cell_angle_gamma                66.240(4)
_cell_volume                     667.286
_exptl_crystal_colour            colorless
_exptl_crystal_description       block
_cell_formula_units_Z            2
loop_
_atom_site_label
_atom_site_type_symbol
_atom_site_fract_x
_atom_site_fract_y
_atom_site_fract_z
O1 O 0.22202(11) 0.05359(8) 0.43373(7)
N1 N 1.40209(16) 0.18917(14) -0.08434(11)
C1 C 0.23355(14) 0.16056(11) 0.48326(10)
C2 C 0.41740(14) 0.18797(10) 0.43100(10)
C3 C 0.44387(14) 0.27876(11) 0.53077(10)
H1 H 0.5578 0.3048 0.4817
H2 H 0.4720 0.2168 0.6074
C4 C 0.25758(15) 0.42516(11) 0.59104(11)
H3 H 0.2700 0.4746 0.6671
H4 H 0.2468 0.4962 0.5175
C5 C -0.09660(16) 0.50108(11) 0.74806(11)
H5 H -0.0920 0.5874 0.7846
C6 C 0.07219(15) 0.39741(11) 0.64670(10)
C7 C -0.27025(16) 0.47977(12) 0.79598(12)
H6 H -0.3835 0.5515 0.8648
C8 C -0.28039(15) 0.35407(12) 0.74418(11)
H7 H -0.4001 0.3401 0.7770
C9 C -0.11466(15) 0.24956(11) 0.64448(10)
H8 H -0.1203 0.1631 0.6091
C10 C 0.06157(14) 0.27082(11) 0.59544(10)
C11 C 0.71955(14) 0.15090(10) 0.21921(10)
C12 C 0.75568(14) 0.18313(11) 0.07940(10)
H9 H 0.6596 0.1961 0.0385
C13 C 0.92881(15) 0.19621(11) 0.00064(10)
H10 H 0.9500 0.2216 -0.0929
C14 C 1.07208(15) 0.17185(11) 0.05957(10)
C15 C 1.04232(15) 0.13413(11) 0.19649(10)
H11 H 1.1425 0.1144 0.2350
C16 C 0.86603(14) 0.12568(11) 0.27586(10)
H12 H 0.8442 0.1025 0.3699
C17 C 0.53413(14) 0.13662(11) 0.29807(10)
H13 H 0.4912 0.0846 0.2490
C18 C 1.25528(16) 0.18156(12) -0.02163(11)
loop_
_geom_bond_atom_site_label_1
_geom_bond_atom_site_label_2
_geom_bond_site_symmetry_1
_geom_bond_site_symmetry_2
O1 C1 1_555 1_555
N1 C18 1_555 1_555
C1 C2 1_555 1_555
C2 C3 1_555 1_555
C3 H1 1_555 1_555
H2 C3 1_555 1_555
C4 C3 1_555 1_555
H3 C4 1_555 1_555
H4 C4 1_555 1_555
C5 H5 1_555 1_555
C6 C4 1_555 1_555
C7 C5 1_555 1_555
H6 C7 1_555 1_555
C8 C7 1_555 1_555
H7 C8 1_555 1_555
C9 C8 1_555 1_555
H8 C9 1_555 1_555
C10 C1 1_555 1_555
C11 C12 1_555 1_555
C12 H9 1_555 1_555
C13 C12 1_555 1_555
H10 C13 1_555 1_555
C14 C13 1_555 1_555
C15 C14 1_555 1_555
H11 C15 1_555 1_555
C16 C11 1_555 1_555
H12 C16 1_555 1_555
C17 C2 1_555 1_555
H13 C17 1_555 1_555
C18 C14 1_555 1_555
C5 C6 1_555 1_555
C6 C10 1_555 1_555
C9 C10 1_555 1_555
C11 C17 1_555 1_555
C15 C16 1_555 1_555

#END
