
#######################################################################
#
#                 Cambridge Crystallographic Data Centre
#                                CCDC 
#
#######################################################################
#
# If this CIF has been generated from an entry in the Cambridge 
# Structural Database, then it will include bibliographic, chemical, 
# crystal, experimental, refinement or atomic coordinate data resulting 
# from the CCDC's data processing and validation procedures.
#
#######################################################################

data_QEVQUG
_chemical_formula_moiety         'C14 H8 O6,C2 H6 O1 S1,H2 O1'
_chemical_name_systematic        
'3,7-dihydroxy-6-oxo-6H-benzo[c]chromene-8-carboxylic acid dimethyl sulfoxide solvate monohydrate'
_symmetry_cell_setting           triclinic
_symmetry_space_group_name_H-M   'P -1'
_symmetry_Int_Tables_number      2
_space_group_name_Hall           '-P 1'
loop_
_symmetry_equiv_pos_site_id
_symmetry_equiv_pos_as_xyz
1 x,y,z
2 -x,-y,-z
_cell_length_a                   5.0724(17)
_cell_length_b                   13.063(4)
_cell_length_c                   13.926(5)
_cell_angle_alpha                117.623(5)
_cell_angle_beta                 91.921(6)
_cell_angle_gamma                97.657(6)
_cell_volume                     805.495
_exptl_crystal_colour            white
_exptl_crystal_description       needle
_cell_formula_units_Z            2
loop_
_atom_site_label
_atom_site_type_symbol
_atom_site_fract_x
_atom_site_fract_y
_atom_site_fract_z
O1 O 1.6340(5) 0.68073(19) 0.53678(19)
H1 H 1.7431 0.7357 0.5823
O2 O 1.5790(5) 0.80965(19) 0.47967(19)
O3 O 1.1830(5) 0.76271(18) 0.3400(2)
H2 H 1.3054 0.8039 0.3881
O4 O 0.7633(5) 0.6959(2) 0.1936(2)
O5 O 0.5105(5) 0.52809(19) 0.14113(18)
O6 O -0.0786(5) 0.1661(2) -0.0023(2)
H3 H -0.1416 0.1932 -0.0388
C1 C 1.5077(7) 0.7153(3) 0.4777(2)
C2 C 1.2711(6) 0.6328(3) 0.4083(2)
C3 C 1.1149(6) 0.6604(3) 0.3414(3)
C4 C 0.8893(6) 0.5809(3) 0.2742(2)
C5 C 0.8207(6) 0.4716(3) 0.2740(2)
C6 C 0.9777(6) 0.4469(3) 0.3418(2)
H4 H 0.9330 0.3764 0.3435
C7 C 1.1967(7) 0.5251(3) 0.4059(3)
H5 H 1.3000 0.5058 0.4496
C8 C 0.4421(6) 0.4210(3) 0.1390(3)
C9 C 0.2169(7) 0.3502(3) 0.0698(3)
H6 H 0.1213 0.3747 0.0284
C10 C 0.1374(7) 0.2418(3) 0.0640(3)
C11 C 0.2833(7) 0.2071(3) 0.1262(3)
H7 H 0.2320 0.1335 0.1210
C12 C 0.5024(7) 0.2805(3) 0.1953(3)
H8 H 0.5955 0.2564 0.2377
C13 C 0.5905(6) 0.3909(3) 0.2038(2)
C14 C 0.7265(7) 0.6075(3) 0.2036(3)
S1 S 2.0506(2) 0.94261(8) 0.71299(8)
O7 O 2.0659(5) 0.81482(19) 0.6474(2)
C15 C 2.3102(9) 0.9976(4) 0.8212(3)
H9 H 2.4774 0.9812 0.7919
H10 H 2.2740 0.9605 0.8660
H11 H 2.3200 1.0807 0.8643
C16 C 2.1858(13) 1.0089(3) 0.6380(4)
H12 H 2.0831 0.9749 0.5680
H13 H 2.3677 0.9968 0.6283
H14 H 2.1811 1.0914 0.6763
O8 O -0.2837(7) 0.2510(3) -0.1226(3)
H15 H -0.190(13) 0.235(6) -0.172(4)
H16 H -0.421(11) 0.272(4) -0.136(4)
loop_
_geom_bond_atom_site_label_1
_geom_bond_atom_site_label_2
_geom_bond_site_symmetry_1
_geom_bond_site_symmetry_2
O1 H1 1_555 1_555
O2 C1 1_555 1_555
O3 H2 1_555 1_555
O4 C14 1_555 1_555
O5 C8 1_555 1_555
O6 H3 1_555 1_555
C1 O1 1_555 1_555
C2 C1 1_555 1_555
C3 O3 1_555 1_555
C4 C3 1_555 1_555
C5 C4 1_555 1_555
C6 C5 1_555 1_555
H4 C6 1_555 1_555
C7 C2 1_555 1_555
H5 C7 1_555 1_555
C8 C9 1_555 1_555
C9 H6 1_555 1_555
C10 O6 1_555 1_555
C11 C10 1_555 1_555
H7 C11 1_555 1_555
C12 C11 1_555 1_555
H8 C12 1_555 1_555
C13 C5 1_555 1_555
C14 O5 1_555 1_555
S1 O7 1_555 1_555
C15 S1 1_555 1_555
H9 C15 1_555 1_555
H10 C15 1_555 1_555
H11 C15 1_555 1_555
C16 S1 1_555 1_555
H12 C16 1_555 1_555
H13 C16 1_555 1_555
H14 C16 1_555 1_555
O8 H15 1_555 1_555
H16 O8 1_555 1_555
C2 C3 1_555 1_555
C4 C14 1_555 1_555
C6 C7 1_555 1_555
C8 C13 1_555 1_555
C9 C10 1_555 1_555
C12 C13 1_555 1_555

#END
