
#######################################################################
#
#                 Cambridge Crystallographic Data Centre
#                                CCDC 
#
#######################################################################
#
# If this CIF has been generated from an entry in the Cambridge 
# Structural Database, then it will include bibliographic, chemical, 
# crystal, experimental, refinement or atomic coordinate data resulting 
# from the CCDC's data processing and validation procedures.
#
#######################################################################

data_QEVRAK
_chemical_formula_moiety         'C20 H19 Cl2 N1 O2'
_chemical_name_systematic        
N-Formyl-2,6-bis(2-chlorophenyl)-3,5-dimethylpiperidin-4-one
_chemical_properties_biological  'potential biological activity'
_symmetry_cell_setting           monoclinic
_symmetry_space_group_name_H-M   'P 21/n'
_symmetry_Int_Tables_number      14
_space_group_name_Hall           '-P 2yn'
loop_
_symmetry_equiv_pos_site_id
_symmetry_equiv_pos_as_xyz
1 x,y,z
2 1/2-x,1/2+y,1/2-z
3 -x,-y,-z
4 1/2+x,1/2-y,1/2+z
_cell_length_a                   9.147(2)
_cell_length_b                   14.586(3)
_cell_length_c                   13.665(5)
_cell_angle_alpha                90
_cell_angle_beta                 101.68(2)
_cell_angle_gamma                90
_cell_volume                     1785.41
_cell_formula_units_Z            4
_exptl_crystal_recrystallization_method alcohol
loop_
_atom_site_label
_atom_site_type_symbol
_atom_site_fract_x
_atom_site_fract_y
_atom_site_fract_z
Cl1 Cl 0.0248(1) 0.0900(1) 0.0906(1)
Cl2 Cl -0.5048(1) 0.3925(1) 0.1364(1)
N1 N -0.2561(1) 0.3198(1) 0.0246(1)
C1 C -0.2162(2) 0.2281(1) -0.0091(1)
C2 C -0.2806(2) 0.2143(1) -0.1215(1)
C3 C -0.2518(2) 0.2991(1) -0.1790(1)
C4 C -0.2894(2) 0.3918(1) -0.1391(1)
C5 C -0.3553(2) 0.3814(1) -0.0446(1)
C6 C -0.5190(2) 0.3527(1) -0.0601(1)
C7 C -0.5929(2) 0.3514(1) 0.0201(1)
C8 C -0.7367(2) 0.3180(1) 0.0109(2)
C9 C -0.8121(2) 0.2881(2) -0.0808(2)
C10 C -0.7465(2) 0.2932(1) -0.1631(2)
C11 C -0.6012(2) 0.3248(1) -0.1523(1)
C12 C -0.2637(2) 0.1507(1) 0.0517(1)
C13 C -0.1634(2) 0.0829(1) 0.0950(1)
C14 C -0.2111(4) 0.0081(2) 0.1433(2)
C15 C -0.3570(4) 0.0014(2) 0.1516(2)
C16 C -0.4585(3) 0.0681(2) 0.1120(2)
C17 C -0.4106(2) 0.1415(1) 0.0617(2)
C18 C -0.1669(2) 0.3550(1) 0.1072(1)
O1 O -0.0662(2) 0.3134(1) 0.1611(1)
C19 C -0.2214(2) 0.1275(1) -0.1611(1)
C20 C -0.1493(2) 0.4515(1) -0.1197(2)
O2 O -0.1975(2) 0.2948(1) -0.2524(1)
loop_
_geom_bond_atom_site_label_1
_geom_bond_atom_site_label_2
_geom_bond_site_symmetry_1
_geom_bond_site_symmetry_2
Cl1 C13 1_555 1_555
Cl2 C7 1_555 1_555
N1 C1 1_555 1_555
C1 C2 1_555 1_555
C2 C3 1_555 1_555
C3 C4 1_555 1_555
C4 C5 1_555 1_555
C5 N1 1_555 1_555
C6 C5 1_555 1_555
C7 C6 1_555 1_555
C8 C7 1_555 1_555
C9 C8 1_555 1_555
C10 C9 1_555 1_555
C11 C6 1_555 1_555
C12 C1 1_555 1_555
C13 C12 1_555 1_555
C14 C13 1_555 1_555
C15 C14 1_555 1_555
C16 C15 1_555 1_555
C17 C12 1_555 1_555
C18 N1 1_555 1_555
O1 C18 1_555 1_555
C19 C2 1_555 1_555
C20 C4 1_555 1_555
O2 C3 1_555 1_555
C10 C11 1_555 1_555
C16 C17 1_555 1_555

#END
