
#######################################################################
#
#                 Cambridge Crystallographic Data Centre
#                                CCDC 
#
#######################################################################
#
# If this CIF has been generated from an entry in the Cambridge 
# Structural Database, then it will include bibliographic, chemical, 
# crystal, experimental, refinement or atomic coordinate data resulting 
# from the CCDC's data processing and validation procedures.
#
#######################################################################

data_QEVREO
_chemical_formula_moiety         'C25 H32 N2 O8'
_chemical_name_systematic        
N-Nitroso-2,6-bis(3,4,5-trimethoxphenyl)-3,5-dimethylpiperidin-4-one
_chemical_properties_biological  'carcinogenic activity'
_symmetry_cell_setting           monoclinic
_symmetry_space_group_name_H-M   'C 2/c'
_symmetry_Int_Tables_number      15
_space_group_name_Hall           '-C 2yn'
loop_
_symmetry_equiv_pos_site_id
_symmetry_equiv_pos_as_xyz
1 x,y,z
2 -x,y,1/2-z
3 1/2+x,1/2+y,z
4 1/2-x,1/2+y,1/2-z
5 -x,-y,-z
6 x,-y,1/2+z
7 1/2-x,1/2-y,-z
8 1/2+x,1/2-y,1/2+z
_cell_length_a                   38.52(2)
_cell_length_b                   13.727(5)
_cell_length_c                   9.564(3)
_cell_angle_alpha                90
_cell_angle_beta                 98.60(1)
_cell_angle_gamma                90
_cell_volume                     5000.24
_cell_formula_units_Z            8
_exptl_crystal_recrystallization_method alcohol
loop_
_atom_site_label
_atom_site_type_symbol
_atom_site_fract_x
_atom_site_fract_y
_atom_site_fract_z
N1 N 0.3824(1) 0.9121(1) 0.0828(1)
C1 C 0.4157(1) 0.9014(1) 0.0258(2)
C2 C 0.4461(1) 0.9201(1) 0.1468(2)
C3 C 0.4426(1) 0.8580(1) 0.2749(2)
C4 C 0.4087(1) 0.8019(1) 0.2750(2)
C5 C 0.3761(1) 0.8626(1) 0.2146(2)
C6 C 0.3428(1) 0.8014(1) 0.1976(2)
C7 C 0.3398(1) 0.7148(1) 0.1204(2)
C8 C 0.3107(1) 0.6549(1) 0.1219(2)
C9 C 0.2845(1) 0.6813(1) 0.2015(2)
C10 C 0.2871(1) 0.7691(1) 0.2751(2)
C11 C 0.3163(1) 0.8286(1) 0.2737(2)
C12 C 0.4167(1) 0.8066(1) -0.0573(2)
C13 C 0.4464(1) 0.7481(1) -0.0444(2)
C14 C 0.4466(1) 0.6654(1) -0.1291(2)
C15 C 0.4172(1) 0.6410(1) -0.2259(2)
C16 C 0.3874(1) 0.7000(1) -0.2385(2)
C17 C 0.3872(1) 0.7829(1) -0.1548(2)
N2 N 0.3635(1) 0.9894(1) 0.0342(2)
O1 O 0.3388(1) 1.0085(1) 0.0987(2)
C18 C 0.4480(1) 1.0280(1) 0.1902(2)
O2 O 0.4664(1) 0.8542(1) 0.3741(2)
C19 C 0.4047(1) 0.7614(2) 0.4206(2)
O3 O 0.3051(1) 0.5680(1) 0.0516(2)
C20 C 0.3270(1) 0.5403(2) -0.0436(3)
O4 O 0.2565(1) 0.6196(1) 0.2096(1)
C21 C 0.2270(1) 0.6358(2) 0.1047(3)
O5 O 0.2600(1) 0.7894(1) 0.3482(2)
C22 C 0.2594(1) 0.8823(2) 0.4137(3)
O6 O 0.4744(1) 0.6033(1) -0.1248(2)
C23 C 0.5068(1) 0.6312(2) -0.0427(3)
O7 O 0.4180(1) 0.5630(1) -0.3157(2)
C24 C 0.4129(1) 0.4713(2) -0.2545(4)
O8 O 0.3600(1) 0.6700(1) -0.3357(1)
C25 C 0.3301(1) 0.7312(2) -0.3621(2)
loop_
_geom_bond_atom_site_label_1
_geom_bond_atom_site_label_2
_geom_bond_site_symmetry_1
_geom_bond_site_symmetry_2
N1 C1 1_555 1_555
C1 C2 1_555 1_555
C2 C3 1_555 1_555
C3 C4 1_555 1_555
C4 C5 1_555 1_555
C5 N1 1_555 1_555
C6 C5 1_555 1_555
C7 C6 1_555 1_555
C8 C7 1_555 1_555
C9 C8 1_555 1_555
C10 C9 1_555 1_555
C11 C6 1_555 1_555
C12 C1 1_555 1_555
C13 C12 1_555 1_555
C14 C13 1_555 1_555
C15 C14 1_555 1_555
C16 C15 1_555 1_555
C17 C12 1_555 1_555
N2 N1 1_555 1_555
O1 N2 1_555 1_555
C18 C2 1_555 1_555
O2 C3 1_555 1_555
C19 C4 1_555 1_555
O3 C8 1_555 1_555
C20 O3 1_555 1_555
O4 C9 1_555 1_555
C21 O4 1_555 1_555
O5 C10 1_555 1_555
C22 O5 1_555 1_555
O6 C14 1_555 1_555
C23 O6 1_555 1_555
O7 C15 1_555 1_555
C24 O7 1_555 1_555
O8 C16 1_555 1_555
C25 O8 1_555 1_555
C10 C11 1_555 1_555
C16 C17 1_555 1_555

#END
