
#######################################################################
#
#                 Cambridge Crystallographic Data Centre
#                                CCDC 
#
#######################################################################
#
# If this CIF has been generated from an entry in the Cambridge 
# Structural Database, then it will include bibliographic, chemical, 
# crystal, experimental, refinement or atomic coordinate data resulting 
# from the CCDC's data processing and validation procedures.
#
#######################################################################

data_QEVTOA
_chemical_formula_moiety         'C25 H25 N3'
_chemical_name_systematic        
1,1-bis(4-Dimethylaminophenyl)-2-phenylacrylonitrile
_symmetry_cell_setting           monoclinic
_symmetry_space_group_name_H-M   'P 21/c'
_symmetry_Int_Tables_number      14
_space_group_name_Hall           '-P 2ybc'
loop_
_symmetry_equiv_pos_site_id
_symmetry_equiv_pos_as_xyz
1 x,y,z
2 -x,1/2+y,1/2-z
3 -x,-y,-z
4 x,1/2-y,1/2+z
_cell_length_a                   10.593(1)
_cell_length_b                   21.639(2)
_cell_length_c                   10.081(1)
_cell_angle_alpha                90
_cell_angle_beta                 114.60(2)
_cell_angle_gamma                90
_cell_volume                     2101.05
_cell_formula_units_Z            4
loop_
_atom_site_label
_atom_site_type_symbol
_atom_site_fract_x
_atom_site_fract_y
_atom_site_fract_z
C1 C 0.0500(5) 0.2592(3) 0.0534(5)
C2 C 0.1769(6) 0.2816(3) 0.0684(6)
C3 C 0.2070(6) 0.3467(3) 0.0869(6)
N1 N 0.2365(6) 0.3979(3) 0.1079(6)
C4 C -0.0663(6) 0.3019(3) 0.0194(5)
C5 C -0.0962(6) 0.3502(3) -0.0791(6)
C6 C -0.2053(6) 0.3900(3) -0.1132(6)
C7 C -0.2967(6) 0.3832(3) -0.0416(6)
C8 C -0.2673(6) 0.3355(3) 0.0571(6)
C9 C -0.1581(6) 0.2957(3) 0.0887(6)
C10 C 0.0262(5) 0.1940(3) 0.0750(5)
C11 C -0.0977(6) 0.1646(3) -0.0127(6)
C12 C -0.1253(6) 0.1048(3) 0.0102(6)
C13 C -0.0283(6) 0.0701(3) 0.1258(6)
C14 C 0.0952(6) 0.0999(3) 0.2127(6)
C15 C 0.1225(6) 0.1589(3) 0.1874(6)
C16 C 0.2951(6) 0.2435(3) 0.0724(6)
C17 C 0.4308(6) 0.2565(3) 0.1762(6)
C18 C 0.5405(6) 0.2215(3) 0.1755(7)
C19 C 0.5209(6) 0.1755(3) 0.0758(6)
C20 C 0.3882(6) 0.1620(3) -0.0256(6)
C21 C 0.2777(6) 0.1964(3) -0.0273(6)
N2 N -0.4071(5) 0.4223(3) -0.0733(6)
C22 C -0.4440(8) 0.4656(4) -0.1913(9)
C23 C -0.5165(7) 0.4046(4) -0.0301(8)
N3 N -0.0556(6) 0.0116(3) 0.1563(6)
C24 C -0.1843(8) -0.0185(4) 0.0677(8)
C25 C 0.0412(9) -0.0221(4) 0.2847(8)
loop_
_geom_bond_atom_site_label_1
_geom_bond_atom_site_label_2
_geom_bond_site_symmetry_1
_geom_bond_site_symmetry_2
C1 C2 1_555 1_555
C2 C3 1_555 1_555
C3 N1 1_555 1_555
C4 C1 1_555 1_555
C5 C4 1_555 1_555
C6 C5 1_555 1_555
C7 C6 1_555 1_555
C8 C7 1_555 1_555
C9 C4 1_555 1_555
C10 C1 1_555 1_555
C11 C10 1_555 1_555
C12 C11 1_555 1_555
C13 C12 1_555 1_555
C14 C13 1_555 1_555
C15 C10 1_555 1_555
C16 C2 1_555 1_555
C17 C16 1_555 1_555
C18 C17 1_555 1_555
C19 C18 1_555 1_555
C20 C19 1_555 1_555
C21 C16 1_555 1_555
N2 C7 1_555 1_555
C22 N2 1_555 1_555
C23 N2 1_555 1_555
N3 C13 1_555 1_555
C24 N3 1_555 1_555
C25 N3 1_555 1_555
C8 C9 1_555 1_555
C14 C15 1_555 1_555
C20 C21 1_555 1_555

#END
