
#######################################################################
#
#                 Cambridge Crystallographic Data Centre
#                                CCDC 
#
#######################################################################
#
# If this CIF has been generated from an entry in the Cambridge 
# Structural Database, then it will include bibliographic, chemical, 
# crystal, experimental, refinement or atomic coordinate data resulting 
# from the CCDC's data processing and validation procedures.
#
#######################################################################

data_QEVTUG
_chemical_formula_moiety         'C25 H24 Cl1 N3'
_chemical_name_systematic        
1,1-bis(4-Dimethylaminophenyl)-2-(4-chlorophenyl)acrylonitrile
_symmetry_cell_setting           monoclinic
_symmetry_space_group_name_H-M   'P 21/c'
_symmetry_Int_Tables_number      14
_space_group_name_Hall           '-P 2ybc'
loop_
_symmetry_equiv_pos_site_id
_symmetry_equiv_pos_as_xyz
1 x,y,z
2 -x,1/2+y,1/2-z
3 -x,-y,-z
4 x,1/2-y,1/2+z
_cell_length_a                   11.125(2)
_cell_length_b                   21.208(5)
_cell_length_c                   10.385(2)
_cell_angle_alpha                90
_cell_angle_beta                 117.04(3)
_cell_angle_gamma                90
_cell_volume                     2182.39
_cell_formula_units_Z            4
loop_
_atom_site_label
_atom_site_type_symbol
_atom_site_fract_x
_atom_site_fract_y
_atom_site_fract_z
C1 C 0.9627(3) 0.2672(2) 0.9489(3)
C2 C 0.8414(3) 0.2897(2) 0.9320(3)
C3 C 0.8121(3) 0.3564(2) 0.9124(3)
N1 N 0.7796(3) 0.4079(2) 0.8906(4)
C4 C 1.0801(3) 0.3086(2) 0.9816(3)
C5 C 1.1111(3) 0.3603(2) 1.0757(3)
C6 C 1.2217(4) 0.3979(2) 1.1073(4)
C7 C 1.3104(3) 0.3851(2) 1.0488(4)
C8 C 1.2797(3) 0.3335(2) 0.9546(4)
C9 C 1.1683(3) 0.2961(2) 0.9232(4)
C10 C 0.9810(3) 0.1991(2) 0.9286(3)
C11 C 1.0967(3) 0.1666(2) 1.0249(3)
C12 C 1.1168(3) 0.1039(2) 1.0013(4)
C13 C 1.0242(3) 0.0718(2) 0.8773(3)
C14 C 0.9092(3) 0.1050(2) 0.7833(3)
C15 C 0.8882(3) 0.1664(2) 0.8088(3)
C16 C 0.7297(3) 0.2508(2) 0.9311(3)
C17 C 0.5949(3) 0.2628(2) 0.8350(3)
C18 C 0.4908(3) 0.2291(2) 0.8417(4)
C19 C 0.5222(3) 0.1845(2) 0.9468(3)
C20 C 0.6545(3) 0.1700(2) 1.0433(3)
C21 C 0.7581(3) 0.2032(2) 1.0351(3)
N2 N 1.4229(3) 0.4223(2) 1.0812(4)
C22 C 1.4665(5) 0.4663(2) 1.1998(6)
C23 C 1.5240(5) 0.3983(3) 1.0405(8)
N3 N 1.0458(3) 0.0106(2) 0.8498(3)
C24 C 1.1704(5) -0.0210(2) 0.9423(5)
C25 C 0.9568(5) -0.0202(2) 0.7185(5)
Cl1 Cl 0.3933(1) 0.1461(1) 0.9677(1)
loop_
_geom_bond_atom_site_label_1
_geom_bond_atom_site_label_2
_geom_bond_site_symmetry_1
_geom_bond_site_symmetry_2
C1 C2 1_555 1_555
C2 C3 1_555 1_555
C3 N1 1_555 1_555
C4 C1 1_555 1_555
C5 C4 1_555 1_555
C6 C5 1_555 1_555
C7 C6 1_555 1_555
C8 C7 1_555 1_555
C9 C4 1_555 1_555
C10 C1 1_555 1_555
C11 C10 1_555 1_555
C12 C11 1_555 1_555
C13 C12 1_555 1_555
C14 C13 1_555 1_555
C15 C10 1_555 1_555
C16 C2 1_555 1_555
C17 C16 1_555 1_555
C18 C17 1_555 1_555
C19 C18 1_555 1_555
C20 C19 1_555 1_555
C21 C16 1_555 1_555
N2 C7 1_555 1_555
C22 N2 1_555 1_555
C23 N2 1_555 1_555
N3 C13 1_555 1_555
C24 N3 1_555 1_555
C25 N3 1_555 1_555
Cl1 C19 1_555 1_555
C8 C9 1_555 1_555
C14 C15 1_555 1_555
C20 C21 1_555 1_555

#END
