
#######################################################################
#
#                 Cambridge Crystallographic Data Centre
#                                CCDC 
#
#######################################################################
#
# If this CIF has been generated from an entry in the Cambridge 
# Structural Database, then it will include bibliographic, chemical, 
# crystal, experimental, refinement or atomic coordinate data resulting 
# from the CCDC's data processing and validation procedures.
#
#######################################################################

data_QEVXUL
_chemical_formula_moiety         'C26 H31 B9 O2 P2,0.25(C2 H6 O1)'
_chemical_name_systematic        
'9,10-\mH-7-(diphenylphosphoryl)-8-(diphenyl(oxonio)phosphoranyl)-7,8-dicarba-nido-undecaborate ethanol solvate'
_symmetry_cell_setting           triclinic
_symmetry_space_group_name_H-M   'P -1'
_symmetry_Int_Tables_number      2
_space_group_name_Hall           '-P 1'
loop_
_symmetry_equiv_pos_site_id
_symmetry_equiv_pos_as_xyz
1 x,y,z
2 -x,-y,-z
_cell_length_a                   11.424(3)
_cell_length_b                   11.714(3)
_cell_length_c                   13.559(4)
_cell_angle_alpha                95.401(5)
_cell_angle_beta                 108.386(4)
_cell_angle_gamma                108.274(5)
_cell_volume                     1597.06
_chemical_melting_point          '208-209 deg.C'
_cell_formula_units_Z            2
_exptl_crystal_recrystallization_method dichloromethane/n-hexane
loop_
_atom_site_label
_atom_site_type_symbol
_atom_site_fract_x
_atom_site_fract_y
_atom_site_fract_z
H1 H 0.708(8) 0.5322(15) 0.057(6)
O1 O 0.6631(3) 0.4220(3) 0.0215(2)
O2 O 0.7437(3) 0.6443(3) 0.0747(3)
P1 P 0.71537(11) 0.36582(11) 0.11475(9)
P2 P 0.83009(11) 0.68658(11) 0.19246(10)
B1 B 1.1401(5) 0.5427(5) 0.1996(4)
H3 H 1.2118 0.5497 0.1600
B2 B 0.9803(5) 0.5412(5) 0.1323(4)
H4 H 0.9437 0.5472 0.0483
B3 B 1.0978(5) 0.6701(5) 0.2339(4)
H5 H 1.1404 0.7598 0.2154
B4 B 1.1874(5) 0.6166(5) 0.3365(4)
H6 H 1.2907 0.6736 0.3857
B5 B 1.1289(5) 0.4516(5) 0.2974(4)
H7 H 1.1924 0.3976 0.3207
B6 B 1.0059(5) 0.4080(5) 0.1719(4)
H8 H 0.9889 0.3276 0.1129
B7 B 1.0572(5) 0.6558(5) 0.3496(4)
H9 H 1.0365 0.7128 0.4063
B8 B 1.0906(5) 0.5243(6) 0.3960(4)
H10 H 1.0951 0.5178 0.4775
B9 B 0.9635(5) 0.3945(5) 0.2879(4)
H11 H 0.8996 0.3026 0.2890
C1 C 0.7015(4) 0.2153(5) 0.0593(4)
C2 C 0.6834(5) 0.1200(5) 0.1122(5)
H12 H 0.6776 0.1336 0.1790
C3 C 0.6738(7) 0.0063(6) 0.0685(7)
H13 H 0.6642 -0.0566 0.1057
C4 C 0.6784(7) -0.0142(6) -0.0311(8)
H14 H 0.6687 -0.0925 -0.0622
C5 C 0.6967(7) 0.0772(7) -0.0851(6)
H15 H 0.7028 0.0619 -0.1515
C6 C 0.7069(5) 0.1970(5) -0.0409(5)
H16 H 0.7167 0.2599 -0.0780
C7 C 0.8855(4) 0.4562(4) 0.1974(3)
C8 C 0.9378(4) 0.6018(4) 0.2317(3)
C9 C 0.6123(4) 0.3501(4) 0.1932(3)
C10 C 0.4868(4) 0.3534(4) 0.1441(4)
H17 H 0.4613 0.3679 0.0756
C11 C 0.4009(5) 0.3350(5) 0.1979(5)
H18 H 0.3167 0.3366 0.1650
C12 C 0.4367(5) 0.3147(6) 0.2978(5)
H19 H 0.3774 0.3027 0.3331
C13 C 0.5608(6) 0.3118(7) 0.3475(5)
H20 H 0.5854 0.2973 0.4160
C14 C 0.6486(5) 0.3307(6) 0.2943(4)
H21 H 0.7330 0.3301 0.3278
C15 C 0.7282(4) 0.6707(4) 0.2703(4)
C16 C 0.6054(5) 0.6797(5) 0.2249(4)
H22 H 0.5770 0.6914 0.1557
C17 C 0.5252(5) 0.6707(6) 0.2852(6)
H23 H 0.4423 0.6759 0.2549
C18 C 0.5636(6) 0.6550(6) 0.3849(6)
H24 H 0.5084 0.6503 0.4234
C19 C 0.6836(6) 0.6458(6) 0.4299(5)
H25 H 0.7111 0.6354 0.4996
C20 C 0.7645(5) 0.6519(6) 0.3728(4)
H26 H 0.8455 0.6431 0.4038
C21 C 0.9235(5) 0.8461(5) 0.2162(5)
C22 C 0.9666(6) 0.8912(6) 0.1377(6)
H27 H 0.9494 0.8381 0.0751
C23 C 1.0367(8) 1.0182(8) 0.1541(9)
H28 H 1.0695 1.0484 0.1033
C24 C 1.0567(8) 1.0961(7) 0.2419(10)
H29 H 1.0991 1.1803 0.2504
C25 C 1.0153(8) 1.0517(7) 0.3171(8)
H30 H 1.0313 1.1056 0.3788
C26 C 0.9488(6) 0.9268(5) 0.3048(5)
H31 H 0.9213 0.8983 0.3585
H37 H 0.984(2) 0.501(4) 0.366(4)
O3 O 0.7268(18) 0.0248(13) 0.4032(12)
H2 H 0.8070 0.0417 0.4293
C27 C 0.674(2) 0.023(3) 0.487(2)
H32 H 0.7134 0.1025 0.5349
H33 H 0.6921 -0.0381 0.5271
C28 C 0.526(3) -0.011(2) 0.433(3)
H34 H 0.479(4) -0.096(5) 0.436(10)
H35 H 0.494(5) 0.042(8) 0.466(7)
H36 H 0.503(5) -0.009(11) 0.358(3)
loop_
_geom_bond_atom_site_label_1
_geom_bond_atom_site_label_2
_geom_bond_site_symmetry_1
_geom_bond_site_symmetry_2
H1 O1 1_555 1_555
O1 P1 1_555 1_555
O2 P2 1_555 1_555
O3 H2 1_555 1_555
P1 C1 1_555 1_555
P2 C8 1_555 1_555
B1 H3 1_555 1_555
B2 B1 1_555 1_555
H4 B2 1_555 1_555
B3 B1 1_555 1_555
H5 B3 1_555 1_555
B4 B1 1_555 1_555
H6 B4 1_555 1_555
B5 B1 1_555 1_555
H7 B5 1_555 1_555
B6 B1 1_555 1_555
H8 B6 1_555 1_555
B7 B3 1_555 1_555
H9 B7 1_555 1_555
B8 B4 1_555 1_555
H10 B8 1_555 1_555
B9 B5 1_555 1_555
H11 B9 1_555 1_555
C1 C2 1_555 1_555
C2 H12 1_555 1_555
C3 C2 1_555 1_555
H13 C3 1_555 1_555
C4 C3 1_555 1_555
H14 C4 1_555 1_555
C5 C4 1_555 1_555
H15 C5 1_555 1_555
C6 C1 1_555 1_555
H16 C6 1_555 1_555
C7 P1 1_555 1_555
C8 B2 1_555 1_555
C9 P1 1_555 1_555
C10 C9 1_555 1_555
H17 C10 1_555 1_555
C11 C10 1_555 1_555
H18 C11 1_555 1_555
C12 C11 1_555 1_555
H19 C12 1_555 1_555
C13 C12 1_555 1_555
H20 C13 1_555 1_555
C14 C9 1_555 1_555
H21 C14 1_555 1_555
C15 P2 1_555 1_555
C16 C15 1_555 1_555
H22 C16 1_555 1_555
C17 C16 1_555 1_555
H23 C17 1_555 1_555
C18 C17 1_555 1_555
H24 C18 1_555 1_555
C19 C18 1_555 1_555
H25 C19 1_555 1_555
C20 C15 1_555 1_555
H26 C20 1_555 1_555
C21 P2 1_555 1_555
C22 C21 1_555 1_555
H27 C22 1_555 1_555
C23 C22 1_555 1_555
H28 C23 1_555 1_555
C24 C23 1_555 1_555
H29 C24 1_555 1_555
C25 C24 1_555 1_555
H30 C25 1_555 1_555
C26 C21 1_555 1_555
H31 C26 1_555 1_555
C27 O3 1_555 1_555
H32 C27 1_555 1_555
H33 C27 1_555 1_555
C28 C27 1_555 1_555
H34 C28 1_555 1_555
H35 C28 1_555 1_555
H36 C28 1_555 1_555
H37 B8 1_555 1_555
B2 B3 1_555 1_555
B2 B6 1_555 1_555
B2 C7 1_555 1_555
B3 B4 1_555 1_555
B3 C8 1_555 1_555
B4 B5 1_555 1_555
B4 B7 1_555 1_555
B5 B6 1_555 1_555
B5 B8 1_555 1_555
B6 B9 1_555 1_555
B6 C7 1_555 1_555
B7 B8 1_555 1_555
B7 C8 1_555 1_555
B8 B9 1_555 1_555
B9 C7 1_555 1_555
B9 H37 1_555 1_555
C5 C6 1_555 1_555
C7 C8 1_555 1_555
C13 C14 1_555 1_555
C19 C20 1_555 1_555
C25 C26 1_555 1_555

#END
