
#######################################################################
#
#                 Cambridge Crystallographic Data Centre
#                                CCDC 
#
#######################################################################
#
# If this CIF has been generated from an entry in the Cambridge 
# Structural Database, then it will include bibliographic, chemical, 
# crystal, experimental, refinement or atomic coordinate data resulting 
# from the CCDC's data processing and validation procedures.
#
#######################################################################

data_QEVZID
_chemical_formula_moiety         'C23 H17 N1 O2'
_chemical_name_systematic        
1-((4-phenoxyphenyl)carbonoimidoyl)-2-naphthol
_symmetry_cell_setting           monoclinic
_symmetry_space_group_name_H-M   'C 2/c'
_symmetry_Int_Tables_number      15
_space_group_name_Hall           '-C 2yn'
loop_
_symmetry_equiv_pos_site_id
_symmetry_equiv_pos_as_xyz
1 x,y,z
2 -x,y,1/2-z
3 1/2+x,1/2+y,z
4 1/2-x,1/2+y,1/2-z
5 -x,-y,-z
6 x,-y,1/2+z
7 1/2-x,1/2-y,-z
8 1/2+x,1/2-y,1/2+z
_cell_length_a                   22.733(15)
_cell_length_b                   5.772(4)
_cell_length_c                   27.220(19)
_cell_angle_alpha                90
_cell_angle_beta                 104.94(2)
_cell_angle_gamma                90
_cell_volume                     3450.93
_exptl_crystal_colour            blue
_exptl_crystal_description       block
_cell_formula_units_Z            8
loop_
_atom_site_label
_atom_site_type_symbol
_atom_site_fract_x
_atom_site_fract_y
_atom_site_fract_z
N1 N 0.8206(2) 0.7675(9) 0.92647(16)
O1 O 0.72323(17) 1.0008(9) 0.90644(17)
H1 H 0.7467 0.8947 0.9181
O2 O 0.9394(2) 0.0171(8) 1.03796(15)
C1 C 0.7478(3) 1.1341(12) 0.8779(2)
C2 C 0.7139(3) 1.3234(13) 0.8545(2)
H2 H 0.6755 1.3488 0.8596
C3 C 0.7351(3) 1.4707(11) 0.8249(2)
H3 H 0.7111 1.5948 0.8097
C4 C 0.7941(2) 1.4392(11) 0.81622(19)
C5 C 0.8162(3) 1.5933(12) 0.7858(2)
H4 H 0.7917 1.7158 0.7704
C6 C 0.8730(3) 1.5683(13) 0.7782(2)
H5 H 0.8874 1.6737 0.7582
C7 C 0.9087(3) 1.3838(12) 0.8007(2)
H6 H 0.9475 1.3663 0.7957
C8 C 0.8884(3) 1.2258(11) 0.8303(2)
H7 H 0.9132 1.1026 0.8447
C9 C 0.8294(2) 1.2484(10) 0.83925(18)
C10 C 0.8064(2) 1.0914(10) 0.87135(17)
C11 C 0.8415(3) 0.9049(11) 0.89734(18)
H8 H 0.8805 0.8805 0.8934
C12 C 0.8525(2) 0.5782(10) 0.95387(19)
C13 C 0.9086(2) 0.5001(11) 0.9491(2)
H9 H 0.9272 0.5733 0.9267
C14 C 0.9368(3) 0.3133(11) 0.9778(2)
H10 H 0.9740 0.2601 0.9740
C15 C 0.9102(3) 0.2073(11) 1.0113(2)
C16 C 0.8540(3) 0.2804(12) 1.0156(2)
H11 H 0.8354 0.2050 1.0377
C17 C 0.8255(3) 0.4642(11) 0.9871(2)
H12 H 0.7876 0.5125 0.9903
C18 C 0.9384(3) -0.0031(12) 1.0886(2)
C19 C 0.9627(3) 0.1654(11) 1.1233(2)
H13 H 0.9789 0.2996 1.1132
C20 C 0.9627(3) 0.1334(13) 1.1734(2)
H14 H 0.9789 0.2470 1.1973
C21 C 0.9391(3) -0.0632(14) 1.1882(2)
H15 H 0.9403 -0.0844 1.2224
C22 C 0.9138(3) -0.2294(12) 1.1538(3)
H16 H 0.8968 -0.3613 1.1641
C23 C 0.9137(3) -0.2010(12) 1.1037(3)
H17 H 0.8970 -0.3147 1.0799
loop_
_geom_bond_atom_site_label_1
_geom_bond_atom_site_label_2
_geom_bond_site_symmetry_1
_geom_bond_site_symmetry_2
N1 C11 1_555 1_555
O1 H1 1_555 1_555
O2 C15 1_555 1_555
C1 O1 1_555 1_555
C2 C1 1_555 1_555
H2 C2 1_555 1_555
C3 C2 1_555 1_555
H3 C3 1_555 1_555
C4 C3 1_555 1_555
C5 C4 1_555 1_555
H4 C5 1_555 1_555
C6 C5 1_555 1_555
H5 C6 1_555 1_555
C7 C6 1_555 1_555
H6 C7 1_555 1_555
C8 C7 1_555 1_555
H7 C8 1_555 1_555
C9 C4 1_555 1_555
C10 C1 1_555 1_555
C11 C10 1_555 1_555
H8 C11 1_555 1_555
C12 N1 1_555 1_555
C13 C12 1_555 1_555
H9 C13 1_555 1_555
C14 C13 1_555 1_555
H10 C14 1_555 1_555
C15 C14 1_555 1_555
C16 C15 1_555 1_555
H11 C16 1_555 1_555
C17 C12 1_555 1_555
H12 C17 1_555 1_555
C18 O2 1_555 1_555
C19 C18 1_555 1_555
H13 C19 1_555 1_555
C20 C19 1_555 1_555
H14 C20 1_555 1_555
C21 C20 1_555 1_555
H15 C21 1_555 1_555
C22 C21 1_555 1_555
H16 C22 1_555 1_555
C23 C18 1_555 1_555
H17 C23 1_555 1_555
C8 C9 1_555 1_555
C9 C10 1_555 1_555
C16 C17 1_555 1_555
C22 C23 1_555 1_555

#END
