
#######################################################################
#
#                 Cambridge Crystallographic Data Centre
#                                CCDC 
#
#######################################################################
#
# If this CIF has been generated from an entry in the Cambridge 
# Structural Database, then it will include bibliographic, chemical, 
# crystal, experimental, refinement or atomic coordinate data resulting 
# from the CCDC's data processing and validation procedures.
#
#######################################################################

data_QEVZOJ
_chemical_formula_moiety         'C15 H10 O6,C2 H6 O1 S1'
_chemical_name_systematic        
'7-hydroxy-3-methoxy-6-oxo-6H-benzo[c]chromene-8-carboxylic acid dimethyl sulfoxide solvate'
_symmetry_cell_setting           triclinic
_symmetry_space_group_name_H-M   'P -1'
_symmetry_Int_Tables_number      2
_space_group_name_Hall           '-P 1'
loop_
_symmetry_equiv_pos_site_id
_symmetry_equiv_pos_as_xyz
1 x,y,z
2 -x,-y,-z
_cell_length_a                   7.2593(5)
_cell_length_b                   9.7583(6)
_cell_length_c                   12.2896(5)
_cell_angle_alpha                90.887(4)
_cell_angle_beta                 95.154(4)
_cell_angle_gamma                108.944(5)
_cell_volume                     819.172
_exptl_crystal_colour            white
_exptl_crystal_description       needle
_cell_formula_units_Z            2
loop_
_atom_site_label
_atom_site_type_symbol
_atom_site_fract_x
_atom_site_fract_y
_atom_site_fract_z
O1 O 0.2067(2) 1.00313(16) 0.77639(12)
O2 O 0.25676(19) 0.82961(14) 0.41931(10)
O3 O 0.2714(2) 0.76196(16) 0.25126(10)
O4 O 0.5124(2) 0.63218(16) 0.20291(9)
H1 H 0.4275 0.6705 0.1929
O5 O 0.7914(2) 0.50889(18) 0.17300(10)
O6 O 0.9494(2) 0.46709(16) 0.32540(10)
H2 H 0.9958 0.4260 0.2820
C1 C 0.0422(3) 1.0437(3) 0.7367(2)
H3 H 0.0784 1.1115 0.6802
H4 H -0.0004 1.0878 0.7955
H5 H -0.0623 0.9591 0.7074
C2 C 0.2812(3) 0.93298(19) 0.70521(15)
C3 C 0.4268(3) 0.8801(2) 0.75077(15)
H6 H 0.4638 0.8926 0.8257
C4 C 0.5156(3) 0.80976(19) 0.68592(14)
H7 H 0.6109 0.7741 0.7177
C5 C 0.4649(2) 0.79077(17) 0.57231(13)
C6 C 0.5558(2) 0.72086(16) 0.49840(13)
C7 C 0.7058(3) 0.66707(19) 0.53360(13)
H8 H 0.7518 0.6749 0.6073
C8 C 0.7857(3) 0.60235(19) 0.45893(13)
H9 H 0.8851 0.5666 0.4841
C9 C 0.7244(3) 0.58778(17) 0.34676(13)
C10 C 0.5741(3) 0.64203(18) 0.30966(13)
C11 C 0.4901(2) 0.70857(17) 0.38581(13)
C12 C 0.3368(3) 0.76565(19) 0.34658(14)
C13 C 0.3188(3) 0.84355(18) 0.53031(14)
C14 C 0.2251(3) 0.91350(19) 0.59373(15)
H10 H 0.1270 0.9466 0.5623
C15 C 0.8215(3) 0.51817(19) 0.27179(14)
S1 S 1.13594(8) 0.37913(5) 0.08600(3)
O7 O 1.1194(2) 0.33469(16) 0.20315(10)
C16 C 0.9215(4) 0.2623(3) 0.01057(17)
H11 H 0.9066 0.1635 0.0264
H12 H 0.9318 0.2749 -0.0662
H13 H 0.8097 0.2852 0.0306
C17 C 1.3107(4) 0.3064(3) 0.03947(17)
H14 H 1.4365 0.3548 0.0785
H15 H 1.3181 0.3205 -0.0374
H16 H 1.2722 0.2046 0.0521
loop_
_geom_bond_atom_site_label_1
_geom_bond_atom_site_label_2
_geom_bond_site_symmetry_1
_geom_bond_site_symmetry_2
O1 C1 1_555 1_555
O2 C12 1_555 1_555
O3 C12 1_555 1_555
O4 H1 1_555 1_555
O5 C15 1_555 1_555
O6 H2 1_555 1_555
C1 H3 1_555 1_555
H4 C1 1_555 1_555
H5 C1 1_555 1_555
C2 O1 1_555 1_555
C3 C2 1_555 1_555
H6 C3 1_555 1_555
C4 C3 1_555 1_555
H7 C4 1_555 1_555
C5 C4 1_555 1_555
C6 C5 1_555 1_555
C7 C6 1_555 1_555
H8 C7 1_555 1_555
C8 C7 1_555 1_555
H9 C8 1_555 1_555
C9 C8 1_555 1_555
C10 O4 1_555 1_555
C11 C6 1_555 1_555
C12 C11 1_555 1_555
C13 O2 1_555 1_555
C14 C2 1_555 1_555
H10 C14 1_555 1_555
C15 O6 1_555 1_555
S1 O7 1_555 1_555
C16 S1 1_555 1_555
H11 C16 1_555 1_555
H12 C16 1_555 1_555
H13 C16 1_555 1_555
C17 S1 1_555 1_555
H14 C17 1_555 1_555
H15 C17 1_555 1_555
H16 C17 1_555 1_555
C5 C13 1_555 1_555
C9 C10 1_555 1_555
C9 C15 1_555 1_555
C10 C11 1_555 1_555
C13 C14 1_555 1_555

#END
