
#######################################################################
#
#                 Cambridge Crystallographic Data Centre
#                                CCDC 
#
#######################################################################
#
# If this CIF has been generated from an entry in the Cambridge 
# Structural Database, then it will include bibliographic, chemical, 
# crystal, experimental, refinement or atomic coordinate data resulting 
# from the CCDC's data processing and validation procedures.
#
#######################################################################

data_QEWDUT
_chemical_formula_moiety         'C18 H17 F2 N3 O4 S1'
_chemical_name_systematic        
N-(2,4-Difluorophenyl)-3-ethyl-3-methyl-2,5-dioxo-2,3,4,5-tetrahydro-1H-1,4-benzodiazepine-7-sulfonamide
_symmetry_cell_setting           monoclinic
_symmetry_space_group_name_H-M   'P 21'
_symmetry_Int_Tables_number      4
_space_group_name_Hall           'P 2yb'
loop_
_symmetry_equiv_pos_site_id
_symmetry_equiv_pos_as_xyz
1 x,y,z
2 -x,1/2+y,-z
_cell_length_a                   11.0910(3)
_cell_length_b                   11.5850(4)
_cell_length_c                   15.0230(4)
_cell_angle_alpha                90
_cell_angle_beta                 105.0710(19)
_cell_angle_gamma                90
_cell_volume                     1863.9
_exptl_crystal_colour            colorless
_exptl_crystal_description       Block
_cell_formula_units_Z            4
loop_
_atom_site_label
_atom_site_type_symbol
_atom_site_fract_x
_atom_site_fract_y
_atom_site_fract_z
S1 S 0.61550(7) 0.46575(6) 0.39560(4)
F1 F 0.4778(2) 0.16625(18) 0.42891(17)
F2 F 0.0532(2) 0.2600(3) 0.33000(19)
O1 O 0.59979(18) 0.0931(2) -0.06166(12)
O2 O 0.74125(19) 0.4825(2) 0.44934(14)
O3 O 0.5386(2) 0.56285(18) 0.36051(14)
O4 O 0.28822(17) 0.2803(2) 0.12368(13)
N1 N 0.61636(19) 0.1523(2) 0.08259(13)
N2 N 0.37057(19) 0.2525(2) 0.00317(14)
N3 N 0.5459(2) 0.3924(2) 0.46113(15)
C1 C 0.5639(2) 0.1588(2) -0.01053(17)
C2 C 0.4663(2) 0.2532(3) -0.04829(16)
C3 C 0.3811(2) 0.2758(2) 0.09234(17)
C4 C 0.5059(2) 0.2919(2) 0.15692(16)
C5 C 0.6117(2) 0.2293(2) 0.15373(17)
C6 C 0.7192(2) 0.2379(3) 0.22734(17)
C7 C 0.7226(2) 0.3095(3) 0.30042(17)
C8 C 0.6181(2) 0.3763(2) 0.30226(17)
C9 C 0.5106(2) 0.3659(2) 0.23138(17)
C10 C 0.4185(3) 0.3600(3) 0.42593(18)
C11 C 0.3232(3) 0.4412(3) 0.4083(2)
C12 C 0.2005(3) 0.4081(3) 0.3748(2)
C13 C 0.1742(3) 0.2929(4) 0.3615(2)
C14 C 0.2638(4) 0.2084(3) 0.3807(2)
C15 C 0.3852(3) 0.2454(3) 0.4111(2)
C16 C 0.3998(3) 0.2285(3) -0.14978(18)
C17 C 0.3202(3) 0.1199(3) -0.16853(19)
C18 C 0.5335(3) 0.3694(3) -0.0425(2)
H1 H 0.67020 0.08430 0.09270
H2 H 0.30680 0.20860 -0.01750
H3 H 0.79240 0.19380 0.22690
H4 H 0.79670 0.31480 0.35030
H5 H 0.43830 0.41080 0.23270
H6 H 0.60430 0.34050 0.49220
H7 H 0.34400 0.52140 0.41870
H8 H 0.13540 0.46500 0.36200
H9 H 0.24050 0.12850 0.37260
H10 H 0.34480 0.29140 -0.17410
H11 H 0.46080 0.22060 -0.18460
H12 H 0.28280 0.11260 -0.23350
H13 H 0.25580 0.12470 -0.13660
H14 H 0.37180 0.05390 -0.14700
H15 H 0.59430 0.36600 -0.07770
H16 H 0.57450 0.38570 0.02080
H17 H 0.47410 0.42920 -0.06660
S2 S 0.12639(7) -0.24347(6) 0.38095(5)
F3 F -0.4372(2) -0.0533(3) 0.34347(18)
F4 F -0.0139(2) 0.05125(18) 0.42600(19)
O5 O 0.08805(19) 0.17214(18) -0.05908(13)
O6 O 0.0474(2) -0.33940(18) 0.34529(14)
O7 O 0.2532(2) -0.2624(2) 0.43186(14)
O8 O -0.20801(16) -0.0251(2) 0.13301(12)
N4 N 0.1209(2) 0.0916(2) 0.08074(14)
N5 N -0.1363(2) 0.0153(2) 0.00997(14)
N6 N 0.0622(2) -0.1733(2) 0.45178(15)
C19 C 0.0569(2) 0.0996(2) -0.01080(17)
C20 C -0.0490(2) 0.0142(2) -0.04922(17)
C21 C -0.1196(2) -0.0194(2) 0.09687(17)
C22 C 0.0083(2) -0.0475(2) 0.15431(16)
C23 C 0.1169(2) 0.0083(2) 0.14664(18)
C24 C 0.2306(3) -0.0172(3) 0.21217(19)
C25 C 0.2349(3) -0.0938(3) 0.28263(19)
C26 C 0.1266(2) -0.1494(2) 0.28897(17)
C27 C 0.0140(2) -0.1273(2) 0.22459(17)
C28 C -0.0679(3) -0.1435(3) 0.42365(18)
C29 C -0.1602(3) -0.2275(3) 0.41033(18)
C30 C -0.2844(3) -0.1971(3) 0.3825(2)
C31 C -0.3150(3) -0.0836(3) 0.3707(2)
C32 C -0.2278(4) 0.0032(3) 0.3855(3)
C33 C -0.1040(3) -0.0304(3) 0.4110(2)
C34 C 0.0024(3) -0.1081(3) -0.0556(2)
C35 C 0.1042(4) -0.1147(4) -0.1061(3)
C36 C -0.1234(3) 0.0567(3) -0.14355(18)
H18 H 0.17410 0.16210 0.08980
H19 H -0.20480 0.02410 -0.01710
H20 H 0.30570 0.02040 0.20720
H21 H 0.31250 -0.10760 0.32770
H22 H -0.06040 -0.16630 0.22940
H23 H 0.12020 -0.12190 0.48400
H24 H -0.13600 -0.30680 0.42150
H25 H -0.34840 -0.25510 0.37050
H26 H -0.25500 0.08210 0.37890
H27 H 0.03670 -0.13800 0.00540
H28 H -0.06350 -0.15780 -0.08840
H29 H 0.13120 -0.19330 -0.10700
H30 H 0.17330 -0.06760 -0.07450
H31 H 0.07310 -0.08750 -0.16830
H32 H -0.07070 0.05770 -0.18510
H33 H -0.15260 0.13350 -0.13700
H34 H -0.19350 0.00690 -0.16750
loop_
_geom_bond_atom_site_label_1
_geom_bond_atom_site_label_2
_geom_bond_site_symmetry_1
_geom_bond_site_symmetry_2
S1 O2 1_555 1_555
F1 C15 1_555 1_555
F2 C13 1_555 1_555
O1 C1 1_555 1_555
O3 S1 1_555 1_555
O4 C3 1_555 1_555
N1 C1 1_555 1_555
N2 C2 1_555 1_555
N3 S1 1_555 1_555
C1 C2 1_555 1_555
C2 C16 1_555 1_555
C3 N2 1_555 1_555
C4 C3 1_555 1_555
C5 N1 1_555 1_555
C6 C5 1_555 1_555
C7 C6 1_555 1_555
C8 S1 1_555 1_555
C9 C4 1_555 1_555
C10 N3 1_555 1_555
C11 C10 1_555 1_555
C12 C11 1_555 1_555
C13 C12 1_555 1_555
C14 C13 1_555 1_555
C15 C10 1_555 1_555
C16 C17 1_555 1_555
C17 H12 1_555 1_555
C18 C2 1_555 1_555
H1 N1 1_555 1_555
H2 N2 1_555 1_555
H3 C6 1_555 1_555
H4 C7 1_555 1_555
H5 C9 1_555 1_555
H6 N3 1_555 1_555
H7 C11 1_555 1_555
H8 C12 1_555 1_555
H9 C14 1_555 1_555
H10 C16 1_555 1_555
H11 C16 1_555 1_555
H13 C17 1_555 1_555
H14 C17 1_555 1_555
H15 C18 1_555 1_555
H16 C18 1_555 1_555
H17 C18 1_555 1_555
S2 O6 1_555 1_555
F3 C31 1_555 1_555
F4 C33 1_555 1_555
O5 C19 1_555 1_555
O7 S2 1_555 1_555
O8 C21 1_555 1_555
N4 C19 1_555 1_555
N5 C20 1_555 1_555
N6 S2 1_555 1_555
C19 C20 1_555 1_555
C20 C34 1_555 1_555
C21 N5 1_555 1_555
C22 C21 1_555 1_555
C23 N4 1_555 1_555
C24 C23 1_555 1_555
C25 C24 1_555 1_555
C26 S2 1_555 1_555
C27 C22 1_555 1_555
C28 N6 1_555 1_555
C29 C28 1_555 1_555
C30 C29 1_555 1_555
C31 C30 1_555 1_555
C32 C31 1_555 1_555
C33 C28 1_555 1_555
C34 C35 1_555 1_555
C35 H29 1_555 1_555
C36 C20 1_555 1_555
H18 N4 1_555 1_555
H19 N5 1_555 1_555
H20 C24 1_555 1_555
H21 C25 1_555 1_555
H22 C27 1_555 1_555
H23 N6 1_555 1_555
H24 C29 1_555 1_555
H25 C30 1_555 1_555
H26 C32 1_555 1_555
H27 C34 1_555 1_555
H28 C34 1_555 1_555
H30 C35 1_555 1_555
H31 C35 1_555 1_555
H32 C36 1_555 1_555
H33 C36 1_555 1_555
H34 C36 1_555 1_555
C4 C5 1_555 1_555
C7 C8 1_555 1_555
C8 C9 1_555 1_555
C14 C15 1_555 1_555
C22 C23 1_555 1_555
C25 C26 1_555 1_555
C26 C27 1_555 1_555
C32 C33 1_555 1_555

#END
