
#######################################################################
#
#                 Cambridge Crystallographic Data Centre
#                                CCDC 
#
#######################################################################
#
# If this CIF has been generated from an entry in the Cambridge 
# Structural Database, then it will include bibliographic, chemical, 
# crystal, experimental, refinement or atomic coordinate data resulting 
# from the CCDC's data processing and validation procedures.
#
#######################################################################

data_QEWFAB
_chemical_formula_moiety         'C24 H21 N3 O3'
_chemical_name_systematic        
2-((2-Hydroxybenzylidene)amino)-6-(piperidin-1-yl)-1H-benzo[de]isoquinoline-1,3(2H)-dione
_symmetry_cell_setting           triclinic
_symmetry_space_group_name_H-M   'P -1'
_symmetry_Int_Tables_number      2
_space_group_name_Hall           '-P 1'
loop_
_symmetry_equiv_pos_site_id
_symmetry_equiv_pos_as_xyz
1 x,y,z
2 -x,-y,-z
_cell_length_a                   6.9248(14)
_cell_length_b                   15.963(3)
_cell_length_c                   18.206(4)
_cell_angle_alpha                81.37(3)
_cell_angle_beta                 82.93(3)
_cell_angle_gamma                82.79(3)
_cell_volume                     1962.8
_cell_formula_units_Z            4
loop_
_atom_site_label
_atom_site_type_symbol
_atom_site_fract_x
_atom_site_fract_y
_atom_site_fract_z
C1 C 0.9021(5) 0.40740(19) 0.40216(18)
C2 C 1.0610(4) 0.25636(19) 0.41772(18)
C3 C 1.0005(4) 0.25021(18) 0.49876(17)
C4 C 0.9027(4) 0.32238(18) 0.52961(17)
C5 C 0.8510(4) 0.39887(18) 0.48359(17)
C6 C 0.7478(5) 0.4666(2) 0.51484(19)
H1 H 0.7095 0.5162 0.4839
C7 C 0.6999(5) 0.4623(2) 0.59128(19)
H2 H 0.6307 0.5093 0.6108
C8 C 0.7528(5) 0.3899(2) 0.63891(18)
C9 C 0.8504(4) 0.31599(18) 0.60821(17)
C10 C 0.8883(4) 0.2358(2) 0.65156(18)
H3 H 0.8487 0.2296 0.7026
C11 C 0.9819(4) 0.16692(19) 0.62014(18)
H4 H 1.0071 0.1150 0.6500
C12 C 1.0394(4) 0.17445(19) 0.54360(18)
H5 H 1.1049 0.1277 0.5228
C13 C 0.9518(5) 0.3525(2) 0.25312(18)
H6 H 0.8200 0.3518 0.2707
C14 C 1.0118(6) 0.3652(2) 0.17360(19)
C15 C 1.2067(6) 0.3691(3) 0.1447(2)
C16 C 1.2582(8) 0.3807(3) 0.0683(3)
H7 H 1.3886 0.3825 0.0491
C17 C 1.1148(10) 0.3896(4) 0.0212(3)
H8 H 1.1492 0.3987 -0.0302
C18 C 0.9201(10) 0.3853(4) 0.0482(3)
H9 H 0.8254 0.3900 0.0153
C19 C 0.8680(7) 0.3741(3) 0.1243(2)
H10 H 0.7372 0.3724 0.1429
C20 C 0.8694(6) 0.3739(3) 0.7622(2)
H11 H 0.9139 0.4292 0.7619
H12 H 0.9774 0.3369 0.7413
C21 C 0.8036(8) 0.3365(3) 0.8418(2)
H13 H 0.7710 0.2791 0.8421
H14 H 0.9103 0.3333 0.8724
C22 C 0.6269(9) 0.3901(4) 0.8749(2)
H15 H 0.6647 0.4446 0.8821
H16 H 0.5793 0.3613 0.9233
C23 C 0.4634(8) 0.4049(3) 0.8232(2)
H17 H 0.4124 0.3513 0.8219
H18 H 0.3573 0.4440 0.8425
C24 C 0.5394(6) 0.4413(3) 0.7447(2)
H19 H 0.4357 0.4485 0.7123
H20 H 0.5828 0.4967 0.7452
N1 N 1.0049(4) 0.33417(17) 0.37537(14)
N2 N 1.0805(4) 0.34238(18) 0.29895(15)
N3 N 0.7033(4) 0.38281(18) 0.71680(15)
O1 O 1.1514(4) 0.19816(15) 0.38692(14)
O2 O 0.8601(4) 0.47111(15) 0.35918(13)
O3 O 1.3529(4) 0.3613(2) 0.18936(17)
H21 H 1.3057 0.3620 0.2329
C25 C 0.5649(4) 0.23228(18) 0.42109(18)
C26 C 0.5019(4) 0.23339(18) 0.50101(17)
C27 C 0.5411(4) 0.16059(17) 0.55387(16)
C28 C 0.6445(4) 0.08478(18) 0.53121(18)
C29 C 0.7098(4) 0.08054(19) 0.45160(18)
C30 C 0.6923(5) 0.0171(2) 0.58430(19)
H22 H 0.7619 -0.0323 0.5693
C31 C 0.6386(5) 0.0209(2) 0.66024(19)
H23 H 0.6746 -0.0256 0.6950
C32 C 0.5326(5) 0.0928(2) 0.68483(18)
C33 C 0.4839(4) 0.16539(18) 0.63121(17)
C34 C 0.3931(4) 0.2442(2) 0.65180(18)
H24 H 0.3591 0.2491 0.7021
C35 C 0.3540(4) 0.31335(19) 0.59924(18)
H25 H 0.2912 0.3641 0.6140
C36 C 0.4084(4) 0.30763(18) 0.52379(18)
H26 H 0.3811 0.3547 0.4884
C37 C 0.6273(5) 0.1661(2) 0.27674(18)
H27 H 0.4936 0.1788 0.2892
C38 C 0.7059(6) 0.1640(2) 0.1995(2)
C39 C 0.9098(7) 0.1448(3) 0.1784(2)
C40 C 0.9750(9) 0.1431(4) 0.1037(3)
H28 H 1.1078 0.1303 0.0895
C41 C 0.8468(11) 0.1600(4) 0.0504(3)
H29 H 0.8942 0.1586 0.0005
C42 C 0.6466(10) 0.1793(4) 0.0696(3)
H30 H 0.5610 0.1909 0.0329
C43 C 0.5778(8) 0.1809(3) 0.1437(2)
H31 H 0.4444 0.1934 0.1569
C44 C 0.6028(7) 0.0464(3) 0.8144(2)
H32 H 0.7400 0.0474 0.7957
H33 H 0.5723 -0.0121 0.8199
C45 C 0.5654(8) 0.0786(4) 0.8890(2)
H34 H 0.6038 0.1357 0.8839
H35 H 0.6441 0.0422 0.9242
C46 C 0.3498(9) 0.0797(4) 0.9189(3)
H36 H 0.3269 0.1050 0.9648
H37 H 0.3153 0.0218 0.9300
C47 C 0.2208(8) 0.1311(4) 0.8612(2)
H38 H 0.0840 0.1261 0.8785
H39 H 0.2411 0.1908 0.8556
C48 C 0.2715(6) 0.0981(3) 0.7862(2)
H40 H 0.2384 0.0402 0.7907
H41 H 0.1952 0.1331 0.7494
N4 N 0.6560(4) 0.15334(16) 0.40147(14)
N5 N 0.7433(4) 0.15033(18) 0.32743(15)
N6 N 0.4814(4) 0.10003(18) 0.76109(16)
O4 O 0.8034(4) 0.01919(15) 0.42768(14)
O5 O 0.5456(4) 0.29432(14) 0.37348(13)
O6 O 1.0422(5) 0.1286(3) 0.22773(17)
H42 H 0.9865 0.1301 0.2700
loop_
_geom_bond_atom_site_label_1
_geom_bond_atom_site_label_2
_geom_bond_site_symmetry_1
_geom_bond_site_symmetry_2
C1 C5 1_555 1_555
C2 C3 1_555 1_555
C3 C4 1_555 1_555
C4 C5 1_555 1_555
C5 C6 1_555 1_555
C6 H1 1_555 1_555
C7 C6 1_555 1_555
H2 C7 1_555 1_555
C8 C7 1_555 1_555
C9 C4 1_555 1_555
C10 C9 1_555 1_555
H3 C10 1_555 1_555
C11 C10 1_555 1_555
H4 C11 1_555 1_555
C12 C3 1_555 1_555
H5 C12 1_555 1_555
C13 H6 1_555 1_555
C14 C13 1_555 1_555
C15 C14 1_555 1_555
C16 C15 1_555 1_555
H7 C16 1_555 1_555
C17 C16 1_555 1_555
H8 C17 1_555 1_555
C18 C17 1_555 1_555
H9 C18 1_555 1_555
C19 C14 1_555 1_555
H10 C19 1_555 1_555
C20 H11 1_555 1_555
H12 C20 1_555 1_555
C21 C20 1_555 1_555
H13 C21 1_555 1_555
H14 C21 1_555 1_555
C22 C21 1_555 1_555
H15 C22 1_555 1_555
H16 C22 1_555 1_555
C23 C22 1_555 1_555
H17 C23 1_555 1_555
H18 C23 1_555 1_555
C24 C23 1_555 1_555
H19 C24 1_555 1_555
H20 C24 1_555 1_555
N1 C1 1_555 1_555
N2 C13 1_555 1_555
N3 C8 1_555 1_555
O1 C2 1_555 1_555
O2 C1 1_555 1_555
O3 C15 1_555 1_555
H21 O3 1_555 1_555
C25 C26 1_555 1_555
C26 C27 1_555 1_555
C27 C28 1_555 1_555
C28 C29 1_555 1_555
C29 N4 1_555 1_555
C30 C28 1_555 1_555
H22 C30 1_555 1_555
C31 C30 1_555 1_555
H23 C31 1_555 1_555
C32 C31 1_555 1_555
C33 C27 1_555 1_555
C34 C33 1_555 1_555
H24 C34 1_555 1_555
C35 C34 1_555 1_555
H25 C35 1_555 1_555
C36 C26 1_555 1_555
H26 C36 1_555 1_555
C37 H27 1_555 1_555
C38 C37 1_555 1_555
C39 C38 1_555 1_555
C40 C39 1_555 1_555
H28 C40 1_555 1_555
C41 C40 1_555 1_555
H29 C41 1_555 1_555
C42 C41 1_555 1_555
H30 C42 1_555 1_555
C43 C38 1_555 1_555
H31 C43 1_555 1_555
C44 H32 1_555 1_555
H33 C44 1_555 1_555
C45 C44 1_555 1_555
H34 C45 1_555 1_555
H35 C45 1_555 1_555
C46 C45 1_555 1_555
H36 C46 1_555 1_555
H37 C46 1_555 1_555
C47 C46 1_555 1_555
H38 C47 1_555 1_555
H39 C47 1_555 1_555
C48 C47 1_555 1_555
H40 C48 1_555 1_555
H41 C48 1_555 1_555
N4 C25 1_555 1_555
N5 C37 1_555 1_555
N6 C32 1_555 1_555
O4 C29 1_555 1_555
O5 C25 1_555 1_555
O6 C39 1_555 1_555
H42 O6 1_555 1_555
C2 N1 1_555 1_555
C8 C9 1_555 1_555
C11 C12 1_555 1_555
C18 C19 1_555 1_555
C20 N3 1_555 1_555
C24 N3 1_555 1_555
N1 N2 1_555 1_555
C32 C33 1_555 1_555
C35 C36 1_555 1_555
C42 C43 1_555 1_555
C44 N6 1_555 1_555
C48 N6 1_555 1_555
N4 N5 1_555 1_555

#END
