
#######################################################################
#
#                 Cambridge Crystallographic Data Centre
#                                CCDC 
#
#######################################################################
#
# If this CIF has been generated from an entry in the Cambridge 
# Structural Database, then it will include bibliographic, chemical, 
# crystal, experimental, refinement or atomic coordinate data resulting 
# from the CCDC's data processing and validation procedures.
#
#######################################################################

data_QEWHAD
_chemical_formula_moiety         'C22 H30 N4 O4'
_chemical_name_systematic        
1-(2,4-Dinitrophenyl)-2-((2,3,4a,6,8-pentamethyl-1,2,4a,5,6,7,8,8a-octahydronaphthalen-1-yl)methylene)hydrazine
_symmetry_cell_setting           monoclinic
_symmetry_space_group_name_H-M   'P 21/c'
_symmetry_Int_Tables_number      14
_space_group_name_Hall           '-P 2ybc'
loop_
_symmetry_equiv_pos_site_id
_symmetry_equiv_pos_as_xyz
1 x,y,z
2 -x,1/2+y,1/2-z
3 -x,-y,-z
4 x,1/2-y,1/2+z
_cell_length_a                   14.0891(6)
_cell_length_b                   12.3368(5)
_cell_length_c                   14.0775(6)
_cell_angle_alpha                90
_cell_angle_beta                 117.2680(10)
_cell_angle_gamma                90
_cell_volume                     2174.96
_exptl_crystal_colour            'pale orange'
_exptl_crystal_description       Columnar
_cell_formula_units_Z            4
loop_
_atom_site_label
_atom_site_type_symbol
_atom_site_fract_x
_atom_site_fract_y
_atom_site_fract_z
O1 O 0.87918(17) 0.11652(14) 0.36174(14)
O2 O 0.78445(14) 0.22302(14) 0.40498(14)
O3 O 1.03565(15) 0.23935(13) 0.15139(17)
O4 O 1.01665(12) 0.40050(13) 0.09068(13)
N1 N 0.87194(11) 0.52866(12) 0.09854(11)
H1 H 0.9185 0.5254 0.0751
N2 N 0.80109(11) 0.61495(12) 0.07103(11)
N3 N 0.83542(14) 0.20344(15) 0.35665(13)
N4 N 0.99636(12) 0.32909(15) 0.13919(13)
C1 C 0.42747(19) 0.8748(2) -0.47113(16)
H2 H 0.4815 0.9031 -0.4878
H3 H 0.3777 0.9312 -0.4784
H4 H 0.3905 0.8166 -0.5192
C2 C 0.47920(14) 0.83274(16) -0.35689(14)
H5 H 0.4230 0.7992 -0.3442
C3 C 0.52738(14) 0.92394(15) -0.27659(14)
H6 H 0.4717 0.9754 -0.2862
H7 H 0.5801 0.9615 -0.2907
C4 C 0.58064(13) 0.88439(13) -0.16018(13)
C5 C 0.66860(12) 0.80087(12) -0.14587(12)
H8 H 0.7168 0.8381 -0.1678
C6 C 0.73472(13) 0.77916(13) -0.02471(13)
H9 H 0.6832 0.7660 0.0027
C7 C 0.80817(13) 0.68432(15) 0.00817(13)
H10 H 0.8584 0.6761 -0.0170
C8 C 0.86673(12) 0.45038(13) 0.16228(12)
C9 C 0.80014(13) 0.46290(14) 0.21254(13)
H11 H 0.7618 0.5269 0.2021
C10 C 0.79054(13) 0.38487(15) 0.27507(13)
H12 H 0.7470 0.3959 0.3077
C11 C 0.84610(13) 0.28821(14) 0.29025(13)
C12 C 0.79624(14) 0.88300(15) 0.03092(13)
H13 H 0.8219 0.8727 0.1078
C13 C 0.72306(17) 0.98000(15) -0.00116(15)
C14 C 0.7636(2) 1.07819(19) 0.06961(18)
H14 H 0.7089 1.1327 0.0459
H15 H 0.8255 1.1062 0.0661
H16 H 0.7822 1.0583 0.1420
C15 C 0.62937(16) 0.97828(15) -0.08669(15)
H17 H 0.5896 1.0419 -0.1030
C16 C 0.49358(14) 0.83670(18) -0.13408(16)
H18 H 0.5256 0.8138 -0.0608
H19 H 0.4605 0.7757 -0.1797
H20 H 0.4406 0.8911 -0.1456
C17 C 0.62166(13) 0.70488(13) -0.22292(13)
H21 H 0.5701 0.6675 -0.2057
C18 C 0.56270(15) 0.74770(15) -0.33712(14)
H22 H 0.6150 0.7776 -0.3568
H23 H 0.5287 0.6870 -0.3843
C19 C 0.70302(17) 0.62203(17) -0.22101(17)
H24 H 0.6697 0.5748 -0.2817
H25 H 0.7289 0.5801 -0.1565
H26 H 0.7617 0.6591 -0.2237
C20 C 0.89462(14) 0.90526(18) 0.01449(16)
H27 H 0.8728 0.9167 -0.0601
H28 H 0.9422 0.8443 0.0393
H29 H 0.9306 0.9688 0.0540
C21 C 0.92406(12) 0.35198(14) 0.18322(12)
C22 C 0.91291(13) 0.27190(14) 0.24581(13)
H30 H 0.9507 0.2073 0.2576
loop_
_geom_bond_atom_site_label_1
_geom_bond_atom_site_label_2
_geom_bond_site_symmetry_1
_geom_bond_site_symmetry_2
O1 N3 1_555 1_555
O2 N3 1_555 1_555
O3 N4 1_555 1_555
O4 N4 1_555 1_555
N1 H1 1_555 1_555
N2 N1 1_555 1_555
N3 C11 1_555 1_555
N4 C21 1_555 1_555
C1 H2 1_555 1_555
H3 C1 1_555 1_555
H4 C1 1_555 1_555
C2 C1 1_555 1_555
H5 C2 1_555 1_555
C3 C2 1_555 1_555
H6 C3 1_555 1_555
H7 C3 1_555 1_555
C4 C3 1_555 1_555
C5 C4 1_555 1_555
H8 C5 1_555 1_555
C6 C5 1_555 1_555
H9 C6 1_555 1_555
C7 N2 1_555 1_555
H10 C7 1_555 1_555
C8 N1 1_555 1_555
C9 C8 1_555 1_555
H11 C9 1_555 1_555
C10 C9 1_555 1_555
H12 C10 1_555 1_555
C11 C10 1_555 1_555
C12 C6 1_555 1_555
H13 C12 1_555 1_555
C13 C12 1_555 1_555
C14 C13 1_555 1_555
H14 C14 1_555 1_555
H15 C14 1_555 1_555
H16 C14 1_555 1_555
C15 C4 1_555 1_555
H17 C15 1_555 1_555
C16 C4 1_555 1_555
H18 C16 1_555 1_555
H19 C16 1_555 1_555
H20 C16 1_555 1_555
C17 C5 1_555 1_555
H21 C17 1_555 1_555
C18 C2 1_555 1_555
H22 C18 1_555 1_555
H23 C18 1_555 1_555
C19 C17 1_555 1_555
H24 C19 1_555 1_555
H25 C19 1_555 1_555
H26 C19 1_555 1_555
C20 C12 1_555 1_555
H27 C20 1_555 1_555
H28 C20 1_555 1_555
H29 C20 1_555 1_555
C21 C8 1_555 1_555
C22 C11 1_555 1_555
H30 C22 1_555 1_555
C6 C7 1_555 1_555
C13 C15 1_555 1_555
C17 C18 1_555 1_555
C21 C22 1_555 1_555

#END
