
#######################################################################
#
#                 Cambridge Crystallographic Data Centre
#                                CCDC 
#
#######################################################################
#
# If this CIF has been generated from an entry in the Cambridge 
# Structural Database, then it will include bibliographic, chemical, 
# crystal, experimental, refinement or atomic coordinate data resulting 
# from the CCDC's data processing and validation procedures.
#
#######################################################################

data_QEWHEH
_chemical_formula_moiety         '2(C7 H6 O3),C12 H10 N2'
_chemical_name_systematic        
"bis(4-Hydroxybenzoic acid) 4,4'-ethene-1,2-diyldipyridine"
_symmetry_cell_setting           monoclinic
_symmetry_space_group_name_H-M   'P 21/c'
_symmetry_Int_Tables_number      14
_space_group_name_Hall           '-P 2ybc'
loop_
_symmetry_equiv_pos_site_id
_symmetry_equiv_pos_as_xyz
1 x,y,z
2 -x,1/2+y,1/2-z
3 -x,-y,-z
4 x,1/2-y,1/2+z
_cell_length_a                   3.9080(6)
_cell_length_b                   23.780(4)
_cell_length_c                   11.839(2)
_cell_angle_alpha                90
_cell_angle_beta                 100.833(9)
_cell_angle_gamma                90
_cell_volume                     1080.62
_exptl_crystal_colour            'pale yellow'
_exptl_crystal_description       plate
_cell_formula_units_Z            2
loop_
_atom_site_label
_atom_site_type_symbol
_atom_site_fract_x
_atom_site_fract_y
_atom_site_fract_z
C1 C 0.0348(3) -0.01723(6) -0.67469(12)
H1 H 0.1688 0.0090 -0.6275
C2 C -0.1232(3) -0.00105(5) -0.78419(11)
H2 H -0.0940 0.0354 -0.8094
C3 C -0.3268(3) -0.03942(5) -0.85710(11)
C4 C -0.3578(3) -0.09367(5) -0.81406(11)
H3 H -0.4888 -0.1208 -0.8595
C5 C -0.1909(4) -0.10661(6) -0.70267(12)
H4 H -0.2147 -0.1427 -0.6749
C6 C -0.5061(3) -0.02498(6) -0.97449(11)
N1 N 0.0027(3) -0.06925(5) -0.63359(10)
H5 H -0.657(5) -0.0548(8) -1.0160(16)
C1B C -1.0348(3) 0.01723(6) -1.32531(12)
H1B H -1.1688 -0.0090 -1.3725
C2B C -0.8768(3) 0.00105(5) -1.21581(11)
H2B H -0.9060 -0.0354 -1.1906
C3B C -0.6732(3) 0.03942(5) -1.14290(11)
C4B C -0.6422(3) 0.09367(5) -1.18594(11)
H3B H -0.5112 0.1208 -1.1405
C5B C -0.8091(4) 0.10661(6) -1.29733(12)
H4B H -0.7853 0.1427 -1.3251
C6B C -0.4939(3) 0.02498(6) -1.02551(11)
N1B N -1.0027(3) 0.06925(5) -1.36641(10)
H5B H -0.343(5) 0.0548(8) -0.9840(16)
C7 C -0.5175(3) -0.14666(5) -0.42408(11)
C8 C -0.3187(3) -0.16371(5) -0.31025(10)
C9 C -0.1416(3) -0.21516(5) -0.29879(11)
H6 H -0.1480 -0.2380 -0.3629
C10 C 0.0431(3) -0.23241(5) -0.19295(11)
H7 H 0.1623 -0.2665 -0.1864
C11 C 0.0501(3) -0.19858(5) -0.09605(11)
C12 C -0.1300(3) -0.14765(5) -0.10627(11)
H8 H -0.1283 -0.1253 -0.0418
C13 C -0.3117(3) -0.13046(5) -0.21260(11)
H9 H -0.4303 -0.0964 -0.2190
O1 O 0.2302(3) -0.21296(4) 0.00972(8)
O2 O -0.5750(3) -0.17885(4) -0.50716(8)
O3 O -0.6296(3) -0.09435(4) -0.43049(9)
H10 H 0.327(5) -0.2483(10) 0.0066(18)
H11 H -0.784(7) -0.0878(11) -0.511(2)
loop_
_geom_bond_atom_site_label_1
_geom_bond_atom_site_label_2
_geom_bond_site_symmetry_1
_geom_bond_site_symmetry_2
C1 H1 1_555 1_555
C2 C1 1_555 1_555
H2 C2 1_555 1_555
C3 C2 1_555 1_555
C4 C3 1_555 1_555
H3 C4 1_555 1_555
C5 C4 1_555 1_555
H4 C5 1_555 1_555
C6 C3 1_555 1_555
N1 C1 1_555 1_555
H5 C6 1_555 1_555
C7 C8 1_555 1_555
C8 C9 1_555 1_555
C9 H6 1_555 1_555
C10 C9 1_555 1_555
H7 C10 1_555 1_555
C11 C10 1_555 1_555
C12 C11 1_555 1_555
H8 C12 1_555 1_555
C13 C8 1_555 1_555
H9 C13 1_555 1_555
O1 C11 1_555 1_555
O2 C7 1_555 1_555
O3 C7 1_555 1_555
H10 O1 1_555 1_555
H11 O3 1_555 1_555
C1B H1B 1_555 1_555
C2B C1B 1_555 1_555
H2B C2B 1_555 1_555
C3B C2B 1_555 1_555
C4B C3B 1_555 1_555
H3B C4B 1_555 1_555
C5B C4B 1_555 1_555
H4B C5B 1_555 1_555
C6B C6 1_555 1_555
N1B C1B 1_555 1_555
H5B C6B 1_555 1_555
C5 N1 1_555 1_555
C12 C13 1_555 1_555
C3B C6B 1_555 1_555
C5B N1B 1_555 1_555

#END
