
#######################################################################
#
#                 Cambridge Crystallographic Data Centre
#                                CCDC 
#
#######################################################################
#
# If this CIF has been generated from an entry in the Cambridge 
# Structural Database, then it will include bibliographic, chemical, 
# crystal, experimental, refinement or atomic coordinate data resulting 
# from the CCDC's data processing and validation procedures.
#
#######################################################################

data_QEWJEJ
_chemical_formula_moiety         'C34 H34 O2'
_chemical_name_systematic        9-(bis(4-Butoxyphenyl)methylene)-9H-fluorene
_symmetry_cell_setting           monoclinic
_symmetry_space_group_name_H-M   'C 2/c'
_symmetry_Int_Tables_number      15
_space_group_name_Hall           '-C 2yn'
loop_
_symmetry_equiv_pos_site_id
_symmetry_equiv_pos_as_xyz
1 x,y,z
2 -x,y,1/2-z
3 1/2+x,1/2+y,z
4 1/2-x,1/2+y,1/2-z
5 -x,-y,-z
6 x,-y,1/2+z
7 1/2-x,1/2-y,-z
8 1/2+x,1/2-y,1/2+z
_cell_length_a                   17.5734(16)
_cell_length_b                   10.513(8)
_cell_length_c                   16.011(15)
_cell_angle_alpha                90
_cell_angle_beta                 113.447(13)
_cell_angle_gamma                90
_cell_volume                     2713.77
_exptl_crystal_colour            colorless
_exptl_crystal_description       block
_cell_formula_units_Z            4
loop_
_atom_site_label
_atom_site_type_symbol
_atom_site_fract_x
_atom_site_fract_y
_atom_site_fract_z
O1 O 0.16080(16) 0.4051(2) 0.06642(16)
C1 C 0.1283(3) -0.3108(4) -0.0597(3)
H1 H 0.1556 -0.3775 -0.0213
C2 C 0.1459(2) -0.1868(4) -0.0294(3)
H2 H 0.1846 -0.1713 0.0294
C3 C 0.1067(2) -0.0847(4) -0.0851(2)
H3 H 0.1193 -0.0017 -0.0641
C4 C 0.0483(2) -0.1087(3) -0.1731(2)
C5 C 0.0305(2) -0.2353(3) -0.2031(2)
C6 C 0.0707(2) -0.3365(4) -0.1462(3)
H4 H 0.0587 -0.4200 -0.1664
C7 C 0.0000 -0.0223(5) -0.2500
C8 C 0.0000 0.1071(4) -0.2500
C9 C 0.0408(2) 0.1838(3) -0.1653(2)
C10 C 0.1143(2) 0.2498(3) -0.1493(2)
H5 H 0.1379 0.2454 -0.1919
C11 C 0.1525(2) 0.3214(3) -0.0714(2)
H6 H 0.2022 0.3627 -0.0613
C12 C 0.1173(2) 0.3320(3) -0.0084(2)
C13 C 0.0439(2) 0.2694(4) -0.0228(2)
H7 H 0.0197 0.2757 0.0192
C14 C 0.0069(2) 0.1964(4) -0.1015(2)
H8 H -0.0426 0.1547 -0.1112
C15 C 0.1218(3) 0.4380(4) 0.1268(3)
H9 H 0.1139 0.3627 0.1574
H10 H 0.0681 0.4766 0.0932
C16 C 0.1789(3) 0.5314(5) 0.1957(3)
H11 H 0.1855 0.6052 0.1628
H12 H 0.1515 0.5598 0.2343
C17 C 0.2600(4) 0.4862(6) 0.2532(4)
H13 H 0.2863 0.4525 0.2148
H14 H 0.2538 0.4163 0.2896
C18 C 0.3173(3) 0.5842(5) 0.3166(4)
H15 H 0.3250 0.6533 0.2815
H16 H 0.3700 0.5457 0.3516
H17 H 0.2933 0.6158 0.3569
O1A O -0.16080(16) 0.4051(2) -0.56642(16)
C1A C -0.1283(3) -0.3108(4) -0.4403(3)
H1A H -0.1556 -0.3775 -0.4787
C2A C -0.1459(2) -0.1868(4) -0.4706(3)
H2A H -0.1846 -0.1713 -0.5294
C3A C -0.1067(2) -0.0847(4) -0.4149(2)
H3A H -0.1193 -0.0017 -0.4359
C4A C -0.0483(2) -0.1087(3) -0.3269(2)
C5A C -0.0305(2) -0.2353(3) -0.2969(2)
C6A C -0.0707(2) -0.3365(4) -0.3538(3)
H4A H -0.0587 -0.4200 -0.3336
C9A C -0.0408(2) 0.1838(3) -0.3347(2)
C10A C -0.1143(2) 0.2498(3) -0.3507(2)
H5A H -0.1379 0.2454 -0.3081
C11A C -0.1525(2) 0.3214(3) -0.4286(2)
H6A H -0.2022 0.3627 -0.4387
C12A C -0.1173(2) 0.3320(3) -0.4916(2)
C13A C -0.0439(2) 0.2694(4) -0.4772(2)
H7A H -0.0197 0.2757 -0.5192
C14A C -0.0069(2) 0.1964(4) -0.3985(2)
H8A H 0.0426 0.1547 -0.3888
C15A C -0.1218(3) 0.4380(4) -0.6268(3)
H9A H -0.1139 0.3627 -0.6574
H10A H -0.0681 0.4766 -0.5932
C16A C -0.1789(3) 0.5314(5) -0.6957(3)
H11A H -0.1855 0.6052 -0.6628
H12A H -0.1515 0.5598 -0.7343
C17A C -0.2600(4) 0.4862(6) -0.7532(4)
H13A H -0.2863 0.4525 -0.7148
H14A H -0.2538 0.4163 -0.7896
C18A C -0.3173(3) 0.5842(5) -0.8166(4)
H15A H -0.3250 0.6533 -0.7815
H16A H -0.3700 0.5457 -0.8516
H17A H -0.2933 0.6158 -0.8569
loop_
_geom_bond_atom_site_label_1
_geom_bond_atom_site_label_2
_geom_bond_site_symmetry_1
_geom_bond_site_symmetry_2
O1 C12 1_555 1_555
C1 H1 1_555 1_555
C2 C1 1_555 1_555
H2 C2 1_555 1_555
C3 C2 1_555 1_555
H3 C3 1_555 1_555
C4 C3 1_555 1_555
C5 C4 1_555 1_555
C6 C1 1_555 1_555
H4 C6 1_555 1_555
C7 C4 1_555 1_555
C8 C7 1_555 1_555
C9 C8 1_555 1_555
C10 C9 1_555 1_555
H5 C10 1_555 1_555
C11 C10 1_555 1_555
H6 C11 1_555 1_555
C12 C11 1_555 1_555
C13 C12 1_555 1_555
H7 C13 1_555 1_555
C14 C9 1_555 1_555
H8 C14 1_555 1_555
C15 O1 1_555 1_555
H9 C15 1_555 1_555
H10 C15 1_555 1_555
C16 C15 1_555 1_555
H11 C16 1_555 1_555
H12 C16 1_555 1_555
C17 C16 1_555 1_555
H13 C17 1_555 1_555
H14 C17 1_555 1_555
C18 C17 1_555 1_555
H15 C18 1_555 1_555
H16 C18 1_555 1_555
H17 C18 1_555 1_555
O1A C12A 1_555 1_555
C1A H1A 1_555 1_555
C2A C1A 1_555 1_555
H2A C2A 1_555 1_555
C3A C2A 1_555 1_555
H3A C3A 1_555 1_555
C4A C7 1_555 1_555
C5A C5 1_555 1_555
C6A C1A 1_555 1_555
H4A C6A 1_555 1_555
C9A C8 1_555 1_555
C10A C9A 1_555 1_555
H5A C10A 1_555 1_555
C11A C10A 1_555 1_555
H6A C11A 1_555 1_555
C12A C11A 1_555 1_555
C13A C12A 1_555 1_555
H7A C13A 1_555 1_555
C14A C9A 1_555 1_555
H8A C14A 1_555 1_555
C15A O1A 1_555 1_555
H9A C15A 1_555 1_555
H10A C15A 1_555 1_555
C16A C15A 1_555 1_555
H11A C16A 1_555 1_555
H12A C16A 1_555 1_555
C17A C16A 1_555 1_555
H13A C17A 1_555 1_555
H14A C17A 1_555 1_555
C18A C17A 1_555 1_555
H15A C18A 1_555 1_555
H16A C18A 1_555 1_555
H17A C18A 1_555 1_555
C5 C6 1_555 1_555
C13 C14 1_555 1_555
C3A C4A 1_555 1_555
C4A C5A 1_555 1_555
C5A C6A 1_555 1_555
C13A C14A 1_555 1_555

#END
