
#######################################################################
#
#                 Cambridge Crystallographic Data Centre
#                                CCDC 
#
#######################################################################
#
# If this CIF has been generated from an entry in the Cambridge 
# Structural Database, then it will include bibliographic, chemical, 
# crystal, experimental, refinement or atomic coordinate data resulting 
# from the CCDC's data processing and validation procedures.
#
#######################################################################

data_QEWSES
_chemical_formula_moiety         'C28 H30 N6 O8'
_chemical_name_systematic        
'4-((((5-(Cyclopropylcarbamoyl)-2-methylphenyl)(5-methyl-6-(propylcarbamoyl)pyrrolo[2,1-f][1,2,4]triazin-4-yl)carbamoyl)oxy)methoxy)-4-oxobut-2-enoic acid'
_symmetry_cell_setting           orthorhombic
_symmetry_space_group_name_H-M   'P c a 21'
_symmetry_Int_Tables_number      29
_space_group_name_Hall           'P 2c -2ac'
loop_
_symmetry_equiv_pos_site_id
_symmetry_equiv_pos_as_xyz
1 x,y,z
2 -x,-y,1/2+z
3 1/2-x,y,1/2+z
4 1/2+x,-y,z
_cell_length_a                   9.5541(14)
_cell_length_b                   13.904(2)
_cell_length_c                   21.4498(14)
_cell_angle_alpha                90
_cell_angle_beta                 90
_cell_angle_gamma                90
_cell_volume                     2849.4
_exptl_crystal_colour            'pale yellow'
_exptl_crystal_description       prism
_cell_formula_units_Z            4
loop_
_atom_site_label
_atom_site_type_symbol
_atom_site_fract_x
_atom_site_fract_y
_atom_site_fract_z
O1 O 0.5864(9) 0.0946(6) 0.1665(4)
O2 O 0.3774(10) 0.1440(6) 0.1308(5)
O3 O 0.2028(10) 0.5528(7) 0.0272(5)
O4 O 0.4609(9) -0.0390(6) 0.1992(5)
C1 C 0.4357(15) 0.3296(9) 0.1581(7)
N1 N 0.5391(11) 0.2516(7) 0.1622(5)
N2 N 0.6926(10) 0.3219(8) 0.2328(6)
N3 N 0.9447(11) 0.3229(8) 0.2226(6)
N4 N 0.9246(11) 0.2755(7) 0.1666(6)
C2 C 0.3306(13) 0.4558(9) 0.1003(7)
N5 N 0.4287(12) 0.5240(8) 0.0071(6)
C3 C 0.7923(13) 0.2505(8) 0.1422(6)
C4 C 0.2431(14) 0.4728(9) 0.1487(7)
C5 C 1.0278(15) 0.2502(10) 0.1277(7)
C6 C 0.3160(14) 0.5142(10) 0.0441(7)
O5 O 0.9739(12) 0.1231(8) -0.0222(6)
C7 C 0.2542(16) 0.4218(10) 0.2022(8)
C8 C 0.9665(14) 0.2071(9) 0.0766(7)
O6 O 0.1069(17) -0.0863(10) 0.3634(8)
O7 O 0.6507(11) -0.0984(8) 0.2485(6)
C9 C 0.4265(18) -0.1225(11) 0.2939(9)
N6 N 1.1770(13) 0.1571(9) 0.0255(7)
C10 C 0.8163(14) 0.2090(9) 0.0846(8)
C11 C 0.5489(13) -0.0019(10) 0.1515(7)
C12 C 0.8295(14) 0.3437(10) 0.2497(7)
C13 C 0.4288(14) 0.3839(9) 0.1058(7)
C14 C 0.3590(18) 0.2860(11) 0.2691(9)
C15 C 0.3472(13) 0.3473(9) 0.2101(7)
C16 C 0.6782(12) 0.2749(8) 0.1810(7)
C17 C 0.7105(17) 0.1748(12) 0.0394(9)
C18 C 0.2996(17) -0.0997(12) 0.2993(9)
C19 C 0.5217(17) -0.0844(12) 0.2446(9)
C20 C 0.4944(15) 0.1635(9) 0.1528(7)
C21 C 0.4200(19) 0.5827(13) -0.0454(10)
C22 C 1.264(2) 0.1076(14) -0.0216(11)
C23 C 1.0373(16) 0.1632(11) 0.0226(9)
C24 C 1.386(2) 0.2523(14) -0.0659(11)
C25 C 1.287(2) 0.1697(15) -0.0761(12)
C26 C 0.543(3) 0.614(2) -0.0826(14)
C27 C 0.431(3) 0.544(2) -0.1074(16)
O8 O 0.2461(15) -0.2129(9) 0.3785(6)
C28 C 0.212(2) -0.1400(14) 0.3542(10)
H1 H 0.507025 0.497115 0.016487
H2 H 0.350494 0.634451 -0.042684
H3 H 0.373898 0.569311 -0.141210
H4 H 0.449998 0.475611 -0.109910
H5 H 0.628927 0.584275 -0.067591
H6 H 0.552727 0.678175 -0.098991
H7 H 0.489910 0.370931 0.073131
H8 H 0.174749 0.520099 0.144733
H9 H 0.196433 0.435766 0.235858
H10 H 0.344173 0.219353 0.259748
H11 H 0.287773 0.307853 0.297347
H12 H 0.449273 0.293953 0.288148
H13 H 0.838985 0.378830 0.286357
H14 H 1.123158 0.260946 0.132997
H15 H 0.617925 0.192893 0.052162
H16 H 0.715725 0.106093 0.035462
H17 H 0.731425 0.203993 -0.000138
H18 H 1.350801 0.082997 -0.004739
H19 H 1.208201 0.053297 -0.035639
H20 H 1.198603 0.191670 -0.093062
H21 H 1.332803 0.131770 -0.108062
H22 H 1.340907 0.292128 -0.035270
H23 H 1.398607 0.288328 -0.103670
H24 H 1.475607 0.232028 -0.050370
H25 H 0.498460 -0.002328 0.112198
H26 H 0.631860 -0.041528 0.147198
H27 H 0.459939 -0.168124 0.321984
H28 H 0.260343 -0.057545 0.270381
H29 H 1.222004 0.184559 0.055380
H30 H 0.060769 -0.106999 0.392677
loop_
_geom_bond_atom_site_label_1
_geom_bond_atom_site_label_2
_geom_bond_site_symmetry_1
_geom_bond_site_symmetry_2
O1 C11 1_555 1_555
O2 C20 1_555 1_555
O3 C6 1_555 1_555
O4 C11 1_555 1_555
C1 N1 1_555 1_555
N1 C16 1_555 1_555
N2 C12 1_555 1_555
N3 N4 1_555 1_555
N4 C3 1_555 1_555
C2 C4 1_555 1_555
N5 C6 1_555 1_555
C3 C10 1_555 1_555
C4 C7 1_555 1_555
C5 N4 1_555 1_555
C6 C2 1_555 1_555
O5 C23 1_555 1_555
C7 C15 1_555 1_555
C8 C5 1_555 1_555
O6 C28 1_555 1_555
O7 C19 1_555 1_555
C9 C18 1_555 1_555
N6 C22 1_555 1_555
C10 C8 1_555 1_555
C11 H25 1_555 1_555
C12 N3 1_555 1_555
C13 C1 1_555 1_555
C14 C15 1_555 1_555
C15 C1 1_555 1_555
C16 N2 1_555 1_555
C17 C10 1_555 1_555
C18 C28 1_555 1_555
C19 O4 1_555 1_555
C20 O1 1_555 1_555
C21 N5 1_555 1_555
C22 C25 1_555 1_555
C23 C8 1_555 1_555
C24 C25 1_555 1_555
C25 H20 1_555 1_555
C26 C21 1_555 1_555
C27 C21 1_555 1_555
O8 C28 1_555 1_555
H1 N5 1_555 1_555
H2 C21 1_555 1_555
H3 C27 1_555 1_555
H4 C27 1_555 1_555
H5 C26 1_555 1_555
H6 C26 1_555 1_555
H7 C13 1_555 1_555
H8 C4 1_555 1_555
H9 C7 1_555 1_555
H10 C14 1_555 1_555
H11 C14 1_555 1_555
H12 C14 1_555 1_555
H13 C12 1_555 1_555
H14 C5 1_555 1_555
H15 C17 1_555 1_555
H16 C17 1_555 1_555
H17 C17 1_555 1_555
H18 C22 1_555 1_555
H19 C22 1_555 1_555
H21 C25 1_555 1_555
H22 C24 1_555 1_555
H23 C24 1_555 1_555
H24 C24 1_555 1_555
H26 C11 1_555 1_555
H27 C9 1_555 1_555
H28 C18 1_555 1_555
H29 N6 1_555 1_555
H30 O6 1_555 1_555
N1 C20 1_555 1_555
C2 C13 1_555 1_555
C3 C16 1_555 1_555
C9 C19 1_555 1_555
N6 C23 1_555 1_555
C26 C27 1_555 1_555

#END
