
#######################################################################
#
#                 Cambridge Crystallographic Data Centre
#                                CCDC 
#
#######################################################################
#
# If this CIF has been generated from an entry in the Cambridge 
# Structural Database, then it will include bibliographic, chemical, 
# crystal, experimental, refinement or atomic coordinate data resulting 
# from the CCDC's data processing and validation procedures.
#
#######################################################################

data_QEWYIB
_chemical_formula_moiety         'C18 H8 Br1 Cl2 F3 N4'
_chemical_name_systematic        
1-(2,6-Dichloro-4-(trifluoromethyl)phenyl)-5-((3-bromophenyl)methyleneimino)-1H-pyrazole-3-carbonitrile
_symmetry_cell_setting           monoclinic
_symmetry_space_group_name_H-M   'P 21/c'
_symmetry_Int_Tables_number      14
_space_group_name_Hall           '-P 2ybc'
loop_
_symmetry_equiv_pos_site_id
_symmetry_equiv_pos_as_xyz
1 x,y,z
2 -x,1/2+y,1/2-z
3 -x,-y,-z
4 x,1/2-y,1/2+z
_cell_length_a                   13.0635(12)
_cell_length_b                   14.6916(14)
_cell_length_c                   9.9933(9)
_cell_angle_alpha                90
_cell_angle_beta                 101.361(2)
_cell_angle_gamma                90
_cell_volume                     1880.37
_exptl_crystal_colour            colorless
_exptl_crystal_description       block
_cell_formula_units_Z            4
_exptl_crystal_recrystallization_method methanol
loop_
_atom_site_label
_atom_site_type_symbol
_atom_site_fract_x
_atom_site_fract_y
_atom_site_fract_z
Br1 Br 1.00047(4) 0.71947(3) 1.14718(5)
Cl1 Cl 0.59122(10) 0.50913(10) 0.67120(14)
Cl2 Cl 0.80475(9) 0.68624(8) 0.34258(12)
F1 F 0.4743(8) 0.8488(4) 0.6413(11)
F2 F 0.4882(5) 0.8884(4) 0.4587(6)
F3 F 0.5977(4) 0.9166(3) 0.6172(7)
N1 N 0.7382(2) 0.5224(2) 0.4818(3)
N2 N 0.6882(3) 0.4689(2) 0.3803(3)
N3 N 0.6932(5) 0.2658(3) 0.2188(6)
N4 N 0.8835(3) 0.5319(2) 0.6645(3)
C1 C 0.5376(4) 0.8547(4) 0.5667(6)
C2 C 0.5898(4) 0.7664(3) 0.5477(5)
C3 C 0.6652(3) 0.7669(3) 0.4671(4)
H1 H 0.6826 0.8206 0.4275
C4 C 0.7135(3) 0.6865(3) 0.4472(4)
C5 C 0.6903(3) 0.6062(3) 0.5074(4)
C6 C 0.6175(3) 0.6076(3) 0.5909(4)
C7 C 0.5657(4) 0.6874(3) 0.6098(5)
H2 H 0.5152 0.6878 0.6637
C8 C 0.7482(3) 0.3954(3) 0.3895(4)
C9 C 0.8362(3) 0.4018(3) 0.4945(4)
H3 H 0.8890 0.3590 0.5194
C10 C 0.8274(3) 0.4852(3) 0.5523(4)
C11 C 0.7182(4) 0.3228(3) 0.2945(5)
C12 C 0.9781(3) 0.5107(3) 0.7079(4)
H4 H 1.0091 0.4691 0.6580
C13 C 1.0407(3) 0.5485(2) 0.8324(4)
C14 C 0.9977(3) 0.6091(2) 0.9144(4)
H5 H 0.9290 0.6287 0.8882
C15 C 1.0582(3) 0.6388(3) 1.0331(4)
C16 C 1.1613(4) 0.6110(3) 1.0765(5)
H6 H 1.2008 0.6318 1.1585
C17 C 1.2032(3) 0.5520(3) 0.9952(5)
H7 H 1.2721 0.5328 1.0218
C18 C 1.1435(3) 0.5208(3) 0.8738(4)
H8 H 1.1726 0.4808 0.8196
loop_
_geom_bond_atom_site_label_1
_geom_bond_atom_site_label_2
_geom_bond_site_symmetry_1
_geom_bond_site_symmetry_2
Br1 C15 1_555 1_555
Cl1 C6 1_555 1_555
Cl2 C4 1_555 1_555
F1 C1 1_555 1_555
F2 C1 1_555 1_555
F3 C1 1_555 1_555
N1 N2 1_555 1_555
N2 C8 1_555 1_555
N3 C11 1_555 1_555
N4 C10 1_555 1_555
C1 C2 1_555 1_555
C2 C3 1_555 1_555
C3 H1 1_555 1_555
C4 C3 1_555 1_555
C5 N1 1_555 1_555
C6 C5 1_555 1_555
C7 C2 1_555 1_555
H2 C7 1_555 1_555
C8 C9 1_555 1_555
C9 H3 1_555 1_555
C10 N1 1_555 1_555
C11 C8 1_555 1_555
C12 N4 1_555 1_555
H4 C12 1_555 1_555
C13 C12 1_555 1_555
C14 C13 1_555 1_555
H5 C14 1_555 1_555
C15 C14 1_555 1_555
C16 C15 1_555 1_555
H6 C16 1_555 1_555
C17 C16 1_555 1_555
H7 C17 1_555 1_555
C18 C13 1_555 1_555
H8 C18 1_555 1_555
C4 C5 1_555 1_555
C6 C7 1_555 1_555
C9 C10 1_555 1_555
C17 C18 1_555 1_555

#END
