
#######################################################################
#
#                 Cambridge Crystallographic Data Centre
#                                CCDC 
#
#######################################################################
#
# If this CIF has been generated from an entry in the Cambridge 
# Structural Database, then it will include bibliographic, chemical, 
# crystal, experimental, refinement or atomic coordinate data resulting 
# from the CCDC's data processing and validation procedures.
#
#######################################################################

data_QEXJEJ
_chemical_name_common            
'1,10-Phenanthrolin-1-ium pamoate N,N-dimethylformamide solvate'
_chemical_formula_moiety         'C12 H9 N2 1+,C23 H15 O6 1-,C3 H7 N1 O1'
_chemical_name_systematic        
'1,10-Phenanthrolin-1-ium 4-(3-carboxy-2-hydroxynaphthylmethyl)-3-hydroxy-2-naphthoate N,N-dimethylformamide solvate'
_symmetry_cell_setting           triclinic
_symmetry_space_group_name_H-M   'P -1'
_symmetry_Int_Tables_number      2
_space_group_name_Hall           '-P 1'
loop_
_symmetry_equiv_pos_site_id
_symmetry_equiv_pos_as_xyz
1 x,y,z
2 -x,-y,-z
_cell_length_a                   10.7047(12)
_cell_length_b                   11.7544(14)
_cell_length_c                   13.4577(15)
_cell_angle_alpha                82.238(3)
_cell_angle_beta                 72.346(2)
_cell_angle_gamma                71.824(2)
_cell_volume                     1531.55
_exptl_crystal_colour            yellow
_exptl_crystal_description       block
_cell_formula_units_Z            2
loop_
_atom_site_label
_atom_site_type_symbol
_atom_site_fract_x
_atom_site_fract_y
_atom_site_fract_z
O1 O 0.3385(2) 0.6305(2) 0.40643(19)
H1 H 0.3260 0.6346 0.3487
O2 O 0.3198(3) 0.7085(3) 0.2250(2)
O3 O 0.4025(3) 0.8585(3) 0.1483(2)
H2 H 0.3675 0.8571 0.1022
O4 O 0.5005(2) 0.6315(2) 0.76568(18)
H3 H 0.5148 0.6408 0.8201
O5 O 0.4809(3) 0.7152(3) 0.9351(2)
O6 O 0.3007(3) 0.8635(2) 1.0062(2)
C1 C 0.4575(3) 0.7112(3) 0.4872(2)
C2 C 0.4141(3) 0.7066(3) 0.4022(3)
C3 C 0.4400(3) 0.7825(3) 0.3101(3)
C4 C 0.5159(3) 0.8586(3) 0.3066(3)
H4 H 0.5307 0.9107 0.2487
C5 C 0.5718(3) 0.8599(3) 0.3884(3)
C6 C 0.6537(4) 0.9372(3) 0.3825(3)
H5 H 0.6703 0.9876 0.3236
C7 C 0.7077(4) 0.9386(4) 0.4609(3)
H6 H 0.7594 0.9906 0.4567
C8 C 0.6846(4) 0.8607(4) 0.5484(3)
H7 H 0.7238 0.8599 0.6015
C9 C 0.6068(3) 0.7866(3) 0.5576(3)
H8 H 0.5937 0.7361 0.6169
C10 C 0.5446(3) 0.7843(3) 0.4788(2)
C11 C 0.4130(3) 0.6405(3) 0.5879(2)
H9 H 0.4936 0.5863 0.6048
H10 H 0.3597 0.5924 0.5771
C12 C 0.3280(3) 0.7195(3) 0.6801(2)
C13 C 0.3788(3) 0.7122(3) 0.7641(2)
C14 C 0.3072(4) 0.7913(3) 0.8486(3)
C15 C 0.1827(3) 0.8703(3) 0.8476(3)
H11 H 0.1364 0.9216 0.9024
C16 C 0.1223(3) 0.8767(3) 0.7673(3)
C17 C -0.0079(3) 0.9569(3) 0.7675(3)
H12 H -0.0560 1.0072 0.8228
C18 C -0.0634(4) 0.9613(4) 0.6886(3)
H13 H -0.1479 1.0157 0.6888
C19 C 0.0071(4) 0.8836(3) 0.6067(3)
H14 H -0.0323 0.8857 0.5534
C20 C 0.1315(3) 0.8053(3) 0.6033(3)
H15 H 0.1756 0.7547 0.5479
C21 C 0.1960(3) 0.7988(3) 0.6829(2)
C22 C 0.3831(4) 0.7811(4) 0.2230(3)
C23 C 0.3685(4) 0.7879(4) 0.9349(3)
O7 O 1.1274(3) 0.3979(3) 0.2835(3)
N1 N 1.0023(3) 0.5664(3) 0.3690(3)
C24 C 1.0009(5) 0.6714(5) 0.4148(4)
H16 H 1.0886 0.6601 0.4257
H17 H 0.9317 0.6835 0.4805
H18 H 0.9814 0.7402 0.3687
C25 C 0.8717(5) 0.5550(5) 0.3679(4)
H19 H 0.8869 0.4908 0.3244
H20 H 0.8205 0.6285 0.3408
H21 H 0.8213 0.5380 0.4376
C26 C 1.1172(4) 0.4862(4) 0.3257(3)
H22 H 1.1981 0.4985 0.3278
N2 N 0.8664(3) 0.4601(3) 0.1335(3)
N3 N 1.1160(3) 0.2988(3) 0.1192(2)
H23 H 1.0834 0.3479 0.1689
C27 C 0.7437(4) 0.5349(4) 0.1388(4)
H24 H 0.7029 0.5853 0.1946
C28 C 0.6711(5) 0.5437(4) 0.0669(4)
H25 H 0.5858 0.5996 0.0740
C29 C 0.7271(5) 0.4693(5) -0.0138(4)
H26 H 0.6796 0.4729 -0.0623
C30 C 0.8558(5) 0.3876(4) -0.0237(3)
C31 C 0.9216(6) 0.3031(4) -0.1043(4)
H27 H 0.8778 0.3029 -0.1543
C32 C 1.0447(5) 0.2242(4) -0.1097(3)
H28 H 1.0848 0.1709 -0.1634
C33 C 1.1151(4) 0.2210(4) -0.0340(3)
C34 C 1.2429(5) 0.1412(4) -0.0338(4)
H29 H 1.2871 0.0861 -0.0860
C35 C 1.3039(4) 0.1424(4) 0.0410(4)
H30 H 1.3894 0.0893 0.0399
C36 C 1.2370(4) 0.2236(4) 0.1190(4)
H31 H 1.2771 0.2253 0.1709
C37 C 1.0518(4) 0.3012(3) 0.0463(3)
C38 C 0.9205(4) 0.3860(3) 0.0532(3)
loop_
_geom_bond_atom_site_label_1
_geom_bond_atom_site_label_2
_geom_bond_site_symmetry_1
_geom_bond_site_symmetry_2
O1 H1 1_555 1_555
O2 C22 1_555 1_555
O3 H2 1_555 1_555
O4 H3 1_555 1_555
O5 C23 1_555 1_555
O6 C23 1_555 1_555
C1 C2 1_555 1_555
C2 O1 1_555 1_555
C3 C2 1_555 1_555
C4 C3 1_555 1_555
H4 C4 1_555 1_555
C5 C4 1_555 1_555
C6 C5 1_555 1_555
H5 C6 1_555 1_555
C7 C6 1_555 1_555
H6 C7 1_555 1_555
C8 C7 1_555 1_555
H7 C8 1_555 1_555
C9 C8 1_555 1_555
H8 C9 1_555 1_555
C10 C1 1_555 1_555
C11 C1 1_555 1_555
H9 C11 1_555 1_555
H10 C11 1_555 1_555
C12 C11 1_555 1_555
C13 O4 1_555 1_555
C14 C13 1_555 1_555
C15 C14 1_555 1_555
H11 C15 1_555 1_555
C16 C15 1_555 1_555
C17 C16 1_555 1_555
H12 C17 1_555 1_555
C18 C17 1_555 1_555
H13 C18 1_555 1_555
C19 C18 1_555 1_555
H14 C19 1_555 1_555
C20 C19 1_555 1_555
H15 C20 1_555 1_555
C21 C12 1_555 1_555
C22 O3 1_555 1_555
C23 C14 1_555 1_555
O7 C26 1_555 1_555
N1 C24 1_555 1_555
C24 H16 1_555 1_555
H17 C24 1_555 1_555
H18 C24 1_555 1_555
C25 N1 1_555 1_555
H19 C25 1_555 1_555
H20 C25 1_555 1_555
H21 C25 1_555 1_555
C26 N1 1_555 1_555
H22 C26 1_555 1_555
N2 C27 1_555 1_555
N3 H23 1_555 1_555
C27 H24 1_555 1_555
C28 C27 1_555 1_555
H25 C28 1_555 1_555
C29 C28 1_555 1_555
H26 C29 1_555 1_555
C30 C29 1_555 1_555
C31 C30 1_555 1_555
H27 C31 1_555 1_555
C32 C31 1_555 1_555
H28 C32 1_555 1_555
C33 C32 1_555 1_555
C34 C33 1_555 1_555
H29 C34 1_555 1_555
C35 C34 1_555 1_555
H30 C35 1_555 1_555
C36 N3 1_555 1_555
H31 C36 1_555 1_555
C37 N3 1_555 1_555
C38 N2 1_555 1_555
C3 C22 1_555 1_555
C5 C10 1_555 1_555
C9 C10 1_555 1_555
C12 C13 1_555 1_555
C16 C21 1_555 1_555
C20 C21 1_555 1_555
C30 C38 1_555 1_555
C33 C37 1_555 1_555
C35 C36 1_555 1_555
C37 C38 1_555 1_555

#END
