
#######################################################################
#
#                 Cambridge Crystallographic Data Centre
#                                CCDC 
#
#######################################################################
#
# If this CIF has been generated from an entry in the Cambridge 
# Structural Database, then it will include bibliographic, chemical, 
# crystal, experimental, refinement or atomic coordinate data resulting 
# from the CCDC's data processing and validation procedures.
#
#######################################################################

data_QEXKAG
_chemical_formula_moiety         'C22 H14 O6,2(C3 H7 N1 O1)'
_chemical_name_systematic        
'2,5-Dibenzoylterephthalic acid N,N-dimethylformamide solvate'
_symmetry_cell_setting           triclinic
_symmetry_space_group_name_H-M   'P -1'
_symmetry_Int_Tables_number      2
_space_group_name_Hall           '-P 1'
loop_
_symmetry_equiv_pos_site_id
_symmetry_equiv_pos_as_xyz
1 x,y,z
2 -x,-y,-z
_cell_length_a                   6.0430(12)
_cell_length_b                   8.5950(17)
_cell_length_c                   13.211(3)
_cell_angle_alpha                95.57(3)
_cell_angle_beta                 101.64(3)
_cell_angle_gamma                93.47(3)
_cell_volume                     666.627
_exptl_crystal_colour            colorless
_exptl_crystal_description       block
_cell_formula_units_Z            1
loop_
_atom_site_label
_atom_site_type_symbol
_atom_site_fract_x
_atom_site_fract_y
_atom_site_fract_z
O1 O -0.0209(2) 0.49459(15) 0.30597(11)
O2 O 0.4007(2) 0.50710(16) 0.21706(10)
O3 O 0.5343(2) 0.27867(15) 0.25805(10)
H1 H 0.5595 0.2710 0.1991
C1 C -0.1356(3) 0.8102(2) 0.31281(16)
H2 H -0.2563 0.7343 0.2896
C2 C -0.1692(4) 0.9661(2) 0.30672(19)
H3 H -0.3135 0.9954 0.2805
C3 C 0.0089(4) 1.0792(2) 0.33911(17)
H4 H -0.0145 1.1843 0.3339
C4 C 0.2228(4) 1.0360(2) 0.37942(17)
H5 H 0.3434 1.1123 0.4011
C5 C 0.2581(3) 0.8803(2) 0.38758(15)
H6 H 0.4019 0.8521 0.4158
C6 C 0.0800(3) 0.7657(2) 0.35390(13)
C7 C 0.1153(3) 0.5968(2) 0.35634(13)
C8 C 0.3229(3) 0.55174(18) 0.42901(13)
C9 C 0.3485(3) 0.5954(2) 0.53462(13)
H7 H 0.2472 0.6601 0.5581
C10 C 0.4763(3) 0.45605(19) 0.39345(13)
C11 C 0.4642(3) 0.4173(2) 0.27936(14)
O1A O 1.0209(2) 0.50541(15) 0.69403(11)
O2A O 0.5993(2) 0.49290(16) 0.78294(10)
O3A O 0.4657(2) 0.72133(15) 0.74195(10)
H1A H 0.4405 0.7290 0.8009
C1A C 1.1356(3) 0.1898(2) 0.68719(16)
H2A H 1.2563 0.2657 0.7104
C2A C 1.1692(4) 0.0339(2) 0.69328(19)
H3A H 1.3135 0.0046 0.7195
C3A C 0.9911(4) -0.0792(2) 0.66089(17)
H4A H 1.0145 -0.1843 0.6661
C4A C 0.7772(4) -0.0360(2) 0.62058(17)
H5A H 0.6566 -0.1123 0.5989
C5A C 0.7419(3) 0.1197(2) 0.61242(15)
H6A H 0.5981 0.1479 0.5842
C6A C 0.9200(3) 0.2343(2) 0.64610(13)
C7A C 0.8847(3) 0.4032(2) 0.64366(13)
C8A C 0.6771(3) 0.44826(18) 0.57099(13)
C9A C 0.6515(3) 0.4046(2) 0.46538(13)
H7A H 0.7528 0.3399 0.4419
C10A C 0.5237(3) 0.54395(19) 0.60655(13)
C11A C 0.5358(3) 0.5827(2) 0.72064(14)
O4 O 0.6302(3) 0.2095(2) 0.08213(12)
N1 N 0.8899(3) 0.2282(3) -0.01663(14)
C12 C 1.1063(6) 0.2957(5) -0.0310(3)
H8 H 1.1746 0.3684 0.0285
H9 H 1.0826 0.3495 -0.0922
H10 H 1.2045 0.2136 -0.0389
C13 C 0.7513(5) 0.1304(4) -0.1035(2)
H11 H 0.6344 0.0717 -0.0803
H12 H 0.8433 0.0594 -0.1334
H13 H 0.6835 0.1948 -0.1548
C14 C 0.8143(5) 0.2607(3) 0.06872(18)
H14 H 0.9067 0.3269 0.1226
loop_
_geom_bond_atom_site_label_1
_geom_bond_atom_site_label_2
_geom_bond_site_symmetry_1
_geom_bond_site_symmetry_2
O1 C7 1_555 1_555
O2 C11 1_555 1_555
O3 H1 1_555 1_555
C1 H2 1_555 1_555
C2 C1 1_555 1_555
H3 C2 1_555 1_555
C3 C2 1_555 1_555
H4 C3 1_555 1_555
C4 C3 1_555 1_555
H5 C4 1_555 1_555
C5 C4 1_555 1_555
H6 C5 1_555 1_555
C6 C1 1_555 1_555
C7 C6 1_555 1_555
C8 C7 1_555 1_555
C9 C8 1_555 1_555
H7 C9 1_555 1_555
C10 C8 1_555 1_555
C11 O3 1_555 1_555
O4 C14 1_555 1_555
N1 C12 1_555 1_555
C12 H8 1_555 1_555
H9 C12 1_555 1_555
H10 C12 1_555 1_555
C13 N1 1_555 1_555
H11 C13 1_555 1_555
H12 C13 1_555 1_555
H13 C13 1_555 1_555
C14 N1 1_555 1_555
H14 C14 1_555 1_555
O1A C7A 1_555 1_555
O2A C11A 1_555 1_555
O3A H1A 1_555 1_555
C1A H2A 1_555 1_555
C2A C1A 1_555 1_555
H3A C2A 1_555 1_555
C3A C2A 1_555 1_555
H4A C3A 1_555 1_555
C4A C3A 1_555 1_555
H5A C4A 1_555 1_555
C5A C4A 1_555 1_555
H6A C5A 1_555 1_555
C6A C1A 1_555 1_555
C7A C6A 1_555 1_555
C8A C7A 1_555 1_555
C9A C10 1_555 1_555
H7A C9A 1_555 1_555
C10A C9 1_555 1_555
C11A O3A 1_555 1_555
C5 C6 1_555 1_555
C10 C11 1_555 1_555
C5A C6A 1_555 1_555
C8A C9A 1_555 1_555
C8A C10A 1_555 1_555
C10A C11A 1_555 1_555

#END
