
#######################################################################
#
#                 Cambridge Crystallographic Data Centre
#                                CCDC 
#
#######################################################################
#
# If this CIF has been generated from an entry in the Cambridge 
# Structural Database, then it will include bibliographic, chemical, 
# crystal, experimental, refinement or atomic coordinate data resulting 
# from the CCDC's data processing and validation procedures.
#
#######################################################################

data_QEXKUZ
_chemical_formula_moiety         'C32 H32 N2 O8'
_chemical_name_systematic        
3,3',5,5'-tetrakis(Ethoxycarbonyl)-4,4'-diphenyl-2,2'-bipyrrolyl
_symmetry_cell_setting           orthorhombic
_symmetry_space_group_name_H-M   'I b a m'
_symmetry_Int_Tables_number      72
_space_group_name_Hall           '-I 2 2c'
loop_
_symmetry_equiv_pos_site_id
_symmetry_equiv_pos_as_xyz
1 x,y,z
2 1/2+x,1/2+y,1/2+z
3 x,y,-z
4 1/2+x,1/2-y,z
5 1/2-x,1/2+y,z
6 1/2+x,1/2+y,1/2-z
7 x,-y,1/2+z
8 -x,y,1/2+z
9 -x,-y,-z
10 1/2-x,1/2-y,1/2-z
11 -x,-y,z
12 1/2-x,1/2+y,-z
13 1/2+x,1/2-y,-z
14 1/2-x,1/2-y,1/2+z
15 -x,y,1/2-z
16 x,-y,1/2-z
_cell_length_a                   14.3634(19)
_cell_length_b                   27.535(4)
_cell_length_c                   7.2722(10)
_cell_angle_alpha                90
_cell_angle_beta                 90
_cell_angle_gamma                90
_cell_volume                     2876.13
_exptl_crystal_colour            colorless
_exptl_crystal_description       needle
_cell_formula_units_Z            4
_exptl_crystal_recrystallization_method dichloromethane/methanol
loop_
_atom_site_label
_atom_site_type_symbol
_atom_site_fract_x
_atom_site_fract_y
_atom_site_fract_z
O1 O -0.09185(5) 0.39891(3) 0.5000
O2 O 0.03205(5) 0.35191(3) 0.5000
O3 O 0.35806(5) 0.45883(3) 0.5000
O4 O 0.30841(5) 0.53528(3) 0.5000
N1 N 0.12671(5) 0.50743(3) 0.5000
H1 H 0.1356 0.5403 0.5000
C1 C 0.06012(7) 0.43471(3) 0.5000
C2 C 0.15816(7) 0.42830(3) 0.5000
C3 C 0.19712(7) 0.47384(4) 0.5000
C4 C 0.04255(6) 0.48544(3) 0.5000
C5 C -0.00772(7) 0.39537(3) 0.5000
C6 C -0.02833(8) 0.30974(4) 0.5000
H2 H -0.0680 0.3098 0.3926
C7 C 0.03639(10) 0.26635(5) 0.5000
H3 H 0.0037(13) 0.2386(6) 0.5000
H4 H 0.0811(19) 0.2655(8) 0.382(3)
C8 C 0.21126(7) 0.38190(4) 0.5000
C9 C 0.23473(6) 0.35961(3) 0.33665(15)
H5 H 0.2207 0.3747 0.2256
C10 C 0.27903(7) 0.31499(3) 0.33662(19)
H6 H 0.2943 0.3001 0.2259
C11 C 0.30038(10) 0.29271(5) 0.5000
H7 H 0.3293 0.2625 0.5000
C12 C 0.29631(7) 0.48747(4) 0.5000
C13 C 0.40708(10) 0.55061(6) 0.5000
H8 H 0.4382 0.5377 0.3933
C14 C 0.41635(13) 0.59982(7) 0.5000
H9 H 0.471(3) 0.6107(12) 0.5000
H10 H 0.396(3) 0.6213(15) 0.5000
H2B H -0.0680 0.3098 0.6074
H4B H 0.0811(19) 0.2655(8) 0.618(3)
C4H C -0.04255(6) 0.51456(3) 0.5000
N1H N -0.12671(5) 0.49257(3) 0.5000
H1H H -0.1356 0.4597 0.5000
C3H C -0.19712(7) 0.52616(4) 0.5000
C2H C -0.15816(7) 0.57170(3) 0.5000
C1H C -0.06012(7) 0.56529(3) 0.5000
C5H C 0.00772(7) 0.60463(3) 0.5000
O1H O 0.09185(5) 0.60109(3) 0.5000
O2H O -0.03205(5) 0.64809(3) 0.5000
C6H C 0.02833(8) 0.69026(4) 0.5000
H2H H 0.0680 0.6902 0.6074
H2J H 0.0680 0.6902 0.3926
C7H C -0.03639(10) 0.73365(5) 0.5000
H3H H -0.0037(13) 0.7614(6) 0.5000
H4H H -0.0811(19) 0.7345(8) 0.618(3)
H4J H -0.0811(19) 0.7345(8) 0.382(3)
C8H C -0.21126(7) 0.61810(4) 0.5000
C9H C -0.23473(6) 0.64039(3) 0.66335(15)
H5H H -0.2207 0.6253 0.7744
C10H C -0.27903(7) 0.68501(3) 0.66338(19)
H6H H -0.2943 0.6999 0.7741
C11H C -0.30038(10) 0.70729(5) 0.5000
C10J C -0.27903(7) 0.68501(3) 0.33662(19)
C9J C -0.23473(6) 0.64039(3) 0.33665(15)
H6J H -0.2943 0.6999 0.2259
H7H H -0.3293 0.7375 0.5000
H5J H -0.2207 0.6253 0.2256
C12H C -0.29631(7) 0.51253(4) 0.5000
O3H O -0.35806(5) 0.54117(3) 0.5000
O4H O -0.30841(5) 0.46472(3) 0.5000
C13H C -0.40708(10) 0.44939(6) 0.5000
H8H H -0.4382 0.4623 0.6067
H8J H -0.4382 0.4623 0.3933
C14H C -0.41635(13) 0.40018(7) 0.5000
H9H H -0.471(3) 0.3893(12) 0.5000
H10H H -0.396(3) 0.3787(15) 0.5000
H8B H 0.4382 0.5377 0.6067
C10B C 0.27903(7) 0.31499(3) 0.66338(19)
C9B C 0.23473(6) 0.35961(3) 0.66335(15)
H6B H 0.2943 0.3001 0.7741
H5B H 0.2207 0.3747 0.7744
loop_
_geom_bond_atom_site_label_1
_geom_bond_atom_site_label_2
_geom_bond_site_symmetry_1
_geom_bond_site_symmetry_2
O1 C5 1_555 1_555
O2 C5 1_555 1_555
O3 C12 1_555 1_555
O4 C12 1_555 1_555
N1 H1 1_555 1_555
C1 C2 1_555 1_555
C2 C3 1_555 1_555
C3 N1 1_555 1_555
C4 N1 1_555 1_555
C5 C1 1_555 1_555
C6 O2 1_555 1_555
H2 C6 1_555 1_555
C7 C6 1_555 1_555
H3 C7 1_555 1_555
H4 C7 1_555 1_555
C8 C2 1_555 1_555
C9 C8 1_555 1_555
H5 C9 1_555 1_555
C10 C9 1_555 1_555
H6 C10 1_555 1_555
C11 C10 1_555 1_555
H7 C11 1_555 1_555
C12 C3 1_555 1_555
C13 O4 1_555 1_555
H8 C13 1_555 1_555
C14 C13 1_555 1_555
H9 C14 1_555 1_555
H10 C14 1_555 1_555
H2B C6 1_555 1_555
H4B C7 1_555 1_555
C4H C4 1_555 1_555
N1H C4H 1_555 1_555
H1H N1H 1_555 1_555
C3H N1H 1_555 1_555
C2H C3H 1_555 1_555
C1H C4H 1_555 1_555
C5H C1H 1_555 1_555
O1H C5H 1_555 1_555
O2H C5H 1_555 1_555
C6H O2H 1_555 1_555
H2H C6H 1_555 1_555
H2J C6H 1_555 1_555
C7H C6H 1_555 1_555
H3H C7H 1_555 1_555
H4H C7H 1_555 1_555
H4J C7H 1_555 1_555
C8H C2H 1_555 1_555
C9H C8H 1_555 1_555
H5H C9H 1_555 1_555
C10H C9H 1_555 1_555
H6H C10H 1_555 1_555
C11H C10H 1_555 1_555
C10J C11H 1_555 1_555
C9J C8H 1_555 1_555
H6J C10J 1_555 1_555
H7H C11H 1_555 1_555
H5J C9J 1_555 1_555
C12H C3H 1_555 1_555
O3H C12H 1_555 1_555
O4H C12H 1_555 1_555
C13H O4H 1_555 1_555
H8H C13H 1_555 1_555
H8J C13H 1_555 1_555
C14H C13H 1_555 1_555
H9H C14H 1_555 1_555
H10H C14H 1_555 1_555
H8B C13 1_555 1_555
C10B C11 1_555 1_555
C9B C8 1_555 1_555
H6B C10B 1_555 1_555
H5B C9B 1_555 1_555
C1 C4 1_555 1_555
C2H C1H 1_555 1_555
C10J C9J 1_555 1_555
C10B C9B 1_555 1_555

#END
