
#######################################################################
#
#                 Cambridge Crystallographic Data Centre
#                                CCDC 
#
#######################################################################
#
# If this CIF has been generated from an entry in the Cambridge 
# Structural Database, then it will include bibliographic, chemical, 
# crystal, experimental, refinement or atomic coordinate data resulting 
# from the CCDC's data processing and validation procedures.
#
#######################################################################

data_QEXLIR
_chemical_formula_moiety         'C20 H25 N3 O1'
_chemical_name_systematic        
N-{(diethylamino)[(2,6-dimethylphenyl)amino]methylidene}benzamide
_symmetry_cell_setting           orthorhombic
_symmetry_space_group_name_H-M   'P 21 21 21'
_symmetry_Int_Tables_number      19
_space_group_name_Hall           'P 2ac 2ab'
loop_
_symmetry_equiv_pos_site_id
_symmetry_equiv_pos_as_xyz
1 x,y,z
2 1/2-x,-y,1/2+z
3 1/2+x,1/2-y,-z
4 -x,1/2+y,1/2-z
_cell_length_a                   10.5555(2)
_cell_length_b                   11.8913(2)
_cell_length_c                   14.9558(2)
_cell_angle_alpha                90
_cell_angle_beta                 90
_cell_angle_gamma                90
_cell_volume                     1877.23
_exptl_crystal_colour            colorless
_exptl_crystal_description       block
_cell_formula_units_Z            4
loop_
_atom_site_label
_atom_site_type_symbol
_atom_site_fract_x
_atom_site_fract_y
_atom_site_fract_z
N1 N 0.5913(2) 0.28915(17) 0.48078(13)
H1 H 0.5463 0.2363 0.5039
N2 N 0.7157(2) 0.44450(16) 0.50265(15)
N3 N 0.6628(3) 0.3280(2) 0.62229(16)
O1 O 0.9163(3) 0.3822(2) 0.4981(2)
C1 C 0.6605(3) 0.3526(2) 0.53544(17)
C2 C 0.8363(3) 0.4569(2) 0.48898(15)
C3 C 0.8755(2) 0.5738(3) 0.46110(15)
C4 C 0.7871(3) 0.6569(2) 0.4458(2)
H2 H 0.7013 0.6401 0.4506
C5 C 0.8236(6) 0.7641(3) 0.4235(3)
H3 H 0.7632 0.8199 0.4145
C6 C 0.9463(7) 0.7873(5) 0.4147(3)
H4 H 0.9695 0.8601 0.3991
C7 C 1.0368(5) 0.7125(6) 0.4270(3)
H5 H 1.1215 0.7320 0.4199
C8 C 1.0020(3) 0.6017(5) 0.4513(2)
H6 H 1.0642 0.5476 0.4606
C9 C 0.5871(3) 0.3034(2) 0.38532(16)
C10 C 0.5136(3) 0.3898(3) 0.3500(2)
C11 C 0.5071(5) 0.3960(5) 0.2568(3)
H7 H 0.4600 0.4528 0.2301
C12 C 0.5687(6) 0.3198(6) 0.2049(3)
H8 H 0.5635 0.3254 0.1430
C13 C 0.6376(6) 0.2358(4) 0.2422(3)
H9 H 0.6774 0.1838 0.2052
C14 C 0.6502(4) 0.2257(3) 0.3334(2)
C15 C 0.7273(6) 0.1332(3) 0.3753(4)
H10 H 0.7848 0.1030 0.3317
H11 H 0.6718 0.0747 0.3959
H12 H 0.7745 0.1628 0.4248
C16 C 0.4472(4) 0.4751(4) 0.4095(3)
H13 H 0.5086 0.5264 0.4337
H14 H 0.4050 0.4367 0.4574
H15 H 0.3862 0.5162 0.3749
C17 C 0.7390(4) 0.3950(3) 0.6852(2)
H16 H 0.7700 0.3465 0.7326
H17 H 0.8118 0.4257 0.6541
C18 C 0.6656(5) 0.4872(3) 0.7246(3)
H18 H 0.5916 0.4573 0.7534
H19 H 0.6404 0.5386 0.6784
H20 H 0.7167 0.5261 0.7678
C19 C 0.5785(5) 0.2376(3) 0.6649(2)
H21 H 0.5488 0.2632 0.7229
H22 H 0.5052 0.2239 0.6273
C20 C 0.6508(5) 0.1342(4) 0.6754(4)
H23 H 0.7294 0.1504 0.7049
H24 H 0.6677 0.1024 0.6176
H25 H 0.6030 0.0816 0.7105
loop_
_geom_bond_atom_site_label_1
_geom_bond_atom_site_label_2
_geom_bond_site_symmetry_1
_geom_bond_site_symmetry_2
N1 H1 1_555 1_555
N2 C1 1_555 1_555
N3 C1 1_555 1_555
O1 C2 1_555 1_555
C1 N1 1_555 1_555
C2 N2 1_555 1_555
C3 C2 1_555 1_555
C4 C3 1_555 1_555
H2 C4 1_555 1_555
C5 C4 1_555 1_555
H3 C5 1_555 1_555
C6 C5 1_555 1_555
H4 C6 1_555 1_555
C7 C6 1_555 1_555
H5 C7 1_555 1_555
C8 C3 1_555 1_555
H6 C8 1_555 1_555
C9 N1 1_555 1_555
C10 C9 1_555 1_555
C11 C10 1_555 1_555
H7 C11 1_555 1_555
C12 C11 1_555 1_555
H8 C12 1_555 1_555
C13 C12 1_555 1_555
H9 C13 1_555 1_555
C14 C9 1_555 1_555
C15 C14 1_555 1_555
H10 C15 1_555 1_555
H11 C15 1_555 1_555
H12 C15 1_555 1_555
C16 C10 1_555 1_555
H13 C16 1_555 1_555
H14 C16 1_555 1_555
H15 C16 1_555 1_555
C17 N3 1_555 1_555
H16 C17 1_555 1_555
H17 C17 1_555 1_555
C18 C17 1_555 1_555
H18 C18 1_555 1_555
H19 C18 1_555 1_555
H20 C18 1_555 1_555
C19 N3 1_555 1_555
H21 C19 1_555 1_555
H22 C19 1_555 1_555
C20 C19 1_555 1_555
H23 C20 1_555 1_555
H24 C20 1_555 1_555
H25 C20 1_555 1_555
C7 C8 1_555 1_555
C13 C14 1_555 1_555

#END
