
#######################################################################
#
#                 Cambridge Crystallographic Data Centre
#                                CCDC 
#
#######################################################################
#
# If this CIF has been generated from an entry in the Cambridge 
# Structural Database, then it will include bibliographic, chemical, 
# crystal, experimental, refinement or atomic coordinate data resulting 
# from the CCDC's data processing and validation procedures.
#
#######################################################################

data_QEXQIU
_chemical_formula_moiety         'C25 H24 O4'
_chemical_name_systematic        
1,5-bis(4-Methoxyphenyl)-3-phenylpentane-1,5-dione
_symmetry_cell_setting           monoclinic
_symmetry_space_group_name_H-M   'P 21/n'
_symmetry_Int_Tables_number      14
_space_group_name_Hall           '-P 2yn'
loop_
_symmetry_equiv_pos_site_id
_symmetry_equiv_pos_as_xyz
1 x,y,z
2 1/2-x,1/2+y,1/2-z
3 -x,-y,-z
4 1/2+x,1/2-y,1/2+z
_cell_length_a                   5.673(3)
_cell_length_b                   24.014(14)
_cell_length_c                   15.059(9)
_cell_angle_alpha                90
_cell_angle_beta                 94.028(9)
_cell_angle_gamma                90
_cell_volume                     2046.44
_exptl_crystal_colour            colorless
_exptl_crystal_description       block
_cell_formula_units_Z            4
_exptl_crystal_recrystallization_method ethanol
loop_
_atom_site_label
_atom_site_type_symbol
_atom_site_fract_x
_atom_site_fract_y
_atom_site_fract_z
O1 O 0.3122(5) 0.51834(10) 0.6729(2)
O2 O 1.0007(5) 0.70796(11) 0.56021(19)
O3 O 0.1996(4) 0.31701(10) 0.6882(2)
O4 O 0.7015(4) 0.08606(11) 0.62703(17)
C1 C 0.5051(6) 0.51459(15) 0.6419(2)
C2 C 0.6324(6) 0.56522(14) 0.6179(2)
C3 C 0.8330(6) 0.56456(15) 0.5715(2)
H1 H 0.8916 0.5306 0.5531
C4 C 0.9478(6) 0.61242(16) 0.5519(3)
H2 H 1.0811 0.6108 0.5194
C5 C 0.8669(7) 0.66328(16) 0.5801(2)
C6 C 0.6681(7) 0.66546(15) 0.6250(2)
H3 H 0.6106 0.6996 0.6432
C7 C 0.5515(7) 0.61684(16) 0.6435(2)
H4 H 0.4148 0.6188 0.6740
C8 C 0.9229(9) 0.76179(16) 0.5877(3)
H5 H 0.7819 0.7721 0.5526
H6 H 1.0443 0.7888 0.5796
H7 H 0.8905 0.7605 0.6494
C9 C 0.3897(6) 0.30720(14) 0.6576(2)
C10 C 0.4713(6) 0.24921(14) 0.6490(2)
C11 C 0.6742(6) 0.23511(15) 0.6083(2)
H8 H 0.7655 0.2630 0.5851
C12 C 0.7423(6) 0.18067(15) 0.6017(3)
H9 H 0.8784 0.1720 0.5735
C13 C 0.6126(6) 0.13864(15) 0.6362(2)
C14 C 0.4119(6) 0.15118(15) 0.6764(2)
H10 H 0.3229 0.1230 0.6999
C15 C 0.3409(6) 0.20603(16) 0.6822(2)
H11 H 0.2022 0.2142 0.7090
C16 C 0.5751(7) 0.04041(15) 0.6602(3)
H12 H 0.5590 0.0454 0.7227
H13 H 0.6595 0.0065 0.6508
H14 H 0.4213 0.0384 0.6294
C17 C 0.6115(5) 0.45818(13) 0.6266(2)
H15 H 0.7757 0.4586 0.6493
H16 H 0.6078 0.4514 0.5630
C18 C 0.4852(5) 0.40994(12) 0.6707(2)
H17 H 0.3147 0.4163 0.6609
C19 C 0.5403(6) 0.35451(13) 0.6282(2)
H18 H 0.5175 0.3582 0.5640
H19 H 0.7052 0.3455 0.6427
C20 C 0.5458(6) 0.40946(12) 0.7707(2)
C21 C 0.7603(6) 0.38912(13) 0.8078(3)
H20 H 0.8706 0.3749 0.7710
C22 C 0.8103(7) 0.38988(15) 0.8986(3)
H21 H 0.9542 0.3760 0.9225
C23 C 0.6519(8) 0.41068(16) 0.9540(3)
H22 H 0.6870 0.4109 1.0153
C24 C 0.4406(8) 0.43131(15) 0.9186(3)
H23 H 0.3326 0.4460 0.9560
C25 C 0.3873(6) 0.43048(13) 0.8282(2)
H24 H 0.2425 0.4442 0.8052
loop_
_geom_bond_atom_site_label_1
_geom_bond_atom_site_label_2
_geom_bond_site_symmetry_1
_geom_bond_site_symmetry_2
O1 C1 1_555 1_555
O2 C5 1_555 1_555
O3 C9 1_555 1_555
O4 C13 1_555 1_555
C1 C2 1_555 1_555
C2 C3 1_555 1_555
C3 H1 1_555 1_555
C4 C3 1_555 1_555
H2 C4 1_555 1_555
C5 C4 1_555 1_555
C6 C5 1_555 1_555
H3 C6 1_555 1_555
C7 C2 1_555 1_555
H4 C7 1_555 1_555
C8 O2 1_555 1_555
H5 C8 1_555 1_555
H6 C8 1_555 1_555
H7 C8 1_555 1_555
C9 C10 1_555 1_555
C10 C11 1_555 1_555
C11 H8 1_555 1_555
C12 C11 1_555 1_555
H9 C12 1_555 1_555
C13 C12 1_555 1_555
C14 C13 1_555 1_555
H10 C14 1_555 1_555
C15 C10 1_555 1_555
H11 C15 1_555 1_555
C16 O4 1_555 1_555
H12 C16 1_555 1_555
H13 C16 1_555 1_555
H14 C16 1_555 1_555
C17 C1 1_555 1_555
H15 C17 1_555 1_555
H16 C17 1_555 1_555
C18 C17 1_555 1_555
H17 C18 1_555 1_555
C19 C9 1_555 1_555
H18 C19 1_555 1_555
H19 C19 1_555 1_555
C20 C18 1_555 1_555
C21 C20 1_555 1_555
H20 C21 1_555 1_555
C22 C21 1_555 1_555
H21 C22 1_555 1_555
C23 C22 1_555 1_555
H22 C23 1_555 1_555
C24 C23 1_555 1_555
H23 C24 1_555 1_555
C25 C20 1_555 1_555
H24 C25 1_555 1_555
C6 C7 1_555 1_555
C14 C15 1_555 1_555
C18 C19 1_555 1_555
C24 C25 1_555 1_555

#END
