
#######################################################################
#
#                 Cambridge Crystallographic Data Centre
#                                CCDC 
#
#######################################################################
#
# If this CIF has been generated from an entry in the Cambridge 
# Structural Database, then it will include bibliographic, chemical, 
# crystal, experimental, refinement or atomic coordinate data resulting 
# from the CCDC's data processing and validation procedures.
#
#######################################################################

data_QEXSOC
_chemical_formula_moiety         'C9 H9 N3 S1'
_chemical_name_systematic        5-m-Tolyl-1,3,4-thiadiazol-2-ylamine
_symmetry_cell_setting           triclinic
_symmetry_space_group_name_H-M   'P -1'
_symmetry_Int_Tables_number      2
_space_group_name_Hall           '-P 1'
loop_
_symmetry_equiv_pos_site_id
_symmetry_equiv_pos_as_xyz
1 x,y,z
2 -x,-y,-z
_cell_length_a                   10.793(2)
_cell_length_b                   10.820(2)
_cell_length_c                   17.607(4)
_cell_angle_alpha                73.85(3)
_cell_angle_beta                 78.97(3)
_cell_angle_gamma                73.51(3)
_cell_volume                     1879.63
_exptl_crystal_colour            colorless
_exptl_crystal_description       block
_chemical_melting_point          '513-514 K'
_cell_formula_units_Z            8
_exptl_crystal_recrystallization_method acetone
loop_
_atom_site_label
_atom_site_type_symbol
_atom_site_fract_x
_atom_site_fract_y
_atom_site_fract_z
C1 C 0.6595(5) 0.5601(5) 0.4964(3)
H1 H 0.7176 0.5675 0.5290
H2 H 0.6719 0.4685 0.4968
H3 H 0.5712 0.5950 0.5170
C2 C 0.6874(4) 0.6375(5) 0.4125(3)
C3 C 0.6436(4) 0.7743(5) 0.3913(3)
H4 H 0.5982 0.8188 0.4303
C4 C 0.6649(4) 0.8455(5) 0.3154(3)
H5 H 0.6338 0.9373 0.3030
C5 C 0.7329(4) 0.7813(4) 0.2565(3)
H6 H 0.7465 0.8301 0.2044
C6 C 0.7811(4) 0.6442(4) 0.2749(3)
C7 C 0.7577(4) 0.5741(4) 0.3531(3)
H7 H 0.7898 0.4824 0.3661
C8 C 0.8562(4) 0.5792(4) 0.2116(3)
C9 C 0.9861(4) 0.4408(4) 0.1258(3)
N1 N 0.8718(3) 0.6428(3) 0.1379(2)
N2 N 0.9462(3) 0.5638(3) 0.0877(2)
N3 N 1.0613(3) 0.3464(3) 0.0898(2)
H8 H 1.0854 0.3660 0.0394
H9 H 1.0855 0.2663 0.1172
S1 S 0.93485(11) 0.41108(10) 0.22764(7)
C10 C 1.4913(5) -0.0489(5) -0.1293(3)
H10 H 1.5159 -0.0741 -0.1793
H11 H 1.5590 -0.0941 -0.0958
H12 H 1.4783 0.0453 -0.1385
C11 C 1.3661(4) -0.0877(4) -0.0889(2)
C12 C 1.3118(4) -0.1622(4) -0.1192(3)
H13 H 1.3507 -0.1850 -0.1670
C13 C 1.2025(4) -0.2036(4) -0.0812(3)
H14 H 1.1691 -0.2548 -0.1028
C14 C 1.1415(4) -0.1695(4) -0.0108(3)
H15 H 1.0673 -0.1976 0.0152
C15 C 1.1919(4) -0.0934(4) 0.0207(2)
C16 C 1.3032(4) -0.0522(4) -0.0190(2)
H16 H 1.3360 0.0004 0.0019
C17 C 1.1302(4) -0.0544(4) 0.0952(2)
C18 C 1.0053(4) -0.0224(4) 0.2189(2)
N4 N 1.1608(3) 0.0317(2) 0.1212(2)
N5 N 1.0888(3) 0.0512(3) 0.1934(2)
N6 N 0.9223(3) -0.0197(3) 0.2860(3)
H17 H 0.9224 0.03272 0.3139
H18 H 0.8691 -0.07026 0.3002
S2 S 1.00854(11) -0.12259(11) 0.15693(6)
C19 C 0.6237(4) 0.2234(5) 0.7262(3)
H19 H 0.6398 0.1879 0.7808
H20 H 0.6077 0.1561 0.7062
H21 H 0.5490 0.2975 0.7229
C20 C 0.7412(4) 0.2684(4) 0.6772(2)
C21 C 0.7950(4) 0.3517(4) 0.6997(3)
H22 H 0.7584 0.3819 0.7455
C22 C 0.9035(4) 0.3910(4) 0.6545(3)
H23 H 0.9379 0.4489 0.6696
C23 C 0.9604(4) 0.3450(4) 0.5879(2)
H24 H 1.0345 0.3702 0.5589
C24 C 0.9086(3) 0.2615(4) 0.5634(2)
C25 C 0.7988(4) 0.2240(4) 0.6093(2)
H25 H 0.7633 0.1673 0.5937
C26 C 0.9660(3) 0.2148(3) 0.4919(2)
C27 C 1.1002(3) 0.1490(3) 0.3773(2)
N7 N 0.9096(3) 0.1621(3) 0.45473(18)
N8 N 0.9852(3) 0.1229(3) 0.38903(18)
N9 N 1.1921(3) 0.1219(3) 0.31767(19)
H26 H 1.1778 0.0850 0.2839
H27 H 1.2655 0.1414 0.3130
S3 S 1.12288(9) 0.22352(10) 0.44684(6)
C28 C 0.5921(4) 0.6603(5) 0.0703(3)
H28 H 0.5432 0.7357 0.0354
H29 H 0.6658 0.6153 0.0397
H30 H 0.6216 0.6893 0.1089
C29 C 0.5067(4) 0.5668(4) 0.1124(2)
C30 C 0.3995(4) 0.5687(4) 0.0805(2)
H31 H 0.3800 0.6275 0.0322
C31 C 0.3201(4) 0.4843(4) 0.1194(2)
H32 H 0.2467 0.4885 0.0975
C32 C 0.3482(4) 0.3947(4) 0.1896(2)
H33 H 0.2947 0.3375 0.2148
C33 C 0.4565(3) 0.3891(3) 0.2234(2)
C34 C 0.5342(3) 0.4762(4) 0.1839(2)
H34 H 0.6068 0.4737 0.2061
C35 C 0.4897(3) 0.2926(3) 0.2974(2)
C36 C 0.5833(3) 0.1473(3) 0.4134(2)
N10 N 0.4224(3) 0.2083(3) 0.33804(18)
N11 N 0.4747(3) 0.1243(3) 0.40525(17)
N12 N 0.6538(3) 0.0806(3) 0.47308(18)
H35 H 0.6284 0.0180 0.5094
H36 H 0.7247 0.1002 0.4753
S4 S 0.62957(9) 0.27515(10) 0.33903(6)
loop_
_geom_bond_atom_site_label_1
_geom_bond_atom_site_label_2
_geom_bond_site_symmetry_1
_geom_bond_site_symmetry_2
C1 H1 1_555 1_555
H2 C1 1_555 1_555
H3 C1 1_555 1_555
C2 C1 1_555 1_555
C3 C2 1_555 1_555
H4 C3 1_555 1_555
C4 C3 1_555 1_555
H5 C4 1_555 1_555
C5 C4 1_555 1_555
H6 C5 1_555 1_555
C6 C5 1_555 1_555
C7 C2 1_555 1_555
H7 C7 1_555 1_555
C8 C6 1_555 1_555
C9 N2 1_555 1_555
N1 C8 1_555 1_555
N2 N1 1_555 1_555
N3 C9 1_555 1_555
H8 N3 1_555 1_555
H9 N3 1_555 1_555
S1 C8 1_555 1_555
C10 H10 1_555 1_555
H11 C10 1_555 1_555
H12 C10 1_555 1_555
C11 C10 1_555 1_555
C12 C11 1_555 1_555
H13 C12 1_555 1_555
C13 C12 1_555 1_555
H14 C13 1_555 1_555
C14 C13 1_555 1_555
H15 C14 1_555 1_555
C15 C14 1_555 1_555
C16 C11 1_555 1_555
H16 C16 1_555 1_555
C17 C15 1_555 1_555
C18 N5 1_555 1_555
N4 C17 1_555 1_555
N5 N4 1_555 1_555
N6 C18 1_555 1_555
H17 N6 1_555 1_555
H18 N6 1_555 1_555
S2 C17 1_555 1_555
C19 H19 1_555 1_555
H20 C19 1_555 1_555
H21 C19 1_555 1_555
C20 C19 1_555 1_555
C21 C20 1_555 1_555
H22 C21 1_555 1_555
C22 C21 1_555 1_555
H23 C22 1_555 1_555
C23 C22 1_555 1_555
H24 C23 1_555 1_555
C24 C23 1_555 1_555
C25 C20 1_555 1_555
H25 C25 1_555 1_555
C26 C24 1_555 1_555
C27 N8 1_555 1_555
N7 C26 1_555 1_555
N8 N7 1_555 1_555
N9 C27 1_555 1_555
H26 N9 1_555 1_555
H27 N9 1_555 1_555
S3 C26 1_555 1_555
C28 H28 1_555 1_555
H29 C28 1_555 1_555
H30 C28 1_555 1_555
C29 C28 1_555 1_555
C30 C29 1_555 1_555
H31 C30 1_555 1_555
C31 C30 1_555 1_555
H32 C31 1_555 1_555
C32 C31 1_555 1_555
H33 C32 1_555 1_555
C33 C32 1_555 1_555
C34 C29 1_555 1_555
H34 C34 1_555 1_555
C35 C33 1_555 1_555
C36 N11 1_555 1_555
N10 C35 1_555 1_555
N11 N10 1_555 1_555
N12 C36 1_555 1_555
H35 N12 1_555 1_555
H36 N12 1_555 1_555
S4 C35 1_555 1_555
C6 C7 1_555 1_555
C9 S1 1_555 1_555
C15 C16 1_555 1_555
C18 S2 1_555 1_555
C24 C25 1_555 1_555
C27 S3 1_555 1_555
C33 C34 1_555 1_555
C36 S4 1_555 1_555

#END
