
#######################################################################
#
#                 Cambridge Crystallographic Data Centre
#                                CCDC 
#
#######################################################################
#
# If this CIF has been generated from an entry in the Cambridge 
# Structural Database, then it will include bibliographic, chemical, 
# crystal, experimental, refinement or atomic coordinate data resulting 
# from the CCDC's data processing and validation procedures.
#
#######################################################################

data_QEXXIC
_chemical_formula_moiety         'C72 H72 N8'
_chemical_name_systematic        
'8,21,34,47-Tetraisopropyl-6,9,20,23,32,35,46,49-octaazatridecacyclo[48.2.2.2^2,5^.2^11,14^.2^15,18^.2^24,27^.2^28,31^.2^37,40^.2^41,44^.0^6,10^.0^19,23^.0^32,36^.0^45,49^]octahexaconta-1(52),2,4,9,11,13,15,17,19,24,26,28,30,35,37,39,41,43,45,50,53,55,57,59,61,63,65,67-octacosaene unknown solvate'
_symmetry_cell_setting           monoclinic
_symmetry_space_group_name_H-M   'P 21'
_symmetry_Int_Tables_number      4
_space_group_name_Hall           'P 2yb'
loop_
_symmetry_equiv_pos_site_id
_symmetry_equiv_pos_as_xyz
1 x,y,z
2 -x,1/2+y,-z
_cell_length_a                   12.1030(11)
_cell_length_b                   21.0076(13)
_cell_length_c                   16.8156(9)
_cell_angle_alpha                90
_cell_angle_beta                 97.335(6)
_cell_angle_gamma                90
_cell_volume                     4240.46
_exptl_crystal_colour            yellow
_exptl_crystal_description       block
_cell_formula_units_Z            2
loop_
_atom_site_label
_atom_site_type_symbol
_atom_site_fract_x
_atom_site_fract_y
_atom_site_fract_z
N1 N -0.7689(4) 0.14500(18) -0.3348(2)
N2 N -0.8513(4) 0.21022(18) -0.2511(2)
N3 N -1.3810(6) -0.1812(3) -0.0332(4)
N4 N -1.2307(6) -0.2460(3) -0.0066(3)
N5 N -0.5968(6) -0.5146(2) -0.1300(3)
N6 N -0.4218(5) -0.5270(2) -0.1536(3)
N7 N -0.6734(4) -0.30057(18) -0.7657(2)
N8 N -0.6479(4) -0.20359(18) -0.71000(19)
C1 C -0.7122(5) 0.2058(2) -0.3388(3)
H1 H -0.7090 0.2187 -0.3951
H2 H -0.6355 0.2040 -0.3102
C2 C -0.7846(4) 0.2505(2) -0.2976(3)
H3 H -0.8359 0.2733 -0.3395
C3 C -0.8448(5) 0.1535(2) -0.2789(3)
C4 C -0.9061(5) 0.0986(2) -0.2457(2)
C5 C -1.0160(5) 0.1088(2) -0.2362(3)
H4 H -1.0511 0.1482 -0.2515
C6 C -1.0733(5) 0.0613(2) -0.2043(3)
H5 H -1.1497 0.0679 -0.1992
C7 C -1.0232(5) 0.0016(2) -0.1782(3)
C8 C -0.9130(5) -0.0042(2) -0.1898(3)
H6 H -0.8747 -0.0421 -0.1720
C9 C -0.8548(5) 0.0421(2) -0.2259(3)
H7 H -0.7808 0.0345 -0.2367
C10 C -1.0850(5) -0.0484(2) -0.1423(3)
C11 C -1.1953(6) -0.0580(3) -0.1697(3)
H8 H -1.2292 -0.0321 -0.2124
C12 C -1.2599(6) -0.1040(3) -0.1379(4)
H9 H -1.3365 -0.1097 -0.1572
C13 C -1.2047(7) -0.1424(3) -0.0743(4)
C14 C -1.0944(6) -0.1300(3) -0.0473(3)
H10 H -1.0584 -0.1537 -0.0033
C15 C -1.0362(5) -0.0854(2) -0.0813(3)
H11 H -0.9595 -0.0796 -0.0623
C16 C -1.2803(7) -0.1906(3) -0.0390(4)
C17 C -1.4226(8) -0.2385(4) 0.0004(5)
H12 H -1.4632 -0.2267 0.0465
C18 C -1.3234(8) -0.2777(4) 0.0306(4)
H13 H -1.3332 -0.3225 0.0128
H14 H -1.3088 -0.2766 0.0899
C19 C -1.1419(6) -0.2852(3) -0.0265(4)
C20 C -1.0913(6) -0.3283(3) 0.0284(4)
H15 H -1.1143 -0.3313 0.0802
C21 C -1.0091(6) -0.3661(3) 0.0085(3)
H16 H -0.9797 -0.3976 0.0458
C22 C -0.9645(6) -0.3612(3) -0.0646(3)
C23 C -1.0125(5) -0.3174(3) -0.1177(3)
H17 H -0.9850 -0.3129 -0.1678
C24 C -1.1005(5) -0.2790(3) -0.1012(3)
H18 H -1.1325 -0.2490 -0.1396
C25 C -0.8734(6) -0.4002(3) -0.0831(3)
C26 C -0.8597(6) -0.4668(3) -0.0599(3)
H19 H -0.9146 -0.4858 -0.0318
C27 C -0.7726(6) -0.5033(3) -0.0762(3)
H20 H -0.7678 -0.5466 -0.0601
C28 C -0.6897(6) -0.4765(3) -0.1171(3)
C29 C -0.7028(6) -0.4124(3) -0.1397(3)
H21 H -0.6474 -0.3930 -0.1668
C30 C -0.7910(6) -0.3771(3) -0.1244(3)
H22 H -0.7963 -0.3344 -0.1430
C31 C -0.5434(7) -0.5609(3) -0.0708(3)
H23 H -0.5606 -0.5509 -0.0163
H24 H -0.5687 -0.6048 -0.0848
C32 C -0.4262(7) -0.5542(3) -0.0756(3)
H25 H -0.3928 -0.5977 -0.0751
C33 C -0.5154(8) -0.5019(3) -0.1766(3)
C34 C -0.5396(7) -0.4672(2) -0.2544(4)
C35 C -0.4575(6) -0.4274(3) -0.2786(3)
H26 H -0.3893 -0.4224 -0.2443
C36 C -0.4718(6) -0.3960(2) -0.3490(4)
H27 H -0.4130 -0.3712 -0.3653
C37 C -0.5734(7) -0.4002(2) -0.3976(3)
C38 C -0.6543(6) -0.4398(3) -0.3732(3)
H28 H -0.7218 -0.4446 -0.4084
C39 C -0.6445(7) -0.4720(3) -0.3036(4)
H29 H -0.7040 -0.4965 -0.2880
C40 C -0.5961(5) -0.3671(2) -0.4777(3)
C41 C -0.6656(6) -0.3925(2) -0.5425(3)
H30 H -0.6995 -0.4327 -0.5368
C42 C -0.6867(5) -0.3603(2) -0.6154(3)
H31 H -0.7345 -0.3787 -0.6585
C43 C -0.6373(5) -0.3006(2) -0.6251(3)
C44 C -0.5634(5) -0.2757(2) -0.5608(3)
H32 H -0.5269 -0.2363 -0.5668
C45 C -0.5436(5) -0.3094(2) -0.4870(3)
H33 H -0.4941 -0.2923 -0.4438
C46 C -0.6557(5) -0.2690(2) -0.7024(3)
C47 C -0.6944(6) -0.2542(2) -0.8366(3)
H34 H -0.6468 -0.2664 -0.8786
C48 C -0.6513(5) -0.1898(2) -0.7968(3)
H35 H -0.5764 -0.1790 -0.8105
H36 H -0.7032 -0.1544 -0.8135
C49 C -0.6684(5) -0.1560(2) -0.6547(3)
C50 C -0.6149(5) -0.0998(2) -0.6572(3)
H37 H -0.5632 -0.0930 -0.6944
C51 C -0.6373(5) -0.0513(2) -0.6034(3)
H38 H -0.6043 -0.0106 -0.6079
C52 C -0.7042(5) -0.0606(2) -0.5457(3)
C53 C -0.7585(5) -0.1180(3) -0.5449(3)
H39 H -0.8070 -0.1249 -0.5056
C54 C -0.7452(5) -0.1668(2) -0.5999(3)
H40 H -0.7862 -0.2054 -0.6002
C55 C -0.7203(5) -0.0090(2) -0.4885(3)
C56 C -0.6380(5) 0.0339(2) -0.4634(3)
H41 H -0.5678 0.0292 -0.4823
C57 C -0.6523(5) 0.0846(2) -0.4111(3)
H42 H -0.5922 0.1124 -0.3934
C58 C -0.7562(5) 0.0933(2) -0.3860(3)
C59 C -0.8429(5) 0.0514(2) -0.4104(3)
H43 H -0.9139 0.0571 -0.3930
C60 C -0.8240(5) 0.0007(2) -0.4612(2)
H44 H -0.8832 -0.0280 -0.4776
C61 C -0.7152(5) 0.3006(2) -0.2450(3)
H45 H -0.6598 0.2784 -0.2052
C62 C -0.6547(5) 0.3425(2) -0.2983(3)
H46 H -0.7087 0.3695 -0.3312
H47 H -0.6151 0.3159 -0.3332
H48 H -0.6012 0.3695 -0.2650
C63 C -0.7981(6) 0.3425(3) -0.1985(4)
H49 H -0.8500 0.3142 -0.1753
H50 H -0.8401 0.3719 -0.2362
H51 H -0.7547 0.3668 -0.1556
C64 C -1.5069(11) -0.2713(5) -0.0670(6)
H52 H -1.5380 -0.3096 -0.0423
C65 C -1.6084(9) -0.2282(5) -0.1012(7)
H53 H -1.6614 -0.2535 -0.1372
H54 H -1.5815 -0.1925 -0.1309
H55 H -1.6454 -0.2119 -0.0569
C66 C -1.4390(7) -0.2963(4) -0.1366(5)
H56 H -1.3687 -0.3154 -0.1126
H57 H -1.4234 -0.2604 -0.1708
H58 H -1.4835 -0.3282 -0.1689
C67 C -0.3666(6) -0.5176(3) -0.0070(3)
H59 H -0.4100 -0.4776 -0.0019
C68 C -0.3623(5) -0.5525(3) 0.0714(3)
H60 H -0.3104 -0.5883 0.0720
H61 H -0.4368 -0.5685 0.0778
H62 H -0.3371 -0.5235 0.1156
C69 C -0.2493(7) -0.4975(4) -0.0241(4)
H63 H -0.2556 -0.4718 -0.0731
H64 H -0.2048 -0.5356 -0.0312
H65 H -0.2131 -0.4725 0.0211
C70 C -0.8144(6) -0.2550(3) -0.8722(3)
H66 H -0.8356 -0.3007 -0.8812
C71 C -0.8922(5) -0.2280(3) -0.8197(4)
H67 H -0.8798 -0.1821 -0.8140
H68 H -0.8791 -0.2482 -0.7668
H69 H -0.9692 -0.2360 -0.8435
C72 C -0.8281(5) -0.2227(3) -0.9559(3)
H70 H -0.7728 -0.2401 -0.9878
H71 H -0.8170 -0.1767 -0.9494
H72 H -0.9031 -0.2311 -0.9833
loop_
_geom_bond_atom_site_label_1
_geom_bond_atom_site_label_2
_geom_bond_site_symmetry_1
_geom_bond_site_symmetry_2
N1 C1 1_555 1_555
N2 C2 1_555 1_555
N3 C16 1_555 1_555
N4 C16 1_555 1_555
N5 C28 1_555 1_555
N6 C32 1_555 1_555
N7 C46 1_555 1_555
N8 C46 1_555 1_555
C1 H1 1_555 1_555
H2 C1 1_555 1_555
C2 C1 1_555 1_555
H3 C2 1_555 1_555
C3 N1 1_555 1_555
C4 C3 1_555 1_555
C5 C4 1_555 1_555
H4 C5 1_555 1_555
C6 C5 1_555 1_555
H5 C6 1_555 1_555
C7 C6 1_555 1_555
C8 C7 1_555 1_555
H6 C8 1_555 1_555
C9 C4 1_555 1_555
H7 C9 1_555 1_555
C10 C7 1_555 1_555
C11 C10 1_555 1_555
H8 C11 1_555 1_555
C12 C11 1_555 1_555
H9 C12 1_555 1_555
C13 C12 1_555 1_555
C14 C13 1_555 1_555
H10 C14 1_555 1_555
C15 C10 1_555 1_555
H11 C15 1_555 1_555
C16 C13 1_555 1_555
C17 N3 1_555 1_555
H12 C17 1_555 1_555
C18 N4 1_555 1_555
H13 C18 1_555 1_555
H14 C18 1_555 1_555
C19 N4 1_555 1_555
C20 C19 1_555 1_555
H15 C20 1_555 1_555
C21 C20 1_555 1_555
H16 C21 1_555 1_555
C22 C21 1_555 1_555
C23 C22 1_555 1_555
H17 C23 1_555 1_555
C24 C19 1_555 1_555
H18 C24 1_555 1_555
C25 C22 1_555 1_555
C26 C25 1_555 1_555
H19 C26 1_555 1_555
C27 C26 1_555 1_555
H20 C27 1_555 1_555
C28 C27 1_555 1_555
C29 C28 1_555 1_555
H21 C29 1_555 1_555
C30 C25 1_555 1_555
H22 C30 1_555 1_555
C31 N5 1_555 1_555
H23 C31 1_555 1_555
H24 C31 1_555 1_555
C32 C31 1_555 1_555
H25 C32 1_555 1_555
C33 N5 1_555 1_555
C34 C33 1_555 1_555
C35 C34 1_555 1_555
H26 C35 1_555 1_555
C36 C35 1_555 1_555
H27 C36 1_555 1_555
C37 C36 1_555 1_555
C38 C37 1_555 1_555
H28 C38 1_555 1_555
C39 C34 1_555 1_555
H29 C39 1_555 1_555
C40 C37 1_555 1_555
C41 C40 1_555 1_555
H30 C41 1_555 1_555
C42 C41 1_555 1_555
H31 C42 1_555 1_555
C43 C42 1_555 1_555
C44 C43 1_555 1_555
H32 C44 1_555 1_555
C45 C40 1_555 1_555
H33 C45 1_555 1_555
C46 C43 1_555 1_555
C47 N7 1_555 1_555
H34 C47 1_555 1_555
C48 N8 1_555 1_555
H35 C48 1_555 1_555
H36 C48 1_555 1_555
C49 N8 1_555 1_555
C50 C49 1_555 1_555
H37 C50 1_555 1_555
C51 C50 1_555 1_555
H38 C51 1_555 1_555
C52 C51 1_555 1_555
C53 C52 1_555 1_555
H39 C53 1_555 1_555
C54 C49 1_555 1_555
H40 C54 1_555 1_555
C55 C52 1_555 1_555
C56 C55 1_555 1_555
H41 C56 1_555 1_555
C57 C56 1_555 1_555
H42 C57 1_555 1_555
C58 N1 1_555 1_555
C59 C58 1_555 1_555
H43 C59 1_555 1_555
C60 C55 1_555 1_555
H44 C60 1_555 1_555
C61 C2 1_555 1_555
H45 C61 1_555 1_555
C62 C61 1_555 1_555
H46 C62 1_555 1_555
H47 C62 1_555 1_555
H48 C62 1_555 1_555
C63 C61 1_555 1_555
H49 C63 1_555 1_555
H50 C63 1_555 1_555
H51 C63 1_555 1_555
C64 C17 1_555 1_555
H52 C64 1_555 1_555
C65 C64 1_555 1_555
H53 C65 1_555 1_555
H54 C65 1_555 1_555
H55 C65 1_555 1_555
C66 C64 1_555 1_555
H56 C66 1_555 1_555
H57 C66 1_555 1_555
H58 C66 1_555 1_555
C67 C32 1_555 1_555
H59 C67 1_555 1_555
C68 C67 1_555 1_555
H60 C68 1_555 1_555
H61 C68 1_555 1_555
H62 C68 1_555 1_555
C69 C67 1_555 1_555
H63 C69 1_555 1_555
H64 C69 1_555 1_555
H65 C69 1_555 1_555
C70 C47 1_555 1_555
H66 C70 1_555 1_555
C71 C70 1_555 1_555
H67 C71 1_555 1_555
H68 C71 1_555 1_555
H69 C71 1_555 1_555
C72 C70 1_555 1_555
H70 C72 1_555 1_555
H71 C72 1_555 1_555
H72 C72 1_555 1_555
N2 C3 1_555 1_555
N6 C33 1_555 1_555
C8 C9 1_555 1_555
C14 C15 1_555 1_555
C17 C18 1_555 1_555
C23 C24 1_555 1_555
C29 C30 1_555 1_555
C38 C39 1_555 1_555
C44 C45 1_555 1_555
C47 C48 1_555 1_555
C53 C54 1_555 1_555
C57 C58 1_555 1_555
C59 C60 1_555 1_555

#END
