
#######################################################################
#
#                 Cambridge Crystallographic Data Centre
#                                CCDC 
#
#######################################################################
#
# If this CIF has been generated from an entry in the Cambridge 
# Structural Database, then it will include bibliographic, chemical, 
# crystal, experimental, refinement or atomic coordinate data resulting 
# from the CCDC's data processing and validation procedures.
#
#######################################################################

data_QEXYUQ
_chemical_formula_moiety         'C9 H11 B1 O2'
_chemical_name_systematic        3,3-dimethyl-2,1-benzoxaborol-1(3H)-ol
_symmetry_cell_setting           monoclinic
_symmetry_space_group_name_H-M   'P 21/n'
_symmetry_Int_Tables_number      14
_space_group_name_Hall           '-P 2yn'
loop_
_symmetry_equiv_pos_site_id
_symmetry_equiv_pos_as_xyz
1 x,y,z
2 1/2-x,1/2+y,1/2-z
3 -x,-y,-z
4 1/2+x,1/2-y,1/2+z
_cell_length_a                   14.220(2)
_cell_length_b                   8.4801(14)
_cell_length_c                   14.797(2)
_cell_angle_alpha                90
_cell_angle_beta                 96.796(3)
_cell_angle_gamma                90
_cell_volume                     1771.79
_cell_formula_units_Z            8
loop_
_atom_site_label
_atom_site_type_symbol
_atom_site_fract_x
_atom_site_fract_y
_atom_site_fract_z
B1 B 1.1827(6) -0.9328(12) 0.2676(4)
O1 O 1.1654(3) -1.0919(6) 0.2767(2)
O2 O 1.2626(3) -0.8889(7) 0.2323(2)
C1 C 1.0390(5) -0.9510(8) 0.3272(3)
C2 C 0.9559(5) -0.9091(10) 0.3622(3)
C3 C 0.9334(4) -0.7511(11) 0.3658(3)
C4 C 0.9935(6) -0.6367(7) 0.3389(3)
C5 C 1.0768(4) -0.6794(7) 0.3064(3)
C6 C 1.1004(4) -0.8367(9) 0.3001(3)
C7 C 1.0758(5) -1.1161(8) 0.3159(4)
C8 C 1.0982(3) -1.2021(5) 0.4050(3)
C9 C 1.0109(3) -1.2116(5) 0.2469(3)
H1 H 1.2790(40) -0.7740(80) 0.2330(30)
H2 H 0.9156 -0.9871 0.3830
H3 H 0.8757 -0.7205 0.3872
H4 H 0.9773 -0.5284 0.3429
H5 H 1.1180 -0.6004 0.2882
H6 H 1.1242 -1.3063 0.3938
H7 H 1.0401 -1.2143 0.4341
H8 H 1.1447 -1.1415 0.4451
H9 H 1.0384 -1.3163 0.2400
H10 H 1.0041 -1.1572 0.1880
H11 H 0.9486 -1.2227 0.2682
B2 B 0.7249(4) -0.0779(14) 0.3160(7)
O3 O 0.7259(2) -0.2358(6) 0.3358(3)
O4 O 0.7520(2) -0.0328(7) 0.2341(3)
C10 C 0.6724(4) -0.0984(11) 0.4593(8)
C11 C 0.6396(4) -0.0587(13) 0.5405(7)
C12 C 0.6258(3) 0.0994(16) 0.5581(4)
C13 C 0.6450(4) 0.2147(7) 0.4956(8)
C14 C 0.6774(4) 0.1732(13) 0.4146(7)
C15 C 0.6914(3) 0.0151(16) 0.3952(6)
C16 C 0.6911(4) -0.2612(11) 0.4247(5)
C17 C 0.7691(3) -0.3474(5) 0.4834(3)
C18 C 0.6010(3) -0.3587(5) 0.4060(3)
H12 H 0.7520(30) 0.0640(50) 0.2210(30)
H13 H 0.6269 -0.1376 0.5831
H14 H 0.6029 0.1297 0.6133
H15 H 0.6356 0.3228 0.5089
H16 H 0.6901 0.2523 0.3722
H17 H 0.7772 -0.4527 0.4582
H18 H 0.7522 -0.3571 0.5455
H19 H 0.8284 -0.2882 0.4846
H20 H 0.6167 -0.4634 0.3842
H21 H 0.5570 -0.3060 0.3597
H22 H 0.5714 -0.3694 0.4623
loop_
_geom_bond_atom_site_label_1
_geom_bond_atom_site_label_2
_geom_bond_site_symmetry_1
_geom_bond_site_symmetry_2
B1 O1 1_555 1_555
O1 C7 1_555 1_555
O2 B1 1_555 1_555
C1 C2 1_555 1_555
C2 C3 1_555 1_555
C3 C4 1_555 1_555
C4 C5 1_555 1_555
C5 C6 1_555 1_555
C6 B1 1_555 1_555
C7 C1 1_555 1_555
C8 C7 1_555 1_555
C9 C7 1_555 1_555
H1 O2 1_555 1_555
H2 C2 1_555 1_555
H3 C3 1_555 1_555
H4 C4 1_555 1_555
H5 C5 1_555 1_555
H6 C8 1_555 1_555
H7 C8 1_555 1_555
H8 C8 1_555 1_555
H9 C9 1_555 1_555
H10 C9 1_555 1_555
H11 C9 1_555 1_555
B2 O3 1_555 1_555
O3 C16 1_555 1_555
O4 B2 1_555 1_555
C10 C11 1_555 1_555
C11 C12 1_555 1_555
C12 C13 1_555 1_555
C13 C14 1_555 1_555
C14 C15 1_555 1_555
C15 B2 1_555 1_555
C16 C10 1_555 1_555
C17 C16 1_555 1_555
C18 C16 1_555 1_555
H12 O4 1_555 1_555
H13 C11 1_555 1_555
H14 C12 1_555 1_555
H15 C13 1_555 1_555
H16 C14 1_555 1_555
H17 C17 1_555 1_555
H18 C17 1_555 1_555
H19 C17 1_555 1_555
H20 C18 1_555 1_555
H21 C18 1_555 1_555
H22 C18 1_555 1_555
C1 C6 1_555 1_555
C10 C15 1_555 1_555

#END
