
#######################################################################
#
#                 Cambridge Crystallographic Data Centre
#                                CCDC 
#
#######################################################################
#
# If this CIF has been generated from an entry in the Cambridge 
# Structural Database, then it will include bibliographic, chemical, 
# crystal, experimental, refinement or atomic coordinate data resulting 
# from the CCDC's data processing and validation procedures.
#
#######################################################################

data_QEXZOL
_chemical_formula_moiety         'C24 H24 Cl1 N1 O4,C1 H1 Cl3'
_chemical_name_systematic        
'methyl 5-benzyl-3-(4-chlorophenyl)-3a,5-dimethyl-4,6-dioxooctahydrocyclopenta[c]pyrrole-1-carboxylate chloroform solvate'
_symmetry_cell_setting           orthorhombic
_symmetry_space_group_name_H-M   'P 21 21 21'
_symmetry_Int_Tables_number      19
_space_group_name_Hall           'P 2ac 2ab'
loop_
_symmetry_equiv_pos_site_id
_symmetry_equiv_pos_as_xyz
1 x,y,z
2 1/2-x,-y,1/2+z
3 -x,1/2+y,1/2-z
4 1/2+x,1/2-y,-z
_cell_length_a                   10.0671(4)
_cell_length_b                   10.3619(4)
_cell_length_c                   25.1890(9)
_cell_angle_alpha                90
_cell_angle_beta                 90
_cell_angle_gamma                90
_cell_volume                     2627.57
_exptl_crystal_colour            colorless
_exptl_crystal_description       prism
_cell_formula_units_Z            4
loop_
_atom_site_label
_atom_site_type_symbol
_atom_site_fract_x
_atom_site_fract_y
_atom_site_fract_z
Cl1 Cl 0.9555(2) 0.8750(3) 0.64892(10)
H1 H 0.300(7) 0.781(8) 0.609(3)
O1 O 0.1269(5) 0.7164(5) 0.52541(19)
N1 N 0.3203(5) 0.6988(5) 0.6041(2)
C1 C 0.7961(7) 0.8094(7) 0.6484(3)
H2 H 0.803(9) 0.751(8) 0.726(3)
O2 O -0.0083(4) 0.5828(5) 0.57038(18)
C2 C 0.7444(8) 0.7567(8) 0.6937(3)
O3 O 0.6135(5) 0.4388(5) 0.60871(19)
C3 C 0.6166(7) 0.7061(7) 0.6929(2)
C4 C 0.5967(7) 0.7591(7) 0.6011(2)
H3 H 0.553(9) 0.771(9) 0.568(4)
C5 C 0.5423(6) 0.7049(6) 0.6466(2)
H4 H 0.589(7) 0.658(7) 0.724(3)
O4 O 0.2095(5) 0.4207(6) 0.5183(2)
C6 C 0.7244(8) 0.8119(7) 0.6019(3)
H5 H 0.750(8) 0.840(8) 0.567(3)
C7 C 0.4052(6) 0.6484(6) 0.6463(2)
H6 H 0.352(7) 0.662(7) 0.681(3)
C8 C 0.3919(6) 0.4986(6) 0.6375(2)
C9 C 0.4967(6) 0.4466(6) 0.5987(2)
C10 C 0.4358(7) 0.4065(6) 0.5464(2)
C11 C 0.2904(7) 0.4363(7) 0.5525(3)
C12 C 0.2589(6) 0.4840(6) 0.6082(2)
H7 H 0.202(7) 0.429(7) 0.624(3)
C13 C 0.1999(6) 0.6217(6) 0.6075(2)
H8 H 0.140(5) 0.629(5) 0.643(2)
C14 C 0.4031(8) 0.4245(7) 0.6899(2)
H9 H 0.3297 0.4466 0.7125
H10 H 0.4849 0.4470 0.7072
H11 H 0.4019 0.3334 0.6829
C15 C 0.4939(9) 0.4870(8) 0.4999(3)
H12 H 0.4628 0.4526 0.4668
H13 H 0.5891 0.4831 0.5010
H14 H 0.4657 0.5751 0.5033
C16 C 0.1034(7) 0.6464(7) 0.5621(2)
C17 C -0.1036(8) 0.5838(10) 0.5266(3)
H15 H -0.0606 0.5551 0.4947
H16 H -0.1366 0.6699 0.5216
H17 H -0.1762 0.5272 0.5348
C18 C 0.4614(8) 0.2607(6) 0.5361(2)
H18 H 0.4114 0.2345 0.5050
H19 H 0.5549 0.2486 0.5282
C19 C 0.4243(8) 0.1746(6) 0.5816(3)
C20 C 0.5214(9) 0.1256(7) 0.6149(3)
H20 H 0.617(7) 0.160(7) 0.610(3)
C21 C 0.4901(14) 0.0502(8) 0.6581(4)
H21 H 0.575(9) 0.005(9) 0.679(3)
C22 C 0.3632(14) 0.0212(9) 0.6692(4)
H22 H 0.3424 -0.0311 0.6980
C23 C 0.2655(12) 0.0696(10) 0.6376(5)
H23 H 0.1773 0.0526 0.6461
C24 C 0.2936(9) 0.1433(8) 0.5932(4)
H24 H 0.2253 0.1717 0.5713
Cl2 Cl 0.9656(4) 0.4572(4) 0.71030(12)
Cl3 Cl 0.9325(4) 0.2684(4) 0.62704(15)
Cl4 Cl 0.7755(5) 0.2547(6) 0.72261(16)
C25 C 0.8571(9) 0.3487(12) 0.6783(3)
H25 H 0.7887 0.4025 0.6617
loop_
_geom_bond_atom_site_label_1
_geom_bond_atom_site_label_2
_geom_bond_site_symmetry_1
_geom_bond_site_symmetry_2
Cl1 C1 1_555 1_555
H1 N1 1_555 1_555
O1 C16 1_555 1_555
N1 C7 1_555 1_555
C1 C2 1_555 1_555
H2 C2 1_555 1_555
O2 C16 1_555 1_555
C2 C3 1_555 1_555
O3 C9 1_555 1_555
C3 C5 1_555 1_555
C4 H3 1_555 1_555
C5 C4 1_555 1_555
H4 C3 1_555 1_555
O4 C11 1_555 1_555
C6 C1 1_555 1_555
H5 C6 1_555 1_555
C7 C5 1_555 1_555
H6 C7 1_555 1_555
C8 C7 1_555 1_555
C9 C8 1_555 1_555
C10 C9 1_555 1_555
C11 C10 1_555 1_555
C12 C8 1_555 1_555
H7 C12 1_555 1_555
C13 N1 1_555 1_555
H8 C13 1_555 1_555
C14 C8 1_555 1_555
H9 C14 1_555 1_555
H10 C14 1_555 1_555
H11 C14 1_555 1_555
C15 C10 1_555 1_555
H12 C15 1_555 1_555
H13 C15 1_555 1_555
H14 C15 1_555 1_555
C16 C13 1_555 1_555
C17 O2 1_555 1_555
H15 C17 1_555 1_555
H16 C17 1_555 1_555
H17 C17 1_555 1_555
C18 C10 1_555 1_555
H18 C18 1_555 1_555
H19 C18 1_555 1_555
C19 C18 1_555 1_555
C20 C19 1_555 1_555
H20 C20 1_555 1_555
C21 C20 1_555 1_555
H21 C21 1_555 1_555
C22 C21 1_555 1_555
H22 C22 1_555 1_555
C23 C22 1_555 1_555
H23 C23 1_555 1_555
C24 C19 1_555 1_555
H24 C24 1_555 1_555
Cl2 C25 1_555 1_555
Cl3 C25 1_555 1_555
Cl4 C25 1_555 1_555
C25 H25 1_555 1_555
C4 C6 1_555 1_555
C11 C12 1_555 1_555
C12 C13 1_555 1_555
C23 C24 1_555 1_555

#END
