
#######################################################################
#
#                 Cambridge Crystallographic Data Centre
#                                CCDC 
#
#######################################################################
#
# If this CIF has been generated from an entry in the Cambridge 
# Structural Database, then it will include bibliographic, chemical, 
# crystal, experimental, refinement or atomic coordinate data resulting 
# from the CCDC's data processing and validation procedures.
#
#######################################################################

data_QEYGUY
_chemical_formula_moiety         'C18 H17 N1 O1'
_chemical_name_systematic        2-(2-(3,3-Dimethyl-3H-indol-2-yl)vinyl)phenol
_symmetry_cell_setting           monoclinic
_symmetry_space_group_name_H-M   'P 21/n'
_symmetry_Int_Tables_number      14
_space_group_name_Hall           '-P 2yn'
loop_
_symmetry_equiv_pos_site_id
_symmetry_equiv_pos_as_xyz
1 x,y,z
2 1/2-x,1/2+y,1/2-z
3 -x,-y,-z
4 1/2+x,1/2-y,1/2+z
_cell_length_a                   5.9589(12)
_cell_length_b                   20.362(4)
_cell_length_c                   12.149(2)
_cell_angle_alpha                90
_cell_angle_beta                 92.17(3)
_cell_angle_gamma                90
_cell_volume                     1473.04
_exptl_crystal_colour            yellow
_cell_formula_units_Z            4
loop_
_atom_site_label
_atom_site_type_symbol
_atom_site_fract_x
_atom_site_fract_y
_atom_site_fract_z
C1 C 0.8388(5) 0.19643(14) 0.0971(2)
C2 C 1.0131(5) 0.15324(15) 0.0817(3)
H1 H 1.0399 0.1379 0.0112
C3 C 1.1480(5) 0.13261(17) 0.1695(3)
H2 H 1.2650 0.1035 0.1577
C4 C 1.1126(6) 0.15410(19) 0.2730(3)
H3 H 1.2041 0.1398 0.3320
C5 C 0.9416(6) 0.19690(17) 0.2898(2)
H4 H 0.9203 0.2119 0.3610
C6 C 0.7964(5) 0.21925(13) 0.2045(2)
C7 C 0.6204(5) 0.26449(17) 0.2341(3)
H5 H 0.6091 0.2720 0.3092
C8 C 0.4804(6) 0.29506(17) 0.1726(3)
H6 H 0.4813 0.2876 0.0971
C9 C 0.3118(5) 0.34310(14) 0.2155(3)
C10 C 0.2145(4) 0.39388(14) 0.1380(2)
C11 C 0.0733(4) 0.43296(13) 0.2132(2)
C12 C 0.0841(5) 0.40220(15) 0.3161(2)
C13 C -0.0342(6) 0.4225(2) 0.4020(3)
H7 H -0.0251 0.4005 0.4691
C14 C -0.1661(7) 0.4757(3) 0.3875(4)
H8 H -0.2518 0.4897 0.4454
C15 C -0.1790(7) 0.5109(2) 0.2882(5)
H9 H -0.2667 0.5486 0.2817
C16 C -0.0560(6) 0.48817(16) 0.1975(3)
H10 H -0.0630 0.5099 0.1301
C17 C 0.3970(6) 0.4352(2) 0.0866(3)
H11 H 0.3289 0.4709 0.0459
H12 H 0.4808 0.4083 0.0379
H13 H 0.4961 0.4524 0.1437
C18 C 0.0661(5) 0.36049(18) 0.0473(2)
H14 H -0.0472 0.3345 0.0807
H15 H 0.1576 0.3327 0.0035
H16 H -0.0042 0.3935 0.0012
N1 N 0.2381(4) 0.34768(12) 0.3136(2)
O1 O 0.7074(4) 0.21881(11) 0.01177(18)
H17 H 0.7460 0.2016 -0.0455
C19? C 0.468(2) 0.2968(6) 0.2571(13)
H18? H 0.4385 0.2892 0.3306
loop_
_geom_bond_atom_site_label_1
_geom_bond_atom_site_label_2
_geom_bond_site_symmetry_1
_geom_bond_site_symmetry_2
C1 C2 1_555 1_555
C2 H1 1_555 1_555
C3 C2 1_555 1_555
H2 C3 1_555 1_555
C4 C3 1_555 1_555
H3 C4 1_555 1_555
C5 C4 1_555 1_555
H4 C5 1_555 1_555
C6 C1 1_555 1_555
C7 C6 1_555 1_555
H5 C7 1_555 1_555
C8 C7 1_555 1_555
H6 C8 1_555 1_555
C9 C8 1_555 1_555
C10 C9 1_555 1_555
C11 C10 1_555 1_555
C12 C11 1_555 1_555
C13 C12 1_555 1_555
H7 C13 1_555 1_555
C14 C13 1_555 1_555
H8 C14 1_555 1_555
C15 C14 1_555 1_555
H9 C15 1_555 1_555
C16 C11 1_555 1_555
H10 C16 1_555 1_555
C17 C10 1_555 1_555
H11 C17 1_555 1_555
H12 C17 1_555 1_555
H13 C17 1_555 1_555
C18 C10 1_555 1_555
H14 C18 1_555 1_555
H15 C18 1_555 1_555
H16 C18 1_555 1_555
N1 C9 1_555 1_555
O1 C1 1_555 1_555
H17 O1 1_555 1_555
C5 C6 1_555 1_555
C12 N1 1_555 1_555
C15 C16 1_555 1_555

#END
