
#######################################################################
#
#                 Cambridge Crystallographic Data Centre
#                                CCDC 
#
#######################################################################
#
# If this CIF has been generated from an entry in the Cambridge 
# Structural Database, then it will include bibliographic, chemical, 
# crystal, experimental, refinement or atomic coordinate data resulting 
# from the CCDC's data processing and validation procedures.
#
#######################################################################

data_QEYGOS
_chemical_formula_moiety         'C18 H16 N2 O3'
_chemical_name_systematic        
932-(2-(3,3-Dimethyl-3H-indol-2-yl)vinyl)-6-nitrophenol
_symmetry_cell_setting           monoclinic
_symmetry_space_group_name_H-M   'P 21/c'
_symmetry_Int_Tables_number      14
_space_group_name_Hall           '-P 2ybc'
loop_
_symmetry_equiv_pos_site_id
_symmetry_equiv_pos_as_xyz
1 x,y,z
2 -x,1/2+y,1/2-z
3 -x,-y,-z
4 x,1/2-y,1/2+z
_cell_length_a                   8.578(5)
_cell_length_b                   17.638(5)
_cell_length_c                   10.333(5)
_cell_angle_alpha                90
_cell_angle_beta                 102.223(5)
_cell_angle_gamma                90
_cell_volume                     1527.93
_exptl_crystal_colour            yellow
_cell_formula_units_Z            4
loop_
_atom_site_label
_atom_site_type_symbol
_atom_site_fract_x
_atom_site_fract_y
_atom_site_fract_z
O1 O 0.5520(1) 0.0892(1) 0.5219(1)
H1 H 0.4551 0.0839 0.5106
N1 N 1.2948(1) 0.1201(1) 0.6684(1)
O2 O 0.2682(1) 0.0761(1) 0.3669(1)
N2 N 0.3241(2) 0.0577(1) 0.2729(1)
O3 O 0.2411(2) 0.0354(1) 0.1701(1)
C1 C 1.1444(2) 0.1286(1) 0.6695(1)
C2 C 0.5971(2) 0.0796(1) 0.4064(1)
C3 C 1.0276(2) 0.1019(1) 0.5568(2)
H2 H 1.0685 0.0775 0.4915
C4 C 0.8158(2) 0.0726(1) 0.2943(2)
H3 H 0.9245 0.0759 0.2966
C5 C 1.1133(2) 0.1698(1) 0.7921(2)
C6 C 0.7619(2) 0.0854(1) 0.4101(1)
C7 C 0.8695(2) 0.1076(1) 0.5340(2)
H4 H 0.8242 0.1269 0.6013
C8 C 1.3830(2) 0.1531(1) 0.7864(2)
C9 C 0.7132(2) 0.0553(1) 0.1756(2)
H5 H 0.7529 0.0467 0.0998
C10 C 0.4956(2) 0.0629(1) 0.2846(2)
C11 C 1.3489(2) 0.2193(1) 0.9804(2)
H6 H 1.2836 0.2394 1.0331
C12 C 1.6109(2) 0.1945(1) 0.9414(2)
H7 H 1.7210 0.1990 0.9689
C13 C 1.2841(2) 0.1834(1) 0.8628(2)
C14 C 0.5528(2) 0.0509(1) 0.1708(2)
H8 H 0.4826 0.0398 0.0914
C15 C 1.5477(2) 0.1576(1) 0.8246(2)
H9 H 1.6132 0.1364 0.7731
C16 C 1.0250(2) 0.1191(1) 0.8745(2)
H10 H 0.9171 0.1115 0.8273
H11 H 1.0248 0.1432 0.9578
H12 H 1.0781 0.0710 0.8899
C17 C 1.0251(2) 0.2453(1) 0.7581(2)
H13 H 0.9170 0.2355 0.7133
H14 H 1.0776 0.2745 0.7016
H15 H 1.0255 0.2730 0.8381
C18 C 1.5133(2) 0.2249(1) 1.0182(2)
H16 H 1.5586 0.2497 1.0966
loop_
_geom_bond_atom_site_label_1
_geom_bond_atom_site_label_2
_geom_bond_site_symmetry_1
_geom_bond_site_symmetry_2
O1 H1 1_555 1_555
N1 C1 1_555 1_555
O2 N2 1_555 1_555
N2 O3 1_555 1_555
C1 C3 1_555 1_555
C2 O1 1_555 1_555
C3 H2 1_555 1_555
C4 H3 1_555 1_555
C5 C1 1_555 1_555
C6 C2 1_555 1_555
C7 C3 1_555 1_555
H4 C7 1_555 1_555
C8 N1 1_555 1_555
C9 C4 1_555 1_555
H5 C9 1_555 1_555
C10 N2 1_555 1_555
C11 H6 1_555 1_555
C12 H7 1_555 1_555
C13 C5 1_555 1_555
C14 C9 1_555 1_555
H8 C14 1_555 1_555
C15 C8 1_555 1_555
H9 C15 1_555 1_555
C16 C5 1_555 1_555
H10 C16 1_555 1_555
H11 C16 1_555 1_555
H12 C16 1_555 1_555
C17 C5 1_555 1_555
H13 C17 1_555 1_555
H14 C17 1_555 1_555
H15 C17 1_555 1_555
C18 C11 1_555 1_555
H16 C18 1_555 1_555
C2 C10 1_555 1_555
C4 C6 1_555 1_555
C6 C7 1_555 1_555
C8 C13 1_555 1_555
C10 C14 1_555 1_555
C11 C13 1_555 1_555
C12 C15 1_555 1_555
C12 C18 1_555 1_555

#END
