
#######################################################################
#
#                 Cambridge Crystallographic Data Centre
#                                CCDC 
#
#######################################################################
#
# If this CIF has been generated from an entry in the Cambridge 
# Structural Database, then it will include bibliographic, chemical, 
# crystal, experimental, refinement or atomic coordinate data resulting 
# from the CCDC's data processing and validation procedures.
#
#######################################################################

data_QEYHAF
_chemical_formula_moiety         'C18 H16 N2 O3'
_chemical_name_systematic        
2-(2-(3,3-Dimethyl-3H-indol-2-yl)vinyl)-4-nitrophenol
_symmetry_cell_setting           monoclinic
_symmetry_space_group_name_H-M   'P 21/n'
_symmetry_Int_Tables_number      14
_space_group_name_Hall           '-P 2yn'
loop_
_symmetry_equiv_pos_site_id
_symmetry_equiv_pos_as_xyz
1 x,y,z
2 1/2-x,1/2+y,1/2-z
3 -x,-y,-z
4 1/2+x,1/2-y,1/2+z
_cell_length_a                   16.289(5)
_cell_length_b                   5.772(5)
_cell_length_c                   16.527(5)
_cell_angle_alpha                90
_cell_angle_beta                 92.596(5)
_cell_angle_gamma                90
_cell_volume                     1552.28
_cell_formula_units_Z            4
loop_
_atom_site_label
_atom_site_type_symbol
_atom_site_fract_x
_atom_site_fract_y
_atom_site_fract_z
C1 C 0.8456(1) 0.0321(4) 0.1451(1)
H1 H 0.7922 0.0730 0.1566
C2 C 0.8602(1) -0.1154(4) 0.0817(1)
H2 H 0.8162 -0.1725 0.0498
C3 C 0.9392(2) -0.1793(5) 0.0651(1)
H3 H 0.9476 -0.2824 0.0230
C4 C 1.0066(1) -0.0924(4) 0.1101(1)
H4 H 1.0599 -0.1355 0.0990
C5 C 0.9911(1) 0.0603(3) 0.1717(1)
C6 C 0.9116(1) 0.1181(3) 0.1912(1)
C7 C 0.9176(1) 0.2781(3) 0.2633(1)
C8 C 0.8703(1) 0.5043(4) 0.2509(2)
H5 H 0.8767 0.5975 0.2989
H6 H 0.8131 0.4710 0.2401
H7 H 0.8914 0.5868 0.2058
C9 C 0.8904(1) 0.1544(4) 0.3401(1)
H8 H 0.8945 0.2595 0.3851
H9 H 0.9252 0.0229 0.3511
H10 H 0.8345 0.1037 0.3320
C10 C 1.0103(1) 0.3143(3) 0.2703(1)
C11 C 1.0488(1) 0.4843(3) 0.3241(1)
H11 H 1.0174 0.5518 0.3634
C12 C 1.1270(1) 0.5486(4) 0.3200(1)
H12 H 1.1580 0.4651 0.2842
C13 C 1.1703(1) 0.7337(3) 0.3647(1)
C14 C 1.2553(1) 0.7598(3) 0.3546(1)
C15 C 1.2984(1) 0.9433(4) 0.3927(1)
H13 H 1.3543 0.9607 0.3854
C16 C 1.2585(1) 1.0979(4) 0.4408(1)
H14 H 1.2870 1.2194 0.4662
C17 C 1.1753(1) 1.0686(3) 0.4505(1)
C18 C 1.1312(1) 0.8907(3) 0.4136(1)
H15 H 1.0753 0.8759 0.4216
O1 O 1.0583(1) 1.2191(3) 0.5045(1)
O2 O 1.1735(1) 1.3809(4) 0.5377(1)
O3 O 1.2919(1) 0.6057(2) 0.3076(1)
H16 H 1.3408 0.6377 0.3056
N1 N 1.1327(1) 1.2334(3) 0.5007(1)
N2 N 1.0501(1) 0.1848(3) 0.2208(1)
loop_
_geom_bond_atom_site_label_1
_geom_bond_atom_site_label_2
_geom_bond_site_symmetry_1
_geom_bond_site_symmetry_2
C1 H1 1_555 1_555
C2 C1 1_555 1_555
H2 C2 1_555 1_555
C3 C2 1_555 1_555
H3 C3 1_555 1_555
C4 C3 1_555 1_555
H4 C4 1_555 1_555
C5 C4 1_555 1_555
C6 C1 1_555 1_555
C7 C6 1_555 1_555
C8 C7 1_555 1_555
H5 C8 1_555 1_555
H6 C8 1_555 1_555
H7 C8 1_555 1_555
C9 C7 1_555 1_555
H8 C9 1_555 1_555
H9 C9 1_555 1_555
H10 C9 1_555 1_555
C10 C7 1_555 1_555
C11 C10 1_555 1_555
H11 C11 1_555 1_555
C12 C11 1_555 1_555
H12 C12 1_555 1_555
C13 C12 1_555 1_555
C14 C13 1_555 1_555
C15 C14 1_555 1_555
H13 C15 1_555 1_555
C16 C15 1_555 1_555
H14 C16 1_555 1_555
C17 C16 1_555 1_555
C18 C13 1_555 1_555
H15 C18 1_555 1_555
O1 N1 1_555 1_555
O2 N1 1_555 1_555
O3 C14 1_555 1_555
H16 O3 1_555 1_555
N1 C17 1_555 1_555
N2 C5 1_555 1_555
C5 C6 1_555 1_555
C10 N2 1_555 1_555
C17 C18 1_555 1_555

#END
