
#######################################################################
#
#                 Cambridge Crystallographic Data Centre
#                                CCDC 
#
#######################################################################
#
# If this CIF has been generated from an entry in the Cambridge 
# Structural Database, then it will include bibliographic, chemical, 
# crystal, experimental, refinement or atomic coordinate data resulting 
# from the CCDC's data processing and validation procedures.
#
#######################################################################

data_QEYHUA
_chemical_formula_moiety         'C20 H32 N4 O5'
_chemical_name_systematic        
'di-t-butyl 1-[1-(3,5-dimethyl-1H-pyrazol-1-yl)-1-oxopent-3-en-2-yl]hydrazine-1,2-dicarboxylate'
_symmetry_cell_setting           orthorhombic
_symmetry_space_group_name_H-M   'P b c a'
_symmetry_Int_Tables_number      61
_space_group_name_Hall           '-P 2ac 2ab'
loop_
_symmetry_equiv_pos_site_id
_symmetry_equiv_pos_as_xyz
1 x,y,z
2 1/2-x,-y,1/2+z
3 -x,1/2+y,1/2-z
4 1/2+x,1/2-y,-z
5 -x,-y,-z
6 1/2+x,y,1/2-z
7 x,1/2-y,1/2+z
8 1/2-x,1/2+y,z
_cell_length_a                   15.9207(4)
_cell_length_b                   16.1653(4)
_cell_length_c                   17.6824(4)
_cell_angle_alpha                90
_cell_angle_beta                 90
_cell_angle_gamma                90
_cell_volume                     4550.79
_exptl_crystal_colour            colorless
_exptl_crystal_description       block
_cell_formula_units_Z            8
loop_
_atom_site_label
_atom_site_type_symbol
_atom_site_fract_x
_atom_site_fract_y
_atom_site_fract_z
O1 O 0.55288(6) 0.49456(7) 0.35311(5)
O2 O 0.53693(6) 0.31635(7) 0.40444(6)
O3 O 0.46700(6) 0.33159(6) 0.51620(5)
O4 O 0.65074(6) 0.30227(6) 0.57661(5)
O5 O 0.61015(6) 0.37580(6) 0.68061(5)
N1 N 0.57477(7) 0.41531(7) 0.48928(6)
N2 N 0.58426(7) 0.42679(7) 0.56722(6)
H1 H 0.569622 0.473120 0.589782
N3 N 0.75580(7) 0.41720(7) 0.32044(6)
N4 N 0.67890(7) 0.45467(7) 0.30721(6)
C1 C 0.64932(8) 0.43384(8) 0.44347(7)
H2 H 0.685799 0.383728 0.438932
C2 C 0.62002(8) 0.46234(8) 0.36528(7)
C3 C 0.67473(9) 0.48751(9) 0.23457(8)
C4 C 0.74985(9) 0.46968(10) 0.20224(8)
H3 H 0.766975 0.483382 0.152324
C5 C 0.79784(9) 0.42682(9) 0.25697(8)
C6 C 0.60144(11) 0.53391(12) 0.20417(9)
H4 H 0.614743 0.554662 0.153496
H5 H 0.588616 0.580566 0.237620
H6 H 0.552660 0.497050 0.201376
C7 C 0.88549(10) 0.39528(11) 0.24933(10)
H7 H 0.885471 0.345112 0.218211
H8 H 0.908058 0.382427 0.299537
H9 H 0.920526 0.437578 0.225220
C8 C 0.69791(9) 0.50449(9) 0.47730(7)
H10 H 0.667761 0.551810 0.493985
C9 C 0.78037(10) 0.50403(12) 0.48497(9)
H11 H 0.808896 0.454456 0.471842
C10 C 0.83273(12) 0.57428(14) 0.51238(10)
H12 H 0.868875 0.593857 0.471242
H13 H 0.867632 0.555769 0.554773
H14 H 0.796113 0.619434 0.529141
C11 C 0.52667(8) 0.34891(9) 0.46533(7)
C12 C 0.41501(9) 0.25608(9) 0.50921(9)
C13 C 0.47215(11) 0.18101(10) 0.51262(11)
H15 H 0.507911 0.179691 0.467524
H16 H 0.437987 0.130626 0.514592
H17 H 0.507433 0.184249 0.557931
C14 C 0.35963(10) 0.26193(11) 0.57890(10)
H18 H 0.323488 0.310812 0.574950
H19 H 0.394962 0.266579 0.624089
H20 H 0.324709 0.212180 0.582654
C15 C 0.36307(10) 0.25820(12) 0.43746(10)
H21 H 0.399488 0.247945 0.393776
H22 H 0.336557 0.312621 0.432304
H23 H 0.319554 0.215403 0.439886
C16 C 0.61793(8) 0.36109(9) 0.60646(7)
C17 C 0.63430(10) 0.31139(9) 0.73636(8)
C18 C 0.57917(13) 0.23606(11) 0.72544(10)
H24 H 0.594228 0.208490 0.677974
H25 H 0.520157 0.253164 0.723529
H26 H 0.587435 0.197738 0.767735
C19 C 0.61616(12) 0.35361(11) 0.81119(8)
H27 H 0.649892 0.404127 0.815173
H28 H 0.630464 0.316161 0.852828
H29 H 0.556393 0.367806 0.813916
C20 C 0.72699(11) 0.29120(12) 0.73034(10)
H30 H 0.737945 0.263392 0.682091
H31 H 0.743212 0.254718 0.772122
H32 H 0.759771 0.342439 0.732911
loop_
_geom_bond_atom_site_label_1
_geom_bond_atom_site_label_2
_geom_bond_site_symmetry_1
_geom_bond_site_symmetry_2
O1 C2 1_555 1_555
O2 C11 1_555 1_555
O3 C11 1_555 1_555
O4 C16 1_555 1_555
O5 C16 1_555 1_555
N1 N2 1_555 1_555
N2 H1 1_555 1_555
N3 N4 1_555 1_555
N4 C2 1_555 1_555
C1 N1 1_555 1_555
H2 C1 1_555 1_555
C2 C1 1_555 1_555
C3 N4 1_555 1_555
C4 C3 1_555 1_555
H3 C4 1_555 1_555
C5 N3 1_555 1_555
C6 C3 1_555 1_555
H4 C6 1_555 1_555
H5 C6 1_555 1_555
H6 C6 1_555 1_555
C7 C5 1_555 1_555
H7 C7 1_555 1_555
H8 C7 1_555 1_555
H9 C7 1_555 1_555
C8 C1 1_555 1_555
H10 C8 1_555 1_555
C9 C8 1_555 1_555
H11 C9 1_555 1_555
C10 C9 1_555 1_555
H12 C10 1_555 1_555
H13 C10 1_555 1_555
H14 C10 1_555 1_555
C11 N1 1_555 1_555
C12 O3 1_555 1_555
C13 C12 1_555 1_555
H15 C13 1_555 1_555
H16 C13 1_555 1_555
H17 C13 1_555 1_555
C14 C12 1_555 1_555
H18 C14 1_555 1_555
H19 C14 1_555 1_555
H20 C14 1_555 1_555
C15 C12 1_555 1_555
H21 C15 1_555 1_555
H22 C15 1_555 1_555
H23 C15 1_555 1_555
C16 N2 1_555 1_555
C17 O5 1_555 1_555
C18 C17 1_555 1_555
H24 C18 1_555 1_555
H25 C18 1_555 1_555
H26 C18 1_555 1_555
C19 C17 1_555 1_555
H27 C19 1_555 1_555
H28 C19 1_555 1_555
H29 C19 1_555 1_555
C20 C17 1_555 1_555
H30 C20 1_555 1_555
H31 C20 1_555 1_555
H32 C20 1_555 1_555
C4 C5 1_555 1_555

#END
