
#######################################################################
#
#                 Cambridge Crystallographic Data Centre
#                                CCDC 
#
#######################################################################
#
# If this CIF has been generated from an entry in the Cambridge 
# Structural Database, then it will include bibliographic, chemical, 
# crystal, experimental, refinement or atomic coordinate data resulting 
# from the CCDC's data processing and validation procedures.
#
#######################################################################

data_QEYQAP
_chemical_formula_moiety         'C20 H19 N1 O4'
_chemical_name_systematic        
'methyl 2-(1,3-dioxo-1,3-dihydro-2H-isoindol-2-yl)-2-methyl-3-(4-methylphenyl)propanoate'
_symmetry_cell_setting           monoclinic
_symmetry_space_group_name_H-M   'P 21'
_symmetry_Int_Tables_number      4
_space_group_name_Hall           'P 2yb'
loop_
_symmetry_equiv_pos_site_id
_symmetry_equiv_pos_as_xyz
1 x,y,z
2 -x,1/2+y,-z
_cell_length_a                   10.4618(5)
_cell_length_b                   6.6429(3)
_cell_length_c                   12.8407(6)
_cell_angle_alpha                90
_cell_angle_beta                 112.484(2)
_cell_angle_gamma                90
_cell_volume                     824.553
_exptl_crystal_colour            colorless
_exptl_crystal_description       block
_cell_formula_units_Z            2
loop_
_atom_site_label
_atom_site_type_symbol
_atom_site_fract_x
_atom_site_fract_y
_atom_site_fract_z
O1 O 0.15609(18) 0.2398(3) 0.20886(15)
O2 O 0.15848(17) 0.4992(3) 0.09771(13)
O3 O -0.01581(16) 0.5680(3) 0.24799(13)
O4 O 0.39341(17) 0.5167(3) 0.55526(14)
N1 N 0.20684(18) 0.5311(3) 0.38075(15)
C1 C 0.0321(2) 0.5420(4) 0.44921(18)
C2 C 0.1862(2) 0.4109(4) 0.19717(19)
C3 C 0.0623(2) 0.5488(4) 0.34530(18)
C4 C -0.0932(2) 0.5459(4) 0.46226(19)
H1 H -0.178725 0.547349 0.399158
C5 C 0.1626(2) 0.5355(4) 0.65027(18)
H2 H 0.248390 0.529614 0.712955
C6 C -0.0881(2) 0.5478(4) 0.5724(2)
H3 H -0.171986 0.551188 0.584674
C7 C 0.1565(2) 0.5353(4) 0.54072(18)
C8 C 0.2713(2) 0.5261(4) 0.49901(19)
C9 C 0.2718(2) 0.5474(4) 0.29660(17)
C10 C 0.6254(3) 0.3852(4) 0.1111(2)
C11 C 0.0371(3) 0.5447(4) 0.66454(19)
H4 H 0.037233 0.549020 0.738522
C12 C 0.5633(3) 0.5918(4) 0.2397(2)
H5 H 0.569311 0.717206 0.276829
C13 C 0.4853(2) 0.4373(4) 0.2582(2)
C14 C 0.4746(3) 0.2580(4) 0.1994(2)
H6 H 0.419950 0.151108 0.209320
C15 C 0.4202(3) 0.4578(4) 0.3445(2)
H7 H 0.479819 0.544992 0.406625
H8 H 0.416885 0.323402 0.376665
C16 C 0.6327(2) 0.5657(5) 0.1675(2)
H9 H 0.686144 0.673263 0.156626
C17 C 0.5428(3) 0.2336(4) 0.1264(2)
H10 H 0.532801 0.110826 0.086168
C18 C 0.2733(3) 0.7687(4) 0.2642(2)
H11 H 0.179103 0.822891 0.237899
H12 H 0.308636 0.779799 0.203916
H13 H 0.333145 0.845182 0.330077
C19 C 0.7081(3) 0.3503(5) 0.0387(2)
H14 H 0.697822 0.466427 -0.010887
H15 H 0.674141 0.228999 -0.006958
H16 H 0.805882 0.332831 0.087111
C20 C 0.0850(3) 0.3774(5) 0.0001(2)
H17 H 0.063103 0.458649 -0.068196
H18 H -0.000934 0.327762 0.004715
H19 H 0.142835 0.262929 -0.002391
loop_
_geom_bond_atom_site_label_1
_geom_bond_atom_site_label_2
_geom_bond_site_symmetry_1
_geom_bond_site_symmetry_2
O1 C2 1_555 1_555
O2 C2 1_555 1_555
O3 C3 1_555 1_555
O4 C8 1_555 1_555
N1 C3 1_555 1_555
C1 C3 1_555 1_555
C2 C9 1_555 1_555
C4 C1 1_555 1_555
H1 C4 1_555 1_555
C5 H2 1_555 1_555
C6 C4 1_555 1_555
H3 C6 1_555 1_555
C7 C1 1_555 1_555
C8 N1 1_555 1_555
C9 N1 1_555 1_555
C10 C16 1_555 1_555
C11 C5 1_555 1_555
H4 C11 1_555 1_555
C12 H5 1_555 1_555
C13 C12 1_555 1_555
C14 C13 1_555 1_555
H6 C14 1_555 1_555
C15 C9 1_555 1_555
H7 C15 1_555 1_555
H8 C15 1_555 1_555
C16 C12 1_555 1_555
H9 C16 1_555 1_555
C17 C10 1_555 1_555
H10 C17 1_555 1_555
C18 C9 1_555 1_555
H11 C18 1_555 1_555
H12 C18 1_555 1_555
H13 C18 1_555 1_555
C19 C10 1_555 1_555
H14 C19 1_555 1_555
H15 C19 1_555 1_555
H16 C19 1_555 1_555
C20 O2 1_555 1_555
H17 C20 1_555 1_555
H18 C20 1_555 1_555
H19 C20 1_555 1_555
C5 C7 1_555 1_555
C6 C11 1_555 1_555
C7 C8 1_555 1_555
C13 C15 1_555 1_555
C14 C17 1_555 1_555

#END
