
#######################################################################
#
#                 Cambridge Crystallographic Data Centre
#                                CCDC 
#
#######################################################################
#
# If this CIF has been generated from an entry in the Cambridge 
# Structural Database, then it will include bibliographic, chemical, 
# crystal, experimental, refinement or atomic coordinate data resulting 
# from the CCDC's data processing and validation procedures.
#
#######################################################################

data_QEYZEC
_chemical_formula_moiety         'C40 H22 O6,0.5(C4 H8 O2),0.5(H2 O1)'
_chemical_name_systematic        
"3,3'-bis(benzenecarbonyl)-2H,2'H-[10,10'-binaphtho[2,3-b]pyran]-2,2'-dione ethyl acetate solvate hemihydrate"
_symmetry_cell_setting           orthorhombic
_symmetry_space_group_name_H-M   'P 21 21 21'
_symmetry_Int_Tables_number      19
_space_group_name_Hall           'P 2ac 2ab'
loop_
_symmetry_equiv_pos_site_id
_symmetry_equiv_pos_as_xyz
1 x,y,z
2 1/2-x,-y,1/2+z
3 -x,1/2+y,1/2-z
4 1/2+x,1/2-y,-z
_cell_length_a                   11.7124(4)
_cell_length_b                   22.5365(7)
_cell_length_c                   24.3520(7)
_cell_angle_alpha                90
_cell_angle_beta                 90
_cell_angle_gamma                90
_cell_volume                     6427.87
_exptl_crystal_colour            yellow
_exptl_crystal_description       needle
_cell_formula_units_Z            8
_exptl_crystal_preparation       Luminescent
loop_
_atom_site_label
_atom_site_type_symbol
_atom_site_fract_x
_atom_site_fract_y
_atom_site_fract_z
O1 O 0.2828(2) 0.43085(10) 0.64088(8)
O2 O 0.2868(2) 0.60282(10) 0.57468(9)
O3 O 0.1802(3) 0.68244(12) 0.57782(10)
O4 O 0.1776(3) 0.35036(13) 0.63959(11)
O5 O 0.2674(3) 0.28038(13) 0.73850(14)
O6 O 0.1814(4) 0.71852(17) 0.42300(13)
C1 C 0.4516(3) 0.56619(14) 0.72404(13)
C2 C 0.3941(3) 0.51495(13) 0.57591(12)
C3 C 0.3385(3) 0.47604(14) 0.66828(12)
C4 C 0.3461(3) 0.55993(14) 0.54605(13)
C5 C 0.2420(3) 0.38163(15) 0.72715(13)
C6 C 0.4526(3) 0.56435(13) 0.66571(13)
C7 C 0.3935(3) 0.51799(13) 0.63763(12)
C8 C 0.3386(3) 0.47654(14) 0.72623(12)
C9 C 0.4479(3) 0.46801(14) 0.54684(13)
C10 C 0.2410(3) 0.65185(15) 0.54990(14)
C11 C 0.4488(3) 0.46864(15) 0.48856(14)
C12 C 0.3559(3) 0.56478(15) 0.48822(13)
C13 C 0.3941(3) 0.52166(15) 0.75314(13)
H1 H 0.3935 0.5227 0.7913
C14 C 0.2298(3) 0.38485(15) 0.66742(13)
C15 C 0.2882(3) 0.42720(15) 0.75475(13)
H2 H 0.2876 0.4269 0.7929
C16 C 0.5149(3) 0.60905(15) 0.63795(14)
H3 H 0.5178 0.6087 0.5998
C17 C 0.2681(3) 0.66180(16) 0.49202(14)
C18 C 0.5115(3) 0.61189(16) 0.75183(15)
H4 H 0.5112 0.6129 0.7900
C19 C 0.4058(3) 0.51825(17) 0.46032(13)
H5 H 0.4110 0.5197 0.4222
C20 C 0.5693(4) 0.65410(16) 0.72352(17)
H6 H 0.6080 0.6840 0.7422
C21 C 0.5008(3) 0.41979(15) 0.57386(14)
H7 H 0.5035 0.4192 0.6120
C22 C 0.1246(3) 0.31831(15) 0.79620(14)
C23 C 0.2143(3) 0.32312(15) 0.75382(15)
C24 C 0.4970(4) 0.41986(18) 0.45984(15)
H8 H 0.4964 0.4196 0.4217
C25 C 0.5705(4) 0.65244(16) 0.66587(17)
H9 H 0.6101 0.6815 0.6465
C26 C 0.0509(4) 0.36344(18) 0.80773(16)
H10 H 0.0599 0.3999 0.7904
C27 C 0.3179(4) 0.61827(18) 0.46292(13)
H11 H 0.3277 0.6232 0.4253
C28 C 0.2510(4) 0.77498(18) 0.49630(17)
C29 C 0.5478(4) 0.37420(17) 0.54491(17)
H12 H 0.5829 0.3431 0.5635
C30 C 0.2293(4) 0.71891(19) 0.46682(15)
C31 C 0.5436(4) 0.37382(17) 0.48728(18)
H13 H 0.5732 0.3417 0.4679
C32 C 0.1133(5) 0.26497(19) 0.82425(19)
H14 H 0.1651 0.2344 0.8181
C33 C -0.0370(5) 0.3555(2) 0.8449(2)
H15 H -0.0872 0.3865 0.8522
C34 C 0.3424(6) 0.7805(2) 0.5315(2)
H16 H 0.3912 0.7486 0.5374
C35 C 0.1787(6) 0.8228(2) 0.4883(2)
H17 H 0.1172 0.8197 0.4643
C36 C -0.0500(5) 0.3023(2) 0.8707(2)
H18 H -0.1105 0.2966 0.8948
C37 C 0.0255(6) 0.2573(2) 0.8611(2)
H19 H 0.0176 0.2214 0.8796
C38 C 0.1985(10) 0.8745(3) 0.5161(3)
H20 H 0.1491 0.9064 0.5114
C39 C 0.3612(9) 0.8333(3) 0.5579(3)
H21 H 0.4239 0.8372 0.5811
C40 C 0.2894(11) 0.8800(3) 0.5505(4)
H22 H 0.3023 0.9155 0.5690
O7 O 0.3600(2) 0.40805(10) 0.32601(9)
O8 O 0.1400(2) 0.41830(10) 0.39067(9)
O9 O 0.4563(3) 0.49131(12) 0.32539(11)
O10 O 0.0452(3) 0.50149(13) 0.38294(11)
O11 O 0.4330(3) 0.51341(15) 0.16564(12)
O12 O 0.0813(3) 0.57432(12) 0.48099(14)
C41 C 0.4177(3) 0.45145(15) 0.29819(14)
C42 C 0.2397(3) 0.32514(14) 0.33182(12)
C43 C 0.2417(3) 0.32879(14) 0.39313(13)
C44 C 0.1724(3) 0.28094(15) 0.30460(14)
C45 C 0.3015(3) 0.36313(14) 0.29972(12)
C46 C 0.2970(3) 0.28327(14) 0.42413(13)
C47 C 0.0888(4) 0.46655(16) 0.41383(14)
C48 C 0.1916(3) 0.37834(15) 0.47918(13)
C49 C 0.2969(3) 0.28637(15) 0.48244(14)
C50 C 0.0935(4) 0.24515(16) 0.33346(16)
H23 H 0.0867 0.2489 0.3713
C51 C 0.0890(3) 0.47101(16) 0.47377(14)
C52 C 0.1916(3) 0.37441(14) 0.42116(13)
C53 C 0.4251(3) 0.44616(15) 0.23863(14)
C54 C 0.3080(3) 0.35787(16) 0.24198(13)
C55 C 0.2429(3) 0.33365(15) 0.50904(13)
H24 H 0.2414 0.3350 0.5472
C56 C 0.1369(3) 0.42833(15) 0.50419(13)
H25 H 0.1346 0.4312 0.5423
C57 C 0.1806(3) 0.27351(16) 0.24673(14)
C58 C 0.4810(4) 0.49497(16) 0.20612(14)
C59 C 0.3719(3) 0.40175(16) 0.21275(13)
H26 H 0.3766 0.3993 0.1747
C60 C 0.3564(4) 0.23573(17) 0.39911(16)
H27 H 0.3575 0.2329 0.3610
C61 C -0.0489(3) 0.52562(17) 0.53893(14)
C62 C 0.0429(3) 0.52772(16) 0.49769(15)
C63 C 0.2504(4) 0.31249(17) 0.21643(14)
H28 H 0.2576 0.3074 0.1787
C64 C 0.1124(4) 0.22986(18) 0.22072(17)
H29 H 0.1194 0.2239 0.1831
C65 C 0.0272(4) 0.20506(18) 0.3060(2)
H30 H -0.0260 0.1828 0.3255
C66 C -0.1170(4) 0.4768(2) 0.54518(17)
H31 H -0.1013 0.4423 0.5256
C67 C 0.5948(4) 0.51898(18) 0.22254(16)
C68 C 0.0376(4) 0.19679(18) 0.2496(2)
H32 H -0.0070 0.1685 0.2318
C69 C 0.3537(4) 0.24161(18) 0.51289(16)
H33 H 0.3525 0.2429 0.5511
C70 C 0.6720(4) 0.4852(2) 0.25158(19)
H34 H 0.6510 0.4479 0.2643
C71 C -0.0703(4) 0.5759(2) 0.56986(16)
H35 H -0.0231 0.6089 0.5664
C72 C 0.4119(5) 0.1940(2) 0.42948(19)
H36 H 0.4514 0.1635 0.4121
C73 C 0.4096(5) 0.1970(2) 0.48728(19)
H37 H 0.4468 0.1682 0.5079
C74 C -0.1609(6) 0.5773(3) 0.6055(2)
H38 H -0.1753 0.6111 0.6263
C75 C -0.2297(5) 0.5288(3) 0.6103(2)
H39 H -0.2917 0.5298 0.6341
C76 C 0.6251(5) 0.5749(2) 0.2050(2)
H40 H 0.5732 0.5978 0.1854
C77 C 0.7802(5) 0.5064(3) 0.2618(3)
H41 H 0.8334 0.4829 0.2800
C78 C -0.2090(4) 0.4787(3) 0.5805(2)
H42 H -0.2567 0.4459 0.5840
C79 C 0.8089(6) 0.5627(3) 0.2449(3)
H43 H 0.8811 0.5776 0.2527
C80 C 0.7320(6) 0.5969(3) 0.2166(3)
H44 H 0.7521 0.6349 0.2053
O13 O 0.1910(3) 0.11785(16) 0.63841(15)
O14 O 0.3652(4) 0.1226(2) 0.6030(2)
C81 C 0.2798(6) 0.0953(3) 0.6126(2)
C82 C 0.2592(7) 0.0324(3) 0.5969(3)
H45 H 0.1898 0.0188 0.6137
H46 H 0.3219 0.0084 0.6092
H47 H 0.2526 0.0295 0.5577
C83 C 0.1952(6) 0.1797(3) 0.6525(3)
H48 H 0.2083 0.2034 0.6198
H49 H 0.2569 0.1870 0.6782
C84 C 0.0857(6) 0.1955(3) 0.6774(4)
H50 H 0.0256 0.1894 0.6512
H51 H 0.0872 0.2365 0.6882
H52 H 0.0726 0.1711 0.7091
O15 O 0.0935(6) 0.6249(2) 0.35818(16)
H53 H 0.0886 0.5937 0.3776
H54 H 0.1127 0.6540 0.3785
loop_
_geom_bond_atom_site_label_1
_geom_bond_atom_site_label_2
_geom_bond_site_symmetry_1
_geom_bond_site_symmetry_2
O1 C3 1_555 1_555
O2 C4 1_555 1_555
O3 C10 1_555 1_555
O4 C14 1_555 1_555
O5 C23 1_555 1_555
O6 C30 1_555 1_555
C1 C6 1_555 1_555
C2 C4 1_555 1_555
C3 C7 1_555 1_555
C4 C12 1_555 1_555
C5 C14 1_555 1_555
C6 C7 1_555 1_555
C7 C2 1_555 1_555
C8 C3 1_555 1_555
C9 C2 1_555 1_555
C10 O2 1_555 1_555
C11 C9 1_555 1_555
C12 C19 1_555 1_555
C13 C1 1_555 1_555
H1 C13 1_555 1_555
C14 O1 1_555 1_555
C15 C5 1_555 1_555
H2 C15 1_555 1_555
C16 C6 1_555 1_555
H3 C16 1_555 1_555
C17 C10 1_555 1_555
C18 C1 1_555 1_555
H4 C18 1_555 1_555
C19 C11 1_555 1_555
H5 C19 1_555 1_555
C20 C18 1_555 1_555
H6 C20 1_555 1_555
C21 C9 1_555 1_555
H7 C21 1_555 1_555
C22 C23 1_555 1_555
C23 C5 1_555 1_555
C24 C11 1_555 1_555
H8 C24 1_555 1_555
C25 C16 1_555 1_555
H9 C25 1_555 1_555
C26 C22 1_555 1_555
H10 C26 1_555 1_555
C27 C12 1_555 1_555
H11 C27 1_555 1_555
C28 C30 1_555 1_555
C29 C21 1_555 1_555
H12 C29 1_555 1_555
C30 C17 1_555 1_555
C31 C24 1_555 1_555
H13 C31 1_555 1_555
C32 C22 1_555 1_555
H14 C32 1_555 1_555
C33 C26 1_555 1_555
H15 C33 1_555 1_555
C34 C28 1_555 1_555
H16 C34 1_555 1_555
C35 C28 1_555 1_555
H17 C35 1_555 1_555
C36 C33 1_555 1_555
H18 C36 1_555 1_555
C37 C32 1_555 1_555
H19 C37 1_555 1_555
C38 C35 1_555 1_555
H20 C38 1_555 1_555
C39 C34 1_555 1_555
H21 C39 1_555 1_555
C40 C38 1_555 1_555
H22 C40 1_555 1_555
O7 C41 1_555 1_555
O8 C47 1_555 1_555
O9 C41 1_555 1_555
O10 C47 1_555 1_555
O11 C58 1_555 1_555
O12 C62 1_555 1_555
C41 C53 1_555 1_555
C42 C43 1_555 1_555
C43 C46 1_555 1_555
C44 C42 1_555 1_555
C45 O7 1_555 1_555
C46 C49 1_555 1_555
C47 C51 1_555 1_555
C48 C52 1_555 1_555
C49 C55 1_555 1_555
C50 C44 1_555 1_555
H23 C50 1_555 1_555
C51 C56 1_555 1_555
C52 O8 1_555 1_555
C53 C58 1_555 1_555
C54 C45 1_555 1_555
C55 C48 1_555 1_555
H24 C55 1_555 1_555
C56 C48 1_555 1_555
H25 C56 1_555 1_555
C57 C44 1_555 1_555
C58 C67 1_555 1_555
C59 C53 1_555 1_555
H26 C59 1_555 1_555
C60 C46 1_555 1_555
H27 C60 1_555 1_555
C61 C62 1_555 1_555
C62 C51 1_555 1_555
C63 C54 1_555 1_555
H28 C63 1_555 1_555
C64 C57 1_555 1_555
H29 C64 1_555 1_555
C65 C50 1_555 1_555
H30 C65 1_555 1_555
C66 C61 1_555 1_555
H31 C66 1_555 1_555
C67 C70 1_555 1_555
C68 C64 1_555 1_555
H32 C68 1_555 1_555
C69 C49 1_555 1_555
H33 C69 1_555 1_555
C70 H34 1_555 1_555
C71 C61 1_555 1_555
H35 C71 1_555 1_555
C72 C60 1_555 1_555
H36 C72 1_555 1_555
C73 C69 1_555 1_555
H37 C73 1_555 1_555
C74 C71 1_555 1_555
H38 C74 1_555 1_555
C75 C74 1_555 1_555
H39 C75 1_555 1_555
C76 C67 1_555 1_555
H40 C76 1_555 1_555
C77 C70 1_555 1_555
H41 C77 1_555 1_555
C78 C66 1_555 1_555
H42 C78 1_555 1_555
C79 C77 1_555 1_555
H43 C79 1_555 1_555
C80 C76 1_555 1_555
H44 C80 1_555 1_555
O13 C81 1_555 1_555
O14 C81 1_555 1_555
C81 C82 1_555 1_555
C82 H45 1_555 1_555
H46 C82 1_555 1_555
H47 C82 1_555 1_555
C83 O13 1_555 1_555
H48 C83 1_555 1_555
H49 C83 1_555 1_555
C84 C83 1_555 1_555
H50 C84 1_555 1_555
H51 C84 1_555 1_555
H52 C84 1_555 1_555
O15 H53 1_555 1_555
H54 O15 1_555 1_555
C8 C13 1_555 1_555
C8 C15 1_555 1_555
C17 C27 1_555 1_555
C20 C25 1_555 1_555
C29 C31 1_555 1_555
C36 C37 1_555 1_555
C39 C40 1_555 1_555
C42 C45 1_555 1_555
C43 C52 1_555 1_555
C54 C59 1_555 1_555
C57 C63 1_555 1_555
C65 C68 1_555 1_555
C72 C73 1_555 1_555
C75 C78 1_555 1_555
C79 C80 1_555 1_555

#END
