
#######################################################################
#
#                 Cambridge Crystallographic Data Centre
#                                CCDC 
#
#######################################################################
#
# If this CIF has been generated from an entry in the Cambridge 
# Structural Database, then it will include bibliographic, chemical, 
# crystal, experimental, refinement or atomic coordinate data resulting 
# from the CCDC's data processing and validation procedures.
#
#######################################################################

data_QEZGIO
_chemical_formula_moiety         'C22 H24 Cl2 N6 O8'
_chemical_name_systematic        
11,32-dichloro-2,8,14,17,20,23,26,29-octaoxa-10,12,31,33,34,35-hexaazatetracyclo[28.3.1.1^3,7^.1^9,13^]hexatriaconta-1(34),3(36),4,6,9(35),10,12,30,32-nonaene
_symmetry_cell_setting           triclinic
_symmetry_space_group_name_H-M   'P -1'
_symmetry_Int_Tables_number      2
_space_group_name_Hall           '-P 1'
loop_
_symmetry_equiv_pos_site_id
_symmetry_equiv_pos_as_xyz
1 x,y,z
2 -x,-y,-z
_cell_length_a                   9.0185(10)
_cell_length_b                   11.602(2)
_cell_length_c                   13.015(3)
_cell_angle_alpha                70.854(3)
_cell_angle_beta                 81.101(2)
_cell_angle_gamma                89.578(3)
_cell_volume                     1269.61
_exptl_crystal_colour            colorless
_exptl_crystal_description       rod
_cell_formula_units_Z            2
loop_
_atom_site_label
_atom_site_type_symbol
_atom_site_fract_x
_atom_site_fract_y
_atom_site_fract_z
Cl1 Cl 0.68050(5) 0.43688(5) 0.38648(4)
Cl2 Cl 0.55067(6) 1.17887(5) 0.31948(5)
O1 O 0.13356(15) 0.45446(11) 0.40995(12)
O2 O 0.31668(15) 0.87444(11) 0.21232(11)
O3 O 0.13186(15) 0.91329(11) 0.54837(11)
O4 O 0.07731(15) 0.71911(12) 0.74940(11)
O5 O 0.20591(16) 0.51444(13) 0.88974(12)
O6 O 0.27029(17) 0.26580(13) 0.98385(12)
O7 O 0.17851(16) 0.06905(13) 0.90614(12)
O8 O 0.32340(15) 0.15488(12) 0.66891(11)
N1 N 0.39240(18) 0.44561(14) 0.39579(13)
N2 N 0.48554(18) 0.29119(14) 0.53983(13)
N3 N 0.22124(17) 0.30313(14) 0.53765(13)
N4 N 0.32529(18) 1.03505(14) 0.44046(13)
N5 N 0.21202(17) 0.88679(13) 0.38159(13)
N6 N 0.41926(17) 1.01507(13) 0.26567(13)
C1 C 0.1416(2) 0.56551(16) 0.32238(16)
C2 C 0.0419(2) 0.57235(17) 0.24992(16)
H1 H -0.0184 0.5046 0.2572
C3 C 0.0337(2) 0.68167(18) 0.16661(16)
H2 H -0.0336 0.6875 0.1179
C4 C 0.1246(2) 0.78296(17) 0.15475(16)
H3 H 0.1206 0.8561 0.0979
C5 C 0.2205(2) 0.77192(16) 0.22961(15)
C6 C 0.2326(2) 0.66470(16) 0.31490(16)
H4 H 0.2983 0.6596 0.3645
C7 C 0.3141(2) 0.92555(15) 0.29173(15)
C8 C 0.4162(2) 1.06338(16) 0.34473(16)
C9 C 0.2250(2) 0.94412(16) 0.45332(15)
C10 C 0.0219(2) 0.81346(16) 0.57107(16)
H5 H 0.0689 0.7458 0.5525
H6 H -0.0583 0.8402 0.5281
C11 C -0.0386(2) 0.77532(17) 0.69169(16)
H7 H -0.0704 0.8460 0.7121
H8 H -0.1244 0.7185 0.7094
C12 C 0.0327(2) 0.67323(18) 0.86554(16)
H9 H -0.0469 0.6105 0.8849
H10 H -0.0044 0.7385 0.8924
C13 C 0.1668(3) 0.62112(18) 0.91613(17)
H11 H 0.2506 0.6809 0.8885
H12 H 0.1442 0.6012 0.9955
C14 C 0.3484(3) 0.4753(2) 0.9167(2)
H13 H 0.3527 0.4702 0.9921
H14 H 0.4264 0.5340 0.8686
C15 C 0.3745(3) 0.3527(2) 0.9039(2)
H15 H 0.3613 0.3556 0.8305
H16 H 0.4763 0.3298 0.9140
C16 C 0.3177(3) 0.14406(19) 1.01355(18)
H17 H 0.2488 0.0943 1.0774
H18 H 0.4160 0.1430 1.0352
C17 C 0.3265(2) 0.0865(2) 0.9250(2)
H19 H 0.3867 0.1390 0.8577
H20 H 0.3734 0.0086 0.9479
C18 C 0.1729(2) 0.01074(18) 0.82615(17)
H21 H 0.0831 -0.0426 0.8479
H22 H 0.2590 -0.0398 0.8251
C19 C 0.1726(2) 0.09876(18) 0.71153(17)
H23 H 0.1442 0.0558 0.6644
H24 H 0.1008 0.1610 0.7134
C20 C 0.3401(2) 0.25251(16) 0.57940(15)
C21 C 0.4992(2) 0.38484(16) 0.44841(16)
C22 C 0.2555(2) 0.40113(16) 0.44796(16)
loop_
_geom_bond_atom_site_label_1
_geom_bond_atom_site_label_2
_geom_bond_site_symmetry_1
_geom_bond_site_symmetry_2
Cl1 C21 1_555 1_555
Cl2 C8 1_555 1_555
O1 C1 1_555 1_555
O2 C5 1_555 1_555
O3 C9 1_555 1_555
O4 C11 1_555 1_555
O5 C13 1_555 1_555
O6 C15 1_555 1_555
O7 C17 1_555 1_555
O8 C19 1_555 1_555
N1 C21 1_555 1_555
N2 C20 1_555 1_555
N3 C20 1_555 1_555
N4 C8 1_555 1_555
N5 C7 1_555 1_555
N6 C7 1_555 1_555
C1 C2 1_555 1_555
C2 H1 1_555 1_555
C3 C2 1_555 1_555
H2 C3 1_555 1_555
C4 C3 1_555 1_555
H3 C4 1_555 1_555
C5 C4 1_555 1_555
C6 C1 1_555 1_555
H4 C6 1_555 1_555
C7 O2 1_555 1_555
C8 N6 1_555 1_555
C9 N4 1_555 1_555
C10 O3 1_555 1_555
H5 C10 1_555 1_555
H6 C10 1_555 1_555
C11 C10 1_555 1_555
H7 C11 1_555 1_555
H8 C11 1_555 1_555
C12 O4 1_555 1_555
H9 C12 1_555 1_555
H10 C12 1_555 1_555
C13 C12 1_555 1_555
H11 C13 1_555 1_555
H12 C13 1_555 1_555
C14 O5 1_555 1_555
H13 C14 1_555 1_555
H14 C14 1_555 1_555
C15 C14 1_555 1_555
H15 C15 1_555 1_555
H16 C15 1_555 1_555
C16 O6 1_555 1_555
H17 C16 1_555 1_555
H18 C16 1_555 1_555
C17 C16 1_555 1_555
H19 C17 1_555 1_555
H20 C17 1_555 1_555
C18 O7 1_555 1_555
H21 C18 1_555 1_555
H22 C18 1_555 1_555
C19 C18 1_555 1_555
H23 C19 1_555 1_555
H24 C19 1_555 1_555
C20 O8 1_555 1_555
C21 N2 1_555 1_555
C22 O1 1_555 1_555
N1 C22 1_555 1_555
N3 C22 1_555 1_555
N5 C9 1_555 1_555
C5 C6 1_555 1_555

#END
