
#######################################################################
#
#                 Cambridge Crystallographic Data Centre
#                                CCDC 
#
#######################################################################
#
# If this CIF has been generated from an entry in the Cambridge 
# Structural Database, then it will include bibliographic, chemical, 
# crystal, experimental, refinement or atomic coordinate data resulting 
# from the CCDC's data processing and validation procedures.
#
#######################################################################

data_QEZKOX
_chemical_formula_moiety         
'C36 H27 N7 O3,0.5(C3 H7 N1 O1),C4 H10 O1,1.5(H2 O1)'
_chemical_name_systematic        
"N,N',N''-(Nitrilotri-4,1-phenylene)triisonicotinamide N,N-dimethylformamide diethyl ether solvate sesquihydrate"
_symmetry_cell_setting           monoclinic
_symmetry_space_group_name_H-M   'C c'
_symmetry_Int_Tables_number      9
_space_group_name_Hall           'C -2yc'
loop_
_symmetry_equiv_pos_site_id
_symmetry_equiv_pos_as_xyz
1 x,y,z
2 x,-y,1/2+z
3 1/2+x,1/2+y,z
4 1/2+x,1/2-y,1/2+z
_cell_length_a                   29.174(4)
_cell_length_b                   16.934(2)
_cell_length_c                   18.119(2)
_cell_angle_alpha                90
_cell_angle_beta                 110.166(2)
_cell_angle_gamma                90
_cell_volume                     8402.64
_exptl_crystal_colour            brown
_exptl_crystal_description       rod
_cell_formula_units_Z            8
loop_
_atom_site_label
_atom_site_type_symbol
_atom_site_fract_x
_atom_site_fract_y
_atom_site_fract_z
C1 C 0.17577(18) 0.0097(3) 0.9056(2)
O1 O 0.16492(14) 0.0605(3) 1.0077(2)
C2 C 0.12414(13) 0.0350(2) 0.9800(2)
C3 C 0.10536(17) 0.0151(4) 1.0453(3)
C4 C 0.17561(16) 0.0787(3) 0.9374(3)
O3 O 0.94111(3) 0.12199(5) 0.10934(6)
O4 O 1.14633(3) 0.69300(6) 0.11679(6)
O5 O 0.76233(3) 0.72207(7) 0.12453(7)
N1 N 0.95810(3) 0.50835(5) 0.15881(5)
N2 N 1.01236(3) 0.18740(5) 0.17194(5)
H1 H 1.0289(13) 0.186(3) 0.2309(5)
N3 N 1.05939(4) -0.10144(6) 0.20424(8)
N4 N 1.09748(3) 0.74633(5) 0.17898(5)
H2 H 1.0931(6) 0.7904(6) 0.2111(7)
N5 N 1.22967(3) 0.94983(6) 0.21309(6)
N6 N 0.77562(3) 0.59743(6) 0.17591(5)
H3 H 0.7654(4) 0.5633(8) 0.1908(6)
N7 N 0.61903(3) 0.68198(7) 0.21354(6)
C9 C 0.97114(3) 0.42807(6) 0.15956(6)
C10 C 0.93732(3) 0.37084(6) 0.11945(6)
H4 H 0.9050 0.3868 0.0899
C11 C 0.94939(3) 0.29137(6) 0.12126(6)
H5 H 0.9255 0.2539 0.0932
C12 C 0.99662(3) 0.26673(6) 0.16431(6)
C13 C 1.03120(3) 0.32374(6) 0.20308(6)
H6 H 1.0638 0.3079 0.2313
C14 C 1.01885(3) 0.40259(6) 0.20108(6)
H7 H 1.0430 0.4401 0.2282
C15 C 0.98496(4) 0.12216(7) 0.14653(7)
C16 C 1.01219(4) 0.04522(7) 0.16837(7)
C17 C 0.99697(5) -0.01726(8) 0.11711(11)
H8 H 0.9708 -0.0113 0.0686
C18 C 1.02119(5) -0.09039(8) 0.13851(11)
H9 H 1.0097 -0.1341 0.1042
C19 C 1.07328(5) -0.03985(8) 0.25252(9)
H10 H 1.1000 -0.0465 0.3002
C20 C 1.05064(4) 0.03411(7) 0.23695(7)
H11 H 1.0618 0.0761 0.2735
C21 C 0.99386(3) 0.56796(6) 0.16421(6)
C22 C 1.02438(3) 0.56140(6) 0.11982(6)
H12 H 1.0215 0.5168 0.0867
C23 C 1.05900(3) 0.61914(6) 0.12333(6)
H13 H 1.0797 0.6137 0.0930
C24 C 1.06324(3) 0.68500(6) 0.17140(6)
C25 C 1.03302(3) 0.69102(6) 0.21671(6)
H14 H 1.0359 0.7355 0.2499
C26 C 0.99918(3) 0.63306(6) 0.21368(6)
H15 H 0.9794 0.6375 0.2455
C27 C 1.13569(4) 0.74619(7) 0.15358(7)
C28 C 1.16751(4) 0.81896(7) 0.17606(7)
C29 C 1.18899(5) 0.84649(9) 0.12411(8)
H16 H 1.1833 0.8211 0.0750
C30 C 1.21929(5) 0.91241(9) 0.14538(8)
H17 H 1.2334 0.9317 0.1088
C31 C 1.20926(4) 0.92231(7) 0.26227(8)
H18 H 1.2161 0.9489 0.3111
C32 C 1.17838(4) 0.85718(7) 0.24797(7)
H19 H 1.1651 0.8394 0.2861
C33 C 0.91159(3) 0.53096(6) 0.16119(6)
C34 C 0.88975(3) 0.60109(6) 0.12642(6)
H20 H 0.9059 0.6332 0.1000
C35 C 0.84455(3) 0.62540(7) 0.12945(7)
H21 H 0.8305 0.6739 0.1060
C36 C 0.82034(3) 0.57768(6) 0.16731(6)
C37 C 0.84178(3) 0.50652(6) 0.20085(6)
H22 H 0.8252 0.4733 0.2258
C38 C 0.88710(3) 0.48348(6) 0.19832(6)
H23 H 0.9013 0.4352 0.2220
C39 C 0.75082(4) 0.66637(7) 0.15795(7)
C40 C 0.70591(4) 0.67097(8) 0.18021(7)
C41 C 0.66756(4) 0.71902(9) 0.13597(8)
H24 H 0.6704 0.7496 0.0938
C42 C 0.62520(4) 0.72165(9) 0.15421(8)
H25 H 0.5990 0.7536 0.1225
C43 C 0.65677(4) 0.63880(7) 0.25776(7)
H26 H 0.6539 0.6117 0.3019
C44 C 0.70024(4) 0.63144(7) 0.24249(7)
H27 H 0.7258 0.5991 0.2751
O6 O 0.59939(4) -0.20489(8) 0.95302(9)
O7 O 0.21426(3) -0.17454(6) 0.96287(6)
O8 O 0.41676(4) 0.39192(5) 0.98288(7)
N8 N 0.40325(3) 0.00803(5) 0.91958(5)
N9 N 0.26542(3) -0.23028(5) 0.90578(5)
H28 H 0.2691(4) -0.2774(7) 0.8836(6)
N10 N 0.13267(3) -0.43398(6) 0.86724(6)
N11 N 0.58673(3) -0.07908(5) 0.90386(5)
H29 H 0.5952(5) -0.0321(9) 0.8695(8)
N12 N 0.74083(3) -0.16832(6) 0.86177(6)
N13 N 0.34797(3) 0.32928(5) 0.90555(5)
H30 H 0.3162(3) 0.3360(6) 0.8809(5)
N14 N 0.30437(4) 0.61893(6) 0.88077(8)
C45 C 0.36835(3) -0.05150(6) 0.91675(6)
C46 C 0.33676(3) -0.04175(6) 0.95802(6)
H31 H 0.3388 0.0045 0.9886
C47 C 0.30189(4) -0.09942(6) 0.95508(6)
H32 H 0.2800 -0.0915 0.9829
C48 C 0.29891(3) -0.16802(6) 0.91192(6)
C49 C 0.33106(4) -0.17754(6) 0.87026(6)
H33 H 0.3298 -0.2244 0.8408
C50 C 0.36471(3) -0.11923(6) 0.87173(6)
H34 H 0.3855 -0.1256 0.8417
C51 C 0.22559(4) -0.22917(7) 0.92777(7)
C52 C 0.19406(4) -0.30168(7) 0.90521(7)
C53 C 0.16886(5) -0.32612(9) 0.95342(8)
H35 H 0.1720 -0.2985 1.0006
C54 C 0.13899(5) -0.39161(9) 0.93128(8)
H36 H 0.1217 -0.4074 0.9646
C55 C 0.15568(4) -0.40756(7) 0.81941(7)
H37 H 0.1506 -0.4347 0.7714
C56 C 0.18644(4) -0.34254(7) 0.83687(7)
H38 H 0.2022 -0.3264 0.8014
C57 C 0.45006(3) -0.01312(6) 0.91845(6)
C58 C 0.47279(3) -0.08353(6) 0.95441(6)
H39 H 0.4569 -0.1159 0.9811
C59 C 0.51797(3) -0.10668(6) 0.95170(6)
H40 H 0.5326 -0.1544 0.9762
C60 C 0.54159(3) -0.05975(6) 0.91305(6)
C61 C 0.52026(3) 0.01166(6) 0.87998(6)
H41 H 0.5370 0.0454 0.8559
C62 C 0.47491(3) 0.03383(6) 0.88196(6)
H42 H 0.4606 0.0820 0.8579
C63 C 0.61232(4) -0.14712(8) 0.92542(8)
C64 C 0.65697(4) -0.15277(8) 0.90037(8)
C65 C 0.69622(5) -0.19591(12) 0.94724(10)
H43 H 0.6953 -0.2212 0.9935
C66 C 0.73722(4) -0.20148(11) 0.92519(10)
H44 H 0.7643 -0.2310 0.9579
C67 C 0.70241(4) -0.12983(7) 0.81547(7)
H45 H 0.7039 -0.1074 0.7683
C68 C 0.65925(4) -0.12042(7) 0.83274(6)
H46 H 0.6323 -0.0921 0.7981
C69 C 0.38991(3) 0.08864(6) 0.91725(6)
C70 C 0.42330(3) 0.14507(6) 0.96000(6)
H47 H 0.4553 0.1289 0.9911
C71 C 0.41081(3) 0.22480(6) 0.95823(6)
H48 H 0.4342 0.2623 0.9877
C72 C 0.36358(3) 0.24939(6) 0.91270(6)
C73 C 0.33002(3) 0.19244(6) 0.87073(6)
H49 H 0.2978 0.2081 0.8401
C74 C 0.34300(3) 0.11384(6) 0.87303(6)
H50 H 0.3195 0.0763 0.8440
C75 C 0.37444(4) 0.39313(7) 0.93846(8)
C76 C 0.34824(4) 0.47109(6) 0.91628(8)
C77 C 0.36238(5) 0.53281(8) 0.96830(11)
H51 H 0.3878 0.5258 1.0174
C78 C 0.33946(5) 0.60534(8) 0.94909(11)
H52 H 0.3493 0.6470 0.9863
C79 C 0.29076(5) 0.55868(8) 0.83026(8)
H53 H 0.2653 0.5674 0.7815
C80 C 0.31171(4) 0.48403(7) 0.84494(8)
H54 H 0.3012 0.4431 0.8070
O10 O 0.27133(12) 0.3671(2) 0.70869(17)
N15 N 0.31452(8) 0.28477(17) 0.66496(12)
C81 C 0.27658(10) 0.3130(2) 0.67095(17)
H55 H 0.2473 0.2871 0.6405
C82 C 0.36123(13) 0.3233(3) 0.7088(2)
H56 H 0.3549 0.3741 0.7294
H57 H 0.3798 0.3321 0.6737
H58 H 0.3801 0.2894 0.7526
C83 C 0.31749(10) 0.2220(2) 0.6252(3)
H59 H 0.2846 0.2015 0.5974
H60 H 0.3369 0.1816 0.6614
H61 H 0.3332 0.2356 0.5871
O11 O 0.91570(15) 0.82611(19) 0.2934(2)
C84 C 0.8996(3) 0.8117(5) 0.2091(3)
H62 H 0.9231 0.8386 0.1891
H63 H 0.9030 0.7543 0.2018
C85 C 0.8562(3) 0.8320(5) 0.1638(4)
H64 H 0.8318 0.8047 0.1805
H65 H 0.8517 0.8175 0.1094
H66 H 0.8522 0.8892 0.1672
C86 C 0.9560(3) 0.8008(5) 0.3601(4)
H67 H 0.9543 0.7424 0.3563
H68 H 0.9849 0.8157 0.3463
C87 C 0.9714(3) 0.8150(2) 0.4422(2)
H69 H 0.9474 0.8485 0.4539
H70 H 1.0031 0.8416 0.4594
H71 H 0.9743 0.7646 0.4701
O13 O 0.01253(18) 0.1291(2) 0.3744(2)
O14 O 0.0401(2) 0.7646(3) 0.9125(3)
O15 O 0.45445(14) 0.4671(3) 0.8324(2)
O16 O 0.69749(11) 0.9570(3) 0.0804(3)
C92 C 0.74478(12) 0.9571(3) 0.09225(18)
H82 H 0.7568 0.9020 0.1010
H83 H 0.7617 0.9871 0.1410
C93 C 0.75871(18) 0.9918(4) 0.0267(3)
H84 H 0.7503 0.9545 -0.0174
H85 H 0.7939 1.0020 0.0454
H86 H 0.7410 1.0414 0.0093
C94 C 0.67741(14) 0.9412(4) 0.1391(2)
H87 H 0.6887 0.8890 0.1631
H88 H 0.6881 0.9818 0.1808
C95 C 0.62739(14) 0.9416(4) 0.1055(2)
H89 H 0.6175 0.9790 0.0615
H90 H 0.6131 0.9575 0.1448
H91 H 0.6159 0.8886 0.0861
O2? O 0.1601(2) 0.0013(4) 0.9514(4)
C5? C 0.17561(16) 0.0787(3) 0.9374(3)
C6? C 0.2255(2) 0.0853(5) 0.9673(3)
C7? C 0.12414(13) 0.0350(2) 0.9800(2)
C8? C 0.1298(5) 0.1098(4) 0.9581(4)
O9? O 0.60983(11) -0.1839(2) 0.9860(2)
O12? O 0.95121(12) 0.8193(2) 0.2995(3)
C88? C 0.9106(2) 0.8141(3) 0.2315(2)
H72? H 0.8960 0.7620 0.2345
H73? H 0.8874 0.8538 0.2381
C89? C 0.9081(2) 0.8208(4) 0.1605(3)
H74? H 0.9329 0.8585 0.1572
H75? H 0.8756 0.8398 0.1286
H76? H 0.9140 0.7692 0.1408
C90? C 0.9525(2) 0.8034(4) 0.3739(3)
H77? H 0.9193 0.8079 0.3770
H78? H 0.9646 0.7491 0.3893
C91? C 0.9829(4) 0.8568(6) 0.4223(8)
H79? H 1.0169 0.8419 0.4311
H80? H 0.9775 0.8577 0.4727
H81? H 0.9764 0.9093 0.3981
loop_
_geom_bond_atom_site_label_1
_geom_bond_atom_site_label_2
_geom_bond_site_symmetry_1
_geom_bond_site_symmetry_2
C1 C4 1_555 1_555
O1 C2 1_555 1_555
C2 C3 1_555 1_555
C4 O1 1_555 1_555
O3 C15 1_555 1_555
O4 C27 1_555 1_555
O5 C39 1_555 1_555
N1 C9 1_555 1_555
N2 H1 1_555 1_555
N3 C18 1_555 1_555
N4 H2 1_555 1_555
N5 C30 1_555 1_555
N6 H3 1_555 1_555
N7 C42 1_555 1_555
C9 C10 1_555 1_555
C10 H4 1_555 1_555
C11 C10 1_555 1_555
H5 C11 1_555 1_555
C12 N2 1_555 1_555
C13 C12 1_555 1_555
H6 C13 1_555 1_555
C14 C9 1_555 1_555
H7 C14 1_555 1_555
C15 N2 1_555 1_555
C16 C15 1_555 1_555
C17 C16 1_555 1_555
H8 C17 1_555 1_555
C18 C17 1_555 1_555
H9 C18 1_555 1_555
C19 N3 1_555 1_555
H10 C19 1_555 1_555
C20 C16 1_555 1_555
H11 C20 1_555 1_555
C21 N1 1_555 1_555
C22 C21 1_555 1_555
H12 C22 1_555 1_555
C23 C22 1_555 1_555
H13 C23 1_555 1_555
C24 N4 1_555 1_555
C25 C24 1_555 1_555
H14 C25 1_555 1_555
C26 C21 1_555 1_555
H15 C26 1_555 1_555
C27 N4 1_555 1_555
C28 C27 1_555 1_555
C29 C28 1_555 1_555
H16 C29 1_555 1_555
C30 C29 1_555 1_555
H17 C30 1_555 1_555
C31 N5 1_555 1_555
H18 C31 1_555 1_555
C32 C28 1_555 1_555
H19 C32 1_555 1_555
C33 N1 1_555 1_555
C34 C33 1_555 1_555
H20 C34 1_555 1_555
C35 C34 1_555 1_555
H21 C35 1_555 1_555
C36 N6 1_555 1_555
C37 C36 1_555 1_555
H22 C37 1_555 1_555
C38 C33 1_555 1_555
H23 C38 1_555 1_555
C39 N6 1_555 1_555
C40 C39 1_555 1_555
C41 C40 1_555 1_555
H24 C41 1_555 1_555
C42 C41 1_555 1_555
H25 C42 1_555 1_555
C43 N7 1_555 1_555
H26 C43 1_555 1_555
C44 C40 1_555 1_555
H27 C44 1_555 1_555
O6 C63 1_555 1_555
O7 C51 1_555 1_555
O8 C75 1_555 1_555
N8 C45 1_555 1_555
N9 H28 1_555 1_555
N10 C54 1_555 1_555
N11 H29 1_555 1_555
N12 C66 1_555 1_555
N13 H30 1_555 1_555
N14 C78 1_555 1_555
C45 C46 1_555 1_555
C46 H31 1_555 1_555
C47 C46 1_555 1_555
H32 C47 1_555 1_555
C48 N9 1_555 1_555
C49 C48 1_555 1_555
H33 C49 1_555 1_555
C50 C45 1_555 1_555
H34 C50 1_555 1_555
C51 N9 1_555 1_555
C52 C51 1_555 1_555
C53 C52 1_555 1_555
H35 C53 1_555 1_555
C54 C53 1_555 1_555
H36 C54 1_555 1_555
C55 N10 1_555 1_555
H37 C55 1_555 1_555
C56 C52 1_555 1_555
H38 C56 1_555 1_555
C57 N8 1_555 1_555
C58 C57 1_555 1_555
H39 C58 1_555 1_555
C59 C58 1_555 1_555
H40 C59 1_555 1_555
C60 N11 1_555 1_555
C61 C60 1_555 1_555
H41 C61 1_555 1_555
C62 C57 1_555 1_555
H42 C62 1_555 1_555
C63 N11 1_555 1_555
C64 C63 1_555 1_555
C65 C64 1_555 1_555
H43 C65 1_555 1_555
C66 C65 1_555 1_555
H44 C66 1_555 1_555
C67 N12 1_555 1_555
H45 C67 1_555 1_555
C68 C64 1_555 1_555
H46 C68 1_555 1_555
C69 N8 1_555 1_555
C70 C69 1_555 1_555
H47 C70 1_555 1_555
C71 C70 1_555 1_555
H48 C71 1_555 1_555
C72 N13 1_555 1_555
C73 C72 1_555 1_555
H49 C73 1_555 1_555
C74 C69 1_555 1_555
H50 C74 1_555 1_555
C75 N13 1_555 1_555
C76 C75 1_555 1_555
C77 C76 1_555 1_555
H51 C77 1_555 1_555
C78 C77 1_555 1_555
H52 C78 1_555 1_555
C79 N14 1_555 1_555
H53 C79 1_555 1_555
C80 C76 1_555 1_555
H54 C80 1_555 1_555
O10 C81 1_555 1_555
N15 C81 1_555 1_555
C81 H55 1_555 1_555
C82 N15 1_555 1_555
H56 C82 1_555 1_555
H57 C82 1_555 1_555
H58 C82 1_555 1_555
C83 N15 1_555 1_555
H59 C83 1_555 1_555
H60 C83 1_555 1_555
H61 C83 1_555 1_555
O11 C84 1_555 1_555
C84 H62 1_555 1_555
H63 C84 1_555 1_555
C85 C84 1_555 1_555
H64 C85 1_555 1_555
H65 C85 1_555 1_555
H66 C85 1_555 1_555
C86 O11 1_555 1_555
H67 C86 1_555 1_555
H68 C86 1_555 1_555
C87 C86 1_555 1_555
H69 C87 1_555 1_555
H70 C87 1_555 1_555
H71 C87 1_555 1_555
O16 C92 1_555 1_555
C92 H82 1_555 1_555
H83 C92 1_555 1_555
C93 C92 1_555 1_555
H84 C93 1_555 1_555
H85 C93 1_555 1_555
H86 C93 1_555 1_555
C94 O16 1_555 1_555
H87 C94 1_555 1_555
H88 C94 1_555 1_555
C95 C94 1_555 1_555
H89 C95 1_555 1_555
H90 C95 1_555 1_555
H91 C95 1_555 1_555
C11 C12 1_555 1_555
C13 C14 1_555 1_555
C19 C20 1_555 1_555
C23 C24 1_555 1_555
C25 C26 1_555 1_555
C31 C32 1_555 1_555
C35 C36 1_555 1_555
C37 C38 1_555 1_555
C43 C44 1_555 1_555
C47 C48 1_555 1_555
C49 C50 1_555 1_555
C55 C56 1_555 1_555
C59 C60 1_555 1_555
C61 C62 1_555 1_555
C67 C68 1_555 1_555
C71 C72 1_555 1_555
C73 C74 1_555 1_555
C79 C80 1_555 1_555

#END
