
#######################################################################
#
#                 Cambridge Crystallographic Data Centre
#                                CCDC 
#
#######################################################################
#
# If this CIF has been generated from an entry in the Cambridge 
# Structural Database, then it will include bibliographic, chemical, 
# crystal, experimental, refinement or atomic coordinate data resulting 
# from the CCDC's data processing and validation procedures.
#
#######################################################################

data_QEZMUF
_chemical_formula_moiety         'C15 H24 N2 O4 S1'
_chemical_name_systematic        
't-Butyl (1-(4-formyl-1,3-thiazol-2-yl)-1-hydroxy-4-methylpentan-3-yl)carbamate'
_symmetry_cell_setting           orthorhombic
_symmetry_space_group_name_H-M   'P 21 21 21'
_symmetry_Int_Tables_number      19
_space_group_name_Hall           'P 2ac 2ab'
loop_
_symmetry_equiv_pos_site_id
_symmetry_equiv_pos_as_xyz
1 x,y,z
2 1/2-x,-y,1/2+z
3 -x,1/2+y,1/2-z
4 1/2+x,1/2-y,-z
_cell_length_a                   5.9201(17)
_cell_length_b                   13.559(4)
_cell_length_c                   22.513(7)
_cell_angle_alpha                90
_cell_angle_beta                 90
_cell_angle_gamma                90
_cell_volume                     1807.13
_exptl_crystal_colour            colorless
_exptl_crystal_description       Prism
_cell_formula_units_Z            4
loop_
_atom_site_label
_atom_site_type_symbol
_atom_site_fract_x
_atom_site_fract_y
_atom_site_fract_z
S1 S -0.22235(8) 0.80115(4) 0.19775(2)
O1 O 0.3359(2) 0.82333(11) 0.03750(5)
O2 O -0.01397(18) 0.80537(10) 0.31034(5)
H1 H 0.0385 0.7868 0.3431
O3 O 0.2728(2) 0.75558(8) 0.40005(5)
O4 O 0.6507(2) 0.72351(9) 0.40395(5)
N1 N 0.1871(2) 0.81745(10) 0.15962(6)
N2 N 0.5345(3) 0.85803(11) 0.35796(6)
C1 C 0.1371(4) 0.81622(14) 0.04987(8)
H2 H 0.0326 0.8132 0.0179
C2 C 0.0452(3) 0.81192(13) 0.11059(7)
C3 C -0.1802(3) 0.80358(14) 0.12292(7)
H3 H -0.2965 0.7997 0.0939
C4 C 0.0686(3) 0.81282(13) 0.20794(7)
C5 C 0.1667(3) 0.81973(13) 0.26929(7)
H4 H 0.2807 0.7660 0.2747
C6 C 0.2827(3) 0.91986(12) 0.27755(7)
H5 H 0.4086 0.9253 0.2488
H6 H 0.1730 0.9728 0.2684
C7 C 0.3749(3) 0.93580(13) 0.34019(7)
H7 H 0.2438 0.9326 0.3681
C8 C 0.4838(3) 1.03841(13) 0.34743(8)
H8 H 0.3739 1.0877 0.3315
C9 C 0.7030(4) 1.05074(14) 0.31231(9)
H9 H 0.7539 1.1194 0.3150
H10 H 0.6764 1.0336 0.2706
H11 H 0.8192 1.0072 0.3288
C10 C 0.5208(4) 1.06316(16) 0.41292(8)
H12 H 0.3765 1.0594 0.4341
H13 H 0.5823 1.1300 0.4164
H14 H 0.6275 1.0160 0.4303
C11 C 0.4691(3) 0.77699(13) 0.38825(7)
C12 C 0.6259(3) 0.62007(14) 0.42453(9)
C13 C 0.5157(4) 0.55919(16) 0.37600(10)
H15 H 0.3580 0.5797 0.3713
H16 H 0.5213 0.4892 0.3868
H17 H 0.5967 0.5693 0.3385
C14 C 0.5006(4) 0.61565(15) 0.48316(9)
H18 H 0.5715 0.6609 0.5115
H19 H 0.5065 0.5483 0.4988
H20 H 0.3428 0.6349 0.4770
C15 C 0.8722(4) 0.59078(17) 0.43259(12)
H21 H 0.9492 0.5927 0.3941
H22 H 0.8803 0.5238 0.4489
H23 H 0.9456 0.6369 0.4600
H24 H 0.6779(18) 0.8600(12) 0.3458(7)
loop_
_geom_bond_atom_site_label_1
_geom_bond_atom_site_label_2
_geom_bond_site_symmetry_1
_geom_bond_site_symmetry_2
S1 C3 1_555 1_555
O1 C1 1_555 1_555
O2 H1 1_555 1_555
O3 C11 1_555 1_555
O4 C11 1_555 1_555
N1 C2 1_555 1_555
N2 C7 1_555 1_555
C1 H2 1_555 1_555
C2 C1 1_555 1_555
C3 C2 1_555 1_555
H3 C3 1_555 1_555
C4 S1 1_555 1_555
C5 O2 1_555 1_555
H4 C5 1_555 1_555
C6 C5 1_555 1_555
H5 C6 1_555 1_555
H6 C6 1_555 1_555
C7 C6 1_555 1_555
H7 C7 1_555 1_555
C8 C7 1_555 1_555
H8 C8 1_555 1_555
C9 C8 1_555 1_555
H9 C9 1_555 1_555
H10 C9 1_555 1_555
H11 C9 1_555 1_555
C10 C8 1_555 1_555
H12 C10 1_555 1_555
H13 C10 1_555 1_555
H14 C10 1_555 1_555
C11 N2 1_555 1_555
C12 O4 1_555 1_555
C13 C12 1_555 1_555
H15 C13 1_555 1_555
H16 C13 1_555 1_555
H17 C13 1_555 1_555
C14 C12 1_555 1_555
H18 C14 1_555 1_555
H19 C14 1_555 1_555
H20 C14 1_555 1_555
C15 C12 1_555 1_555
H21 C15 1_555 1_555
H22 C15 1_555 1_555
H23 C15 1_555 1_555
H24 N2 1_555 1_555
N1 C4 1_555 1_555
C4 C5 1_555 1_555

#END
