
#######################################################################
#
#                 Cambridge Crystallographic Data Centre
#                                CCDC 
#
#######################################################################
#
# If this CIF has been generated from an entry in the Cambridge 
# Structural Database, then it will include bibliographic, chemical, 
# crystal, experimental, refinement or atomic coordinate data resulting 
# from the CCDC's data processing and validation procedures.
#
#######################################################################

data_QIBBOT
_chemical_formula_moiety         'C18 H20 O1'
_chemical_name_systematic        
cis-3-(2-methylphenyl)-4-phenyltetrahydropyran
_symmetry_cell_setting           monoclinic
_symmetry_space_group_name_H-M   'P 21/c'
_symmetry_Int_Tables_number      14
_space_group_name_Hall           '-P 2ybc'
loop_
_symmetry_equiv_pos_site_id
_symmetry_equiv_pos_as_xyz
1 x,y,z
2 -x,1/2+y,1/2-z
3 -x,-y,-z
4 x,1/2-y,1/2+z
_cell_length_a                   9.8430(19)
_cell_length_b                   5.8261(11)
_cell_length_c                   24.461(5)
_cell_angle_alpha                90
_cell_angle_beta                 92.610(3)
_cell_angle_gamma                90
_cell_volume                     1401.29
_exptl_crystal_colour            colorless
_exptl_crystal_description       columnar
_chemical_melting_point          '126-127 deg.C'
_cell_formula_units_Z            4
_exptl_crystal_recrystallization_method 'dichloromethane/ethyl acetate'
loop_
_atom_site_label
_atom_site_type_symbol
_atom_site_fract_x
_atom_site_fract_y
_atom_site_fract_z
O1 O 0.45496(9) 0.27792(17) 0.04129(4)
C1 C -0.07930(13) 0.3374(2) 0.08053(6)
C2 C -0.19959(14) 0.2660(3) 0.10248(7)
C3 C -0.20651(15) 0.0574(3) 0.12813(6)
C4 C -0.09381(15) -0.0823(3) 0.13090(6)
C5 C 0.02600(13) -0.0132(2) 0.10876(5)
C6 C 0.03597(12) 0.2000(2) 0.08376(5)
C7 C 0.16734(12) 0.2835(2) 0.06121(5)
C8 C 0.23164(14) 0.1115(2) 0.02337(5)
C9 C 0.35749(15) 0.2120(3) -0.00060(6)
C10 C 0.40035(14) 0.4468(2) 0.07610(6)
C11 C 0.27414(12) 0.3699(2) 0.10563(5)
C12 C 0.30369(12) 0.2044(2) 0.15264(5)
C13 C 0.40248(13) 0.0334(2) 0.14851(6)
C14 C 0.43226(15) -0.1182(3) 0.19051(7)
C15 C 0.36317(17) -0.1028(3) 0.23834(6)
C16 C 0.26544(16) 0.0638(3) 0.24298(6)
C17 C 0.23402(13) 0.2202(2) 0.20137(6)
C18 C 0.12656(16) 0.3967(3) 0.21038(6)
H1 H 0.1459 0.4196 0.0408
H2 H 0.2392 0.5087 0.1209
H3 H 0.2543 -0.0191 0.0428
H4 H 0.4762 0.4905 0.1030
H5 H 0.3301 0.3538 -0.0219
H6 H 0.1100 -0.1136 0.1113
H7 H 0.3810 0.5873 0.0575
H8 H -0.0940 -0.2382 0.1475
H9 H 0.4515 0.0262 0.1132
H10 H 0.4055 0.0901 -0.0209
H11 H -0.0714 0.4902 0.0603
H12 H 0.3815 -0.2183 0.2697
H13 H 0.5003 -0.2364 0.1877
H14 H 0.1689 0.0784 -0.0080
H15 H 0.2198 0.0707 0.2772
H16 H 0.0914 0.4073 0.2440
H17 H -0.2784 0.3730 0.0967
H18 H -0.2950 0.0000 0.1432
H19 H 0.0501 0.3805 0.1831
H20 H 0.1577 0.5727 0.2040
loop_
_geom_bond_atom_site_label_1
_geom_bond_atom_site_label_2
_geom_bond_site_symmetry_1
_geom_bond_site_symmetry_2
O1 C9 1_555 1_555
C1 C2 1_555 1_555
C2 C3 1_555 1_555
C3 C4 1_555 1_555
C4 C5 1_555 1_555
C5 C6 1_555 1_555
C6 C1 1_555 1_555
C7 C6 1_555 1_555
C8 C7 1_555 1_555
C9 C8 1_555 1_555
C10 O1 1_555 1_555
C11 C7 1_555 1_555
C12 C11 1_555 1_555
C13 C12 1_555 1_555
C14 C13 1_555 1_555
C15 C14 1_555 1_555
C16 C15 1_555 1_555
C17 C12 1_555 1_555
C18 C17 1_555 1_555
H1 C7 1_555 1_555
H2 C11 1_555 1_555
H3 C8 1_555 1_555
H4 C10 1_555 1_555
H5 C9 1_555 1_555
H6 C5 1_555 1_555
H7 C10 1_555 1_555
H8 C4 1_555 1_555
H9 C13 1_555 1_555
H10 C9 1_555 1_555
H11 C1 1_555 1_555
H12 C15 1_555 1_555
H13 C14 1_555 1_555
H14 C8 1_555 1_555
H15 C16 1_555 1_555
H16 C18 1_555 1_555
H17 C2 1_555 1_555
H18 C3 1_555 1_555
H19 C18 1_555 1_555
H20 C18 1_555 1_555
C10 C11 1_555 1_555
C16 C17 1_555 1_555

#END
