
#######################################################################
#
#                 Cambridge Crystallographic Data Centre
#                                CCDC 
#
#######################################################################
#
# If this CIF has been generated from an entry in the Cambridge 
# Structural Database, then it will include bibliographic, chemical, 
# crystal, experimental, refinement or atomic coordinate data resulting 
# from the CCDC's data processing and validation procedures.
#
#######################################################################

data_QIBDEN
_chemical_formula_moiety         'C33 H27 N1 O1'
_chemical_name_systematic        
1-(9-methoxyphenanthren-3-yl)-N,N-dimethyl-4-phenylnaphthalen-2-amine
_symmetry_cell_setting           monoclinic
_symmetry_space_group_name_H-M   'P 21/c'
_symmetry_Int_Tables_number      14
_space_group_name_Hall           '-P 2ybc'
loop_
_symmetry_equiv_pos_site_id
_symmetry_equiv_pos_as_xyz
1 x,y,z
2 -x,1/2+y,1/2-z
3 -x,-y,-z
4 x,1/2-y,1/2+z
_cell_length_a                   6.518(4)
_cell_length_b                   15.906(9)
_cell_length_c                   23.585(14)
_cell_angle_alpha                90
_cell_angle_beta                 96.459(10)
_cell_angle_gamma                90
_cell_volume                     2429.66
_exptl_crystal_colour            colorless
_exptl_crystal_description       plate
_cell_formula_units_Z            4
loop_
_atom_site_label
_atom_site_type_symbol
_atom_site_fract_x
_atom_site_fract_y
_atom_site_fract_z
C1 C 0.6829(7) 0.2568(2) 0.61538(14)
C2 C 0.9992(8) 0.1713(3) 0.61085(17)
H1 H 0.9911 0.1529 0.6480
C3 C 1.1575(8) 0.1441(3) 0.58260(19)
H2 H 1.2565 0.1078 0.6004
C4 C 1.1703(7) 0.1709(3) 0.52706(18)
H3 H 1.2783 0.1524 0.5076
C5 C 1.0260(7) 0.2241(3) 0.50088(16)
H4 H 1.0379 0.2417 0.4638
C6 C 0.6946(6) 0.3360(2) 0.44407(14)
H5 H 0.8009 0.3198 0.4232
C7 C 0.5395(7) 0.3853(2) 0.41821(14)
C8 C 0.3799(7) 0.4099(3) 0.45003(16)
H6 H 0.2722 0.4429 0.4331
C9 C 0.3815(7) 0.3859(3) 0.50576(16)
H7 H 0.2757 0.4036 0.5263
C10 C 0.5374(7) 0.3085(3) 0.59086(15)
H8 H 0.4338 0.3275 0.6117
C11 C 0.8482(7) 0.2264(2) 0.58539(15)
C12 C 0.8581(6) 0.2534(2) 0.52867(14)
C13 C 0.5390(7) 0.3350(2) 0.53250(15)
C14 C 0.6996(6) 0.3088(2) 0.50118(14)
C15 C 0.5426(8) 0.2598(3) 0.70469(17)
H9 H 0.5529 0.3199 0.7065
H10 H 0.5675 0.2368 0.7425
H11 H 0.4069 0.2441 0.6880
C16 C 0.5282(6) 0.4141(2) 0.35752(14)
C17 C 0.8434(7) 0.5014(3) 0.38005(16)
H12 H 0.8599 0.4795 0.4168
C18 C 0.9819(7) 0.5595(3) 0.36558(18)
H13 H 1.0895 0.5767 0.3923
C19 C 0.9623(8) 0.5933(3) 0.31061(18)
H14 H 1.0572 0.6328 0.3006
C20 C 0.8032(7) 0.5682(3) 0.27163(17)
H15 H 0.7906 0.5915 0.2352
C21 C 0.4863(7) 0.4823(2) 0.24577(15)
C22 C 0.3473(7) 0.4258(2) 0.26248(15)
H16 H 0.2358 0.4105 0.2364
C23 C 0.3648(7) 0.3896(2) 0.31773(15)
C24 C 0.6752(6) 0.4730(2) 0.34147(14)
C25 C 0.6569(7) 0.5077(2) 0.28505(15)
C26 C 0.2992(8) 0.2475(3) 0.35188(18)
H17 H 0.3580 0.2188 0.3218
H18 H 0.1886 0.2145 0.3639
H19 H 0.4034 0.2557 0.3835
C27 C 0.0280(8) 0.3207(3) 0.29405(18)
H20 H -0.0270 0.3756 0.2847
H21 H -0.0695 0.2891 0.3131
H22 H 0.0537 0.2920 0.2597
C28 C 0.4553(7) 0.5156(3) 0.18562(15)
C29 C 0.6024(8) 0.5016(3) 0.14825(17)
H23 H 0.7238 0.4731 0.1606
C30 C 0.5672(10) 0.5304(3) 0.09257(19)
H24 H 0.6655 0.5207 0.0676
C31 C 0.3898(11) 0.5730(4) 0.0736(2)
H25 H 0.3684 0.5924 0.0362
C32 C 0.2439(9) 0.5868(3) 0.1102(2)
H26 H 0.1227 0.6154 0.0978
C33 C 0.2786(8) 0.5579(3) 0.16592(17)
H27 H 0.1791 0.5674 0.1905
N1 N 0.2196(6) 0.3287(2) 0.33134(13)
O1 O 0.6918(5) 0.22781(19) 0.67066(11)
loop_
_geom_bond_atom_site_label_1
_geom_bond_atom_site_label_2
_geom_bond_site_symmetry_1
_geom_bond_site_symmetry_2
C1 C10 1_555 1_555
C2 H1 1_555 1_555
C3 C2 1_555 1_555
H2 C3 1_555 1_555
C4 C3 1_555 1_555
H3 C4 1_555 1_555
C5 C4 1_555 1_555
H4 C5 1_555 1_555
C6 H5 1_555 1_555
C7 C6 1_555 1_555
C8 C7 1_555 1_555
H6 C8 1_555 1_555
C9 C8 1_555 1_555
H7 C9 1_555 1_555
C10 H8 1_555 1_555
C11 C1 1_555 1_555
C12 C5 1_555 1_555
C13 C9 1_555 1_555
C14 C6 1_555 1_555
C15 H9 1_555 1_555
H10 C15 1_555 1_555
H11 C15 1_555 1_555
C16 C7 1_555 1_555
C17 H12 1_555 1_555
C18 C17 1_555 1_555
H13 C18 1_555 1_555
C19 C18 1_555 1_555
H14 C19 1_555 1_555
C20 C19 1_555 1_555
H15 C20 1_555 1_555
C21 C22 1_555 1_555
C22 H16 1_555 1_555
C23 C16 1_555 1_555
C24 C16 1_555 1_555
C25 C20 1_555 1_555
C26 H17 1_555 1_555
H18 C26 1_555 1_555
H19 C26 1_555 1_555
C27 H20 1_555 1_555
H21 C27 1_555 1_555
H22 C27 1_555 1_555
C28 C21 1_555 1_555
C29 C28 1_555 1_555
H23 C29 1_555 1_555
C30 C29 1_555 1_555
H24 C30 1_555 1_555
C31 C30 1_555 1_555
H25 C31 1_555 1_555
C32 C31 1_555 1_555
H26 C32 1_555 1_555
C33 C28 1_555 1_555
H27 C33 1_555 1_555
N1 C23 1_555 1_555
O1 C1 1_555 1_555
C2 C11 1_555 1_555
C10 C13 1_555 1_555
C11 C12 1_555 1_555
C12 C14 1_555 1_555
C13 C14 1_555 1_555
C15 O1 1_555 1_555
C17 C24 1_555 1_555
C21 C25 1_555 1_555
C22 C23 1_555 1_555
C24 C25 1_555 1_555
C26 N1 1_555 1_555
C27 N1 1_555 1_555
C32 C33 1_555 1_555

#END
