
#######################################################################
#
#                 Cambridge Crystallographic Data Centre
#                                CCDC 
#
#######################################################################
#
# If this CIF has been generated from an entry in the Cambridge 
# Structural Database, then it will include bibliographic, chemical, 
# crystal, experimental, refinement or atomic coordinate data resulting 
# from the CCDC's data processing and validation procedures.
#
#######################################################################

data_QIBDAJ
_chemical_formula_moiety         'C24 H16 O2,C4 H8 O2'
_chemical_name_systematic        
'10-(2-hydroxynaphthalen-1-yl)phenanthren-9-ol ethyl acetate solvate'
_symmetry_cell_setting           triclinic
_symmetry_space_group_name_H-M   'P -1'
_symmetry_Int_Tables_number      2
_space_group_name_Hall           '-P 1'
loop_
_symmetry_equiv_pos_site_id
_symmetry_equiv_pos_as_xyz
1 x,y,z
2 -x,-y,-z
_cell_length_a                   9.6307(19)
_cell_length_b                   13.811(3)
_cell_length_c                   17.950(4)
_cell_angle_alpha                88.544(7)
_cell_angle_beta                 80.618(6)
_cell_angle_gamma                75.010(6)
_cell_volume                     2275.08
_exptl_crystal_colour            yellow
_exptl_crystal_description       block
_cell_formula_units_Z            4
_chemical_properties_physical    Air-sensitive
loop_
_atom_site_label
_atom_site_type_symbol
_atom_site_fract_x
_atom_site_fract_y
_atom_site_fract_z
C1 C 0.7351(6) 0.2846(5) 0.8049(3)
C2 C 0.8444(7) 0.3192(5) 0.8198(4)
C3 C 1.0908(7) 0.2950(6) 0.8503(4)
H1 H 1.0741 0.3643 0.8536
C4 C 1.2239(7) 0.2342(6) 0.8632(4)
H2 H 1.2969 0.2618 0.8741
C5 C 1.2444(8) 0.1319(7) 0.8592(5)
H3 H 1.3325 0.0899 0.8681
C6 C 1.1386(7) 0.0907(6) 0.8426(4)
H4 H 1.1569 0.0213 0.8400
C7 C 0.8986(9) 0.0060(6) 0.8061(4)
H5 H 0.9838 -0.0395 0.8151
C8 C 0.7900(10) -0.0291(6) 0.7886(4)
H6 H 0.8030 -0.0979 0.7842
C9 C 0.6591(9) 0.0353(6) 0.7771(4)
H7 H 0.5836 0.0107 0.7657
C10 C 0.6438(7) 0.1375(5) 0.7831(4)
H8 H 0.5562 0.1812 0.7754
C11 C 0.9834(6) 0.2549(5) 0.8329(3)
C12 C 1.0014(6) 0.1505(5) 0.8291(3)
C13 C 0.7529(6) 0.1777(5) 0.7998(3)
C14 C 0.8879(7) 0.1101(5) 0.8114(3)
C15 C 0.5901(7) 0.3537(5) 0.7962(4)
C16 C 0.5102(7) 0.3675(6) 0.9347(4)
H9 H 0.5992 0.3256 0.9423
C17 C 0.4060(8) 0.4045(6) 0.9956(4)
H10 H 0.4232 0.3851 1.0440
C18 C 0.2727(8) 0.4718(6) 0.9859(5)
H11 H 0.2034 0.4987 1.0276
C19 C 0.2477(8) 0.4963(6) 0.9157(5)
H12 H 0.1594 0.5402 0.9094
C20 C 0.3213(7) 0.4796(6) 0.7782(5)
H13 H 0.2314 0.5211 0.7715
C21 C 0.4199(8) 0.4424(6) 0.7168(5)
H14 H 0.3978 0.4577 0.6686
C22 C 0.5564(8) 0.3802(6) 0.7261(4)
C23 C 0.4847(6) 0.3920(5) 0.8610(4)
C24 C 0.3498(7) 0.4580(5) 0.8513(4)
H15 H 0.755(12) 0.453(9) 0.805(7)
H16 H 0.739(3) 0.328(5) 0.671(3)
O1 O 0.8343(5) 0.4198(4) 0.8251(3)
O2 O 0.6482(6) 0.3467(5) 0.6608(3)
C25 C 0.3744(6) 0.7645(5) 0.7895(3)
C26 C 0.2599(7) 0.7386(5) 0.7704(4)
C27 C 0.0143(6) 0.7086(5) 0.8050(4)
H17 H 0.0204 0.6847 0.7562
C28 C -0.1063(8) 0.7081(6) 0.8594(5)
H18 H -0.1806 0.6827 0.8475
C29 C -0.1152(8) 0.7456(6) 0.9311(5)
H19 H -0.1960 0.7448 0.9672
C30 C -0.0095(7) 0.7833(6) 0.9498(4)
H20 H -0.0198 0.8093 0.9983
C31 C 0.2263(8) 0.8676(5) 0.9857(4)
H21 H 0.1414 0.8772 1.0209
C32 C 0.3410(8) 0.9003(6) 1.0022(4)
H22 H 0.3321 0.9322 1.0484
C33 C 0.4698(7) 0.8869(5) 0.9515(4)
H23 H 0.5474 0.9079 0.9641
C34 C 0.4816(7) 0.8418(5) 0.8817(4)
H24 H 0.5671 0.8332 0.8472
C35 C 0.1252(6) 0.7452(5) 0.8243(3)
C36 C 0.1179(7) 0.7842(5) 0.8969(3)
C37 C 0.3645(6) 0.8091(4) 0.8630(3)
C38 C 0.2358(6) 0.8201(4) 0.9165(3)
C39 C 0.5153(6) 0.7464(5) 0.7351(3)
C40 C 0.4418(8) 0.9086(5) 0.6722(4)
H25 H 0.3494 0.9212 0.7011
C41 C 0.4763(9) 0.9783(7) 0.6204(5)
H26 H 0.4086 1.0392 0.6167
C42 C 0.6105(12) 0.9581(8) 0.5744(5)
H27 H 0.6295 1.0044 0.5383
C43 C 0.7143(10) 0.8731(8) 0.5803(4)
H28 H 0.8050 0.8620 0.5498
C44 C 0.7910(8) 0.7108(7) 0.6429(4)
H29 H 0.8826 0.6997 0.6133
C45 C 0.7617(7) 0.6405(6) 0.6948(4)
H30 H 0.8319 0.5811 0.6995
C46 C 0.6236(7) 0.6602(5) 0.7406(4)
C47 C 0.5461(7) 0.8194(5) 0.6807(3)
C48 C 0.6834(7) 0.7991(6) 0.6345(4)
H31 H 0.345(3) 0.686(4) 0.671(3)
H32 H 0.512(4) 0.583(6) 0.811(4)
O3 O 0.2548(5) 0.7028(4) 0.7012(3)
O4 O 0.6043(5) 0.5889(4) 0.7927(3)
C49 C 0.4605(11) 0.7475(8) 0.4897(5)
H33 H 0.5263 0.7899 0.4833
H34 H 0.3711 0.7816 0.5208
H35 H 0.4408 0.7320 0.4413
C50 C 0.5266(10) 0.6544(7) 0.5260(6)
C51 C 0.7171(10) 0.5062(8) 0.5169(5)
H36 H 0.6478 0.4664 0.5317
H37 H 0.7548 0.5198 0.5613
C52 C 0.8373(10) 0.4514(8) 0.4590(6)
H38 H 0.8033 0.4526 0.4115
H39 H 0.8704 0.3832 0.4741
H40 H 0.9163 0.4829 0.4539
O5 O 0.4795(6) 0.6275(5) 0.5872(4)
O6 O 0.6461(6) 0.6002(5) 0.4836(3)
C53 C 1.1658(19) 0.2618(13) 0.6480(8)
H41 H 1.1456 0.3308 0.6553
H42 H 1.2575 0.2213 0.6525
C54 C 1.065(2) 0.2216(15) 0.6315(8)
C55 C 0.9981(15) 0.0678(12) 0.6074(8)
H43 H 0.9701 0.0886 0.5588
H44 H 0.9116 0.0839 0.6457
C56 C 1.0696(16) -0.0428(13) 0.6060(8)
H45 H 1.1440 -0.0595 0.5624
H46 H 0.9980 -0.0794 0.6040
H47 H 1.1125 -0.0602 0.6508
O7 O 0.9354(12) 0.2428(10) 0.6202(6)
O8 O 1.0976(9) 0.1151(9) 0.6235(5)
loop_
_geom_bond_atom_site_label_1
_geom_bond_atom_site_label_2
_geom_bond_site_symmetry_1
_geom_bond_site_symmetry_2
C1 C2 1_555 1_555
C2 C11 1_555 1_555
C3 H1 1_555 1_555
C4 C3 1_555 1_555
H2 C4 1_555 1_555
C5 C4 1_555 1_555
H3 C5 1_555 1_555
C6 C5 1_555 1_555
H4 C6 1_555 1_555
C7 H5 1_555 1_555
C8 C7 1_555 1_555
H6 C8 1_555 1_555
C9 C8 1_555 1_555
H7 C9 1_555 1_555
C10 C9 1_555 1_555
H8 C10 1_555 1_555
C11 C3 1_555 1_555
C12 C6 1_555 1_555
C13 C1 1_555 1_555
C14 C7 1_555 1_555
C15 C1 1_555 1_555
C16 H9 1_555 1_555
C17 C16 1_555 1_555
H10 C17 1_555 1_555
C18 C17 1_555 1_555
H11 C18 1_555 1_555
C19 C18 1_555 1_555
H12 C19 1_555 1_555
C20 H13 1_555 1_555
C21 C20 1_555 1_555
H14 C21 1_555 1_555
C22 C15 1_555 1_555
C23 C15 1_555 1_555
C24 C19 1_555 1_555
H15 O1 1_555 1_555
H16 O2 1_555 1_555
O1 C2 1_555 1_555
O2 C22 1_555 1_555
C25 C26 1_555 1_555
C26 C35 1_555 1_555
C27 H17 1_555 1_555
C28 C27 1_555 1_555
H18 C28 1_555 1_555
C29 C28 1_555 1_555
H19 C29 1_555 1_555
C30 C29 1_555 1_555
H20 C30 1_555 1_555
C31 H21 1_555 1_555
C32 C31 1_555 1_555
H22 C32 1_555 1_555
C33 C32 1_555 1_555
H23 C33 1_555 1_555
C34 C33 1_555 1_555
H24 C34 1_555 1_555
C35 C27 1_555 1_555
C36 C30 1_555 1_555
C37 C25 1_555 1_555
C38 C31 1_555 1_555
C39 C25 1_555 1_555
C40 H25 1_555 1_555
C41 C40 1_555 1_555
H26 C41 1_555 1_555
C42 C41 1_555 1_555
H27 C42 1_555 1_555
C43 C42 1_555 1_555
H28 C43 1_555 1_555
C44 H29 1_555 1_555
C45 C44 1_555 1_555
H30 C45 1_555 1_555
C46 C39 1_555 1_555
C47 C39 1_555 1_555
C48 C43 1_555 1_555
H31 O3 1_555 1_555
H32 O4 1_555 1_555
O3 C26 1_555 1_555
O4 C46 1_555 1_555
C49 H33 1_555 1_555
H34 C49 1_555 1_555
H35 C49 1_555 1_555
C50 C49 1_555 1_555
C51 H36 1_555 1_555
H37 C51 1_555 1_555
C52 C51 1_555 1_555
H38 C52 1_555 1_555
H39 C52 1_555 1_555
H40 C52 1_555 1_555
O5 C50 1_555 1_555
O6 C50 1_555 1_555
C53 H41 1_555 1_555
H42 C53 1_555 1_555
C54 C53 1_555 1_555
C55 H43 1_555 1_555
H44 C55 1_555 1_555
C56 C55 1_555 1_555
H45 C56 1_555 1_555
H46 C56 1_555 1_555
H47 C56 1_555 1_555
O7 C54 1_555 1_555
O8 C54 1_555 1_555
C10 C13 1_555 1_555
C11 C12 1_555 1_555
C12 C14 1_555 1_555
C13 C14 1_555 1_555
C16 C23 1_555 1_555
C20 C24 1_555 1_555
C21 C22 1_555 1_555
C23 C24 1_555 1_555
C34 C37 1_555 1_555
C35 C36 1_555 1_555
C36 C38 1_555 1_555
C37 C38 1_555 1_555
C40 C47 1_555 1_555
C44 C48 1_555 1_555
C45 C46 1_555 1_555
C47 C48 1_555 1_555
C51 O6 1_555 1_555
C55 O8 1_555 1_555

#END
