
#######################################################################
#
#                 Cambridge Crystallographic Data Centre
#                                CCDC 
#
#######################################################################
#
# If this CIF has been generated from an entry in the Cambridge 
# Structural Database, then it will include bibliographic, chemical, 
# crystal, experimental, refinement or atomic coordinate data resulting 
# from the CCDC's data processing and validation procedures.
#
#######################################################################

data_QIBFAK
_chemical_formula_moiety         'C30 H24'
_chemical_name_systematic        2-Benzyl-1-methyl-3,4-diphenylnaphthalene
_symmetry_cell_setting           triclinic
_symmetry_space_group_name_H-M   'P -1'
_symmetry_Int_Tables_number      2
_space_group_name_Hall           '-P 1'
loop_
_symmetry_equiv_pos_site_id
_symmetry_equiv_pos_as_xyz
1 x,y,z
2 -x,-y,-z
_cell_length_a                   9.9191(14)
_cell_length_b                   11.0491(16)
_cell_length_c                   11.6448(17)
_cell_angle_alpha                70.716(2)
_cell_angle_beta                 83.065(3)
_cell_angle_gamma                67.371(2)
_cell_volume                     1111.86
_exptl_crystal_colour            colorless
_cell_formula_units_Z            2
loop_
_atom_site_label
_atom_site_type_symbol
_atom_site_fract_x
_atom_site_fract_y
_atom_site_fract_z
C1 C 0.6806(5) 1.4154(3) 0.3088(4)
H1 H 0.7037 1.4837 0.3221
C2 C 0.5968(5) 1.3544(4) 0.3912(3)
H2 H 0.5639 1.3807 0.4608
C3 C 0.5609(3) 1.2540(3) 0.3710(3)
H3 H 0.5024 1.2144 0.4266
C4 C 0.6105(2) 1.2119(2) 0.2700(2)
C5 C 0.5679(2) 1.1021(2) 0.2509(2)
H4 H 0.5880 1.0253 0.3257
H5 H 0.4634 1.1397 0.2365
C6 C 0.6432(2) 1.0472(2) 0.1479(2)
C7 C 0.7710(2) 0.92360(19) 0.17536(19)
C8 C 0.8443(2) 0.86936(18) 0.08445(19)
C9 C 0.9780(2) 0.74076(19) 0.11398(18)
C10 C 1.1075(2) 0.7408(2) 0.1457(2)
H6 H 1.1126 0.8227 0.1469
C11 C 1.2291(3) 0.6217(3) 0.1754(3)
H7 H 1.3156 0.6235 0.1967
C12 C 1.2238(3) 0.5004(3) 0.1740(2)
H8 H 1.3061 0.4197 0.1951
C13 C 0.8250(2) 0.8506(2) 0.3033(2)
C14 C 0.7926(3) 0.7373(2) 0.3733(2)
H9 H 0.7325 0.7087 0.3417
C15 C 0.8488(4) 0.6660(3) 0.4896(3)
H10 H 0.8258 0.5901 0.5362
C16 C 0.9380(4) 0.7066(4) 0.5364(3)
H11 H 0.9774 0.6572 0.6141
C17 C 0.9693(4) 0.8197(4) 0.4693(3)
H12 H 1.0286 0.8484 0.5016
C18 C 0.9130(3) 0.8907(3) 0.3539(2)
H13 H 0.9346 0.9678 0.3087
C19 C 0.7925(2) 0.9365(2) -0.0377(2)
C20 C 0.8654(3) 0.8857(2) -0.1344(2)
H14 H 0.9507 0.8077 -0.1180
C21 C 0.8134(4) 0.9487(3) -0.2503(2)
H15 H 0.8622 0.9129 -0.3120
C22 C 0.6869(4) 1.0670(3) -0.2767(3)
H16 H 0.6517 1.1100 -0.3562
C23 C 0.6150(3) 1.1194(3) -0.1872(3)
H17 H 0.5308 1.1984 -0.2068
C24 C 0.6640(2) 1.0577(2) -0.0644(2)
C25 C 0.5907(2) 1.1130(2) 0.0302(2)
C26 C 0.4565(3) 1.2445(2) -0.0011(3)
H18 H 0.4008 1.2525 0.0712
H19 H 0.3977 1.2421 -0.0594
H20 H 0.4859 1.3223 -0.0350
C27 C 0.9748(3) 0.6169(2) 0.1130(2)
H21 H 0.8885 0.6141 0.0927
C28 C 1.0973(3) 0.4980(2) 0.1416(2)
H22 H 1.0939 0.4160 0.1388
C29 C 0.6943(3) 1.2755(2) 0.1885(3)
H23 H 0.7275 1.2498 0.1188
C30 C 0.7300(3) 1.3763(3) 0.2078(3)
H24 H 0.7874 1.4171 0.1521
loop_
_geom_bond_atom_site_label_1
_geom_bond_atom_site_label_2
_geom_bond_site_symmetry_1
_geom_bond_site_symmetry_2
C1 H1 1_555 1_555
C2 C1 1_555 1_555
H2 C2 1_555 1_555
C3 C2 1_555 1_555
H3 C3 1_555 1_555
C4 C3 1_555 1_555
C5 C4 1_555 1_555
H4 C5 1_555 1_555
H5 C5 1_555 1_555
C6 C5 1_555 1_555
C7 C6 1_555 1_555
C8 C7 1_555 1_555
C9 C8 1_555 1_555
C10 C9 1_555 1_555
H6 C10 1_555 1_555
C11 C10 1_555 1_555
H7 C11 1_555 1_555
C12 C11 1_555 1_555
H8 C12 1_555 1_555
C13 C7 1_555 1_555
C14 C13 1_555 1_555
H9 C14 1_555 1_555
C15 C14 1_555 1_555
H10 C15 1_555 1_555
C16 C15 1_555 1_555
H11 C16 1_555 1_555
C17 C16 1_555 1_555
H12 C17 1_555 1_555
C18 C13 1_555 1_555
H13 C18 1_555 1_555
C19 C8 1_555 1_555
C20 C19 1_555 1_555
H14 C20 1_555 1_555
C21 C20 1_555 1_555
H15 C21 1_555 1_555
C22 C21 1_555 1_555
H16 C22 1_555 1_555
C23 C22 1_555 1_555
H17 C23 1_555 1_555
C24 C19 1_555 1_555
C25 C6 1_555 1_555
C26 C25 1_555 1_555
H18 C26 1_555 1_555
H19 C26 1_555 1_555
H20 C26 1_555 1_555
C27 C9 1_555 1_555
H21 C27 1_555 1_555
C28 C12 1_555 1_555
H22 C28 1_555 1_555
C29 C4 1_555 1_555
H23 C29 1_555 1_555
C30 C1 1_555 1_555
H24 C30 1_555 1_555
C17 C18 1_555 1_555
C23 C24 1_555 1_555
C24 C25 1_555 1_555
C27 C28 1_555 1_555
C29 C30 1_555 1_555

#END
