
#######################################################################
#
#                 Cambridge Crystallographic Data Centre
#                                CCDC 
#
#######################################################################
#
# If this CIF has been generated from an entry in the Cambridge 
# Structural Database, then it will include bibliographic, chemical, 
# crystal, experimental, refinement or atomic coordinate data resulting 
# from the CCDC's data processing and validation procedures.
#
#######################################################################

data_QIBHEO02
_chemical_formula_moiety         'C13 H14 N4 O1,C2 H3 N1'
_chemical_name_systematic        '1,5-Diphenylcarbazide acetonitrile solvate'
_symmetry_cell_setting           monoclinic
_symmetry_space_group_name_H-M   'P 21/n'
_symmetry_Int_Tables_number      14
_space_group_name_Hall           '-P 2yn'
loop_
_symmetry_equiv_pos_site_id
_symmetry_equiv_pos_as_xyz
1 x,y,z
2 1/2-x,1/2+y,1/2-z
3 -x,-y,-z
4 1/2+x,1/2-y,1/2+z
_cell_length_a                   5.7818(2)
_cell_length_b                   15.320(1)
_cell_length_c                   17.469(1)
_cell_angle_alpha                90
_cell_angle_beta                 97.476(1)
_cell_angle_gamma                90
_cell_volume                     1534.2
_exptl_crystal_colour            'deep red'
_cell_formula_units_Z            4
loop_
_atom_site_label
_atom_site_type_symbol
_atom_site_fract_x
_atom_site_fract_y
_atom_site_fract_z
O1 O 0.2298(2) 0.0262(1) 0.0847(1)
N1 N 0.2917(3) 0.1221(1) 0.2191(1)
N2 N 0.0912(3) 0.1230(1) 0.1661(1)
N3 N -0.1502(3) 0.0642(1) 0.0644(1)
N4 N -0.3182(3) 0.1251(1) 0.0786(1)
C1 C 0.1821(4) -0.0148(2) 0.2748(2)
C2 C 0.2397(5) -0.0841(2) 0.3237(2)
C3 C 0.4544(5) -0.0896(2) 0.3670(2)
C4 C 0.6124(5) -0.0243(2) 0.3607(2)
C5 C 0.5589(4) 0.0448(2) 0.3116(1)
C6 C 0.3414(4) 0.0498(1) 0.2669(1)
C7 C 0.0673(4) 0.0692(1) 0.1048(1)
C8 C -0.3399(3) 0.2001(1) 0.0310(1)
C9 C -0.1753(4) 0.2214(2) -0.0170(1)
C10 C -0.2024(5) 0.2962(2) -0.0612(2)
C11 C -0.3872(5) 0.3507(2) -0.0576(2)
C12 C -0.5504(5) 0.3303(2) -0.0098(2)
C13 C -0.5271(4) 0.2555(2) 0.0341(1)
N5 N 0.7416(6) 0.2465(2) 0.2470(2)
C14 C 0.8849(7) 0.3712(2) 0.3392(2)
C15 C 0.8028(5) 0.3007(2) 0.2880(2)
loop_
_geom_bond_atom_site_label_1
_geom_bond_atom_site_label_2
_geom_bond_site_symmetry_1
_geom_bond_site_symmetry_2
O1 C7 1_555 1_555
N1 N2 1_555 1_555
N2 C7 1_555 1_555
N3 N4 1_555 1_555
N4 C8 1_555 1_555
N5 C15 1_555 1_555
C1 C2 1_555 1_555
C2 C3 1_555 1_555
C3 C4 1_555 1_555
C4 C5 1_555 1_555
C5 C6 1_555 1_555
C6 N1 1_555 1_555
C7 N3 1_555 1_555
C8 C9 1_555 1_555
C9 C10 1_555 1_555
C10 C11 1_555 1_555
C11 C12 1_555 1_555
C12 C13 1_555 1_555
C13 C8 1_555 1_555
C14 C15 1_555 1_555
C1 C6 1_555 1_555

#END
