
#######################################################################
#
#                 Cambridge Crystallographic Data Centre
#                                CCDC 
#
#######################################################################
#
# If this CIF has been generated from an entry in the Cambridge 
# Structural Database, then it will include bibliographic, chemical, 
# crystal, experimental, refinement or atomic coordinate data resulting 
# from the CCDC's data processing and validation procedures.
#
#######################################################################

data_QIBNUL
_chemical_formula_moiety         'C30 H24 Br1 N1 O2'
_chemical_name_systematic        
10-(4-Bromophenyl)-7,8-dihydro-7,7-dimethyl-5-phenyl-5H-indeno(1,2-b)quinolin-9,11(6H,10H)-dione
_symmetry_cell_setting           monoclinic
_symmetry_space_group_name_H-M   'P 21/n'
_symmetry_Int_Tables_number      14
_space_group_name_Hall           '-P 2yn'
loop_
_symmetry_equiv_pos_site_id
_symmetry_equiv_pos_as_xyz
1 x,y,z
2 1/2-x,1/2+y,1/2-z
3 -x,-y,-z
4 1/2+x,1/2-y,1/2+z
_cell_length_a                   10.9821(11)
_cell_length_b                   17.5795(18)
_cell_length_c                   12.2340(13)
_cell_angle_alpha                90
_cell_angle_beta                 91.645(3)
_cell_angle_gamma                90
_cell_volume                     2360.92
_exptl_crystal_colour            red
_exptl_crystal_description       platelet
_chemical_melting_point          280-283deg.C
_cell_formula_units_Z            4
loop_
_atom_site_label
_atom_site_type_symbol
_atom_site_fract_x
_atom_site_fract_y
_atom_site_fract_z
Br1 Br 0.38566(4) 0.31140(3) 0.35320(5)
O1 O 0.8052(3) 0.41051(17) -0.0145(2)
O2 O 0.6584(3) 0.65126(19) 0.2399(3)
N1 N 1.0364(3) 0.52251(19) 0.2762(3)
C1 C 1.0199(3) 0.4696(2) 0.1914(3)
C2 C 0.9109(3) 0.4629(2) 0.1358(3)
C3 C 0.7973(3) 0.5077(2) 0.1627(3)
H1 H 0.7657 0.5326 0.0940
C4 C 0.8332(3) 0.5688(2) 0.2427(3)
C5 C 0.9433(3) 0.5729(2) 0.2952(3)
C6 C 0.9002(4) 0.4127(2) 0.0409(3)
C7 C 1.0081(4) 0.3652(2) 0.0106(3)
H2 H 1.0529 0.3922 -0.0468
H3 H 0.9782 0.3166 -0.0210
C8 C 1.0961(4) 0.3477(2) 0.1053(3)
C9 C 1.1288(3) 0.4219(2) 0.1642(3)
H4 H 1.1749 0.4098 0.2327
H5 H 1.1829 0.4521 0.1175
C10 C 0.7604(4) 0.6338(2) 0.2753(4)
C11 C 0.8349(4) 0.6757(2) 0.3600(3)
C12 C 0.8073(4) 0.7399(3) 0.4181(4)
H6 H 0.7309 0.7646 0.4073
C13 C 0.8938(4) 0.7684(3) 0.4936(4)
H7 H 0.8762 0.8127 0.5349
C14 C 1.0040(4) 0.7325(2) 0.5082(4)
H8 H 1.0616 0.7519 0.5606
C15 C 1.0337(4) 0.6673(2) 0.4468(4)
H9 H 1.1108 0.6433 0.4563
C16 C 0.9482(4) 0.6395(2) 0.3730(3)
C17 C 1.1562(3) 0.5332(2) 0.3275(3)
C18 C 1.2391(4) 0.5802(2) 0.2787(3)
H10 H 1.2191 0.6048 0.2114
C19 C 1.3524(4) 0.5910(3) 0.3296(4)
H11 H 1.4113 0.6223 0.2963
C20 C 1.3795(4) 0.5562(3) 0.4283(4)
H12 H 1.4562 0.5651 0.4640
C21 C 1.2970(4) 0.5091(3) 0.4754(4)
H13 H 1.3170 0.4849 0.5430
C22 C 1.1836(4) 0.4964(3) 0.4245(4)
H14 H 1.1264 0.4630 0.4560
C23 C 0.6971(3) 0.4567(2) 0.2061(3)
C24 C 0.7226(4) 0.3976(3) 0.2781(4)
H15 H 0.8049 0.3877 0.2996
C25 C 0.6317(4) 0.3527(3) 0.3192(4)
H16 H 0.6512 0.3114 0.3666
C26 C 0.5117(4) 0.3686(3) 0.2905(4)
C27 C 0.4844(4) 0.4267(3) 0.2189(4)
H17 H 0.4019 0.4369 0.1983
C28 C 0.5763(4) 0.4703(3) 0.1767(4)
H18 H 0.5565 0.5101 0.1268
C29 C 1.0382(4) 0.2923(2) 0.1847(4)
H19 H 1.0974 0.2793 0.2431
H20 H 1.0133 0.2460 0.1454
H21 H 0.9666 0.3161 0.2164
C30 C 1.2128(4) 0.3120(3) 0.0625(4)
H22 H 1.2498 0.3467 0.0103
H23 H 1.1930 0.2637 0.0260
H24 H 1.2703 0.3026 0.1238
loop_
_geom_bond_atom_site_label_1
_geom_bond_atom_site_label_2
_geom_bond_site_symmetry_1
_geom_bond_site_symmetry_2
Br1 C26 1_555 1_555
O1 C6 1_555 1_555
O2 C10 1_555 1_555
N1 C1 1_555 1_555
C1 C2 1_555 1_555
C2 C3 1_555 1_555
C3 H1 1_555 1_555
C4 C3 1_555 1_555
C5 N1 1_555 1_555
C6 C2 1_555 1_555
C7 C6 1_555 1_555
H2 C7 1_555 1_555
H3 C7 1_555 1_555
C8 C7 1_555 1_555
C9 C1 1_555 1_555
H4 C9 1_555 1_555
H5 C9 1_555 1_555
C10 C4 1_555 1_555
C11 C10 1_555 1_555
C12 C11 1_555 1_555
H6 C12 1_555 1_555
C13 C12 1_555 1_555
H7 C13 1_555 1_555
C14 C13 1_555 1_555
H8 C14 1_555 1_555
C15 C14 1_555 1_555
H9 C15 1_555 1_555
C16 C5 1_555 1_555
C17 N1 1_555 1_555
C18 C17 1_555 1_555
H10 C18 1_555 1_555
C19 C18 1_555 1_555
H11 C19 1_555 1_555
C20 C19 1_555 1_555
H12 C20 1_555 1_555
C21 C20 1_555 1_555
H13 C21 1_555 1_555
C22 C17 1_555 1_555
H14 C22 1_555 1_555
C23 C3 1_555 1_555
C24 C23 1_555 1_555
H15 C24 1_555 1_555
C25 C24 1_555 1_555
H16 C25 1_555 1_555
C26 C25 1_555 1_555
C27 C26 1_555 1_555
H17 C27 1_555 1_555
C28 C23 1_555 1_555
H18 C28 1_555 1_555
C29 C8 1_555 1_555
H19 C29 1_555 1_555
H20 C29 1_555 1_555
H21 C29 1_555 1_555
C30 C8 1_555 1_555
H22 C30 1_555 1_555
H23 C30 1_555 1_555
H24 C30 1_555 1_555
C4 C5 1_555 1_555
C8 C9 1_555 1_555
C11 C16 1_555 1_555
C15 C16 1_555 1_555
C21 C22 1_555 1_555
C27 C28 1_555 1_555

#END
