
#######################################################################
#
#                 Cambridge Crystallographic Data Centre
#                                CCDC 
#
#######################################################################
#
# If this CIF has been generated from an entry in the Cambridge 
# Structural Database, then it will include bibliographic, chemical, 
# crystal, experimental, refinement or atomic coordinate data resulting 
# from the CCDC's data processing and validation procedures.
#
#######################################################################

data_QIBRIC
_chemical_formula_moiety         'C14 H14 O2 S1'
_chemical_name_systematic        '2,5-Dimethylphenyl phenyl sulfone'
_symmetry_cell_setting           monoclinic
_symmetry_space_group_name_H-M   'P 21/n'
_symmetry_Int_Tables_number      14
_space_group_name_Hall           '-P 2yn'
loop_
_symmetry_equiv_pos_site_id
_symmetry_equiv_pos_as_xyz
1 x,y,z
2 1/2+x,1/2-y,1/2+z
3 -x,-y,-z
4 1/2-x,1/2+y,1/2-z
_cell_length_a                   7.8879(3)
_cell_length_b                   10.9788(4)
_cell_length_c                   15.2489(4)
_cell_angle_alpha                90
_cell_angle_beta                 103.525(2)
_cell_angle_gamma                90
_cell_volume                     1283.93
_exptl_crystal_colour            colorless
_exptl_crystal_description       plate
_chemical_melting_point          '383-385 K'
_cell_formula_units_Z            4
_exptl_crystal_recrystallization_method ethanol
loop_
_atom_site_label
_atom_site_type_symbol
_atom_site_fract_x
_atom_site_fract_y
_atom_site_fract_z
S1 S 0.19274(6) 0.75337(4) 0.29672(3)
O1 O 0.10507(17) 0.83517(12) 0.22674(8)
O2 O 0.34797(16) 0.69367(13) 0.28465(8)
C1 C 0.0404(2) 0.64101(17) 0.30893(11)
C2 C -0.1252(2) 0.67689(19) 0.31517(12)
C3 C -0.2478(3) 0.5878(2) 0.32019(13)
C4 C -0.2047(3) 0.4665(2) 0.31915(13)
C5 C -0.0401(3) 0.4319(2) 0.31243(13)
C6 C 0.0845(3) 0.51890(18) 0.30783(12)
C7 C 0.2399(2) 0.83687(17) 0.39923(11)
C8 C 0.3324(3) 0.7831(2) 0.48037(12)
C9 C 0.3947(3) 0.6532(2) 0.48952(13)
C10 C 0.3638(3) 0.8588(2) 0.55521(13)
C11 C 0.3093(3) 0.9785(2) 0.55117(13)
C12 C 0.2183(3) 1.0306(2) 0.47111(12)
C13 C 0.1602(3) 1.1611(2) 0.46530(15)
C14 C 0.1843(2) 0.95648(19) 0.39489(12)
H1 H -0.1542 0.7608 0.3160
H2 H -0.3618 0.6108 0.3244
H3 H -0.2888 0.4061 0.3231
H4 H -0.0121 0.3479 0.3109
H5 H 0.1984 0.4953 0.3040
H6 H 0.4631 0.6391 0.5511
H7 H 0.4676 0.6376 0.4467
H8 H 0.2940 0.5982 0.4767
H9 H 0.4253 0.8269 0.6116
H10 H 0.3346 1.0264 0.6045
H11 H 0.2250 1.2055 0.5184
H12 H 0.0352 1.1648 0.4632
H13 H 0.1825 1.1981 0.4106
H14 H 0.1217 0.9888 0.3389
loop_
_geom_bond_atom_site_label_1
_geom_bond_atom_site_label_2
_geom_bond_site_symmetry_1
_geom_bond_site_symmetry_2
S1 O1 1_555 1_555
O2 S1 1_555 1_555
C1 S1 1_555 1_555
C2 C1 1_555 1_555
C3 C2 1_555 1_555
C4 C3 1_555 1_555
C5 C4 1_555 1_555
C6 C1 1_555 1_555
C7 S1 1_555 1_555
C8 C7 1_555 1_555
C9 C8 1_555 1_555
C10 C8 1_555 1_555
C11 C10 1_555 1_555
C12 C11 1_555 1_555
C13 C12 1_555 1_555
C14 C7 1_555 1_555
H1 C2 1_555 1_555
H2 C3 1_555 1_555
H3 C4 1_555 1_555
H4 C5 1_555 1_555
H5 C6 1_555 1_555
H6 C9 1_555 1_555
H7 C9 1_555 1_555
H8 C9 1_555 1_555
H9 C10 1_555 1_555
H10 C11 1_555 1_555
H11 C13 1_555 1_555
H12 C13 1_555 1_555
H13 C13 1_555 1_555
H14 C14 1_555 1_555
C5 C6 1_555 1_555
C12 C14 1_555 1_555

#END
