
#######################################################################
#
#                 Cambridge Crystallographic Data Centre
#                                CCDC 
#
#######################################################################
#
# If this CIF has been generated from an entry in the Cambridge 
# Structural Database, then it will include bibliographic, chemical, 
# crystal, experimental, refinement or atomic coordinate data resulting 
# from the CCDC's data processing and validation procedures.
#
#######################################################################

data_QIBROJ
_chemical_formula_moiety         'C21 H18 O6,C2 H6 O1 S1'
_chemical_name_systematic        
'2,3,7,8,12,13-Hexahydroxy-10,15-dihydro-5H-tribenzo(a,d,g)cyclononene dimethylsulfoxide solvate'
_symmetry_cell_setting           monoclinic
_symmetry_space_group_name_H-M   'P 21/n'
_symmetry_Int_Tables_number      14
_space_group_name_Hall           '-P 2yn'
loop_
_symmetry_equiv_pos_site_id
_symmetry_equiv_pos_as_xyz
1 x,y,z
2 1/2-x,1/2+y,1/2-z
3 -x,-y,-z
4 1/2+x,1/2-y,1/2+z
_cell_length_a                   10.5861(16)
_cell_length_b                   11.5358(18)
_cell_length_c                   17.202(3)
_cell_angle_alpha                90
_cell_angle_beta                 98.137(2)
_cell_angle_gamma                90
_cell_volume                     2079.54
_exptl_crystal_colour            colorless
_exptl_crystal_description       prisms
_chemical_melting_point          'above 250deg.C'
_cell_formula_units_Z            4
_exptl_crystal_recrystallization_method ethanol/dimethylsulfoxide
loop_
_atom_site_label
_atom_site_type_symbol
_atom_site_fract_x
_atom_site_fract_y
_atom_site_fract_z
S1 S 0.91131(6) 0.28281(5) 1.32848(3)
O7 O 0.9392(2) 0.33604(17) 1.41010(11)
C22 C 0.7433(4) 0.2800(5) 1.3036(3)
H19 H 0.7124 0.3574 1.2925
H20 H 0.7056 0.2488 1.3466
H21 H 0.7208 0.2323 1.2580
C23 C 0.9338(4) 0.1325(3) 1.3439(2)
H22 H 1.0231 0.1166 1.3583
H23 H 0.9025 0.0915 1.2966
H24 H 0.8881 0.1077 1.3853
O1 O 0.74526(16) 1.08008(15) 1.02493(11)
H1 H 0.6905 1.0381 1.0011
O2 O 0.88757(19) 1.16471(14) 1.15617(10)
H2 H 0.8293 1.1949 1.1265
O3 O 0.63654(14) 0.49249(13) 0.98049(11)
H3 H 0.5973 0.5534 0.9715
O4 O 0.72921(15) 0.34483(13) 1.09823(11)
H4 H 0.6566 0.3507 1.0746
O5 O 1.03961(16) 0.54565(13) 1.43390(9)
H5 H 1.0000 0.4866 1.4195
O6 O 1.04328(15) 0.78159(12) 1.44635(9)
H6 H 1.0557 0.7354 1.4829
C1 C 0.84509(18) 1.01365(18) 1.05939(12)
C2 C 0.9169(2) 1.05935(17) 1.12637(12)
C3 C 1.0200(2) 0.99832(17) 1.16378(12)
H7 H 1.0677 1.0295 1.2084
C4 C 1.05443(18) 0.89049(17) 1.13602(11)
C5 C 0.98597(18) 0.84634(16) 1.06698(11)
C6 C 0.88151(19) 0.90960(17) 1.02949(12)
H8 H 0.8357 0.8808 0.9834
C7 C 1.02166(19) 0.73523(17) 1.02814(12)
H9 H 1.1123 0.7216 1.0428
H10 H 1.0061 0.7455 0.9716
C8 C 0.94928(17) 0.62895(16) 1.04950(10)
C9 C 0.82952(18) 0.60859(16) 1.00572(11)
H11 H 0.7993 0.6589 0.9651
C10 C 0.75534(17) 0.51540(17) 1.02155(11)
C11 C 0.80055(18) 0.43854(16) 1.08111(12)
C12 C 0.91967(18) 0.45622(16) 1.12378(11)
H12 H 0.9502 0.4040 1.1632
C13 C 0.99553(17) 0.55123(16) 1.10900(10)
C14 C 1.12346(17) 0.56444(17) 1.16022(12)
H13 H 1.1602 0.4883 1.1720
H14 H 1.1809 0.6075 1.1317
C15 C 1.11123(16) 0.62684(17) 1.23625(11)
C16 C 1.08166(18) 0.56007(16) 1.29916(11)
H15 H 1.0755 0.4800 1.2932
C17 C 1.06133(17) 0.60859(17) 1.36957(11)
C18 C 1.06853(17) 0.72858(17) 1.37815(11)
C19 C 1.10159(19) 0.79566(16) 1.31727(12)
H16 H 1.1088 0.8755 1.3239
C20 C 1.12450(17) 0.74691(17) 1.24599(11)
C21 C 1.16439(18) 0.82736(18) 1.18378(12)
H17 H 1.2240 0.8841 1.2093
H18 H 1.2088 0.7823 1.1485
loop_
_geom_bond_atom_site_label_1
_geom_bond_atom_site_label_2
_geom_bond_site_symmetry_1
_geom_bond_site_symmetry_2
S1 O7 1_555 1_555
O1 H1 1_555 1_555
O2 H2 1_555 1_555
O3 H3 1_555 1_555
O4 H4 1_555 1_555
O5 H5 1_555 1_555
O6 H6 1_555 1_555
C1 O1 1_555 1_555
C2 O2 1_555 1_555
C3 C2 1_555 1_555
H7 C3 1_555 1_555
C4 C3 1_555 1_555
C5 C4 1_555 1_555
C6 C1 1_555 1_555
H8 C6 1_555 1_555
C7 C5 1_555 1_555
H9 C7 1_555 1_555
H10 C7 1_555 1_555
C8 C7 1_555 1_555
C9 C8 1_555 1_555
H11 C9 1_555 1_555
C10 O3 1_555 1_555
C11 O4 1_555 1_555
C12 C11 1_555 1_555
H12 C12 1_555 1_555
C13 C8 1_555 1_555
C14 C13 1_555 1_555
H13 C14 1_555 1_555
H14 C14 1_555 1_555
C15 C14 1_555 1_555
C16 C15 1_555 1_555
H15 C16 1_555 1_555
C17 O5 1_555 1_555
C18 O6 1_555 1_555
C19 C18 1_555 1_555
H16 C19 1_555 1_555
C20 C15 1_555 1_555
C21 C4 1_555 1_555
H17 C21 1_555 1_555
H18 C21 1_555 1_555
C22 S1 1_555 1_555
H19 C22 1_555 1_555
H20 C22 1_555 1_555
H21 C22 1_555 1_555
C23 S1 1_555 1_555
H22 C23 1_555 1_555
H23 C23 1_555 1_555
H24 C23 1_555 1_555
C1 C2 1_555 1_555
C5 C6 1_555 1_555
C9 C10 1_555 1_555
C10 C11 1_555 1_555
C12 C13 1_555 1_555
C16 C17 1_555 1_555
C17 C18 1_555 1_555
C19 C20 1_555 1_555
C20 C21 1_555 1_555

#END
