
#######################################################################
#
#                 Cambridge Crystallographic Data Centre
#                                CCDC 
#
#######################################################################
#
# If this CIF has been generated from an entry in the Cambridge 
# Structural Database, then it will include bibliographic, chemical, 
# crystal, experimental, refinement or atomic coordinate data resulting 
# from the CCDC's data processing and validation procedures.
#
#######################################################################

data_QIBTIE
_chemical_formula_moiety         'C6 H12 O5'
_chemical_name_systematic        'Methyl \b-D-arabinofuranoside'
_symmetry_cell_setting           orthorhombic
_symmetry_space_group_name_H-M   'P 21 21 21'
_symmetry_Int_Tables_number      19
_space_group_name_Hall           'P 2ac 2ab'
loop_
_symmetry_equiv_pos_site_id
_symmetry_equiv_pos_as_xyz
1 x,y,z
2 1/2-x,-y,1/2+z
3 -x,1/2+y,1/2-z
4 1/2+x,1/2-y,-z
_cell_length_a                   5.9010(10)
_cell_length_b                   10.791(2)
_cell_length_c                   12.151(2)
_cell_angle_alpha                90
_cell_angle_beta                 90
_cell_angle_gamma                90
_cell_volume                     773.748
_exptl_crystal_colour            white
_exptl_crystal_description       'rectangular prism'
_cell_formula_units_Z            4
_exptl_crystal_recrystallization_method acetonitrile
loop_
_atom_site_label
_atom_site_type_symbol
_atom_site_fract_x
_atom_site_fract_y
_atom_site_fract_z
O1 O 0.2069(3) 0.19567(14) 0.19516(14)
O2 O 0.1172(3) 0.18482(14) 0.41910(13)
O3 O 0.3368(3) 0.45047(16) 0.45886(13)
O4 O 0.1037(3) 0.40547(14) 0.19599(13)
O5 O 0.4990(3) 0.56000(16) 0.11330(13)
C1 C 0.0565(2) 0.28563(13) 0.23639(11)
C2 C 0.0965(2) 0.29667(12) 0.36087(11)
C3 C 0.3121(2) 0.37679(12) 0.36319(11)
C4 C 0.2866(3) 0.45931(12) 0.26050(11)
C5 C 0.5044(3) 0.46645(13) 0.19501(12)
C6 C 0.1748(3) 0.17180(14) 0.08093(12)
H1 H -0.1200(6) 0.2630(4) 0.2123(3)
H2 H -0.0459(6) 0.3489(3) 0.3963(3)
H3 H 0.4581(6) 0.3142(3) 0.3539(3)
H4 H 0.2332(6) 0.5533(3) 0.2849(3)
H5 H 0.6459(6) 0.4885(4) 0.2503(3)
H6 H 0.5384(8) 0.3749(4) 0.1583(3)
H7 H 0.3039(9) 0.1070(4) 0.0563(3)
H8 H 0.1939(10) 0.2564(4) 0.0334(3)
H9 H 0.0105(8) 0.1319(5) 0.0656(4)
H10 H 0.2583(7) 0.1414(3) 0.4011(3)
H11 H 0.4393(7) 0.4052(4) 0.5093(3)
H12 H 0.3833(7) 0.5439(4) 0.0578(3)
loop_
_geom_bond_atom_site_label_1
_geom_bond_atom_site_label_2
_geom_bond_site_symmetry_1
_geom_bond_site_symmetry_2
O1 C1 1_555 1_555
O2 C2 1_555 1_555
O3 C3 1_555 1_555
O4 C1 1_555 1_555
O5 C5 1_555 1_555
C1 C2 1_555 1_555
C2 C3 1_555 1_555
C3 C4 1_555 1_555
C4 O4 1_555 1_555
C5 C4 1_555 1_555
C6 O1 1_555 1_555
H1 C1 1_555 1_555
H2 C2 1_555 1_555
H3 C3 1_555 1_555
H4 C4 1_555 1_555
H5 C5 1_555 1_555
H6 C5 1_555 1_555
H7 C6 1_555 1_555
H8 C6 1_555 1_555
H9 C6 1_555 1_555
H10 O2 1_555 1_555
H11 O3 1_555 1_555
H12 O5 1_555 1_555

#END
