
#######################################################################
#
#                 Cambridge Crystallographic Data Centre
#                                CCDC 
#
#######################################################################
#
# If this CIF has been generated from an entry in the Cambridge 
# Structural Database, then it will include bibliographic, chemical, 
# crystal, experimental, refinement or atomic coordinate data resulting 
# from the CCDC's data processing and validation procedures.
#
#######################################################################

data_QICCUC
_chemical_formula_moiety         'C7 H4 Cl1 F3 N4'
_chemical_name_systematic        
3-Chloro-5-((2,2,2-trifluoroethyl)amino)pyrazine-2-carbonitrile
_symmetry_cell_setting           monoclinic
_symmetry_space_group_name_H-M   'P 21/n'
_symmetry_Int_Tables_number      14
_space_group_name_Hall           '-P 2yn'
loop_
_symmetry_equiv_pos_site_id
_symmetry_equiv_pos_as_xyz
1 x,y,z
2 1/2-x,1/2+y,1/2-z
3 -x,-y,-z
4 1/2+x,1/2-y,1/2+z
_cell_length_a                   9.531(2)
_cell_length_b                   8.997(2)
_cell_length_c                   11.626(3)
_cell_angle_alpha                90
_cell_angle_beta                 109.605(10)
_cell_angle_gamma                90
_cell_volume                     939.14
_exptl_crystal_colour            colorless
_exptl_crystal_description       plate
_cell_formula_units_Z            4
loop_
_atom_site_label
_atom_site_type_symbol
_atom_site_fract_x
_atom_site_fract_y
_atom_site_fract_z
Cl1 Cl 0.01022(7) 0.05613(7) 0.20894(7)
F1 F -0.0710(2) -0.6506(2) 0.39581(17)
F2 F -0.21863(19) -0.6021(2) 0.21340(17)
F3 F -0.15059(19) -0.4276(2) 0.34954(18)
N1 N 0.3014(3) 0.2644(3) 0.4523(2)
N2 N 0.3336(2) -0.1126(3) 0.4911(2)
N3 N 0.0888(2) -0.2104(2) 0.2943(2)
N4 N 0.1501(2) -0.4530(2) 0.3595(2)
H1 H 0.2120 -0.5140 0.4114
C1 C 0.2748(3) 0.1403(3) 0.4339(2)
C2 C 0.2413(3) -0.0158(3) 0.4111(2)
C3 C 0.3031(3) -0.2541(3) 0.4727(2)
H2 H 0.3664 -0.3244 0.5265
C4 C 0.1229(3) -0.0677(3) 0.3145(2)
C5 C 0.1779(3) -0.3063(3) 0.3747(2)
C6 C 0.0259(3) -0.5172(3) 0.2643(2)
H3 H 0.0583 -0.6110 0.2363
H4 H -0.0059 -0.4482 0.1940
C7 C -0.1040(3) -0.5485(3) 0.3057(3)
loop_
_geom_bond_atom_site_label_1
_geom_bond_atom_site_label_2
_geom_bond_site_symmetry_1
_geom_bond_site_symmetry_2
Cl1 C4 1_555 1_555
F1 C7 1_555 1_555
F2 C7 1_555 1_555
F3 C7 1_555 1_555
N1 C1 1_555 1_555
N2 C2 1_555 1_555
N3 C4 1_555 1_555
N4 H1 1_555 1_555
C1 C2 1_555 1_555
C2 C4 1_555 1_555
C3 N2 1_555 1_555
H2 C3 1_555 1_555
C5 N3 1_555 1_555
C6 N4 1_555 1_555
H3 C6 1_555 1_555
H4 C6 1_555 1_555
C7 C6 1_555 1_555
N4 C5 1_555 1_555
C3 C5 1_555 1_555

#END
