
#######################################################################
#
#                 Cambridge Crystallographic Data Centre
#                                CCDC 
#
#######################################################################
#
# If this CIF has been generated from an entry in the Cambridge 
# Structural Database, then it will include bibliographic, chemical, 
# crystal, experimental, refinement or atomic coordinate data resulting 
# from the CCDC's data processing and validation procedures.
#
#######################################################################

data_QICDAJ
_chemical_formula_moiety         'C5 H1 Cl2 N3'
_chemical_name_systematic        3,5-Dichloropyrazine-2-carbonitrile
_symmetry_cell_setting           monoclinic
_symmetry_space_group_name_H-M   'P 21/n'
_symmetry_Int_Tables_number      14
_space_group_name_Hall           '-P 2yn'
loop_
_symmetry_equiv_pos_site_id
_symmetry_equiv_pos_as_xyz
1 x,y,z
2 1/2-x,1/2+y,1/2-z
3 -x,-y,-z
4 1/2+x,1/2-y,1/2+z
_cell_length_a                   10.9565(10)
_cell_length_b                   5.7167(6)
_cell_length_c                   16.5950(15)
_cell_angle_alpha                90
_cell_angle_beta                 108.605(3)
_cell_angle_gamma                90
_cell_volume                     985.108
_exptl_crystal_colour            colorless
_exptl_crystal_description       Plate
_cell_formula_units_Z            8
loop_
_atom_site_label
_atom_site_type_symbol
_atom_site_fract_x
_atom_site_fract_y
_atom_site_fract_z
Cl1 Cl 0.99887(6) 0.33385(11) 1.24216(3)
Cl2 Cl 0.64844(6) 0.15599(14) 0.95449(3)
N1 N 0.82297(17) 0.2156(3) 1.10124(11)
N2 N 0.76016(17) -0.2009(4) 1.16814(11)
N3 N 0.96390(19) -0.1618(4) 1.37329(12)
C1 C 0.8811(2) 0.1514(4) 1.18088(13)
C2 C 0.8499(2) -0.0532(4) 1.21515(13)
C3 C 0.9131(2) -0.1149(4) 1.30340(14)
C4 C 0.7323(2) 0.0708(5) 1.05659(13)
C5 C 0.7014(2) -0.1387(4) 1.08791(14)
H1 H 0.6378 -0.2382 1.0517
Cl3? Cl 0.77840(12) 0.6763(2) 0.90367(7)
Cl4? Cl 1.1560(2) 0.7851(4) 1.18509(18)
N4? N 0.9746(7) 0.7042(10) 1.0425(4)
N5? N 1.0829(5) 0.2852(11) 1.0122(4)
N6? N 0.8693(10) 0.1346(14) 0.8195(7)
C6? C 0.9197(5) 0.5780(12) 0.9735(4)
C7? C 0.9728(8) 0.3694(11) 0.9573(5)
C8? C 0.9148(5) 0.2358(12) 0.8804(4)
C9? C 1.0824(6) 0.6220(11) 1.0957(5)
C10? C 1.1376(5) 0.4111(9) 1.0812(4)
H2? H 1.2154 0.3580 1.1215
loop_
_geom_bond_atom_site_label_1
_geom_bond_atom_site_label_2
_geom_bond_site_symmetry_1
_geom_bond_site_symmetry_2
Cl1 C1 1_555 1_555
Cl2 C4 1_555 1_555
N1 C1 1_555 1_555
N2 C2 1_555 1_555
N3 C3 1_555 1_555
C1 C2 1_555 1_555
C2 C3 1_555 1_555
C4 N1 1_555 1_555
C5 N2 1_555 1_555
H1 C5 1_555 1_555
C4 C5 1_555 1_555

#END
