
#######################################################################
#
#                 Cambridge Crystallographic Data Centre
#                                CCDC 
#
#######################################################################
#
# If this CIF has been generated from an entry in the Cambridge 
# Structural Database, then it will include bibliographic, chemical, 
# crystal, experimental, refinement or atomic coordinate data resulting 
# from the CCDC's data processing and validation procedures.
#
#######################################################################

data_QICGAM
_chemical_formula_moiety         'C26 H22 N6'
_chemical_name_systematic        
1,3,6,8-Tetramethyl-4,9-diphenyl-1,6-dihydrodipyrazolo[3,4-c:3',4'-h][2,6]naphthyridine
_symmetry_cell_setting           triclinic
_symmetry_space_group_name_H-M   'P -1'
_symmetry_Int_Tables_number      2
_space_group_name_Hall           '-P 1'
loop_
_symmetry_equiv_pos_site_id
_symmetry_equiv_pos_as_xyz
1 x,y,z
2 -x,-y,-z
_cell_length_a                   5.7094(5)
_cell_length_b                   8.0503(7)
_cell_length_c                   12.0187(11)
_cell_angle_alpha                96.6170(10)
_cell_angle_beta                 102.096(2)
_cell_angle_gamma                90.9480(10)
_cell_volume                     536.074
_exptl_crystal_colour            yellow
_exptl_crystal_description       block
_cell_formula_units_Z            1
loop_
_atom_site_label
_atom_site_type_symbol
_atom_site_fract_x
_atom_site_fract_y
_atom_site_fract_z
N1 N 0.0610(5) 0.7458(4) 0.6442(3)
N2 N 0.1646(5) 0.7161(4) 0.7526(3)
N3 N 0.1531(5) 0.7057(4) 0.4573(2)
C1 C 0.3520(6) 0.6179(5) 0.7471(3)
C2 C 0.3678(6) 0.5776(5) 0.6281(3)
C3 C 0.1866(6) 0.6711(5) 0.5682(3)
C4 C 0.5151(6) 0.4835(5) 0.5593(3)
C5 C -0.1241(6) 0.8695(5) 0.6237(3)
H1 H -0.0520 0.9735 0.6131
H2 H -0.1990 0.8864 0.6883
H3 H -0.2425 0.8295 0.5562
C6 C 0.5117(6) 0.5847(5) 0.8593(3)
H4 H 0.6761 0.6088 0.8576
H5 H 0.4915 0.4694 0.8700
H6 H 0.4688 0.6549 0.9215
C7 C 0.3101(6) 0.6381(5) 0.3975(3)
C8 C 0.3074(6) 0.7128(4) 0.2879(3)
C9 C 0.0994(6) 0.7063(5) 0.2024(3)
H7 H -0.0361 0.6464 0.2098
C10 C 0.0926(7) 0.7891(6) 0.1055(3)
H8 H -0.0457 0.7815 0.0480
C11 C 0.2924(7) 0.8826(5) 0.0950(3)
H9 H 0.2866 0.9388 0.0311
C12 C 0.5009(7) 0.8920(5) 0.1802(3)
H10 H 0.6345 0.9547 0.1735
C13 C 0.5084(7) 0.8063(5) 0.2762(3)
H11 H 0.6482 0.8117 0.3327
N1A N 0.9390(5) 0.2542(4) 0.3558(3)
N2A N 0.8354(5) 0.2839(4) 0.2474(3)
N3A N 0.8469(5) 0.2943(4) 0.5427(2)
C1A C 0.6480(6) 0.3821(5) 0.2529(3)
C2A C 0.6322(6) 0.4224(5) 0.3719(3)
C3A C 0.8134(6) 0.3289(5) 0.4318(3)
C4A C 0.4849(6) 0.5165(5) 0.4407(3)
C5A C 1.1241(6) 0.1305(5) 0.3763(3)
H1A H 1.0520 0.0265 0.3869
H2A H 1.1990 0.1136 0.3117
H3A H 1.2425 0.1705 0.4438
C6A C 0.4883(6) 0.4153(5) 0.1407(3)
H4A H 0.3239 0.3912 0.1424
H5A H 0.5085 0.5306 0.1300
H6A H 0.5312 0.3451 0.0785
C7A C 0.6899(6) 0.3619(5) 0.6025(3)
C8A C 0.6926(6) 0.2872(4) 0.7121(3)
C9A C 0.9006(6) 0.2937(5) 0.7976(3)
H7A H 1.0361 0.3536 0.7902
C10A C 0.9074(7) 0.2109(6) 0.8945(3)
H8A H 1.0457 0.2185 0.9520
C11A C 0.7076(7) 0.1174(5) 0.9050(3)
H9A H 0.7134 0.0612 0.9689
C12A C 0.4991(7) 0.1080(5) 0.8198(3)
H10A H 0.3655 0.0453 0.8265
C13A C 0.4916(7) 0.1937(5) 0.7238(3)
H11A H 0.3518 0.1883 0.6673
loop_
_geom_bond_atom_site_label_1
_geom_bond_atom_site_label_2
_geom_bond_site_symmetry_1
_geom_bond_site_symmetry_2
N1 N2 1_555 1_555
N2 C1 1_555 1_555
N3 C3 1_555 1_555
C1 C2 1_555 1_555
C2 C3 1_555 1_555
C3 N1 1_555 1_555
C4 C2 1_555 1_555
C5 N1 1_555 1_555
H1 C5 1_555 1_555
H2 C5 1_555 1_555
H3 C5 1_555 1_555
C6 C1 1_555 1_555
H4 C6 1_555 1_555
H5 C6 1_555 1_555
H6 C6 1_555 1_555
C7 N3 1_555 1_555
C8 C7 1_555 1_555
C9 C8 1_555 1_555
H7 C9 1_555 1_555
C10 C9 1_555 1_555
H8 C10 1_555 1_555
C11 C10 1_555 1_555
H9 C11 1_555 1_555
C12 C11 1_555 1_555
H10 C12 1_555 1_555
C13 C8 1_555 1_555
H11 C13 1_555 1_555
N1A N2A 1_555 1_555
N2A C1A 1_555 1_555
N3A C3A 1_555 1_555
C1A C2A 1_555 1_555
C2A C3A 1_555 1_555
C3A N1A 1_555 1_555
C4A C4 1_555 1_555
C5A N1A 1_555 1_555
H1A C5A 1_555 1_555
H2A C5A 1_555 1_555
H3A C5A 1_555 1_555
C6A C1A 1_555 1_555
H4A C6A 1_555 1_555
H5A C6A 1_555 1_555
H6A C6A 1_555 1_555
C7A C4 1_555 1_555
C8A C7A 1_555 1_555
C9A C8A 1_555 1_555
H7A C9A 1_555 1_555
C10A C9A 1_555 1_555
H8A C10A 1_555 1_555
C11A C10A 1_555 1_555
H9A C11A 1_555 1_555
C12A C11A 1_555 1_555
H10A C12A 1_555 1_555
C13A C8A 1_555 1_555
H11A C13A 1_555 1_555
C7 C4A 1_555 1_555
C12 C13 1_555 1_555
N3A C7A 1_555 1_555
C2A C4A 1_555 1_555
C12A C13A 1_555 1_555

#END
