
#######################################################################
#
#                 Cambridge Crystallographic Data Centre
#                                CCDC 
#
#######################################################################
#
# If this CIF has been generated from an entry in the Cambridge 
# Structural Database, then it will include bibliographic, chemical, 
# crystal, experimental, refinement or atomic coordinate data resulting 
# from the CCDC's data processing and validation procedures.
#
#######################################################################

data_QICLEW
_chemical_formula_moiety         'C31 H34 N2 O2 S1'
_chemical_name_systematic        
N'-[2-(cyclohexylmethyl)-2-methyl-1,4-diphenylbut-3-yn-1-ylidene]-4-methylbenzene-1-sulfonohydrazide
_symmetry_cell_setting           monoclinic
_symmetry_space_group_name_H-M   'P 21/n'
_symmetry_Int_Tables_number      14
_space_group_name_Hall           '-P 2yn'
loop_
_symmetry_equiv_pos_site_id
_symmetry_equiv_pos_as_xyz
1 x,y,z
2 1/2-x,1/2+y,1/2-z
3 -x,-y,-z
4 1/2+x,1/2-y,1/2+z
_cell_length_a                   11.9319(8)
_cell_length_b                   7.4897(4)
_cell_length_c                   31.957(2)
_cell_angle_alpha                90
_cell_angle_beta                 91.3810(10)
_cell_angle_gamma                90
_cell_volume                     2855.05
_exptl_crystal_colour            yellow
_exptl_crystal_description       block
_cell_formula_units_Z            4
loop_
_atom_site_label
_atom_site_type_symbol
_atom_site_fract_x
_atom_site_fract_y
_atom_site_fract_z
S1 S 0.33845(8) 0.15786(14) 0.00531(3)
N1 N 0.4382(2) 0.2085(4) 0.03951(8)
H1 H 0.5081 0.1943 0.0345
N2 N 0.4006(2) 0.2768(4) 0.07756(9)
O1 O 0.4010(2) 0.0877(4) -0.02893(7)
O2 O 0.2682(2) 0.3085(4) -0.00124(8)
C1 C 0.4761(3) 0.2991(5) 0.10612(10)
C2 C 0.4385(3) 0.3909(5) 0.14670(10)
C3 C 0.5006(3) 0.3172(6) 0.18277(12)
C4 C 0.5474(3) 0.2586(6) 0.21365(12)
C5 C 0.6012(3) 0.1883(7) 0.25043(12)
C6 C 0.5688(4) 0.0292(9) 0.26633(16)
H2 H 0.5118 -0.0354 0.2530
C7 C 0.6205(5) -0.0381(10) 0.30266(19)
H3 H 0.5986 -0.1476 0.3135
C8 C 0.7030(5) 0.0574(11) 0.32206(17)
H4 H 0.7376 0.0134 0.3463
C9 C 0.7348(5) 0.2144(10) 0.30657(17)
H5 H 0.7919 0.2783 0.3200
C10 C 0.6842(4) 0.2825(8) 0.27109(14)
H6 H 0.7061 0.3932 0.2610
C11 C 0.5965(3) 0.2612(5) 0.09988(10)
C12 C 0.6519(3) 0.1213(6) 0.11907(12)
H7 H 0.6138 0.0454 0.1368
C13 C 0.7632(4) 0.0939(7) 0.11201(15)
H8 H 0.8003 -0.0009 0.1251
C14 C 0.8209(4) 0.2045(8) 0.08594(15)
H9 H 0.8968 0.1855 0.0817
C15 C 0.7673(4) 0.3407(7) 0.06653(13)
H10 H 0.8060 0.4144 0.0484
C16 C 0.6566(3) 0.3708(6) 0.07335(11)
H11 H 0.6207 0.4662 0.0601
C17 C 0.3120(3) 0.3748(6) 0.15400(12)
H12 H 0.2914 0.4695 0.1730
H13 H 0.2732 0.3980 0.1275
C18 C 0.2678(4) 0.2039(7) 0.17087(19)
C19 C 0.2824(6) 0.0373(10) 0.1497(2)
H14 H 0.3620 0.0166 0.1465
H15 H 0.2485 0.0463 0.1218
C20 C 0.2324(7) -0.1221(11) 0.1717(3)
H16 H 0.2735 -0.1424 0.1978
H17 H 0.2410 -0.2274 0.1544
C21 C 0.109(4) -0.097(8) 0.1807(13)
H18 H 0.0822 -0.1970 0.1968
H19 H 0.0660 -0.0905 0.1547
C22 C 0.0946(8) 0.0757(16) 0.2054(3)
H20 H 0.0155 0.0961 0.2098
H21 H 0.1315 0.0637 0.2327
C23 C 0.1434(6) 0.2345(10) 0.1827(3)
H22 H 0.1389 0.3393 0.2005
H23 H 0.0990 0.2573 0.1575
C24 C 0.4698(4) 0.5897(6) 0.14226(13)
H24 H 0.4562 0.6506 0.1681
H25 H 0.4250 0.6424 0.1202
H26 H 0.5477 0.5997 0.1357
C25 C 0.2567(3) -0.0126(5) 0.02580(10)
C26 C 0.3035(3) -0.1761(6) 0.03535(11)
H27 H 0.3799 -0.1941 0.0320
C27 C 0.2379(4) -0.3130(6) 0.04975(13)
H28 H 0.2706 -0.4231 0.0558
C28 C 0.1266(4) -0.2903(7) 0.05533(17)
C29 C 0.0810(4) -0.1277(8) 0.04584(19)
H29 H 0.0044 -0.1114 0.0489
C30 C 0.1447(4) 0.0143(7) 0.03174(16)
H30 H 0.1120 0.1251 0.0265
C31 C 0.0541(5) -0.4390(8) 0.0710(2)
H31 H 0.0696 -0.5464 0.0558
H32 H -0.0234 -0.4076 0.0669
H33 H 0.0699 -0.4580 0.1003
C32? C 0.1716(15) 0.142(3) 0.1405(6)
H34? H 0.1106 0.2268 0.1420
H35? H 0.1990 0.1451 0.1122
C33? C 0.125(2) -0.043(3) 0.1485(8)
H36? H 0.1775 -0.1320 0.1388
H37? H 0.0550 -0.0578 0.1330
C34? C 0.106(9) -0.069(18) 0.195(3)
H38? H 0.0522 0.0175 0.2053
H39? H 0.0779 -0.1878 0.2008
C35? C 0.2187(17) -0.042(3) 0.2178(7)
H40? H 0.2736 -0.1217 0.2059
H41? H 0.2120 -0.0721 0.2472
C36? C 0.2594(16) 0.150(3) 0.2140(6)
H42? H 0.2077 0.2290 0.2280
H43? H 0.3322 0.1617 0.2279
loop_
_geom_bond_atom_site_label_1
_geom_bond_atom_site_label_2
_geom_bond_site_symmetry_1
_geom_bond_site_symmetry_2
S1 N1 1_555 1_555
N1 H1 1_555 1_555
N2 N1 1_555 1_555
O1 S1 1_555 1_555
O2 S1 1_555 1_555
C1 N2 1_555 1_555
C2 C1 1_555 1_555
C3 C2 1_555 1_555
C4 C3 1_555 1_555
C5 C4 1_555 1_555
C6 C5 1_555 1_555
H2 C6 1_555 1_555
C7 C6 1_555 1_555
H3 C7 1_555 1_555
C8 C7 1_555 1_555
H4 C8 1_555 1_555
C9 C8 1_555 1_555
H5 C9 1_555 1_555
C10 C5 1_555 1_555
H6 C10 1_555 1_555
C11 C1 1_555 1_555
C12 C11 1_555 1_555
H7 C12 1_555 1_555
C13 C12 1_555 1_555
H8 C13 1_555 1_555
C14 C13 1_555 1_555
H9 C14 1_555 1_555
C15 C14 1_555 1_555
H10 C15 1_555 1_555
C16 C11 1_555 1_555
H11 C16 1_555 1_555
C17 C2 1_555 1_555
H12 C17 1_555 1_555
H13 C17 1_555 1_555
C18 C17 1_555 1_555
C19 C18 1_555 1_555
H14 C19 1_555 1_555
H15 C19 1_555 1_555
C20 C19 1_555 1_555
H16 C20 1_555 1_555
H17 C20 1_555 1_555
C21 C20 1_555 1_555
H18 C21 1_555 1_555
H19 C21 1_555 1_555
C22 C21 1_555 1_555
H20 C22 1_555 1_555
H21 C22 1_555 1_555
C23 C18 1_555 1_555
H22 C23 1_555 1_555
H23 C23 1_555 1_555
C24 C2 1_555 1_555
H24 C24 1_555 1_555
H25 C24 1_555 1_555
H26 C24 1_555 1_555
C25 S1 1_555 1_555
C26 C25 1_555 1_555
H27 C26 1_555 1_555
C27 C26 1_555 1_555
H28 C27 1_555 1_555
C28 C27 1_555 1_555
C29 C28 1_555 1_555
H29 C29 1_555 1_555
C30 C25 1_555 1_555
H30 C30 1_555 1_555
C31 C28 1_555 1_555
H31 C31 1_555 1_555
H32 C31 1_555 1_555
H33 C31 1_555 1_555
C9 C10 1_555 1_555
C15 C16 1_555 1_555
C22 C23 1_555 1_555
C29 C30 1_555 1_555

#END
