
#######################################################################
#
#                 Cambridge Crystallographic Data Centre
#                                CCDC 
#
#######################################################################
#
# If this CIF has been generated from an entry in the Cambridge 
# Structural Database, then it will include bibliographic, chemical, 
# crystal, experimental, refinement or atomic coordinate data resulting 
# from the CCDC's data processing and validation procedures.
#
#######################################################################

data_QICMOE
_chemical_formula_moiety         'C23 H22 N2 O7'
_chemical_name_systematic        
3-C-(5-O-Benzoyl-1,2-O-isopropylidene-\a-D-xylofuranos-3-yl)-5-phenyl-1,2,4-oxadiazole
_symmetry_cell_setting           orthorhombic
_symmetry_space_group_name_H-M   'P 21 21 21'
_symmetry_Int_Tables_number      19
_space_group_name_Hall           'P 2ac 2ab'
loop_
_symmetry_equiv_pos_site_id
_symmetry_equiv_pos_as_xyz
1 x,y,z
2 1/2-x,-y,1/2+z
3 1/2+x,1/2-y,-z
4 -x,1/2+y,1/2-z
_cell_length_a                   10.839(4)
_cell_length_b                   12.016(3)
_cell_length_c                   16.230(7)
_cell_angle_alpha                90
_cell_angle_beta                 90
_cell_angle_gamma                90
_cell_volume                     2113.82
_exptl_crystal_colour            colorless
_chemical_melting_point          130-131deg.C
_cell_formula_units_Z            4
loop_
_atom_site_label
_atom_site_type_symbol
_atom_site_fract_x
_atom_site_fract_y
_atom_site_fract_z
O1 O 0.2346(1) 0.7403(2) 0.4863(1)
O2 O 0.3294(1) 0.6555(1) 0.3732(1)
O3 O 0.1717(1) 0.5320(1) 0.3952(1)
O4 O -0.0217(1) 0.7671(1) 0.4470(1)
O5 O 0.2130(1) 0.7502(1) 0.6573(1)
O6 O -0.1672(2) 0.4617(1) 0.5516(1)
O7 O 0.1340(2) 0.8964(2) 0.7257(1)
N1 N -0.0750(2) 0.5445(2) 0.5608(1)
N2 N -0.1225(2) 0.5210(2) 0.4259(1)
C1 C 0.2271(3) 0.7166(3) 0.3997(1)
C2 C 0.1166(3) 0.6398(3) 0.3893(1)
C3 C 0.0383(2) 0.6641(2) 0.4654(1)
C4 C 0.1393(3) 0.6809(3) 0.5306(1)
C5 C 0.1045(3) 0.7498(3) 0.6050(2)
C6 C 0.3008(3) 0.5388(3) 0.3729(2)
C7 C -0.0532(2) 0.5749(2) 0.4851(1)
C8 C -0.1889(3) 0.4529(3) 0.4698(1)
C9 C -0.2758(3) 0.3678(2) 0.4425(1)
C10 C -0.3114(3) 0.3667(3) 0.3599(2)
C11 C -0.3891(3) 0.2825(3) 0.3313(2)
C12 C -0.4312(4) 0.2014(3) 0.3851(2)
C13 C -0.3962(4) 0.2028(3) 0.4664(2)
C14 C -0.3187(3) 0.2860(3) 0.4959(2)
C15 C 0.2167(3) 0.8308(3) 0.7146(1)
C16 C 0.3343(3) 0.8304(3) 0.7617(1)
C17 C 0.3693(4) 0.9281(3) 0.8010(2)
C18 C 0.4803(4) 0.9311(4) 0.8454(2)
C19 C 0.5528(4) 0.8361(4) 0.8511(2)
C20 C 0.5171(3) 0.7389(4) 0.8133(2)
C21 C 0.4080(3) 0.7359(3) 0.7672(2)
C22 C 0.3744(3) 0.4803(3) 0.4384(3)
C23 C 0.3234(4) 0.4955(4) 0.2883(2)
H1 H 0.214 0.792 0.364
H2 H 0.068 0.654 0.332
H3 H 0.173 0.600 0.551
H4 H 0.027 0.712 0.638
H5 H 0.080 0.833 0.587
H6 H -0.279 0.432 0.318
H7 H -0.417 0.280 0.267
H8 H -0.490 0.134 0.363
H9 H -0.429 0.139 0.508
H10 H -0.293 0.287 0.560
H11 H 0.312 1.001 0.798
H12 H 0.512 1.008 0.873
H13 H 0.640 0.838 0.886
H14 H 0.574 0.664 0.818
H15 H 0.381 0.659 0.736
H16 H 0.472 0.498 0.434
H17 H 0.361 0.391 0.437
H18 H 0.339 0.513 0.496
H19 H 0.416 0.513 0.267
H20 H 0.259 0.531 0.244
H21 H 0.308 0.407 0.292
H22 H -0.108 0.768 0.475
loop_
_geom_bond_atom_site_label_1
_geom_bond_atom_site_label_2
_geom_bond_site_symmetry_1
_geom_bond_site_symmetry_2
O1 C1 1_555 1_555
O2 C1 1_555 1_555
O3 C2 1_555 1_555
O4 C3 1_555 1_555
O5 C5 1_555 1_555
O6 N1 1_555 1_555
O7 C15 1_555 1_555
N1 C7 1_555 1_555
N2 C7 1_555 1_555
C1 C2 1_555 1_555
C2 C3 1_555 1_555
C3 C4 1_555 1_555
C4 O1 1_555 1_555
C5 C4 1_555 1_555
C6 O2 1_555 1_555
C7 C3 1_555 1_555
C8 O6 1_555 1_555
C9 C8 1_555 1_555
C10 C9 1_555 1_555
C11 C10 1_555 1_555
C12 C11 1_555 1_555
C13 C12 1_555 1_555
C14 C9 1_555 1_555
C15 O5 1_555 1_555
C16 C15 1_555 1_555
C17 C16 1_555 1_555
C18 C17 1_555 1_555
C19 C18 1_555 1_555
C20 C19 1_555 1_555
C21 C16 1_555 1_555
C22 C6 1_555 1_555
C23 C6 1_555 1_555
H1 C1 1_555 1_555
H2 C2 1_555 1_555
H3 C4 1_555 1_555
H4 C5 1_555 1_555
H5 C5 1_555 1_555
H6 C10 1_555 1_555
H7 C11 1_555 1_555
H8 C12 1_555 1_555
H9 C13 1_555 1_555
H10 C14 1_555 1_555
H11 C17 1_555 1_555
H12 C18 1_555 1_555
H13 C19 1_555 1_555
H14 C20 1_555 1_555
H15 C21 1_555 1_555
H16 C22 1_555 1_555
H17 C22 1_555 1_555
H18 C22 1_555 1_555
H19 C23 1_555 1_555
H20 C23 1_555 1_555
H21 C23 1_555 1_555
H22 O4 1_555 1_555
O3 C6 1_555 1_555
N2 C8 1_555 1_555
C13 C14 1_555 1_555
C20 C21 1_555 1_555

#END
