
#######################################################################
#
#                 Cambridge Crystallographic Data Centre
#                                CCDC 
#
#######################################################################
#
# If this CIF has been generated from an entry in the Cambridge 
# Structural Database, then it will include bibliographic, chemical, 
# crystal, experimental, refinement or atomic coordinate data resulting 
# from the CCDC's data processing and validation procedures.
#
#######################################################################

data_QICMEU
_chemical_name_common            
'1-(4-(2-(N,N-Dimethylammonio)ethoxy)phenyl)-4-chloro-1,2-diphenylbutene citrate'
_chemical_formula_moiety         'C26 H29 Cl1 N1 O1 1+,C6 H7 O7 1-'
_chemical_name_systematic        'Toremifene citrate'
_symmetry_cell_setting           monoclinic
_symmetry_space_group_name_H-M   'P 21/a'
_symmetry_Int_Tables_number      14
_space_group_name_Hall           '-P 2yab'
loop_
_symmetry_equiv_pos_site_id
_symmetry_equiv_pos_as_xyz
1 x,y,z
2 1/2-x,1/2+y,-z
3 -x,-y,-z
4 1/2+x,1/2-y,z
_cell_length_a                   8.643(2)
_cell_length_b                   21.780(3)
_cell_length_c                   16.151(2)
_cell_angle_alpha                90
_cell_angle_beta                 94.60(1)
_cell_angle_gamma                90
_cell_volume                     3030.54
_cell_formula_units_Z            4
loop_
_atom_site_label
_atom_site_type_symbol
_atom_site_fract_x
_atom_site_fract_y
_atom_site_fract_z
Cl1 Cl 0.2139(1) 0.9115(7) 0.3569(1)
C1 C 0.4539(5) 0.9934(2) 0.7205(3)
N1 N 0.0746(4) 1.3631(1) 0.9464(2)
C2 C 0.4929(6) 0.9410(3) 0.7659(3)
O1 O 0.2329(4) 1.2728(1) 0.7846(2)
C3 C 0.4087(6) 0.8877(3) 0.7506(3)
C4 C 0.2863(6) 0.8868(2) 0.6911(3)
C5 C 0.2467(5) 0.9390(2) 0.6443(3)
C6 C 0.2845(5) 1.1076(1) 0.6596(3)
C7 C 0.3655(5) 1.1610(2) 0.6425(3)
C8 C 0.3468(5) 1.2145(2) 0.6851(3)
C9 C 0.2455(5) 1.2161(2) 0.7482(3)
C10 C 0.1678(5) 1.1637(2) 0.7695(3)
C11 C 0.1693(5) 0.9786(2) 0.4138(3)
C12 C 0.1887(5) 1.1100(2) 0.7252(3)
C13 C 0.3089(5) 0.9977(2) 0.4709(3)
C14 C 0.1393(5) 1.2781(2) 0.8524(3)
C15 C 0.2759(4) 1.0522(2) 0.5255(3)
C16 C 0.1169(5) 1.3471(2) 0.8616(3)
C17 C 0.2282(5) 1.1094(2) 0.4796(3)
C18 C -0.0708(6) 1.3332(3) 0.9687(3)
C19 C 0.3135(5) 1.1320(2) 0.4168(3)
C20 C 0.0619(7) 1.4311(2) 0.9550(4)
C21 C 0.2708(6) 1.1858(2) 0.3757(3)
C22 C 0.1403(7) 1.2177(3) 0.3951(4)
C23 C 0.0529(6) 1.1952(2) 0.4566(4)
C24 C 0.0961(5) 1.1421(2) 0.4985(3)
C25 C 0.2941(4) 1.0505(2) 0.6087(3)
C26 C 0.3320(5) 0.9932(2) 0.6580(3)
O2 O 1.0520(4) -0.0416(1) 0.1344(2)
O3 O 0.8503(4) -0.0022(1) 0.0599(2)
O4 O 1.1878(3) 0.0878(1) 0.0753(1)
O5 O 1.2684(5) 0.2494(2) 0.1689(3)
O6 O 1.1270(6) 0.2317(2) 0.0555(3)
O7 O 0.8108(4) 0.1561(1) 0.0690(2)
O8 O 0.9569(4) 0.1268(1) -0.0307(2)
C27 C 0.9535(5) 0.0029(2) 0.1150(3)
C28 C 0.9839(5) 0.0603(2) 0.1645(3)
C29 C 1.0548(5) 0.1112(2) 0.1124(3)
C30 C 1.1093(6) 0.1626(2) 0.1715(3)
C31 C 1.1673(6) 0.2186(3) 0.1255(3)
C32 C 0.9338(5) 0.1330(2) 0.0437(3)
loop_
_geom_bond_atom_site_label_1
_geom_bond_atom_site_label_2
_geom_bond_site_symmetry_1
_geom_bond_site_symmetry_2
Cl1 C11 1_555 1_555
C1 C2 1_555 1_555
N1 C16 1_555 1_555
C2 C3 1_555 1_555
O1 C9 1_555 1_555
C3 C4 1_555 1_555
C4 C5 1_555 1_555
C5 C26 1_555 1_555
C6 C7 1_555 1_555
C7 C8 1_555 1_555
C8 C9 1_555 1_555
C9 C10 1_555 1_555
C10 C12 1_555 1_555
C11 C13 1_555 1_555
C12 C6 1_555 1_555
C13 C15 1_555 1_555
C14 O1 1_555 1_555
C15 C17 1_555 1_555
C16 C14 1_555 1_555
C17 C19 1_555 1_555
C18 N1 1_555 1_555
C19 C21 1_555 1_555
C20 N1 1_555 1_555
C21 C22 1_555 1_555
C22 C23 1_555 1_555
C23 C24 1_555 1_555
C24 C17 1_555 1_555
C25 C6 1_555 1_555
C26 C1 1_555 1_555
O2 C27 1_555 1_555
O3 C27 1_555 1_555
O4 C29 1_555 1_555
O5 C31 1_555 1_555
O6 C31 1_555 1_555
O7 C32 1_555 1_555
O8 C32 1_555 1_555
C27 C28 1_555 1_555
C28 C29 1_555 1_555
C29 C30 1_555 1_555
C30 C31 1_555 1_555
C32 C29 1_555 1_555
C15 C25 1_555 1_555
C25 C26 1_555 1_555

#END
