
#######################################################################
#
#                 Cambridge Crystallographic Data Centre
#                                CCDC 
#
#######################################################################
#
# If this CIF has been generated from an entry in the Cambridge 
# Structural Database, then it will include bibliographic, chemical, 
# crystal, experimental, refinement or atomic coordinate data resulting 
# from the CCDC's data processing and validation procedures.
#
#######################################################################

data_QICRAV01
_chemical_compound_source        'Sophora tonkinensis'
_chemical_formula_moiety         'C15 H22 N2 O2'
_chemical_name_systematic        12-hydroxy-13,14-didehydromatridin-15-one
_chemical_properties_biological  'antiviral activity'
_symmetry_cell_setting           orthorhombic
_symmetry_space_group_name_H-M   'P 21 21 21'
_symmetry_Int_Tables_number      19
_space_group_name_Hall           'P 2ac 2ab'
loop_
_symmetry_equiv_pos_site_id
_symmetry_equiv_pos_as_xyz
1 x,y,z
2 1/2-x,-y,1/2+z
3 1/2+x,1/2-y,-z
4 -x,1/2+y,1/2-z
_cell_length_a                   5.8201(6)
_cell_length_b                   14.8858(14)
_cell_length_c                   15.1911(15)
_cell_angle_alpha                90
_cell_angle_beta                 90
_cell_angle_gamma                90
_cell_volume                     1316.11
_exptl_crystal_description       LD-ST-7
_cell_formula_units_Z            4
loop_
_atom_site_label
_atom_site_type_symbol
_atom_site_fract_x
_atom_site_fract_y
_atom_site_fract_z
O1 O -0.40952(19) 0.34494(7) -0.06315(6)
O2 O 0.02912(18) 0.27874(6) 0.19712(6)
H1 H 0.0272 0.2469 0.1530
N1 N -0.11965(18) 0.38791(6) 0.02732(6)
N2 N 0.20962(18) 0.58933(7) 0.06742(7)
C1 C -0.3278(2) 0.35080(8) 0.01210(9)
C2 C -0.4524(3) 0.31499(9) 0.08859(10)
H2 H -0.5982 0.2909 0.0801
C3 C -0.3656(3) 0.31566(9) 0.16896(9)
H3 H -0.4529 0.2936 0.2155
C4 C -0.1304(2) 0.35107(8) 0.18651(8)
H4 H -0.1365 0.3835 0.2426
C5 C -0.0522(2) 0.41777(7) 0.11638(7)
H5 H 0.1160 0.4197 0.1181
C6 C -0.1397(2) 0.51543(7) 0.12817(8)
H6 H -0.3071 0.5148 0.1212
C7 C -0.0854(3) 0.55666(9) 0.21819(8)
H7 H -0.1671 0.6131 0.2244
H8 H -0.1379 0.5165 0.2643
C8 C 0.1704(3) 0.57288(9) 0.22842(9)
H9 H 0.2000 0.6029 0.2840
H10 H 0.2511 0.5159 0.2288
C9 C 0.2568(2) 0.63013(9) 0.15350(9)
H11 H 0.1839 0.6887 0.1563
H12 H 0.4211 0.6388 0.1599
C10 C 0.3023(3) 0.64859(9) -0.00091(9)
H13 H 0.4652 0.6574 0.0095
H14 H 0.2279 0.7067 0.0034
C11 C 0.2690(3) 0.61207(10) -0.09287(9)
H15 H 0.3541 0.5565 -0.0995
H16 H 0.3269 0.6548 -0.1356
C12 C 0.0152(3) 0.59513(9) -0.10918(8)
H17 H -0.0041 0.5656 -0.1656
H18 H -0.0656 0.6521 -0.1114
C13 C -0.0883(2) 0.53682(8) -0.03710(8)
H19 H -0.2553 0.5373 -0.0453
C14 C -0.0388(2) 0.57544(8) 0.05500(8)
H20 H -0.1139 0.6342 0.0589
C15 C -0.0090(2) 0.43887(8) -0.04281(8)
H21 H -0.0503 0.4139 -0.0996
H22 H 0.1566 0.4356 -0.0365
loop_
_geom_bond_atom_site_label_1
_geom_bond_atom_site_label_2
_geom_bond_site_symmetry_1
_geom_bond_site_symmetry_2
O1 C1 1_555 1_555
O2 H1 1_555 1_555
N1 C1 1_555 1_555
N2 C9 1_555 1_555
C1 C2 1_555 1_555
C2 H2 1_555 1_555
C3 C2 1_555 1_555
H3 C3 1_555 1_555
C4 O2 1_555 1_555
H4 C4 1_555 1_555
C5 N1 1_555 1_555
H5 C5 1_555 1_555
C6 C5 1_555 1_555
H6 C6 1_555 1_555
C7 C6 1_555 1_555
H7 C7 1_555 1_555
H8 C7 1_555 1_555
C8 C7 1_555 1_555
H9 C8 1_555 1_555
H10 C8 1_555 1_555
C9 C8 1_555 1_555
H11 C9 1_555 1_555
H12 C9 1_555 1_555
C10 N2 1_555 1_555
H13 C10 1_555 1_555
H14 C10 1_555 1_555
C11 C10 1_555 1_555
H15 C11 1_555 1_555
H16 C11 1_555 1_555
C12 C11 1_555 1_555
H17 C12 1_555 1_555
H18 C12 1_555 1_555
C13 C12 1_555 1_555
H19 C13 1_555 1_555
C14 N2 1_555 1_555
H20 C14 1_555 1_555
C15 N1 1_555 1_555
H21 C15 1_555 1_555
H22 C15 1_555 1_555
C3 C4 1_555 1_555
C4 C5 1_555 1_555
C6 C14 1_555 1_555
C13 C14 1_555 1_555
C13 C15 1_555 1_555

#END
