
#######################################################################
#
#                 Cambridge Crystallographic Data Centre
#                                CCDC 
#
#######################################################################
#
# If this CIF has been generated from an entry in the Cambridge 
# Structural Database, then it will include bibliographic, chemical, 
# crystal, experimental, refinement or atomic coordinate data resulting 
# from the CCDC's data processing and validation procedures.
#
#######################################################################

data_QICTUU
_chemical_formula_moiety         'C12 H9 N1 O2'
_chemical_name_systematic        7,8-dihydropyrido[1,2-a]indole-6,9-dione
_symmetry_cell_setting           monoclinic
_symmetry_space_group_name_H-M   'P c'
_symmetry_Int_Tables_number      7
_space_group_name_Hall           'P -2yc'
loop_
_symmetry_equiv_pos_site_id
_symmetry_equiv_pos_as_xyz
1 x,y,z
2 x,-y,1/2+z
_cell_length_a                   9.234(9)
_cell_length_b                   5.919(6)
_cell_length_c                   8.713(8)
_cell_angle_alpha                90
_cell_angle_beta                 95.70(2)
_cell_angle_gamma                90
_cell_volume                     473.864
_exptl_crystal_colour            colorless
_exptl_crystal_description       Block
_cell_formula_units_Z            2
loop_
_atom_site_label
_atom_site_type_symbol
_atom_site_fract_x
_atom_site_fract_y
_atom_site_fract_z
C1 C 0.4286(4) 0.1695(8) 0.4229(5)
C2 C 0.3593(6) 0.0085(7) 0.3254(6)
H1 H 0.4101 -0.1179 0.2969
C3 C 0.2138(6) 0.0364(8) 0.2704(8)
H2 H 0.1674 -0.0713 0.2051
C4 C 0.1378(5) 0.2252(9) 0.3129(9)
H3 H 0.0405 0.2439 0.2761
C5 C 0.2071(6) 0.3862(7) 0.4105(8)
H4 H 0.1562 0.5126 0.4389
C6 C 0.3525(6) 0.3583(7) 0.4655(6)
C7 C 0.4483(10) 0.4944(13) 0.5639(9)
H5 H 0.4259 0.6301 0.6099
C8 C 0.5807(9) 0.3860(12) 0.5777(9)
C9 C 0.7220(10) 0.4638(13) 0.6480(10)
C10 C 0.8539(9) 0.3417(12) 0.6022(11)
H6 H 0.9315 0.3531 0.6854
H7 H 0.8866 0.4147 0.5122
C11 C 0.8247(8) 0.0957(14) 0.5663(10)
H8 H 0.9042 0.0386 0.5126
H9 H 0.8269 0.0147 0.6633
C12 C 0.6848(10) 0.0383(14) 0.4719(10)
N1 N 0.5694(7) 0.1857(9) 0.4917(7)
O1 O 0.6697(6) -0.1250(9) 0.3876(7)
O2 O 0.7334(7) 0.6278(10) 0.7343(7)
loop_
_geom_bond_atom_site_label_1
_geom_bond_atom_site_label_2
_geom_bond_site_symmetry_1
_geom_bond_site_symmetry_2
C1 C2 1_555 1_555
C2 H1 1_555 1_555
C3 C2 1_555 1_555
H2 C3 1_555 1_555
C4 C3 1_555 1_555
H3 C4 1_555 1_555
C5 C4 1_555 1_555
H4 C5 1_555 1_555
C6 C1 1_555 1_555
C7 C6 1_555 1_555
H5 C7 1_555 1_555
C8 C7 1_555 1_555
C9 C8 1_555 1_555
C10 C9 1_555 1_555
H6 C10 1_555 1_555
H7 C10 1_555 1_555
C11 C10 1_555 1_555
H8 C11 1_555 1_555
H9 C11 1_555 1_555
C12 C11 1_555 1_555
N1 C1 1_555 1_555
O1 C12 1_555 1_555
O2 C9 1_555 1_555
C5 C6 1_555 1_555
C8 N1 1_555 1_555
C12 N1 1_555 1_555

#END
