
#######################################################################
#
#                 Cambridge Crystallographic Data Centre
#                                CCDC 
#
#######################################################################
#
# If this CIF has been generated from an entry in the Cambridge 
# Structural Database, then it will include bibliographic, chemical, 
# crystal, experimental, refinement or atomic coordinate data resulting 
# from the CCDC's data processing and validation procedures.
#
#######################################################################

data_QICWAA
_chemical_formula_moiety         'C10 H22 N3 1+,I1 1-,C1 H2 Cl2'
_chemical_name_systematic        
'2-t-Butyl-4,4,5,5-tetramethyl-1,2,3-triazolium iodide dichloromethane solvate'
_symmetry_cell_setting           monoclinic
_symmetry_space_group_name_H-M   'P 21/n'
_symmetry_Int_Tables_number      14
_space_group_name_Hall           '-P 2yn'
loop_
_symmetry_equiv_pos_site_id
_symmetry_equiv_pos_as_xyz
1 x,y,z
2 1/2-x,1/2+y,1/2-z
3 -x,-y,-z
4 1/2+x,1/2-y,1/2+z
_cell_length_a                   11.245(2)
_cell_length_b                   7.8090(16)
_cell_length_c                   20.146(4)
_cell_angle_alpha                90
_cell_angle_beta                 105.67(3)
_cell_angle_gamma                90
_cell_volume                     1703.31
_exptl_crystal_colour            yellow
_cell_formula_units_Z            4
loop_
_atom_site_label
_atom_site_type_symbol
_atom_site_fract_x
_atom_site_fract_y
_atom_site_fract_z
C1 C 0.3415(3) 0.6536(5) 0.3666(2)
C2 C 0.4183(3) 0.8062(5) 0.4073(2)
C3 C 0.1752(3) 0.7458(4) 0.4980(2)
C4 C 0.4164(4) 0.5100(6) 0.3470(3)
C5 C 0.2407(4) 0.7123(7) 0.3036(2)
C6 C 0.4367(4) 0.9568(6) 0.3634(3)
C7 C 0.5399(4) 0.7498(5) 0.4572(2)
C8 C 0.1983(4) 0.9078(5) 0.5412(2)
C9 C 0.1935(4) 0.5853(6) 0.5419(2)
C10 C 0.0492(4) 0.7514(5) 0.4450(3)
N1 N 0.2695(3) 0.7391(3) 0.4557(2)
N2 N 0.2819(3) 0.5956(4) 0.4202(2)
N3 N 0.3390(3) 0.8622(4) 0.4527(2)
H1 H 0.3616 0.4233 0.3222
H2 H 0.4700 0.4613 0.3880
H3 H 0.4650 0.5547 0.3184
H4 H 0.1969 0.6143 0.2804
H5 H 0.2775 0.7730 0.2727
H6 H 0.1843 0.7865 0.3180
H7 H 0.4842 1.0438 0.3925
H8 H 0.3577 1.0027 0.3391
H9 H 0.4798 0.9193 0.3309
H10 H 0.5825 0.8482 0.4807
H11 H 0.5904 0.6945 0.4320
H12 H 0.5232 0.6713 0.4902
H13 H 0.2776 0.9008 0.5743
H14 H 0.1352 0.9202 0.5649
H15 H 0.1966 1.0050 0.5118
H16 H 0.2734 0.5884 0.5745
H17 H 0.1877 0.4865 0.5129
H18 H 0.1308 0.5794 0.5661
H19 H -0.0146 0.7557 0.4684
H20 H 0.0388 0.6507 0.4167
H21 H 0.0443 0.8513 0.4166
C11 C 0.7141(5) 0.1404(6) 0.2358(3)
Cl1 Cl 0.7555(1) 0.2512(2) 0.1692(1)
Cl2 Cl 0.6087(2) 0.2589(2) 0.2684(1)
H22 H 0.6773 0.0314 0.2184
H23 H 0.7877 0.1174 0.2728
I1 I 0.0717(1) 0.2597(1) 0.3565(1)
loop_
_geom_bond_atom_site_label_1
_geom_bond_atom_site_label_2
_geom_bond_site_symmetry_1
_geom_bond_site_symmetry_2
C1 C2 1_555 1_555
C2 C6 1_555 1_555
C3 C8 1_555 1_555
C4 C1 1_555 1_555
C5 C1 1_555 1_555
C6 H7 1_555 1_555
C7 C2 1_555 1_555
C8 H13 1_555 1_555
C9 C3 1_555 1_555
C10 C3 1_555 1_555
N1 C3 1_555 1_555
N2 C1 1_555 1_555
N3 C2 1_555 1_555
C11 Cl1 1_555 1_555
Cl2 C11 1_555 1_555
H1 C4 1_555 1_555
H2 C4 1_555 1_555
H3 C4 1_555 1_555
H4 C5 1_555 1_555
H5 C5 1_555 1_555
H6 C5 1_555 1_555
H8 C6 1_555 1_555
H9 C6 1_555 1_555
H10 C7 1_555 1_555
H11 C7 1_555 1_555
H12 C7 1_555 1_555
H14 C8 1_555 1_555
H15 C8 1_555 1_555
H16 C9 1_555 1_555
H17 C9 1_555 1_555
H18 C9 1_555 1_555
H19 C10 1_555 1_555
H20 C10 1_555 1_555
H21 C10 1_555 1_555
H22 C11 1_555 1_555
H23 C11 1_555 1_555
N1 N3 1_555 1_555
N1 N2 1_555 1_555

#END
