
#######################################################################
#
#                 Cambridge Crystallographic Data Centre
#                                CCDC 
#
#######################################################################
#
# If this CIF has been generated from an entry in the Cambridge 
# Structural Database, then it will include bibliographic, chemical, 
# crystal, experimental, refinement or atomic coordinate data resulting 
# from the CCDC's data processing and validation procedures.
#
#######################################################################

data_QICWEE
_chemical_formula_moiety         'C10 H22 N3 1+,C6 H2 N3 O7 1-'
_chemical_name_systematic        
'2-t-Butyl-4,4,5,5-tetramethyl-1,2,3-triazolium picrate'
_symmetry_cell_setting           monoclinic
_symmetry_space_group_name_H-M   'P 21/c'
_symmetry_Int_Tables_number      14
_space_group_name_Hall           '-P 2ybc'
loop_
_symmetry_equiv_pos_site_id
_symmetry_equiv_pos_as_xyz
1 x,y,z
2 -x,1/2+y,1/2-z
3 -x,-y,-z
4 x,1/2-y,1/2+z
_cell_length_a                   10.475(2)
_cell_length_b                   21.708(4)
_cell_length_c                   8.9970(18)
_cell_angle_alpha                90
_cell_angle_beta                 98.84(3)
_cell_angle_gamma                90
_cell_volume                     2021.54
_exptl_crystal_colour            yellow
_exptl_crystal_description       needle
_chemical_melting_point          '129.5 deg.C'
_cell_formula_units_Z            4
_exptl_crystal_recrystallization_method ethanol
loop_
_atom_site_label
_atom_site_type_symbol
_atom_site_fract_x
_atom_site_fract_y
_atom_site_fract_z
N1 N 0.1394(2) 0.5858(1) 0.3847(2)
N2 N 0.2386(2) 0.5870(1) 0.4986(2)
N3 N 0.3423(2) 0.5631(1) 0.4751(2)
C1 C 0.1969(3) 0.5767(1) 0.2465(3)
C2 C 0.3172(3) 0.5388(1) 0.3164(3)
C3 C 0.2301(3) 0.6406(2) 0.1910(4)
C4 C 0.1044(3) 0.5439(2) 0.1277(4)
C5 C 0.2899(3) 0.4705(1) 0.3341(4)
C6 C 0.4367(3) 0.5477(2) 0.2442(4)
C7 C 0.2233(3) 0.6164(1) 0.6485(3)
C8 C 0.2205(3) 0.6853(1) 0.6208(4)
C9 C 0.3388(3) 0.5975(2) 0.7623(3)
C10 C 0.0985(3) 0.5920(2) 0.6901(4)
H1 H 0.0587 0.5895 0.3910
H2 H 0.2899 0.6607 0.2673
H3 H 0.1527 0.6648 0.1698
H4 H 0.2683 0.6365 0.1012
H5 H 0.0344 0.5709 0.0900
H6 H 0.0709 0.5080 0.1708
H7 H 0.1489 0.5317 0.0468
H8 H 0.3678 0.4500 0.3783
H9 H 0.2596 0.4529 0.2372
H10 H 0.2251 0.4655 0.3980
H11 H 0.5050 0.5221 0.2939
H12 H 0.4630 0.5900 0.2529
H13 H 0.4183 0.5365 0.1398
H14 H 0.2112 0.7065 0.7122
H15 H 0.1489 0.6953 0.5446
H16 H 0.2995 0.6978 0.5880
H17 H 0.3318 0.6156 0.8580
H18 H 0.4167 0.6116 0.7292
H19 H 0.3410 0.5535 0.7716
H20 H 0.0849 0.6094 0.7844
H21 H 0.1032 0.5480 0.6987
H22 H 0.0281 0.6032 0.6135
N4 N -0.2416(3) 0.5878(1) 0.1963(4)
N5 N -0.4539(3) 0.7697(2) -0.0300(3)
N6 N -0.0892(3) 0.7989(2) 0.3614(3)
O1 O -0.0627(2) 0.6678(1) 0.3801(3)
O2 O -0.1890(4) 0.5631(1) 0.3116(5)
O3 O -0.2928(3) 0.5586(1) 0.0876(4)
O4 O -0.5285(3) 0.7362(2) -0.1085(4)
O5 O -0.4624(3) 0.8257(1) -0.0379(4)
O6 O -0.1271(3) 0.8501(1) 0.3805(3)
O7 O 0.0224(3) 0.7828(1) 0.4043(5)
C11 C -0.1518(3) 0.6902(1) 0.2890(3)
C12 C -0.2463(3) 0.6546(1) 0.1904(3)
C13 C -0.3416(3) 0.6800(1) 0.0891(3)
C14 C -0.3531(3) 0.7429(1) 0.0775(3)
C15 C -0.2691(3) 0.7809(1) 0.1693(3)
C16 C -0.1735(3) 0.7555(1) 0.2699(3)
H23 H -0.3989 0.6547 0.0276
H24 H -0.2779 0.8234 0.1622
loop_
_geom_bond_atom_site_label_1
_geom_bond_atom_site_label_2
_geom_bond_site_symmetry_1
_geom_bond_site_symmetry_2
N1 N2 1_555 1_555
N2 N3 1_555 1_555
N3 C2 1_555 1_555
C1 N1 1_555 1_555
C2 C1 1_555 1_555
C3 C1 1_555 1_555
C4 C1 1_555 1_555
C5 C2 1_555 1_555
C6 C2 1_555 1_555
C7 N2 1_555 1_555
C8 C7 1_555 1_555
C9 C7 1_555 1_555
C10 C7 1_555 1_555
N4 O2 1_555 1_555
N5 O4 1_555 1_555
N6 O6 1_555 1_555
O1 C11 1_555 1_555
O3 N4 1_555 1_555
O5 N5 1_555 1_555
O7 N6 1_555 1_555
C11 C12 1_555 1_555
C12 N4 1_555 1_555
C13 C12 1_555 1_555
C14 N5 1_555 1_555
C15 C14 1_555 1_555
C16 N6 1_555 1_555
H1 N1 1_555 1_555
H2 C3 1_555 1_555
H3 C3 1_555 1_555
H4 C3 1_555 1_555
H5 C4 1_555 1_555
H6 C4 1_555 1_555
H7 C4 1_555 1_555
H8 C5 1_555 1_555
H9 C5 1_555 1_555
H10 C5 1_555 1_555
H11 C6 1_555 1_555
H12 C6 1_555 1_555
H13 C6 1_555 1_555
H14 C8 1_555 1_555
H15 C8 1_555 1_555
H16 C8 1_555 1_555
H17 C9 1_555 1_555
H18 C9 1_555 1_555
H19 C9 1_555 1_555
H20 C10 1_555 1_555
H21 C10 1_555 1_555
H22 C10 1_555 1_555
H23 C13 1_555 1_555
H24 C15 1_555 1_555
C11 C16 1_555 1_555
C13 C14 1_555 1_555
C15 C16 1_555 1_555

#END
