
#######################################################################
#
#                 Cambridge Crystallographic Data Centre
#                                CCDC 
#
#######################################################################
#
# If this CIF has been generated from an entry in the Cambridge 
# Structural Database, then it will include bibliographic, chemical, 
# crystal, experimental, refinement or atomic coordinate data resulting 
# from the CCDC's data processing and validation procedures.
#
#######################################################################

data_QIDDUF
_chemical_formula_moiety         'C19 H19 N3 O1 S1'
_chemical_name_systematic        
2-(5-methoxy-2-thienyl)-3-(2-(pyrrolidin-1-yl)vinyl)quinoxaline
_symmetry_cell_setting           monoclinic
_symmetry_space_group_name_H-M   'P 21'
_symmetry_Int_Tables_number      4
_space_group_name_Hall           'P 2yb'
loop_
_symmetry_equiv_pos_site_id
_symmetry_equiv_pos_as_xyz
1 x,y,z
2 -x,1/2+y,-z
_cell_length_a                   11.3590(8)
_cell_length_b                   7.3984(4)
_cell_length_c                   11.9104(8)
_cell_angle_alpha                90
_cell_angle_beta                 118.480(5)
_cell_angle_gamma                90
_cell_volume                     879.802
_exptl_crystal_colour            yellow
_exptl_crystal_description       plate
_cell_formula_units_Z            2
loop_
_atom_site_label
_atom_site_type_symbol
_atom_site_fract_x
_atom_site_fract_y
_atom_site_fract_z
S1 S 0.96167(4) 0.99252(8) 0.22356(4)
O1 O 1.13733(15) 1.0983(3) 0.15456(16)
N1 N 0.75826(16) 0.9641(3) 0.29918(16)
N2 N 0.48004(17) 0.9510(2) 0.14874(16)
N3 N 0.29218(16) 0.9828(3) -0.24253(15)
C1 C 0.70149(17) 0.9952(3) 0.17543(16)
C2 C 0.55723(18) 0.9789(3) 0.09452(17)
C3 C 0.5380(2) 0.9274(3) 0.27727(19)
C4 C 0.6781(2) 0.9269(3) 0.3526(2)
C5 C 0.7352(3) 0.8923(4) 0.4845(2)
H1 H 0.8279 0.8911 0.5345
C6 C 0.6563(3) 0.8605(5) 0.5394(3)
H2 H 0.6951 0.8387 0.6267
C7 C 0.5160(3) 0.8605(5) 0.4644(3)
H3 H 0.4624 0.8370 0.5022
C8 C 0.4581(3) 0.8947(4) 0.3364(3)
H4 H 0.3653 0.8964 0.2878
C9 C 0.79372(19) 1.0471(3) 0.12749(18)
C10 C 0.7791(2) 1.1512(3) 0.02677(19)
H5 H 0.6968 1.1963 -0.0340
C11 C 0.8993(2) 1.1845(3) 0.0226(2)
H6 H 0.9050 1.2520 -0.0405
C12 C 1.0059(2) 1.1055(3) 0.12251(19)
C13 C 1.1749(3) 1.1923(5) 0.0727(3)
H7 H 1.2677 1.1699 0.0991
H8 H 1.1610 1.3196 0.0770
H9 H 1.1212 1.1510 -0.0135
C14 C 0.49675(18) 0.9826(3) -0.04265(17)
H10 H 0.5505 0.9749 -0.0818
C15 C 0.36190(19) 0.9973(3) -0.11528(18)
H11 H 0.3132 1.0195 -0.0724
C16 C 0.3508(2) 0.9296(3) -0.32205(19)
H12 H 0.4100 0.8264 -0.2875
H13 H 0.3980 1.0285 -0.3366
C17 C 0.2315(5) 0.9092(6) -0.4554(5)
H14 H 0.2425 0.8049 -0.4988
H15 H 0.2206 1.0162 -0.5065
C18 C 0.1114(3) 0.8845(6) -0.4313(2)
H16 H 0.1005 0.7586 -0.4154
H17 H 0.0294 0.9271 -0.5034
C19 C 0.1475(6) 0.9981(10) -0.3149(5)
H18 H 0.1204 1.1227 -0.3381
H19 H 0.1055 0.9520 -0.2663
C20? C 0.214(5) 0.879(6) -0.449(5)
H20? H 0.1880 0.7542 -0.4470
H21? H 0.2208 0.8997 -0.5256
C21? C 0.1166(19) 1.011(4) -0.438(2)
H22? H 0.1399 1.1348 -0.4447
H23? H 0.0253 0.9879 -0.5030
C22? C 0.134(7) 0.973(10) -0.306(4)
H24? H 0.0958 1.0656 -0.2759
H25? H 0.1014 0.8542 -0.2991
loop_
_geom_bond_atom_site_label_1
_geom_bond_atom_site_label_2
_geom_bond_site_symmetry_1
_geom_bond_site_symmetry_2
S1 C9 1_555 1_555
O1 C12 1_555 1_555
N1 C1 1_555 1_555
N2 C2 1_555 1_555
N3 C15 1_555 1_555
C1 C2 1_555 1_555
C2 C14 1_555 1_555
C3 N2 1_555 1_555
C4 N1 1_555 1_555
C5 C4 1_555 1_555
H1 C5 1_555 1_555
C6 C5 1_555 1_555
H2 C6 1_555 1_555
C7 C6 1_555 1_555
H3 C7 1_555 1_555
C8 C3 1_555 1_555
H4 C8 1_555 1_555
C9 C1 1_555 1_555
C10 C9 1_555 1_555
H5 C10 1_555 1_555
C11 C10 1_555 1_555
H6 C11 1_555 1_555
C12 S1 1_555 1_555
C13 O1 1_555 1_555
H7 C13 1_555 1_555
H8 C13 1_555 1_555
H9 C13 1_555 1_555
C14 H10 1_555 1_555
C15 C14 1_555 1_555
H11 C15 1_555 1_555
C16 N3 1_555 1_555
H12 C16 1_555 1_555
H13 C16 1_555 1_555
C17 C16 1_555 1_555
H14 C17 1_555 1_555
H15 C17 1_555 1_555
C18 C17 1_555 1_555
H16 C18 1_555 1_555
H17 C18 1_555 1_555
C19 N3 1_555 1_555
H18 C19 1_555 1_555
H19 C19 1_555 1_555
C3 C4 1_555 1_555
C7 C8 1_555 1_555
C11 C12 1_555 1_555
C18 C19 1_555 1_555

#END
