
#######################################################################
#
#                 Cambridge Crystallographic Data Centre
#                                CCDC 
#
#######################################################################
#
# If this CIF has been generated from an entry in the Cambridge 
# Structural Database, then it will include bibliographic, chemical, 
# crystal, experimental, refinement or atomic coordinate data resulting 
# from the CCDC's data processing and validation procedures.
#
#######################################################################

data_QIDFAN
_chemical_formula_moiety         'C20 H19 N3'
_chemical_name_systematic        
2-phenyl-3-(2-(pyrrolidin-1-yl)vinyl)quinoxaline
_symmetry_cell_setting           orthorhombic
_symmetry_space_group_name_H-M   'P b c a'
_symmetry_Int_Tables_number      61
_space_group_name_Hall           '-P 2ac 2ab'
loop_
_symmetry_equiv_pos_site_id
_symmetry_equiv_pos_as_xyz
1 x,y,z
2 1/2-x,-y,1/2+z
3 -x,1/2+y,1/2-z
4 1/2+x,1/2-y,-z
5 -x,-y,-z
6 1/2+x,y,1/2-z
7 x,1/2-y,1/2+z
8 1/2-x,1/2+y,z
_cell_length_a                   10.3156(5)
_cell_length_b                   18.3011(7)
_cell_length_c                   17.3549(7)
_cell_angle_alpha                90
_cell_angle_beta                 90
_cell_angle_gamma                90
_cell_volume                     3276.38
_exptl_crystal_colour            yellow
_exptl_crystal_description       plate
_cell_formula_units_Z            8
loop_
_atom_site_label
_atom_site_type_symbol
_atom_site_fract_x
_atom_site_fract_y
_atom_site_fract_z
N1 N 0.41638(18) 0.41844(10) 0.06130(10)
N2 N 0.31319(19) 0.37453(10) -0.08166(11)
N3 N 0.3309(2) 0.62113(10) 0.15429(11)
C1 C 0.34043(19) 0.46304(12) 0.02092(12)
C2 C 0.2904(2) 0.43978(11) -0.05307(12)
C3 C 0.3894(2) 0.32823(12) -0.03898(13)
C4 C 0.4431(2) 0.35131(12) 0.03103(13)
C5 C 0.5256(2) 0.30329(13) 0.07107(15)
H1 H 0.5643 0.3183 0.1168
C6 C 0.5492(3) 0.23475(14) 0.04331(17)
H2 H 0.6034 0.2034 0.0705
C7 C 0.4932(3) 0.21136(14) -0.02529(16)
H3 H 0.5094 0.1644 -0.0435
C8 C 0.4145(3) 0.25716(14) -0.06587(15)
H4 H 0.3772 0.2413 -0.1117
C9 C 0.2100(2) 0.48936(11) -0.10238(12)
C10 C 0.0770(2) 0.48671(14) -0.10066(14)
H5 H 0.0358 0.4556 -0.0661
C11 C 0.0035(3) 0.52951(16) -0.14940(17)
H6 H -0.0865 0.5273 -0.1471
C12 C 0.0622(3) 0.57500(14) -0.20083(15)
H7 H 0.0129 0.6032 -0.2344
C13 C 0.1937(3) 0.57861(17) -0.20238(19)
H8 H 0.2345 0.6098 -0.2370
C14 C 0.2673(3) 0.53634(16) -0.15297(17)
H9 H 0.3572 0.5400 -0.1543
C15 C 0.3079(2) 0.53366(12) 0.05162(12)
H10 H 0.2528 0.5640 0.0237
C16 C 0.3550(2) 0.55719(13) 0.11967(13)
H11 H 0.4105 0.5255 0.1455
C17 C 0.3870(4) 0.64353(16) 0.22758(16)
H12 H 0.4801 0.6359 0.2276
H13 H 0.3492 0.6161 0.2698
C18 C 0.3559(13) 0.7223(4) 0.2346(6)
H14 H 0.4264 0.7520 0.2149
H15 H 0.3401 0.7354 0.2879
C19 C 0.2353(15) 0.7327(6) 0.1868(7)
H16 H 0.2331 0.7813 0.1647
H17 H 0.1583 0.7257 0.2181
C20 C 0.2429(3) 0.67500(13) 0.12369(15)
H18 H 0.1583 0.6538 0.1138
H19 H 0.2761 0.6958 0.0762
C21? C 0.310(2) 0.7087(10) 0.2465(15)
H20? H 0.3639 0.7437 0.2738
H21? H 0.2385 0.6952 0.2796
C22? C 0.260(5) 0.7424(13) 0.1743(16)
H22? H 0.3218 0.7764 0.1523
H23? H 0.1782 0.7672 0.1830
loop_
_geom_bond_atom_site_label_1
_geom_bond_atom_site_label_2
_geom_bond_site_symmetry_1
_geom_bond_site_symmetry_2
N1 C1 1_555 1_555
N2 C2 1_555 1_555
N3 C16 1_555 1_555
C1 C2 1_555 1_555
C2 C9 1_555 1_555
C3 N2 1_555 1_555
C4 N1 1_555 1_555
C5 C4 1_555 1_555
H1 C5 1_555 1_555
C6 C5 1_555 1_555
H2 C6 1_555 1_555
C7 C6 1_555 1_555
H3 C7 1_555 1_555
C8 C3 1_555 1_555
H4 C8 1_555 1_555
C9 C10 1_555 1_555
C10 H5 1_555 1_555
C11 C10 1_555 1_555
H6 C11 1_555 1_555
C12 C11 1_555 1_555
H7 C12 1_555 1_555
C13 C12 1_555 1_555
H8 C13 1_555 1_555
C14 C9 1_555 1_555
H9 C14 1_555 1_555
C15 C1 1_555 1_555
H10 C15 1_555 1_555
C16 C15 1_555 1_555
H11 C16 1_555 1_555
C17 N3 1_555 1_555
H12 C17 1_555 1_555
H13 C17 1_555 1_555
C18 C17 1_555 1_555
H14 C18 1_555 1_555
H15 C18 1_555 1_555
C19 C18 1_555 1_555
H16 C19 1_555 1_555
H17 C19 1_555 1_555
C20 N3 1_555 1_555
H18 C20 1_555 1_555
H19 C20 1_555 1_555
C3 C4 1_555 1_555
C7 C8 1_555 1_555
C13 C14 1_555 1_555
C19 C20 1_555 1_555

#END
