
#######################################################################
#
#                 Cambridge Crystallographic Data Centre
#                                CCDC 
#
#######################################################################
#
# If this CIF has been generated from an entry in the Cambridge 
# Structural Database, then it will include bibliographic, chemical, 
# crystal, experimental, refinement or atomic coordinate data resulting 
# from the CCDC's data processing and validation procedures.
#
#######################################################################

data_QIDHOD
_chemical_formula_moiety         'C51 H55 N7 O4,C1 H4 O1,4(H2 O1)'
_chemical_name_systematic        
'48,50-dimethoxy-1,25,30,30,39,39-hexamethyl-5,21,44,45,46,47,49-heptaazanonacyclo[23.9.9.1^6,10^.1^11,15^.1^16,20^.1^26,29^.1^31,34^.1^35,38^.1^40,43^]pentaconta-6(50),7,9,11(49),12,14,16(48),17,19,26,28,31,33,35,37,40,42-heptadecaene-4,22-dione methanol solvate tetrahydrate'
_symmetry_cell_setting           triclinic
_symmetry_space_group_name_H-M   'P -1'
_symmetry_Int_Tables_number      2
_space_group_name_Hall           '-P 1'
loop_
_symmetry_equiv_pos_site_id
_symmetry_equiv_pos_as_xyz
1 x,y,z
2 -x,-y,-z
_cell_length_a                   11.6417(6)
_cell_length_b                   13.7047(7)
_cell_length_c                   16.6041(8)
_cell_angle_alpha                77.987(4)
_cell_angle_beta                 86.663(4)
_cell_angle_gamma                67.729(5)
_cell_volume                     2397.19
_cell_formula_units_Z            2
loop_
_atom_site_label
_atom_site_type_symbol
_atom_site_fract_x
_atom_site_fract_y
_atom_site_fract_z
C1 C 0.9399(3) 0.2935(3) 0.9047(2)
C2 C 1.0536(3) 0.2994(3) 0.8857(3)
H1 H 1.078691 0.355795 0.891963
C3 C 1.1273(3) 0.2058(3) 0.8548(2)
H2 H 1.210293 0.188926 0.836703
C4 C 1.0576(3) 0.1448(3) 0.8560(2)
C5 C 1.0839(3) 0.0387(3) 0.8300(2)
C6 C 0.9898(3) 0.0568(3) 0.7630(2)
C7 C 0.9788(4) 0.1113(3) 0.6834(2)
H3 H 1.033236 0.144059 0.656503
C8 C 0.8710(3) 0.1103(3) 0.6478(2)
H4 H 0.840786 0.142345 0.592852
C9 C 0.8185(3) 0.0549(3) 0.7069(2)
C10 C 0.7047(3) 0.0271(3) 0.7046(2)
C11 C 0.6279(3) 0.0486(3) 0.7797(2)
C12 C 0.5652(3) -0.0075(3) 0.8292(2)
H5 H 0.565776 -0.075807 0.825013
C13 C 0.4991(3) 0.0549(3) 0.8879(2)
H6 H 0.447693 0.035712 0.929625
C14 C 0.5232(3) 0.1481(3) 0.8731(2)
C15 C 0.4757(3) 0.2442(3) 0.9144(2)
C16 C 0.5777(3) 0.2604(3) 0.9569(2)
C17 C 0.5975(3) 0.2536(3) 1.0385(2)
H7 H 0.555219 0.227187 1.083052
C18 C 0.6921(3) 0.2929(3) 1.0452(2)
H8 H 0.723347 0.298545 1.094885
C19 C 0.7309(3) 0.3213(3) 0.9672(2)
C20 C 0.8232(3) 0.3727(3) 0.9363(2)
C21 C 0.7641(3) 0.4685(3) 0.8629(2)
H9 H 0.821467 0.506923 0.847366
H10 H 0.753891 0.439807 0.814976
C22 C 0.6377(3) 0.5488(3) 0.8827(2)
H11 H 0.578279 0.511878 0.894776
H12 H 0.646388 0.574812 0.932459
C23 C 0.5870(3) 0.6437(3) 0.8119(2)
C24 C 0.4102(3) 0.7288(3) 0.7088(2)
C25 C 0.4285(3) 0.8233(3) 0.6736(2)
H13 H 0.496631 0.836306 0.691197
C26 C 0.3467(3) 0.8984(3) 0.6126(2)
H14 H 0.357694 0.963737 0.589842
C27 C 0.2493(3) 0.8790(3) 0.5847(2)
H15 H 0.193270 0.931728 0.543582
C28 C 0.2324(3) 0.7827(3) 0.6163(2)
C29 C 0.3106(3) 0.7098(3) 0.6808(2)
C30 C 0.1405(3) 0.7556(3) 0.5757(2)
C31 C 0.0154(3) 0.8219(3) 0.5673(2)
H16 H -0.014939 0.887101 0.587214
C32 C -0.0643(3) 0.7906(3) 0.5289(2)
H17 H -0.150566 0.833183 0.523255
C33 C -0.0157(3) 0.6962(3) 0.4991(2)
H18 H -0.068500 0.672746 0.473311
C34 C 0.1116(3) 0.6359(3) 0.5075(2)
C35 C 0.1692(3) 0.5364(3) 0.4738(2)
C36 C 0.1415(3) 0.5347(3) 0.3932(2)
H19 H 0.083794 0.597411 0.360009
C37 C 0.1977(4) 0.4423(3) 0.3616(2)
H20 H 0.176428 0.441826 0.307352
C38 C 0.2845(3) 0.3503(3) 0.4079(2)
H21 H 0.324361 0.287981 0.385069
C39 C 0.3126(4) 0.3505(3) 0.4879(2)
C40 C 0.2535(3) 0.4422(3) 0.5209(2)
C41 C 0.4211(3) 0.1565(3) 0.5448(2)
C42 C 0.5114(3) 0.0772(3) 0.6122(2)
H22 H 0.539603 0.004741 0.598734
H23 H 0.465965 0.074636 0.664414
C43 C 0.6261(3) 0.1005(3) 0.6268(2)
H24 H 0.599183 0.176543 0.632198
H25 H 0.679207 0.091429 0.577974
C44 C 0.3804(3) 0.2289(3) 0.9787(2)
H26 H 0.312850 0.220700 0.951714
H27 H 0.346659 0.291808 1.004550
H28 H 0.420954 0.164264 1.020862
C45 C 0.4080(3) 0.3469(3) 0.8499(2)
H29 H 0.465194 0.356444 0.806114
H30 H 0.378865 0.409351 0.876399
H31 H 0.336800 0.340094 0.826300
C46 C 0.8619(3) 0.4126(3) 1.0063(2)
H32 H 0.787840 0.462175 1.028286
H33 H 0.917719 0.449964 0.985066
H34 H 0.904697 0.350984 1.050287
C47 C 1.0764(3) -0.0454(3) 0.9048(2)
H35 H 1.142204 -0.059787 0.944971
H36 H 1.086894 -0.112165 0.887142
H37 H 0.995310 -0.018191 0.930226
C48 C 1.2152(3) -0.0008(3) 0.7951(3)
H38 H 1.221135 0.053176 0.747756
H39 H 1.231681 -0.068800 0.777472
H40 H 1.276295 -0.012115 0.837651
C49 C 0.7444(3) -0.0921(3) 0.7001(2)
H41 H 0.803684 -0.136867 0.745150
H42 H 0.783630 -0.103722 0.647222
H43 H 0.671292 -0.111753 0.704971
C50 C 0.1935(6) 0.4088(5) 0.6571(3)
H44 H 0.109254 0.460932 0.641459
H45 H 0.212924 0.409299 0.713621
H46 H 0.198709 0.336699 0.653756
C51 C 0.1753(4) 0.6295(4) 0.7529(3)
H47 H 0.119671 0.634073 0.709020
H48 H 0.142025 0.695583 0.774968
H49 H 0.181980 0.567597 0.797055
N1 N 0.9436(3) 0.1991(2) 0.88644(18)
H50 H 0.881670 0.176474 0.893247
N2 N 0.8920(3) 0.0229(2) 0.77712(18)
H51 H 0.878253 -0.014007 0.824221
N3 N 0.6011(3) 0.1431(2) 0.80686(18)
H52 H 0.629760 0.193389 0.784961
N4 N 0.6608(3) 0.2998(2) 0.91369(17)
H53 H 0.668253 0.309844 0.859848
N5 N 0.4019(4) 0.2614(3) 0.5391(2)
H54 H 0.449659 0.275687 0.570253
N6 N 0.1888(3) 0.6656(2) 0.54544(18)
N7 N 0.4837(3) 0.6491(2) 0.77361(18)
H55 H 0.459398 0.595178 0.791920
O1 O 0.3663(3) 0.1275(2) 0.50019(17)
O2 O 0.2805(3) 0.4374(2) 0.60222(17)
O3 O 0.2958(3) 0.6166(2) 0.72035(19)
O4 O 0.6357(2) 0.7099(2) 0.79154(17)
C52 C 0.4844(6) 0.5601(10) 0.3718(4)
H56 H 0.474855 0.598407 0.314198
H57 H 0.460133 0.498065 0.376691
H58 H 0.571215 0.535333 0.389864
O5 O 0.4059(5) 0.6320(5) 0.4228(4)
H59 H 0.337748 0.623857 0.429294
O6 O 0.44396(19) 0.58615(17) 0.53559(12)
H60 H 0.484879 0.519069 0.532783
H61 H 0.366629 0.592569 0.538623
O7 O 0.2973(2) 0.69108(18) 0.26339(13)
H62 H 0.344579 0.657399 0.305513
H63 H 0.228009 0.732669 0.278153
O8 O 0.8256(3) -0.1079(2) 0.9298(2)
H64 H 0.859007 -0.154350 0.972794
H65 H 0.791817 -0.046120 0.941854
O9 O 0.8735(5) 0.6786(3) 0.8645(2)
H66 H 0.938051 0.627349 0.887122
H67 H 0.874861 0.738159 0.871011
loop_
_geom_bond_atom_site_label_1
_geom_bond_atom_site_label_2
_geom_bond_site_symmetry_1
_geom_bond_site_symmetry_2
C1 C2 1_555 1_555
C2 H1 1_555 1_555
C3 C2 1_555 1_555
H2 C3 1_555 1_555
C4 C3 1_555 1_555
C5 C4 1_555 1_555
C6 C5 1_555 1_555
C7 C6 1_555 1_555
H3 C7 1_555 1_555
C8 C7 1_555 1_555
H4 C8 1_555 1_555
C9 C8 1_555 1_555
C10 C9 1_555 1_555
C11 C10 1_555 1_555
C12 C11 1_555 1_555
H5 C12 1_555 1_555
C13 C12 1_555 1_555
H6 C13 1_555 1_555
C14 C13 1_555 1_555
C15 C14 1_555 1_555
C16 C15 1_555 1_555
C17 C16 1_555 1_555
H7 C17 1_555 1_555
C18 C17 1_555 1_555
H8 C18 1_555 1_555
C19 C18 1_555 1_555
C20 C1 1_555 1_555
C21 C20 1_555 1_555
H9 C21 1_555 1_555
H10 C21 1_555 1_555
C22 C21 1_555 1_555
H11 C22 1_555 1_555
H12 C22 1_555 1_555
C23 C22 1_555 1_555
C24 C25 1_555 1_555
C25 H13 1_555 1_555
C26 C25 1_555 1_555
H14 C26 1_555 1_555
C27 C26 1_555 1_555
H15 C27 1_555 1_555
C28 C27 1_555 1_555
C29 C24 1_555 1_555
C30 C28 1_555 1_555
C31 C30 1_555 1_555
H16 C31 1_555 1_555
C32 C31 1_555 1_555
H17 C32 1_555 1_555
C33 C32 1_555 1_555
H18 C33 1_555 1_555
C34 C33 1_555 1_555
C35 C34 1_555 1_555
C36 C35 1_555 1_555
H19 C36 1_555 1_555
C37 C36 1_555 1_555
H20 C37 1_555 1_555
C38 C37 1_555 1_555
H21 C38 1_555 1_555
C39 C38 1_555 1_555
C40 C35 1_555 1_555
C41 C42 1_555 1_555
C42 H22 1_555 1_555
H23 C42 1_555 1_555
C43 C10 1_555 1_555
H24 C43 1_555 1_555
H25 C43 1_555 1_555
C44 C15 1_555 1_555
H26 C44 1_555 1_555
H27 C44 1_555 1_555
H28 C44 1_555 1_555
C45 C15 1_555 1_555
H29 C45 1_555 1_555
H30 C45 1_555 1_555
H31 C45 1_555 1_555
C46 C20 1_555 1_555
H32 C46 1_555 1_555
H33 C46 1_555 1_555
H34 C46 1_555 1_555
C47 C5 1_555 1_555
H35 C47 1_555 1_555
H36 C47 1_555 1_555
H37 C47 1_555 1_555
C48 C5 1_555 1_555
H38 C48 1_555 1_555
H39 C48 1_555 1_555
H40 C48 1_555 1_555
C49 C10 1_555 1_555
H41 C49 1_555 1_555
H42 C49 1_555 1_555
H43 C49 1_555 1_555
C50 H44 1_555 1_555
H45 C50 1_555 1_555
H46 C50 1_555 1_555
C51 H47 1_555 1_555
H48 C51 1_555 1_555
H49 C51 1_555 1_555
N1 C1 1_555 1_555
H50 N1 1_555 1_555
N2 C6 1_555 1_555
H51 N2 1_555 1_555
N3 C11 1_555 1_555
H52 N3 1_555 1_555
N4 C16 1_555 1_555
H53 N4 1_555 1_555
N5 C39 1_555 1_555
H54 N5 1_555 1_555
N6 C30 1_555 1_555
N7 C23 1_555 1_555
H55 N7 1_555 1_555
O1 C41 1_555 1_555
O2 C40 1_555 1_555
O3 C29 1_555 1_555
O4 C23 1_555 1_555
C52 H56 1_555 1_555
H57 C52 1_555 1_555
H58 C52 1_555 1_555
O5 C52 1_555 1_555
H59 O5 1_555 1_555
O6 H60 1_555 1_555
H61 O6 1_555 1_555
O7 H62 1_555 1_555
H63 O7 1_555 1_555
O8 H64 1_555 1_555
H65 O8 1_555 1_555
O9 H66 1_555 1_555
H67 O9 1_555 1_555
C4 N1 1_555 1_555
C9 N2 1_555 1_555
C14 N3 1_555 1_555
C19 C20 1_555 1_555
C19 N4 1_555 1_555
C24 N7 1_555 1_555
C28 C29 1_555 1_555
C34 N6 1_555 1_555
C39 C40 1_555 1_555
C41 N5 1_555 1_555
C42 C43 1_555 1_555
C50 O2 1_555 1_555
C51 O3 1_555 1_555

#END
