
#######################################################################
#
#                 Cambridge Crystallographic Data Centre
#                                CCDC 
#
#######################################################################
#
# If this CIF has been generated from an entry in the Cambridge 
# Structural Database, then it will include bibliographic, chemical, 
# crystal, experimental, refinement or atomic coordinate data resulting 
# from the CCDC's data processing and validation procedures.
#
#######################################################################

data_QIDJIZ
_chemical_formula_moiety         
'C51 H55 N7 O4,2(C2 H3 N1),3(H2 O1),K1 1+,Cl1 1-,C1 H4 O1'
_chemical_name_systematic        
'potassium chloride 48,50-dimethoxy-1,25,30,30,39,39-hexamethyl-5,21,44,45,46,47,49-heptaazanonacyclo[23.9.9.1^6,10^.1^11,15^.1^16,20^.1^26,29^.1^31,34^.1^35,38^.1^40,43^]pentaconta-6(50),7,9,11(49),12,14,16(48),17,19,26,28,31,33,35,37,40,42-heptadecaene-4,22-dione acetonitrile methanol solvate trihydrate'
_symmetry_cell_setting           triclinic
_symmetry_space_group_name_H-M   'P -1'
_symmetry_Int_Tables_number      2
_space_group_name_Hall           '-P 1'
loop_
_symmetry_equiv_pos_site_id
_symmetry_equiv_pos_as_xyz
1 x,y,z
2 -x,-y,-z
_cell_length_a                   15.4462(4)
_cell_length_b                   18.2070(5)
_cell_length_c                   38.9452(11)
_cell_angle_alpha                82.322(2)
_cell_angle_beta                 89.561(2)
_cell_angle_gamma                81.621(2)
_cell_volume                     10737.7
_cell_formula_units_Z            8
loop_
_atom_site_label
_atom_site_type_symbol
_atom_site_fract_x
_atom_site_fract_y
_atom_site_fract_z
K1 K 0.44790(13) -0.29849(11) 0.99083(5)
O1 O 0.8112(7) -0.5151(7) 1.0425(2)
O2 O 0.5746(4) -0.3083(3) 1.03979(17)
O3 O 0.4073(3) -0.1566(3) 1.01098(15)
O4 O 0.3656(4) -0.2044(3) 0.93799(16)
N1 N 0.5893(5) -0.1887(4) 0.8729(2)
H1 H 0.591254 -0.210064 0.893976
N2 N 0.7385(5) -0.3414(5) 0.8941(2)
H2 H 0.704073 -0.326447 0.909991
N3 N 0.8332(5) -0.2445(5) 0.9511(2)
H3 H 0.778610 -0.248065 0.953932
N4 N 0.6827(4) -0.0918(4) 0.92845(18)
H4 H 0.665225 -0.132896 0.937302
N5 N 0.3080(4) -0.0913(4) 0.95169(19)
H5 H 0.300983 -0.043548 0.945841
N6 N 0.3963(4) -0.2824(4) 1.06530(19)
N7 N 0.7056(6) -0.4142(5) 1.0305(2)
H6 H 0.688148 -0.376406 1.015208
C1 C 0.5730(5) -0.1128(5) 0.8618(2)
C2 C 0.5766(6) -0.1054(6) 0.8263(2)
H7 H 0.567458 -0.060176 0.811668
C3 C 0.5959(6) -0.1756(6) 0.8156(3)
H8 H 0.603149 -0.185571 0.792821
C4 C 0.6021(6) -0.2246(6) 0.8431(3)
C5 C 0.6226(7) -0.3119(7) 0.8470(3)
C6 C 0.7146(8) -0.3405(6) 0.8599(3)
C7 C 0.7876(8) -0.3681(7) 0.8437(3)
H9 H 0.791174 -0.374260 0.820403
C8 C 0.8577(8) -0.3860(7) 0.8680(3)
H10 H 0.915004 -0.405269 0.863284
C9 C 0.8278(7) -0.3707(6) 0.8989(3)
C10 C 0.8701(7) -0.3761(6) 0.9332(3)
C11 C 0.8949(6) -0.3011(6) 0.9415(3)
C12 C 0.9746(7) -0.2702(7) 0.9398(3)
H11 H 1.028997 -0.294699 0.934293
C13 C 0.9570(7) -0.1963(7) 0.9478(3)
H12 H 0.998067 -0.163686 0.947859
C14 C 0.8711(6) -0.1801(6) 0.9556(3)
C15 C 0.8190(6) -0.1100(6) 0.9666(2)
C16 C 0.7581(5) -0.0671(6) 0.9383(2)
C17 C 0.7623(6) 0.0002(5) 0.9180(2)
H13 H 0.805778 0.030275 0.918956
C18 C 0.6877(6) 0.0158(5) 0.8952(2)
H14 H 0.674605 0.057409 0.878443
C19 C 0.6395(5) -0.0412(5) 0.9024(2)
C20 C 0.5545(5) -0.0542(5) 0.8864(2)
C21 C 0.4924(5) -0.0802(4) 0.91562(19)
H15 H 0.481001 -0.041660 0.930713
H16 H 0.521843 -0.125148 0.929341
C22 C 0.4035(5) -0.0966(5) 0.9021(2)
H17 H 0.367714 -0.050088 0.892741
H18 H 0.413642 -0.128072 0.883848
C23 C 0.3577(5) -0.1353(5) 0.9315(2)
C24 C 0.2668(6) -0.1210(5) 0.9823(2)
C25 C 0.1777(6) -0.1184(6) 0.9834(3)
H19 H 0.144148 -0.094997 0.964196
C26 C 0.1370(6) -0.1488(7) 1.0115(3)
H20 H 0.076383 -0.145992 1.011598
C27 C 0.1871(6) -0.1847(6) 1.0405(2)
H21 H 0.159638 -0.206196 1.059874
C28 C 0.2779(5) -0.1881(5) 1.0404(2)
C29 C 0.3162(5) -0.1542(4) 1.0112(2)
C30 C 0.3292(5) -0.2295(5) 1.0714(2)
C31 C 0.3044(5) -0.2162(5) 1.1046(2)
H22 H 0.256924 -0.180135 1.107820
C32 C 0.3501(6) -0.2565(5) 1.1327(2)
H23 H 0.334362 -0.247866 1.155041
C33 C 0.4188(6) -0.3094(5) 1.1273(3)
H24 H 0.451324 -0.336644 1.145942
C34 C 0.4404(6) -0.3227(5) 1.0933(2)
C35 C 0.5136(6) -0.3828(5) 1.0868(2)
C36 C 0.5203(7) -0.4521(5) 1.1084(3)
H25 H 0.479556 -0.459772 1.125756
C37 C 0.5893(8) -0.5098(5) 1.1037(4)
H26 H 0.594578 -0.555245 1.118119
C38 C 0.6494(7) -0.4988(6) 1.0773(3)
H27 H 0.693111 -0.537871 1.073895
C39 C 0.6455(6) -0.4303(5) 1.0560(3)
C40 C 0.5761(6) -0.3739(5) 1.0614(2)
C41 C 0.7888(7) -0.4495(6) 1.0262(3)
C42 C 0.8439(7) -0.4091(6) 0.9979(3)
H28 H 0.843177 -0.357746 1.002123
H29 H 0.904080 -0.433649 0.999793
C43 C 0.8116(6) -0.4092(6) 0.9628(3)
H30 H 0.753393 -0.380594 0.960446
H31 H 0.806607 -0.460320 0.959581
C44 C 0.9589(7) -0.4319(7) 0.9328(3)
H32 H 0.946255 -0.481052 0.930499
H33 H 0.990642 -0.433495 0.954071
H34 H 0.993575 -0.414818 0.913638
C45 C 0.8818(7) -0.0566(7) 0.9762(3)
H35 H 0.908847 -0.035770 0.955592
H36 H 0.926037 -0.083993 0.992005
H37 H 0.849225 -0.016849 0.986916
C46 C 0.7639(6) -0.1322(7) 0.9989(2)
H38 H 0.736169 -0.087804 1.007568
H39 H 0.801451 -0.162271 1.016548
H40 H 0.719959 -0.160385 0.992527
C47 C 0.5117(6) 0.0171(5) 0.8659(2)
H41 H 0.498817 0.054828 0.881001
H42 H 0.458445 0.008757 0.855567
H43 H 0.550519 0.033579 0.848084
C48 C 0.6123(9) -0.3380(8) 0.8119(3)
H44 H 0.555351 -0.317495 0.802368
H45 H 0.618579 -0.391682 0.814669
H46 H 0.656326 -0.321184 0.796492
C49 C 0.5573(7) -0.3465(6) 0.8723(3)
H47 H 0.569767 -0.338135 0.895484
H48 H 0.562782 -0.399418 0.871342
H49 H 0.498683 -0.323598 0.865885
C50 C 0.4308(6) -0.0872(5) 1.0189(3)
H50 H 0.415608 -0.081204 1.042443
H51 H 0.399799 -0.046319 1.003578
H52 H 0.492637 -0.087658 1.016064
C51 C 0.5992(7) -0.2455(5) 1.0547(3)
H53 H 0.597556 -0.203124 1.037071
H54 H 0.657363 -0.258684 1.064305
H55 H 0.559047 -0.233075 1.072713
Cl1 Cl 0.62413(14) -0.26057(14) 0.95552(6)
O5 O 0.2860(11) -0.3594(11) 0.9887(6)
C52 C 0.2226(13) -0.3145(10) 0.9729(6)
K2 K -0.12919(12) 0.31257(12) 0.76280(5)
O6 O 0.1780(8) 0.4977(6) 0.7112(3)
O7 O -0.0119(4) 0.3091(4) 0.71119(17)
O8 O -0.1462(3) 0.1722(3) 0.74156(14)
O9 O -0.1772(4) 0.2105(3) 0.81597(14)
N8 N 0.2688(4) 0.2219(4) 0.79689(17)
H56 H 0.213235 0.228466 0.793212
N9 N 0.1633(4) 0.0732(4) 0.81757(16)
H57 H 0.133027 0.114972 0.808944
N10 N 0.0412(4) 0.1675(3) 0.87549(16)
H58 H 0.037024 0.188290 0.854285
N11 N 0.1465(4) 0.3140(4) 0.85419(19)
H59 H 0.106648 0.333306 0.838998
N12 N 0.0967(7) 0.4043(7) 0.7202(3)
H60 H 0.090827 0.364178 0.733812
N13 N -0.1906(4) 0.3025(3) 0.68880(17)
N14 N -0.2226(4) 0.1060(4) 0.80093(17)
H61 H -0.221193 0.058308 0.805507
C53 C 0.3150(5) 0.2751(5) 0.8079(2)
C54 C 0.4011(5) 0.2419(6) 0.8118(2)
H62 H 0.447351 0.263551 0.819256
C55 C 0.4065(5) 0.1690(5) 0.8025(2)
H63 H 0.457352 0.134472 0.802924
C56 C 0.3247(5) 0.1569(5) 0.7927(2)
C57 C 0.2941(5) 0.0918(5) 0.7801(2)
C58 C 0.2472(5) 0.0476(5) 0.8077(2)
C59 C 0.2709(6) -0.0216(5) 0.8275(2)
H64 H 0.323681 -0.052943 0.826346
C60 C 0.2012(5) -0.0362(4) 0.8498(2)
H65 H 0.200872 -0.078403 0.866162
C61 C 0.1344(5) 0.0221(4) 0.84345(19)
C62 C 0.0465(5) 0.0373(4) 0.86031(19)
C63 C 0.0487(5) 0.0922(4) 0.88612(18)
C64 C 0.0550(5) 0.0809(4) 0.9219(2)
H66 H 0.060544 0.035016 0.936068
C65 C 0.0512(6) 0.1534(5) 0.9330(2)
H67 H 0.054633 0.163412 0.955702
C66 C 0.0415(5) 0.2048(5) 0.9039(2)
C67 C 0.0351(6) 0.2892(5) 0.9005(2)
C68 C 0.1194(6) 0.3150(4) 0.8882(2)
C69 C 0.1811(6) 0.3440(5) 0.9053(2)
H68 H 0.180592 0.350214 0.928578
C70 C 0.2460(6) 0.3630(5) 0.8809(3)
H69 H 0.295160 0.384080 0.885594
C71 C 0.2239(6) 0.3449(5) 0.8493(3)
C72 C 0.2709(6) 0.3499(5) 0.8149(3)
C73 C 0.2044(6) 0.3870(6) 0.7857(3)
H70 H 0.154008 0.360597 0.787482
H71 H 0.184452 0.438176 0.789607
C74 C 0.2374(7) 0.3878(7) 0.7515(3)
H72 H 0.250533 0.336932 0.746008
H73 H 0.291000 0.409871 0.749779
C75 C 0.1679(9) 0.4341(8) 0.7255(3)
C76 C 0.0296(8) 0.4288(7) 0.6955(3)
C77 C 0.0182(8) 0.4972(6) 0.6749(3)
H74 H 0.055618 0.531866 0.677366
C78 C -0.0493(8) 0.5144(6) 0.6504(3)
H75 H -0.057027 0.561126 0.636936
C79 C -0.1054(6) 0.4637(4) 0.6454(2)
H76 H -0.149343 0.476184 0.628528
C80 C -0.0953(6) 0.3928(5) 0.6660(2)
C81 C -0.0257(6) 0.3760(5) 0.6905(2)
C82 C -0.1572(5) 0.3400(4) 0.66030(19)
C83 C -0.1842(6) 0.3333(4) 0.6272(2)
H77 H -0.160515 0.359559 0.608120
C84 C -0.2463(6) 0.2878(5) 0.6222(2)
H78 H -0.264764 0.282915 0.600004
C85 C -0.2800(6) 0.2494(5) 0.6515(2)
H79 H -0.321837 0.218295 0.649385
C86 C -0.2498(5) 0.2589(4) 0.6838(2)
C87 C -0.2882(5) 0.2195(4) 0.7156(2)
C88 C -0.3785(5) 0.2235(5) 0.7181(2)
H80 H -0.413778 0.249115 0.699779
C89 C -0.4170(5) 0.1899(5) 0.7472(2)
H81 H -0.477583 0.192659 0.748235
C90 C -0.3653(5) 0.1525(5) 0.7748(2)
H82 H -0.391270 0.131451 0.794624
C91 C -0.2758(5) 0.1462(4) 0.7730(2)
C92 C -0.2356(5) 0.1779(4) 0.7428(2)
C93 C -0.1744(5) 0.1414(5) 0.82048(19)
C94 C -0.1160(5) 0.0916(5) 0.8475(2)
H83 H -0.142242 0.047200 0.855480
H84 H -0.109643 0.117932 0.867149
C95 C -0.0256(5) 0.0685(4) 0.8323(2)
H85 H -0.008041 0.111652 0.818108
H86 H -0.030152 0.030590 0.817385
C96 C 0.0247(6) -0.0373(4) 0.8793(2)
H87 H 0.068472 -0.057034 0.896859
H88 H 0.023620 -0.072421 0.863085
H89 H -0.031514 -0.029012 0.889971
C97 C 0.0137(7) 0.3154(5) 0.9362(3)
H90 H -0.044290 0.306373 0.942793
H91 H 0.016830 0.367990 0.934798
H92 H 0.055105 0.288098 0.953232
C98 C -0.0417(6) 0.3246(5) 0.8750(2)
H93 H -0.028034 0.311460 0.852274
H94 H -0.049841 0.378094 0.874070
H95 H -0.094425 0.305924 0.882833
C99 C 0.3416(7) 0.4018(6) 0.8169(3)
H96 H 0.314269 0.449791 0.822145
H97 H 0.370737 0.408042 0.795066
H98 H 0.383575 0.379723 0.834766
C100 C 0.3757(6) 0.0380(6) 0.7693(3)
H99 H 0.414041 0.021473 0.788974
H100 H 0.406277 0.064300 0.751180
H101 H 0.356567 -0.004536 0.761187
C101 C 0.2343(6) 0.1166(6) 0.7483(2)
H102 H 0.215257 0.073582 0.740675
H103 H 0.265784 0.141705 0.730112
H104 H 0.184338 0.150253 0.754291
C102 C 0.0316(7) 0.2504(7) 0.6950(3)
H105 H 0.057678 0.210960 0.712281
H106 H 0.076480 0.268416 0.680385
H107 H -0.009343 0.231677 0.681255
C103 C -0.1059(6) 0.1034(6) 0.7302(3)
H108 H -0.044325 0.104546 0.727191
H109 H -0.131828 0.097884 0.708504
H110 H -0.114678 0.062006 0.747172
Cl2 Cl 0.05634(12) 0.24417(11) 0.79243(5)
K3 K 0.13259(12) 0.71723(12) 0.73448(5)
O10 O 0.2615(10) 0.6139(7) 0.7245(4)
H111 H 0.311493 0.616129 0.737209
H112 H 0.279172 0.616228 0.701459
O11 O 0.1721(4) 0.8162(4) 0.68285(15)
O12 O 0.1398(3) 0.8510(3) 0.75814(15)
O13 O 0.0174(4) 0.6952(4) 0.78448(15)
O14 O -0.0914(6) 0.4627(4) 0.7680(2)
N15 N -0.1685(4) 0.9508(4) 0.68059(16)
H113 H -0.138678 0.908924 0.689294
N16 N -0.2726(4) 0.7999(4) 0.70704(17)
H114 H -0.217633 0.793096 0.712044
N17 N -0.1469(4) 0.6999(4) 0.6533(2)
H115 H -0.120176 0.718183 0.668785
N18 N -0.0458(4) 0.8508(4) 0.62655(16)
H116 H -0.040961 0.832912 0.648150
N19 N 0.2145(4) 0.9208(4) 0.69883(17)
H117 H 0.211066 0.968731 0.694647
N20 N 0.1890(4) 0.7161(3) 0.80940(17)
N21 N -0.0623(5) 0.5801(4) 0.7716(2)
H118 H -0.074628 0.626026 0.762324
C104 C -0.1400(5) 1.0002(5) 0.65497(19)
C105 C -0.2076(5) 1.0596(5) 0.6482(2)
H119 H -0.207370 1.101350 0.631570
C106 C -0.2766(5) 1.0454(5) 0.6709(2)
H120 H -0.329454 1.076664 0.672156
C107 C -0.2523(5) 0.9778(5) 0.6906(2)
C108 C -0.3004(5) 0.9350(5) 0.7193(2)
C109 C -0.3289(5) 0.8672(5) 0.7083(2)
C110 C -0.4104(5) 0.8538(5) 0.6980(2)
H121 H -0.461510 0.888144 0.696141
C111 C -0.4025(5) 0.7799(5) 0.6909(2)
H122 H -0.447549 0.757022 0.683357
C112 C -0.3168(5) 0.7465(5) 0.6968(2)
C113 C -0.2728(5) 0.6687(5) 0.6931(3)
C114 C -0.2237(5) 0.6693(5) 0.6586(2)
C115 C -0.2446(6) 0.6478(5) 0.6284(3)
H123 H -0.293188 0.625308 0.624258
C116 C -0.1804(6) 0.6654(5) 0.6040(3)
H124 H -0.179287 0.656998 0.580946
C117 C -0.1201(6) 0.6970(5) 0.6204(3)
C118 C -0.0357(6) 0.7244(5) 0.6058(3)
C119 C -0.0466(5) 0.8079(5) 0.5998(2)
C120 C -0.0570(6) 0.8576(5) 0.5696(2)
H125 H -0.060442 0.845177 0.547303
C121 C -0.0613(5) 0.9304(4) 0.5785(2)
H126 H -0.068108 0.974434 0.562996
C122 C -0.0538(5) 0.9259(4) 0.61392(18)
C123 C -0.0511(5) 0.9839(5) 0.6381(2)
C124 C 0.0197(5) 0.9565(5) 0.6661(2)
H127 H 0.003319 0.913390 0.680741
H128 H 0.022359 0.995682 0.680477
C125 C 0.1108(5) 0.9347(5) 0.6512(2)
H129 H 0.105778 0.908437 0.631378
H130 H 0.136614 0.979512 0.643491
C126 C 0.1689(5) 0.8848(5) 0.6788(2)
C127 C 0.2688(5) 0.8808(5) 0.7270(2)
C128 C 0.3583(6) 0.8748(5) 0.7248(2)
H131 H 0.383814 0.896831 0.705033
C129 C 0.4108(5) 0.8358(6) 0.7520(2)
H132 H 0.471378 0.832891 0.750888
C130 C 0.3729(6) 0.8014(5) 0.7808(3)
H133 H 0.408607 0.775922 0.798986
C131 C 0.2827(5) 0.8037(5) 0.7834(2)
C132 C 0.2296(5) 0.8463(5) 0.7563(2)
C133 C 0.2448(5) 0.7636(4) 0.8141(2)
C134 C 0.2737(6) 0.7727(5) 0.8474(2)
H134 H 0.314008 0.805072 0.849713
C135 C 0.2424(6) 0.7339(5) 0.8761(2)
H135 H 0.260574 0.739546 0.898188
C136 C 0.1823(6) 0.6856(5) 0.8715(2)
H136 H 0.158344 0.659524 0.890493
C137 C 0.1587(5) 0.6770(4) 0.8380(2)
C138 C 0.1032(5) 0.6195(5) 0.8320(2)
C139 C 0.1157(6) 0.5498(4) 0.8538(2)
H137 H 0.156073 0.542439 0.871945
C140 C 0.0708(7) 0.4940(6) 0.8488(2)
H138 H 0.078502 0.450102 0.864412
C141 C 0.0134(8) 0.5004(6) 0.8212(2)
H139 H -0.014841 0.460252 0.817510
C142 C -0.0015(6) 0.5663(6) 0.7992(2)
C143 C 0.0394(6) 0.6286(5) 0.8061(2)
C144 C -0.1047(7) 0.5292(5) 0.7574(3)
C145 C -0.1671(8) 0.5605(5) 0.7273(3)
H140 H -0.134914 0.555024 0.706053
H141 H -0.212622 0.528871 0.727867
C146 C -0.2103(6) 0.6387(5) 0.7247(3)
H142 H -0.165095 0.670617 0.724295
H143 H -0.243587 0.644293 0.745655
C147 C -0.3434(6) 0.6158(6) 0.6924(3)
H144 H -0.372628 0.611824 0.714269
H145 H -0.315772 0.567101 0.688272
H146 H -0.385262 0.636002 0.674247
C148 C -0.0124(8) 0.6945(6) 0.5712(3)
H147 H -0.056884 0.715833 0.554199
H148 H -0.008909 0.640905 0.574419
H149 H 0.042929 0.708023 0.563439
C149 C 0.0415(6) 0.6943(5) 0.6313(3)
H150 H 0.094556 0.708876 0.621378
H151 H 0.047355 0.640651 0.635679
H152 H 0.030621 0.714718 0.652673
C150 C -0.0316(5) 1.0577(4) 0.6163(2)
H153 H 0.023703 1.048519 0.605012
H154 H -0.029555 1.095302 0.631201
H155 H -0.076948 1.074734 0.599105
C151 C -0.2404(6) 0.9130(6) 0.7514(2)
H156 H -0.191761 0.876914 0.746474
H157 H -0.272733 0.891649 0.770426
H158 H -0.219267 0.956689 0.757480
C152 C -0.3827(6) 0.9877(5) 0.7288(2)
H159 H -0.365734 1.033452 0.734315
H160 H -0.410393 0.963617 0.748425
H161 H -0.422799 0.998612 0.709446
C153 C -0.0280(6) 0.7532(6) 0.8011(3)
H162 H 0.011656 0.770398 0.816068
H163 H -0.074566 0.734891 0.814538
H164 H -0.051808 0.793995 0.784004
C154 C 0.0975(6) 0.9203(5) 0.7693(3)
H165 H 0.108374 0.961926 0.752853
H166 H 0.120533 0.925236 0.791605
H167 H 0.035595 0.919381 0.770980
Cl3 Cl -0.05861(12) 0.78265(12) 0.70994(5)
K4 K 0.44388(13) 0.69734(10) 0.50063(5)
O15 O 0.8049(8) 0.4827(7) 0.5568(4)
O16 O 0.5714(4) 0.6921(3) 0.54874(16)
O17 O 0.4050(3) 0.8433(3) 0.51578(15)
O18 O 0.3637(4) 0.7840(4) 0.44442(17)
N22 N 0.5879(5) 0.7914(4) 0.3821(2)
H168 H 0.588249 0.775937 0.403983
N23 N 0.7382(6) 0.6444(5) 0.4097(3)
H169 H 0.703693 0.664493 0.424391
N24 N 0.8317(5) 0.7499(5) 0.4607(2)
H170 H 0.777317 0.746014 0.463988
N25 N 0.6813(4) 0.8983(5) 0.43209(19)
H171 H 0.664482 0.857741 0.442042
N26 N 0.6994(6) 0.5828(5) 0.5428(2)
H172 H 0.681375 0.618289 0.526462
N27 N 0.3937(4) 0.7236(3) 0.57414(18)
N28 N 0.3080(5) 0.9000(4) 0.4557(2)
H173 H 0.302060 0.947371 0.448737
C155 C 0.5734(5) 0.8661(4) 0.3675(2)
C156 C 0.5798(6) 0.8657(6) 0.3317(2)
H174 H 0.573112 0.907384 0.314848
C157 C 0.5979(6) 0.7913(6) 0.3262(3)
H175 H 0.606083 0.775347 0.304524
C158 C 0.6019(6) 0.7455(6) 0.3564(3)
C159 C 0.6211(9) 0.6612(6) 0.3649(4)
C160 C 0.7134(7) 0.6369(6) 0.3771(4)
C161 C 0.7858(9) 0.6050(8) 0.3609(5)
H176 H 0.789000 0.594152 0.338203
C162 C 0.8574(9) 0.5916(8) 0.3868(6)
H177 H 0.914587 0.570008 0.383327
C163 C 0.8261(7) 0.6159(6) 0.4167(5)
C164 C 0.8742(7) 0.6145(7) 0.4496(4)
C165 C 0.8936(6) 0.6940(8) 0.4534(3)
C166 C 0.9717(7) 0.7200(8) 0.4491(3)
H178 H 1.024724 0.693298 0.443500
C167 C 0.9558(7) 0.7977(9) 0.4550(3)
H179 H 0.997523 0.829877 0.454191
C168 C 0.8690(6) 0.8155(7) 0.4620(2)
C169 C 0.8166(7) 0.8865(7) 0.4707(2)
C170 C 0.7554(6) 0.9259(6) 0.4409(2)
C171 C 0.7584(6) 0.9907(6) 0.4187(2)
H180 H 0.801281 1.021625 0.418723
C172 C 0.6858(6) 1.0026(5) 0.3958(2)
H181 H 0.673069 1.041961 0.377891
C173 C 0.6377(5) 0.9458(5) 0.4047(2)
C174 C 0.5538(5) 0.9288(5) 0.3896(2)
C175 C 0.4903(5) 0.9087(5) 0.4194(2)
H182 H 0.519378 0.866911 0.435186
H183 H 0.476985 0.951128 0.432173
C176 C 0.4039(5) 0.8881(5) 0.4067(2)
H184 H 0.367425 0.932769 0.395662
H185 H 0.416122 0.853561 0.389716
C177 C 0.3570(5) 0.8527(5) 0.4365(2)
C178 C 0.2661(5) 0.8749(5) 0.4868(2)
C179 C 0.1759(6) 0.8750(6) 0.4869(3)
H186 H 0.143106 0.893307 0.466808
C180 C 0.1344(6) 0.8478(7) 0.5168(3)
H187 H 0.074056 0.848694 0.516882
C181 C 0.1844(6) 0.8189(5) 0.5468(3)
H188 H 0.156553 0.802465 0.567090
C182 C 0.2755(6) 0.8146(5) 0.5467(2)
C183 C 0.3157(5) 0.8449(4) 0.5165(2)
C184 C 0.3268(5) 0.7777(4) 0.5784(2)
C185 C 0.3000(6) 0.7962(5) 0.6107(2)
H189 H 0.253207 0.833710 0.612691
C186 C 0.3446(6) 0.7575(5) 0.6401(2)
H190 H 0.327634 0.768172 0.662049
C187 C 0.4145(6) 0.7031(5) 0.6360(2)
H191 H 0.446601 0.678062 0.655308
C188 C 0.4371(5) 0.6855(5) 0.6030(2)
C189 C 0.5088(6) 0.6240(5) 0.5987(2)
C190 C 0.5159(6) 0.5587(5) 0.6222(3)
H192 H 0.476242 0.554528 0.640181
C191 C 0.5826(7) 0.4992(5) 0.6189(3)
H193 H 0.586622 0.455723 0.634681
C192 C 0.6427(7) 0.5043(5) 0.5923(3)
H194 H 0.685706 0.463983 0.589966
C193 C 0.6384(6) 0.5700(5) 0.5692(2)
C194 C 0.5716(6) 0.6300(5) 0.5727(2)
C195 C 0.7830(10) 0.5475(7) 0.5391(4)
C196 C 0.8419(8) 0.5856(8) 0.5120(4)
H195 H 0.841420 0.637263 0.515716
H196 H 0.901593 0.560215 0.514929
C197 C 0.8128(8) 0.5835(7) 0.4782(4)
H197 H 0.754912 0.612566 0.474863
H198 H 0.807724 0.532132 0.475433
C198 C 0.9582(8) 0.5586(8) 0.4491(4)
H199 H 0.993084 0.574384 0.429788
H200 H 0.943611 0.509907 0.447073
H201 H 0.990724 0.556451 0.470262
C199 C 0.8792(7) 0.9415(9) 0.4774(3)
H202 H 0.905847 0.958754 0.456078
H203 H 0.923787 0.916696 0.493729
H204 H 0.847010 0.983530 0.486683
C200 C 0.7600(7) 0.8700(9) 0.5030(3)
H205 H 0.727965 0.916023 0.508639
H206 H 0.797246 0.846643 0.522248
H207 H 0.719720 0.837007 0.498287
C201 C 0.5126(5) 1.0007(5) 0.3662(2)
H208 H 0.457730 0.992891 0.356896
H209 H 0.551413 1.012198 0.347481
H210 H 0.502974 1.041695 0.379567
C202 C 0.6044(10) 0.6276(8) 0.3312(5)
H211 H 0.544297 0.642329 0.324071
H212 H 0.616883 0.573986 0.335547
H213 H 0.641661 0.645936 0.313177
C203 C 0.5531(8) 0.6360(6) 0.3923(5)
H214 H 0.559749 0.658233 0.412995
H215 H 0.562996 0.582397 0.397788
H216 H 0.494982 0.651826 0.383105
C204 C 0.5962(6) 0.7568(5) 0.5618(3)
H217 H 0.592338 0.797961 0.543475
H218 H 0.655260 0.745160 0.570611
H219 H 0.557601 0.770209 0.580149
C205 C 0.4310(6) 0.9132(5) 0.5219(3)
H220 H 0.493755 0.908580 0.522177
H221 H 0.409031 0.925647 0.543870
H222 H 0.407743 0.952033 0.503853
Cl4 Cl 0.62193(14) 0.73424(15) 0.46699(7)
O19 O 0.2767(15) 0.6509(14) 0.4900(7)
N29 N 0.3497(7) 0.0698(5) 0.9354(2)
C206 C 0.3142(7) 0.1061(5) 0.9115(3)
C207 C 0.2703(7) 0.1483(7) 0.8827(3)
H223 H 0.311272 0.157404 0.864567
H224 H 0.242277 0.195238 0.888954
H225 H 0.226921 0.121415 0.874835
N30 N 0.3522(8) 1.0605(6) 0.4341(3)
C208 C 0.2727(7) 1.1374(6) 0.3800(3)
H226 H 0.314686 1.148027 0.362388
H227 H 0.242096 1.183604 0.386046
H228 H 0.231621 1.109260 0.371359
C209 C 0.3161(7) 1.0955(5) 0.4095(3)
N31 N -0.1505(10) 0.9345(6) 0.8208(3)
C210 C -0.1683(8) 0.8875(6) 0.8416(3)
C211 C -0.1847(7) 0.8241(6) 0.8663(3)
H229 H -0.202505 0.786245 0.854016
H230 H -0.230229 0.840062 0.881687
H231 H -0.132218 0.803866 0.879351
N32 N 0.1599(9) 1.0884(6) 0.6741(3)
C212 C 0.1734(8) 1.1352(6) 0.6528(3)
C213 C 0.1875(6) 1.1942(6) 0.6266(3)
H232 H 0.234484 1.176870 0.612089
H233 H 0.202380 1.235484 0.637191
H234 H 0.135124 1.210208 0.612888
H235? H 0.194696 0.697198 0.484845
H236? H 0.257865 0.578737 0.487419
H237? H 0.764870 0.457823 0.556060
loop_
_geom_bond_atom_site_label_1
_geom_bond_atom_site_label_2
_geom_bond_site_symmetry_1
_geom_bond_site_symmetry_2
O1 C41 1_555 1_555
O2 C40 1_555 1_555
O3 C29 1_555 1_555
O4 C23 1_555 1_555
N1 H1 1_555 1_555
N2 H2 1_555 1_555
N3 H3 1_555 1_555
N4 H4 1_555 1_555
N5 H5 1_555 1_555
N6 C30 1_555 1_555
N7 H6 1_555 1_555
C1 N1 1_555 1_555
C2 C1 1_555 1_555
H7 C2 1_555 1_555
C3 C2 1_555 1_555
H8 C3 1_555 1_555
C4 N1 1_555 1_555
C5 C4 1_555 1_555
C6 N2 1_555 1_555
C7 C6 1_555 1_555
H9 C7 1_555 1_555
C8 C7 1_555 1_555
H10 C8 1_555 1_555
C9 N2 1_555 1_555
C10 C9 1_555 1_555
C11 N3 1_555 1_555
C12 C11 1_555 1_555
H11 C12 1_555 1_555
C13 C12 1_555 1_555
H12 C13 1_555 1_555
C14 N3 1_555 1_555
C15 C14 1_555 1_555
C16 N4 1_555 1_555
C17 C16 1_555 1_555
H13 C17 1_555 1_555
C18 C17 1_555 1_555
H14 C18 1_555 1_555
C19 N4 1_555 1_555
C20 C1 1_555 1_555
C21 C20 1_555 1_555
H15 C21 1_555 1_555
H16 C21 1_555 1_555
C22 C21 1_555 1_555
H17 C22 1_555 1_555
H18 C22 1_555 1_555
C23 N5 1_555 1_555
C24 N5 1_555 1_555
C25 C24 1_555 1_555
H19 C25 1_555 1_555
C26 C25 1_555 1_555
H20 C26 1_555 1_555
C27 C26 1_555 1_555
H21 C27 1_555 1_555
C28 C27 1_555 1_555
C29 C24 1_555 1_555
C30 C28 1_555 1_555
C31 C30 1_555 1_555
H22 C31 1_555 1_555
C32 C31 1_555 1_555
H23 C32 1_555 1_555
C33 C32 1_555 1_555
H24 C33 1_555 1_555
C34 N6 1_555 1_555
C35 C34 1_555 1_555
C36 C35 1_555 1_555
H25 C36 1_555 1_555
C37 C36 1_555 1_555
H26 C37 1_555 1_555
C38 C37 1_555 1_555
H27 C38 1_555 1_555
C39 N7 1_555 1_555
C40 C35 1_555 1_555
C41 N7 1_555 1_555
C42 C41 1_555 1_555
H28 C42 1_555 1_555
H29 C42 1_555 1_555
C43 C10 1_555 1_555
H30 C43 1_555 1_555
H31 C43 1_555 1_555
C44 C10 1_555 1_555
H32 C44 1_555 1_555
H33 C44 1_555 1_555
H34 C44 1_555 1_555
C45 C15 1_555 1_555
H35 C45 1_555 1_555
H36 C45 1_555 1_555
H37 C45 1_555 1_555
C46 C15 1_555 1_555
H38 C46 1_555 1_555
H39 C46 1_555 1_555
H40 C46 1_555 1_555
C47 C20 1_555 1_555
H41 C47 1_555 1_555
H42 C47 1_555 1_555
H43 C47 1_555 1_555
C48 C5 1_555 1_555
H44 C48 1_555 1_555
H45 C48 1_555 1_555
H46 C48 1_555 1_555
C49 C5 1_555 1_555
H47 C49 1_555 1_555
H48 C49 1_555 1_555
H49 C49 1_555 1_555
C50 O3 1_555 1_555
H50 C50 1_555 1_555
H51 C50 1_555 1_555
H52 C50 1_555 1_555
C51 O2 1_555 1_555
H53 C51 1_555 1_555
H54 C51 1_555 1_555
H55 C51 1_555 1_555
O5 C52 1_555 1_555
O6 C75 1_555 1_555
O7 C81 1_555 1_555
O8 C92 1_555 1_555
O9 C93 1_555 1_555
N8 H56 1_555 1_555
N9 H57 1_555 1_555
N10 H58 1_555 1_555
N11 H59 1_555 1_555
N12 H60 1_555 1_555
N13 C82 1_555 1_555
N14 H61 1_555 1_555
C53 N8 1_555 1_555
C54 C53 1_555 1_555
H62 C54 1_555 1_555
C55 C54 1_555 1_555
H63 C55 1_555 1_555
C56 N8 1_555 1_555
C57 C56 1_555 1_555
C58 N9 1_555 1_555
C59 C58 1_555 1_555
H64 C59 1_555 1_555
C60 C59 1_555 1_555
H65 C60 1_555 1_555
C61 N9 1_555 1_555
C62 C61 1_555 1_555
C63 N10 1_555 1_555
C64 C63 1_555 1_555
H66 C64 1_555 1_555
C65 C64 1_555 1_555
H67 C65 1_555 1_555
C66 N10 1_555 1_555
C67 C66 1_555 1_555
C68 N11 1_555 1_555
C69 C68 1_555 1_555
H68 C69 1_555 1_555
C70 C69 1_555 1_555
H69 C70 1_555 1_555
C71 N11 1_555 1_555
C72 C53 1_555 1_555
C73 C72 1_555 1_555
H70 C73 1_555 1_555
H71 C73 1_555 1_555
C74 C73 1_555 1_555
H72 C74 1_555 1_555
H73 C74 1_555 1_555
C75 N12 1_555 1_555
C76 N12 1_555 1_555
C77 C76 1_555 1_555
H74 C77 1_555 1_555
C78 C77 1_555 1_555
H75 C78 1_555 1_555
C79 C78 1_555 1_555
H76 C79 1_555 1_555
C80 C79 1_555 1_555
C81 C76 1_555 1_555
C82 C80 1_555 1_555
C83 C82 1_555 1_555
H77 C83 1_555 1_555
C84 C83 1_555 1_555
H78 C84 1_555 1_555
C85 C84 1_555 1_555
H79 C85 1_555 1_555
C86 N13 1_555 1_555
C87 C86 1_555 1_555
C88 C87 1_555 1_555
H80 C88 1_555 1_555
C89 C88 1_555 1_555
H81 C89 1_555 1_555
C90 C89 1_555 1_555
H82 C90 1_555 1_555
C91 N14 1_555 1_555
C92 C87 1_555 1_555
C93 N14 1_555 1_555
C94 C93 1_555 1_555
H83 C94 1_555 1_555
H84 C94 1_555 1_555
C95 C62 1_555 1_555
H85 C95 1_555 1_555
H86 C95 1_555 1_555
C96 C62 1_555 1_555
H87 C96 1_555 1_555
H88 C96 1_555 1_555
H89 C96 1_555 1_555
C97 C67 1_555 1_555
H90 C97 1_555 1_555
H91 C97 1_555 1_555
H92 C97 1_555 1_555
C98 C67 1_555 1_555
H93 C98 1_555 1_555
H94 C98 1_555 1_555
H95 C98 1_555 1_555
C99 C72 1_555 1_555
H96 C99 1_555 1_555
H97 C99 1_555 1_555
H98 C99 1_555 1_555
C100 C57 1_555 1_555
H99 C100 1_555 1_555
H100 C100 1_555 1_555
H101 C100 1_555 1_555
C101 C57 1_555 1_555
H102 C101 1_555 1_555
H103 C101 1_555 1_555
H104 C101 1_555 1_555
C102 O7 1_555 1_555
H105 C102 1_555 1_555
H106 C102 1_555 1_555
H107 C102 1_555 1_555
C103 O8 1_555 1_555
H108 C103 1_555 1_555
H109 C103 1_555 1_555
H110 C103 1_555 1_555
O10 H111 1_555 1_555
H112 O10 1_555 1_555
O11 C126 1_555 1_555
O12 C132 1_555 1_555
O13 C143 1_555 1_555
O14 C144 1_555 1_555
N15 H113 1_555 1_555
N16 H114 1_555 1_555
N17 H115 1_555 1_555
N18 H116 1_555 1_555
N19 H117 1_555 1_555
N20 C133 1_555 1_555
N21 H118 1_555 1_555
C104 N15 1_555 1_555
C105 C104 1_555 1_555
H119 C105 1_555 1_555
C106 C105 1_555 1_555
H120 C106 1_555 1_555
C107 N15 1_555 1_555
C108 C107 1_555 1_555
C109 N16 1_555 1_555
C110 C109 1_555 1_555
H121 C110 1_555 1_555
C111 C110 1_555 1_555
H122 C111 1_555 1_555
C112 N16 1_555 1_555
C113 C112 1_555 1_555
C114 N17 1_555 1_555
C115 C114 1_555 1_555
H123 C115 1_555 1_555
C116 C115 1_555 1_555
H124 C116 1_555 1_555
C117 N17 1_555 1_555
C118 C117 1_555 1_555
C119 N18 1_555 1_555
C120 C119 1_555 1_555
H125 C120 1_555 1_555
C121 C120 1_555 1_555
H126 C121 1_555 1_555
C122 N18 1_555 1_555
C123 C104 1_555 1_555
C124 C123 1_555 1_555
H127 C124 1_555 1_555
H128 C124 1_555 1_555
C125 C124 1_555 1_555
H129 C125 1_555 1_555
H130 C125 1_555 1_555
C126 N19 1_555 1_555
C127 N19 1_555 1_555
C128 C127 1_555 1_555
H131 C128 1_555 1_555
C129 C128 1_555 1_555
H132 C129 1_555 1_555
C130 C129 1_555 1_555
H133 C130 1_555 1_555
C131 C130 1_555 1_555
C132 C127 1_555 1_555
C133 C131 1_555 1_555
C134 C133 1_555 1_555
H134 C134 1_555 1_555
C135 C134 1_555 1_555
H135 C135 1_555 1_555
C136 C135 1_555 1_555
H136 C136 1_555 1_555
C137 N20 1_555 1_555
C138 C137 1_555 1_555
C139 C138 1_555 1_555
H137 C139 1_555 1_555
C140 C139 1_555 1_555
H138 C140 1_555 1_555
C141 C140 1_555 1_555
H139 C141 1_555 1_555
C142 N21 1_555 1_555
C143 C138 1_555 1_555
C144 N21 1_555 1_555
C145 C144 1_555 1_555
H140 C145 1_555 1_555
H141 C145 1_555 1_555
C146 C113 1_555 1_555
H142 C146 1_555 1_555
H143 C146 1_555 1_555
C147 C113 1_555 1_555
H144 C147 1_555 1_555
H145 C147 1_555 1_555
H146 C147 1_555 1_555
C148 C118 1_555 1_555
H147 C148 1_555 1_555
H148 C148 1_555 1_555
H149 C148 1_555 1_555
C149 C118 1_555 1_555
H150 C149 1_555 1_555
H151 C149 1_555 1_555
H152 C149 1_555 1_555
C150 C123 1_555 1_555
H153 C150 1_555 1_555
H154 C150 1_555 1_555
H155 C150 1_555 1_555
C151 C108 1_555 1_555
H156 C151 1_555 1_555
H157 C151 1_555 1_555
H158 C151 1_555 1_555
C152 C108 1_555 1_555
H159 C152 1_555 1_555
H160 C152 1_555 1_555
H161 C152 1_555 1_555
C153 O13 1_555 1_555
H162 C153 1_555 1_555
H163 C153 1_555 1_555
H164 C153 1_555 1_555
C154 O12 1_555 1_555
H165 C154 1_555 1_555
H166 C154 1_555 1_555
H167 C154 1_555 1_555
O15 C195 1_555 1_555
O16 C194 1_555 1_555
O17 C183 1_555 1_555
O18 C177 1_555 1_555
N22 H168 1_555 1_555
N23 H169 1_555 1_555
N24 H170 1_555 1_555
N25 H171 1_555 1_555
N26 H172 1_555 1_555
N27 C184 1_555 1_555
N28 H173 1_555 1_555
C155 N22 1_555 1_555
C156 C155 1_555 1_555
H174 C156 1_555 1_555
C157 C156 1_555 1_555
H175 C157 1_555 1_555
C158 N22 1_555 1_555
C159 C158 1_555 1_555
C160 N23 1_555 1_555
C161 C160 1_555 1_555
H176 C161 1_555 1_555
C162 C161 1_555 1_555
H177 C162 1_555 1_555
C163 N23 1_555 1_555
C164 C163 1_555 1_555
C165 N24 1_555 1_555
C166 C165 1_555 1_555
H178 C166 1_555 1_555
C167 C166 1_555 1_555
H179 C167 1_555 1_555
C168 N24 1_555 1_555
C169 C168 1_555 1_555
C170 N25 1_555 1_555
C171 C170 1_555 1_555
H180 C171 1_555 1_555
C172 C171 1_555 1_555
H181 C172 1_555 1_555
C173 N25 1_555 1_555
C174 C155 1_555 1_555
C175 C174 1_555 1_555
H182 C175 1_555 1_555
H183 C175 1_555 1_555
C176 C175 1_555 1_555
H184 C176 1_555 1_555
H185 C176 1_555 1_555
C177 N28 1_555 1_555
C178 N28 1_555 1_555
C179 C178 1_555 1_555
H186 C179 1_555 1_555
C180 C179 1_555 1_555
H187 C180 1_555 1_555
C181 C180 1_555 1_555
H188 C181 1_555 1_555
C182 C181 1_555 1_555
C183 C178 1_555 1_555
C184 C182 1_555 1_555
C185 C184 1_555 1_555
H189 C185 1_555 1_555
C186 C185 1_555 1_555
H190 C186 1_555 1_555
C187 C186 1_555 1_555
H191 C187 1_555 1_555
C188 N27 1_555 1_555
C189 C188 1_555 1_555
C190 C189 1_555 1_555
H192 C190 1_555 1_555
C191 C190 1_555 1_555
H193 C191 1_555 1_555
C192 C191 1_555 1_555
H194 C192 1_555 1_555
C193 N26 1_555 1_555
C194 C189 1_555 1_555
C195 N26 1_555 1_555
C196 C195 1_555 1_555
H195 C196 1_555 1_555
H196 C196 1_555 1_555
C197 C164 1_555 1_555
H197 C197 1_555 1_555
H198 C197 1_555 1_555
C198 C164 1_555 1_555
H199 C198 1_555 1_555
H200 C198 1_555 1_555
H201 C198 1_555 1_555
C199 C169 1_555 1_555
H202 C199 1_555 1_555
H203 C199 1_555 1_555
H204 C199 1_555 1_555
C200 C169 1_555 1_555
H205 C200 1_555 1_555
H206 C200 1_555 1_555
H207 C200 1_555 1_555
C201 C174 1_555 1_555
H208 C201 1_555 1_555
H209 C201 1_555 1_555
H210 C201 1_555 1_555
C202 C159 1_555 1_555
H211 C202 1_555 1_555
H212 C202 1_555 1_555
H213 C202 1_555 1_555
C203 C159 1_555 1_555
H214 C203 1_555 1_555
H215 C203 1_555 1_555
H216 C203 1_555 1_555
C204 O16 1_555 1_555
H217 C204 1_555 1_555
H218 C204 1_555 1_555
H219 C204 1_555 1_555
C205 O17 1_555 1_555
H220 C205 1_555 1_555
H221 C205 1_555 1_555
H222 C205 1_555 1_555
N29 C206 1_555 1_555
C206 C207 1_555 1_555
C207 H223 1_555 1_555
H224 C207 1_555 1_555
H225 C207 1_555 1_555
N30 C209 1_555 1_555
C208 H226 1_555 1_555
H227 C208 1_555 1_555
H228 C208 1_555 1_555
C209 C208 1_555 1_555
N31 C210 1_555 1_555
C210 C211 1_555 1_555
C211 H229 1_555 1_555
H230 C211 1_555 1_555
H231 C211 1_555 1_555
N32 C212 1_555 1_555
C212 C213 1_555 1_555
C213 H232 1_555 1_555
H233 C213 1_555 1_555
H234 C213 1_555 1_555
C3 C4 1_555 1_555
C5 C6 1_555 1_555
C8 C9 1_555 1_555
C10 C11 1_555 1_555
C13 C14 1_555 1_555
C15 C16 1_555 1_555
C18 C19 1_555 1_555
C19 C20 1_555 1_555
C22 C23 1_555 1_555
C28 C29 1_555 1_555
C33 C34 1_555 1_555
C38 C39 1_555 1_555
C39 C40 1_555 1_555
C42 C43 1_555 1_555
C55 C56 1_555 1_555
C57 C58 1_555 1_555
C60 C61 1_555 1_555
C62 C63 1_555 1_555
C65 C66 1_555 1_555
C67 C68 1_555 1_555
C70 C71 1_555 1_555
C71 C72 1_555 1_555
C74 C75 1_555 1_555
C80 C81 1_555 1_555
C85 C86 1_555 1_555
C90 C91 1_555 1_555
C91 C92 1_555 1_555
C94 C95 1_555 1_555
C106 C107 1_555 1_555
C108 C109 1_555 1_555
C111 C112 1_555 1_555
C113 C114 1_555 1_555
C116 C117 1_555 1_555
C118 C119 1_555 1_555
C121 C122 1_555 1_555
C122 C123 1_555 1_555
C125 C126 1_555 1_555
C131 C132 1_555 1_555
C136 C137 1_555 1_555
C141 C142 1_555 1_555
C142 C143 1_555 1_555
C145 C146 1_555 1_555
C157 C158 1_555 1_555
C159 C160 1_555 1_555
C162 C163 1_555 1_555
C164 C165 1_555 1_555
C167 C168 1_555 1_555
C169 C170 1_555 1_555
C172 C173 1_555 1_555
C173 C174 1_555 1_555
C176 C177 1_555 1_555
C182 C183 1_555 1_555
C187 C188 1_555 1_555
C192 C193 1_555 1_555
C193 C194 1_555 1_555
C196 C197 1_555 1_555

#END
