
#######################################################################
#
#                 Cambridge Crystallographic Data Centre
#                                CCDC 
#
#######################################################################
#
# If this CIF has been generated from an entry in the Cambridge 
# Structural Database, then it will include bibliographic, chemical, 
# crystal, experimental, refinement or atomic coordinate data resulting 
# from the CCDC's data processing and validation procedures.
#
#######################################################################

data_QIDJAP
_chemical_formula_moiety         'C25 H17 N5'
_chemical_name_systematic        
4'-(5-Phenyl-2-pyrimidinyl)-2,2':6',2''-terpyridine
_symmetry_cell_setting           monoclinic
_symmetry_space_group_name_H-M   'P 21/c'
_symmetry_Int_Tables_number      14
_space_group_name_Hall           '-P 2ybc'
loop_
_symmetry_equiv_pos_site_id
_symmetry_equiv_pos_as_xyz
1 x,y,z
2 -x,1/2+y,1/2-z
3 -x,-y,-z
4 x,1/2-y,1/2+z
_cell_length_a                   6.1596(3)
_cell_length_b                   19.6271(10)
_cell_length_c                   16.2744(9)
_cell_angle_alpha                90
_cell_angle_beta                 96.6740(10)
_cell_angle_gamma                90
_cell_volume                     1954.16
_exptl_crystal_colour            colorless
_exptl_crystal_description       needle-plate
_cell_formula_units_Z            4
loop_
_atom_site_label
_atom_site_type_symbol
_atom_site_fract_x
_atom_site_fract_y
_atom_site_fract_z
N1 N 0.7616(2) 0.27599(7) 0.29140(9)
C1 C 0.6837(3) 0.21551(9) 0.31387(11)
C2 C 0.4832(3) 0.18971(10) 0.27981(11)
C3 C 0.3560(3) 0.22713(9) 0.21955(11)
C4 C 0.4348(3) 0.29006(10) 0.19725(12)
C5 C 0.6357(3) 0.31272(9) 0.23437(11)
C6 C 0.1450(3) 0.20135(9) 0.17782(11)
N2 N 0.0729(2) 0.14133(8) 0.20188(9)
C7 C -0.1106(3) 0.11813(10) 0.15851(12)
C8 C -0.2225(3) 0.15254(9) 0.09244(11)
C9 C -0.1366(3) 0.21604(11) 0.07737(14)
N3 N 0.0456(3) 0.24102(8) 0.11818(10)
C10 C -0.4151(3) 0.12424(9) 0.04037(12)
C11 C -0.5700(3) 0.08486(10) 0.07347(13)
C12 C -0.7496(3) 0.05987(11) 0.02305(14)
C13 C -0.7755(4) 0.07368(12) -0.06029(14)
C14 C -0.6192(4) 0.11116(13) -0.09425(16)
C15 C -0.4405(4) 0.13649(12) -0.04427(14)
N4 N 0.7331(2) 0.12579(8) 0.41567(9)
C16 C 0.8262(3) 0.17818(9) 0.37955(11)
C17 C 1.0415(3) 0.19774(10) 0.40198(12)
C18 C 1.1667(3) 0.16256(10) 0.46413(12)
C19 C 1.0719(4) 0.10973(11) 0.50216(13)
C20 C 0.8578(4) 0.09323(11) 0.47669(13)
N5 N 0.5739(2) 0.42673(8) 0.18248(10)
C21 C 0.7230(3) 0.38079(9) 0.21392(11)
C22 C 0.9445(3) 0.39467(10) 0.22685(12)
C23 C 1.0167(3) 0.45882(10) 0.20831(12)
C24 C 0.8663(3) 0.50691(10) 0.17806(12)
C25 C 0.6490(3) 0.48896(10) 0.16588(13)
H1 H 0.436(3) 0.1483(9) 0.2967(10)
H2 H 0.353(3) 0.3172(8) 0.1564(10)
H3 H -0.164(3) 0.0731(9) 0.1761(10)
H4 H -0.207(3) 0.2453(9) 0.0311(12)
H5 H -0.555(3) 0.0754(9) 0.1326(11)
H6 H -0.852(3) 0.0329(10) 0.0507(12)
H7 H -0.906(3) 0.0582(10) -0.0967(13)
H8 H -0.637(3) 0.1217(11) -0.1537(14)
H9 H -0.328(3) 0.1632(9) -0.0691(11)
H10 H 1.098(3) 0.2357(9) 0.3729(11)
H11 H 1.321(3) 0.1761(9) 0.4790(12)
H12 H 1.151(3) 0.0837(9) 0.5444(12)
H13 H 0.782(3) 0.0556(10) 0.5024(12)
H14 H 1.041(3) 0.3600(9) 0.2495(11)
H15 H 1.173(3) 0.4674(9) 0.2151(11)
H16 H 0.909(3) 0.5528(9) 0.1665(10)
H17 H 0.537(3) 0.5230(9) 0.1430(12)
loop_
_geom_bond_atom_site_label_1
_geom_bond_atom_site_label_2
_geom_bond_site_symmetry_1
_geom_bond_site_symmetry_2
N1 C1 1_555 1_555
C1 C2 1_555 1_555
C2 C3 1_555 1_555
C3 C4 1_555 1_555
C4 C5 1_555 1_555
C5 N1 1_555 1_555
C6 C3 1_555 1_555
N2 C6 1_555 1_555
C7 N2 1_555 1_555
C8 C7 1_555 1_555
C9 C8 1_555 1_555
N3 C6 1_555 1_555
C10 C8 1_555 1_555
C11 C10 1_555 1_555
C12 C11 1_555 1_555
C13 C12 1_555 1_555
C14 C13 1_555 1_555
C15 C10 1_555 1_555
N4 C16 1_555 1_555
C16 C1 1_555 1_555
C17 C16 1_555 1_555
C18 C17 1_555 1_555
C19 C18 1_555 1_555
C20 N4 1_555 1_555
N5 C21 1_555 1_555
C21 C5 1_555 1_555
C22 C21 1_555 1_555
C23 C22 1_555 1_555
C24 C23 1_555 1_555
C25 N5 1_555 1_555
H1 C2 1_555 1_555
H2 C4 1_555 1_555
H3 C7 1_555 1_555
H4 C9 1_555 1_555
H5 C11 1_555 1_555
H6 C12 1_555 1_555
H7 C13 1_555 1_555
H8 C14 1_555 1_555
H9 C15 1_555 1_555
H10 C17 1_555 1_555
H11 C18 1_555 1_555
H12 C19 1_555 1_555
H13 C20 1_555 1_555
H14 C22 1_555 1_555
H15 C23 1_555 1_555
H16 C24 1_555 1_555
H17 C25 1_555 1_555
C9 N3 1_555 1_555
C14 C15 1_555 1_555
C19 C20 1_555 1_555
C24 C25 1_555 1_555

#END
