
#######################################################################
#
#                 Cambridge Crystallographic Data Centre
#                                CCDC 
#
#######################################################################
#
# If this CIF has been generated from an entry in the Cambridge 
# Structural Database, then it will include bibliographic, chemical, 
# crystal, experimental, refinement or atomic coordinate data resulting 
# from the CCDC's data processing and validation procedures.
#
#######################################################################

data_QIDJEV
_chemical_formula_moiety         'C55 H61 Cl1 Cs1 N9 O4'
_chemical_name_systematic        
bis(acetonitrile)-chloro-[48,50-bis(methoxy)-1,25,30,30,39,39-hexamethyl-5,21,44,45,46,47,49-heptaazanonacyclo[23.9.9.1^6,10^.1^11,15^.1^16,20^.1^26,29^.1^31,34^.1^35,38^.1^40,43^]pentaconta-6(50),7,9,11(49),12,14,16(48),17,19,26,28,31,33,35,37,40,42-heptadecaene-4,22-dione]-caesium
_symmetry_cell_setting           monoclinic
_symmetry_space_group_name_H-M   'P 21/n'
_symmetry_Int_Tables_number      14
_space_group_name_Hall           '-P 2yn'
loop_
_symmetry_equiv_pos_site_id
_symmetry_equiv_pos_as_xyz
1 x,y,z
2 1/2-x,1/2+y,1/2-z
3 -x,-y,-z
4 1/2+x,1/2-y,1/2+z
_cell_length_a                   19.7846(6)
_cell_length_b                   21.2123(6)
_cell_length_c                   26.7230(6)
_cell_angle_alpha                90
_cell_angle_beta                 98.694(2)
_cell_angle_gamma                90
_cell_volume                     11086.2
_cell_formula_units_Z            8
loop_
_atom_site_label
_atom_site_type_symbol
_atom_site_fract_x
_atom_site_fract_y
_atom_site_fract_z
C1 C 0.3346(4) 0.2880(3) 0.9206(3)
C2 C 0.3297(4) 0.2549(4) 0.9637(3)
H1 H 0.363613 0.230440 0.982228
C3 C 0.2621(5) 0.2651(4) 0.9746(3)
H2 H 0.244354 0.248346 1.002035
C4 C 0.2284(4) 0.3028(4) 0.9390(3)
C5 C 0.1552(4) 0.3278(4) 0.9327(3)
C6 C 0.1539(4) 0.3962(4) 0.9476(3)
C7 C 0.1359(4) 0.4253(4) 0.9898(3)
H3 H 0.122401 0.405091 1.017555
C8 C 0.1413(4) 0.4907(4) 0.9835(3)
H4 H 0.132284 0.521210 1.006599
C9 C 0.1624(3) 0.5025(4) 0.9372(3)
C10 C 0.1757(4) 0.5636(4) 0.9119(3)
C11 C 0.2521(4) 0.5774(3) 0.9169(2)
C12 C 0.2912(4) 0.6211(4) 0.9460(3)
H5 H 0.275035 0.651397 0.966345
C13 C 0.3601(4) 0.6122(3) 0.9397(3)
H6 H 0.397182 0.635442 0.955371
C14 C 0.3628(4) 0.5633(4) 0.9066(3)
C15 C 0.4228(4) 0.5342(4) 0.8856(3)
C16 C 0.4378(3) 0.4687(4) 0.9057(3)
C17 C 0.4862(4) 0.4456(4) 0.9441(3)
H7 H 0.518193 0.469576 0.964980
C18 C 0.4787(4) 0.3793(4) 0.9461(3)
H8 H 0.504707 0.352109 0.968557
C19 C 0.4258(3) 0.3622(4) 0.9088(2)
C20 C 0.3950(4) 0.2984(4) 0.8932(3)
C21 C 0.3745(3) 0.2946(4) 0.8354(3)
H9 H 0.339438 0.325933 0.825002
H10 H 0.354858 0.253471 0.826725
C22 C 0.4353(4) 0.3056(4) 0.8054(3)
H11 H 0.466455 0.336672 0.822682
H12 H 0.460278 0.266604 0.803371
C23 C 0.4080(3) 0.3285(4) 0.7531(3)
C24 C 0.3583(3) 0.2923(3) 0.6690(2)
C25 C 0.3900(4) 0.2889(3) 0.6269(3)
H13 H 0.436832 0.281883 0.630343
C26 C 0.3523(4) 0.2960(4) 0.5790(3)
H14 H 0.373927 0.293132 0.550547
C27 C 0.2835(4) 0.3070(3) 0.5735(3)
H15 H 0.258854 0.311825 0.541199
C28 C 0.2497(4) 0.3112(3) 0.6160(3)
C29 C 0.2879(3) 0.3036(3) 0.6637(2)
C30 C 0.1740(4) 0.3231(3) 0.6099(2)
C31 C 0.1291(4) 0.2763(3) 0.5894(3)
H16 H 0.144945 0.237117 0.580823
C32 C 0.0590(4) 0.2902(4) 0.5821(3)
H17 H 0.026840 0.260224 0.568936
C33 C 0.0391(4) 0.3496(4) 0.5949(3)
H18 H -0.006889 0.360572 0.589392
C34 C 0.0873(4) 0.3927(4) 0.6159(3)
C35 C 0.0681(3) 0.4567(3) 0.6317(3)
C36 C 0.0290(4) 0.4983(4) 0.5981(3)
H19 H 0.013295 0.485467 0.565079
C37 C 0.0137(4) 0.5579(4) 0.6135(3)
H20 H -0.012698 0.584703 0.590894
C38 C 0.0370(4) 0.5784(4) 0.6622(3)
H21 H 0.026510 0.618795 0.672063
C39 C 0.0763(4) 0.5385(4) 0.6963(3)
C40 C 0.0898(4) 0.4777(4) 0.6812(2)
C41 C 0.1055(5) 0.6110(4) 0.7703(3)
C42 C 0.1489(4) 0.6150(4) 0.8226(3)
H22 H 0.196595 0.619140 0.818622
H23 H 0.136080 0.652562 0.839655
C43 C 0.1410(4) 0.5582(4) 0.8555(3)
H24 H 0.159780 0.521762 0.840581
H25 H 0.092554 0.550499 0.855060
C44 C 0.1423(4) 0.6176(4) 0.9378(3)
H26 H 0.093537 0.612718 0.931669
H27 H 0.154497 0.657220 0.924238
H28 H 0.158093 0.616523 0.973537
C45 C 0.4869(4) 0.5752(4) 0.9018(3)
H29 H 0.477981 0.617644 0.890211
H30 H 0.524596 0.558429 0.887169
H31 H 0.498118 0.574920 0.938008
C46 C 0.4072(4) 0.5328(4) 0.8274(3)
H32 H 0.369432 0.504937 0.816945
H33 H 0.446713 0.517997 0.813967
H34 H 0.395771 0.574449 0.814859
C47 C 0.4484(4) 0.2466(4) 0.9107(3)
H35 H 0.486171 0.250478 0.892205
H36 H 0.427665 0.205868 0.904477
H37 H 0.464417 0.251314 0.946228
C48 C 0.1157(4) 0.2901(4) 0.9684(3)
H38 H 0.139270 0.293175 1.002464
H39 H 0.112992 0.246663 0.958190
H40 H 0.070456 0.307012 0.966754
C49 C 0.1205(4) 0.3183(4) 0.8778(3)
H41 H 0.074046 0.332623 0.874343
H42 H 0.121267 0.274340 0.869295
H43 H 0.144648 0.341926 0.855465
C50 C 0.2341(4) 0.2521(5) 0.7254(3)
H44 H 0.215045 0.259981 0.755768
H45 H 0.272164 0.223813 0.732669
H46 H 0.199892 0.233565 0.700418
C51 C 0.0929(5) 0.3885(5) 0.7339(3)
H47 H 0.077361 0.360997 0.705957
H48 H 0.054343 0.403457 0.748345
H49 H 0.123190 0.365796 0.759065
C52 C 0.3267(5) 0.4650(5) 0.5516(4)
C53 C 0.3347(4) 0.4394(4) 0.5009(3)
H50 H 0.337679 0.473590 0.477800
H51 H 0.295882 0.413556 0.488448
H52 H 0.375573 0.414432 0.503656
C54 C 0.2520(11) 0.6272(7) 0.6710(7)
C55 C 0.2596(16) 0.6434(12) 0.6225(7)
H53 H 0.302632 0.627943 0.615247
H54 H 0.258341 0.688506 0.619212
H55 H 0.223121 0.625271 0.599222
Cl1 Cl 0.24513(8) 0.42617(8) 0.81723(6)
Cs1 Cs 0.27627(3) 0.45752(2) 0.69757(2)
N1 N 0.2728(3) 0.3172(3) 0.9057(2)
H56 H 0.263306 0.340927 0.879434
N2 N 0.1700(3) 0.4451(3) 0.9159(2)
H57 H 0.182836 0.439506 0.886901
N3 N 0.2966(3) 0.5417(3) 0.8933(2)
H58 H 0.284811 0.510597 0.873226
N4 N 0.4007(3) 0.4169(3) 0.8848(2)
H59 H 0.366965 0.418702 0.860465
N5 N 0.3959(3) 0.2817(3) 0.7181(2)
H60 H 0.411326 0.244567 0.725884
N6 N 0.1553(3) 0.3800(3) 0.6230(2)
N7 N 0.1045(4) 0.5548(3) 0.7467(2)
H61 H 0.123732 0.524381 0.764731
N8 N 0.3215(5) 0.4846(6) 0.5905(3)
N9 N 0.2479(7) 0.6117(6) 0.7086(5)
O1 O 0.3953(3) 0.3837(3) 0.7428(2)
O2 O 0.2569(3) 0.3107(3) 0.70630(18)
O3 O 0.1280(3) 0.4403(3) 0.71660(18)
O4 O 0.0737(3) 0.6562(3) 0.7507(2)
C56 C 0.6397(4) 0.4235(4) 0.5792(3)
C57 C 0.6399(4) 0.3898(4) 0.5355(3)
H62 H 0.602372 0.370153 0.516704
C58 C 0.7080(4) 0.3903(4) 0.5237(3)
H63 H 0.722853 0.369941 0.496556
C59 C 0.7477(4) 0.4263(3) 0.5599(3)
C60 C 0.8232(4) 0.4426(3) 0.5659(3)
C61 C 0.8342(3) 0.5103(3) 0.5509(2)
C62 C 0.8564(4) 0.5355(4) 0.5087(3)
H64 H 0.867734 0.512905 0.481306
C63 C 0.8587(4) 0.6018(4) 0.5143(3)
H65 H 0.871993 0.630289 0.491236
C64 C 0.8382(3) 0.6170(3) 0.5597(2)
C65 C 0.8305(3) 0.6803(3) 0.5843(2)
C66 C 0.7568(4) 0.6980(3) 0.5803(3)
C67 C 0.7177(4) 0.7413(3) 0.5505(3)
H66 H 0.733027 0.767793 0.526840
C68 C 0.6494(4) 0.7388(4) 0.5621(3)
H67 H 0.612472 0.762717 0.546903
C69 C 0.6481(3) 0.6951(4) 0.5993(3)
C70 C 0.5913(4) 0.6750(4) 0.6275(3)
C71 C 0.5630(4) 0.6125(4) 0.6082(3)
C72 C 0.5057(4) 0.5981(5) 0.5753(3)
H68 H 0.474104 0.626840 0.559346
C73 C 0.5025(4) 0.5316(4) 0.5696(3)
H69 H 0.468168 0.509102 0.549625
C74 C 0.5589(4) 0.5064(4) 0.5985(3)
C75 C 0.5813(4) 0.4395(4) 0.6081(3)
C76 C 0.6046(4) 0.4277(4) 0.6650(3)
H70 H 0.643732 0.454336 0.676525
H71 H 0.619182 0.384213 0.669811
C77 C 0.5482(4) 0.4410(4) 0.6980(3)
H72 H 0.519463 0.475425 0.683511
H73 H 0.519725 0.403906 0.698931
C78 C 0.5809(4) 0.4579(4) 0.7508(3)
C79 C 0.6400(4) 0.4159(3) 0.8305(3)
C80 C 0.6106(4) 0.4072(3) 0.8742(3)
H74 H 0.563969 0.399470 0.871730
C81 C 0.6508(4) 0.4102(3) 0.9212(3)
H75 H 0.631066 0.404610 0.950367
C82 C 0.7200(4) 0.4213(3) 0.9251(3)
H76 H 0.746787 0.422224 0.956851
C83 C 0.7501(3) 0.4313(3) 0.8818(3)
C84 C 0.7092(4) 0.4276(3) 0.8345(3)
C85 C 0.8253(3) 0.4450(3) 0.8869(2)
C86 C 0.8733(4) 0.4010(4) 0.9086(3)
H77 H 0.859863 0.360623 0.916483
C87 C 0.9412(4) 0.4185(4) 0.9183(3)
H78 H 0.973908 0.389929 0.933073
C88 C 0.9606(4) 0.4783(4) 0.9059(3)
H79 H 1.006052 0.490976 0.912666
C89 C 0.9095(3) 0.5195(4) 0.8829(2)
C90 C 0.9242(4) 0.5840(4) 0.8669(3)
C91 C 0.9545(3) 0.6286(4) 0.9026(3)
H80 H 0.968839 0.616458 0.935987
C92 C 0.9628(4) 0.6907(4) 0.8880(3)
H81 H 0.982105 0.719915 0.911947
C93 C 0.9428(4) 0.7096(4) 0.8380(3)
H82 H 0.948304 0.751339 0.828728
C94 C 0.9145(4) 0.6659(4) 0.8023(3)
C95 C 0.9060(3) 0.6034(3) 0.8170(3)
C96 C 0.8922(3) 0.7349(3) 0.7261(3)
C97 C 0.8571(4) 0.7359(4) 0.6713(2)
H83 H 0.808714 0.743212 0.671174
H84 H 0.874835 0.771395 0.654483
C98 C 0.8651(3) 0.6772(3) 0.6407(2)
H85 H 0.845975 0.641837 0.656803
H86 H 0.913513 0.669058 0.641591
C99 C 0.8660(4) 0.7294(4) 0.5551(3)
H87 H 0.845668 0.728986 0.520115
H88 H 0.913716 0.719495 0.557806
H89 H 0.860668 0.770481 0.569080
C100 C 0.5350(4) 0.7246(5) 0.6192(4)
H90 H 0.516553 0.726591 0.583925
H91 H 0.553684 0.764957 0.630217
H92 H 0.499448 0.713579 0.638385
C101 C 0.6182(4) 0.6728(4) 0.6845(3)
H93 H 0.580946 0.664505 0.702777
H94 H 0.638665 0.712584 0.695073
H95 H 0.651715 0.639975 0.691208
C102 C 0.5207(4) 0.3949(4) 0.5890(3)
H96 H 0.482982 0.404227 0.606534
H97 H 0.534709 0.351967 0.595368
H98 H 0.507032 0.400990 0.553323
C103 C 0.8574(4) 0.3994(4) 0.5306(3)
H99 H 0.834084 0.403562 0.496491
H100 H 0.854838 0.356403 0.541351
H101 H 0.904398 0.411306 0.531847
C104 C 0.8569(4) 0.4306(3) 0.6207(3)
H102 H 0.904581 0.441210 0.624290
H103 H 0.852171 0.386863 0.628875
H104 H 0.835114 0.456080 0.643302
C105 C 0.7607(5) 0.3831(4) 0.7683(3)
H105 H 0.773393 0.393517 0.736065
H106 H 0.724428 0.352588 0.763778
H107 H 0.799496 0.365769 0.789892
C106 C 0.9167(5) 0.5159(5) 0.7636(3)
H108 H 0.933792 0.489041 0.791627
H109 H 0.954399 0.535173 0.750655
H110 H 0.890486 0.491227 0.737445
C107 C 0.6809(5) 0.5948(5) 0.9488(4)
C108 C 0.6753(3) 0.5656(4) 0.9982(3)
H111 H 0.640736 0.533477 0.993647
H112 H 0.663094 0.597218 1.020921
H113 H 0.718382 0.547198 1.012018
C109 C 0.7589(5) 0.7511(4) 0.8304(4)
C110 C 0.7743(7) 0.7675(6) 0.8829(4)
H114 H 0.733372 0.765148 0.898111
H115 H 0.792124 0.809650 0.886117
H116 H 0.807666 0.738711 0.899738
Cl2 Cl 0.75389(8) 0.54856(8) 0.68343(6)
Cs2 Cs 0.72338(2) 0.58236(2) 0.80237(2)
N10 N 0.7059(3) 0.4454(3) 0.5939(2)
H117 H 0.718894 0.467849 0.620392
N11 N 0.8235(3) 0.5606(3) 0.5818(2)
H118 H 0.809580 0.557227 0.610662
N12 N 0.7129(3) 0.6701(3) 0.6101(2)
H119 H 0.724702 0.641143 0.632174
N13 N 0.5955(3) 0.5560(3) 0.6217(2)
H120 H 0.633455 0.552460 0.641921
N14 N 0.5991(3) 0.4095(3) 0.7817(2)
H121 H 0.585497 0.372396 0.771886
N15 N 0.8427(3) 0.5029(3) 0.8737(2)
N16 N 0.8908(3) 0.6790(3) 0.7507(2)
H122 H 0.873450 0.647775 0.732691
N17 N 0.7482(5) 0.7366(4) 0.7889(3)
N18 N 0.6868(6) 0.6174(5) 0.9107(3)
O5 O 0.5936(3) 0.5130(3) 0.7635(2)
O6 O 0.7380(3) 0.4388(3) 0.79119(18)
O7 O 0.8745(3) 0.5634(2) 0.78006(18)
O8 O 0.9186(3) 0.7815(2) 0.74712(19)
loop_
_geom_bond_atom_site_label_1
_geom_bond_atom_site_label_2
_geom_bond_site_symmetry_1
_geom_bond_site_symmetry_2
C1 C2 1_555 1_555
C2 H1 1_555 1_555
C3 C2 1_555 1_555
H2 C3 1_555 1_555
C4 C3 1_555 1_555
C5 C4 1_555 1_555
C6 C5 1_555 1_555
C7 C6 1_555 1_555
H3 C7 1_555 1_555
C8 C7 1_555 1_555
H4 C8 1_555 1_555
C9 C8 1_555 1_555
C10 C9 1_555 1_555
C11 C10 1_555 1_555
C12 C11 1_555 1_555
H5 C12 1_555 1_555
C13 C12 1_555 1_555
H6 C13 1_555 1_555
C14 C13 1_555 1_555
C15 C14 1_555 1_555
C16 C15 1_555 1_555
C17 C16 1_555 1_555
H7 C17 1_555 1_555
C18 C17 1_555 1_555
H8 C18 1_555 1_555
C19 C18 1_555 1_555
C20 C1 1_555 1_555
C21 C20 1_555 1_555
H9 C21 1_555 1_555
H10 C21 1_555 1_555
C22 C21 1_555 1_555
H11 C22 1_555 1_555
H12 C22 1_555 1_555
C23 C22 1_555 1_555
C24 C25 1_555 1_555
C25 H13 1_555 1_555
C26 C25 1_555 1_555
H14 C26 1_555 1_555
C27 C26 1_555 1_555
H15 C27 1_555 1_555
C28 C27 1_555 1_555
C29 C24 1_555 1_555
C30 C28 1_555 1_555
C31 C30 1_555 1_555
H16 C31 1_555 1_555
C32 C31 1_555 1_555
H17 C32 1_555 1_555
C33 C32 1_555 1_555
H18 C33 1_555 1_555
C34 C33 1_555 1_555
C35 C34 1_555 1_555
C36 C35 1_555 1_555
H19 C36 1_555 1_555
C37 C36 1_555 1_555
H20 C37 1_555 1_555
C38 C37 1_555 1_555
H21 C38 1_555 1_555
C39 C38 1_555 1_555
C40 C35 1_555 1_555
C41 C42 1_555 1_555
C42 H22 1_555 1_555
H23 C42 1_555 1_555
C43 C10 1_555 1_555
H24 C43 1_555 1_555
H25 C43 1_555 1_555
C44 C10 1_555 1_555
H26 C44 1_555 1_555
H27 C44 1_555 1_555
H28 C44 1_555 1_555
C45 C15 1_555 1_555
H29 C45 1_555 1_555
H30 C45 1_555 1_555
H31 C45 1_555 1_555
C46 C15 1_555 1_555
H32 C46 1_555 1_555
H33 C46 1_555 1_555
H34 C46 1_555 1_555
C47 C20 1_555 1_555
H35 C47 1_555 1_555
H36 C47 1_555 1_555
H37 C47 1_555 1_555
C48 C5 1_555 1_555
H38 C48 1_555 1_555
H39 C48 1_555 1_555
H40 C48 1_555 1_555
C49 C5 1_555 1_555
H41 C49 1_555 1_555
H42 C49 1_555 1_555
H43 C49 1_555 1_555
C50 H44 1_555 1_555
H45 C50 1_555 1_555
H46 C50 1_555 1_555
C51 H47 1_555 1_555
H48 C51 1_555 1_555
H49 C51 1_555 1_555
C52 C53 1_555 1_555
C53 H50 1_555 1_555
H51 C53 1_555 1_555
H52 C53 1_555 1_555
C54 C55 1_555 1_555
C55 H53 1_555 1_555
H54 C55 1_555 1_555
H55 C55 1_555 1_555
Cl1 Cs1 1_555 1_555
Cs1 C29 1_555 1_555
N1 C1 1_555 1_555
H56 N1 1_555 1_555
N2 C6 1_555 1_555
H57 N2 1_555 1_555
N3 C11 1_555 1_555
H58 N3 1_555 1_555
N4 C16 1_555 1_555
H59 N4 1_555 1_555
N5 C23 1_555 1_555
H60 N5 1_555 1_555
N6 C30 1_555 1_555
N7 C39 1_555 1_555
H61 N7 1_555 1_555
N8 C52 1_555 1_555
N9 C54 1_555 1_555
O1 C23 1_555 1_555
O2 C29 1_555 1_555
O3 C40 1_555 1_555
O4 C41 1_555 1_555
C56 C57 1_555 1_555
C57 H62 1_555 1_555
C58 C57 1_555 1_555
H63 C58 1_555 1_555
C59 C58 1_555 1_555
C60 C59 1_555 1_555
C61 C60 1_555 1_555
C62 C61 1_555 1_555
H64 C62 1_555 1_555
C63 C62 1_555 1_555
H65 C63 1_555 1_555
C64 C63 1_555 1_555
C65 C64 1_555 1_555
C66 C65 1_555 1_555
C67 C66 1_555 1_555
H66 C67 1_555 1_555
C68 C67 1_555 1_555
H67 C68 1_555 1_555
C69 C68 1_555 1_555
C70 C69 1_555 1_555
C71 C70 1_555 1_555
C72 C71 1_555 1_555
H68 C72 1_555 1_555
C73 C72 1_555 1_555
H69 C73 1_555 1_555
C74 C73 1_555 1_555
C75 C56 1_555 1_555
C76 C75 1_555 1_555
H70 C76 1_555 1_555
H71 C76 1_555 1_555
C77 C76 1_555 1_555
H72 C77 1_555 1_555
H73 C77 1_555 1_555
C78 C77 1_555 1_555
C79 C80 1_555 1_555
C80 H74 1_555 1_555
C81 C80 1_555 1_555
H75 C81 1_555 1_555
C82 C81 1_555 1_555
H76 C82 1_555 1_555
C83 C82 1_555 1_555
C84 C79 1_555 1_555
C85 C83 1_555 1_555
C86 C85 1_555 1_555
H77 C86 1_555 1_555
C87 C86 1_555 1_555
H78 C87 1_555 1_555
C88 C87 1_555 1_555
H79 C88 1_555 1_555
C89 C88 1_555 1_555
C90 C89 1_555 1_555
C91 C90 1_555 1_555
H80 C91 1_555 1_555
C92 C91 1_555 1_555
H81 C92 1_555 1_555
C93 C92 1_555 1_555
H82 C93 1_555 1_555
C94 C93 1_555 1_555
C95 C90 1_555 1_555
C96 C97 1_555 1_555
C97 H83 1_555 1_555
H84 C97 1_555 1_555
C98 C65 1_555 1_555
H85 C98 1_555 1_555
H86 C98 1_555 1_555
C99 C65 1_555 1_555
H87 C99 1_555 1_555
H88 C99 1_555 1_555
H89 C99 1_555 1_555
C100 C70 1_555 1_555
H90 C100 1_555 1_555
H91 C100 1_555 1_555
H92 C100 1_555 1_555
C101 C70 1_555 1_555
H93 C101 1_555 1_555
H94 C101 1_555 1_555
H95 C101 1_555 1_555
C102 C75 1_555 1_555
H96 C102 1_555 1_555
H97 C102 1_555 1_555
H98 C102 1_555 1_555
C103 C60 1_555 1_555
H99 C103 1_555 1_555
H100 C103 1_555 1_555
H101 C103 1_555 1_555
C104 C60 1_555 1_555
H102 C104 1_555 1_555
H103 C104 1_555 1_555
H104 C104 1_555 1_555
C105 H105 1_555 1_555
H106 C105 1_555 1_555
H107 C105 1_555 1_555
C106 H108 1_555 1_555
H109 C106 1_555 1_555
H110 C106 1_555 1_555
C107 C108 1_555 1_555
C108 H111 1_555 1_555
H112 C108 1_555 1_555
H113 C108 1_555 1_555
C109 C110 1_555 1_555
C110 H114 1_555 1_555
H115 C110 1_555 1_555
H116 C110 1_555 1_555
Cl2 Cs2 1_555 1_555
Cs2 C84 1_555 1_555
N10 C56 1_555 1_555
H117 N10 1_555 1_555
N11 C61 1_555 1_555
H118 N11 1_555 1_555
N12 C66 1_555 1_555
H119 N12 1_555 1_555
N13 C71 1_555 1_555
H120 N13 1_555 1_555
N14 C78 1_555 1_555
H121 N14 1_555 1_555
N15 C85 1_555 1_555
N16 C94 1_555 1_555
H122 N16 1_555 1_555
N17 C109 1_555 1_555
N18 C107 1_555 1_555
O5 C78 1_555 1_555
O6 C84 1_555 1_555
O7 C95 1_555 1_555
O8 C96 1_555 1_555
C4 N1 1_555 1_555
C9 N2 1_555 1_555
C14 N3 1_555 1_555
C19 C20 1_555 1_555
C19 N4 1_555 1_555
C24 N5 1_555 1_555
C28 C29 1_555 1_555
C34 N6 1_555 1_555
C39 C40 1_555 1_555
C40 Cs1 1_555 1_555
C41 N7 1_555 1_555
C42 C43 1_555 1_555
C50 O2 1_555 1_555
C51 O3 1_555 1_555
C54 Cs1 1_555 1_555
Cs1 N6 1_555 1_555
Cs1 N8 1_555 1_555
Cs1 N9 1_555 1_555
Cs1 O1 1_555 1_555
Cs1 O2 1_555 1_555
Cs1 O3 1_555 1_555
C59 N10 1_555 1_555
C64 N11 1_555 1_555
C69 N12 1_555 1_555
C74 C75 1_555 1_555
C74 N13 1_555 1_555
C79 N14 1_555 1_555
C83 C84 1_555 1_555
C89 N15 1_555 1_555
C94 C95 1_555 1_555
C95 Cs2 1_555 1_555
C96 N16 1_555 1_555
C97 C98 1_555 1_555
C105 O6 1_555 1_555
C106 O7 1_555 1_555
C109 Cs2 1_555 1_555
Cs2 N15 1_555 1_555
Cs2 N17 1_555 1_555
Cs2 N18 1_555 1_555
Cs2 O5 1_555 1_555
Cs2 O6 1_555 1_555
Cs2 O7 1_555 1_555

#END
