
#######################################################################
#
#                 Cambridge Crystallographic Data Centre
#                                CCDC 
#
#######################################################################
#
# If this CIF has been generated from an entry in the Cambridge 
# Structural Database, then it will include bibliographic, chemical, 
# crystal, experimental, refinement or atomic coordinate data resulting 
# from the CCDC's data processing and validation procedures.
#
#######################################################################

data_QIDKEW
_chemical_formula_moiety         'C41 H34 O2 P2'
_chemical_name_systematic        
(3,3'-dimethyl-3H,3'H-1,1'-spirobi[[2]benzofuran]-7,7'-diyl)bis(diphenylphosphane)
_symmetry_cell_setting           orthorhombic
_symmetry_space_group_name_H-M   'P 21 21 21'
_symmetry_Int_Tables_number      19
_space_group_name_Hall           'P 2ac 2ab'
loop_
_symmetry_equiv_pos_site_id
_symmetry_equiv_pos_as_xyz
1 x,y,z
2 1/2+x,1/2-y,-z
3 -x,1/2+y,1/2-z
4 1/2-x,-y,1/2+z
_cell_length_a                   11.3893(3)
_cell_length_b                   14.6404(4)
_cell_length_c                   20.3796(5)
_cell_angle_alpha                90
_cell_angle_beta                 90
_cell_angle_gamma                90
_cell_volume                     3398.17
_exptl_crystal_colour            colorless
_exptl_crystal_description       block
_cell_formula_units_Z            4
loop_
_atom_site_label
_atom_site_type_symbol
_atom_site_fract_x
_atom_site_fract_y
_atom_site_fract_z
P1 P 0.74309(6) 0.43103(4) 0.49497(3)
C1 C 0.67667(16) 0.52593(13) 0.66813(9)
P2 P 0.60141(4) 0.61787(3) 0.62341(2)
O1 O 0.97095(12) 0.48038(11) 0.60077(8)
O2 O 0.92750(12) 0.62420(10) 0.64608(7)
C2 C 0.4430(3) 0.4475(3) 0.34434(18)
H1 H 0.381059 0.453596 0.314927
C3 C 0.5519(3) 0.4262(2) 0.32216(13)
H2 H 0.564162 0.416911 0.277544
C4 C 0.6445(3) 0.4184(2) 0.36543(11)
H3 H 0.718799 0.403749 0.349666
C5 C 0.6282(2) 0.43204(17) 0.43205(10)
C6 C 0.79291(17) 0.55016(14) 0.49048(9)
C7 C 0.85237(15) 0.58880(13) 0.54350(9)
C8 C 0.88248(15) 0.54795(13) 0.60968(9)
C9 C 0.79250(15) 0.50177(12) 0.65275(9)
C10 C 0.44889(15) 0.60720(13) 0.65310(9)
C11 C 0.40742(19) 0.64541(15) 0.71074(11)
H4 H 0.459273 0.674536 0.739115
C12 C 0.28868(19) 0.64057(16) 0.72655(13)
H5 H 0.261583 0.666706 0.765287
C13 C 0.21157(18) 0.59746(17) 0.68530(13)
H6 H 0.132212 0.594869 0.695884
C14 C 0.6897(3) 0.8838(3) 0.7321(2)
H7 H 0.703089 0.938399 0.7542
C15 C 0.6431(3) 0.8853(2) 0.6712(2)
H8 H 0.625426 0.940889 0.651456
C16 C 0.6214(2) 0.80402(17) 0.63792(16)
H9 H 0.590785 0.805373 0.595617
C17 C 0.64534(16) 0.72099(14) 0.66789(11)
C18 C 0.6936(2) 0.72180(19) 0.72981(12)
H10 H 0.710566 0.666812 0.750599
C19 C 0.7172(3) 0.8033(3) 0.76154(17)
H11 H 0.751746 0.802936 0.802879
C20 C 0.36946(18) 0.56306(16) 0.61267(11)
H12 H 0.395677 0.536024 0.574064
C21 C 0.25089(19) 0.55851(18) 0.62895(13)
H13 H 0.198543 0.528755 0.6012
C22 C 0.96706(19) 0.41510(16) 0.65380(12)
H14 H 1.025799 0.431134 0.686994
C23 C 0.84627(17) 0.42682(14) 0.68170(10)
C24 C 0.7888(2) 0.37477(16) 0.72820(12)
H15 H 0.825934 0.32552 0.748215
C25 C 0.6743(2) 0.39796(18) 0.74423(12)
H16 H 0.634026 0.36392 0.775511
C26 C 0.6193(2) 0.47108(16) 0.71426(11)
H17 H 0.541783 0.484179 0.725108
C27 C 0.9929(3) 0.32125(19) 0.62668(19)
H18 H 0.997263 0.278126 0.662088
H19 H 1.06649 0.322369 0.60369
H20 H 0.931508 0.303574 0.597029
C28 C 0.4245(3) 0.4599(3) 0.4097(2)
H21 H 0.350001 0.474778 0.424985
C29 C 0.5166(3) 0.4503(3) 0.45321(15)
H22 H 0.502453 0.456397 0.497935
C30 C 0.8639(3) 0.36987(18) 0.45353(12)
C31 C 0.8508(4) 0.2762(2) 0.4454(2)
H23 H 0.782052 0.247654 0.458962
C32 C 0.9406(5) 0.2248(3) 0.4168(3)
H24 H 0.930559 0.162492 0.410143
C33 C 1.0432(6) 0.2661(4) 0.3986(3)
H25 H 1.103258 0.231846 0.379826
C34 C 1.0569(5) 0.3550(4) 0.4078(3)
H26 H 1.127457 0.382522 0.396154
C35 C 0.9674(4) 0.4080(3) 0.4346(2)
H27 H 0.978536 0.470505 0.439561
C36 C 0.7745(2) 0.60729(16) 0.43643(10)
H28 H 0.733478 0.584867 0.40039
C37 C 0.8154(2) 0.69604(18) 0.43511(12)
H29 H 0.799004 0.73288 0.399074
C38 C 0.8803(2) 0.73084(16) 0.48657(11)
H30 H 0.911039 0.789644 0.484715
C39 C 0.89856(17) 0.67633(13) 0.54072(10)
C40 C 0.96824(17) 0.69433(14) 0.60178(11)
H31 H 1.051512 0.683768 0.592335
C41 C 0.9551(2) 0.78702(17) 0.63322(13)
H32 H 0.87342 0.79913 0.641069
H33 H 0.986475 0.832893 0.604504
H34 H 0.996901 0.788035 0.674109
loop_
_geom_bond_atom_site_label_1
_geom_bond_atom_site_label_2
_geom_bond_site_symmetry_1
_geom_bond_site_symmetry_2
P1 C5 1_555 1_555
C1 P2 1_555 1_555
P2 C10 1_555 1_555
O1 C8 1_555 1_555
O2 C8 1_555 1_555
C2 H1 1_555 1_555
C3 C2 1_555 1_555
H2 C3 1_555 1_555
C4 C3 1_555 1_555
H3 C4 1_555 1_555
C5 C4 1_555 1_555
C6 P1 1_555 1_555
C7 C6 1_555 1_555
C8 C7 1_555 1_555
C9 C1 1_555 1_555
C10 C11 1_555 1_555
C11 H4 1_555 1_555
C12 C11 1_555 1_555
H5 C12 1_555 1_555
C13 C12 1_555 1_555
H6 C13 1_555 1_555
C14 H7 1_555 1_555
C15 C14 1_555 1_555
H8 C15 1_555 1_555
C16 C15 1_555 1_555
H9 C16 1_555 1_555
C17 P2 1_555 1_555
C18 C17 1_555 1_555
H10 C18 1_555 1_555
C19 C14 1_555 1_555
H11 C19 1_555 1_555
C20 C10 1_555 1_555
H12 C20 1_555 1_555
C21 C13 1_555 1_555
H13 C21 1_555 1_555
C22 O1 1_555 1_555
H14 C22 1_555 1_555
C23 C9 1_555 1_555
C24 C23 1_555 1_555
H15 C24 1_555 1_555
C25 C24 1_555 1_555
H16 C25 1_555 1_555
C26 C1 1_555 1_555
H17 C26 1_555 1_555
C27 C22 1_555 1_555
H18 C27 1_555 1_555
H19 C27 1_555 1_555
H20 C27 1_555 1_555
C28 C2 1_555 1_555
H21 C28 1_555 1_555
C29 C5 1_555 1_555
H22 C29 1_555 1_555
C30 P1 1_555 1_555
C31 C30 1_555 1_555
H23 C31 1_555 1_555
C32 C31 1_555 1_555
H24 C32 1_555 1_555
C33 C32 1_555 1_555
H25 C33 1_555 1_555
C34 C33 1_555 1_555
H26 C34 1_555 1_555
C35 C30 1_555 1_555
H27 C35 1_555 1_555
C36 C6 1_555 1_555
H28 C36 1_555 1_555
C37 C36 1_555 1_555
H29 C37 1_555 1_555
C38 C37 1_555 1_555
H30 C38 1_555 1_555
C39 C7 1_555 1_555
C40 O2 1_555 1_555
H31 C40 1_555 1_555
C41 C40 1_555 1_555
H32 C41 1_555 1_555
H33 C41 1_555 1_555
H34 C41 1_555 1_555
C8 C9 1_555 1_555
C16 C17 1_555 1_555
C18 C19 1_555 1_555
C20 C21 1_555 1_555
C22 C23 1_555 1_555
C25 C26 1_555 1_555
C28 C29 1_555 1_555
C34 C35 1_555 1_555
C38 C39 1_555 1_555
C39 C40 1_555 1_555

#END
