
#######################################################################
#
#                 Cambridge Crystallographic Data Centre
#                                CCDC 
#
#######################################################################
#
# If this CIF has been generated from an entry in the Cambridge 
# Structural Database, then it will include bibliographic, chemical, 
# crystal, experimental, refinement or atomic coordinate data resulting 
# from the CCDC's data processing and validation procedures.
#
#######################################################################

data_QIDTOM
_chemical_formula_moiety         'C28 H56 N4 O4 Sr1'
_chemical_name_systematic        
bis(2,2,6,6-Tetramethyl-3,5-heptanedionato-O,O')-(triethylenetetraamine-N,N',N'',N''')-strontium
_symmetry_cell_setting           monoclinic
_symmetry_space_group_name_H-M   'P 21/c'
_symmetry_Int_Tables_number      14
_space_group_name_Hall           '-P 2ybc'
loop_
_symmetry_equiv_pos_site_id
_symmetry_equiv_pos_as_xyz
1 x,y,z
2 x,1/2-y,1/2+z
3 -x,-y,-z
4 -x,1/2+y,1/2-z
_cell_length_a                   11.411(4)
_cell_length_b                   16.164(2)
_cell_length_c                   38.508(6)
_cell_angle_alpha                90.00
_cell_angle_beta                 94.66(2)
_cell_angle_gamma                90.00
_cell_volume                     7079.22
_exptl_crystal_colour            colorless
_chemical_melting_point          100-106deg.C
_cell_formula_units_Z            8
_exptl_crystal_recrystallization_method n-hexane
loop_
_atom_site_label
_atom_site_type_symbol
_atom_site_fract_x
_atom_site_fract_y
_atom_site_fract_z
Sr1 Sr 0.36840(7) 0.98517(5) 0.14644(2)
O1 O 0.2940(5) 1.0533(4) 0.09030(14)
O2 O 0.2039(5) 1.0839(4) 0.15491(15)
O3 O 0.5358(5) 0.9070(4) 0.1803(2)
O4 O 0.2957(5) 0.8833(4) 0.1877(2)
N1 N 0.4055(11) 1.0755(7) 0.2078(3)
H1 H 0.3361(11) 1.0958(7) 0.2135(3)
H2 H 0.4325(11) 1.0410(7) 0.2250(3)
N2 N 0.4905(10) 1.1299(5) 0.1414(3)
H3 H 0.4325(10) 1.1085(5) 0.1288(3)
N3 N 0.5668(6) 0.9759(5) 0.1100(2)
H4 H 0.5445(6) 0.9620(5) 0.1300(2)
N4 N 0.3681(8) 0.8665(5) 0.0963(3)
H5 H 0.3335(8) 0.8206(5) 0.1038(3)
H6 H 0.3251(8) 0.8843(5) 0.0771(3)
C1 C 0.2148(8) 1.1027(5) 0.0796(2)
C2 C 0.2024(9) 1.1182(6) 0.0405(2)
C3 C 0.1470(28) 1.1952(13) 0.0294(4)
H13 H 0.0732(28) 1.2005(13) 0.0395(4)
H14 H 0.1339(28) 1.1957(13) 0.0044(4)
H15 H 0.1973(28) 1.2406(13) 0.0368(4)
C4 C 0.1367(28) 1.0525(13) 0.0232(4)
H16 H 0.0602(28) 1.0493(13) 0.0318(4)
H17 H 0.1773(28) 1.0010(13) 0.0275(4)
H18 H 0.1284(28) 1.0631(13) -0.0014(4)
C5 C 0.3059(18) 1.1149(16) 0.0251(4)
H19 H 0.3575(18) 1.1577(16) 0.0344(4)
H20 H 0.2907(18) 1.1227(16) 0.0004(4)
H21 H 0.3422(18) 1.0619(16) 0.0295(4)
C6 C 0.1384(8) 1.1420(5) 0.1009(2)
H22 H 0.0860(8) 1.1801(5) 0.0903(2)
C7 C 0.1333(8) 1.1293(5) 0.1369(2)
C8 C 0.0404(9) 1.1752(6) 0.1566(3)
C9 C 0.0944(15) 1.2272(14) 0.1827(6)
H23 H 0.1402(15) 1.2686(14) 0.1721(6)
H24 H 0.1448(15) 1.1948(14) 0.1986(6)
H25 H 0.0351(15) 1.2535(14) 0.1951(6)
C10 C -0.0474(20) 1.2244(17) 0.1329(5)
H26 H -0.0840(20) 1.1885(17) 0.1154(5)
H27 H -0.0072(20) 1.2682(17) 0.1220(5)
H28 H -0.1064(20) 1.2474(17) 0.1465(5)
C11 C -0.0292(21) 1.1115(11) 0.1734(8)
H29 H -0.0665(21) 1.0759(11) 0.1559(8)
H30 H -0.0881(21) 1.1380(11) 0.1859(8)
H31 H 0.0218(21) 1.0795(11) 0.1892(8)
C12 C 0.5448(7) 0.8843(5) 0.2116(2)
C13 C 0.6724(8) 0.8789(6) 0.2284(2)
C14 C 0.7455(10) 0.9497(9) 0.2163(4)
H32 H 0.7418(10) 0.9501(9) 0.1914(4)
H33 H 0.8256(10) 0.9429(9) 0.2255(4)
H34 H 0.7154(10) 1.0009(9) 0.2245(4)
C15 C 0.6805(11) 0.8805(13) 0.2678(3)
H35 H 0.6350(11) 0.8358(13) 0.2762(3)
H36 H 0.6505(11) 0.9322(13) 0.2756(3)
H37 H 0.7611(11) 0.8744(13) 0.2767(3)
C16 C 0.7238(11) 0.7987(8) 0.2164(5)
H38 H 0.7190(11) 0.7974(8) 0.1914(5)
H39 H 0.6805(11) 0.7530(8) 0.2248(5)
H40 H 0.8047(11) 0.7948(8) 0.2253(5)
C17 C 0.4514(7) 0.8655(6) 0.2309(2)
H41 H 0.4689(7) 0.8529(6) 0.2543(2)
C18 C 0.3323(8) 0.8639(5) 0.2182(2)
C19 C 0.2381(8) 0.8363(7) 0.2422(3)
C20 C 0.1238(12) 0.8778(17) 0.2313(5)
H42 H 0.1327(12) 0.9366(17) 0.2339(5)
H43 H 0.0645(12) 0.8587(17) 0.2457(5)
H44 H 0.1009(12) 0.8649(17) 0.2074(5)
C21 C 0.2240(23) 0.7445(11) 0.2378(6)
H45 H 0.2973(23) 0.7176(11) 0.2447(6)
H46 H 0.2011(23) 0.7320(11) 0.2139(6)
H47 H 0.1647(23) 0.7250(11) 0.2522(6)
C22 C 0.2694(13) 0.8546(15) 0.2802(3)
H48 H 0.3423(13) 0.8279(15) 0.2877(3)
H49 H 0.2084(13) 0.8342(15) 0.2937(3)
H50 H 0.2775(13) 0.9132(15) 0.2835(3)
C23 C 0.4855(16) 1.1416(9) 0.2060(4)
H51 H 0.5650(16) 1.1203(9) 0.2096(4)
H52 H 0.4739(16) 1.1804(9) 0.2246(4)
C24 C 0.4726(17) 1.1855(8) 0.1727(4)
H53 H 0.5292(17) 1.2303(8) 0.1732(4)
H54 H 0.3946(17) 1.2097(8) 0.1698(4)
C25 C 0.6099(12) 1.1157(8) 0.1344(4)
H55 H 0.6520(12) 1.0918(8) 0.1549(4)
H56 H 0.6466(12) 1.1682(8) 0.1297(4)
C26 C 0.6194(11) 1.0579(8) 0.1035(4)
H57 H 0.5792(11) 1.0824(8) 0.0828(4)
H58 H 0.7015(11) 1.0509(8) 0.0993(4)
C27 C 0.5558(10) 0.9207(8) 0.0801(3)
H59 H 0.6336(10) 0.9045(8) 0.0741(3)
H60 H 0.5176(10) 0.9499(8) 0.0602(3)
C28 C 0.4869(11) 0.8454(8) 0.0869(4)
H61 H 0.4811(11) 0.8106(8) 0.0663(4)
H62 H 0.5275(11) 0.8142(8) 0.1058(4)
Sr2 Sr 0.26972(7) 0.62677(5) 0.09957(2)
O5 O 0.4623(5) 0.6048(4) 0.0742(2)
O6 O 0.2734(6) 0.6884(4) 0.0402(2)
O7 O 0.1346(6) 0.5947(4) 0.1461(2)
O8 O 0.1470(5) 0.7478(3) 0.1100(2)
N5 N 0.4007(13) 0.6962(7) 0.1557(3)
H7 H 0.4566(13) 0.7286(7) 0.1476(3)
H8 H 0.3534(13) 0.7287(7) 0.1673(3)
N6 N 0.3900(11) 0.5201(7) 0.1447(3)
H9 H 0.3364(11) 0.5517(7) 0.1349(3)
N7 N 0.2430(12) 0.4593(7) 0.0855(4)
H10 H 0.2762(12) 0.5050(7) 0.0804(4)
N8 N 0.0673(9) 0.5818(9) 0.0619(4)
H11 H 0.0068(9) 0.5877(9) 0.0753(4)
H12 H 0.0550(9) 0.6163(9) 0.0436(4)
C29 C 0.5111(7) 0.6216(5) 0.0471(3)
C30 C 0.6399(7) 0.5961(6) 0.0469(3)
C31 C 0.6579(12) 0.5145(10) 0.0653(6)
H63 H 0.6131(12) 0.4724(10) 0.0526(6)
H64 H 0.6324(12) 0.5187(10) 0.0884(6)
H65 H 0.7398(12) 0.5001(10) 0.0667(6)
C32 C 0.7093(12) 0.6597(11) 0.0664(7)
H66 H 0.6821(12) 0.6651(11) 0.0893(7)
H67 H 0.7004(12) 0.7116(11) 0.0544(7)
H68 H 0.7907(12) 0.6439(11) 0.0684(7)
C33 C 0.6833(15) 0.5883(19) 0.0114(5)
H69 H 0.6387(15) 0.5467(19) -0.0015(5)
H70 H 0.7648(15) 0.5730(19) 0.0136(5)
H71 H 0.6742(15) 0.6404(19) -0.0005(5)
C34 C 0.4545(8) 0.6620(5) 0.0184(2)
H72 H 0.4968(8) 0.6687(5) -0.0011(2)
C35 C 0.3395(8) 0.6934(5) 0.0163(3)
C36 C 0.2887(10) 0.7387(6) -0.0167(3)
C37 C 0.3627(13) 0.7344(10) -0.0475(3)
H73 H 0.3735(13) 0.6776(10) -0.0538(3)
H74 H 0.4379(13) 0.7593(10) -0.0414(3)
H75 H 0.3238(13) 0.7635(10) -0.0669(3)
C38 C 0.1682(13) 0.6982(12) -0.0280(4)
H76 H 0.1800(13) 0.6415(12) -0.0342(4)
H77 H 0.1315(13) 0.7274(12) -0.0477(4)
H78 H 0.1187(13) 0.7007(12) -0.0090(4)
C39 C 0.2715(21) 0.8276(8) -0.0069(4)
H79 H 0.2243(21) 0.8303(8) 0.0126(4)
H80 H 0.2326(21) 0.8567(8) -0.0263(4)
H81 H 0.3466(21) 0.8527(8) -0.0007(4)
C40 C 0.0381(8) 0.6239(5) 0.1529(2)
C41 C -0.0350(8) 0.5696(6) 0.1761(2)
C42 C -0.1423(18) 0.5979(12) 0.1852(7)
H82 H -0.1908(18) 0.6124(12) 0.1646(7)
H83 H -0.1306(18) 0.6458(12) 0.1998(7)
H84 H -0.1802(18) 0.5554(12) 0.1976(7)
C43 C 0.0318(22) 0.5532(22) 0.2076(6)
H85 H 0.1073(22) 0.5319(22) 0.2028(6)
H86 H -0.0083(22) 0.5131(22) 0.2207(6)
H87 H 0.0421(22) 0.6034(22) 0.2209(6)
C44 C -0.0525(26) 0.4907(11) 0.1606(7)
H88 H 0.0212(26) 0.4698(11) 0.1540(7)
H89 H -0.1069(26) 0.4953(11) 0.1403(7)
H90 H -0.0837(26) 0.4535(11) 0.1770(7)
C45 C -0.0090(7) 0.6997(5) 0.1411(2)
H91 H -0.0837(7) 0.7133(5) 0.1473(2)
C46 C 0.0478(8) 0.7571(5) 0.1207(2)
C47 C -0.0140(7) 0.8397(5) 0.1096(2)
C48 C -0.0409(17) 0.8376(9) 0.0714(3)
H92 H -0.0930(17) 0.7923(9) 0.0653(3)
H93 H 0.0306(17) 0.8306(9) 0.0602(3)
H94 H -0.0779(17) 0.8886(9) 0.0638(3)
C49 C 0.0686(10) 0.9108(6) 0.1192(4)
H95 H 0.0860(10) 0.9120(6) 0.1440(4)
H96 H 0.0321(10) 0.9619(6) 0.1117(4)
H97 H 0.1402(10) 0.9035(6) 0.1081(4)
C50 C -0.1264(10) 0.8555(7) 0.1274(5)
H98 H -0.1087(10) 0.8566(7) 0.1522(5)
H99 H -0.1820(10) 0.8122(7) 0.1214(5)
H100 H -0.1594(10) 0.9077(7) 0.1198(5)
C51 C 0.4556(17) 0.6379(13) 0.1793(5)
H101 H 0.5336(17) 0.6588(13) 0.1863(5)
H102 H 0.4121(17) 0.6380(13) 0.1999(5)
C52 C 0.4685(17) 0.5552(11) 0.1694(5)
H103 H 0.5462(17) 0.5496(11) 0.1612(5)
H104 H 0.4677(17) 0.5219(11) 0.1904(5)
C53 C 0.3900(19) 0.4374(8) 0.1342(5)
H105 H 0.3871(19) 0.4036(8) 0.1550(5)
H106 H 0.4651(19) 0.4266(8) 0.1250(5)
C54 C 0.2975(23) 0.4073(10) 0.1084(6)
H107 H 0.3319(23) 0.3638(10) 0.0952(6)
H108 H 0.2375(23) 0.3817(10) 0.1212(6)
C55 C 0.1291(19) 0.4389(10) 0.0692(6)
H109 H 0.1381(19) 0.3919(10) 0.0540(6)
H110 H 0.0803(19) 0.4211(10) 0.0872(6)
C56 C 0.0684(19) 0.5011(14) 0.0496(7)
H111 H 0.1000(19) 0.5026(14) 0.0270(7)
H112 H -0.0129(19) 0.4834(14) 0.0458(7)
loop_
_geom_bond_atom_site_label_1
_geom_bond_atom_site_label_2
_geom_bond_site_symmetry_1
_geom_bond_site_symmetry_2
Sr1 O1 1_555 1_555
Sr2 O5 1_555 1_555
O1 C1 1_555 1_555
O2 Sr1 1_555 1_555
O3 Sr1 1_555 1_555
O4 Sr1 1_555 1_555
O5 C29 1_555 1_555
O6 Sr2 1_555 1_555
O7 Sr2 1_555 1_555
O8 Sr2 1_555 1_555
N1 Sr1 1_555 1_555
H1 N1 1_555 1_555
H2 N1 1_555 1_555
N2 Sr1 1_555 1_555
H3 N2 1_555 1_555
N3 Sr1 1_555 1_555
H4 N3 1_555 1_555
N4 Sr1 1_555 1_555
H5 N4 1_555 1_555
H6 N4 1_555 1_555
N5 Sr2 1_555 1_555
H7 N5 1_555 1_555
H8 N5 1_555 1_555
N6 Sr2 1_555 1_555
H9 N6 1_555 1_555
N7 Sr2 1_555 1_555
H10 N7 1_555 1_555
N8 Sr2 1_555 1_555
H11 N8 1_555 1_555
H12 N8 1_555 1_555
C1 C2 1_555 1_555
C2 C3 1_555 1_555
C3 H13 1_555 1_555
H14 C3 1_555 1_555
H15 C3 1_555 1_555
C4 C2 1_555 1_555
H16 C4 1_555 1_555
H17 C4 1_555 1_555
H18 C4 1_555 1_555
C5 C2 1_555 1_555
H19 C5 1_555 1_555
H20 C5 1_555 1_555
H21 C5 1_555 1_555
C6 C1 1_555 1_555
H22 C6 1_555 1_555
C7 O2 1_555 1_555
C8 C7 1_555 1_555
C9 C8 1_555 1_555
H23 C9 1_555 1_555
H24 C9 1_555 1_555
H25 C9 1_555 1_555
C10 C8 1_555 1_555
H26 C10 1_555 1_555
H27 C10 1_555 1_555
H28 C10 1_555 1_555
C11 C8 1_555 1_555
H29 C11 1_555 1_555
H30 C11 1_555 1_555
H31 C11 1_555 1_555
C12 O3 1_555 1_555
C13 C12 1_555 1_555
C14 C13 1_555 1_555
H32 C14 1_555 1_555
H33 C14 1_555 1_555
H34 C14 1_555 1_555
C15 C13 1_555 1_555
H35 C15 1_555 1_555
H36 C15 1_555 1_555
H37 C15 1_555 1_555
C16 C13 1_555 1_555
H38 C16 1_555 1_555
H39 C16 1_555 1_555
H40 C16 1_555 1_555
C17 C12 1_555 1_555
H41 C17 1_555 1_555
C18 O4 1_555 1_555
C19 C18 1_555 1_555
C20 C19 1_555 1_555
H42 C20 1_555 1_555
H43 C20 1_555 1_555
H44 C20 1_555 1_555
C21 C19 1_555 1_555
H45 C21 1_555 1_555
H46 C21 1_555 1_555
H47 C21 1_555 1_555
C22 C19 1_555 1_555
H48 C22 1_555 1_555
H49 C22 1_555 1_555
H50 C22 1_555 1_555
C23 N1 1_555 1_555
H51 C23 1_555 1_555
H52 C23 1_555 1_555
C24 N2 1_555 1_555
H53 C24 1_555 1_555
H54 C24 1_555 1_555
C25 N2 1_555 1_555
H55 C25 1_555 1_555
H56 C25 1_555 1_555
C26 N3 1_555 1_555
H57 C26 1_555 1_555
H58 C26 1_555 1_555
C27 N3 1_555 1_555
H59 C27 1_555 1_555
H60 C27 1_555 1_555
C28 N4 1_555 1_555
H61 C28 1_555 1_555
H62 C28 1_555 1_555
C29 C30 1_555 1_555
C30 C31 1_555 1_555
C31 H63 1_555 1_555
H64 C31 1_555 1_555
H65 C31 1_555 1_555
C32 C30 1_555 1_555
H66 C32 1_555 1_555
H67 C32 1_555 1_555
H68 C32 1_555 1_555
C33 C30 1_555 1_555
H69 C33 1_555 1_555
H70 C33 1_555 1_555
H71 C33 1_555 1_555
C34 C29 1_555 1_555
H72 C34 1_555 1_555
C35 O6 1_555 1_555
C36 C35 1_555 1_555
C37 C36 1_555 1_555
H73 C37 1_555 1_555
H74 C37 1_555 1_555
H75 C37 1_555 1_555
C38 C36 1_555 1_555
H76 C38 1_555 1_555
H77 C38 1_555 1_555
H78 C38 1_555 1_555
C39 C36 1_555 1_555
H79 C39 1_555 1_555
H80 C39 1_555 1_555
H81 C39 1_555 1_555
C40 O7 1_555 1_555
C41 C40 1_555 1_555
C42 C41 1_555 1_555
H82 C42 1_555 1_555
H83 C42 1_555 1_555
H84 C42 1_555 1_555
C43 C41 1_555 1_555
H85 C43 1_555 1_555
H86 C43 1_555 1_555
H87 C43 1_555 1_555
C44 C41 1_555 1_555
H88 C44 1_555 1_555
H89 C44 1_555 1_555
H90 C44 1_555 1_555
C45 C40 1_555 1_555
H91 C45 1_555 1_555
C46 O8 1_555 1_555
C47 C46 1_555 1_555
C48 C47 1_555 1_555
H92 C48 1_555 1_555
H93 C48 1_555 1_555
H94 C48 1_555 1_555
C49 C47 1_555 1_555
H95 C49 1_555 1_555
H96 C49 1_555 1_555
H97 C49 1_555 1_555
C50 C47 1_555 1_555
H98 C50 1_555 1_555
H99 C50 1_555 1_555
H100 C50 1_555 1_555
C51 N5 1_555 1_555
H101 C51 1_555 1_555
H102 C51 1_555 1_555
C52 N6 1_555 1_555
H103 C52 1_555 1_555
H104 C52 1_555 1_555
C53 N6 1_555 1_555
H105 C53 1_555 1_555
H106 C53 1_555 1_555
C54 N7 1_555 1_555
H107 C54 1_555 1_555
H108 C54 1_555 1_555
C55 N7 1_555 1_555
H109 C55 1_555 1_555
H110 C55 1_555 1_555
C56 N8 1_555 1_555
H111 C56 1_555 1_555
H112 C56 1_555 1_555
C6 C7 1_555 1_555
C17 C18 1_555 1_555
C23 C24 1_555 1_555
C25 C26 1_555 1_555
C27 C28 1_555 1_555
C34 C35 1_555 1_555
C45 C46 1_555 1_555
C51 C52 1_555 1_555
C53 C54 1_555 1_555
C55 C56 1_555 1_555

#END
