
#######################################################################
#
#                 Cambridge Crystallographic Data Centre
#                                CCDC 
#
#######################################################################
#
# If this CIF has been generated from an entry in the Cambridge 
# Structural Database, then it will include bibliographic, chemical, 
# crystal, experimental, refinement or atomic coordinate data resulting 
# from the CCDC's data processing and validation procedures.
#
#######################################################################

data_QIFCUD
_chemical_name_common            8
_chemical_formula_moiety         'C22 H22 N2 O5 S1'
_chemical_name_systematic        
'(2R,5S,6R,7R)-Methyl 1-aza-6-(N-benzyloxycarbonylamino)-7-oxo-5-phenyl-4-thiabicyclo(3.3.0)octane-2-carboxylate'
_symmetry_cell_setting           orthorhombic
_symmetry_space_group_name_H-M   'P 21 21 2'
_symmetry_Int_Tables_number      18
_space_group_name_Hall           'P 2 2ab'
loop_
_symmetry_equiv_pos_site_id
_symmetry_equiv_pos_as_xyz
1 x,y,z
2 -x,-y,z
3 1/2-x,1/2+y,-z
4 1/2+x,1/2-y,-z
_cell_length_a                   9.5765(12)
_cell_length_b                   40.171(5)
_cell_length_c                   5.3387(7)
_cell_angle_alpha                90
_cell_angle_beta                 90
_cell_angle_gamma                90
_cell_volume                     2053.78
_exptl_crystal_colour            colorless
_exptl_crystal_description       plate
_cell_formula_units_Z            4
loop_
_atom_site_label
_atom_site_type_symbol
_atom_site_fract_x
_atom_site_fract_y
_atom_site_fract_z
N1 N -0.5903(2) -0.20839(5) -0.6050(4)
C1 C -0.5542(3) -0.24109(6) -0.5071(5)
H1 H -0.4525 -0.2457 -0.5323
C2 C -0.5886(3) -0.23933(6) -0.2270(5)
H2 H -0.5101 -0.2293 -0.1330
H3 H -0.6065 -0.2619 -0.1594
S1 S -0.74495(8) -0.213449(15) -0.20029(12)
C3 C -0.7185(3) -0.19395(6) -0.5087(5)
H4 H -0.7984 -0.1994 -0.6224
C4 C -0.6895(3) -0.15624(6) -0.5117(5)
H5 H -0.6414 -0.1505 -0.3513
C5 C -0.5822(3) -0.15309(6) -0.7231(6)
H6 H -0.6328 -0.1528 -0.8869
C6 C -0.4992(3) -0.18571(6) -0.7038(5)
O1 O -0.37972(19) -0.19061(4) -0.7698(4)
C7 C -0.6426(3) -0.26769(7) -0.6367(5)
O2 O -0.58268(18) -0.29740(4) -0.6100(4)
O3 O -0.7515(2) -0.26242(4) -0.7389(3)
C8 C -0.6609(3) -0.32491(6) -0.7200(6)
H7 H -0.6097 -0.3457 -0.6939
H8 H -0.6727 -0.3210 -0.9000
H9 H -0.7528 -0.3264 -0.6401
C9 C -0.8167(3) -0.13446(6) -0.5329(5)
C10 C -0.9132(3) -0.13865(6) -0.7233(6)
H10 H -0.8985 -0.1555 -0.8457
C11 C -1.0310(3) -0.11872(7) -0.7384(6)
H11 H -1.0962 -0.1220 -0.8702
C12 C -1.0541(3) -0.09420(7) -0.5638(6)
H12 H -1.1351 -0.0806 -0.5735
C13 C -0.9579(3) -0.08959(7) -0.3738(6)
H13 H -0.9730 -0.0726 -0.2527
C14 C -0.8403(3) -0.10932(7) -0.3581(6)
H14 H -0.7748 -0.1057 -0.2271
N2 N -0.4969(2) -0.12359(5) -0.7065(5)
H15 H -0.4753 -0.1157 -0.5577
C15 C -0.4493(3) -0.10786(7) -0.9115(6)
O4 O -0.4730(2) -0.11583(5) -1.1252(4)
O5 O -0.37190(19) -0.08086(4) -0.8458(4)
C16 C -0.3159(3) -0.06231(7) -1.0539(6)
H16 H -0.3847 -0.0618 -1.1922
H17 H -0.2300 -0.0732 -1.1162
C17 C -0.2829(3) -0.02724(7) -0.9702(6)
C18 C -0.2749(6) -0.00463(14) -1.1618(12)
H18 H -0.2838 -0.0117 -1.3309
C19 C -0.2538(7) 0.02840(13) -1.1063(12)
H19 H -0.2559 0.0448 -1.2347
C20 C -0.2275(5) 0.03811(8) -0.8398(8)
H20 H -0.1904 0.0593 -0.7960
C21 C -0.2584(8) 0.01593(14) -0.6724(12)
H21 H -0.2665 0.0229 -0.5028
C22 C -0.2807(6) -0.01805(13) -0.7292(12)
H22 H -0.2938 -0.0340 -0.5996
C23? C -0.3159(3) -0.06231(7) -1.0539(6)
H23? H -0.3847 -0.0618 -1.1922
H24? H -0.2300 -0.0732 -1.1162
C24? C -0.2829(3) -0.02724(7) -0.9702(6)
C25? C -0.3800(7) -0.00349(16) -0.9021(14)
H25? H -0.4762 -0.0091 -0.9084
C26? C -0.3424(8) 0.02860(18) -0.8240(17)
H26? H -0.4119 0.0429 -0.7568
C27? C -0.2275(5) 0.03811(8) -0.8398(8)
H27? H -0.2101 0.0613 -0.8275
C28? C -0.1067(7) 0.01508(16) -0.8789(13)
H28? H -0.0125 0.0219 -0.8570
C29? C -0.1434(7) -0.01710(15) -0.9498(13)
H29? H -0.0715 -0.0327 -0.9855
loop_
_geom_bond_atom_site_label_1
_geom_bond_atom_site_label_2
_geom_bond_site_symmetry_1
_geom_bond_site_symmetry_2
N1 C1 1_555 1_555
C1 H1 1_555 1_555
C2 C1 1_555 1_555
H2 C2 1_555 1_555
H3 C2 1_555 1_555
S1 C2 1_555 1_555
C3 N1 1_555 1_555
H4 C3 1_555 1_555
C4 C3 1_555 1_555
H5 C4 1_555 1_555
C5 C4 1_555 1_555
H6 C5 1_555 1_555
C6 N1 1_555 1_555
O1 C6 1_555 1_555
C7 C1 1_555 1_555
O2 C7 1_555 1_555
O3 C7 1_555 1_555
C8 O2 1_555 1_555
H7 C8 1_555 1_555
H8 C8 1_555 1_555
H9 C8 1_555 1_555
C9 C4 1_555 1_555
C10 C9 1_555 1_555
H10 C10 1_555 1_555
C11 C10 1_555 1_555
H11 C11 1_555 1_555
C12 C11 1_555 1_555
H12 C12 1_555 1_555
C13 C12 1_555 1_555
H13 C13 1_555 1_555
C14 C9 1_555 1_555
H14 C14 1_555 1_555
N2 C5 1_555 1_555
H15 N2 1_555 1_555
C15 N2 1_555 1_555
O4 C15 1_555 1_555
O5 C15 1_555 1_555
C16 O5 1_555 1_555
H16 C16 1_555 1_555
H17 C16 1_555 1_555
C17 C16 1_555 1_555
C18 C17 1_555 1_555
H18 C18 1_555 1_555
C19 C18 1_555 1_555
H19 C19 1_555 1_555
C20 C19 1_555 1_555
H20 C20 1_555 1_555
C21 C20 1_555 1_555
H21 C21 1_555 1_555
C22 C17 1_555 1_555
H22 C22 1_555 1_555
S1 C3 1_555 1_555
C5 C6 1_555 1_555
C13 C14 1_555 1_555
C21 C22 1_555 1_555

#END
