
#######################################################################
#
#                 Cambridge Crystallographic Data Centre
#                                CCDC 
#
#######################################################################
#
# If this CIF has been generated from an entry in the Cambridge 
# Structural Database, then it will include bibliographic, chemical, 
# crystal, experimental, refinement or atomic coordinate data resulting 
# from the CCDC's data processing and validation procedures.
#
#######################################################################

data_QIFHAP
_chemical_formula_moiety         'C30 H26 N4 O4 S2'
_chemical_name_systematic        
N-Benzoyl-N'-(2-(2-(2-(N-benzoylthioureido)phenoxy)ethoxy)phenyl)thiourea
_symmetry_cell_setting           monoclinic
_symmetry_space_group_name_H-M   'P 21/n'
_symmetry_Int_Tables_number      14
_space_group_name_Hall           '-P 2yn'
loop_
_symmetry_equiv_pos_site_id
_symmetry_equiv_pos_as_xyz
1 x,y,z
2 1/2-x,1/2+y,1/2-z
3 -x,-y,-z
4 1/2+x,1/2-y,1/2+z
_cell_length_a                   14.1248(7)
_cell_length_b                   5.5175(3)
_cell_length_c                   19.179(1)
_cell_angle_alpha                90
_cell_angle_beta                 108.408(2)
_cell_angle_gamma                90
_cell_volume                     1418.21
_exptl_crystal_colour            colorless
_exptl_crystal_description       block
_cell_formula_units_Z            2
_exptl_crystal_recrystallization_method ethanol/dimethylformamide
loop_
_atom_site_label
_atom_site_type_symbol
_atom_site_fract_x
_atom_site_fract_y
_atom_site_fract_z
S1 S 0.48978(5) 0.17436(18) 0.09278(4)
O1 O 0.16747(13) -0.0118(3) -0.03308(10)
O2 O 0.12806(13) 0.4622(4) 0.05001(11)
N1 N 0.33694(15) -0.0512(4) 0.00232(12)
H1 H 0.3840 -0.1339 -0.0058
N2 N 0.29423(15) 0.2477(4) 0.07012(12)
H2 H 0.2355 0.1950 0.0466
C1 C 0.2323(2) -0.3102(5) -0.09469(15)
C2 C 0.3056(2) -0.4829(5) -0.09043(17)
H3 H 0.3647 -0.4790 -0.0513
C3 C 0.2920(3) -0.6585(5) -0.1431(2)
H4 H 0.3421 -0.7713 -0.1401
C4 C 0.2036(3) -0.6677(6) -0.2008(2)
H5 H 0.1940 -0.7878 -0.2364
C5 C 0.1306(3) -0.5013(6) -0.2056(2)
H6 H 0.0716 -0.5069 -0.2448
C6 C 0.1442(2) -0.3242(6) -0.15244(18)
H7 H 0.0935 -0.2132 -0.1555
C7 C 0.29591(18) 0.4453(5) 0.11721(14)
C8 C 0.20437(18) 0.5646(5) 0.10427(14)
C9 C 0.1968(2) 0.7652(6) 0.14449(16)
H8 H 0.1361 0.8454 0.1348
C10 C 0.2801(2) 0.8479(6) 0.19963(17)
H9 H 0.2756 0.9844 0.2269
C11 C 0.3673(2) 0.7298(7) 0.21351(18)
H10 H 0.4224 0.7846 0.2513
C12 C 0.3775(2) 0.5302(6) 0.17347(18)
H11 H 0.4388 0.4523 0.1841
C13 C 0.24112(19) -0.1160(5) -0.03972(15)
C14 C 0.36826(19) 0.1287(5) 0.05589(14)
C15 C 0.03241(18) 0.5768(6) 0.03060(16)
H12 H 0.0360 0.7417 0.0141
H13 H 0.0070 0.5793 0.0720
S1B S -0.48978(5) 0.82564(18) -0.09278(4)
O1B O -0.16747(13) 1.0118(3) 0.03308(10)
O2B O -0.12806(13) 0.5378(4) -0.05001(11)
N1B N -0.33694(15) 1.0512(4) -0.00232(12)
H1B H -0.3840 1.1339 0.0058
N2B N -0.29423(15) 0.7523(4) -0.07012(12)
H2B H -0.2355 0.8050 -0.0466
C1B C -0.2323(2) 1.3102(5) 0.09469(15)
C2B C -0.3056(2) 1.4829(5) 0.09043(17)
H3B H -0.3647 1.4790 0.0513
C3B C -0.2920(3) 1.6585(5) 0.1431(2)
H4B H -0.3421 1.7713 0.1401
C4B C -0.2036(3) 1.6677(6) 0.2008(2)
H5B H -0.1940 1.7878 0.2364
C5B C -0.1306(3) 1.5013(6) 0.2056(2)
H6B H -0.0716 1.5069 0.2448
C6B C -0.1442(2) 1.3242(6) 0.15244(18)
H7B H -0.0935 1.2132 0.1555
C7B C -0.29591(18) 0.5547(5) -0.11721(14)
C8B C -0.20437(18) 0.4354(5) -0.10427(14)
C9B C -0.1968(2) 0.2348(6) -0.14449(16)
H8B H -0.1361 0.1546 -0.1348
C10B C -0.2801(2) 0.1521(6) -0.19963(17)
H9B H -0.2756 0.0156 -0.2269
C11B C -0.3673(2) 0.2702(7) -0.21351(18)
H10B H -0.4224 0.2154 -0.2513
C12B C -0.3775(2) 0.4698(6) -0.17347(18)
H11B H -0.4388 0.5477 -0.1841
C13B C -0.24112(19) 1.1160(5) 0.03972(15)
C14B C -0.36826(19) 0.8713(5) -0.05589(14)
C15B C -0.03241(18) 0.4232(6) -0.03060(16)
H12B H -0.0360 0.2583 -0.0141
H13B H -0.0070 0.4207 -0.0720
loop_
_geom_bond_atom_site_label_1
_geom_bond_atom_site_label_2
_geom_bond_site_symmetry_1
_geom_bond_site_symmetry_2
S1 C14 1_555 1_555
O1 C13 1_555 1_555
O2 C8 1_555 1_555
N1 H1 1_555 1_555
N2 H2 1_555 1_555
C1 C2 1_555 1_555
C2 H3 1_555 1_555
C3 C2 1_555 1_555
H4 C3 1_555 1_555
C4 C3 1_555 1_555
H5 C4 1_555 1_555
C5 C4 1_555 1_555
H6 C5 1_555 1_555
C6 C1 1_555 1_555
H7 C6 1_555 1_555
C7 N2 1_555 1_555
C8 C7 1_555 1_555
C9 C8 1_555 1_555
H8 C9 1_555 1_555
C10 C9 1_555 1_555
H9 C10 1_555 1_555
C11 C10 1_555 1_555
H10 C11 1_555 1_555
C12 C7 1_555 1_555
H11 C12 1_555 1_555
C13 N1 1_555 1_555
C14 N1 1_555 1_555
C15 O2 1_555 1_555
H12 C15 1_555 1_555
H13 C15 1_555 1_555
S1B C14B 1_555 1_555
O1B C13B 1_555 1_555
O2B C8B 1_555 1_555
N1B H1B 1_555 1_555
N2B H2B 1_555 1_555
C1B C2B 1_555 1_555
C2B H3B 1_555 1_555
C3B C2B 1_555 1_555
H4B C3B 1_555 1_555
C4B C3B 1_555 1_555
H5B C4B 1_555 1_555
C5B C4B 1_555 1_555
H6B C5B 1_555 1_555
C6B C1B 1_555 1_555
H7B C6B 1_555 1_555
C7B N2B 1_555 1_555
C8B C7B 1_555 1_555
C9B C8B 1_555 1_555
H8B C9B 1_555 1_555
C10B C9B 1_555 1_555
H9B C10B 1_555 1_555
C11B C10B 1_555 1_555
H10B C11B 1_555 1_555
C12B C7B 1_555 1_555
H11B C12B 1_555 1_555
C13B N1B 1_555 1_555
C14B N1B 1_555 1_555
C15B C15 1_555 1_555
H12B C15B 1_555 1_555
H13B C15B 1_555 1_555
N2 C14 1_555 1_555
C1 C13 1_555 1_555
C5 C6 1_555 1_555
C11 C12 1_555 1_555
O2B C15B 1_555 1_555
N2B C14B 1_555 1_555
C1B C13B 1_555 1_555
C5B C6B 1_555 1_555
C11B C12B 1_555 1_555

#END
