
#######################################################################
#
#                 Cambridge Crystallographic Data Centre
#                                CCDC 
#
#######################################################################
#
# If this CIF has been generated from an entry in the Cambridge 
# Structural Database, then it will include bibliographic, chemical, 
# crystal, experimental, refinement or atomic coordinate data resulting 
# from the CCDC's data processing and validation procedures.
#
#######################################################################

data_QIGBOA
_chemical_formula_moiety         'C22 H17 N1 O2 S1'
_chemical_name_systematic        
2-[1-phenyl-2-(phenylsulfonyl)ethenyl]-1H-indole
_symmetry_cell_setting           monoclinic
_symmetry_space_group_name_H-M   'P 21/c'
_symmetry_Int_Tables_number      14
_space_group_name_Hall           '-P 2ybc'
loop_
_symmetry_equiv_pos_site_id
_symmetry_equiv_pos_as_xyz
1 x,y,z
2 -x,1/2+y,1/2-z
3 -x,-y,-z
4 x,1/2-y,1/2+z
_cell_length_a                   9.1524(6)
_cell_length_b                   11.9912(7)
_cell_length_c                   16.2594(10)
_cell_angle_alpha                90
_cell_angle_beta                 104.480(2)
_cell_angle_gamma                90
_cell_volume                     1727.76
_exptl_crystal_colour            colorless
_exptl_crystal_description       block
_cell_formula_units_Z            4
loop_
_atom_site_label
_atom_site_type_symbol
_atom_site_fract_x
_atom_site_fract_y
_atom_site_fract_z
S1 S 0.51027(5) 0.35986(4) 0.81783(3)
O1 O 0.49296(16) 0.24217(11) 0.79938(9)
O2 O 0.38421(16) 0.41883(12) 0.83550(9)
N1 N 0.62096(18) 0.57596(12) 0.59993(10)
C1 C 0.6879(2) 0.47377(14) 0.62426(11)
C2 C 0.7725(2) 0.44388(15) 0.56875(11)
H1 H 0.8299 0.3774 0.5709
C3 C 0.7587(2) 0.53062(15) 0.50743(11)
C4 C 0.8177(2) 0.54794(16) 0.43650(12)
H2 H 0.8801 0.4934 0.4201
C5 C 0.7829(2) 0.64580(17) 0.39121(12)
H3 H 0.8221 0.6586 0.3432
C6 C 0.6907(2) 0.72670(17) 0.41497(12)
H4 H 0.6693 0.7934 0.3827
C7 C 0.6305(2) 0.71204(16) 0.48385(12)
H5 H 0.5683 0.7674 0.4996
C8 C 0.6643(2) 0.61263(15) 0.52973(11)
C9 C 0.6662(2) 0.40892(14) 0.69579(11)
C10 C 0.7800(2) 0.31894(14) 0.72542(11)
C11 C 0.9273(2) 0.34910(15) 0.76564(12)
H6 H 0.9541 0.4257 0.7718
C12 C 1.0358(2) 0.26814(16) 0.79691(12)
H7 H 1.1360 0.2893 0.8247
C13 C 0.9965(2) 0.15613(16) 0.78729(12)
H8 H 1.0694 0.1004 0.8097
C14 C 0.8511(2) 0.12550(15) 0.74500(12)
H9 H 0.8254 0.0488 0.7374
C15 C 0.7427(2) 0.20627(15) 0.71366(12)
H10 H 0.6435 0.1848 0.6843
C16 C 0.5532(2) 0.43182(15) 0.73269(12)
H11 H 0.4902 0.4933 0.7104
C17 C 0.6658(2) 0.37568(15) 0.90648(12)
C18 C 0.6717(2) 0.46889(17) 0.95806(13)
H12 H 0.5929 0.5226 0.9461
C19 C 0.7943(3) 0.48228(19) 1.02713(14)
H13 H 0.7997 0.5452 1.0633
C20 C 0.9092(3) 0.4038(2) 1.04344(13)
H14 H 0.9938 0.4139 1.0905
C21 C 0.9020(2) 0.31135(18) 0.99216(13)
H15 H 0.9815 0.2582 1.0040
C22 C 0.7789(2) 0.29575(16) 0.92330(13)
H16 H 0.7722 0.2315 0.8883
H17 H 0.570(3) 0.618(2) 0.6280(16)
loop_
_geom_bond_atom_site_label_1
_geom_bond_atom_site_label_2
_geom_bond_site_symmetry_1
_geom_bond_site_symmetry_2
S1 O1 1_555 1_555
O2 S1 1_555 1_555
N1 C1 1_555 1_555
C1 C2 1_555 1_555
C2 H1 1_555 1_555
C3 C2 1_555 1_555
C4 C3 1_555 1_555
H2 C4 1_555 1_555
C5 C4 1_555 1_555
H3 C5 1_555 1_555
C6 C5 1_555 1_555
H4 C6 1_555 1_555
C7 C6 1_555 1_555
H5 C7 1_555 1_555
C8 N1 1_555 1_555
C9 C1 1_555 1_555
C10 C9 1_555 1_555
C11 C10 1_555 1_555
H6 C11 1_555 1_555
C12 C11 1_555 1_555
H7 C12 1_555 1_555
C13 C12 1_555 1_555
H8 C13 1_555 1_555
C14 C13 1_555 1_555
H9 C14 1_555 1_555
C15 C10 1_555 1_555
H10 C15 1_555 1_555
C16 S1 1_555 1_555
H11 C16 1_555 1_555
C17 S1 1_555 1_555
C18 C17 1_555 1_555
H12 C18 1_555 1_555
C19 C18 1_555 1_555
H13 C19 1_555 1_555
C20 C19 1_555 1_555
H14 C20 1_555 1_555
C21 C20 1_555 1_555
H15 C21 1_555 1_555
C22 C17 1_555 1_555
H16 C22 1_555 1_555
H17 N1 1_555 1_555
C3 C8 1_555 1_555
C7 C8 1_555 1_555
C9 C16 1_555 1_555
C14 C15 1_555 1_555
C21 C22 1_555 1_555

#END
