
#######################################################################
#
#                 Cambridge Crystallographic Data Centre
#                                CCDC 
#
#######################################################################
#
# If this CIF has been generated from an entry in the Cambridge 
# Structural Database, then it will include bibliographic, chemical, 
# crystal, experimental, refinement or atomic coordinate data resulting 
# from the CCDC's data processing and validation procedures.
#
#######################################################################

data_QIGBEQ
_chemical_formula_moiety         'C27 H21 N1 O3 S1,C4 H8 O2'
_chemical_name_systematic        
'diphenyl[3-(phenylsulfonyl)-1H-indol-2-yl]methanol ethyl acetate solvate'
_symmetry_cell_setting           triclinic
_symmetry_space_group_name_H-M   'P -1'
_symmetry_Int_Tables_number      2
_space_group_name_Hall           '-P 1'
loop_
_symmetry_equiv_pos_site_id
_symmetry_equiv_pos_as_xyz
1 x,y,z
2 -x,-y,-z
_cell_length_a                   9.2961(19)
_cell_length_b                   11.453(3)
_cell_length_c                   13.679(3)
_cell_angle_alpha                66.577(7)
_cell_angle_beta                 83.279(7)
_cell_angle_gamma                87.817(7)
_cell_volume                     1327.13
_exptl_crystal_colour            colorless
_exptl_crystal_description       block
_cell_formula_units_Z            2
loop_
_atom_site_label
_atom_site_type_symbol
_atom_site_fract_x
_atom_site_fract_y
_atom_site_fract_z
S1 S 0.23343(9) 0.59774(8) 0.23026(6)
O1 O 0.1202(2) 0.6780(2) 0.2510(2)
O2 O 0.2245(3) 0.5587(2) 0.14327(19)
O3 O 0.2278(3) 0.8983(2) 0.23510(19)
H1 H 0.1774 0.8389 0.2393
N1 N 0.5852(3) 0.7869(3) 0.2112(2)
C1 C 0.4397(3) 0.7692(3) 0.2370(2)
C2 C 0.4005(3) 0.6715(3) 0.2090(2)
C3 C 0.5296(3) 0.6311(3) 0.1606(2)
C4 C 0.5605(4) 0.5422(3) 0.1143(3)
H2 H 0.4873 0.4923 0.1095
C5 C 0.7024(4) 0.5305(3) 0.0759(3)
H3 H 0.7239 0.4733 0.0436
C6 C 0.8135(4) 0.6026(4) 0.0845(3)
H4 H 0.9083 0.5903 0.0603
C7 C 0.7857(4) 0.6922(3) 0.1284(3)
H5 H 0.8593 0.7421 0.1327
C8 C 0.6429(4) 0.7043(3) 0.1656(3)
C9 C 0.2317(3) 0.4585(3) 0.3491(3)
C10 C 0.2814(4) 0.3451(3) 0.3431(3)
H6 H 0.3199 0.3431 0.2779
C11 C 0.2724(4) 0.2350(3) 0.4362(3)
H7 H 0.3047 0.1583 0.4337
C12 C 0.2156(4) 0.2390(3) 0.5327(3)
H8 H 0.2084 0.1646 0.5946
C13 C 0.1697(4) 0.3523(3) 0.5381(3)
H9 H 0.1336 0.3542 0.6038
C14 C 0.1768(4) 0.4631(3) 0.4465(3)
H10 H 0.1454 0.5396 0.4500
C15 C 0.3524(3) 0.8499(3) 0.2886(2)
C16 C 0.3113(3) 0.7684(3) 0.4080(2)
C17 C 0.1814(4) 0.7876(3) 0.4593(3)
H11 H 0.1184 0.8495 0.4210
C18 C 0.1440(4) 0.7153(4) 0.5675(3)
H12 H 0.0556 0.7285 0.6010
C19 C 0.2361(5) 0.6248(4) 0.6255(3)
H13 H 0.2105 0.5767 0.6980
C20 C 0.3664(4) 0.6054(3) 0.5760(3)
H14 H 0.4296 0.5446 0.6153
C21 C 0.4044(4) 0.6761(3) 0.4676(3)
H15 H 0.4926 0.6619 0.4345
C22 C 0.4378(3) 0.9686(3) 0.2729(3)
C23 C 0.5058(4) 0.9800(3) 0.3533(3)
H16 H 0.5020 0.9124 0.4199
C24 C 0.5795(4) 1.0905(3) 0.3365(3)
H17 H 0.6245 1.0964 0.3916
C25 C 0.5862(4) 1.1909(3) 0.2390(3)
H18 H 0.6347 1.2653 0.2280
C26 C 0.5213(5) 1.1814(3) 0.1575(3)
H19 H 0.5271 1.2490 0.0908
C27 C 0.4468(4) 1.0711(3) 0.1742(3)
H20 H 0.4023 1.0658 0.1186
H21 H 0.646(5) 0.847(4) 0.219(4)
O4 O 0.8164(3) -0.0488(2) 0.1977(2)
O5 O 0.9316(3) 0.1367(2) 0.11594(19)
C28 C 1.0685(7) 0.2341(6) 0.1969(5)
H22 H 1.1504 0.2383 0.1459
H23 H 1.1015 0.2278 0.2628
H24 H 1.0118 0.3096 0.1689
C29 C 0.9797(4) 0.1225(4) 0.2171(3)
H25 H 1.0361 0.0456 0.2452
H26 H 0.8970 0.1169 0.2691
C30 C 0.8492(4) 0.0448(3) 0.1174(3)
C31 C 0.8067(6) 0.0679(5) 0.0100(3)
H27 H 0.8140 -0.0098 -0.0012
H28 H 0.8699 0.1311 -0.0441
H29 H 0.7087 0.0975 0.0059
loop_
_geom_bond_atom_site_label_1
_geom_bond_atom_site_label_2
_geom_bond_site_symmetry_1
_geom_bond_site_symmetry_2
S1 O1 1_555 1_555
O2 S1 1_555 1_555
O3 H1 1_555 1_555
N1 C1 1_555 1_555
C1 C2 1_555 1_555
C2 S1 1_555 1_555
C3 C2 1_555 1_555
C4 C3 1_555 1_555
H2 C4 1_555 1_555
C5 C4 1_555 1_555
H3 C5 1_555 1_555
C6 C5 1_555 1_555
H4 C6 1_555 1_555
C7 C6 1_555 1_555
H5 C7 1_555 1_555
C8 N1 1_555 1_555
C9 S1 1_555 1_555
C10 C9 1_555 1_555
H6 C10 1_555 1_555
C11 C10 1_555 1_555
H7 C11 1_555 1_555
C12 C11 1_555 1_555
H8 C12 1_555 1_555
C13 C12 1_555 1_555
H9 C13 1_555 1_555
C14 C9 1_555 1_555
H10 C14 1_555 1_555
C15 O3 1_555 1_555
C16 C15 1_555 1_555
C17 C16 1_555 1_555
H11 C17 1_555 1_555
C18 C17 1_555 1_555
H12 C18 1_555 1_555
C19 C18 1_555 1_555
H13 C19 1_555 1_555
C20 C19 1_555 1_555
H14 C20 1_555 1_555
C21 C16 1_555 1_555
H15 C21 1_555 1_555
C22 C15 1_555 1_555
C23 C22 1_555 1_555
H16 C23 1_555 1_555
C24 C23 1_555 1_555
H17 C24 1_555 1_555
C25 C24 1_555 1_555
H18 C25 1_555 1_555
C26 C25 1_555 1_555
H19 C26 1_555 1_555
C27 C22 1_555 1_555
H20 C27 1_555 1_555
H21 N1 1_555 1_555
O4 C30 1_555 1_555
O5 C29 1_555 1_555
C28 H22 1_555 1_555
H23 C28 1_555 1_555
H24 C28 1_555 1_555
C29 C28 1_555 1_555
H25 C29 1_555 1_555
H26 C29 1_555 1_555
C30 O5 1_555 1_555
C31 C30 1_555 1_555
H27 C31 1_555 1_555
H28 C31 1_555 1_555
H29 C31 1_555 1_555
C1 C15 1_555 1_555
C3 C8 1_555 1_555
C7 C8 1_555 1_555
C13 C14 1_555 1_555
C20 C21 1_555 1_555
C26 C27 1_555 1_555

#END
