
#######################################################################
#
#                 Cambridge Crystallographic Data Centre
#                                CCDC 
#
#######################################################################
#
# If this CIF has been generated from an entry in the Cambridge 
# Structural Database, then it will include bibliographic, chemical, 
# crystal, experimental, refinement or atomic coordinate data resulting 
# from the CCDC's data processing and validation procedures.
#
#######################################################################

data_QIGFIY
_chemical_formula_moiety         'C30 H29 N1 O5'
_chemical_name_systematic        
'diethyl 5-(benzenecarbonyl)-1-(3-methylphenyl)-4-phenyl-4,5-dihydro-1H-pyrrole-2,3-dicarboxylate'
_symmetry_cell_setting           monoclinic
_symmetry_space_group_name_H-M   'P 21/c'
_symmetry_Int_Tables_number      14
_space_group_name_Hall           '-P 2ybc'
loop_
_symmetry_equiv_pos_site_id
_symmetry_equiv_pos_as_xyz
1 x,y,z
2 -x,1/2+y,1/2-z
3 -x,-y,-z
4 x,1/2-y,1/2+z
_cell_length_a                   14.01650(10)
_cell_length_b                   9.92850(10)
_cell_length_c                   18.7196(2)
_cell_angle_alpha                90
_cell_angle_beta                 90.9970(10)
_cell_angle_gamma                90
_cell_volume                     2604.68
_exptl_crystal_colour            colorless
_exptl_crystal_description       block
_cell_formula_units_Z            4
loop_
_atom_site_label
_atom_site_type_symbol
_atom_site_fract_x
_atom_site_fract_y
_atom_site_fract_z
O1 O 0.07345(9) 0.34154(15) 0.13442(8)
O2 O 0.42279(11) 0.19147(13) 0.21205(9)
N1 N 0.30867(9) 0.37034(13) 0.27564(7)
O3 O 0.15337(11) 0.48749(17) 0.06657(8)
O4 O 0.07082(9) 0.34257(17) 0.28899(9)
O5 O 0.15233(13) 0.15059(16) 0.27620(10)
C1 C 0.31729(10) 0.48724(15) 0.16522(8)
H1 H 0.3438 0.4661 0.1184
C2 C 0.32527(11) 0.36464(14) 0.34980(8)
C3 C 0.30712(10) 0.63813(15) 0.17373(8)
C4 C 0.22345(10) 0.41359(15) 0.17466(8)
C5 C 0.52334(10) 0.33984(15) 0.15065(8)
C6 C 0.37947(10) 0.42190(15) 0.22558(8)
H2 H 0.4196 0.4903 0.2490
C7 C 0.22246(10) 0.35607(15) 0.23941(8)
C8 C 0.44146(11) 0.30674(15) 0.19732(8)
C9 C 0.25167(12) 0.38434(16) 0.39769(9)
H3 H 0.1907 0.4038 0.3802
C10 C 0.57015(12) 0.23382(16) 0.11740(9)
H4 H 0.5492 0.1459 0.1239
C11 C 0.55640(12) 0.47012(17) 0.14052(10)
H5 H 0.5260 0.5419 0.1625
C12 C 0.14826(12) 0.42009(18) 0.11977(10)
C13 C 0.41720(12) 0.34369(17) 0.37624(9)
H6 H 0.4677 0.3336 0.3451
C14 C 0.26747(13) 0.37548(18) 0.47096(9)
C15 C 0.64753(13) 0.2588(2) 0.07479(10)
H7 H 0.6783 0.1876 0.0526
C16 C 0.26690(14) 0.69393(18) 0.23419(9)
H8 H 0.2439 0.6377 0.2697
C17 C 0.35912(15) 0.35138(18) 0.49629(9)
H9 H 0.3709 0.3443 0.5452
C18 C 0.33976(13) 0.72419(19) 0.12208(11)
H10 H 0.3668 0.6893 0.0810
C19 C 0.43292(14) 0.33790(19) 0.44937(10)
H11 H 0.4946 0.3246 0.4671
C20 C 0.14504(12) 0.2692(2) 0.27028(10)
C21 C 0.63440(13) 0.4937(2) 0.09780(11)
H12 H 0.6564 0.5812 0.0913
C22 C 0.67933(13) 0.3876(2) 0.06489(11)
H13 H 0.7313 0.4036 0.0359
C23 C 0.26067(15) 0.83135(19) 0.24226(11)
H14 H 0.2341 0.8671 0.2833
C24 C 0.29328(14) 0.91589(19) 0.19042(14)
H15 H 0.2886 1.0088 0.1958
C25 C 0.33277(16) 0.8623(2) 0.13059(15)
H16 H 0.3552 0.9192 0.0952
C26 C 0.18600(17) 0.3963(3) 0.52109(12)
H17 H 0.1621 0.4865 0.5160
H18 H 0.2079 0.3824 0.5694
H19 H 0.1360 0.3334 0.5098
C27 C -0.00812(17) 0.3483(3) 0.08588(17)
H20 H 0.0131 0.3519 0.0369
H21 H -0.0452 0.4287 0.0953
C28 C -0.06675(18) 0.2278(3) 0.09675(19)
H22 H -0.1172 0.2253 0.0614
H23 H -0.0936 0.2304 0.1436
H24 H -0.0278 0.1488 0.0924
C29 C -0.0111(2) 0.2682(4) 0.3142(2)
H25 H -0.0627 0.2764 0.2793
H26 H 0.0057 0.1736 0.3178
C30 C -0.0426(3) 0.3119(5) 0.37946(18)
H27 H -0.0961 0.2583 0.3935
H28 H -0.0617 0.4046 0.3759
H29 H 0.0079 0.3033 0.4145
loop_
_geom_bond_atom_site_label_1
_geom_bond_atom_site_label_2
_geom_bond_site_symmetry_1
_geom_bond_site_symmetry_2
O1 C12 1_555 1_555
O2 C8 1_555 1_555
N1 C2 1_555 1_555
O3 C12 1_555 1_555
O4 C20 1_555 1_555
O5 C20 1_555 1_555
C1 H1 1_555 1_555
C2 C9 1_555 1_555
C3 C1 1_555 1_555
C4 C1 1_555 1_555
C5 C8 1_555 1_555
C6 N1 1_555 1_555
H2 C6 1_555 1_555
C7 N1 1_555 1_555
C8 C6 1_555 1_555
C9 H3 1_555 1_555
C10 C5 1_555 1_555
H4 C10 1_555 1_555
C11 C5 1_555 1_555
H5 C11 1_555 1_555
C12 C4 1_555 1_555
C13 C2 1_555 1_555
H6 C13 1_555 1_555
C14 C9 1_555 1_555
C15 C10 1_555 1_555
H7 C15 1_555 1_555
C16 C3 1_555 1_555
H8 C16 1_555 1_555
C17 C14 1_555 1_555
H9 C17 1_555 1_555
C18 C3 1_555 1_555
H10 C18 1_555 1_555
C19 C13 1_555 1_555
H11 C19 1_555 1_555
C20 C7 1_555 1_555
C21 C11 1_555 1_555
H12 C21 1_555 1_555
C22 C15 1_555 1_555
H13 C22 1_555 1_555
C23 C16 1_555 1_555
H14 C23 1_555 1_555
C24 C23 1_555 1_555
H15 C24 1_555 1_555
C25 C18 1_555 1_555
H16 C25 1_555 1_555
C26 C14 1_555 1_555
H17 C26 1_555 1_555
H18 C26 1_555 1_555
H19 C26 1_555 1_555
C27 O1 1_555 1_555
H20 C27 1_555 1_555
H21 C27 1_555 1_555
C28 C27 1_555 1_555
H22 C28 1_555 1_555
H23 C28 1_555 1_555
H24 C28 1_555 1_555
C29 O4 1_555 1_555
H25 C29 1_555 1_555
H26 C29 1_555 1_555
C30 C29 1_555 1_555
H27 C30 1_555 1_555
H28 C30 1_555 1_555
H29 C30 1_555 1_555
C1 C6 1_555 1_555
C4 C7 1_555 1_555
C17 C19 1_555 1_555
C21 C22 1_555 1_555
C24 C25 1_555 1_555

#END
