
#######################################################################
#
#                 Cambridge Crystallographic Data Centre
#                                CCDC 
#
#######################################################################
#
# If this CIF has been generated from an entry in the Cambridge 
# Structural Database, then it will include bibliographic, chemical, 
# crystal, experimental, refinement or atomic coordinate data resulting 
# from the CCDC's data processing and validation procedures.
#
#######################################################################

data_QIGFEU
_chemical_formula_moiety         'C22 H21 N1 O3'
_chemical_name_systematic        
N,1-diphenyl-1-(2,4,6-trimethoxyphenyl)methanimine
_symmetry_cell_setting           monoclinic
_symmetry_space_group_name_H-M   'P 21/c'
_symmetry_Int_Tables_number      14
_space_group_name_Hall           '-P 2ybc'
loop_
_symmetry_equiv_pos_site_id
_symmetry_equiv_pos_as_xyz
1 x,y,z
2 -x,1/2+y,1/2-z
3 -x,-y,-z
4 x,1/2-y,1/2+z
_cell_length_a                   16.2416(5)
_cell_length_b                   16.5600(6)
_cell_length_c                   14.0383(4)
_cell_angle_alpha                90
_cell_angle_beta                 91.790(2)
_cell_angle_gamma                90
_cell_volume                     3773.91
_exptl_crystal_description       column
_cell_formula_units_Z            8
loop_
_atom_site_label
_atom_site_type_symbol
_atom_site_fract_x
_atom_site_fract_y
_atom_site_fract_z
O1 O 0.03700(7) 0.41139(7) 0.48771(8)
O2 O 0.06976(7) 0.21882(7) 0.73696(7)
O3 O -0.06203(8) 0.13598(7) 0.45354(8)
N1 N 0.04502(8) 0.04700(9) 0.65725(9)
C1 C 0.02445(9) 0.33405(10) 0.51781(11)
C2 C 0.05431(9) 0.31752(10) 0.60977(11)
H1 H 0.0813 0.3582 0.6467
C3 C 0.04392(9) 0.24053(10) 0.64650(11)
C4 C 0.00336(9) 0.18009(10) 0.59394(11)
C5 C -0.02518(10) 0.19865(11) 0.50165(11)
C6 C -0.01454(10) 0.27517(10) 0.46237(11)
H2 H -0.0335 0.2867 0.3991
C7 C 0.00586(12) 0.43301(12) 0.39473(12)
H3 H 0.0187 0.4898 0.3821
H4 H -0.0540 0.4253 0.3913
H5 H 0.0315 0.3988 0.3470
C8 C 0.13050(12) 0.26859(12) 0.78387(13)
H6 H 0.1437 0.2466 0.8473
H7 H 0.1090 0.3236 0.7900
H8 H 0.1804 0.2697 0.7464
C9 C -0.10212(14) 0.15324(13) 0.36363(14)
H9 H -0.1255 0.1034 0.3366
H10 H -0.0620 0.1756 0.3200
H11 H -0.1463 0.1925 0.3727
C10 C -0.01158(10) 0.09899(11) 0.63791(11)
C11 C -0.09675(10) 0.08061(10) 0.66916(11)
C12 C -0.11375(10) 0.00679(11) 0.71191(12)
H12 H -0.0716 -0.0328 0.7184
C13 C -0.19122(11) -0.00957(12) 0.74501(13)
H13 H -0.2016 -0.0596 0.7754
C14 C -0.25388(11) 0.04695(13) 0.73396(14)
H14 H -0.3073 0.0354 0.7560
C15 C -0.23826(12) 0.11980(13) 0.69086(15)
H15 H -0.2811 0.1585 0.6828
C16 C -0.16001(11) 0.13679(12) 0.65910(13)
H16 H -0.1496 0.1875 0.6301
C17 C 0.12787(10) 0.05980(10) 0.63009(12)
C18 C 0.14918(11) 0.06206(11) 0.53532(13)
H17 H 0.1076 0.0601 0.4862
C19 C 0.23175(12) 0.06720(12) 0.51246(15)
H18 H 0.2464 0.0681 0.4475
C20 C 0.29274(12) 0.07099(12) 0.58340(16)
H19 H 0.3489 0.0752 0.5673
C21 C 0.27141(11) 0.06863(12) 0.67767(15)
H20 H 0.3130 0.0715 0.7266
C22 C 0.18948(11) 0.06203(12) 0.70109(14)
H21 H 0.1753 0.0590 0.7661
O4 O 0.44918(7) 0.29089(7) 0.71972(8)
O5 O 0.53871(7) 0.01093(7) 0.70765(8)
O6 O 0.57272(7) 0.19164(7) 0.44895(8)
N2 N 0.54602(8) 0.36553(8) 0.50629(9)
C23 C 0.52772(9) 0.08745(10) 0.67252(11)
C24 C 0.55573(10) 0.09880(10) 0.58096(11)
H22 H 0.5805 0.0555 0.5479
C25 C 0.54704(9) 0.17414(10) 0.53838(11)
C26 C 0.50881(9) 0.23793(10) 0.58558(11)
C27 C 0.48268(9) 0.22434(10) 0.67795(11)
C28 C 0.49211(9) 0.14975(10) 0.72308(11)
H23 H 0.4747 0.1418 0.7864
C29 C 0.51148(11) -0.00512(11) 0.80191(12)
H24 H 0.5227 -0.0617 0.8183
H25 H 0.4522 0.0051 0.8044
H26 H 0.5409 0.0302 0.8475
C30 C 0.61923(13) 0.13153(13) 0.40129(13)
H27 H 0.6338 0.1515 0.3383
H28 H 0.5862 0.0823 0.3940
H29 H 0.6696 0.1196 0.4389
C31 C 0.40435(12) 0.27962(12) 0.80458(12)
H30 H 0.3839 0.3319 0.8265
H31 H 0.4407 0.2559 0.8542
H32 H 0.3577 0.2433 0.7914
C32 C 0.49110(9) 0.31650(10) 0.53628(10)
C33 C 0.40282(9) 0.33817(10) 0.51677(10)
C34 C 0.38123(10) 0.41598(11) 0.48722(11)
H33 H 0.4229 0.4556 0.4798
C35 C 0.29949(10) 0.43588(12) 0.46858(13)
H34 H 0.2854 0.4889 0.4482
C36 C 0.23821(11) 0.37882(12) 0.47957(13)
H35 H 0.1822 0.3928 0.4669
C37 C 0.25865(10) 0.30142(12) 0.50900(12)
H36 H 0.2166 0.2623 0.5166
C38 C 0.34047(10) 0.28092(11) 0.52737(11)
H37 H 0.3542 0.2276 0.5473
C39 C 0.63092(9) 0.35384(10) 0.53004(12)
C40 C 0.65983(10) 0.35293(11) 0.62399(12)
H38 H 0.6220 0.3539 0.6743
C41 C 0.74411(11) 0.35066(12) 0.64465(14)
H39 H 0.7636 0.3503 0.7092
C42 C 0.79968(11) 0.34896(12) 0.57218(15)
H40 H 0.8572 0.3478 0.5865
C43 C 0.77074(11) 0.34892(12) 0.47853(15)
H41 H 0.8087 0.3469 0.4285
C44 C 0.68699(10) 0.35184(11) 0.45684(13)
H42 H 0.6678 0.3525 0.3922
loop_
_geom_bond_atom_site_label_1
_geom_bond_atom_site_label_2
_geom_bond_site_symmetry_1
_geom_bond_site_symmetry_2
O1 C1 1_555 1_555
O2 C3 1_555 1_555
O3 C5 1_555 1_555
N1 C10 1_555 1_555
C1 C2 1_555 1_555
C2 H1 1_555 1_555
C3 C2 1_555 1_555
C4 C3 1_555 1_555
C5 C4 1_555 1_555
C6 C1 1_555 1_555
H2 C6 1_555 1_555
C7 O1 1_555 1_555
H3 C7 1_555 1_555
H4 C7 1_555 1_555
H5 C7 1_555 1_555
C8 O2 1_555 1_555
H6 C8 1_555 1_555
H7 C8 1_555 1_555
H8 C8 1_555 1_555
C9 O3 1_555 1_555
H9 C9 1_555 1_555
H10 C9 1_555 1_555
H11 C9 1_555 1_555
C10 C4 1_555 1_555
C11 C10 1_555 1_555
C12 C11 1_555 1_555
H12 C12 1_555 1_555
C13 C12 1_555 1_555
H13 C13 1_555 1_555
C14 C13 1_555 1_555
H14 C14 1_555 1_555
C15 C14 1_555 1_555
H15 C15 1_555 1_555
C16 C11 1_555 1_555
H16 C16 1_555 1_555
C17 N1 1_555 1_555
C18 C17 1_555 1_555
H17 C18 1_555 1_555
C19 C18 1_555 1_555
H18 C19 1_555 1_555
C20 C19 1_555 1_555
H19 C20 1_555 1_555
C21 C20 1_555 1_555
H20 C21 1_555 1_555
C22 C17 1_555 1_555
H21 C22 1_555 1_555
O4 C27 1_555 1_555
O5 C23 1_555 1_555
O6 C25 1_555 1_555
N2 C32 1_555 1_555
C23 C24 1_555 1_555
C24 H22 1_555 1_555
C25 C24 1_555 1_555
C26 C25 1_555 1_555
C27 C26 1_555 1_555
C28 C23 1_555 1_555
H23 C28 1_555 1_555
C29 O5 1_555 1_555
H24 C29 1_555 1_555
H25 C29 1_555 1_555
H26 C29 1_555 1_555
C30 O6 1_555 1_555
H27 C30 1_555 1_555
H28 C30 1_555 1_555
H29 C30 1_555 1_555
C31 O4 1_555 1_555
H30 C31 1_555 1_555
H31 C31 1_555 1_555
H32 C31 1_555 1_555
C32 C26 1_555 1_555
C33 C32 1_555 1_555
C34 C33 1_555 1_555
H33 C34 1_555 1_555
C35 C34 1_555 1_555
H34 C35 1_555 1_555
C36 C35 1_555 1_555
H35 C36 1_555 1_555
C37 C36 1_555 1_555
H36 C37 1_555 1_555
C38 C33 1_555 1_555
H37 C38 1_555 1_555
C39 N2 1_555 1_555
C40 C39 1_555 1_555
H38 C40 1_555 1_555
C41 C40 1_555 1_555
H39 C41 1_555 1_555
C42 C41 1_555 1_555
H40 C42 1_555 1_555
C43 C42 1_555 1_555
H41 C43 1_555 1_555
C44 C39 1_555 1_555
H42 C44 1_555 1_555
C5 C6 1_555 1_555
C15 C16 1_555 1_555
C21 C22 1_555 1_555
C27 C28 1_555 1_555
C37 C38 1_555 1_555
C43 C44 1_555 1_555

#END
