
#######################################################################
#
#                 Cambridge Crystallographic Data Centre
#                                CCDC 
#
#######################################################################
#
# If this CIF has been generated from an entry in the Cambridge 
# Structural Database, then it will include bibliographic, chemical, 
# crystal, experimental, refinement or atomic coordinate data resulting 
# from the CCDC's data processing and validation procedures.
#
#######################################################################

data_QIGKOJ
_chemical_formula_moiety         'C46 H32 F12 N4 O4 S2,2(C3 H6 O1)'
_chemical_name_systematic        
'13,21,35,43-tetrakis(trifluoromethyl)-3,9,25,31-tetraoxa-16,18,38,40-tetraazaheptacyclo[39.3.1.1^4,8^.1^11,15^.1^19,23^.1^26,30^.1^33,37^]pentaconta-1(45),4(50),5,7,11(49),12,14,19(48),20,22,26(47),27,29,33(46),34,36,41,43-octadecaene-17,39-dithione acetone solvate'
_symmetry_cell_setting           triclinic
_symmetry_space_group_name_H-M   'P -1'
_symmetry_Int_Tables_number      2
_space_group_name_Hall           '-P 1'
loop_
_symmetry_equiv_pos_site_id
_symmetry_equiv_pos_as_xyz
1 x,y,z
2 -x,-y,-z
_cell_length_a                   11.137(7)
_cell_length_b                   14.260(9)
_cell_length_c                   18.220(11)
_cell_angle_alpha                105.63(3)
_cell_angle_beta                 98.577(7)
_cell_angle_gamma                109.824(3)
_cell_volume                     2527.38
_exptl_crystal_colour            colorless
_exptl_crystal_description       block
_cell_formula_units_Z            2
loop_
_atom_site_label
_atom_site_type_symbol
_atom_site_fract_x
_atom_site_fract_y
_atom_site_fract_z
S1 S 0.56726(11) 0.61253(7) 0.25154(5)
S2 S 0.03297(10) 1.13706(7) 0.25409(5)
F1 F 0.7606(3) 0.44825(19) 0.58199(14)
F2 F 0.9057(2) 0.6085(2) 0.62999(13)
F3 F 0.7331(3) 0.5651(2) 0.67181(13)
F4 F 0.0216(3) 1.3242(2) 0.60700(12)
F5 F -0.1518(2) 1.2172(2) 0.51302(15)
F6 F -0.0014(3) 1.3380(2) 0.49231(15)
F7 F -0.2355(2) 1.09786(19) 0.02069(14)
F8 F -0.3999(2) 0.9518(2) -0.01043(19)
F9 F -0.2962(3) 0.9866(3) -0.09606(13)
F10 F 0.5508(2) 0.28416(19) -0.12698(13)
F11 F 0.3897(3) 0.1486(2) -0.13064(15)
F12 F 0.5787(3) 0.2012(2) -0.04947(14)
O1 O 0.6014(2) 0.8358(2) 0.60796(13)
O2 O 0.3432(3) 1.0341(2) 0.57164(13)
O3 O 0.0021(3) 0.68873(19) -0.05982(13)
O4 O 0.2188(3) 0.4502(2) -0.09517(13)
N1 N 0.5092(3) 0.4041(2) 0.19514(15)
N2 N 0.5822(3) 0.4766(2) 0.32757(16)
N3 N 0.0441(3) 0.9959(2) 0.32389(15)
N4 N -0.0158(3) 0.9303(2) 0.18987(15)
C1 C 0.5506(3) 0.4948(3) 0.25858(18)
C2 C 0.6120(3) 0.5441(3) 0.40667(17)
C3 C 0.6788(3) 0.5186(3) 0.46463(19)
H1 H 0.7063 0.4631 0.4503
C4 C 0.7037(3) 0.5772(3) 0.54418(19)
C5 C 0.6643(3) 0.6609(3) 0.56686(18)
H2 H 0.6837 0.7008 0.6200
C6 C 0.5955(3) 0.6837(3) 0.50876(18)
C7 C 0.5686(3) 0.6245(3) 0.42904(18)
H3 H 0.5210 0.6396 0.3906
C8 C 0.7755(4) 0.5498(3) 0.6064(2)
C9 C 0.5408(3) 0.7679(3) 0.52713(17)
H4 H 0.5590 0.8092 0.4926
H5 H 0.4457 0.7350 0.5183
C10 C 0.5569(3) 0.9132(3) 0.63551(18)
C11 C 0.6000(3) 0.9655(3) 0.71748(18)
H6 H 0.6583 0.9494 0.7490
C12 C 0.5546(4) 1.0410(3) 0.75047(19)
H7 H 0.5831 1.0760 0.8049
C13 C 0.4673(4) 1.0665(3) 0.70484(19)
H8 H 0.4361 1.1168 0.7282
C14 C 0.4276(3) 1.0148(3) 0.62308(18)
C15 C 0.4720(3) 0.9384(3) 0.58829(19)
H9 H 0.4450 0.9043 0.5338
C16 C 0.2798(3) 1.0996(3) 0.60480(19)
H10 H 0.3458 1.1697 0.6372
H11 H 0.2304 1.0697 0.6384
C17 C 0.1871(3) 1.1086(3) 0.54032(18)
C18 C 0.1313(3) 1.1814(3) 0.56294(18)
H12 H 0.1516 1.2225 0.6159
C19 C 0.0448(3) 1.1927(3) 0.50609(18)
C20 C 0.0151(3) 1.1330(3) 0.42624(18)
H13 H -0.0439 1.1404 0.3886
C21 C 0.0742(3) 1.0628(3) 0.40366(17)
C22 C 0.1588(3) 1.0489(3) 0.46091(18)
H14 H 0.1961 0.9999 0.4459
C23 C -0.0202(4) 1.2676(3) 0.5294(2)
C24 C 0.0185(3) 1.0175(3) 0.25541(18)
C25 C -0.0641(3) 0.9160(3) 0.10906(18)
C26 C -0.1428(3) 0.9656(3) 0.08508(18)
H15 H -0.1629 1.0129 0.1223
C27 C -0.1913(3) 0.9436(3) 0.00470(19)
C28 C -0.1645(3) 0.8720(3) -0.05165(19)
H16 H -0.1979 0.8581 -0.1051
C29 C -0.0876(3) 0.8212(3) -0.02791(18)
C30 C -0.0367(3) 0.8440(3) 0.05242(19)
H17 H 0.0160 0.8109 0.0685
C31 C -0.2799(4) 0.9945(3) -0.0202(2)
C32 C -0.0596(4) 0.7469(3) -0.09225(18)
H18 H -0.1417 0.6981 -0.1318
H19 H -0.0019 0.7872 -0.1178
C33 C 0.0440(3) 0.6245(3) -0.11128(19)
C34 C 0.0245(4) 0.6092(3) -0.19154(19)
H20 H -0.0194 0.6433 -0.2147
C35 C 0.0722(4) 0.5414(3) -0.2363(2)
H21 H 0.0594 0.5305 -0.2901
C36 C 0.1379(4) 0.4901(3) -0.20361(19)
H22 H 0.1697 0.4456 -0.2345
C37 C 0.1558(3) 0.5063(3) -0.12293(19)
C38 C 0.1098(3) 0.5733(3) -0.07662(19)
H23 H 0.1226 0.5840 -0.0229
C39 C 0.2412(4) 0.4654(3) -0.01301(18)
H24 H 0.1577 0.4341 -0.0011
H25 H 0.2808 0.5406 0.0176
C40 C 0.3319(3) 0.4139(3) 0.00866(18)
C41 C 0.3695(3) 0.3499(3) -0.04680(19)
H26 H 0.3397 0.3372 -0.1004
C42 C 0.4530(3) 0.3047(3) -0.02066(19)
C43 C 0.5007(3) 0.3243(3) 0.05911(19)
H27 H 0.5569 0.2941 0.0756
C44 C 0.4634(3) 0.3898(3) 0.11413(17)
C45 C 0.3779(3) 0.4329(3) 0.08922(18)
H28 H 0.3509 0.4747 0.1261
C46 C 0.4918(4) 0.2346(3) -0.0813(2)
H29 H 0.057(4) 0.940(3) 0.318(2)
H30 H -0.001(4) 0.876(3) 0.196(2)
H31 H 0.522(4) 0.345(3) 0.202(2)
H32 H 0.587(4) 0.413(4) 0.322(2)
O5 O 0.0911(3) 0.8010(2) 0.26097(18)
C47 C 0.1536(5) 0.6883(4) 0.1684(3)
H33 H 0.0772 0.6811 0.1313
H34 H 0.1496 0.6192 0.1659
H35 H 0.2323 0.7258 0.1554
C48 C 0.1562(4) 0.7484(3) 0.2495(3)
C49 C 0.2437(5) 0.7415(5) 0.3169(3)
H36 H 0.2611 0.7999 0.3640
H37 H 0.3256 0.7444 0.3049
H38 H 0.2004 0.6759 0.3251
O6 O 0.5953(3) 0.2720(2) 0.26221(16)
C50 C 0.6687(4) 0.1550(4) 0.1815(2)
H39 H 0.5969 0.1464 0.1404
H40 H 0.6592 0.0868 0.1847
H41 H 0.7511 0.1869 0.1698
C51 C 0.6672(4) 0.2241(3) 0.2581(2)
C52 C 0.7589(4) 0.2340(4) 0.3311(2)
H42 H 0.7572 0.2876 0.3755
H43 H 0.8472 0.2534 0.3249
H44 H 0.7312 0.1673 0.3397
loop_
_geom_bond_atom_site_label_1
_geom_bond_atom_site_label_2
_geom_bond_site_symmetry_1
_geom_bond_site_symmetry_2
S1 C1 1_555 1_555
S2 C24 1_555 1_555
F1 C8 1_555 1_555
F2 C8 1_555 1_555
F3 C8 1_555 1_555
F4 C23 1_555 1_555
F5 C23 1_555 1_555
F6 C23 1_555 1_555
F7 C31 1_555 1_555
F8 C31 1_555 1_555
F9 C31 1_555 1_555
F10 C46 1_555 1_555
F11 C46 1_555 1_555
F12 C46 1_555 1_555
O1 C9 1_555 1_555
O2 C14 1_555 1_555
O3 C32 1_555 1_555
O4 C37 1_555 1_555
N1 C1 1_555 1_555
N2 C1 1_555 1_555
N3 C21 1_555 1_555
N4 C24 1_555 1_555
C2 N2 1_555 1_555
C3 C2 1_555 1_555
H1 C3 1_555 1_555
C4 C3 1_555 1_555
C5 C4 1_555 1_555
H2 C5 1_555 1_555
C6 C5 1_555 1_555
C7 C2 1_555 1_555
H3 C7 1_555 1_555
C8 C4 1_555 1_555
C9 C6 1_555 1_555
H4 C9 1_555 1_555
H5 C9 1_555 1_555
C10 O1 1_555 1_555
C11 C10 1_555 1_555
H6 C11 1_555 1_555
C12 C11 1_555 1_555
H7 C12 1_555 1_555
C13 C12 1_555 1_555
H8 C13 1_555 1_555
C14 C13 1_555 1_555
C15 C10 1_555 1_555
H9 C15 1_555 1_555
C16 O2 1_555 1_555
H10 C16 1_555 1_555
H11 C16 1_555 1_555
C17 C16 1_555 1_555
C18 C17 1_555 1_555
H12 C18 1_555 1_555
C19 C18 1_555 1_555
C20 C19 1_555 1_555
H13 C20 1_555 1_555
C21 C20 1_555 1_555
C22 C17 1_555 1_555
H14 C22 1_555 1_555
C23 C19 1_555 1_555
C24 N3 1_555 1_555
C25 N4 1_555 1_555
C26 C25 1_555 1_555
H15 C26 1_555 1_555
C27 C26 1_555 1_555
C28 C27 1_555 1_555
H16 C28 1_555 1_555
C29 C28 1_555 1_555
C30 C25 1_555 1_555
H17 C30 1_555 1_555
C31 C27 1_555 1_555
C32 C29 1_555 1_555
H18 C32 1_555 1_555
H19 C32 1_555 1_555
C33 O3 1_555 1_555
C34 C33 1_555 1_555
H20 C34 1_555 1_555
C35 C34 1_555 1_555
H21 C35 1_555 1_555
C36 C35 1_555 1_555
H22 C36 1_555 1_555
C37 C36 1_555 1_555
C38 C33 1_555 1_555
H23 C38 1_555 1_555
C39 O4 1_555 1_555
H24 C39 1_555 1_555
H25 C39 1_555 1_555
C40 C39 1_555 1_555
C41 C40 1_555 1_555
H26 C41 1_555 1_555
C42 C41 1_555 1_555
C43 C42 1_555 1_555
H27 C43 1_555 1_555
C44 N1 1_555 1_555
C45 C40 1_555 1_555
H28 C45 1_555 1_555
C46 C42 1_555 1_555
H29 N3 1_555 1_555
H30 N4 1_555 1_555
H31 N1 1_555 1_555
H32 N2 1_555 1_555
O5 C48 1_555 1_555
C47 H33 1_555 1_555
H34 C47 1_555 1_555
H35 C47 1_555 1_555
C48 C47 1_555 1_555
C49 C48 1_555 1_555
H36 C49 1_555 1_555
H37 C49 1_555 1_555
H38 C49 1_555 1_555
O6 C51 1_555 1_555
C50 H39 1_555 1_555
H40 C50 1_555 1_555
H41 C50 1_555 1_555
C51 C50 1_555 1_555
C52 C51 1_555 1_555
H42 C52 1_555 1_555
H43 C52 1_555 1_555
H44 C52 1_555 1_555
C6 C7 1_555 1_555
C14 C15 1_555 1_555
C21 C22 1_555 1_555
C29 C30 1_555 1_555
C37 C38 1_555 1_555
C43 C44 1_555 1_555
C44 C45 1_555 1_555

#END
