
#######################################################################
#
#                 Cambridge Crystallographic Data Centre
#                                CCDC 
#
#######################################################################
#
# If this CIF has been generated from an entry in the Cambridge 
# Structural Database, then it will include bibliographic, chemical, 
# crystal, experimental, refinement or atomic coordinate data resulting 
# from the CCDC's data processing and validation procedures.
#
#######################################################################

data_QIGKUP
_chemical_formula_moiety         
'C46 H32 F12 N4 O4 S2,2(C8 H20 N1 1+),C2 H4 O6 S2 2-'
_chemical_name_systematic        
'bis(tetraethylammonium) ethane-1,2-disulfonate 13,21,35,43-tetrakis(trifluoromethyl)-3,9,25,31-tetraoxa-16,18,38,40-tetraazaheptacyclo[39.3.1.1^4,8^.1^11,15^.1^19,23^.1^26,30^.1^33,37^]pentaconta-1(45),4(50),5,7,11(49),12,14,19(48),20,22,26(47),27,29,33(46),34,36,41,43-octadecaene-17,39-dithione'
_symmetry_cell_setting           triclinic
_symmetry_space_group_name_H-M   'P -1'
_symmetry_Int_Tables_number      2
_space_group_name_Hall           '-P 1'
loop_
_symmetry_equiv_pos_site_id
_symmetry_equiv_pos_as_xyz
1 x,y,z
2 -x,-y,-z
_cell_length_a                   9.613(3)
_cell_length_b                   12.132(3)
_cell_length_c                   14.623(3)
_cell_angle_alpha                95.215(7)
_cell_angle_beta                 90.469(7)
_cell_angle_gamma                101.285(6)
_cell_volume                     1664.92
_exptl_crystal_colour            colorless
_exptl_crystal_description       Prism
_cell_formula_units_Z            1
loop_
_atom_site_label
_atom_site_type_symbol
_atom_site_fract_x
_atom_site_fract_y
_atom_site_fract_z
S1 S 0.20209(9) 0.49845(6) 0.60016(5)
F1 F 0.0994(2) 0.68460(16) 0.25537(19)
F2 F 0.29645(19) 0.79264(13) 0.27214(14)
F3 F 0.1807(3) 0.75257(18) 0.38879(12)
F4 F 0.0986(3) 0.45062(17) 0.89766(12)
F5 F 0.2205(2) 0.3957(2) 0.99914(12)
F6 F 0.0312(2) 0.29259(17) 0.94741(15)
O1 O 0.65348(17) -0.01521(13) 0.09712(10)
O2 O 0.44076(16) 0.30813(12) 0.14842(10)
N1 N 0.3581(2) 0.40452(15) 0.47558(12)
N2 N 0.3358(2) 0.32361(15) 0.60720(12)
C1 C 0.5840(2) -0.06216(18) 0.17482(14)
H1 H 0.4828 -0.0856 0.1619
H2 H 0.5983 -0.0064 0.2277
C2 C 0.6278(2) 0.08656(17) 0.07485(13)
C3 C 0.7048(2) 0.13014(19) 0.00137(14)
H3 H 0.7634 0.0887 -0.0309
C4 C 0.6931(3) 0.23519(19) -0.02292(14)
H4 H 0.7450 0.2645 -0.0716
C5 C 0.6054(2) 0.29798(18) 0.02399(15)
H5 H 0.5978 0.3687 0.0071
C6 C 0.5295(2) 0.25276(17) 0.09671(14)
C7 C 0.5390(2) 0.14705(16) 0.12271(13)
H6 H 0.4868 0.1175 0.1712
C8 C 0.4734(2) 0.42876(17) 0.15461(15)
H7 H 0.4391 0.4553 0.0997
H8 H 0.5753 0.4555 0.1601
C9 C 0.4029(2) 0.47282(17) 0.23778(14)
C10 C 0.3398(2) 0.56568(17) 0.23491(14)
H9 H 0.3359 0.5993 0.1805
C11 C 0.2824(2) 0.60802(17) 0.31434(14)
C12 C 0.2853(2) 0.55946(17) 0.39682(14)
H10 H 0.2469 0.5894 0.4494
C13 C 0.3472(2) 0.46484(16) 0.39883(13)
C14 C 0.4063(2) 0.42302(16) 0.31941(14)
H11 H 0.4489 0.3606 0.3212
C15 C 0.2136(2) 0.70775(19) 0.30920(15)
C16 C 0.3005(2) 0.40776(17) 0.56054(14)
C17 C 0.3104(2) 0.29329(17) 0.69702(13)
C18 C 0.2367(2) 0.34712(17) 0.76320(14)
H12 H 0.1966 0.4078 0.7497
C19 C 0.2244(2) 0.30798(17) 0.84983(14)
C20 C 0.2828(2) 0.21740(17) 0.87239(14)
H13 H 0.2747 0.1942 0.9313
C21 C 0.3533(2) 0.16221(17) 0.80587(14)
C22 C 0.3659(2) 0.20066(17) 0.71910(14)
H14 H 0.4127 0.1635 0.6743
C23 C 0.1441(3) 0.3631(2) 0.92215(15)
H15 H 0.386(3) 0.284(2) 0.578(2)
H16 H 0.408(3) 0.355(2) 0.4622(19)
S1A S 0.79791(9) -0.49845(6) 0.39984(5)
F1A F 0.9006(2) -0.68460(16) 0.74463(19)
F2A F 0.70355(19) -0.79264(13) 0.72786(14)
F3A F 0.8193(3) -0.75257(18) 0.61121(12)
F4A F 0.9014(3) -0.45062(17) 0.10234(12)
F5A F 0.7795(2) -0.3957(2) 0.00086(12)
F6A F 0.9688(2) -0.29259(17) 0.05259(15)
O1A O 0.34652(17) 0.01521(13) 0.90288(10)
O2A O 0.55924(16) -0.30813(12) 0.85158(10)
N1A N 0.6419(2) -0.40452(15) 0.52442(12)
N2A N 0.6642(2) -0.32361(15) 0.39280(12)
C1A C 0.4160(2) 0.06216(18) 0.82518(14)
H1A H 0.5172 0.0856 0.8381
H2A H 0.4017 0.0064 0.7723
C2A C 0.3722(2) -0.08656(17) 0.92515(13)
C3A C 0.2952(2) -0.13014(19) 0.99863(14)
H3A H 0.2366 -0.0887 1.0309
C4A C 0.3069(3) -0.23519(19) 1.02292(14)
H4A H 0.2550 -0.2645 1.0716
C5A C 0.3946(2) -0.29798(18) 0.97601(15)
H5A H 0.4022 -0.3687 0.9929
C6A C 0.4705(2) -0.25276(17) 0.90329(14)
C7A C 0.4610(2) -0.14705(16) 0.87729(13)
H6A H 0.5132 -0.1175 0.8288
C8A C 0.5266(2) -0.42876(17) 0.84539(15)
H7A H 0.5609 -0.4553 0.9003
H8A H 0.4247 -0.4555 0.8399
C9A C 0.5971(2) -0.47282(17) 0.76222(14)
C10A C 0.6602(2) -0.56568(17) 0.76509(14)
H9A H 0.6641 -0.5993 0.8195
C11A C 0.7176(2) -0.60802(17) 0.68566(14)
C12A C 0.7147(2) -0.55946(17) 0.60318(14)
H10A H 0.7531 -0.5894 0.5506
C13A C 0.6528(2) -0.46484(16) 0.60117(13)
C14A C 0.5937(2) -0.42302(16) 0.68059(14)
H11A H 0.5511 -0.3606 0.6788
C15A C 0.7864(2) -0.70775(19) 0.69080(15)
C16A C 0.6995(2) -0.40776(17) 0.43946(14)
C17A C 0.6896(2) -0.29329(17) 0.30298(13)
C18A C 0.7633(2) -0.34712(17) 0.23680(14)
H12A H 0.8034 -0.4078 0.2503
C19A C 0.7756(2) -0.30798(17) 0.15017(14)
C20A C 0.7172(2) -0.21740(17) 0.12761(14)
H13A H 0.7253 -0.1942 0.0687
C21A C 0.6467(2) -0.16221(17) 0.19413(14)
C22A C 0.6341(2) -0.20066(17) 0.28090(14)
H14A H 0.5873 -0.1635 0.3257
C23A C 0.8559(3) -0.3631(2) 0.07785(15)
H15A H 0.614(3) -0.284(2) 0.422(2)
H16A H 0.592(3) -0.355(2) 0.5378(19)
N3 N -0.01094(18) 0.83715(15) 0.72948(12)
C24 C -0.0768(3) 0.7739(2) 0.64062(16)
H17 H -0.1186 0.6972 0.6526
H18 H -0.1531 0.8091 0.6215
C25 C 0.0234(3) 0.7689(3) 0.56221(18)
H19 H -0.0255 0.7219 0.5108
H20 H 0.1024 0.7379 0.5812
H21 H 0.0571 0.8436 0.5447
C26 C 0.0638(2) 0.95591(19) 0.71470(18)
H22 H 0.1048 0.9930 0.7731
H23 H 0.1414 0.9513 0.6734
C27 C -0.0289(4) 1.0288(3) 0.6758(3)
H24 H -0.0662 0.9952 0.6164
H25 H 0.0264 1.1027 0.6701
H26 H -0.1059 1.0347 0.7162
C28 C -0.1309(2) 0.8388(2) 0.79574(16)
H27 H -0.2007 0.8750 0.7687
H28 H -0.1766 0.7614 0.8027
C29 C -0.0887(3) 0.8980(3) 0.88966(18)
H29 H -0.0474 0.9758 0.8842
H30 H -0.0208 0.8624 0.9179
H31 H -0.1711 0.8937 0.9269
C30 C 0.1015(2) 0.7798(2) 0.76673(17)
H32 H 0.1744 0.7788 0.7213
H33 H 0.1456 0.8252 0.8212
C31 C 0.0501(4) 0.6608(3) 0.7911(2)
H34 H 0.0076 0.6142 0.7376
H35 H -0.0188 0.6607 0.8382
H36 H 0.1289 0.6316 0.8129
S2 S 0.49911(5) 0.13069(4) 0.40820(3)
O3 O 0.38791(18) 0.13120(16) 0.34103(12)
O4 O 0.63329(16) 0.12029(14) 0.36846(11)
O5 O 0.51229(19) 0.22446(13) 0.48014(11)
C32 C 0.4439(2) 0.00736(18) 0.46569(14)
H37 H 0.3568 0.0124 0.4974
H38 H 0.4245 -0.0581 0.4209
S2A S 0.50089(5) -0.13069(4) 0.59180(3)
O3A O 0.61209(18) -0.13120(16) 0.65897(12)
O4A O 0.36671(16) -0.12029(14) 0.63154(11)
O5A O 0.48771(19) -0.22446(13) 0.51986(11)
C32A C 0.5561(2) -0.00736(18) 0.53431(14)
H37A H 0.6432 -0.0124 0.5026
H38A H 0.5755 0.0581 0.5791
loop_
_geom_bond_atom_site_label_1
_geom_bond_atom_site_label_2
_geom_bond_site_symmetry_1
_geom_bond_site_symmetry_2
S1 C16 1_555 1_555
F1 C15 1_555 1_555
F2 C15 1_555 1_555
F3 C15 1_555 1_555
F4 C23 1_555 1_555
F5 C23 1_555 1_555
F6 C23 1_555 1_555
O1 C1 1_555 1_555
O2 C6 1_555 1_555
N1 C13 1_555 1_555
N2 C16 1_555 1_555
C1 H1 1_555 1_555
H2 C1 1_555 1_555
C2 O1 1_555 1_555
C3 C2 1_555 1_555
H3 C3 1_555 1_555
C4 C3 1_555 1_555
H4 C4 1_555 1_555
C5 C4 1_555 1_555
H5 C5 1_555 1_555
C6 C5 1_555 1_555
C7 C2 1_555 1_555
H6 C7 1_555 1_555
C8 O2 1_555 1_555
H7 C8 1_555 1_555
H8 C8 1_555 1_555
C9 C8 1_555 1_555
C10 C9 1_555 1_555
H9 C10 1_555 1_555
C11 C10 1_555 1_555
C12 C11 1_555 1_555
H10 C12 1_555 1_555
C13 C12 1_555 1_555
C14 C9 1_555 1_555
H11 C14 1_555 1_555
C15 C11 1_555 1_555
C16 N1 1_555 1_555
C17 N2 1_555 1_555
C18 C17 1_555 1_555
H12 C18 1_555 1_555
C19 C18 1_555 1_555
C20 C19 1_555 1_555
H13 C20 1_555 1_555
C21 C20 1_555 1_555
C22 C17 1_555 1_555
H14 C22 1_555 1_555
C23 C19 1_555 1_555
H15 N2 1_555 1_555
H16 N1 1_555 1_555
N3 C24 1_555 1_555
C24 H17 1_555 1_555
H18 C24 1_555 1_555
C25 C24 1_555 1_555
H19 C25 1_555 1_555
H20 C25 1_555 1_555
H21 C25 1_555 1_555
C26 N3 1_555 1_555
H22 C26 1_555 1_555
H23 C26 1_555 1_555
C27 C26 1_555 1_555
H24 C27 1_555 1_555
H25 C27 1_555 1_555
H26 C27 1_555 1_555
C28 N3 1_555 1_555
H27 C28 1_555 1_555
H28 C28 1_555 1_555
C29 C28 1_555 1_555
H29 C29 1_555 1_555
H30 C29 1_555 1_555
H31 C29 1_555 1_555
C30 N3 1_555 1_555
H32 C30 1_555 1_555
H33 C30 1_555 1_555
C31 C30 1_555 1_555
H34 C31 1_555 1_555
H35 C31 1_555 1_555
H36 C31 1_555 1_555
S2 O3 1_555 1_555
O4 S2 1_555 1_555
O5 S2 1_555 1_555
C32 S2 1_555 1_555
H37 C32 1_555 1_555
H38 C32 1_555 1_555
S1A C16A 1_555 1_555
F1A C15A 1_555 1_555
F2A C15A 1_555 1_555
F3A C15A 1_555 1_555
F4A C23A 1_555 1_555
F5A C23A 1_555 1_555
F6A C23A 1_555 1_555
O1A C1A 1_555 1_555
O2A C6A 1_555 1_555
N1A C13A 1_555 1_555
N2A C16A 1_555 1_555
C1A C21 1_555 1_555
H1A C1A 1_555 1_555
H2A C1A 1_555 1_555
C2A O1A 1_555 1_555
C3A C2A 1_555 1_555
H3A C3A 1_555 1_555
C4A C3A 1_555 1_555
H4A C4A 1_555 1_555
C5A C4A 1_555 1_555
H5A C5A 1_555 1_555
C6A C5A 1_555 1_555
C7A C2A 1_555 1_555
H6A C7A 1_555 1_555
C8A O2A 1_555 1_555
H7A C8A 1_555 1_555
H8A C8A 1_555 1_555
C9A C8A 1_555 1_555
C10A C9A 1_555 1_555
H9A C10A 1_555 1_555
C11A C10A 1_555 1_555
C12A C11A 1_555 1_555
H10A C12A 1_555 1_555
C13A C12A 1_555 1_555
C14A C9A 1_555 1_555
H11A C14A 1_555 1_555
C15A C11A 1_555 1_555
C16A N1A 1_555 1_555
C17A N2A 1_555 1_555
C18A C17A 1_555 1_555
H12A C18A 1_555 1_555
C19A C18A 1_555 1_555
C20A C19A 1_555 1_555
H13A C20A 1_555 1_555
C21A C1 1_555 1_555
C22A C17A 1_555 1_555
H14A C22A 1_555 1_555
C23A C19A 1_555 1_555
H15A N2A 1_555 1_555
H16A N1A 1_555 1_555
S2A O3A 1_555 1_555
O4A S2A 1_555 1_555
O5A S2A 1_555 1_555
C32A C32 1_555 1_555
H37A C32A 1_555 1_555
H38A C32A 1_555 1_555
C6 C7 1_555 1_555
C13 C14 1_555 1_555
C21 C22 1_555 1_555
C6A C7A 1_555 1_555
C13A C14A 1_555 1_555
C20A C21A 1_555 1_555
C21A C22A 1_555 1_555
S2A C32A 1_555 1_555

#END
