
#######################################################################
#
#                 Cambridge Crystallographic Data Centre
#                                CCDC 
#
#######################################################################
#
# If this CIF has been generated from an entry in the Cambridge 
# Structural Database, then it will include bibliographic, chemical, 
# crystal, experimental, refinement or atomic coordinate data resulting 
# from the CCDC's data processing and validation procedures.
#
#######################################################################

data_QIGMOI
_chemical_formula_moiety         
'C16 H12 S4 Se8 2+,2(C16 H12 S4 Se8 1+),4(B1 F4 1-)'
_chemical_name_systematic        
'tris(trans-trans-eclipse-2,5,7,10-Tetrathia-1,6(2,6)-ditetraselenafulvalena-cyclodecaphane) tetrakis(tetrafluoroborate)'
_symmetry_cell_setting           monoclinic
_symmetry_space_group_name_H-M   'P 21/n'
_symmetry_Int_Tables_number      14
_space_group_name_Hall           '-P 2yn'
loop_
_symmetry_equiv_pos_site_id
_symmetry_equiv_pos_as_xyz
1 x,y,z
2 1/2-x,1/2+y,1/2-z
3 -x,-y,-z
4 1/2+x,1/2-y,1/2+z
_cell_length_a                   7.992(9)
_cell_length_b                   23.86(1)
_cell_length_c                   21.40(1)
_cell_angle_alpha                90
_cell_angle_beta                 99.06(8)
_cell_angle_gamma                90
_cell_volume                     4029.84
_exptl_crystal_colour            black
_exptl_crystal_description       needle
_cell_formula_units_Z            2
loop_
_atom_site_label
_atom_site_type_symbol
_atom_site_fract_x
_atom_site_fract_y
_atom_site_fract_z
Se1 Se 0.0828(3) 0.1089(1) 0.1044(1)
Se2 Se 0.3881(3) 0.0398(1) 0.0673(1)
Se3 Se 0.1402(3) -0.0798(1) 0.0610(1)
Se4 Se -0.1532(3) -0.0047(1) 0.1008(1)
Se5 Se 0.1875(3) 0.0603(1) 0.2652(1)
Se6 Se 0.5025(3) -0.0035(1) 0.2268(1)
Se7 Se 0.2882(3) -0.1227(1) 0.2184(1)
Se8 Se -0.0323(3) -0.0622(1) 0.2541(1)
S1 S 0.6063(9) 0.1458(3) 0.0648(4)
S2 S 0.7055(8) 0.1044(3) 0.2218(4)
S3 S -0.3927(7) -0.1024(3) 0.1015(3)
S4 S -0.2419(8) -0.1727(3) 0.2352(3)
C1 C 0.164(3) 0.038(1) 0.085(1)
C2 C 0.409(4) 0.118(1) 0.078(1)
C3 C 0.275(3) 0.147(1) 0.093(1)
C4 C 0.066(3) -0.010(1) 0.078(1)
C5 C -0.195(3) -0.0798(9) 0.088(1)
C6 C -0.069(3) -0.1147(9) 0.068(1)
C7 C 0.278(3) -0.005(1) 0.247(1)
C8 C 0.520(4) 0.071(1) 0.240(1)
C9 C 0.377(3) 0.1003(9) 0.256(1)
C10 C 0.197(3) -0.060(1) 0.240(1)
C11 C -0.049(4) -0.138(1) 0.234(1)
C12 C 0.099(3) -0.165(1) 0.221(1)
C13 C 0.668(3) 0.191(1) 0.132(1)
C14 C 0.643(3) 0.174(1) 0.197(2)
C15 C -0.396(3) -0.178(1) 0.103(1)
C16 C -0.271(3) -0.2058(10) 0.158(1)
Se9 Se 0.4181(4) 0.0776(1) 0.4268(2)
Se10 Se 0.7438(3) 0.0178(1) 0.3907(1)
Se11 Se 0.5255(4) -0.1081(1) 0.3808(2)
Se12 Se 0.2094(4) -0.0435(1) 0.4175(1)
S5 S 0.922(1) 0.1348(4) 0.3868(4)
S6 S -0.005(1) -0.1536(4) 0.4063(4)
C17 C 0.519(3) 0.011(2) 0.406(1)
C18 C 0.745(4) 0.095(1) 0.396(1)
C19 C 0.599(4) 0.121(1) 0.415(1)
C20 C 0.436(3) -0.040(2) 0.399(1)
C21 C 0.195(4) -0.121(1) 0.404(1)
C22 C 0.337(4) -0.148(1) 0.387(2)
C23 C 0.964(4) 0.172(2) 0.479(3)
C24 C -0.044(4) -0.128(2) 0.499(2)
C24B C 1.044(4) 0.128(2) 0.501(2)
S6B S 1.005(1) 0.1536(4) 0.5937(4)
C21B C 0.805(4) 0.121(1) 0.596(1)
Se12B Se 0.7906(4) 0.0435(1) 0.5825(1)
C20B C 0.564(3) 0.040(2) 0.601(1)
Se11B Se 0.4745(4) 0.1081(1) 0.6192(2)
C22B C 0.663(4) 0.148(1) 0.613(2)
C17B C 0.481(3) -0.011(2) 0.594(1)
Se9B Se 0.5819(4) -0.0776(1) 0.5732(2)
C19B C 0.401(4) -0.121(1) 0.585(1)
C18B C 0.255(4) -0.095(1) 0.604(1)
Se10B Se 0.2562(3) -0.0178(1) 0.6093(1)
S5B S 0.078(1) -0.1348(4) 0.6132(4)
C23B C 0.036(4) -0.172(2) 0.521(3)
F1 F 0.039(6) 0.250(2) 0.189(2)
F2 F 0.081(3) 0.2651(9) 0.279(1)
F3 F 0.265(3) 0.225(1) 0.231(2)
F4 F 0.046(2) 0.1772(8) 0.242(1)
B1 B 0.126(6) 0.222(2) 0.249(3)
F5 F 0.313(3) 0.2926(9) 0.448(2)
F6 F 0.349(3) 0.205(1) 0.472(2)
F7 F 0.564(2) 0.2549(8) 0.464(1)
F8 F 0.413(5) 0.264(2) 0.538(2)
B2 B 0.414(5) 0.252(2) 0.479(3)
loop_
_geom_bond_atom_site_label_1
_geom_bond_atom_site_label_2
_geom_bond_site_symmetry_1
_geom_bond_site_symmetry_2
Se1 C1 1_555 1_555
Se2 C1 1_555 1_555
Se3 C4 1_555 1_555
Se4 C4 1_555 1_555
Se5 C7 1_555 1_555
Se6 C7 1_555 1_555
Se7 C10 1_555 1_555
Se8 C10 1_555 1_555
Se9 C17 1_555 1_555
Se10 C17 1_555 1_555
Se11 C20 1_555 1_555
Se12 C20 1_555 1_555
S1 C2 1_555 1_555
S2 C8 1_555 1_555
S3 C5 1_555 1_555
S4 C11 1_555 1_555
S5 C18 1_555 1_555
S6 C21 1_555 1_555
F1 B1 1_555 1_555
F2 B1 1_555 1_555
F3 B1 1_555 1_555
F4 B1 1_555 1_555
F5 B2 1_555 1_555
F6 B2 1_555 1_555
F7 B2 1_555 1_555
F8 B2 1_555 1_555
C1 C4 1_555 1_555
C2 Se2 1_555 1_555
C3 Se1 1_555 1_555
C5 Se4 1_555 1_555
C6 Se3 1_555 1_555
C7 C10 1_555 1_555
C8 Se6 1_555 1_555
C9 Se5 1_555 1_555
C11 Se8 1_555 1_555
C12 Se7 1_555 1_555
C13 S1 1_555 1_555
C14 S2 1_555 1_555
C15 S3 1_555 1_555
C16 S4 1_555 1_555
C17 C20 1_555 1_555
C18 Se10 1_555 1_555
C19 Se9 1_555 1_555
C21 Se12 1_555 1_555
C22 Se11 1_555 1_555
C23 S5 1_555 1_555
C24 S6 1_555 1_555
C24B C23 1_555 1_555
S6B C24B 1_555 1_555
C21B S6B 1_555 1_555
Se12B C21B 1_555 1_555
C20B Se12B 1_555 1_555
Se11B C20B 1_555 1_555
C22B C21B 1_555 1_555
C17B C20B 1_555 1_555
Se9B C17B 1_555 1_555
C19B Se9B 1_555 1_555
C18B C19B 1_555 1_555
Se10B C17B 1_555 1_555
S5B C18B 1_555 1_555
C23B C24 1_555 1_555
C2 C3 1_555 1_555
C5 C6 1_555 1_555
C8 C9 1_555 1_555
C11 C12 1_555 1_555
C13 C14 1_555 1_555
C15 C16 1_555 1_555
C18 C19 1_555 1_555
C21 C22 1_555 1_555
Se11B C22B 1_555 1_555
C18B Se10B 1_555 1_555
S5B C23B 1_555 1_555

#END
