
#######################################################################
#
#                 Cambridge Crystallographic Data Centre
#                                CCDC 
#
#######################################################################
#
# If this CIF has been generated from an entry in the Cambridge 
# Structural Database, then it will include bibliographic, chemical, 
# crystal, experimental, refinement or atomic coordinate data resulting 
# from the CCDC's data processing and validation procedures.
#
#######################################################################

data_QIGNAY
_chemical_formula_moiety         'C56 H82 B2 N4 P2,C6 H6'
_chemical_name_systematic        
"2,2'-[1,1-bis(boranyl)-1,3-diphosphetane-2,4-diylidene]bis{1,3-bis[2,6-bis(propan-2-yl)phenyl]imidazolidine} benzene solvate"
_symmetry_cell_setting           tetragonal
_symmetry_space_group_name_H-M   'I -4'
_symmetry_Int_Tables_number      82
_space_group_name_Hall           'I -4'
loop_
_symmetry_equiv_pos_site_id
_symmetry_equiv_pos_as_xyz
1 x,y,z
2 -x,-y,z
3 y,-x,-z
4 -y,x,-z
5 1/2+x,1/2+y,1/2+z
6 1/2-x,1/2-y,1/2+z
7 1/2+y,1/2-x,1/2-z
8 1/2-y,1/2+x,1/2-z
_cell_length_a                   30.0919(2)
_cell_length_b                   30.0919(2)
_cell_length_c                   15.0245(2)
_cell_angle_alpha                90
_cell_angle_beta                 90
_cell_angle_gamma                90
_cell_volume                     13605
_exptl_crystal_colour            orange
_exptl_crystal_description       block
_cell_formula_units_Z            8
loop_
_atom_site_label
_atom_site_type_symbol
_atom_site_fract_x
_atom_site_fract_y
_atom_site_fract_z
P1 P 0.34451(2) 0.67031(2) 0.59202(4)
P2 P 0.39133(2) 0.70723(3) 0.72122(5)
N1 N 0.44846(8) 0.68602(8) 0.47969(16)
N2 N 0.26373(8) 0.67007(8) 0.76685(18)
N3 N 0.29552(9) 0.73086(8) 0.82018(16)
N4 N 0.48167(8) 0.67911(8) 0.60947(16)
C1 C 0.42315(9) 0.71162(9) 0.41679(19)
C2 C 0.31514(10) 0.80397(10) 0.7617(2)
C3 C 0.40140(9) 0.68823(9) 0.61406(18)
C4 C 0.44195(9) 0.68451(9) 0.56899(18)
C5 C 0.32252(11) 0.77004(10) 0.82383(19)
C6 C 0.48944(9) 0.66659(11) 0.7000(2)
C7 C 0.29991(9) 0.69689(9) 0.76143(17)
C8 C 0.41933(10) 0.75787(10) 0.4276(2)
C9 C 0.36786(12) 0.61854(11) 0.3033(2)
H1 H 0.3468 0.6247 0.3497
H2 H 0.3717 0.5870 0.2978
H3 H 0.3571 0.6304 0.2480
C10 C 0.33642(9) 0.69098(9) 0.70511(17)
C11 C 0.41231(10) 0.64002(10) 0.3262(2)
H4 H 0.4227 0.6270 0.3824
C12 C 0.40770(10) 0.68992(10) 0.34016(19)
C13 C 0.23370(13) 0.60483(12) 0.6918(3)
C14 C 0.26359(12) 0.62262(10) 0.7533(2)
C15 C 0.48390(11) 0.62175(12) 0.7235(2)
C16 C 0.43781(12) 0.78287(11) 0.5070(3)
H5 H 0.4497 0.7604 0.5477
C17 C 0.46950(12) 0.58721(11) 0.6564(2)
H6 H 0.4486 0.6014 0.6153
C18 C 0.49520(10) 0.67569(11) 0.4588(2)
H7 H 0.5064 0.6946 0.4116
H8 H 0.4987 0.6448 0.4414
C19 C 0.27771(12) 0.80088(11) 0.6939(2)
H9 H 0.2759 0.7700 0.6735
C20 C 0.35453(12) 0.77317(13) 0.8910(2)
C21 C 0.28415(14) 0.83042(13) 0.6123(3)
H10 H 0.2853 0.8610 0.6305
H11 H 0.2598 0.8262 0.5719
H12 H 0.3115 0.8227 0.5832
C22 C 0.34221(12) 0.84146(12) 0.7667(3)
H13 H 0.3384 0.8644 0.7259
C23 C 0.51837(10) 0.68504(11) 0.5455(2)
H14 H 0.5423 0.6641 0.5564
H15 H 0.5301 0.7150 0.5473
C24 C 0.50920(13) 0.57048(13) 0.6014(3)
H16 H 0.5235 0.5952 0.5730
H17 H 0.4989 0.5500 0.5570
H18 H 0.5300 0.5558 0.6400
C25 C 0.50444(11) 0.69896(13) 0.7594(3)
C26 C 0.38840(12) 0.71541(11) 0.2737(2)
H19 H 0.3784 0.7018 0.2219
C27 C 0.38387(14) 0.76094(12) 0.2836(3)
H20 H 0.3707 0.7776 0.2387
C28 C 0.44714(13) 0.62982(12) 0.2551(2)
H21 H 0.4513 0.5983 0.2508
H22 H 0.4748 0.6436 0.2709
H23 H 0.4373 0.6412 0.1987
C29 C 0.28992(14) 0.59542(12) 0.8080(2)
C30 C 0.23075(12) 0.68995(11) 0.8279(3)
H24 H 0.2179 0.6676 0.8666
H25 H 0.2071 0.7045 0.7951
C31 C 0.39870(13) 0.78167(11) 0.3596(3)
H26 H 0.3949 0.8122 0.3657
C32 C 0.23121(17) 0.55828(14) 0.6867(4)
H27 H 0.2110 0.5454 0.6476
C33 C 0.36087(16) 0.73746(17) 0.9600(3)
H28 H 0.3458 0.7107 0.9385
C34 C 0.38047(14) 0.81195(16) 0.8925(3)
H29 H 0.4022 0.8152 0.9360
C35 C 0.20390(13) 0.63300(13) 0.6345(3)
H30 H 0.2133 0.6640 0.6412
B1 B 0.34547(11) 0.60603(11) 0.5756(2)
C36 C 0.44610(14) 0.54660(13) 0.6975(3)
H31 H 0.4666 0.5309 0.7352
H32 H 0.4361 0.5272 0.6509
H33 H 0.4211 0.5563 0.7321
C37 C 0.25758(13) 0.72313(12) 0.8803(2)
H34 H 0.2410 0.7503 0.8908
H35 H 0.2672 0.7109 0.9369
C38 C 0.51404(16) 0.68565(19) 0.8456(3)
H36 H 0.5241 0.7065 0.8867
C39 C 0.23312(13) 0.81289(14) 0.7374(3)
H37 H 0.2259 0.7912 0.7819
H38 H 0.2102 0.8133 0.6928
H39 H 0.2353 0.8417 0.7645
C40 C 0.37450(14) 0.84507(15) 0.8313(3)
H40 H 0.3924 0.8702 0.8333
C41 C 0.31948(16) 0.61361(14) 0.8812(3)
H41 H 0.3176 0.6461 0.8781
C42 C 0.28657(19) 0.54967(14) 0.7971(3)
H42 H 0.3045 0.5311 0.8311
C43 C 0.51136(12) 0.74665(14) 0.7314(3)
H43 H 0.4972 0.7505 0.6732
B2 B 0.30936(11) 0.70670(12) 0.5107(2)
C44 C 0.49361(16) 0.61102(17) 0.8118(3)
H44 H 0.4897 0.5820 0.8315
C45 C 0.40337(16) 0.80845(16) 0.5586(3)
H45 H 0.3907 0.8310 0.5213
H46 H 0.4170 0.8221 0.6095
H47 H 0.3804 0.7886 0.5780
C46 C 0.20724(17) 0.62100(17) 0.5357(4)
H48 H 0.2379 0.6201 0.5184
H49 H 0.1919 0.6430 0.5010
H50 H 0.1940 0.5924 0.5259
C47 C 0.2575(2) 0.53119(13) 0.7375(4)
H51 H 0.2557 0.5005 0.7315
C48 C 0.3690(2) 0.6012(2) 0.8687(4)
H52 H 0.3720 0.5695 0.8679
H53 H 0.3861 0.6133 0.9169
H54 H 0.3795 0.6133 0.8134
C49 C 0.3023(3) 0.5999(2) 0.9735(3)
H55 H 0.2734 0.6125 0.9830
H56 H 0.3224 0.6106 1.0184
H57 H 0.3005 0.5681 0.9768
C50 C 0.3372(2) 0.7522(2) 1.0475(3)
H58 H 0.3520 0.7778 1.0715
H59 H 0.3383 0.7284 1.0900
H60 H 0.3068 0.7595 1.0348
C51 C 0.49032(19) 0.78018(18) 0.7953(4)
H61 H 0.4591 0.7743 0.8004
H62 H 0.4946 0.8097 0.7728
H63 H 0.5040 0.7776 0.8527
C52 C 0.15533(16) 0.62967(18) 0.6667(6)
H64 H 0.1460 0.5992 0.6655
H65 H 0.1366 0.6469 0.6283
H66 H 0.1532 0.6408 0.7264
C53 C 0.50909(19) 0.6431(2) 0.8705(3)
H67 H 0.5162 0.6350 0.9285
C54 C 0.4765(2) 0.8128(2) 0.4821(5)
H68 H 0.5015 0.7949 0.4648
H69 H 0.4845 0.8308 0.5323
H70 H 0.4681 0.8316 0.4334
C55 C 0.40905(19) 0.7252(2) 0.9778(4)
H71 H 0.4234 0.7179 0.9227
H72 H 0.4102 0.7001 1.0171
H73 H 0.4240 0.7500 1.0050
C56 C 0.56126(15) 0.7564(2) 0.7198(5)
H74 H 0.5762 0.7520 0.7755
H75 H 0.5652 0.7866 0.7008
H76 H 0.5735 0.7367 0.6759
H77 H 0.2757(14) 0.6994(14) 0.535(3)
H78 H 0.3189(13) 0.6949(13) 0.448(3)
H79 H 0.3132(13) 0.5949(13) 0.555(3)
H80 H 0.3228(15) 0.7404(16) 0.516(3)
H81 H 0.3709(13) 0.6037(13) 0.519(3)
H82 H 0.3591(12) 0.5864(12) 0.640(3)
C57 C 0.5534(7) 0.8688(7) 0.9612(13)
H83 H 0.5707 0.8821 0.9174
C58 C 0.5084(7) 0.8789(6) 0.9672(14)
H84 H 0.4956 0.8989 0.9275
C59 C 0.4824(5) 0.8590(7) 1.0326(16)
H85 H 0.4523 0.8658 1.0366
C60 C 0.5014(7) 0.8291(7) 1.0919(13)
H86 H 0.4841 0.8158 1.1356
C61 C 0.5464(7) 0.8191(7) 1.0859(13)
H87 H 0.5591 0.7991 1.1256
C62 C 0.5724(5) 0.8389(8) 1.0205(16)
H88 H 0.6025 0.8322 1.0164
C63? C 0.5181(5) 0.5552(5) 1.0320(12)
H89? H 0.5105 0.5840 1.0486
C64? C 0.4952(5) 0.5192(7) 1.0673(9)
H90? H 0.4722 0.5239 1.1076
C65? C 0.5067(6) 0.4762(6) 1.0425(9)
H91? H 0.4913 0.4522 1.0661
C66? C 0.5410(6) 0.4692(5) 0.9822(10)
H92? H 0.5487 0.4405 0.9656
C67? C 0.5639(5) 0.5053(6) 0.9469(11)
H93? H 0.5869 0.5006 0.9066
C68? C 0.5525(5) 0.5483(5) 0.9717(13)
H94? H 0.5679 0.5723 0.9481
loop_
_geom_bond_atom_site_label_1
_geom_bond_atom_site_label_2
_geom_bond_site_symmetry_1
_geom_bond_site_symmetry_2
P1 C3 1_555 1_555
P2 C3 1_555 1_555
N1 C1 1_555 1_555
N2 C7 1_555 1_555
N3 C5 1_555 1_555
N4 C4 1_555 1_555
C1 C8 1_555 1_555
C2 C5 1_555 1_555
C3 C4 1_555 1_555
C4 N1 1_555 1_555
C5 C20 1_555 1_555
C6 N4 1_555 1_555
C7 N3 1_555 1_555
C8 C16 1_555 1_555
C9 H1 1_555 1_555
H2 C9 1_555 1_555
H3 C9 1_555 1_555
C10 P1 1_555 1_555
C11 C9 1_555 1_555
H4 C11 1_555 1_555
C12 C1 1_555 1_555
C13 C14 1_555 1_555
C14 N2 1_555 1_555
C15 C6 1_555 1_555
C16 H5 1_555 1_555
C17 C15 1_555 1_555
H6 C17 1_555 1_555
C18 N1 1_555 1_555
H7 C18 1_555 1_555
H8 C18 1_555 1_555
C19 C2 1_555 1_555
H9 C19 1_555 1_555
C20 C33 1_555 1_555
C21 C19 1_555 1_555
H10 C21 1_555 1_555
H11 C21 1_555 1_555
H12 C21 1_555 1_555
C22 C2 1_555 1_555
H13 C22 1_555 1_555
C23 N4 1_555 1_555
H14 C23 1_555 1_555
H15 C23 1_555 1_555
C24 C17 1_555 1_555
H16 C24 1_555 1_555
H17 C24 1_555 1_555
H18 C24 1_555 1_555
C25 C6 1_555 1_555
C26 C12 1_555 1_555
H19 C26 1_555 1_555
C27 C26 1_555 1_555
H20 C27 1_555 1_555
C28 C11 1_555 1_555
H21 C28 1_555 1_555
H22 C28 1_555 1_555
H23 C28 1_555 1_555
C29 C14 1_555 1_555
C30 N2 1_555 1_555
H24 C30 1_555 1_555
H25 C30 1_555 1_555
C31 C8 1_555 1_555
H26 C31 1_555 1_555
C32 C13 1_555 1_555
H27 C32 1_555 1_555
C33 H28 1_555 1_555
C34 C20 1_555 1_555
H29 C34 1_555 1_555
C35 C13 1_555 1_555
H30 C35 1_555 1_555
B1 P1 1_555 1_555
C36 C17 1_555 1_555
H31 C36 1_555 1_555
H32 C36 1_555 1_555
H33 C36 1_555 1_555
C37 N3 1_555 1_555
H34 C37 1_555 1_555
H35 C37 1_555 1_555
C38 C25 1_555 1_555
H36 C38 1_555 1_555
C39 C19 1_555 1_555
H37 C39 1_555 1_555
H38 C39 1_555 1_555
H39 C39 1_555 1_555
C40 C22 1_555 1_555
H40 C40 1_555 1_555
C41 C29 1_555 1_555
H41 C41 1_555 1_555
C42 C29 1_555 1_555
H42 C42 1_555 1_555
C43 C25 1_555 1_555
H43 C43 1_555 1_555
B2 P1 1_555 1_555
C44 C15 1_555 1_555
H44 C44 1_555 1_555
C45 C16 1_555 1_555
H45 C45 1_555 1_555
H46 C45 1_555 1_555
H47 C45 1_555 1_555
C46 C35 1_555 1_555
H48 C46 1_555 1_555
H49 C46 1_555 1_555
H50 C46 1_555 1_555
C47 C32 1_555 1_555
H51 C47 1_555 1_555
C48 C41 1_555 1_555
H52 C48 1_555 1_555
H53 C48 1_555 1_555
H54 C48 1_555 1_555
C49 C41 1_555 1_555
H55 C49 1_555 1_555
H56 C49 1_555 1_555
H57 C49 1_555 1_555
C50 C33 1_555 1_555
H58 C50 1_555 1_555
H59 C50 1_555 1_555
H60 C50 1_555 1_555
C51 C43 1_555 1_555
H61 C51 1_555 1_555
H62 C51 1_555 1_555
H63 C51 1_555 1_555
C52 C35 1_555 1_555
H64 C52 1_555 1_555
H65 C52 1_555 1_555
H66 C52 1_555 1_555
C53 C38 1_555 1_555
H67 C53 1_555 1_555
C54 C16 1_555 1_555
H68 C54 1_555 1_555
H69 C54 1_555 1_555
H70 C54 1_555 1_555
C55 C33 1_555 1_555
H71 C55 1_555 1_555
H72 C55 1_555 1_555
H73 C55 1_555 1_555
C56 C43 1_555 1_555
H74 C56 1_555 1_555
H75 C56 1_555 1_555
H76 C56 1_555 1_555
H77 B2 1_555 1_555
H78 B2 1_555 1_555
H79 B1 1_555 1_555
H80 B2 1_555 1_555
H81 B1 1_555 1_555
H82 B1 1_555 1_555
C57 H83 1_555 1_555
C58 C57 1_555 1_555
H84 C58 1_555 1_555
C59 C58 1_555 1_555
H85 C59 1_555 1_555
C60 C59 1_555 1_555
H86 C60 1_555 1_555
C61 C60 1_555 1_555
H87 C61 1_555 1_555
C62 C57 1_555 1_555
H88 C62 1_555 1_555
P2 C10 1_555 1_555
C7 C10 1_555 1_555
C11 C12 1_555 1_555
C18 C23 1_555 1_555
C27 C31 1_555 1_555
C30 C37 1_555 1_555
C34 C40 1_555 1_555
C42 C47 1_555 1_555
C44 C53 1_555 1_555
C61 C62 1_555 1_555

#END
