
#######################################################################
#
#                 Cambridge Crystallographic Data Centre
#                                CCDC 
#
#######################################################################
#
# If this CIF has been generated from an entry in the Cambridge 
# Structural Database, then it will include bibliographic, chemical, 
# crystal, experimental, refinement or atomic coordinate data resulting 
# from the CCDC's data processing and validation procedures.
#
#######################################################################

data_QIGNAV
_chemical_formula_moiety         'C18 H18 O4 Se2'
_chemical_name_systematic        
1,2-bis(2-(1,3-Dioxolan-2-yl)phenyl)diselenide
_chemical_properties_biological  'thiol peroxidase-like antioxidant activity'
_symmetry_cell_setting           monoclinic
_symmetry_space_group_name_H-M   'P 21/c'
_symmetry_Int_Tables_number      14
_space_group_name_Hall           '-P 2ybc'
loop_
_symmetry_equiv_pos_site_id
_symmetry_equiv_pos_as_xyz
1 x,y,z
2 x,1/2-y,1/2+z
3 -x,-y,-z
4 -x,1/2+y,1/2-z
_cell_length_a                   8.9690(7)
_cell_length_b                   12.5676(9)
_cell_length_c                   15.6444(12)
_cell_angle_alpha                90
_cell_angle_beta                 95.293(6)
_cell_angle_gamma                90
_cell_volume                     1755.9
_exptl_crystal_colour            colorless
_exptl_crystal_description       prism
_chemical_melting_point          '108-111 deg.C'
_cell_formula_units_Z            4
loop_
_atom_site_label
_atom_site_type_symbol
_atom_site_fract_x
_atom_site_fract_y
_atom_site_fract_z
Se1 Se 0.00282(6) 0.68248(4) 0.01833(3)
Se2 Se 0.09665(6) 0.56138(4) 0.12138(3)
O1 O -0.1532(5) 0.8532(3) -0.0907(3)
O2 O -0.3041(5) 0.9667(3) -0.0307(3)
O3 O 0.3969(4) 0.4689(3) 0.2260(3)
O4 O 0.1747(4) 0.4253(2) 0.2717(2)
C1 C -0.2049(5) 0.6939(4) 0.0423(3)
C2 C -0.2781(7) 0.6081(4) 0.0743(3)
H1 H -0.2275 0.5442 0.0847
C3 C -0.4267(8) 0.6169(5) 0.0909(4)
H2 H -0.4754 0.5591 0.1129
C4 C -0.5021(8) 0.7113(6) 0.0749(4)
H3 H -0.6016 0.7174 0.0865
C5 C -0.4309(6) 0.7961(5) 0.0419(3)
H4 H -0.4823 0.8596 0.0309
C6 C -0.2824(6) 0.7879(4) 0.0246(3)
C7 C -0.2079(6) 0.8819(4) -0.0128(3)
H5 H -0.1241 0.9052 0.0274
C8 C -0.1560(10) 0.9449(5) -0.1421(4)
H6 H -0.1943 0.9287 -0.2006
H7 H -0.0564 0.9749 -0.1424
C9 C -0.2566(9) 1.0192(6) -0.1022(5)
H8 H -0.2037 1.0841 -0.0848
H9 H -0.3416 1.0372 -0.1424
C10 C 0.1635(5) 0.6507(4) 0.2182(3)
C11 C 0.1235(5) 0.7580(4) 0.2208(3)
H10 H 0.0630 0.7877 0.1756
C12 C 0.1735(6) 0.8199(4) 0.2906(3)
H11 H 0.1466 0.8913 0.2919
C13 C 0.2616(6) 0.7777(4) 0.3576(3)
H12 H 0.2955 0.8198 0.4043
C14 C 0.2999(6) 0.6713(4) 0.3552(3)
H13 H 0.3588 0.6423 0.4014
C15 C 0.2539(5) 0.6067(4) 0.2865(3)
C16 C 0.3011(6) 0.4918(4) 0.2896(3)
H14 H 0.3509 0.4749 0.3464
C17 C 0.3748(7) 0.3610(5) 0.2031(4)
H15 H 0.4554 0.3174 0.2298
H16 H 0.3711 0.3524 0.1414
C18 C 0.2278(6) 0.3301(4) 0.2351(4)
H17 H 0.1581 0.3054 0.1883
H18 H 0.2418 0.2743 0.2780
loop_
_geom_bond_atom_site_label_1
_geom_bond_atom_site_label_2
_geom_bond_site_symmetry_1
_geom_bond_site_symmetry_2
Se1 Se2 1_555 1_555
Se2 C10 1_555 1_555
O1 C7 1_555 1_555
O2 C7 1_555 1_555
O3 C16 1_555 1_555
O4 C16 1_555 1_555
C1 Se1 1_555 1_555
C2 C1 1_555 1_555
H1 C2 1_555 1_555
C3 C2 1_555 1_555
H2 C3 1_555 1_555
C4 C3 1_555 1_555
H3 C4 1_555 1_555
C5 C4 1_555 1_555
H4 C5 1_555 1_555
C6 C1 1_555 1_555
C7 C6 1_555 1_555
H5 C7 1_555 1_555
C8 O1 1_555 1_555
H6 C8 1_555 1_555
H7 C8 1_555 1_555
C9 O2 1_555 1_555
H8 C9 1_555 1_555
H9 C9 1_555 1_555
C10 C11 1_555 1_555
C11 H10 1_555 1_555
C12 C11 1_555 1_555
H11 C12 1_555 1_555
C13 C12 1_555 1_555
H12 C13 1_555 1_555
C14 C13 1_555 1_555
H13 C14 1_555 1_555
C15 C10 1_555 1_555
C16 C15 1_555 1_555
H14 C16 1_555 1_555
C17 O3 1_555 1_555
H15 C17 1_555 1_555
H16 C17 1_555 1_555
C18 O4 1_555 1_555
H17 C18 1_555 1_555
H18 C18 1_555 1_555
C5 C6 1_555 1_555
C8 C9 1_555 1_555
C14 C15 1_555 1_555
C17 C18 1_555 1_555

#END
