
#######################################################################
#
#                 Cambridge Crystallographic Data Centre
#                                CCDC 
#
#######################################################################
#
# If this CIF has been generated from an entry in the Cambridge 
# Structural Database, then it will include bibliographic, chemical, 
# crystal, experimental, refinement or atomic coordinate data resulting 
# from the CCDC's data processing and validation procedures.
#
#######################################################################

data_QIHBEO01
_chemical_formula_moiety         'C10 H8 N2,C6 F4 I2'
_chemical_name_systematic        "4,4'-Bipyridine 1,4-di-iodotetrafluorobenzene"
_symmetry_cell_setting           monoclinic
_symmetry_space_group_name_H-M   'P 21/c'
_symmetry_Int_Tables_number      14
_space_group_name_Hall           '-P 2ybc'
loop_
_symmetry_equiv_pos_site_id
_symmetry_equiv_pos_as_xyz
1 x,y,z
2 x,1/2-y,1/2+z
3 -x,-y,-z
4 -x,1/2+y,1/2-z
_cell_length_a                   8.3617(9)
_cell_length_b                   5.7270(6)
_cell_length_c                   17.7928(16)
_cell_angle_alpha                90
_cell_angle_beta                 96.266(9)
_cell_angle_gamma                90
_cell_volume                     846.962
_exptl_crystal_colour            colorless
_exptl_crystal_description       prism
_chemical_melting_point          180-185deg.C
_cell_formula_units_Z            2
loop_
_atom_site_label
_atom_site_type_symbol
_atom_site_fract_x
_atom_site_fract_y
_atom_site_fract_z
I1 I 0.80525(2) -0.22566(4) -0.169578(11)
F1 F 0.8308(2) -0.4031(3) 0.00231(11)
F2 F 1.0220(3) 0.2338(3) -0.13086(12)
C1 C 0.9214(3) -0.0894(5) -0.06850(15)
C2 C 0.9140(3) -0.2024(5) -0.00036(17)
C3 C 1.0080(3) 0.1154(5) -0.06678(15)
C3B C 0.9920(3) -0.1154(5) 0.06678(15)
F2B F 0.9780(3) -0.2338(3) 0.13086(12)
C1B C 1.0786(3) 0.0894(5) 0.06850(15)
I1B I 1.19475(2) 0.22566(4) 0.169578(11)
C2B C 1.0860(3) 0.2024(5) 0.00036(17)
F1B F 1.1692(2) 0.4031(3) -0.00231(11)
N1 N 0.3692(3) 0.0967(5) -0.19496(13)
C4 C 0.4654(5) 0.2454(5) -0.15518(18)
H1 H 0.499(4) 0.380(7) -0.181(2)
C5 C 0.5204(4) 0.2153(5) -0.07901(17)
H2 H 0.590(5) 0.329(6) -0.054(2)
C6 C 0.4729(3) 0.0195(4) -0.04095(13)
C7 C 0.3259(4) -0.0934(7) -0.15858(17)
H3 H 0.250(5) -0.192(7) -0.182(2)
C8 C 0.3737(4) -0.1385(6) -0.08334(16)
H4 H 0.334(5) -0.267(5) -0.062(2)
C6B C 0.5271(3) -0.0195(4) 0.04095(13)
C5B C 0.4796(4) -0.2153(5) 0.07901(17)
C4B C 0.5346(5) -0.2454(5) 0.15518(18)
N1B N 0.6308(3) -0.0967(5) 0.19496(13)
C7B C 0.6741(4) 0.0934(7) 0.15858(17)
H3B H 0.750(5) 0.192(7) 0.182(2)
C8B C 0.6263(4) 0.1385(6) 0.08334(16)
H4B H 0.666(5) 0.267(5) 0.062(2)
H1B H 0.501(4) -0.380(7) 0.181(2)
H2B H 0.410(5) -0.329(6) 0.054(2)
loop_
_geom_bond_atom_site_label_1
_geom_bond_atom_site_label_2
_geom_bond_site_symmetry_1
_geom_bond_site_symmetry_2
I1 C1 1_555 1_555
F1 C2 1_555 1_555
F2 C3 1_555 1_555
C1 C2 1_555 1_555
C2 C3B 1_555 1_555
C3 C1 1_555 1_555
N1 C4 1_555 1_555
C4 H1 1_555 1_555
C5 C4 1_555 1_555
H2 C5 1_555 1_555
C6 C5 1_555 1_555
C7 N1 1_555 1_555
H3 C7 1_555 1_555
C8 C6 1_555 1_555
H4 C8 1_555 1_555
C3B F2B 1_555 1_555
C1B C3B 1_555 1_555
I1B C1B 1_555 1_555
C2B C3 1_555 1_555
F1B C2B 1_555 1_555
C6B C6 1_555 1_555
C5B C6B 1_555 1_555
C4B C5B 1_555 1_555
N1B C4B 1_555 1_555
C7B N1B 1_555 1_555
H3B C7B 1_555 1_555
C8B C6B 1_555 1_555
H4B C8B 1_555 1_555
H1B C4B 1_555 1_555
H2B C5B 1_555 1_555
C7 C8 1_555 1_555
C1B C2B 1_555 1_555
C7B C8B 1_555 1_555

#END
