
#######################################################################
#
#                 Cambridge Crystallographic Data Centre
#                                CCDC 
#
#######################################################################
#
# If this CIF has been generated from an entry in the Cambridge 
# Structural Database, then it will include bibliographic, chemical, 
# crystal, experimental, refinement or atomic coordinate data resulting 
# from the CCDC's data processing and validation procedures.
#
#######################################################################

data_QIHHAT
_chemical_formula_moiety         'C12 H10 Br1 N1 O2 S1,C2 H6 O1'
_chemical_name_systematic        
'3-acetyl-7-bromo-2-(methylsulfanyl)quinolin-4(1H)-one ethanol solvate'
_chemical_properties_biological  'antibacterial activity'
_symmetry_cell_setting           triclinic
_symmetry_space_group_name_H-M   'P -1'
_symmetry_Int_Tables_number      2
_space_group_name_Hall           '-P 1'
loop_
_symmetry_equiv_pos_site_id
_symmetry_equiv_pos_as_xyz
1 x,y,z
2 -x,-y,-z
_cell_length_a                   4.4810(4)
_cell_length_b                   9.7061(16)
_cell_length_c                   17.5903(19)
_cell_angle_alpha                101.267(11)
_cell_angle_beta                 92.790(8)
_cell_angle_gamma                102.661(11)
_cell_volume                     728.712
_exptl_crystal_colour            colorless
_exptl_crystal_description       needle
_chemical_melting_point          '173-174 deg.C'
_cell_formula_units_Z            2
_exptl_crystal_recrystallization_method ethanol
loop_
_atom_site_label
_atom_site_type_symbol
_atom_site_fract_x
_atom_site_fract_y
_atom_site_fract_z
Br1 Br 0.50674(7) 0.25133(3) 0.046571(16)
S1 S -0.35503(17) 0.41654(7) 0.42008(4)
O1 O -0.4577(6) -0.1042(2) 0.26940(13)
O2 O -0.6794(7) 0.1859(3) 0.45144(16)
N1 N -0.0825(5) 0.3237(2) 0.29584(11)
H1 H 0.0000 0.4143 0.3015
C1 C -0.2777(6) 0.2813(3) 0.34733(14)
C2 C -0.4140(6) 0.1342(3) 0.34210(14)
C3 C -0.3517(6) 0.0271(3) 0.27886(15)
C4 C -0.1433(6) 0.0811(3) 0.22380(14)
C5 C -0.0759(7) -0.0136(3) 0.15986(15)
H2 H -0.1653 -0.1118 0.1524
C6 C 0.1179(6) 0.0341(3) 0.10795(16)
H3 H 0.1601 -0.0301 0.0655
C7 C 0.2516(6) 0.1827(3) 0.12057(14)
C8 C 0.1963(6) 0.2803(3) 0.18304(14)
H4 H 0.2920 0.3779 0.1911
C9 C -0.0086(5) 0.2281(3) 0.23409(13)
C10 C -0.6176(7) 0.0933(3) 0.40124(17)
C11 C -0.7543(9) -0.0623(4) 0.4023(2)
H5 H -0.8834 -0.1075 0.3549
H6 H -0.8743 -0.0672 0.4459
H7 H -0.5924 -0.1115 0.4069
C12 C -0.1327(9) 0.5806(3) 0.39905(19)
H8 H -0.2083 0.5921 0.3492
H9 H 0.0789 0.5758 0.3982
H10 H -0.1500 0.6613 0.4385
O3 O 0.2237(5) 0.6081(2) 0.24584(12)
H11 H 0.3350 0.6893 0.2605
C13 C 0.1165(9) 0.6288(4) 0.1122(2)
H12 H -0.0482 0.6289 0.0753
H13 H 0.2097 0.5504 0.0929
H14 H 0.2673 0.7186 0.1199
C14 C -0.0079(7) 0.6108(3) 0.18845(18)
H15 H -0.1035 0.6898 0.2074
H16 H -0.1649 0.5215 0.1801
loop_
_geom_bond_atom_site_label_1
_geom_bond_atom_site_label_2
_geom_bond_site_symmetry_1
_geom_bond_site_symmetry_2
Br1 C7 1_555 1_555
S1 C1 1_555 1_555
O1 C3 1_555 1_555
O2 C10 1_555 1_555
N1 H1 1_555 1_555
C1 N1 1_555 1_555
C2 C1 1_555 1_555
C3 C2 1_555 1_555
C4 C3 1_555 1_555
C5 C4 1_555 1_555
H2 C5 1_555 1_555
C6 C5 1_555 1_555
H3 C6 1_555 1_555
C7 C6 1_555 1_555
C8 C7 1_555 1_555
H4 C8 1_555 1_555
C9 N1 1_555 1_555
C10 C2 1_555 1_555
C11 C10 1_555 1_555
H5 C11 1_555 1_555
H6 C11 1_555 1_555
H7 C11 1_555 1_555
C12 S1 1_555 1_555
H8 C12 1_555 1_555
H9 C12 1_555 1_555
H10 C12 1_555 1_555
O3 H11 1_555 1_555
C13 H12 1_555 1_555
H13 C13 1_555 1_555
H14 C13 1_555 1_555
C14 O3 1_555 1_555
H15 C14 1_555 1_555
H16 C14 1_555 1_555
C4 C9 1_555 1_555
C8 C9 1_555 1_555
C13 C14 1_555 1_555

#END
