
#######################################################################
#
#                 Cambridge Crystallographic Data Centre
#                                CCDC 
#
#######################################################################
#
# If this CIF has been generated from an entry in the Cambridge 
# Structural Database, then it will include bibliographic, chemical, 
# crystal, experimental, refinement or atomic coordinate data resulting 
# from the CCDC's data processing and validation procedures.
#
#######################################################################

data_QIHKUQ
_chemical_formula_moiety         'C18 H19 N3 O3'
_chemical_name_systematic        
't-Butyl (S)-2-cyano-2-(hydroxy(pyridin-2-yl)amino)-2-phenylacetate'
_symmetry_cell_setting           monoclinic
_symmetry_space_group_name_H-M   'P 21'
_symmetry_Int_Tables_number      4
_space_group_name_Hall           'P 2yb'
loop_
_symmetry_equiv_pos_site_id
_symmetry_equiv_pos_as_xyz
1 x,y,z
2 -x,1/2+y,-z
_cell_length_a                   6.25804(16)
_cell_length_b                   15.7256(3)
_cell_length_c                   9.5073(2)
_cell_angle_alpha                90
_cell_angle_beta                 101.466(2)
_cell_angle_gamma                90
_cell_volume                     916.955
_exptl_crystal_colour            colorless
_exptl_crystal_description       block
_chemical_melting_point          '140-142 deg.C'
_cell_formula_units_Z            2
loop_
_atom_site_label
_atom_site_type_symbol
_atom_site_fract_x
_atom_site_fract_y
_atom_site_fract_z
O1 O 0.0022(3) 0.49147(14) 0.94677(18)
H1 H -0.1251 0.5038 0.9136
O2 O 0.2847(3) 0.50120(13) 0.59726(16)
O3 O 0.6192(3) 0.50621(16) 0.73809(19)
N1 N 0.3093(4) 0.35297(14) 0.7839(3)
N2 N 0.1088(3) 0.46893(13) 0.8332(2)
N3 N 0.5728(4) 0.48863(19) 1.0877(2)
C1 C 0.3298(6) 0.26914(19) 0.7657(4)
H2 H 0.4514 0.2496 0.7329
C2 C 0.1812(7) 0.2110(2) 0.7927(5)
H3 H 0.2017 0.1533 0.7793
C3 C 0.0027(7) 0.2395(2) 0.8395(6)
H4 H -0.0999 0.2010 0.8598
C4 C -0.0262(6) 0.3257(2) 0.8571(4)
H5 H -0.1480 0.3465 0.8882
C5 C 0.1334(4) 0.37991(16) 0.8265(3)
C6 C 0.3036(4) 0.52070(14) 0.8443(2)
C7 C 0.4593(4) 0.50212(17) 0.9811(2)
C8 C 0.2505(5) 0.61560(16) 0.8333(3)
C9 C 0.0528(6) 0.6432(2) 0.7570(4)
H6 H -0.0537 0.6043 0.7162
C10 C 0.0148(8) 0.7300(3) 0.7417(6)
H7 H -0.1199 0.7492 0.6923
C11 C 0.1729(8) 0.7882(2) 0.7982(5)
H8 H 0.1456 0.8462 0.7870
C12 C 0.3691(8) 0.7600(2) 0.8706(5)
H9 H 0.4778 0.7988 0.9077
C13 C 0.4078(6) 0.6744(2) 0.8891(4)
H10 H 0.5421 0.6558 0.9400
C14 C 0.4247(4) 0.50424(16) 0.7195(2)
C15 C 0.3588(5) 0.4967(2) 0.4580(3)
C16 C 0.4900(10) 0.4173(4) 0.4533(5)
H11 H 0.6226 0.4208 0.5239
H12 H 0.5241 0.4113 0.3597
H13 H 0.4072 0.3689 0.4732
C17 C 0.1436(8) 0.4932(5) 0.3534(3)
H14 H 0.0536 0.4499 0.3826
H15 H 0.1685 0.4804 0.2593
H16 H 0.0716 0.5472 0.3517
C18 C 0.4797(10) 0.5765(3) 0.4377(4)
H17 H 0.3943 0.6250 0.4537
H18 H 0.5058 0.5783 0.3416
H19 H 0.6164 0.5774 0.5047
loop_
_geom_bond_atom_site_label_1
_geom_bond_atom_site_label_2
_geom_bond_site_symmetry_1
_geom_bond_site_symmetry_2
O1 H1 1_555 1_555
O2 C14 1_555 1_555
O3 C14 1_555 1_555
N1 C1 1_555 1_555
N2 O1 1_555 1_555
N3 C7 1_555 1_555
C1 H2 1_555 1_555
C2 C1 1_555 1_555
H3 C2 1_555 1_555
C3 C2 1_555 1_555
H4 C3 1_555 1_555
C4 C3 1_555 1_555
H5 C4 1_555 1_555
C5 N1 1_555 1_555
C6 N2 1_555 1_555
C7 C6 1_555 1_555
C8 C6 1_555 1_555
C9 C8 1_555 1_555
H6 C9 1_555 1_555
C10 C9 1_555 1_555
H7 C10 1_555 1_555
C11 C10 1_555 1_555
H8 C11 1_555 1_555
C12 C11 1_555 1_555
H9 C12 1_555 1_555
C13 C8 1_555 1_555
H10 C13 1_555 1_555
C14 C6 1_555 1_555
C15 O2 1_555 1_555
C16 C15 1_555 1_555
H11 C16 1_555 1_555
H12 C16 1_555 1_555
H13 C16 1_555 1_555
C17 C15 1_555 1_555
H14 C17 1_555 1_555
H15 C17 1_555 1_555
H16 C17 1_555 1_555
C18 C15 1_555 1_555
H17 C18 1_555 1_555
H18 C18 1_555 1_555
H19 C18 1_555 1_555
N2 C5 1_555 1_555
C4 C5 1_555 1_555
C12 C13 1_555 1_555

#END
