
#######################################################################
#
#                 Cambridge Crystallographic Data Centre
#                                CCDC 
#
#######################################################################
#
# If this CIF has been generated from an entry in the Cambridge 
# Structural Database, then it will include bibliographic, chemical, 
# crystal, experimental, refinement or atomic coordinate data resulting 
# from the CCDC's data processing and validation procedures.
#
#######################################################################

data_QIHLUR
_chemical_formula_moiety         'C20 H27 N5 O3 S1'
_chemical_name_systematic        
'1-(2-azido-3-(methyl(phenyl)amino)propanoyl)-8,8-dimethylhexahydro-3a,6-methano-2,1-benzothiazole 2,2-dioxide'
_symmetry_cell_setting           monoclinic
_symmetry_space_group_name_H-M   'P 21'
_symmetry_Int_Tables_number      4
_space_group_name_Hall           'P 2yb'
loop_
_symmetry_equiv_pos_site_id
_symmetry_equiv_pos_as_xyz
1 x,y,z
2 -x,1/2+y,-z
_cell_length_a                   7.7299(3)
_cell_length_b                   8.8800(3)
_cell_length_c                   15.7743(5)
_cell_angle_alpha                90
_cell_angle_beta                 103.545(3)
_cell_angle_gamma                90
_cell_volume                     1052.66
_exptl_crystal_colour            colorless
_exptl_crystal_description       needle
_cell_formula_units_Z            2
loop_
_atom_site_label
_atom_site_type_symbol
_atom_site_fract_x
_atom_site_fract_y
_atom_site_fract_z
S1 S 0.21428(11) 0.39713(11) 0.70750(6)
O1 O 0.7094(4) 0.3722(4) 0.7997(2)
O2 O 0.2422(4) 0.4048(4) 0.62122(17)
O3 O 0.1345(4) 0.5240(4) 0.7380(2)
N1 N 0.6411(5) 0.7607(4) 0.6320(2)
N2 N 0.6475(5) 0.6918(4) 0.8172(2)
N3 N 0.8094(6) 0.6769(4) 0.8405(2)
N4 N 0.9571(6) 0.6798(5) 0.8697(3)
N5 N 0.4120(4) 0.3571(3) 0.77731(19)
C1 C 0.4869(7) 0.9956(5) 0.5855(3)
H1 H 0.5922 1.0488 0.6057
C2 C 0.3319(8) 1.0718(6) 0.5462(3)
H2 H 0.3345 1.1761 0.5413
C3 C 0.1760(8) 0.9974(6) 0.5148(3)
H3 H 0.0737 1.0494 0.4875
C4 C 0.1735(7) 0.8447(6) 0.5242(3)
H4 H 0.0674 0.7928 0.5037
C5 C 0.3236(6) 0.7662(5) 0.5632(3)
H5 H 0.3172 0.6622 0.5688
C6 C 0.4848(6) 0.8387(5) 0.5946(2)
C7 C 0.8075(7) 0.8407(6) 0.6566(4)
H6 H 0.8242 0.8998 0.6082
H7 H 0.9033 0.7699 0.6730
H8 H 0.8058 0.9058 0.7050
C8 C 0.6333(6) 0.6079(4) 0.6628(3)
H9 H 0.7524 0.5659 0.6764
H10 H 0.5612 0.5479 0.6163
C9 C 0.5562(5) 0.5959(4) 0.7434(3)
H11 H 0.4306 0.6256 0.7268
C10 C 0.5663(5) 0.4316(5) 0.7741(3)
C11 C 0.1090(5) 0.2245(5) 0.7243(3)
H12 H -0.0050 0.2443 0.7377
H13 H 0.0892 0.1629 0.6721
C12 C 0.2316(5) 0.1437(4) 0.7999(2)
C13 C 0.4223(5) 0.1977(4) 0.8063(2)
H14 H 0.4784 0.1364 0.7686
C14 C 0.1984(7) 0.3308(5) 0.9239(3)
H15 H 0.3010 0.3829 0.9145
H16 H 0.1999 0.3322 0.9849
H17 H 0.0925 0.3796 0.8917
C15 C 0.0303(6) 0.0930(6) 0.9062(3)
H18 H -0.0712 0.1444 0.8716
H19 H 0.0273 0.0986 0.9666
H20 H 0.0278 -0.0107 0.8886
C16 C 0.2012(5) 0.1674(4) 0.8931(2)
C17 C 0.3741(5) 0.0814(5) 0.9355(3)
H21 H 0.3971 0.0738 0.9992
C18 C 0.3475(6) -0.0709(5) 0.8884(3)
H22 H 0.2791 -0.1391 0.9158
H23 H 0.4608 -0.1173 0.8878
C19 C 0.5155(5) 0.1704(5) 0.9029(3)
H24 H 0.6238 0.1122 0.9083
H25 H 0.5435 0.2645 0.9343
C20 C 0.2437(6) -0.0293(5) 0.7947(3)
H26 H 0.3081 -0.0599 0.7517
H27 H 0.1265 -0.0750 0.7807
loop_
_geom_bond_atom_site_label_1
_geom_bond_atom_site_label_2
_geom_bond_site_symmetry_1
_geom_bond_site_symmetry_2
S1 O2 1_555 1_555
O1 C10 1_555 1_555
O3 S1 1_555 1_555
N1 C6 1_555 1_555
N2 N3 1_555 1_555
N3 N4 1_555 1_555
N5 S1 1_555 1_555
C1 H1 1_555 1_555
C2 C1 1_555 1_555
H2 C2 1_555 1_555
C3 C2 1_555 1_555
H3 C3 1_555 1_555
C4 C3 1_555 1_555
H4 C4 1_555 1_555
C5 C4 1_555 1_555
H5 C5 1_555 1_555
C6 C1 1_555 1_555
C7 N1 1_555 1_555
H6 C7 1_555 1_555
H7 C7 1_555 1_555
H8 C7 1_555 1_555
C8 N1 1_555 1_555
H9 C8 1_555 1_555
H10 C8 1_555 1_555
C9 N2 1_555 1_555
H11 C9 1_555 1_555
C10 N5 1_555 1_555
C11 S1 1_555 1_555
H12 C11 1_555 1_555
H13 C11 1_555 1_555
C12 C11 1_555 1_555
C13 N5 1_555 1_555
H14 C13 1_555 1_555
C14 H15 1_555 1_555
H16 C14 1_555 1_555
H17 C14 1_555 1_555
C15 H18 1_555 1_555
H19 C15 1_555 1_555
H20 C15 1_555 1_555
C16 C12 1_555 1_555
C17 C16 1_555 1_555
H21 C17 1_555 1_555
C18 C17 1_555 1_555
H22 C18 1_555 1_555
H23 C18 1_555 1_555
C19 C13 1_555 1_555
H24 C19 1_555 1_555
H25 C19 1_555 1_555
C20 C12 1_555 1_555
H26 C20 1_555 1_555
H27 C20 1_555 1_555
C5 C6 1_555 1_555
C8 C9 1_555 1_555
C9 C10 1_555 1_555
C12 C13 1_555 1_555
C14 C16 1_555 1_555
C15 C16 1_555 1_555
C17 C19 1_555 1_555
C18 C20 1_555 1_555

#END
