
#######################################################################
#
#                 Cambridge Crystallographic Data Centre
#                                CCDC 
#
#######################################################################
#
# If this CIF has been generated from an entry in the Cambridge 
# Structural Database, then it will include bibliographic, chemical, 
# crystal, experimental, refinement or atomic coordinate data resulting 
# from the CCDC's data processing and validation procedures.
#
#######################################################################

data_QIHWIQ
_chemical_formula_moiety         'C17 H13 Cl1 O7,C2 H6 O1 S1,H2 O1'
_chemical_name_systematic        
"methyl 7-chloro-4-hydroxy-6'-methoxy-6-methyl-3,4'-dioxo-3H-spiro[1-benzofuran-2,1'-cyclohexa[2,5]diene]-2'-carboxylate dimethyl sulfoxide solvate monohydrate"
_symmetry_cell_setting           triclinic
_symmetry_space_group_name_H-M   'P 1'
_symmetry_Int_Tables_number      1
_space_group_name_Hall           'P 1'
loop_
_symmetry_equiv_pos_site_id
_symmetry_equiv_pos_as_xyz
1 x,y,z
_cell_length_a                   8.6860(17)
_cell_length_b                   9.968(2)
_cell_length_c                   13.035(3)
_cell_angle_alpha                72.661(6)
_cell_angle_beta                 85.555(6)
_cell_angle_gamma                89.525(6)
_cell_volume                     1073.94
_exptl_crystal_colour            yellow
_exptl_crystal_description       block
_cell_formula_units_Z            2
loop_
_atom_site_label
_atom_site_type_symbol
_atom_site_fract_x
_atom_site_fract_y
_atom_site_fract_z
Cl1 Cl 1.20605(14) 0.70084(13) 0.55659(11)
O1 O 0.7632(4) 1.0593(4) 0.7123(3)
H1 H 0.7865 1.0710 0.7688
O2 O 0.9170(3) 0.8308(3) 0.4588(2)
O3 O 0.6092(4) 1.0423(4) 0.5132(3)
O4 O 0.6567(6) 0.6870(6) 0.6151(5)
O5 O 0.5564(6) 0.5665(5) 0.5194(5)
O6 O 0.9075(4) 1.1022(4) 0.3244(3)
O7 O 0.5509(6) 0.8981(5) 0.1575(4)
C1 C 1.0800(5) 0.8077(5) 0.6041(4)
C2 C 1.1034(5) 0.8430(5) 0.6978(4)
C3 C 1.2463(7) 0.7912(7) 0.7581(5)
H2 H 1.2452 0.8242 0.8202
H3 H 1.3373 0.8263 0.7115
H4 H 1.2462 0.6903 0.7807
C4 C 0.9988(6) 0.9272(5) 0.7338(4)
H5 H 1.0157 0.9498 0.7963
C5 C 0.8690(6) 0.9793(5) 0.6796(4)
C6 C 0.8501(5) 0.9456(5) 0.5843(3)
C7 C 0.9531(5) 0.8604(5) 0.5504(4)
C8 C 0.7707(5) 0.8992(5) 0.4267(4)
C9 C 0.8013(5) 1.0080(5) 0.3182(3)
C10 C 0.7280(6) 1.0090(6) 0.2311(4)
H6 H 0.7494 1.0807 0.1670
C11 C 0.6164(7) 0.9004(6) 0.2354(5)
C12 C 0.5871(6) 0.7928(6) 0.3374(6)
H7 H 0.5154 0.7222 0.3421
C13 C 0.6581(6) 0.7898(5) 0.4256(5)
C14 C 0.6243(8) 0.6738(8) 0.5305(7)
C15 C 0.5315(14) 0.4603(12) 0.6347(10)
H8 H 0.4813 0.3767 0.6309
H9 H 0.4683 0.5022 0.6803
H10 H 0.6297 0.4367 0.6640
C16 C 0.9508(7) 1.2123(6) 0.2273(4)
H11 H 1.0268 1.2726 0.2413
H12 H 0.8614 1.2659 0.2025
H13 H 0.9931 1.1721 0.1731
C17 C 0.7245(5) 0.9736(5) 0.5138(4)
Cl2 Cl 0.00498(14) 0.53716(15) 0.00260(11)
O8 O 0.4810(4) 0.2157(4) -0.1618(3)
H14 H 0.4527 0.1883 -0.2108
O9 O 0.3208(3) 0.4639(3) 0.0768(2)
O10 O 0.6520(3) 0.2827(3) 0.0165(2)
O11 O 0.3474(4) 0.1579(4) 0.1957(3)
O12 O 0.3688(4) 0.1837(3) 0.3580(2)
O13 O 0.5470(4) 0.6341(4) -0.0436(3)
O14 O 0.7904(5) 0.5370(4) 0.2804(3)
C18 C 0.1399(5) 0.4416(5) -0.0489(4)
C19 C 0.1136(5) 0.3903(5) -0.1343(4)
C20 C -0.0366(6) 0.4195(7) -0.1867(5)
H15 H -0.0359 0.3777 -0.2442
H16 H -0.0492 0.5192 -0.2151
H17 H -0.1206 0.3803 -0.1341
C21 C 0.2266(6) 0.3142(6) -0.1722(4)
C22 C 0.3688(5) 0.2871(5) -0.1285(4)
C23 C 0.3953(5) 0.3413(4) -0.0436(3)
C24 C 0.2822(5) 0.4167(4) -0.0063(3)
C25 C 0.5267(5) 0.3378(4) 0.0172(3)
C26 C 0.4811(5) 0.4296(4) 0.0942(3)
C27 C 0.5752(5) 0.5645(5) 0.0579(4)
C28 C 0.6742(5) 0.6002(5) 0.1183(4)
H18 H 0.7318 0.6831 0.0909
C29 C 0.6928(5) 0.5122(5) 0.2249(4)
C30 C 0.5919(5) 0.3876(5) 0.2700(4)
H19 H 0.5983 0.3341 0.3413
C31 C 0.4911(5) 0.3492(4) 0.2108(3)
C32 C 0.3948(5) 0.2202(5) 0.2525(4)
C33 C 0.2889(6) 0.0507(6) 0.4078(4)
H20 H 0.2774 0.0333 0.4846
H21 H 0.3475 -0.0233 0.3912
H22 H 0.1889 0.0538 0.3808
C34 C 0.6285(8) 0.7680(7) -0.0919(6)
H23 H 0.5997 0.8087 -0.1641
H24 H 0.7379 0.7529 -0.0932
H25 H 0.6017 0.8306 -0.0500
O15 O 0.4114(5) 0.1242(5) 0.6785(3)
H26 H 0.3279 0.1783 0.6437
H27 H 0.5036 0.1445 0.6306
O16 O 0.7947(5) 0.0847(4) 0.9000(3)
H28 H 0.8585 0.0412 0.9448
H29 H 0.7211 0.1297 0.9225
O17 O 0.1754(6) 0.2795(7) 0.5793(4)
C35 C -0.0947(9) 0.3755(9) 0.5268(7)
H30 H -0.1516 0.3033 0.5820
H31 H -0.1554 0.4092 0.4660
H32 H -0.0718 0.4516 0.5544
C36 C 0.1484(9) 0.4601(7) 0.3904(6)
H33 H 0.2468 0.4420 0.3586
H34 H 0.1601 0.5325 0.4241
H35 H 0.0774 0.4901 0.3354
S1 S 0.0773(4) 0.3068(3) 0.4869(2)
O18 O -0.0420(5) 0.8875(6) 0.0362(5)
C37 C 0.2585(9) 0.9352(13) 0.0107(7)
H42 H 0.2563 1.0057 -0.0579
H43 H 0.2717 0.8445 -0.0002
H44 H 0.3429 0.9546 0.0478
C38 C 0.1256(12) 0.8046(13) 0.1967(7)
H45 H 0.0384 0.7909 0.2489
H46 H 0.2152 0.8284 0.2268
H47 H 0.1438 0.7197 0.1775
S3 S 0.0894(3) 0.9363(4) 0.0858(2)
H36? H -0.1389 0.3379 0.5996
H37? H -0.1163 0.3125 0.4864
H38? H -0.1386 0.4654 0.4944
H39? H 0.2584 0.4741 0.3809
H40? H 0.0989 0.5483 0.3616
H41? H 0.1193 0.3955 0.3531
S2? S 0.0808(14) 0.347(2) 0.5064(14)
H48? H 0.2576 0.9600 -0.0663
H49? H 0.3506 0.8841 0.0327
H50? H 0.2564 1.0190 0.0326
H51? H 0.0381 0.7489 0.2355
H52? H 0.1288 0.8909 0.2151
H53? H 0.2186 0.7536 0.2157
S4? S 0.1063(9) 0.8447(14) 0.0664(8)
loop_
_geom_bond_atom_site_label_1
_geom_bond_atom_site_label_2
_geom_bond_site_symmetry_1
_geom_bond_site_symmetry_2
Cl1 C1 1_555 1_555
O1 H1 1_555 1_555
O2 C7 1_555 1_555
O3 C17 1_555 1_555
O4 C14 1_555 1_555
O5 C14 1_555 1_555
O6 C9 1_555 1_555
O7 C11 1_555 1_555
C1 C2 1_555 1_555
C2 C3 1_555 1_555
C3 H2 1_555 1_555
H3 C3 1_555 1_555
H4 C3 1_555 1_555
C4 C2 1_555 1_555
H5 C4 1_555 1_555
C5 O1 1_555 1_555
C6 C5 1_555 1_555
C7 C1 1_555 1_555
C8 O2 1_555 1_555
C9 C8 1_555 1_555
C10 C9 1_555 1_555
H6 C10 1_555 1_555
C11 C10 1_555 1_555
C12 C11 1_555 1_555
H7 C12 1_555 1_555
C13 C8 1_555 1_555
C14 C13 1_555 1_555
C15 O5 1_555 1_555
H8 C15 1_555 1_555
H9 C15 1_555 1_555
H10 C15 1_555 1_555
C16 O6 1_555 1_555
H11 C16 1_555 1_555
H12 C16 1_555 1_555
H13 C16 1_555 1_555
C17 C6 1_555 1_555
Cl2 C18 1_555 1_555
O8 H14 1_555 1_555
O9 C24 1_555 1_555
O10 C25 1_555 1_555
O11 C32 1_555 1_555
O12 C32 1_555 1_555
O13 C27 1_555 1_555
O14 C29 1_555 1_555
C18 C19 1_555 1_555
C19 C20 1_555 1_555
C20 H15 1_555 1_555
H16 C20 1_555 1_555
H17 C20 1_555 1_555
C21 C19 1_555 1_555
C22 O8 1_555 1_555
C23 C22 1_555 1_555
C24 C18 1_555 1_555
C25 C23 1_555 1_555
C26 O9 1_555 1_555
C27 C26 1_555 1_555
C28 C27 1_555 1_555
H18 C28 1_555 1_555
C29 C28 1_555 1_555
C30 C29 1_555 1_555
H19 C30 1_555 1_555
C31 C26 1_555 1_555
C32 C31 1_555 1_555
C33 O12 1_555 1_555
H20 C33 1_555 1_555
H21 C33 1_555 1_555
H22 C33 1_555 1_555
C34 O13 1_555 1_555
H23 C34 1_555 1_555
H24 C34 1_555 1_555
H25 C34 1_555 1_555
O15 H26 1_555 1_555
H27 O15 1_555 1_555
O16 H28 1_555 1_555
H29 O16 1_555 1_555
O17 S1 1_555 1_555
C35 H30 1_555 1_555
H31 C35 1_555 1_555
H32 C35 1_555 1_555
C36 H33 1_555 1_555
H34 C36 1_555 1_555
H35 C36 1_555 1_555
S1 C35 1_555 1_555
O18 S3 1_555 1_555
C37 H42 1_555 1_555
H43 C37 1_555 1_555
H44 C37 1_555 1_555
C38 H45 1_555 1_555
H46 C38 1_555 1_555
H47 C38 1_555 1_555
S3 C37 1_555 1_555
C4 C5 1_555 1_555
C6 C7 1_555 1_555
C8 C17 1_555 1_555
C12 C13 1_555 1_555
C21 C22 1_555 1_555
C23 C24 1_555 1_555
C25 C26 1_555 1_555
C30 C31 1_555 1_555
C36 S1 1_555 1_555
C38 S3 1_555 1_555

#END
