
#######################################################################
#
#                 Cambridge Crystallographic Data Centre
#                                CCDC 
#
#######################################################################
#
# If this CIF has been generated from an entry in the Cambridge 
# Structural Database, then it will include bibliographic, chemical, 
# crystal, experimental, refinement or atomic coordinate data resulting 
# from the CCDC's data processing and validation procedures.
#
#######################################################################

data_QIHXEN
_chemical_formula_moiety         'C30 H34 O2'
_chemical_name_systematic        
2,14-dimethoxy-5,5,11,11-tetramethyl-5,6,7,9,10,11-hexahydrodibenzo[c,c']benzo[1,6-a:3,4-a']di[7]annulene
_symmetry_cell_setting           monoclinic
_symmetry_space_group_name_H-M   'C 2/c'
_symmetry_Int_Tables_number      15
_space_group_name_Hall           '-C 2yn'
loop_
_symmetry_equiv_pos_site_id
_symmetry_equiv_pos_as_xyz
1 x,y,z
2 -x,y,1/2-z
3 1/2+x,1/2+y,z
4 1/2-x,1/2+y,1/2-z
5 -x,-y,-z
6 x,-y,1/2+z
7 1/2-x,1/2-y,-z
8 1/2+x,1/2-y,1/2+z
_cell_length_a                   29.5284(18)
_cell_length_b                   6.8955(4)
_cell_length_c                   23.0052(13)
_cell_angle_alpha                90
_cell_angle_beta                 93.906(3)
_cell_angle_gamma                90
_cell_volume                     4673.28
_exptl_crystal_colour            colorless
_exptl_crystal_description       scale
_cell_formula_units_Z            8
loop_
_atom_site_label
_atom_site_type_symbol
_atom_site_fract_x
_atom_site_fract_y
_atom_site_fract_z
O1 O 0.27002(5) 0.6637(2) -0.26155(6)
O2 O 0.24215(5) 0.9225(2) 0.08763(6)
C1 C 0.38695(7) 0.8508(3) -0.11703(9)
C2 C 0.36056(7) 0.8126(3) -0.07037(8)
H1 H 0.3285 0.8081 -0.0773
C3 C 0.37938(7) 0.7807(3) -0.01409(9)
C4 C 0.42675(7) 0.7925(3) -0.00350(9)
C5 C 0.45264(7) 0.8281(3) -0.05029(9)
H2 H 0.4847 0.8342 -0.0433
C6 C 0.43446(7) 0.8554(3) -0.10677(9)
C7 C 0.46328(8) 0.8876(4) -0.15712(10)
H3 H 0.4530 0.7987 -0.1891
H4 H 0.4951 0.8539 -0.1448
C8 C 0.46195(8) 1.0944(4) -0.18021(11)
H5 H 0.4787 1.0974 -0.2161
H6 H 0.4787 1.1778 -0.1511
C9 C 0.41480(8) 1.1860(4) -0.19447(10)
C10 C 0.39838(9) 1.2943(4) -0.14109(10)
H7 H 0.3964 1.2031 -0.1087
H8 H 0.3684 1.3509 -0.1511
H9 H 0.4199 1.3977 -0.1296
C11 C 0.42094(9) 1.3416(4) -0.24150(10)
H10 H 0.4292 1.2787 -0.2775
H11 H 0.4451 1.4315 -0.2279
H12 H 0.3925 1.4133 -0.2490
C12 C 0.44738(7) 0.7659(3) 0.05748(9)
H13 H 0.4310 0.8495 0.0840
H14 H 0.4793 0.8104 0.0590
C13 C 0.44639(7) 0.5571(3) 0.07975(9)
H15 H 0.4558 0.5581 0.1219
H16 H 0.4694 0.4817 0.0600
C14 C 0.40028(7) 0.4480(3) 0.07131(9)
C15 C 0.39645(7) 0.3413(3) 0.01226(9)
H17 H 0.3677 0.2702 0.0082
H18 H 0.4217 0.2499 0.0105
H19 H 0.3975 0.4358 -0.0194
C16 C 0.40126(8) 0.2886(3) 0.11802(9)
H20 H 0.3737 0.2095 0.1126
H21 H 0.4027 0.3483 0.1568
H22 H 0.4280 0.2063 0.1145
C17 C 0.36533(7) 0.8839(3) -0.17684(9)
C18 C 0.37920(7) 1.0335(3) -0.21420(9)
C19 C 0.35606(7) 1.0471(3) -0.26879(9)
H23 H 0.3655 1.1429 -0.2951
C20 C 0.31994(7) 0.9278(3) -0.28669(9)
H24 H 0.3048 0.9436 -0.3242
C21 C 0.30615(7) 0.7857(3) -0.24949(9)
C22 C 0.32935(7) 0.7631(3) -0.19508(9)
H25 H 0.3204 0.6631 -0.1699
C23 C 0.23870(7) 0.7201(3) -0.30913(9)
H26 H 0.2124 0.6333 -0.3109
H27 H 0.2537 0.7117 -0.3457
H28 H 0.2287 0.8537 -0.3032
C24 C 0.34990(7) 0.7360(3) 0.03433(8)
C25 C 0.35950(7) 0.5853(3) 0.07520(8)
C26 C 0.32889(7) 0.5603(3) 0.11817(9)
H29 H 0.3348 0.4614 0.1464
C27 C 0.29037(7) 0.6726(3) 0.12162(9)
H30 H 0.2705 0.6509 0.1517
C28 C 0.28116(7) 0.8169(3) 0.08079(9)
C29 C 0.31074(7) 0.8488(3) 0.03799(9)
H31 H 0.3044 0.9494 0.0104
C30 C 0.23148(8) 1.0734(3) 0.04685(9)
H32 H 0.2031 1.1359 0.0561
H33 H 0.2280 1.0188 0.0075
H34 H 0.2560 1.1694 0.0489
loop_
_geom_bond_atom_site_label_1
_geom_bond_atom_site_label_2
_geom_bond_site_symmetry_1
_geom_bond_site_symmetry_2
O1 C21 1_555 1_555
O2 C28 1_555 1_555
C1 C2 1_555 1_555
C2 H1 1_555 1_555
C3 C2 1_555 1_555
C4 C3 1_555 1_555
C5 C4 1_555 1_555
H2 C5 1_555 1_555
C6 C1 1_555 1_555
C7 C6 1_555 1_555
H3 C7 1_555 1_555
H4 C7 1_555 1_555
C8 C7 1_555 1_555
H5 C8 1_555 1_555
H6 C8 1_555 1_555
C9 C8 1_555 1_555
C10 C9 1_555 1_555
H7 C10 1_555 1_555
H8 C10 1_555 1_555
H9 C10 1_555 1_555
C11 C9 1_555 1_555
H10 C11 1_555 1_555
H11 C11 1_555 1_555
H12 C11 1_555 1_555
C12 C4 1_555 1_555
H13 C12 1_555 1_555
H14 C12 1_555 1_555
C13 C12 1_555 1_555
H15 C13 1_555 1_555
H16 C13 1_555 1_555
C14 C13 1_555 1_555
C15 C14 1_555 1_555
H17 C15 1_555 1_555
H18 C15 1_555 1_555
H19 C15 1_555 1_555
C16 C14 1_555 1_555
H20 C16 1_555 1_555
H21 C16 1_555 1_555
H22 C16 1_555 1_555
C17 C1 1_555 1_555
C18 C9 1_555 1_555
C19 C18 1_555 1_555
H23 C19 1_555 1_555
C20 C19 1_555 1_555
H24 C20 1_555 1_555
C21 C20 1_555 1_555
C22 C17 1_555 1_555
H25 C22 1_555 1_555
C23 O1 1_555 1_555
H26 C23 1_555 1_555
H27 C23 1_555 1_555
H28 C23 1_555 1_555
C24 C3 1_555 1_555
C25 C14 1_555 1_555
C26 C25 1_555 1_555
H29 C26 1_555 1_555
C27 C26 1_555 1_555
H30 C27 1_555 1_555
C28 C27 1_555 1_555
C29 C24 1_555 1_555
H31 C29 1_555 1_555
C30 O2 1_555 1_555
H32 C30 1_555 1_555
H33 C30 1_555 1_555
H34 C30 1_555 1_555
C5 C6 1_555 1_555
C17 C18 1_555 1_555
C21 C22 1_555 1_555
C24 C25 1_555 1_555
C28 C29 1_555 1_555

#END
