
#######################################################################
#
#                 Cambridge Crystallographic Data Centre
#                                CCDC 
#
#######################################################################
#
# If this CIF has been generated from an entry in the Cambridge 
# Structural Database, then it will include bibliographic, chemical, 
# crystal, experimental, refinement or atomic coordinate data resulting 
# from the CCDC's data processing and validation procedures.
#
#######################################################################

data_QIHYAK
_chemical_formula_moiety         'C41 H64 Mg1 N4 O6 2+,2(C1 F3 O3 S1 1-)'
_chemical_name_systematic        
"bis(tetrahydrofuran)-(1,1'-(propane-1,3-diyl)bis[N-(2,6-diethylphenyl)-1-oxo-pyrrolidine-2-carboxamide])-magnesium bis(trifluoromethanesulfonate) unknown solvate"
_symmetry_cell_setting           tetragonal
_symmetry_space_group_name_H-M   'P 43 21 2'
_symmetry_Int_Tables_number      96
_space_group_name_Hall           'P 4nw 2abw'
loop_
_symmetry_equiv_pos_site_id
_symmetry_equiv_pos_as_xyz
1 x,y,z
2 -x,-y,1/2+z
3 1/2-y,1/2+x,3/4+z
4 1/2+y,1/2-x,1/4+z
5 1/2-x,1/2+y,3/4-z
6 1/2+x,1/2-y,1/4-z
7 y,x,-z
8 -y,-x,1/2-z
_cell_length_a                   12.44609(18)
_cell_length_b                   12.44609(18)
_cell_length_c                   34.2652(6)
_cell_angle_alpha                90
_cell_angle_beta                 90
_cell_angle_gamma                90
_cell_volume                     5307.86
_exptl_crystal_colour            'light colorless'
_exptl_crystal_description       block
_cell_formula_units_Z            4
loop_
_atom_site_label
_atom_site_type_symbol
_atom_site_fract_x
_atom_site_fract_y
_atom_site_fract_z
S1 S 0.85808(8) 0.63197(8) 0.39918(3)
O1 O 0.8899(3) 0.5970(3) 0.36116(9)
O2 O 0.9284(3) 0.7072(3) 0.41751(11)
O3 O 0.7460(3) 0.6552(4) 0.40318(11)
F1 F 0.8525(5) 0.5362(4) 0.46634(11)
F2 F 0.9789(6) 0.4834(5) 0.42783(14)
F3 F 0.8180(7) 0.4364(4) 0.41679(17)
C1 C 0.8766(7) 0.5152(5) 0.42910(17)
Mg1 Mg 0.44826(9) 0.55174(9) 0.2500
O4 O 0.60971(19) 0.5600(2) 0.24650(6)
O5 O 0.4661(2) 0.5741(2) 0.30855(6)
O6 O 0.2799(2) 0.5648(2) 0.25927(7)
N1 N 0.6749(2) 0.5214(2) 0.27600(8)
N2 N 0.5400(3) 0.6014(3) 0.36712(8)
H1 H 0.5988 0.6089 0.3811
C2 C 0.5474(3) 0.5863(3) 0.32888(9)
C3 C 0.6611(3) 0.5879(3) 0.31289(9)
H2 H 0.7102 0.5582 0.3333
C4 C 0.6580(3) 0.4040(3) 0.28487(10)
H3 H 0.5848 0.3947 0.2957
H4 H 0.7097 0.3822 0.3053
C5 C 0.7036(3) 0.6970(3) 0.30062(10)
H5 H 0.7303 0.7379 0.3234
H6 H 0.6471 0.7395 0.2874
C6 C 0.4369(3) 0.6054(3) 0.38596(9)
C7 C 0.7882(3) 0.5497(3) 0.26485(10)
H7 H 0.8018 0.5330 0.2370
H8 H 0.8405 0.5098 0.2811
C8 C 0.3803(4) 0.5096(4) 0.39188(11)
C9 C 0.4562(4) 0.8080(4) 0.39019(13)
H9 H 0.4047 0.8685 0.3890
H10 H 0.4939 0.8043 0.3648
C10 C 0.7963(3) 0.6700(3) 0.27227(11)
H11 H 0.7884 0.7105 0.2476
H12 H 0.8665 0.6882 0.2841
C11 C 0.3956(4) 0.7061(4) 0.39633(11)
C12 C 0.4289(5) 0.4019(4) 0.38152(14)
H13 H 0.4123 0.3860 0.3539
H14 H 0.5080 0.4074 0.3839
C13 C 0.5380(5) 0.8301(4) 0.42228(16)
H15 H 0.5716 0.9003 0.4178
H16 H 0.5933 0.7741 0.4220
H17 H 0.5017 0.8303 0.4477
C14 C 0.2043(3) 0.6071(4) 0.23127(12)
H18 H 0.1904 0.5540 0.2103
H19 H 0.2322 0.6739 0.2193
C15 C 0.2769(4) 0.5186(5) 0.40758(13)
H20 H 0.2354 0.4553 0.4112
C16 C 0.6710(3) 0.3290(3) 0.2500
H21 H 0.7456 0.3367 0.2403
C17 C 0.2923(4) 0.7081(5) 0.41257(13)
H22 H 0.2617 0.7749 0.4201
C18 C 0.2230(4) 0.5294(5) 0.29320(14)
H23 H 0.2431 0.5729 0.3163
H24 H 0.2385 0.4529 0.2988
C19 C 0.2340(4) 0.6146(6) 0.41787(15)
H25 H 0.1638 0.6177 0.4287
C20 C 0.1033(4) 0.6294(5) 0.25409(15)
H26 H 0.1053 0.7015 0.2662
H27 H 0.0386 0.6235 0.2374
C21 C 0.1063(6) 0.5448(8) 0.2834(3)
H28 H 0.0752 0.4775 0.2729
H29 H 0.0652 0.5662 0.3068
C22 C 0.3915(10) 0.3105(7) 0.4058(2)
H30 H 0.3790 0.3353 0.4326
H31 H 0.4463 0.2540 0.4059
H32 H 0.3245 0.2819 0.3950
H21G H 0.6633 0.2544 0.2597
O4G O 0.4400(2) 0.39029(19) 0.25350(6)
O5G O 0.4259(2) 0.5339(2) 0.19145(6)
N1G N 0.4786(2) 0.3251(2) 0.22400(8)
N2G N 0.3986(3) 0.4600(3) 0.13288(8)
H1G H 0.3911 0.4012 0.1189
C2G C 0.4137(3) 0.4526(3) 0.17112(9)
C3G C 0.4121(3) 0.3389(3) 0.18711(9)
H2G H 0.4418 0.2898 0.1667
C4G C 0.5960(3) 0.3420(3) 0.21513(10)
H3G H 0.6053 0.4152 0.2043
H4G H 0.6178 0.2903 0.1947
C5G C 0.3030(3) 0.2964(3) 0.19938(10)
H5G H 0.2621 0.2697 0.1766
H6G H 0.2605 0.3529 0.2126
C6G C 0.3946(3) 0.5631(3) 0.11404(9)
C7G C 0.4503(3) 0.2118(3) 0.23515(10)
H7G H 0.4670 0.1982 0.2630
H8G H 0.4902 0.1595 0.2189
C8G C 0.4904(4) 0.6197(4) 0.10812(11)
C9G C 0.1920(4) 0.5438(4) 0.10981(13)
H9G H 0.1315 0.5953 0.1110
H10G H 0.1957 0.5061 0.1352
C10G C 0.3300(3) 0.2037(3) 0.22773(11)
H11G H 0.2895 0.2116 0.2524
H12G H 0.3118 0.1335 0.2159
C11G C 0.2939(4) 0.6044(4) 0.10367(11)
C12G C 0.5981(4) 0.5711(5) 0.11848(14)
H13G H 0.6140 0.5877 0.1461
H14G H 0.5926 0.4920 0.1161
C13G C 0.1699(4) 0.4620(5) 0.07772(16)
H15G H 0.0997 0.4284 0.0822
H16G H 0.2259 0.4067 0.0780
H17G H 0.1697 0.4983 0.0523
C15G C 0.4814(5) 0.7231(4) 0.09242(13)
H20G H 0.5447 0.7646 0.0888
C17G C 0.2919(5) 0.7077(4) 0.08743(13)
H22G H 0.2251 0.7383 0.0799
C19G C 0.3854(6) 0.7660(4) 0.08213(15)
H25G H 0.3823 0.8362 0.0713
C22G C 0.6895(7) 0.6085(10) 0.0942(2)
H30G H 0.6647 0.6210 0.0674
H31G H 0.7460 0.5537 0.0941
H32G H 0.7181 0.6755 0.1050
O6G O 0.4352(2) 0.7201(2) 0.24073(7)
C14G C 0.3929(4) 0.7957(3) 0.26873(12)
H18G H 0.4460 0.8096 0.2897
H19G H 0.3261 0.7678 0.2807
C18G C 0.4706(5) 0.7770(4) 0.20680(14)
H23G H 0.4271 0.7569 0.1837
H24G H 0.5471 0.7615 0.2012
C20G C 0.3706(5) 0.8967(4) 0.24591(15)
H26G H 0.2985 0.8947 0.2338
H27G H 0.3765 0.9614 0.2626
C21G C 0.4552(8) 0.8937(6) 0.2166(3)
H28G H 0.5225 0.9248 0.2271
H29G H 0.4338 0.9348 0.1932
H33? H 0.4627 0.4069 0.3554
H34? H 0.3710 0.3476 0.3800
H35? H 0.2719 0.5293 0.3160
H36? H 0.1968 0.4552 0.2891
H37? H 0.0436 0.5838 0.2446
H38? H 0.0822 0.7057 0.2514
C23? C 0.5146(18) 0.3639(18) 0.4116(6)
H39? H 0.5696 0.4196 0.4146
H40? H 0.5482 0.2974 0.4022
H41? H 0.4800 0.3507 0.4368
C24? C 0.1321(17) 0.600(3) 0.3009(6)
H42? H 0.1532 0.6649 0.3160
H43? H 0.0723 0.5629 0.3142
H44? H 0.7456 0.3367 0.2404
loop_
_geom_bond_atom_site_label_1
_geom_bond_atom_site_label_2
_geom_bond_site_symmetry_1
_geom_bond_site_symmetry_2
S1 O1 1_555 1_555
O2 S1 1_555 1_555
O3 S1 1_555 1_555
F1 C1 1_555 1_555
F2 C1 1_555 1_555
F3 C1 1_555 1_555
C1 S1 1_555 1_555
Mg1 O4 1_555 1_555
O4 N1 1_555 1_555
O5 Mg1 1_555 1_555
O6 Mg1 1_555 1_555
N1 C3 1_555 1_555
N2 H1 1_555 1_555
C2 O5 1_555 1_555
C3 C2 1_555 1_555
H2 C3 1_555 1_555
C4 N1 1_555 1_555
H3 C4 1_555 1_555
H4 C4 1_555 1_555
C5 C3 1_555 1_555
H5 C5 1_555 1_555
H6 C5 1_555 1_555
C6 N2 1_555 1_555
C7 N1 1_555 1_555
H7 C7 1_555 1_555
H8 C7 1_555 1_555
C8 C6 1_555 1_555
C9 H9 1_555 1_555
H10 C9 1_555 1_555
C10 C5 1_555 1_555
H11 C10 1_555 1_555
H12 C10 1_555 1_555
C11 C6 1_555 1_555
C12 C8 1_555 1_555
H13 C12 1_555 1_555
H14 C12 1_555 1_555
C13 C9 1_555 1_555
H15 C13 1_555 1_555
H16 C13 1_555 1_555
H17 C13 1_555 1_555
C14 O6 1_555 1_555
H18 C14 1_555 1_555
H19 C14 1_555 1_555
C15 C8 1_555 1_555
H20 C15 1_555 1_555
C16 C4 1_555 1_555
H21 C16 1_555 1_555
C17 C11 1_555 1_555
H22 C17 1_555 1_555
C18 O6 1_555 1_555
H23 C18 1_555 1_555
H24 C18 1_555 1_555
C19 C15 1_555 1_555
H25 C19 1_555 1_555
C20 C14 1_555 1_555
H26 C20 1_555 1_555
H27 C20 1_555 1_555
C21 C18 1_555 1_555
H28 C21 1_555 1_555
H29 C21 1_555 1_555
C22 C12 1_555 1_555
H30 C22 1_555 1_555
H31 C22 1_555 1_555
H32 C22 1_555 1_555
H21G C16 1_555 1_555
O4G Mg1 1_555 1_555
O5G Mg1 1_555 1_555
N1G O4G 1_555 1_555
N2G H1G 1_555 1_555
C2G O5G 1_555 1_555
C3G N1G 1_555 1_555
H2G C3G 1_555 1_555
C4G C16 1_555 1_555
H3G C4G 1_555 1_555
H4G C4G 1_555 1_555
C5G C3G 1_555 1_555
H5G C5G 1_555 1_555
H6G C5G 1_555 1_555
C6G N2G 1_555 1_555
C7G N1G 1_555 1_555
H7G C7G 1_555 1_555
H8G C7G 1_555 1_555
C8G C6G 1_555 1_555
C9G H9G 1_555 1_555
H10G C9G 1_555 1_555
C10G C5G 1_555 1_555
H11G C10G 1_555 1_555
H12G C10G 1_555 1_555
C11G C6G 1_555 1_555
C12G C8G 1_555 1_555
H13G C12G 1_555 1_555
H14G C12G 1_555 1_555
C13G C9G 1_555 1_555
H15G C13G 1_555 1_555
H16G C13G 1_555 1_555
H17G C13G 1_555 1_555
C15G C8G 1_555 1_555
H20G C15G 1_555 1_555
C17G C11G 1_555 1_555
H22G C17G 1_555 1_555
C19G C15G 1_555 1_555
H25G C19G 1_555 1_555
C22G C12G 1_555 1_555
H30G C22G 1_555 1_555
H31G C22G 1_555 1_555
H32G C22G 1_555 1_555
O6G Mg1 1_555 1_555
C14G O6G 1_555 1_555
H18G C14G 1_555 1_555
H19G C14G 1_555 1_555
C18G O6G 1_555 1_555
H23G C18G 1_555 1_555
H24G C18G 1_555 1_555
C20G C14G 1_555 1_555
H26G C20G 1_555 1_555
H27G C20G 1_555 1_555
C21G C18G 1_555 1_555
H28G C21G 1_555 1_555
H29G C21G 1_555 1_555
N2 C2 1_555 1_555
C7 C10 1_555 1_555
C9 C11 1_555 1_555
C17 C19 1_555 1_555
C20 C21 1_555 1_555
N1G C4G 1_555 1_555
N2G C2G 1_555 1_555
C2G C3G 1_555 1_555
C7G C10G 1_555 1_555
C9G C11G 1_555 1_555
C17G C19G 1_555 1_555
C20G C21G 1_555 1_555

#END
