
#######################################################################
#
#                 Cambridge Crystallographic Data Centre
#                                CCDC 
#
#######################################################################
#
# If this CIF has been generated from an entry in the Cambridge 
# Structural Database, then it will include bibliographic, chemical, 
# crystal, experimental, refinement or atomic coordinate data resulting 
# from the CCDC's data processing and validation procedures.
#
#######################################################################

data_QIHYOX
_chemical_formula_moiety         'C6 H19 B11'
_chemical_name_systematic        
1,2-(butane-1,4-diyl)-1,2-dicarba-closo-dodecaborane
_symmetry_cell_setting           orthorhombic
_symmetry_space_group_name_H-M   'P b c a'
_symmetry_Int_Tables_number      61
_space_group_name_Hall           '-P 2ac 2ab'
loop_
_symmetry_equiv_pos_site_id
_symmetry_equiv_pos_as_xyz
1 x,y,z
2 1/2-x,-y,1/2+z
3 -x,1/2+y,1/2-z
4 1/2+x,1/2-y,-z
5 -x,-y,-z
6 1/2+x,y,1/2-z
7 x,1/2-y,1/2+z
8 1/2-x,1/2+y,z
_cell_length_a                   13.051(3)
_cell_length_b                   12.607(3)
_cell_length_c                   15.258(3)
_cell_angle_alpha                90
_cell_angle_beta                 90
_cell_angle_gamma                90
_cell_volume                     2510.46
_exptl_crystal_colour            colorless
_exptl_crystal_description       block
_cell_formula_units_Z            8
loop_
_atom_site_label
_atom_site_type_symbol
_atom_site_fract_x
_atom_site_fract_y
_atom_site_fract_z
C1 C 0.2363(2) 0.93642(19) 0.40764(16)
C2 C 0.3199(2) 0.8809(2) 0.44650(17)
C3 C 0.1484(2) 0.9622(2) 0.46866(18)
H1 H 0.0901 0.9898 0.4340
H2 H 0.1701 1.0185 0.5099
C4 C 0.1134(2) 0.8653(3) 0.52079(19)
H3 H 0.0726 0.8893 0.5718
H4 H 0.0682 0.8213 0.4833
C5 C 0.2023(2) 0.7971(2) 0.55336(18)
H5 H 0.1919 0.7807 0.6162
H6 H 0.2029 0.7292 0.5208
C6 C 0.3053(2) 0.8519(2) 0.54182(17)
H7 H 0.3078 0.9167 0.5784
H8 H 0.3611 0.8040 0.5610
B1 B 0.3537(2) 1.0124(2) 0.3874(2)
H9 H 0.3424 1.0841 0.4297
B2 B 0.4394(2) 0.8912(3) 0.4130(2)
H10 H 0.4971 0.8879 0.4673
B3 B 0.3631(2) 0.7818(2) 0.37557(18)
H11 H 0.3614 0.7006 0.4054
B4 B 0.2385(2) 0.8359(2) 0.32103(19)
H12 H 0.1723 0.7800 0.3276
B5 B 0.2330(3) 0.9834(2) 0.31296(18)
H13 H 0.1633 1.0333 0.3018
B6 B 0.4619(3) 0.9734(3) 0.3209(2)
H14 H 0.5319 1.0247 0.3217
B7 B 0.4668(3) 0.8317(3) 0.3132(2)
H15 H 0.5397 0.7859 0.3052
B8 B 0.3481(2) 0.7946(2) 0.26227(18)
H16 H 0.3410 0.7194 0.2237
B9 B 0.2835(3) 0.9102(2) 0.22525(19)
H17 H 0.2401 0.9117 0.1619
B10 B 0.3536(3) 1.0195(2) 0.2651(2)
H18 H 0.3571 1.0976 0.2304
B11 B 0.4185(3) 0.9078(3) 0.2244(2)
H19 H 0.4616 0.9095 0.1609
loop_
_geom_bond_atom_site_label_1
_geom_bond_atom_site_label_2
_geom_bond_site_symmetry_1
_geom_bond_site_symmetry_2
C1 C2 1_555 1_555
C2 C6 1_555 1_555
C3 C1 1_555 1_555
H1 C3 1_555 1_555
H2 C3 1_555 1_555
C4 C3 1_555 1_555
H3 C4 1_555 1_555
H4 C4 1_555 1_555
C5 C4 1_555 1_555
H5 C5 1_555 1_555
H6 C5 1_555 1_555
C6 C5 1_555 1_555
H7 C6 1_555 1_555
H8 C6 1_555 1_555
B1 C1 1_555 1_555
H9 B1 1_555 1_555
B2 C2 1_555 1_555
H10 B2 1_555 1_555
B3 C2 1_555 1_555
H11 B3 1_555 1_555
B4 C1 1_555 1_555
H12 B4 1_555 1_555
B5 C1 1_555 1_555
H13 B5 1_555 1_555
B6 B1 1_555 1_555
H14 B6 1_555 1_555
B7 B2 1_555 1_555
H15 B7 1_555 1_555
B8 B3 1_555 1_555
H16 B8 1_555 1_555
B9 B4 1_555 1_555
H17 B9 1_555 1_555
B10 B1 1_555 1_555
H18 B10 1_555 1_555
B11 B6 1_555 1_555
H19 B11 1_555 1_555
C2 B1 1_555 1_555
B1 B2 1_555 1_555
B1 B5 1_555 1_555
B2 B3 1_555 1_555
B2 B6 1_555 1_555
B3 B4 1_555 1_555
B3 B7 1_555 1_555
B4 B5 1_555 1_555
B4 B8 1_555 1_555
B5 B9 1_555 1_555
B5 B10 1_555 1_555
B6 B7 1_555 1_555
B6 B10 1_555 1_555
B7 B8 1_555 1_555
B7 B11 1_555 1_555
B8 B9 1_555 1_555
B8 B11 1_555 1_555
B9 B10 1_555 1_555
B9 B11 1_555 1_555
B10 B11 1_555 1_555

#END
