
#######################################################################
#
#                 Cambridge Crystallographic Data Centre
#                                CCDC 
#
#######################################################################
#
# If this CIF has been generated from an entry in the Cambridge 
# Structural Database, then it will include bibliographic, chemical, 
# crystal, experimental, refinement or atomic coordinate data resulting 
# from the CCDC's data processing and validation procedures.
#
#######################################################################

data_QIHZUC02
_chemical_compound_source        'red alga L.tristicha'
_chemical_name_common            ma'ilione
_chemical_formula_moiety         'C14 H19 Br1 O2'
_chemical_name_systematic        
8-bromo-9-hydroxy-7,7-dimethyl-11-methylenespiro[5.5]undec-1-en-3-one
_chemical_properties_biological  
'tested for antibacterial and cytotoxic activity'
_symmetry_cell_setting           orthorhombic
_symmetry_space_group_name_H-M   'P 21 21 21'
_symmetry_Int_Tables_number      19
_space_group_name_Hall           'P 2ac 2ab'
loop_
_symmetry_equiv_pos_site_id
_symmetry_equiv_pos_as_xyz
1 x,y,z
2 1/2+x,1/2-y,-z
3 -x,1/2+y,1/2-z
4 1/2-x,-y,1/2+z
_cell_length_a                   7.3316(5)
_cell_length_b                   9.7804(6)
_cell_length_c                   17.8769(12)
_cell_angle_alpha                90
_cell_angle_beta                 90
_cell_angle_gamma                90
_cell_volume                     1281.88
_exptl_crystal_colour            colorless
_cell_formula_units_Z            4
loop_
_atom_site_label
_atom_site_type_symbol
_atom_site_fract_x
_atom_site_fract_y
_atom_site_fract_z
Br1 Br 0.85908(4) 0.45105(3) 0.84898(2)
C1 C 1.0366(4) 0.5380(3) 0.46268(15)
C2 C 0.9699(4) 0.6477(3) 0.51449(16)
H1 H 0.8448 0.6748 0.4999
H2 H 1.0494 0.7291 0.5097
C3 C 0.9695(4) 0.5995(3) 0.59577(17)
H3 H 0.9240 0.6742 0.6282
H4 H 1.0960 0.5782 0.6113
C4 C 0.8490(4) 0.4716(3) 0.60691(14)
C5 C 0.8986(3) 0.3684(3) 0.54684(16)
H5 H 0.8650 0.2758 0.5551
C6 C 0.9857(4) 0.3979(3) 0.48347(17)
H6 H 1.0162 0.3254 0.4504
C7 C 0.8792(4) 0.4035(3) 0.68706(15)
C8 C 0.8145(4) 0.5102(3) 0.74466(15)
H7 H 0.8906 0.5937 0.7365
C9 C 0.6155(4) 0.5561(3) 0.73914(15)
H8 H 0.5946 0.6326 0.7752
C10 C 0.5812(4) 0.6086(3) 0.65936(16)
H9 H 0.4487 0.6240 0.6526
H10 H 0.6435 0.6977 0.6531
C11 C 0.6471(4) 0.5119(3) 0.59961(15)
C12 C 0.5401(4) 0.4711(3) 0.54455(16)
H11 H 0.4178 0.5029 0.5419
H12 H 0.5854 0.4101 0.5076
C13 C 0.7745(4) 0.2681(3) 0.69370(16)
H13 H 0.8369 0.1974 0.6644
H14 H 0.6502 0.2802 0.6747
H15 H 0.7697 0.2401 0.7463
C14 C 1.0830(4) 0.3737(3) 0.69948(16)
H16 H 1.0986 0.3223 0.7461
H17 H 1.1501 0.4602 0.7028
H18 H 1.1300 0.3198 0.6575
O1 O 1.1254(3) 0.5630(2) 0.40634(11)
O2 O 0.4893(3) 0.4508(3) 0.75420(11)
H19 H 0.4585 0.4539 0.7994
loop_
_geom_bond_atom_site_label_1
_geom_bond_atom_site_label_2
_geom_bond_site_symmetry_1
_geom_bond_site_symmetry_2
Br1 C8 1_555 1_555
C1 C2 1_555 1_555
C2 H1 1_555 1_555
H2 C2 1_555 1_555
C3 C2 1_555 1_555
H3 C3 1_555 1_555
H4 C3 1_555 1_555
C4 C3 1_555 1_555
C5 C4 1_555 1_555
H5 C5 1_555 1_555
C6 C1 1_555 1_555
H6 C6 1_555 1_555
C7 C4 1_555 1_555
C8 C7 1_555 1_555
H7 C8 1_555 1_555
C9 C8 1_555 1_555
H8 C9 1_555 1_555
C10 C9 1_555 1_555
H9 C10 1_555 1_555
H10 C10 1_555 1_555
C11 C4 1_555 1_555
C12 C11 1_555 1_555
H11 C12 1_555 1_555
H12 C12 1_555 1_555
C13 C7 1_555 1_555
H13 C13 1_555 1_555
H14 C13 1_555 1_555
H15 C13 1_555 1_555
C14 C7 1_555 1_555
H16 C14 1_555 1_555
H17 C14 1_555 1_555
H18 C14 1_555 1_555
O1 C1 1_555 1_555
O2 C9 1_555 1_555
H19 O2 1_555 1_555
C5 C6 1_555 1_555
C10 C11 1_555 1_555

#END
