
#######################################################################
#
#                 Cambridge Crystallographic Data Centre
#                                CCDC 
#
#######################################################################
#
# If this CIF has been generated from an entry in the Cambridge 
# Structural Database, then it will include bibliographic, chemical, 
# crystal, experimental, refinement or atomic coordinate data resulting 
# from the CCDC's data processing and validation procedures.
#
#######################################################################

data_QIHZOY
_chemical_formula_moiety         'C14 H19 N2 1+,C7 H22 B11 O1 1-'
_chemical_name_systematic        
'8-(Dimethylamino)-1-(dimethylammonio)naphthalene 8-methoxy-7,8,9-(cyclohexane-1,2-diylidene)-7,8-\mH-nido-undecaborate(11)'
_symmetry_cell_setting           triclinic
_symmetry_space_group_name_H-M   'P -1'
_symmetry_Int_Tables_number      2
_space_group_name_Hall           '-P 1'
loop_
_symmetry_equiv_pos_site_id
_symmetry_equiv_pos_as_xyz
1 x,y,z
2 -x,-y,-z
_cell_length_a                   8.3906(15)
_cell_length_b                   10.904(2)
_cell_length_c                   15.541(3)
_cell_angle_alpha                99.131(3)
_cell_angle_beta                 94.715(3)
_cell_angle_gamma                102.261(3)
_cell_volume                     1361.89
_exptl_crystal_colour            colorless
_exptl_crystal_description       block
_cell_formula_units_Z            2
loop_
_atom_site_label
_atom_site_type_symbol
_atom_site_fract_x
_atom_site_fract_y
_atom_site_fract_z
O1 O 0.6136(4) 0.4072(3) 0.40296(17)
C1 C 0.4360(4) 0.2296(3) 0.2734(2)
C2 C 0.5594(5) 0.1760(3) 0.3060(2)
C3 C 0.2789(5) 0.2240(4) 0.3169(3)
H1 H 0.2799 0.3089 0.3477
H2 H 0.1858 0.1994 0.2714
C4 C 0.2547(7) 0.1341(6) 0.3798(4)
H3 H 0.1801 0.1605 0.4196
H4 H 0.2004 0.0503 0.3468
C5 C 0.3933(9) 0.1217(8) 0.4301(5)
H5 H 0.3623 0.0476 0.4576
H6 H 0.4265 0.1958 0.4767
C6 C 0.5384(6) 0.1085(4) 0.3838(3)
H7 H 0.5310 0.0184 0.3636
H8 H 0.6363 0.1409 0.4257
C7 C 0.7076(7) 0.5329(4) 0.4358(3)
H9 H 0.6870 0.5593 0.4950
H10 H 0.6771 0.5900 0.3998
H11 H 0.8223 0.5345 0.4349
B1 B 0.6194(6) 0.3421(4) 0.3157(3)
B2 B 0.7310(6) 0.1929(4) 0.2713(3)
H12 H 0.7751 0.1230 0.3052
B3 B 0.6709(6) 0.1202(4) 0.1426(3)
H13 H 0.6419 0.0153 0.1275
B4 B 0.5091(6) 0.1881(5) 0.1004(3)
H14 H 0.4022 0.1160 0.0647
B5 B 0.4558(6) 0.3091(5) 0.1983(3)
H15 H 0.3258 0.3123 0.1863
B6 B 0.8092(6) 0.3657(5) 0.2684(3)
H16 H 0.9135 0.4209 0.3163
B7 B 0.8360(6) 0.2464(5) 0.1834(3)
H17 H 0.9581 0.2249 0.1813
B8 B 0.7140(6) 0.2465(5) 0.0857(3)
H18 H 0.7552 0.2319 0.0202
B9 B 0.5851(6) 0.3515(5) 0.1186(3)
H19 H 0.5329 0.4025 0.0718
B10 B 0.6528(6) 0.4309(5) 0.2277(3)
H20 H 0.6488 0.5314 0.2480
B11 B 0.7951(6) 0.3904(5) 0.1596(3)
H21 H 0.8863 0.4648 0.1387
H22 H 0.527(4) 0.115(3) 0.152(2)
N1 N 0.2750(4) 0.6954(3) 0.15267(19)
H23 H 0.2056 0.7356 0.1260
N2 N 0.0421(4) 0.8162(3) 0.12575(19)
C8 C 0.2318(5) 0.6948(4) 0.2425(2)
C9 C 0.3162(6) 0.6385(5) 0.2971(3)
H24 H 0.3969 0.5985 0.2768
C10 C 0.2819(7) 0.6406(6) 0.3840(3)
H25 H 0.3401 0.6022 0.4212
C11 C 0.1657(7) 0.6976(5) 0.4136(3)
H26 H 0.1449 0.6988 0.4716
C12 C 0.0733(5) 0.7563(4) 0.3585(3)
C13 C -0.0485(6) 0.8166(4) 0.3901(3)
H27 H -0.0696 0.8173 0.4479
C14 C -0.1356(7) 0.8735(5) 0.3376(4)
H28 H -0.2152 0.9132 0.3597
C15 C -0.1056(6) 0.8726(4) 0.2504(3)
H29 H -0.1662 0.9116 0.2149
C16 C 0.0107(5) 0.8155(3) 0.2166(2)
C17 C 0.1059(4) 0.7549(3) 0.2698(2)
C18 C 0.2473(6) 0.5643(4) 0.0992(3)
H30 H 0.1366 0.5186 0.1008
H31 H 0.3227 0.5198 0.1229
H32 H 0.2646 0.5705 0.0396
C19 C 0.4434(5) 0.7709(5) 0.1517(3)
H33 H 0.4562 0.8546 0.1859
H34 H 0.4618 0.7779 0.0923
H35 H 0.5215 0.7292 0.1762
C20 C -0.1020(6) 0.7471(5) 0.0623(3)
H36 H -0.1390 0.6626 0.0742
H37 H -0.0720 0.7420 0.0038
H38 H -0.1886 0.7919 0.0678
C21 C 0.1035(7) 0.9472(4) 0.1093(3)
H39 H 0.1975 0.9897 0.1510
H40 H 0.0187 0.9937 0.1154
H41 H 0.1342 0.9431 0.0509
loop_
_geom_bond_atom_site_label_1
_geom_bond_atom_site_label_2
_geom_bond_site_symmetry_1
_geom_bond_site_symmetry_2
O1 C7 1_555 1_555
C1 C2 1_555 1_555
C2 C6 1_555 1_555
C3 C1 1_555 1_555
H1 C3 1_555 1_555
H2 C3 1_555 1_555
C4 C3 1_555 1_555
H3 C4 1_555 1_555
H4 C4 1_555 1_555
C5 C4 1_555 1_555
H5 C5 1_555 1_555
H6 C5 1_555 1_555
C6 C5 1_555 1_555
H7 C6 1_555 1_555
H8 C6 1_555 1_555
C7 H9 1_555 1_555
H10 C7 1_555 1_555
H11 C7 1_555 1_555
B1 O1 1_555 1_555
B2 C2 1_555 1_555
H12 B2 1_555 1_555
B3 B2 1_555 1_555
H13 B3 1_555 1_555
B4 B3 1_555 1_555
H14 B4 1_555 1_555
B5 C1 1_555 1_555
H15 B5 1_555 1_555
B6 B1 1_555 1_555
H16 B6 1_555 1_555
B7 B2 1_555 1_555
H17 B7 1_555 1_555
B8 B3 1_555 1_555
H18 B8 1_555 1_555
B9 B4 1_555 1_555
H19 B9 1_555 1_555
B10 B1 1_555 1_555
H20 B10 1_555 1_555
B11 B6 1_555 1_555
H21 B11 1_555 1_555
H22 B3 1_555 1_555
N1 H23 1_555 1_555
N2 C16 1_555 1_555
C8 N1 1_555 1_555
C9 C8 1_555 1_555
H24 C9 1_555 1_555
C10 C9 1_555 1_555
H25 C10 1_555 1_555
C11 C10 1_555 1_555
H26 C11 1_555 1_555
C12 C11 1_555 1_555
C13 C12 1_555 1_555
H27 C13 1_555 1_555
C14 C13 1_555 1_555
H28 C14 1_555 1_555
C15 C14 1_555 1_555
H29 C15 1_555 1_555
C16 C15 1_555 1_555
C17 C8 1_555 1_555
C18 N1 1_555 1_555
H30 C18 1_555 1_555
H31 C18 1_555 1_555
H32 C18 1_555 1_555
C19 N1 1_555 1_555
H33 C19 1_555 1_555
H34 C19 1_555 1_555
H35 C19 1_555 1_555
C20 N2 1_555 1_555
H36 C20 1_555 1_555
H37 C20 1_555 1_555
H38 C20 1_555 1_555
C21 N2 1_555 1_555
H39 C21 1_555 1_555
H40 C21 1_555 1_555
H41 C21 1_555 1_555
C1 B1 1_555 1_555
C2 B1 1_555 1_555
B1 B2 1_555 1_555
B1 B5 1_555 1_555
B2 B6 1_555 1_555
B3 B7 1_555 1_555
B4 B5 1_555 1_555
B4 B8 1_555 1_555
B4 H22 1_555 1_555
B5 B9 1_555 1_555
B5 B10 1_555 1_555
B6 B7 1_555 1_555
B6 B10 1_555 1_555
B7 B8 1_555 1_555
B7 B11 1_555 1_555
B8 B9 1_555 1_555
B8 B11 1_555 1_555
B9 B10 1_555 1_555
B9 B11 1_555 1_555
B10 B11 1_555 1_555
C12 C17 1_555 1_555
C16 C17 1_555 1_555

#END
