
#######################################################################
#
#                 Cambridge Crystallographic Data Centre
#                                CCDC 
#
#######################################################################
#
# If this CIF has been generated from an entry in the Cambridge 
# Structural Database, then it will include bibliographic, chemical, 
# crystal, experimental, refinement or atomic coordinate data resulting 
# from the CCDC's data processing and validation procedures.
#
#######################################################################

data_QIJBOA
_chemical_formula_moiety         'C26 H26 Br2 O5'
_chemical_name_systematic        
'6,7-bis(Bromomethyl)-2,11,18,21,24-pentaoxatetracyclo(23.4.0.0^4,9^.0^12,17^) nonacosa-1(25),4(9),5,7,12(17),13,15,26,28-nonene'
_symmetry_cell_setting           orthorhombic
_symmetry_space_group_name_H-M   'P 21 21 21'
_symmetry_Int_Tables_number      19
_space_group_name_Hall           'P 2ac 2ab'
loop_
_symmetry_equiv_pos_site_id
_symmetry_equiv_pos_as_xyz
1 x,y,z
2 1/2-x,-y,1/2+z
3 1/2+x,1/2-y,-z
4 -x,1/2+y,1/2-z
_cell_length_a                   8.141(2)
_cell_length_b                   13.7976(16)
_cell_length_c                   21.852(2)
_cell_angle_alpha                90
_cell_angle_beta                 90
_cell_angle_gamma                90
_cell_volume                     2454.55
_exptl_crystal_colour            colorless
_exptl_crystal_description       plate
_chemical_melting_point          455-456K
_cell_formula_units_Z            4
_exptl_crystal_recrystallization_method dichloromethane/n-hexane
loop_
_atom_site_label
_atom_site_type_symbol
_atom_site_fract_x
_atom_site_fract_y
_atom_site_fract_z
Br1 Br -0.35852(19) 0.12183(11) 0.11245(7)
Br2 Br -0.3442(2) 0.13257(11) -0.08749(8)
O1 O 0.2557(11) -0.0494(6) 0.1410(5)
O2 O 0.3377(12) -0.2384(6) 0.1168(4)
O3 O 0.3539(11) -0.3224(5) -0.0018(5)
O4 O 0.3295(12) -0.2149(7) -0.1140(4)
O5 O 0.2500(12) -0.0241(7) -0.1188(5)
C1 C -0.1668(17) 0.1962(8) 0.0906(6)
H1 H -0.2007 0.2543 0.0691
H2 H -0.1099 0.2159 0.1276
C2 C -0.0508(16) 0.1389(10) 0.0506(7)
C3 C -0.0540(14) 0.1448(8) -0.0136(8)
C4 C -0.1722(18) 0.2084(8) -0.0484(6)
H3 H -0.1125 0.2445 -0.0793
H4 H -0.2216 0.2546 -0.0205
C5 C 0.0575(16) 0.0911(8) -0.0458(6)
H5 H 0.0577 0.0971 -0.0882
C6 C 0.1691(15) 0.0288(7) -0.0199(7)
C7 C 0.1692(16) 0.0212(8) 0.0434(7)
C8 C 0.0636(17) 0.0769(9) 0.0758(7)
H6 H 0.0685 0.0730 0.1183
C9 C 0.2874(15) -0.0452(8) 0.0760(6)
H7 H 0.2785 -0.1099 0.0589
H8 H 0.3987 -0.0226 0.0693
C10 C 0.372(2) -0.0963(10) 0.1754(6)
C11 C 0.4361(19) -0.0456(11) 0.2251(7)
H9 H 0.4171 0.0194 0.2339
C12 C 0.536(5) -0.110(4) 0.2605(19)
H10 H 0.5858 -0.0835 0.2950
C13 C 0.567(4) -0.206(3) 0.2497(18)
H11 H 0.6263 -0.2438 0.2769
C14 C 0.515(2) -0.2365(12) 0.2057(8)
H12 H 0.5514 -0.2982 0.1952
C15 C 0.4061(19) -0.1944(12) 0.1658(8)
C16 C 0.373(2) -0.3376(9) 0.1056(7)
H13 H 0.3399 -0.3768 0.1402
H14 H 0.4901 -0.3465 0.0991
C17 C 0.2796(16) -0.3666(9) 0.0497(8)
H15 H 0.2814 -0.4366 0.0452
H16 H 0.1662 -0.3459 0.0532
C18 C 0.278(2) -0.3570(10) -0.0545(8)
H17 H 0.1637 -0.3367 -0.0550
H18 H 0.2807 -0.4272 -0.0548
C19 C 0.364(2) -0.3183(10) -0.1102(7)
H19 H 0.4817 -0.3290 -0.1067
H20 H 0.3251 -0.3511 -0.1466
C20 C 0.4062(16) -0.1618(13) -0.1570(7)
C21 C 0.508(5) -0.218(3) -0.1979(16)
H21 H 0.5175 -0.2852 -0.1954
C22 C 0.589(5) -0.165(4) -0.2403(17)
H22 H 0.6622 -0.1941 -0.2671
C23 C 0.563(6) -0.067(4) -0.2436(18)
H23 H 0.6209 -0.0288 -0.2711
C24 C 0.440(5) -0.024(4) -0.2027(17)
H24 H 0.4148 0.0407 -0.2106
C25 C 0.362(2) -0.0620(11) -0.1578(7)
C26 C 0.2845(16) -0.0322(8) -0.0559(6)
H25 H 0.3965 -0.0117 -0.0481
H26 H 0.2741 -0.0994 -0.0433
C27? C 0.552(5) -0.070(4) 0.2686(19)
H27? H 0.5949 -0.0286 0.2983
C28? C 0.590(5) -0.164(4) 0.2601(17)
H28? H 0.6657 -0.1908 0.2871
C29? C 0.525(5) -0.178(4) -0.200(2)
H29? H 0.5651 -0.2408 -0.2022
C30? C 0.594(5) -0.112(4) -0.2404(17)
H30? H 0.6777 -0.1315 -0.2670
C31? C 0.537(4) -0.019(3) -0.2405(15)
H31? H 0.5719 0.0222 -0.2717
C32? C 0.429(4) 0.020(3) -0.1966(15)
H32? H 0.4024 0.0849 -0.1921
loop_
_geom_bond_atom_site_label_1
_geom_bond_atom_site_label_2
_geom_bond_site_symmetry_1
_geom_bond_site_symmetry_2
Br1 C1 1_555 1_555
Br2 C4 1_555 1_555
O1 C9 1_555 1_555
O2 C15 1_555 1_555
O3 C17 1_555 1_555
O4 C19 1_555 1_555
O5 C25 1_555 1_555
C1 H1 1_555 1_555
H2 C1 1_555 1_555
C2 C1 1_555 1_555
C3 C2 1_555 1_555
C4 C3 1_555 1_555
H3 C4 1_555 1_555
H4 C4 1_555 1_555
C5 C3 1_555 1_555
H5 C5 1_555 1_555
C6 C5 1_555 1_555
C7 C6 1_555 1_555
C8 C2 1_555 1_555
H6 C8 1_555 1_555
C9 C7 1_555 1_555
H7 C9 1_555 1_555
H8 C9 1_555 1_555
C10 O1 1_555 1_555
C11 C10 1_555 1_555
H9 C11 1_555 1_555
C12 C11 1_555 1_555
H10 C12 1_555 1_555
C13 C12 1_555 1_555
H11 C13 1_555 1_555
C14 C13 1_555 1_555
H12 C14 1_555 1_555
C15 C10 1_555 1_555
C16 O2 1_555 1_555
H13 C16 1_555 1_555
H14 C16 1_555 1_555
C17 C16 1_555 1_555
H15 C17 1_555 1_555
H16 C17 1_555 1_555
C18 O3 1_555 1_555
H17 C18 1_555 1_555
H18 C18 1_555 1_555
C19 C18 1_555 1_555
H19 C19 1_555 1_555
H20 C19 1_555 1_555
C20 O4 1_555 1_555
C21 C20 1_555 1_555
H21 C21 1_555 1_555
C22 C21 1_555 1_555
H22 C22 1_555 1_555
C23 C22 1_555 1_555
H23 C23 1_555 1_555
C24 C23 1_555 1_555
H24 C24 1_555 1_555
C25 C20 1_555 1_555
C26 O5 1_555 1_555
H25 C26 1_555 1_555
H26 C26 1_555 1_555
C6 C26 1_555 1_555
C7 C8 1_555 1_555
C14 C15 1_555 1_555
C24 C25 1_555 1_555

#END
