
#######################################################################
#
#                 Cambridge Crystallographic Data Centre
#                                CCDC 
#
#######################################################################
#
# If this CIF has been generated from an entry in the Cambridge 
# Structural Database, then it will include bibliographic, chemical, 
# crystal, experimental, refinement or atomic coordinate data resulting 
# from the CCDC's data processing and validation procedures.
#
#######################################################################

data_QIJDUL
_chemical_formula_moiety         'C30 H29 N3 O1'
_chemical_name_systematic        
'[11-(4-methylphenyl)-1,2,3,4,4a,5a,11,11a-octahydro-5H-cyclohepta[b]quinoxalin-5-yl](quinolin-2-yl)methanone'
_symmetry_cell_setting           monoclinic
_symmetry_space_group_name_H-M   'P 21'
_symmetry_Int_Tables_number      4
_space_group_name_Hall           'P 2yb'
loop_
_symmetry_equiv_pos_site_id
_symmetry_equiv_pos_as_xyz
1 x,y,z
2 -x,1/2+y,-z
_cell_length_a                   13.5072(4)
_cell_length_b                   5.66157(13)
_cell_length_c                   16.5234(4)
_cell_angle_alpha                90
_cell_angle_beta                 109.265(3)
_cell_angle_gamma                90
_cell_volume                     1192.82
_exptl_crystal_colour            'light colorless'
_exptl_crystal_description       plate
_cell_formula_units_Z            2
loop_
_atom_site_label
_atom_site_type_symbol
_atom_site_fract_x
_atom_site_fract_y
_atom_site_fract_z
O1 O 0.22380(14) 0.3746(4) 0.04556(11)
N1 N 0.48525(16) 0.4983(4) 0.14499(13)
N2 N 0.28727(15) 0.5477(4) 0.17649(12)
N3 N 0.22209(15) 0.5044(4) 0.31868(13)
C1 C 0.40778(18) 0.3488(5) 0.11293(14)
C2 C 0.36901(18) 0.5590(5) 0.26061(15)
H1 H 0.4245 0.4434 0.2595
C3 C 0.29893(18) 0.4246(5) 0.10988(15)
C4 C 0.58223(18) 0.4378(5) 0.14312(15)
C5 C 0.6658(2) 0.5968(5) 0.17737(17)
H2 H 0.6550 0.7374 0.2047
C6 C 0.4189(2) 0.1286(5) 0.07685(15)
H3 H 0.3604 0.0262 0.0547
C7 C 0.19425(18) 0.5002(5) 0.39597(15)
C8 C 0.60080(19) 0.2229(5) 0.10627(15)
C9 C 0.42216(19) 0.7928(5) 0.28539(15)
H4 H 0.3897 0.9345 0.2588
C10 C 0.7017(2) 0.1792(5) 0.10100(16)
H5 H 0.7151 0.0369 0.0759
C11 C 0.18023(18) 0.6232(5) 0.16839(15)
H6 H 0.1319 0.4868 0.1458
C12 C 0.5649(2) 0.5955(6) 0.39730(17)
H7 H 0.6392 0.5841 0.4146
C13 C 0.5152(2) 0.0662(5) 0.07444(15)
H8 H 0.5249 -0.0824 0.0514
C14 C 0.5133(2) 0.4199(6) 0.42291(17)
H9 H 0.5553 0.2970 0.4562
C15 C 0.32986(19) 0.4837(5) 0.33248(15)
C16 C 0.5171(2) 0.7968(6) 0.34630(17)
H10 H 0.5549 0.9414 0.3563
C17 C 0.17310(18) 0.6909(5) 0.25561(16)
H11 H 0.2123 0.8418 0.2747
C18 C 0.05766(19) 0.7317(5) 0.24525(17)
H12 H 0.0171 0.5857 0.2238
H13 H 0.0508 0.7713 0.3015
C19 C 0.4020(2) 0.4005(5) 0.40495(16)
H14 H 0.3776 0.3252 0.4462
C20 C 0.2236(2) 0.6824(5) 0.45523(17)
H15 H 0.2595 0.8160 0.4439
C21 C 0.2006(2) 0.6700(6) 0.53099(18)
H16 H 0.2213 0.7958 0.5711
C22 C 0.1412(2) 0.3089(6) 0.41279(18)
H17 H 0.1205 0.1834 0.3725
C23 C 0.7626(2) 0.5497(6) 0.1715(2)
H18 H 0.8185 0.6584 0.1943
C24 C 0.1425(2) 0.8304(6) 0.10645(17)
H19 H 0.1490 0.7897 0.0501
H20 H 0.1867 0.9708 0.1291
C25 C 0.1177(2) 0.2993(7) 0.4889(2)
H21 H 0.0801 0.1677 0.4995
C26 C 0.7796(2) 0.3413(6) 0.13187(18)
H22 H 0.8465 0.3130 0.1265
C27 C 0.1482(2) 0.4777(6) 0.54921(18)
C28 C 0.0142(2) 0.9330(6) 0.18229(19)
H23 H 0.0507 1.0814 0.2066
H24 H -0.0613 0.9537 0.1740
C29 C 0.0280(2) 0.8865(6) 0.09558(19)
H25 H 0.0053 1.0273 0.0585
H26 H -0.0169 0.7520 0.0671
C30 C 0.1276(3) 0.4637(9) 0.6336(2)
H27 H 0.1930 0.4258 0.6796
H28 H 0.0756 0.3403 0.6304
H29 H 0.1009 0.6160 0.6457
loop_
_geom_bond_atom_site_label_1
_geom_bond_atom_site_label_2
_geom_bond_site_symmetry_1
_geom_bond_site_symmetry_2
O1 C3 1_555 1_555
N1 C1 1_555 1_555
N2 C2 1_555 1_555
N3 C7 1_555 1_555
C1 C3 1_555 1_555
C2 H1 1_555 1_555
C3 N2 1_555 1_555
C4 N1 1_555 1_555
C5 C4 1_555 1_555
H2 C5 1_555 1_555
C6 C1 1_555 1_555
H3 C6 1_555 1_555
C7 C20 1_555 1_555
C8 C4 1_555 1_555
C9 C2 1_555 1_555
H4 C9 1_555 1_555
C10 C8 1_555 1_555
H5 C10 1_555 1_555
C11 N2 1_555 1_555
H6 C11 1_555 1_555
C12 H7 1_555 1_555
C13 C6 1_555 1_555
H8 C13 1_555 1_555
C14 C12 1_555 1_555
H9 C14 1_555 1_555
C15 N3 1_555 1_555
C16 C9 1_555 1_555
H10 C16 1_555 1_555
C17 N3 1_555 1_555
H11 C17 1_555 1_555
C18 C17 1_555 1_555
H12 C18 1_555 1_555
H13 C18 1_555 1_555
C19 C14 1_555 1_555
H14 C19 1_555 1_555
C20 H15 1_555 1_555
C21 C20 1_555 1_555
H16 C21 1_555 1_555
C22 C7 1_555 1_555
H17 C22 1_555 1_555
C23 C5 1_555 1_555
H18 C23 1_555 1_555
C24 C11 1_555 1_555
H19 C24 1_555 1_555
H20 C24 1_555 1_555
C25 C22 1_555 1_555
H21 C25 1_555 1_555
C26 C10 1_555 1_555
H22 C26 1_555 1_555
C27 C21 1_555 1_555
C28 C18 1_555 1_555
H23 C28 1_555 1_555
H24 C28 1_555 1_555
C29 C24 1_555 1_555
H25 C29 1_555 1_555
H26 C29 1_555 1_555
C30 C27 1_555 1_555
H27 C30 1_555 1_555
H28 C30 1_555 1_555
H29 C30 1_555 1_555
C2 C15 1_555 1_555
C8 C13 1_555 1_555
C11 C17 1_555 1_555
C12 C16 1_555 1_555
C15 C19 1_555 1_555
C23 C26 1_555 1_555
C25 C27 1_555 1_555
C28 C29 1_555 1_555

#END
