
#######################################################################
#
#                 Cambridge Crystallographic Data Centre
#                                CCDC 
#
#######################################################################
#
# If this CIF has been generated from an entry in the Cambridge 
# Structural Database, then it will include bibliographic, chemical, 
# crystal, experimental, refinement or atomic coordinate data resulting 
# from the CCDC's data processing and validation procedures.
#
#######################################################################

data_QIJDAR
_chemical_formula_moiety         'C25 H19 N3 O6,C1 H1 Cl3'
_chemical_name_systematic        
"4,4''-dinitro-2'-(pyridine-2-carbonyl)-1',2',3',6'-tetrahydro[1,1':3',1''-terphenyl]-4'-carbaldehyde chloroform solvate"
_symmetry_cell_setting           monoclinic
_symmetry_space_group_name_H-M   'P 21'
_symmetry_Int_Tables_number      4
_space_group_name_Hall           'P 2yb'
loop_
_symmetry_equiv_pos_site_id
_symmetry_equiv_pos_as_xyz
1 x,y,z
2 -x,1/2+y,-z
_cell_length_a                   8.7636(3)
_cell_length_b                   16.3786(4)
_cell_length_c                   9.8710(4)
_cell_angle_alpha                90
_cell_angle_beta                 111.874(4)
_cell_angle_gamma                90
_cell_volume                     1314.83
_exptl_crystal_colour            'yellowish yellow'
_exptl_crystal_description       irregular
_cell_formula_units_Z            2
_exptl_crystal_recrystallization_method chloroform
loop_
_atom_site_label
_atom_site_type_symbol
_atom_site_fract_x
_atom_site_fract_y
_atom_site_fract_z
Cl1 Cl 0.23478(14) 0.55785(7) 0.52109(13)
Cl2 Cl 0.26336(14) 0.51356(9) 0.24709(12)
Cl3 Cl 0.16205(19) 0.39372(7) 0.41255(15)
C1 C 0.2861(5) 0.4802(3) 0.4239(5)
H1 H 0.403588 0.464637 0.477681
O1 O 0.6135(3) 0.45439(15) 0.6770(3)
O2 O 1.2002(3) 0.67437(17) 0.7607(3)
O3 O 0.2686(4) 0.3103(2) 1.0805(3)
O4 O 0.5009(4) 0.6571(2) 0.1135(3)
O5 O 0.4904(4) 0.2933(2) 1.2693(3)
N1 N 0.4958(4) 0.6878(2) 0.2248(3)
N2 N 1.0124(4) 0.37162(18) 0.7707(3)
N3 N 0.4131(4) 0.3250(2) 1.1515(3)
O6 O 0.4009(4) 0.7426(2) 0.2240(3)
C2 C 0.8509(4) 0.3808(2) 0.6930(4)
C3 C 0.6632(4) 0.4936(2) 0.9821(4)
C4 C 0.6089(4) 0.6566(2) 0.3664(4)
C5 C 0.6704(4) 0.3837(2) 1.1493(4)
H2 H 0.730370 0.347514 1.225889
C6 C 0.4914(4) 0.4914(2) 0.9291(4)
H3 H 0.430673 0.528861 0.855162
C7 C 0.7504(4) 0.4382(2) 1.0921(4)
H4 H 0.867155 0.438229 1.127982
C8 C 0.5002(4) 0.3832(2) 1.0920(4)
C9 C 0.7332(4) 0.6711(2) 0.6245(4)
H5 H 0.744283 0.699878 0.711233
C10 C 1.0267(4) 0.6375(2) 0.8868(4)
C11 C 0.8291(4) 0.6022(2) 0.6331(4)
C12 C 0.7617(4) 0.4479(2) 0.7364(4)
C13 C 0.7018(4) 0.5877(2) 0.3695(4)
H6 H 0.690407 0.559417 0.282268
C14 C 1.1544(4) 0.6861(2) 0.8609(4)
H7 H 1.204101 0.729307 0.926779
C15 C 0.8444(5) 0.2710(2) 0.5320(4)
H8 H 0.787680 0.237010 0.450778
C16 C 0.9865(4) 0.6565(2) 1.0010(4)
H9 H 1.042978 0.700510 1.061594
C17 C 0.9471(4) 0.5695(2) 0.7801(4)
H10 H 1.036564 0.539141 0.761965
C18 C 0.6216(4) 0.6987(2) 0.4916(4)
H11 H 0.555609 0.745479 0.486672
C19 C 1.0873(5) 0.3107(2) 0.7294(4)
H12 H 1.200989 0.302052 0.783781
C20 C 0.4081(4) 0.4361(2) 0.9816(4)
H13 H 0.291345 0.434246 0.943544
C21 C 0.8124(4) 0.5611(2) 0.5045(4)
H14 H 0.877760 0.514176 0.508996
C22 C 0.8623(4) 0.5087(2) 0.8523(3)
H15 H 0.949692 0.478051 0.931107
C23 C 0.8581(4) 0.6128(2) 1.0397(4)
H16 H 0.784766 0.653727 1.057885
H17 H 0.912654 0.581994 1.131319
C24 C 0.7641(4) 0.3331(2) 0.5730(4)
H18 H 0.650690 0.343068 0.519543
C25 C 1.0097(5) 0.2597(2) 0.6128(4)
H19 H 1.069123 0.217386 0.588313
C26 C 0.7533(4) 0.5535(2) 0.9207(4)
H20 H 0.669439 0.586074 0.842308
loop_
_geom_bond_atom_site_label_1
_geom_bond_atom_site_label_2
_geom_bond_site_symmetry_1
_geom_bond_site_symmetry_2
Cl1 C1 1_555 1_555
Cl2 C1 1_555 1_555
Cl3 C1 1_555 1_555
C1 H1 1_555 1_555
O1 C12 1_555 1_555
O2 C14 1_555 1_555
O3 N3 1_555 1_555
O4 N1 1_555 1_555
O5 N3 1_555 1_555
N1 O6 1_555 1_555
N2 C2 1_555 1_555
N3 C8 1_555 1_555
C2 C12 1_555 1_555
C3 C6 1_555 1_555
C4 N1 1_555 1_555
C5 H2 1_555 1_555
C6 H3 1_555 1_555
C7 C3 1_555 1_555
H4 C7 1_555 1_555
C8 C5 1_555 1_555
C9 H5 1_555 1_555
C10 C14 1_555 1_555
C11 C9 1_555 1_555
C12 C22 1_555 1_555
C13 C4 1_555 1_555
H6 C13 1_555 1_555
C14 H7 1_555 1_555
C15 H8 1_555 1_555
C16 C10 1_555 1_555
H9 C16 1_555 1_555
C17 C10 1_555 1_555
H10 C17 1_555 1_555
C18 C4 1_555 1_555
H11 C18 1_555 1_555
C19 N2 1_555 1_555
H12 C19 1_555 1_555
C20 C6 1_555 1_555
H13 C20 1_555 1_555
C21 C11 1_555 1_555
H14 C21 1_555 1_555
C22 C17 1_555 1_555
H15 C22 1_555 1_555
C23 C16 1_555 1_555
H16 C23 1_555 1_555
H17 C23 1_555 1_555
C24 C2 1_555 1_555
H18 C24 1_555 1_555
C25 C15 1_555 1_555
H19 C25 1_555 1_555
C26 C3 1_555 1_555
H20 C26 1_555 1_555
C5 C7 1_555 1_555
C8 C20 1_555 1_555
C9 C18 1_555 1_555
C11 C17 1_555 1_555
C13 C21 1_555 1_555
C15 C24 1_555 1_555
C19 C25 1_555 1_555
C22 C26 1_555 1_555
C23 C26 1_555 1_555

#END
