
#######################################################################
#
#                 Cambridge Crystallographic Data Centre
#                                CCDC 
#
#######################################################################
#
# If this CIF has been generated from an entry in the Cambridge 
# Structural Database, then it will include bibliographic, chemical, 
# crystal, experimental, refinement or atomic coordinate data resulting 
# from the CCDC's data processing and validation procedures.
#
#######################################################################

data_QIJFOH
_chemical_formula_moiety         'C25 H19 Cl2 N1 O2,C1 H1 Cl3'
_chemical_name_systematic        
"4,4''-dichloro-2'-(pyridine-2-carbonyl)-1',2',3',6'-tetrahydro[1,1':3',1''-terphenyl]-4'-carbaldehyde chloroform solvate"
_symmetry_cell_setting           monoclinic
_symmetry_space_group_name_H-M   'P 21'
_symmetry_Int_Tables_number      4
_space_group_name_Hall           'P 2yb'
loop_
_symmetry_equiv_pos_site_id
_symmetry_equiv_pos_as_xyz
1 x,y,z
2 -x,1/2+y,-z
_cell_length_a                   9.1417(3)
_cell_length_b                   15.7963(3)
_cell_length_c                   9.8132(3)
_cell_angle_alpha                90
_cell_angle_beta                 115.300(4)
_cell_angle_gamma                90
_cell_volume                     1281.15
_exptl_crystal_colour            'light yellow'
_exptl_crystal_description       plate
_cell_formula_units_Z            2
_exptl_crystal_recrystallization_method chloroform
loop_
_atom_site_label
_atom_site_type_symbol
_atom_site_fract_x
_atom_site_fract_y
_atom_site_fract_z
C1 C -0.0805(3) 0.66894(18) 0.2576(3)
H1 H -0.191166 0.672000 0.197111
C2 C -0.0141(4) 0.72436(19) 0.3786(3)
H2 H -0.078748 0.763687 0.397705
C3 C 0.1498(4) 0.7199(2) 0.4700(3)
H3 H 0.197502 0.755922 0.552263
C4 C 0.2418(3) 0.66071(19) 0.4372(3)
H4 H 0.352354 0.656064 0.497254
C5 C 0.1659(3) 0.60841(16) 0.3127(3)
C6 C 0.2646(3) 0.54344(16) 0.2778(3)
C7 C 0.1750(3) 0.47433(15) 0.1636(3)
H5 H 0.087536 0.501337 0.077241
C8 C 0.2862(3) 0.42898(16) 0.1057(3)
H6 H 0.369261 0.398403 0.190293
C9 C 0.3705(3) 0.48891(15) 0.0412(3)
C10 C 0.2852(3) 0.55318(17) -0.0591(3)
H7 H 0.176277 0.561179 -0.082519
C11 C 0.3594(3) 0.60520(18) -0.1243(3)
H8 H 0.301168 0.647711 -0.190966
C12 C 0.5215(3) 0.59298(18) -0.0888(3)
C13 C 0.6107(3) 0.5298(2) 0.0102(3)
H9 H 0.719705 0.522282 0.033261
C14 C 0.5337(3) 0.47804(18) 0.0741(3)
H10 H 0.592201 0.435323 0.140172
C15 C 0.1872(3) 0.36377(17) -0.0160(3)
H11 H 0.132301 0.392806 -0.111644
H12 H 0.260896 0.323014 -0.026830
C16 C 0.0651(3) 0.31759(16) 0.0183(3)
H13 H 0.014627 0.270971 -0.041052
C17 C 0.0230(3) 0.33843(16) 0.1284(3)
C18 C 0.0966(3) 0.41123(16) 0.2357(3)
H14 H 0.007656 0.441249 0.245349
C19 C 0.2111(3) 0.37996(16) 0.3935(3)
C20 C 0.2292(3) 0.42618(17) 0.5206(3)
H15 H 0.173094 0.476790 0.508732
C21 C 0.3300(3) 0.39799(18) 0.6655(3)
H16 H 0.342404 0.429635 0.749672
C22 C 0.4108(3) 0.32218(18) 0.6813(3)
C23 C 0.3959(3) 0.27484(19) 0.5578(3)
H17 H 0.451232 0.223926 0.570246
C24 C 0.2965(3) 0.30470(17) 0.4141(3)
H18 H 0.287050 0.273582 0.330309
C25 C -0.1035(3) 0.28851(18) 0.1457(3)
H19 H -0.141987 0.241036 0.084606
Cl1 Cl 0.61646(10) 0.65882(5) -0.16922(8)
Cl2 Cl 0.52925(9) 0.28320(5) 0.86168(7)
N1 N 0.0058(3) 0.61133(14) 0.2229(2)
O1 O 0.4116(2) 0.54497(12) 0.3437(2)
O2 O -0.1619(2) 0.30412(13) 0.2332(2)
C26 C 0.7609(3) 0.5058(2) 0.5847(3)
H20 H 0.647702 0.522883 0.528100
Cl3 Cl 0.88117(11) 0.59763(6) 0.63361(10)
Cl4 Cl 0.81472(12) 0.44063(6) 0.46823(10)
Cl5 Cl 0.77805(11) 0.45030(6) 0.74640(10)
loop_
_geom_bond_atom_site_label_1
_geom_bond_atom_site_label_2
_geom_bond_site_symmetry_1
_geom_bond_site_symmetry_2
C1 H1 1_555 1_555
C2 C1 1_555 1_555
H2 C2 1_555 1_555
C3 C2 1_555 1_555
H3 C3 1_555 1_555
C4 C3 1_555 1_555
H4 C4 1_555 1_555
C5 C4 1_555 1_555
C6 C5 1_555 1_555
C7 C6 1_555 1_555
H5 C7 1_555 1_555
C8 C7 1_555 1_555
H6 C8 1_555 1_555
C9 C8 1_555 1_555
C10 C9 1_555 1_555
H7 C10 1_555 1_555
C11 C10 1_555 1_555
H8 C11 1_555 1_555
C12 C11 1_555 1_555
C13 C12 1_555 1_555
H9 C13 1_555 1_555
C14 C9 1_555 1_555
H10 C14 1_555 1_555
C15 C8 1_555 1_555
H11 C15 1_555 1_555
H12 C15 1_555 1_555
C16 C15 1_555 1_555
H13 C16 1_555 1_555
C17 C16 1_555 1_555
C18 C7 1_555 1_555
H14 C18 1_555 1_555
C19 C18 1_555 1_555
C20 C19 1_555 1_555
H15 C20 1_555 1_555
C21 C20 1_555 1_555
H16 C21 1_555 1_555
C22 C21 1_555 1_555
C23 C22 1_555 1_555
H17 C23 1_555 1_555
C24 C19 1_555 1_555
H18 C24 1_555 1_555
C25 C17 1_555 1_555
H19 C25 1_555 1_555
Cl1 C12 1_555 1_555
Cl2 C22 1_555 1_555
N1 C1 1_555 1_555
O1 C6 1_555 1_555
O2 C25 1_555 1_555
C26 H20 1_555 1_555
Cl3 C26 1_555 1_555
Cl4 C26 1_555 1_555
Cl5 C26 1_555 1_555
C5 N1 1_555 1_555
C13 C14 1_555 1_555
C17 C18 1_555 1_555
C23 C24 1_555 1_555

#END
