
#######################################################################
#
#                 Cambridge Crystallographic Data Centre
#                                CCDC 
#
#######################################################################
#
# If this CIF has been generated from an entry in the Cambridge 
# Structural Database, then it will include bibliographic, chemical, 
# crystal, experimental, refinement or atomic coordinate data resulting 
# from the CCDC's data processing and validation procedures.
#
#######################################################################

data_QIJHUP
_chemical_formula_moiety         'C13 H15 N1 O3'
_chemical_name_systematic        
2-hydroxy-1-(4-hydroxyphenyl)hexahydro-3H-pyrrolizin-3-one
_symmetry_cell_setting           monoclinic
_symmetry_space_group_name_H-M   'C 2'
_symmetry_Int_Tables_number      5
_space_group_name_Hall           'C 2y'
loop_
_symmetry_equiv_pos_site_id
_symmetry_equiv_pos_as_xyz
1 x,y,z
2 -x,y,-z
3 1/2+x,1/2+y,z
4 1/2-x,1/2+y,-z
_cell_length_a                   21.0009(15)
_cell_length_b                   5.5882(4)
_cell_length_c                   10.6575(7)
_cell_angle_alpha                90
_cell_angle_beta                 109.445(4)
_cell_angle_gamma                90
_cell_volume                     1179.39
_exptl_crystal_colour            colorless
_exptl_crystal_description       block
_cell_formula_units_Z            4
loop_
_atom_site_label
_atom_site_type_symbol
_atom_site_fract_x
_atom_site_fract_y
_atom_site_fract_z
O1 O 0.68988(7) 0.8161(3) 0.77404(14)
H1 H 0.7178(14) 0.894(3) 0.832(3)
O2 O 0.70998(6) 0.5525(3) 1.04128(12)
O3 O 0.63710(8) 0.7599(3) 0.17977(13)
H2 H 0.6628(15) 0.671(4) 0.1443(18)
N1 N 0.61398(8) 0.4418(3) 0.87479(14)
C1 C 0.67708(9) 0.5162(4) 0.92175(17)
C2 C 0.70010(9) 0.5687(4) 0.80292(18)
H3 H 0.7482 0.5213 0.8208
C3 C 0.65131(9) 0.4172(4) 0.69085(17)
H4 H 0.6697 0.2505 0.7008
C4 C 0.64401(8) 0.4993(4) 0.55167(16)
C5 C 0.64011(9) 0.6654(4) 0.30047(16)
C6 C 0.60905(10) 0.7073(4) 0.49663(17)
H5 H 0.5859 0.7939 0.5449
C7 C 0.67453(9) 0.4571(4) 0.35213(18)
H6 H 0.6969 0.3695 0.3027
C8 C 0.67628(9) 0.3767(4) 0.47667(18)
H7 H 0.7002 0.2340 0.5114
C9 C 0.58683(9) 0.4118(4) 0.72942(17)
H8 H 0.5567 0.5493 0.6876
C10 C 0.60739(10) 0.7901(4) 0.37308(18)
H9 H 0.5837 0.9332 0.3381
C11 C 0.54561(11) 0.1835(5) 0.71634(19)
H10 H 0.5745 0.0397 0.7270
H11 H 0.5090 0.1760 0.6292
C12 C 0.57242(11) 0.3285(5) 0.9444(2)
H12 H 0.5532 0.4490 0.9899
H13 H 0.5988 0.2104 1.0106
C13 C 0.51692(11) 0.2061(5) 0.8313(2)
H14 H 0.4752 0.3037 0.8039
H15 H 0.5064 0.0463 0.8594
loop_
_geom_bond_atom_site_label_1
_geom_bond_atom_site_label_2
_geom_bond_site_symmetry_1
_geom_bond_site_symmetry_2
O1 H1 1_555 1_555
O2 C1 1_555 1_555
O3 H2 1_555 1_555
N1 C1 1_555 1_555
C1 C2 1_555 1_555
C2 O1 1_555 1_555
H3 C2 1_555 1_555
C3 C2 1_555 1_555
H4 C3 1_555 1_555
C4 C3 1_555 1_555
C5 O3 1_555 1_555
C6 C4 1_555 1_555
H5 C6 1_555 1_555
C7 C5 1_555 1_555
H6 C7 1_555 1_555
C8 C4 1_555 1_555
H7 C8 1_555 1_555
C9 N1 1_555 1_555
H8 C9 1_555 1_555
C10 C5 1_555 1_555
H9 C10 1_555 1_555
C11 C9 1_555 1_555
H10 C11 1_555 1_555
H11 C11 1_555 1_555
C12 N1 1_555 1_555
H12 C12 1_555 1_555
H13 C12 1_555 1_555
C13 C11 1_555 1_555
H14 C13 1_555 1_555
H15 C13 1_555 1_555
C3 C9 1_555 1_555
C6 C10 1_555 1_555
C7 C8 1_555 1_555
C12 C13 1_555 1_555

#END
