
#######################################################################
#
#                 Cambridge Crystallographic Data Centre
#                                CCDC 
#
#######################################################################
#
# If this CIF has been generated from an entry in the Cambridge 
# Structural Database, then it will include bibliographic, chemical, 
# crystal, experimental, refinement or atomic coordinate data resulting 
# from the CCDC's data processing and validation procedures.
#
#######################################################################

data_QIJJAW
_chemical_formula_moiety         'C32 H26 N6 O6,C2 H6 O1'
_chemical_name_systematic        
'Diethyl 1,4-dioxo-6,9-bis(pyridin-3-ylethynyl)-1,2,3,4,5,10-hexahydro-2,3,4a,10a-tetraazabenzo[g]cyclopenta[cd]azulene-2a,10b-dicarboxylate ethanol solvate'
_symmetry_cell_setting           triclinic
_symmetry_space_group_name_H-M   'P -1'
_symmetry_Int_Tables_number      2
_space_group_name_Hall           '-P 1'
loop_
_symmetry_equiv_pos_site_id
_symmetry_equiv_pos_as_xyz
1 x,y,z
2 -x,-y,-z
_cell_length_a                   9.240(4)
_cell_length_b                   12.251(5)
_cell_length_c                   14.291(6)
_cell_angle_alpha                85.662(7)
_cell_angle_beta                 74.595(6)
_cell_angle_gamma                75.064(6)
_cell_volume                     1506.87
_cell_formula_units_Z            2
loop_
_atom_site_label
_atom_site_type_symbol
_atom_site_fract_x
_atom_site_fract_y
_atom_site_fract_z
C1 C 0.9175(9) 0.3313(10) 0.9251(6)
H1 H 0.9430 0.3056 0.9845
C2 C 0.9005(9) 0.4441(9) 0.9020(7)
H2 H 0.9147 0.4941 0.9445
C3 C 0.8632(9) 0.4834(8) 0.8174(7)
H3 H 0.8498 0.5613 0.8007
C4 C 0.8449(8) 0.4066(7) 0.7549(6)
C5 C 0.8649(9) 0.2932(8) 0.7854(7)
H4 H 0.8526 0.2406 0.7444
C6 C 0.8129(8) 0.4356(7) 0.6649(7)
C7 C 0.7908(8) 0.4570(6) 0.5861(7)
C8 C 0.7613(8) 0.4832(6) 0.4902(5)
C9 C 0.6884(8) 0.4188(6) 0.4514(5)
C10 C 0.6634(8) 0.4453(6) 0.3582(5)
C11 C 0.7071(8) 0.5403(6) 0.3082(5)
C12 C 0.7804(8) 0.6025(6) 0.3486(5)
H5 H 0.8125 0.6648 0.3135
C13 C 0.8078(8) 0.5759(6) 0.4388(6)
H6 H 0.8576 0.6198 0.4658
C14 C 0.6729(8) 0.5780(6) 0.2160(7)
C15 C 0.6448(9) 0.6151(6) 0.1430(7)
C16 C 0.6047(10) 0.6588(7) 0.0535(6)
C17 C 0.4858(9) 0.6361(6) 0.0247(6)
H7 H 0.4248 0.5901 0.0643
C18 C 0.4543(10) 0.6788(7) -0.0601(6)
H8 H 0.3720 0.6628 -0.0802
C19 C 0.5425(11) 0.7451(7) -0.1159(6)
H9 H 0.5205 0.7728 -0.1758
C20 C 0.6883(10) 0.7299(7) -0.0068(7)
H10 H 0.7698 0.7485 0.0126
C21 C 0.5869(8) 0.3761(6) 0.3130(5)
H11 H 0.4800 0.3833 0.3537
H12 H 0.5793 0.4092 0.2486
C22 C 0.6360(8) 0.3200(6) 0.5096(5)
H13 H 0.6609 0.3154 0.5732
H14 H 0.5222 0.3338 0.5217
C23 C 0.8038(9) 0.2216(7) 0.2320(6)
C24 C 0.8245(9) 0.1317(7) 0.4842(6)
C25 C 0.6544(8) 0.1805(6) 0.3827(5)
C26 C 0.4935(9) 0.1594(6) 0.4270(7)
C27 C 0.2400(8) 0.1757(6) 0.4093(6)
H15 H 0.1988 0.1964 0.4787
H16 H 0.2448 0.0948 0.4031
C28 C 0.1375(9) 0.2470(7) 0.3506(6)
H17 H 0.1442 0.3255 0.3503
H18 H 0.0301 0.2429 0.3793
H19 H 0.1711 0.2190 0.2839
C29 C 0.7887(8) 0.0713(6) 0.3439(5)
C30 C 0.7519(10) -0.0359(8) 0.3193(5)
C31 C 0.5810(10) -0.1161(7) 0.2643(6)
H20 H 0.6614 -0.1523 0.2070
H21 H 0.5767 -0.1715 0.3185
C32 C 0.4291(10) -0.0796(8) 0.2414(7)
H22 H 0.3489 -0.0504 0.3001
H23 H 0.4055 -0.1440 0.2172
H24 H 0.4320 -0.0200 0.1916
N1 N 0.9002(8) 0.2549(6) 0.8685(6)
N2 N 0.6567(9) 0.7733(6) -0.0919(5)
N3 N 0.6629(7) 0.2569(5) 0.3004(4)
N4 N 0.7097(7) 0.2136(5) 0.4597(4)
N5 N 0.8738(7) 0.1157(6) 0.2554(4)
H25 H 0.9633 0.0772 0.2200
N6 N 0.8661(7) 0.0468(5) 0.4204(5)
H26 H 0.9339 -0.0172 0.4252
O1 O 0.8503(6) 0.2790(4) 0.1616(4)
O2 O 0.8820(6) 0.1367(4) 0.5513(4)
O3 O 0.4608(6) 0.1172(4) 0.5065(4)
O4 O 0.3951(6) 0.1962(4) 0.3719(3)
O5 O 0.8359(6) -0.1271(5) 0.3220(4)
O6 O 0.6186(6) -0.0142(4) 0.2920(4)
C33 C 0.7848(14) 0.0157(11) 1.0436(6)
H27 H 0.8647 -0.0539 1.0467
H28 H 0.6907 0.0142 1.0948
H29 H 0.8224 0.0810 1.0528
C34 C 0.7493(12) 0.0246(10) 0.9470(6)
H30 H 0.7139 -0.0425 0.9376
H31 H 0.6635 0.0922 0.9461
O7 O 0.8800(8) 0.0325(6) 0.8679(4)
H32 H 0.9084 0.0908 0.8742
C35? C 1.007(7) 0.017(5) 0.916(4)
H33? H 1.0871 -0.0047 0.8559
H34? H 1.0547 0.0050 0.9711
H35? H 0.9537 0.0969 0.9129
C36? C 0.891(7) -0.054(5) 0.931(3)
H36? H 0.9433 -0.1343 0.9398
H37? H 0.8075 -0.0297 0.9903
O8? O 0.825(4) -0.044(3) 0.849(2)
H38? H 0.7599 -0.0836 0.8587
loop_
_geom_bond_atom_site_label_1
_geom_bond_atom_site_label_2
_geom_bond_site_symmetry_1
_geom_bond_site_symmetry_2
C1 H1 1_555 1_555
C2 C1 1_555 1_555
H2 C2 1_555 1_555
C3 C2 1_555 1_555
H3 C3 1_555 1_555
C4 C3 1_555 1_555
C5 C4 1_555 1_555
H4 C5 1_555 1_555
C6 C4 1_555 1_555
C7 C6 1_555 1_555
C8 C7 1_555 1_555
C9 C8 1_555 1_555
C10 C9 1_555 1_555
C11 C10 1_555 1_555
C12 C11 1_555 1_555
H5 C12 1_555 1_555
C13 C8 1_555 1_555
H6 C13 1_555 1_555
C14 C11 1_555 1_555
C15 C14 1_555 1_555
C16 C15 1_555 1_555
C17 C16 1_555 1_555
H7 C17 1_555 1_555
C18 C17 1_555 1_555
H8 C18 1_555 1_555
C19 C18 1_555 1_555
H9 C19 1_555 1_555
C20 C16 1_555 1_555
H10 C20 1_555 1_555
C21 C10 1_555 1_555
H11 C21 1_555 1_555
H12 C21 1_555 1_555
C22 C9 1_555 1_555
H13 C22 1_555 1_555
H14 C22 1_555 1_555
C23 N3 1_555 1_555
C24 N4 1_555 1_555
C25 C26 1_555 1_555
C26 O3 1_555 1_555
C27 H15 1_555 1_555
H16 C27 1_555 1_555
C28 C27 1_555 1_555
H17 C28 1_555 1_555
H18 C28 1_555 1_555
H19 C28 1_555 1_555
C29 C25 1_555 1_555
C30 C29 1_555 1_555
C31 H20 1_555 1_555
H21 C31 1_555 1_555
C32 C31 1_555 1_555
H22 C32 1_555 1_555
H23 C32 1_555 1_555
H24 C32 1_555 1_555
N1 C1 1_555 1_555
N2 C19 1_555 1_555
N3 C21 1_555 1_555
N4 C22 1_555 1_555
N5 C23 1_555 1_555
H25 N5 1_555 1_555
N6 C24 1_555 1_555
H26 N6 1_555 1_555
O1 C23 1_555 1_555
O2 C24 1_555 1_555
O4 C26 1_555 1_555
O5 C30 1_555 1_555
O6 C30 1_555 1_555
C33 H27 1_555 1_555
H28 C33 1_555 1_555
H29 C33 1_555 1_555
C34 C33 1_555 1_555
H30 C34 1_555 1_555
H31 C34 1_555 1_555
O7 C34 1_555 1_555
H32 O7 1_555 1_555
C5 N1 1_555 1_555
C12 C13 1_555 1_555
C20 N2 1_555 1_555
C25 N3 1_555 1_555
C25 N4 1_555 1_555
C27 O4 1_555 1_555
C29 N5 1_555 1_555
C29 N6 1_555 1_555
C31 O6 1_555 1_555

#END
