
#######################################################################
#
#                 Cambridge Crystallographic Data Centre
#                                CCDC 
#
#######################################################################
#
# If this CIF has been generated from an entry in the Cambridge 
# Structural Database, then it will include bibliographic, chemical, 
# crystal, experimental, refinement or atomic coordinate data resulting 
# from the CCDC's data processing and validation procedures.
#
#######################################################################

data_QIJJIE
_chemical_formula_moiety         'C32 H26 N6 O6,C2 H6 O1 S1'
_chemical_name_systematic        
'Diethyl 1,4-dioxo-6,9-bis(pyridin-3-ylethynyl)-1,2,3,4,5,10-hexahydro-2,3,4a,10a-tetraazabenzo[g]cyclopenta[cd]azulene-2a,10b-dicarboxylate dimethyl sulfoxide solvate'
_symmetry_cell_setting           triclinic
_symmetry_space_group_name_H-M   'P -1'
_symmetry_Int_Tables_number      2
_space_group_name_Hall           '-P 1'
loop_
_symmetry_equiv_pos_site_id
_symmetry_equiv_pos_as_xyz
1 x,y,z
2 -x,-y,-z
_cell_length_a                   10.593(4)
_cell_length_b                   13.595(5)
_cell_length_c                   13.825(5)
_cell_angle_alpha                116.453(5)
_cell_angle_beta                 102.398(7)
_cell_angle_gamma                100.412(6)
_cell_volume                     1651.7
_cell_formula_units_Z            2
loop_
_atom_site_label
_atom_site_type_symbol
_atom_site_fract_x
_atom_site_fract_y
_atom_site_fract_z
C1 C 0.5123(3) 1.0805(3) 0.8199(3)
C2 C 0.6266(3) 1.1781(2) 0.8746(3)
H1 H 0.6477 1.2322 0.9516
C3 C 0.7096(3) 1.1949(3) 0.8142(4)
H2 H 0.7861 1.2602 0.8509
C4 C 0.6781(5) 1.1141(5) 0.6992(4)
H3 H 0.7336 1.1253 0.6588
N1 N 0.5638(5) 1.0164(4) 0.6445(3)
C5 C 0.4808(3) 0.9997(3) 0.7048(3)
H4 H 0.4043 0.9343 0.6682
C6 C 0.4285(4) 1.0550(3) 0.8784(4)
C7 C 0.3634(4) 1.0325(3) 0.9288(4)
C8 C 0.2869(4) 1.0137(3) 0.9967(4)
C9 C 0.1691(4) 0.9181(3) 0.9487(3)
C10 C 0.0941(4) 0.9050(3) 1.0170(3)
C11 C 0.1392(4) 0.9897(4) 1.1341(4)
C12 C 0.2594(4) 1.0823(4) 1.1814(4)
H5 H 0.2902 1.1364 1.2593
C13 C 0.3323(4) 1.0943(4) 1.1145(4)
H6 H 0.4122 1.1560 1.1473
C14 C 0.0637(4) 0.9815(3) 1.2065(4)
C15 C -0.0042(5) 0.9710(4) 1.2617(4)
C16 C -0.0904(4) 0.9492(4) 1.3225(4)
C17 C -0.1607(5) 0.8373(4) 1.2910(4)
H7 H -0.1536 0.7743 1.2295
C18 C -0.2405(5) 0.8202(4) 1.3511(5)
H8 H -0.2878 0.7457 1.3316
C19 C -0.2497(5) 0.9143(5) 1.4402(5)
H9 H -0.3035 0.9017 1.4812
C20 C -0.1081(4) 1.0384(4) 1.4139(4)
H10 H -0.0621 1.1141 1.4358
C21 C 0.1224(4) 0.8299(3) 0.8215(3)
H11 H 0.0350 0.8321 0.7844
H12 H 0.1869 0.8523 0.7889
C22 C -0.0366(4) 0.8071(3) 0.9676(3)
H13 H -0.0717 0.8148 1.0290
H14 H -0.1029 0.8146 0.9130
C23 C 0.2194(4) 0.6725(3) 0.8050(3)
C24 C -0.0176(4) 0.6232(3) 0.9588(4)
C25 C -0.0062(4) 0.6423(3) 0.8001(3)
C26 C -0.1385(5) 0.6151(3) 0.7060(4)
C27 C -0.2330(7) 0.5525(6) 0.5063(5)
H15 H -0.2178 0.5016 0.4369
H16 H -0.3161 0.5113 0.5087
C28 C -0.2489(8) 0.6551(7) 0.5036(6)
H17 H -0.2861 0.6959 0.5614
H18 H -0.3094 0.6327 0.4295
H19 H -0.1617 0.7045 0.5179
C29 C 0.0360(4) 0.5337(3) 0.7902(3)
C30 C -0.0426(5) 0.4195(4) 0.6795(4)
C31 C -0.2631(6) 0.2906(4) 0.5540(5)
H20 H -0.2469 0.2204 0.5480
H21 H -0.2463 0.2982 0.4910
C32 C -0.4069(6) 0.2861(6) 0.5504(7)
H22 H -0.4262 0.2674 0.6061
H23 H -0.4687 0.2279 0.4753
H24 H -0.4176 0.3601 0.5675
N2 N -0.1865(4) 1.0226(4) 1.4717(3)
N3 N 0.1090(3) 0.7111(3) 0.7952(3)
N4 N -0.0237(3) 0.6922(3) 0.9108(3)
N5 N 0.1773(3) 0.5706(3) 0.8025(3)
H25 H 0.2310 0.5314 0.8079
N6 N 0.0098(4) 0.5283(3) 0.8865(3)
H26 H 0.0114 0.4707 0.8970
O1 O 0.3316(3) 0.7198(3) 0.8124(3)
O2 O -0.0367(3) 0.6420(2) 1.0483(2)
O3 O -0.2432(3) 0.6226(3) 0.7224(3)
O4 O -0.1178(3) 0.5825(3) 0.6068(3)
O5 O 0.0096(4) 0.3634(3) 0.6165(3)
O6 O -0.1742(3) 0.3911(2) 0.6635(3)
C33 C 0.3996(6) 0.3473(5) 0.0538(6)
H27 H 0.3899 0.3486 -0.0162
H28 H 0.3111 0.3219 0.0576
H29 H 0.4487 0.2949 0.0559
C34 C 0.3813(6) 0.5572(6) 0.1332(7)
H30 H 0.4265 0.6393 0.1789
H31 H 0.2981 0.5386 0.1477
H32 H 0.3612 0.5335 0.0535
O7 O 0.6175(3) 0.5260(3) 0.1542(4)
S1 S 0.48801(15) 0.48444(13) 0.16909(14)
loop_
_geom_bond_atom_site_label_1
_geom_bond_atom_site_label_2
_geom_bond_site_symmetry_1
_geom_bond_site_symmetry_2
C1 C2 1_555 1_555
C2 H1 1_555 1_555
C3 C2 1_555 1_555
H2 C3 1_555 1_555
C4 C3 1_555 1_555
H3 C4 1_555 1_555
N1 C4 1_555 1_555
C5 C1 1_555 1_555
H4 C5 1_555 1_555
C6 C1 1_555 1_555
C7 C6 1_555 1_555
C8 C7 1_555 1_555
C9 C8 1_555 1_555
C10 C9 1_555 1_555
C11 C10 1_555 1_555
C12 C11 1_555 1_555
H5 C12 1_555 1_555
C13 C8 1_555 1_555
H6 C13 1_555 1_555
C14 C11 1_555 1_555
C15 C14 1_555 1_555
C16 C15 1_555 1_555
C17 C16 1_555 1_555
H7 C17 1_555 1_555
C18 C17 1_555 1_555
H8 C18 1_555 1_555
C19 C18 1_555 1_555
H9 C19 1_555 1_555
C20 C16 1_555 1_555
H10 C20 1_555 1_555
C21 C9 1_555 1_555
H11 C21 1_555 1_555
H12 C21 1_555 1_555
C22 C10 1_555 1_555
H13 C22 1_555 1_555
H14 C22 1_555 1_555
C23 N3 1_555 1_555
C24 N4 1_555 1_555
C25 C26 1_555 1_555
C26 O3 1_555 1_555
C27 H15 1_555 1_555
H16 C27 1_555 1_555
C28 C27 1_555 1_555
H17 C28 1_555 1_555
H18 C28 1_555 1_555
H19 C28 1_555 1_555
C29 C25 1_555 1_555
C30 C29 1_555 1_555
C31 H20 1_555 1_555
H21 C31 1_555 1_555
C32 C31 1_555 1_555
H22 C32 1_555 1_555
H23 C32 1_555 1_555
H24 C32 1_555 1_555
N2 C19 1_555 1_555
N3 C21 1_555 1_555
N4 C22 1_555 1_555
N5 C23 1_555 1_555
H25 N5 1_555 1_555
N6 C24 1_555 1_555
H26 N6 1_555 1_555
O1 C23 1_555 1_555
O2 C24 1_555 1_555
O4 C26 1_555 1_555
O5 C30 1_555 1_555
O6 C30 1_555 1_555
C33 H27 1_555 1_555
H28 C33 1_555 1_555
H29 C33 1_555 1_555
C34 H30 1_555 1_555
H31 C34 1_555 1_555
H32 C34 1_555 1_555
O7 S1 1_555 1_555
S1 C33 1_555 1_555
N1 C5 1_555 1_555
C12 C13 1_555 1_555
C20 N2 1_555 1_555
C25 N3 1_555 1_555
C25 N4 1_555 1_555
C27 O4 1_555 1_555
C29 N5 1_555 1_555
C29 N6 1_555 1_555
C31 O6 1_555 1_555
C34 S1 1_555 1_555

#END
