
#######################################################################
#
#                 Cambridge Crystallographic Data Centre
#                                CCDC 
#
#######################################################################
#
# If this CIF has been generated from an entry in the Cambridge 
# Structural Database, then it will include bibliographic, chemical, 
# crystal, experimental, refinement or atomic coordinate data resulting 
# from the CCDC's data processing and validation procedures.
#
#######################################################################

data_QIJMUR
_chemical_formula_moiety         'C20 H19 N3 O6'
_chemical_name_systematic        
'2-Azido-2-deoxy-4,6-O-benzylidene-\b-D-glucopyranosyl benzoate'
_symmetry_cell_setting           orthorhombic
_symmetry_space_group_name_H-M   'P 21 21 21'
_symmetry_Int_Tables_number      19
_space_group_name_Hall           'P 2ac 2ab'
loop_
_symmetry_equiv_pos_site_id
_symmetry_equiv_pos_as_xyz
1 x,y,z
2 1/2-x,-y,1/2+z
3 1/2+x,1/2-y,-z
4 -x,1/2+y,1/2-z
_cell_length_a                   8.7073(7)
_cell_length_b                   11.0684(21)
_cell_length_c                   19.784(6)
_cell_angle_alpha                90
_cell_angle_beta                 90
_cell_angle_gamma                90
_cell_volume                     1906.7
_exptl_crystal_colour            colorless
_chemical_melting_point          '190-191 deg.C'
_cell_formula_units_Z            4
_exptl_crystal_recrystallization_method chloroform/hexane
loop_
_atom_site_label
_atom_site_type_symbol
_atom_site_fract_x
_atom_site_fract_y
_atom_site_fract_z
O1 O 0.5691(3) 0.7854(2) 0.0281(1)
O2 O 0.5502(3) 1.0641(2) -0.1460(1)
O3 O 0.6094(3) 0.8692(2) -0.2401(1)
O4 O 0.6207(3) 0.7169(2) -0.0773(1)
O5 O 0.6712(3) 0.6676(2) -0.2579(1)
O6 O 0.4487(3) 0.6108(3) 0.0523(1)
N1 N 0.3682(4) 0.9723(3) -0.0322(1)
N2 N 0.3765(5) 1.0124(3) 0.0259(2)
N3 N 0.3661(6) 1.0522(4) 0.0781(2)
C1 C 0.5147(4) 0.7844(3) -0.0396(2)
C2 C 0.5110(4) 0.9198(3) -0.0593(2)
C3 C 0.5096(4) 0.9416(3) -0.1362(2)
C4 C 0.6218(4) 0.8579(3) -0.1687(1)
C5 C 0.5890(4) 0.7288(3) -0.1481(2)
C6 C 0.6887(5) 0.6427(3) -0.1876(2)
C7 C 0.5263(4) 0.6940(3) 0.0695(2)
C8 C 0.5875(4) 0.7131(3) 0.1392(2)
C9 C 0.6459(5) 0.8215(4) 0.1601(2)
C10 C 0.6957(5) 0.8372(4) 0.2267(2)
C11 C 0.6853(5) 0.7416(6) 0.2709(2)
C12 C 0.6280(5) 0.6335(5) 0.2506(2)
C13 C 0.5776(4) 0.6174(4) 0.1845(2)
C14 C 0.7107(4) 0.7885(3) -0.2730(2)
C15 C 0.7040(4) 0.8100(3) -0.3477(2)
C16 C 0.6004(7) 0.8865(4) -0.3757(2)
C17 C 0.5966(9) 0.9038(5) -0.4453(2)
C18 C 0.7001(8) 0.8500(6) -0.4852(2)
C19 C 0.8049(7) 0.7749(7) -0.4591(2)
C20 C 0.8066(6) 0.7532(5) -0.3890(2)
H1 H 0.480 1.120 -0.171
H2 H 0.409 0.750 -0.043
H3 H 0.604 0.961 -0.040
H4 H 0.405 0.923 -0.154
H5 H 0.728 0.880 -0.154
H6 H 0.479 0.713 -0.159
H7 H 0.797 0.658 -0.173
H8 H 0.661 0.558 -0.175
H9 H 0.653 0.890 0.127
H10 H 0.741 0.916 0.241
H11 H 0.719 0.751 0.319
H12 H 0.617 0.568 0.285
H13 H 0.537 0.537 0.170
H14 H 0.819 0.802 -0.258
H15 H 0.522 0.922 -0.344
H16 H 0.537 0.975 -0.462
H17 H 0.696 0.860 -0.535
H18 H 0.878 0.731 -0.489
H19 H 0.888 0.702 -0.368
loop_
_geom_bond_atom_site_label_1
_geom_bond_atom_site_label_2
_geom_bond_site_symmetry_1
_geom_bond_site_symmetry_2
O1 C1 1_555 1_555
O2 C3 1_555 1_555
O3 C4 1_555 1_555
O4 C1 1_555 1_555
O5 C6 1_555 1_555
O6 C7 1_555 1_555
N1 N2 1_555 1_555
N2 N3 1_555 1_555
C1 C2 1_555 1_555
C2 N1 1_555 1_555
C3 C2 1_555 1_555
C4 C3 1_555 1_555
C5 O4 1_555 1_555
C6 C5 1_555 1_555
C7 O1 1_555 1_555
C8 C7 1_555 1_555
C9 C8 1_555 1_555
C10 C9 1_555 1_555
C11 C10 1_555 1_555
C12 C11 1_555 1_555
C13 C8 1_555 1_555
C14 O3 1_555 1_555
C15 C14 1_555 1_555
C16 C15 1_555 1_555
C17 C16 1_555 1_555
C18 C17 1_555 1_555
C19 C18 1_555 1_555
C20 C15 1_555 1_555
H1 O2 1_555 1_555
H2 C1 1_555 1_555
H3 C2 1_555 1_555
H4 C3 1_555 1_555
H5 C4 1_555 1_555
H6 C5 1_555 1_555
H7 C6 1_555 1_555
H8 C6 1_555 1_555
H9 C9 1_555 1_555
H10 C10 1_555 1_555
H11 C11 1_555 1_555
H12 C12 1_555 1_555
H13 C13 1_555 1_555
H14 C14 1_555 1_555
H15 C16 1_555 1_555
H16 C17 1_555 1_555
H17 C18 1_555 1_555
H18 C19 1_555 1_555
H19 C20 1_555 1_555
O5 C14 1_555 1_555
C4 C5 1_555 1_555
C12 C13 1_555 1_555
C19 C20 1_555 1_555

#END
