
#######################################################################
#
#                 Cambridge Crystallographic Data Centre
#                                CCDC 
#
#######################################################################
#
# If this CIF has been generated from an entry in the Cambridge 
# Structural Database, then it will include bibliographic, chemical, 
# crystal, experimental, refinement or atomic coordinate data resulting 
# from the CCDC's data processing and validation procedures.
#
#######################################################################

data_QIJNIJ
_chemical_formula_moiety         'C24 H30 Br2 N2 S2'
_chemical_name_systematic        2,5-bis(5-bromo-4-hexylthiophen-2-yl)pyrazine
_symmetry_cell_setting           monoclinic
_symmetry_space_group_name_H-M   'C 2/c'
_symmetry_Int_Tables_number      15
_space_group_name_Hall           '-C 2yn'
loop_
_symmetry_equiv_pos_site_id
_symmetry_equiv_pos_as_xyz
1 x,y,z
2 -x,y,1/2-z
3 1/2+x,1/2+y,z
4 1/2-x,1/2+y,1/2-z
5 -x,-y,-z
6 x,-y,1/2+z
7 1/2-x,1/2-y,-z
8 1/2+x,1/2-y,1/2+z
_cell_length_a                   40.075(4)
_cell_length_b                   11.2313(7)
_cell_length_c                   25.162(3)
_cell_angle_alpha                90
_cell_angle_beta                 116.780(7)
_cell_angle_gamma                90
_cell_volume                     10110.6
_cell_formula_units_Z            16
loop_
_atom_site_label
_atom_site_type_symbol
_atom_site_fract_x
_atom_site_fract_y
_atom_site_fract_z
Br1 Br 0.71321(3) 0.69521(9) 0.43367(4)
Br2 Br 0.35677(2) 0.49383(7) -0.01669(4)
S1 S 0.63156(5) 0.69874(16) 0.33516(9)
S2 S 0.43633(5) 0.48597(15) 0.08973(8)
N1 N 0.55341(15) 0.6919(4) 0.2461(2)
N2 N 0.51061(15) 0.4911(4) 0.1908(2)
C1 C 0.7610(3) -0.0811(8) 0.3709(4)
H1 H 0.7645 -0.0571 0.3371
H2 H 0.7381 -0.1251 0.3576
H3 H 0.7815 -0.1303 0.3965
C2 C 0.7592(3) 0.0288(8) 0.4048(4)
H4 H 0.7604 0.0036 0.4425
H5 H 0.7810 0.0776 0.4135
C3 C 0.7248(2) 0.1039(7) 0.3727(4)
H6 H 0.7029 0.0565 0.3652
H7 H 0.7231 0.1278 0.3345
C4 C 0.7249(2) 0.2147(7) 0.4078(4)
H8 H 0.7253 0.1901 0.4450
H9 H 0.7477 0.2590 0.4174
C5 C 0.6919(2) 0.2965(7) 0.3755(3)
H10 H 0.6690 0.2515 0.3641
H11 H 0.6923 0.3248 0.3393
C6 C 0.6916(2) 0.4032(7) 0.4125(3)
H12 H 0.6866 0.3754 0.4447
H13 H 0.7163 0.4390 0.4302
C7 C 0.66357(19) 0.4963(7) 0.3784(3)
C8 C 0.6692(2) 0.6158(7) 0.3823(3)
C9 C 0.60532(19) 0.5708(6) 0.3073(3)
C10 C 0.62621(19) 0.4718(6) 0.3349(3)
H14 H 0.6167 0.3948 0.3258
C11 C 0.56753(19) 0.5818(5) 0.2622(3)
C12 C 0.54510(18) 0.4830(6) 0.2334(3)
H15 H 0.5552 0.4074 0.2452
C13 C 0.49646(18) 0.6026(6) 0.1750(3)
C14 C 0.51861(19) 0.7013(5) 0.2046(3)
H16 H 0.5082 0.7769 0.1944
C15 C 0.45918(18) 0.6131(6) 0.1263(3)
C16 C 0.39871(19) 0.5701(6) 0.0424(3)
C17 C 0.4030(2) 0.6880(6) 0.0527(3)
C18 C 0.4377(2) 0.7120(6) 0.1012(3)
H17 H 0.4455 0.7887 0.1152
C19 C 0.3743(3) 0.7768(7) 0.0147(4)
H18 H 0.3789 0.7947 -0.0191
H19 H 0.3500 0.7387 -0.0007
C20 C 0.3719(3) 0.8892(8) 0.0414(4)
H20 H 0.3959 0.9293 0.0565
H21 H 0.3667 0.8733 0.0748
C21 C 0.3408(3) 0.9737(8) -0.0038(5)
H22 H 0.3455 0.9877 -0.0378
H23 H 0.3167 0.9348 -0.0179
C22 C 0.3396(3) 1.0921(10) 0.0244(5)
H24 H 0.3206 1.1410 -0.0061
H25 H 0.3313 1.0770 0.0546
C23 C 0.3744(3) 1.1625(9) 0.0521(4)
H26 H 0.3692 1.2382 0.0653
H27 H 0.3924 1.1205 0.0869
C24 C 0.3910(4) 1.1847(10) 0.0115(6)
H28 H 0.3743 1.2328 -0.0212
H29 H 0.3951 1.1102 -0.0033
H30 H 0.4144 1.2256 0.0325
Br3 Br 0.66256(3) 0.21669(9) 0.16612(5)
Br4 Br 0.44339(2) -0.01959(7) 0.45034(4)
S3 S 0.61154(5) 0.21001(16) 0.22813(9)
S4 S 0.49136(6) -0.02170(15) 0.38238(9)
N3 N 0.56223(16) 0.1950(5) 0.2849(2)
N4 N 0.53768(16) -0.0096(4) 0.3200(2)
C25 C 0.7462(3) -0.4746(10) 0.3195(6)
H31 H 0.7602 -0.5089 0.3007
H32 H 0.7368 -0.5369 0.3350
H33 H 0.7623 -0.4235 0.3514
C26 C 0.7140(3) -0.4030(10) 0.2744(5)
H34 H 0.6950 -0.4577 0.2481
H35 H 0.7031 -0.3569 0.2952
C27 C 0.7238(3) -0.3220(9) 0.2382(5)
H36 H 0.7359 -0.3681 0.2191
H37 H 0.7421 -0.2657 0.2647
C28 C 0.6921(3) -0.2525(8) 0.1907(5)
H38 H 0.6726 -0.3073 0.1660
H39 H 0.7012 -0.2126 0.1655
C29 C 0.6755(3) -0.1586(9) 0.2173(4)
H40 H 0.6646 -0.1996 0.2396
H41 H 0.6956 -0.1090 0.2450
C30 C 0.6477(3) -0.0839(9) 0.1741(5)
H42 H 0.6273 -0.1333 0.1471
H43 H 0.6585 -0.0448 0.1509
C31 C 0.6321(3) 0.0110(7) 0.2000(4)
C32 C 0.6358(2) 0.1313(7) 0.1986(3)
C33 C 0.5964(2) 0.0800(6) 0.2459(3)
C34 C 0.6093(2) -0.0170(7) 0.2281(4)
H44 H 0.6037 -0.0947 0.2339
C35 C 0.57228(19) 0.0869(6) 0.2749(3)
C36 C 0.55952(19) -0.0151(6) 0.2919(3)
H45 H 0.5663 -0.0894 0.2835
C37 C 0.52831(19) 0.1003(6) 0.3300(3)
C38 C 0.5401(2) 0.2015(6) 0.3114(3)
H46 H 0.5323 0.2758 0.3177
C39 C 0.50518(19) 0.1083(5) 0.3608(3)
C40 C 0.49198(19) 0.2054(6) 0.3776(3)
H47 H 0.4966 0.2827 0.3694
C41 C 0.47076(19) 0.1802(6) 0.4083(3)
C42 C 0.46802(19) 0.0594(6) 0.4127(3)
C43 C 0.4540(2) 0.2715(6) 0.4327(3)
H48 H 0.4300 0.2431 0.4281
H49 H 0.4498 0.3446 0.4101
C44 C 0.4790(2) 0.2970(6) 0.4979(3)
H50 H 0.4669 0.3562 0.5114
H51 H 0.4814 0.2248 0.5204
C45 C 0.5178(2) 0.3410(6) 0.5122(3)
H52 H 0.5156 0.4122 0.4890
H53 H 0.5303 0.2810 0.5000
C46 C 0.5420(2) 0.3693(6) 0.5779(3)
H54 H 0.5297 0.4302 0.5900
H55 H 0.5440 0.2984 0.6012
C47 C 0.5812(2) 0.4122(7) 0.5920(3)
H56 H 0.5942 0.3492 0.5824
H57 H 0.5792 0.4798 0.5668
C48 C 0.6044(2) 0.4482(8) 0.6565(4)
H58 H 0.6276 0.4820 0.6615
H59 H 0.6093 0.3794 0.6816
H60 H 0.5909 0.5060 0.6674
loop_
_geom_bond_atom_site_label_1
_geom_bond_atom_site_label_2
_geom_bond_site_symmetry_1
_geom_bond_site_symmetry_2
Br1 C8 1_555 1_555
Br2 C16 1_555 1_555
S1 C8 1_555 1_555
S2 C15 1_555 1_555
N1 C11 1_555 1_555
N2 C12 1_555 1_555
C1 H1 1_555 1_555
H2 C1 1_555 1_555
H3 C1 1_555 1_555
C2 C1 1_555 1_555
H4 C2 1_555 1_555
H5 C2 1_555 1_555
C3 C2 1_555 1_555
H6 C3 1_555 1_555
H7 C3 1_555 1_555
C4 C3 1_555 1_555
H8 C4 1_555 1_555
H9 C4 1_555 1_555
C5 C4 1_555 1_555
H10 C5 1_555 1_555
H11 C5 1_555 1_555
C6 C5 1_555 1_555
H12 C6 1_555 1_555
H13 C6 1_555 1_555
C7 C6 1_555 1_555
C8 C7 1_555 1_555
C9 S1 1_555 1_555
C10 C7 1_555 1_555
H14 C10 1_555 1_555
C11 C9 1_555 1_555
C12 C11 1_555 1_555
H15 C12 1_555 1_555
C13 N2 1_555 1_555
C14 N1 1_555 1_555
H16 C14 1_555 1_555
C15 C13 1_555 1_555
C16 S2 1_555 1_555
C17 C16 1_555 1_555
C18 C15 1_555 1_555
H17 C18 1_555 1_555
C19 C17 1_555 1_555
H18 C19 1_555 1_555
H19 C19 1_555 1_555
C20 C19 1_555 1_555
H20 C20 1_555 1_555
H21 C20 1_555 1_555
C21 C20 1_555 1_555
H22 C21 1_555 1_555
H23 C21 1_555 1_555
C22 C21 1_555 1_555
H24 C22 1_555 1_555
H25 C22 1_555 1_555
C23 C22 1_555 1_555
H26 C23 1_555 1_555
H27 C23 1_555 1_555
C24 C23 1_555 1_555
H28 C24 1_555 1_555
H29 C24 1_555 1_555
H30 C24 1_555 1_555
Br3 C32 1_555 1_555
Br4 C42 1_555 1_555
S3 C32 1_555 1_555
S4 C39 1_555 1_555
N3 C35 1_555 1_555
N4 C36 1_555 1_555
C25 H31 1_555 1_555
H32 C25 1_555 1_555
H33 C25 1_555 1_555
C26 C25 1_555 1_555
H34 C26 1_555 1_555
H35 C26 1_555 1_555
C27 C26 1_555 1_555
H36 C27 1_555 1_555
H37 C27 1_555 1_555
C28 C27 1_555 1_555
H38 C28 1_555 1_555
H39 C28 1_555 1_555
C29 C28 1_555 1_555
H40 C29 1_555 1_555
H41 C29 1_555 1_555
C30 C29 1_555 1_555
H42 C30 1_555 1_555
H43 C30 1_555 1_555
C31 C30 1_555 1_555
C32 C31 1_555 1_555
C33 S3 1_555 1_555
C34 C31 1_555 1_555
H44 C34 1_555 1_555
C35 C33 1_555 1_555
C36 C35 1_555 1_555
H45 C36 1_555 1_555
C37 N4 1_555 1_555
C38 N3 1_555 1_555
H46 C38 1_555 1_555
C39 C37 1_555 1_555
C40 C39 1_555 1_555
H47 C40 1_555 1_555
C41 C40 1_555 1_555
C42 S4 1_555 1_555
C43 C41 1_555 1_555
H48 C43 1_555 1_555
H49 C43 1_555 1_555
C44 C43 1_555 1_555
H50 C44 1_555 1_555
H51 C44 1_555 1_555
C45 C44 1_555 1_555
H52 C45 1_555 1_555
H53 C45 1_555 1_555
C46 C45 1_555 1_555
H54 C46 1_555 1_555
H55 C46 1_555 1_555
C47 C46 1_555 1_555
H56 C47 1_555 1_555
H57 C47 1_555 1_555
C48 C47 1_555 1_555
H58 C48 1_555 1_555
H59 C48 1_555 1_555
H60 C48 1_555 1_555
C9 C10 1_555 1_555
C13 C14 1_555 1_555
C17 C18 1_555 1_555
C33 C34 1_555 1_555
C37 C38 1_555 1_555
C41 C42 1_555 1_555

#END
