
#######################################################################
#
#                 Cambridge Crystallographic Data Centre
#                                CCDC 
#
#######################################################################
#
# If this CIF has been generated from an entry in the Cambridge 
# Structural Database, then it will include bibliographic, chemical, 
# crystal, experimental, refinement or atomic coordinate data resulting 
# from the CCDC's data processing and validation procedures.
#
#######################################################################

data_QIKBAQ
_chemical_formula_moiety         'C12 H15 B1 N1 P1 S2'
_chemical_name_systematic        
"1-(4-(trihydroboranyl)-4H-4 5-phospholo[3,2-b:4,5-b']bisthiophen-4-yl)pyrrolidine"
_symmetry_cell_setting           orthorhombic
_symmetry_space_group_name_H-M   'P 21 21 21'
_symmetry_Int_Tables_number      19
_space_group_name_Hall           'P 2ac 2ab'
loop_
_symmetry_equiv_pos_site_id
_symmetry_equiv_pos_as_xyz
1 x,y,z
2 1/2-x,-y,1/2+z
3 1/2+x,1/2-y,-z
4 -x,1/2+y,1/2-z
_cell_length_a                   8.143(3)
_cell_length_b                   8.435(3)
_cell_length_c                   20.317(3)
_cell_angle_alpha                90
_cell_angle_beta                 90
_cell_angle_gamma                90
_cell_volume                     1395.5
_exptl_crystal_colour            colorless
_exptl_crystal_description       block
_cell_formula_units_Z            4
loop_
_atom_site_label
_atom_site_type_symbol
_atom_site_fract_x
_atom_site_fract_y
_atom_site_fract_z
S1 S 0.79120(11) 0.07226(10) -0.06629(3)
P1 P 0.62299(7) 0.02137(7) 0.12801(3)
N1 N 0.7573(2) -0.0796(3) 0.17260(10)
C1 C 0.7320(4) -0.1224(4) -0.05880(15)
H1 H 0.7406 -0.1978 -0.0934
B1 B 0.4041(3) -0.0099(4) 0.15849(15)
H2 H 0.403(5) 0.060(5) 0.2050(18)
H3 H 0.329(4) 0.039(4) 0.1197(15)
H4 H 0.389(5) -0.140(4) 0.1657(17)
S2 S 0.79181(10) 0.44375(8) 0.04078(4)
C2 C 0.6711(4) -0.1573(3) 0.00213(14)
H5 H 0.6316 -0.2587 0.0149
C3 C 0.6746(3) -0.0227(3) 0.04386(11)
C4 C 0.7356(3) 0.1105(3) 0.01308(12)
C5 C 0.7397(3) 0.2511(3) 0.05431(12)
C6 C 0.6843(3) 0.2263(3) 0.11764(12)
C7 C 0.6831(3) 0.3676(3) 0.15546(13)
H6 H 0.6479 0.3732 0.2000
C8 C 0.7383(4) 0.4942(4) 0.12026(14)
H7 H 0.7465 0.5985 0.1375
C9 C 0.7376(4) -0.0916(4) 0.24459(13)
H8 H 0.6425 -0.1595 0.2560
H9 H 0.7215 0.0145 0.2644
C10 C 0.8947(4) -0.1646(6) 0.26782(17)
H10 H 0.9412 -0.1014 0.3044
H11 H 0.8741 -0.2735 0.2840
C11 C 1.0094(4) -0.1686(6) 0.21306(17)
H12 H 1.0312 -0.2797 0.2000
H13 H 1.1147 -0.1190 0.2260
C12 C 0.9342(3) -0.0790(4) 0.15651(14)
H14 H 0.9774 0.0305 0.1541
H15 H 0.9554 -0.1332 0.1141
loop_
_geom_bond_atom_site_label_1
_geom_bond_atom_site_label_2
_geom_bond_site_symmetry_1
_geom_bond_site_symmetry_2
S1 C1 1_555 1_555
P1 N1 1_555 1_555
N1 C9 1_555 1_555
C1 H1 1_555 1_555
B1 P1 1_555 1_555
H2 B1 1_555 1_555
H3 B1 1_555 1_555
H4 B1 1_555 1_555
S2 C5 1_555 1_555
C2 C1 1_555 1_555
H5 C2 1_555 1_555
C3 P1 1_555 1_555
C4 S1 1_555 1_555
C5 C4 1_555 1_555
C6 P1 1_555 1_555
C7 C6 1_555 1_555
H6 C7 1_555 1_555
C8 S2 1_555 1_555
H7 C8 1_555 1_555
C9 H8 1_555 1_555
H9 C9 1_555 1_555
C10 C9 1_555 1_555
H10 C10 1_555 1_555
H11 C10 1_555 1_555
C11 C10 1_555 1_555
H12 C11 1_555 1_555
H13 C11 1_555 1_555
C12 N1 1_555 1_555
H14 C12 1_555 1_555
H15 C12 1_555 1_555
C2 C3 1_555 1_555
C3 C4 1_555 1_555
C5 C6 1_555 1_555
C7 C8 1_555 1_555
C11 C12 1_555 1_555

#END
