
#######################################################################
#
#                 Cambridge Crystallographic Data Centre
#                                CCDC 
#
#######################################################################
#
# If this CIF has been generated from an entry in the Cambridge 
# Structural Database, then it will include bibliographic, chemical, 
# crystal, experimental, refinement or atomic coordinate data resulting 
# from the CCDC's data processing and validation procedures.
#
#######################################################################

data_QIKBEU
_chemical_formula_moiety         'C4 H9 B1 F3 N1'
_chemical_name_systematic        trifluoro(pyrrolidine)boron
_symmetry_cell_setting           orthorhombic
_symmetry_space_group_name_H-M   'P n m a'
_symmetry_Int_Tables_number      62
_space_group_name_Hall           '-P 2ac 2n'
loop_
_symmetry_equiv_pos_site_id
_symmetry_equiv_pos_as_xyz
1 x,y,z
2 1/2-x,-y,1/2+z
3 -x,1/2+y,-z
4 1/2+x,1/2-y,1/2-z
5 -x,-y,-z
6 1/2+x,y,1/2-z
7 x,1/2-y,z
8 1/2-x,1/2+y,1/2+z
_cell_length_a                   7.1910(3)
_cell_length_b                   9.6916(5)
_cell_length_c                   9.3433(3)
_cell_angle_alpha                90
_cell_angle_beta                 90
_cell_angle_gamma                90
_cell_volume                     651.156
_exptl_crystal_colour            brown
_exptl_crystal_description       prism
_cell_formula_units_Z            4
loop_
_atom_site_label
_atom_site_type_symbol
_atom_site_fract_x
_atom_site_fract_y
_atom_site_fract_z
F1 F 0.6473(3) 0.7500 0.4971(2)
F2 F 0.56773(18) 0.63344(12) 0.69914(13)
N1 N 0.3265(3) 0.7500 0.5682(2)
C1 C 0.2704(3) 0.6270(2) 0.4813(2)
H1 H 0.3744 0.5957 0.4199
H2 H 0.2323 0.5498 0.5443
C2 C 0.1105(4) 0.6749(3) 0.3922(3)
H3 H 0.1233 0.6399 0.2931
H4 H -0.0078 0.6399 0.4323
B1 B 0.5380(4) 0.7500 0.6159(3)
H5 H 0.261(5) 0.7500 0.639(4)
F2F F 0.56773(18) 0.86656(12) 0.69914(13)
C1F C 0.2704(3) 0.8730(2) 0.4813(2)
H1F H 0.3744 0.9043 0.4199
H2F H 0.2323 0.9502 0.5443
C2F C 0.1105(4) 0.8251(3) 0.3922(3)
H3F H 0.1233 0.8601 0.2931
H4F H -0.0078 0.8601 0.4323
loop_
_geom_bond_atom_site_label_1
_geom_bond_atom_site_label_2
_geom_bond_site_symmetry_1
_geom_bond_site_symmetry_2
F1 B1 1_555 1_555
F2 B1 1_555 1_555
N1 C1 1_555 1_555
C1 H1 1_555 1_555
H2 C1 1_555 1_555
C2 C1 1_555 1_555
H3 C2 1_555 1_555
H4 C2 1_555 1_555
B1 N1 1_555 1_555
H5 N1 1_555 1_555
F2F B1 1_555 1_555
C1F N1 1_555 1_555
H1F C1F 1_555 1_555
H2F C1F 1_555 1_555
C2F C2 1_555 1_555
H3F C2F 1_555 1_555
H4F C2F 1_555 1_555
C1F C2F 1_555 1_555

#END
