
#######################################################################
#
#                 Cambridge Crystallographic Data Centre
#                                CCDC 
#
#######################################################################
#
# If this CIF has been generated from an entry in the Cambridge 
# Structural Database, then it will include bibliographic, chemical, 
# crystal, experimental, refinement or atomic coordinate data resulting 
# from the CCDC's data processing and validation procedures.
#
#######################################################################

data_QIKCAQ
_chemical_formula_moiety         'C12 H11 B1 N2 O3'
_chemical_name_systematic        
16,17-Dioxa-2\l^5^,8-diaza-1\l^5^-boratetracyclo[7.7.1.0^2,7^.0^10,15^]heptadeca-2,4,6,10,12,14-hexaen-1-ol
_symmetry_cell_setting           monoclinic
_symmetry_space_group_name_H-M   'P 21/c'
_symmetry_Int_Tables_number      14
_space_group_name_Hall           '-P 2ybc'
loop_
_symmetry_equiv_pos_site_id
_symmetry_equiv_pos_as_xyz
1 x,y,z
2 -x,1/2+y,1/2-z
3 -x,-y,-z
4 x,1/2-y,1/2+z
_cell_length_a                   6.778(3)
_cell_length_b                   16.586(5)
_cell_length_c                   11.326(4)
_cell_angle_alpha                90
_cell_angle_beta                 118.40(3)
_cell_angle_gamma                90
_cell_volume                     1120.03
_exptl_crystal_colour            yellow
_exptl_crystal_description       block
_cell_formula_units_Z            4
loop_
_atom_site_label
_atom_site_type_symbol
_atom_site_fract_x
_atom_site_fract_y
_atom_site_fract_z
O1 O 0.0905(4) 0.92503(16) 0.4250(2)
O2 O -0.2752(4) 0.98037(17) 0.3500(3)
H1 H -0.2022 1.0057 0.4196
O3 O -0.2356(4) 0.86889(17) 0.2372(3)
N1 N -0.0778(5) 0.9999(2) 0.2137(3)
N2 N 0.2950(5) 0.9633(2) 0.3188(3)
H2 H 0.4396 0.9665 0.3255
C1 C 0.1302(6) 1.0108(2) 0.2296(4)
C2 C 0.1697(7) 1.0699(3) 0.1546(4)
H3 H 0.3147 1.0790 0.1688
C3 C -0.0043(9) 1.1139(3) 0.0609(5)
H4 H 0.0211 1.1532 0.0111
C4 C -0.2188(8) 1.0994(3) 0.0408(4)
H5 H -0.3403 1.1272 -0.0251
C5 C -0.2496(7) 1.0446(3) 0.1176(4)
H6 H -0.3940 1.0366 0.1052
C6 C -0.0992(7) 0.8167(3) 0.2184(4)
C7 C -0.1930(8) 0.7516(3) 0.1327(4)
H7 H -0.3472 0.7434 0.0912
C8 C -0.0579(9) 0.6992(3) 0.1088(5)
H8 H -0.1221 0.6556 0.0513
C9 C 0.1695(9) 0.7104(3) 0.1687(5)
H9 H 0.2592 0.6755 0.1507
C10 C 0.2635(8) 0.7737(3) 0.2557(4)
H10 H 0.4181 0.7810 0.2971
C11 C 0.1337(7) 0.8267(2) 0.2829(4)
C12 C 0.2383(6) 0.8968(2) 0.3789(4)
H11 H 0.3759 0.8777 0.4564
B1 B -0.1274(7) 0.9403(3) 0.3136(4)
loop_
_geom_bond_atom_site_label_1
_geom_bond_atom_site_label_2
_geom_bond_site_symmetry_1
_geom_bond_site_symmetry_2
O1 C12 1_555 1_555
O2 H1 1_555 1_555
O3 C6 1_555 1_555
N1 C1 1_555 1_555
N2 H2 1_555 1_555
C1 N2 1_555 1_555
C2 C1 1_555 1_555
H3 C2 1_555 1_555
C3 C2 1_555 1_555
H4 C3 1_555 1_555
C4 C3 1_555 1_555
H5 C4 1_555 1_555
C5 N1 1_555 1_555
H6 C5 1_555 1_555
C6 C7 1_555 1_555
C7 H7 1_555 1_555
C8 C7 1_555 1_555
H8 C8 1_555 1_555
C9 C8 1_555 1_555
H9 C9 1_555 1_555
C10 C9 1_555 1_555
H10 C10 1_555 1_555
C11 C6 1_555 1_555
C12 N2 1_555 1_555
H11 C12 1_555 1_555
B1 O1 1_555 1_555
O2 B1 1_555 1_555
O3 B1 1_555 1_555
N1 B1 1_555 1_555
C4 C5 1_555 1_555
C10 C11 1_555 1_555
C11 C12 1_555 1_555

#END
