
#######################################################################
#
#                 Cambridge Crystallographic Data Centre
#                                CCDC 
#
#######################################################################
#
# If this CIF has been generated from an entry in the Cambridge 
# Structural Database, then it will include bibliographic, chemical, 
# crystal, experimental, refinement or atomic coordinate data resulting 
# from the CCDC's data processing and validation procedures.
#
#######################################################################

data_QIKCIW01
_chemical_formula_moiety         'C24 H30 O5'
_chemical_name_systematic        
(4-Methoxyphenyl)bis(5,5-dimethyl-3-hydroxy-1-oxocyclohex-2-en-2-yl)methane
_symmetry_cell_setting           monoclinic
_symmetry_space_group_name_H-M   'P 21/n'
_symmetry_Int_Tables_number      14
_space_group_name_Hall           '-P 2yn'
loop_
_symmetry_equiv_pos_site_id
_symmetry_equiv_pos_as_xyz
1 x,y,z
2 1/2-x,1/2+y,1/2-z
3 -x,-y,-z
4 1/2+x,1/2-y,1/2+z
_cell_length_a                   8.8777(14)
_cell_length_b                   11.545(2)
_cell_length_c                   21.006(4)
_cell_angle_alpha                90
_cell_angle_beta                 98.530(7)
_cell_angle_gamma                90
_cell_volume                     2129.15
_exptl_crystal_colour            colorless
_exptl_crystal_description       block
_chemical_melting_point          '417-419 K'
_cell_formula_units_Z            4
_exptl_crystal_recrystallization_method ethanol/water
_exptl_crystal_preparation       fluorescent
loop_
_atom_site_label
_atom_site_type_symbol
_atom_site_fract_x
_atom_site_fract_y
_atom_site_fract_z
O1 O 0.39072(15) 0.32300(12) 0.27315(6)
O2 O 0.0477(2) 0.54552(15) 0.13139(7)
H1 H 0.0045 0.5563 0.1639
O3 O 0.19815(15) 0.29976(12) 0.35130(6)
H2 H 0.2616 0.3203 0.3275
O4 O -0.13372(17) 0.55471(14) 0.22426(8)
O5 O 0.63749(17) 0.74562(13) 0.43538(7)
C1 C 0.1746(2) 0.51199(17) 0.26592(9)
H3 H 0.1224 0.5831 0.2464
C2 C 0.2310(2) 0.45293(17) 0.20881(9)
C3 C 0.3458(2) 0.36465(17) 0.21889(9)
C4 C 0.4109(3) 0.31437(18) 0.16290(10)
H4 H 0.3610 0.2389 0.1516
H5 H 0.5207 0.2993 0.1766
C5 C 0.3931(3) 0.3897(2) 0.10288(10)
C6 C 0.2289(3) 0.4302(2) 0.08963(10)
H6 H 0.2200 0.4905 0.0558
H7 H 0.1641 0.3641 0.0726
C7 C 0.1690(3) 0.47816(18) 0.14726(10)
C8 C 0.0490(2) 0.44795(17) 0.29298(9)
C9 C 0.0674(2) 0.35461(16) 0.33348(9)
C10 C -0.0600(2) 0.30318(17) 0.36312(10)
H8 H -0.0195 0.2759 0.4070
H9 H -0.0998 0.2349 0.3375
C11 C -0.1909(2) 0.38675(18) 0.36733(10)
C12 C -0.2353(2) 0.43691(19) 0.29985(10)
H10 H -0.2851 0.3753 0.2714
H11 H -0.3111 0.4992 0.3019
C13 C -0.1048(2) 0.48521(18) 0.27016(10)
C14 C 0.3048(2) 0.56073(16) 0.31505(9)
C15 C 0.4105(2) 0.63258(17) 0.29196(9)
H12 H 0.4076 0.6405 0.2468
C16 C 0.5192(2) 0.69250(17) 0.33276(10)
H13 H 0.5895 0.7411 0.3156
C17 C 0.5261(2) 0.68191(17) 0.39902(9)
C18 C 0.4243(2) 0.61011(17) 0.42328(9)
H14 H 0.4293 0.6008 0.4685
C19 C 0.3137(2) 0.55120(17) 0.38122(9)
H15 H 0.2427 0.5033 0.3985
C20 C 0.5015(4) 0.4937(2) 0.11292(14)
H16 H 0.4857 0.5433 0.0746
H17 H 0.6071 0.4662 0.1201
H18 H 0.4811 0.5382 0.1504
C21 C 0.4318(3) 0.3171(2) 0.04622(11)
H19 H 0.3692 0.2468 0.0420
H20 H 0.5398 0.2955 0.0541
H21 H 0.4113 0.3625 0.0065
C22 C -0.1413(3) 0.4829(2) 0.41634(11)
H22 H -0.1098 0.4485 0.4589
H23 H -0.2267 0.5360 0.4183
H24 H -0.0557 0.5257 0.4032
C23 C -0.3253(2) 0.3217(2) 0.38798(11)
H25 H -0.3570 0.2594 0.3572
H26 H -0.4103 0.3753 0.3892
H27 H -0.2948 0.2884 0.4309
C24 C 0.6493(3) 0.7375(2) 0.50341(11)
H28 H 0.5553 0.7664 0.5171
H29 H 0.7357 0.7841 0.5235
H30 H 0.6649 0.6565 0.5166
loop_
_geom_bond_atom_site_label_1
_geom_bond_atom_site_label_2
_geom_bond_site_symmetry_1
_geom_bond_site_symmetry_2
O1 C3 1_555 1_555
O2 H1 1_555 1_555
O3 H2 1_555 1_555
O4 C13 1_555 1_555
O5 C17 1_555 1_555
C1 H3 1_555 1_555
C2 C1 1_555 1_555
C3 C2 1_555 1_555
C4 C3 1_555 1_555
H4 C4 1_555 1_555
H5 C4 1_555 1_555
C5 C4 1_555 1_555
C6 C5 1_555 1_555
H6 C6 1_555 1_555
H7 C6 1_555 1_555
C7 O2 1_555 1_555
C8 C1 1_555 1_555
C9 O3 1_555 1_555
C10 C9 1_555 1_555
H8 C10 1_555 1_555
H9 C10 1_555 1_555
C11 C10 1_555 1_555
C12 C11 1_555 1_555
H10 C12 1_555 1_555
H11 C12 1_555 1_555
C13 C8 1_555 1_555
C14 C1 1_555 1_555
C15 C14 1_555 1_555
H12 C15 1_555 1_555
C16 C15 1_555 1_555
H13 C16 1_555 1_555
C17 C16 1_555 1_555
C18 C17 1_555 1_555
H14 C18 1_555 1_555
C19 C14 1_555 1_555
H15 C19 1_555 1_555
C20 C5 1_555 1_555
H16 C20 1_555 1_555
H17 C20 1_555 1_555
H18 C20 1_555 1_555
C21 C5 1_555 1_555
H19 C21 1_555 1_555
H20 C21 1_555 1_555
H21 C21 1_555 1_555
C22 C11 1_555 1_555
H22 C22 1_555 1_555
H23 C22 1_555 1_555
H24 C22 1_555 1_555
C23 C11 1_555 1_555
H25 C23 1_555 1_555
H26 C23 1_555 1_555
H27 C23 1_555 1_555
C24 O5 1_555 1_555
H28 C24 1_555 1_555
H29 C24 1_555 1_555
H30 C24 1_555 1_555
C2 C7 1_555 1_555
C6 C7 1_555 1_555
C8 C9 1_555 1_555
C12 C13 1_555 1_555
C18 C19 1_555 1_555

#END
