
#######################################################################
#
#                 Cambridge Crystallographic Data Centre
#                                CCDC 
#
#######################################################################
#
# If this CIF has been generated from an entry in the Cambridge 
# Structural Database, then it will include bibliographic, chemical, 
# crystal, experimental, refinement or atomic coordinate data resulting 
# from the CCDC's data processing and validation procedures.
#
#######################################################################

data_QIKKOK
_chemical_formula_moiety         'C53 H60 N2 O1 Si2'
_chemical_name_systematic        
2-(4-((E)-6-(4-Methoxyphenyl)-3,4-bis((tri-isopropylsilyl)ethynyl)hex-3-ene-1,5-diynyl)phenyl)-8aH-azulene-1,1-dicarbonitrile
_symmetry_cell_setting           triclinic
_symmetry_space_group_name_H-M   'P -1'
_symmetry_Int_Tables_number      2
_space_group_name_Hall           '-P 1'
loop_
_symmetry_equiv_pos_site_id
_symmetry_equiv_pos_as_xyz
1 x,y,z
2 -x,-y,-z
_cell_length_a                   7.905(4)
_cell_length_b                   16.044(7)
_cell_length_c                   20.097(4)
_cell_angle_alpha                104.96(3)
_cell_angle_beta                 94.16(2)
_cell_angle_gamma                99.28(3)
_cell_volume                     2412.75
_exptl_crystal_colour            orange
_chemical_melting_point          187deg.C
_cell_formula_units_Z            2
_exptl_crystal_recrystallization_method dichloromethane/acetonitrile
loop_
_atom_site_label
_atom_site_type_symbol
_atom_site_fract_x
_atom_site_fract_y
_atom_site_fract_z
Si1 Si 0.3489(4) 0.0578(2) 0.35875(14)
Si2 Si 0.3260(10) 0.5896(5) 0.2215(4)
C1 C 0.2827(10) 0.3192(5) 0.2396(4)
C2 C 0.1694(11) 0.2483(5) 0.1903(5)
C3 C 0.0750(11) 0.1886(5) 0.1493(5)
C4 C -0.0402(10) 0.1136(5) 0.1048(5)
C5 C -0.0960(10) 0.1071(5) 0.0358(4)
H1 H -0.0576(10) 0.1550(5) 0.0168(4)
C6 C -0.2049(9) 0.0339(5) -0.0042(4)
H2 H -0.2396(9) 0.0303(5) -0.0518(4)
C7 C -0.2668(9) -0.0373(4) 0.0212(4)
C8 C -0.2096(10) -0.0296(5) 0.0899(4)
H3 H -0.2466(10) -0.0777(5) 0.1089(4)
C9 C -0.1020(10) 0.0440(5) 0.1310(5)
H4 H -0.0689(10) 0.0483(5) 0.1789(5)
C10 C -0.3828(9) -0.1141(5) -0.0242(4)
C11 C -0.4578(9) -0.1267(5) -0.0888(4)
H5 H -0.4422(9) -0.0827(5) -0.1135(4)
C12 C -0.5651(9) -0.2122(5) -0.1174(4)
C13 C -0.5599(10) -0.2637(5) -0.0642(4)
H6 H -0.5022(10) -0.3118(5) -0.0816(4)
C14 C -0.4425(10) -0.1982(5) -0.0001(4)
C15 C -0.5392(12) -0.1734(6) 0.0617(5)
N1 N -0.6117(11) -0.1532(6) 0.1078(5)
C16 C -0.2903(12) -0.2363(5) 0.0198(4)
N2 N -0.1774(11) -0.2667(5) 0.0315(5)
C17 C -0.6448(10) -0.2448(6) -0.1818(5)
H7 H -0.6320(10) -0.2073(6) -0.2120(5)
C18 C -0.7473(12) -0.3320(6) -0.2092(5)
H8 H -0.7522(12) -0.3563(6) -0.2585(5)
C19 C -0.8304(12) -0.3812(7) -0.1776(5)
H9 H -0.8836(12) -0.4397(7) -0.2039(5)
C20 C -0.8486(12) -0.3560(6) -0.1038(6)
H10 H -0.9566(12) -0.3798(6) -0.0908(6)
C21 C -0.7340(11) -0.3007(6) -0.0519(6)
H11 H -0.7647(11) -0.2842(6) -0.0056(6)
C22 C 0.3658(11) 0.3076(5) 0.2967(4)
C23 C 0.4845(12) 0.3770(6) 0.3473(5)
C24 C 0.5874(13) 0.4322(7) 0.3906(5)
C25 C 0.7162(35) 0.5079(15) 0.4288(10)
C26 C 0.8051(28) 0.5731(13) 0.4028(11)
C27 C 0.9215(24) 0.6428(12) 0.4507(9)
C28 C 0.9450(38) 0.6488(16) 0.5216(10)
C29 C 0.8575(54) 0.5797(22) 0.5440(12)
C30 C 0.7410(25) 0.5103(13) 0.4986(10)
O1 O 1.0654(17) 0.7185(9) 0.5616(8)
C31 C 1.0979(17) 0.7262(9) 0.6304(7)
C38 C 0.3070(9) 0.4037(5) 0.2275(4)
C39 C 0.3217(10) 0.4752(6) 0.2160(4)
C40 C 0.2866(26) 0.6538(15) 0.3163(11)
C41 C 0.4445(31) 0.6389(20) 0.3622(15)
C42 C 0.0870(30) 0.6269(22) 0.3175(18)
C43 C 0.5649(25) 0.6301(11) 0.2065(11)
C44 C 0.6088(30) 0.7391(12) 0.2376(13)
C45 C 0.6331(36) 0.5669(16) 0.1455(14)
C46 C 0.1452(27) 0.5955(12) 0.1528(11)
C47 C 0.1824(33) 0.5469(15) 0.0797(11)
C48 C 0.1258(23) 0.7013(10) 0.1817(10)
C58 C 0.3493(11) 0.2226(6) 0.3110(5)
C59 C 0.3415(13) 0.1544(7) 0.3259(5)
C60 C 0.1420(17) -0.0234(7) 0.3216(7)
C61 C 0.1107(17) -0.0987(8) 0.3578(8)
H12 H 0.0051(17) -0.1393(8) 0.3382(8)
H13 H 0.2061(17) -0.1291(8) 0.3524(8)
H14 H 0.1062(17) -0.0729(8) 0.4063(8)
C62 C 0.1209(21) -0.0615(9) 0.2441(9)
H15 H 0.0137(21) -0.1022(9) 0.2280(9)
H16 H 0.1253(21) -0.0148(9) 0.2222(9)
H17 H 0.2152(21) -0.0915(9) 0.2328(9)
C63 C 0.5519(19) 0.0181(9) 0.3349(7)
C64 C 0.6074(18) 0.0190(9) 0.2696(7)
H18 H 0.7131(18) -0.0032(9) 0.2655(7)
H19 H 0.5197(18) -0.0182(9) 0.2340(7)
H20 H 0.6253(18) 0.0775(9) 0.2645(7)
C65 C 0.5957(21) -0.0536(10) 0.3641(8)
H21 H 0.7009(21) -0.0696(10) 0.3483(8)
H22 H 0.6106(21) -0.0331(10) 0.4138(8)
H23 H 0.5041(21) -0.1040(10) 0.3493(8)
C66 C 0.3683(22) 0.0963(8) 0.4539(6)
C67 C 0.5246(31) 0.1684(12) 0.4861(8)
H24 H 0.5285(31) 0.1859(12) 0.5357(8)
H25 H 0.6237(31) 0.1430(12) 0.4736(8)
H26 H 0.5247(31) 0.2187(12) 0.4687(8)
C68 C 0.2119(28) 0.1346(11) 0.4782(8)
H27 H 0.2343(28) 0.1532(11) 0.5280(8)
H28 H 0.2014(28) 0.1844(11) 0.4612(8)
H29 H 0.1065(28) 0.0921(11) 0.4644(8)
Si3? Si 0.3644(10) 0.5831(5) 0.1901(4)
C32? C 0.6875(29) 0.4812(15) 0.4519(10)
C33? C 0.6992(24) 0.4589(14) 0.5147(9)
C34? C 0.8077(24) 0.5119(14) 0.5717(9)
C35? C 0.8960(59) 0.5917(22) 0.5675(15)
C36? C 0.8943(51) 0.6131(19) 0.5044(14)
C37? C 0.7830(41) 0.5583(19) 0.4455(15)
O2? O 1.0033(22) 0.6445(12) 0.6270(8)
C49? C 0.4148(21) 0.5652(12) 0.0961(9)
C50? C 0.2462(24) 0.5061(14) 0.0485(11)
C51? C 0.6023(26) 0.5395(18) 0.0937(16)
C52? C 0.5577(26) 0.6534(13) 0.2487(11)
C53? C 0.5257(40) 0.6666(20) 0.3270(12)
C54? C 0.6289(31) 0.7233(15) 0.2063(12)
C55? C 0.1411(26) 0.6177(13) 0.1969(10)
C56? C 0.0841(27) 0.6281(14) 0.2723(10)
C57? C 0.1270(30) 0.6768(15) 0.1436(12)
loop_
_geom_bond_atom_site_label_1
_geom_bond_atom_site_label_2
_geom_bond_site_symmetry_1
_geom_bond_site_symmetry_2
Si1 C59 1_555 1_555
Si2 C39 1_555 1_555
C1 C2 1_555 1_555
C2 C3 1_555 1_555
C3 C4 1_555 1_555
C4 C5 1_555 1_555
C5 H1 1_555 1_555
C6 C5 1_555 1_555
H2 C6 1_555 1_555
C7 C6 1_555 1_555
C8 C7 1_555 1_555
H3 C8 1_555 1_555
C9 C4 1_555 1_555
H4 C9 1_555 1_555
C10 C7 1_555 1_555
C11 C10 1_555 1_555
H5 C11 1_555 1_555
C12 C11 1_555 1_555
C13 C12 1_555 1_555
H6 C13 1_555 1_555
C14 C10 1_555 1_555
C15 C14 1_555 1_555
N1 C15 1_555 1_555
C16 C14 1_555 1_555
N2 C16 1_555 1_555
C17 C12 1_555 1_555
H7 C17 1_555 1_555
C18 C17 1_555 1_555
H8 C18 1_555 1_555
C19 C18 1_555 1_555
H9 C19 1_555 1_555
C20 C19 1_555 1_555
H10 C20 1_555 1_555
C21 C13 1_555 1_555
H11 C21 1_555 1_555
C22 C1 1_555 1_555
C23 C22 1_555 1_555
C24 C23 1_555 1_555
C25 C24 1_555 1_555
C26 C25 1_555 1_555
C27 C26 1_555 1_555
C28 C27 1_555 1_555
C29 C28 1_555 1_555
C30 C25 1_555 1_555
O1 C28 1_555 1_555
C31 O1 1_555 1_555
C38 C1 1_555 1_555
C39 C38 1_555 1_555
C40 Si2 1_555 1_555
C41 C40 1_555 1_555
C42 C40 1_555 1_555
C43 Si2 1_555 1_555
C44 C43 1_555 1_555
C45 C43 1_555 1_555
C46 Si2 1_555 1_555
C47 C46 1_555 1_555
C48 C46 1_555 1_555
C58 C22 1_555 1_555
C59 C58 1_555 1_555
C60 Si1 1_555 1_555
C61 C60 1_555 1_555
H12 C61 1_555 1_555
H13 C61 1_555 1_555
H14 C61 1_555 1_555
C62 C60 1_555 1_555
H15 C62 1_555 1_555
H16 C62 1_555 1_555
H17 C62 1_555 1_555
C63 Si1 1_555 1_555
C64 C63 1_555 1_555
H18 C64 1_555 1_555
H19 C64 1_555 1_555
H20 C64 1_555 1_555
C65 C63 1_555 1_555
H21 C65 1_555 1_555
H22 C65 1_555 1_555
H23 C65 1_555 1_555
C66 Si1 1_555 1_555
C67 C66 1_555 1_555
H24 C67 1_555 1_555
H25 C67 1_555 1_555
H26 C67 1_555 1_555
C68 C66 1_555 1_555
H27 C68 1_555 1_555
H28 C68 1_555 1_555
H29 C68 1_555 1_555
C8 C9 1_555 1_555
C13 C14 1_555 1_555
C20 C21 1_555 1_555
C29 C30 1_555 1_555

#END
