
#######################################################################
#
#                 Cambridge Crystallographic Data Centre
#                                CCDC 
#
#######################################################################
#
# If this CIF has been generated from an entry in the Cambridge 
# Structural Database, then it will include bibliographic, chemical, 
# crystal, experimental, refinement or atomic coordinate data resulting 
# from the CCDC's data processing and validation procedures.
#
#######################################################################

data_QIKKIH
_chemical_formula_moiety         'C23 H33 F1 O2 Si1'
_chemical_name_systematic        
'1-(4-fluoro-2-{[tris(propan-2-yl)silyl]ethynyl}phenyl)cyclopentane-1-carboxylic acid'
_symmetry_cell_setting           monoclinic
_symmetry_space_group_name_H-M   'P 21/c'
_symmetry_Int_Tables_number      14
_space_group_name_Hall           '-P 2ybc'
loop_
_symmetry_equiv_pos_site_id
_symmetry_equiv_pos_as_xyz
1 x,y,z
2 -x,1/2+y,1/2-z
3 -x,-y,-z
4 x,1/2-y,1/2+z
_cell_length_a                   13.1743(2)
_cell_length_b                   15.3498(2)
_cell_length_c                   11.53910(10)
_cell_angle_alpha                90
_cell_angle_beta                 112.7130(10)
_cell_angle_gamma                90
_cell_volume                     2152.51
_exptl_crystal_colour            'light colorless'
_exptl_crystal_description       block
_cell_formula_units_Z            4
loop_
_atom_site_label
_atom_site_type_symbol
_atom_site_fract_x
_atom_site_fract_y
_atom_site_fract_z
Si1 Si 0.37206(3) 0.59420(2) 0.18470(3)
F1 F 0.20814(7) 0.55635(5) 0.72408(7)
O1 O -0.00793(7) 0.49771(6) 0.15739(8)
H1 H -0.0306 0.5248 0.0888
O2 O 0.07045(8) 0.41347(6) 0.05685(8)
C1 C 0.32394(13) 0.71203(11) -0.02166(14)
H2 H 0.3785 0.7535 0.0318
H3 H 0.2670 0.7435 -0.0900
H4 H 0.3601 0.6700 -0.0571
C2 C 0.27106(10) 0.66365(8) 0.05677(11)
H5 H 0.2141 0.6237 -0.0013
C3 C 0.21157(12) 0.72768(9) 0.11093(13)
H6 H 0.1730 0.6952 0.1547
H7 H 0.1583 0.7617 0.0425
H8 H 0.2654 0.7670 0.1701
C4 C 0.33541(12) 0.45031(9) 0.01884(13)
H9 H 0.2856 0.4265 0.0557
H10 H 0.3676 0.4025 -0.0118
H11 H 0.2943 0.4889 -0.0513
C5 C 0.42732(11) 0.50198(8) 0.11880(12)
H12 H 0.4746 0.5278 0.0775
C6 C 0.49929(13) 0.44043(10) 0.22200(16)
H13 H 0.5610 0.4730 0.2824
H14 H 0.5276 0.3939 0.1845
H15 H 0.4554 0.4149 0.2652
C7 C 0.58135(11) 0.67983(11) 0.25893(14)
H16 H 0.6199 0.6248 0.2611
H17 H 0.6326 0.7218 0.3160
H18 H 0.5530 0.7032 0.1732
C8 C 0.48490(10) 0.66362(8) 0.30045(12)
H19 H 0.4514 0.7219 0.3018
C9 C 0.52888(11) 0.62977(10) 0.43596(12)
H20 H 0.4675 0.6216 0.4628
H21 H 0.5808 0.6721 0.4913
H22 H 0.5664 0.5740 0.4404
C10 C 0.29278(10) 0.54635(8) 0.27024(11)
C11 C 0.24351(10) 0.51942(8) 0.33179(11)
C12 C 0.19256(9) 0.49167(8) 0.41550(11)
C13 C 0.22185(10) 0.53750(8) 0.52869(11)
H23 H 0.2704 0.5859 0.5458
C14 C 0.17921(10) 0.51126(8) 0.61464(11)
C15 C 0.10831(11) 0.44184(9) 0.59322(12)
H24 H 0.0807 0.4244 0.6545
C16 C 0.07805(10) 0.39781(8) 0.47938(12)
H25 H 0.0283 0.3503 0.4633
C17 C 0.11824(9) 0.42107(8) 0.38801(11)
C18 C 0.05204(9) 0.43049(8) 0.15045(11)
C19 C 0.18294(10) 0.30990(8) 0.26997(11)
H26 H 0.1744 0.2912 0.1846
H27 H 0.2552 0.3389 0.3110
C20 C 0.17238(11) 0.23223(8) 0.34798(13)
H28 H 0.2112 0.2440 0.4389
H29 H 0.2038 0.1790 0.3264
C21 C 0.04756(12) 0.22125(8) 0.31392(13)
H30 H 0.0196 0.1689 0.2610
H31 H 0.0320 0.2152 0.3909
C22 C -0.00695(10) 0.30439(8) 0.24119(12)
H32 H -0.0618 0.3276 0.2724
H33 H -0.0443 0.2918 0.1503
C23 C 0.08829(9) 0.37100(8) 0.26490(11)
loop_
_geom_bond_atom_site_label_1
_geom_bond_atom_site_label_2
_geom_bond_site_symmetry_1
_geom_bond_site_symmetry_2
Si1 C2 1_555 1_555
F1 C14 1_555 1_555
O1 H1 1_555 1_555
O2 C18 1_555 1_555
C1 H2 1_555 1_555
H3 C1 1_555 1_555
H4 C1 1_555 1_555
C2 C1 1_555 1_555
H5 C2 1_555 1_555
C3 C2 1_555 1_555
H6 C3 1_555 1_555
H7 C3 1_555 1_555
H8 C3 1_555 1_555
C4 H9 1_555 1_555
H10 C4 1_555 1_555
H11 C4 1_555 1_555
C5 Si1 1_555 1_555
H12 C5 1_555 1_555
C6 C5 1_555 1_555
H13 C6 1_555 1_555
H14 C6 1_555 1_555
H15 C6 1_555 1_555
C7 H16 1_555 1_555
H17 C7 1_555 1_555
H18 C7 1_555 1_555
C8 Si1 1_555 1_555
H19 C8 1_555 1_555
C9 C8 1_555 1_555
H20 C9 1_555 1_555
H21 C9 1_555 1_555
H22 C9 1_555 1_555
C10 Si1 1_555 1_555
C11 C10 1_555 1_555
C12 C11 1_555 1_555
C13 C12 1_555 1_555
H23 C13 1_555 1_555
C14 C13 1_555 1_555
C15 C14 1_555 1_555
H24 C15 1_555 1_555
C16 C15 1_555 1_555
H25 C16 1_555 1_555
C17 C12 1_555 1_555
C18 O1 1_555 1_555
C19 H26 1_555 1_555
H27 C19 1_555 1_555
C20 C19 1_555 1_555
H28 C20 1_555 1_555
H29 C20 1_555 1_555
C21 C20 1_555 1_555
H30 C21 1_555 1_555
H31 C21 1_555 1_555
C22 C21 1_555 1_555
H32 C22 1_555 1_555
H33 C22 1_555 1_555
C23 C17 1_555 1_555
C4 C5 1_555 1_555
C7 C8 1_555 1_555
C16 C17 1_555 1_555
C18 C23 1_555 1_555
C19 C23 1_555 1_555
C22 C23 1_555 1_555

#END
