
#######################################################################
#
#                 Cambridge Crystallographic Data Centre
#                                CCDC 
#
#######################################################################
#
# If this CIF has been generated from an entry in the Cambridge 
# Structural Database, then it will include bibliographic, chemical, 
# crystal, experimental, refinement or atomic coordinate data resulting 
# from the CCDC's data processing and validation procedures.
#
#######################################################################

data_QIKLIH
_chemical_formula_moiety         'C27 H24 N2 O4'
_chemical_name_systematic        
4-(5,5-Diacetyl-3-(4-methoxyphenyl)-2-phenyl-1,3-oxazolidin-4-yl)benzonitrile
_symmetry_cell_setting           monoclinic
_symmetry_space_group_name_H-M   'P 21/c'
_symmetry_Int_Tables_number      14
_space_group_name_Hall           '-P 2ybc'
loop_
_symmetry_equiv_pos_site_id
_symmetry_equiv_pos_as_xyz
1 x,y,z
2 -x,1/2+y,1/2-z
3 -x,-y,-z
4 x,1/2-y,1/2+z
_cell_length_a                   9.1767(3)
_cell_length_b                   21.5063(8)
_cell_length_c                   11.9251(4)
_cell_angle_alpha                90
_cell_angle_beta                 99.5070(10)
_cell_angle_gamma                90
_cell_volume                     2321.18
_exptl_crystal_colour            colorless
_exptl_crystal_description       block
_cell_formula_units_Z            4
loop_
_atom_site_label
_atom_site_type_symbol
_atom_site_fract_x
_atom_site_fract_y
_atom_site_fract_z
O1 O -0.00780(13) 0.66371(5) 0.23302(9)
O2 O -0.09944(16) 0.50621(6) 0.17348(12)
O3 O -0.18640(13) 0.61816(6) -0.02273(10)
O4 O 0.53449(14) 0.76510(6) -0.16692(11)
N1 N 0.12115(14) 0.67483(6) 0.08640(11)
N2 N 0.6600(3) 0.43663(12) 0.4027(2)
C1 C -0.01704(19) 0.81314(8) 0.22356(15)
H1 H 0.0405 0.8092 0.2951
C2 C -0.1010(2) 0.86608(9) 0.19741(18)
H2 H -0.0994 0.8976 0.2511
C3 C -0.1863(2) 0.87217(9) 0.09282(18)
H3 H -0.2428 0.9078 0.0750
C4 C -0.1882(2) 0.82551(9) 0.01407(17)
H4 H -0.2471 0.8295 -0.0569
C5 C -0.10356(19) 0.77286(8) 0.03925(14)
H5 H -0.1045 0.7418 -0.0151
C6 C -0.01733(16) 0.76603(7) 0.14505(13)
C7 C 0.28327(17) 0.65830(7) -0.05154(13)
H6 H 0.2505 0.6174 -0.0598
C8 C 0.38422(18) 0.67957(8) -0.11652(14)
H7 H 0.4177 0.6531 -0.1685
C9 C 0.43580(17) 0.73984(8) -0.10496(13)
C10 C 0.38389(18) 0.77824(8) -0.02779(14)
H8 H 0.4181 0.8189 -0.0192
C11 C 0.28229(17) 0.75748(7) 0.03691(13)
H9 H 0.2487 0.7843 0.0883
C12 C 0.22950(15) 0.69671(7) 0.02602(12)
C13 C 0.2539(2) 0.51288(8) 0.13282(17)
H10 H 0.1926 0.4950 0.0714
C14 C 0.3661(2) 0.47820(8) 0.19295(19)
H11 H 0.3797 0.4372 0.1721
C15 C 0.45869(19) 0.50379(8) 0.28377(15)
C16 C 0.4392(2) 0.56508(9) 0.31123(16)
H12 H 0.5024 0.5833 0.3712
C17 C 0.3268(2) 0.59936(9) 0.25026(15)
H13 H 0.3155 0.6408 0.2691
C18 C 0.23054(17) 0.57338(7) 0.16159(13)
C19 C 0.07446(17) 0.70898(7) 0.17963(12)
H14 H 0.1622 0.7212 0.2336
C20 C 0.09853(16) 0.60865(7) 0.09860(13)
H15 H 0.0684 0.5901 0.0233
C21 C -0.03422(17) 0.61055(7) 0.16115(12)
C22 C -0.18137(18) 0.61976(7) 0.07821(14)
C23 C -0.3164(2) 0.63017(13) 0.1306(2)
H16 H -0.3737 0.5926 0.1260
H17 H -0.3746 0.6628 0.0907
H18 H -0.2878 0.6417 0.2089
C24 C -0.05036(19) 0.55080(8) 0.22830(15)
C25 C -0.0050(3) 0.54989(10) 0.35381(16)
H19 H -0.0219 0.5092 0.3823
H20 H -0.0618 0.5799 0.3877
H21 H 0.0981 0.5599 0.3726
C26 C 0.6143(2) 0.72268(10) -0.22535(18)
H22 H 0.6798 0.7453 -0.2653
H23 H 0.5462 0.6990 -0.2786
H24 H 0.6706 0.6951 -0.1716
C27 C 0.5725(2) 0.46666(10) 0.34994(19)
loop_
_geom_bond_atom_site_label_1
_geom_bond_atom_site_label_2
_geom_bond_site_symmetry_1
_geom_bond_site_symmetry_2
O1 C19 1_555 1_555
O2 C24 1_555 1_555
O3 C22 1_555 1_555
O4 C9 1_555 1_555
N1 C12 1_555 1_555
N2 C27 1_555 1_555
C1 H1 1_555 1_555
C2 C1 1_555 1_555
H2 C2 1_555 1_555
C3 C2 1_555 1_555
H3 C3 1_555 1_555
C4 C3 1_555 1_555
H4 C4 1_555 1_555
C5 C4 1_555 1_555
H5 C5 1_555 1_555
C6 C1 1_555 1_555
C7 H6 1_555 1_555
C8 C7 1_555 1_555
H7 C8 1_555 1_555
C9 C8 1_555 1_555
C10 C9 1_555 1_555
H8 C10 1_555 1_555
C11 C10 1_555 1_555
H9 C11 1_555 1_555
C12 C7 1_555 1_555
C13 H10 1_555 1_555
C14 C13 1_555 1_555
H11 C14 1_555 1_555
C15 C14 1_555 1_555
C16 C15 1_555 1_555
H12 C16 1_555 1_555
C17 C16 1_555 1_555
H13 C17 1_555 1_555
C18 C13 1_555 1_555
C19 N1 1_555 1_555
H14 C19 1_555 1_555
C20 N1 1_555 1_555
H15 C20 1_555 1_555
C21 O1 1_555 1_555
C22 C21 1_555 1_555
C23 C22 1_555 1_555
H16 C23 1_555 1_555
H17 C23 1_555 1_555
H18 C23 1_555 1_555
C24 C21 1_555 1_555
C25 C24 1_555 1_555
H19 C25 1_555 1_555
H20 C25 1_555 1_555
H21 C25 1_555 1_555
C26 O4 1_555 1_555
H22 C26 1_555 1_555
H23 C26 1_555 1_555
H24 C26 1_555 1_555
C27 C15 1_555 1_555
C5 C6 1_555 1_555
C6 C19 1_555 1_555
C11 C12 1_555 1_555
C17 C18 1_555 1_555
C18 C20 1_555 1_555
C20 C21 1_555 1_555

#END
