
#######################################################################
#
#                 Cambridge Crystallographic Data Centre
#                                CCDC 
#
#######################################################################
#
# If this CIF has been generated from an entry in the Cambridge 
# Structural Database, then it will include bibliographic, chemical, 
# crystal, experimental, refinement or atomic coordinate data resulting 
# from the CCDC's data processing and validation procedures.
#
#######################################################################

data_QIKLED
_chemical_formula_moiety         'C14 H8 F3 N3 O1,C2 H6 O1 S1'
_chemical_name_systematic        
'2-Methyl-4-oxo-7-(trifluoromethyl)-1,4-dihydropyrimido[1,2-a]indole-10-carbonitrile dimethyl sulfoxide solvate'
_symmetry_cell_setting           triclinic
_symmetry_space_group_name_H-M   'P -1'
_symmetry_Int_Tables_number      2
_space_group_name_Hall           '-P 1'
loop_
_symmetry_equiv_pos_site_id
_symmetry_equiv_pos_as_xyz
1 x,y,z
2 -x,-y,-z
_cell_length_a                   7.967(2)
_cell_length_b                   9.361(2)
_cell_length_c                   12.967(4)
_cell_angle_alpha                101.27(2)
_cell_angle_beta                 99.74(3)
_cell_angle_gamma                113.69(3)
_cell_volume                     834.811
_exptl_crystal_colour            colorless
_exptl_crystal_description       prism
_cell_formula_units_Z            2
loop_
_atom_site_label
_atom_site_type_symbol
_atom_site_fract_x
_atom_site_fract_y
_atom_site_fract_z
S1 S 0.26476(11) 0.32899(10) 0.41273(6)
O1 O 0.1282(3) 0.1762(2) 0.32513(16)
C1 C 0.1960(6) 0.3025(5) 0.5336(3)
H1 H 0.0642 0.2790 0.5220
H2 H 0.2729 0.4006 0.5928
H3 H 0.2136 0.2136 0.5512
C2 C 0.1867(5) 0.4760(4) 0.3941(3)
H4 H 0.1971 0.4947 0.3247
H5 H 0.2644 0.5760 0.4516
H6 H 0.0562 0.4372 0.3958
F4 F 0.3048(6) 0.9995(5) 0.5825(3)
F5 F 0.3850(7) 0.8227(5) 0.6251(4)
F6 F 0.6028(4) 1.0587(6) 0.6408(3)
O2 O 0.0706(3) 0.6455(2) 0.87581(15)
N1 N 0.1372(3) 0.9726(2) 1.15108(16)
H7 H 0.150(3) 1.048(3) 1.212(2)
N2 N 0.1936(2) 0.9082(2) 0.98036(15)
N3 N 0.4689(4) 1.4429(3) 1.2221(2)
C3 C 0.0287(3) 0.8103(3) 1.1375(2)
C4 C 0.0024(3) 0.6989(3) 1.0463(2)
H8 H -0.0728 0.5896 1.0390
C5 C 0.0834(3) 0.7387(3) 0.9597(2)
C6 C 0.2965(3) 0.9896(3) 0.91460(18)
C7 C 0.3094(3) 0.9291(3) 0.81259(19)
H9 H 0.2463 0.8181 0.7761
C8 C 0.4201(3) 1.0401(3) 0.76664(19)
C9 C 0.5148(3) 1.2057(3) 0.8209(2)
H10 H 0.5885 1.2773 0.7875
C10 C 0.5016(3) 1.2656(3) 0.9230(2)
H11 H 0.5660 1.3767 0.9594
C11 C 0.3889(3) 1.1553(3) 0.97084(18)
C12 C 0.3421(3) 1.1754(3) 1.07246(18)
C13 C 0.2221(3) 1.0223(3) 1.07455(18)
C14 C -0.0494(4) 0.7707(3) 1.2301(2)
H12 H -0.1221 0.6547 1.2132
H13 H -0.1303 0.8219 1.2418
H14 H 0.0536 0.8099 1.2950
C15 C 0.4311(4) 0.9822(4) 0.6552(2)
C16 C 0.4102(4) 1.3219(3) 1.1556(2)
F1? F 0.2759(7) 0.9095(8) 0.5752(4)
F2? F 0.4985(9) 0.8748(7) 0.6453(5)
F3? F 0.5448(7) 1.0965(8) 0.6192(4)
loop_
_geom_bond_atom_site_label_1
_geom_bond_atom_site_label_2
_geom_bond_site_symmetry_1
_geom_bond_site_symmetry_2
S1 O1 1_555 1_555
C1 S1 1_555 1_555
H1 C1 1_555 1_555
H2 C1 1_555 1_555
H3 C1 1_555 1_555
C2 S1 1_555 1_555
H4 C2 1_555 1_555
H5 C2 1_555 1_555
H6 C2 1_555 1_555
F4 C15 1_555 1_555
F5 C15 1_555 1_555
F6 C15 1_555 1_555
O2 C5 1_555 1_555
N1 H7 1_555 1_555
N2 C5 1_555 1_555
N3 C16 1_555 1_555
C3 N1 1_555 1_555
C4 C3 1_555 1_555
H8 C4 1_555 1_555
C5 C4 1_555 1_555
C6 N2 1_555 1_555
C7 C6 1_555 1_555
H9 C7 1_555 1_555
C8 C7 1_555 1_555
C9 C8 1_555 1_555
H10 C9 1_555 1_555
C10 C9 1_555 1_555
H11 C10 1_555 1_555
C11 C6 1_555 1_555
C12 C11 1_555 1_555
C13 N1 1_555 1_555
C14 C3 1_555 1_555
H12 C14 1_555 1_555
H13 C14 1_555 1_555
H14 C14 1_555 1_555
C15 C8 1_555 1_555
C16 C12 1_555 1_555
N2 C13 1_555 1_555
C10 C11 1_555 1_555
C12 C13 1_555 1_555

#END
