
#######################################################################
#
#                 Cambridge Crystallographic Data Centre
#                                CCDC 
#
#######################################################################
#
# If this CIF has been generated from an entry in the Cambridge 
# Structural Database, then it will include bibliographic, chemical, 
# crystal, experimental, refinement or atomic coordinate data resulting 
# from the CCDC's data processing and validation procedures.
#
#######################################################################

data_QIKNUW
_chemical_formula_moiety         'C17 H28 N1 O6 P1 S1'
_chemical_name_systematic        
'1-{[(4-methylphenyl)sulfonyl]amino}but-3-en-2-yl dipropan-2-yl phosphate'
_symmetry_cell_setting           triclinic
_symmetry_space_group_name_H-M   'P -1'
_symmetry_Int_Tables_number      2
_space_group_name_Hall           '-P 1'
loop_
_symmetry_equiv_pos_site_id
_symmetry_equiv_pos_as_xyz
1 x,y,z
2 -x,-y,-z
_cell_length_a                   10.3053(17)
_cell_length_b                   10.8278(19)
_cell_length_c                   11.6058(19)
_cell_angle_alpha                103.730(5)
_cell_angle_beta                 110.849(5)
_cell_angle_gamma                104.371(5)
_cell_volume                     1093.86
_exptl_crystal_colour            colorless
_exptl_crystal_description       rod
_cell_formula_units_Z            2
loop_
_atom_site_label
_atom_site_type_symbol
_atom_site_fract_x
_atom_site_fract_y
_atom_site_fract_z
C1 C 0.5523(9) -0.0176(7) -0.1770(7)
H1 H 0.505145 -0.093097 -0.154939
H2 H 0.639702 -0.028613 -0.187096
H3 H 0.480828 -0.018122 -0.259971
C2 C 0.6005(6) 0.1165(5) -0.0675(5)
C3 C 0.5134(6) 0.1961(6) -0.0777(5)
H4 H 0.422269 0.166502 -0.154929
C4 C 0.5574(5) 0.3178(5) 0.0231(5)
H5 H 0.496758 0.371527 0.014745
C5 C 0.6895(4) 0.3619(5) 0.1362(4)
C6 C 0.7790(5) 0.2853(5) 0.1481(5)
H6 H 0.870382 0.315295 0.225125
C7 C 0.7332(7) 0.1633(6) 0.0453(6)
H7 H 0.795024 0.110632 0.052786
S1 S 0.74127(12) 0.51337(12) 0.26789(11)
O1 O 0.9000(3) 0.5659(4) 0.3391(3)
O2 O 0.6675(4) 0.5967(4) 0.2139(4)
N1 N 0.6745(4) 0.4749(4) 0.3653(4)
H8 H 0.578(2) 0.445(5) 0.339(5)
C8 C 0.7364(5) 0.4031(5) 0.4507(5)
H9 H 0.843197 0.424057 0.471803
H10 H 0.682891 0.303186 0.404321
C9 C 0.7198(5) 0.4483(5) 0.5768(4)
H11 H 0.614709 0.442266 0.554258
C10 C 0.7577(6) 0.3640(6) 0.6580(6)
H12 H 0.851888 0.354385 0.681544
C11 C 0.6657(8) 0.3022(8) 0.6985(8)
H13 H 0.571069 0.310630 0.675920
H14 H 0.693757 0.248958 0.750450
O3 O 0.8201(3) 0.5899(3) 0.6498(3)
P1 P 0.78025(13) 0.70045(13) 0.72919(11)
O4 O 0.6224(4) 0.6617(4) 0.6945(4)
O5 O 0.8551(4) 0.8315(4) 0.7101(4)
C12 C 0.8242(8) 0.8344(6) 0.5763(6)
H15 H 0.750726 0.743578 0.508234
C13 C 0.9724(10) 0.8617(7) 0.5704(8)
H16 H 0.959262 0.862799 0.482797
H17 H 1.009750 0.789566 0.586533
H18 H 1.044129 0.950304 0.637890
C14 C 0.7606(11) 0.9417(9) 0.5612(9)
H19 H 0.666633 0.918151 0.568828
H20 H 0.741909 0.948089 0.474275
H21 H 0.831365 1.029758 0.630411
O6 O 0.8839(15) 0.7564(13) 0.8805(9)
C15 C 0.849(4) 0.707(3) 0.977(3)
H22 H 0.750410 0.630400 0.930354
C16 C 0.964(2) 0.662(3) 1.049(2)
H23 H 0.996338 0.613638 0.988587
H24 H 0.923129 0.600897 1.087946
H25 H 1.049207 0.741709 1.119379
C17 C 0.843(2) 0.8220(15) 1.0703(13)
H26 H 0.944166 0.890258 1.126613
H27 H 0.801314 0.788014 1.125358
H28 H 0.780090 0.864015 1.021155
O7? O 0.886(3) 0.704(3) 0.869(2)
C18? C 0.832(7) 0.724(6) 0.970(5)
H29? H 0.724344 0.713360 0.933080
C19? C 0.860(7) 0.615(4) 1.016(4)
H30? H 0.941968 0.596512 1.000383
H31? H 0.770122 0.532537 0.969023
H32? H 0.888392 0.643948 1.111380
C20? C 0.935(6) 0.866(4) 1.069(4)
H33? H 0.965823 0.864808 1.158594
H34? H 0.883248 0.930246 1.058540
H35? H 1.023890 0.895631 1.053776
loop_
_geom_bond_atom_site_label_1
_geom_bond_atom_site_label_2
_geom_bond_site_symmetry_1
_geom_bond_site_symmetry_2
C1 H1 1_555 1_555
H2 C1 1_555 1_555
H3 C1 1_555 1_555
C2 C1 1_555 1_555
C3 C2 1_555 1_555
H4 C3 1_555 1_555
C4 C3 1_555 1_555
H5 C4 1_555 1_555
C5 C4 1_555 1_555
C6 C5 1_555 1_555
H6 C6 1_555 1_555
C7 C2 1_555 1_555
H7 C7 1_555 1_555
S1 C5 1_555 1_555
O1 S1 1_555 1_555
O2 S1 1_555 1_555
N1 S1 1_555 1_555
H8 N1 1_555 1_555
C8 N1 1_555 1_555
H9 C8 1_555 1_555
H10 C8 1_555 1_555
C9 C8 1_555 1_555
H11 C9 1_555 1_555
C10 C9 1_555 1_555
H12 C10 1_555 1_555
C11 C10 1_555 1_555
H13 C11 1_555 1_555
H14 C11 1_555 1_555
O3 C9 1_555 1_555
P1 O3 1_555 1_555
O4 P1 1_555 1_555
O5 P1 1_555 1_555
C12 O5 1_555 1_555
H15 C12 1_555 1_555
C13 C12 1_555 1_555
H16 C13 1_555 1_555
H17 C13 1_555 1_555
H18 C13 1_555 1_555
C14 C12 1_555 1_555
H19 C14 1_555 1_555
H20 C14 1_555 1_555
H21 C14 1_555 1_555
O6 P1 1_555 1_555
C15 O6 1_555 1_555
H22 C15 1_555 1_555
C16 C15 1_555 1_555
H23 C16 1_555 1_555
H24 C16 1_555 1_555
H25 C16 1_555 1_555
C17 C15 1_555 1_555
H26 C17 1_555 1_555
H27 C17 1_555 1_555
H28 C17 1_555 1_555
C6 C7 1_555 1_555

#END
