
#######################################################################
#
#                 Cambridge Crystallographic Data Centre
#                                CCDC 
#
#######################################################################
#
# If this CIF has been generated from an entry in the Cambridge 
# Structural Database, then it will include bibliographic, chemical, 
# crystal, experimental, refinement or atomic coordinate data resulting 
# from the CCDC's data processing and validation procedures.
#
#######################################################################

data_QIKNUV
_chemical_formula_moiety         'C25 H18 N1 1+,I1 1-'
_chemical_name_systematic        
'6,7-Diphenylpyrido[2,1-a]isoquinolinium iodide'
_symmetry_cell_setting           orthorhombic
_symmetry_space_group_name_H-M   'P b c a'
_symmetry_Int_Tables_number      61
_space_group_name_Hall           '-P 2ac 2ab'
loop_
_symmetry_equiv_pos_site_id
_symmetry_equiv_pos_as_xyz
1 x,y,z
2 1/2+x,1/2-y,-z
3 -x,1/2+y,1/2-z
4 1/2-x,-y,1/2+z
5 -x,-y,-z
6 1/2-x,1/2+y,z
7 x,1/2-y,1/2+z
8 1/2+x,y,1/2-z
_cell_length_a                   9.3590(14)
_cell_length_b                   13.9256(18)
_cell_length_c                   29.005(4)
_cell_angle_alpha                90
_cell_angle_beta                 90
_cell_angle_gamma                90
_cell_volume                     3780.21
_exptl_crystal_colour            colorless
_exptl_crystal_description       Blade
_cell_formula_units_Z            8
loop_
_atom_site_label
_atom_site_type_symbol
_atom_site_fract_x
_atom_site_fract_y
_atom_site_fract_z
I1 I 0.05937(4) 0.87389(3) 0.347283(11)
N1 N 0.2778(4) 0.0926(3) 0.31338(14)
C1 C -0.1131(6) 0.3172(4) 0.29550(18)
H1 H -0.1735 0.3549 0.2764
C2 C -0.0069(5) 0.2625(4) 0.27580(18)
H2 H 0.0061 0.2631 0.2433
C3 C 0.0829(5) 0.2054(3) 0.30384(17)
C4 C 0.1874(5) 0.1423(3) 0.28389(16)
C5 C 0.2732(5) 0.1057(3) 0.36196(16)
C6 C 0.3936(5) 0.0647(4) 0.38924(15)
C7 C 0.3752(6) -0.0118(4) 0.41915(16)
H3 H 0.2842 -0.0414 0.4220
C8 C 0.4899(6) -0.0454(4) 0.44502(18)
H4 H 0.4765 -0.0974 0.4658
C9 C 0.6229(6) -0.0039(4) 0.44071(18)
H5 H 0.7007 -0.0274 0.4585
C10 C -0.1331(5) 0.3179(4) 0.3433(2)
H6 H -0.2071 0.3554 0.3567
C11 C -0.0441(6) 0.2637(3) 0.37068(17)
H7 H -0.0582 0.2638 0.4031
C12 C 0.0657(5) 0.2086(3) 0.35216(16)
C13 C 0.1670(5) 0.1582(3) 0.38076(16)
C14 C 0.1549(5) 0.1682(4) 0.43184(16)
C15 C 0.0533(6) 0.1133(3) 0.45584(15)
H8 H -0.0046 0.0684 0.4397
C16 C 0.0378(5) 0.1247(4) 0.50314(16)
H9 H -0.0308 0.0874 0.5193
C17 C 0.1213(6) 0.1900(4) 0.52685(18)
H10 H 0.1089 0.1988 0.5591
C18 C 0.2238(5) 0.2428(4) 0.50302(18)
H11 H 0.2827 0.2870 0.5192
C19 C 0.2408(5) 0.2316(4) 0.45593(18)
H12 H 0.3117 0.2676 0.4401
C20 C 0.1980(5) 0.1253(4) 0.23655(15)
H13 H 0.1383 0.1601 0.2160
C21 C 0.2917(6) 0.0600(4) 0.21905(18)
H14 H 0.2988 0.0506 0.1867
C22 C 0.3778(5) 0.0069(4) 0.24939(18)
H15 H 0.4414 -0.0405 0.2378
C23 C 0.3696(6) 0.0236(4) 0.29517(18)
H16 H 0.4281 -0.0126 0.3155
C24 C 0.6434(5) 0.0717(4) 0.41072(17)
H17 H 0.7355 0.0995 0.4074
C25 C 0.5287(5) 0.1073(3) 0.38530(17)
H18 H 0.5421 0.1605 0.3653
loop_
_geom_bond_atom_site_label_1
_geom_bond_atom_site_label_2
_geom_bond_site_symmetry_1
_geom_bond_site_symmetry_2
N1 C4 1_555 1_555
C1 H1 1_555 1_555
C2 C1 1_555 1_555
H2 C2 1_555 1_555
C3 C2 1_555 1_555
C4 C3 1_555 1_555
C5 N1 1_555 1_555
C6 C5 1_555 1_555
C7 C6 1_555 1_555
H3 C7 1_555 1_555
C8 C7 1_555 1_555
H4 C8 1_555 1_555
C9 C8 1_555 1_555
H5 C9 1_555 1_555
C10 C1 1_555 1_555
H6 C10 1_555 1_555
C11 C10 1_555 1_555
H7 C11 1_555 1_555
C12 C3 1_555 1_555
C13 C5 1_555 1_555
C14 C13 1_555 1_555
C15 C14 1_555 1_555
H8 C15 1_555 1_555
C16 C15 1_555 1_555
H9 C16 1_555 1_555
C17 C16 1_555 1_555
H10 C17 1_555 1_555
C18 C17 1_555 1_555
H11 C18 1_555 1_555
C19 C14 1_555 1_555
H12 C19 1_555 1_555
C20 C4 1_555 1_555
H13 C20 1_555 1_555
C21 C20 1_555 1_555
H14 C21 1_555 1_555
C22 C21 1_555 1_555
H15 C22 1_555 1_555
C23 N1 1_555 1_555
H16 C23 1_555 1_555
C24 C9 1_555 1_555
H17 C24 1_555 1_555
C25 C6 1_555 1_555
H18 C25 1_555 1_555
C11 C12 1_555 1_555
C12 C13 1_555 1_555
C18 C19 1_555 1_555
C22 C23 1_555 1_555
C24 C25 1_555 1_555

#END
