
#######################################################################
#
#                 Cambridge Crystallographic Data Centre
#                                CCDC 
#
#######################################################################
#
# If this CIF has been generated from an entry in the Cambridge 
# Structural Database, then it will include bibliographic, chemical, 
# crystal, experimental, refinement or atomic coordinate data resulting 
# from the CCDC's data processing and validation procedures.
#
#######################################################################

data_QIKPOS
_chemical_formula_moiety         'C23 H24 N1 O3 P1 S1'
_chemical_name_systematic        
N-[4-(diphenylphosphoryl)but-2-en-1-yl]-4-methylbenzene-1-sulfonamide
_symmetry_cell_setting           monoclinic
_symmetry_space_group_name_H-M   'P 21/n'
_symmetry_Int_Tables_number      14
_space_group_name_Hall           '-P 2yn'
loop_
_symmetry_equiv_pos_site_id
_symmetry_equiv_pos_as_xyz
1 x,y,z
2 1/2-x,1/2+y,1/2-z
3 -x,-y,-z
4 1/2+x,1/2-y,1/2+z
_cell_length_a                   14.4540(11)
_cell_length_b                   14.7931(11)
_cell_length_c                   32.417(3)
_cell_angle_alpha                90
_cell_angle_beta                 102.836(3)
_cell_angle_gamma                90
_cell_volume                     6758.17
_exptl_crystal_colour            colorless
_exptl_crystal_description       block
_cell_formula_units_Z            12
loop_
_atom_site_label
_atom_site_type_symbol
_atom_site_fract_x
_atom_site_fract_y
_atom_site_fract_z
C1 C 0.71676(14) 0.42772(13) 0.55715(7)
C2 C 0.69613(15) 0.40823(15) 0.51423(7)
H1 H 0.744752 0.409832 0.498761
C3 C 0.60407(16) 0.38643(15) 0.49418(7)
H2 H 0.589804 0.373027 0.464791
C4 C 0.53213(15) 0.38382(14) 0.51632(7)
C5 C 0.43154(16) 0.36205(17) 0.49436(8)
H3 H 0.401565 0.415906 0.479553
H4 H 0.396079 0.342821 0.515328
H5 H 0.431467 0.313262 0.473907
C6 C 0.55482(15) 0.40288(16) 0.55936(7)
H6 H 0.506372 0.400656 0.574917
C7 C 0.64622(15) 0.42497(15) 0.58005(7)
H7 H 0.660594 0.438082 0.609476
C8 C 0.82417(16) 0.61795(15) 0.53863(7)
H8 H 0.766398 0.596901 0.518429
H9 H 0.879873 0.598817 0.527721
C9 C 0.82253(16) 0.71897(16) 0.54111(8)
H10 H 0.810629 0.751621 0.515233
C10 C 0.83621(16) 0.76558(16) 0.57613(8)
H11 H 0.852051 0.733274 0.602076
C11 C 0.82864(16) 0.86732(15) 0.57836(8)
H12 H 0.824117 0.893577 0.549892
H13 H 0.886198 0.891945 0.597490
C12 C 0.62174(16) 0.88290(14) 0.55588(7)
C13 C 0.6231(2) 0.90155(17) 0.51373(8)
H14 H 0.679858 0.921699 0.506493
C14 C 0.5414(3) 0.8905(2) 0.48273(10)
H15 H 0.541981 0.902898 0.454028
C15 C 0.4592(2) 0.8615(2) 0.49325(13)
H16 H 0.403408 0.853954 0.471670
C16 C 0.45678(19) 0.8431(2) 0.53507(13)
H17 H 0.399593 0.823391 0.542055
C17 C 0.53866(17) 0.85379(17) 0.56654(9)
H18 H 0.537861 0.841266 0.595199
C18 C 0.73528(14) 1.01824(14) 0.60822(7)
C19 C 0.75625(16) 1.07851(15) 0.57855(7)
H19 H 0.764595 1.056734 0.552044
C20 C 0.76499(17) 1.17039(16) 0.58758(8)
H20 H 0.779682 1.211243 0.567345
C21 C 0.75233(17) 1.20225(16) 0.62598(8)
H21 H 0.758625 1.265032 0.632134
C22 C 0.73045(18) 1.14307(17) 0.65562(8)
H22 H 0.720999 1.165359 0.681860
C23 C 0.72239(16) 1.05088(16) 0.64680(8)
H23 H 0.708053 1.010194 0.667180
N1 N 0.82869(13) 0.57515(12) 0.58016(6)
H24 H 0.830484 0.608197 0.602895
O1 O 0.71718(12) 0.84466(11) 0.63607(5)
O2 O 0.89771(10) 0.43468(11) 0.55905(5)
O3 O 0.84501(11) 0.44256(12) 0.62664(5)
P1 P 0.72420(4) 0.89830(4) 0.59783(2)
S1 S 0.83029(4) 0.46520(4) 0.58284(2)
C24 C 0.53919(16) 0.35927(14) 0.73438(6)
C25 C 0.59418(17) 0.32832(16) 0.77232(7)
H25 H 0.660595 0.320225 0.775492
C26 C 0.5515(2) 0.30928(17) 0.80558(7)
H26 H 0.589183 0.287528 0.831482
C27 C 0.4551(2) 0.32125(16) 0.80189(8)
C28 C 0.4097(3) 0.2984(2) 0.83829(9)
H27 H 0.419047 0.234050 0.845163
H28 H 0.341657 0.311624 0.830285
H29 H 0.439036 0.334679 0.863045
C29 C 0.40191(19) 0.35443(19) 0.76404(8)
H30 H 0.335928 0.364672 0.761281
C30 C 0.44261(17) 0.37302(18) 0.73014(7)
H31 H 0.404835 0.394936 0.704278
C31 C 0.67423(16) 0.53380(15) 0.72630(7)
H32 H 0.738405 0.506752 0.731270
H33 H 0.649669 0.526270 0.752270
C32 C 0.67865(15) 0.63202(15) 0.71582(7)
H34 H 0.708924 0.649031 0.693816
C33 C 0.64251(15) 0.69579(15) 0.73570(7)
H35 H 0.619264 0.678598 0.759765
C34 C 0.63519(14) 0.79375(14) 0.72327(7)
H36 H 0.666875 0.803859 0.699549
H37 H 0.667516 0.831359 0.747465
C35 C 0.36846(17) 0.78036(17) 0.74662(8)
H38 H 0.333427 0.768526 0.718703
C36 C 0.46192(15) 0.81091(14) 0.75320(7)
C37 C 0.3770(2) 0.78465(19) 0.82136(9)
H39 H 0.347965 0.775883 0.844625
C38 C 0.32647(19) 0.7672(2) 0.78077(10)
H40 H 0.262905 0.746127 0.776168
C39 C 0.4693(2) 0.81475(18) 0.82827(8)
H41 H 0.503709 0.826794 0.856277
C40 C 0.51228(18) 0.82752(16) 0.79444(7)
H42 H 0.576212 0.847658 0.799389
C41 C 0.51008(14) 0.94559(14) 0.69639(7)
C42 C 0.46078(15) 0.97576(15) 0.65688(7)
H43 H 0.430409 0.933570 0.636160
C43 C 0.45614(18) 1.06765(17) 0.64787(8)
H44 H 0.421926 1.088166 0.621033
C44 C 0.50078(18) 1.12927(16) 0.67755(9)
H45 H 0.497204 1.192008 0.671147
C45 C 0.55118(17) 1.09964(16) 0.71697(8)
H46 H 0.582475 1.142042 0.737374
C46 C 0.55548(16) 1.00828(15) 0.72628(7)
H47 H 0.589574 0.988087 0.753200
N2 N 0.61073(13) 0.48891(12) 0.69039(6)
H48 H 0.582622 0.520784 0.668209
O4 O 0.45873(11) 0.77432(10) 0.67029(5)
O5 O 0.68315(12) 0.33757(11) 0.70080(5)
O6 O 0.52448(12) 0.36052(11) 0.65333(5)
P2 P 0.51215(4) 0.82624(3) 0.70751(2)
S2 S 0.59249(4) 0.38179(3) 0.69151(2)
C47 C 0.13642(15) 1.00670(14) 0.58913(7)
C48 C 0.04066(16) 1.02794(15) 0.58194(8)
H49 H 0.002187 1.027010 0.554065
C49 C 0.00201(16) 1.05054(16) 0.61606(8)
H50 H -0.063312 1.066019 0.611167
C50 C 0.05618(17) 1.05117(15) 0.65719(8)
C51 C 0.0104(2) 1.07268(19) 0.69337(9)
H51 H -0.010042 1.016488 0.704652
H52 H -0.044746 1.111770 0.683358
H53 H 0.056193 1.103814 0.715679
C52 C 0.15174(17) 1.03032(18) 0.66334(8)
H54 H 0.190316 1.031460 0.691190
C53 C 0.19228(16) 1.00785(17) 0.62981(7)
H55 H 0.257842 0.993343 0.634669
C54 C 0.08232(15) 0.82509(14) 0.53099(7)
H56 H 0.044462 0.852191 0.504682
H57 H 0.048909 0.835936 0.554081
C55 C 0.09411(15) 0.72553(14) 0.52507(6)
H58 H 0.114429 0.705554 0.500668
C56 C 0.07764(14) 0.66467(14) 0.55206(6)
H59 H 0.052049 0.685259 0.574956
C57 C 0.09606(14) 0.56508(13) 0.54958(6)
H60 H 0.106614 0.550213 0.521208
H61 H 0.039841 0.530912 0.553620
C58 C 0.21343(15) 0.41179(13) 0.58346(6)
C59 C 0.13755(16) 0.35285(15) 0.57020(7)
H62 H 0.074472 0.375422 0.563130
C60 C 0.15450(18) 0.26100(15) 0.56735(8)
H63 H 0.102792 0.220705 0.558317
C61 C 0.24600(18) 0.22778(15) 0.57755(8)
H64 H 0.257122 0.164883 0.575228
C62 C 0.32128(17) 0.28582(16) 0.59113(8)
H65 H 0.384136 0.262726 0.598433
C63 C 0.30549(16) 0.37769(15) 0.59413(7)
H66 H 0.357507 0.417495 0.603483
C64 C 0.07861(16) 0.53944(16) 0.64677(7)
H67 H 0.027517 0.526480 0.623533
C65 C 0.17033(15) 0.54732(13) 0.64039(6)
C66 C 0.24420(17) 0.56624(18) 0.67475(7)
H68 H 0.307034 0.572706 0.670779
C67 C 0.2264(2) 0.5757(2) 0.71464(8)
H69 H 0.277365 0.587476 0.738108
C68 C 0.1351(2) 0.5680(2) 0.72071(8)
H70 H 0.123200 0.574980 0.748195
C69 C 0.06146(19) 0.55035(19) 0.68667(8)
H71 H -0.001487 0.545627 0.690696
N3 N 0.17781(13) 0.86607(12) 0.54164(6)
H72 H 0.228804 0.831898 0.545169
O7 O 0.28747(10) 0.58233(9) 0.58732(4)
O8 O 0.28705(11) 0.99378(11) 0.55887(5)
O9 O 0.13135(13) 1.01512(11) 0.50898(5)
P3 P 0.19904(4) 0.53161(3) 0.58964(2)
S3 S 0.18737(4) 0.97460(3) 0.54673(2)
loop_
_geom_bond_atom_site_label_1
_geom_bond_atom_site_label_2
_geom_bond_site_symmetry_1
_geom_bond_site_symmetry_2
C1 C2 1_555 1_555
C2 H1 1_555 1_555
C3 C2 1_555 1_555
H2 C3 1_555 1_555
C4 C3 1_555 1_555
C5 C4 1_555 1_555
H3 C5 1_555 1_555
H4 C5 1_555 1_555
H5 C5 1_555 1_555
C6 C4 1_555 1_555
H6 C6 1_555 1_555
C7 C1 1_555 1_555
H7 C7 1_555 1_555
C8 H8 1_555 1_555
H9 C8 1_555 1_555
C9 C8 1_555 1_555
H10 C9 1_555 1_555
C10 C9 1_555 1_555
H11 C10 1_555 1_555
C11 C10 1_555 1_555
H12 C11 1_555 1_555
H13 C11 1_555 1_555
C12 C13 1_555 1_555
C13 H14 1_555 1_555
C14 C13 1_555 1_555
H15 C14 1_555 1_555
C15 C14 1_555 1_555
H16 C15 1_555 1_555
C16 C15 1_555 1_555
H17 C16 1_555 1_555
C17 C12 1_555 1_555
H18 C17 1_555 1_555
C18 C19 1_555 1_555
C19 H19 1_555 1_555
C20 C19 1_555 1_555
H20 C20 1_555 1_555
C21 C20 1_555 1_555
H21 C21 1_555 1_555
C22 C21 1_555 1_555
H22 C22 1_555 1_555
C23 C18 1_555 1_555
H23 C23 1_555 1_555
N1 C8 1_555 1_555
H24 N1 1_555 1_555
O1 P1 1_555 1_555
O2 S1 1_555 1_555
O3 S1 1_555 1_555
P1 C11 1_555 1_555
S1 C1 1_555 1_555
C24 C25 1_555 1_555
C25 H25 1_555 1_555
C26 C25 1_555 1_555
H26 C26 1_555 1_555
C27 C26 1_555 1_555
C28 C27 1_555 1_555
H27 C28 1_555 1_555
H28 C28 1_555 1_555
H29 C28 1_555 1_555
C29 C27 1_555 1_555
H30 C29 1_555 1_555
C30 C24 1_555 1_555
H31 C30 1_555 1_555
C31 H32 1_555 1_555
H33 C31 1_555 1_555
C32 C31 1_555 1_555
H34 C32 1_555 1_555
C33 C32 1_555 1_555
H35 C33 1_555 1_555
C34 C33 1_555 1_555
H36 C34 1_555 1_555
H37 C34 1_555 1_555
C35 H38 1_555 1_555
C36 C35 1_555 1_555
C37 H39 1_555 1_555
C38 C35 1_555 1_555
H40 C38 1_555 1_555
C39 C37 1_555 1_555
H41 C39 1_555 1_555
C40 C36 1_555 1_555
H42 C40 1_555 1_555
C41 C42 1_555 1_555
C42 H43 1_555 1_555
C43 C42 1_555 1_555
H44 C43 1_555 1_555
C44 C43 1_555 1_555
H45 C44 1_555 1_555
C45 C44 1_555 1_555
H46 C45 1_555 1_555
C46 C41 1_555 1_555
H47 C46 1_555 1_555
N2 C31 1_555 1_555
H48 N2 1_555 1_555
O4 P2 1_555 1_555
O5 S2 1_555 1_555
O6 S2 1_555 1_555
P2 C34 1_555 1_555
S2 C24 1_555 1_555
C47 C48 1_555 1_555
C48 H49 1_555 1_555
C49 C48 1_555 1_555
H50 C49 1_555 1_555
C50 C49 1_555 1_555
C51 C50 1_555 1_555
H51 C51 1_555 1_555
H52 C51 1_555 1_555
H53 C51 1_555 1_555
C52 C50 1_555 1_555
H54 C52 1_555 1_555
C53 C47 1_555 1_555
H55 C53 1_555 1_555
C54 H56 1_555 1_555
H57 C54 1_555 1_555
C55 C54 1_555 1_555
H58 C55 1_555 1_555
C56 C55 1_555 1_555
H59 C56 1_555 1_555
C57 C56 1_555 1_555
H60 C57 1_555 1_555
H61 C57 1_555 1_555
C58 C59 1_555 1_555
C59 H62 1_555 1_555
C60 C59 1_555 1_555
H63 C60 1_555 1_555
C61 C60 1_555 1_555
H64 C61 1_555 1_555
C62 C61 1_555 1_555
H65 C62 1_555 1_555
C63 C58 1_555 1_555
H66 C63 1_555 1_555
C64 H67 1_555 1_555
C65 C64 1_555 1_555
C66 C65 1_555 1_555
H68 C66 1_555 1_555
C67 C66 1_555 1_555
H69 C67 1_555 1_555
C68 C67 1_555 1_555
H70 C68 1_555 1_555
C69 C64 1_555 1_555
H71 C69 1_555 1_555
N3 C54 1_555 1_555
H72 N3 1_555 1_555
O7 P3 1_555 1_555
O8 S3 1_555 1_555
O9 S3 1_555 1_555
P3 C57 1_555 1_555
S3 C47 1_555 1_555
C6 C7 1_555 1_555
C12 P1 1_555 1_555
C16 C17 1_555 1_555
C18 P1 1_555 1_555
C22 C23 1_555 1_555
N1 S1 1_555 1_555
C29 C30 1_555 1_555
C36 P2 1_555 1_555
C37 C38 1_555 1_555
C39 C40 1_555 1_555
C41 P2 1_555 1_555
C45 C46 1_555 1_555
N2 S2 1_555 1_555
C52 C53 1_555 1_555
C58 P3 1_555 1_555
C62 C63 1_555 1_555
C65 P3 1_555 1_555
C68 C69 1_555 1_555
N3 S3 1_555 1_555

#END
