
#######################################################################
#
#                 Cambridge Crystallographic Data Centre
#                                CCDC 
#
#######################################################################
#
# If this CIF has been generated from an entry in the Cambridge 
# Structural Database, then it will include bibliographic, chemical, 
# crystal, experimental, refinement or atomic coordinate data resulting 
# from the CCDC's data processing and validation procedures.
#
#######################################################################

data_QIKPAE
_chemical_formula_moiety         'C25 H34 N1 O5 P1 S1'
_chemical_name_systematic        
't-butyl 2-[(t-butylsulfonyl)amino]-5-(diphenylphosphoryl)pent-3-enoate'
_symmetry_cell_setting           orthorhombic
_symmetry_space_group_name_H-M   'P 21 21 21'
_symmetry_Int_Tables_number      19
_space_group_name_Hall           'P 2ac 2ab'
loop_
_symmetry_equiv_pos_site_id
_symmetry_equiv_pos_as_xyz
1 x,y,z
2 1/2-x,-y,1/2+z
3 -x,1/2+y,1/2-z
4 1/2+x,1/2-y,-z
_cell_length_a                   5.8707(2)
_cell_length_b                   17.4003(8)
_cell_length_c                   24.7047(12)
_cell_angle_alpha                90
_cell_angle_beta                 90
_cell_angle_gamma                90
_cell_volume                     2523.63
_exptl_crystal_colour            colorless
_exptl_crystal_description       block
_cell_formula_units_Z            4
loop_
_atom_site_label
_atom_site_type_symbol
_atom_site_fract_x
_atom_site_fract_y
_atom_site_fract_z
C1 C 0.4387(3) 0.53505(9) 0.45530(6)
C2 C 0.2480(3) 0.49125(10) 0.46846(8)
H1 H 0.116839 0.492759 0.445972
C3 C 0.2496(4) 0.44515(11) 0.51469(9)
H2 H 0.118570 0.415793 0.523717
C4 C 0.4398(4) 0.44184(11) 0.54738(8)
H3 H 0.439569 0.410401 0.578819
C5 C 0.6310(4) 0.48446(12) 0.53426(8)
H4 H 0.762427 0.482110 0.556633
C6 C 0.6310(3) 0.53084(11) 0.48822(7)
H5 H 0.762992 0.559757 0.479253
C7 C 0.5021(3) 0.69177(9) 0.41402(6)
C8 C 0.3417(3) 0.75005(10) 0.40698(7)
H6 H 0.196035 0.738504 0.392338
C9 C 0.3957(3) 0.82527(10) 0.42150(8)
H7 H 0.287152 0.865118 0.416406
C10 C 0.6073(3) 0.84209(10) 0.44334(7)
H8 H 0.641953 0.893193 0.454079
C11 C 0.7689(3) 0.78452(10) 0.44960(7)
H9 H 0.913986 0.796330 0.464445
C12 C 0.7185(3) 0.70971(10) 0.43417(7)
H10 H 0.830980 0.670694 0.437276
C13 C 0.6298(3) 0.56219(9) 0.34843(6)
H11 H 0.782343 0.564929 0.365402
H12 H 0.599323 0.507985 0.338645
C14 C 0.6249(3) 0.61133(9) 0.29845(6)
H13 H 0.488394 0.613146 0.277836
C15 C 0.8022(3) 0.65237(9) 0.28166(6)
H14 H 0.938572 0.649770 0.302288
C16 C 0.8013(3) 0.70299(9) 0.23181(6)
H15 H 0.897722 0.677452 0.203710
C17 C 0.9176(3) 0.77891(9) 0.24734(6)
C18 C 0.8418(3) 0.91202(10) 0.27546(7)
C19 C 0.9904(3) 0.90739(12) 0.32562(7)
H16 H 0.912056 0.877338 0.353540
H17 H 1.019918 0.959331 0.339253
H18 H 1.135084 0.882502 0.316471
C20 C 0.6166(3) 0.95111(11) 0.28844(9)
H19 H 0.519607 0.951077 0.256166
H20 H 0.645208 1.004197 0.299819
H21 H 0.540009 0.923245 0.317716
C21 C 0.9612(4) 0.94997(11) 0.22799(8)
H22 H 1.098953 0.920882 0.218911
H23 H 1.003012 1.002714 0.237738
H24 H 0.858806 0.950830 0.196671
C22 C 0.5585(3) 0.77236(9) 0.10539(6)
C23 C 0.4749(3) 0.75152(12) 0.04887(7)
H25 H 0.313802 0.736948 0.050563
H26 H 0.564288 0.708311 0.034870
H27 H 0.492793 0.795910 0.024825
C24 C 0.8140(3) 0.78886(11) 0.10510(8)
H28 H 0.846483 0.830505 0.079539
H29 H 0.896710 0.742503 0.094099
H30 H 0.862667 0.804155 0.141483
C25 C 0.4258(3) 0.84088(10) 0.12831(8)
H31 H 0.445343 0.885400 0.104459
H32 H 0.483415 0.853320 0.164491
H33 H 0.263775 0.827727 0.130623
N1 N 0.5740(2) 0.71257(8) 0.20925(5)
H34 H 0.467576 0.732232 0.230171
O1 O 0.1801(2) 0.59341(8) 0.37368(5)
O2 O 0.6557(2) 0.62887(7) 0.13057(5)
O3 O 0.2634(2) 0.67605(7) 0.14825(5)
O4 O 1.1230(2) 0.78435(8) 0.25017(5)
O5 O 0.7672(2) 0.83370(7) 0.25865(5)
P1 P 0.41619(7) 0.59555(2) 0.39572(2)
S1 S 0.50549(7) 0.68925(2) 0.14811(2)
loop_
_geom_bond_atom_site_label_1
_geom_bond_atom_site_label_2
_geom_bond_site_symmetry_1
_geom_bond_site_symmetry_2
C1 C2 1_555 1_555
C2 H1 1_555 1_555
C3 C2 1_555 1_555
H2 C3 1_555 1_555
C4 C3 1_555 1_555
H3 C4 1_555 1_555
C5 C4 1_555 1_555
H4 C5 1_555 1_555
C6 C1 1_555 1_555
H5 C6 1_555 1_555
C7 C8 1_555 1_555
C8 H6 1_555 1_555
C9 C8 1_555 1_555
H7 C9 1_555 1_555
C10 C9 1_555 1_555
H8 C10 1_555 1_555
C11 C10 1_555 1_555
H9 C11 1_555 1_555
C12 C7 1_555 1_555
H10 C12 1_555 1_555
C13 H11 1_555 1_555
H12 C13 1_555 1_555
C14 C13 1_555 1_555
H13 C14 1_555 1_555
C15 C14 1_555 1_555
H14 C15 1_555 1_555
C16 C15 1_555 1_555
H15 C16 1_555 1_555
C17 C16 1_555 1_555
C18 C19 1_555 1_555
C19 H16 1_555 1_555
H17 C19 1_555 1_555
H18 C19 1_555 1_555
C20 C18 1_555 1_555
H19 C20 1_555 1_555
H20 C20 1_555 1_555
H21 C20 1_555 1_555
C21 C18 1_555 1_555
H22 C21 1_555 1_555
H23 C21 1_555 1_555
H24 C21 1_555 1_555
C22 C23 1_555 1_555
C23 H25 1_555 1_555
H26 C23 1_555 1_555
H27 C23 1_555 1_555
C24 C22 1_555 1_555
H28 C24 1_555 1_555
H29 C24 1_555 1_555
H30 C24 1_555 1_555
C25 C22 1_555 1_555
H31 C25 1_555 1_555
H32 C25 1_555 1_555
H33 C25 1_555 1_555
N1 C16 1_555 1_555
H34 N1 1_555 1_555
O1 P1 1_555 1_555
O2 S1 1_555 1_555
O3 S1 1_555 1_555
O4 C17 1_555 1_555
O5 C17 1_555 1_555
P1 C1 1_555 1_555
S1 C22 1_555 1_555
C5 C6 1_555 1_555
C7 P1 1_555 1_555
C11 C12 1_555 1_555
C13 P1 1_555 1_555
C18 O5 1_555 1_555
N1 S1 1_555 1_555

#END
