
#######################################################################
#
#                 Cambridge Crystallographic Data Centre
#                                CCDC 
#
#######################################################################
#
# If this CIF has been generated from an entry in the Cambridge 
# Structural Database, then it will include bibliographic, chemical, 
# crystal, experimental, refinement or atomic coordinate data resulting 
# from the CCDC's data processing and validation procedures.
#
#######################################################################

data_QIKPIM
_chemical_formula_moiety         'C25 H34 N1 O5 P1 S1'
_chemical_name_systematic        
't-butyl 2-[(t-butylsulfonyl)amino]-5-(diphenylphosphoryl)pent-3-enoate'
_symmetry_cell_setting           orthorhombic
_symmetry_space_group_name_H-M   'P 21 21 21'
_symmetry_Int_Tables_number      19
_space_group_name_Hall           'P 2ac 2ab'
loop_
_symmetry_equiv_pos_site_id
_symmetry_equiv_pos_as_xyz
1 x,y,z
2 1/2-x,-y,1/2+z
3 -x,1/2+y,1/2-z
4 1/2+x,1/2-y,-z
_cell_length_a                   5.9129(4)
_cell_length_b                   17.4156(13)
_cell_length_c                   24.861(2)
_cell_angle_alpha                90
_cell_angle_beta                 90
_cell_angle_gamma                90
_cell_volume                     2560.1
_exptl_crystal_colour            colorless
_exptl_crystal_description       needle
_cell_formula_units_Z            4
loop_
_atom_site_label
_atom_site_type_symbol
_atom_site_fract_x
_atom_site_fract_y
_atom_site_fract_z
C1 C 0.1977(5) 0.70266(18) 0.23247(13)
H1 H 0.101010 0.676846 0.204863
C2 C 0.1991(5) 0.65231(17) 0.28184(13)
H2 H 0.063650 0.649776 0.302327
C3 C 0.3716(6) 0.61179(18) 0.29880(12)
H3 H 0.506993 0.613397 0.278256
C4 C 0.3693(5) 0.56312(18) 0.34842(12)
H4 H 0.398530 0.508920 0.338610
H5 H 0.218509 0.565960 0.365598
P1 P 0.58236(14) 0.59556(5) 0.39515(3)
O1 O 0.8147(4) 0.59291(14) 0.37306(10)
C5 C 0.5599(5) 0.53509(17) 0.45455(12)
C6 C 0.7481(7) 0.4926(2) 0.46793(16)
H6 H 0.878961 0.494918 0.445824
C7 C 0.7479(8) 0.4466(2) 0.51347(18)
H7 H 0.878415 0.417390 0.522367
C8 C 0.5597(8) 0.4431(2) 0.54569(16)
H8 H 0.560092 0.411919 0.577040
C9 C 0.3733(8) 0.4844(2) 0.53256(16)
H9 H 0.242978 0.481921 0.554858
C10 C 0.3708(7) 0.5302(2) 0.48695(15)
H10 H 0.238398 0.558325 0.477946
C11 C 0.4994(6) 0.69159(17) 0.41378(12)
C12 C 0.2859(6) 0.7099(2) 0.43387(14)
H11 H 0.173396 0.671230 0.436924
C13 C 0.2381(6) 0.7843(2) 0.44932(15)
H12 H 0.094486 0.796287 0.464245
C14 C 0.3970(8) 0.8408(2) 0.44319(14)
H13 H 0.363343 0.891868 0.453945
C15 C 0.6040(7) 0.8240(2) 0.42166(15)
H14 H 0.712070 0.863689 0.416694
C16 C 0.6570(6) 0.7494(2) 0.40704(14)
H15 H 0.801557 0.738009 0.392396
C17 C 0.0817(6) 0.77829(19) 0.24769(12)
O2 O 0.2310(4) 0.83315(12) 0.25849(9)
O3 O -0.1204(4) 0.78376(14) 0.25055(10)
C18 C 0.1584(6) 0.91128(19) 0.27555(15)
C19 C 0.0140(7) 0.9064(2) 0.32572(16)
H16 H -0.131376 0.882555 0.316861
H17 H -0.012035 0.958199 0.339884
H18 H 0.091928 0.875414 0.352887
C20 C 0.3817(7) 0.9496(2) 0.28779(19)
H19 H 0.460701 0.920677 0.315893
H20 H 0.354484 1.002189 0.300243
H21 H 0.474674 0.950814 0.255174
C21 C 0.0378(8) 0.9491(2) 0.22921(17)
H22 H 0.136391 0.949113 0.197517
H23 H -0.000175 1.002129 0.238861
H24 H -0.101140 0.920725 0.221110
N1 N 0.4218(5) 0.71190(16) 0.20938(10)
H25 H 0.518(5) 0.7335(18) 0.2277(13)
S1 S 0.49006(14) 0.68811(4) 0.14890(3)
O4 O 0.3409(4) 0.62829(13) 0.13208(10)
O5 O 0.7288(4) 0.67458(14) 0.14906(9)
C22 C 0.4388(5) 0.77092(18) 0.10628(13)
C23 C 0.5713(6) 0.8388(2) 0.12855(15)
H26 H 0.552040 0.883195 0.104777
H27 H 0.732027 0.825366 0.130663
H28 H 0.515203 0.851504 0.164560
C24 C 0.1865(5) 0.7875(2) 0.10588(16)
H29 H 0.137153 0.801401 0.142233
H30 H 0.104422 0.741714 0.093913
H31 H 0.155252 0.830139 0.081243
C25 C 0.5210(6) 0.7493(2) 0.05003(14)
H32 H 0.508126 0.793849 0.026184
H33 H 0.428229 0.707169 0.035959
H34 H 0.679338 0.732852 0.051868
loop_
_geom_bond_atom_site_label_1
_geom_bond_atom_site_label_2
_geom_bond_site_symmetry_1
_geom_bond_site_symmetry_2
C1 H1 1_555 1_555
C2 C1 1_555 1_555
H2 C2 1_555 1_555
C3 C2 1_555 1_555
H3 C3 1_555 1_555
C4 C3 1_555 1_555
H4 C4 1_555 1_555
H5 C4 1_555 1_555
P1 C4 1_555 1_555
O1 P1 1_555 1_555
C5 P1 1_555 1_555
C6 C5 1_555 1_555
H6 C6 1_555 1_555
C7 C6 1_555 1_555
H7 C7 1_555 1_555
C8 C7 1_555 1_555
H8 C8 1_555 1_555
C9 C8 1_555 1_555
H9 C9 1_555 1_555
C10 C5 1_555 1_555
H10 C10 1_555 1_555
C11 P1 1_555 1_555
C12 C11 1_555 1_555
H11 C12 1_555 1_555
C13 C12 1_555 1_555
H12 C13 1_555 1_555
C14 C13 1_555 1_555
H13 C14 1_555 1_555
C15 C14 1_555 1_555
H14 C15 1_555 1_555
C16 C11 1_555 1_555
H15 C16 1_555 1_555
C17 C1 1_555 1_555
O2 C17 1_555 1_555
O3 C17 1_555 1_555
C18 O2 1_555 1_555
C19 C18 1_555 1_555
H16 C19 1_555 1_555
H17 C19 1_555 1_555
H18 C19 1_555 1_555
C20 C18 1_555 1_555
H19 C20 1_555 1_555
H20 C20 1_555 1_555
H21 C20 1_555 1_555
C21 C18 1_555 1_555
H22 C21 1_555 1_555
H23 C21 1_555 1_555
H24 C21 1_555 1_555
N1 C1 1_555 1_555
H25 N1 1_555 1_555
S1 N1 1_555 1_555
O4 S1 1_555 1_555
O5 S1 1_555 1_555
C22 S1 1_555 1_555
C23 C22 1_555 1_555
H26 C23 1_555 1_555
H27 C23 1_555 1_555
H28 C23 1_555 1_555
C24 C22 1_555 1_555
H29 C24 1_555 1_555
H30 C24 1_555 1_555
H31 C24 1_555 1_555
C25 C22 1_555 1_555
H32 C25 1_555 1_555
H33 C25 1_555 1_555
H34 C25 1_555 1_555
C9 C10 1_555 1_555
C15 C16 1_555 1_555

#END
