
#######################################################################
#
#                 Cambridge Crystallographic Data Centre
#                                CCDC 
#
#######################################################################
#
# If this CIF has been generated from an entry in the Cambridge 
# Structural Database, then it will include bibliographic, chemical, 
# crystal, experimental, refinement or atomic coordinate data resulting 
# from the CCDC's data processing and validation procedures.
#
#######################################################################

data_QIKXEP
_chemical_formula_moiety         'C17 H11 N1 O4'
_chemical_name_systematic        
3-Benzoyl-3a-hydroxy[1,2]oxazolo[3,2-a]isoindol-8(3aH)-one
_symmetry_cell_setting           monoclinic
_symmetry_space_group_name_H-M   'P 21/c'
_symmetry_Int_Tables_number      14
_space_group_name_Hall           '-P 2ybc'
loop_
_symmetry_equiv_pos_site_id
_symmetry_equiv_pos_as_xyz
1 x,y,z
2 -x,1/2+y,1/2-z
3 -x,-y,-z
4 x,1/2-y,1/2+z
_cell_length_a                   9.6810(19)
_cell_length_b                   18.950(4)
_cell_length_c                   7.6540(15)
_cell_angle_alpha                90
_cell_angle_beta                 105.03(3)
_cell_angle_gamma                90
_cell_volume                     1356.13
_cell_formula_units_Z            4
loop_
_atom_site_label
_atom_site_type_symbol
_atom_site_fract_x
_atom_site_fract_y
_atom_site_fract_z
N1 N 0.2497(3) 0.05152(11) 0.7780(3)
O1 O 0.2345(2) 0.26529(11) 0.9490(3)
C1 C 0.4666(4) 0.34692(15) 0.8879(4)
H1 H 0.3776 0.3666 0.8348
O2 O 0.3861(2) 0.06174(10) 0.7343(3)
C2 C 0.5898(5) 0.38744(18) 0.9091(5)
H2 H 0.5840 0.4337 0.8673
O3 O 0.3401(3) -0.04527(12) 0.9601(3)
C3 C 0.7203(4) 0.3581(2) 0.9929(6)
H3 H 0.8029 0.3851 1.0086
O4 O 0.0912(2) 0.14858(10) 0.6707(3)
H4 H 0.1288 0.1727 0.6069
C4 C 0.7302(4) 0.2899(2) 1.0535(5)
H5 H 0.8192 0.2711 1.1107
C5 C 0.6096(3) 0.24870(17) 1.0303(4)
H6 H 0.6169 0.2022 1.0708
C6 C 0.4763(3) 0.27735(14) 0.9457(3)
C7 C 0.3410(3) 0.23672(14) 0.9209(3)
C8 C 0.3329(3) 0.16413(13) 0.8566(3)
C9 C 0.4288(3) 0.12699(14) 0.7966(4)
H7 H 0.5186 0.1448 0.7978
C10 C 0.1966(3) 0.12192(14) 0.8168(3)
C11 C 0.2682(3) 0.00746(16) 0.9341(4)
C12 C 0.1813(3) 0.03964(16) 1.0448(4)
C13 C 0.1344(3) 0.10539(15) 0.9751(4)
C14 C 0.1475(4) 0.01335(18) 1.1985(4)
H8 H 0.1808 -0.0305 1.2460
C15 C 0.0633(4) 0.0544(2) 1.2775(5)
H9 H 0.0403 0.0386 1.3815
C16 C 0.0126(4) 0.1189(2) 1.2041(5)
H10 H -0.0459 0.1452 1.2584
C17 C 0.0465(3) 0.14547(17) 1.0512(4)
H11 H 0.0111 0.1888 1.0020
loop_
_geom_bond_atom_site_label_1
_geom_bond_atom_site_label_2
_geom_bond_site_symmetry_1
_geom_bond_site_symmetry_2
N1 O2 1_555 1_555
O1 C7 1_555 1_555
C1 H1 1_555 1_555
O2 C9 1_555 1_555
C2 C1 1_555 1_555
H2 C2 1_555 1_555
O3 C11 1_555 1_555
C3 C2 1_555 1_555
H3 C3 1_555 1_555
O4 H4 1_555 1_555
C4 C3 1_555 1_555
H5 C4 1_555 1_555
C5 C4 1_555 1_555
H6 C5 1_555 1_555
C6 C1 1_555 1_555
C7 C6 1_555 1_555
C8 C7 1_555 1_555
C9 C8 1_555 1_555
H7 C9 1_555 1_555
C10 N1 1_555 1_555
C11 N1 1_555 1_555
C12 C11 1_555 1_555
C13 C10 1_555 1_555
C14 C12 1_555 1_555
H8 C14 1_555 1_555
C15 C14 1_555 1_555
H9 C15 1_555 1_555
C16 C15 1_555 1_555
H10 C16 1_555 1_555
C17 C13 1_555 1_555
H11 C17 1_555 1_555
O4 C10 1_555 1_555
C5 C6 1_555 1_555
C8 C10 1_555 1_555
C12 C13 1_555 1_555
C16 C17 1_555 1_555

#END
