
#######################################################################
#
#                 Cambridge Crystallographic Data Centre
#                                CCDC 
#
#######################################################################
#
# If this CIF has been generated from an entry in the Cambridge 
# Structural Database, then it will include bibliographic, chemical, 
# crystal, experimental, refinement or atomic coordinate data resulting 
# from the CCDC's data processing and validation procedures.
#
#######################################################################

data_QILCOF
_chemical_formula_moiety         'C22 H24 N2 O6'
_chemical_name_systematic        
'Dimethyl N-(2-hydroxybenzylidene)-3-((2-hydroxybenzylidene)amino)-2,3-dimethylaspartate'
_symmetry_cell_setting           monoclinic
_symmetry_space_group_name_H-M   'P 21'
_symmetry_Int_Tables_number      4
_space_group_name_Hall           'P 2yb'
loop_
_symmetry_equiv_pos_site_id
_symmetry_equiv_pos_as_xyz
1 x,y,z
2 -x,1/2+y,-z
_cell_length_a                   6.9679(3)
_cell_length_b                   19.0540(9)
_cell_length_c                   7.6683(4)
_cell_angle_alpha                90
_cell_angle_beta                 93.428(2)
_cell_angle_gamma                90
_cell_volume                     1016.27
_exptl_crystal_colour            yellow
_exptl_crystal_description       needle
_cell_formula_units_Z            2
loop_
_atom_site_label
_atom_site_type_symbol
_atom_site_fract_x
_atom_site_fract_y
_atom_site_fract_z
O1 O 0.44557(19) 0.32207(6) 0.52025(17)
O2 O 0.67708(17) 0.66301(7) 1.06590(17)
O3 O 0.3030(3) 0.55543(8) 0.7322(3)
O4 O 0.49704(16) 0.63887(6) 0.64998(15)
O5 O 0.5173(3) 0.47828(8) 1.0189(3)
O6 O 0.58607(15) 0.38573(6) 0.86093(13)
N1 N 0.5003(2) 0.45816(7) 0.53735(16)
N2 N 0.78159(19) 0.55679(7) 0.88089(16)
C1 C 0.5994(3) 0.52035(8) 0.6119(2)
C2 C 0.7246(2) 0.49445(8) 0.7780(2)
C3 C 0.3520(2) 0.46553(8) 0.4325(2)
H1 H 0.3110 0.5115 0.4003
C4 C 0.2443(2) 0.40577(8) 0.36109(19)
C5 C 0.2954(2) 0.33666(9) 0.40579(19)
C6 C 0.1909(3) 0.28037(9) 0.3314(2)
H2 H 0.2265 0.2335 0.3607
C7 C 0.0364(2) 0.29316(11) 0.2158(2)
H3 H -0.0322 0.2548 0.1631
C8 C -0.0206(3) 0.36106(11) 0.1750(2)
H4 H -0.1303 0.3693 0.0981
C9 C 0.0831(3) 0.41673(10) 0.2467(2)
H5 H 0.0443 0.4633 0.2180
C10 C 0.7250(3) 0.55314(10) 0.4761(2)
H6 H 0.6428 0.5754 0.3838
H7 H 0.8029 0.5165 0.4251
H8 H 0.8098 0.5885 0.5327
C11 C 0.9532(2) 0.56396(8) 0.9476(2)
H9 H 1.0489 0.5308 0.9206
C12 C 1.0041(2) 0.62235(8) 1.06484(19)
C13 C 0.8639(2) 0.66899(9) 1.1209(2)
C14 C 0.9173(3) 0.72312(9) 1.2369(2)
H10 H 0.8228 0.7543 1.2765
C15 C 1.1075(3) 0.73106(9) 1.2937(2)
H11 H 1.1431 0.7686 1.3706
C16 C 1.2483(2) 0.68543(10) 1.2409(2)
H12 H 1.3786 0.6914 1.2820
C17 C 1.1965(2) 0.63126(9) 1.1279(2)
H13 H 1.2919 0.5996 1.0923
C18 C 0.8899(2) 0.44806(9) 0.7228(2)
H14 H 0.9485 0.4239 0.8254
H15 H 0.9868 0.4773 0.6703
H16 H 0.8403 0.4133 0.6372
C19 C 0.4482(3) 0.57276(9) 0.6719(2)
C20 C 0.3600(3) 0.69039(10) 0.7062(2)
H17 H 0.3930 0.7368 0.6614
H18 H 0.3643 0.6917 0.8341
H19 H 0.2303 0.6774 0.6609
C21 C 0.5945(2) 0.45359(9) 0.8996(2)
C22 C 0.4659(2) 0.34344(10) 0.9666(2)
H20 H 0.4701 0.2945 0.9281
H21 H 0.3333 0.3606 0.9541
H22 H 0.5130 0.3466 1.0894
H23 H 0.506(5) 0.360(2) 0.547(4)
H24 H 0.670(3) 0.6265(13) 1.000(3)
loop_
_geom_bond_atom_site_label_1
_geom_bond_atom_site_label_2
_geom_bond_site_symmetry_1
_geom_bond_site_symmetry_2
O1 C5 1_555 1_555
O2 C13 1_555 1_555
O3 C19 1_555 1_555
O4 C19 1_555 1_555
O5 C21 1_555 1_555
O6 C21 1_555 1_555
N1 C1 1_555 1_555
N2 C2 1_555 1_555
C1 C2 1_555 1_555
C2 C18 1_555 1_555
C3 N1 1_555 1_555
H1 C3 1_555 1_555
C4 C3 1_555 1_555
C5 C4 1_555 1_555
C6 C5 1_555 1_555
H2 C6 1_555 1_555
C7 C6 1_555 1_555
H3 C7 1_555 1_555
C8 C7 1_555 1_555
H4 C8 1_555 1_555
C9 C4 1_555 1_555
H5 C9 1_555 1_555
C10 C1 1_555 1_555
H6 C10 1_555 1_555
H7 C10 1_555 1_555
H8 C10 1_555 1_555
C11 N2 1_555 1_555
H9 C11 1_555 1_555
C12 C11 1_555 1_555
C13 C12 1_555 1_555
C14 C13 1_555 1_555
H10 C14 1_555 1_555
C15 C14 1_555 1_555
H11 C15 1_555 1_555
C16 C15 1_555 1_555
H12 C16 1_555 1_555
C17 C12 1_555 1_555
H13 C17 1_555 1_555
C18 H14 1_555 1_555
H15 C18 1_555 1_555
H16 C18 1_555 1_555
C19 C1 1_555 1_555
C20 O4 1_555 1_555
H17 C20 1_555 1_555
H18 C20 1_555 1_555
H19 C20 1_555 1_555
C21 C2 1_555 1_555
C22 O6 1_555 1_555
H20 C22 1_555 1_555
H21 C22 1_555 1_555
H22 C22 1_555 1_555
H23 O1 1_555 1_555
H24 O2 1_555 1_555
C8 C9 1_555 1_555
C16 C17 1_555 1_555

#END
