
#######################################################################
#
#                 Cambridge Crystallographic Data Centre
#                                CCDC 
#
#######################################################################
#
# If this CIF has been generated from an entry in the Cambridge 
# Structural Database, then it will include bibliographic, chemical, 
# crystal, experimental, refinement or atomic coordinate data resulting 
# from the CCDC's data processing and validation procedures.
#
#######################################################################

data_QILKUT01
_chemical_formula_moiety         'C22 H17 N3 O1'
_chemical_name_systematic        
(1-benzyl-5-phenyl-1H-1,2,3-triazol-4-yl)(phenyl)methanone
_symmetry_cell_setting           orthorhombic
_symmetry_space_group_name_H-M   'P 21 21 21'
_symmetry_Int_Tables_number      19
_space_group_name_Hall           'P 2ac 2ab'
loop_
_symmetry_equiv_pos_site_id
_symmetry_equiv_pos_as_xyz
1 x,y,z
2 1/2-x,-y,1/2+z
3 -x,1/2+y,1/2-z
4 1/2+x,1/2-y,-z
_cell_length_a                   7.622(3)
_cell_length_b                   11.018(4)
_cell_length_c                   20.912(8)
_cell_angle_alpha                90
_cell_angle_beta                 90
_cell_angle_gamma                90
_cell_volume                     1756.17
_exptl_crystal_colour            colorless
_exptl_crystal_description       block
_cell_formula_units_Z            4
loop_
_atom_site_label
_atom_site_type_symbol
_atom_site_fract_x
_atom_site_fract_y
_atom_site_fract_z
C1 C 1.3303(3) 0.48519(16) 0.17660(8)
C2 C 1.6616(3) 0.5327(3) 0.22570(11)
H1 H 1.7725 0.5486 0.2423
C3 C 1.4194(3) 0.3986(2) 0.21153(10)
H2 H 1.3676 0.3234 0.2187
C4 C 1.4115(3) 0.59668(19) 0.16687(10)
H3 H 1.3537 0.6565 0.1436
C5 C 1.5842(3) 0.4221(2) 0.23594(11)
H4 H 1.6428 0.3628 0.2594
C6 C 1.5756(3) 0.6198(2) 0.19105(11)
H5 H 1.6285 0.6947 0.1839
C7 C 0.7778(2) 0.00822(16) 0.11245(9)
C8 C 0.8827(3) -0.06872(17) 0.14759(9)
H6 H 0.9193 -0.0455 0.1882
C9 C 0.8807(3) -0.21399(19) 0.06368(11)
H7 H 0.9155 -0.2886 0.0472
C10 C 0.9342(3) -0.17944(18) 0.12353(10)
H8 H 1.0050 -0.2305 0.1478
C11 C 0.7243(3) -0.02808(18) 0.05219(9)
H9 H 0.6531 0.0225 0.0278
C12 C 0.7763(3) -0.1391(2) 0.02806(10)
H10 H 0.7402 -0.1630 -0.0125
C13 C 0.8527(2) 0.34192(15) 0.05700(8)
C14 C 0.7716(3) 0.45185(17) 0.04555(9)
H11 H 0.7519 0.5054 0.0792
C15 C 0.8794(2) 0.26268(17) 0.00631(9)
H12 H 0.9327 0.1880 0.0134
C16 C 0.7195(3) 0.4826(2) -0.01564(10)
H13 H 0.6638 0.5563 -0.0231
C17 C 0.8271(2) 0.2945(2) -0.05429(9)
H14 H 0.8443 0.2408 -0.0880
C18 C 0.7500(3) 0.4044(2) -0.06530(10)
H15 H 0.7181 0.4262 -0.1067
C19 C 1.1559(3) 0.46626(17) 0.14686(8)
N1 N 1.0619(2) 0.28768(14) 0.21307(7)
N2 N 0.86001(19) 0.21219(13) 0.15407(6)
N3 N 0.9471(2) 0.20055(15) 0.21029(7)
C20 C 0.9175(2) 0.30980(15) 0.12121(7)
C21 C 1.0478(2) 0.35767(15) 0.15971(8)
C22 C 0.7174(2) 0.12778(16) 0.13945(10)
H16 H 0.6388 0.1659 0.1090
H17 H 0.6513 0.1125 0.1783
O1 O 1.0995(2) 0.54078(13) 0.10911(7)
loop_
_geom_bond_atom_site_label_1
_geom_bond_atom_site_label_2
_geom_bond_site_symmetry_1
_geom_bond_site_symmetry_2
C1 C3 1_555 1_555
C2 H1 1_555 1_555
C3 H2 1_555 1_555
C4 C1 1_555 1_555
H3 C4 1_555 1_555
C5 C2 1_555 1_555
H4 C5 1_555 1_555
C6 C2 1_555 1_555
H5 C6 1_555 1_555
C7 C8 1_555 1_555
C8 H6 1_555 1_555
C9 H7 1_555 1_555
C10 C8 1_555 1_555
H8 C10 1_555 1_555
C11 C7 1_555 1_555
H9 C11 1_555 1_555
C12 C9 1_555 1_555
H10 C12 1_555 1_555
C13 C14 1_555 1_555
C14 H11 1_555 1_555
C15 C13 1_555 1_555
H12 C15 1_555 1_555
C16 C14 1_555 1_555
H13 C16 1_555 1_555
C17 C15 1_555 1_555
H14 C17 1_555 1_555
C18 C16 1_555 1_555
H15 C18 1_555 1_555
C19 C1 1_555 1_555
N1 N3 1_555 1_555
N2 N3 1_555 1_555
C20 C13 1_555 1_555
C21 C19 1_555 1_555
C22 C7 1_555 1_555
H16 C22 1_555 1_555
H17 C22 1_555 1_555
O1 C19 1_555 1_555
C3 C5 1_555 1_555
C4 C6 1_555 1_555
C9 C10 1_555 1_555
C11 C12 1_555 1_555
C17 C18 1_555 1_555
N1 C21 1_555 1_555
N2 C20 1_555 1_555
N2 C22 1_555 1_555
C20 C21 1_555 1_555

#END
