
#######################################################################
#
#                 Cambridge Crystallographic Data Centre
#                                CCDC 
#
#######################################################################
#
# If this CIF has been generated from an entry in the Cambridge 
# Structural Database, then it will include bibliographic, chemical, 
# crystal, experimental, refinement or atomic coordinate data resulting 
# from the CCDC's data processing and validation procedures.
#
#######################################################################

data_QILLAA
_chemical_formula_moiety         'C11 H11 N3 O1'
_chemical_name_systematic        
1-(1-Phenyl-1H-1,2,3-triazol-4-yl)propan-1-one
_symmetry_cell_setting           triclinic
_symmetry_space_group_name_H-M   'P -1'
_symmetry_Int_Tables_number      2
_space_group_name_Hall           '-P 1'
loop_
_symmetry_equiv_pos_site_id
_symmetry_equiv_pos_as_xyz
1 x,y,z
2 -x,-y,-z
_cell_length_a                   5.0940(4)
_cell_length_b                   10.0553(10)
_cell_length_c                   10.8107(11)
_cell_angle_alpha                64.915(6)
_cell_angle_beta                 87.560(6)
_cell_angle_gamma                84.629(6)
_cell_volume                     499.309
_exptl_crystal_colour            colorless
_exptl_crystal_description       prism
_cell_formula_units_Z            2
loop_
_atom_site_label
_atom_site_type_symbol
_atom_site_fract_x
_atom_site_fract_y
_atom_site_fract_z
C1 C 1.1546(5) -0.0890(3) 0.2633(3)
C2 C 1.2998(5) -0.1035(3) 0.1578(3)
H1 H 1.2583 -0.0398 0.0654
C3 C 1.5060(5) -0.2120(3) 0.1888(3)
H2 H 1.6089 -0.2220 0.1174
C4 C 1.5629(5) -0.3053(3) 0.3223(3)
H3 H 1.7066 -0.3786 0.3432
C5 C 1.4103(5) -0.2922(3) 0.4262(3)
H4 H 1.4462 -0.3590 0.5184
C6 C 1.2067(5) -0.1832(3) 0.3972(3)
H5 H 1.1039 -0.1734 0.4687
C7 C 0.7440(4) 0.0432(3) 0.3071(2)
H6 H 0.6962 -0.0252 0.3957
C8 C 0.6177(5) 0.1780(3) 0.2300(2)
C9 C 0.3828(5) 0.2520(3) 0.2642(3)
C10 C 0.3002(5) 0.4077(3) 0.1683(3)
H7 H 0.2453 0.4092 0.0809
H8 H 0.4544 0.4666 0.1491
C11 C 0.0767(5) 0.4804(3) 0.2211(3)
H9 H 0.0342 0.5816 0.1531
H10 H 0.1305 0.4821 0.3064
H11 H -0.0790 0.4247 0.2381
N1 N 0.9494(4) 0.0280(2) 0.23127(19)
N2 N 0.9535(4) 0.1501(2) 0.1101(2)
N3 N 0.7529(4) 0.2406(2) 0.1097(2)
O1 O 0.2624(3) 0.18599(19) 0.37036(17)
loop_
_geom_bond_atom_site_label_1
_geom_bond_atom_site_label_2
_geom_bond_site_symmetry_1
_geom_bond_site_symmetry_2
C1 C2 1_555 1_555
C2 H1 1_555 1_555
C3 C2 1_555 1_555
H2 C3 1_555 1_555
C4 C3 1_555 1_555
H3 C4 1_555 1_555
C5 C4 1_555 1_555
H4 C5 1_555 1_555
C6 C1 1_555 1_555
H5 C6 1_555 1_555
C7 H6 1_555 1_555
C8 C7 1_555 1_555
C9 C8 1_555 1_555
C10 C9 1_555 1_555
H7 C10 1_555 1_555
H8 C10 1_555 1_555
C11 C10 1_555 1_555
H9 C11 1_555 1_555
H10 C11 1_555 1_555
H11 C11 1_555 1_555
N1 C1 1_555 1_555
N2 N1 1_555 1_555
N3 C8 1_555 1_555
O1 C9 1_555 1_555
C5 C6 1_555 1_555
C7 N1 1_555 1_555
N2 N3 1_555 1_555

#END
