
#######################################################################
#
#                 Cambridge Crystallographic Data Centre
#                                CCDC 
#
#######################################################################
#
# If this CIF has been generated from an entry in the Cambridge 
# Structural Database, then it will include bibliographic, chemical, 
# crystal, experimental, refinement or atomic coordinate data resulting 
# from the CCDC's data processing and validation procedures.
#
#######################################################################

data_QILMAC
_chemical_formula_moiety         'C23 H20 N2 O1'
_chemical_name_systematic        
N,3-bis(4-methylphenyl)-5-phenyl-1,3-oxazol-2(3H)-imine
_symmetry_cell_setting           monoclinic
_symmetry_space_group_name_H-M   'P 21/c'
_symmetry_Int_Tables_number      14
_space_group_name_Hall           '-P 2ybc'
loop_
_symmetry_equiv_pos_site_id
_symmetry_equiv_pos_as_xyz
1 x,y,z
2 -x,1/2+y,1/2-z
3 -x,-y,-z
4 x,1/2-y,1/2+z
_cell_length_a                   13.3239(7)
_cell_length_b                   17.9447(8)
_cell_length_c                   7.8844(4)
_cell_angle_alpha                90
_cell_angle_beta                 98.287(5)
_cell_angle_gamma                90
_cell_volume                     1865.42
_exptl_crystal_colour            colorless
_exptl_crystal_description       prismatic
_cell_formula_units_Z            4
loop_
_atom_site_label
_atom_site_type_symbol
_atom_site_fract_x
_atom_site_fract_y
_atom_site_fract_z
N1 N 0.12941(12) 0.07445(8) 0.1918(2)
N2 N 0.09253(11) 0.19410(8) 0.29620(19)
O1 O 0.22672(9) 0.18185(6) 0.16361(15)
C1 C 0.14846(13) 0.14297(10) 0.2174(2)
C2 C 0.13563(15) 0.26439(10) 0.2820(2)
H1 H 0.1116 0.3089 0.3213
C3 C 0.21664(14) 0.25702(10) 0.2032(2)
C4 C 0.29422(15) 0.30682(10) 0.1566(2)
C5 C 0.29122(18) 0.38249(12) 0.1900(3)
H2 H 0.2388 0.4021 0.2423
C6 C 0.3662(2) 0.42888(12) 0.1457(3)
H3 H 0.3638 0.4797 0.1679
C7 C 0.44388(19) 0.40051(14) 0.0695(3)
H4 H 0.4946 0.4319 0.0416
C8 C 0.44703(17) 0.32629(14) 0.0344(3)
H5 H 0.4993 0.3072 -0.0190
C9 C 0.37304(15) 0.27942(12) 0.0778(3)
H6 H 0.3760 0.2288 0.0540
C10 C 0.19674(14) 0.02851(10) 0.1146(2)
C11 C 0.30194(14) 0.03233(11) 0.1529(2)
H7 H 0.3317 0.0695 0.2257
C12 C 0.36212(15) -0.01818(11) 0.0842(3)
H8 H 0.4322 -0.0147 0.1123
C13 C 0.32168(16) -0.07426(11) -0.0258(3)
C14 C 0.21755(16) -0.07701(11) -0.0651(3)
H9 H 0.1881 -0.1136 -0.1398
C15 C 0.15579(15) -0.02692(11) 0.0035(3)
H10 H 0.0858 -0.0305 -0.0252
C16 C 0.38951(19) -0.13104(14) -0.0946(3)
H11 H 0.4346 -0.1061 -0.1605
H12 H 0.3486 -0.1660 -0.1662
H13 H 0.4283 -0.1570 -0.0007
C17 C 0.00392(14) 0.17919(10) 0.3715(2)
C18 C -0.00881(16) 0.11221(10) 0.4524(3)
H14 H 0.0411 0.0757 0.4581
C19 C -0.09556(16) 0.09966(11) 0.5247(3)
H15 H -0.1032 0.0545 0.5791
C20 C -0.17121(15) 0.15238(11) 0.5183(2)
C21 C -0.15582(15) 0.21958(11) 0.4413(2)
H16 H -0.2048 0.2567 0.4387
C22 C -0.06959(15) 0.23323(10) 0.3678(2)
H17 H -0.0612 0.2789 0.3159
C23 C -0.26714(16) 0.13749(13) 0.5935(3)
H18 H -0.3068 0.1006 0.5258
H19 H -0.3056 0.1827 0.5938
H20 H -0.2501 0.1197 0.7089
loop_
_geom_bond_atom_site_label_1
_geom_bond_atom_site_label_2
_geom_bond_site_symmetry_1
_geom_bond_site_symmetry_2
N1 C1 1_555 1_555
N2 C1 1_555 1_555
O1 C1 1_555 1_555
C2 N2 1_555 1_555
H1 C2 1_555 1_555
C3 O1 1_555 1_555
C4 C3 1_555 1_555
C5 C4 1_555 1_555
H2 C5 1_555 1_555
C6 C5 1_555 1_555
H3 C6 1_555 1_555
C7 C6 1_555 1_555
H4 C7 1_555 1_555
C8 C7 1_555 1_555
H5 C8 1_555 1_555
C9 C4 1_555 1_555
H6 C9 1_555 1_555
C10 N1 1_555 1_555
C11 C10 1_555 1_555
H7 C11 1_555 1_555
C12 C11 1_555 1_555
H8 C12 1_555 1_555
C13 C12 1_555 1_555
C14 C13 1_555 1_555
H9 C14 1_555 1_555
C15 C10 1_555 1_555
H10 C15 1_555 1_555
C16 C13 1_555 1_555
H11 C16 1_555 1_555
H12 C16 1_555 1_555
H13 C16 1_555 1_555
C17 N2 1_555 1_555
C18 C17 1_555 1_555
H14 C18 1_555 1_555
C19 C18 1_555 1_555
H15 C19 1_555 1_555
C20 C19 1_555 1_555
C21 C20 1_555 1_555
H16 C21 1_555 1_555
C22 C17 1_555 1_555
H17 C22 1_555 1_555
C23 C20 1_555 1_555
H18 C23 1_555 1_555
H19 C23 1_555 1_555
H20 C23 1_555 1_555
C2 C3 1_555 1_555
C8 C9 1_555 1_555
C14 C15 1_555 1_555
C21 C22 1_555 1_555

#END
