
#######################################################################
#
#                 Cambridge Crystallographic Data Centre
#                                CCDC 
#
#######################################################################
#
# If this CIF has been generated from an entry in the Cambridge 
# Structural Database, then it will include bibliographic, chemical, 
# crystal, experimental, refinement or atomic coordinate data resulting 
# from the CCDC's data processing and validation procedures.
#
#######################################################################

data_QILPIM
_chemical_formula_moiety         'C24 H19 Br1 N2 O2 S1'
_chemical_name_systematic        
N-(2-(4-Bromophenyl)vinyl)-N-(2-cyano-1-phenylvinyl)-4-methylbenzenesulfonamide
_symmetry_cell_setting           monoclinic
_symmetry_space_group_name_H-M   'P 21/n'
_symmetry_Int_Tables_number      14
_space_group_name_Hall           '-P 2yn'
loop_
_symmetry_equiv_pos_site_id
_symmetry_equiv_pos_as_xyz
1 x,y,z
2 1/2-x,1/2+y,1/2-z
3 -x,-y,-z
4 1/2+x,1/2-y,1/2+z
_cell_length_a                   12.2776(6)
_cell_length_b                   12.2740(7)
_cell_length_c                   15.9435(8)
_cell_angle_alpha                90
_cell_angle_beta                 112.479(6)
_cell_angle_gamma                90
_cell_volume                     2220.06
_exptl_crystal_colour            yellow
_exptl_crystal_description       block
_cell_formula_units_Z            4
loop_
_atom_site_label
_atom_site_type_symbol
_atom_site_fract_x
_atom_site_fract_y
_atom_site_fract_z
Br1 Br 1.26606(3) 0.70163(3) 0.77648(2)
S1 S 0.67788(7) 0.14940(7) 0.65417(5)
O1 O 0.7223(2) 0.1853(2) 0.74575(15)
O2 O 0.65439(19) 0.03735(18) 0.63157(15)
N1 N 0.7783(2) 0.1861(2) 0.61298(16)
N2 N 0.6081(3) 0.3317(3) 0.4056(2)
C1 C 0.5453(3) 0.3315(3) 0.6190(2)
H1 H 0.6053 0.3610 0.6693
C2 C 0.4490(3) 0.3927(3) 0.5693(3)
H2 H 0.4449 0.4648 0.5859
C3 C 0.3577(3) 0.3505(4) 0.4955(2)
C4 C 0.3657(3) 0.2443(3) 0.4707(2)
H3 H 0.3053 0.2147 0.4206
C5 C 0.4625(3) 0.1811(3) 0.5194(2)
H4 H 0.4671 0.1093 0.5026
C6 C 0.5518(3) 0.2254(3) 0.5930(2)
C7 C 0.2520(4) 0.4199(4) 0.4419(3)
H5 H 0.2628 0.4503 0.3901
H6 H 0.2440 0.4777 0.4797
H7 H 0.1822 0.3757 0.4219
C8 C 0.8515(2) 0.2769(2) 0.64922(19)
H8 H 0.8460 0.3100 0.6999
C9 C 0.9267(2) 0.3189(2) 0.6177(2)
H9 H 0.9298 0.2878 0.5655
C10 C 1.0060(2) 0.4101(2) 0.65752(18)
C11 C 1.0088(2) 0.4674(3) 0.7332(2)
H10 H 0.9580 0.4471 0.7613
C12 C 1.0845(3) 0.5532(3) 0.7680(2)
H11 H 1.0836 0.5912 0.8182
C13 C 1.1613(2) 0.5826(2) 0.72836(19)
C14 C 1.1625(3) 0.5284(3) 0.6538(2)
H12 H 1.2148 0.5484 0.6270
C15 C 1.0847(3) 0.4434(3) 0.6189(2)
H13 H 1.0849 0.4070 0.5678
C16 C 0.7881(2) 0.1242(2) 0.53972(19)
C17 C 0.7340(3) 0.1596(3) 0.4547(2)
H14 H 0.7428 0.1188 0.4086
C18 C 0.6638(3) 0.2554(3) 0.4297(2)
C19 C 0.8617(2) 0.0262(3) 0.56476(19)
C20 C 0.9425(3) 0.0106(3) 0.6525(2)
H15 H 0.9502 0.0630 0.6966
C21 C 1.0117(3) -0.0814(4) 0.6752(2)
H16 H 1.0663 -0.0904 0.7342
C22 C 1.0006(3) -0.1597(3) 0.6113(3)
H17 H 1.0466 -0.2223 0.6268
C23 C 0.9213(3) -0.1449(3) 0.5247(3)
H18 H 0.9135 -0.1979 0.4810
C24 C 0.8535(3) -0.0534(3) 0.5013(2)
H19 H 0.8007 -0.0444 0.4416
loop_
_geom_bond_atom_site_label_1
_geom_bond_atom_site_label_2
_geom_bond_site_symmetry_1
_geom_bond_site_symmetry_2
Br1 C13 1_555 1_555
S1 O1 1_555 1_555
O2 S1 1_555 1_555
N1 S1 1_555 1_555
N2 C18 1_555 1_555
C1 H1 1_555 1_555
C2 C1 1_555 1_555
H2 C2 1_555 1_555
C3 C2 1_555 1_555
C4 C3 1_555 1_555
H3 C4 1_555 1_555
C5 C4 1_555 1_555
H4 C5 1_555 1_555
C6 S1 1_555 1_555
C7 C3 1_555 1_555
H5 C7 1_555 1_555
H6 C7 1_555 1_555
H7 C7 1_555 1_555
C8 N1 1_555 1_555
H8 C8 1_555 1_555
C9 C8 1_555 1_555
H9 C9 1_555 1_555
C10 C9 1_555 1_555
C11 C10 1_555 1_555
H10 C11 1_555 1_555
C12 C11 1_555 1_555
H11 C12 1_555 1_555
C13 C12 1_555 1_555
C14 C13 1_555 1_555
H12 C14 1_555 1_555
C15 C10 1_555 1_555
H13 C15 1_555 1_555
C16 N1 1_555 1_555
C17 C16 1_555 1_555
H14 C17 1_555 1_555
C18 C17 1_555 1_555
C19 C16 1_555 1_555
C20 C19 1_555 1_555
H15 C20 1_555 1_555
C21 C20 1_555 1_555
H16 C21 1_555 1_555
C22 C21 1_555 1_555
H17 C22 1_555 1_555
C23 C22 1_555 1_555
H18 C23 1_555 1_555
C24 C19 1_555 1_555
H19 C24 1_555 1_555
C1 C6 1_555 1_555
C5 C6 1_555 1_555
C14 C15 1_555 1_555
C23 C24 1_555 1_555

#END
