
#######################################################################
#
#                 Cambridge Crystallographic Data Centre
#                                CCDC 
#
#######################################################################
#
# If this CIF has been generated from an entry in the Cambridge 
# Structural Database, then it will include bibliographic, chemical, 
# crystal, experimental, refinement or atomic coordinate data resulting 
# from the CCDC's data processing and validation procedures.
#
#######################################################################

data_QILTOW
_chemical_formula_moiety         'C16 H16 N2 O5 S1'
_chemical_name_systematic        
'Ethyl 5-methyl-1-(methylsulfonyl)-4-oxo-4,5-dihydro-3H-pyrrolo[2,3-c]quinoline-2-carboxylate'
_symmetry_cell_setting           monoclinic
_symmetry_space_group_name_H-M   'P 21/c'
_symmetry_Int_Tables_number      14
_space_group_name_Hall           '-P 2ybc'
loop_
_symmetry_equiv_pos_site_id
_symmetry_equiv_pos_as_xyz
1 x,y,z
2 -x,1/2+y,1/2-z
3 -x,-y,-z
4 x,1/2-y,1/2+z
_cell_length_a                   14.7900(9)
_cell_length_b                   15.132(2)
_cell_length_c                   6.9300(5)
_cell_angle_alpha                90
_cell_angle_beta                 96.685(5)
_cell_angle_gamma                90
_cell_volume                     1540.41
_exptl_crystal_colour            colorless
_exptl_crystal_description       block
_cell_formula_units_Z            4
loop_
_atom_site_label
_atom_site_type_symbol
_atom_site_fract_x
_atom_site_fract_y
_atom_site_fract_z
C1 C 0.5835(5) -0.1444(5) 0.0994(10)
H1 H 0.5519 -0.1982 0.0613
H2 H 0.6231 -0.1291 0.0043
H3 H 0.5401 -0.0979 0.1086
C2 C 0.6387(4) -0.1572(4) 0.2929(9)
H4 H 0.5996 -0.1726 0.3909
H5 H 0.6830 -0.2041 0.2859
C3 C 0.7379(4) -0.0694(4) 0.5110(9)
C4 C 0.7772(4) 0.0214(4) 0.5380(8)
C5 C 0.7367(4) 0.1037(4) 0.5425(8)
C6 C 0.8078(4) 0.1687(4) 0.5553(8)
C7 C 0.8877(4) 0.1200(4) 0.5617(8)
C8 C 0.9777(4) 0.1549(4) 0.5783(8)
C9 C 0.9047(4) 0.3002(4) 0.5747(8)
C10 C 0.8159(4) 0.2637(4) 0.5576(8)
C11 C 0.7419(4) 0.3226(4) 0.5366(8)
H6 H 0.6831 0.2998 0.5231
C12 C 0.7535(4) 0.4124(4) 0.5354(8)
H7 H 0.7032 0.4496 0.5190
C13 C 0.8421(4) 0.4480(4) 0.5591(8)
H8 H 0.8508 0.5089 0.5634
C14 C 0.9154(4) 0.3920(4) 0.5758(8)
H9 H 0.9738 0.4157 0.5881
C15 C 1.0738(4) 0.2868(4) 0.5984(10)
H10 H 1.0679 0.3499 0.6022
H11 H 1.1030 0.2701 0.4872
H12 H 1.1098 0.2668 0.7145
C16 C 0.5637(4) 0.1126(4) 0.3204(8)
H13 H 0.5780 0.1673 0.2607
H14 H 0.4991 0.1084 0.3225
H15 H 0.5842 0.0641 0.2475
N1 N 0.8681(3) 0.0324(3) 0.5527(7)
H16 H 0.9075 -0.0095 0.5559
N2 N 0.9826(3) 0.2460(3) 0.5853(7)
O1 O 0.5962(3) 0.0264(3) 0.6461(6)
O2 O 0.5975(3) 0.1893(3) 0.6560(6)
O3 O 0.6844(3) -0.0733(3) 0.3402(6)
O4 O 0.7548(3) -0.1301(3) 0.6192(7)
O5 O 1.0473(3) 0.1083(3) 0.5869(6)
S1 S 0.61861(9) 0.10895(9) 0.5605(2)
loop_
_geom_bond_atom_site_label_1
_geom_bond_atom_site_label_2
_geom_bond_site_symmetry_1
_geom_bond_site_symmetry_2
C1 H1 1_555 1_555
H2 C1 1_555 1_555
H3 C1 1_555 1_555
C2 C1 1_555 1_555
H4 C2 1_555 1_555
H5 C2 1_555 1_555
C3 C4 1_555 1_555
C4 C5 1_555 1_555
C5 C6 1_555 1_555
C6 C7 1_555 1_555
C7 C8 1_555 1_555
C8 N2 1_555 1_555
C9 C10 1_555 1_555
C10 C6 1_555 1_555
C11 C10 1_555 1_555
H6 C11 1_555 1_555
C12 C11 1_555 1_555
H7 C12 1_555 1_555
C13 C12 1_555 1_555
H8 C13 1_555 1_555
C14 C9 1_555 1_555
H9 C14 1_555 1_555
C15 H10 1_555 1_555
H11 C15 1_555 1_555
H12 C15 1_555 1_555
C16 H13 1_555 1_555
H14 C16 1_555 1_555
H15 C16 1_555 1_555
N1 C4 1_555 1_555
H16 N1 1_555 1_555
N2 C9 1_555 1_555
O1 S1 1_555 1_555
O2 S1 1_555 1_555
O3 C2 1_555 1_555
O4 C3 1_555 1_555
O5 C8 1_555 1_555
S1 C5 1_555 1_555
C3 O3 1_555 1_555
C7 N1 1_555 1_555
C13 C14 1_555 1_555
C15 N2 1_555 1_555
C16 S1 1_555 1_555

#END
