
#######################################################################
#
#                 Cambridge Crystallographic Data Centre
#                                CCDC 
#
#######################################################################
#
# If this CIF has been generated from an entry in the Cambridge 
# Structural Database, then it will include bibliographic, chemical, 
# crystal, experimental, refinement or atomic coordinate data resulting 
# from the CCDC's data processing and validation procedures.
#
#######################################################################

data_QILTUC
_chemical_formula_moiety         'C20 H15 N1 O4 S2'
_chemical_name_systematic        
2-((4-Methylphenyl)sulfonyl)-3-(methylsulfanyl)-1H-benzo[f]indole-4,9-dione
_symmetry_cell_setting           triclinic
_symmetry_space_group_name_H-M   'P -1'
_symmetry_Int_Tables_number      2
_space_group_name_Hall           '-P 1'
loop_
_symmetry_equiv_pos_site_id
_symmetry_equiv_pos_as_xyz
1 x,y,z
2 -x,-y,-z
_cell_length_a                   7.7124(11)
_cell_length_b                   8.5857(12)
_cell_length_c                   14.714(2)
_cell_angle_alpha                88.357(2)
_cell_angle_beta                 84.196(2)
_cell_angle_gamma                63.703(2)
_cell_volume                     868.856
_cell_formula_units_Z            2
loop_
_atom_site_label
_atom_site_type_symbol
_atom_site_fract_x
_atom_site_fract_y
_atom_site_fract_z
S1 S 0.40868(14) 0.58380(12) 0.27634(6)
S2 S 0.65333(14) 0.12454(12) 0.28597(6)
O1 O 0.4973(4) 0.7856(4) 0.09431(19)
O2 O 0.9767(4) 0.1598(4) -0.06486(19)
O3 O 0.4601(4) 0.1847(4) 0.32980(19)
O4 O 0.7562(4) -0.0487(4) 0.24932(18)
N1 N 0.7723(4) 0.1912(4) 0.1153(2)
H1 H 0.8385 0.0821 0.1027
C1 C 0.6545(5) 0.2617(5) 0.1949(2)
C2 C 0.5702(5) 0.4406(5) 0.1906(2)
C3 C 0.6421(5) 0.4795(5) 0.1038(2)
C4 C 0.6085(5) 0.6441(5) 0.0599(2)
C5 C 0.7197(5) 0.6298(5) -0.0325(2)
C6 C 0.6985(5) 0.7802(5) -0.0765(3)
H2 H 0.6186 0.8873 -0.0483
C7 C 0.7943(6) 0.7743(5) -0.1621(3)
H3 H 0.7772 0.8768 -0.1915
C8 C 0.9162(6) 0.6144(5) -0.2040(3)
H4 H 0.9819 0.6099 -0.2612
C9 C 0.9401(5) 0.4616(5) -0.1606(3)
H5 H 1.0211 0.3551 -0.1891
C10 C 0.8435(5) 0.4669(5) -0.0745(2)
C11 C 0.8717(5) 0.3017(5) -0.0295(2)
C12 C 0.7665(5) 0.3213(4) 0.0607(2)
C13 C 0.5457(7) 0.6951(6) 0.3055(3)
H6 H 0.4723 0.7798 0.3529
H7 H 0.5720 0.7522 0.2526
H8 H 0.6662 0.6128 0.3265
C14 C 0.7962(5) 0.1589(5) 0.3628(2)
C15 C 0.7055(6) 0.2797(5) 0.4333(3)
H9 H 0.5707 0.3387 0.4424
C16 C 0.8195(6) 0.3110(5) 0.4901(3)
H10 H 0.7602 0.3918 0.5378
C17 C 1.0219(6) 0.2233(5) 0.4769(3)
C18 C 1.1080(6) 0.1014(5) 0.4063(3)
H11 H 1.2428 0.0423 0.3972
C19 C 0.9980(6) 0.0656(5) 0.3490(3)
H12 H 1.0569 -0.0182 0.3026
C20 C 1.1448(7) 0.2616(6) 0.5377(3)
H13 H 1.0620 0.3483 0.5827
H14 H 1.2254 0.3036 0.5015
H15 H 1.2252 0.1573 0.5677
loop_
_geom_bond_atom_site_label_1
_geom_bond_atom_site_label_2
_geom_bond_site_symmetry_1
_geom_bond_site_symmetry_2
S1 C2 1_555 1_555
S2 O3 1_555 1_555
O1 C4 1_555 1_555
O2 C11 1_555 1_555
O4 S2 1_555 1_555
N1 H1 1_555 1_555
C1 S2 1_555 1_555
C2 C1 1_555 1_555
C3 C2 1_555 1_555
C4 C3 1_555 1_555
C5 C4 1_555 1_555
C6 C5 1_555 1_555
H2 C6 1_555 1_555
C7 C6 1_555 1_555
H3 C7 1_555 1_555
C8 C7 1_555 1_555
H4 C8 1_555 1_555
C9 C8 1_555 1_555
H5 C9 1_555 1_555
C10 C5 1_555 1_555
C11 C10 1_555 1_555
C12 N1 1_555 1_555
C13 S1 1_555 1_555
H6 C13 1_555 1_555
H7 C13 1_555 1_555
H8 C13 1_555 1_555
C14 S2 1_555 1_555
C15 C14 1_555 1_555
H9 C15 1_555 1_555
C16 C15 1_555 1_555
H10 C16 1_555 1_555
C17 C16 1_555 1_555
C18 C17 1_555 1_555
H11 C18 1_555 1_555
C19 C14 1_555 1_555
H12 C19 1_555 1_555
C20 C17 1_555 1_555
H13 C20 1_555 1_555
H14 C20 1_555 1_555
H15 C20 1_555 1_555
N1 C1 1_555 1_555
C3 C12 1_555 1_555
C9 C10 1_555 1_555
C11 C12 1_555 1_555
C18 C19 1_555 1_555

#END
