
#######################################################################
#
#                 Cambridge Crystallographic Data Centre
#                                CCDC 
#
#######################################################################
#
# If this CIF has been generated from an entry in the Cambridge 
# Structural Database, then it will include bibliographic, chemical, 
# crystal, experimental, refinement or atomic coordinate data resulting 
# from the CCDC's data processing and validation procedures.
#
#######################################################################

data_QILTIQ
_chemical_formula_moiety         'C21 H17 N1 O4 S1'
_chemical_name_systematic        
'Ethyl 3-(methylsulfanyl)-13-oxo-1,13-dihydrodibenzo[2,3:7,8]oxocino[5,4-b]pyrrole-2-carboxylate'
_symmetry_cell_setting           triclinic
_symmetry_space_group_name_H-M   'P -1'
_symmetry_Int_Tables_number      2
_space_group_name_Hall           '-P 1'
loop_
_symmetry_equiv_pos_site_id
_symmetry_equiv_pos_as_xyz
1 x,y,z
2 -x,-y,-z
_cell_length_a                   7.8933(7)
_cell_length_b                   12.1766(11)
_cell_length_c                   18.5618(16)
_cell_angle_alpha                101.437(2)
_cell_angle_beta                 93.853(2)
_cell_angle_gamma                94.818(2)
_cell_volume                     1736
_cell_formula_units_Z            4
loop_
_atom_site_label
_atom_site_type_symbol
_atom_site_fract_x
_atom_site_fract_y
_atom_site_fract_z
S1 S -0.32021(13) -0.15473(8) 0.82313(5)
O1 O -0.1102(3) 0.2638(2) 0.88784(15)
O2 O -0.0796(4) 0.2194(2) 1.10172(15)
O3 O -0.4956(4) -0.2311(2) 0.95977(16)
O4 O -0.4050(4) -0.1342(2) 1.07490(15)
N1 N -0.2397(4) 0.0328(3) 1.02292(19)
C1 C -0.5125(6) -0.1793(4) 1.1844(2)
H1 H -0.5669 -0.2378 1.2052
H2 H -0.5830 -0.1183 1.1875
H3 H -0.4037 -0.1526 1.2111
C2 C -0.4877(5) -0.2248(4) 1.1054(2)
H4 H -0.4171 -0.2868 1.1017
H5 H -0.5971 -0.2524 1.0781
C3 C -0.4150(5) -0.1512(3) 1.0013(2)
C4 C -0.3107(5) -0.0623(3) 0.9765(2)
C5 C -0.2574(5) -0.0574(3) 0.9069(2)
C6 C -0.1450(5) 0.0425(3) 0.9142(2)
C7 C -0.1408(5) 0.0989(3) 0.9878(2)
C8 C -0.0595(5) 0.2052(3) 1.0349(2)
C9 C 0.0431(5) 0.2957(3) 1.0087(2)
C10 C 0.1659(5) 0.3639(3) 1.0603(2)
H6 H 0.1846 0.3475 1.1068
C11 C 0.2594(5) 0.4548(3) 1.0432(2)
H7 H 0.3418 0.4979 1.0778
C12 C 0.2309(5) 0.4821(3) 0.9744(2)
H8 H 0.2929 0.5440 0.9631
C13 C 0.1096(5) 0.4165(3) 0.9227(2)
H9 H 0.0896 0.4345 0.8766
C14 C 0.0182(5) 0.3241(3) 0.9395(2)
C15 C -0.5478(6) -0.1441(4) 0.8125(2)
H10 H -0.5965 -0.1942 0.7680
H11 H -0.5676 -0.0682 0.8100
H12 H -0.5998 -0.1644 0.8539
C16 C -0.0456(5) 0.1790(3) 0.8377(2)
C17 C -0.0542(5) 0.0715(3) 0.8529(2)
C18 C 0.0171(5) -0.0116(3) 0.8038(2)
H13 H 0.0194 -0.0834 0.8138
C19 C 0.0837(5) 0.0113(4) 0.7410(2)
H14 H 0.1320 -0.0447 0.7096
C20 C 0.0794(5) 0.1169(3) 0.7243(2)
H15 H 0.1178 0.1306 0.6803
C21 C 0.0168(5) 0.2028(3) 0.7740(2)
H16 H 0.0171 0.2749 0.7643
H17 H -0.249(6) 0.052(4) 1.069(3)
S2 S -0.41838(13) 0.34579(9) 0.49703(6)
O5 O 0.0153(4) 0.4717(2) 0.72479(15)
O6 O 0.3032(4) 0.2424(2) 0.60321(17)
O7 O -0.1596(4) 0.0077(2) 0.44964(17)
O8 O -0.4005(4) 0.0896(2) 0.43476(16)
N2 N -0.0119(4) 0.1989(3) 0.54566(18)
C22 C -0.6586(6) 0.0037(4) 0.3656(3)
H18 H -0.7170 -0.0650 0.3368
H19 H -0.6515 0.0598 0.3359
H20 H -0.7202 0.0295 0.4075
C23 C -0.4816(6) -0.0172(4) 0.3914(3)
H21 H -0.4869 -0.0741 0.4214
H22 H -0.4176 -0.0430 0.3495
C24 C -0.2393(5) 0.0889(3) 0.4624(2)
C25 C -0.1682(5) 0.1957(3) 0.5092(2)
C26 C -0.3853(6) 0.3456(4) 0.4016(2)
H23 H -0.4850 0.3676 0.3777
H24 H -0.3646 0.2714 0.3771
H25 H -0.2887 0.3978 0.3991
C27 C -0.2216(5) 0.3036(3) 0.5273(2)
C28 C -0.0916(5) 0.3728(3) 0.5764(2)
C29 C 0.0375(5) 0.3040(3) 0.5875(2)
C30 C 0.2128(5) 0.3173(3) 0.6243(2)
C31 C 0.2854(5) 0.4119(3) 0.6851(2)
C32 C 0.4649(5) 0.4239(3) 0.6990(2)
H26 H 0.5292 0.3774 0.6681
C33 C 0.5474(6) 0.5032(4) 0.7574(2)
H27 H 0.6658 0.5112 0.7647
C34 C 0.4518(5) 0.5709(3) 0.8050(2)
H28 H 0.5064 0.6231 0.8450
C35 C 0.2748(5) 0.5608(3) 0.7930(2)
H29 H 0.2107 0.6064 0.8245
C36 C 0.1948(5) 0.4818(3) 0.7334(2)
C37 C -0.0439(5) 0.5419(3) 0.6792(2)
C38 C -0.0528(5) 0.6555(3) 0.7088(2)
H30 H -0.0194 0.6848 0.7584
C39 C -0.1117(5) 0.7239(3) 0.6635(2)
H31 H -0.1196 0.7997 0.6827
C40 C -0.1595(5) 0.6794(3) 0.5890(2)
H32 H -0.1977 0.7258 0.5585
C41 C -0.1502(5) 0.5656(3) 0.5602(2)
H33 H -0.1823 0.5366 0.5104
C42 C -0.0925(5) 0.4944(3) 0.6057(2)
H34 H 0.056(7) 0.139(5) 0.542(3)
loop_
_geom_bond_atom_site_label_1
_geom_bond_atom_site_label_2
_geom_bond_site_symmetry_1
_geom_bond_site_symmetry_2
S1 C5 1_555 1_555
O1 C14 1_555 1_555
O2 C8 1_555 1_555
O3 C3 1_555 1_555
O4 C2 1_555 1_555
N1 C4 1_555 1_555
C1 H1 1_555 1_555
H2 C1 1_555 1_555
H3 C1 1_555 1_555
C2 C1 1_555 1_555
H4 C2 1_555 1_555
H5 C2 1_555 1_555
C3 O4 1_555 1_555
C4 C3 1_555 1_555
C5 C4 1_555 1_555
C6 C5 1_555 1_555
C7 N1 1_555 1_555
C8 C7 1_555 1_555
C9 C8 1_555 1_555
C10 C9 1_555 1_555
H6 C10 1_555 1_555
C11 C10 1_555 1_555
H7 C11 1_555 1_555
C12 C11 1_555 1_555
H8 C12 1_555 1_555
C13 C12 1_555 1_555
H9 C13 1_555 1_555
C14 C9 1_555 1_555
C15 S1 1_555 1_555
H10 C15 1_555 1_555
H11 C15 1_555 1_555
H12 C15 1_555 1_555
C16 O1 1_555 1_555
C17 C6 1_555 1_555
C18 C17 1_555 1_555
H13 C18 1_555 1_555
C19 C18 1_555 1_555
H14 C19 1_555 1_555
C20 C19 1_555 1_555
H15 C20 1_555 1_555
C21 C16 1_555 1_555
H16 C21 1_555 1_555
H17 N1 1_555 1_555
S2 C26 1_555 1_555
O5 C36 1_555 1_555
O6 C30 1_555 1_555
O7 C24 1_555 1_555
O8 C23 1_555 1_555
N2 C25 1_555 1_555
C22 H18 1_555 1_555
H19 C22 1_555 1_555
H20 C22 1_555 1_555
C23 C22 1_555 1_555
H21 C23 1_555 1_555
H22 C23 1_555 1_555
C24 O8 1_555 1_555
C25 C24 1_555 1_555
C26 H23 1_555 1_555
H24 C26 1_555 1_555
H25 C26 1_555 1_555
C27 S2 1_555 1_555
C28 C27 1_555 1_555
C29 N2 1_555 1_555
C30 C29 1_555 1_555
C31 C30 1_555 1_555
C32 C31 1_555 1_555
H26 C32 1_555 1_555
C33 C32 1_555 1_555
H27 C33 1_555 1_555
C34 C33 1_555 1_555
H28 C34 1_555 1_555
C35 C34 1_555 1_555
H29 C35 1_555 1_555
C36 C31 1_555 1_555
C37 O5 1_555 1_555
C38 C37 1_555 1_555
H30 C38 1_555 1_555
C39 C38 1_555 1_555
H31 C39 1_555 1_555
C40 C39 1_555 1_555
H32 C40 1_555 1_555
C41 C40 1_555 1_555
H33 C41 1_555 1_555
C42 C28 1_555 1_555
H34 N2 1_555 1_555
C6 C7 1_555 1_555
C13 C14 1_555 1_555
C16 C17 1_555 1_555
C20 C21 1_555 1_555
C25 C27 1_555 1_555
C28 C29 1_555 1_555
C35 C36 1_555 1_555
C37 C42 1_555 1_555
C41 C42 1_555 1_555

#END
