
#######################################################################
#
#                 Cambridge Crystallographic Data Centre
#                                CCDC 
#
#######################################################################
#
# If this CIF has been generated from an entry in the Cambridge 
# Structural Database, then it will include bibliographic, chemical, 
# crystal, experimental, refinement or atomic coordinate data resulting 
# from the CCDC's data processing and validation procedures.
#
#######################################################################

data_QILVEO
_chemical_formula_moiety         'C24 H16 Cl1 N1 O1 S2'
_chemical_name_systematic        
2-(4-Chlorophenyl)-3-(methylsulfanyl)dibenzo[2,3:7,8]thiocino[5,4-b]pyrrol-13(1H)-one
_symmetry_cell_setting           triclinic
_symmetry_space_group_name_H-M   'P -1'
_symmetry_Int_Tables_number      2
_space_group_name_Hall           '-P 1'
loop_
_symmetry_equiv_pos_site_id
_symmetry_equiv_pos_as_xyz
1 x,y,z
2 -x,-y,-z
_cell_length_a                   7.6132(3)
_cell_length_b                   11.2387(4)
_cell_length_c                   12.7129(4)
_cell_angle_alpha                94.482(2)
_cell_angle_beta                 95.013(2)
_cell_angle_gamma                105.512(2)
_cell_volume                     1038.26
_exptl_crystal_colour            colorless
_exptl_crystal_description       block
_cell_formula_units_Z            2
loop_
_atom_site_label
_atom_site_type_symbol
_atom_site_fract_x
_atom_site_fract_y
_atom_site_fract_z
Cl1 Cl 0.6419(2) -0.31458(14) 0.25247(12)
S1 S 0.00464(12) 0.40411(8) 0.36065(7)
C1 C -0.1666(4) 0.1198(3) 0.4014(2)
C2 C -0.2197(4) 0.3353(3) 0.3946(2)
C3 C -0.2813(4) 0.2090(3) 0.4058(2)
C4 C -0.0629(4) 0.3719(3) 0.2214(3)
C5 C -0.0854(4) 0.2530(3) 0.1707(2)
C6 C 0.3518(8) 0.2793(5) 0.0950(5)
C7 C -0.1604(5) 0.2287(4) 0.0637(3)
C8 C -0.4610(5) 0.1612(4) 0.4310(3)
C9 C -0.1776(5) 0.4376(4) 0.0603(3)
C10 C -0.1067(5) 0.4630(4) 0.1651(4)
C11 C -0.3369(5) 0.4104(4) 0.4053(3)
C12 C -0.5761(5) 0.2362(4) 0.4396(3)
C13 C -0.5161(5) 0.3595(4) 0.4264(3)
C14 C -0.2048(5) 0.3205(4) 0.0098(3)
S2 S 0.19816(14) 0.12711(10) 0.05609(7)
N1 N 0.0411(4) 0.0198(3) 0.3259(2)
C15 C 0.1408(4) 0.0147(3) 0.2441(2)
C16 C 0.1027(4) 0.0969(3) 0.1760(2)
C17 C -0.0542(4) 0.1070(3) 0.3174(2)
C18 C 0.2176(5) -0.1783(3) 0.2886(3)
C19 C 0.3341(6) -0.2540(4) 0.2930(3)
C20 C 0.2626(4) -0.0682(3) 0.2419(2)
C21 C -0.0198(4) 0.1561(3) 0.2209(2)
C22 C 0.4272(5) -0.0359(3) 0.1980(3)
C23 C 0.5447(6) -0.1111(4) 0.2022(3)
C24 C 0.4950(5) -0.2190(4) 0.2488(3)
O1 O -0.1753(3) 0.0494(2) 0.47163(19)
H1 H 0.050(4) -0.009(3) 0.375(2)
H2 H -0.178(4) 0.154(3) 0.032(3)
H3 H 0.294(4) -0.331(3) 0.317(2)
H4 H 0.468(4) 0.051(3) 0.169(2)
H5 H -0.491(5) 0.075(4) 0.444(3)
H6 H -0.207(5) 0.506(4) 0.024(3)
H7 H -0.600(5) 0.407(4) 0.429(3)
H8 H -0.268(5) 0.303(3) -0.059(3)
H9 H -0.696(6) 0.205(4) 0.458(3)
H10 H 0.107(4) -0.201(3) 0.315(2)
H11 H 0.641(5) -0.101(3) 0.177(3)
H12 H -0.091(5) 0.535(4) 0.199(3)
H13 H -0.281(5) 0.502(4) 0.396(3)
H14 H 0.460(8) 0.260(5) 0.140(4)
H15 H 0.312(11) 0.362(8) 0.132(7)
H16 H 0.410(7) 0.312(5) 0.046(4)
loop_
_geom_bond_atom_site_label_1
_geom_bond_atom_site_label_2
_geom_bond_site_symmetry_1
_geom_bond_site_symmetry_2
Cl1 C24 1_555 1_555
S1 C2 1_555 1_555
C1 C3 1_555 1_555
C2 C3 1_555 1_555
C3 C8 1_555 1_555
C4 S1 1_555 1_555
C5 C4 1_555 1_555
C6 S2 1_555 1_555
C7 C5 1_555 1_555
C8 C12 1_555 1_555
C9 C10 1_555 1_555
C10 C4 1_555 1_555
C11 C2 1_555 1_555
C12 C13 1_555 1_555
C13 C11 1_555 1_555
C14 C7 1_555 1_555
S2 C16 1_555 1_555
N1 C15 1_555 1_555
C15 C16 1_555 1_555
C16 C21 1_555 1_555
C17 C1 1_555 1_555
C18 C19 1_555 1_555
C19 C24 1_555 1_555
C20 C15 1_555 1_555
C21 C5 1_555 1_555
C22 C20 1_555 1_555
C23 C22 1_555 1_555
C24 C23 1_555 1_555
O1 C1 1_555 1_555
H1 N1 1_555 1_555
H2 C7 1_555 1_555
H3 C19 1_555 1_555
H4 C22 1_555 1_555
H5 C8 1_555 1_555
H6 C9 1_555 1_555
H7 C13 1_555 1_555
H8 C14 1_555 1_555
H9 C12 1_555 1_555
H10 C18 1_555 1_555
H11 C23 1_555 1_555
H12 C10 1_555 1_555
H13 C11 1_555 1_555
H14 C6 1_555 1_555
H15 C6 1_555 1_555
H16 C6 1_555 1_555
C9 C14 1_555 1_555
N1 C17 1_555 1_555
C17 C21 1_555 1_555
C18 C20 1_555 1_555

#END
