
#######################################################################
#
#                 Cambridge Crystallographic Data Centre
#                                CCDC 
#
#######################################################################
#
# If this CIF has been generated from an entry in the Cambridge 
# Structural Database, then it will include bibliographic, chemical, 
# crystal, experimental, refinement or atomic coordinate data resulting 
# from the CCDC's data processing and validation procedures.
#
#######################################################################

data_QILVIS
_chemical_formula_moiety         'C18 H16 N2 O3'
_chemical_name_systematic        
1'-Methyl-2',5-dioxo-1',2',5,6,7,8-hexahydro-4H-spiro[chromene-3,3'-indole]-5'-carbonitrile
_symmetry_cell_setting           monoclinic
_symmetry_space_group_name_H-M   'P 21/c'
_symmetry_Int_Tables_number      14
_space_group_name_Hall           '-P 2ybc'
loop_
_symmetry_equiv_pos_site_id
_symmetry_equiv_pos_as_xyz
1 x,y,z
2 -x,1/2+y,1/2-z
3 -x,-y,-z
4 x,1/2-y,1/2+z
_cell_length_a                   7.543(2)
_cell_length_b                   11.752(3)
_cell_length_c                   17.524(5)
_cell_angle_alpha                90
_cell_angle_beta                 96.534(5)
_cell_angle_gamma                90
_cell_volume                     1543.33
_cell_formula_units_Z            4
loop_
_atom_site_label
_atom_site_type_symbol
_atom_site_fract_x
_atom_site_fract_y
_atom_site_fract_z
N1 N 0.9432(9) 0.5618(6) 1.0795(4)
N2 N 0.2626(7) 0.1952(4) 1.0174(2)
O1 O 0.2058(5) 0.0622(3) 0.9219(2)
O2 O 0.7570(5) 0.1322(3) 0.8916(2)
O3 O 0.4445(7) 0.3915(4) 0.7209(2)
C1 C 0.8259(11) 0.5025(6) 1.0707(4)
C2 C 0.6766(9) 0.4242(5) 1.0583(3)
C3 C 0.5506(9) 0.4213(5) 1.1116(3)
H1 H 0.5639 0.4694 1.1540
C4 C 0.4078(9) 0.3478(5) 1.1015(3)
H2 H 0.3231 0.3466 1.1361
C5 C 0.3934(8) 0.2770(5) 1.0396(3)
C6 C 0.5147(8) 0.2784(4) 0.9849(3)
C7 C 0.6581(8) 0.3519(5) 0.9948(3)
H3 H 0.7413 0.3532 0.9596
C8 C 0.1121(8) 0.1692(5) 1.0603(3)
H4 H 0.0431 0.1084 1.0353
H5 H 0.0383 0.2355 1.0620
H6 H 0.1560 0.1467 1.1116
C9 C 0.2960(8) 0.1402(5) 0.9527(3)
C10 C 0.4628(7) 0.1905(4) 0.9236(3)
C11 C 0.4192(7) 0.2382(4) 0.8424(2)
H7 H 0.3434 0.1850 0.8115
H8 H 0.3545 0.3093 0.8447
C12 C 0.5859(9) 0.2581(5) 0.8061(3)
C13 C 0.5818(11) 0.3396(6) 0.7444(3)
C14 C 0.7490(12) 0.3553(7) 0.7057(5)
H9 H 0.7298 0.3199 0.6555
H10 H 0.7650 0.4361 0.6977
C15 C 0.8995(12) 0.3147(11) 0.7416(4)
H11 H 0.9627 0.3795 0.7659
H12 H 0.9693 0.2889 0.7017
C16 C 0.9113(8) 0.2236(5) 0.8000(4)
H13 H 1.0027 0.2431 0.8414
H14 H 0.9463 0.1531 0.7771
C17 C 0.7379(9) 0.2062(5) 0.8320(3)
C18 C 0.5967(8) 0.0945(5) 0.9208(3)
H15 H 0.6264 0.0639 0.9721
H16 H 0.5431 0.0339 0.8884
loop_
_geom_bond_atom_site_label_1
_geom_bond_atom_site_label_2
_geom_bond_site_symmetry_1
_geom_bond_site_symmetry_2
N1 C1 1_555 1_555
N2 C5 1_555 1_555
O1 C9 1_555 1_555
O2 C17 1_555 1_555
O3 C13 1_555 1_555
C1 C2 1_555 1_555
C2 C3 1_555 1_555
C3 H1 1_555 1_555
C4 C3 1_555 1_555
H2 C4 1_555 1_555
C5 C4 1_555 1_555
C6 C5 1_555 1_555
C7 C2 1_555 1_555
H3 C7 1_555 1_555
C8 N2 1_555 1_555
H4 C8 1_555 1_555
H5 C8 1_555 1_555
H6 C8 1_555 1_555
C9 N2 1_555 1_555
C10 C6 1_555 1_555
C11 C10 1_555 1_555
H7 C11 1_555 1_555
H8 C11 1_555 1_555
C12 C11 1_555 1_555
C13 C12 1_555 1_555
C14 C13 1_555 1_555
H9 C14 1_555 1_555
H10 C14 1_555 1_555
C15 C14 1_555 1_555
H11 C15 1_555 1_555
H12 C15 1_555 1_555
C16 C15 1_555 1_555
H13 C16 1_555 1_555
H14 C16 1_555 1_555
C17 C12 1_555 1_555
C18 O2 1_555 1_555
H15 C18 1_555 1_555
H16 C18 1_555 1_555
C6 C7 1_555 1_555
C9 C10 1_555 1_555
C10 C18 1_555 1_555
C16 C17 1_555 1_555

#END
