
#######################################################################
#
#                 Cambridge Crystallographic Data Centre
#                                CCDC 
#
#######################################################################
#
# If this CIF has been generated from an entry in the Cambridge 
# Structural Database, then it will include bibliographic, chemical, 
# crystal, experimental, refinement or atomic coordinate data resulting 
# from the CCDC's data processing and validation procedures.
#
#######################################################################

data_QILWIU
_chemical_formula_moiety         'C20 H18 N1 O4 1+,C6 H8 O7,Cl1 1-'
_chemical_name_systematic        
'9,10-dimethoxy-5,6-dihydro-2H-[1,3]dioxolo[4,5-g]isoquinolino[3,2-a]isoquinolin-7-ium chloride 2-hydroxypropane-1,2,3-tricarboxylic acid'
_symmetry_cell_setting           orthorhombic
_symmetry_space_group_name_H-M   'P c a 21'
_symmetry_Int_Tables_number      29
_space_group_name_Hall           'P 2c -2ac'
loop_
_symmetry_equiv_pos_site_id
_symmetry_equiv_pos_as_xyz
1 x,y,z
2 -x,-y,1/2+z
3 1/2+x,-y,z
4 1/2-x,y,1/2+z
_cell_length_a                   21.697(3)
_cell_length_b                   12.4317(16)
_cell_length_c                   9.6614(12)
_cell_angle_alpha                90
_cell_angle_beta                 90
_cell_angle_gamma                90
_cell_volume                     2605.98
_exptl_crystal_colour            yellow
_exptl_crystal_description       needle
_cell_formula_units_Z            4
loop_
_atom_site_label
_atom_site_type_symbol
_atom_site_fract_x
_atom_site_fract_y
_atom_site_fract_z
Cl1 Cl 0.08336(8) 0.57905(15) 0.5404(2)
O1 O 0.3986(2) 0.3090(4) 0.7375(5)
O2 O 0.1539(2) 0.8448(4) 0.2195(5)
O3 O 0.3126(2) 0.1982(3) 0.8783(5)
N1 N 0.3504(2) 0.5719(4) 0.5039(5)
O4 O 0.2335(2) 0.9563(4) 0.1549(6)
C1 C 0.2906(3) 0.6094(5) 0.4920(6)
C2 C 0.2938(3) 0.2886(5) 0.8102(8)
C3 C 0.2084(3) 0.8107(5) 0.2786(7)
C4 C 0.3671(3) 0.4904(5) 0.5818(7)
H1 H 0.4091 0.4695 0.5853
C5 C 0.3381(3) 0.3427(5) 0.7405(7)
C6 C 0.3227(3) 0.4335(5) 0.6606(7)
C7 C 0.2785(3) 0.7003(5) 0.3998(7)
C8 C 0.2473(3) 0.5575(5) 0.5686(8)
H2 H 0.2061 0.5831 0.5651
C9 C 0.2602(3) 0.4690(5) 0.6521(7)
C10 C 0.2174(3) 0.7228(5) 0.3588(7)
H3 H 0.1841 0.6782 0.3863
C11 C 0.2559(3) 0.8761(5) 0.2371(8)
C12 C 0.3904(3) 0.7403(5) 0.4027(8)
H4 H 0.3982 0.7731 0.4944
H5 H 0.4205 0.7706 0.3362
C13 C 0.2159(3) 0.4108(5) 0.7269(7)
H6 H 0.1740 0.4328 0.7238
C14 C 0.2321(3) 0.3228(5) 0.8043(8)
H7 H 0.2014 0.2846 0.8543
C15 C 0.3987(3) 0.6202(5) 0.4116(8)
H8 H 0.3955 0.5884 0.3180
H9 H 0.4401 0.6036 0.4488
C16 C 0.3260(3) 0.7668(5) 0.3562(7)
C17 C 0.3152(3) 0.8570(5) 0.2745(7)
H10 H 0.3478 0.9031 0.2463
C18 C 0.4314(3) 0.3112(6) 0.8667(8)
H11 H 0.4747 0.2929 0.8507
H12 H 0.4131 0.2590 0.9306
H13 H 0.4287 0.3834 0.9069
C19 C 0.1673(3) 0.9483(6) 0.1602(9)
H14 H 0.1499 1.0064 0.2182
H15 H 0.1496 0.9539 0.0660
C20 C 0.2684(3) 0.1386(6) 0.9582(8)
H16 H 0.2346 0.1153 0.8981
H17 H 0.2521 0.1845 1.0321
H18 H 0.2885 0.0755 0.9990
O5 O 0.38863(19) 0.1752(4) 0.5180(5)
O6 O 0.50195(18) 0.2238(3) 0.5490(5)
H19 H 0.5274 0.2746 0.5432
O7 O 0.4242(2) 0.3706(4) 0.3370(5)
O8 O 0.5812(2) -0.0215(4) 0.5696(6)
H20 H 0.5781 -0.0516 0.6471
O9 O 0.3999(2) 0.1097(4) 0.3081(5)
O10 O 0.4929(2) 0.4091(4) 0.1711(5)
H21 H 0.4695 0.4617 0.1567
O11 O 0.4784(2) -0.0312(4) 0.5683(6)
C21 C 0.4914(3) 0.1806(5) 0.4165(7)
C22 C 0.4702(3) 0.3493(6) 0.2751(7)
C23 C 0.5257(3) 0.0035(6) 0.5235(8)
C24 C 0.5095(3) 0.2517(5) 0.2952(7)
H22 H 0.5527 0.2752 0.3085
H23 H 0.5080 0.2081 0.2096
C25 C 0.4224(3) 0.1525(6) 0.4113(8)
C26 C 0.5301(3) 0.0760(5) 0.4030(7)
H24 H 0.5164 0.0365 0.3195
H25 H 0.5739 0.0959 0.3893
H26 H 0.4058(19) 0.211(3) 0.581(3)
loop_
_geom_bond_atom_site_label_1
_geom_bond_atom_site_label_2
_geom_bond_site_symmetry_1
_geom_bond_site_symmetry_2
O1 C5 1_555 1_555
O2 C3 1_555 1_555
O3 C2 1_555 1_555
N1 C1 1_555 1_555
O4 C11 1_555 1_555
C1 C7 1_555 1_555
C2 C5 1_555 1_555
C3 C10 1_555 1_555
C4 N1 1_555 1_555
H1 C4 1_555 1_555
C5 C6 1_555 1_555
C6 C4 1_555 1_555
C7 C10 1_555 1_555
C8 C1 1_555 1_555
H2 C8 1_555 1_555
C9 C6 1_555 1_555
C10 H3 1_555 1_555
C11 C3 1_555 1_555
C12 H4 1_555 1_555
H5 C12 1_555 1_555
C13 C9 1_555 1_555
H6 C13 1_555 1_555
C14 C2 1_555 1_555
H7 C14 1_555 1_555
C15 N1 1_555 1_555
H8 C15 1_555 1_555
H9 C15 1_555 1_555
C16 C7 1_555 1_555
C17 C11 1_555 1_555
H10 C17 1_555 1_555
C18 O1 1_555 1_555
H11 C18 1_555 1_555
H12 C18 1_555 1_555
H13 C18 1_555 1_555
C19 O2 1_555 1_555
H14 C19 1_555 1_555
H15 C19 1_555 1_555
C20 O3 1_555 1_555
H16 C20 1_555 1_555
H17 C20 1_555 1_555
H18 C20 1_555 1_555
O5 C25 1_555 1_555
O6 H19 1_555 1_555
O7 C22 1_555 1_555
O8 H20 1_555 1_555
O9 C25 1_555 1_555
O10 H21 1_555 1_555
O11 C23 1_555 1_555
C21 O6 1_555 1_555
C22 O10 1_555 1_555
C23 O8 1_555 1_555
C24 C21 1_555 1_555
H22 C24 1_555 1_555
H23 C24 1_555 1_555
C25 C21 1_555 1_555
C26 C21 1_555 1_555
H24 C26 1_555 1_555
H25 C26 1_555 1_555
H26 O5 1_555 1_555
O4 C19 1_555 1_555
C8 C9 1_555 1_555
C12 C15 1_555 1_555
C12 C16 1_555 1_555
C13 C14 1_555 1_555
C16 C17 1_555 1_555
C22 C24 1_555 1_555
C23 C26 1_555 1_555

#END
