
#######################################################################
#
#                 Cambridge Crystallographic Data Centre
#                                CCDC 
#
#######################################################################
#
# If this CIF has been generated from an entry in the Cambridge 
# Structural Database, then it will include bibliographic, chemical, 
# crystal, experimental, refinement or atomic coordinate data resulting 
# from the CCDC's data processing and validation procedures.
#
#######################################################################

data_QILWUF
_chemical_formula_moiety         'C51 H61 N2 O13 1+,F6 P1 1-'
_chemical_name_systematic        
'N-(4-((6-(4-(((2,3,5,6,8,9,11,12,14,15,17,18-Dodecahydro-1,4,7,10,13,16,19-benzoheptaoxacyclohenicosin-21-ylcarbonyl)oxy)methyl)phenoxy)hexa-2,4-diyn-1-yl)oxy)benzyl)-5-((phenylcarbamoyl)oxy)pentan-1-aminium hexafluorophosphate unknown solvate'
_symmetry_cell_setting           triclinic
_symmetry_space_group_name_H-M   'P -1'
_symmetry_Int_Tables_number      2
_space_group_name_Hall           '-P 1'
loop_
_symmetry_equiv_pos_site_id
_symmetry_equiv_pos_as_xyz
1 x,y,z
2 -x,-y,-z
_cell_length_a                   12.7853(4)
_cell_length_b                   13.9375(5)
_cell_length_c                   17.3593(5)
_cell_angle_alpha                72.293(3)
_cell_angle_beta                 70.801(3)
_cell_angle_gamma                73.133(3)
_cell_volume                     2720.04
_exptl_crystal_colour            colorless
_exptl_crystal_description       block
_cell_formula_units_Z            2
loop_
_atom_site_label
_atom_site_type_symbol
_atom_site_fract_x
_atom_site_fract_y
_atom_site_fract_z
P1 P 0.29011(10) -0.32353(8) 0.30994(7)
F1 F 0.2196(3) -0.3583(6) 0.3981(2)
F2 F 0.1779(2) -0.2734(2) 0.27873(19)
F3 F 0.3022(5) -0.4241(2) 0.2854(4)
F4 F 0.4005(2) -0.37307(19) 0.34287(18)
F5 F 0.3661(3) -0.2791(3) 0.2212(2)
F6 F 0.2877(4) -0.2195(3) 0.3281(4)
O1 O 0.4155(3) 0.2094(2) 0.3984(2)
O2 O 0.2962(3) 0.3571(2) 0.4248(2)
O3 O 0.0996(2) 0.27079(18) -0.06865(14)
O4 O -0.3278(2) -0.0578(2) -0.08746(16)
O5 O -0.3543(2) -0.1783(2) 0.29448(17)
O6 O -0.4793(2) -0.0463(2) 0.3436(2)
O7 O -0.0308(2) 0.01869(19) 0.38083(16)
O8 O 0.1784(2) 0.10137(19) 0.30874(16)
O9 O 0.2249(3) 0.3056(2) 0.24868(18)
O10 O 0.0453(3) 0.4829(2) 0.23768(17)
O11 O -0.1883(3) 0.4993(2) 0.34048(18)
O12 O -0.3249(3) 0.3348(2) 0.41640(17)
O13 O -0.2406(2) 0.1112(2) 0.43551(16)
N1 N 0.4387(3) 0.3672(3) 0.3128(2)
H1 H 0.4074 0.4332 0.3080
N2 N -0.0071(3) 0.2787(2) 0.31984(17)
H2 H 0.0584 0.2304 0.3071
H3 H 0.0114 0.3425 0.3010
C1 C 0.5847(5) 0.2445(7) 0.2396(4)
H4 H 0.5525 0.1881 0.2760
C2 C 0.6812(6) 0.2275(8) 0.1757(4)
H5 H 0.7150 0.1594 0.1684
C3 C 0.7289(6) 0.3083(8) 0.1223(4)
H6 H 0.7953 0.2955 0.0784
C4 C 0.6828(6) 0.4050(8) 0.1318(5)
H7 H 0.7160 0.4607 0.0952
C5 C 0.5835(5) 0.4222(7) 0.1973(4)
H8 H 0.5498 0.4904 0.2043
C6 C 0.5351(4) 0.3422(6) 0.2510(3)
C7 C 0.3863(4) 0.3015(4) 0.3805(3)
C8 C 0.2298(5) 0.3032(4) 0.5021(3)
H9 H 0.2566 0.3015 0.5499
H10 H 0.2378 0.2313 0.4995
C9 C 0.1115(4) 0.3572(3) 0.5131(3)
H11 H 0.1079 0.4294 0.5123
H12 H 0.0690 0.3262 0.5699
C10 C 0.0471(5) 0.3603(3) 0.4515(3)
H13 H -0.0276 0.4080 0.4629
H14 H 0.0901 0.3870 0.3936
C11 C 0.0306(5) 0.2572(3) 0.4588(3)
H15 H 0.0038 0.2245 0.5190
H16 H 0.1046 0.2143 0.4359
C12 C -0.0548(4) 0.2581(3) 0.4129(2)
H17 H -0.0773 0.1906 0.4330
H18 H -0.1237 0.3116 0.4269
C13 C -0.0877(3) 0.2759(3) 0.2748(2)
H19 H -0.1497 0.3380 0.2771
H20 H -0.1217 0.2148 0.3038
C14 C -0.0312(3) 0.2719(3) 0.1849(2)
C15 C -0.0093(3) 0.1817(3) 0.1594(2)
H21 H -0.0242 0.1206 0.2004
C16 C 0.0336(3) 0.1778(3) 0.0759(2)
H22 H 0.0460 0.1151 0.0600
C17 C 0.0585(3) 0.2647(3) 0.0159(2)
C18 C 0.0417(3) 0.3554(3) 0.0401(2)
H23 H 0.0616 0.4151 -0.0005
C19 C -0.0042(4) 0.3585(3) 0.1237(2)
H24 H -0.0176 0.4214 0.1396
C20 C 0.1260(3) 0.1784(3) -0.0966(2)
H25 H 0.1661 0.1217 -0.0592
H26 H 0.1780 0.1875 -0.1538
C21 C 0.0250(3) 0.1493(3) -0.0981(2)
C22 C -0.0545(3) 0.1260(3) -0.1033(2)
C23 C -0.1462(3) 0.0987(3) -0.1101(2)
C24 C -0.2241(3) 0.0744(3) -0.1166(2)
C25 C -0.3197(3) 0.0475(3) -0.1284(3)
H27 H -0.3909 0.0939 -0.1057
H28 H -0.3105 0.0582 -0.1891
C26 C -0.3586(3) -0.0832(3) -0.0018(2)
C27 C -0.3581(3) -0.1868(3) 0.0336(3)
H29 H -0.3389 -0.2337 -0.0012
C28 C -0.3857(3) -0.2214(3) 0.1196(3)
H30 H -0.3847 -0.2926 0.1433
C29 C -0.4149(3) -0.1550(3) 0.1724(2)
C30 C -0.4175(3) -0.0500(3) 0.1352(2)
H31 H -0.4393 -0.0025 0.1698
C31 C -0.3891(3) -0.0147(3) 0.0493(2)
H32 H -0.3904 0.0565 0.0251
C32 C -0.4414(3) -0.1936(3) 0.2652(2)
H33 H -0.5167 -0.1555 0.2917
H34 H -0.4431 -0.2677 0.2805
C33 C -0.3849(4) -0.0970(3) 0.3281(2)
C34 C -0.2879(3) -0.0720(3) 0.3436(2)
C35 C -0.1756(3) -0.1225(3) 0.3137(2)
H35 H -0.1599 -0.1755 0.2851
C36 C -0.0874(3) -0.0944(3) 0.3261(2)
H36 H -0.0114 -0.1291 0.3067
C37 C -0.1101(3) -0.0158(3) 0.3666(2)
C38 C -0.2206(3) 0.0328(3) 0.3965(2)
C39 C -0.3101(3) 0.0034(3) 0.3843(2)
H37 H -0.3863 0.0369 0.4048
C40 C 0.0856(3) -0.0376(3) 0.3564(3)
H38 H 0.1066 -0.0379 0.2962
H39 H 0.0923 -0.1099 0.3891
C41 C 0.1633(3) 0.0109(3) 0.3715(3)
H40 H 0.1314 0.0278 0.4272
H41 H 0.2373 -0.0376 0.3710
C42 C 0.2891(4) 0.1252(3) 0.2906(3)
H42 H 0.3498 0.0664 0.2744
H43 H 0.2979 0.1377 0.3411
C43 C 0.2978(4) 0.2190(4) 0.2207(3)
H44 H 0.3768 0.2288 0.2006
H45 H 0.2772 0.2103 0.1734
C44 C 0.2339(5) 0.3981(4) 0.1861(3)
H46 H 0.2114 0.3949 0.1377
H47 H 0.3136 0.4060 0.1663
C45 C 0.1601(5) 0.4881(4) 0.2197(3)
H48 H 0.1773 0.4878 0.2714
H49 H 0.1743 0.5527 0.1781
C46 C -0.0301(6) 0.5750(3) 0.2634(3)
H50 H -0.0081 0.6369 0.2213
H51 H -0.0222 0.5771 0.3177
C47 C -0.1503(5) 0.5767(3) 0.2721(3)
H52 H -0.1979 0.6447 0.2804
H53 H -0.1570 0.5660 0.2202
C48 C -0.3101(5) 0.5116(4) 0.3585(3)
H54 H -0.3289 0.5041 0.3099
H55 H -0.3482 0.5816 0.3675
C49 C -0.3527(5) 0.4332(3) 0.4347(3)
H56 H -0.3186 0.4291 0.4795
H57 H -0.4359 0.4544 0.4553
C50 C -0.3588(4) 0.2567(3) 0.4891(2)
H58 H -0.4364 0.2823 0.5217
H59 H -0.3068 0.2386 0.5252
C51 C -0.3559(4) 0.1633(3) 0.4617(3)
H60 H -0.3987 0.1166 0.5087
H61 H -0.3916 0.1844 0.4148
loop_
_geom_bond_atom_site_label_1
_geom_bond_atom_site_label_2
_geom_bond_site_symmetry_1
_geom_bond_site_symmetry_2
P1 F1 1_555 1_555
F2 P1 1_555 1_555
F3 P1 1_555 1_555
F4 P1 1_555 1_555
F5 P1 1_555 1_555
F6 P1 1_555 1_555
O1 C7 1_555 1_555
O2 C7 1_555 1_555
O3 C17 1_555 1_555
O4 C25 1_555 1_555
O5 C32 1_555 1_555
O6 C33 1_555 1_555
O7 C37 1_555 1_555
O8 C41 1_555 1_555
O9 C43 1_555 1_555
O10 C45 1_555 1_555
O11 C47 1_555 1_555
O12 C49 1_555 1_555
O13 C38 1_555 1_555
N1 H1 1_555 1_555
N2 H2 1_555 1_555
H3 N2 1_555 1_555
C1 H4 1_555 1_555
C2 C1 1_555 1_555
H5 C2 1_555 1_555
C3 C2 1_555 1_555
H6 C3 1_555 1_555
C4 C3 1_555 1_555
H7 C4 1_555 1_555
C5 C4 1_555 1_555
H8 C5 1_555 1_555
C6 N1 1_555 1_555
C7 N1 1_555 1_555
C8 O2 1_555 1_555
H9 C8 1_555 1_555
H10 C8 1_555 1_555
C9 C8 1_555 1_555
H11 C9 1_555 1_555
H12 C9 1_555 1_555
C10 C9 1_555 1_555
H13 C10 1_555 1_555
H14 C10 1_555 1_555
C11 C10 1_555 1_555
H15 C11 1_555 1_555
H16 C11 1_555 1_555
C12 N2 1_555 1_555
H17 C12 1_555 1_555
H18 C12 1_555 1_555
C13 N2 1_555 1_555
H19 C13 1_555 1_555
H20 C13 1_555 1_555
C14 C13 1_555 1_555
C15 C14 1_555 1_555
H21 C15 1_555 1_555
C16 C15 1_555 1_555
H22 C16 1_555 1_555
C17 C16 1_555 1_555
C18 C17 1_555 1_555
H23 C18 1_555 1_555
C19 C14 1_555 1_555
H24 C19 1_555 1_555
C20 O3 1_555 1_555
H25 C20 1_555 1_555
H26 C20 1_555 1_555
C21 C20 1_555 1_555
C22 C21 1_555 1_555
C23 C22 1_555 1_555
C24 C23 1_555 1_555
C25 C24 1_555 1_555
H27 C25 1_555 1_555
H28 C25 1_555 1_555
C26 O4 1_555 1_555
C27 C26 1_555 1_555
H29 C27 1_555 1_555
C28 C27 1_555 1_555
H30 C28 1_555 1_555
C29 C28 1_555 1_555
C30 C29 1_555 1_555
H31 C30 1_555 1_555
C31 C26 1_555 1_555
H32 C31 1_555 1_555
C32 C29 1_555 1_555
H33 C32 1_555 1_555
H34 C32 1_555 1_555
C33 O5 1_555 1_555
C34 C33 1_555 1_555
C35 C34 1_555 1_555
H35 C35 1_555 1_555
C36 C35 1_555 1_555
H36 C36 1_555 1_555
C37 C36 1_555 1_555
C38 C37 1_555 1_555
C39 C34 1_555 1_555
H37 C39 1_555 1_555
C40 O7 1_555 1_555
H38 C40 1_555 1_555
H39 C40 1_555 1_555
C41 C40 1_555 1_555
H40 C41 1_555 1_555
H41 C41 1_555 1_555
C42 O8 1_555 1_555
H42 C42 1_555 1_555
H43 C42 1_555 1_555
C43 C42 1_555 1_555
H44 C43 1_555 1_555
H45 C43 1_555 1_555
C44 O9 1_555 1_555
H46 C44 1_555 1_555
H47 C44 1_555 1_555
C45 C44 1_555 1_555
H48 C45 1_555 1_555
H49 C45 1_555 1_555
C46 O10 1_555 1_555
H50 C46 1_555 1_555
H51 C46 1_555 1_555
C47 C46 1_555 1_555
H52 C47 1_555 1_555
H53 C47 1_555 1_555
C48 O11 1_555 1_555
H54 C48 1_555 1_555
H55 C48 1_555 1_555
C49 C48 1_555 1_555
H56 C49 1_555 1_555
H57 C49 1_555 1_555
C50 O12 1_555 1_555
H58 C50 1_555 1_555
H59 C50 1_555 1_555
C51 O13 1_555 1_555
H60 C51 1_555 1_555
H61 C51 1_555 1_555
C1 C6 1_555 1_555
C5 C6 1_555 1_555
C11 C12 1_555 1_555
C18 C19 1_555 1_555
C30 C31 1_555 1_555
C38 C39 1_555 1_555
C50 C51 1_555 1_555

#END
