
#######################################################################
#
#                 Cambridge Crystallographic Data Centre
#                                CCDC 
#
#######################################################################
#
# If this CIF has been generated from an entry in the Cambridge 
# Structural Database, then it will include bibliographic, chemical, 
# crystal, experimental, refinement or atomic coordinate data resulting 
# from the CCDC's data processing and validation procedures.
#
#######################################################################

data_QILXOA
_chemical_formula_moiety         'C36 H32 Br2 F3 N3 O7'
_chemical_name_systematic        
"Diethyl 2-bromo-11-(4-bromophenyl)-5-(4-methoxybenzyl)-6-oxo-12b-(trifluoromethyl)-5,8,8a,11a,12,12b-hexahydro-6H-[1,2]oxazolo[5'',4'':3',4']cyclopenta[1',2':3,4]pyrrolo[1,2-c]quinazoline-8b,12a-dicarboxylate"
_symmetry_cell_setting           triclinic
_symmetry_space_group_name_H-M   'P -1'
_symmetry_Int_Tables_number      2
_space_group_name_Hall           '-P 1'
loop_
_symmetry_equiv_pos_site_id
_symmetry_equiv_pos_as_xyz
1 x,y,z
2 -x,-y,-z
_cell_length_a                   11.216(6)
_cell_length_b                   16.253(10)
_cell_length_c                   20.844(13)
_cell_angle_alpha                83.508(12)
_cell_angle_beta                 82.179(16)
_cell_angle_gamma                78.671(12)
_cell_volume                     3676.43
_exptl_crystal_colour            colorless
_exptl_crystal_description       BLOCK
_cell_formula_units_Z            4
loop_
_atom_site_label
_atom_site_type_symbol
_atom_site_fract_x
_atom_site_fract_y
_atom_site_fract_z
C1 C 0.8115(6) 0.3402(5) 0.1221(3)
C2 C 0.7383(7) 0.4190(5) 0.1245(4)
H1 H 0.7426 0.4595 0.0895
C3 C 0.6590(6) 0.4364(4) 0.1797(4)
H2 H 0.6093 0.4894 0.1812
C4 C 0.6505(6) 0.3783(4) 0.2329(3)
C5 C 0.7241(7) 0.2992(5) 0.2297(4)
H3 H 0.7196 0.2584 0.2646
C6 C 0.8037(8) 0.2812(5) 0.1746(4)
H4 H 0.8533 0.2282 0.1729
C7 C 0.5620(6) 0.3992(4) 0.2897(3)
C8 C 0.4515(5) 0.4687(4) 0.2898(3)
H5 H 0.4749 0.5240 0.2785
C9 C 0.3564(5) 0.4547(4) 0.2468(3)
H6 H 0.3964 0.4241 0.2100
H7 H 0.3099 0.5080 0.2308
C10 C 0.2723(5) 0.4025(4) 0.2922(3)
C11 C 0.1378(6) 0.4261(4) 0.2734(3)
C12 C 0.1266(5) 0.4406(4) 0.2009(3)
C13 C 0.1972(5) 0.3902(4) 0.1566(3)
H8 H 0.2543 0.3444 0.1708
C14 C 0.1854(6) 0.4058(4) 0.0915(3)
C15 C 0.1011(6) 0.4735(4) 0.0691(3)
H9 H 0.0948 0.4850 0.0248
C16 C 0.0266(6) 0.5239(4) 0.1132(3)
H10 H -0.0327 0.5679 0.0988
C17 C 0.0399(5) 0.5091(4) 0.1795(3)
C18 C 0.0045(6) 0.5674(5) 0.2839(3)
C19 C 0.1610(6) 0.5160(4) 0.3575(3)
H11 H 0.1075 0.5162 0.3982
H12 H 0.1922 0.5683 0.3500
C20 C 0.2670(6) 0.4396(4) 0.3588(3)
H13 H 0.2495 0.3980 0.3949
C21 C 0.3934(6) 0.4599(4) 0.3594(3)
C22 C 0.3998(7) 0.5310(4) 0.3997(3)
C23 C 0.3243(8) 0.5972(5) 0.4966(4)
H14 H 0.3998 0.5858 0.5165
H15 H 0.3184 0.6517 0.4717
C24 C 0.2222(12) 0.5978(9) 0.5457(6)
H16 H 0.1477 0.6101 0.5256
H17 H 0.2217 0.6401 0.5744
H18 H 0.2284 0.5436 0.5700
C25 C 0.3300(6) 0.3081(4) 0.2927(3)
C26 C 0.3498(9) 0.1725(5) 0.3546(4)
H19 H 0.3145 0.1470 0.3236
H20 H 0.4382 0.1604 0.3448
C27 C 0.3142(13) 0.1384(6) 0.4202(5)
H21 H 0.3569 0.1590 0.4501
H22 H 0.3345 0.0780 0.4228
H23 H 0.2275 0.1556 0.4311
C28 C 0.0552(7) 0.3616(5) 0.3046(3)
C29 C -0.1366(6) 0.6283(5) 0.2028(3)
H24 H -0.1886 0.6483 0.2412
H25 H -0.1852 0.6026 0.1786
C30 C -0.0976(6) 0.7019(5) 0.1619(4)
C31 C -0.1538(7) 0.7372(5) 0.1075(4)
H26 H -0.2167 0.7134 0.0968
C32 C -0.1230(8) 0.8040(6) 0.0690(5)
H27 H -0.1638 0.8268 0.0333
C33 C -0.0254(9) 0.8379(6) 0.0857(5)
C34 C 0.0329(8) 0.8028(6) 0.1389(5)
H28 H 0.0981 0.8246 0.1491
C35 C -0.0033(7) 0.7378(6) 0.1762(4)
H29 H 0.0358 0.7162 0.2127
C36 C 0.1005(14) 0.9408(11) 0.0612(9)
H30 H 0.1259 0.9141 0.1019
H31 H 0.0730 1.0001 0.0648
H32 H 0.1682 0.9323 0.0276
Br1 Br 0.91698(8) 0.31087(6) 0.04570(4)
Br2 Br 0.29157(7) 0.33794(5) 0.03190(3)
F1 F 0.0909(4) 0.2868(3) 0.2815(2)
F2 F 0.0544(4) 0.3504(3) 0.36980(19)
F3 F -0.0603(4) 0.3908(3) 0.2932(2)
N1 N 0.5719(5) 0.3552(3) 0.3443(3)
N2 N 0.0953(5) 0.5053(3) 0.3031(2)
N3 N -0.0332(5) 0.5631(4) 0.2238(3)
O1 O 0.4709(4) 0.3853(3) 0.3905(2)
O2 O -0.0384(4) 0.6267(3) 0.3168(2)
O3 O 0.4699(5) 0.5789(3) 0.3847(3)
O4 O 0.3240(4) 0.5319(3) 0.4541(2)
O5 O 0.3901(5) 0.2766(3) 0.2467(2)
O6 O 0.3050(4) 0.2651(3) 0.3499(2)
O7 O 0.0044(7) 0.9056(5) 0.0456(4)
C37 C 0.4180(9) -0.1057(6) 0.9329(5)
C38 C 0.3583(9) -0.0207(6) 0.9270(5)
H33 H 0.3359 0.0093 0.9636
C39 C 0.3338(8) 0.0170(6) 0.8676(4)
H34 H 0.2913 0.0722 0.8645
C40 C 0.3696(7) -0.0234(5) 0.8121(4)
C41 C 0.4311(7) -0.1067(5) 0.8183(4)
H35 H 0.4565 -0.1353 0.7812
C42 C 0.4553(8) -0.1474(6) 0.8776(5)
H36 H 0.4966 -0.2030 0.8806
C43 C 0.3463(6) 0.0207(5) 0.7485(4)
C44 C 0.2376(6) 0.0903(4) 0.7349(3)
H37 H 0.2331 0.1381 0.7604
C45 C 0.1155(6) 0.0583(4) 0.7440(3)
H38 H 0.0487 0.1017 0.7594
H39 H 0.1188 0.0092 0.7753
C46 C 0.0975(6) 0.0352(4) 0.6758(3)
C47 C -0.0393(7) 0.0568(4) 0.6652(3)
C48 C -0.1336(6) 0.0359(4) 0.7220(4)
C49 C -0.1168(7) -0.0404(4) 0.7613(4)
H40 H -0.0452 -0.0796 0.7535
C50 C -0.2040(8) -0.0582(5) 0.8110(4)
C51 C -0.3105(8) -0.0013(5) 0.8229(4)
H41 H -0.3695 -0.0134 0.8567
C52 C -0.3296(7) 0.0739(5) 0.7847(4)
H42 H -0.4020 0.1123 0.7931
C53 C -0.2434(7) 0.0937(4) 0.7342(4)
C54 C -0.1657(7) 0.2014(5) 0.6571(4)
C55 C 0.0533(6) 0.1771(4) 0.6226(4)
H43 H 0.0656 0.2223 0.6462
H44 H 0.0495 0.1977 0.5773
C56 C 0.1581(6) 0.1000(4) 0.6294(3)
H45 H 0.1885 0.0781 0.5871
C57 C 0.2633(6) 0.1144(4) 0.6633(3)
C58 C 0.2998(6) 0.2013(5) 0.6445(5)
C59 C 0.3299(13) 0.3063(8) 0.5570(7)
H46 H 0.3584 0.3318 0.5906
H47 H 0.3930 0.3016 0.5202
C60 C 0.2187(17) 0.3569(8) 0.5377(6)
H48 H 0.1808 0.3252 0.5129
H49 H 0.2368 0.4065 0.5116
H50 H 0.1641 0.3730 0.5756
C61 C 0.1627(7) -0.0570(5) 0.6689(4)
C62 C 0.2776(11) -0.1555(6) 0.5978(5)
H51 H 0.3388 -0.1736 0.6277
H52 H 0.2206 -0.1943 0.6049
C63 C 0.3345(15) -0.1536(8) 0.5323(6)
H53 H 0.2726 -0.1428 0.5032
H54 H 0.3866 -0.2069 0.5251
H55 H 0.3824 -0.1099 0.5244
C64 C -0.0670(10) 0.0173(6) 0.6061(5)
C65 C -0.3802(6) 0.2280(4) 0.7021(4)
H56 H -0.4453 0.1961 0.7037
H57 H -0.3855 0.2686 0.6642
C66 C -0.4001(7) 0.2752(4) 0.7628(4)
C67 C -0.5171(7) 0.2969(5) 0.7974(5)
H58 H -0.5836 0.2812 0.7830
C68 C -0.5357(7) 0.3402(5) 0.8511(5)
H59 H -0.6146 0.3553 0.8719
C69 C -0.4376(7) 0.3620(5) 0.8752(4)
C70 C -0.3219(7) 0.3417(5) 0.8424(4)
H60 H -0.2555 0.3567 0.8576
C71 C -0.3043(7) 0.2989(5) 0.7869(5)
H61 H -0.2257 0.2858 0.7652
C72 C -0.3696(9) 0.4172(8) 0.9612(6)
H62 H -0.3506 0.3702 0.9927
H63 H -0.3934 0.4681 0.9828
H64 H -0.2989 0.4212 0.9303
Br3 Br 0.45297(14) -0.15882(9) 1.01593(6)
Br4 Br -0.17616(10) -0.16093(6) 0.86424(6)
F4 F 0.0021(5) 0.0395(3) 0.5524(2)
F5 F -0.0450(5) -0.0677(3) 0.6137(3)
F6 F -0.1836(5) 0.0417(3) 0.5948(3)
N4 N 0.4188(6) 0.0026(4) 0.6967(3)
N5 N -0.0586(5) 0.1471(3) 0.6500(3)
N6 N -0.2619(5) 0.1703(3) 0.6947(3)
O8 O 0.3750(4) 0.0537(3) 0.6417(2)
O9 O -0.1773(5) 0.2744(3) 0.6315(3)
O10 O 0.3212(5) 0.2427(4) 0.6845(3)
O11 O 0.3037(6) 0.2229(4) 0.5819(3)
O12 O 0.1704(5) -0.1112(3) 0.7133(3)
O13 O 0.2119(5) -0.0685(3) 0.6083(3)
O14 O -0.4669(5) 0.4057(4) 0.9287(3)
loop_
_geom_bond_atom_site_label_1
_geom_bond_atom_site_label_2
_geom_bond_site_symmetry_1
_geom_bond_site_symmetry_2
C1 C2 1_555 1_555
C2 H1 1_555 1_555
C3 C2 1_555 1_555
H2 C3 1_555 1_555
C4 C3 1_555 1_555
C5 C4 1_555 1_555
H3 C5 1_555 1_555
C6 C1 1_555 1_555
H4 C6 1_555 1_555
C7 C4 1_555 1_555
C8 C7 1_555 1_555
H5 C8 1_555 1_555
C9 C8 1_555 1_555
H6 C9 1_555 1_555
H7 C9 1_555 1_555
C10 C9 1_555 1_555
C11 C10 1_555 1_555
C12 C11 1_555 1_555
C13 C12 1_555 1_555
H8 C13 1_555 1_555
C14 C13 1_555 1_555
C15 C14 1_555 1_555
H9 C15 1_555 1_555
C16 C15 1_555 1_555
H10 C16 1_555 1_555
C17 C12 1_555 1_555
C18 N2 1_555 1_555
C19 H11 1_555 1_555
H12 C19 1_555 1_555
C20 C10 1_555 1_555
H13 C20 1_555 1_555
C21 C8 1_555 1_555
C22 C21 1_555 1_555
C23 H14 1_555 1_555
H15 C23 1_555 1_555
C24 C23 1_555 1_555
H16 C24 1_555 1_555
H17 C24 1_555 1_555
H18 C24 1_555 1_555
C25 C10 1_555 1_555
C26 H19 1_555 1_555
H20 C26 1_555 1_555
C27 C26 1_555 1_555
H21 C27 1_555 1_555
H22 C27 1_555 1_555
H23 C27 1_555 1_555
C28 C11 1_555 1_555
C29 H24 1_555 1_555
H25 C29 1_555 1_555
C30 C29 1_555 1_555
C31 C30 1_555 1_555
H26 C31 1_555 1_555
C32 C31 1_555 1_555
H27 C32 1_555 1_555
C33 C32 1_555 1_555
C34 C33 1_555 1_555
H28 C34 1_555 1_555
C35 C30 1_555 1_555
H29 C35 1_555 1_555
C36 H30 1_555 1_555
H31 C36 1_555 1_555
H32 C36 1_555 1_555
Br1 C1 1_555 1_555
Br2 C14 1_555 1_555
F1 C28 1_555 1_555
F2 C28 1_555 1_555
F3 C28 1_555 1_555
N1 C7 1_555 1_555
N2 C11 1_555 1_555
N3 C17 1_555 1_555
O1 C21 1_555 1_555
O2 C18 1_555 1_555
O3 C22 1_555 1_555
O4 C22 1_555 1_555
O5 C25 1_555 1_555
O6 C25 1_555 1_555
O7 C33 1_555 1_555
C37 C38 1_555 1_555
C38 H33 1_555 1_555
C39 C38 1_555 1_555
H34 C39 1_555 1_555
C40 C39 1_555 1_555
C41 C40 1_555 1_555
H35 C41 1_555 1_555
C42 C37 1_555 1_555
H36 C42 1_555 1_555
C43 C40 1_555 1_555
C44 C43 1_555 1_555
H37 C44 1_555 1_555
C45 C44 1_555 1_555
H38 C45 1_555 1_555
H39 C45 1_555 1_555
C46 C45 1_555 1_555
C47 C46 1_555 1_555
C48 C47 1_555 1_555
C49 C48 1_555 1_555
H40 C49 1_555 1_555
C50 C49 1_555 1_555
C51 C50 1_555 1_555
H41 C51 1_555 1_555
C52 C51 1_555 1_555
H42 C52 1_555 1_555
C53 C48 1_555 1_555
C54 N5 1_555 1_555
C55 H43 1_555 1_555
H44 C55 1_555 1_555
C56 C46 1_555 1_555
H45 C56 1_555 1_555
C57 C44 1_555 1_555
C58 C57 1_555 1_555
C59 H46 1_555 1_555
H47 C59 1_555 1_555
C60 C59 1_555 1_555
H48 C60 1_555 1_555
H49 C60 1_555 1_555
H50 C60 1_555 1_555
C61 C46 1_555 1_555
C62 H51 1_555 1_555
H52 C62 1_555 1_555
C63 C62 1_555 1_555
H53 C63 1_555 1_555
H54 C63 1_555 1_555
H55 C63 1_555 1_555
C64 C47 1_555 1_555
C65 H56 1_555 1_555
H57 C65 1_555 1_555
C66 C65 1_555 1_555
C67 C66 1_555 1_555
H58 C67 1_555 1_555
C68 C67 1_555 1_555
H59 C68 1_555 1_555
C69 C68 1_555 1_555
C70 C69 1_555 1_555
H60 C70 1_555 1_555
C71 C66 1_555 1_555
H61 C71 1_555 1_555
C72 H62 1_555 1_555
H63 C72 1_555 1_555
H64 C72 1_555 1_555
Br3 C37 1_555 1_555
Br4 C50 1_555 1_555
F4 C64 1_555 1_555
F5 C64 1_555 1_555
F6 C64 1_555 1_555
N4 C43 1_555 1_555
N5 C47 1_555 1_555
N6 C53 1_555 1_555
O8 C57 1_555 1_555
O9 C54 1_555 1_555
O10 C58 1_555 1_555
O11 C58 1_555 1_555
O12 C61 1_555 1_555
O13 C61 1_555 1_555
O14 C69 1_555 1_555
C5 C6 1_555 1_555
C16 C17 1_555 1_555
C18 N3 1_555 1_555
C19 C20 1_555 1_555
C19 N2 1_555 1_555
C20 C21 1_555 1_555
C23 O4 1_555 1_555
C26 O6 1_555 1_555
C29 N3 1_555 1_555
C34 C35 1_555 1_555
C36 O7 1_555 1_555
N1 O1 1_555 1_555
C41 C42 1_555 1_555
C52 C53 1_555 1_555
C54 N6 1_555 1_555
C55 C56 1_555 1_555
C55 N5 1_555 1_555
C56 C57 1_555 1_555
C59 O11 1_555 1_555
C62 O13 1_555 1_555
C65 N6 1_555 1_555
C70 C71 1_555 1_555
C72 O14 1_555 1_555
N4 O8 1_555 1_555

#END
