
#######################################################################
#
#                 Cambridge Crystallographic Data Centre
#                                CCDC 
#
#######################################################################
#
# If this CIF has been generated from an entry in the Cambridge 
# Structural Database, then it will include bibliographic, chemical, 
# crystal, experimental, refinement or atomic coordinate data resulting 
# from the CCDC's data processing and validation procedures.
#
#######################################################################

data_QILXEQ
_chemical_formula_moiety         'C21 H20 Br1 N1 O4 S2'
_chemical_name_systematic        
N-(2-Bromo-1-phenylpropyl)-N-(phenylsulfonyl)benzenesulfonamide
_symmetry_cell_setting           monoclinic
_symmetry_space_group_name_H-M   'P 21/c'
_symmetry_Int_Tables_number      14
_space_group_name_Hall           '-P 2ybc'
loop_
_symmetry_equiv_pos_site_id
_symmetry_equiv_pos_as_xyz
1 x,y,z
2 -x,1/2+y,1/2-z
3 -x,-y,-z
4 x,1/2-y,1/2+z
_cell_length_a                   12.429
_cell_length_b                   7.804
_cell_length_c                   21.708
_cell_angle_alpha                90
_cell_angle_beta                 94.39
_cell_angle_gamma                90
_cell_volume                     2099.41
_cell_formula_units_Z            4
loop_
_atom_site_label
_atom_site_type_symbol
_atom_site_fract_x
_atom_site_fract_y
_atom_site_fract_z
Br1 Br 0.30404(3) 1.00263(6) 0.288770(17)
C1 C 0.4525(2) 0.8447(5) 0.07421(12)
C2 C 0.5380(3) 0.7316(6) 0.07424(14)
H1 H 0.5270 0.6147 0.0682
C3 C 0.6418(3) 0.8004(8) 0.08376(18)
H2 H 0.7016 0.7287 0.0844
C4 C 0.6553(4) 0.9716(9) 0.0921(2)
H3 H 0.7251 1.0149 0.0979
C5 C 0.5716(3) 1.0812(7) 0.09235(16)
H4 H 0.5834 1.1978 0.0987
C6 C 0.4678(3) 1.0171(5) 0.08289(14)
H5 H 0.4088 1.0906 0.0824
C7 C 0.1634(3) 0.4066(4) 0.09671(13)
C8 C 0.1777(3) 0.3137(5) 0.04398(14)
H6 H 0.2465 0.2940 0.0315
C9 C 0.0888(4) 0.2511(6) 0.01041(17)
H7 H 0.0975 0.1877 -0.0251
C10 C -0.0118(4) 0.2801(6) 0.02823(19)
H8 H -0.0715 0.2378 0.0045
C11 C -0.0262(3) 0.3715(6) 0.08096(19)
H9 H -0.0953 0.3907 0.0931
C12 C 0.0624(3) 0.4349(5) 0.11601(16)
H10 H 0.0536 0.4958 0.1521
C13 C 0.1391(2) 0.8282(4) 0.18502(11)
C14 C 0.0745(2) 0.9216(4) 0.14249(12)
H11 H 0.1058 0.9807 0.1112
C15 C -0.0359(2) 0.9279(5) 0.14603(13)
H12 H -0.0782 0.9914 0.1172
C16 C -0.0838(2) 0.8414(5) 0.19167(13)
H13 H -0.1583 0.8442 0.1935
C17 C -0.0201(3) 0.7509(5) 0.23465(14)
H14 H -0.0518 0.6927 0.2660
C18 C 0.0906(2) 0.7452(4) 0.23194(13)
H15 H 0.1328 0.6850 0.2619
C19 C 0.2597(2) 0.8213(4) 0.17852(12)
H16 H 0.279(2) 0.933(4) 0.1619(12)
C20 C 0.3313(2) 0.7998(5) 0.23868(13)
H17 H 0.308(2) 0.697(5) 0.2602(13)
C21 C 0.4510(2) 0.7875(6) 0.23159(14)
H18 H 0.4660 0.6843 0.2098
H19 H 0.4894 0.7858 0.2717
H20 H 0.4737 0.8848 0.2088
N1 N 0.28750(18) 0.6906(3) 0.13017(9)
O1 O 0.25197(16) 0.9094(3) 0.04678(9)
O2 O 0.31855(19) 0.6240(4) 0.02088(9)
O3 O 0.37113(17) 0.3987(3) 0.12140(9)
O4 O 0.25593(18) 0.4646(3) 0.20531(9)
S1 S 0.32046(6) 0.76638(11) 0.06147(3)
S2 S 0.27757(6) 0.47830(10) 0.14220(3)
loop_
_geom_bond_atom_site_label_1
_geom_bond_atom_site_label_2
_geom_bond_site_symmetry_1
_geom_bond_site_symmetry_2
Br1 C20 1_555 1_555
C1 C2 1_555 1_555
C2 H1 1_555 1_555
C3 C2 1_555 1_555
H2 C3 1_555 1_555
C4 C3 1_555 1_555
H3 C4 1_555 1_555
C5 C4 1_555 1_555
H4 C5 1_555 1_555
C6 C1 1_555 1_555
H5 C6 1_555 1_555
C7 C8 1_555 1_555
C8 H6 1_555 1_555
C9 C8 1_555 1_555
H7 C9 1_555 1_555
C10 C9 1_555 1_555
H8 C10 1_555 1_555
C11 C10 1_555 1_555
H9 C11 1_555 1_555
C12 C7 1_555 1_555
H10 C12 1_555 1_555
C13 C14 1_555 1_555
C14 H11 1_555 1_555
C15 C14 1_555 1_555
H12 C15 1_555 1_555
C16 C15 1_555 1_555
H13 C16 1_555 1_555
C17 C16 1_555 1_555
H14 C17 1_555 1_555
C18 C13 1_555 1_555
H15 C18 1_555 1_555
C19 C13 1_555 1_555
H16 C19 1_555 1_555
C20 C19 1_555 1_555
H17 C20 1_555 1_555
C21 C20 1_555 1_555
H18 C21 1_555 1_555
H19 C21 1_555 1_555
H20 C21 1_555 1_555
N1 C19 1_555 1_555
O1 S1 1_555 1_555
O2 S1 1_555 1_555
O3 S2 1_555 1_555
O4 S2 1_555 1_555
S1 C1 1_555 1_555
S2 C7 1_555 1_555
C5 C6 1_555 1_555
C11 C12 1_555 1_555
C17 C18 1_555 1_555
N1 S1 1_555 1_555
N1 S2 1_555 1_555

#END
