
#######################################################################
#
#                 Cambridge Crystallographic Data Centre
#                                CCDC 
#
#######################################################################
#
# If this CIF has been generated from an entry in the Cambridge 
# Structural Database, then it will include bibliographic, chemical, 
# crystal, experimental, refinement or atomic coordinate data resulting 
# from the CCDC's data processing and validation procedures.
#
#######################################################################

data_QILYUI
_chemical_formula_moiety         'C17 H20 N4 O5'
_chemical_name_systematic        
'diethyl 1-[8-(acetylamino)quinolin-5-yl]hydrazine-1,2-dicarboxylate'
_symmetry_cell_setting           monoclinic
_symmetry_space_group_name_H-M   'P 21/c'
_symmetry_Int_Tables_number      14
_space_group_name_Hall           '-P 2ybc'
loop_
_symmetry_equiv_pos_site_id
_symmetry_equiv_pos_as_xyz
1 x,y,z
2 -x,1/2+y,1/2-z
3 -x,-y,-z
4 x,1/2-y,1/2+z
_cell_length_a                   9.3537(5)
_cell_length_b                   22.3285(17)
_cell_length_c                   8.8584(6)
_cell_angle_alpha                90
_cell_angle_beta                 105.591(6)
_cell_angle_gamma                90
_cell_volume                     1782.04
_exptl_crystal_colour            colorless
_exptl_crystal_description       prism
_cell_formula_units_Z            4
loop_
_atom_site_label
_atom_site_type_symbol
_atom_site_fract_x
_atom_site_fract_y
_atom_site_fract_z
C1 C 0.3328(3) 0.77482(10) 0.4952(3)
H1 H 0.3590 0.8125 0.5383
C2 C 0.4179(3) 0.72601(11) 0.5660(3)
H2 H 0.4990 0.7314 0.6525
C3 C 0.3798(2) 0.67017(10) 0.5059(2)
H3 H 0.4354 0.6371 0.5510
C4 C 0.2560(2) 0.66269(8) 0.3754(2)
C5 C 0.1791(2) 0.71542(8) 0.3105(2)
C6 C 0.0549(2) 0.71131(8) 0.1746(2)
C7 C 0.0126(2) 0.65661(9) 0.1087(2)
H4 H -0.0656 0.6539 0.0183
C8 C 0.0863(2) 0.60435(9) 0.1764(2)
H5 H 0.0538 0.5674 0.1319
C9 C 0.2045(2) 0.60669(8) 0.3059(2)
C10 C -0.1374(3) 0.77657(11) 0.0033(3)
C11 C -0.1810(4) 0.84166(12) -0.0138(4)
H6 H -0.1865 0.8571 0.0857
H7 H -0.2762 0.8456 -0.0886
H8 H -0.1083 0.8638 -0.0493
C12 C 0.25135(19) 0.52467(8) 0.5004(2)
C13 C 0.1103(2) 0.53084(10) 0.6873(2)
H9 H 0.1227 0.4877 0.6903
H10 H 0.0066 0.5395 0.6780
C14 C 0.2027(3) 0.55700(13) 0.8337(3)
H11 H 0.1916 0.5998 0.8302
H12 H 0.3049 0.5469 0.8454
H13 H 0.1719 0.5414 0.9210
C15 C 0.3191(2) 0.47152(9) 0.2206(2)
C16 C 0.4033(2) 0.38594(10) 0.1095(3)
H14 H 0.3187 0.3666 0.1323
H15 H 0.4878 0.3593 0.1426
C17 C 0.3710(3) 0.39629(13) -0.0622(3)
H16 H 0.3530 0.3586 -0.1161
H17 H 0.4544 0.4157 -0.0851
H18 H 0.2848 0.4213 -0.0961
N1 N 0.2181(2) 0.77099(8) 0.3717(2)
N2 N -0.0120(2) 0.76602(8) 0.1201(2)
H19 H 0.028(2) 0.7957(9) 0.175(2)
N3 N 0.27848(18) 0.55299(7) 0.37396(18)
N4 N 0.37051(18) 0.52382(7) 0.29692(19)
H20 H 0.463(2) 0.5274(9) 0.348(2)
O1 O -0.2058(2) 0.73800(8) -0.0803(3)
O2 O 0.31052(14) 0.47826(6) 0.55479(16)
O3 O 0.15110(15) 0.55495(6) 0.55173(16)
O4 O 0.19112(15) 0.45623(7) 0.17824(18)
O5 O 0.43503(15) 0.44137(6) 0.19732(18)
loop_
_geom_bond_atom_site_label_1
_geom_bond_atom_site_label_2
_geom_bond_site_symmetry_1
_geom_bond_site_symmetry_2
C1 H1 1_555 1_555
C2 C1 1_555 1_555
H2 C2 1_555 1_555
C3 C2 1_555 1_555
H3 C3 1_555 1_555
C4 C3 1_555 1_555
C5 C4 1_555 1_555
C6 C5 1_555 1_555
C7 C6 1_555 1_555
H4 C7 1_555 1_555
C8 C7 1_555 1_555
H5 C8 1_555 1_555
C9 C4 1_555 1_555
C10 C11 1_555 1_555
C11 H6 1_555 1_555
H7 C11 1_555 1_555
H8 C11 1_555 1_555
C12 N3 1_555 1_555
C13 H9 1_555 1_555
H10 C13 1_555 1_555
C14 C13 1_555 1_555
H11 C14 1_555 1_555
H12 C14 1_555 1_555
H13 C14 1_555 1_555
C15 N4 1_555 1_555
C16 H14 1_555 1_555
H15 C16 1_555 1_555
C17 C16 1_555 1_555
H16 C17 1_555 1_555
H17 C17 1_555 1_555
H18 C17 1_555 1_555
N1 C1 1_555 1_555
N2 C6 1_555 1_555
H19 N2 1_555 1_555
N3 C9 1_555 1_555
N4 N3 1_555 1_555
H20 N4 1_555 1_555
O1 C10 1_555 1_555
O2 C12 1_555 1_555
O3 C12 1_555 1_555
O4 C15 1_555 1_555
O5 C15 1_555 1_555
C5 N1 1_555 1_555
C8 C9 1_555 1_555
C10 N2 1_555 1_555
C13 O3 1_555 1_555
C16 O5 1_555 1_555

#END
