
#######################################################################
#
#                 Cambridge Crystallographic Data Centre
#                                CCDC 
#
#######################################################################
#
# If this CIF has been generated from an entry in the Cambridge 
# Structural Database, then it will include bibliographic, chemical, 
# crystal, experimental, refinement or atomic coordinate data resulting 
# from the CCDC's data processing and validation procedures.
#
#######################################################################

data_QILYOC
_chemical_formula_moiety         'C38 H53 N3 O6 S1'
_chemical_name_systematic        
6-(hept-6-en-1-yl)-8-(4-hydroxy-4-methoxybutyl)-8-{[(4-methoxyphenyl)methoxy]methyl}-1-[(4-methylphenyl)sulfonyl]octahydro-7aH-3,7-ethanopyrrolo[2,3-c]pyridine-7a-carbonitrile
_symmetry_cell_setting           orthorhombic
_symmetry_space_group_name_H-M   'P 21 21 2'
_symmetry_Int_Tables_number      18
_space_group_name_Hall           'P 2 2ab'
loop_
_symmetry_equiv_pos_site_id
_symmetry_equiv_pos_as_xyz
1 x,y,z
2 -x,-y,z
3 1/2+x,1/2-y,-z
4 1/2-x,1/2+y,-z
_cell_length_a                   27.8047(18)
_cell_length_b                   17.1487(11)
_cell_length_c                   7.9831(4)
_cell_angle_alpha                90
_cell_angle_beta                 90
_cell_angle_gamma                90
_cell_volume                     3806.46
_exptl_crystal_description       block
_cell_formula_units_Z            4
loop_
_atom_site_label
_atom_site_type_symbol
_atom_site_fract_x
_atom_site_fract_y
_atom_site_fract_z
S1 S 0.26459(8) 0.90727(11) 0.3431(2)
O1 O 0.2431(2) 0.9316(3) 0.1920(6)
O2 O 0.3084(2) 0.9397(4) 0.3984(9)
O3 O 0.4635(3) 0.5558(8) -0.4343(15)
H1 H 0.4909 0.5384 -0.4272
O4 O 0.4847(3) 0.6366(9) -0.2427(15)
O5 O 0.33593(18) 0.8433(3) -0.0941(7)
N1 N 0.2744(2) 0.8151(3) 0.3273(7)
N2 N 0.23524(19) 0.6754(3) -0.0061(6)
N3 N 0.1558(3) 0.7954(4) 0.2193(10)
C1 C 0.2461(2) 0.7567(4) 0.2319(8)
C2 C 0.2660(2) 0.7380(4) 0.0527(7)
H2 H 0.2601 0.7837 -0.0184
C3 C 0.2405(3) 0.6004(4) 0.0778(9)
H3 H 0.2726 0.5800 0.0586
H4 H 0.2175 0.5635 0.0327
C4 C 0.2319(3) 0.6110(4) 0.2679(10)
H5 H 0.1976 0.6108 0.2884
H6 H 0.2456 0.5666 0.3262
C5 C 0.2527(3) 0.6841(4) 0.3412(8)
H7 H 0.2362 0.6937 0.4476
C6 C 0.3062(3) 0.6909(5) 0.3733(9)
H8 H 0.3159 0.6544 0.4616
C7 C 0.3110(3) 0.7740(5) 0.4355(10)
H9 H 0.3031 0.7781 0.5535
H10 H 0.3432 0.7942 0.4171
C8 C 0.3215(2) 0.7233(4) 0.0577(8)
C9 C 0.3369(3) 0.6775(4) 0.2165(8)
H11 H 0.3364 0.6223 0.1904
H12 H 0.3699 0.6913 0.2428
C10 C 0.1946(3) 0.7791(4) 0.2242(9)
C11 C 0.2220(3) 0.9203(4) 0.5043(9)
C12 C 0.2363(3) 0.9072(4) 0.6687(9)
H13 H 0.2676 0.8909 0.6902
C13 C 0.2062(4) 0.9174(4) 0.7952(10)
H14 H 0.2163 0.9070 0.9040
C14 C 0.1598(4) 0.9436(5) 0.7667(11)
C15 C 0.1456(4) 0.9581(5) 0.6025(12)
H15 H 0.1146 0.9759 0.5802
C16 C 0.1780(3) 0.9458(5) 0.4709(10)
H16 H 0.1688 0.9555 0.3609
C17 C 0.1239(5) 0.9554(7) 0.9067(17)
H17 H 0.1210 0.9081 0.9703
H18 H 0.0932 0.9689 0.8602
H19 H 0.1347 0.9967 0.9786
C18 C 0.2266(3) 0.6697(5) -0.1859(10)
H20 H 0.2477 0.6300 -0.2317
H21 H 0.2352 0.7189 -0.2375
C19 C 0.1769(4) 0.6507(8) -0.2329(15)
H22 H 0.1766 0.6293 -0.3454
H23 H 0.1646 0.6111 -0.1575
C20 C 0.1456(7) 0.718(2) -0.227(4)
H24 H 0.1583 0.7583 -0.3002
H25 H 0.1450 0.7387 -0.1140
C21 C 0.0929(7) 0.6980(19) -0.282(4)
H26 H 0.0927 0.6832 -0.3998
H27 H 0.0812 0.6540 -0.2177
C22 C 0.0613(7) 0.7641(19) -0.258(4)
H28 H 0.0597 0.7768 -0.1396
H29 H 0.0739 0.8090 -0.3172
C23 C 0.0181(7) 0.7477(18) -0.313(3)
H30 H 0.0135 0.7208 -0.4134
C24 C -0.0189(7) 0.7712(17) -0.221(3)
H31 H -0.0135 0.7980 -0.1212
H32 H -0.0502 0.7609 -0.2554
C25 C 0.3380(2) 0.6787(4) -0.1032(9)
H33 H 0.3226 0.6279 -0.1038
H34 H 0.3264 0.7070 -0.2003
C26 C 0.3916(2) 0.6670(5) -0.1214(11)
H35 H 0.4069 0.7175 -0.1330
H36 H 0.4039 0.6428 -0.0204
C27 C 0.4046(3) 0.6173(5) -0.2698(11)
H37 H 0.3884 0.5674 -0.2574
H38 H 0.3916 0.6419 -0.3694
C28 C 0.4540(4) 0.6026(9) -0.298(2)
H39 H 0.4561 0.5601 -0.2159
C29 C 0.5352(4) 0.6439(10) -0.255(2)
H40 H 0.5452 0.6321 -0.3674
H41 H 0.5503 0.6082 -0.1787
H42 H 0.5445 0.6963 -0.2275
C30 C 0.3481(3) 0.8020(5) 0.0545(10)
H43 H 0.3392 0.8325 0.1519
H44 H 0.3826 0.7932 0.0581
C31 C 0.3580(3) 0.9177(5) -0.0991(16)
H45 H 0.3626 0.9374 0.0137
H46 H 0.3379 0.9542 -0.1601
C32 C 0.4937(7) 0.8952(9) -0.156(4)
H47 H 0.5208 0.8908 -0.0882
O6 O 0.5427(6) 0.8819(19) -0.391(3)
C33 C 0.4067(7) 0.9082(11) -0.187(4)
C34 C 0.4144(8) 0.9081(15) -0.344(4)
H48 H 0.3890 0.9191 -0.4163
C35 C 0.4576(13) 0.893(2) -0.409(5)
H49 H 0.4617 0.8823 -0.5228
C36 C 0.4957(11) 0.893(2) -0.301(6)
C37 C 0.4478(6) 0.9052(11) -0.090(3)
H50 H 0.4446 0.9102 0.0259
C38 C 0.5829(12) 0.903(3) -0.325(7)
H51 H 0.5937 0.8629 -0.2492
H52 H 0.5784 0.9506 -0.2640
H53 H 0.6064 0.9104 -0.4109
H54? H 0.3448 0.9490 -0.0091
H55? H 0.3494 0.9427 -0.2038
H56? H 0.5155 0.8837 -0.2402
O7? O 0.5567(8) 0.908(3) -0.049(5)
C39? C 0.4138(12) 0.9181(17) -0.083(6)
C40? C 0.4294(11) 0.946(2) 0.083(5)
H57? H 0.4108 0.9625 0.1731
C41? C 0.4826(18) 0.942(3) 0.067(7)
H58? H 0.4990 0.9652 0.1552
C42? C 0.5082(15) 0.914(3) -0.037(8)
C43? C 0.4398(13) 0.886(2) -0.197(7)
H59? H 0.4278 0.8606 -0.2909
C44? C 0.5856(8) 0.871(2) -0.196(5)
H60? H 0.5812 0.9024 -0.2950
H61? H 0.5742 0.8192 -0.2171
H62? H 0.6191 0.8695 -0.1677
loop_
_geom_bond_atom_site_label_1
_geom_bond_atom_site_label_2
_geom_bond_site_symmetry_1
_geom_bond_site_symmetry_2
S1 O1 1_555 1_555
O2 S1 1_555 1_555
O3 H1 1_555 1_555
O4 C28 1_555 1_555
O5 C30 1_555 1_555
N1 S1 1_555 1_555
N2 C2 1_555 1_555
N3 C10 1_555 1_555
C1 N1 1_555 1_555
C2 C1 1_555 1_555
H2 C2 1_555 1_555
C3 N2 1_555 1_555
H3 C3 1_555 1_555
H4 C3 1_555 1_555
C4 C3 1_555 1_555
H5 C4 1_555 1_555
H6 C4 1_555 1_555
C5 C1 1_555 1_555
H7 C5 1_555 1_555
C6 C5 1_555 1_555
H8 C6 1_555 1_555
C7 N1 1_555 1_555
H9 C7 1_555 1_555
H10 C7 1_555 1_555
C8 C2 1_555 1_555
C9 C6 1_555 1_555
H11 C9 1_555 1_555
H12 C9 1_555 1_555
C10 C1 1_555 1_555
C11 S1 1_555 1_555
C12 C11 1_555 1_555
H13 C12 1_555 1_555
C13 C12 1_555 1_555
H14 C13 1_555 1_555
C14 C13 1_555 1_555
C15 C14 1_555 1_555
H15 C15 1_555 1_555
C16 C11 1_555 1_555
H16 C16 1_555 1_555
C17 C14 1_555 1_555
H17 C17 1_555 1_555
H18 C17 1_555 1_555
H19 C17 1_555 1_555
C18 N2 1_555 1_555
H20 C18 1_555 1_555
H21 C18 1_555 1_555
C19 C18 1_555 1_555
H22 C19 1_555 1_555
H23 C19 1_555 1_555
C20 C19 1_555 1_555
H24 C20 1_555 1_555
H25 C20 1_555 1_555
C21 C20 1_555 1_555
H26 C21 1_555 1_555
H27 C21 1_555 1_555
C22 C21 1_555 1_555
H28 C22 1_555 1_555
H29 C22 1_555 1_555
C23 C22 1_555 1_555
H30 C23 1_555 1_555
C24 C23 1_555 1_555
H31 C24 1_555 1_555
H32 C24 1_555 1_555
C25 C8 1_555 1_555
H33 C25 1_555 1_555
H34 C25 1_555 1_555
C26 C25 1_555 1_555
H35 C26 1_555 1_555
H36 C26 1_555 1_555
C27 C26 1_555 1_555
H37 C27 1_555 1_555
H38 C27 1_555 1_555
C28 O3 1_555 1_555
H39 C28 1_555 1_555
C29 O4 1_555 1_555
H40 C29 1_555 1_555
H41 C29 1_555 1_555
H42 C29 1_555 1_555
C30 C8 1_555 1_555
H43 C30 1_555 1_555
H44 C30 1_555 1_555
C31 O5 1_555 1_555
H45 C31 1_555 1_555
H46 C31 1_555 1_555
C32 H47 1_555 1_555
O6 C36 1_555 1_555
C33 C31 1_555 1_555
C34 C33 1_555 1_555
H48 C34 1_555 1_555
C35 C34 1_555 1_555
H49 C35 1_555 1_555
C36 C32 1_555 1_555
C37 C32 1_555 1_555
H50 C37 1_555 1_555
C38 O6 1_555 1_555
H51 C38 1_555 1_555
H52 C38 1_555 1_555
H53 C38 1_555 1_555
C4 C5 1_555 1_555
C6 C7 1_555 1_555
C8 C9 1_555 1_555
C15 C16 1_555 1_555
C27 C28 1_555 1_555
C33 C37 1_555 1_555
C35 C36 1_555 1_555

#END
