
#######################################################################
#
#                 Cambridge Crystallographic Data Centre
#                                CCDC 
#
#######################################################################
#
# If this CIF has been generated from an entry in the Cambridge 
# Structural Database, then it will include bibliographic, chemical, 
# crystal, experimental, refinement or atomic coordinate data resulting 
# from the CCDC's data processing and validation procedures.
#
#######################################################################

data_QILYER
_chemical_formula_moiety         'C23 H22 Br1 N3 O2 S1'
_chemical_name_systematic        
N-(2-Bromophenyl)-1-((4-methylphenyl)sulfonyl)-2,3,8,8a-tetrahydropyrrolo[2,3-b]indol-3a(1H)-amine
_symmetry_cell_setting           monoclinic
_symmetry_space_group_name_H-M   'P 21/c'
_symmetry_Int_Tables_number      14
_space_group_name_Hall           '-P 2ybc'
loop_
_symmetry_equiv_pos_site_id
_symmetry_equiv_pos_as_xyz
1 x,y,z
2 -x,1/2+y,1/2-z
3 -x,-y,-z
4 x,1/2-y,1/2+z
_cell_length_a                   9.1909(10)
_cell_length_b                   29.712(3)
_cell_length_c                   8.0681(8)
_cell_angle_alpha                90
_cell_angle_beta                 107.905(11)
_cell_angle_gamma                90
_cell_volume                     2096.53
_exptl_crystal_colour            yellow
_exptl_crystal_description       prism
_cell_formula_units_Z            4
loop_
_atom_site_label
_atom_site_type_symbol
_atom_site_fract_x
_atom_site_fract_y
_atom_site_fract_z
Br1 Br -0.21422(3) 0.103744(10) -0.06476(3)
S1 S 0.17984(9) 0.17998(2) 0.74585(8)
O1 O 0.1553(3) 0.14592(7) 0.8605(2)
O2 O 0.2483(3) 0.22192(7) 0.8144(3)
N1 N 0.0738(3) 0.10729(7) 0.2519(3)
H1 H 0.0151 0.1289 0.2004
N2 N 0.3797(3) 0.08149(7) 0.6223(3)
H2 H 0.4102 0.0694 0.7240
N3 N 0.2920(3) 0.15735(7) 0.6451(3)
C1 C -0.1170(3) 0.05526(9) 0.0838(3)
C2 C -0.1787(3) 0.01264(9) 0.0491(3)
H3 H -0.2657 0.0079 -0.0453
C3 C -0.1112(3) -0.02294(9) 0.1545(3)
H4 H -0.1521 -0.0517 0.1320
C4 C 0.0180(3) -0.01517(9) 0.2940(3)
H5 H 0.0632 -0.0390 0.3664
C5 C 0.0810(3) 0.02733(8) 0.3279(3)
H6 H 0.1683 0.0316 0.4223
C6 C 0.0155(3) 0.06407(8) 0.2221(3)
C7 C 0.4461(3) 0.07390(8) 0.4913(3)
C8 C 0.5756(3) 0.04919(9) 0.4992(3)
H7 H 0.6356 0.0369 0.6038
C9 C 0.6137(3) 0.04330(9) 0.3477(3)
H8 H 0.7004 0.0268 0.3507
C10 C 0.5240(3) 0.06171(9) 0.1904(3)
H9 H 0.5505 0.0570 0.0894
C11 C 0.3958(3) 0.08693(9) 0.1840(3)
H10 H 0.3370 0.0998 0.0800
C12 C 0.3570(3) 0.09260(8) 0.3346(3)
C13 C 0.2256(3) 0.11921(8) 0.3627(3)
C14 C 0.2522(3) 0.11247(8) 0.5647(3)
H11 H 0.1607 0.1003 0.5866
C15 C 0.3439(3) 0.18555(9) 0.5229(4)
H12 H 0.4515 0.1807 0.5381
H13 H 0.3276 0.2172 0.5405
C16 C 0.2463(3) 0.17035(8) 0.3434(3)
H14 H 0.2974 0.1764 0.2570
H15 H 0.1482 0.1856 0.3093
C17 C 0.0019(3) 0.19118(9) 0.5896(3)
C18 C -0.1096(3) 0.15806(9) 0.5477(4)
H16 H -0.0945 0.1311 0.6095
C19 C -0.2434(4) 0.16519(10) 0.4136(4)
H17 H -0.3180 0.1429 0.3855
C20 C -0.2677(4) 0.20521(11) 0.3202(4)
C21 C -0.1566(4) 0.23853(10) 0.3673(4)
H18 H -0.1734 0.2658 0.3079
C22 C -0.0217(4) 0.23201(10) 0.5004(4)
H19 H 0.0522 0.2545 0.5299
C23 C -0.4129(4) 0.21248(15) 0.1707(5)
H20 H -0.4509 0.1840 0.1192
H21 H -0.3915 0.2315 0.0848
H22 H -0.4883 0.2266 0.2134
loop_
_geom_bond_atom_site_label_1
_geom_bond_atom_site_label_2
_geom_bond_site_symmetry_1
_geom_bond_site_symmetry_2
Br1 C1 1_555 1_555
S1 O1 1_555 1_555
O2 S1 1_555 1_555
N1 H1 1_555 1_555
N2 H2 1_555 1_555
N3 S1 1_555 1_555
C1 C2 1_555 1_555
C2 H3 1_555 1_555
C3 C2 1_555 1_555
H4 C3 1_555 1_555
C4 C3 1_555 1_555
H5 C4 1_555 1_555
C5 C4 1_555 1_555
H6 C5 1_555 1_555
C6 N1 1_555 1_555
C7 N2 1_555 1_555
C8 C7 1_555 1_555
H7 C8 1_555 1_555
C9 C8 1_555 1_555
H8 C9 1_555 1_555
C10 C9 1_555 1_555
H9 C10 1_555 1_555
C11 C10 1_555 1_555
H10 C11 1_555 1_555
C12 C7 1_555 1_555
C13 N1 1_555 1_555
C14 N2 1_555 1_555
H11 C14 1_555 1_555
C15 N3 1_555 1_555
H12 C15 1_555 1_555
H13 C15 1_555 1_555
C16 C13 1_555 1_555
H14 C16 1_555 1_555
H15 C16 1_555 1_555
C17 S1 1_555 1_555
C18 C17 1_555 1_555
H16 C18 1_555 1_555
C19 C18 1_555 1_555
H17 C19 1_555 1_555
C20 C19 1_555 1_555
C21 C20 1_555 1_555
H18 C21 1_555 1_555
C22 C17 1_555 1_555
H19 C22 1_555 1_555
C23 C20 1_555 1_555
H20 C23 1_555 1_555
H21 C23 1_555 1_555
H22 C23 1_555 1_555
N3 C14 1_555 1_555
C1 C6 1_555 1_555
C5 C6 1_555 1_555
C11 C12 1_555 1_555
C12 C13 1_555 1_555
C13 C14 1_555 1_555
C15 C16 1_555 1_555
C21 C22 1_555 1_555

#END
