
#######################################################################
#
#                 Cambridge Crystallographic Data Centre
#                                CCDC 
#
#######################################################################
#
# If this CIF has been generated from an entry in the Cambridge 
# Structural Database, then it will include bibliographic, chemical, 
# crystal, experimental, refinement or atomic coordinate data resulting 
# from the CCDC's data processing and validation procedures.
#
#######################################################################

data_QIMGEA
_chemical_formula_moiety         'C18 H19 Cl1 F3 N3 O1 S2'
_chemical_name_systematic        
N-(1-(6-(3-chlorophenyl)-3-methylimidazo[2,1-b][1,3]thiazol-2-yl)-2,2,2-trifluoroethyl)-2-methylpropane-2-sulfinamide
_symmetry_cell_setting           orthorhombic
_symmetry_space_group_name_H-M   'P 21 21 21'
_symmetry_Int_Tables_number      19
_space_group_name_Hall           'P 2ac 2ab'
loop_
_symmetry_equiv_pos_site_id
_symmetry_equiv_pos_as_xyz
1 x,y,z
2 1/2-x,-y,1/2+z
3 -x,1/2+y,1/2-z
4 1/2+x,1/2-y,-z
_cell_length_a                   7.3920(11)
_cell_length_b                   10.7494(15)
_cell_length_c                   25.7003(12)
_cell_angle_alpha                90
_cell_angle_beta                 90
_cell_angle_gamma                90
_cell_volume                     2042.13
_cell_formula_units_Z            4
loop_
_atom_site_label
_atom_site_type_symbol
_atom_site_fract_x
_atom_site_fract_y
_atom_site_fract_z
F1 F 0.2773(3) 0.78369(18) 1.01454(8)
F2 F 0.1496(3) 0.94706(18) 1.04412(8)
F3 F 0.4389(3) 0.93553(17) 1.04074(8)
C1 C 1.0255(5) 0.6160(3) 0.78199(13)
H1 H 0.9378 0.5583 0.7915
C2 C 1.1683(5) 0.5810(3) 0.75048(13)
H2 H 1.1741 0.4990 0.7390
C3 C 1.3014(5) 0.6619(3) 0.73538(12)
H3 H 1.3981 0.6362 0.7149
C4 C 1.2844(5) 0.7860(3) 0.75246(12)
C5 C 1.1488(4) 0.8220(3) 0.78379(11)
H4 H 1.1445 0.9040 0.7953
C6 C 1.0143(4) 0.7392(3) 0.79945(10)
C7 C 0.8678(4) 0.7791(3) 0.83347(11)
C8 C 0.7087(5) 0.7250(3) 0.84341(11)
H5 H 0.6680 0.6495 0.8302
C9 C 0.7332(4) 0.8997(3) 0.88497(12)
C10 C 0.4408(4) 0.9184(2) 0.92864(12)
C11 C 0.4527(4) 0.8113(2) 0.90176(10)
C12 C 0.2788(4) 0.9609(2) 0.96112(12)
H6 H 0.1687 0.9299 0.9442
C13 C 0.2845(6) 0.9087(3) 1.01514(14)
C14 C 0.3215(4) 0.7060(3) 0.89770(13)
H7 H 0.3334 0.6531 0.9276
H8 H 0.3464 0.6589 0.8668
H9 H 0.2006 0.7382 0.8961
C15 C 0.1295(5) 1.2571(3) 0.89193(13)
C16 C 0.1957(6) 1.1677(4) 0.85030(12)
H10 H 0.1948 1.2088 0.8171
H11 H 0.1175 1.0965 0.8491
H12 H 0.3166 1.1415 0.8584
C17 C 0.2750(6) 1.3519(3) 0.90639(14)
H13 H 0.3043 1.4014 0.8765
H14 H 0.3814 1.3091 0.9181
H15 H 0.2308 1.4048 0.9337
C18 C -0.0417(6) 1.3135(4) 0.87542(16)
H16 H -0.0727 1.3799 0.8988
H17 H -0.1355 1.2518 0.8759
H18 H -0.0289 1.3459 0.8408
Cl1 Cl 1.44810(16) 0.89224(10) 0.73292(5)
N1 N 0.8860(4) 0.8912(2) 0.86071(9)
N2 N 0.6154(3) 0.80354(19) 0.87732(9)
N3 N 0.2685(4) 1.0973(2) 0.96250(10)
O1 O 0.0378(4) 1.2548(2) 0.99110(9)
S1 S 0.63541(12) 1.01025(7) 0.92590(4)
S2 S 0.07504(11) 1.16349(7) 0.94927(3)
loop_
_geom_bond_atom_site_label_1
_geom_bond_atom_site_label_2
_geom_bond_site_symmetry_1
_geom_bond_site_symmetry_2
F1 C13 1_555 1_555
F2 C13 1_555 1_555
F3 C13 1_555 1_555
C1 H1 1_555 1_555
C2 C1 1_555 1_555
H2 C2 1_555 1_555
C3 C2 1_555 1_555
H3 C3 1_555 1_555
C4 C3 1_555 1_555
C5 C4 1_555 1_555
H4 C5 1_555 1_555
C6 C1 1_555 1_555
C7 C6 1_555 1_555
C8 C7 1_555 1_555
H5 C8 1_555 1_555
C9 N1 1_555 1_555
C10 C11 1_555 1_555
C11 C14 1_555 1_555
C12 C10 1_555 1_555
H6 C12 1_555 1_555
C13 C12 1_555 1_555
C14 H7 1_555 1_555
H8 C14 1_555 1_555
H9 C14 1_555 1_555
C15 C16 1_555 1_555
C16 H10 1_555 1_555
H11 C16 1_555 1_555
H12 C16 1_555 1_555
C17 C15 1_555 1_555
H13 C17 1_555 1_555
H14 C17 1_555 1_555
H15 C17 1_555 1_555
C18 C15 1_555 1_555
H16 C18 1_555 1_555
H17 C18 1_555 1_555
H18 C18 1_555 1_555
Cl1 C4 1_555 1_555
N1 C7 1_555 1_555
N2 C8 1_555 1_555
N3 C12 1_555 1_555
O1 S2 1_555 1_555
S1 C9 1_555 1_555
S2 C15 1_555 1_555
C5 C6 1_555 1_555
C9 N2 1_555 1_555
C10 S1 1_555 1_555
C11 N2 1_555 1_555
N3 S2 1_555 1_555

#END
