
#######################################################################
#
#                 Cambridge Crystallographic Data Centre
#                                CCDC 
#
#######################################################################
#
# If this CIF has been generated from an entry in the Cambridge 
# Structural Database, then it will include bibliographic, chemical, 
# crystal, experimental, refinement or atomic coordinate data resulting 
# from the CCDC's data processing and validation procedures.
#
#######################################################################

data_QIMHID
_chemical_name_common            'Nitroguanyl azide'
_chemical_formula_moiety         'C1 H2 N6 O2'
_chemical_name_systematic        1-azido-N-nitroformamidine
_symmetry_cell_setting           triclinic
_symmetry_space_group_name_H-M   'P -1'
_symmetry_Int_Tables_number      2
_space_group_name_Hall           '-P 1'
loop_
_symmetry_equiv_pos_site_id
_symmetry_equiv_pos_as_xyz
1 x,y,z
2 -x,-y,-z
_cell_length_a                   9.9302(8)
_cell_length_b                   7.9433(9)
_cell_length_c                   7.1288(8)
_cell_angle_alpha                98.310(10)
_cell_angle_beta                 110.580(10)
_cell_angle_gamma                75.108(9)
_cell_volume                     507.829
_exptl_crystal_colour            colorless
_cell_formula_units_Z            4
loop_
_atom_site_label
_atom_site_type_symbol
_atom_site_fract_x
_atom_site_fract_y
_atom_site_fract_z
C1 C 0.74742(16) 0.00130(17) 0.6997(2)
N1 N 0.66238(13) 0.10530(15) 0.55232(17)
N2 N 0.87682(17) -0.10340(18) 0.7291(2)
H1 H 0.917(3) -0.160(3) 0.842(4)
H2 H 0.923(3) -0.099(3) 0.645(3)
N3 N 0.71542(13) 0.11576(15) 0.40460(17)
N4 N 0.68901(17) 0.00020(18) 0.8506(2)
N5 N 0.56250(16) 0.09674(17) 0.82266(18)
N6 N 0.45205(19) 0.1744(2) 0.8220(2)
O1 O 0.62908(12) 0.21175(15) 0.27048(16)
O2 O 0.83855(13) 0.03785(16) 0.40061(18)
C2 C 0.22185(15) 0.48405(17) -0.05571(19)
N7 N 0.14663(12) 0.37780(14) -0.02858(16)
N8 N 0.20705(17) 0.55960(19) -0.2144(2)
H3 H 0.262(3) 0.626(3) -0.206(3)
H4 H 0.144(2) 0.535(3) -0.328(3)
N9 N 0.03547(13) 0.33446(14) -0.18819(16)
N10 N 0.33450(14) 0.52520(18) 0.11267(18)
N11 N 0.33850(13) 0.46870(17) 0.27080(18)
N12 N 0.35467(17) 0.4289(2) 0.4216(2)
O3 O -0.03604(12) 0.24662(14) -0.15028(16)
O4 O 0.00660(14) 0.37831(17) -0.35940(16)
loop_
_geom_bond_atom_site_label_1
_geom_bond_atom_site_label_2
_geom_bond_site_symmetry_1
_geom_bond_site_symmetry_2
C1 N1 1_555 1_555
N1 N3 1_555 1_555
N2 C1 1_555 1_555
H1 N2 1_555 1_555
H2 N2 1_555 1_555
N3 O1 1_555 1_555
N4 C1 1_555 1_555
N5 N4 1_555 1_555
N6 N5 1_555 1_555
O2 N3 1_555 1_555
C2 N7 1_555 1_555
N7 N9 1_555 1_555
N8 C2 1_555 1_555
H3 N8 1_555 1_555
H4 N8 1_555 1_555
N9 O3 1_555 1_555
N10 C2 1_555 1_555
N11 N10 1_555 1_555
N12 N11 1_555 1_555
O4 N9 1_555 1_555

#END
