
#######################################################################
#
#                 Cambridge Crystallographic Data Centre
#                                CCDC 
#
#######################################################################
#
# If this CIF has been generated from an entry in the Cambridge 
# Structural Database, then it will include bibliographic, chemical, 
# crystal, experimental, refinement or atomic coordinate data resulting 
# from the CCDC's data processing and validation procedures.
#
#######################################################################

data_QIMHOM
_chemical_formula_moiety         'C50 H56 N1 O10 1+,F6 P1 1-'
_chemical_name_systematic        
'1-(2,5,8,11,14,16,19,22,25,28-decaoxa-1(1,5)-naphthalena-15(1,4)-benzenacyclooctacosaphane-15^2^-yl)-N-(pyren-1-ylmethyl)methanaminium hexafluorophosphate'
_symmetry_cell_setting           triclinic
_symmetry_space_group_name_H-M   'P -1'
_symmetry_Int_Tables_number      2
_space_group_name_Hall           '-P 1'
loop_
_symmetry_equiv_pos_site_id
_symmetry_equiv_pos_as_xyz
1 x,y,z
2 -x,-y,-z
_cell_length_a                   12.4399(2)
_cell_length_b                   14.0488(2)
_cell_length_c                   14.4810(3)
_cell_angle_alpha                100.392(2)
_cell_angle_beta                 90.694(2)
_cell_angle_gamma                108.271(2)
_cell_volume                     2357.37
_exptl_crystal_colour            colorless
_exptl_crystal_description       block
_cell_formula_units_Z            2
loop_
_atom_site_label
_atom_site_type_symbol
_atom_site_fract_x
_atom_site_fract_y
_atom_site_fract_z
P1 P -0.04518(5) 0.19452(4) 0.22922(4)
F1 F -0.15856(11) 0.16379(12) 0.16260(11)
F2 F 0.01024(14) 0.28670(13) 0.17781(10)
F3 F -0.09375(14) 0.26677(13) 0.30130(10)
F4 F 0.00009(15) 0.12264(15) 0.15491(13)
F5 F 0.06653(12) 0.22719(14) 0.29719(11)
F6 F -0.10262(16) 0.10386(14) 0.28108(15)
O1 O 0.69965(11) 0.97323(11) 0.80209(9)
O2 O 0.7388(4) 0.8991(3) 0.9704(3)
O3 O 0.4939(3) 0.8053(2) 0.9731(2)
O4 O 0.3107(2) 0.6227(2) 0.94290(18)
O5 O 0.25374(17) 0.51731(15) 0.74819(12)
O6 O 0.39683(12) 0.40923(9) 0.40061(10)
O7 O 0.31255(16) 0.34677(12) 0.22431(11)
O8 O 0.3385(2) 0.51590(14) 0.14001(12)
O9 O 0.36568(13) 0.70819(10) 0.25496(9)
O10 O 0.43551(11) 0.84663(9) 0.43005(8)
N1 N 0.27712(13) 0.52925(11) 0.34329(11)
H1 H 0.301500 0.477350 0.319612
H2 H 0.290839 0.571736 0.302891
C1 C 0.34507(17) 0.58446(13) 0.43450(13)
H3 H 0.321889 0.643373 0.459101
H4 H 0.424683 0.609121 0.422622
C2 C 0.33119(16) 0.51826(13) 0.50761(13)
C3 C 0.35699(16) 0.42741(13) 0.48690(13)
C4 C 0.34362(18) 0.36485(15) 0.55274(15)
H5 H 0.357683 0.302844 0.537712
C5 C 0.30954(18) 0.39450(16) 0.64035(16)
H6 H 0.301733 0.352961 0.684759
C6 C 0.28708(19) 0.48514(18) 0.66224(15)
C7 C 0.29657(18) 0.54690(16) 0.59522(14)
H7 H 0.279457 0.607515 0.609818
C8 C 0.2598(3) 0.4688(2) 0.8207(2)
H8 H 0.336251 0.467111 0.831221
H9 H 0.208233 0.399202 0.806853
C9 C 0.2270(3) 0.5284(3) 0.9054(2)
H10 H 0.157780 0.541355 0.888854
H11 H 0.210801 0.487334 0.953813
C10 C 0.3194(3) 0.6995(3) 0.8900(3)
H12 H 0.244219 0.698201 0.869954
H13 H 0.359487 0.687374 0.834319
C11 C 0.3820(3) 0.8009(3) 0.9492(3)
H14 H 0.383655 0.854586 0.914929
H15 H 0.343431 0.811670 1.006052
C12 C 0.5584(3) 0.9009(2) 1.0267(2)
H16 H 0.522109 0.915395 1.084044
H17 H 0.562467 0.954052 0.991085
C13 C 0.6766(4) 0.9008(3) 1.0510(3)
H18 H 0.715418 0.961260 1.097702
H19 H 0.672017 0.841308 1.077862
C14 C 0.7970(4) 0.9983(3) 0.9512(3)
H20 H 0.871052 1.026287 0.985479
H21 H 0.753948 1.044386 0.970715
C15 C 0.8099(9) 0.9869(6) 0.8466(8)
H22 H 0.865960 1.047444 0.832826
H23 H 0.834249 0.928258 0.823753
C16 C 0.69093(15) 0.95547(13) 0.70630(12)
C17 C 0.78045(15) 0.96504(14) 0.65107(13)
H24 H 0.854120 0.984800 0.678321
C18 C 0.76024(16) 0.94478(14) 0.55271(13)
H25 H 0.821583 0.952429 0.515423
C19 C 0.65323(15) 0.91420(13) 0.51037(12)
H26 H 0.642096 0.900957 0.445076
C20 C 0.55909(14) 0.90272(11) 0.56639(11)
C21 C 0.57718(14) 0.92445(12) 0.66561(12)
C22 C 0.48397(16) 0.91366(15) 0.72178(13)
H27 H 0.495781 0.927640 0.787040
C23 C 0.37638(16) 0.88270(16) 0.68033(14)
H28 H 0.315447 0.876443 0.717971
C24 C 0.35585(15) 0.86008(14) 0.58191(13)
H29 H 0.281965 0.839023 0.554827
C25 C 0.44499(15) 0.86920(12) 0.52620(12)
C26 C 0.32556(16) 0.82209(13) 0.38363(12)
H30 H 0.296398 0.878960 0.399757
H31 H 0.273268 0.762767 0.402646
C27 C 0.33785(19) 0.80030(14) 0.28024(13)
H32 H 0.267376 0.793418 0.246142
H33 H 0.397154 0.856654 0.263182
C28 C 0.3900(3) 0.69415(19) 0.15869(15)
H34 H 0.448588 0.754562 0.147693
H35 H 0.322405 0.684965 0.119392
C29 C 0.4284(3) 0.6040(2) 0.13276(19)
H36 H 0.451632 0.599077 0.068839
H37 H 0.492974 0.610613 0.174556
C30 C 0.3752(5) 0.4287(3) 0.0982(2)
H38 H 0.451381 0.437480 0.122525
H39 H 0.373418 0.420471 0.030192
C31 C 0.2911(5) 0.3394(3) 0.1270(2)
H40 H 0.214529 0.339732 0.113985
H41 H 0.298490 0.276216 0.092254
C32 C 0.3962(2) 0.30735(18) 0.25513(18)
H42 H 0.471712 0.350690 0.246451
H43 H 0.385097 0.238962 0.219896
C33 C 0.3818(2) 0.30577(16) 0.35654(17)
H44 H 0.306753 0.261588 0.365289
H45 H 0.437998 0.281423 0.382815
C34 C 0.15095(16) 0.48832(14) 0.34970(14)
H46 H 0.116759 0.440118 0.292170
H47 H 0.135539 0.451914 0.401483
C35 C 0.09766(16) 0.57187(14) 0.36460(13)
C36 C 0.07599(16) 0.61114(15) 0.45510(13)
H48 H 0.093166 0.583784 0.505062
C37 C 0.02983(16) 0.68938(16) 0.47298(13)
H49 H 0.017107 0.714227 0.534439
C38 C 0.00215(16) 0.73144(15) 0.39978(13)
C39 C -0.04635(18) 0.81255(17) 0.41551(16)
H50 H -0.057699 0.839589 0.476712
C40 C -0.07563(18) 0.85023(17) 0.34421(17)
H51 H -0.107533 0.902431 0.356912
C41 C -0.05896(16) 0.81198(15) 0.24852(15)
C42 C -0.09174(18) 0.84829(18) 0.17264(17)
H52 H -0.125871 0.899053 0.183743
C43 C -0.0742(2) 0.81002(19) 0.08196(18)
H53 H -0.097563 0.834538 0.032387
C44 C -0.0224(2) 0.73545(19) 0.06351(15)
H54 H -0.009908 0.711313 0.001785
C45 C 0.01162(18) 0.69593(17) 0.13663(14)
C46 C 0.0625(2) 0.61691(18) 0.12136(14)
H55 H 0.077043 0.592301 0.060389
C47 C 0.09015(19) 0.57670(16) 0.19254(14)
H56 H 0.122724 0.524997 0.179313
C48 C 0.07036(15) 0.61207(14) 0.28841(12)
C49 C 0.02183(15) 0.69221(14) 0.30601(13)
C50 C -0.00799(16) 0.73369(15) 0.23075(13)
O11? O 0.7455(13) 0.9337(9) 0.9753(10)
O12? O 0.5465(4) 0.7903(4) 1.0097(4)
O13? O 0.3253(5) 0.6790(5) 0.9401(4)
C51? C 0.2217(6) 0.6028(6) 0.7824(5)
H57? H 0.146970 0.592516 0.753833
H58? H 0.274179 0.661572 0.762648
C52? C 0.2185(6) 0.6270(6) 0.8896(5)
H59? H 0.169255 0.668317 0.904787
H60? H 0.184952 0.563433 0.911225
C53? C 0.3836(7) 0.7668(7) 0.9094(6)
H61? H 0.330515 0.799639 0.892171
H62? H 0.421674 0.749556 0.853863
C54? C 0.4706(8) 0.8402(8) 0.9850(8)
H63? H 0.511964 0.901029 0.961672
H64? H 0.433029 0.860627 1.039795
C55? C 0.6353(5) 0.8526(6) 1.0798(5)
H65? H 0.684349 0.813019 1.089614
H66? H 0.600711 0.865553 1.138399
C56? C 0.7045(9) 0.9480(7) 1.0618(7)
H67? H 0.660408 0.994218 1.063926
H68? H 0.767129 0.978257 1.109678
C57? C 0.8045(15) 1.0354(12) 0.9487(11)
H69? H 0.761771 1.082138 0.966237
H70? H 0.880006 1.065525 0.980264
C58? C 0.811(2) 1.0152(14) 0.8496(19)
H71? H 0.851333 1.078027 0.829174
H72? H 0.852494 0.967416 0.833132
C59? C 0.2854(11) 0.4053(7) 0.0852(6)
H73? H 0.208229 0.374130 0.100701
H74? H 0.287758 0.400566 0.017590
C60? C 0.3666(12) 0.3629(7) 0.1245(6)
H75? H 0.443223 0.410817 0.133237
H76? H 0.366285 0.298857 0.085731
loop_
_geom_bond_atom_site_label_1
_geom_bond_atom_site_label_2
_geom_bond_site_symmetry_1
_geom_bond_site_symmetry_2
P1 F1 1_555 1_555
F2 P1 1_555 1_555
F3 P1 1_555 1_555
F4 P1 1_555 1_555
F5 P1 1_555 1_555
F6 P1 1_555 1_555
O1 C15 1_555 1_555
O2 C13 1_555 1_555
O3 C11 1_555 1_555
O4 C9 1_555 1_555
O5 C6 1_555 1_555
O6 C3 1_555 1_555
O7 C31 1_555 1_555
O8 C29 1_555 1_555
O9 C27 1_555 1_555
O10 C25 1_555 1_555
N1 H1 1_555 1_555
H2 N1 1_555 1_555
C1 N1 1_555 1_555
H3 C1 1_555 1_555
H4 C1 1_555 1_555
C2 C1 1_555 1_555
C3 C2 1_555 1_555
C4 C3 1_555 1_555
H5 C4 1_555 1_555
C5 C4 1_555 1_555
H6 C5 1_555 1_555
C6 C5 1_555 1_555
C7 C2 1_555 1_555
H7 C7 1_555 1_555
C8 O5 1_555 1_555
H8 C8 1_555 1_555
H9 C8 1_555 1_555
C9 C8 1_555 1_555
H10 C9 1_555 1_555
H11 C9 1_555 1_555
C10 O4 1_555 1_555
H12 C10 1_555 1_555
H13 C10 1_555 1_555
C11 C10 1_555 1_555
H14 C11 1_555 1_555
H15 C11 1_555 1_555
C12 O3 1_555 1_555
H16 C12 1_555 1_555
H17 C12 1_555 1_555
C13 C12 1_555 1_555
H18 C13 1_555 1_555
H19 C13 1_555 1_555
C14 O2 1_555 1_555
H20 C14 1_555 1_555
H21 C14 1_555 1_555
C15 C14 1_555 1_555
H22 C15 1_555 1_555
H23 C15 1_555 1_555
C16 O1 1_555 1_555
C17 C16 1_555 1_555
H24 C17 1_555 1_555
C18 C17 1_555 1_555
H25 C18 1_555 1_555
C19 C18 1_555 1_555
H26 C19 1_555 1_555
C20 C19 1_555 1_555
C21 C16 1_555 1_555
C22 C21 1_555 1_555
H27 C22 1_555 1_555
C23 C22 1_555 1_555
H28 C23 1_555 1_555
C24 C23 1_555 1_555
H29 C24 1_555 1_555
C25 C20 1_555 1_555
C26 O10 1_555 1_555
H30 C26 1_555 1_555
H31 C26 1_555 1_555
C27 C26 1_555 1_555
H32 C27 1_555 1_555
H33 C27 1_555 1_555
C28 O9 1_555 1_555
H34 C28 1_555 1_555
H35 C28 1_555 1_555
C29 C28 1_555 1_555
H36 C29 1_555 1_555
H37 C29 1_555 1_555
C30 O8 1_555 1_555
H38 C30 1_555 1_555
H39 C30 1_555 1_555
C31 C30 1_555 1_555
H40 C31 1_555 1_555
H41 C31 1_555 1_555
C32 O7 1_555 1_555
H42 C32 1_555 1_555
H43 C32 1_555 1_555
C33 O6 1_555 1_555
H44 C33 1_555 1_555
H45 C33 1_555 1_555
C34 N1 1_555 1_555
H46 C34 1_555 1_555
H47 C34 1_555 1_555
C35 C34 1_555 1_555
C36 C35 1_555 1_555
H48 C36 1_555 1_555
C37 C36 1_555 1_555
H49 C37 1_555 1_555
C38 C37 1_555 1_555
C39 C38 1_555 1_555
H50 C39 1_555 1_555
C40 C39 1_555 1_555
H51 C40 1_555 1_555
C41 C40 1_555 1_555
C42 C41 1_555 1_555
H52 C42 1_555 1_555
C43 C42 1_555 1_555
H53 C43 1_555 1_555
C44 C43 1_555 1_555
H54 C44 1_555 1_555
C45 C44 1_555 1_555
C46 C45 1_555 1_555
H55 C46 1_555 1_555
C47 C46 1_555 1_555
H56 C47 1_555 1_555
C48 C35 1_555 1_555
C49 C38 1_555 1_555
C50 C41 1_555 1_555
C6 C7 1_555 1_555
C20 C21 1_555 1_555
C24 C25 1_555 1_555
C32 C33 1_555 1_555
C45 C50 1_555 1_555
C47 C48 1_555 1_555
C48 C49 1_555 1_555
C49 C50 1_555 1_555

#END
