
#######################################################################
#
#                 Cambridge Crystallographic Data Centre
#                                CCDC 
#
#######################################################################
#
# If this CIF has been generated from an entry in the Cambridge 
# Structural Database, then it will include bibliographic, chemical, 
# crystal, experimental, refinement or atomic coordinate data resulting 
# from the CCDC's data processing and validation procedures.
#
#######################################################################

data_QIMKOP
_chemical_formula_moiety         'C13 H13 Cl1 O4'
_chemical_name_systematic        '7-(4-chlorophenyl)-4,7-dioxoheptanoic acid'
_symmetry_cell_setting           monoclinic
_symmetry_space_group_name_H-M   'P 21/n'
_symmetry_Int_Tables_number      14
_space_group_name_Hall           '-P 2yn'
loop_
_symmetry_equiv_pos_site_id
_symmetry_equiv_pos_as_xyz
1 x,y,z
2 1/2-x,1/2+y,1/2-z
3 -x,-y,-z
4 1/2+x,1/2-y,1/2+z
_cell_length_a                   11.6548(2)
_cell_length_b                   5.32380(10)
_cell_length_c                   19.9736(4)
_cell_angle_alpha                90
_cell_angle_beta                 90.395(2)
_cell_angle_gamma                90
_cell_volume                     1239.29
_exptl_crystal_colour            yellow
_exptl_crystal_description       lath
_cell_formula_units_Z            4
loop_
_atom_site_label
_atom_site_type_symbol
_atom_site_fract_x
_atom_site_fract_y
_atom_site_fract_z
Cl1 Cl 0.05830(2) 0.70126(7) 0.05948(2)
O1 O 0.94349(7) 0.70714(16) 0.44699(4)
O2 O 0.85971(7) 0.36623(16) 0.49035(4)
H1 H 0.9316(18) 0.345(4) 0.5086(11)
O3 O 0.56383(7) 0.70763(16) 0.33399(4)
O4 O 0.58998(7) 0.79088(19) 0.18311(5)
C1 C 0.86016(9) 0.5695(2) 0.45266(5)
C2 C 0.74873(9) 0.6083(2) 0.41633(6)
H2 H 0.6853 0.5960 0.4489
H3 H 0.7386 0.4715 0.3833
C3 C 0.73979(10) 0.8581(2) 0.38031(6)
H4 H 0.7367 0.9949 0.4138
H5 H 0.8094 0.8834 0.3530
C4 C 0.63494(9) 0.8733(2) 0.33544(6)
C5 C 0.62411(10) 1.1054(2) 0.29238(6)
H6 H 0.6897 1.1121 0.2612
H7 H 0.6281 1.2560 0.3214
C6 C 0.51282(10) 1.1120(2) 0.25225(6)
H8 H 0.4475 1.0925 0.2833
H9 H 0.5054 1.2782 0.2304
C7 C 0.50564(9) 0.9105(2) 0.19946(5)
C8 C 0.39208(9) 0.8617(2) 0.16635(5)
C9 C 0.29601(9) 1.0114(2) 0.17819(6)
H10 H 0.3013 1.1468 0.2090
C10 C 0.19253(9) 0.9645(2) 0.14527(6)
H11 H 0.1275 1.0680 0.1527
C11 C 0.18667(10) 0.7633(2) 0.10146(6)
C12 C 0.28029(10) 0.6097(2) 0.08921(6)
H12 H 0.2739 0.4718 0.0592
C13 C 0.38331(10) 0.6610(2) 0.12149(6)
H13 H 0.4485 0.5590 0.1131
loop_
_geom_bond_atom_site_label_1
_geom_bond_atom_site_label_2
_geom_bond_site_symmetry_1
_geom_bond_site_symmetry_2
Cl1 C11 1_555 1_555
O1 C1 1_555 1_555
O2 H1 1_555 1_555
O3 C4 1_555 1_555
O4 C7 1_555 1_555
C1 O2 1_555 1_555
C2 C1 1_555 1_555
H2 C2 1_555 1_555
H3 C2 1_555 1_555
C3 C2 1_555 1_555
H4 C3 1_555 1_555
H5 C3 1_555 1_555
C4 C3 1_555 1_555
C5 C4 1_555 1_555
H6 C5 1_555 1_555
H7 C5 1_555 1_555
C6 C5 1_555 1_555
H8 C6 1_555 1_555
H9 C6 1_555 1_555
C7 C6 1_555 1_555
C8 C7 1_555 1_555
C9 C8 1_555 1_555
H10 C9 1_555 1_555
C10 C9 1_555 1_555
H11 C10 1_555 1_555
C11 C10 1_555 1_555
C12 C11 1_555 1_555
H12 C12 1_555 1_555
C13 C8 1_555 1_555
H13 C13 1_555 1_555
C12 C13 1_555 1_555

#END
