
#######################################################################
#
#                 Cambridge Crystallographic Data Centre
#                                CCDC 
#
#######################################################################
#
# If this CIF has been generated from an entry in the Cambridge 
# Structural Database, then it will include bibliographic, chemical, 
# crystal, experimental, refinement or atomic coordinate data resulting 
# from the CCDC's data processing and validation procedures.
#
#######################################################################

data_QIMLOQ
_chemical_formula_moiety         'C14 H16 O4'
_chemical_name_systematic        '7-(4-methylphenyl)-4,7-dioxoheptanoic acid'
_symmetry_cell_setting           monoclinic
_symmetry_space_group_name_H-M   'P 21/c'
_symmetry_Int_Tables_number      14
_space_group_name_Hall           '-P 2ybc'
loop_
_symmetry_equiv_pos_site_id
_symmetry_equiv_pos_as_xyz
1 x,y,z
2 -x,1/2+y,1/2-z
3 -x,-y,-z
4 x,1/2-y,1/2+z
_cell_length_a                   4.91280(11)
_cell_length_b                   64.9845(17)
_cell_length_c                   7.86426(17)
_cell_angle_alpha                90
_cell_angle_beta                 99.373(2)
_cell_angle_gamma                90
_cell_volume                     2477.19
_exptl_crystal_colour            orange
_exptl_crystal_description       plate
_cell_formula_units_Z            8
loop_
_atom_site_label
_atom_site_type_symbol
_atom_site_fract_x
_atom_site_fract_y
_atom_site_fract_z
O1 O -0.3029(2) 0.36154(2) 0.24852(17)
O2 O 0.0607(3) 0.37537(2) 0.41521(17)
H1 H -0.036(5) 0.3883(4) 0.380(3)
O3 O 0.2959(2) 0.30052(2) 0.38955(15)
O4 O -0.3517(2) 0.24687(2) 0.13224(16)
C1 C -0.0780(3) 0.35972(2) 0.3395(2)
C2 C 0.0699(3) 0.33963(2) 0.3734(2)
H2 H 0.120642 0.337705 0.499497
H3 H 0.242675 0.340110 0.324013
C3 C -0.1001(3) 0.32133(2) 0.2982(2)
H4 H -0.269128 0.320491 0.351360
H5 H -0.157672 0.323529 0.172932
C4 C 0.0534(3) 0.30117(2) 0.3261(2)
C5 C -0.1119(3) 0.28229(2) 0.2661(2)
H6 H -0.176061 0.283466 0.140428
H7 H -0.277399 0.281948 0.322959
C6 C 0.0419(3) 0.26210(2) 0.3016(2)
H8 H 0.211491 0.262435 0.248726
H9 H 0.097420 0.260343 0.427503
C7 C -0.1346(3) 0.24410(3) 0.2299(2)
C8 C 0.1953(4) 0.15983(3) 0.4083(2)
H10 H 0.043240 0.152705 0.450067
H11 H 0.358666 0.159710 0.498344
H12 H 0.237831 0.152806 0.305474
C9 C -0.0405(3) 0.22269(2) 0.2779(2)
C10 C 0.2052(3) 0.21839(2) 0.3894(2)
H13 H 0.322604 0.229307 0.436113
C11 C 0.2769(3) 0.19818(3) 0.4315(2)
H14 H 0.442760 0.195468 0.508704
C12 C 0.1127(3) 0.18175(2) 0.3636(2)
C13 C -0.1322(3) 0.18623(3) 0.2519(2)
H15 H -0.248390 0.175286 0.204197
C14 C -0.2076(3) 0.20630(3) 0.2097(2)
H16 H -0.374694 0.208987 0.133668
O5 O 0.1804(2) 0.58901(2) 0.67003(17)
O6 O 0.5698(2) 0.60251(2) 0.81309(18)
H17 H 0.479(5) 0.6153(4) 0.789(3)
O7 O 0.7529(2) 0.52744(2) 0.86238(16)
O8 O 0.1339(3) 0.47254(2) 0.59326(19)
C15 C 0.4139(3) 0.58682(3) 0.7500(2)
C16 C 0.5542(3) 0.56657(3) 0.7879(2)
H18 H 0.611352 0.565308 0.914169
H19 H 0.723386 0.566354 0.734695
C17 C 0.3789(3) 0.54809(3) 0.7241(2)
H20 H 0.203592 0.548681 0.770724
H21 H 0.333519 0.548645 0.596836
C18 C 0.5227(3) 0.52800(3) 0.7770(2)
C19 C 0.3602(3) 0.50889(3) 0.7204(2)
H22 H 0.297304 0.509629 0.594418
H23 H 0.194062 0.508604 0.776678
C20 C 0.5186(3) 0.48895(2) 0.7615(2)
H24 H 0.693969 0.489646 0.715068
H25 H 0.564413 0.487339 0.888149
C21 C 0.3563(3) 0.47048(3) 0.6865(2)
C22 C 0.7749(4) 0.38758(3) 0.8293(3)
H26 H 0.943848 0.387965 0.914852
H27 H 0.815089 0.381430 0.722322
H28 H 0.635194 0.379303 0.873746
C23 C 0.4713(3) 0.44941(3) 0.7264(2)
C24 C 0.7198(3) 0.44592(3) 0.8364(2)
H29 H 0.824856 0.457202 0.888384
C25 C 0.8134(4) 0.42598(3) 0.8697(2)
H30 H 0.981346 0.423789 0.946332
C26 C 0.6682(4) 0.40912(3) 0.7939(2)
C27 C 0.4216(4) 0.41277(3) 0.6831(2)
H31 H 0.319038 0.401476 0.629127
C28 C 0.3241(4) 0.43252(3) 0.6503(2)
H32 H 0.154487 0.434636 0.575108
loop_
_geom_bond_atom_site_label_1
_geom_bond_atom_site_label_2
_geom_bond_site_symmetry_1
_geom_bond_site_symmetry_2
O1 C1 1_555 1_555
O2 H1 1_555 1_555
O3 C4 1_555 1_555
O4 C7 1_555 1_555
C1 O2 1_555 1_555
C2 C1 1_555 1_555
H2 C2 1_555 1_555
H3 C2 1_555 1_555
C3 C2 1_555 1_555
H4 C3 1_555 1_555
H5 C3 1_555 1_555
C4 C3 1_555 1_555
C5 C4 1_555 1_555
H6 C5 1_555 1_555
H7 C5 1_555 1_555
C6 C5 1_555 1_555
H8 C6 1_555 1_555
H9 C6 1_555 1_555
C7 C6 1_555 1_555
C8 H10 1_555 1_555
H11 C8 1_555 1_555
H12 C8 1_555 1_555
C9 C7 1_555 1_555
C10 C9 1_555 1_555
H13 C10 1_555 1_555
C11 C10 1_555 1_555
H14 C11 1_555 1_555
C12 C8 1_555 1_555
C13 C12 1_555 1_555
H15 C13 1_555 1_555
C14 C9 1_555 1_555
H16 C14 1_555 1_555
O5 C15 1_555 1_555
O6 H17 1_555 1_555
O7 C18 1_555 1_555
O8 C21 1_555 1_555
C15 O6 1_555 1_555
C16 C15 1_555 1_555
H18 C16 1_555 1_555
H19 C16 1_555 1_555
C17 C16 1_555 1_555
H20 C17 1_555 1_555
H21 C17 1_555 1_555
C18 C17 1_555 1_555
C19 C18 1_555 1_555
H22 C19 1_555 1_555
H23 C19 1_555 1_555
C20 C19 1_555 1_555
H24 C20 1_555 1_555
H25 C20 1_555 1_555
C21 C20 1_555 1_555
C22 H26 1_555 1_555
H27 C22 1_555 1_555
H28 C22 1_555 1_555
C23 C21 1_555 1_555
C24 C23 1_555 1_555
H29 C24 1_555 1_555
C25 C24 1_555 1_555
H30 C25 1_555 1_555
C26 C22 1_555 1_555
C27 C26 1_555 1_555
H31 C27 1_555 1_555
C28 C23 1_555 1_555
H32 C28 1_555 1_555
C11 C12 1_555 1_555
C13 C14 1_555 1_555
C25 C26 1_555 1_555
C27 C28 1_555 1_555

#END
