
#######################################################################
#
#                 Cambridge Crystallographic Data Centre
#                                CCDC 
#
#######################################################################
#
# If this CIF has been generated from an entry in the Cambridge 
# Structural Database, then it will include bibliographic, chemical, 
# crystal, experimental, refinement or atomic coordinate data resulting 
# from the CCDC's data processing and validation procedures.
#
#######################################################################

data_QIMSAJ
_chemical_formula_moiety         'C36 H34 Cl4 N4 O8'
_chemical_name_systematic        
2,2'-[ethane-1,2-diylbis(oxy-2,1-phenylene-3,7-dioxa-2,8-diazanona-1,8-diene-9,1-diyl)]bis(4,6-dichlorophenol)
_symmetry_cell_setting           monoclinic
_symmetry_space_group_name_H-M   'C 2/c'
_symmetry_Int_Tables_number      15
_space_group_name_Hall           '-C 2yn'
loop_
_symmetry_equiv_pos_site_id
_symmetry_equiv_pos_as_xyz
1 x,y,z
2 -x,y,1/2-z
3 1/2+x,1/2+y,z
4 1/2-x,1/2+y,1/2-z
5 -x,-y,-z
6 x,-y,1/2+z
7 1/2-x,1/2-y,-z
8 1/2+x,1/2-y,1/2+z
_cell_length_a                   33.048(10)
_cell_length_b                   6.4688(7)
_cell_length_c                   24.301(7)
_cell_angle_alpha                90
_cell_angle_beta                 133.30(5)
_cell_angle_gamma                90
_cell_volume                     3780.84
_exptl_crystal_colour            'light green'
_exptl_crystal_description       needle
_cell_formula_units_Z            4
loop_
_atom_site_label
_atom_site_type_symbol
_atom_site_fract_x
_atom_site_fract_y
_atom_site_fract_z
C1 C 0.15219(11) 1.4807(4) 0.59708(13)
C2 C 0.16715(11) 1.6609(4) 0.58401(13)
C3 C 0.12762(11) 1.7811(4) 0.52123(13)
H1 H 0.138040 1.902154 0.513084
C4 C 0.07230(11) 1.7207(4) 0.47035(13)
C5 C 0.05695(11) 1.5413(4) 0.48281(13)
H2 H 0.019819 1.501223 0.448730
C6 C 0.09656(11) 1.4208(4) 0.54577(13)
C7 C 0.07855(11) 1.2414(4) 0.55704(13)
H3 H 0.041398 1.201844 0.520972
C8 C 0.12879(11) 0.8751(4) 0.68994(14)
H4 H 0.142845 0.972804 0.729936
H5 H 0.159698 0.822844 0.697226
C9 C 0.09822(12) 0.7004(4) 0.68934(14)
H6 H 0.068162 0.755368 0.683525
H7 H 0.082349 0.609006 0.647063
C10 C 0.13741(12) 0.5838(4) 0.76117(14)
H8 H 0.167218 0.524009 0.767312
H9 H 0.153318 0.672191 0.804155
C11 C 0.11024(11) 0.1593(4) 0.81554(14)
H10 H 0.073114 0.138763 0.771719
C12 C 0.13708(11) 0.0218(4) 0.87881(13)
C13 C 0.19006(11) 0.0630(4) 0.94719(13)
H11 H 0.208270 0.182056 0.952557
C14 C 0.21584(12) -0.0674(4) 1.00646(15)
H12 H 0.251862 -0.039185 1.051751
C15 C 0.18842(12) -0.2452(4) 0.99986(15)
H13 H 0.205713 -0.333207 1.040948
C16 C 0.13548(11) -0.2879(4) 0.93168(14)
H14 H 0.117310 -0.406612 0.926704
C17 C 0.10915(11) -0.1557(4) 0.87061(13)
C18 C 0.02580(10) -0.3597(3) 0.78907(13)
H15 H 0.046015 -0.486772 0.801013
H16 H 0.018632 -0.349508 0.821579
Cl1 Cl 0.02396(3) 1.86723(10) 0.39303(4)
Cl2 Cl 0.23595(3) 1.73453(10) 0.64494(3)
N1 N 0.11391(10) 1.1325(3) 0.61766(11)
N2 N 0.13647(9) 0.3057(3) 0.81918(11)
O1 O 0.19343(8) 1.3770(3) 0.66015(9)
H17 H 0.184842 1.256410 0.671146
O2 O 0.08888(8) 0.9685(3) 0.61861(9)
O3 O 0.10232(8) 0.4216(2) 0.75305(9)
O4 O 0.05793(7) -0.1844(2) 0.80077(9)
C1A C -0.15219(11) 1.4807(4) 0.90292(13)
C2A C -0.16715(11) 1.6609(4) 0.91599(13)
C3A C -0.12762(11) 1.7811(4) 0.97877(13)
H1A H -0.138040 1.902154 0.986916
C4A C -0.07230(11) 1.7207(4) 1.02965(13)
C5A C -0.05695(11) 1.5413(4) 1.01719(13)
H2A H -0.019819 1.501223 1.051270
C6A C -0.09656(11) 1.4208(4) 0.95423(13)
C7A C -0.07855(11) 1.2414(4) 0.94296(13)
H3A H -0.041398 1.201844 0.979028
C8A C -0.12879(11) 0.8751(4) 0.81006(14)
H4A H -0.142845 0.972804 0.770064
H5A H -0.159698 0.822844 0.802774
C9A C -0.09822(12) 0.7004(4) 0.81066(14)
H6A H -0.068162 0.755368 0.816475
H7A H -0.082349 0.609006 0.852937
C10A C -0.13741(12) 0.5838(4) 0.73883(14)
H8A H -0.167218 0.524009 0.732688
H9A H -0.153318 0.672191 0.695845
C11A C -0.11024(11) 0.1593(4) 0.68446(14)
H10A H -0.073114 0.138763 0.728281
C12A C -0.13708(11) 0.0218(4) 0.62119(13)
C13A C -0.19006(11) 0.0630(4) 0.55281(13)
H11A H -0.208270 0.182056 0.547443
C14A C -0.21584(12) -0.0674(4) 0.49354(15)
H12A H -0.251862 -0.039185 0.448249
C15A C -0.18842(12) -0.2452(4) 0.50014(15)
H13A H -0.205713 -0.333207 0.459052
C16A C -0.13548(11) -0.2879(4) 0.56832(14)
H14A H -0.117310 -0.406612 0.573296
C17A C -0.10915(11) -0.1557(4) 0.62939(13)
C18A C -0.02580(10) -0.3597(3) 0.71093(13)
H15A H -0.046015 -0.486772 0.698987
H16A H -0.018632 -0.349508 0.678421
Cl1A Cl -0.02396(3) 1.86723(10) 1.10697(4)
Cl2A Cl -0.23595(3) 1.73453(10) 0.85506(3)
N1A N -0.11391(10) 1.1325(3) 0.88234(11)
N2A N -0.13647(9) 0.3057(3) 0.68082(11)
O1A O -0.19343(8) 1.3770(3) 0.83985(9)
H17A H -0.184842 1.256410 0.828854
O2A O -0.08888(8) 0.9685(3) 0.88139(9)
O3A O -0.10232(8) 0.4216(2) 0.74695(9)
O4A O -0.05793(7) -0.1844(2) 0.69923(9)
loop_
_geom_bond_atom_site_label_1
_geom_bond_atom_site_label_2
_geom_bond_site_symmetry_1
_geom_bond_site_symmetry_2
C1 C2 1_555 1_555
C2 C3 1_555 1_555
C3 H1 1_555 1_555
C4 C3 1_555 1_555
C5 C4 1_555 1_555
H2 C5 1_555 1_555
C6 C1 1_555 1_555
C7 C6 1_555 1_555
H3 C7 1_555 1_555
C8 H4 1_555 1_555
H5 C8 1_555 1_555
C9 C8 1_555 1_555
H6 C9 1_555 1_555
H7 C9 1_555 1_555
C10 C9 1_555 1_555
H8 C10 1_555 1_555
H9 C10 1_555 1_555
C11 H10 1_555 1_555
C12 C11 1_555 1_555
C13 C12 1_555 1_555
H11 C13 1_555 1_555
C14 C13 1_555 1_555
H12 C14 1_555 1_555
C15 C14 1_555 1_555
H13 C15 1_555 1_555
C16 C15 1_555 1_555
H14 C16 1_555 1_555
C17 C12 1_555 1_555
C18 H15 1_555 1_555
H16 C18 1_555 1_555
Cl1 C4 1_555 1_555
Cl2 C2 1_555 1_555
N1 C7 1_555 1_555
N2 C11 1_555 1_555
O1 C1 1_555 1_555
H17 O1 1_555 1_555
O2 C8 1_555 1_555
O3 C10 1_555 1_555
O4 C17 1_555 1_555
C1A C2A 1_555 1_555
C2A C3A 1_555 1_555
C3A H1A 1_555 1_555
C4A C3A 1_555 1_555
C5A C4A 1_555 1_555
H2A C5A 1_555 1_555
C6A C1A 1_555 1_555
C7A C6A 1_555 1_555
H3A C7A 1_555 1_555
C8A H4A 1_555 1_555
H5A C8A 1_555 1_555
C9A C8A 1_555 1_555
H6A C9A 1_555 1_555
H7A C9A 1_555 1_555
C10A C9A 1_555 1_555
H8A C10A 1_555 1_555
H9A C10A 1_555 1_555
C11A H10A 1_555 1_555
C12A C11A 1_555 1_555
C13A C12A 1_555 1_555
H11A C13A 1_555 1_555
C14A C13A 1_555 1_555
H12A C14A 1_555 1_555
C15A C14A 1_555 1_555
H13A C15A 1_555 1_555
C16A C15A 1_555 1_555
H14A C16A 1_555 1_555
C17A C12A 1_555 1_555
C18A C18 1_555 1_555
H15A C18A 1_555 1_555
H16A C18A 1_555 1_555
Cl1A C4A 1_555 1_555
Cl2A C2A 1_555 1_555
N1A C7A 1_555 1_555
N2A C11A 1_555 1_555
O1A C1A 1_555 1_555
H17A O1A 1_555 1_555
O2A C8A 1_555 1_555
O3A C10A 1_555 1_555
O4A C17A 1_555 1_555
C5 C6 1_555 1_555
C16 C17 1_555 1_555
C18 O4 1_555 1_555
N1 O2 1_555 1_555
N2 O3 1_555 1_555
C5A C6A 1_555 1_555
C16A C17A 1_555 1_555
C18A O4A 1_555 1_555
N1A O2A 1_555 1_555
N2A O3A 1_555 1_555

#END
