
#######################################################################
#
#                 Cambridge Crystallographic Data Centre
#                                CCDC 
#
#######################################################################
#
# If this CIF has been generated from an entry in the Cambridge 
# Structural Database, then it will include bibliographic, chemical, 
# crystal, experimental, refinement or atomic coordinate data resulting 
# from the CCDC's data processing and validation procedures.
#
#######################################################################

data_QIMSOX
_chemical_formula_moiety         'C11 H10 N4 O2'
_chemical_name_systematic        2-hydroxy-N'-(pyrimidin-2-yl)benzohydrazide
_symmetry_cell_setting           monoclinic
_symmetry_space_group_name_H-M   'P 21/c'
_symmetry_Int_Tables_number      14
_space_group_name_Hall           '-P 2ybc'
loop_
_symmetry_equiv_pos_site_id
_symmetry_equiv_pos_as_xyz
1 x,y,z
2 -x,1/2+y,1/2-z
3 -x,-y,-z
4 x,1/2-y,1/2+z
_cell_length_a                   6.6161(7)
_cell_length_b                   24.064(2)
_cell_length_c                   7.1768(9)
_cell_angle_alpha                90
_cell_angle_beta                 115.463(15)
_cell_angle_gamma                90
_cell_volume                     1031.63
_exptl_crystal_colour            colorless
_exptl_crystal_description       cube
_cell_formula_units_Z            4
loop_
_atom_site_label
_atom_site_type_symbol
_atom_site_fract_x
_atom_site_fract_y
_atom_site_fract_z
O1 O 0.38823(17) 0.67965(5) 0.52358(18)
H1 H 0.4481 0.6481 0.5427
O2 O 0.69469(18) 0.60828(5) 0.59519(19)
N1 N 1.2153(2) 0.58659(6) 0.9451(2)
N2 N 1.1574(2) 0.49714(6) 0.7847(2)
N3 N 1.0822(2) 0.57626(6) 0.5888(2)
H2 H 1.000(3) 0.5545(9) 0.482(3)
N4 N 1.0082(2) 0.63105(5) 0.5644(2)
H3 H 1.0877 0.6571 0.5407
C1 C 0.9079(2) 0.74697(7) 0.5796(2)
H4 H 1.0556 0.7378 0.5997
C2 C 0.8463(3) 0.80201(7) 0.5666(3)
H5 H 0.9503 0.8305 0.5782
C3 C 0.6298(3) 0.81529(7) 0.5363(3)
H6 H 0.5855 0.8532 0.5251
C4 C 0.4789(3) 0.77437(7) 0.5222(2)
H7 H 0.3317 0.7840 0.5019
C5 C 0.5416(2) 0.71903(7) 0.5375(2)
C6 C 0.7583(2) 0.70446(6) 0.5639(2)
C7 C 0.8174(2) 0.64487(7) 0.5765(2)
C8 C 1.1526(3) 0.55290(7) 0.7822(3)
C9 C 1.2939(3) 0.56119(8) 1.1284(3)
H8 H 1.3420 0.5835 1.2490
C10 C 1.3088(3) 0.50446(8) 1.1513(3)
H9 H 1.3663 0.4872 1.2831
C11 C 1.2360(3) 0.47425(7) 0.9728(3)
H10 H 1.2415 0.4349 0.9829
loop_
_geom_bond_atom_site_label_1
_geom_bond_atom_site_label_2
_geom_bond_site_symmetry_1
_geom_bond_site_symmetry_2
O1 H1 1_555 1_555
O2 C7 1_555 1_555
N1 C8 1_555 1_555
N2 C8 1_555 1_555
N3 H2 1_555 1_555
N4 N3 1_555 1_555
H3 N4 1_555 1_555
C1 H4 1_555 1_555
C2 C1 1_555 1_555
H5 C2 1_555 1_555
C3 C2 1_555 1_555
H6 C3 1_555 1_555
C4 C3 1_555 1_555
H7 C4 1_555 1_555
C5 O1 1_555 1_555
C6 C1 1_555 1_555
C7 N4 1_555 1_555
C8 N3 1_555 1_555
C9 N1 1_555 1_555
H8 C9 1_555 1_555
C10 C9 1_555 1_555
H9 C10 1_555 1_555
C11 N2 1_555 1_555
H10 C11 1_555 1_555
C4 C5 1_555 1_555
C5 C6 1_555 1_555
C6 C7 1_555 1_555
C10 C11 1_555 1_555

#END
