
#######################################################################
#
#                 Cambridge Crystallographic Data Centre
#                                CCDC 
#
#######################################################################
#
# If this CIF has been generated from an entry in the Cambridge 
# Structural Database, then it will include bibliographic, chemical, 
# crystal, experimental, refinement or atomic coordinate data resulting 
# from the CCDC's data processing and validation procedures.
#
#######################################################################

data_QIMVIU
_chemical_name_common            
'ethyl 2-amino-4-(3,4-dimethylphenyl)-5-oxo-4H,5H-pyrano[3,2-c]chromene-3-carboxylate'
_chemical_formula_moiety         'C23 H21 N1 O5'
_chemical_name_systematic        
'ethyl 2-amino-4-(3,4-dimethylphenyl)-5-oxo-4H,5H-pyrano[3,2-c][1]benzopyran-3-carboxylate'
_symmetry_cell_setting           monoclinic
_symmetry_space_group_name_H-M   'P 21/c'
_symmetry_Int_Tables_number      14
_space_group_name_Hall           '-P 2ybc'
loop_
_symmetry_equiv_pos_site_id
_symmetry_equiv_pos_as_xyz
1 x,y,z
2 -x,1/2+y,1/2-z
3 -x,-y,-z
4 x,1/2-y,1/2+z
_cell_length_a                   15.829(11)
_cell_length_b                   8.294(6)
_cell_length_c                   14.718(10)
_cell_angle_alpha                90
_cell_angle_beta                 93.339(12)
_cell_angle_gamma                90
_cell_volume                     1928.98
_exptl_crystal_colour            yellow
_exptl_crystal_description       block
_cell_formula_units_Z            4
loop_
_atom_site_label
_atom_site_type_symbol
_atom_site_fract_x
_atom_site_fract_y
_atom_site_fract_z
N1 N 0.21672(15) 0.9825(3) -0.02116(14)
H1 H 0.231061 1.081108 -0.010702
H2 H 0.208941 0.948787 -0.076265
O1 O 0.07671(11) 0.4036(2) 0.18123(11)
O2 O 0.11407(13) 0.5466(3) 0.30259(11)
O3 O 0.18553(12) 0.7305(2) 0.01495(11)
O4 O 0.24960(13) 1.0899(2) 0.25719(12)
O5 O 0.24809(13) 1.1921(3) 0.11570(13)
C1 C 0.11396(15) 0.4835(3) 0.03219(16)
C2 C 0.11103(17) 0.4484(4) -0.06107(17)
H3 H 0.135940 0.518351 -0.101043
C3 C 0.07167(18) 0.3118(4) -0.09335(19)
H4 H 0.070219 0.289224 -0.155311
C4 C 0.0339(2) 0.2066(4) -0.0351(2)
H5 H 0.007487 0.113705 -0.057932
C5 C 0.03537(18) 0.2393(4) 0.0567(2)
H6 H 0.009069 0.170390 0.096152
C6 C 0.07615(16) 0.3749(3) 0.08905(17)
C7 C 0.11722(16) 0.5338(3) 0.22093(16)
C8 C 0.15953(15) 0.6455(3) 0.16413(15)
C9 C 0.15324(15) 0.6214(3) 0.07370(16)
C10 C 0.20659(16) 0.8823(3) 0.04783(17)
C11 C 0.21622(15) 0.9152(3) 0.13827(16)
C12 C 0.20980(16) 0.7804(3) 0.20706(16)
H7 H 0.179553 0.821434 0.258510
C13 C 0.23834(16) 1.0766(4) 0.16574(18)
C14 C 0.2795(2) 1.2425(4) 0.2942(2)
H8 H 0.231768 1.308251 0.309674
H9 H 0.310211 1.299891 0.249115
C15 C 0.3354(2) 1.2141(5) 0.3760(3)
H10 H 0.355113 1.315539 0.400385
H11 H 0.304585 1.158291 0.420668
H12 H 0.382833 1.149952 0.360261
C16 C 0.29669(15) 0.7195(3) 0.24325(16)
C17 C 0.32843(17) 0.7607(4) 0.32888(18)
H13 H 0.295376 0.823052 0.365520
C18 C 0.4083(2) 0.7125(4) 0.3627(2)
C19 C 0.4383(3) 0.7657(7) 0.4576(2)
H14 H 0.395364 0.830145 0.483307
H15 H 0.449517 0.672484 0.495126
H16 H 0.489197 0.828022 0.454628
C20 C 0.45718(18) 0.6175(5) 0.3087(2)
C21 C 0.5442(2) 0.5594(6) 0.3410(3)
H17 H 0.557255 0.597294 0.401862
H18 H 0.545301 0.443716 0.340365
H19 H 0.585247 0.600337 0.301444
C22 C 0.42543(19) 0.5772(4) 0.2229(2)
H20 H 0.458155 0.514712 0.185938
C23 C 0.34607(17) 0.6269(4) 0.18995(19)
H21 H 0.326074 0.597578 0.131610
loop_
_geom_bond_atom_site_label_1
_geom_bond_atom_site_label_2
_geom_bond_site_symmetry_1
_geom_bond_site_symmetry_2
N1 H1 1_555 1_555
H2 N1 1_555 1_555
O1 C6 1_555 1_555
O2 C7 1_555 1_555
O3 C9 1_555 1_555
O4 C13 1_555 1_555
O5 C13 1_555 1_555
C1 C2 1_555 1_555
C2 H3 1_555 1_555
C3 C2 1_555 1_555
H4 C3 1_555 1_555
C4 C3 1_555 1_555
H5 C4 1_555 1_555
C5 C4 1_555 1_555
H6 C5 1_555 1_555
C6 C1 1_555 1_555
C7 O1 1_555 1_555
C8 C7 1_555 1_555
C9 C1 1_555 1_555
C10 N1 1_555 1_555
C11 C10 1_555 1_555
C12 C8 1_555 1_555
H7 C12 1_555 1_555
C13 C11 1_555 1_555
C14 O4 1_555 1_555
H8 C14 1_555 1_555
H9 C14 1_555 1_555
C15 C14 1_555 1_555
H10 C15 1_555 1_555
H11 C15 1_555 1_555
H12 C15 1_555 1_555
C16 C12 1_555 1_555
C17 C16 1_555 1_555
H13 C17 1_555 1_555
C18 C17 1_555 1_555
C19 C18 1_555 1_555
H14 C19 1_555 1_555
H15 C19 1_555 1_555
H16 C19 1_555 1_555
C20 C18 1_555 1_555
C21 C20 1_555 1_555
H17 C21 1_555 1_555
H18 C21 1_555 1_555
H19 C21 1_555 1_555
C22 C20 1_555 1_555
H20 C22 1_555 1_555
C23 C16 1_555 1_555
H21 C23 1_555 1_555
O3 C10 1_555 1_555
C5 C6 1_555 1_555
C8 C9 1_555 1_555
C11 C12 1_555 1_555
C22 C23 1_555 1_555

#END
