
#######################################################################
#
#                 Cambridge Crystallographic Data Centre
#                                CCDC 
#
#######################################################################
#
# If this CIF has been generated from an entry in the Cambridge 
# Structural Database, then it will include bibliographic, chemical, 
# crystal, experimental, refinement or atomic coordinate data resulting 
# from the CCDC's data processing and validation procedures.
#
#######################################################################

data_QIMYUI
_chemical_formula_moiety         'C19 H17 N1 O5 S1'
_chemical_name_systematic        
'Ethyl 3-phenyl-2,3-dihydropyrrolo[1,2-c][1,2,3]benzoxathiazine-2-carboxylate 5,5-dioxide'
_symmetry_cell_setting           monoclinic
_symmetry_space_group_name_H-M   'P 21/c'
_symmetry_Int_Tables_number      14
_space_group_name_Hall           '-P 2ybc'
loop_
_symmetry_equiv_pos_site_id
_symmetry_equiv_pos_as_xyz
1 x,y,z
2 -x,1/2+y,1/2-z
3 -x,-y,-z
4 x,1/2-y,1/2+z
_cell_length_a                   10.341(2)
_cell_length_b                   10.832(2)
_cell_length_c                   15.797(3)
_cell_angle_alpha                90
_cell_angle_beta                 100.20(3)
_cell_angle_gamma                90
_cell_volume                     1741.52
_exptl_crystal_colour            colorless
_exptl_crystal_description       block
_cell_formula_units_Z            4
loop_
_atom_site_label
_atom_site_type_symbol
_atom_site_fract_x
_atom_site_fract_y
_atom_site_fract_z
S1 S 0.66266(5) 0.20851(5) 0.04546(3)
O1 O 0.64917(14) 0.06521(14) 0.06163(10)
O2 O 0.70541(15) 0.22649(15) -0.03429(9)
O3 O 0.54290(14) 0.26243(16) 0.05872(11)
O4 O 1.01364(18) 0.53980(18) 0.10047(14)
O5 O 1.17034(15) 0.45410(17) 0.19996(11)
N1 N 0.77869(16) 0.24070(16) 0.12820(11)
C1 C 0.7647(2) -0.0071(2) 0.06382(13)
C2 C 0.7488(2) -0.1249(2) 0.03070(14)
H1 H 0.6643 -0.1551 0.0059
C3 C 0.8595(2) -0.1981(2) 0.03462(15)
H2 H 0.8510 -0.2802 0.0132
C4 C 0.9832(2) -0.1523(2) 0.06966(14)
H3 H 1.0586 -0.2031 0.0720
C5 C 0.9964(2) -0.0329(2) 0.10115(13)
H4 H 1.0813 -0.0018 0.1240
C6 C 0.8858(2) 0.04270(19) 0.09975(12)
C7 C 0.89785(19) 0.16960(19) 0.13046(12)
C8 C 1.0030(2) 0.2366(2) 0.16304(13)
H5 H 1.0910 0.2073 0.1720
C9 C 0.96286(19) 0.36466(19) 0.18361(13)
H6 H 0.9665 0.3716 0.2471
C10 C 0.81827(19) 0.37421(19) 0.13802(12)
H7 H 0.8154 0.4110 0.0797
C11 C 0.73421(19) 0.45143(19) 0.18700(12)
C12 C 0.6837(2) 0.4046(2) 0.25630(14)
H8 H 0.6939 0.3195 0.2707
C13 C 0.6183(2) 0.4826(2) 0.30452(15)
H9 H 0.5840 0.4504 0.3520
C14 C 0.6026(2) 0.6055(2) 0.28424(16)
H10 H 0.5580 0.6581 0.3177
C15 C 0.6516(3) 0.6524(2) 0.21529(18)
H11 H 0.6410 0.7375 0.2010
C16 C 0.7169(2) 0.5746(2) 0.16664(16)
H12 H 0.7499 0.6069 0.1188
C17 C 1.0488(2) 0.4646(2) 0.15503(14)
C18 C 1.2693(2) 0.5380(2) 0.17684(19)
H13 H 1.3345 0.5584 0.2288
H14 H 1.2267 0.6157 0.1536
C19 C 1.3370(3) 0.4798(3) 0.11133(19)
H15 H 1.2731 0.4636 0.0589
H16 H 1.3773 0.4019 0.1340
H17 H 1.4053 0.5356 0.0980
loop_
_geom_bond_atom_site_label_1
_geom_bond_atom_site_label_2
_geom_bond_site_symmetry_1
_geom_bond_site_symmetry_2
S1 O1 1_555 1_555
O1 C1 1_555 1_555
O2 S1 1_555 1_555
O3 S1 1_555 1_555
O4 C17 1_555 1_555
O5 C17 1_555 1_555
N1 S1 1_555 1_555
C1 C2 1_555 1_555
C2 H1 1_555 1_555
C3 C2 1_555 1_555
H2 C3 1_555 1_555
C4 C3 1_555 1_555
H3 C4 1_555 1_555
C5 C4 1_555 1_555
H4 C5 1_555 1_555
C6 C1 1_555 1_555
C7 N1 1_555 1_555
C8 C7 1_555 1_555
H5 C8 1_555 1_555
C9 C8 1_555 1_555
H6 C9 1_555 1_555
C10 N1 1_555 1_555
H7 C10 1_555 1_555
C11 C10 1_555 1_555
C12 C11 1_555 1_555
H8 C12 1_555 1_555
C13 C12 1_555 1_555
H9 C13 1_555 1_555
C14 C13 1_555 1_555
H10 C14 1_555 1_555
C15 C14 1_555 1_555
H11 C15 1_555 1_555
C16 C11 1_555 1_555
H12 C16 1_555 1_555
C17 C9 1_555 1_555
C18 O5 1_555 1_555
H13 C18 1_555 1_555
H14 C18 1_555 1_555
C19 C18 1_555 1_555
H15 C19 1_555 1_555
H16 C19 1_555 1_555
H17 C19 1_555 1_555
C5 C6 1_555 1_555
C6 C7 1_555 1_555
C9 C10 1_555 1_555
C15 C16 1_555 1_555

#END
