
#######################################################################
#
#                 Cambridge Crystallographic Data Centre
#                                CCDC 
#
#######################################################################
#
# If this CIF has been generated from an entry in the Cambridge 
# Structural Database, then it will include bibliographic, chemical, 
# crystal, experimental, refinement or atomic coordinate data resulting 
# from the CCDC's data processing and validation procedures.
#
#######################################################################

data_QIMZAP
_chemical_formula_moiety         'C18 H16 O7'
_chemical_name_systematic        
'Ethyl 9-acetyl-8-hydroxy-8-methyl-2-oxo-2H,8H-pyrano[2,3-f]chromene-3-carboxylate'
_symmetry_cell_setting           monoclinic
_symmetry_space_group_name_H-M   'C c'
_symmetry_Int_Tables_number      9
_space_group_name_Hall           'C -2yc'
loop_
_symmetry_equiv_pos_site_id
_symmetry_equiv_pos_as_xyz
1 x,y,z
2 x,-y,1/2+z
3 1/2+x,1/2+y,z
4 1/2+x,1/2-y,1/2+z
_cell_length_a                   8.320(10)
_cell_length_b                   28.09(3)
_cell_length_c                   7.621(9)
_cell_angle_alpha                90
_cell_angle_beta                 115.891(12)
_cell_angle_gamma                90
_cell_volume                     1602.32
_cell_formula_units_Z            4
loop_
_atom_site_label
_atom_site_type_symbol
_atom_site_fract_x
_atom_site_fract_y
_atom_site_fract_z
O1 O 0.49946(16) 1.09170(4) 0.44658(18)
O2 O 0.93784(15) 0.98399(4) 0.86586(17)
O3 O 1.14235(18) 0.93735(5) 1.0789(2)
O4 O 1.12786(18) 0.84069(5) 0.9880(2)
O5 O 0.86945(18) 0.81674(5) 0.7512(2)
O6 O 0.8244(2) 1.20541(5) 0.8055(3)
O7 O 0.48760(17) 1.13359(4) 0.70380(18)
H1 H 0.3804 1.1383 0.6385
C1 C 0.9806(2) 0.84984(7) 0.8643(3)
C2 C 0.9022(2) 0.89841(6) 0.8149(2)
C3 C 1.0062(2) 0.93863(6) 0.9326(3)
C4 C 0.7742(2) 0.99149(6) 0.7118(2)
C5 C 0.6677(2) 0.95321(6) 0.6098(2)
C6 C 0.7381(2) 0.90654(6) 0.6639(2)
H2 H 0.6703 0.8807 0.5943
C7 C 0.4985(2) 0.96309(6) 0.4545(2)
H3 H 0.4247 0.9381 0.3854
C8 C 0.4423(2) 1.00907(7) 0.4049(2)
H4 H 0.3306 1.0152 0.3032
C9 C 0.5535(2) 1.04684(6) 0.5077(2)
C10 C 0.7221(2) 1.03877(6) 0.6626(2)
C11 C 0.8334(2) 1.07966(6) 0.7546(2)
H5 H 0.9519 1.0749 0.8432
C12 C 0.7699(2) 1.12424(6) 0.7151(2)
C13 C 0.5727(2) 1.13231(6) 0.5815(3)
C14 C 0.5261(3) 1.17424(7) 0.4422(3)
H6 H 0.4008 1.1736 0.3558
H7 H 0.5936 1.1723 0.3674
H8 H 0.5545 1.2034 0.5152
C15 C 0.8858(3) 1.16552(7) 0.8192(3)
C16 C 1.0810(3) 1.15659(8) 0.9435(4)
H9 H 1.1386 1.1859 1.0027
H10 H 1.1345 1.1442 0.8640
H11 H 1.0948 1.1339 1.0435
C17 C 0.9387(3) 0.76774(7) 0.7736(3)
H12 H 1.0631 0.7686 0.7973
H13 H 0.8726 0.7504 0.6534
C18 C 0.9239(4) 0.74241(8) 0.9363(5)
H14 H 0.9944 0.7586 1.0567
H15 H 0.9666 0.7104 0.9433
H16 H 0.8012 0.7418 0.9144
loop_
_geom_bond_atom_site_label_1
_geom_bond_atom_site_label_2
_geom_bond_site_symmetry_1
_geom_bond_site_symmetry_2
O1 C9 1_555 1_555
O2 C3 1_555 1_555
O3 C3 1_555 1_555
O4 C1 1_555 1_555
O5 C1 1_555 1_555
O6 C15 1_555 1_555
O7 H1 1_555 1_555
C1 C2 1_555 1_555
C2 C3 1_555 1_555
C4 O2 1_555 1_555
C5 C4 1_555 1_555
C6 C2 1_555 1_555
H2 C6 1_555 1_555
C7 C5 1_555 1_555
H3 C7 1_555 1_555
C8 C7 1_555 1_555
H4 C8 1_555 1_555
C9 C8 1_555 1_555
C10 C4 1_555 1_555
C11 C10 1_555 1_555
H5 C11 1_555 1_555
C12 C11 1_555 1_555
C13 O1 1_555 1_555
C14 C13 1_555 1_555
H6 C14 1_555 1_555
H7 C14 1_555 1_555
H8 C14 1_555 1_555
C15 C12 1_555 1_555
C16 C15 1_555 1_555
H9 C16 1_555 1_555
H10 C16 1_555 1_555
H11 C16 1_555 1_555
C17 O5 1_555 1_555
H12 C17 1_555 1_555
H13 C17 1_555 1_555
C18 C17 1_555 1_555
H14 C18 1_555 1_555
H15 C18 1_555 1_555
H16 C18 1_555 1_555
O7 C13 1_555 1_555
C5 C6 1_555 1_555
C9 C10 1_555 1_555
C12 C13 1_555 1_555

#END
