
#######################################################################
#
#                 Cambridge Crystallographic Data Centre
#                                CCDC 
#
#######################################################################
#
# If this CIF has been generated from an entry in the Cambridge 
# Structural Database, then it will include bibliographic, chemical, 
# crystal, experimental, refinement or atomic coordinate data resulting 
# from the CCDC's data processing and validation procedures.
#
#######################################################################

data_QINMEF
_chemical_formula_moiety         'C20 H21 N1 O2'
_chemical_name_systematic        
(+)-(2R,5S,7R)-7-Benzyl-2-methyl-2-phenyl-1-aza-3-oxabicyclo(3.3.0)octan-8-one
_symmetry_cell_setting           monoclinic
_symmetry_space_group_name_H-M   'P 21'
_symmetry_Int_Tables_number      4
_space_group_name_Hall           'P 2yb'
loop_
_symmetry_equiv_pos_site_id
_symmetry_equiv_pos_as_xyz
1 x,y,z
2 -x,1/2+y,-z
_cell_length_a                   10.114(2)
_cell_length_b                   8.171(3)
_cell_length_c                   10.690(2)
_cell_angle_alpha                90
_cell_angle_beta                 109.77(2)
_cell_angle_gamma                90
_cell_volume                     831.366
_chemical_melting_point          '108-110 deg.C'
_cell_formula_units_Z            2
_exptl_crystal_recrystallization_method 'ethyl acetate/petrol'
loop_
_atom_site_label
_atom_site_type_symbol
_atom_site_fract_x
_atom_site_fract_y
_atom_site_fract_z
N1 N 0.46954(9) 0.4705(1) 0.78672(9)
O1 O 0.34054(9) 0.3736(1) 0.58627(9)
O2 O 0.44126(9) 0.4465(2) 0.99047(9)
C1 C 0.3314(1) 0.4871(1) 0.6853(1)
C2 C 0.4813(1) 0.3684(2) 0.5869(1)
C3 C 0.5736(1) 0.4335(2) 0.7238(1)
C4 C 0.6741(1) 0.3166(2) 0.8236(1)
C5 C 0.6615(1) 0.3688(2) 0.9567(1)
C6 C 0.5102(1) 0.4293(2) 0.9168(1)
C7 C 0.2102(1) 0.4333(2) 0.7282(1)
C8 C 0.3093(1) 0.6617(2) 0.6313(1)
C9 C 0.2136(1) 0.6917(2) 0.5049(1)
C10 C 0.1861(1) 0.8527(2) 0.4601(1)
C11 C 0.2533(2) 0.9813(2) 0.5407(2)
C12 C 0.3488(1) 0.9517(2) 0.6645(1)
C13 C 0.3775(1) 0.7921(2) 0.7098(1)
C14 C 0.7604(1) 0.5090(2) 1.0274(1)
C15 C 0.9119(1) 0.4578(2) 1.0868(1)
C16 C 1.0081(1) 0.4900(2) 1.0229(1)
C17 C 1.1476(1) 0.4427(2) 1.0792(2)
C18 C 1.1932(1) 0.3656(2) 1.2009(2)
C19 C 1.0985(1) 0.3338(2) 1.2655(1)
C20 C 0.9591(1) 0.3784(2) 1.2087(1)
H1 H 0.488(2) 0.445(3) 0.509(2)
H2 H 0.502(2) 0.249(3) 0.573(2)
H3 H 0.621(1) 0.539(2) 0.715(1)
H4 H 0.770(2) 0.323(2) 0.827(2)
H5 H 0.634(2) 0.197(2) 0.801(2)
H6 H 0.6777(2) 0.275(2) 1.022(2)
H7 H 0.232(1) 0.325(2) 0.765(1)
H8 H 0.1260(8) 0.434(2) 0.649(1)
H9 H 0.203(1) 0.514(2) 0.798(1)
H10 H 0.1650 0.5987 0.4469
H11 H 0.1176 0.8751 0.3694
H12 H 0.2321 1.0965 0.5086
H13 H 0.3977 1.0449 0.7219
H14 H 0.4478 0.7710 0.7998
H15 H 0.747(2) 0.599(2) 0.963(2)
H16 H 0.733(2) 0.552(2) 1.102(2)
H17 H 0.9766 0.5480 0.9355
H18 H 1.2152 0.4647 1.0313
H19 H 1.2939 0.3333 1.2421
H20 H 1.1311 0.2780 1.3538
H21 H 0.8915 0.3534 1.2560
loop_
_geom_bond_atom_site_label_1
_geom_bond_atom_site_label_2
_geom_bond_site_symmetry_1
_geom_bond_site_symmetry_2
N1 C1 1_555 1_555
O1 C1 1_555 1_555
O2 C6 1_555 1_555
C1 C7 1_555 1_555
C2 O1 1_555 1_555
C3 N1 1_555 1_555
C4 C3 1_555 1_555
C5 C4 1_555 1_555
C6 N1 1_555 1_555
C7 H7 1_555 1_555
C8 C1 1_555 1_555
C9 C8 1_555 1_555
C10 C9 1_555 1_555
C11 C10 1_555 1_555
C12 C11 1_555 1_555
C13 C8 1_555 1_555
C14 C5 1_555 1_555
C15 C14 1_555 1_555
C16 C15 1_555 1_555
C17 C16 1_555 1_555
C18 C17 1_555 1_555
C19 C18 1_555 1_555
C20 C15 1_555 1_555
H1 C2 1_555 1_555
H2 C2 1_555 1_555
H3 C3 1_555 1_555
H4 C4 1_555 1_555
H5 C4 1_555 1_555
H6 C5 1_555 1_555
H8 C7 1_555 1_555
H9 C7 1_555 1_555
H10 C9 1_555 1_555
H11 C10 1_555 1_555
H12 C11 1_555 1_555
H13 C12 1_555 1_555
H14 C13 1_555 1_555
H15 C14 1_555 1_555
H16 C14 1_555 1_555
H17 C16 1_555 1_555
H18 C17 1_555 1_555
H19 C18 1_555 1_555
H20 C19 1_555 1_555
H21 C20 1_555 1_555
C2 C3 1_555 1_555
C5 C6 1_555 1_555
C12 C13 1_555 1_555
C19 C20 1_555 1_555

#END
