
#######################################################################
#
#                 Cambridge Crystallographic Data Centre
#                                CCDC 
#
#######################################################################
#
# If this CIF has been generated from an entry in the Cambridge 
# Structural Database, then it will include bibliographic, chemical, 
# crystal, experimental, refinement or atomic coordinate data resulting 
# from the CCDC's data processing and validation procedures.
#
#######################################################################

data_QINPIP
_chemical_formula_moiety         'C21 H17 N3'
_chemical_name_systematic        
5-benzyl-9-methyl-5H-pyrido[2',1':2,3]imidazo[4,5-b]indole
_symmetry_cell_setting           triclinic
_symmetry_space_group_name_H-M   'P -1'
_symmetry_Int_Tables_number      2
_space_group_name_Hall           '-P 1'
loop_
_symmetry_equiv_pos_site_id
_symmetry_equiv_pos_as_xyz
1 x,y,z
2 -x,-y,-z
_cell_length_a                   6.4115(17)
_cell_length_b                   8.767(2)
_cell_length_c                   14.597(4)
_cell_angle_alpha                78.988(3)
_cell_angle_beta                 83.727(3)
_cell_angle_gamma                86.868(3)
_cell_volume                     800.083
_exptl_crystal_colour            brown
_exptl_crystal_description       block
_cell_formula_units_Z            2
loop_
_atom_site_label
_atom_site_type_symbol
_atom_site_fract_x
_atom_site_fract_y
_atom_site_fract_z
N1 N 0.1767(2) 0.40254(18) 0.37651(11)
N2 N 0.6530(2) 0.32671(17) 0.25050(11)
N3 N 0.4888(2) 0.52471(17) 0.34786(10)
C1 C 0.3199(3) 0.3274(2) 0.32222(13)
C2 C 0.3452(3) 0.1937(2) 0.27850(13)
C3 C 0.2205(4) 0.0712(2) 0.27350(15)
H1 H 0.0840 0.0656 0.3027
C4 C 0.3022(4) -0.0418(2) 0.22459(16)
H2 H 0.2200 -0.1241 0.2208
C5 C 0.5043(4) -0.0345(3) 0.18128(16)
H3 H 0.5553 -0.1118 0.1483
C6 C 0.6324(4) 0.0836(2) 0.18549(15)
H4 H 0.7689 0.0868 0.1563
C7 C 0.5525(3) 0.1984(2) 0.23449(13)
C8 C 0.5062(3) 0.4000(2) 0.30340(13)
C9 C 0.6250(3) 0.6337(2) 0.35962(15)
H5 H 0.7625 0.6335 0.3318
C10 C 0.5569(3) 0.7401(2) 0.41164(15)
H6 H 0.6495 0.8137 0.4194
C11 C 0.3496(3) 0.7445(2) 0.45514(14)
C12 C 0.2158(3) 0.6367(2) 0.44397(13)
H7 H 0.0784 0.6393 0.4717
C13 C 0.2803(3) 0.5208(2) 0.39130(13)
C14 C 0.2782(4) 0.8666(2) 0.51177(15)
H8 H 0.2767 0.9667 0.4713
H9 H 0.3727 0.8663 0.5585
H10 H 0.1395 0.8451 0.5419
C15 C 0.8564(3) 0.3817(2) 0.21019(14)
H11 H 0.9325 0.3001 0.1826
H12 H 0.9338 0.4012 0.2601
C16 C 0.8514(3) 0.5269(2) 0.13656(13)
C17 C 0.6877(3) 0.5658(2) 0.08266(15)
H13 H 0.5712 0.5037 0.0927
C18 C 0.6958(5) 0.6975(3) 0.01328(16)
H14 H 0.5850 0.7232 -0.0236
C19 C 0.8645(5) 0.7899(3) -0.00161(18)
H15 H 0.8687 0.8786 -0.0483
C20 C 1.0264(5) 0.7522(3) 0.0518(2)
H16 H 1.1417 0.8154 0.0419
C21 C 1.0209(3) 0.6215(3) 0.12037(17)
H17 H 1.1332 0.5962 0.1564
loop_
_geom_bond_atom_site_label_1
_geom_bond_atom_site_label_2
_geom_bond_site_symmetry_1
_geom_bond_site_symmetry_2
N1 C1 1_555 1_555
N2 C7 1_555 1_555
N3 C8 1_555 1_555
C1 C2 1_555 1_555
C2 C3 1_555 1_555
C3 H1 1_555 1_555
C4 C3 1_555 1_555
H2 C4 1_555 1_555
C5 C4 1_555 1_555
H3 C5 1_555 1_555
C6 C5 1_555 1_555
H4 C6 1_555 1_555
C7 C2 1_555 1_555
C8 N2 1_555 1_555
C9 N3 1_555 1_555
H5 C9 1_555 1_555
C10 C9 1_555 1_555
H6 C10 1_555 1_555
C11 C10 1_555 1_555
C12 C11 1_555 1_555
H7 C12 1_555 1_555
C13 N1 1_555 1_555
C14 C11 1_555 1_555
H8 C14 1_555 1_555
H9 C14 1_555 1_555
H10 C14 1_555 1_555
C15 N2 1_555 1_555
H11 C15 1_555 1_555
H12 C15 1_555 1_555
C16 C15 1_555 1_555
C17 C16 1_555 1_555
H13 C17 1_555 1_555
C18 C17 1_555 1_555
H14 C18 1_555 1_555
C19 C18 1_555 1_555
H15 C19 1_555 1_555
C20 C19 1_555 1_555
H16 C20 1_555 1_555
C21 C16 1_555 1_555
H17 C21 1_555 1_555
N3 C13 1_555 1_555
C1 C8 1_555 1_555
C6 C7 1_555 1_555
C12 C13 1_555 1_555
C20 C21 1_555 1_555

#END
