
#######################################################################
#
#                 Cambridge Crystallographic Data Centre
#                                CCDC 
#
#######################################################################
#
# If this CIF has been generated from an entry in the Cambridge 
# Structural Database, then it will include bibliographic, chemical, 
# crystal, experimental, refinement or atomic coordinate data resulting 
# from the CCDC's data processing and validation procedures.
#
#######################################################################

data_QINQUC
_chemical_formula_moiety         'C32 H24 N4 O4 S2'
_chemical_name_systematic        
N-(2-cyanophenyl)-N-[5-(methylsulfonyl)-3,4-diphenyl-5H-pyrido[3,2-b]indol-2-yl]methanesulfonamide
_symmetry_cell_setting           triclinic
_symmetry_space_group_name_H-M   'P -1'
_symmetry_Int_Tables_number      2
_space_group_name_Hall           '-P 1'
loop_
_symmetry_equiv_pos_site_id
_symmetry_equiv_pos_as_xyz
1 x,y,z
2 -x,-y,-z
_cell_length_a                   7.5067(19)
_cell_length_b                   12.180(3)
_cell_length_c                   16.789(4)
_cell_angle_alpha                82.413(3)
_cell_angle_beta                 77.103(3)
_cell_angle_gamma                75.947(3)
_cell_volume                     1446.61
_exptl_crystal_colour            colorless
_exptl_crystal_description       block
_cell_formula_units_Z            2
loop_
_atom_site_label
_atom_site_type_symbol
_atom_site_fract_x
_atom_site_fract_y
_atom_site_fract_z
S1 S 0.47834(7) 0.08087(4) 0.70721(4)
S2 S 0.61977(7) 0.67639(4) 0.66940(3)
O1 O 0.4654(2) -0.02707(12) 0.74987(11)
O2 O 0.3274(2) 0.17629(13) 0.72474(11)
O3 O 0.5488(2) 0.75219(11) 0.60640(10)
O4 O 0.4918(2) 0.64756(13) 0.74035(10)
N1 N 0.6636(2) 0.11300(12) 0.72870(10)
N2 N 0.6921(2) 0.26733(12) 0.63133(10)
N3 N 0.7377(2) 0.55352(12) 0.62840(10)
N4 N 1.0587(3) 0.1007(2) 0.54605(16)
C1 C 0.6889(3) 0.22773(14) 0.70889(12)
C2 C 0.7100(2) 0.37444(14) 0.61342(11)
C3 C 0.7218(3) 0.44476(14) 0.67046(11)
C4 C 0.7934(4) 0.7277(2) 0.6960(2)
H1 H 0.8834 0.7418 0.6475
H2 H 0.8547 0.6725 0.7332
H3 H 0.7381 0.7971 0.7219
C5 C 0.7468(3) 0.54336(15) 0.54316(12)
C6 C 0.7280(3) 0.43491(15) 0.53333(12)
C7 C 0.7320(3) 0.40368(17) 0.45648(12)
H4 H 0.7206 0.3313 0.4497
C8 C 0.7533(3) 0.48251(19) 0.39033(13)
H5 H 0.7532 0.4641 0.3383
C9 C 0.7751(3) 0.58960(19) 0.40082(14)
H6 H 0.7910 0.6411 0.3551
C10 C 0.7738(3) 0.62194(17) 0.47664(13)
H7 H 0.7904 0.6933 0.4828
C11 C 0.7325(3) 0.40086(15) 0.75070(12)
C12 C 0.7095(3) 0.28776(15) 0.77047(11)
C13 C 0.7089(3) 0.23270(16) 0.85538(13)
C14 C 0.8723(4) 0.1972(2) 0.88539(16)
H8 H 0.9852 0.2080 0.8527
C15 C 0.8679(7) 0.1453(3) 0.9644(2)
H9 H 0.9779 0.1223 0.9847
C16 C 0.7013(9) 0.1279(3) 1.0128(2)
H10 H 0.6991 0.0926 1.0655
C17 C 0.5395(6) 0.1623(3) 0.98321(19)
H11 H 0.4271 0.1508 1.0161
C18 C 0.5417(4) 0.21445(19) 0.90446(15)
H12 H 0.4312 0.2372 0.8845
C19 C 0.7767(3) 0.46160(15) 0.81315(12)
C20 C 0.9597(4) 0.4654(2) 0.81024(14)
H13 H 1.0544 0.4299 0.7698
C21 C 1.0041(5) 0.5221(3) 0.86743(19)
H14 H 1.1279 0.5253 0.8648
C22 C 0.8656(7) 0.5731(2) 0.92727(19)
H15 H 0.8949 0.6121 0.9649
C23 C 0.6847(6) 0.5671(2) 0.93216(17)
H16 H 0.5912 0.6005 0.9739
C24 C 0.6396(4) 0.51177(19) 0.87557(14)
H17 H 0.5157 0.5081 0.8793
C25 C 0.8158(3) 0.02169(15) 0.74587(13)
C26 C 0.9818(3) -0.00654(17) 0.68836(15)
C27 C 1.0178(3) 0.0553(2) 0.60932(18)
C28 C 1.1216(3) -0.0990(2) 0.70726(19)
H18 H 1.2321 -0.1188 0.6690
C29 C 1.0972(4) -0.1605(2) 0.7816(2)
H19 H 1.1908 -0.2221 0.7937
C30 C 0.9352(4) -0.13139(19) 0.83815(17)
H20 H 0.9195 -0.1731 0.8888
C31 C 0.7945(3) -0.04053(16) 0.82066(14)
H21 H 0.6849 -0.0214 0.8596
C32 C 0.5282(4) 0.0649(2) 0.60175(16)
H22 H 0.6365 0.0045 0.5889
H23 H 0.5523 0.1343 0.5719
H24 H 0.4230 0.0470 0.5867
loop_
_geom_bond_atom_site_label_1
_geom_bond_atom_site_label_2
_geom_bond_site_symmetry_1
_geom_bond_site_symmetry_2
S1 O1 1_555 1_555
S2 O3 1_555 1_555
O2 S1 1_555 1_555
O4 S2 1_555 1_555
N1 S1 1_555 1_555
N2 C1 1_555 1_555
N3 S2 1_555 1_555
N4 C27 1_555 1_555
C1 N1 1_555 1_555
C2 N2 1_555 1_555
C3 N3 1_555 1_555
C4 S2 1_555 1_555
H1 C4 1_555 1_555
H2 C4 1_555 1_555
H3 C4 1_555 1_555
C5 N3 1_555 1_555
C6 C2 1_555 1_555
C7 C6 1_555 1_555
H4 C7 1_555 1_555
C8 C7 1_555 1_555
H5 C8 1_555 1_555
C9 C8 1_555 1_555
H6 C9 1_555 1_555
C10 C5 1_555 1_555
H7 C10 1_555 1_555
C11 C3 1_555 1_555
C12 C1 1_555 1_555
C13 C12 1_555 1_555
C14 C13 1_555 1_555
H8 C14 1_555 1_555
C15 C14 1_555 1_555
H9 C15 1_555 1_555
C16 C15 1_555 1_555
H10 C16 1_555 1_555
C17 C16 1_555 1_555
H11 C17 1_555 1_555
C18 C13 1_555 1_555
H12 C18 1_555 1_555
C19 C11 1_555 1_555
C20 C19 1_555 1_555
H13 C20 1_555 1_555
C21 C20 1_555 1_555
H14 C21 1_555 1_555
C22 C21 1_555 1_555
H15 C22 1_555 1_555
C23 C22 1_555 1_555
H16 C23 1_555 1_555
C24 C19 1_555 1_555
H17 C24 1_555 1_555
C25 N1 1_555 1_555
C26 C25 1_555 1_555
C27 C26 1_555 1_555
C28 C26 1_555 1_555
H18 C28 1_555 1_555
C29 C28 1_555 1_555
H19 C29 1_555 1_555
C30 C29 1_555 1_555
H20 C30 1_555 1_555
C31 C25 1_555 1_555
H21 C31 1_555 1_555
C32 S1 1_555 1_555
H22 C32 1_555 1_555
H23 C32 1_555 1_555
H24 C32 1_555 1_555
C2 C3 1_555 1_555
C5 C6 1_555 1_555
C9 C10 1_555 1_555
C11 C12 1_555 1_555
C17 C18 1_555 1_555
C23 C24 1_555 1_555
C30 C31 1_555 1_555

#END
