
#######################################################################
#
#                 Cambridge Crystallographic Data Centre
#                                CCDC 
#
#######################################################################
#
# If this CIF has been generated from an entry in the Cambridge 
# Structural Database, then it will include bibliographic, chemical, 
# crystal, experimental, refinement or atomic coordinate data resulting 
# from the CCDC's data processing and validation procedures.
#
#######################################################################

data_QINQOW
_chemical_formula_moiety         'C29 H29 Br1 N2 O7'
_chemical_name_systematic        
'7-ethyl 7a-methyl 2-bromo-9-ethyl-8,10-dioxo-11-phenyl-6a,7b,8,9,10,10a,11,12a-octahydro-6H-[1]benzopyrano[4,3-e]pyrrolo[3,4-a]pyrrolizine-7,7a(7H)-dicarboxylate'
_symmetry_cell_setting           monoclinic
_symmetry_space_group_name_H-M   'P 21/n'
_symmetry_Int_Tables_number      14
_space_group_name_Hall           '-P 2yn'
loop_
_symmetry_equiv_pos_site_id
_symmetry_equiv_pos_as_xyz
1 x,y,z
2 1/2-x,1/2+y,1/2-z
3 -x,-y,-z
4 1/2+x,1/2-y,1/2+z
_cell_length_a                   14.6471(3)
_cell_length_b                   9.8270(2)
_cell_length_c                   19.3981(3)
_cell_angle_alpha                90
_cell_angle_beta                 104.564(2)
_cell_angle_gamma                90
_cell_volume                     2702.39
_exptl_crystal_colour            colorless
_exptl_crystal_description       prism
_cell_formula_units_Z            4
loop_
_atom_site_label
_atom_site_type_symbol
_atom_site_fract_x
_atom_site_fract_y
_atom_site_fract_z
Br1 Br 0.71406(2) -0.20430(4) 0.59288(2)
O1 O 0.68924(13) 0.35452(19) 0.46377(9)
O2 O 0.74120(12) -0.07368(19) 0.21189(9)
O3 O 0.46554(15) 0.1325(3) 0.10708(10)
O4 O 0.36251(12) 0.27087(19) 0.24328(11)
O5 O 0.40646(12) 0.05494(18) 0.23550(11)
O6 O 0.48885(15) 0.49938(19) 0.21269(9)
O7 O 0.46326(13) 0.55668(17) 0.31793(9)
N1 N 0.57391(11) 0.11537(18) 0.32873(9)
N2 N 0.59497(14) 0.0012(2) 0.15269(10)
C1 C 0.52915(14) 0.2156(2) 0.27438(10)
C2 C 0.54634(15) 0.3535(2) 0.31333(11)
H1 H 0.613824 0.372728 0.321128
C3 C 0.53047(15) 0.3200(2) 0.38704(11)
H2 H 0.464228 0.336872 0.386092
C4 C 0.55057(14) 0.1633(2) 0.39578(10)
H3 H 0.492100 0.118260 0.399029
C5 C 0.67536(13) 0.1091(2) 0.32939(10)
H4 H 0.708290 0.184869 0.358029
C6 C 0.67558(14) 0.1330(2) 0.25016(11)
H5 H 0.728094 0.193003 0.247662
C7 C 0.58152(15) 0.2026(2) 0.21459(11)
H6 H 0.593278 0.293144 0.197463
C8 C 0.53727(17) 0.1119(3) 0.15239(12)
C9 C 0.67771(15) 0.0073(2) 0.20601(11)
C10 C 0.59259(19) 0.4009(3) 0.44715(13)
H7 H 0.590378 0.496266 0.433865
H8 H 0.568500 0.392832 0.489201
C11 C 0.69603(16) 0.2243(3) 0.49028(12)
C12 C 0.62607(14) 0.1288(2) 0.46232(10)
C13 C 0.63103(15) 0.0019(3) 0.49426(11)
H9 H 0.583361 -0.061653 0.478281
C14 C 0.70755(16) -0.0293(3) 0.55014(12)
C15 C 0.77956(17) 0.0623(3) 0.57534(12)
H10 H 0.831534 0.038218 0.611801
C16 C 0.77289(18) 0.1901(3) 0.54539(13)
H11 H 0.820211 0.253809 0.562254
C17 C 0.71955(15) -0.0231(2) 0.36117(11)
C18 C 0.6689(2) -0.1438(3) 0.35045(14)
H12 H 0.607716 -0.145105 0.321597
C19 C 0.7097(3) -0.2625(3) 0.3828(2)
H13 H 0.675658 -0.343334 0.375650
C20 C 0.8008(4) -0.2613(5) 0.42568(19)
H14 H 0.827419 -0.340335 0.448552
C21 C 0.8505(3) -0.1441(5) 0.43395(17)
H15 H 0.912412 -0.143963 0.461539
C22 C 0.81146(19) -0.0246(3) 0.40235(13)
H16 H 0.847010 0.054939 0.408784
C23 C 0.42278(15) 0.1862(2) 0.24925(11)
C24 C 0.3094(2) 0.0177(3) 0.2044(2)
H17 H 0.286336 0.066385 0.160530
H18 H 0.271798 0.040282 0.236785
H19 H 0.305457 -0.078389 0.195094
C25 C 0.49534(16) 0.4744(2) 0.27429(12)
C26 C 0.4236(2) 0.6856(2) 0.28917(14)
H20 H 0.363127 0.671696 0.255335
H21 H 0.465474 0.730977 0.264962
C27 C 0.4116(3) 0.7697(3) 0.35060(17)
H22 H 0.384550 0.856127 0.333466
H23 H 0.471935 0.783756 0.383354
H24 H 0.370570 0.723320 0.374404
C28 C 0.5764(2) -0.1035(3) 0.09722(14)
H25 H 0.635803 -0.139583 0.091634
H26 H 0.543192 -0.063264 0.052243
C29 C 0.5183(3) -0.2172(4) 0.1160(3)
H27 H 0.507845 -0.285303 0.079350
H28 H 0.458722 -0.181941 0.120028
H29 H 0.551149 -0.256896 0.160528
loop_
_geom_bond_atom_site_label_1
_geom_bond_atom_site_label_2
_geom_bond_site_symmetry_1
_geom_bond_site_symmetry_2
Br1 C14 1_555 1_555
O1 C10 1_555 1_555
O2 C9 1_555 1_555
O3 C8 1_555 1_555
O4 C23 1_555 1_555
O5 C23 1_555 1_555
O6 C25 1_555 1_555
O7 C25 1_555 1_555
N1 C1 1_555 1_555
N2 C8 1_555 1_555
C1 C2 1_555 1_555
C2 H1 1_555 1_555
C3 C2 1_555 1_555
H2 C3 1_555 1_555
C4 N1 1_555 1_555
H3 C4 1_555 1_555
C5 N1 1_555 1_555
H4 C5 1_555 1_555
C6 C5 1_555 1_555
H5 C6 1_555 1_555
C7 C1 1_555 1_555
H6 C7 1_555 1_555
C8 C7 1_555 1_555
C9 N2 1_555 1_555
C10 C3 1_555 1_555
H7 C10 1_555 1_555
H8 C10 1_555 1_555
C11 O1 1_555 1_555
C12 C4 1_555 1_555
C13 C12 1_555 1_555
H9 C13 1_555 1_555
C14 C13 1_555 1_555
C15 C14 1_555 1_555
H10 C15 1_555 1_555
C16 C11 1_555 1_555
H11 C16 1_555 1_555
C17 C5 1_555 1_555
C18 C17 1_555 1_555
H12 C18 1_555 1_555
C19 C18 1_555 1_555
H13 C19 1_555 1_555
C20 C19 1_555 1_555
H14 C20 1_555 1_555
C21 C20 1_555 1_555
H15 C21 1_555 1_555
C22 C17 1_555 1_555
H16 C22 1_555 1_555
C23 C1 1_555 1_555
C24 O5 1_555 1_555
H17 C24 1_555 1_555
H18 C24 1_555 1_555
H19 C24 1_555 1_555
C25 C2 1_555 1_555
C26 O7 1_555 1_555
H20 C26 1_555 1_555
H21 C26 1_555 1_555
C27 C26 1_555 1_555
H22 C27 1_555 1_555
H23 C27 1_555 1_555
H24 C27 1_555 1_555
C28 N2 1_555 1_555
H25 C28 1_555 1_555
H26 C28 1_555 1_555
C29 C28 1_555 1_555
H27 C29 1_555 1_555
H28 C29 1_555 1_555
H29 C29 1_555 1_555
C3 C4 1_555 1_555
C6 C7 1_555 1_555
C6 C9 1_555 1_555
C11 C12 1_555 1_555
C15 C16 1_555 1_555
C21 C22 1_555 1_555

#END
