
#######################################################################
#
#                 Cambridge Crystallographic Data Centre
#                                CCDC 
#
#######################################################################
#
# If this CIF has been generated from an entry in the Cambridge 
# Structural Database, then it will include bibliographic, chemical, 
# crystal, experimental, refinement or atomic coordinate data resulting 
# from the CCDC's data processing and validation procedures.
#
#######################################################################

data_QINTAI01
_chemical_formula_moiety         'C14 H17 N1 S6'
_chemical_name_systematic        
N-(n-Butyl)-2-(4,5-bis(methylthio)-1,3-dithiole-2-ylidene)-(1,3)dithiolo(4,5-c)pyrrole
_symmetry_cell_setting           monoclinic
_symmetry_space_group_name_H-M   'P 21/a'
_symmetry_Int_Tables_number      14
_space_group_name_Hall           '-P 2yab'
loop_
_symmetry_equiv_pos_site_id
_symmetry_equiv_pos_as_xyz
1 x,y,z
2 1/2-x,1/2+y,-z
3 -x,-y,-z
4 1/2+x,1/2-y,z
_cell_length_a                   8.626(3)
_cell_length_b                   10.507(3)
_cell_length_c                   20.251(2)
_cell_angle_alpha                90
_cell_angle_beta                 94.72(2)
_cell_angle_gamma                90
_cell_volume                     1829.19
_exptl_crystal_colour            yellow
_exptl_crystal_description       plate
_chemical_melting_point          105.5-106deg.C
_cell_formula_units_Z            4
_exptl_crystal_recrystallization_method 'dichloromethane/petroleum ether(60-80)'
loop_
_atom_site_label
_atom_site_type_symbol
_atom_site_fract_x
_atom_site_fract_y
_atom_site_fract_z
S1 S 0.3411(3) 0.2523(3) 0.1412(1)
S2 S 0.1237(3) 0.4699(3) 0.1114(1)
S3 S 0.3113(4) 0.2920(3) 0.2972(1)
S4 S 0.0869(4) 0.4974(3) 0.2689(2)
S5 S 0.3812(6) 0.3640(5) 0.4392(2)
S6 S 0.1324(6) 0.6083(5) 0.4062(2)
N1 N 0.370(1) 0.3888(9) -0.0396(5)
C1 C 0.478(2) 0.374(2) -0.2402(10)
C2 C 0.359(2) 0.417(3) -0.235(1)
C3 C 0.311(1) 0.360(1) -0.1572(6)
C4 C 0.436(1) 0.406(1) -0.1065(6)
C5 C 0.425(1) 0.2988(10) 0.0074(5)
C6 C 0.258(1) 0.467(1) -0.0157(5)
C7 C 0.343(1) 0.3212(9) 0.0619(4)
C8 C 0.242(1) 0.4248(9) 0.0485(5)
C9 C 0.224(1) 0.3730(9) 0.1713(5)
C10 C 0.208(1) 0.3863(9) 0.2355(5)
C11 C 0.282(1) 0.397(1) 0.3633(6)
C12 C 0.183(2) 0.488(1) 0.3503(6)
C13 C 0.575(2) 0.388(2) 0.4244(6)
C14 C -0.056(2) 0.592(2) 0.4076(9)
loop_
_geom_bond_atom_site_label_1
_geom_bond_atom_site_label_2
_geom_bond_site_symmetry_1
_geom_bond_site_symmetry_2
S1 C7 1_555 1_555
S2 C8 1_555 1_555
S3 C10 1_555 1_555
S4 C10 1_555 1_555
S5 C11 1_555 1_555
S6 C12 1_555 1_555
N1 C4 1_555 1_555
C1 C2 1_555 1_555
C2 C3 1_555 1_555
C3 C4 1_555 1_555
C5 N1 1_555 1_555
C6 N1 1_555 1_555
C7 C5 1_555 1_555
C8 C6 1_555 1_555
C9 S1 1_555 1_555
C10 C9 1_555 1_555
C11 S3 1_555 1_555
C12 S4 1_555 1_555
C13 S5 1_555 1_555
C14 S6 1_555 1_555
S2 C9 1_555 1_555
C7 C8 1_555 1_555
C11 C12 1_555 1_555

#END
