
#######################################################################
#
#                 Cambridge Crystallographic Data Centre
#                                CCDC 
#
#######################################################################
#
# If this CIF has been generated from an entry in the Cambridge 
# Structural Database, then it will include bibliographic, chemical, 
# crystal, experimental, refinement or atomic coordinate data resulting 
# from the CCDC's data processing and validation procedures.
#
#######################################################################

data_QINVIV
_chemical_formula_moiety         'C31 H28 N6 O3'
_chemical_name_systematic        
"ethyl 5-benzoyl-1,9-dibenzyl-4,5,6,9-tetrahydro-1H-cyclohepta[1,2-d:3,4-d']bis[1,2,3]triazole-5-carboxylate"
_symmetry_cell_setting           monoclinic
_symmetry_space_group_name_H-M   'P 21/c'
_symmetry_Int_Tables_number      14
_space_group_name_Hall           '-P 2ybc'
loop_
_symmetry_equiv_pos_site_id
_symmetry_equiv_pos_as_xyz
1 x,y,z
2 -x,1/2+y,1/2-z
3 -x,-y,-z
4 x,1/2-y,1/2+z
_cell_length_a                   12.6636(2)
_cell_length_b                   12.6670(2)
_cell_length_c                   17.6579(3)
_cell_angle_alpha                90
_cell_angle_beta                 109.067(2)
_cell_angle_gamma                90
_cell_volume                     2677.1
_exptl_crystal_colour            colorless
_exptl_crystal_description       block
_cell_formula_units_Z            4
loop_
_atom_site_label
_atom_site_type_symbol
_atom_site_fract_x
_atom_site_fract_y
_atom_site_fract_z
O1 O 0.7532(2) 0.2625(2) 0.67131(16)
O2 O 0.8364(2) 0.2305(2) 0.57939(18)
O3 O 0.5283(2) 0.4212(2) 0.58168(19)
N1 N 0.4995(3) 0.1575(2) 0.29540(18)
N2 N 0.5423(3) 0.3220(3) 0.31204(19)
N3 N 0.6349(3) -0.0066(3) 0.4457(2)
N4 N 0.4879(3) 0.2520(3) 0.2583(2)
N5 N 0.6335(3) 0.0360(3) 0.5638(2)
N6 N 0.6605(3) -0.0399(3) 0.5224(2)
C1 C 0.5634(3) 0.1674(3) 0.3734(2)
C2 C 0.7587(3) 0.2636(3) 0.5975(2)
C3 C 0.5915(3) 0.0923(3) 0.4386(2)
C4 C 0.5913(3) 0.1185(3) 0.5139(2)
C5 C 0.3181(3) 0.0920(3) 0.2079(2)
C6 C 0.6493(3) 0.3080(3) 0.5393(2)
C7 C 0.5891(3) 0.2731(3) 0.3836(2)
C8 C 0.6992(3) 0.5017(3) 0.5897(2)
C9 C 0.5595(3) 0.2232(3) 0.5379(2)
H1 H 0.551880 0.217884 0.590691
H2 H 0.487921 0.244506 0.500457
C10 C 0.6187(3) 0.4118(3) 0.5725(2)
C11 C 0.4386(3) 0.0649(3) 0.2513(2)
H3 H 0.442446 0.007719 0.288652
H4 H 0.473638 0.041268 0.213012
C12 C 0.7843(3) -0.0231(3) 0.3854(2)
C13 C 0.8454(3) 0.0541(3) 0.4364(3)
H5 H 0.818166 0.083834 0.474459
C14 C 0.6619(3) 0.3316(3) 0.4555(2)
H6 H 0.648831 0.406464 0.444985
H7 H 0.739007 0.317990 0.459734
C15 C 0.2860(3) 0.1315(3) 0.1304(2)
H8 H 0.338176 0.137135 0.103762
C16 C 0.2385(3) 0.0811(3) 0.2456(2)
H9 H 0.258704 0.053522 0.297198
C17 C 0.8078(3) 0.4957(3) 0.5875(3)
H10 H 0.833866 0.432474 0.573575
C18 C 0.6626(4) 0.5977(3) 0.6108(3)
H11 H 0.590973 0.603057 0.613990
C19 C 0.6756(3) -0.0661(3) 0.3908(3)
H12 H 0.619605 -0.064680 0.338003
H13 H 0.686353 -0.139045 0.408312
C20 C 0.1769(4) 0.1623(4) 0.0927(3)
H14 H 0.156233 0.190054 0.041113
C21 C 0.1289(4) 0.1111(4) 0.2067(3)
H15 H 0.075742 0.103154 0.232264
C22 C 0.0983(4) 0.1524(4) 0.1308(3)
H16 H 0.024952 0.173548 0.105275
C23 C 0.8460(3) 0.2128(4) 0.7328(3)
H17 H 0.912159 0.256799 0.745215
H18 H 0.862802 0.144646 0.714486
C24 C 0.9472(4) 0.0874(4) 0.4310(3)
H19 H 0.987183 0.139967 0.465228
C25 C 0.8107(4) 0.2001(4) 0.8046(3)
H20 H 0.748376 0.152470 0.792558
H21 H 0.789145 0.267477 0.819768
H22 H 0.871614 0.172132 0.847987
C26 C 0.8779(4) 0.5830(4) 0.6059(3)
H23 H 0.950738 0.577884 0.605050
C27 C 0.8389(5) 0.6775(4) 0.6256(3)
H24 H 0.885519 0.736194 0.637869
C28 C 0.9893(5) 0.0440(5) 0.3760(3)
H25 H 1.058330 0.065531 0.373489
C29 C 0.8272(5) -0.0655(4) 0.3287(3)
H26 H 0.787329 -0.117084 0.293415
C30 C 0.7319(5) 0.6849(4) 0.6269(3)
H27 H 0.705434 0.749159 0.638793
C31 C 0.9291(5) -0.0313(5) 0.3249(4)
H28 H 0.956861 -0.060083 0.286779
loop_
_geom_bond_atom_site_label_1
_geom_bond_atom_site_label_2
_geom_bond_site_symmetry_1
_geom_bond_site_symmetry_2
O1 C2 1_555 1_555
O2 C2 1_555 1_555
O3 C10 1_555 1_555
N1 N4 1_555 1_555
N2 N4 1_555 1_555
N3 N6 1_555 1_555
N5 N6 1_555 1_555
C1 N1 1_555 1_555
C2 C6 1_555 1_555
C3 N3 1_555 1_555
C4 N5 1_555 1_555
C5 C11 1_555 1_555
C6 C9 1_555 1_555
C7 N2 1_555 1_555
C8 C10 1_555 1_555
C9 C4 1_555 1_555
H1 C9 1_555 1_555
H2 C9 1_555 1_555
C10 C6 1_555 1_555
C11 N1 1_555 1_555
H3 C11 1_555 1_555
H4 C11 1_555 1_555
C12 C13 1_555 1_555
C13 H5 1_555 1_555
C14 C6 1_555 1_555
H6 C14 1_555 1_555
H7 C14 1_555 1_555
C15 C5 1_555 1_555
H8 C15 1_555 1_555
C16 C5 1_555 1_555
H9 C16 1_555 1_555
C17 C8 1_555 1_555
H10 C17 1_555 1_555
C18 C8 1_555 1_555
H11 C18 1_555 1_555
C19 N3 1_555 1_555
H12 C19 1_555 1_555
H13 C19 1_555 1_555
C20 C15 1_555 1_555
H14 C20 1_555 1_555
C21 C16 1_555 1_555
H15 C21 1_555 1_555
C22 C20 1_555 1_555
H16 C22 1_555 1_555
C23 O1 1_555 1_555
H17 C23 1_555 1_555
H18 C23 1_555 1_555
C24 C13 1_555 1_555
H19 C24 1_555 1_555
C25 C23 1_555 1_555
H20 C25 1_555 1_555
H21 C25 1_555 1_555
H22 C25 1_555 1_555
C26 C17 1_555 1_555
H23 C26 1_555 1_555
C27 C26 1_555 1_555
H24 C27 1_555 1_555
C28 C24 1_555 1_555
H25 C28 1_555 1_555
C29 C12 1_555 1_555
H26 C29 1_555 1_555
C30 C18 1_555 1_555
H27 C30 1_555 1_555
C31 C28 1_555 1_555
H28 C31 1_555 1_555
C1 C3 1_555 1_555
C1 C7 1_555 1_555
C3 C4 1_555 1_555
C7 C14 1_555 1_555
C12 C19 1_555 1_555
C21 C22 1_555 1_555
C27 C30 1_555 1_555
C29 C31 1_555 1_555

#END
