
#######################################################################
#
#                 Cambridge Crystallographic Data Centre
#                                CCDC 
#
#######################################################################
#
# If this CIF has been generated from an entry in the Cambridge 
# Structural Database, then it will include bibliographic, chemical, 
# crystal, experimental, refinement or atomic coordinate data resulting 
# from the CCDC's data processing and validation procedures.
#
#######################################################################

data_QINWOB
_chemical_name_common            
(2,2-Dimethyl-7-phenyl-2,3-dihydro-1H-pyrrolizin-6-yl)(2-thienyl)methanone
_chemical_formula_moiety         'C20 H19 N1 O1 S1'
_chemical_name_systematic        
(6,6-Dimethyl-1-phenyl-6,7-dihydro-5H-pyrrolizin-2-yl)(thiophen-2-yl)methanone
_symmetry_cell_setting           orthorhombic
_symmetry_space_group_name_H-M   'P b c a'
_symmetry_Int_Tables_number      61
_space_group_name_Hall           '-P 2ac 2ab'
loop_
_symmetry_equiv_pos_site_id
_symmetry_equiv_pos_as_xyz
1 x,y,z
2 1/2-x,-y,1/2+z
3 1/2+x,1/2-y,-z
4 -x,1/2+y,1/2-z
5 -x,-y,-z
6 1/2+x,y,1/2-z
7 1/2-x,1/2+y,z
8 x,1/2-y,1/2+z
_cell_length_a                   16.251(3)
_cell_length_b                   10.473(2)
_cell_length_c                   19.973(4)
_cell_angle_alpha                90
_cell_angle_beta                 90
_cell_angle_gamma                90
_cell_volume                     3399.34
_exptl_crystal_colour            colorless
_exptl_crystal_description       prismatic
_cell_formula_units_Z            8
loop_
_atom_site_label
_atom_site_type_symbol
_atom_site_fract_x
_atom_site_fract_y
_atom_site_fract_z
S1 S 0.20601(3) 0.94554(5) 0.16441(3)
N1 N 0.05241(9) 0.72368(14) -0.07701(7)
O1 O 0.06950(8) 0.76239(12) 0.14671(6)
C1 C -0.06376(11) 0.60225(16) -0.10279(8)
H1 H -0.1219 0.6232 -0.1019
H2 H -0.0573 0.5108 -0.0971
C2 C -0.02331(12) 0.64795(16) -0.16906(8)
C3 C 0.06294(12) 0.6923(2) -0.14784(9)
H3 H 0.1031 0.6247 -0.1537
H4 H 0.0801 0.7665 -0.1733
C4 C 0.09527(12) 0.78755(17) -0.02986(9)
H5 H 0.1451 0.8294 -0.0361
C5 C 0.05165(10) 0.77953(16) 0.02961(8)
C6 C -0.02153(10) 0.70597(15) 0.01645(8)
C7 C -0.01806(10) 0.67366(15) -0.05008(8)
C8 C 0.08533(11) 0.81958(16) 0.09447(9)
C9 C 0.14245(11) 0.92911(17) 0.09620(9)
C10 C 0.15343(13) 1.02868(18) 0.05123(10)
H6 H 0.1237 1.0383 0.0117
C11 C 0.21582(15) 1.1140(2) 0.07320(14)
H7 H 0.2320 1.1860 0.0493
C12 C 0.24891(14) 1.0797(2) 0.13224(15)
H8 H 0.2909 1.1248 0.1532
C13 C -0.09238(10) 0.67833(16) 0.06018(8)
C14 C -0.13925(11) 0.56785(18) 0.04985(9)
H9 H -0.1243 0.5113 0.0161
C15 C -0.20727(12) 0.5415(2) 0.08900(11)
H10 H -0.2377 0.4678 0.0813
C16 C -0.22995(12) 0.6230(3) 0.13876(11)
H11 H -0.2751 0.6039 0.1656
C17 C -0.18603(13) 0.7339(3) 0.14950(10)
H12 H -0.2025 0.7903 0.1829
C18 C -0.11707(11) 0.7617(2) 0.11052(9)
H13 H -0.0875 0.8363 0.1182
C19 C -0.01924(18) 0.5406(2) -0.22061(11)
H14 H 0.0061 0.5718 -0.2609
H15 H -0.0739 0.5114 -0.2305
H16 H 0.0127 0.4712 -0.2030
C20 C -0.07040(13) 0.76133(19) -0.19715(10)
H17 H -0.0450 0.7890 -0.2380
H18 H -0.0697 0.8299 -0.1653
H19 H -0.1263 0.7367 -0.2059
loop_
_geom_bond_atom_site_label_1
_geom_bond_atom_site_label_2
_geom_bond_site_symmetry_1
_geom_bond_site_symmetry_2
S1 C9 1_555 1_555
N1 C3 1_555 1_555
O1 C8 1_555 1_555
C1 H1 1_555 1_555
H2 C1 1_555 1_555
C2 C1 1_555 1_555
C3 C2 1_555 1_555
H3 C3 1_555 1_555
H4 C3 1_555 1_555
C4 N1 1_555 1_555
H5 C4 1_555 1_555
C5 C4 1_555 1_555
C6 C5 1_555 1_555
C7 N1 1_555 1_555
C8 C5 1_555 1_555
C9 C8 1_555 1_555
C10 C9 1_555 1_555
H6 C10 1_555 1_555
C11 C10 1_555 1_555
H7 C11 1_555 1_555
C12 S1 1_555 1_555
H8 C12 1_555 1_555
C13 C6 1_555 1_555
C14 C13 1_555 1_555
H9 C14 1_555 1_555
C15 C14 1_555 1_555
H10 C15 1_555 1_555
C16 C15 1_555 1_555
H11 C16 1_555 1_555
C17 C16 1_555 1_555
H12 C17 1_555 1_555
C18 C13 1_555 1_555
H13 C18 1_555 1_555
C19 C2 1_555 1_555
H14 C19 1_555 1_555
H15 C19 1_555 1_555
H16 C19 1_555 1_555
C20 C2 1_555 1_555
H17 C20 1_555 1_555
H18 C20 1_555 1_555
H19 C20 1_555 1_555
C1 C7 1_555 1_555
C6 C7 1_555 1_555
C11 C12 1_555 1_555
C17 C18 1_555 1_555

#END
