
#######################################################################
#
#                 Cambridge Crystallographic Data Centre
#                                CCDC 
#
#######################################################################
#
# If this CIF has been generated from an entry in the Cambridge 
# Structural Database, then it will include bibliographic, chemical, 
# crystal, experimental, refinement or atomic coordinate data resulting 
# from the CCDC's data processing and validation procedures.
#
#######################################################################

data_QINXAP
_chemical_formula_moiety         'C32 H23 B1 N2 O2'
_chemical_name_systematic        
2-(6,6-diphenyl-6H-7\l^5^,6\l^5^-phthalazino[2,1-c][1,3,2]benzoxazaborinin-9-yl)phenol
_symmetry_cell_setting           monoclinic
_symmetry_space_group_name_H-M   'P 21/n'
_symmetry_Int_Tables_number      14
_space_group_name_Hall           '-P 2yn'
loop_
_symmetry_equiv_pos_site_id
_symmetry_equiv_pos_as_xyz
1 x,y,z
2 1/2-x,1/2+y,1/2-z
3 -x,-y,-z
4 1/2+x,1/2-y,1/2+z
_cell_length_a                   10.3382(4)
_cell_length_b                   15.8744(6)
_cell_length_c                   30.8331(12)
_cell_angle_alpha                90
_cell_angle_beta                 96.2970(10)
_cell_angle_gamma                90
_cell_volume                     5029.57
_cell_formula_units_Z            8
loop_
_atom_site_label
_atom_site_type_symbol
_atom_site_fract_x
_atom_site_fract_y
_atom_site_fract_z
O1 O 0.7464 0.41198 0.47272
O2 O 0.3795 0.1598 0.4945
H1 H 0.4145 0.2002 0.484
N1 N 0.6568 0.27837 0.44282
N2 N 0.5859 0.20934 0.45179
B1 B 0.7261 0.323 0.48627
C1 C 0.8606 0.2751 0.50081
C2 C 0.9472 0.3116 0.53308
H2 H 0.9263 0.3637 0.5442
C3 C 1.0618 0.2742 0.5493
H3 H 1.1167 0.3009 0.571
C4 C 1.0957 0.1977 0.53359
H4 H 1.173 0.1716 0.5446
C5 C 1.0134 0.1599 0.50128
H5 H 1.0355 0.1082 0.4901
C6 C 0.8982 0.1985 0.48541
H6 H 0.844 0.1718 0.4635
C7 C 0.6263 0.3273 0.52222
C8 C 0.6444 0.287 0.56194
H7 H 0.7169 0.2526 0.5682
C9 C 0.5579 0.2959 0.59303
H8 H 0.5741 0.2682 0.6197
C10 C 0.4495 0.3447 0.58504
H9 H 0.3902 0.3491 0.6055
C11 C 0.4299 0.3867 0.54655
H10 H 0.3575 0.4214 0.5407
C12 C 0.5171 0.3782 0.51606
H11 H 0.5018 0.4082 0.4901
C13 C 0.8332 0.3852 0.36231
H12 H 0.8206 0.3479 0.339
C14 C 0.9139 0.4532 0.35969
H13 H 0.9548 0.4624 0.3347
C15 C 0.9338 0.5079 0.39462
H14 H 0.986 0.5551 0.3926
C16 C 0.8779 0.4936 0.43207
H15 H 0.8935 0.5305 0.4555
C17 C 0.7979 0.4244 0.43526
C18 C 0.7692 0.3706 0.39939
C19 C 0.6749 0.3022 0.40225
C20 C 0.5293 0.1636 0.4195
C21 C 0.5276 0.1896 0.37495
C22 C 0.5996 0.2619 0.36611
C23 C 0.5882 0.2927 0.32313
H16 H 0.6307 0.3421 0.3169
C24 C 0.5155 0.2509 0.2906
H17 H 0.5113 0.2711 0.2622
C25 C 0.4476 0.1786 0.29914
H18 H 0.3995 0.1501 0.2764
C26 C 0.4513 0.1491 0.34063
H19 H 0.403 0.1017 0.3463
C27 C 0.4632 0.0875 0.43325
C28 C 0.3894 0.0894 0.46817
C29 C 0.3215 0.0193 0.47994
H20 H 0.2706 0.0221 0.5029
C30 C 0.3306 -0.0534 0.4574
H21 H 0.2839 -0.1004 0.4647
C31 C 0.4078 -0.0588 0.42379
H22 H 0.4145 -0.1098 0.4094
C32 C 0.4753 0.0106 0.4113
H23 H 0.5279 0.0066 0.3888
O1_2 O 0.7464 1.41198 0.47272
O2_2 O 0.3795 1.1598 0.4945
H1_2 H 0.4145 1.2002 0.484
N1_2 N 0.6568 1.27837 0.44282
N2_2 N 0.5859 1.20934 0.45179
B1_2 B 0.7261 1.323 0.48627
C1_2 C 0.8606 1.2751 0.50081
C2_2 C 0.9472 1.3116 0.53308
H2_2 H 0.9263 1.3637 0.5442
C3_2 C 1.0618 1.2742 0.5493
H3_2 H 1.1167 1.3009 0.571
C4_2 C 1.0957 1.1977 0.53359
H4_2 H 1.173 1.1716 0.5446
C5_2 C 1.0134 1.1599 0.50128
H5_2 H 1.0355 1.1082 0.4901
C6_2 C 0.8982 1.1985 0.48541
H6_2 H 0.844 1.1718 0.4635
C7_2 C 0.6263 1.3273 0.52222
C8_2 C 0.6444 1.287 0.56194
H7_2 H 0.7169 1.2526 0.5682
C9_2 C 0.5579 1.2959 0.59303
H8_2 H 0.5741 1.2682 0.6197
C10_2 C 0.4495 1.3447 0.58504
H9_2 H 0.3902 1.3491 0.6055
C11_2 C 0.4299 1.3867 0.54655
H10_2 H 0.3575 1.4214 0.5407
C12_2 C 0.5171 1.3782 0.51606
H11_2 H 0.5018 1.4082 0.4901
C13_2 C 0.8332 1.3852 0.36231
H12_2 H 0.8206 1.3479 0.339
C14_2 C 0.9139 1.4532 0.35969
H13_2 H 0.9548 1.4624 0.3347
C15_2 C 0.9338 1.5079 0.39462
H14_2 H 0.986 1.5551 0.3926
C16_2 C 0.8779 1.4936 0.43207
H15_2 H 0.8935 1.5305 0.4555
C17_2 C 0.7979 1.4244 0.43526
C18_2 C 0.7692 1.3706 0.39939
C19_2 C 0.6749 1.3022 0.40225
C20_2 C 0.5293 1.1636 0.4195
C21_2 C 0.5276 1.1896 0.37495
C22_2 C 0.5996 1.2619 0.36611
C23_2 C 0.5882 1.2927 0.32313
H16_2 H 0.6307 1.3421 0.3169
C24_2 C 0.5155 1.2509 0.2906
H17_2 H 0.5113 1.2711 0.2622
C25_2 C 0.4476 1.1786 0.29914
H18_2 H 0.3995 1.1501 0.2764
C26_2 C 0.4513 1.1491 0.34063
H19_2 H 0.403 1.1017 0.3463
C27_2 C 0.4632 1.0875 0.43325
C28_2 C 0.3894 1.0894 0.46817
C29_2 C 0.3215 1.0193 0.47994
H20_2 H 0.2706 1.0221 0.5029
C30_2 C 0.3306 0.9466 0.4574
H21_2 H 0.2839 0.8996 0.4647
C31_2 C 0.4078 0.9412 0.42379
H22_2 H 0.4145 0.8902 0.4094
C32_2 C 0.4753 1.0106 0.4113
H23_2 H 0.5279 1.0066 0.3888
O1B O 0.2536 0.58802 0.52728
O2B O 0.6205 0.8402 0.5055
H1B H 0.5855 0.7998 0.516
N1B N 0.3432 0.72163 0.55718
N2B N 0.4141 0.79066 0.54821
B1B B 0.2739 0.677 0.51373
C1B C 0.1394 0.7249 0.49919
C2B C 0.0528 0.6884 0.46692
H2B H 0.0737 0.6363 0.4558
C3B C -0.0618 0.7258 0.4507
H3B H -0.1167 0.6991 0.429
C4B C -0.0957 0.8023 0.46641
H4B H -0.173 0.8284 0.4554
C5B C -0.0134 0.8401 0.49872
H5B H -0.0355 0.8918 0.5099
C6B C 0.1018 0.8015 0.51459
H6B H 0.156 0.8282 0.5365
C7B C 0.3737 0.6727 0.47778
C8B C 0.3556 0.713 0.43806
H7B H 0.2831 0.7474 0.4318
C9B C 0.4421 0.7041 0.40697
H8B H 0.4259 0.7318 0.3803
C10B C 0.5505 0.6553 0.41496
H9B H 0.6098 0.6509 0.3945
C11B C 0.5701 0.6133 0.45345
H10B H 0.6425 0.5786 0.4593
C12B C 0.4829 0.6218 0.48394
H11B H 0.4982 0.5918 0.5099
C13B C 0.1668 0.6148 0.63769
H12B H 0.1794 0.6521 0.661
C14B C 0.0861 0.5468 0.64031
H13B H 0.0452 0.5376 0.6653
C15B C 0.0662 0.4921 0.60538
H14B H 0.014 0.4449 0.6074
C16B C 0.1221 0.5064 0.56793
H15B H 0.1065 0.4695 0.5445
C17B C 0.2021 0.5756 0.56474
C18B C 0.2308 0.6294 0.60061
C19B C 0.3251 0.6978 0.59775
C20B C 0.4707 0.8364 0.5805
C21B C 0.4724 0.8104 0.62505
C22B C 0.4004 0.7381 0.63389
C23B C 0.4118 0.7073 0.67687
H16B H 0.3693 0.6579 0.6831
C24B C 0.4845 0.7491 0.7094
H17B H 0.4887 0.7289 0.7378
C25B C 0.5524 0.8214 0.70086
H18B H 0.6005 0.8499 0.7236
C26B C 0.5487 0.8509 0.65937
H19B H 0.597 0.8983 0.6537
C27B C 0.5368 0.9125 0.56675
C28B C 0.6106 0.9106 0.53183
C29B C 0.6785 0.9807 0.52006
H20B H 0.7294 0.9779 0.4971
C30B C 0.6694 1.0534 0.5426
H21B H 0.7161 1.1004 0.5353
C31B C 0.5922 1.0588 0.57621
H22B H 0.5855 1.1098 0.5906
C32B C 0.5247 0.9894 0.5887
H23B H 0.4721 0.9934 0.6112
O1B_2 O 0.2536 1.58802 0.52728
O2B_2 O 0.6205 1.8402 0.5055
H1B_2 H 0.5855 1.7998 0.516
N1B_2 N 0.3432 1.72163 0.55718
N2B_2 N 0.4141 1.79066 0.54821
B1B_2 B 0.2739 1.677 0.51373
C1B_2 C 0.1394 1.7249 0.49919
C2B_2 C 0.0528 1.6884 0.46692
H2B_2 H 0.0737 1.6363 0.4558
C3B_2 C -0.0618 1.7258 0.4507
H3B_2 H -0.1167 1.6991 0.429
C4B_2 C -0.0957 1.8023 0.46641
H4B_2 H -0.173 1.8284 0.4554
C5B_2 C -0.0134 1.8401 0.49872
H5B_2 H -0.0355 1.8918 0.5099
C6B_2 C 0.1018 1.8015 0.51459
H6B_2 H 0.156 1.8282 0.5365
C7B_2 C 0.3737 1.6727 0.47778
C8B_2 C 0.3556 1.713 0.43806
H7B_2 H 0.2831 1.7474 0.4318
C9B_2 C 0.4421 1.7041 0.40697
H8B_2 H 0.4259 1.7318 0.3803
C10B_2 C 0.5505 1.6553 0.41496
H9B_2 H 0.6098 1.6509 0.3945
C11B_2 C 0.5701 1.6133 0.45345
H10B_2 H 0.6425 1.5786 0.4593
C12B_2 C 0.4829 1.6218 0.48394
H11B_2 H 0.4982 1.5918 0.5099
C13B_2 C 0.1668 1.6148 0.63769
H12B_2 H 0.1794 1.6521 0.661
C14B_2 C 0.0861 1.5468 0.64031
H13B_2 H 0.0452 1.5376 0.6653
C15B_2 C 0.0662 1.4921 0.60538
H14B_2 H 0.014 1.4449 0.6074
C16B_2 C 0.1221 1.5064 0.56793
H15B_2 H 0.1065 1.4695 0.5445
C17B_2 C 0.2021 1.5756 0.56474
C18B_2 C 0.2308 1.6294 0.60061
C19B_2 C 0.3251 1.6978 0.59775
C20B_2 C 0.4707 1.8364 0.5805
C21B_2 C 0.4724 1.8104 0.62505
C22B_2 C 0.4004 1.7381 0.63389
C23B_2 C 0.4118 1.7073 0.67687
H16B_2 H 0.3693 1.6579 0.6831
C24B_2 C 0.4845 1.7491 0.7094
H17B_2 H 0.4887 1.7289 0.7378
C25B_2 C 0.5524 1.8214 0.70086
H18B_2 H 0.6005 1.8499 0.7236
C26B_2 C 0.5487 1.8509 0.65937
H19B_2 H 0.597 1.8983 0.6537
C27B_2 C 0.5368 1.9125 0.56675
C28B_2 C 0.6106 1.9106 0.53183
C29B_2 C 0.6785 1.9807 0.52006
H20B_2 H 0.7294 1.9779 0.4971
C30B_2 C 0.6694 2.0534 0.5426
H21B_2 H 0.7161 2.1004 0.5353
C31B_2 C 0.5922 2.0588 0.57621
H22B_2 H 0.5855 2.1098 0.5906
C32B_2 C 0.5247 1.9894 0.5887
H23B_2 H 0.4721 1.9934 0.6112
O3 O 0.2075 0.48222 0.2381
O4 O -0.1307 0.23067 0.29333
H24 H -0.0745 0.2608 0.2846
N3 N 0.1876 0.3644 0.2896
N4 N 0.1162 0.29658 0.30023
B2 B 0.164 0.3929 0.23753
C33 C 0.2508 0.3344 0.2094
C34 C 0.3246 0.3695 0.17887
H25 H 0.3265 0.4278 0.1758
C35 C 0.3953 0.3199 0.15298
H26 H 0.4445 0.3452 0.1331
C36 C 0.3935 0.234 0.15647
H27 H 0.4415 0.2008 0.1392
C37 C 0.3203 0.1979 0.18559
H28 H 0.318 0.1396 0.1881
C38 C 0.2496 0.2471 0.21138
H29 H 0.1995 0.2209 0.2307
C39 C 0.01 0.3903 0.22471
C40 C -0.0544 0.3278 0.19956
H30 H -0.0062 0.2858 0.1878
C41 C -0.1901 0.3261 0.1914
H31 H -0.2303 0.2833 0.1743
C42 C -0.2635 0.3857 0.2081
H32 H -0.3538 0.384 0.2028
C43 C -0.2036 0.4483 0.2326
H33 H -0.2536 0.4894 0.2444
C44 C -0.0675 0.4522 0.24055
H34 H -0.0287 0.4968 0.2566
C45 C 0.472 0.4884 0.32655
H35 H 0.495 0.4643 0.3538
C46 C 0.5555 0.5448 0.30987
H36 H 0.6352 0.5578 0.3254
C47 C 0.5191 0.5815 0.26983
H37 H 0.5737 0.621 0.259
C48 C 0.4037 0.5608 0.24572
H38 H 0.3811 0.586 0.2187
C49 C 0.3208 0.5024 0.26159
C50 C 0.3531 0.4671 0.30289
C51 C 0.2637 0.4076 0.31927
C52 C 0.1188 0.2738 0.34117
C53 C 0.177 0.3255 0.37626
C54 C 0.1531 0.3155 0.4197
H39 H 0.1078 0.2685 0.4278
C55 C 0.1959 0.3742 0.45016
H40 H 0.1804 0.3665 0.479
C56 C 0.2623 0.4452 0.43867
H41 H 0.2884 0.4857 0.4596
C57 C 0.2894 0.456 0.39693
H42 H 0.3345 0.5036 0.3895
C58 C 0.2495 0.3955 0.36472
C59 C 0.0463 0.1965 0.34914
C60 C -0.0755 0.1802 0.32626
C61 C -0.1488 0.1122 0.33648
H43 H -0.2324 0.1045 0.3226
C62 C -0.0973 0.0555 0.36751
H44 H -0.1464 0.0092 0.3743
C63 C 0.0265 0.0665 0.38868
H45 H 0.0622 0.0268 0.4087
C64 C 0.0962 0.1371 0.37977
H46 H 0.1785 0.1454 0.3946
O3_2 O 0.2075 1.48222 0.2381
O4_2 O -0.1307 1.23067 0.29333
H24_2 H -0.0745 1.2608 0.2846
N3_2 N 0.1876 1.3644 0.2896
N4_2 N 0.1162 1.29658 0.30023
B2_2 B 0.164 1.3929 0.23753
C33_2 C 0.2508 1.3344 0.2094
C34_2 C 0.3246 1.3695 0.17887
H25_2 H 0.3265 1.4278 0.1758
C35_2 C 0.3953 1.3199 0.15298
H26_2 H 0.4445 1.3452 0.1331
C36_2 C 0.3935 1.234 0.15647
H27_2 H 0.4415 1.2008 0.1392
C37_2 C 0.3203 1.1979 0.18559
H28_2 H 0.318 1.1396 0.1881
C38_2 C 0.2496 1.2471 0.21138
H29_2 H 0.1995 1.2209 0.2307
C39_2 C 0.01 1.3903 0.22471
C40_2 C -0.0544 1.3278 0.19956
H30_2 H -0.0062 1.2858 0.1878
C41_2 C -0.1901 1.3261 0.1914
H31_2 H -0.2303 1.2833 0.1743
C42_2 C -0.2635 1.3857 0.2081
H32_2 H -0.3538 1.384 0.2028
C43_2 C -0.2036 1.4483 0.2326
H33_2 H -0.2536 1.4894 0.2444
C44_2 C -0.0675 1.4522 0.24055
H34_2 H -0.0287 1.4968 0.2566
C45_2 C 0.472 1.4884 0.32655
H35_2 H 0.495 1.4643 0.3538
C46_2 C 0.5555 1.5448 0.30987
H36_2 H 0.6352 1.5578 0.3254
C47_2 C 0.5191 1.5815 0.26983
H37_2 H 0.5737 1.621 0.259
C48_2 C 0.4037 1.5608 0.24572
H38_2 H 0.3811 1.586 0.2187
C49_2 C 0.3208 1.5024 0.26159
C50_2 C 0.3531 1.4671 0.30289
C51_2 C 0.2637 1.4076 0.31927
C52_2 C 0.1188 1.2738 0.34117
C53_2 C 0.177 1.3255 0.37626
C54_2 C 0.1531 1.3155 0.4197
H39_2 H 0.1078 1.2685 0.4278
C55_2 C 0.1959 1.3742 0.45016
H40_2 H 0.1804 1.3665 0.479
C56_2 C 0.2623 1.4452 0.43867
H41_2 H 0.2884 1.4857 0.4596
C57_2 C 0.2894 1.456 0.39693
H42_2 H 0.3345 1.5036 0.3895
C58_2 C 0.2495 1.3955 0.36472
C59_2 C 0.0463 1.1965 0.34914
C60_2 C -0.0755 1.1802 0.32626
C61_2 C -0.1488 1.1122 0.33648
H43_2 H -0.2324 1.1045 0.3226
C62_2 C -0.0973 1.0555 0.36751
H44_2 H -0.1464 1.0092 0.3743
C63_2 C 0.0265 1.0665 0.38868
H45_2 H 0.0622 1.0268 0.4087
C64_2 C 0.0962 1.1371 0.37977
H46_2 H 0.1785 1.1454 0.3946
O3B O 0.7925 0.51778 0.7619
O4B O 1.1307 0.76933 0.70667
H24B H 1.0745 0.7392 0.7154
N3B N 0.8124 0.6356 0.7104
N4B N 0.8838 0.70342 0.69977
B2B B 0.836 0.6071 0.76247
C33B C 0.7492 0.6656 0.7906
C34B C 0.6754 0.6305 0.82113
H25B H 0.6735 0.5722 0.8242
C35B C 0.6047 0.6801 0.84702
H26B H 0.5555 0.6548 0.8669
C36B C 0.6065 0.766 0.84353
H27B H 0.5585 0.7992 0.8608
C37B C 0.6797 0.8021 0.81441
H28B H 0.682 0.8604 0.8119
C38B C 0.7504 0.7529 0.78862
H29B H 0.8005 0.7791 0.7693
C39B C 0.99 0.6097 0.77529
C40B C 1.0544 0.6722 0.80044
H30B H 1.0062 0.7142 0.8122
C41B C 1.1901 0.6739 0.8086
H31B H 1.2303 0.7167 0.8257
C42B C 1.2635 0.6143 0.7919
H32B H 1.3538 0.616 0.7972
C43B C 1.2036 0.5517 0.7674
H33B H 1.2536 0.5106 0.7556
C44B C 1.0675 0.5478 0.75945
H34B H 1.0287 0.5032 0.7434
C45B C 0.528 0.5116 0.67345
H35B H 0.505 0.5357 0.6462
C46B C 0.4445 0.4552 0.69013
H36B H 0.3648 0.4422 0.6746
C47B C 0.4809 0.4185 0.73017
H37B H 0.4263 0.379 0.741
C48B C 0.5963 0.4392 0.75428
H38B H 0.6189 0.414 0.7813
C49B C 0.6792 0.4976 0.73841
C50B C 0.6469 0.5329 0.69711
C51B C 0.7363 0.5924 0.68073
C52B C 0.8812 0.7262 0.65883
C53B C 0.823 0.6745 0.62374
C54B C 0.8469 0.6845 0.5803
H39B H 0.8922 0.7315 0.5722
C55B C 0.8041 0.6258 0.54984
H40B H 0.8196 0.6335 0.521
C56B C 0.7377 0.5548 0.56133
H41B H 0.7116 0.5143 0.5404
C57B C 0.7106 0.544 0.60307
H42B H 0.6655 0.4964 0.6105
C58B C 0.7505 0.6045 0.63528
C59B C 0.9537 0.8035 0.65086
C60B C 1.0755 0.8198 0.67374
C61B C 1.1488 0.8878 0.66352
H43B H 1.2324 0.8955 0.6774
C62B C 1.0973 0.9445 0.63249
H44B H 1.1464 0.9908 0.6257
C63B C 0.9735 0.9335 0.61132
H45B H 0.9378 0.9732 0.5913
C64B C 0.9038 0.8629 0.62023
H46B H 0.8215 0.8546 0.6054
O3B_2 O 0.7925 1.51778 0.7619
O4B_2 O 1.1307 1.76933 0.70667
H24B_2 H 1.0745 1.7392 0.7154
N3B_2 N 0.8124 1.6356 0.7104
N4B_2 N 0.8838 1.70342 0.69977
B2B_2 B 0.836 1.6071 0.76247
C33B_2 C 0.7492 1.6656 0.7906
C34B_2 C 0.6754 1.6305 0.82113
H25B_2 H 0.6735 1.5722 0.8242
C35B_2 C 0.6047 1.6801 0.84702
H26B_2 H 0.5555 1.6548 0.8669
C36B_2 C 0.6065 1.766 0.84353
H27B_2 H 0.5585 1.7992 0.8608
C37B_2 C 0.6797 1.8021 0.81441
H28B_2 H 0.682 1.8604 0.8119
C38B_2 C 0.7504 1.7529 0.78862
H29B_2 H 0.8005 1.7791 0.7693
C39B_2 C 0.99 1.6097 0.77529
C40B_2 C 1.0544 1.6722 0.80044
H30B_2 H 1.0062 1.7142 0.8122
C41B_2 C 1.1901 1.6739 0.8086
H31B_2 H 1.2303 1.7167 0.8257
C42B_2 C 1.2635 1.6143 0.7919
H32B_2 H 1.3538 1.616 0.7972
C43B_2 C 1.2036 1.5517 0.7674
H33B_2 H 1.2536 1.5106 0.7556
C44B_2 C 1.0675 1.5478 0.75945
H34B_2 H 1.0287 1.5032 0.7434
C45B_2 C 0.528 1.5116 0.67345
H35B_2 H 0.505 1.5357 0.6462
C46B_2 C 0.4445 1.4552 0.69013
H36B_2 H 0.3648 1.4422 0.6746
C47B_2 C 0.4809 1.4185 0.73017
H37B_2 H 0.4263 1.379 0.741
C48B_2 C 0.5963 1.4392 0.75428
H38B_2 H 0.6189 1.414 0.7813
C49B_2 C 0.6792 1.4976 0.73841
C50B_2 C 0.6469 1.5329 0.69711
C51B_2 C 0.7363 1.5924 0.68073
C52B_2 C 0.8812 1.7262 0.65883
C53B_2 C 0.823 1.6745 0.62374
C54B_2 C 0.8469 1.6845 0.5803
H39B_2 H 0.8922 1.7315 0.5722
C55B_2 C 0.8041 1.6258 0.54984
H40B_2 H 0.8196 1.6335 0.521
C56B_2 C 0.7377 1.5548 0.56133
H41B_2 H 0.7116 1.5143 0.5404
C57B_2 C 0.7106 1.544 0.60307
H42B_2 H 0.6655 1.4964 0.6105
C58B_2 C 0.7505 1.6045 0.63528
C59B_2 C 0.9537 1.8035 0.65086
C60B_2 C 1.0755 1.8198 0.67374
C61B_2 C 1.1488 1.8878 0.66352
H43B_2 H 1.2324 1.8955 0.6774
C62B_2 C 1.0973 1.9445 0.63249
H44B_2 H 1.1464 1.9908 0.6257
C63B_2 C 0.9735 1.9335 0.61132
H45B_2 H 0.9378 1.9732 0.5913
C64B_2 C 0.9038 1.8629 0.62023
H46B_2 H 0.8215 1.8546 0.6054
loop_
_geom_bond_atom_site_label_1
_geom_bond_atom_site_label_2
_geom_bond_site_symmetry_1
_geom_bond_site_symmetry_2
O1 B1 1_555 1_555
O2 H1 1_555 1_555
N1 N2 1_555 1_555
N2 C20 1_555 1_555
B1 N1 1_555 1_555
C1 B1 1_555 1_555
C2 C1 1_555 1_555
H2 C2 1_555 1_555
C3 C2 1_555 1_555
H3 C3 1_555 1_555
C4 C3 1_555 1_555
H4 C4 1_555 1_555
C5 C4 1_555 1_555
H5 C5 1_555 1_555
C6 C1 1_555 1_555
H6 C6 1_555 1_555
C7 B1 1_555 1_555
C8 C7 1_555 1_555
H7 C8 1_555 1_555
C9 C8 1_555 1_555
H8 C9 1_555 1_555
C10 C9 1_555 1_555
H9 C10 1_555 1_555
C11 C10 1_555 1_555
H10 C11 1_555 1_555
C12 C7 1_555 1_555
H11 C12 1_555 1_555
C13 H12 1_555 1_555
C14 C13 1_555 1_555
H13 C14 1_555 1_555
C15 C14 1_555 1_555
H14 C15 1_555 1_555
C16 C15 1_555 1_555
H15 C16 1_555 1_555
C17 O1 1_555 1_555
C18 C13 1_555 1_555
C19 N1 1_555 1_555
C20 C21 1_555 1_555
C21 C22 1_555 1_555
C22 C19 1_555 1_555
C23 C22 1_555 1_555
H16 C23 1_555 1_555
C24 C23 1_555 1_555
H17 C24 1_555 1_555
C25 C24 1_555 1_555
H18 C25 1_555 1_555
C26 C21 1_555 1_555
H19 C26 1_555 1_555
C27 C20 1_555 1_555
C28 O2 1_555 1_555
C29 C28 1_555 1_555
H20 C29 1_555 1_555
C30 C29 1_555 1_555
H21 C30 1_555 1_555
C31 C30 1_555 1_555
H22 C31 1_555 1_555
C32 C27 1_555 1_555
H23 C32 1_555 1_555
O3 B2 1_555 1_555
O4 H24 1_555 1_555
N3 N4 1_555 1_555
N4 C52 1_555 1_555
B2 N3 1_555 1_555
C33 B2 1_555 1_555
C34 C33 1_555 1_555
H25 C34 1_555 1_555
C35 C34 1_555 1_555
H26 C35 1_555 1_555
C36 C35 1_555 1_555
H27 C36 1_555 1_555
C37 C36 1_555 1_555
H28 C37 1_555 1_555
C38 C33 1_555 1_555
H29 C38 1_555 1_555
C39 B2 1_555 1_555
C40 C39 1_555 1_555
H30 C40 1_555 1_555
C41 C40 1_555 1_555
H31 C41 1_555 1_555
C42 C41 1_555 1_555
H32 C42 1_555 1_555
C43 C42 1_555 1_555
H33 C43 1_555 1_555
C44 C39 1_555 1_555
H34 C44 1_555 1_555
C45 H35 1_555 1_555
C46 C45 1_555 1_555
H36 C46 1_555 1_555
C47 C46 1_555 1_555
H37 C47 1_555 1_555
C48 C47 1_555 1_555
H38 C48 1_555 1_555
C49 O3 1_555 1_555
C50 C45 1_555 1_555
C51 N3 1_555 1_555
C52 C53 1_555 1_555
C53 C54 1_555 1_555
C54 H39 1_555 1_555
C55 C54 1_555 1_555
H40 C55 1_555 1_555
C56 C55 1_555 1_555
H41 C56 1_555 1_555
C57 C56 1_555 1_555
H42 C57 1_555 1_555
C58 C51 1_555 1_555
C59 C52 1_555 1_555
C60 O4 1_555 1_555
C61 C60 1_555 1_555
H43 C61 1_555 1_555
C62 C61 1_555 1_555
H44 C62 1_555 1_555
C63 C62 1_555 1_555
H45 C63 1_555 1_555
C64 C59 1_555 1_555
H46 C64 1_555 1_555
O1_2 B1_2 1_555 1_555
O2_2 H1_2 1_555 1_555
N1_2 N2_2 1_555 1_555
N2_2 C20_2 1_555 1_555
B1_2 N1_2 1_555 1_555
C1_2 B1_2 1_555 1_555
C2_2 C1_2 1_555 1_555
H2_2 C2_2 1_555 1_555
C3_2 C2_2 1_555 1_555
H3_2 C3_2 1_555 1_555
C4_2 C3_2 1_555 1_555
H4_2 C4_2 1_555 1_555
C5_2 C4_2 1_555 1_555
H5_2 C5_2 1_555 1_555
C6_2 C1_2 1_555 1_555
H6_2 C6_2 1_555 1_555
C7_2 B1_2 1_555 1_555
C8_2 C7_2 1_555 1_555
H7_2 C8_2 1_555 1_555
C9_2 C8_2 1_555 1_555
H8_2 C9_2 1_555 1_555
C10_2 C9_2 1_555 1_555
H9_2 C10_2 1_555 1_555
C11_2 C10_2 1_555 1_555
H10_2 C11_2 1_555 1_555
C12_2 C7_2 1_555 1_555
H11_2 C12_2 1_555 1_555
C13_2 H12_2 1_555 1_555
C14_2 C13_2 1_555 1_555
H13_2 C14_2 1_555 1_555
C15_2 C14_2 1_555 1_555
H14_2 C15_2 1_555 1_555
C16_2 C15_2 1_555 1_555
H15_2 C16_2 1_555 1_555
C17_2 O1_2 1_555 1_555
C18_2 C13_2 1_555 1_555
C19_2 N1_2 1_555 1_555
C20_2 C21_2 1_555 1_555
C21_2 C22_2 1_555 1_555
C22_2 C19_2 1_555 1_555
C23_2 C22_2 1_555 1_555
H16_2 C23_2 1_555 1_555
C24_2 C23_2 1_555 1_555
H17_2 C24_2 1_555 1_555
C25_2 C24_2 1_555 1_555
H18_2 C25_2 1_555 1_555
C26_2 C21_2 1_555 1_555
H19_2 C26_2 1_555 1_555
C27_2 C20_2 1_555 1_555
C28_2 O2_2 1_555 1_555
C29_2 C28_2 1_555 1_555
H20_2 C29_2 1_555 1_555
C30_2 C29_2 1_555 1_555
H21_2 C30_2 1_555 1_555
C31_2 C30_2 1_555 1_555
H22_2 C31_2 1_555 1_555
C32_2 C27_2 1_555 1_555
H23_2 C32_2 1_555 1_555
O1B B1B 1_555 1_555
O2B H1B 1_555 1_555
N1B N2B 1_555 1_555
N2B C20B 1_555 1_555
B1B N1B 1_555 1_555
C1B B1B 1_555 1_555
C2B C1B 1_555 1_555
H2B C2B 1_555 1_555
C3B C2B 1_555 1_555
H3B C3B 1_555 1_555
C4B C3B 1_555 1_555
H4B C4B 1_555 1_555
C5B C4B 1_555 1_555
H5B C5B 1_555 1_555
C6B C1B 1_555 1_555
H6B C6B 1_555 1_555
C7B B1B 1_555 1_555
C8B C7B 1_555 1_555
H7B C8B 1_555 1_555
C9B C8B 1_555 1_555
H8B C9B 1_555 1_555
C10B C9B 1_555 1_555
H9B C10B 1_555 1_555
C11B C10B 1_555 1_555
H10B C11B 1_555 1_555
C12B C7B 1_555 1_555
H11B C12B 1_555 1_555
C13B H12B 1_555 1_555
C14B C13B 1_555 1_555
H13B C14B 1_555 1_555
C15B C14B 1_555 1_555
H14B C15B 1_555 1_555
C16B C15B 1_555 1_555
H15B C16B 1_555 1_555
C17B O1B 1_555 1_555
C18B C13B 1_555 1_555
C19B N1B 1_555 1_555
C20B C21B 1_555 1_555
C21B C22B 1_555 1_555
C22B C19B 1_555 1_555
C23B C22B 1_555 1_555
H16B C23B 1_555 1_555
C24B C23B 1_555 1_555
H17B C24B 1_555 1_555
C25B C24B 1_555 1_555
H18B C25B 1_555 1_555
C26B C21B 1_555 1_555
H19B C26B 1_555 1_555
C27B C20B 1_555 1_555
C28B O2B 1_555 1_555
C29B C28B 1_555 1_555
H20B C29B 1_555 1_555
C30B C29B 1_555 1_555
H21B C30B 1_555 1_555
C31B C30B 1_555 1_555
H22B C31B 1_555 1_555
C32B C27B 1_555 1_555
H23B C32B 1_555 1_555
O1B_2 B1B_2 1_555 1_555
O2B_2 H1B_2 1_555 1_555
N1B_2 N2B_2 1_555 1_555
N2B_2 C20B_2 1_555 1_555
B1B_2 N1B_2 1_555 1_555
C1B_2 B1B_2 1_555 1_555
C2B_2 C1B_2 1_555 1_555
H2B_2 C2B_2 1_555 1_555
C3B_2 C2B_2 1_555 1_555
H3B_2 C3B_2 1_555 1_555
C4B_2 C3B_2 1_555 1_555
H4B_2 C4B_2 1_555 1_555
C5B_2 C4B_2 1_555 1_555
H5B_2 C5B_2 1_555 1_555
C6B_2 C1B_2 1_555 1_555
H6B_2 C6B_2 1_555 1_555
C7B_2 B1B_2 1_555 1_555
C8B_2 C7B_2 1_555 1_555
H7B_2 C8B_2 1_555 1_555
C9B_2 C8B_2 1_555 1_555
H8B_2 C9B_2 1_555 1_555
C10B_2 C9B_2 1_555 1_555
H9B_2 C10B_2 1_555 1_555
C11B_2 C10B_2 1_555 1_555
H10B_2 C11B_2 1_555 1_555
C12B_2 C7B_2 1_555 1_555
H11B_2 C12B_2 1_555 1_555
C13B_2 H12B_2 1_555 1_555
C14B_2 C13B_2 1_555 1_555
H13B_2 C14B_2 1_555 1_555
C15B_2 C14B_2 1_555 1_555
H14B_2 C15B_2 1_555 1_555
C16B_2 C15B_2 1_555 1_555
H15B_2 C16B_2 1_555 1_555
C17B_2 O1B_2 1_555 1_555
C18B_2 C13B_2 1_555 1_555
C19B_2 N1B_2 1_555 1_555
C20B_2 C21B_2 1_555 1_555
C21B_2 C22B_2 1_555 1_555
C22B_2 C19B_2 1_555 1_555
C23B_2 C22B_2 1_555 1_555
H16B_2 C23B_2 1_555 1_555
C24B_2 C23B_2 1_555 1_555
H17B_2 C24B_2 1_555 1_555
C25B_2 C24B_2 1_555 1_555
H18B_2 C25B_2 1_555 1_555
C26B_2 C21B_2 1_555 1_555
H19B_2 C26B_2 1_555 1_555
C27B_2 C20B_2 1_555 1_555
C28B_2 O2B_2 1_555 1_555
C29B_2 C28B_2 1_555 1_555
H20B_2 C29B_2 1_555 1_555
C30B_2 C29B_2 1_555 1_555
H21B_2 C30B_2 1_555 1_555
C31B_2 C30B_2 1_555 1_555
H22B_2 C31B_2 1_555 1_555
C32B_2 C27B_2 1_555 1_555
H23B_2 C32B_2 1_555 1_555
O3_2 B2_2 1_555 1_555
O4_2 H24_2 1_555 1_555
N3_2 N4_2 1_555 1_555
N4_2 C52_2 1_555 1_555
B2_2 N3_2 1_555 1_555
C33_2 B2_2 1_555 1_555
C34_2 C33_2 1_555 1_555
H25_2 C34_2 1_555 1_555
C35_2 C34_2 1_555 1_555
H26_2 C35_2 1_555 1_555
C36_2 C35_2 1_555 1_555
H27_2 C36_2 1_555 1_555
C37_2 C36_2 1_555 1_555
H28_2 C37_2 1_555 1_555
C38_2 C33_2 1_555 1_555
H29_2 C38_2 1_555 1_555
C39_2 B2_2 1_555 1_555
C40_2 C39_2 1_555 1_555
H30_2 C40_2 1_555 1_555
C41_2 C40_2 1_555 1_555
H31_2 C41_2 1_555 1_555
C42_2 C41_2 1_555 1_555
H32_2 C42_2 1_555 1_555
C43_2 C42_2 1_555 1_555
H33_2 C43_2 1_555 1_555
C44_2 C39_2 1_555 1_555
H34_2 C44_2 1_555 1_555
C45_2 H35_2 1_555 1_555
C46_2 C45_2 1_555 1_555
H36_2 C46_2 1_555 1_555
C47_2 C46_2 1_555 1_555
H37_2 C47_2 1_555 1_555
C48_2 C47_2 1_555 1_555
H38_2 C48_2 1_555 1_555
C49_2 O3_2 1_555 1_555
C50_2 C45_2 1_555 1_555
C51_2 N3_2 1_555 1_555
C52_2 C53_2 1_555 1_555
C53_2 C54_2 1_555 1_555
C54_2 H39_2 1_555 1_555
C55_2 C54_2 1_555 1_555
H40_2 C55_2 1_555 1_555
C56_2 C55_2 1_555 1_555
H41_2 C56_2 1_555 1_555
C57_2 C56_2 1_555 1_555
H42_2 C57_2 1_555 1_555
C58_2 C51_2 1_555 1_555
C59_2 C52_2 1_555 1_555
C60_2 O4_2 1_555 1_555
C61_2 C60_2 1_555 1_555
H43_2 C61_2 1_555 1_555
C62_2 C61_2 1_555 1_555
H44_2 C62_2 1_555 1_555
C63_2 C62_2 1_555 1_555
H45_2 C63_2 1_555 1_555
C64_2 C59_2 1_555 1_555
H46_2 C64_2 1_555 1_555
O3B B2B 1_555 1_555
O4B H24B 1_555 1_555
N3B N4B 1_555 1_555
N4B C52B 1_555 1_555
B2B N3B 1_555 1_555
C33B B2B 1_555 1_555
C34B C33B 1_555 1_555
H25B C34B 1_555 1_555
C35B C34B 1_555 1_555
H26B C35B 1_555 1_555
C36B C35B 1_555 1_555
H27B C36B 1_555 1_555
C37B C36B 1_555 1_555
H28B C37B 1_555 1_555
C38B C33B 1_555 1_555
H29B C38B 1_555 1_555
C39B B2B 1_555 1_555
C40B C39B 1_555 1_555
H30B C40B 1_555 1_555
C41B C40B 1_555 1_555
H31B C41B 1_555 1_555
C42B C41B 1_555 1_555
H32B C42B 1_555 1_555
C43B C42B 1_555 1_555
H33B C43B 1_555 1_555
C44B C39B 1_555 1_555
H34B C44B 1_555 1_555
C45B H35B 1_555 1_555
C46B C45B 1_555 1_555
H36B C46B 1_555 1_555
C47B C46B 1_555 1_555
H37B C47B 1_555 1_555
C48B C47B 1_555 1_555
H38B C48B 1_555 1_555
C49B O3B 1_555 1_555
C50B C45B 1_555 1_555
C51B N3B 1_555 1_555
C52B C53B 1_555 1_555
C53B C54B 1_555 1_555
C54B H39B 1_555 1_555
C55B C54B 1_555 1_555
H40B C55B 1_555 1_555
C56B C55B 1_555 1_555
H41B C56B 1_555 1_555
C57B C56B 1_555 1_555
H42B C57B 1_555 1_555
C58B C51B 1_555 1_555
C59B C52B 1_555 1_555
C60B O4B 1_555 1_555
C61B C60B 1_555 1_555
H43B C61B 1_555 1_555
C62B C61B 1_555 1_555
H44B C62B 1_555 1_555
C63B C62B 1_555 1_555
H45B C63B 1_555 1_555
C64B C59B 1_555 1_555
H46B C64B 1_555 1_555
O3B_2 B2B_2 1_555 1_555
O4B_2 H24B_2 1_555 1_555
N3B_2 N4B_2 1_555 1_555
N4B_2 C52B_2 1_555 1_555
B2B_2 N3B_2 1_555 1_555
C33B_2 B2B_2 1_555 1_555
C34B_2 C33B_2 1_555 1_555
H25B_2 C34B_2 1_555 1_555
C35B_2 C34B_2 1_555 1_555
H26B_2 C35B_2 1_555 1_555
C36B_2 C35B_2 1_555 1_555
H27B_2 C36B_2 1_555 1_555
C37B_2 C36B_2 1_555 1_555
H28B_2 C37B_2 1_555 1_555
C38B_2 C33B_2 1_555 1_555
H29B_2 C38B_2 1_555 1_555
C39B_2 B2B_2 1_555 1_555
C40B_2 C39B_2 1_555 1_555
H30B_2 C40B_2 1_555 1_555
C41B_2 C40B_2 1_555 1_555
H31B_2 C41B_2 1_555 1_555
C42B_2 C41B_2 1_555 1_555
H32B_2 C42B_2 1_555 1_555
C43B_2 C42B_2 1_555 1_555
H33B_2 C43B_2 1_555 1_555
C44B_2 C39B_2 1_555 1_555
H34B_2 C44B_2 1_555 1_555
C45B_2 H35B_2 1_555 1_555
C46B_2 C45B_2 1_555 1_555
H36B_2 C46B_2 1_555 1_555
C47B_2 C46B_2 1_555 1_555
H37B_2 C47B_2 1_555 1_555
C48B_2 C47B_2 1_555 1_555
H38B_2 C48B_2 1_555 1_555
C49B_2 O3B_2 1_555 1_555
C50B_2 C45B_2 1_555 1_555
C51B_2 N3B_2 1_555 1_555
C52B_2 C53B_2 1_555 1_555
C53B_2 C54B_2 1_555 1_555
C54B_2 H39B_2 1_555 1_555
C55B_2 C54B_2 1_555 1_555
H40B_2 C55B_2 1_555 1_555
C56B_2 C55B_2 1_555 1_555
H41B_2 C56B_2 1_555 1_555
C57B_2 C56B_2 1_555 1_555
H42B_2 C57B_2 1_555 1_555
C58B_2 C51B_2 1_555 1_555
C59B_2 C52B_2 1_555 1_555
C60B_2 O4B_2 1_555 1_555
C61B_2 C60B_2 1_555 1_555
H43B_2 C61B_2 1_555 1_555
C62B_2 C61B_2 1_555 1_555
H44B_2 C62B_2 1_555 1_555
C63B_2 C62B_2 1_555 1_555
H45B_2 C63B_2 1_555 1_555
C64B_2 C59B_2 1_555 1_555
H46B_2 C64B_2 1_555 1_555
C5 C6 1_555 1_555
C11 C12 1_555 1_555
C16 C17 1_555 1_555
C17 C18 1_555 1_555
C18 C19 1_555 1_555
C25 C26 1_555 1_555
C27 C28 1_555 1_555
C31 C32 1_555 1_555
C37 C38 1_555 1_555
C43 C44 1_555 1_555
C48 C49 1_555 1_555
C49 C50 1_555 1_555
C50 C51 1_555 1_555
C53 C58 1_555 1_555
C57 C58 1_555 1_555
C59 C60 1_555 1_555
C63 C64 1_555 1_555
C5_2 C6_2 1_555 1_555
C11_2 C12_2 1_555 1_555
C16_2 C17_2 1_555 1_555
C17_2 C18_2 1_555 1_555
C18_2 C19_2 1_555 1_555
C25_2 C26_2 1_555 1_555
C27_2 C28_2 1_555 1_555
C31_2 C32_2 1_555 1_555
C5B C6B 1_555 1_555
C11B C12B 1_555 1_555
C16B C17B 1_555 1_555
C17B C18B 1_555 1_555
C18B C19B 1_555 1_555
C25B C26B 1_555 1_555
C27B C28B 1_555 1_555
C31B C32B 1_555 1_555
C5B_2 C6B_2 1_555 1_555
C11B_2 C12B_2 1_555 1_555
C16B_2 C17B_2 1_555 1_555
C17B_2 C18B_2 1_555 1_555
C18B_2 C19B_2 1_555 1_555
C25B_2 C26B_2 1_555 1_555
C27B_2 C28B_2 1_555 1_555
C31B_2 C32B_2 1_555 1_555
C37_2 C38_2 1_555 1_555
C43_2 C44_2 1_555 1_555
C48_2 C49_2 1_555 1_555
C49_2 C50_2 1_555 1_555
C50_2 C51_2 1_555 1_555
C53_2 C58_2 1_555 1_555
C57_2 C58_2 1_555 1_555
C59_2 C60_2 1_555 1_555
C63_2 C64_2 1_555 1_555
C37B C38B 1_555 1_555
C43B C44B 1_555 1_555
C48B C49B 1_555 1_555
C49B C50B 1_555 1_555
C50B C51B 1_555 1_555
C53B C58B 1_555 1_555
C57B C58B 1_555 1_555
C59B C60B 1_555 1_555
C63B C64B 1_555 1_555
C37B_2 C38B_2 1_555 1_555
C43B_2 C44B_2 1_555 1_555
C48B_2 C49B_2 1_555 1_555
C49B_2 C50B_2 1_555 1_555
C50B_2 C51B_2 1_555 1_555
C53B_2 C58B_2 1_555 1_555
C57B_2 C58B_2 1_555 1_555
C59B_2 C60B_2 1_555 1_555
C63B_2 C64B_2 1_555 1_555

#END
