
#######################################################################
#
#                 Cambridge Crystallographic Data Centre
#                                CCDC 
#
#######################################################################
#
# If this CIF has been generated from an entry in the Cambridge 
# Structural Database, then it will include bibliographic, chemical, 
# crystal, experimental, refinement or atomic coordinate data resulting 
# from the CCDC's data processing and validation procedures.
#
#######################################################################

data_QINXUJ
_chemical_formula_moiety         'C36 H33 F1 N6 O6,0.5(C1 H2 Cl2)'
_chemical_name_systematic        
'benzyl [6-({2-[7-{[(benzyloxy)carbonyl]amino}-8-fluoro-4-(2-methylpropoxy)quinoline-2-carbonyl]hydrazinylidene}methyl)pyridin-2-yl]carbamate dichloromethane solvate'
_symmetry_cell_setting           monoclinic
_symmetry_space_group_name_H-M   'I 2/a'
_symmetry_Int_Tables_number      15
_space_group_name_Hall           '-I 2ya'
loop_
_symmetry_equiv_pos_site_id
_symmetry_equiv_pos_as_xyz
1 x,y,z
2 1/2-x,y,-z
3 1/2+x,1/2+y,1/2+z
4 -x,1/2+y,1/2-z
5 -x,-y,-z
6 1/2+x,-y,z
7 1/2-x,1/2-y,1/2-z
8 x,1/2-y,1/2+z
_cell_length_a                   13.34134(20)
_cell_length_b                   26.0018(4)
_cell_length_c                   20.0007(3)
_cell_angle_alpha                90
_cell_angle_beta                 108.4746(15)
_cell_angle_gamma                90
_cell_volume                     6580.65
_exptl_crystal_colour            colorless
_exptl_crystal_description       block
_cell_formula_units_Z            8
loop_
_atom_site_label
_atom_site_type_symbol
_atom_site_fract_x
_atom_site_fract_y
_atom_site_fract_z
F1 F 0.36117(8) 0.46870(4) 0.41412(5)
O1 O 0.42616(10) 0.55668(5) 0.70827(6)
O2 O 0.32601(10) 0.50864(5) 0.28284(6)
O3 O 0.42371(10) 0.36020(5) 0.68653(6)
O4 O 0.34619(11) 0.29112(5) 0.33444(7)
O5 O 0.32457(11) 0.35061(5) 0.24755(6)
O6 O 0.31266(10) 0.59070(5) 0.24284(6)
N1 N 0.40032(11) 0.58329(5) 0.59497(7)
H1 H 0.3889 0.5748 0.5516
N2 N 0.33144(11) 0.57202(6) 0.35869(7)
H2 H 0.3348 0.5465 0.3866
N3 N 0.35856(11) 0.62076(5) 0.45770(7)
N4 N 0.39196(11) 0.48628(6) 0.55185(7)
N5 N 0.40797(11) 0.63374(6) 0.61532(8)
N6 N 0.34362(11) 0.37779(6) 0.35479(8)
H3 H 0.3328 0.4068 0.3329
C1 C 0.38791(13) 0.43680(7) 0.52930(9)
C2 C 0.37154(13) 0.42762(6) 0.45751(9)
C3 C 0.33624(13) 0.62116(7) 0.38779(9)
C4 C 0.39830(13) 0.39293(7) 0.57314(9)
C5 C 0.36360(13) 0.37970(7) 0.42766(9)
C6 C 0.41362(13) 0.40246(7) 0.64603(9)
C7 C 0.36757(13) 0.66675(7) 0.49054(9)
C8 C 0.41148(13) 0.54699(7) 0.64592(9)
C9 C 0.40560(13) 0.49254(7) 0.61969(9)
C10 C 0.37501(13) 0.33659(7) 0.47275(9)
H4 H 0.3706 0.3035 0.4543
C11 C 0.39251(13) 0.34346(7) 0.54338(9)
H5 H 0.4008 0.3148 0.5724
C12 C 0.41613(13) 0.45257(7) 0.66904(9)
H6 H 0.4246 0.4598 0.7160
C13 C 0.39281(15) 0.32075(7) 0.15561(9)
C14 C 0.32200(14) 0.56037(7) 0.29017(9)
C15 C 0.33931(14) 0.33500(7) 0.31453(9)
C16 C 0.39333(13) 0.66882(7) 0.56764(9)
H7 H 0.4005 0.7021 0.5856
C17 C 0.23714(14) 0.47529(7) 0.16295(9)
C18 C 0.31972(15) 0.66620(7) 0.34717(10)
H8 H 0.3021 0.6648 0.2983
C19 C 0.35480(14) 0.71341(7) 0.45480(10)
H9 H 0.3624 0.7444 0.4791
C20 C 0.36792(15) 0.30117(7) 0.08723(9)
H10 H 0.3051 0.2832 0.0677
C21 C 0.44965(15) 0.36717(7) 0.76189(9)
H11 H 0.3938 0.3859 0.7726
H12 H 0.5150 0.3864 0.7802
C22 C 0.15293(16) 0.42676(7) 0.05692(9)
H13 H 0.1578 0.4040 0.0222
C23 C 0.46180(15) 0.31392(7) 0.79472(9)
H14 H 0.3945 0.2957 0.7755
C24 C 0.24296(15) 0.44067(7) 0.11101(9)
H15 H 0.3080 0.4268 0.1127
C25 C 0.05578(16) 0.44677(8) 0.05462(10)
H16 H -0.0049 0.4374 0.0185
C26 C 0.13962(14) 0.49531(7) 0.16039(9)
H17 H 0.1346 0.5184 0.1947
C27 C 0.33903(15) 0.49108(8) 0.21733(9)
H18 H 0.3872 0.4621 0.2272
H19 H 0.3710 0.5184 0.1980
C28 C 0.55427(16) 0.35514(8) 0.14438(11)
H20 H 0.6167 0.3735 0.1634
C29 C 0.48670(15) 0.34748(7) 0.18400(10)
H21 H 0.5045 0.3603 0.2297
C30 C 0.33047(15) 0.71258(7) 0.38201(10)
H22 H 0.3214 0.7432 0.3568
C31 C 0.31735(17) 0.31038(8) 0.19581(10)
H23 H 0.2458 0.3088 0.1634
H24 H 0.3337 0.2774 0.2195
C32 C 0.43613(16) 0.30833(8) 0.04837(10)
H25 H 0.4194 0.2948 0.0031
C33 C 0.54720(17) 0.28274(8) 0.77749(11)
H26 H 0.5303 0.2799 0.7273
H27 H 0.5509 0.2490 0.7977
H28 H 0.6142 0.2997 0.7967
C34 C 0.52890(17) 0.33550(8) 0.07650(11)
H29 H 0.5742 0.3406 0.0501
C35 C 0.04937(15) 0.48079(8) 0.10638(10)
H30 H -0.0160 0.4941 0.1050
C36 C 0.48595(17) 0.31881(8) 0.87444(10)
H31 H 0.5546 0.3339 0.8948
H32 H 0.4847 0.2853 0.8944
H33 H 0.4337 0.3403 0.8842
Cl1 Cl 0.72393(5) 0.41280(2) 0.92360(3)
C37 C 0.7500 0.45054(10) 1.0000
H34 H 0.6896 0.4725 0.9961
H34A H 0.8104 0.4725 1.0039
Cl1A Cl 0.77607(5) 0.41280(2) 1.07640(3)
H35? H 0.6896 0.4725 0.9961
loop_
_geom_bond_atom_site_label_1
_geom_bond_atom_site_label_2
_geom_bond_site_symmetry_1
_geom_bond_site_symmetry_2
F1 C2 1_555 1_555
O1 C8 1_555 1_555
O2 C14 1_555 1_555
O3 C6 1_555 1_555
O4 C15 1_555 1_555
O5 C15 1_555 1_555
O6 C14 1_555 1_555
N1 H1 1_555 1_555
N2 H2 1_555 1_555
N3 C3 1_555 1_555
N4 C1 1_555 1_555
N5 N1 1_555 1_555
N6 H3 1_555 1_555
C1 C2 1_555 1_555
C2 C5 1_555 1_555
C3 N2 1_555 1_555
C4 C1 1_555 1_555
C5 N6 1_555 1_555
C6 C4 1_555 1_555
C7 N3 1_555 1_555
C8 N1 1_555 1_555
C9 N4 1_555 1_555
C10 C5 1_555 1_555
H4 C10 1_555 1_555
C11 C4 1_555 1_555
H5 C11 1_555 1_555
C12 C6 1_555 1_555
H6 C12 1_555 1_555
C13 C20 1_555 1_555
C14 N2 1_555 1_555
C15 N6 1_555 1_555
C16 N5 1_555 1_555
H7 C16 1_555 1_555
C17 C24 1_555 1_555
C18 C3 1_555 1_555
H8 C18 1_555 1_555
C19 C7 1_555 1_555
H9 C19 1_555 1_555
C20 H10 1_555 1_555
C21 O3 1_555 1_555
H11 C21 1_555 1_555
H12 C21 1_555 1_555
C22 H13 1_555 1_555
C23 C21 1_555 1_555
H14 C23 1_555 1_555
C24 C22 1_555 1_555
H15 C24 1_555 1_555
C25 C22 1_555 1_555
H16 C25 1_555 1_555
C26 C17 1_555 1_555
H17 C26 1_555 1_555
C27 O2 1_555 1_555
H18 C27 1_555 1_555
H19 C27 1_555 1_555
C28 H20 1_555 1_555
C29 C13 1_555 1_555
H21 C29 1_555 1_555
C30 C18 1_555 1_555
H22 C30 1_555 1_555
C31 O5 1_555 1_555
H23 C31 1_555 1_555
H24 C31 1_555 1_555
C32 C20 1_555 1_555
H25 C32 1_555 1_555
C33 C23 1_555 1_555
H26 C33 1_555 1_555
H27 C33 1_555 1_555
H28 C33 1_555 1_555
C34 C28 1_555 1_555
H29 C34 1_555 1_555
C35 C25 1_555 1_555
H30 C35 1_555 1_555
C36 C23 1_555 1_555
H31 C36 1_555 1_555
H32 C36 1_555 1_555
H33 C36 1_555 1_555
Cl1 C37 1_555 1_555
C37 H34 1_555 1_555
H34A C37 1_555 1_555
Cl1A C37 1_555 1_555
C7 C16 1_555 1_555
C8 C9 1_555 1_555
C9 C12 1_555 1_555
C10 C11 1_555 1_555
C13 C31 1_555 1_555
C17 C27 1_555 1_555
C19 C30 1_555 1_555
C26 C35 1_555 1_555
C28 C29 1_555 1_555
C32 C34 1_555 1_555

#END
