
#######################################################################
#
#                 Cambridge Crystallographic Data Centre
#                                CCDC 
#
#######################################################################
#
# If this CIF has been generated from an entry in the Cambridge 
# Structural Database, then it will include bibliographic, chemical, 
# crystal, experimental, refinement or atomic coordinate data resulting 
# from the CCDC's data processing and validation procedures.
#
#######################################################################

data_QINYAQ
_chemical_formula_moiety         'C15 H15 Cl1 F2 N2 O3'
_chemical_name_systematic        
'ethyl 3-[2-(6-chloropyridin-3-yl)-4,4-dimethyl-1,3-oxazol-5(4H)-ylidene]-2,2-difluoropropanoate'
_symmetry_cell_setting           monoclinic
_symmetry_space_group_name_H-M   'C 2/c'
_symmetry_Int_Tables_number      15
_space_group_name_Hall           '-C 2yn'
loop_
_symmetry_equiv_pos_site_id
_symmetry_equiv_pos_as_xyz
1 x,y,z
2 -x,y,1/2-z
3 1/2+x,1/2+y,z
4 1/2-x,1/2+y,1/2-z
5 -x,-y,-z
6 x,-y,1/2+z
7 1/2-x,1/2-y,-z
8 1/2+x,1/2-y,1/2+z
_cell_length_a                   17.4965(8)
_cell_length_b                   8.3662(3)
_cell_length_c                   24.4494(12)
_cell_angle_alpha                90
_cell_angle_beta                 112.004(6)
_cell_angle_gamma                90
_cell_volume                     3318.19
_exptl_crystal_colour            colorless
_exptl_crystal_description       block
_cell_formula_units_Z            8
loop_
_atom_site_label
_atom_site_type_symbol
_atom_site_fract_x
_atom_site_fract_y
_atom_site_fract_z
Cl1 Cl 0.22827(4) 0.44999(8) 0.01127(3)
F1 F 0.35047(10) 1.4958(2) 0.23992(8)
F2 F 0.32824(11) 1.3029(3) 0.29103(7)
O1 O 0.21249(8) 1.12558(16) 0.14722(6)
O2 O 0.38746(11) 1.1053(2) 0.23405(8)
O3 O 0.37669(9) 1.29495(18) 0.16683(7)
N1 N 0.13796(11) 0.6989(2) 0.00745(8)
N2 N 0.07845(10) 1.1180(2) 0.08650(8)
C1 C 0.24473(13) 0.8236(3) 0.11372(9)
H1 H 0.2809 0.8659 0.1492
C2 C 0.26356(14) 0.6840(3) 0.09240(10)
H2 H 0.3120 0.6287 0.1129
C3 C 0.20783(14) 0.6289(3) 0.03937(10)
C4 C 0.12015(13) 0.8346(3) 0.02915(9)
H3 H 0.0710 0.8865 0.0077
C5 C 0.17135(12) 0.9018(2) 0.08213(9)
C6 C 0.14805(12) 1.0503(2) 0.10298(9)
C7 C 0.17952(13) 1.2622(2) 0.16076(10)
C8 C 0.08839(12) 1.2658(2) 0.12234(10)
C9 C 0.06692(15) 1.4110(3) 0.08139(12)
H4 H 0.0980 1.4073 0.0563
H5 H 0.0802 1.5070 0.1045
H6 H 0.0091 1.4098 0.0576
C10 C 0.03387(14) 1.2575(3) 0.15822(12)
H7 H -0.0229 1.2531 0.1320
H8 H 0.0428 1.3506 0.1828
H9 H 0.0473 1.1635 0.1825
C11 C 0.22568(14) 1.3644(3) 0.20057(10)
H10 H 0.1997 1.4543 0.2078
C12 C 0.31483(15) 1.3482(3) 0.23453(11)
C13 C 0.36405(13) 1.2331(3) 0.21214(11)
C14 C 0.42180(16) 1.1967(3) 0.13976(12)
H11 H 0.3864 1.1124 0.1165
H12 H 0.4690 1.1478 0.1701
C15 C 0.44955(19) 1.2994(4) 0.10161(16)
H13 H 0.4028 1.3524 0.0732
H14 H 0.4761 1.2349 0.0815
H15 H 0.4877 1.3777 0.1254
loop_
_geom_bond_atom_site_label_1
_geom_bond_atom_site_label_2
_geom_bond_site_symmetry_1
_geom_bond_site_symmetry_2
Cl1 C3 1_555 1_555
F1 C12 1_555 1_555
F2 C12 1_555 1_555
O1 C6 1_555 1_555
O2 C13 1_555 1_555
O3 C13 1_555 1_555
N1 C3 1_555 1_555
N2 C6 1_555 1_555
C1 H1 1_555 1_555
C2 C1 1_555 1_555
H2 C2 1_555 1_555
C3 C2 1_555 1_555
C4 N1 1_555 1_555
H3 C4 1_555 1_555
C5 C1 1_555 1_555
C6 C5 1_555 1_555
C7 O1 1_555 1_555
C8 N2 1_555 1_555
C9 C8 1_555 1_555
H4 C9 1_555 1_555
H5 C9 1_555 1_555
H6 C9 1_555 1_555
C10 C8 1_555 1_555
H7 C10 1_555 1_555
H8 C10 1_555 1_555
H9 C10 1_555 1_555
C11 C7 1_555 1_555
H10 C11 1_555 1_555
C12 C11 1_555 1_555
C13 C12 1_555 1_555
C14 O3 1_555 1_555
H11 C14 1_555 1_555
H12 C14 1_555 1_555
C15 C14 1_555 1_555
H13 C15 1_555 1_555
H14 C15 1_555 1_555
H15 C15 1_555 1_555
C4 C5 1_555 1_555
C7 C8 1_555 1_555

#END
