
#######################################################################
#
#                 Cambridge Crystallographic Data Centre
#                                CCDC 
#
#######################################################################
#
# If this CIF has been generated from an entry in the Cambridge 
# Structural Database, then it will include bibliographic, chemical, 
# crystal, experimental, refinement or atomic coordinate data resulting 
# from the CCDC's data processing and validation procedures.
#
#######################################################################

data_QIPBAS
_chemical_formula_moiety         'C28 H40 Br1 N1 O4'
_chemical_name_systematic        
"[1,6'-dimethyl-4-isopropyl-10,12-dioxaspiro[cyclohexane-3,11'-tricyclo[7.4.0.0^2,6^]tridecane]-4'-yloxy]-N-(4-bromophenyl)carboxamide"
_symmetry_cell_setting           tetragonal
_symmetry_space_group_name_H-M   'P 41 21 2'
_symmetry_Int_Tables_number      92
_space_group_name_Hall           'P 4abw 2nw'
loop_
_symmetry_equiv_pos_site_id
_symmetry_equiv_pos_as_xyz
1 x,y,z
2 1/2-y,1/2+x,1/4+z
3 1/2+x,1/2-y,3/4-z
4 -x,-y,1/2+z
5 y,x,-z
6 1/2+y,1/2-x,3/4+z
7 1/2-x,1/2+y,1/4-z
8 -y,-x,1/2-z
_cell_length_a                   11.4839(2)
_cell_length_b                   11.4839(2)
_cell_length_c                   41.1006(3)
_cell_angle_alpha                90
_cell_angle_beta                 90
_cell_angle_gamma                90
_cell_volume                     5420.35
_cell_formula_units_Z            8
loop_
_atom_site_label
_atom_site_type_symbol
_atom_site_fract_x
_atom_site_fract_y
_atom_site_fract_z
Br1 Br 0.76590(3) -0.49717(3) 0.09576(1)
O1 O 0.0665(2) 0.5677(2) 0.0100(1)
O2 O 0.2009(2) 0.6678(2) 0.0440(1)
O3 O 0.3668(2) 0.0804(2) 0.0566(1)
O4 O 0.3802(2) -0.0349(2) 0.1010(1)
N1 N 0.4964(2) -0.0624(2) 0.0564(1)
C1 C 0.1092(2) 0.7687(3) 0.0013(1)
C2 C 0.1261(3) 0.8871(3) 0.0179(1)
C3 C 0.0267(3) 0.9163(3) 0.0413(1)
C4 C 0.0099(3) 0.8227(3) 0.0671(1)
C5 C -0.0068(2) 0.7044(2) 0.0504(1)
C6 C 0.0929(2) 0.6745(2) 0.0272(1)
C7 C 0.2048(3) 0.7388(3) -0.0240(1)
C8 C 0.3292(3) 0.7680(3) -0.0134(1)
C9 C 0.1789(4) 0.7947(4) -0.0568(1)
C10 C -0.0927(3) 0.8509(3) 0.0894(1)
C11 C 0.0824(2) 0.4625(2) 0.0282(1)
C12 C 0.2028(2) 0.4579(2) 0.0429(1)
C13 C 0.2171(2) 0.5667(2) 0.0641(1)
C14 C 0.3363(3) 0.5769(2) 0.0801(1)
C15 C 0.3657(3) 0.4659(3) 0.0997(1)
C16 C 0.3539(2) 0.3569(3) 0.0788(1)
C17 C 0.4497(3) 0.3535(3) 0.0525(1)
C18 C 0.2288(2) 0.3527(2) 0.0642(1)
C19 C 0.2190(3) 0.2292(3) 0.0503(1)
C20 C 0.2865(3) 0.1548(3) 0.0750(1)
C21 C 0.3529(3) 0.2400(3) 0.0971(1)
C22 C 0.4125(3) -0.0094(3) 0.0741(1)
C23 C 0.5560(3) -0.1646(3) 0.0663(1)
C24 C 0.5640(3) -0.1992(2) 0.0989(1)
C25 C 0.6244(3) -0.2990(3) 0.1070(1)
C26 C 0.6766(3) -0.3646(2) 0.0830(1)
C27 C 0.6690(3) -0.3338(3) 0.0506(1)
C28 C 0.6085(3) -0.2332(3) 0.0426(1)
H1 H 0.5152 -0.0315 0.0375
H2 H 0.0342 0.7735 -0.0110
H3 H 0.2005 0.8864 0.0301
H4 H 0.1313 0.9485 0.0011
H5 H 0.0434 0.9915 0.0521
H6 H -0.0464 0.9252 0.0288
H7 H 0.0821 0.8190 0.0806
H8 H -0.0809 0.7053 0.0381
H9 H -0.0126 0.6430 0.0672
H10 H 0.2018 0.6526 -0.0273
H11 H 0.3454 0.7312 0.0077
H12 H 0.3376 0.8526 -0.0113
H13 H 0.3843 0.7389 -0.0297
H14 H 0.0988 0.7764 -0.0633
H15 H 0.2331 0.7645 -0.0731
H16 H 0.1880 0.8794 -0.0551
H17 H -0.0799 0.9267 0.0997
H18 H -0.0994 0.7907 0.1061
H19 H -0.1645 0.8535 0.0765
H20 H 0.0712 0.3946 0.0136
H21 H 0.0234 0.4582 0.0456
H22 H 0.2615 0.4609 0.0250
H23 H 0.1559 0.5662 0.0814
H24 H 0.3370 0.6451 0.0949
H25 H 0.3963 0.5894 0.0632
H26 H 0.4464 0.4715 0.1080
H27 H 0.3128 0.4599 0.1186
H28 H 0.5263 0.3561 0.0630
H29 H 0.4411 0.4207 0.0380
H30 H 0.4426 0.2815 0.0399
H31 H 0.1738 0.3567 0.0830
H32 H 0.2547 0.2244 0.0284
H33 H 0.1366 0.2043 0.0489
H34 H 0.2316 0.1062 0.0881
H35 H 0.4334 0.2122 0.1009
H36 H 0.3132 0.2481 0.1183
H37 H 0.5279 -0.1541 0.1154
H38 H 0.6300 -0.3224 0.1291
H39 H 0.7042 -0.3803 0.0343
H40 H 0.6028 -0.2107 0.0204
loop_
_geom_bond_atom_site_label_1
_geom_bond_atom_site_label_2
_geom_bond_site_symmetry_1
_geom_bond_site_symmetry_2
Br1 C26 1_555 1_555
O1 C6 1_555 1_555
O2 C6 1_555 1_555
O3 C20 1_555 1_555
O4 C22 1_555 1_555
N1 C22 1_555 1_555
C1 C2 1_555 1_555
C2 C3 1_555 1_555
C3 C4 1_555 1_555
C4 C5 1_555 1_555
C5 C6 1_555 1_555
C6 C1 1_555 1_555
C7 C1 1_555 1_555
C8 C7 1_555 1_555
C9 C7 1_555 1_555
C10 C4 1_555 1_555
C11 O1 1_555 1_555
C12 C11 1_555 1_555
C13 O2 1_555 1_555
C14 C13 1_555 1_555
C15 C14 1_555 1_555
C16 C15 1_555 1_555
C17 C16 1_555 1_555
C18 C12 1_555 1_555
C19 C18 1_555 1_555
C20 C19 1_555 1_555
C21 C16 1_555 1_555
C22 O3 1_555 1_555
C23 N1 1_555 1_555
C24 C23 1_555 1_555
C25 C24 1_555 1_555
C26 C25 1_555 1_555
C27 C26 1_555 1_555
C28 C23 1_555 1_555
H1 N1 1_555 1_555
H2 C1 1_555 1_555
H3 C2 1_555 1_555
H4 C2 1_555 1_555
H5 C3 1_555 1_555
H6 C3 1_555 1_555
H7 C4 1_555 1_555
H8 C5 1_555 1_555
H9 C5 1_555 1_555
H10 C7 1_555 1_555
H11 C8 1_555 1_555
H12 C8 1_555 1_555
H13 C8 1_555 1_555
H14 C9 1_555 1_555
H15 C9 1_555 1_555
H16 C9 1_555 1_555
H17 C10 1_555 1_555
H18 C10 1_555 1_555
H19 C10 1_555 1_555
H20 C11 1_555 1_555
H21 C11 1_555 1_555
H22 C12 1_555 1_555
H23 C13 1_555 1_555
H24 C14 1_555 1_555
H25 C14 1_555 1_555
H26 C15 1_555 1_555
H27 C15 1_555 1_555
H28 C17 1_555 1_555
H29 C17 1_555 1_555
H30 C17 1_555 1_555
H31 C18 1_555 1_555
H32 C19 1_555 1_555
H33 C19 1_555 1_555
H34 C20 1_555 1_555
H35 C21 1_555 1_555
H36 C21 1_555 1_555
H37 C24 1_555 1_555
H38 C25 1_555 1_555
H39 C27 1_555 1_555
H40 C28 1_555 1_555
C12 C13 1_555 1_555
C16 C18 1_555 1_555
C20 C21 1_555 1_555
C27 C28 1_555 1_555

#END
