
#######################################################################
#
#                 Cambridge Crystallographic Data Centre
#                                CCDC 
#
#######################################################################
#
# If this CIF has been generated from an entry in the Cambridge 
# Structural Database, then it will include bibliographic, chemical, 
# crystal, experimental, refinement or atomic coordinate data resulting 
# from the CCDC's data processing and validation procedures.
#
#######################################################################

data_QIPCOK
_chemical_formula_moiety         'C20 H17 N5 O3,0.625(C1 H1 Cl3)'
_chemical_name_systematic        
'benzyl (6-{[2-(pyridine-2-carbonyl)hydrazinylidene]methyl}pyridin-2-yl)carbamate chloroform solvate'
_symmetry_cell_setting           monoclinic
_symmetry_space_group_name_H-M   'P 21'
_symmetry_Int_Tables_number      4
_space_group_name_Hall           'P 2yb'
loop_
_symmetry_equiv_pos_site_id
_symmetry_equiv_pos_as_xyz
1 x,y,z
2 -x,1/2+y,-z
_cell_length_a                   15.7788(2)
_cell_length_b                   19.6042(3)
_cell_length_c                   27.5748(4)
_cell_angle_alpha                90
_cell_angle_beta                 99.018(2)
_cell_angle_gamma                90
_cell_volume                     8424.3
_exptl_crystal_colour            colorless
_exptl_crystal_description       block
_cell_formula_units_Z            16
loop_
_atom_site_label
_atom_site_type_symbol
_atom_site_fract_x
_atom_site_fract_y
_atom_site_fract_z
Cl1 Cl 0.0402(2) 0.29023(17) 0.56686(12)
Cl2 Cl 0.2024(2) 0.2189(2) 0.58120(13)
Cl3 Cl 0.0426(3) 0.14310(19) 0.56623(15)
C1 C 0.0953(8) 0.2184(8) 0.5512(5)
H1 H 0.095464 0.219027 0.514929
Cl4 Cl 0.3781(5) -0.1504(3) 0.9991(2)
Cl5 Cl 0.5029(8) -0.2461(10) 0.9648(3)
Cl6 Cl 0.3184(3) -0.2597(3) 0.9315(2)
C2 C 0.3987(15) -0.2356(12) 0.9787(8)
H2 H 0.394069 -0.266726 1.006872
Cl9 Cl 1.0874(2) 1.2337(2) 0.69394(13)
Cl10 Cl 1.2536(3) 1.2979(2) 0.70124(17)
C3 C 1.1941(10) 1.2299(8) 0.7223(5)
H4 H 1.198390 1.230693 0.758897
Cl11 Cl 1.225(3) 1.1513(9) 0.702(2)
Cl12 Cl 0.4694(3) 0.6721(2) 0.84357(18)
Cl13 Cl 0.4139(3) 0.5721(3) 0.76797(17)
Cl14 Cl 0.2895(3) 0.6574(4) 0.80635(15)
C4 C 0.3904(9) 0.6540(9) 0.7914(6)
H6 H 0.394943 0.689053 0.765581
Cl15 Cl 0.7491(5) 0.4467(3) 0.8664(2)
Cl16 Cl 0.6285(5) 0.5421(4) 0.8167(3)
Cl17 Cl 0.6387(4) 0.5154(3) 0.9260(3)
C5 C 0.6917(11) 0.5255(10) 0.8673(8)
H7 H 0.734818 0.563134 0.873336
O1 O 0.5896(4) 0.0696(3) 0.4857(2)
O2 O 0.6361(5) 0.1212(4) 0.5581(2)
O3 O 0.5768(5) 0.6109(4) 0.4560(3)
N1 N 0.5892(5) 0.1816(4) 0.4876(3)
H8 H 0.574364 0.175816 0.455725
N2 N 0.5900(5) 0.2944(4) 0.4675(3)
N3 N 0.5769(5) 0.4733(4) 0.4470(3)
N4 N 0.5663(5) 0.5146(4) 0.4075(3)
H9 H 0.557868 0.497763 0.377562
N5 N 0.5500(5) 0.5924(5) 0.3257(3)
C6 C 0.6052(6) 0.1236(5) 0.5148(3)
C7 C 0.5937(6) 0.2487(5) 0.5040(3)
C8 C 0.5914(6) 0.3616(5) 0.4798(3)
C9 C 0.5827(6) 0.4099(5) 0.4382(3)
H10 H 0.581371 0.393982 0.405538
C10 C 0.5692(7) 0.5847(5) 0.4155(3)
C11 C 0.5575(6) 0.6258(5) 0.3686(4)
C12 C 0.5396(9) 0.6280(7) 0.2847(4)
H11 H 0.534973 0.605254 0.253946
C13 C 0.5351(11) 0.7010(7) 0.2864(5)
H12 H 0.525311 0.726511 0.256773
C14 C 0.5450(8) 0.7346(6) 0.3313(5)
H13 H 0.543024 0.782906 0.333081
C15 C 0.5577(7) 0.6958(5) 0.3724(4)
H14 H 0.566785 0.716842 0.403772
C16 C 0.5995(6) 0.3843(5) 0.5287(3)
H15 H 0.602425 0.431624 0.536246
C17 C 0.6032(7) 0.3364(6) 0.5652(4)
H16 H 0.607474 0.350691 0.598374
C18 C 0.6007(6) 0.2681(5) 0.5543(3)
H17 H 0.603555 0.234774 0.579530
C19 C 0.6029(6) 0.0027(5) 0.5101(4)
H18 H 0.559129 -0.029833 0.494292
H19 H 0.595662 0.007368 0.545001
C20 C 0.6927(8) -0.0252(6) 0.5072(5)
C21 C 0.7577(9) -0.0129(7) 0.5457(5)
H20 H 0.746443 0.012145 0.573504
C22 C 0.8408(9) -0.0377(10) 0.5438(6)
H21 H 0.887444 -0.026349 0.568608
C23 C 0.8526(10) -0.0790(8) 0.5046(6)
H22 H 0.907622 -0.098468 0.504038
C24 C 0.7872(10) -0.0929(7) 0.4666(5)
H23 H 0.796602 -0.121097 0.439871
C25 C 0.7058(8) -0.0639(6) 0.4685(4)
H24 H 0.659948 -0.071706 0.442398
O4 O 0.3008(4) 0.8069(4) 0.6399(2)
O5 O 0.3725(4) 0.7624(4) 0.7104(2)
O6 O 0.8290(4) 0.5048(3) 0.5734(2)
N6 N 0.4200(5) 0.7505(4) 0.6359(3)
H25 H 0.410652 0.765048 0.605341
N7 N 0.5148(4) 0.6750(4) 0.6119(3)
N8 N 0.6825(5) 0.5716(4) 0.5794(2)
N9 N 0.7064(5) 0.5535(4) 0.5355(2)
H26 H 0.673222 0.562971 0.507569
N10 N 0.7562(5) 0.5381(5) 0.4484(3)
C26 C 0.3651(5) 0.7714(5) 0.6668(4)
C27 C 0.4907(6) 0.7071(5) 0.6504(3)
C28 C 0.5870(5) 0.6357(5) 0.6204(3)
C29 C 0.6130(5) 0.6074(5) 0.5759(3)
H27 H 0.579161 0.615215 0.544750
C30 C 0.7815(6) 0.5210(5) 0.5358(3)
C31 C 0.8065(6) 0.5098(5) 0.4869(4)
C32 C 0.7762(8) 0.5269(7) 0.4018(4)
H28 H 0.740290 0.545128 0.373954
C33 C 0.8476(8) 0.4897(7) 0.3955(4)
H29 H 0.860974 0.483268 0.363451
C34 C 0.8997(7) 0.4615(6) 0.4351(4)
H30 H 0.949731 0.436732 0.430799
C35 C 0.8776(7) 0.4703(5) 0.4820(4)
H31 H 0.910621 0.449572 0.509934
C36 C 0.6323(6) 0.6257(5) 0.6676(3)
H32 H 0.681156 0.596707 0.672684
C37 C 0.6052(6) 0.6584(5) 0.7070(3)
H33 H 0.635601 0.652519 0.739278
C38 C 0.5323(6) 0.7004(5) 0.6987(3)
H34 H 0.512107 0.723447 0.724920
C39 C 0.2376(7) 0.8360(7) 0.6673(4)
H35 H 0.247016 0.885840 0.670968
H36 H 0.244666 0.815667 0.700581
C40 C 0.1492(6) 0.8227(5) 0.6414(3)
C41 C 0.1309(6) 0.7914(5) 0.5958(3)
H37 H 0.176334 0.776474 0.579480
C42 C 0.0471(6) 0.7818(5) 0.5743(4)
H38 H 0.035290 0.758798 0.543661
C43 C -0.0195(6) 0.8047(5) 0.5960(4)
H39 H -0.077041 0.799121 0.580183
C44 C -0.0017(7) 0.8361(6) 0.6413(5)
H40 H -0.047697 0.851354 0.657064
C45 C 0.0820(8) 0.8457(6) 0.6641(4)
H41 H 0.093387 0.867925 0.695068
O7 O 0.0550(4) 0.1207(4) 0.3861(3)
O8 O 0.1216(5) 0.1639(4) 0.4573(3)
O9 O 0.5827(4) 0.4297(4) 0.3235(2)
N11 N 0.1666(5) 0.1867(4) 0.3841(3)
H42 H 0.155648 0.175715 0.352812
N12 N 0.2614(5) 0.2627(4) 0.3594(3)
N13 N 0.4311(5) 0.3629(4) 0.3295(2)
N14 N 0.4603(5) 0.3757(4) 0.2859(3)
H43 H 0.429107 0.363899 0.257859
N15 N 0.5223(6) 0.3738(5) 0.2008(3)
C46 C 0.1163(7) 0.1578(5) 0.4132(4)
C47 C 0.2331(6) 0.2313(5) 0.3973(3)
C48 C 0.3276(6) 0.3054(5) 0.3689(3)
C49 C 0.3599(7) 0.3307(5) 0.3243(3)
H44 H 0.328228 0.323006 0.292571
C50 C 0.5359(6) 0.4060(5) 0.2864(3)
C51 C 0.5661(6) 0.4103(5) 0.2372(3)
C52 C 0.5491(8) 0.3745(8) 0.1580(4)
H45 H 0.515074 0.351412 0.131544
C53 C 0.6251(9) 0.4071(8) 0.1485(4)
H46 H 0.645028 0.403073 0.117831
C54 C 0.6669(7) 0.4440(8) 0.1859(4)
H47 H 0.716635 0.469008 0.181302
C55 C 0.6387(7) 0.4462(6) 0.2309(4)
H48 H 0.669025 0.472116 0.257174
C56 C 0.3678(7) 0.3231(6) 0.4158(4)
H49 H 0.413831 0.354884 0.421198
C57 C 0.3363(8) 0.2913(6) 0.4542(4)
H50 H 0.360163 0.302446 0.487049
C58 C 0.2731(7) 0.2454(6) 0.4462(3)
H51 H 0.254960 0.222172 0.473007
C59 C -0.0018(7) 0.0834(7) 0.4127(5)
H52 H 0.013168 0.093345 0.448214
H53 H 0.005963 0.033818 0.407978
C60 C -0.0941(6) 0.1022(6) 0.3955(4)
C61 C -0.1194(6) 0.1344(5) 0.3503(3)
H54 H -0.077326 0.148549 0.331315
C62 C -0.2050(7) 0.1458(6) 0.3333(5)
H55 H -0.221118 0.167019 0.302180
C63 C -0.2677(7) 0.1273(6) 0.3601(6)
H56 H -0.326575 0.134257 0.347427
C64 C -0.2435(8) 0.0987(7) 0.4054(6)
H57 H -0.286505 0.086662 0.424414
C65 C -0.1550(8) 0.0864(6) 0.4252(5)
H58 H -0.138729 0.068246 0.457217
O10 O 0.8488(6) 0.8597(4) 0.7360(3)
O11 O 0.8890(5) 0.8093(4) 0.8092(3)
O12 O 0.8609(5) 0.3189(4) 0.7041(2)
N16 N 0.8388(5) 0.7477(4) 0.7393(3)
H59 H 0.815995 0.753172 0.708357
N17 N 0.8455(5) 0.6338(4) 0.7192(2)
N18 N 0.8520(5) 0.4574(4) 0.6973(3)
N19 N 0.8439(6) 0.4151(4) 0.6565(3)
H60 H 0.835980 0.432560 0.626753
N20 N 0.8279(5) 0.3413(4) 0.5753(3)
C66 C 0.8612(6) 0.8056(5) 0.7663(4)
C67 C 0.8489(5) 0.6804(5) 0.7568(3)
C68 C 0.8508(5) 0.5686(5) 0.7312(3)
C69 C 0.8460(5) 0.5212(4) 0.6894(3)
H61 H 0.838593 0.538235 0.656707
C70 C 0.8483(8) 0.3462(6) 0.6631(3)
C71 C 0.8361(6) 0.3062(5) 0.6162(3)
C72 C 0.8146(7) 0.3044(5) 0.5331(3)
H62 H 0.806374 0.328408 0.502836
C73 C 0.8124(7) 0.2350(6) 0.5318(3)
H63 H 0.804922 0.211696 0.501154
C74 C 0.8211(7) 0.1985(5) 0.5753(4)
H64 H 0.817616 0.150133 0.574959
C75 C 0.8350(7) 0.2342(5) 0.6197(4)
H65 H 0.843210 0.211420 0.650476
C76 C 0.8653(6) 0.5453(6) 0.7797(3)
H66 H 0.873853 0.498233 0.787001
C77 C 0.8668(7) 0.5933(6) 0.8166(3)
H67 H 0.873178 0.579263 0.849961
C78 C 0.8590(6) 0.6619(6) 0.8048(4)
H68 H 0.860751 0.695458 0.829776
C79 C 0.8548(10) 0.9268(7) 0.7552(5)
H69 H 0.870677 0.924729 0.791360
H70 H 0.798039 0.949268 0.747666
C80 C 0.9205(5) 0.9687(4) 0.7341(3)
C81 C 1.0070(6) 0.9682(5) 0.7540(3)
H71 H 1.026967 0.939430 0.781184
C82 C 1.0644(5) 1.0097(7) 0.7343(5)
H72 H 1.123567 1.009326 0.747998
C83 C 1.0353(8) 1.0517(6) 0.6946(5)
H73 H 1.074505 1.080116 0.681151
C84 C 0.9488(9) 1.0523(5) 0.6746(4)
H74 H 0.928844 1.081010 0.647490
C85 C 0.8914(6) 1.0108(5) 0.6943(3)
H75 H 0.832242 1.011114 0.680676
O13 O 0.5516(5) 0.1048(4) 0.8578(4)
O14 O 0.5998(5) 0.1494(4) 0.9330(4)
O15 O 1.0758(4) 0.4365(4) 0.8367(2)
N21 N 0.6623(5) 0.1750(4) 0.8678(3)
H76 H 0.657871 0.165815 0.836254
N22 N 0.7614(4) 0.2520(4) 0.8509(3)
N23 N 0.9317(4) 0.3604(4) 0.8303(2)
N24 N 0.9659(5) 0.3781(4) 0.7887(3)
H77 H 0.941556 0.365441 0.759206
N25 N 1.0380(5) 0.4045(5) 0.7090(3)
C86 C 0.6049(7) 0.1437(5) 0.8912(4)
C87 C 0.7282(5) 0.2200(5) 0.8861(3)
C88 C 0.8282(5) 0.2939(5) 0.8639(3)
C89 C 0.8647(6) 0.3213(5) 0.8227(3)
H78 H 0.839179 0.310493 0.790077
C90 C 1.0400(6) 0.4165(5) 0.7959(3)
C91 C 1.0775(6) 0.4301(5) 0.7510(3)
C92 C 1.0716(8) 0.4178(7) 0.6686(4)
H79 H 1.043944 0.400950 0.637810
C93 C 1.1492(7) 0.4574(7) 0.6707(5)
H80 H 1.173022 0.464844 0.641587
C94 C 1.1879(8) 0.4836(6) 0.7131(4)
H81 H 1.238573 0.510076 0.714459
C95 C 1.1514(7) 0.4708(6) 0.7560(4)
H82 H 1.176048 0.489085 0.786966
C96 C 0.8630(6) 0.3074(5) 0.9119(3)
H83 H 0.910229 0.337586 0.919789
C97 C 0.8257(7) 0.2747(5) 0.9485(3)
H84 H 0.846552 0.283648 0.982128
C98 C 0.7589(7) 0.2298(5) 0.9360(3)
H85 H 0.734386 0.206136 0.960449
C99 C 0.4965(8) 0.0564(6) 0.8774(5)
H86 H 0.526723 0.038939 0.909156
H87 H 0.485973 0.017245 0.854593
C100 C 0.4114(6) 0.0856(5) 0.8853(4)
C101 C 0.3629(11) 0.1221(8) 0.8483(5)
H88 H 0.383930 0.136428 0.819507
C102 C 0.2729(13) 0.1374(9) 0.8578(7)
H89 H 0.230004 0.152895 0.832056
C103 C 0.2553(10) 0.1287(12) 0.9025(6)
H90 H 0.199964 0.141737 0.908561
C104 C 0.3123(16) 0.1016(11) 0.9419(7)
H91 H 0.297671 0.098505 0.973951
C105 C 0.3913(11) 0.0794(8) 0.9316(5)
H92 H 0.431659 0.059702 0.956970
O16 O 0.6749(5) 0.3461(4) 0.7465(3)
O17 O 0.6533(5) 0.2912(4) 0.6732(3)
O18 O 0.6668(5) -0.1930(4) 0.7936(2)
N26 N 0.6856(6) 0.2335(4) 0.7461(3)
H93 H 0.702307 0.240914 0.777633
N27 N 0.6791(5) 0.1217(5) 0.7688(3)
N28 N 0.6731(5) -0.0538(4) 0.7949(2)
N29 N 0.6829(5) -0.0936(4) 0.8369(2)
H94 H 0.691180 -0.074503 0.866103
N30 N 0.6987(7) -0.1586(5) 0.9205(3)
C106 C 0.6709(7) 0.2886(5) 0.7171(4)
C107 C 0.6766(7) 0.1652(5) 0.7309(3)
C108 C 0.6719(6) 0.0546(5) 0.7577(3)
C109 C 0.6785(6) 0.0104(5) 0.8006(3)
H95 H 0.686825 0.029579 0.832683
C110 C 0.6796(6) -0.1614(5) 0.8325(3)
C111 C 0.6881(6) -0.1979(5) 0.8805(3)
C112 C 0.7133(10) -0.1888(7) 0.9654(4)
H96 H 0.724529 -0.160905 0.993879
C113 C 0.7124(9) -0.2589(7) 0.9709(4)
H97 H 0.721617 -0.279066 1.002626
C114 C 0.6975(9) -0.2992(7) 0.9287(6)
H98 H 0.694711 -0.347388 0.931479
C115 C 0.6869(7) -0.2691(6) 0.8831(5)
H99 H 0.679026 -0.296024 0.854111
C116 C 0.6563(6) 0.0308(6) 0.7103(4)
H100 H 0.645665 -0.016331 0.703933
C117 C 0.6564(7) 0.0764(6) 0.6717(3)
H101 H 0.647893 0.060438 0.638729
C118 C 0.6687(7) 0.1446(6) 0.6815(4)
H102 H 0.671752 0.176676 0.655985
C119 C 0.6656(7) 0.4096(5) 0.7198(4)
H103 H 0.698135 0.407040 0.691956
H104 H 0.690308 0.446982 0.741704
C120 C 0.5712(7) 0.4257(5) 0.7002(3)
C121 C 0.5078(8) 0.4058(6) 0.7236(4)
H105 H 0.519803 0.379513 0.752789
C122 C 0.4211(7) 0.4245(6) 0.7043(4)
H106 H 0.375103 0.408824 0.719858
C123 C 0.4047(9) 0.4648(7) 0.6634(5)
H107 H 0.347701 0.479256 0.651774
C124 C 0.4692(9) 0.4841(7) 0.6393(4)
H108 H 0.457027 0.511104 0.610400
C125 C 0.5541(7) 0.4644(6) 0.6570(3)
H109 H 0.599450 0.477089 0.639847
O19 O 1.1986(6) 0.3353(6) 0.8922(5)
O20 O 1.1591(6) 0.2889(5) 0.8185(3)
O21 O 0.6773(5) -0.0003(4) 0.9152(2)
N31 N 1.0910(6) 0.2622(5) 0.8835(4)
H110 H 1.088953 0.274747 0.913906
N32 N 0.9938(5) 0.1822(5) 0.8986(3)
N33 N 0.8232(5) 0.0730(4) 0.9168(3)
N34 N 0.7890(5) 0.0582(5) 0.9588(3)
H111 H 0.814897 0.071315 0.987887
N35 N 0.7125(8) 0.0568(6) 1.0374(4)
C126 C 1.1529(9) 0.2948(7) 0.8612(5)
C127 C 1.0311(7) 0.2123(6) 0.8645(4)
C128 C 0.9317(7) 0.1357(6) 0.8847(3)
C129 C 0.8900(6) 0.1097(6) 0.9252(4)
H112 H 0.913507 0.120609 0.958110
C130 C 0.7140(6) 0.0225(5) 0.9536(3)
C131 C 0.6766(6) 0.0152(6) 1.0001(3)
C132 C 0.6688(13) 0.0573(9) 1.0769(5)
H113 H 0.686461 0.088620 1.102805
C133 C 0.6011(10) 0.0149(10) 1.0808(6)
H114 H 0.574666 0.015899 1.109474
C134 C 0.5718(9) -0.0290(8) 1.0432(5)
H115 H 0.525955 -0.059401 1.046034
C135 C 0.6082(8) -0.0290(6) 1.0023(4)
H116 H 0.587819 -0.058304 0.975624
C136 C 0.9059(8) 0.1170(6) 0.8347(4)
H117 H 0.861223 0.085110 0.824654
C137 C 0.9506(9) 0.1486(7) 0.8021(4)
H118 H 0.937475 0.135772 0.768496
C138 C 1.0114(9) 0.1961(6) 0.8141(4)
H119 H 1.039543 0.217559 0.790177
C139 C 1.2556(9) 0.3799(10) 0.8729(12)
H120 H 1.263531 0.421405 0.893591
H121 H 1.229093 0.394045 0.839481
C140 C 1.3436(9) 0.3487(8) 0.8703(4)
C141 C 1.3759(7) 0.2999(6) 0.9020(5)
H122 H 1.343095 0.282185 0.925237
C142 C 1.4574(8) 0.2761(7) 0.9003(8)
H123 H 1.472014 0.232864 0.914852
C143 C 1.5159(14) 0.3072(11) 0.8808(12)
H124 H 1.573659 0.291783 0.885588
C144 C 1.4900(11) 0.3642(13) 0.8525(7)
H125 H 1.530071 0.389407 0.837253
C145 C 1.4088(12) 0.3828(12) 0.8471(7)
H126 H 1.391574 0.421064 0.826786
O22 O 1.0850(6) 0.0971(5) 0.9991(3)
O23 O 1.1115(6) 0.1464(5) 1.0735(3)
O24 O 1.1059(5) 0.6319(4) 0.9574(2)
N36 N 1.0647(7) 0.2066(6) 1.0036(3)
H127 H 1.042300 0.200124 0.972625
N37 N 1.0691(7) 0.3197(5) 0.9825(3)
N38 N 1.0870(5) 0.4933(5) 0.9557(3)
N39 N 1.0845(6) 0.5318(5) 0.9139(3)
H128 H 1.077262 0.512358 0.884816
N40 N 1.0792(6) 0.5999(5) 0.8283(3)
C146 C 1.0880(7) 0.1485(6) 1.0303(4)
C147 C 1.0718(8) 0.2739(7) 1.0188(4)
C148 C 1.0764(7) 0.3860(7) 0.9926(4)
C149 C 1.0769(7) 0.4315(7) 0.9494(4)
H129 H 1.069483 0.413000 0.917156
C150 C 1.0933(6) 0.6000(5) 0.9183(3)
C151 C 1.0882(6) 0.6393(6) 0.8700(3)
C152 C 1.0717(7) 0.6320(6) 0.7866(4)
H130 H 1.066750 0.605868 0.757290
C153 C 1.0706(7) 0.7040(6) 0.7826(4)
H131 H 1.065805 0.725330 0.751348
C154 C 1.0766(7) 0.7419(6) 0.8239(4)
H132 H 1.074735 0.790263 0.822461
C155 C 1.0857(7) 0.7071(6) 0.8694(3)
H133 H 1.090042 0.732023 0.899213
C156 C 1.0866(8) 0.4104(7) 1.0402(4)
H134 H 1.094511 0.457792 1.046584
C157 C 1.0853(8) 0.3646(7) 1.0787(4)
H135 H 1.088474 0.380435 1.111499
C158 C 1.0791(8) 0.2945(6) 1.0682(4)
H136 H 1.079782 0.261924 1.093730
C159 C 1.1130(10) 0.0316(9) 1.0190(6)
H137 H 1.068521 0.009509 1.035291
H138 H 1.166898 0.035291 1.042590
C160 C 1.1410(10) -0.0898(5) 0.8943(3)
H139 H 1.146055 -0.118405 0.867065
C161 C 1.1075(9) -0.0245(5) 0.8866(3)
H140 H 1.089594 -0.008361 0.854110
C162 C 1.1002(8) 0.0174(4) 0.9264(4)
H141 H 1.077247 0.062042 0.921174
C163 C 1.1264(7) -0.0062(5) 0.9740(3)
C164 C 1.1599(9) -0.0715(5) 0.9817(3)
H142 H 1.177822 -0.087643 1.014148
C165 C 1.1672(10) -0.1134(4) 0.9418(4)
H143 H 1.190170 -0.158046 0.947085
H3? H 0.414241 -0.270120 1.005287
Cl7? Cl 0.469(2) -0.2157(16) 0.9516(14)
Cl8? Cl 1.2498(8) 1.1519(6) 0.7156(3)
H5? H 1.194518 1.237057 0.758275
loop_
_geom_bond_atom_site_label_1
_geom_bond_atom_site_label_2
_geom_bond_site_symmetry_1
_geom_bond_site_symmetry_2
Cl1 C1 1_555 1_555
Cl2 C1 1_555 1_555
Cl3 C1 1_555 1_555
C1 H1 1_555 1_555
Cl4 C2 1_555 1_555
Cl5 C2 1_555 1_555
Cl6 C2 1_555 1_555
C2 H2 1_555 1_555
Cl9 C3 1_555 1_555
Cl10 C3 1_555 1_555
C3 H4 1_555 1_555
Cl11 C3 1_555 1_555
Cl12 C4 1_555 1_555
Cl13 C4 1_555 1_555
Cl14 C4 1_555 1_555
C4 H6 1_555 1_555
Cl15 C5 1_555 1_555
Cl16 C5 1_555 1_555
Cl17 C5 1_555 1_555
C5 H7 1_555 1_555
O1 C6 1_555 1_555
O2 C6 1_555 1_555
O3 C10 1_555 1_555
N1 H8 1_555 1_555
N2 C7 1_555 1_555
N3 N4 1_555 1_555
N4 H9 1_555 1_555
N5 C11 1_555 1_555
C6 N1 1_555 1_555
C7 N1 1_555 1_555
C8 N2 1_555 1_555
C9 N3 1_555 1_555
H10 C9 1_555 1_555
C10 N4 1_555 1_555
C11 C10 1_555 1_555
C12 N5 1_555 1_555
H11 C12 1_555 1_555
C13 C12 1_555 1_555
H12 C13 1_555 1_555
C14 C13 1_555 1_555
H13 C14 1_555 1_555
C15 C11 1_555 1_555
H14 C15 1_555 1_555
C16 C8 1_555 1_555
H15 C16 1_555 1_555
C17 C16 1_555 1_555
H16 C17 1_555 1_555
C18 C7 1_555 1_555
H17 C18 1_555 1_555
C19 O1 1_555 1_555
H18 C19 1_555 1_555
H19 C19 1_555 1_555
C20 C19 1_555 1_555
C21 C20 1_555 1_555
H20 C21 1_555 1_555
C22 C21 1_555 1_555
H21 C22 1_555 1_555
C23 C22 1_555 1_555
H22 C23 1_555 1_555
C24 C23 1_555 1_555
H23 C24 1_555 1_555
C25 C20 1_555 1_555
H24 C25 1_555 1_555
O4 C26 1_555 1_555
O5 C26 1_555 1_555
O6 C30 1_555 1_555
N6 H25 1_555 1_555
N7 C27 1_555 1_555
N8 N9 1_555 1_555
N9 H26 1_555 1_555
N10 C31 1_555 1_555
C26 N6 1_555 1_555
C27 N6 1_555 1_555
C28 N7 1_555 1_555
C29 N8 1_555 1_555
H27 C29 1_555 1_555
C30 N9 1_555 1_555
C31 C30 1_555 1_555
C32 N10 1_555 1_555
H28 C32 1_555 1_555
C33 C32 1_555 1_555
H29 C33 1_555 1_555
C34 C33 1_555 1_555
H30 C34 1_555 1_555
C35 C31 1_555 1_555
H31 C35 1_555 1_555
C36 C28 1_555 1_555
H32 C36 1_555 1_555
C37 C36 1_555 1_555
H33 C37 1_555 1_555
C38 C27 1_555 1_555
H34 C38 1_555 1_555
C39 O4 1_555 1_555
H35 C39 1_555 1_555
H36 C39 1_555 1_555
C40 C39 1_555 1_555
C41 C40 1_555 1_555
H37 C41 1_555 1_555
C42 C41 1_555 1_555
H38 C42 1_555 1_555
C43 C42 1_555 1_555
H39 C43 1_555 1_555
C44 C43 1_555 1_555
H40 C44 1_555 1_555
C45 C40 1_555 1_555
H41 C45 1_555 1_555
O7 C46 1_555 1_555
O8 C46 1_555 1_555
O9 C50 1_555 1_555
N11 H42 1_555 1_555
N12 C47 1_555 1_555
N13 N14 1_555 1_555
N14 H43 1_555 1_555
N15 C51 1_555 1_555
C46 N11 1_555 1_555
C47 N11 1_555 1_555
C48 N12 1_555 1_555
C49 N13 1_555 1_555
H44 C49 1_555 1_555
C50 N14 1_555 1_555
C51 C50 1_555 1_555
C52 N15 1_555 1_555
H45 C52 1_555 1_555
C53 C52 1_555 1_555
H46 C53 1_555 1_555
C54 C53 1_555 1_555
H47 C54 1_555 1_555
C55 C51 1_555 1_555
H48 C55 1_555 1_555
C56 C48 1_555 1_555
H49 C56 1_555 1_555
C57 C56 1_555 1_555
H50 C57 1_555 1_555
C58 C47 1_555 1_555
H51 C58 1_555 1_555
C59 O7 1_555 1_555
H52 C59 1_555 1_555
H53 C59 1_555 1_555
C60 C59 1_555 1_555
C61 C60 1_555 1_555
H54 C61 1_555 1_555
C62 C61 1_555 1_555
H55 C62 1_555 1_555
C63 C62 1_555 1_555
H56 C63 1_555 1_555
C64 C63 1_555 1_555
H57 C64 1_555 1_555
C65 C60 1_555 1_555
H58 C65 1_555 1_555
O10 C66 1_555 1_555
O11 C66 1_555 1_555
O12 C70 1_555 1_555
N16 H59 1_555 1_555
N17 C67 1_555 1_555
N18 N19 1_555 1_555
N19 H60 1_555 1_555
N20 C71 1_555 1_555
C66 N16 1_555 1_555
C67 N16 1_555 1_555
C68 N17 1_555 1_555
C69 N18 1_555 1_555
H61 C69 1_555 1_555
C70 N19 1_555 1_555
C71 C70 1_555 1_555
C72 N20 1_555 1_555
H62 C72 1_555 1_555
C73 C72 1_555 1_555
H63 C73 1_555 1_555
C74 C73 1_555 1_555
H64 C74 1_555 1_555
C75 C71 1_555 1_555
H65 C75 1_555 1_555
C76 C68 1_555 1_555
H66 C76 1_555 1_555
C77 C76 1_555 1_555
H67 C77 1_555 1_555
C78 C67 1_555 1_555
H68 C78 1_555 1_555
C79 O10 1_555 1_555
H69 C79 1_555 1_555
H70 C79 1_555 1_555
C80 C79 1_555 1_555
C81 C80 1_555 1_555
H71 C81 1_555 1_555
C82 C81 1_555 1_555
H72 C82 1_555 1_555
C83 C82 1_555 1_555
H73 C83 1_555 1_555
C84 C83 1_555 1_555
H74 C84 1_555 1_555
C85 C80 1_555 1_555
H75 C85 1_555 1_555
O13 C86 1_555 1_555
O14 C86 1_555 1_555
O15 C90 1_555 1_555
N21 H76 1_555 1_555
N22 C87 1_555 1_555
N23 N24 1_555 1_555
N24 H77 1_555 1_555
N25 C91 1_555 1_555
C86 N21 1_555 1_555
C87 N21 1_555 1_555
C88 N22 1_555 1_555
C89 N23 1_555 1_555
H78 C89 1_555 1_555
C90 N24 1_555 1_555
C91 C90 1_555 1_555
C92 N25 1_555 1_555
H79 C92 1_555 1_555
C93 C92 1_555 1_555
H80 C93 1_555 1_555
C94 C93 1_555 1_555
H81 C94 1_555 1_555
C95 C91 1_555 1_555
H82 C95 1_555 1_555
C96 C88 1_555 1_555
H83 C96 1_555 1_555
C97 C96 1_555 1_555
H84 C97 1_555 1_555
C98 C87 1_555 1_555
H85 C98 1_555 1_555
C99 O13 1_555 1_555
H86 C99 1_555 1_555
H87 C99 1_555 1_555
C100 C99 1_555 1_555
C101 C100 1_555 1_555
H88 C101 1_555 1_555
C102 C101 1_555 1_555
H89 C102 1_555 1_555
C103 C102 1_555 1_555
H90 C103 1_555 1_555
C104 C103 1_555 1_555
H91 C104 1_555 1_555
C105 C100 1_555 1_555
H92 C105 1_555 1_555
O16 C106 1_555 1_555
O17 C106 1_555 1_555
O18 C110 1_555 1_555
N26 H93 1_555 1_555
N27 C107 1_555 1_555
N28 N29 1_555 1_555
N29 H94 1_555 1_555
N30 C111 1_555 1_555
C106 N26 1_555 1_555
C107 N26 1_555 1_555
C108 N27 1_555 1_555
C109 N28 1_555 1_555
H95 C109 1_555 1_555
C110 N29 1_555 1_555
C111 C110 1_555 1_555
C112 N30 1_555 1_555
H96 C112 1_555 1_555
C113 C112 1_555 1_555
H97 C113 1_555 1_555
C114 C113 1_555 1_555
H98 C114 1_555 1_555
C115 C111 1_555 1_555
H99 C115 1_555 1_555
C116 C108 1_555 1_555
H100 C116 1_555 1_555
C117 C116 1_555 1_555
H101 C117 1_555 1_555
C118 C107 1_555 1_555
H102 C118 1_555 1_555
C119 O16 1_555 1_555
H103 C119 1_555 1_555
H104 C119 1_555 1_555
C120 C119 1_555 1_555
C121 C120 1_555 1_555
H105 C121 1_555 1_555
C122 C121 1_555 1_555
H106 C122 1_555 1_555
C123 C122 1_555 1_555
H107 C123 1_555 1_555
C124 C123 1_555 1_555
H108 C124 1_555 1_555
C125 C120 1_555 1_555
H109 C125 1_555 1_555
O19 C126 1_555 1_555
O20 C126 1_555 1_555
O21 C130 1_555 1_555
N31 H110 1_555 1_555
N32 C127 1_555 1_555
N33 N34 1_555 1_555
N34 H111 1_555 1_555
N35 C131 1_555 1_555
C126 N31 1_555 1_555
C127 N31 1_555 1_555
C128 N32 1_555 1_555
C129 N33 1_555 1_555
H112 C129 1_555 1_555
C130 N34 1_555 1_555
C131 C130 1_555 1_555
C132 N35 1_555 1_555
H113 C132 1_555 1_555
C133 C132 1_555 1_555
H114 C133 1_555 1_555
C134 C133 1_555 1_555
H115 C134 1_555 1_555
C135 C131 1_555 1_555
H116 C135 1_555 1_555
C136 C128 1_555 1_555
H117 C136 1_555 1_555
C137 C136 1_555 1_555
H118 C137 1_555 1_555
C138 C127 1_555 1_555
H119 C138 1_555 1_555
C139 O19 1_555 1_555
H120 C139 1_555 1_555
H121 C139 1_555 1_555
C140 C139 1_555 1_555
C141 C140 1_555 1_555
H122 C141 1_555 1_555
C142 C141 1_555 1_555
H123 C142 1_555 1_555
C143 C142 1_555 1_555
H124 C143 1_555 1_555
C144 C143 1_555 1_555
H125 C144 1_555 1_555
C145 C140 1_555 1_555
H126 C145 1_555 1_555
O22 C146 1_555 1_555
O23 C146 1_555 1_555
O24 C150 1_555 1_555
N36 H127 1_555 1_555
N37 C147 1_555 1_555
N38 N39 1_555 1_555
N39 H128 1_555 1_555
N40 C151 1_555 1_555
C146 N36 1_555 1_555
C147 N36 1_555 1_555
C148 N37 1_555 1_555
C149 N38 1_555 1_555
H129 C149 1_555 1_555
C150 N39 1_555 1_555
C151 C150 1_555 1_555
C152 N40 1_555 1_555
H130 C152 1_555 1_555
C153 C152 1_555 1_555
H131 C153 1_555 1_555
C154 C153 1_555 1_555
H132 C154 1_555 1_555
C155 C151 1_555 1_555
H133 C155 1_555 1_555
C156 C148 1_555 1_555
H134 C156 1_555 1_555
C157 C156 1_555 1_555
H135 C157 1_555 1_555
C158 C147 1_555 1_555
H136 C158 1_555 1_555
C159 O22 1_555 1_555
H137 C159 1_555 1_555
H138 C159 1_555 1_555
C160 H139 1_555 1_555
C161 C160 1_555 1_555
H140 C161 1_555 1_555
C162 C161 1_555 1_555
H141 C162 1_555 1_555
C163 C159 1_555 1_555
C164 C163 1_555 1_555
H142 C164 1_555 1_555
C165 C160 1_555 1_555
H143 C165 1_555 1_555
C8 C9 1_555 1_555
C14 C15 1_555 1_555
C17 C18 1_555 1_555
C24 C25 1_555 1_555
C28 C29 1_555 1_555
C34 C35 1_555 1_555
C37 C38 1_555 1_555
C44 C45 1_555 1_555
C48 C49 1_555 1_555
C54 C55 1_555 1_555
C57 C58 1_555 1_555
C64 C65 1_555 1_555
C68 C69 1_555 1_555
C74 C75 1_555 1_555
C77 C78 1_555 1_555
C84 C85 1_555 1_555
C88 C89 1_555 1_555
C94 C95 1_555 1_555
C97 C98 1_555 1_555
C104 C105 1_555 1_555
C108 C109 1_555 1_555
C114 C115 1_555 1_555
C117 C118 1_555 1_555
C124 C125 1_555 1_555
C128 C129 1_555 1_555
C134 C135 1_555 1_555
C137 C138 1_555 1_555
C144 C145 1_555 1_555
C148 C149 1_555 1_555
C154 C155 1_555 1_555
C157 C158 1_555 1_555
C162 C163 1_555 1_555
C164 C165 1_555 1_555

#END
