
#######################################################################
#
#                 Cambridge Crystallographic Data Centre
#                                CCDC 
#
#######################################################################
#
# If this CIF has been generated from an entry in the Cambridge 
# Structural Database, then it will include bibliographic, chemical, 
# crystal, experimental, refinement or atomic coordinate data resulting 
# from the CCDC's data processing and validation procedures.
#
#######################################################################

data_QIPDOI
_chemical_formula_moiety         
'16(C19 H31 N5 O5 Si1),4(C6 H2 N3 O7 1-),3(K1 1+),Cs1 1+,14(C2 H3 N1)'
_chemical_name_systematic        
"cesium tripotassium hexadecakis(5'-t-butyldimethylsilyl-2',3'-di-O-isopropylidene) tetrapicrate acetonitrile solvate"
_symmetry_cell_setting           tetragonal
_symmetry_space_group_name_H-M   'I 4'
_symmetry_Int_Tables_number      79
_space_group_name_Hall           'I 4'
loop_
_symmetry_equiv_pos_site_id
_symmetry_equiv_pos_as_xyz
1 x,y,z
2 -y,x,z
3 -x,-y,z
4 y,-x,z
5 1/2+x,1/2+y,1/2+z
6 1/2-y,1/2+x,1/2+z
7 1/2-x,1/2-y,1/2+z
8 1/2+y,1/2-x,1/2+z
_cell_length_a                   30.572(10)
_cell_length_b                   30.572(10)
_cell_length_c                   25.713(10)
_cell_angle_alpha                90
_cell_angle_beta                 90
_cell_angle_gamma                90
_cell_volume                     24032.6
_exptl_crystal_colour            'canary yellow'
_exptl_crystal_description       block
_cell_formula_units_Z            2
loop_
_atom_site_label
_atom_site_type_symbol
_atom_site_fract_x
_atom_site_fract_y
_atom_site_fract_z
Cs1 Cs 0.0000 0.0000 -0.2089(1)
K1 K 0.0000 0.0000 -0.0603(1)
K2 K 0.0000 0.0000 0.0731(1)
K3 K 0.0000 0.0000 0.2103(1)
N1 N 0.0148(1) -0.1179(1) -0.1207(1)
N2 N -0.0272(1) -0.1811(1) -0.1233(2)
C1 C 0.0123(1) -0.1632(1) -0.1228(2)
N3 N 0.0478(1) -0.1890(1) -0.1243(1)
C2 C 0.0856(1) -0.1662(1) -0.1224(2)
C3 C 0.0911(1) -0.1213(1) -0.1214(2)
O1 O 0.0530(1) -0.0529(1) -0.1212(1)
C4 C 0.0540(1) -0.0938(1) -0.1210(1)
N4 N 0.1356(1) -0.1103(1) -0.1203(1)
C5 C 0.1556(1) -0.1481(1) -0.1208(2)
N5 N 0.1273(1) -0.1839(1) -0.1223(1)
O2 O 0.1554(1) -0.2378(1) -0.1804(1)
C6 C 0.1431(1) -0.2295(1) -0.1283(2)
O3 O 0.1324(1) -0.2984(1) -0.0854(2)
C7 C 0.1096(1) -0.2643(1) -0.1133(2)
O4 O 0.1121(1) -0.3293(1) -0.1606(2)
C8 C 0.0957(2) -0.2850(1) -0.1647(2)
C9 C 0.1180(2) -0.3393(1) -0.1075(2)
C10 C 0.0750(2) -0.3546(2) -0.0827(3)
C11 C 0.1541(2) -0.3729(2) -0.1003(3)
C12 C 0.1202(1) -0.2603(1) -0.2074(2)
O5 O 0.1170(1) -0.2071(1) -0.2775(1)
C13 C 0.0924(2) -0.2297(2) -0.2386(2)
Si1 Si 0.1068(1) -0.2104(1) -0.3397(1)
C14 C 0.0723(5) -0.1631(4) -0.3618(4)
C15 C 0.0821(6) -0.2658(5) -0.3552(6)
C16 C 0.1621(2) -0.2061(2) -0.3694(3)
C17 C 0.1904(3) -0.2467(4) -0.3507(5)
C18 C 0.1602(4) -0.2093(4) -0.4290(3)
C19 C 0.1862(4) -0.1630(4) -0.3528(4)
H1 H -0.0093 -0.1036 -0.1191
H2 H -0.0299 -0.2091 -0.1247
H3 H -0.0500 -0.1647 -0.1224
H4 H 0.1858 -0.1509 -0.1203
H5 H 0.1690 -0.2333 -0.1063
H6 H 0.0849 -0.2523 -0.0937
H7 H 0.0639 -0.2842 -0.1697
H8 H 0.0800 -0.3614 -0.0467
H9 H 0.0646 -0.3801 -0.1005
H10 H 0.0536 -0.3317 -0.0852
H11 H 0.1577 -0.3790 -0.0640
H12 H 0.1810 -0.3616 -0.1141
H13 H 0.1465 -0.3993 -0.1183
H14 H 0.1331 -0.2818 -0.2311
H15 H 0.0691 -0.2461 -0.2552
H16 H 0.0790 -0.2085 -0.2155
H17 H 0.0454 -0.1628 -0.3425
H18 H 0.0661 -0.1662 -0.3982
H19 H 0.0879 -0.1363 -0.3560
H20 H 0.0543 -0.2686 -0.3380
H21 H 0.1014 -0.2885 -0.3434
H22 H 0.0780 -0.2684 -0.3921
H23 H 0.1891 -0.2490 -0.3135
H24 H 0.2203 -0.2427 -0.3613
H25 H 0.1791 -0.2730 -0.3661
H26 H 0.1893 -0.2072 -0.4429
H27 H 0.1427 -0.1858 -0.4424
H28 H 0.1475 -0.2368 -0.4388
H29 H 0.2159 -0.1696 -0.3437
H30 H 0.1716 -0.1505 -0.3233
H31 H 0.1858 -0.1426 -0.3811
N6 N 0.1130(1) -0.0387(1) 0.0070(1)
N7 N 0.1511(1) -0.1047(1) 0.0119(1)
C20 C 0.1529(1) -0.0609(1) 0.0098(2)
N8 N 0.1914(1) -0.0404(1) 0.0110(1)
C21 C 0.1873(1) 0.0033(1) 0.0088(2)
C22 C 0.1489(1) 0.0285(1) 0.0066(2)
O6 O 0.0707(1) 0.0232(1) 0.0052(1)
C23 C 0.1082(1) 0.0065(1) 0.0060(2)
N9 N 0.1585(1) 0.0729(1) 0.0048(1)
C24 C 0.2016(1) 0.0743(1) 0.0047(2)
N10 N 0.2210(1) 0.0333(1) 0.0082(1)
O7 O 0.2759(1) 0.0072(1) -0.0463(1)
C25 C 0.2678(1) 0.0244(1) 0.0034(2)
O8 O 0.3062(2) 0.0060(2) 0.0883(2)
C26 C 0.2856(2) -0.0082(2) 0.0443(2)
O9 O 0.3566(3) -0.0124(4) 0.0251(4)
C27 C 0.3125(2) -0.0392(2) 0.0130(2)
C28 C 0.3535(3) 0.0007(4) 0.0783(4)
C29 C 0.3707(2) -0.0289(2) 0.1159(3)
C30 C 0.3737(4) 0.0476(4) 0.0812(6)
C31 C 0.3043(1) -0.0313(1) -0.0435(2)
Si2 Si 0.3092(1) -0.0739(1) -0.1730(1)
O10 O 0.2754(1) -0.0589(1) -0.1253(1)
C32 C 0.2822(2) -0.0686(1) -0.0713(2)
C33 C 0.3332(2) -0.1283(2) -0.1561(2)
C34 C 0.3542(2) -0.0331(2) -0.1801(3)
C35 C 0.2740(2) -0.0760(2) -0.2331(2)
C36 C 0.2587(2) -0.0292(2) -0.2469(2)
C37 C 0.2336(2) -0.1044(2) -0.2239(2)
C38 C 0.2997(2) -0.0949(2) -0.2792(2)
H32 H 0.0896 -0.0542 0.0057
H33 H 0.1748 -0.1197 0.0140
H34 H 0.1262 -0.1177 0.0111
H35 H 0.2174 0.1002 0.0025
H36 H 0.2837 0.0521 0.0069
H37 H 0.2602 -0.0250 0.0562
H38 H 0.3121 -0.0699 0.0243
H39 H 0.4015 -0.0325 0.1104
H40 H 0.3564 -0.0567 0.1126
H41 H 0.3657 -0.0175 0.1502
H42 H 0.3971 0.0500 0.0565
H43 H 0.3848 0.0528 0.1156
H44 H 0.3516 0.0689 0.0733
H45 H 0.3321 -0.0248 -0.0608
H46 H 0.3001 -0.0946 -0.0683
H47 H 0.2542 -0.0745 -0.0550
H48 H 0.3101 -0.1495 -0.1530
H49 H 0.3486 -0.1261 -0.1236
H50 H 0.3531 -0.1372 -0.1829
H51 H 0.3421 -0.0051 -0.1890
H52 H 0.3738 -0.0424 -0.2071
H53 H 0.3700 -0.0308 -0.1479
H54 H 0.2412 -0.0178 -0.2191
H55 H 0.2416 -0.0300 -0.2783
H56 H 0.2837 -0.0108 -0.2521
H57 H 0.2172 -0.0928 -0.1953
H58 H 0.2426 -0.1337 -0.2160
H59 H 0.2158 -0.1045 -0.2546
H60 H 0.3251 -0.0773 -0.2854
H61 H 0.2815 -0.0949 -0.3096
H62 H 0.3084 -0.1243 -0.2713
N11 N -0.0804(1) -0.0868(1) 0.1378(1)
N12 N -0.0838(1) -0.1630(1) 0.1336(1)
C39 C -0.1052(1) -0.1251(1) 0.1354(1)
N13 N -0.1487(1) -0.1250(1) 0.1353(1)
C40 C -0.1652(1) -0.0842(1) 0.1376(1)
C41 C -0.1442(1) -0.0446(1) 0.1385(1)
O11 O -0.0724(1) -0.0122(1) 0.1396(1)
C42 C -0.0975(1) -0.0445(1) 0.1387(1)
N14 N -0.1738(1) -0.0097(1) 0.1410(1)
C43 C -0.2122(1) -0.0290(1) 0.1421(2)
N15 N -0.2096(1) -0.0744(1) 0.1398(1)
O12 O -0.2442(1) -0.1261(1) 0.1929(1)
C44 C -0.2459(1) -0.1056(1) 0.1435(2)
O13 O -0.2802(1) -0.1360(1) 0.0661(1)
C45 C -0.2451(1) -0.1413(1) 0.1015(2)
O14 O -0.2998(1) -0.1903(1) 0.1209(1)
C46 C -0.2546(1) -0.1832(1) 0.1309(2)
C47 C -0.3090(1) -0.1731(2) 0.0712(2)
C48 C -0.3000(2) -0.2046(2) 0.0277(2)
C49 C -0.3556(2) -0.1571(4) 0.0706(3)
C50 C -0.2470(1) -0.1733(1) 0.1882(2)
O15 O -0.1995(1) -0.1839(1) 0.2634(1)
C51 C -0.2056(1) -0.1944(1) 0.2095(2)
Si3 Si -0.2129(1) -0.2192(1) 0.3099(1)
C52 C -0.2712(1) -0.2359(1) 0.3011(2)
C53 C -0.1770(1) -0.2687(1) 0.3049(2)
C54 C -0.2044(1) -0.1896(2) 0.3722(2)
C55 C -0.1565(2) -0.1718(2) 0.3780(2)
C56 C -0.2353(2) -0.1498(2) 0.3770(2)
C57 C -0.2134(2) -0.2211(2) 0.4184(2)
H63 H -0.0524 -0.0895 0.1388
H64 H -0.0981 -0.1872 0.1323
H65 H -0.0557 -0.1633 0.1337
H66 H -0.2385 -0.0138 0.1443
H67 H -0.2735 -0.0895 0.1407
H68 H -0.2168 -0.1425 0.0837
H69 H -0.2365 -0.2076 0.1187
H70 H -0.3088 -0.1918 -0.0047
H71 H -0.3162 -0.2311 0.0334
H72 H -0.2693 -0.2112 0.0266
H73 H -0.3627 -0.1466 0.0364
H74 H -0.3589 -0.1338 0.0953
H75 H -0.3749 -0.1807 0.0796
H76 H -0.2722 -0.1837 0.2082
H77 H -0.2075 -0.2259 0.2056
H78 H -0.1805 -0.1844 0.1897
H79 H -0.2897 -0.2105 0.3036
H80 H -0.2791 -0.2565 0.3276
H81 H -0.2748 -0.2491 0.2675
H82 H -0.1824 -0.2832 0.2724
H83 H -0.1834 -0.2882 0.3331
H84 H -0.1469 -0.2599 0.3066
H85 H -0.1362 -0.1956 0.3753
H86 H -0.1533 -0.1579 0.4113
H87 H -0.1507 -0.1509 0.3510
H88 H -0.2650 -0.1593 0.3731
H89 H -0.2284 -0.1289 0.3504
H90 H -0.2316 -0.1365 0.4106
H91 H -0.2426 -0.2324 0.4158
H92 H -0.2102 -0.2055 0.4506
H93 H -0.1929 -0.2449 0.4175
N16 N 0.1139(1) 0.0328(1) 0.2663(1)
N17 N 0.1532(1) 0.0981(1) 0.2657(1)
C58 C 0.1537(1) 0.0542(1) 0.2665(2)
N18 N 0.1922(1) 0.0336(1) 0.2675(1)
C59 C 0.1875(1) -0.0107(1) 0.2654(2)
C60 C 0.1491(1) -0.0348(1) 0.2642(2)
O16 O 0.0712(1) -0.0286(1) 0.2638(1)
C61 C 0.1082(1) -0.0123(1) 0.2649(1)
N19 N 0.1580(1) -0.0795(1) 0.2617(1)
C62 C 0.2007(1) -0.0815(1) 0.2624(2)
N20 N 0.2211(1) -0.0413(1) 0.2643(2)
O17 O 0.2807(1) -0.0439(1) 0.3241(2)
C63 C 0.2685(1) -0.0364(2) 0.2716(2)
O18 O 0.3297(1) 0.0048(1) 0.2392(2)
C64 C 0.2861(1) 0.0092(1) 0.2595(2)
O19 O 0.3377(1) 0.0464(1) 0.3113(2)
C65 C 0.2935(2) 0.0305(2) 0.3125(2)
C66 C 0.3541(2) 0.0410(2) 0.2598(3)
C67 C 0.3459(2) 0.0822(2) 0.2273(3)
C68 C 0.4018(2) 0.0275(2) 0.2622(4)
C69 C 0.2874(3) -0.0019(3) 0.3511(3)
O20 O 0.2369(2) -0.0156(2) 0.4164(2)
C70 C 0.2441(3) 0.0130(3) 0.3832(3)
Si4 Si 0.1968(3) -0.0117(2) 0.4571(3)
C71 C 0.1763(6) 0.0447(4) 0.4761(7)
C72 C 0.1447(4) -0.0345(5) 0.4171(5)
C73 C 0.1995(4) -0.0464(4) 0.5148(4)
C74 C 0.2365(6) -0.0278(6) 0.5514(6)
C75 C 0.1562(6) -0.0475(8) 0.5466(8)
C76 C 0.2125(5) -0.0942(4) 0.5016(6)
H94 H 0.0907 0.0487 0.2671
H95 H 0.1775 0.1124 0.2658
H96 H 0.1287 0.1119 0.2650
H97 H 0.2160 -0.1078 0.2616
H98 H 0.2836 -0.0577 0.2495
H99 H 0.2667 0.0262 0.2369
H100 H 0.2730 0.0548 0.3177
H101 H 0.3577 0.0782 0.1930
H102 H 0.3599 0.1068 0.2435
H103 H 0.3150 0.0876 0.2249
H104 H 0.4126 0.0232 0.2276
H105 H 0.4044 0.0008 0.2816
H106 H 0.4185 0.0501 0.2790
H107 H 0.2491 0.0411 0.3999
H108 H 0.2194 0.0158 0.3599
H109 H 0.1986 0.0598 0.4953
H110 H 0.1506 0.0419 0.4972
H111 H 0.1694 0.0611 0.4453
H112 H 0.1504 -0.0639 0.4060
H113 H 0.1397 -0.0163 0.3873
H114 H 0.1193 -0.0341 0.4391
H115 H 0.2385 -0.0454 0.5821
H116 H 0.2295 0.0018 0.5609
H117 H 0.2640 -0.0283 0.5333
H118 H 0.1600 -0.0654 0.5769
H119 H 0.1332 -0.0593 0.5255
H120 H 0.1486 -0.0183 0.5570
H121 H 0.2144 -0.1110 0.5331
H122 H 0.2403 -0.0944 0.4843
H123 H 0.1907 -0.1068 0.4792
C77 C 0.1504(1) 0.2612(1) 0.0625(2)
O21 O 0.1443(1) 0.2228(1) 0.0763(1)
O22 O 0.1922(1) 0.2049(1) -0.0109(1)
C78 C 0.1686(1) 0.2740(1) 0.0121(2)
N21 N 0.1798(1) 0.2410(1) -0.0260(2)
O23 O 0.1765(1) 0.2504(1) -0.0723(2)
C79 C 0.1744(1) 0.3173(1) -0.0030(2)
O24 O 0.1573(2) 0.4252(1) 0.0438(2)
N22 N 0.1700(2) 0.3959(1) 0.0138(2)
C80 C 0.1641(2) 0.3504(1) 0.0310(2)
O25 O 0.1874(2) 0.4026(2) -0.0293(3)
C81 C 0.1475(2) 0.3421(1) 0.0796(2)
C82 C 0.1397(1) 0.2991(1) 0.0941(2)
O26 O 0.1310(2) 0.3156(2) 0.1812(2)
N23 N 0.1200(2) 0.2917(1) 0.1449(2)
O27 O 0.0918(2) 0.2633(1) 0.1492(2)
H124 H 0.1852 0.3238 -0.0359
H125 H 0.1417 0.3649 0.1025
N24 N 0.3862(18) 0.0780(15) -0.3106(17)
C83 C 0.4035(16) 0.0910(13) -0.2695(17)
C84 C 0.4043(16) 0.1275(14) -0.2329(17)
H126 H 0.4254 0.1217 -0.2061
H127 H 0.3759 0.1310 -0.2176
H128 H 0.4123 0.1538 -0.2510
N25 N 0.1003(3) 0.0276(2) -0.2460(3)
C85 C 0.0952(2) 0.0659(3) -0.2482(3)
C86 C 0.0904(2) 0.1126(2) -0.2519(3)
N26 N 0.0000 0.0000 0.3614(7)
C87 C 0.0000 0.0000 0.4165(12)
C88 C 0.0000 0.0000 0.4556(17)
N27 N 0.3772(12) -0.0386(12) 0.5028(15)
C89 C 0.3645(14) -0.0306(15) 0.5478(16)
C90 C 0.3317(17) -0.0207(19) 0.5857(19)
H129 H 0.3164 -0.0469 0.5949
H130 H 0.3115 0.0002 0.5715
H131 H 0.3454 -0.0086 0.6161
N28 N 0.4036(5) -0.0853(5) -0.0484(5)
C91 C 0.4413(6) -0.0911(7) -0.0680(8)
C92 C 0.4857(7) -0.1051(11) -0.0660(15)
Si5? Si 0.1363(2) -0.2231(2) -0.3391(2)
C93? C 0.1843(8) -0.2587(9) -0.3329(10)
C94? C 0.0861(7) -0.2532(8) -0.3669(10)
C95? C 0.1469(5) -0.1742(4) -0.3779(6)
C96? C 0.1062(10) -0.1427(10) -0.3788(15)
C97? C 0.1589(12) -0.1840(8) -0.4354(6)
C98? C 0.1864(12) -0.1470(10) -0.3542(14)
O28? O 0.3314(4) 0.0183(3) 0.0525(7)
O29? O 0.3471(2) -0.0507(2) 0.0302(3)
C99? C 0.3620(5) -0.0135(6) 0.0547(10)
C100? C 0.4061(5) -0.0009(5) 0.0315(7)
C101? C 0.2826(11) -0.0135(12) 0.3975(14)
Si6? Si 0.2054(2) -0.0179(3) 0.4672(3)
C102? C 0.2290(5) 0.0297(5) 0.5076(6)
C103? C 0.2175(6) -0.0719(5) 0.4987(7)
C104? C 0.1496(3) -0.0071(4) 0.4483(5)
C105? C 0.1274(5) -0.0434(5) 0.4125(6)
C106? C 0.1190(5) -0.0075(6) 0.4995(6)
C107? C 0.1384(6) 0.0390(5) 0.4209(8)
N29? N 0.3499(5) 0.0646(5) -0.2864(6)
C108? C 0.3762(5) 0.0858(4) -0.2630(5)
C109? C 0.4067(4) 0.1129(4) -0.2381(5)
N30? N 0.5000 0.0000 0.3270(20)
C110? C 0.4800(12) -0.0284(12) 0.3525(16)
C111? C 0.4357(12) -0.0361(15) 0.3720(20)
N31? N 0.3510(9) -0.0133(8) 0.6107(10)
C112? C 0.3861(12) -0.0254(16) 0.6261(16)
C113? C 0.4144(14) -0.0465(15) 0.6616(18)
N32? N 0.4950(30) 0.1021(19) 0.1250(40)
C114? C 0.5010(20) 0.0626(19) 0.1290(20)
C115? C 0.5030(20) 0.0214(17) 0.1550(30)
H132? H 0.2084 -0.2422 -0.3191
H133? H 0.1920 -0.2700 -0.3665
H134? H 0.1776 -0.2825 -0.3100
H135? H 0.0621 -0.2331 -0.3700
H136? H 0.0781 -0.2767 -0.3441
H137? H 0.0931 -0.2648 -0.4006
H138? H 0.1128 -0.1176 -0.3999
H139? H 0.0996 -0.1334 -0.3440
H140? H 0.0815 -0.1578 -0.3931
H141? H 0.1640 -0.1570 -0.4534
H142? H 0.1353 -0.1995 -0.4517
H143? H 0.1849 -0.2015 -0.4365
H144? H 0.1912 -0.1213 -0.3749
H145? H 0.2123 -0.1646 -0.3542
H146? H 0.1795 -0.1385 -0.3192
H147? H 0.2678 -0.0181 0.0737
H148? H 0.3953 -0.0133 0.1297
H149? H 0.3765 -0.0597 0.1169
H150? H 0.3452 -0.0226 0.1365
H151? H 0.4144 0.0276 0.0437
H152? H 0.4040 -0.0005 -0.0057
H153? H 0.4278 -0.0219 0.0420
H154? H 0.2987 0.0067 0.4194
H155? H 0.2957 -0.0421 0.4017
H156? H 0.2236 0.0568 0.4899
H157? H 0.2599 0.0256 0.5118
H158? H 0.2152 0.0302 0.5411
H159? H 0.2057 -0.0951 0.4778
H160? H 0.2043 -0.0727 0.5326
H161? H 0.2485 -0.0755 0.5019
H162? H 0.0982 -0.0343 0.4037
H163? H 0.1263 -0.0706 0.4309
H164? H 0.1442 -0.0469 0.3812
H165? H 0.0895 -0.0006 0.4899
H166? H 0.1295 0.0138 0.5239
H167? H 0.1199 -0.0360 0.5152
H168? H 0.1076 0.0405 0.4139
H169? H 0.1544 0.0413 0.3889
H170? H 0.1466 0.0625 0.4437
H171? H 0.4246 0.1272 -0.2637
H172? H 0.4249 0.0956 -0.2157
H173? H 0.3915 0.1345 -0.2179
H174? H 0.1176 0.1254 -0.2624
H175? H 0.0819 0.1242 -0.2186
H176? H 0.0682 0.1195 -0.2771
H177? H 0.0075 0.0286 0.4680
H178? H 0.0210 -0.0208 0.4680
H179? H -0.0286 -0.0078 0.4680
H180? H 0.4311 -0.0186 0.4029
H181? H 0.4324 -0.0664 0.3809
H182? H 0.4148 -0.0281 0.3462
H183? H 0.4246 -0.0734 0.6468
H184? H 0.3989 -0.0524 0.6933
H185? H 0.4389 -0.0278 0.6689
H186? H 0.4894 -0.1302 -0.0879
H187? H 0.4933 -0.1125 -0.0309
H188? H 0.5043 -0.0819 -0.0780
H189? H 0.4806 0.0023 0.1417
H190? H 0.4982 0.0259 0.1916
H191? H 0.5311 0.0084 0.1496
loop_
_geom_bond_atom_site_label_1
_geom_bond_atom_site_label_2
_geom_bond_site_symmetry_1
_geom_bond_site_symmetry_2
N1 C1 1_555 1_555
N2 C1 1_555 1_555
C1 N3 1_555 1_555
N3 C2 1_555 1_555
C2 C3 1_555 1_555
C3 C4 1_555 1_555
O1 C4 1_555 1_555
C4 N1 1_555 1_555
N4 C3 1_555 1_555
C5 N4 1_555 1_555
N5 C2 1_555 1_555
O2 C6 1_555 1_555
C6 N5 1_555 1_555
O3 C7 1_555 1_555
C7 C6 1_555 1_555
O4 C8 1_555 1_555
C8 C7 1_555 1_555
C9 O3 1_555 1_555
C10 C9 1_555 1_555
C11 C9 1_555 1_555
C12 O2 1_555 1_555
O5 C13 1_555 1_555
C13 C12 1_555 1_555
Si1 O5 1_555 1_555
C14 Si1 1_555 1_555
C15 Si1 1_555 1_555
C16 Si1 1_555 1_555
C17 C16 1_555 1_555
C18 C16 1_555 1_555
C19 C16 1_555 1_555
H1 N1 1_555 1_555
H2 N2 1_555 1_555
H3 N2 1_555 1_555
H4 C5 1_555 1_555
H5 C6 1_555 1_555
H6 C7 1_555 1_555
H7 C8 1_555 1_555
H8 C10 1_555 1_555
H9 C10 1_555 1_555
H10 C10 1_555 1_555
H11 C11 1_555 1_555
H12 C11 1_555 1_555
H13 C11 1_555 1_555
H14 C12 1_555 1_555
H15 C13 1_555 1_555
H16 C13 1_555 1_555
H17 C14 1_555 1_555
H18 C14 1_555 1_555
H19 C14 1_555 1_555
H20 C15 1_555 1_555
H21 C15 1_555 1_555
H22 C15 1_555 1_555
H23 C17 1_555 1_555
H24 C17 1_555 1_555
H25 C17 1_555 1_555
H26 C18 1_555 1_555
H27 C18 1_555 1_555
H28 C18 1_555 1_555
H29 C19 1_555 1_555
H30 C19 1_555 1_555
H31 C19 1_555 1_555
N6 C20 1_555 1_555
N7 C20 1_555 1_555
C20 N8 1_555 1_555
N8 C21 1_555 1_555
C21 C22 1_555 1_555
C22 C23 1_555 1_555
O6 C23 1_555 1_555
C23 N6 1_555 1_555
N9 C22 1_555 1_555
C24 N9 1_555 1_555
N10 C21 1_555 1_555
O7 C25 1_555 1_555
C25 N10 1_555 1_555
O8 C26 1_555 1_555
C26 C25 1_555 1_555
O9 C27 1_555 1_555
C27 C26 1_555 1_555
C28 O8 1_555 1_555
C29 C28 1_555 1_555
C30 C28 1_555 1_555
C31 O7 1_555 1_555
Si2 O10 1_555 1_555
O10 C32 1_555 1_555
C32 C31 1_555 1_555
C33 Si2 1_555 1_555
C34 Si2 1_555 1_555
C35 Si2 1_555 1_555
C36 C35 1_555 1_555
C37 C35 1_555 1_555
C38 C35 1_555 1_555
H32 N6 1_555 1_555
H33 N7 1_555 1_555
H34 N7 1_555 1_555
H35 C24 1_555 1_555
H36 C25 1_555 1_555
H37 C26 1_555 1_555
H38 C27 1_555 1_555
H39 C29 1_555 1_555
H40 C29 1_555 1_555
H41 C29 1_555 1_555
H42 C30 1_555 1_555
H43 C30 1_555 1_555
H44 C30 1_555 1_555
H45 C31 1_555 1_555
H46 C32 1_555 1_555
H47 C32 1_555 1_555
H48 C33 1_555 1_555
H49 C33 1_555 1_555
H50 C33 1_555 1_555
H51 C34 1_555 1_555
H52 C34 1_555 1_555
H53 C34 1_555 1_555
H54 C36 1_555 1_555
H55 C36 1_555 1_555
H56 C36 1_555 1_555
H57 C37 1_555 1_555
H58 C37 1_555 1_555
H59 C37 1_555 1_555
H60 C38 1_555 1_555
H61 C38 1_555 1_555
H62 C38 1_555 1_555
N11 C39 1_555 1_555
N12 C39 1_555 1_555
C39 N13 1_555 1_555
N13 C40 1_555 1_555
C40 C41 1_555 1_555
C41 C42 1_555 1_555
O11 C42 1_555 1_555
C42 N11 1_555 1_555
N14 C41 1_555 1_555
C43 N14 1_555 1_555
N15 C40 1_555 1_555
O12 C44 1_555 1_555
C44 N15 1_555 1_555
O13 C45 1_555 1_555
C45 C44 1_555 1_555
O14 C46 1_555 1_555
C46 C45 1_555 1_555
C47 O13 1_555 1_555
C48 C47 1_555 1_555
C49 C47 1_555 1_555
C50 O12 1_555 1_555
O15 C51 1_555 1_555
C51 C50 1_555 1_555
Si3 O15 1_555 1_555
C52 Si3 1_555 1_555
C53 Si3 1_555 1_555
C54 Si3 1_555 1_555
C55 C54 1_555 1_555
C56 C54 1_555 1_555
C57 C54 1_555 1_555
H63 N11 1_555 1_555
H64 N12 1_555 1_555
H65 N12 1_555 1_555
H66 C43 1_555 1_555
H67 C44 1_555 1_555
H68 C45 1_555 1_555
H69 C46 1_555 1_555
H70 C48 1_555 1_555
H71 C48 1_555 1_555
H72 C48 1_555 1_555
H73 C49 1_555 1_555
H74 C49 1_555 1_555
H75 C49 1_555 1_555
H76 C50 1_555 1_555
H77 C51 1_555 1_555
H78 C51 1_555 1_555
H79 C52 1_555 1_555
H80 C52 1_555 1_555
H81 C52 1_555 1_555
H82 C53 1_555 1_555
H83 C53 1_555 1_555
H84 C53 1_555 1_555
H85 C55 1_555 1_555
H86 C55 1_555 1_555
H87 C55 1_555 1_555
H88 C56 1_555 1_555
H89 C56 1_555 1_555
H90 C56 1_555 1_555
H91 C57 1_555 1_555
H92 C57 1_555 1_555
H93 C57 1_555 1_555
N16 C58 1_555 1_555
N17 C58 1_555 1_555
C58 N18 1_555 1_555
N18 C59 1_555 1_555
C59 C60 1_555 1_555
C60 C61 1_555 1_555
O16 C61 1_555 1_555
C61 N16 1_555 1_555
N19 C60 1_555 1_555
C62 N19 1_555 1_555
N20 C59 1_555 1_555
O17 C63 1_555 1_555
C63 N20 1_555 1_555
O18 C64 1_555 1_555
C64 C63 1_555 1_555
O19 C65 1_555 1_555
C65 C64 1_555 1_555
C66 O18 1_555 1_555
C67 C66 1_555 1_555
C68 C66 1_555 1_555
C69 O17 1_555 1_555
O20 C70 1_555 1_555
C70 C69 1_555 1_555
Si4 O20 1_555 1_555
C71 Si4 1_555 1_555
C72 Si4 1_555 1_555
C73 Si4 1_555 1_555
C74 C73 1_555 1_555
C75 C73 1_555 1_555
C76 C73 1_555 1_555
H94 N16 1_555 1_555
H95 N17 1_555 1_555
H96 N17 1_555 1_555
H97 C62 1_555 1_555
H98 C63 1_555 1_555
H99 C64 1_555 1_555
H100 C65 1_555 1_555
H101 C67 1_555 1_555
H102 C67 1_555 1_555
H103 C67 1_555 1_555
H104 C68 1_555 1_555
H105 C68 1_555 1_555
H106 C68 1_555 1_555
H107 C70 1_555 1_555
H108 C70 1_555 1_555
H109 C71 1_555 1_555
H110 C71 1_555 1_555
H111 C71 1_555 1_555
H112 C72 1_555 1_555
H113 C72 1_555 1_555
H114 C72 1_555 1_555
H115 C74 1_555 1_555
H116 C74 1_555 1_555
H117 C74 1_555 1_555
H118 C75 1_555 1_555
H119 C75 1_555 1_555
H120 C75 1_555 1_555
H121 C76 1_555 1_555
H122 C76 1_555 1_555
H123 C76 1_555 1_555
C77 O21 1_555 1_555
O22 N21 1_555 1_555
C78 C77 1_555 1_555
N21 C78 1_555 1_555
O23 N21 1_555 1_555
C79 C78 1_555 1_555
O24 N22 1_555 1_555
N22 C80 1_555 1_555
C80 C79 1_555 1_555
O25 N22 1_555 1_555
C81 C80 1_555 1_555
C82 C77 1_555 1_555
O26 N23 1_555 1_555
N23 C82 1_555 1_555
O27 N23 1_555 1_555
H124 C79 1_555 1_555
H125 C81 1_555 1_555
N24 C83 1_555 1_555
C83 C84 1_555 1_555
C84 H126 1_555 1_555
H127 C84 1_555 1_555
H128 C84 1_555 1_555
N25 C85 1_555 1_555
C85 C86 1_555 1_555
N26 C87 1_555 1_555
C87 C88 1_555 1_555
N27 C89 1_555 1_555
C89 C90 1_555 1_555
C90 H129 1_555 1_555
H130 C90 1_555 1_555
H131 C90 1_555 1_555
N28 C91 1_555 1_555
C91 C92 1_555 1_555
C5 N5 1_555 1_555
O4 C9 1_555 1_555
C8 C12 1_555 1_555
C24 N10 1_555 1_555
O9 C28 1_555 1_555
C27 C31 1_555 1_555
C43 N15 1_555 1_555
O14 C47 1_555 1_555
C46 C50 1_555 1_555
C62 N20 1_555 1_555
O19 C66 1_555 1_555
C65 C69 1_555 1_555
C81 C82 1_555 1_555

#END
