
#######################################################################
#
#                 Cambridge Crystallographic Data Centre
#                                CCDC 
#
#######################################################################
#
# If this CIF has been generated from an entry in the Cambridge 
# Structural Database, then it will include bibliographic, chemical, 
# crystal, experimental, refinement or atomic coordinate data resulting 
# from the CCDC's data processing and validation procedures.
#
#######################################################################

data_QIPDEB
_chemical_formula_moiety         'C93 H90 O3 S3'
_chemical_name_systematic        
'6,21,36-tris(4-(octyloxy)phenyl)-48,51,54-trithiatridecacyclo[34.9.2.2^13,16^.2^28,31^.1^2,5^.1^17,20^.1^32,35^.0^6,14^.0^7,12^.0^21,29^.0^22,27^.0^37,42^.0^43,47^]tetrapentaconta-1(45),2,4,7,9,11,13,15,17,19,22,24,26,28,30,32,34,37,39,41,43,46,49,52-tetracosaene unknown solvate'
_symmetry_cell_setting           monoclinic
_symmetry_space_group_name_H-M   'P 21/c'
_symmetry_Int_Tables_number      14
_space_group_name_Hall           '-P 2ybc'
loop_
_symmetry_equiv_pos_site_id
_symmetry_equiv_pos_as_xyz
1 x,y,z
2 -x,1/2+y,1/2-z
3 -x,-y,-z
4 x,1/2-y,1/2+z
_cell_length_a                   15.7998(13)
_cell_length_b                   28.639(2)
_cell_length_c                   16.9127(14)
_cell_angle_alpha                90
_cell_angle_beta                 91.418(2)
_cell_angle_gamma                90
_cell_volume                     7650.49
_exptl_crystal_colour            colorless
_exptl_crystal_description       block
_cell_formula_units_Z            4
loop_
_atom_site_label
_atom_site_type_symbol
_atom_site_fract_x
_atom_site_fract_y
_atom_site_fract_z
S1 S 0.38032(5) 0.44039(3) 0.23373(4)
S2 S 0.26084(4) 0.50997(3) -0.00453(4)
S3 S 0.27151(6) 0.34111(3) 0.00250(4)
O1 O 0.48334(14) 0.40082(8) -0.36218(13)
O2 O 0.2471(2) 0.70238(11) 0.33328(19)
O3 O 0.08598(15) 0.41971(9) 0.47279(14)
C1 C 0.24946(18) 0.31503(11) -0.08856(16)
C2 C 0.2650(2) 0.26855(12) -0.0833(2)
H1 H 0.2565 0.2479 -0.1266
C3 C 0.2947(2) 0.25338(12) -0.0083(2)
H2 H 0.3077 0.2217 0.0036
C4 C 0.30295(19) 0.28893(11) 0.04583(17)
C5 C 0.33654(19) 0.28590(10) 0.12739(16)
C6 C 0.3775(2) 0.24444(11) 0.15161(18)
H3 H 0.3801 0.2190 0.1157
C7 C 0.4139(2) 0.23992(10) 0.22602(18)
H4 H 0.4403 0.2115 0.2419
C8 C 0.41142(19) 0.27782(11) 0.27772(17)
C9 C 0.37131(19) 0.31920(10) 0.25495(17)
C10 C 0.33314(19) 0.32365(10) 0.18064(17)
H5 H 0.3051 0.3518 0.1658
C11 C 0.4495(2) 0.28337(11) 0.35688(17)
C12 C 0.4924(2) 0.25128(12) 0.4049(2)
H6 H 0.5006 0.2201 0.3877
C13 C 0.5228(2) 0.26594(13) 0.4781(2)
H7 H 0.5522 0.2444 0.5116
C14 C 0.5111(2) 0.31156(13) 0.50360(19)
H8 H 0.5333 0.3211 0.5538
C15 C 0.4668(2) 0.34357(12) 0.45566(18)
H9 H 0.4580 0.3747 0.4732
C16 C 0.4361(2) 0.32916(11) 0.38243(17)
C17 C 0.38294(19) 0.35650(10) 0.32002(17)
C18 C 0.43353(19) 0.39684(10) 0.28595(16)
C19 C 0.51832(19) 0.40142(11) 0.27837(18)
H10 H 0.5584 0.3811 0.3032
C20 C 0.5415(2) 0.43956(11) 0.22959(19)
H11 H 0.5985 0.4471 0.2183
C21 C 0.47368(19) 0.46436(10) 0.20049(17)
C22 C 0.47102(18) 0.50436(10) 0.14608(16)
C23 C 0.54173(18) 0.51651(10) 0.10196(17)
H12 H 0.5931 0.4997 0.1099
C24 C 0.53852(18) 0.55241(10) 0.04698(17)
H13 H 0.5870 0.5600 0.0175
C25 C 0.46320(18) 0.57718(10) 0.03557(17)
C26 C 0.39274(18) 0.56581(10) 0.08012(17)
C27 C 0.39623(19) 0.53027(10) 0.13536(17)
H14 H 0.3482 0.5234 0.1660
C28 C 0.43898(19) 0.61442(10) -0.02033(17)
C29 C 0.4856(2) 0.63716(11) -0.07769(18)
H15 H 0.5435 0.6298 -0.0849
C30 C 0.4450(2) 0.67105(11) -0.12416(18)
H16 H 0.4757 0.6869 -0.1637
C31 C 0.3602(2) 0.68207(12) -0.11346(19)
H17 H 0.3335 0.7052 -0.1458
C32 C 0.3140(2) 0.65940(11) -0.05561(19)
H18 H 0.2562 0.6670 -0.0481
C33 C 0.3535(2) 0.62587(11) -0.00955(18)
C34 C 0.31609(19) 0.59643(11) 0.05706(18)
C35 C 0.24405(19) 0.56702(11) 0.02323(18)
C36 C 0.1627(2) 0.58038(12) 0.00260(19)
H19 H 0.1404 0.6105 0.0132
C37 C 0.1156(2) 0.54465(12) -0.03604(19)
H20 H 0.0587 0.5485 -0.0542
C38 C 0.15982(17) 0.50409(11) -0.04483(17)
C39 C 0.13325(19) 0.45951(11) -0.07979(17)
C40 C 0.0463(2) 0.45017(13) -0.0945(2)
H21 H 0.0054 0.4726 -0.0793
C41 C 0.0193(2) 0.40933(13) -0.1302(2)
H22 H -0.0393 0.4040 -0.1401
C42 C 0.0781(2) 0.37606(12) -0.15151(19)
C43 C 0.16464(19) 0.38416(11) -0.13489(17)
C44 C 0.19220(19) 0.42514(11) -0.10051(17)
H23 H 0.2510 0.4302 -0.0908
C45 C 0.0699(2) 0.33158(13) -0.1938(2)
C46 C -0.0021(2) 0.30839(16) -0.2241(3)
H24 H -0.0571 0.3208 -0.2168
C47 C 0.0090(3) 0.26718(16) -0.2648(3)
H25 H -0.0393 0.2508 -0.2848
C48 C 0.0890(3) 0.24905(15) -0.2773(2)
H26 H 0.0949 0.2210 -0.3066
C49 C 0.1604(2) 0.27174(13) -0.24711(19)
H27 H 0.2154 0.2595 -0.2558
C50 C 0.1503(2) 0.31252(12) -0.20417(18)
C51 C 0.29042(19) 0.35767(11) -0.21381(17)
C52 C 0.3699(2) 0.36940(11) -0.18147(17)
H28 H 0.3796 0.3668 -0.1260
C53 C 0.4354(2) 0.38489(11) -0.22870(18)
H29 H 0.4886 0.3931 -0.2053
C54 C 0.4225(2) 0.38820(10) -0.30974(17)
C55 C 0.3431(2) 0.37729(11) -0.34310(17)
H30 H 0.3335 0.3799 -0.3986
C56 C 0.2784(2) 0.36266(11) -0.29527(18)
H31 H 0.2244 0.3559 -0.3185
C57 C 0.2908(2) 0.62555(11) 0.12850(18)
C58 C 0.2354(2) 0.60816(12) 0.18413(19)
H32 H 0.2084 0.5790 0.1747
C59 C 0.2188(2) 0.63273(13) 0.2536(2)
H33 H 0.1805 0.6204 0.2906
C60 C 0.2586(3) 0.67503(14) 0.2678(2)
C61 C 0.3288(3) 0.66844(13) 0.1438(2)
H34 H 0.3661 0.6813 0.1063
C62 C 0.3135(3) 0.69295(15) 0.2128(3)
H35 H 0.3406 0.7221 0.2223
C63 C 0.30033(19) 0.37294(11) 0.35627(16)
C64 C 0.3018(2) 0.41095(12) 0.40877(18)
H36 H 0.3532 0.4274 0.4182
C65 C 0.2299(2) 0.42475(12) 0.44687(19)
H37 H 0.2326 0.4503 0.4828
C66 C 0.1533(2) 0.40160(11) 0.43321(18)
C67 C 0.1498(2) 0.36403(11) 0.38089(18)
H38 H 0.0981 0.3478 0.3712
C68 C 0.2235(2) 0.35049(10) 0.34285(17)
H39 H 0.2209 0.3251 0.3067
C69 C 0.5635(2) 0.41583(13) -0.3300(2)
H40 H 0.5860 0.3924 -0.2920
H41 H 0.5571 0.4459 -0.3019
C70 C 0.6231(2) 0.42146(13) -0.3975(2)
H42 H 0.6287 0.3909 -0.4242
H43 H 0.6797 0.4299 -0.3754
C71 C 0.5975(2) 0.45773(13) -0.4593(2)
H44 H 0.5952 0.4888 -0.4340
H45 H 0.5401 0.4503 -0.4805
C72 C 0.6592(2) 0.45951(14) -0.5279(2)
H46 H 0.7165 0.4670 -0.5064
H47 H 0.6619 0.4282 -0.5525
C73 C 0.6353(2) 0.49498(13) -0.5910(2)
H48 H 0.6337 0.5263 -0.5664
H49 H 0.5776 0.4878 -0.6116
C74 C 0.6954(3) 0.49636(15) -0.6601(2)
H50 H 0.6988 0.4645 -0.6825
H51 H 0.6700 0.5167 -0.7016
C75 C 0.7829(3) 0.51285(18) -0.6430(2)
H52 H 0.8103 0.4922 -0.6031
H53 H 0.7811 0.5448 -0.6206
C76 C 0.8354(4) 0.5132(3) -0.7180(3)
H54 H 0.8331 0.4823 -0.7428
H55 H 0.8943 0.5210 -0.7042
H56 H 0.8122 0.5365 -0.7551
C77 C 0.2025(4) 0.68317(17) 0.3971(3)
H57 H 0.2243 0.6517 0.4104
H58 H 0.1414 0.6807 0.3834
C78 C 0.2167(6) 0.7165(3) 0.4666(4)
H59 H 0.1769 0.7431 0.4619
H60 H 0.2751 0.7289 0.4661
C79 C 0.2018(7) 0.6891(4) 0.5483(5)
H61 H 0.1417 0.6794 0.5487
H62 H 0.2363 0.6603 0.5476
C80 C 0.2197(7) 0.7118(4) 0.6190(5)
H63 H 0.1976 0.7441 0.6153
H64 H 0.2819 0.7138 0.6266
C81 C 0.1853(8) 0.6901(4) 0.6862(6)
H65 H 0.1229 0.6911 0.6787
H66 H 0.1991 0.7106 0.7319
C82 C 0.2071(7) 0.6421(4) 0.7108(5)
H67 H 0.2683 0.6392 0.7237
H68 H 0.1913 0.6193 0.6691
C83 C 0.1525(6) 0.6350(4) 0.7867(5)
H69 H 0.1820 0.6112 0.8197
H70 H 0.1552 0.6646 0.8167
C84 C 0.0588(6) 0.6207(4) 0.7811(5)
H71 H 0.0299 0.6388 0.7395
H72 H 0.0322 0.6267 0.8319
H73 H 0.0546 0.5873 0.7685
C85 C 0.0039(2) 0.39964(15) 0.4582(2)
H74 H 0.0016 0.3677 0.4803
H75 H -0.0086 0.3980 0.4006
C86 C -0.0597(2) 0.43058(14) 0.4978(2)
H76 H -0.1170 0.4176 0.4877
H77 H -0.0580 0.4619 0.4730
C87 C -0.0459(2) 0.43616(13) 0.5866(2)
H78 H 0.0123 0.4479 0.5972
H79 H -0.0507 0.4052 0.6121
C88 C -0.1091(2) 0.46968(13) 0.6233(2)
H80 H -0.1103 0.4990 0.5924
H81 H -0.1663 0.4556 0.6195
C89 C -0.0886(2) 0.48114(14) 0.7094(2)
H82 H -0.0927 0.4521 0.7408
H83 H -0.0292 0.4921 0.7137
C90 C -0.1451(3) 0.51781(15) 0.7459(2)
H84 H -0.2040 0.5059 0.7459
H85 H -0.1445 0.5462 0.7126
C91 C -0.1181(3) 0.53100(15) 0.8307(2)
H86 H -0.1311 0.5045 0.8660
H87 H -0.0560 0.5356 0.8327
C92 C -0.1598(3) 0.57432(15) 0.8623(2)
H88 H -0.1475 0.6009 0.8279
H89 H -0.1379 0.5807 0.9159
H90 H -0.2212 0.5695 0.8636
C93 C 0.21825(19) 0.34256(11) -0.16089(17)
loop_
_geom_bond_atom_site_label_1
_geom_bond_atom_site_label_2
_geom_bond_site_symmetry_1
_geom_bond_site_symmetry_2
S1 C18 1_555 1_555
S2 C35 1_555 1_555
S3 C1 1_555 1_555
O1 C54 1_555 1_555
O2 C60 1_555 1_555
O3 C66 1_555 1_555
C1 C2 1_555 1_555
C2 H1 1_555 1_555
C3 C2 1_555 1_555
H2 C3 1_555 1_555
C4 S3 1_555 1_555
C5 C4 1_555 1_555
C6 C5 1_555 1_555
H3 C6 1_555 1_555
C7 C6 1_555 1_555
H4 C7 1_555 1_555
C8 C7 1_555 1_555
C9 C8 1_555 1_555
C10 C5 1_555 1_555
H5 C10 1_555 1_555
C11 C8 1_555 1_555
C12 C11 1_555 1_555
H6 C12 1_555 1_555
C13 C12 1_555 1_555
H7 C13 1_555 1_555
C14 C13 1_555 1_555
H8 C14 1_555 1_555
C15 C14 1_555 1_555
H9 C15 1_555 1_555
C16 C11 1_555 1_555
C17 C9 1_555 1_555
C18 C17 1_555 1_555
C19 C18 1_555 1_555
H10 C19 1_555 1_555
C20 C19 1_555 1_555
H11 C20 1_555 1_555
C21 S1 1_555 1_555
C22 C21 1_555 1_555
C23 C22 1_555 1_555
H12 C23 1_555 1_555
C24 C23 1_555 1_555
H13 C24 1_555 1_555
C25 C24 1_555 1_555
C26 C25 1_555 1_555
C27 C22 1_555 1_555
H14 C27 1_555 1_555
C28 C25 1_555 1_555
C29 C28 1_555 1_555
H15 C29 1_555 1_555
C30 C29 1_555 1_555
H16 C30 1_555 1_555
C31 C30 1_555 1_555
H17 C31 1_555 1_555
C32 C31 1_555 1_555
H18 C32 1_555 1_555
C33 C28 1_555 1_555
C34 C26 1_555 1_555
C35 C34 1_555 1_555
C36 C35 1_555 1_555
H19 C36 1_555 1_555
C37 C36 1_555 1_555
H20 C37 1_555 1_555
C38 S2 1_555 1_555
C39 C38 1_555 1_555
C40 C39 1_555 1_555
H21 C40 1_555 1_555
C41 C40 1_555 1_555
H22 C41 1_555 1_555
C42 C41 1_555 1_555
C43 C42 1_555 1_555
C44 C39 1_555 1_555
H23 C44 1_555 1_555
C45 C42 1_555 1_555
C46 C45 1_555 1_555
H24 C46 1_555 1_555
C47 C46 1_555 1_555
H25 C47 1_555 1_555
C48 C47 1_555 1_555
H26 C48 1_555 1_555
C49 C48 1_555 1_555
H27 C49 1_555 1_555
C50 C45 1_555 1_555
C51 C52 1_555 1_555
C52 H28 1_555 1_555
C53 C52 1_555 1_555
H29 C53 1_555 1_555
C54 C53 1_555 1_555
C55 C54 1_555 1_555
H30 C55 1_555 1_555
C56 C51 1_555 1_555
H31 C56 1_555 1_555
C57 C34 1_555 1_555
C58 C57 1_555 1_555
H32 C58 1_555 1_555
C59 C58 1_555 1_555
H33 C59 1_555 1_555
C60 C59 1_555 1_555
C61 C57 1_555 1_555
H34 C61 1_555 1_555
C62 C60 1_555 1_555
H35 C62 1_555 1_555
C63 C17 1_555 1_555
C64 C63 1_555 1_555
H36 C64 1_555 1_555
C65 C64 1_555 1_555
H37 C65 1_555 1_555
C66 C65 1_555 1_555
C67 C66 1_555 1_555
H38 C67 1_555 1_555
C68 C63 1_555 1_555
H39 C68 1_555 1_555
C69 O1 1_555 1_555
H40 C69 1_555 1_555
H41 C69 1_555 1_555
C70 C69 1_555 1_555
H42 C70 1_555 1_555
H43 C70 1_555 1_555
C71 C70 1_555 1_555
H44 C71 1_555 1_555
H45 C71 1_555 1_555
C72 C71 1_555 1_555
H46 C72 1_555 1_555
H47 C72 1_555 1_555
C73 C72 1_555 1_555
H48 C73 1_555 1_555
H49 C73 1_555 1_555
C74 C73 1_555 1_555
H50 C74 1_555 1_555
H51 C74 1_555 1_555
C75 C74 1_555 1_555
H52 C75 1_555 1_555
H53 C75 1_555 1_555
C76 C75 1_555 1_555
H54 C76 1_555 1_555
H55 C76 1_555 1_555
H56 C76 1_555 1_555
C77 O2 1_555 1_555
H57 C77 1_555 1_555
H58 C77 1_555 1_555
C78 C77 1_555 1_555
H59 C78 1_555 1_555
H60 C78 1_555 1_555
C79 C78 1_555 1_555
H61 C79 1_555 1_555
H62 C79 1_555 1_555
C80 C79 1_555 1_555
H63 C80 1_555 1_555
H64 C80 1_555 1_555
C81 C80 1_555 1_555
H65 C81 1_555 1_555
H66 C81 1_555 1_555
C82 C81 1_555 1_555
H67 C82 1_555 1_555
H68 C82 1_555 1_555
C83 C82 1_555 1_555
H69 C83 1_555 1_555
H70 C83 1_555 1_555
C84 C83 1_555 1_555
H71 C84 1_555 1_555
H72 C84 1_555 1_555
H73 C84 1_555 1_555
C85 O3 1_555 1_555
H74 C85 1_555 1_555
H75 C85 1_555 1_555
C86 C85 1_555 1_555
H76 C86 1_555 1_555
H77 C86 1_555 1_555
C87 C86 1_555 1_555
H78 C87 1_555 1_555
H79 C87 1_555 1_555
C88 C87 1_555 1_555
H80 C88 1_555 1_555
H81 C88 1_555 1_555
C89 C88 1_555 1_555
H82 C89 1_555 1_555
H83 C89 1_555 1_555
C90 C89 1_555 1_555
H84 C90 1_555 1_555
H85 C90 1_555 1_555
C91 C90 1_555 1_555
H86 C91 1_555 1_555
H87 C91 1_555 1_555
C92 C91 1_555 1_555
H88 C92 1_555 1_555
H89 C92 1_555 1_555
H90 C92 1_555 1_555
C93 C1 1_555 1_555
C3 C4 1_555 1_555
C9 C10 1_555 1_555
C15 C16 1_555 1_555
C16 C17 1_555 1_555
C20 C21 1_555 1_555
C26 C27 1_555 1_555
C32 C33 1_555 1_555
C33 C34 1_555 1_555
C37 C38 1_555 1_555
C43 C44 1_555 1_555
C43 C93 1_555 1_555
C49 C50 1_555 1_555
C50 C93 1_555 1_555
C51 C93 1_555 1_555
C55 C56 1_555 1_555
C61 C62 1_555 1_555
C67 C68 1_555 1_555

#END
