
#######################################################################
#
#                 Cambridge Crystallographic Data Centre
#                                CCDC 
#
#######################################################################
#
# If this CIF has been generated from an entry in the Cambridge 
# Structural Database, then it will include bibliographic, chemical, 
# crystal, experimental, refinement or atomic coordinate data resulting 
# from the CCDC's data processing and validation procedures.
#
#######################################################################

data_QIPDIF
_chemical_formula_moiety         'C18 H12 F1 I1 O2'
_chemical_name_systematic        
1-(4-fluorophenyl)-2-(4-hydroxy-1-iodo-2-naphthyl)ethanone
_symmetry_cell_setting           monoclinic
_symmetry_space_group_name_H-M   'P 21/n'
_symmetry_Int_Tables_number      14
_space_group_name_Hall           '-P 2yn'
loop_
_symmetry_equiv_pos_site_id
_symmetry_equiv_pos_as_xyz
1 x,y,z
2 1/2-x,1/2+y,1/2-z
3 -x,-y,-z
4 1/2+x,1/2-y,1/2+z
_cell_length_a                   12.9743(11)
_cell_length_b                   5.0822(5)
_cell_length_c                   23.572(2)
_cell_angle_alpha                90
_cell_angle_beta                 95.1590(10)
_cell_angle_gamma                90
_cell_volume                     1547.99
_exptl_crystal_colour            white
_exptl_crystal_description       block
_cell_formula_units_Z            4
loop_
_atom_site_label
_atom_site_type_symbol
_atom_site_fract_x
_atom_site_fract_y
_atom_site_fract_z
F1 F 0.8672(8) 0.492(2) -0.0911(4)
I1 I 0.47327(7) 1.0749(2) 0.07763(3)
O1 O 0.5959(6) 0.9560(17) 0.3384(3)
H1 H 0.6387 0.8387 0.3449
O2 O 0.7693(6) 1.0388(18) 0.1363(3)
C1 C 0.5180(7) 1.046(2) 0.1654(4)
C2 C 0.5942(8) 0.861(2) 0.1834(4)
C3 C 0.6210(8) 0.833(2) 0.2423(4)
H2 H 0.6708 0.7096 0.2551
C4 C 0.5751(8) 0.983(2) 0.2814(4)
C5 C 0.4987(8) 1.175(2) 0.2639(4)
C6 C 0.4706(8) 1.205(2) 0.2045(4)
C7 C 0.3934(8) 1.393(2) 0.1884(5)
H3 H 0.3703 1.4118 0.1501
C8 C 0.3513(9) 1.551(3) 0.2283(5)
H4 H 0.3034 1.6802 0.2162
C9 C 0.3795(9) 1.520(2) 0.2854(5)
H5 H 0.3490 1.6224 0.3119
C10 C 0.4529(8) 1.336(2) 0.3033(5)
H6 H 0.4727 1.3177 0.3420
C11 C 0.6478(8) 0.692(2) 0.1428(4)
H7 H 0.5969 0.6240 0.1139
H8 H 0.6797 0.5437 0.1634
C12 C 0.7302(8) 0.842(2) 0.1141(5)
C13 C 0.7670(8) 0.740(3) 0.0597(4)
C14 C 0.8502(11) 0.855(3) 0.0383(6)
H9 H 0.8857 0.9869 0.0592
C15 C 0.8829(11) 0.781(3) -0.0131(6)
H10 H 0.9361 0.8704 -0.0288
C16 C 0.8345(11) 0.571(3) -0.0406(6)
C17 C 0.7547(11) 0.451(3) -0.0211(6)
H11 H 0.7214 0.3142 -0.0416
C18 C 0.7210(10) 0.530(3) 0.0302(5)
H12 H 0.6667 0.4417 0.0450
loop_
_geom_bond_atom_site_label_1
_geom_bond_atom_site_label_2
_geom_bond_site_symmetry_1
_geom_bond_site_symmetry_2
F1 C16 1_555 1_555
I1 C1 1_555 1_555
O1 H1 1_555 1_555
O2 C12 1_555 1_555
C1 C2 1_555 1_555
C2 C3 1_555 1_555
C3 H2 1_555 1_555
C4 O1 1_555 1_555
C5 C4 1_555 1_555
C6 C1 1_555 1_555
C7 C6 1_555 1_555
H3 C7 1_555 1_555
C8 C7 1_555 1_555
H4 C8 1_555 1_555
C9 C8 1_555 1_555
H5 C9 1_555 1_555
C10 C5 1_555 1_555
H6 C10 1_555 1_555
C11 C2 1_555 1_555
H7 C11 1_555 1_555
H8 C11 1_555 1_555
C12 C11 1_555 1_555
C13 C12 1_555 1_555
C14 C13 1_555 1_555
H9 C14 1_555 1_555
C15 C14 1_555 1_555
H10 C15 1_555 1_555
C16 C15 1_555 1_555
C17 C16 1_555 1_555
H11 C17 1_555 1_555
C18 C13 1_555 1_555
H12 C18 1_555 1_555
C3 C4 1_555 1_555
C5 C6 1_555 1_555
C9 C10 1_555 1_555
C17 C18 1_555 1_555

#END
