
#######################################################################
#
#                 Cambridge Crystallographic Data Centre
#                                CCDC 
#
#######################################################################
#
# If this CIF has been generated from an entry in the Cambridge 
# Structural Database, then it will include bibliographic, chemical, 
# crystal, experimental, refinement or atomic coordinate data resulting 
# from the CCDC's data processing and validation procedures.
#
#######################################################################

data_QIPFUS
_chemical_formula_moiety         'C19 H15 N3 O2,H2 O1'
_chemical_name_systematic        
'8-((3-(4-Methylphenyl)-1,2,4-oxadiazol-5-yl)methoxy)quinoline monohydrate'
_symmetry_cell_setting           triclinic
_symmetry_space_group_name_H-M   'P -1'
_symmetry_Int_Tables_number      2
_space_group_name_Hall           '-P 1'
loop_
_symmetry_equiv_pos_site_id
_symmetry_equiv_pos_as_xyz
1 x,y,z
2 -x,-y,-z
_cell_length_a                   7.2070(14)
_cell_length_b                   7.6200(15)
_cell_length_c                   15.109(3)
_cell_angle_alpha                92.62(3)
_cell_angle_beta                 90.19(3)
_cell_angle_gamma                92.15(3)
_cell_volume                     828.285
_exptl_crystal_colour            yellow
_exptl_crystal_description       block
_chemical_melting_point          '342 K'
_cell_formula_units_Z            2
loop_
_atom_site_label
_atom_site_type_symbol
_atom_site_fract_x
_atom_site_fract_y
_atom_site_fract_z
O1 O 0.0819(2) 0.7951(2) 0.99656(11)
N1 N -0.1889(3) 0.6301(2) 1.08273(13)
C1 C 0.2813(3) 0.8077(3) 1.12657(18)
H1 H 0.3763 0.8670 1.0974
N2 N 0.0057(3) 0.8438(2) 0.81930(13)
O2 O 0.2873(2) 0.9553(2) 0.80096(12)
C2 C 0.3046(4) 0.7675(4) 1.21478(19)
H2 H 0.4155 0.8005 1.2437
C3 C 0.1700(4) 0.6819(4) 1.25913(18)
H3 H 0.1894 0.6553 1.3178
N3 N 0.2016(3) 0.9460(3) 0.71676(15)
C4 C -0.0008(3) 0.6320(3) 1.21701(17)
C5 C -0.1489(4) 0.5465(3) 1.25918(18)
H4 H -0.1374 0.5179 1.3181
C6 C -0.3092(4) 0.5051(3) 1.21418(19)
H5 H -0.4084 0.4483 1.2416
C7 C -0.3218(3) 0.5497(3) 1.12629(18)
H6 H -0.4323 0.5206 1.0962
C8 C -0.0273(3) 0.6721(3) 1.12723(16)
C9 C 0.1196(3) 0.7605(3) 1.08256(16)
C10 C 0.2240(3) 0.8842(3) 0.94993(17)
H7 H 0.3386 0.8219 0.9528
H8 H 0.2460 1.0022 0.9757
C11 C 0.1608(3) 0.8911(3) 0.85698(17)
C12 C 0.0369(3) 0.8783(3) 0.73185(16)
C13 C -0.0981(3) 0.8373(3) 0.66076(16)
C14 C -0.2843(4) 0.8113(3) 0.67896(17)
H9 H -0.3249 0.8161 0.7374
C15 C -0.4105(4) 0.7784(4) 0.61087(18)
H10 H -0.5356 0.7628 0.6245
C16 C -0.3573(4) 0.7677(3) 0.52325(17)
C17 C -0.1699(5) 0.7904(4) 0.50615(19)
H11 H -0.1291 0.7826 0.4478
C18 C -0.0424(4) 0.8242(4) 0.57307(19)
H12 H 0.0828 0.8385 0.5594
C19 C -0.4974(5) 0.7358(4) 0.45006(19)
H13 H -0.4352 0.7339 0.3940
H14 H -0.5845 0.8282 0.4523
H15 H -0.5622 0.6250 0.4571
O3 O -0.3313(2) 0.7299(3) 0.91840(14)
H16 H -0.236(5) 0.757(4) 0.8819(19)
H17 H -0.274(4) 0.682(4) 0.967(2)
loop_
_geom_bond_atom_site_label_1
_geom_bond_atom_site_label_2
_geom_bond_site_symmetry_1
_geom_bond_site_symmetry_2
O1 C9 1_555 1_555
N1 C7 1_555 1_555
C1 H1 1_555 1_555
N2 C11 1_555 1_555
O2 N3 1_555 1_555
C2 C1 1_555 1_555
H2 C2 1_555 1_555
C3 C2 1_555 1_555
H3 C3 1_555 1_555
N3 C12 1_555 1_555
C4 C3 1_555 1_555
C5 C4 1_555 1_555
H4 C5 1_555 1_555
C6 C5 1_555 1_555
H5 C6 1_555 1_555
C7 C6 1_555 1_555
H6 C7 1_555 1_555
C8 N1 1_555 1_555
C9 C1 1_555 1_555
C10 O1 1_555 1_555
H7 C10 1_555 1_555
H8 C10 1_555 1_555
C11 O2 1_555 1_555
C12 N2 1_555 1_555
C13 C12 1_555 1_555
C14 C13 1_555 1_555
H9 C14 1_555 1_555
C15 C14 1_555 1_555
H10 C15 1_555 1_555
C16 C15 1_555 1_555
C17 C16 1_555 1_555
H11 C17 1_555 1_555
C18 C13 1_555 1_555
H12 C18 1_555 1_555
C19 C16 1_555 1_555
H13 C19 1_555 1_555
H14 C19 1_555 1_555
H15 C19 1_555 1_555
O3 H16 1_555 1_555
H17 O3 1_555 1_555
C4 C8 1_555 1_555
C8 C9 1_555 1_555
C10 C11 1_555 1_555
C17 C18 1_555 1_555

#END
