
#######################################################################
#
#                 Cambridge Crystallographic Data Centre
#                                CCDC 
#
#######################################################################
#
# If this CIF has been generated from an entry in the Cambridge 
# Structural Database, then it will include bibliographic, chemical, 
# crystal, experimental, refinement or atomic coordinate data resulting 
# from the CCDC's data processing and validation procedures.
#
#######################################################################

data_QIPFAZ
_chemical_formula_moiety         'C11 H11 Cl1 O5'
_chemical_name_systematic        
4-[(4-chlorophenyl)methyl]-5-hydroperoxy-5-methyl-1,2-dioxolan-3-one
_symmetry_cell_setting           monoclinic
_symmetry_space_group_name_H-M   'P 21/c'
_symmetry_Int_Tables_number      14
_space_group_name_Hall           '-P 2ybc'
loop_
_symmetry_equiv_pos_site_id
_symmetry_equiv_pos_as_xyz
1 x,y,z
2 -x,1/2+y,1/2-z
3 -x,-y,-z
4 x,1/2-y,1/2+z
_cell_length_a                   28.220(4)
_cell_length_b                   5.8112(7)
_cell_length_c                   14.3654(18)
_cell_angle_alpha                90
_cell_angle_beta                 104.727(3)
_cell_angle_gamma                90
_cell_volume                     2278.42
_exptl_crystal_colour            colorless
_exptl_crystal_description       prism
_cell_formula_units_Z            8
loop_
_atom_site_label
_atom_site_type_symbol
_atom_site_fract_x
_atom_site_fract_y
_atom_site_fract_z
Cl1 Cl 0.02612(3) 0.64197(17) 0.11381(7)
O1 O -0.24070(9) 0.7014(5) 0.33856(19)
O2 O -0.18896(9) 0.6793(5) 0.39384(18)
O3 O -0.28046(8) 0.7253(5) 0.18604(18)
O4 O -0.14667(8) 0.9782(4) 0.33874(18)
O5 O -0.19208(9) 1.1122(4) 0.30079(17)
H1 H -0.2014 1.1352 0.3564
C1 C -0.24170(13) 0.7020(6) 0.2433(2)
C2 C -0.19083(12) 0.6731(6) 0.2303(2)
H2 H -0.1859 0.5043 0.2228
C3 C -0.15823(12) 0.7414(6) 0.3311(2)
C4 C -0.18137(13) 0.7896(6) 0.1405(3)
H3 H -0.2044 0.7263 0.0824
H4 H -0.1880 0.9565 0.1431
C5 C -0.12944(12) 0.7556(6) 0.1320(2)
C6 C -0.09485(13) 0.9287(6) 0.1580(3)
H5 H -0.1041 1.0726 0.1794
C7 C -0.04648(14) 0.8941(7) 0.1530(3)
H6 H -0.0228 1.0126 0.1715
C8 C -0.03408(12) 0.6880(6) 0.1213(2)
C9 C -0.06844(12) 0.5124(6) 0.0925(2)
H7 H -0.0592 0.3708 0.0691
C10 C -0.11596(13) 0.5470(6) 0.0983(3)
H8 H -0.1396 0.4283 0.0793
C11 C -0.11067(12) 0.6164(6) 0.3673(3)
H9 H -0.1166 0.4501 0.3635
H10 H -0.0883 0.6572 0.3277
H11 H -0.0960 0.6601 0.4343
C21 C -0.25972(8) 1.2417(6) 0.4827(2)
C22 C -0.34140(5) 1.2312(3) 0.4850(2)
Cl3 Cl -0.52627(3) 1.34350(18) 0.08626(7)
O11 O -0.31192(10) 1.2909(5) 0.5793(2)
O12 O -0.25958(11) 1.2431(7) 0.5779(2)
O13 O -0.22011(9) 1.2119(7) 0.4656(2)
O14 O -0.35540(9) 0.9947(5) 0.48330(19)
O15 O -0.31201(10) 0.8528(5) 0.4910(2)
H23 H -0.3023 0.8287 0.5512
C23 C -0.30961(13) 1.2894(6) 0.4182(3)
H24 H -0.3122 1.4589 0.4059
C24 C -0.31879(13) 1.1687(7) 0.3214(2)
H25 H -0.2949 1.2246 0.2866
H26 H -0.3138 1.0011 0.3318
C25 C -0.37012(16) 1.2123(7) 0.2611(3)
C26 C -0.40663(13) 1.0452(6) 0.2512(3)
H27 H -0.3985 0.9008 0.2821
C27 C -0.45444(13) 1.0829(7) 0.1975(3)
H28 H -0.4786 0.9660 0.1916
C28 C -0.46626(12) 1.2947(7) 0.1527(3)
C29 C -0.43124(13) 1.4654(6) 0.1610(3)
H29 H -0.4398 1.6097 0.1302
C30 C -0.38361(12) 1.4254(6) 0.2144(3)
H30 H -0.3597 1.5430 0.2196
C31 C -0.38912(13) 1.3611(7) 0.4750(3)
H31 H -0.3828 1.5270 0.4755
H32 H -0.4123 1.3186 0.4142
H33 H -0.4031 1.3216 0.5288
Cl2? Cl -0.52611(18) 1.1420(10) 0.0877(4)
O6? O -0.3129(6) 1.187(3) 0.5810(11)
O7? O -0.2669(7) 1.279(4) 0.5761(14)
O8? O -0.22134(18) 1.212(4) 0.4602(7)
O9? O -0.35428(4) 1.481(2) 0.4822(8)
O10? O -0.40734(4) 1.4895(2) 0.4639(7)
H12? H -0.4278 1.5986 0.4472
C12? C -0.3101(7) 1.180(4) 0.4226(14)
H13? H -0.3113 1.0110 0.4091
C13? C -0.3165(7) 1.315(4) 0.3250(14)
H14? H -0.2906 1.2681 0.2934
H15? H -0.3136 1.4822 0.3374
C14? C -0.3701(9) 1.254(4) 0.2561(18)
C15? C -0.3836(7) 1.059(3) 0.2130(14)
H16? H -0.3600 0.9400 0.2169
C16? C -0.4315(7) 1.022(4) 0.1618(15)
H17? H -0.4400 0.8762 0.1320
C17? C -0.4653(7) 1.178(4) 0.1529(15)
C18? C -0.4531(7) 1.393(4) 0.2006(15)
H18? H -0.4771 1.5107 0.1949
C19? C -0.4058(7) 1.428(3) 0.2552(14)
H19? H -0.3972 1.5656 0.2914
C20? C -0.3905(2) 1.1643(2) 0.4727(15)
H20? H -0.4090 1.1968 0.4065
H21? H -0.3919 0.9991 0.4855
H22? H -0.4048 1.2503 0.5176
loop_
_geom_bond_atom_site_label_1
_geom_bond_atom_site_label_2
_geom_bond_site_symmetry_1
_geom_bond_site_symmetry_2
Cl1 C8 1_555 1_555
O1 O2 1_555 1_555
O2 C3 1_555 1_555
O3 C1 1_555 1_555
O4 O5 1_555 1_555
O5 H1 1_555 1_555
C1 O1 1_555 1_555
C2 C1 1_555 1_555
H2 C2 1_555 1_555
C3 O4 1_555 1_555
C4 C2 1_555 1_555
H3 C4 1_555 1_555
H4 C4 1_555 1_555
C5 C4 1_555 1_555
C6 C5 1_555 1_555
H5 C6 1_555 1_555
C7 C6 1_555 1_555
H6 C7 1_555 1_555
C8 C7 1_555 1_555
C9 C8 1_555 1_555
H7 C9 1_555 1_555
C10 C5 1_555 1_555
H8 C10 1_555 1_555
C11 C3 1_555 1_555
H9 C11 1_555 1_555
H10 C11 1_555 1_555
H11 C11 1_555 1_555
C21 O12 1_555 1_555
C22 O11 1_555 1_555
Cl3 C28 1_555 1_555
O11 O12 1_555 1_555
O13 C21 1_555 1_555
O14 C22 1_555 1_555
O15 O14 1_555 1_555
H23 O15 1_555 1_555
C23 C21 1_555 1_555
H24 C23 1_555 1_555
C24 C23 1_555 1_555
H25 C24 1_555 1_555
H26 C24 1_555 1_555
C25 C24 1_555 1_555
C26 C25 1_555 1_555
H27 C26 1_555 1_555
C27 C26 1_555 1_555
H28 C27 1_555 1_555
C28 C27 1_555 1_555
C29 C28 1_555 1_555
H29 C29 1_555 1_555
C30 C25 1_555 1_555
H30 C30 1_555 1_555
C31 C22 1_555 1_555
H31 C31 1_555 1_555
H32 C31 1_555 1_555
H33 C31 1_555 1_555
C2 C3 1_555 1_555
C9 C10 1_555 1_555
C22 C23 1_555 1_555
C29 C30 1_555 1_555

#END
