
#######################################################################
#
#                 Cambridge Crystallographic Data Centre
#                                CCDC 
#
#######################################################################
#
# If this CIF has been generated from an entry in the Cambridge 
# Structural Database, then it will include bibliographic, chemical, 
# crystal, experimental, refinement or atomic coordinate data resulting 
# from the CCDC's data processing and validation procedures.
#
#######################################################################

data_QIPNIP
_chemical_formula_moiety         'C22 H36 O4'
_chemical_name_systematic        
9-methoxy-9-(methoxymethyl)-6,10a-dimethyl-3-(propan-2-yl)-1,2,4,5,6,6a,7,8,9,10a-decahydrodicyclopenta[a,d][8]annulene-1,5-diol
_symmetry_cell_setting           monoclinic
_symmetry_space_group_name_H-M   'P 21'
_symmetry_Int_Tables_number      4
_space_group_name_Hall           'P 2yb'
loop_
_symmetry_equiv_pos_site_id
_symmetry_equiv_pos_as_xyz
1 x,y,z
2 -x,1/2+y,-z
_cell_length_a                   6.856
_cell_length_b                   15.76930(10)
_cell_length_c                   9.69440(10)
_cell_angle_alpha                90
_cell_angle_beta                 101.6090(10)
_cell_angle_gamma                90
_cell_volume                     1026.66
_cell_formula_units_Z            2
loop_
_atom_site_label
_atom_site_type_symbol
_atom_site_fract_x
_atom_site_fract_y
_atom_site_fract_z
C1 C 0.4161(2) 0.80929(10) 0.28837(16)
H1 H 0.3716 0.7522 0.2764
C2 C 0.4944(2) 0.83945(10) 0.18281(16)
C3 C 0.5010(2) 0.78311(10) 0.05437(17)
C4 C 0.6220(2) 0.83557(11) -0.03453(17)
H2 H 0.7137 0.7985 -0.0740
H3 H 0.5319 0.8645 -0.1130
C5 C 0.7387(2) 0.90021(11) 0.06693(17)
H4 H 0.7684 0.9513 0.0154
H5 H 0.8657 0.8755 0.1178
C6 C 0.6023(2) 0.92295(10) 0.17100(16)
H6 H 0.6894 0.9351 0.2647
C7 C 0.4702(2) 1.00253(10) 0.12577(16)
H7 H 0.5468 1.0390 0.0710
C8 C 0.4469(2) 1.05506(9) 0.25499(16)
H8 H 0.5835 1.0686 0.3093
C9 C 0.3314(2) 1.01324(10) 0.35648(16)
H9 H 0.2969 1.0569 0.4209
H10 H 0.2054 0.9897 0.3018
C10 C 0.4472(2) 0.94310(10) 0.44262(16)
C11 C 0.3857(2) 0.85021(10) 0.42386(16)
C12 C 0.5221(2) 0.80955(10) 0.55566(16)
H11 H 0.4496 0.8110 0.6354
C13 C 0.7018(2) 0.86854(10) 0.59150(17)
H12 H 0.7564 0.8695 0.6941
H13 H 0.8081 0.8515 0.5416
C14 C 0.6141(2) 0.95328(10) 0.54007(16)
C15 C 0.7155(2) 1.03584(10) 0.59049(17)
H14 H 0.6344 1.0833 0.5398
C16 C 0.2928(2) 0.76267(10) -0.02703(17)
H15 H 0.2240 0.7254 0.0300
H16 H 0.2147 0.8156 -0.0476
C17 C 0.2689(3) 0.98582(11) 0.02802(18)
H17 H 0.1950 0.9434 0.0708
H18 H 0.2905 0.9647 -0.0628
H19 H 0.1922 1.0386 0.0135
C18 C 0.1666(2) 0.83635(11) 0.43250(18)
H20 H 0.0804 0.8620 0.3502
H21 H 0.1406 0.8628 0.5185
H22 H 0.1393 0.7754 0.4343
C19 C 0.9243(3) 1.04004(12) 0.55638(19)
H23 H 1.0110 0.9985 0.6140
H24 H 0.9793 1.0971 0.5769
H25 H 0.9161 1.0272 0.4565
C20 C 0.7286(3) 1.04818(13) 0.74918(19)
H26 H 0.5948 1.0452 0.7702
H27 H 0.7873 1.1037 0.7776
H28 H 0.8121 1.0035 0.8010
C21 C 0.1170(3) 0.69673(14) -0.2326(2)
H29 H 0.0592 0.6541 -0.1791
H30 H 0.1314 0.6727 -0.3232
H31 H 0.0294 0.7464 -0.2489
C22 C 0.7772(3) 0.69789(13) 0.1759(2)
H32 H 0.8713 0.7252 0.1261
H33 H 0.8169 0.6388 0.1963
H34 H 0.7774 0.7280 0.2644
O1 O 0.34832(18) 1.13392(7) 0.21200(12)
H35 H 0.4122 1.1605 0.1604
O2 O 0.5681(2) 0.72386(8) 0.53110(13)
H36 H 0.6065 0.6991 0.6085
O3 O 0.30683(17) 0.72137(8) -0.15512(12)
O4 O 0.58297(18) 0.70033(7) 0.09043(12)
loop_
_geom_bond_atom_site_label_1
_geom_bond_atom_site_label_2
_geom_bond_site_symmetry_1
_geom_bond_site_symmetry_2
C1 H1 1_555 1_555
C2 C1 1_555 1_555
C3 C2 1_555 1_555
C4 C3 1_555 1_555
H2 C4 1_555 1_555
H3 C4 1_555 1_555
C5 C4 1_555 1_555
H4 C5 1_555 1_555
H5 C5 1_555 1_555
C6 C2 1_555 1_555
H6 C6 1_555 1_555
C7 C6 1_555 1_555
H7 C7 1_555 1_555
C8 C7 1_555 1_555
H8 C8 1_555 1_555
C9 C8 1_555 1_555
H9 C9 1_555 1_555
H10 C9 1_555 1_555
C10 C9 1_555 1_555
C11 C1 1_555 1_555
C12 C11 1_555 1_555
H11 C12 1_555 1_555
C13 C12 1_555 1_555
H12 C13 1_555 1_555
H13 C13 1_555 1_555
C14 C10 1_555 1_555
C15 C14 1_555 1_555
H14 C15 1_555 1_555
C16 C3 1_555 1_555
H15 C16 1_555 1_555
H16 C16 1_555 1_555
C17 C7 1_555 1_555
H17 C17 1_555 1_555
H18 C17 1_555 1_555
H19 C17 1_555 1_555
C18 C11 1_555 1_555
H20 C18 1_555 1_555
H21 C18 1_555 1_555
H22 C18 1_555 1_555
C19 C15 1_555 1_555
H23 C19 1_555 1_555
H24 C19 1_555 1_555
H25 C19 1_555 1_555
C20 C15 1_555 1_555
H26 C20 1_555 1_555
H27 C20 1_555 1_555
H28 C20 1_555 1_555
C21 H29 1_555 1_555
H30 C21 1_555 1_555
H31 C21 1_555 1_555
C22 H32 1_555 1_555
H33 C22 1_555 1_555
H34 C22 1_555 1_555
O1 C8 1_555 1_555
H35 O1 1_555 1_555
O2 C12 1_555 1_555
H36 O2 1_555 1_555
O3 C16 1_555 1_555
O4 C3 1_555 1_555
C5 C6 1_555 1_555
C10 C11 1_555 1_555
C13 C14 1_555 1_555
C21 O3 1_555 1_555
C22 O4 1_555 1_555

#END
