
#######################################################################
#
#                 Cambridge Crystallographic Data Centre
#                                CCDC 
#
#######################################################################
#
# If this CIF has been generated from an entry in the Cambridge 
# Structural Database, then it will include bibliographic, chemical, 
# crystal, experimental, refinement or atomic coordinate data resulting 
# from the CCDC's data processing and validation procedures.
#
#######################################################################

data_QIPNEL
_chemical_formula_moiety         'C19 H28 O2'
_chemical_name_systematic        
5-hydroxy-4,9a-dimethyl-7-(propan-2-yl)-3,4,5,6,8,9,9a,10-octahydrodicyclopenta[a,d][8]annulen-1(2H)-one
_symmetry_cell_setting           orthorhombic
_symmetry_space_group_name_H-M   'P 21 21 21'
_symmetry_Int_Tables_number      19
_space_group_name_Hall           'P 2ac 2ab'
loop_
_symmetry_equiv_pos_site_id
_symmetry_equiv_pos_as_xyz
1 x,y,z
2 1/2-x,-y,1/2+z
3 -x,1/2+y,1/2-z
4 1/2+x,1/2-y,-z
_cell_length_a                   9.08920(10)
_cell_length_b                   9.97190(10)
_cell_length_c                   17.83610(10)
_cell_angle_alpha                90
_cell_angle_beta                 90
_cell_angle_gamma                90
_cell_volume                     1616.6
_cell_formula_units_Z            4
loop_
_atom_site_label
_atom_site_type_symbol
_atom_site_fract_x
_atom_site_fract_y
_atom_site_fract_z
C1 C 0.73118(19) 0.19787(17) 0.34244(10)
H1 H 0.6307 0.2280 0.3291
H2 H 0.7861 0.2775 0.3602
C2 C 0.8048(2) 0.14678(17) 0.27246(9)
C3 C 0.9572(2) 0.17936(18) 0.25356(10)
C4 C 0.9968(2) 0.1094(2) 0.18087(11)
H3 H 1.0737 0.0407 0.1893
H4 H 1.0330 0.1746 0.1433
C5 C 0.8531(2) 0.04432(18) 0.15471(10)
H5 H 0.8182 0.0857 0.1075
H6 H 0.8665 -0.0531 0.1466
C6 C 0.7462(2) 0.07013(17) 0.21780(10)
C7 C 0.5939(2) 0.01275(18) 0.21951(10)
H7 H 0.5322 0.0741 0.2508
C8 C 0.59137(19) -0.12733(17) 0.25792(10)
H8 H 0.4856 -0.1499 0.2667
C9 C 0.66688(19) -0.13013(17) 0.33505(9)
H9 H 0.6474 -0.2182 0.3587
H10 H 0.7745 -0.1228 0.3275
C10 C 0.61911(19) -0.02109(17) 0.38863(9)
C11 C 0.71907(19) 0.09688(17) 0.40832(9)
C12 C 0.6336(2) 0.16466(18) 0.47318(10)
H11 H 0.6750 0.1374 0.5222
H12 H 0.6395 0.2635 0.4689
C13 C 0.4736(2) 0.11765(19) 0.46604(11)
H13 H 0.4298 0.1003 0.5159
H14 H 0.4130 0.1850 0.4394
C14 C 0.4861(2) -0.01047(18) 0.42098(10)
C15 C 0.3566(2) -0.10311(19) 0.41028(11)
H15 H 0.3928 -0.1852 0.3839
C16 C 0.5213(2) 0.00425(19) 0.14218(10)
H16 H 0.5265 0.0920 0.1176
H17 H 0.4181 -0.0223 0.1479
H18 H 0.5729 -0.0624 0.1116
C17 C 0.8728(2) 0.05211(19) 0.43265(10)
H19 H 0.8644 -0.0128 0.4737
H20 H 0.9291 0.1302 0.4497
H21 H 0.9234 0.0103 0.3901
C18 C 0.2405(2) -0.0373(2) 0.36036(14)
H22 H 0.2028 0.0435 0.3850
H23 H 0.1595 -0.1003 0.3519
H24 H 0.2849 -0.0128 0.3122
C19 C 0.2892(3) -0.1474(3) 0.48496(13)
H25 H 0.3646 -0.1912 0.5156
H26 H 0.2086 -0.2105 0.4754
H27 H 0.2510 -0.0689 0.5116
O1 O 0.64925(14) -0.23041(13) 0.21130(7)
H28 H 0.7413 -0.2321 0.2153
O2 O 1.04037(15) 0.25106(14) 0.29040(7)
loop_
_geom_bond_atom_site_label_1
_geom_bond_atom_site_label_2
_geom_bond_site_symmetry_1
_geom_bond_site_symmetry_2
C1 H1 1_555 1_555
H2 C1 1_555 1_555
C2 C1 1_555 1_555
C3 C2 1_555 1_555
C4 C3 1_555 1_555
H3 C4 1_555 1_555
H4 C4 1_555 1_555
C5 C4 1_555 1_555
H5 C5 1_555 1_555
H6 C5 1_555 1_555
C6 C2 1_555 1_555
C7 C6 1_555 1_555
H7 C7 1_555 1_555
C8 C7 1_555 1_555
H8 C8 1_555 1_555
C9 C8 1_555 1_555
H9 C9 1_555 1_555
H10 C9 1_555 1_555
C10 C9 1_555 1_555
C11 C1 1_555 1_555
C12 C11 1_555 1_555
H11 C12 1_555 1_555
H12 C12 1_555 1_555
C13 C12 1_555 1_555
H13 C13 1_555 1_555
H14 C13 1_555 1_555
C14 C10 1_555 1_555
C15 C14 1_555 1_555
H15 C15 1_555 1_555
C16 C7 1_555 1_555
H16 C16 1_555 1_555
H17 C16 1_555 1_555
H18 C16 1_555 1_555
C17 C11 1_555 1_555
H19 C17 1_555 1_555
H20 C17 1_555 1_555
H21 C17 1_555 1_555
C18 C15 1_555 1_555
H22 C18 1_555 1_555
H23 C18 1_555 1_555
H24 C18 1_555 1_555
C19 C15 1_555 1_555
H25 C19 1_555 1_555
H26 C19 1_555 1_555
H27 C19 1_555 1_555
O1 C8 1_555 1_555
H28 O1 1_555 1_555
O2 C3 1_555 1_555
C5 C6 1_555 1_555
C10 C11 1_555 1_555
C13 C14 1_555 1_555

#END
