
#######################################################################
#
#                 Cambridge Crystallographic Data Centre
#                                CCDC 
#
#######################################################################
#
# If this CIF has been generated from an entry in the Cambridge 
# Structural Database, then it will include bibliographic, chemical, 
# crystal, experimental, refinement or atomic coordinate data resulting 
# from the CCDC's data processing and validation procedures.
#
#######################################################################

data_QIPVES01
_chemical_formula_moiety         'C17 H13 Br1 F2 O2'
_chemical_name_systematic        
'4-(4-bromophenyl)-2-fluorobut-3-en-1-yl 4-fluorobenzoate'
_symmetry_cell_setting           monoclinic
_symmetry_space_group_name_H-M   'P 21'
_symmetry_Int_Tables_number      4
_space_group_name_Hall           'P 2yb'
loop_
_symmetry_equiv_pos_site_id
_symmetry_equiv_pos_as_xyz
1 x,y,z
2 -x,1/2+y,-z
_cell_length_a                   18.1462(18)
_cell_length_b                   7.5224(7)
_cell_length_c                   22.412(2)
_cell_angle_alpha                90
_cell_angle_beta                 92.604(5)
_cell_angle_gamma                90
_cell_volume                     3056.15
_exptl_crystal_colour            colorless
_exptl_crystal_description       plate
_cell_formula_units_Z            8
loop_
_atom_site_label
_atom_site_type_symbol
_atom_site_fract_x
_atom_site_fract_y
_atom_site_fract_z
C1 C 0.9170(4) 0.2203(8) 0.5651(3)
C2 C 0.9709(4) 0.2747(10) 0.6080(3)
H1 H 0.9560 0.3257 0.6444
C3 C 1.0445(4) 0.2558(9) 0.5987(3)
H2 H 1.0802 0.2927 0.6284
C4 C 1.0666(4) 0.1825(10) 0.5456(3)
Br1 Br 1.16845(4) 0.16034(11) 0.53128(4)
C5 C 1.0152(4) 0.1277(9) 0.5025(3)
H3 H 1.0305 0.0775 0.4662
C6 C 0.9412(4) 0.1468(10) 0.5128(3)
H4 H 0.9057 0.1083 0.4830
C7 C 0.8381(4) 0.2437(9) 0.5728(3)
H5 H 0.8067 0.2218 0.5386
C8 C 0.8055(4) 0.2911(10) 0.6212(3)
H6 H 0.8359 0.3114 0.6561
C9 C 0.7246(4) 0.3159(11) 0.6258(3)
H7 H 0.7150 0.4378 0.6414
F1 F 0.6895(2) 0.2978(6) 0.57001(16)
C10 C 0.6925(4) 0.1809(10) 0.6668(3)
H8 H 0.7032 0.0590 0.6530
H9 H 0.7141 0.1953 0.7079
O1 O 0.6145(2) 0.2105(6) 0.6658(2)
C11 C 0.5760(4) 0.1026(10) 0.7015(3)
O2 O 0.6049(3) -0.0029(7) 0.7351(2)
C12 C 0.4955(4) 0.1294(9) 0.6933(3)
C13 C 0.4643(4) 0.2330(9) 0.6466(3)
H10 H 0.4954 0.2877 0.6190
C14 C 0.3893(4) 0.2561(10) 0.6404(3)
H11 H 0.3680 0.3266 0.6089
C15 C 0.3454(4) 0.1741(11) 0.6811(3)
F2 F 0.2714(2) 0.1961(6) 0.67539(19)
C16 C 0.3737(4) 0.0692(10) 0.7260(3)
H12 H 0.3421 0.0127 0.7529
C17 C 0.4491(4) 0.0464(10) 0.7318(3)
H13 H 0.4694 -0.0275 0.7628
C18 C 0.5820(3) 0.3023(9) 0.4270(3)
C19 C 0.5527(4) 0.3981(9) 0.4740(3)
H14 H 0.5853 0.4592 0.5012
C20 C 0.4782(4) 0.4064(9) 0.4817(3)
H15 H 0.4595 0.4750 0.5132
C21 C 0.4311(3) 0.3151(10) 0.4436(3)
Br2 Br 0.32850(4) 0.31379(10) 0.45729(3)
C22 C 0.4576(4) 0.2210(10) 0.3961(3)
H16 H 0.4245 0.1598 0.3692
C23 C 0.5318(4) 0.2168(9) 0.3881(3)
H17 H 0.5496 0.1536 0.3550
C24 C 0.6613(4) 0.2943(10) 0.4218(3)
H18 H 0.6900 0.3547 0.4520
C25 C 0.6985(4) 0.2144(9) 0.3808(3)
H19 H 0.6717 0.1545 0.3494
C26 C 0.7806(4) 0.2128(9) 0.3810(3)
H20 H 0.8002 0.2863 0.4153
F3 F 0.8064(2) 0.0400(6) 0.3886(3)
C27 C 0.8108(4) 0.2833(13) 0.3255(3)
H21 H 0.7939 0.2089 0.2911
H22 H 0.7928 0.4061 0.3183
O3 O 0.8903(2) 0.2825(7) 0.3311(2)
O4 O 0.8972(3) 0.0843(8) 0.2575(2)
C28 C 0.9274(4) 0.1811(10) 0.2938(3)
C29 C 1.0084(4) 0.1999(8) 0.3024(3)
C30 C 1.0416(4) 0.3037(10) 0.3474(3)
H23 H 1.0119 0.3657 0.3744
C31 C 1.1165(4) 0.3170(11) 0.3530(3)
H24 H 1.1395 0.3837 0.3846
C32 C 1.1579(4) 0.2323(9) 0.3120(3)
F4 F 1.2322(2) 0.2491(6) 0.31619(19)
C33 C 1.1280(4) 0.1264(10) 0.2682(3)
H25 H 1.1584 0.0647 0.2417
C34 C 1.0525(4) 0.1114(9) 0.2635(3)
H26 H 1.0303 0.0390 0.2329
C35 C 0.5738(4) -0.0432(9) 0.9370(3)
C36 C 0.5449(4) 0.0235(10) 0.9893(3)
H27 H 0.5777 0.0628 1.0208
C37 C 0.4704(4) 0.0337(10) 0.9963(3)
H28 H 0.4520 0.0788 1.0323
C38 C 0.4231(4) -0.0216(10) 0.9512(3)
Br3 Br 0.31954(4) -0.01025(13) 0.96148(4)
C39 C 0.4490(4) -0.0858(11) 0.8982(3)
H29 H 0.4155 -0.1237 0.8669
C40 C 0.5230(4) -0.0937(10) 0.8917(3)
H30 H 0.5407 -0.1352 0.8550
C41 C 0.6534(4) -0.0523(10) 0.9320(3)
H31 H 0.6826 -0.0208 0.9666
C42 C 0.6895(4) -0.0994(10) 0.8848(3)
H32 H 0.6617 -0.1303 0.8494
C43 C 0.7709(4) -0.1069(9) 0.8839(3)
H33 H 0.7923 -0.0623 0.9230
F5 F 0.7947(2) -0.2812(5) 0.8755(2)
C44 C 0.8008(4) 0.0037(11) 0.8343(3)
H34 H 0.7821 -0.0417 0.7950
H35 H 0.7850 0.1290 0.8382
O5 O 0.8801(2) -0.0079(7) 0.8390(2)
O6 O 0.8868(3) 0.1810(7) 0.7628(2)
C45 C 0.9174(4) 0.0868(10) 0.7998(3)
C46 C 0.9974(4) 0.0609(9) 0.8080(3)
C47 C 1.0296(4) -0.0419(10) 0.8538(3)
H36 H 0.9993 -0.0966 0.8820
C48 C 1.1045(4) -0.0649(9) 0.8585(3)
H37 H 1.1266 -0.1337 0.8900
C49 C 1.1467(4) 0.0127(11) 0.8171(3)
F6 F 1.2207(2) -0.0159(7) 0.81998(18)
C50 C 1.1182(5) 0.1182(11) 0.7722(3)
H38 H 1.1494 0.1739 0.7449
C51 C 1.0431(4) 0.1413(10) 0.7677(3)
H39 H 1.0220 0.2133 0.7365
Br4 Br 1.16530(4) -0.17149(10) 0.03675(3)
C52 C 0.9146(4) -0.1084(9) 0.0743(3)
F7 F 0.2740(2) -0.0713(6) 0.1941(2)
C53 C 0.9386(4) -0.2050(10) 0.0254(3)
H40 H 0.9028 -0.2559 -0.0018
F8 F 0.6901(2) -0.0015(8) 0.07591(17)
C54 C 1.0116(4) -0.2284(9) 0.0154(3)
H41 H 1.0261 -0.2980 -0.0174
C55 C 1.0633(3) -0.1513(9) 0.0528(3)
C56 C 1.0426(4) -0.0516(9) 0.1019(3)
H42 H 1.0789 0.0028 0.1278
C57 C 0.9695(4) -0.0336(9) 0.1119(3)
H43 H 0.9554 0.0323 0.1457
C58 C 0.8357(4) -0.0824(9) 0.0816(3)
H44 H 0.8035 -0.1240 0.0501
C59 C 0.8044(4) -0.0069(10) 0.1275(3)
H45 H 0.8355 0.0337 0.1599
C60 C 0.7237(4) 0.0179(11) 0.1313(3)
H46 H 0.7140 0.1407 0.1461
C61 C 0.6919(4) -0.1125(11) 0.1725(3)
H47 H 0.7091 -0.2333 0.1624
H48 H 0.7100 -0.0858 0.2139
O7 O 0.6124(3) -0.1092(7) 0.1694(2)
O8 O 0.6118(3) 0.1108(8) 0.2369(2)
C62 C 0.5785(4) 0.0085(11) 0.2049(3)
C63 C 0.4975(4) -0.0104(9) 0.1990(3)
C64 C 0.4637(4) -0.1256(10) 0.1588(3)
H49 H 0.4926 -0.1918 0.1323
C65 C 0.3874(4) -0.1460(11) 0.1565(4)
H50 H 0.3637 -0.2266 0.1292
C66 C 0.3475(4) -0.0466(10) 0.1947(3)
C67 C 0.3792(4) 0.0716(10) 0.2337(3)
H51 H 0.3499 0.1408 0.2591
C68 C 0.4550(4) 0.0888(10) 0.2355(3)
H52 H 0.4782 0.1708 0.2626
loop_
_geom_bond_atom_site_label_1
_geom_bond_atom_site_label_2
_geom_bond_site_symmetry_1
_geom_bond_site_symmetry_2
C1 C2 1_555 1_555
C2 H1 1_555 1_555
C3 C2 1_555 1_555
H2 C3 1_555 1_555
C4 C3 1_555 1_555
Br1 C4 1_555 1_555
C5 C4 1_555 1_555
H3 C5 1_555 1_555
C6 C1 1_555 1_555
H4 C6 1_555 1_555
C7 C1 1_555 1_555
H5 C7 1_555 1_555
C8 C7 1_555 1_555
H6 C8 1_555 1_555
C9 C8 1_555 1_555
H7 C9 1_555 1_555
F1 C9 1_555 1_555
C10 C9 1_555 1_555
H8 C10 1_555 1_555
H9 C10 1_555 1_555
O1 C10 1_555 1_555
C11 O1 1_555 1_555
O2 C11 1_555 1_555
C12 C11 1_555 1_555
C13 C12 1_555 1_555
H10 C13 1_555 1_555
C14 C13 1_555 1_555
H11 C14 1_555 1_555
C15 C14 1_555 1_555
F2 C15 1_555 1_555
C16 C15 1_555 1_555
H12 C16 1_555 1_555
C17 C12 1_555 1_555
H13 C17 1_555 1_555
C18 C19 1_555 1_555
C19 H14 1_555 1_555
C20 C19 1_555 1_555
H15 C20 1_555 1_555
C21 C20 1_555 1_555
Br2 C21 1_555 1_555
C22 C21 1_555 1_555
H16 C22 1_555 1_555
C23 C18 1_555 1_555
H17 C23 1_555 1_555
C24 C18 1_555 1_555
H18 C24 1_555 1_555
C25 C24 1_555 1_555
H19 C25 1_555 1_555
C26 C25 1_555 1_555
H20 C26 1_555 1_555
F3 C26 1_555 1_555
C27 C26 1_555 1_555
H21 C27 1_555 1_555
H22 C27 1_555 1_555
O3 C27 1_555 1_555
O4 C28 1_555 1_555
C28 O3 1_555 1_555
C29 C28 1_555 1_555
C30 C29 1_555 1_555
H23 C30 1_555 1_555
C31 C30 1_555 1_555
H24 C31 1_555 1_555
C32 C31 1_555 1_555
F4 C32 1_555 1_555
C33 C32 1_555 1_555
H25 C33 1_555 1_555
C34 C29 1_555 1_555
H26 C34 1_555 1_555
C35 C36 1_555 1_555
C36 H27 1_555 1_555
C37 C36 1_555 1_555
H28 C37 1_555 1_555
C38 C37 1_555 1_555
Br3 C38 1_555 1_555
C39 C38 1_555 1_555
H29 C39 1_555 1_555
C40 C35 1_555 1_555
H30 C40 1_555 1_555
C41 C35 1_555 1_555
H31 C41 1_555 1_555
C42 C41 1_555 1_555
H32 C42 1_555 1_555
C43 C42 1_555 1_555
H33 C43 1_555 1_555
F5 C43 1_555 1_555
C44 C43 1_555 1_555
H34 C44 1_555 1_555
H35 C44 1_555 1_555
O5 C44 1_555 1_555
O6 C45 1_555 1_555
C45 O5 1_555 1_555
C46 C45 1_555 1_555
C47 C46 1_555 1_555
H36 C47 1_555 1_555
C48 C47 1_555 1_555
H37 C48 1_555 1_555
C49 C48 1_555 1_555
F6 C49 1_555 1_555
C50 C49 1_555 1_555
H38 C50 1_555 1_555
C51 C46 1_555 1_555
H39 C51 1_555 1_555
Br4 C55 1_555 1_555
C52 C53 1_555 1_555
F7 C66 1_555 1_555
C53 H40 1_555 1_555
F8 C60 1_555 1_555
C54 C53 1_555 1_555
H41 C54 1_555 1_555
C55 C54 1_555 1_555
C56 C55 1_555 1_555
H42 C56 1_555 1_555
C57 C52 1_555 1_555
H43 C57 1_555 1_555
C58 C52 1_555 1_555
H44 C58 1_555 1_555
C59 C58 1_555 1_555
H45 C59 1_555 1_555
C60 C59 1_555 1_555
H46 C60 1_555 1_555
C61 C60 1_555 1_555
H47 C61 1_555 1_555
H48 C61 1_555 1_555
O7 C61 1_555 1_555
O8 C62 1_555 1_555
C62 O7 1_555 1_555
C63 C62 1_555 1_555
C64 C63 1_555 1_555
H49 C64 1_555 1_555
C65 C64 1_555 1_555
H50 C65 1_555 1_555
C66 C65 1_555 1_555
C67 C66 1_555 1_555
H51 C67 1_555 1_555
C68 C63 1_555 1_555
H52 C68 1_555 1_555
C5 C6 1_555 1_555
C16 C17 1_555 1_555
C22 C23 1_555 1_555
C33 C34 1_555 1_555
C39 C40 1_555 1_555
C50 C51 1_555 1_555
C56 C57 1_555 1_555
C67 C68 1_555 1_555

#END
