
#######################################################################
#
#                 Cambridge Crystallographic Data Centre
#                                CCDC 
#
#######################################################################
#
# If this CIF has been generated from an entry in the Cambridge 
# Structural Database, then it will include bibliographic, chemical, 
# crystal, experimental, refinement or atomic coordinate data resulting 
# from the CCDC's data processing and validation procedures.
#
#######################################################################

data_QIPVES
_chemical_formula_moiety         'C17 H13 Br1 F2 O2'
_chemical_name_systematic        
'4-(4-Bromophenyl)-2-fluorobut-3-en-1-yl 4-fluorobenzoate'
_symmetry_cell_setting           monoclinic
_symmetry_space_group_name_H-M   'P 21'
_symmetry_Int_Tables_number      4
_space_group_name_Hall           'P 2yb'
loop_
_symmetry_equiv_pos_site_id
_symmetry_equiv_pos_as_xyz
1 x,y,z
2 -x,1/2+y,-z
_cell_length_a                   18.0913(18)
_cell_length_b                   7.5678(8)
_cell_length_c                   22.361(2)
_cell_angle_alpha                90
_cell_angle_beta                 93.183(5)
_cell_angle_gamma                90
_cell_volume                     3056.75
_exptl_crystal_colour            colorless
_exptl_crystal_description       plate
_cell_formula_units_Z            8
loop_
_atom_site_label
_atom_site_type_symbol
_atom_site_fract_x
_atom_site_fract_y
_atom_site_fract_z
C1 C 0.08138(17) 0.2884(5) 0.07254(14)
C2 C 0.0537(2) 0.1902(5) 0.02547(15)
H1 H 0.0851 0.1301 -0.0004
F1 F 0.30627(14) 0.5508(4) 0.10902(15)
C3 C -0.02156(19) 0.1825(5) 0.01741(15)
H2 H -0.0427 0.1144 -0.0149
C4 C -0.06969(17) 0.2729(5) 0.05562(14)
Br1 Br -0.17199(2) 0.27287(6) 0.041687(17)
C5 C -0.04408(18) 0.3700(5) 0.10332(14)
H3 H -0.0758 0.4306 0.1288
C6 C 0.03106(19) 0.3733(5) 0.11151(14)
H4 H 0.0519 0.4359 0.1452
C7 C 0.16154(18) 0.2972(5) 0.07763(14)
H5 H 0.1884 0.2388 0.0481
C8 C 0.19787(19) 0.3785(5) 0.11922(15)
H6 H 0.1732 0.4367 0.1500
C9 C 0.28078(19) 0.3807(5) 0.11871(16)
H7 H 0.2970 0.3012 0.0862
C10 C 0.30979(19) 0.3163(8) 0.17542(16)
H8 H 0.2911 0.1959 0.1832
H9 H 0.2961 0.3954 0.2083
O1 O 0.38966(13) 0.3148(4) 0.16994(11)
O2 O 0.39580(15) 0.5197(5) 0.24151(13)
C11 C 0.42589(19) 0.4203(6) 0.20625(15)
C12 C 0.50730(17) 0.3999(5) 0.19767(13)
C13 C 0.54060(19) 0.2928(6) 0.15373(15)
H10 H 0.5088 0.2294 0.1261
C14 C 0.6158(2) 0.2760(6) 0.14896(17)
H11 H 0.6363 0.2055 0.1188
C15 C 0.65773(18) 0.3642(5) 0.18901(16)
F2 F 0.73224(11) 0.3432(4) 0.18527(10)
C16 C 0.62730(19) 0.4715(5) 0.23222(15)
H12 H 0.6596 0.5336 0.2598
C17 C 0.5510(2) 0.4905(5) 0.23617(15)
H13 H 0.5311 0.5654 0.2653
C18 C 0.92516(19) 0.1319(5) 0.43723(14)
C19 C 0.9529(2) 0.0641(6) 0.48965(15)
H14 H 0.9217 0.0248 0.5197
C20 C 1.0276(2) 0.0550(5) 0.49710(17)
H15 H 1.0488 0.0102 0.5339
C21 C 1.07630(18) 0.1100(6) 0.45210(16)
Br2 Br 1.17955(2) 0.09993(8) 0.46298(2)
C22 C 1.0511(2) 0.1763(6) 0.39885(16)
H16 H 1.0828 0.2131 0.3687
C23 C 0.9767(2) 0.1856(6) 0.39253(15)
H17 H 0.9559 0.2310 0.3557
C24 C 0.84479(19) 0.1433(5) 0.43222(15)
H18 H 0.8179 0.1118 0.4659
C25 C 0.8092(2) 0.1933(5) 0.38509(17)
H19 H 0.8345 0.2250 0.3506
C26 C 0.7276(2) 0.2018(6) 0.38443(18)
H20 H 0.7102 0.1541 0.4229
F3 F 0.70468(15) 0.3760(3) 0.37710(15)
C27 C 0.69878(19) 0.0918(6) 0.33416(15)
H21 H 0.7142 0.1378 0.2953
H22 H 0.7152 -0.0325 0.3389
O3 O 0.61920(12) 0.1083(4) 0.33916(10)
O4 O 0.61300(14) -0.0838(4) 0.26331(11)
C28 C 0.5825(2) 0.0116(5) 0.29982(15)
C29 C 0.50153(19) 0.0380(5) 0.30775(14)
C30 C 0.4692(2) 0.1421(5) 0.35332(15)
H23 H 0.5017 0.1991 0.3820
C31 C 0.3935(2) 0.1651(5) 0.35820(16)
H24 H 0.3738 0.2329 0.3893
C32 C 0.35107(19) 0.0862(6) 0.31653(16)
F4 F 0.27745(11) 0.1134(4) 0.32050(10)
C33 C 0.3805(2) -0.0192(6) 0.27213(16)
H25 H 0.3474 -0.0767 0.2440
C34 C 0.4555(2) -0.0426(6) 0.26762(14)
H26 H 0.4740 -0.1141 0.2369
C36 C 0.41532(18) 0.7114(5) 0.42656(14)
C37 C 0.43871(19) 0.8077(5) 0.47487(15)
H28 H 0.4047 0.8587 0.5008
C38 C 0.5128(2) 0.8286(5) 0.48482(15)
H29 H 0.5309 0.8975 0.5180
C39 C 0.56466(17) 0.7491(5) 0.44653(14)
Br3 Br 0.66672(2) 0.76637(6) 0.462840(16)
C40 C 0.54379(18) 0.6509(5) 0.39807(14)
H30 H 0.5782 0.5987 0.3728
C41 C 0.46976(18) 0.6333(5) 0.38867(14)
H31 H 0.4519 0.5656 0.3551
C42 C 0.33581(18) 0.6876(6) 0.41887(15)
H32 H 0.3057 0.7316 0.4490
C43 C 0.30465(19) 0.6113(6) 0.37397(16)
H33 H 0.3343 0.5747 0.3425
C44 C 0.2236(2) 0.5761(7) 0.3682(2)
H34 H 0.2143 0.4537 0.3527
F6 F 0.19005(14) 0.5988(6) 0.42410(11)
C45 C 0.19275(19) 0.7050(6) 0.32580(17)
H35 H 0.2062 0.6749 0.2847
H36 H 0.2121 0.8243 0.3358
O5 O 0.11247(13) 0.7008(4) 0.32965(11)
O6 O 0.11051(15) 0.4812(5) 0.26235(12)
C46 C 0.07803(18) 0.5830(6) 0.29466(14)
C47 C -0.00292(17) 0.6046(5) 0.30137(13)
C48 C -0.0371(2) 0.7194(6) 0.34138(17)
H37 H -0.0058 0.7876 0.3680
C49 C -0.1132(2) 0.7398(6) 0.34461(18)
H38 H -0.1345 0.8175 0.3723
C50 C -0.15364(18) 0.6426(5) 0.30623(17)
F7 F -0.22766(11) 0.6671(4) 0.30764(11)
C51 C -0.1225(2) 0.5227(5) 0.26709(16)
H39 H -0.1544 0.4517 0.2418
C52 C -0.0468(2) 0.5048(5) 0.26419(14)
H40 H -0.0263 0.4247 0.2369
C54 C 0.58251(18) 0.8780(5) 0.06415(14)
C55 C 0.55885(19) 0.9511(5) 0.01134(15)
H42 H 0.5925 0.9873 -0.0174
C56 C 0.4843(2) 0.9700(5) 0.00160(17)
H43 H 0.4656 1.0214 -0.0349
C57 C 0.43271(18) 0.9145(5) 0.04507(15)
Br4 Br 0.33070(2) 0.93456(6) 0.030862(18)
C58 C 0.45425(19) 0.8414(5) 0.09811(15)
H44 H 0.4204 0.8053 0.1267
C59 C 0.5287(2) 0.8239(5) 0.10697(14)
H45 H 0.5471 0.7729 0.1436
C60 C 0.66222(19) 0.8555(5) 0.07173(15)
H46 H 0.6915 0.8785 0.0386
C61 C 0.6941(2) 0.8064(5) 0.12074(16)
H47 H 0.6653 0.7878 0.1544
C62 C 0.7756(2) 0.7771(7) 0.1270(2)
H48 H 0.7864 0.6577 0.1446
F9 F 0.81091(13) 0.7950(5) 0.07072(11)
C63 C 0.80655(19) 0.9139(5) 0.16689(15)
H49 H 0.7927 1.0332 0.1519
H50 H 0.7894 0.8997 0.2079
O7 O 0.88548(13) 0.8857(4) 0.16581(10)
O8 O 0.89397(13) 1.0964(4) 0.23545(11)
C64 C 0.9238(2) 0.9922(5) 0.20159(15)
C65 C 1.00419(18) 0.9621(5) 0.19269(14)
C66 C 1.0362(2) 0.8602(5) 0.14704(16)
H51 H 1.0033 0.8040 0.1184
C67 C 1.1116(2) 0.8364(5) 0.14096(16)
H52 H 1.1307 0.7651 0.1104
C68 C 1.15437(19) 0.9207(6) 0.18090(16)
F10 F 1.22914(11) 0.8974(4) 0.17616(10)
C69 C 1.1253(2) 1.0263(6) 0.22585(17)
H53 H 1.1588 1.0855 0.2533
C70 C 1.0501(2) 1.0475(6) 0.23185(15)
H54 H 1.0318 1.1198 0.2625
C35? C 0.7306(12) 0.237(5) 0.371(3)
H27? H 0.7225 0.3570 0.3530
F5? F 0.701(4) 0.216(11) 0.427(3)
C53? C 0.2230(5) 0.630(2) 0.3818(6)
H41? H 0.2147 0.7142 0.4153
F8? F 0.1921(6) 0.4616(17) 0.3948(5)
C71? C 0.7755(5) 0.822(2) 0.1143(7)
H55? H 0.7878 0.8801 0.0760
F11? F 0.8037(6) 0.6430(18) 0.1192(5)
loop_
_geom_bond_atom_site_label_1
_geom_bond_atom_site_label_2
_geom_bond_site_symmetry_1
_geom_bond_site_symmetry_2
C1 C2 1_555 1_555
C2 H1 1_555 1_555
F1 C9 1_555 1_555
C3 C2 1_555 1_555
H2 C3 1_555 1_555
C4 C3 1_555 1_555
Br1 C4 1_555 1_555
C5 C4 1_555 1_555
H3 C5 1_555 1_555
C6 C1 1_555 1_555
H4 C6 1_555 1_555
C7 C1 1_555 1_555
H5 C7 1_555 1_555
C8 C7 1_555 1_555
H6 C8 1_555 1_555
C9 C8 1_555 1_555
H7 C9 1_555 1_555
C10 C9 1_555 1_555
H8 C10 1_555 1_555
H9 C10 1_555 1_555
O1 C10 1_555 1_555
O2 C11 1_555 1_555
C11 O1 1_555 1_555
C12 C11 1_555 1_555
C13 C12 1_555 1_555
H10 C13 1_555 1_555
C14 C13 1_555 1_555
H11 C14 1_555 1_555
C15 C14 1_555 1_555
F2 C15 1_555 1_555
C16 C15 1_555 1_555
H12 C16 1_555 1_555
C17 C12 1_555 1_555
H13 C17 1_555 1_555
C18 C19 1_555 1_555
C19 H14 1_555 1_555
C20 C19 1_555 1_555
H15 C20 1_555 1_555
C21 C20 1_555 1_555
Br2 C21 1_555 1_555
C22 C21 1_555 1_555
H16 C22 1_555 1_555
C23 C18 1_555 1_555
H17 C23 1_555 1_555
C24 C18 1_555 1_555
H18 C24 1_555 1_555
C25 C24 1_555 1_555
H19 C25 1_555 1_555
C26 C25 1_555 1_555
H20 C26 1_555 1_555
F3 C26 1_555 1_555
C27 C26 1_555 1_555
H21 C27 1_555 1_555
H22 C27 1_555 1_555
O3 C27 1_555 1_555
O4 C28 1_555 1_555
C28 O3 1_555 1_555
C29 C28 1_555 1_555
C30 C29 1_555 1_555
H23 C30 1_555 1_555
C31 C30 1_555 1_555
H24 C31 1_555 1_555
C32 C31 1_555 1_555
F4 C32 1_555 1_555
C33 C32 1_555 1_555
H25 C33 1_555 1_555
C34 C29 1_555 1_555
H26 C34 1_555 1_555
C36 C37 1_555 1_555
C37 H28 1_555 1_555
C38 C37 1_555 1_555
H29 C38 1_555 1_555
C39 C38 1_555 1_555
Br3 C39 1_555 1_555
C40 C39 1_555 1_555
H30 C40 1_555 1_555
C41 C36 1_555 1_555
H31 C41 1_555 1_555
C42 C36 1_555 1_555
H32 C42 1_555 1_555
C43 C42 1_555 1_555
H33 C43 1_555 1_555
C44 C43 1_555 1_555
H34 C44 1_555 1_555
F6 C44 1_555 1_555
C45 C44 1_555 1_555
H35 C45 1_555 1_555
H36 C45 1_555 1_555
O5 C45 1_555 1_555
O6 C46 1_555 1_555
C46 O5 1_555 1_555
C47 C46 1_555 1_555
C48 C47 1_555 1_555
H37 C48 1_555 1_555
C49 C48 1_555 1_555
H38 C49 1_555 1_555
C50 C49 1_555 1_555
F7 C50 1_555 1_555
C51 C50 1_555 1_555
H39 C51 1_555 1_555
C52 C47 1_555 1_555
H40 C52 1_555 1_555
C54 C55 1_555 1_555
C55 H42 1_555 1_555
C56 C55 1_555 1_555
H43 C56 1_555 1_555
C57 C56 1_555 1_555
Br4 C57 1_555 1_555
C58 C57 1_555 1_555
H44 C58 1_555 1_555
C59 C54 1_555 1_555
H45 C59 1_555 1_555
C60 C54 1_555 1_555
H46 C60 1_555 1_555
C61 C60 1_555 1_555
H47 C61 1_555 1_555
C62 C61 1_555 1_555
H48 C62 1_555 1_555
F9 C62 1_555 1_555
C63 C62 1_555 1_555
H49 C63 1_555 1_555
H50 C63 1_555 1_555
O7 C63 1_555 1_555
O8 C64 1_555 1_555
C64 O7 1_555 1_555
C65 C64 1_555 1_555
C66 C65 1_555 1_555
H51 C66 1_555 1_555
C67 C66 1_555 1_555
H52 C67 1_555 1_555
C68 C67 1_555 1_555
F10 C68 1_555 1_555
C69 C68 1_555 1_555
H53 C69 1_555 1_555
C70 C65 1_555 1_555
H54 C70 1_555 1_555
C5 C6 1_555 1_555
C16 C17 1_555 1_555
C22 C23 1_555 1_555
C33 C34 1_555 1_555
C40 C41 1_555 1_555
C51 C52 1_555 1_555
C58 C59 1_555 1_555
C69 C70 1_555 1_555

#END
