
#######################################################################
#
#                 Cambridge Crystallographic Data Centre
#                                CCDC 
#
#######################################################################
#
# If this CIF has been generated from an entry in the Cambridge 
# Structural Database, then it will include bibliographic, chemical, 
# crystal, experimental, refinement or atomic coordinate data resulting 
# from the CCDC's data processing and validation procedures.
#
#######################################################################

data_QIPZUK
_chemical_formula_moiety         'C38 H26 O5 S4 2+,2(I3 1-),2.25(C1 H2 Cl2)'
_chemical_name_systematic        
"1,3(1,4)-Dibenzena-4,10-dioxo-2,5,9-trioxa-7(5,5')(9,10-bis(4-methyl-1,3-dithiol-2-ylidene)-9,10-dihydroanthracena)cyclodecaphane bis(tri-iodide) dichloromethane clathrate dichloromethane solvate"
_symmetry_cell_setting           monoclinic
_symmetry_space_group_name_H-M   'P 21/c'
_symmetry_Int_Tables_number      14
_space_group_name_Hall           '-P 2ybc'
loop_
_symmetry_equiv_pos_site_id
_symmetry_equiv_pos_as_xyz
1 x,y,z
2 x,1/2-y,1/2+z
3 -x,-y,-z
4 -x,1/2+y,1/2-z
_cell_length_a                   15.486(5)
_cell_length_b                   23.259(7)
_cell_length_c                   15.957(5)
_cell_angle_alpha                90
_cell_angle_beta                 117.35(1)
_cell_angle_gamma                90
_cell_volume                     5105.06
_exptl_crystal_colour            scarlet
_exptl_crystal_description       plate
_cell_formula_units_Z            4
loop_
_atom_site_label
_atom_site_type_symbol
_atom_site_fract_x
_atom_site_fract_y
_atom_site_fract_z
I1 I 0.71422(4) 0.42627(2) 0.78176(4)
I2 I 0.61138(4) 0.31684(2) 0.76629(4)
I3 I 0.50257(5) 0.21373(2) 0.76148(5)
I4 I -0.09285(4) 0.49726(3) 0.09914(4)
I5 I -0.03301(4) 0.39605(3) 0.22152(4)
I6 I 0.03335(5) 0.28871(3) 0.32729(5)
S1 S 0.64169(15) 0.34774(8) 0.52824(16)
S2 S 0.69620(15) 0.46418(9) 0.53290(16)
S3 S 0.20694(14) 0.31488(9) 0.20347(15)
S4 S 0.13123(15) 0.42050(9) 0.10904(15)
O1 O 0.7673(4) 0.2640(2) 0.6406(5)
O2 O 0.8438(4) 0.2222(3) 0.5647(5)
O3 O 0.1347(4) 0.2121(3) 0.1230(5)
O4 O 0.0408(4) 0.1468(3) 0.1460(5)
O5 O 0.4688(4) 0.0637(2) 0.4356(4)
C1 C 0.4469(6) 0.4127(3) 0.5388(6)
H1 H 0.5104 0.4184 0.5891
C2 C 0.3733(6) 0.4026(3) 0.5589(7)
H2 H 0.3860 0.4002 0.6230
C3 C 0.2772(6) 0.3948(3) 0.4872(6)
H3 H 0.2265 0.3879 0.5037
C4 C 0.2582(6) 0.3976(3) 0.3972(6)
H4 H 0.1933 0.3915 0.3500
C5 C 0.3684(6) 0.4342(3) 0.1529(6)
H5 H 0.3041 0.4289 0.1038
C6 C 0.4408(6) 0.4491(3) 0.1311(7)
H6 H 0.4265 0.4550 0.0671
C7 C 0.5377(6) 0.4560(3) 0.2037(7)
H7 H 0.5885 0.4647 0.1879
C8 C 0.5568(6) 0.4491(4) 0.2950(7)
H8 H 0.6218 0.4544 0.3426
C9 C 0.5047(6) 0.4249(3) 0.4167(6)
C10 C 0.3141(6) 0.4098(3) 0.2740(6)
C11 C 0.3878(6) 0.4274(3) 0.2478(6)
C12 C 0.4842(5) 0.4353(3) 0.3216(6)
C13 C 0.4310(6) 0.4160(3) 0.4423(6)
C14 C 0.3321(6) 0.4090(3) 0.3684(6)
C15 C 0.6068(5) 0.4151(3) 0.4883(6)
C16 C 0.7615(5) 0.3634(3) 0.5996(6)
C17 C 0.7893(6) 0.4180(3) 0.6044(7)
C18 C 0.8269(6) 0.3135(3) 0.6587(7)
H9 H 0.8786 0.3062 0.6400
H10 H 0.8580 0.3232 0.7266
C19 C 0.8874(6) 0.4436(4) 0.6631(8)
H11 H 0.8849 0.4852 0.6521
H12 H 0.9347 0.4261 0.6460
H13 H 0.9069 0.4363 0.7299
C20 C 0.2222(6) 0.3861(3) 0.2004(6)
C21 C 0.0988(6) 0.3098(4) 0.1017(6)
C22 C 0.0610(6) 0.3601(4) 0.0563(6)
C23 C 0.0565(6) 0.2519(3) 0.0775(7)
H17 H 0.0085 0.2467 0.1017
H18 H 0.0234 0.2461 0.0083
C24 C -0.0321(6) 0.3674(4) -0.0332(7)
H19 H -0.0424 0.4083 -0.0498
H20 H -0.0866 0.3527 -0.0241
H21 H -0.0281 0.3459 -0.0841
C25 C 0.7790(6) 0.2209(3) 0.5867(7)
C26 C 0.7029(6) 0.1770(3) 0.5593(6)
C27 C 0.6182(6) 0.1846(4) 0.5722(6)
H25 H 0.6137 0.2166 0.6070
C28 C 0.5424(6) 0.1470(3) 0.5331(6)
H26 H 0.4860 0.1523 0.5414
C29 C 0.5483(6) 0.0999(3) 0.4803(6)
C30 C 0.6328(6) 0.0897(3) 0.4726(6)
H27 H 0.6387 0.0564 0.4411
C31 C 0.7089(6) 0.1286(4) 0.5122(6)
H28 H 0.7671 0.1217 0.5076
C32 C 0.3843(6) 0.0888(3) 0.3633(6)
C33 C 0.3890(6) 0.1368(3) 0.3151(6)
H29 H 0.4499 0.1539 0.3289
C34 C 0.3045(6) 0.1590(3) 0.2466(6)
H30 H 0.3076 0.1916 0.2123
C35 C 0.2134(6) 0.1350(4) 0.2252(6)
C36 C 0.2127(7) 0.0849(4) 0.2706(7)
H31 H 0.1525 0.0663 0.2546
C37 C 0.2976(6) 0.0610(3) 0.3400(6)
H32 H 0.2958 0.0263 0.3705
C38 C 0.1199(6) 0.1630(3) 0.1609(6)
Cl1 Cl 0.3756(2) 0.26277(11) 0.4432(2)
Cl2 Cl 0.2514(2) 0.17801(12) 0.4718(2)
C39 C 0.3014(8) 0.2468(4) 0.5002(8)
H33 H 0.3412 0.2503 0.5693
H34 H 0.2482 0.2754 0.4798
H14? H 0.9328 0.4132 0.6999
H15? H 0.8830 0.4723 0.7060
H16? H 0.9107 0.4621 0.6221
H22? H -0.0623 0.3297 -0.0556
H23? H -0.0181 0.3852 -0.0813
H24? H -0.0766 0.3920 -0.0213
Cl3? Cl 0.1915(4) 0.6906(3) 0.5851(4)
Cl4? Cl 0.1945(5) 0.5727(3) 0.6468(7)
C40? C 0.2270(13) 0.6455(8) 0.6849(15)
Cl5? Cl 0.2285(11) 0.6494(6) 0.6289(12)
Cl6? Cl 0.1468(9) 0.5307(6) 0.5936(10)
C41? C 0.115(3) 0.604(2) 0.573(4)
Cl7? Cl 0.164(4) 0.652(2) 0.581(5)
Cl8? Cl 0.229(3) 0.5777(17) 0.710(3)
Cl9? Cl 0.0778(7) 0.4613(3) 0.5128(6)
C42? C 0.003(4) 0.486(2) 0.556(4)
loop_
_geom_bond_atom_site_label_1
_geom_bond_atom_site_label_2
_geom_bond_site_symmetry_1
_geom_bond_site_symmetry_2
I1 I2 1_555 1_555
I2 I3 1_555 1_555
I4 I5 1_555 1_555
I5 I6 1_555 1_555
S1 C15 1_555 1_555
S2 C15 1_555 1_555
S3 C20 1_555 1_555
S4 C20 1_555 1_555
O1 C18 1_555 1_555
O2 C25 1_555 1_555
O3 C23 1_555 1_555
O4 C38 1_555 1_555
O5 C29 1_555 1_555
C1 H1 1_555 1_555
C2 C1 1_555 1_555
H2 C2 1_555 1_555
C3 C2 1_555 1_555
H3 C3 1_555 1_555
C4 C3 1_555 1_555
H4 C4 1_555 1_555
C5 H5 1_555 1_555
C6 C5 1_555 1_555
H6 C6 1_555 1_555
C7 C6 1_555 1_555
H7 C7 1_555 1_555
C8 C7 1_555 1_555
H8 C8 1_555 1_555
C9 C12 1_555 1_555
C10 C11 1_555 1_555
C11 C5 1_555 1_555
C12 C8 1_555 1_555
C13 C1 1_555 1_555
C14 C4 1_555 1_555
C15 C9 1_555 1_555
C16 S1 1_555 1_555
C17 S2 1_555 1_555
C18 C16 1_555 1_555
H9 C18 1_555 1_555
H10 C18 1_555 1_555
C19 C17 1_555 1_555
H11 C19 1_555 1_555
H12 C19 1_555 1_555
H13 C19 1_555 1_555
C20 C10 1_555 1_555
C21 S3 1_555 1_555
C22 S4 1_555 1_555
C23 C21 1_555 1_555
H17 C23 1_555 1_555
H18 C23 1_555 1_555
C24 C22 1_555 1_555
H19 C24 1_555 1_555
H20 C24 1_555 1_555
H21 C24 1_555 1_555
C25 O1 1_555 1_555
C26 C25 1_555 1_555
C27 C26 1_555 1_555
H25 C27 1_555 1_555
C28 C27 1_555 1_555
H26 C28 1_555 1_555
C29 C28 1_555 1_555
C30 C29 1_555 1_555
H27 C30 1_555 1_555
C31 C26 1_555 1_555
H28 C31 1_555 1_555
C32 O5 1_555 1_555
C33 C32 1_555 1_555
H29 C33 1_555 1_555
C34 C33 1_555 1_555
H30 C34 1_555 1_555
C35 C34 1_555 1_555
C36 C35 1_555 1_555
H31 C36 1_555 1_555
C37 C32 1_555 1_555
H32 C37 1_555 1_555
C38 O3 1_555 1_555
Cl1 C39 1_555 1_555
Cl2 C39 1_555 1_555
C39 H33 1_555 1_555
H34 C39 1_555 1_555
C9 C13 1_555 1_555
C10 C14 1_555 1_555
C11 C12 1_555 1_555
C13 C14 1_555 1_555
C16 C17 1_555 1_555
C21 C22 1_555 1_555
C30 C31 1_555 1_555
C35 C38 1_555 1_555
C36 C37 1_555 1_555

#END
