
#######################################################################
#
#                 Cambridge Crystallographic Data Centre
#                                CCDC 
#
#######################################################################
#
# If this CIF has been generated from an entry in the Cambridge 
# Structural Database, then it will include bibliographic, chemical, 
# crystal, experimental, refinement or atomic coordinate data resulting 
# from the CCDC's data processing and validation procedures.
#
#######################################################################

data_QIPZOE
_chemical_formula_moiety         'C38 H26 O5 S4,3(C1 H2 Cl2)'
_chemical_name_systematic        
"1,3(1,4)-Dibenzena-4,10-dioxa-2,5,9-trioxo-7(5,5')(9,10-bis(4-methyl-1,3-dithiol-2-ylidene)-9,10-dihydroanthracena)cyclodecaphane bis(dichloromethane) clathrate dichloromethane solvate"
_symmetry_cell_setting           triclinic
_symmetry_space_group_name_H-M   'P -1'
_symmetry_Int_Tables_number      2
_space_group_name_Hall           '-P 1'
loop_
_symmetry_equiv_pos_site_id
_symmetry_equiv_pos_as_xyz
1 x,y,z
2 -x,-y,-z
_cell_length_a                   11.535(3)
_cell_length_b                   13.215(3)
_cell_length_c                   14.744(3)
_cell_angle_alpha                72.46(1)
_cell_angle_beta                 79.85(1)
_cell_angle_gamma                89.50(1)
_cell_volume                     2107.11
_exptl_crystal_colour            amber
_exptl_crystal_description       block
_chemical_melting_point          467-469K
_cell_formula_units_Z            2
loop_
_atom_site_label
_atom_site_type_symbol
_atom_site_fract_x
_atom_site_fract_y
_atom_site_fract_z
S1 S 0.43035(5) 0.45506(5) 0.30930(4)
S2 S 0.32075(4) 0.37678(4) 0.51410(4)
S3 S 0.06382(5) 0.15722(4) 0.20094(4)
S4 S -0.07004(5) 0.08325(4) 0.39866(4)
O1 O 0.67760(14) 0.31613(13) 0.32752(11)
O2 O 0.79487(15) 0.40558(13) 0.18666(12)
O3 O 0.15066(14) -0.03278(13) 0.13518(15)
O4 O 0.15914(15) -0.21101(13) 0.17911(14)
O5 O 0.69398(14) -0.04501(14) 0.13119(14)
C1 C 0.2314(2) 0.53132(17) 0.19496(16)
H1 H 0.2824 0.5754 0.2125
C2 C 0.2155(2) 0.55670(18) 0.09932(16)
H2 H 0.2563 0.6171 0.0519
C3 C 0.1399(2) 0.49295(17) 0.07335(15)
H3 H 0.1292 0.5095 0.0081
C4 C 0.07929(18) 0.40481(16) 0.14358(14)
H4 H 0.0264 0.3626 0.1258
C5 C -0.10899(18) 0.27101(17) 0.47776(15)
H5 H -0.1663 0.2330 0.4601
C6 C -0.13163(18) 0.28852(18) 0.56822(16)
H6 H -0.2025 0.2602 0.6123
C7 C -0.05043(19) 0.34719(17) 0.59368(15)
H7 H -0.0657 0.3590 0.6550
C8 C 0.05369(18) 0.38848(16) 0.52874(15)
H8 H 0.1078 0.4302 0.5459
C9 C 0.18918(17) 0.41149(15) 0.36821(14)
C10 C 0.02879(17) 0.28819(15) 0.31830(14)
C11 C 0.17406(18) 0.44144(15) 0.26578(14)
C12 C 0.09549(17) 0.37744(15) 0.24009(14)
C13 C -0.00263(17) 0.30883(15) 0.41298(14)
C14 C 0.07992(17) 0.36945(15) 0.43914(14)
C15 C 0.29669(17) 0.41650(15) 0.39353(14)
C16 C 0.52486(18) 0.40990(17) 0.39361(16)
C17 C 0.47478(18) 0.37316(17) 0.48719(16)
C18 C 0.65381(19) 0.41367(19) 0.35267(18)
H9 H 0.6990 0.4208 0.3944
H10 H 0.6734 0.4756 0.2944
C19 C 0.5344(2) 0.3289(2) 0.57284(18)
H11 H 0.6196 0.3447 0.5531
H12 H 0.5189 0.2518 0.5981
H13 H 0.5034 0.3613 0.6234
C20 C 0.00655(17) 0.19196(15) 0.30649(14)
C21 C 0.00471(18) 0.02491(16) 0.24294(17)
C22 C -0.05556(19) -0.00900(16) 0.33352(17)
C23 C 0.0245(2) -0.0364(2) 0.1711(2)
H14 H -0.0054 -0.1110 0.2026
H15 H -0.0179 -0.0044 0.1172
C24 C -0.1190(2) -0.11498(18) 0.3864(2)
H16 H -0.0922 -0.1449 0.4482
H17 H -0.1014 -0.1632 0.3471
H18 H -0.2042 -0.1061 0.3986
C25 C 0.74359(17) 0.32450(17) 0.24030(15)
C26 C 0.74093(17) 0.22166(17) 0.21805(15)
C27 C 0.79739(18) 0.21819(18) 0.12708(15)
H19 H 0.8453 0.2776 0.0847
C28 C 0.78442(18) 0.12840(19) 0.09839(16)
H20 H 0.8226 0.1268 0.0363
C29 C 0.71509(18) 0.04227(18) 0.16176(17)
C30 C 0.66371(19) 0.04191(18) 0.25488(17)
H21 H 0.6207 -0.0196 0.2987
C31 C 0.67597(19) 0.13178(17) 0.28319(15)
H22 H 0.6408 0.1323 0.3463
C32 C 0.57505(19) -0.06234(18) 0.13104(17)
C33 C 0.5333(2) -0.16612(19) 0.14985(19)
H23 H 0.5855 -0.2228 0.1590
C34 C 0.4136(2) -0.18532(18) 0.15364(18)
H24 H 0.3838 -0.2561 0.1669
C35 C 0.33693(18) -0.10166(16) 0.13857(15)
C36 C 0.38293(19) 0.00269(17) 0.11475(17)
H25 H 0.3324 0.0603 0.1007
C37 C 0.5015(2) 0.02249(18) 0.11064(18)
H26 H 0.5327 0.0933 0.0940
C38 C 0.20782(18) -0.12413(16) 0.15354(15)
Cl1 Cl 0.18265(6) 0.31663(5) 0.75210(4)
Cl2 Cl 0.07801(8) 0.26502(7) 0.95640(5)
C39 C 0.0794(2) 0.3520(2) 0.83987(17)
H27 H 0.0992 0.4252 0.8386
H28 H -0.0002 0.3510 0.8236
Cl3 Cl 0.41581(11) 0.40879(8) -0.06798(7)
Cl4 Cl 0.51186(12) 0.29856(13) 0.10538(15)
C40 C 0.3874(4) 0.3530(4) 0.0617(4)
H29 H 0.3603 0.4091 0.0912
H30 H 0.3234 0.2971 0.0811
Cl6 Cl 0.36547(12) -0.05741(10) 0.41941(13)
Cl7 Cl 0.32269(16) 0.16919(11) 0.36054(16)
C42 C 0.2872(4) 0.0477(4) 0.3564(3)
H31 H 0.3002 0.0495 0.2877
H32 H 0.2020 0.0321 0.3826
Cl5? Cl 0.4533(8) 0.2981(6) 0.1220(6)
C41? C 0.3725(10) 0.3121(9) 0.0296(8)
Cl8? Cl 0.3765(4) 0.1526(4) 0.4110(3)
Cl9? Cl 0.3262(10) -0.0476(8) 0.3776(7)
C43? C 0.332(2) 0.0908(12) 0.3326(16)
Cl10? Cl 0.3982(6) 0.1190(5) 0.4474(5)
Cl11? Cl 0.2690(7) -0.0127(7) 0.3664(6)
C44? C 0.3875(16) -0.0145(14) 0.4347(14)
loop_
_geom_bond_atom_site_label_1
_geom_bond_atom_site_label_2
_geom_bond_site_symmetry_1
_geom_bond_site_symmetry_2
S1 C15 1_555 1_555
S2 C15 1_555 1_555
S3 C20 1_555 1_555
S4 C20 1_555 1_555
O1 C18 1_555 1_555
O2 C25 1_555 1_555
O3 C23 1_555 1_555
O4 C38 1_555 1_555
O5 C29 1_555 1_555
C1 H1 1_555 1_555
C2 C1 1_555 1_555
H2 C2 1_555 1_555
C3 C2 1_555 1_555
H3 C3 1_555 1_555
C4 C3 1_555 1_555
H4 C4 1_555 1_555
C5 H5 1_555 1_555
C6 C5 1_555 1_555
H6 C6 1_555 1_555
C7 C6 1_555 1_555
H7 C7 1_555 1_555
C8 C7 1_555 1_555
H8 C8 1_555 1_555
C9 C11 1_555 1_555
C10 C12 1_555 1_555
C11 C1 1_555 1_555
C12 C4 1_555 1_555
C13 C5 1_555 1_555
C14 C8 1_555 1_555
C15 C9 1_555 1_555
C16 S1 1_555 1_555
C17 S2 1_555 1_555
C18 C16 1_555 1_555
H9 C18 1_555 1_555
H10 C18 1_555 1_555
C19 C17 1_555 1_555
H11 C19 1_555 1_555
H12 C19 1_555 1_555
H13 C19 1_555 1_555
C20 C10 1_555 1_555
C21 S3 1_555 1_555
C22 S4 1_555 1_555
C23 C21 1_555 1_555
H14 C23 1_555 1_555
H15 C23 1_555 1_555
C24 C22 1_555 1_555
H16 C24 1_555 1_555
H17 C24 1_555 1_555
H18 C24 1_555 1_555
C25 O1 1_555 1_555
C26 C25 1_555 1_555
C27 C26 1_555 1_555
H19 C27 1_555 1_555
C28 C27 1_555 1_555
H20 C28 1_555 1_555
C29 C28 1_555 1_555
C30 C29 1_555 1_555
H21 C30 1_555 1_555
C31 C26 1_555 1_555
H22 C31 1_555 1_555
C32 O5 1_555 1_555
C33 C32 1_555 1_555
H23 C33 1_555 1_555
C34 C33 1_555 1_555
H24 C34 1_555 1_555
C35 C34 1_555 1_555
C36 C35 1_555 1_555
H25 C36 1_555 1_555
C37 C32 1_555 1_555
H26 C37 1_555 1_555
C38 O3 1_555 1_555
Cl1 C39 1_555 1_555
Cl2 C39 1_555 1_555
C39 H27 1_555 1_555
H28 C39 1_555 1_555
Cl3 C40 1_555 1_555
Cl4 C40 1_555 1_555
C40 H29 1_555 1_555
H30 C40 1_555 1_555
Cl6 C42 1_555 1_555
Cl7 C42 1_555 1_555
C42 H31 1_555 1_555
H32 C42 1_555 1_555
C9 C14 1_555 1_555
C10 C13 1_555 1_555
C11 C12 1_555 1_555
C13 C14 1_555 1_555
C16 C17 1_555 1_555
C21 C22 1_555 1_555
C30 C31 1_555 1_555
C35 C38 1_555 1_555
C36 C37 1_555 1_555

#END
