
#######################################################################
#
#                 Cambridge Crystallographic Data Centre
#                                CCDC 
#
#######################################################################
#
# If this CIF has been generated from an entry in the Cambridge 
# Structural Database, then it will include bibliographic, chemical, 
# crystal, experimental, refinement or atomic coordinate data resulting 
# from the CCDC's data processing and validation procedures.
#
#######################################################################

data_QIQBAT
_chemical_formula_moiety         'C6 H9 I1 O2'
_chemical_name_systematic        (S)-5-Iodo-2-oxepanone
_symmetry_cell_setting           monoclinic
_symmetry_space_group_name_H-M   'P 21'
_symmetry_Int_Tables_number      4
_space_group_name_Hall           'P 2yb'
loop_
_symmetry_equiv_pos_site_id
_symmetry_equiv_pos_as_xyz
1 x,y,z
2 -x,1/2+y,-z
_cell_length_a                   5.7400(10)
_cell_length_b                   6.1650(10)
_cell_length_c                   11.377(2)
_cell_angle_alpha                90
_cell_angle_beta                 99.98(2)
_cell_angle_gamma                90
_cell_volume                     396.507
_exptl_crystal_colour            colorless
_exptl_crystal_description       'hexagonal rod'
_cell_formula_units_Z            2
loop_
_atom_site_label
_atom_site_type_symbol
_atom_site_fract_x
_atom_site_fract_y
_atom_site_fract_z
I1 I 0.55700(5) 0.8000 0.89472(2)
O1 O 1.1187(5) 0.3402(6) 0.6904(3)
O2 O 1.1559(7) 0.5056(8) 0.5268(4)
C1 C 0.6685(7) 0.5512(8) 0.7789(4)
H1 H 0.5407(7) 0.4450(8) 0.7593(4)
C2 C 0.8824(9) 0.4382(10) 0.8458(4)
H2 H 0.8441(9) 0.3768(10) 0.9186(4)
H3 H 1.0081(9) 0.5432(10) 0.8680(4)
C3 C 0.9702(9) 0.2568(8) 0.7719(5)
H4 H 1.0597(9) 0.1522(8) 0.8253(5)
H5 H 0.8351(9) 0.1823(8) 0.7264(5)
C4 C 1.0232(8) 0.4487(9) 0.5912(4)
C5 C 0.7663(8) 0.5018(9) 0.5710(4)
H6 H 0.6764(8) 0.3696(9) 0.5749(4)
H7 H 0.7208(8) 0.5626(9) 0.4917(4)
C6 C 0.7048(8) 0.6647(9) 0.6638(4)
H8 H 0.8316(8) 0.7698(9) 0.6822(4)
H9 H 0.5617(8) 0.7422(9) 0.6303(4)
loop_
_geom_bond_atom_site_label_1
_geom_bond_atom_site_label_2
_geom_bond_site_symmetry_1
_geom_bond_site_symmetry_2
I1 C1 1_555 1_555
O1 C3 1_555 1_555
O2 C4 1_555 1_555
C1 H1 1_555 1_555
C2 C1 1_555 1_555
H2 C2 1_555 1_555
H3 C2 1_555 1_555
C3 C2 1_555 1_555
H4 C3 1_555 1_555
H5 C3 1_555 1_555
C4 O1 1_555 1_555
C5 C4 1_555 1_555
H6 C5 1_555 1_555
H7 C5 1_555 1_555
C6 C1 1_555 1_555
H8 C6 1_555 1_555
H9 C6 1_555 1_555
C5 C6 1_555 1_555

#END
