
#######################################################################
#
#                 Cambridge Crystallographic Data Centre
#                                CCDC 
#
#######################################################################
#
# If this CIF has been generated from an entry in the Cambridge 
# Structural Database, then it will include bibliographic, chemical, 
# crystal, experimental, refinement or atomic coordinate data resulting 
# from the CCDC's data processing and validation procedures.
#
#######################################################################

data_QIQCIF
_chemical_formula_moiety         'C22 H20 O8'
_chemical_name_systematic        
'1,4-bis(2H-1,3-benzodioxol-5-yl)dihydro-1H,3H-furo[3,4-c]furan-3a(4H)-yl acetate'
_symmetry_cell_setting           monoclinic
_symmetry_space_group_name_H-M   'P 21'
_symmetry_Int_Tables_number      4
_space_group_name_Hall           'P 2yb'
loop_
_symmetry_equiv_pos_site_id
_symmetry_equiv_pos_as_xyz
1 x,y,z
2 -x,1/2+y,-z
_cell_length_a                   7.5482(10)
_cell_length_b                   7.0055(9)
_cell_length_c                   18.245(3)
_cell_angle_alpha                90
_cell_angle_beta                 101.709(4)
_cell_angle_gamma                90
_cell_volume                     944.7
_exptl_crystal_colour            yellow
_exptl_crystal_description       block
_cell_formula_units_Z            2
loop_
_atom_site_label
_atom_site_type_symbol
_atom_site_fract_x
_atom_site_fract_y
_atom_site_fract_z
C1 C 0.5036(4) 0.9428(4) 0.61254(14)
C2 C 0.4065(3) 1.1029(4) 0.72802(14)
C3 C 0.1947(4) 1.4066(5) 0.83202(16)
C4 C 0.4697(4) 1.3078(4) 0.73544(17)
H1 H 0.5314(4) 1.3355(4) 0.78632(17)
H2 H 0.5509(4) 1.3348(4) 0.70178(17)
C5 C 0.1172(4) 1.3145(5) 0.88461(17)
H3 H 0.0561(4) 1.2002(5) 0.87173(17)
C6 C 0.5866(4) 1.0471(4) 0.56515(15)
H4 H 0.5517(4) 1.1731(4) 0.55455(15)
C7 C 0.7223(4) 0.9678(5) 0.53255(16)
H5 H 0.7769(4) 1.0372(5) 0.49970(16)
C8 C 0.1280(4) 1.3878(6) 0.95655(19)
H6 H 0.0746(4) 1.3253(6) 0.99151(19)
C9 C 0.2192(4) 1.5530(5) 0.97319(17)
C10 C 0.1800(4) 1.3230(5) 0.75344(16)
H7 H 0.0575(4) 1.3467(5) 0.72473(16)
C11 C 0.7704(4) 0.7852(4) 0.55120(15)
C12 C 0.2200(3) 1.1093(5) 0.75016(16)
H8 H 0.2239(3) 1.0481(5) 0.79877(16)
C13 C 0.6891(4) 0.6790(4) 0.59894(15)
C14 C 0.2927(4) 1.6497(5) 0.92115(18)
C15 C 0.0972(4) 0.9980(5) 0.68664(19)
H9 H 0.0261(4) 0.9043(5) 0.70718(19)
H10 H 0.0152(4) 1.0845(5) 0.65484(19)
C16 C 0.2824(4) 1.5823(5) 0.85005(17)
H11 H 0.3315(4) 1.6500(5) 0.81509(17)
C17 C 0.5536(4) 0.7524(4) 0.63049(16)
H12 H 0.4977(4) 0.6801(4) 0.66206(16)
C18 C 0.3647(6) 1.8059(7) 1.0286(2)
H13 H 0.3177(6) 1.9252(7) 1.0438(2)
H14 H 0.4846(6) 1.7863(7) 1.0589(2)
C19 C 0.8963(5) 0.4958(6) 0.5625(2)
H15 H 1.0142(5) 0.4761(6) 0.5945(2)
H16 H 0.8737(5) 0.3920(6) 0.5266(2)
C20 C 0.3587(4) 1.0351(4) 0.64656(16)
H17 H 0.3124(4) 1.1454(4) 0.61549(16)
C21 C 0.6966(4) 0.9666(5) 0.78576(16)
C22 C 0.7750(5) 0.7951(6) 0.8279(2)
H18 H 0.6793(5) 0.7170(6) 0.8390(2)
H19 H 0.8431(5) 0.7236(6) 0.7982(2)
H20 H 0.8533(5) 0.8337(6) 0.8737(2)
O1 O 0.2501(3) 1.6538(4) 1.03983(13)
O2 O 0.3744(4) 1.8148(4) 0.95246(16)
O3 O 0.3077(3) 1.4156(3) 0.71567(11)
O4 O 0.7605(3) 0.4979(3) 0.60644(13)
O5 O 0.8934(3) 0.6715(3) 0.52462(12)
O6 O 0.5137(2) 0.9634(3) 0.77510(10)
O7 O 0.2119(3) 0.9065(3) 0.64501(12)
O8 O 0.7794(3) 1.0921(4) 0.76357(12)
loop_
_geom_bond_atom_site_label_1
_geom_bond_atom_site_label_2
_geom_bond_site_symmetry_1
_geom_bond_site_symmetry_2
C1 C6 1_555 1_555
C2 C4 1_555 1_555
C3 C5 1_555 1_555
C4 H1 1_555 1_555
H2 C4 1_555 1_555
C5 H3 1_555 1_555
C6 H4 1_555 1_555
C7 C6 1_555 1_555
H5 C7 1_555 1_555
C8 C5 1_555 1_555
H6 C8 1_555 1_555
C9 C8 1_555 1_555
C10 C3 1_555 1_555
H7 C10 1_555 1_555
C11 C7 1_555 1_555
C12 C2 1_555 1_555
H8 C12 1_555 1_555
C13 C11 1_555 1_555
C14 C9 1_555 1_555
C15 C12 1_555 1_555
H9 C15 1_555 1_555
H10 C15 1_555 1_555
C16 C3 1_555 1_555
H11 C16 1_555 1_555
C17 C1 1_555 1_555
H12 C17 1_555 1_555
C18 H13 1_555 1_555
H14 C18 1_555 1_555
C19 H15 1_555 1_555
H16 C19 1_555 1_555
C20 C1 1_555 1_555
H17 C20 1_555 1_555
C21 C22 1_555 1_555
C22 H18 1_555 1_555
H19 C22 1_555 1_555
H20 C22 1_555 1_555
O1 C9 1_555 1_555
O2 C14 1_555 1_555
O3 C4 1_555 1_555
O4 C13 1_555 1_555
O5 C11 1_555 1_555
O6 C2 1_555 1_555
O7 C15 1_555 1_555
O8 C21 1_555 1_555
C2 C20 1_555 1_555
C10 C12 1_555 1_555
C10 O3 1_555 1_555
C13 C17 1_555 1_555
C14 C16 1_555 1_555
C18 O1 1_555 1_555
C18 O2 1_555 1_555
C19 O4 1_555 1_555
C19 O5 1_555 1_555
C20 O7 1_555 1_555
C21 O6 1_555 1_555

#END
