
#######################################################################
#
#                 Cambridge Crystallographic Data Centre
#                                CCDC 
#
#######################################################################
#
# If this CIF has been generated from an entry in the Cambridge 
# Structural Database, then it will include bibliographic, chemical, 
# crystal, experimental, refinement or atomic coordinate data resulting 
# from the CCDC's data processing and validation procedures.
#
#######################################################################

data_QIQCAX
_chemical_formula_moiety         'C8 H18 N8 2+,2(Cl1 1-)'
_chemical_name_systematic        
'1,4-bis(2-azidoethyl)piperazine-1,4-diium dichloride'
_symmetry_cell_setting           monoclinic
_symmetry_space_group_name_H-M   'P 21/n'
_symmetry_Int_Tables_number      14
_space_group_name_Hall           '-P 2yn'
loop_
_symmetry_equiv_pos_site_id
_symmetry_equiv_pos_as_xyz
1 x,y,z
2 1/2-x,1/2+y,1/2-z
3 -x,-y,-z
4 1/2+x,1/2-y,1/2+z
_cell_length_a                   6.5246(3)
_cell_length_b                   7.7090(4)
_cell_length_c                   13.9243(6)
_cell_angle_alpha                90
_cell_angle_beta                 101.240(3)
_cell_angle_gamma                90
_cell_volume                     686.933
_exptl_crystal_colour            colorless
_exptl_crystal_description       block
_cell_formula_units_Z            2
loop_
_atom_site_label
_atom_site_type_symbol
_atom_site_fract_x
_atom_site_fract_y
_atom_site_fract_z
C1 C 0.9038(2) 0.20754(19) 0.67112(11)
H1 H 0.8031 0.2265 0.7129
H2 H 0.9586 0.0907 0.6823
C2 C 0.7997(2) 0.22910(18) 0.56512(11)
H3 H 0.9052 0.2232 0.5249
H4 H 0.7032 0.1338 0.5464
C3 C 0.4870(2) 0.40154(18) 0.58663(10)
H5 H 0.5227 0.3867 0.6571
H6 H 0.3969 0.3062 0.5597
C4 C 0.3724(2) 0.57071(18) 0.56301(9)
H7 H 0.2455 0.5692 0.5895
H8 H 0.4592 0.6651 0.5940
N1 N 1.1073(3) 0.4964(2) 0.84005(12)
N2 N 1.0842(2) 0.41570(16) 0.77156(10)
N3 N 1.0760(2) 0.33517(18) 0.69452(10)
N4 N 0.68245(17) 0.39803(14) 0.54507(8)
H9 H 0.761(2) 0.487(2) 0.5706(11)
C1B C 0.0962(2) 0.79246(19) 0.32888(11)
H1B H 0.1969 0.7735 0.2871
H2B H 0.0414 0.9093 0.3177
C2B C 0.2003(2) 0.77090(18) 0.43488(11)
H3B H 0.0948 0.7768 0.4751
H4B H 0.2968 0.8662 0.4536
C3B C 0.5130(2) 0.59846(18) 0.41337(10)
H5B H 0.4773 0.6133 0.3429
H6B H 0.6031 0.6938 0.4403
C4B C 0.6276(2) 0.42929(18) 0.43699(9)
H7B H 0.7545 0.4308 0.4105
H8B H 0.5408 0.3349 0.4060
N1B N -0.1073(3) 0.5036(2) 0.15995(12)
N2B N -0.0842(2) 0.58430(16) 0.22844(10)
N3B N -0.0760(2) 0.66483(18) 0.30548(10)
N4B N 0.31755(17) 0.60197(14) 0.45493(8)
H9B H 0.239(2) 0.513(2) 0.4294(11)
Cl1 Cl 0.88140(5) 0.74563(4) 0.62576(2)
loop_
_geom_bond_atom_site_label_1
_geom_bond_atom_site_label_2
_geom_bond_site_symmetry_1
_geom_bond_site_symmetry_2
C1 H1 1_555 1_555
H2 C1 1_555 1_555
C2 C1 1_555 1_555
H3 C2 1_555 1_555
H4 C2 1_555 1_555
C3 H5 1_555 1_555
H6 C3 1_555 1_555
C4 C3 1_555 1_555
H7 C4 1_555 1_555
H8 C4 1_555 1_555
N1 N2 1_555 1_555
N2 N3 1_555 1_555
N3 C1 1_555 1_555
N4 C2 1_555 1_555
H9 N4 1_555 1_555
C1B H1B 1_555 1_555
H2B C1B 1_555 1_555
C2B C1B 1_555 1_555
H3B C2B 1_555 1_555
H4B C2B 1_555 1_555
C3B H5B 1_555 1_555
H6B C3B 1_555 1_555
C4B N4 1_555 1_555
H7B C4B 1_555 1_555
H8B C4B 1_555 1_555
N1B N2B 1_555 1_555
N2B N3B 1_555 1_555
N3B C1B 1_555 1_555
N4B C4 1_555 1_555
H9B N4B 1_555 1_555
C3 N4 1_555 1_555
C2B N4B 1_555 1_555
C3B C4B 1_555 1_555
C3B N4B 1_555 1_555

#END
