
#######################################################################
#
#                 Cambridge Crystallographic Data Centre
#                                CCDC 
#
#######################################################################
#
# If this CIF has been generated from an entry in the Cambridge 
# Structural Database, then it will include bibliographic, chemical, 
# crystal, experimental, refinement or atomic coordinate data resulting 
# from the CCDC's data processing and validation procedures.
#
#######################################################################

data_QIQDAY
_chemical_name_common            
7,9-dihydroxy-6,18-epoxykaur-16-ene-15,18-dione
_chemical_formula_moiety         'C20 H26 O5'
_chemical_name_systematic        
7\b,9\b-dihydroxy-15-oxo-ent-kauran-16-en-19,6\b-olide
_symmetry_cell_setting           orthorhombic
_symmetry_space_group_name_H-M   'P 21 21 21'
_symmetry_Int_Tables_number      19
_space_group_name_Hall           'P 2ac 2ab'
loop_
_symmetry_equiv_pos_site_id
_symmetry_equiv_pos_as_xyz
1 x,y,z
2 1/2-x,-y,1/2+z
3 -x,1/2+y,1/2-z
4 1/2+x,1/2-y,-z
_cell_length_a                   7.302(4)
_cell_length_b                   11.307(5)
_cell_length_c                   20.414(10)
_cell_angle_alpha                90
_cell_angle_beta                 90
_cell_angle_gamma                90
_cell_volume                     1685.46
_exptl_crystal_colour            colorless
_exptl_crystal_description       prism
_cell_formula_units_Z            4
loop_
_atom_site_label
_atom_site_type_symbol
_atom_site_fract_x
_atom_site_fract_y
_atom_site_fract_z
C1 C 0.7833(8) 0.5666(5) 0.5463(3)
H1 H 0.8482 0.4902 0.5512
H2 H 0.8559 0.6175 0.5166
C2 C 0.7645(9) 0.6262(5) 0.6131(3)
H3 H 0.8880 0.6427 0.6309
H4 H 0.7004 0.7028 0.6076
C3 C 0.6598(10) 0.5506(6) 0.6611(3)
H5 H 0.6190 0.6017 0.6977
H6 H 0.7451 0.4912 0.6795
C4 C 0.4920(9) 0.4854(5) 0.6339(3)
C5 C 0.4989(9) 0.4536(5) 0.5608(3)
H7 H 0.5644 0.3765 0.5558
C6 C 0.2977(8) 0.4351(5) 0.5442(3)
H8 H 0.2614 0.3525 0.5559
C7 C 0.2447(8) 0.4598(5) 0.4736(3)
H9 H 0.2014 0.5437 0.4720
C8 C 0.4038(8) 0.4490(5) 0.4233(3)
C9 C 0.6017(8) 0.4875(4) 0.4477(3)
C10 C 0.5911(8) 0.5452(4) 0.5167(3)
C11 C 0.6959(9) 0.5652(5) 0.3964(3)
H10 H 0.6365 0.6439 0.3959
H11 H 0.8257 0.5765 0.4089
C12 C 0.6878(10) 0.5125(6) 0.3278(3)
H12 H 0.7806 0.4490 0.3241
H13 H 0.7186 0.5745 0.2954
C13 C 0.4979(10) 0.4613(5) 0.3117(3)
H14 H 0.4637 0.4764 0.2650
C14 C 0.3557(9) 0.5131(5) 0.3589(3)
H15 H 0.2293 0.4947 0.3446
H16 H 0.3696 0.5999 0.3633
C15 C 0.4236(8) 0.3220(5) 0.3979(3)
C16 C 0.4844(9) 0.3309(5) 0.3285(3)
C17 C 0.5124(11) 0.2366(6) 0.2907(3)
H17 H 0.4935 0.1595 0.3078
H18 H 0.5513 0.2465 0.2466
C18 C 0.4576(10) 0.3736(6) 0.6761(3)
H19 H 0.5683 0.3245 0.6765
H20 H 0.4271 0.3972 0.7210
H21 H 0.3558 0.3282 0.6574
C19 C 0.3130(10) 0.5534(6) 0.6370(3)
C20 C 0.4963(10) 0.6654(5) 0.5110(3)
H22 H 0.5670 0.7166 0.4817
H23 H 0.3728 0.6545 0.4932
H24 H 0.4882 0.7020 0.5544
O1 O 0.2622(7) 0.6275(5) 0.6753(2)
O2 O 0.2016(6) 0.5187(4) 0.5873(2)
O3 O 0.7033(5) 0.3773(3) 0.45170(18)
H25 H 0.8118 0.3914 0.4629
O4 O 0.3849(7) 0.2327(3) 0.4272(2)
O5 O 0.0927(6) 0.3874(4) 0.4547(2)
H26 H 0.1081 0.3633 0.4162
loop_
_geom_bond_atom_site_label_1
_geom_bond_atom_site_label_2
_geom_bond_site_symmetry_1
_geom_bond_site_symmetry_2
C1 H1 1_555 1_555
H2 C1 1_555 1_555
C2 C1 1_555 1_555
H3 C2 1_555 1_555
H4 C2 1_555 1_555
C3 C2 1_555 1_555
H5 C3 1_555 1_555
H6 C3 1_555 1_555
C4 C3 1_555 1_555
C5 C4 1_555 1_555
H7 C5 1_555 1_555
C6 C5 1_555 1_555
H8 C6 1_555 1_555
C7 C6 1_555 1_555
H9 C7 1_555 1_555
C8 C7 1_555 1_555
C9 C8 1_555 1_555
C10 C1 1_555 1_555
C11 C9 1_555 1_555
H10 C11 1_555 1_555
H11 C11 1_555 1_555
C12 C11 1_555 1_555
H12 C12 1_555 1_555
H13 C12 1_555 1_555
C13 C12 1_555 1_555
H14 C13 1_555 1_555
C14 C8 1_555 1_555
H15 C14 1_555 1_555
H16 C14 1_555 1_555
C15 C8 1_555 1_555
C16 C13 1_555 1_555
C17 C16 1_555 1_555
H17 C17 1_555 1_555
H18 C17 1_555 1_555
C18 C4 1_555 1_555
H19 C18 1_555 1_555
H20 C18 1_555 1_555
H21 C18 1_555 1_555
C19 C4 1_555 1_555
C20 C10 1_555 1_555
H22 C20 1_555 1_555
H23 C20 1_555 1_555
H24 C20 1_555 1_555
O1 C19 1_555 1_555
O2 C6 1_555 1_555
O3 C9 1_555 1_555
H25 O3 1_555 1_555
O4 C15 1_555 1_555
O5 C7 1_555 1_555
H26 O5 1_555 1_555
C5 C10 1_555 1_555
C9 C10 1_555 1_555
C13 C14 1_555 1_555
C15 C16 1_555 1_555
C19 O2 1_555 1_555

#END
