
#######################################################################
#
#                 Cambridge Crystallographic Data Centre
#                                CCDC 
#
#######################################################################
#
# If this CIF has been generated from an entry in the Cambridge 
# Structural Database, then it will include bibliographic, chemical, 
# crystal, experimental, refinement or atomic coordinate data resulting 
# from the CCDC's data processing and validation procedures.
#
#######################################################################

data_QIQDUP
_chemical_formula_moiety         'C28 H27 N1 O2 P2 S1'
_chemical_name_systematic        
'(S)-N-(diphenylphosphino)-N-(diphenylthiophosphinoyl)alanine methyl ester'
_symmetry_cell_setting           orthorhombic
_symmetry_space_group_name_H-M   'P 21 21 21'
_symmetry_Int_Tables_number      19
_space_group_name_Hall           'P 2ac 2ab'
loop_
_symmetry_equiv_pos_site_id
_symmetry_equiv_pos_as_xyz
1 x,y,z
2 1/2-x,-y,1/2+z
3 -x,1/2+y,1/2-z
4 1/2+x,1/2-y,-z
_cell_length_a                   8.8209(6)
_cell_length_b                   11.8478(7)
_cell_length_c                   25.471(2)
_cell_angle_alpha                90
_cell_angle_beta                 90
_cell_angle_gamma                90
_cell_volume                     2661.93
_exptl_crystal_colour            colorless
_exptl_crystal_description       prism
_cell_formula_units_Z            4
_exptl_crystal_recrystallization_method 'light petroleum ether/dichloromethane'
loop_
_atom_site_label
_atom_site_type_symbol
_atom_site_fract_x
_atom_site_fract_y
_atom_site_fract_z
S1 S 0.51363(9) 0.15325(7) 0.17129(3)
P1 P 0.33673(9) 0.06045(6) 0.15682(3)
N1 N 0.3778(2) -0.0618(2) 0.12559(7)
P2 P 0.22367(8) -0.14624(6) 0.10958(3)
C1 C 0.5273(3) -0.0784(2) 0.09960(10)
H1 H 0.5250(3) -0.1560(2) 0.08621(10)
C2 C 0.6628(4) -0.0742(2) 0.13583(12)
O1 O 0.7867(2) -0.0474(2) 0.12130(9)
O2 O 0.6327(2) -0.1110(2) 0.18399(8)
C3 C 0.7586(4) -0.1040(3) 0.22039(13)
H2 H 0.7275(4) -0.1322(3) 0.25407(13)
H3 H 0.7901(4) -0.0268(3) 0.22376(13)
H4 H 0.8415(4) -0.1486(3) 0.20747(13)
C4 C 0.5538(3) -0.0041(3) 0.05102(10)
H5 H 0.4668(3) -0.0078(3) 0.02848(10)
H6 H 0.6415(3) -0.0305(3) 0.03238(10)
H7 H 0.5698(3) 0.0726(3) 0.06186(10)
C5 C 0.2382(3) 0.0194(2) 0.21610(10)
C6 C 0.1419(4) 0.0956(3) 0.24102(12)
H8 H 0.1225(4) 0.1656(3) 0.22600(12)
C7 C 0.0754(4) 0.0663(4) 0.28829(14)
H9 H 0.0112(4) 0.1173(4) 0.30487(14)
C8 C 0.1022(4) -0.0362(4) 0.31105(14)
H10 H 0.0565(4) -0.0549(4) 0.34280(14)
C9 C 0.1956(4) -0.1100(3) 0.28696(13)
H11 H 0.2135(4) -0.1803(3) 0.30203(13)
C10 C 0.2651(4) -0.0820(3) 0.23999(11)
H12 H 0.3313(4) -0.1331(3) 0.22439(11)
C11 C 0.1999(3) 0.1365(2) 0.11650(10)
C12 C 0.0460(3) 0.1238(2) 0.12114(11)
H13 H 0.0069(3) 0.0747(2) 0.14621(11)
C13 C -0.0523(4) 0.1836(3) 0.08866(14)
H14 H -0.1565(4) 0.1764(3) 0.09298(14)
C14 C 0.0040(5) 0.2530(3) 0.05043(13)
H15 H -0.0620(5) 0.2930(3) 0.02883(13)
C15 C 0.1581(5) 0.2637(3) 0.04395(12)
H16 H 0.1964(5) 0.3087(3) 0.01714(12)
C16 C 0.2556(4) 0.2077(2) 0.07721(11)
H17 H 0.3597(4) 0.2173(2) 0.07349(11)
C17 C 0.2257(3) -0.1466(3) 0.03722(10)
C18 C 0.3129(4) -0.2175(3) 0.00618(11)
H18 H 0.3732(4) -0.2720(3) 0.02208(11)
C19 C 0.3120(4) -0.2087(3) -0.04747(12)
H19 H 0.3715(4) -0.2569(3) -0.06765(12)
C20 C 0.2232(5) -0.1289(4) -0.07131(14)
H20 H 0.2231(5) -0.1227(4) -0.10770(14)
C21 C 0.1346(5) -0.0585(4) -0.0418(2)
H21 H 0.0749(5) -0.0043(4) -0.0582(2)
C22 C 0.1338(4) -0.0678(3) 0.01292(12)
H22 H 0.0716(4) -0.0211(3) 0.03290(12)
C23 C 0.2879(3) -0.2896(2) 0.12365(11)
C24 C 0.3999(4) -0.3175(2) 0.15976(11)
H23 H 0.4545(4) -0.2605(2) 0.17633(11)
C25 C 0.4313(4) -0.4294(3) 0.17134(12)
H24 H 0.5062(4) -0.4469(3) 0.19572(12)
C26 C 0.3530(5) -0.5142(3) 0.14720(14)
H25 H 0.3765(5) -0.5892(3) 0.15422(14)
C27 C 0.2404(4) -0.4882(3) 0.11284(14)
H26 H 0.1850(4) -0.5460(3) 0.09724(14)
C28 C 0.2070(3) -0.3775(2) 0.10076(12)
H27 H 0.1297(3) -0.3615(2) 0.07708(12)
loop_
_geom_bond_atom_site_label_1
_geom_bond_atom_site_label_2
_geom_bond_site_symmetry_1
_geom_bond_site_symmetry_2
S1 P1 1_555 1_555
P1 N1 1_555 1_555
N1 P2 1_555 1_555
P2 C17 1_555 1_555
C1 N1 1_555 1_555
H1 C1 1_555 1_555
C2 C1 1_555 1_555
O1 C2 1_555 1_555
O2 C2 1_555 1_555
C3 O2 1_555 1_555
H2 C3 1_555 1_555
H3 C3 1_555 1_555
H4 C3 1_555 1_555
C4 C1 1_555 1_555
H5 C4 1_555 1_555
H6 C4 1_555 1_555
H7 C4 1_555 1_555
C5 P1 1_555 1_555
C6 C5 1_555 1_555
H8 C6 1_555 1_555
C7 C6 1_555 1_555
H9 C7 1_555 1_555
C8 C7 1_555 1_555
H10 C8 1_555 1_555
C9 C8 1_555 1_555
H11 C9 1_555 1_555
C10 C5 1_555 1_555
H12 C10 1_555 1_555
C11 P1 1_555 1_555
C12 C11 1_555 1_555
H13 C12 1_555 1_555
C13 C12 1_555 1_555
H14 C13 1_555 1_555
C14 C13 1_555 1_555
H15 C14 1_555 1_555
C15 C14 1_555 1_555
H16 C15 1_555 1_555
C16 C11 1_555 1_555
H17 C16 1_555 1_555
C17 C18 1_555 1_555
C18 H18 1_555 1_555
C19 C18 1_555 1_555
H19 C19 1_555 1_555
C20 C19 1_555 1_555
H20 C20 1_555 1_555
C21 C20 1_555 1_555
H21 C21 1_555 1_555
C22 C17 1_555 1_555
H22 C22 1_555 1_555
C23 P2 1_555 1_555
C24 C23 1_555 1_555
H23 C24 1_555 1_555
C25 C24 1_555 1_555
H24 C25 1_555 1_555
C26 C25 1_555 1_555
H25 C26 1_555 1_555
C27 C26 1_555 1_555
H26 C27 1_555 1_555
C28 C23 1_555 1_555
H27 C28 1_555 1_555
C9 C10 1_555 1_555
C15 C16 1_555 1_555
C21 C22 1_555 1_555
C27 C28 1_555 1_555

#END
