
#######################################################################
#
#                 Cambridge Crystallographic Data Centre
#                                CCDC 
#
#######################################################################
#
# If this CIF has been generated from an entry in the Cambridge 
# Structural Database, then it will include bibliographic, chemical, 
# crystal, experimental, refinement or atomic coordinate data resulting 
# from the CCDC's data processing and validation procedures.
#
#######################################################################

data_QIQFAX
_chemical_formula_moiety         'C28 H27 N1 O4 P2'
_chemical_name_systematic        
'(S)-N,N-bis(diphenylphosphinoyl)alanine methyl ester'
_symmetry_cell_setting           orthorhombic
_symmetry_space_group_name_H-M   'P 21 21 21'
_symmetry_Int_Tables_number      19
_space_group_name_Hall           'P 2ac 2ab'
loop_
_symmetry_equiv_pos_site_id
_symmetry_equiv_pos_as_xyz
1 x,y,z
2 1/2-x,-y,1/2+z
3 -x,1/2+y,1/2-z
4 1/2+x,1/2-y,-z
_cell_length_a                   8.48440(10)
_cell_length_b                   14.1005(2)
_cell_length_c                   21.19600(10)
_cell_angle_alpha                90
_cell_angle_beta                 90
_cell_angle_gamma                90
_cell_volume                     2535.77
_exptl_crystal_colour            colorless
_exptl_crystal_description       prism
_cell_formula_units_Z            4
_exptl_crystal_recrystallization_method 'light petroleum ether/dichloromethane'
loop_
_atom_site_label
_atom_site_type_symbol
_atom_site_fract_x
_atom_site_fract_y
_atom_site_fract_z
N1 N 0.7614(2) -0.01063(10) 0.10193(6)
C1 C 0.9178(2) -0.05850(13) 0.10084(8)
H1 H 0.9175(2) -0.09921(13) 0.06337(8)
C2 C 0.9323(2) -0.12527(13) 0.15752(9)
O1 O 0.8323(2) -0.14389(11) 0.19506(7)
O2 O 1.0738(2) -0.16451(12) 0.15778(8)
C3 C 1.1038(3) -0.2295(2) 0.2090(2)
H2 H 1.2087(3) -0.2543(2) 0.2054(2)
H3 H 1.0293(3) -0.2806(2) 0.2074(2)
H4 H 1.0932(3) -0.1966(2) 0.2485(2)
C4 C 1.0582(2) 0.0067(2) 0.09361(10)
H5 H 1.0430(2) 0.0468(2) 0.05753(10)
H6 H 1.1519(2) -0.0305(2) 0.08795(10)
H7 H 1.0688(2) 0.0451(2) 0.13076(10)
P1 P 0.73668(6) 0.07972(3) 0.15491(2)
O3 O 0.8629(2) 0.07767(10) 0.20257(5)
C5 C 0.7427(3) 0.18791(13) 0.10902(8)
C6 C 0.8666(3) 0.2489(2) 0.11856(10)
H8 H 0.9408(3) 0.2357(2) 0.14968(10)
C7 C 0.8819(3) 0.3304(2) 0.08185(13)
H9 H 0.9657(3) 0.3716(2) 0.08889(13)
C8 C 0.7746(3) 0.3501(2) 0.03551(12)
H10 H 0.7857(3) 0.4042(2) 0.01083(12)
C9 C 0.6506(3) 0.2897(2) 0.02571(11)
H11 H 0.5772(3) 0.3030(2) -0.00566(11)
C10 C 0.6340(3) 0.20934(14) 0.06208(10)
H12 H 0.5491(3) 0.16897(14) 0.05514(10)
C11 C 0.5459(2) 0.0705(2) 0.18972(8)
C12 C 0.4504(3) 0.1494(2) 0.19745(12)
H13 H 0.4804(3) 0.2073(2) 0.18012(12)
C13 C 0.3113(4) 0.1427(3) 0.2306(2)
H14 H 0.2476(4) 0.1959(3) 0.2356(2)
C14 C 0.2668(4) 0.0582(4) 0.2563(2)
H15 H 0.1713(4) 0.0537(4) 0.2776(2)
C15 C 0.3615(4) -0.0201(3) 0.25093(13)
H16 H 0.3321(4) -0.0767(3) 0.27017(13)
C16 C 0.5011(3) -0.0154(2) 0.21695(9)
H17 H 0.5640(3) -0.0689(2) 0.21238(9)
P2 P 0.62280(6) -0.04930(3) 0.05084(2)
O4 O 0.4697(2) -0.00692(10) 0.06391(6)
C17 C 0.6203(2) -0.17715(13) 0.05727(8)
C18 C 0.5199(3) -0.2171(2) 0.10203(9)
H18 H 0.4551(3) -0.1782(2) 0.12616(9)
C19 C 0.5164(3) -0.3142(2) 0.11070(11)
H19 H 0.4501(3) -0.3406(2) 0.14092(11)
C20 C 0.6112(3) -0.3719(2) 0.07448(13)
H20 H 0.6090(3) -0.4372(2) 0.08059(13)
C21 C 0.7090(3) -0.3340(2) 0.02950(12)
H21 H 0.7712(3) -0.3735(2) 0.00476(12)
C22 C 0.7146(3) -0.23660(14) 0.02102(10)
H22 H 0.7819(3) -0.21085(14) -0.00908(10)
C23 C 0.6899(2) -0.02079(14) -0.02836(8)
C24 C 0.7927(3) 0.0529(2) -0.03965(9)
H23 H 0.8435(3) 0.0821(2) -0.00601(9)
C25 C 0.8213(3) 0.0839(2) -0.10095(10)
H24 H 0.8921(3) 0.1331(2) -0.10804(10)
C26 C 0.7452(3) 0.0421(2) -0.15104(10)
H25 H 0.7621(3) 0.0642(2) -0.19182(10)
C27 C 0.6456(3) -0.0315(2) -0.14080(10)
H26 H 0.5969(3) -0.0608(2) -0.17489(10)
C28 C 0.6153(3) -0.0637(2) -0.07978(9)
H27 H 0.5455(3) -0.1136(2) -0.07332(9)
loop_
_geom_bond_atom_site_label_1
_geom_bond_atom_site_label_2
_geom_bond_site_symmetry_1
_geom_bond_site_symmetry_2
N1 C1 1_555 1_555
C1 H1 1_555 1_555
C2 C1 1_555 1_555
O1 C2 1_555 1_555
O2 C2 1_555 1_555
C3 O2 1_555 1_555
H2 C3 1_555 1_555
H3 C3 1_555 1_555
H4 C3 1_555 1_555
C4 C1 1_555 1_555
H5 C4 1_555 1_555
H6 C4 1_555 1_555
H7 C4 1_555 1_555
P1 N1 1_555 1_555
O3 P1 1_555 1_555
C5 P1 1_555 1_555
C6 C5 1_555 1_555
H8 C6 1_555 1_555
C7 C6 1_555 1_555
H9 C7 1_555 1_555
C8 C7 1_555 1_555
H10 C8 1_555 1_555
C9 C8 1_555 1_555
H11 C9 1_555 1_555
C10 C5 1_555 1_555
H12 C10 1_555 1_555
C11 P1 1_555 1_555
C12 C11 1_555 1_555
H13 C12 1_555 1_555
C13 C12 1_555 1_555
H14 C13 1_555 1_555
C14 C13 1_555 1_555
H15 C14 1_555 1_555
C15 C14 1_555 1_555
H16 C15 1_555 1_555
C16 C11 1_555 1_555
H17 C16 1_555 1_555
P2 N1 1_555 1_555
O4 P2 1_555 1_555
C17 P2 1_555 1_555
C18 C17 1_555 1_555
H18 C18 1_555 1_555
C19 C18 1_555 1_555
H19 C19 1_555 1_555
C20 C19 1_555 1_555
H20 C20 1_555 1_555
C21 C20 1_555 1_555
H21 C21 1_555 1_555
C22 C17 1_555 1_555
H22 C22 1_555 1_555
C23 P2 1_555 1_555
C24 C23 1_555 1_555
H23 C24 1_555 1_555
C25 C24 1_555 1_555
H24 C25 1_555 1_555
C26 C25 1_555 1_555
H25 C26 1_555 1_555
C27 C26 1_555 1_555
H26 C27 1_555 1_555
C28 C23 1_555 1_555
H27 C28 1_555 1_555
C9 C10 1_555 1_555
C15 C16 1_555 1_555
C21 C22 1_555 1_555
C27 C28 1_555 1_555

#END
