
#######################################################################
#
#                 Cambridge Crystallographic Data Centre
#                                CCDC 
#
#######################################################################
#
# If this CIF has been generated from an entry in the Cambridge 
# Structural Database, then it will include bibliographic, chemical, 
# crystal, experimental, refinement or atomic coordinate data resulting 
# from the CCDC's data processing and validation procedures.
#
#######################################################################

data_QIQWIZ
_chemical_formula_moiety         'C7 H5 N3 O6,C6 N6 O6'
_chemical_name_systematic        
"2-methyl-1,3,5-trinitrobenzene 1,4,7-trioxo-1\l^5^,4\l^5^,7\l^5^-benzo[1,2-c:3,4-c':5,6-c'']tris[1,2,5]oxadiazole"
_symmetry_cell_setting           monoclinic
_symmetry_space_group_name_H-M   'P 21/c'
_symmetry_Int_Tables_number      14
_space_group_name_Hall           '-P 2ybc'
loop_
_symmetry_equiv_pos_site_id
_symmetry_equiv_pos_as_xyz
1 x,y,z
2 -x,1/2+y,1/2-z
3 -x,-y,-z
4 x,1/2-y,1/2+z
_cell_length_a                   9.3622(15)
_cell_length_b                   13.005(2)
_cell_length_c                   14.911(2)
_cell_angle_alpha                90
_cell_angle_beta                 96.072(4)
_cell_angle_gamma                90
_cell_volume                     1805.31
_exptl_crystal_colour            brown
_exptl_crystal_description       prismatic
_cell_formula_units_Z            4
loop_
_atom_site_label
_atom_site_type_symbol
_atom_site_fract_x
_atom_site_fract_y
_atom_site_fract_z
O1 O 0.6141(4) 0.4392(2) 0.1488(3)
O2 O 0.4620(4) 0.4507(2) 0.2496(2)
N1 N 0.2236(17) 0.7945(12) 0.1954(10)
N2 N 0.5331(12) 0.7493(10) -0.0469(7)
O3 O 0.1801(15) 0.7607(12) 0.2615(12)
O4 O 0.1746(14) 0.8712(8) 0.1637(10)
O5 O 0.4621(10) 0.8031(8) -0.0915(6)
O6 O 0.6471(12) 0.7122(8) -0.0603(9)
N3 N 0.5197(4) 0.4836(2) 0.1867(2)
C1 C 0.4739(3) 0.5844(2) 0.1503(2)
C2 C 0.3775(3) 0.6396(3) 0.1924(2)
H1 H 0.3417 0.6148 0.2441
C3 C 0.3343(3) 0.7335(3) 0.1564(2)
C4 C 0.3848(3) 0.7777(3) 0.0813(2)
C5 C 0.4814(3) 0.7126(3) 0.0413(2)
C6 C 0.5253(3) 0.6187(3) 0.0747(2)
H2 H 0.5894 0.5792 0.0458
C7 C 0.3506(6) 0.8840(4) 0.0507(4)
H3 H 0.2864 0.8820 -0.0039
H4 H 0.4374 0.9188 0.0398
H5 H 0.3056 0.9200 0.0964
O7 O 0.9637(11) 0.6533(8) 0.4677(7)
O8 O 0.8096(13) 0.5853(9) 0.3512(10)
O9 O 0.7404(18) 0.8441(13) 0.1392(9)
O10 O 0.8244(14) 1.0149(11) 0.1302(7)
O11 O 1.1130(17) 1.0651(9) 0.3933(9)
O12 O 1.1867(11) 0.9593(7) 0.5141(6)
N4 N 1.0453(14) 0.7495(14) 0.4870(10)
N5 N 0.8856(14) 0.6559(11) 0.3832(12)
N6 N 0.763(2) 0.7592(16) 0.2070(11)
N7 N 0.821(2) 0.9336(17) 0.1731(18)
N8 N 1.0241(15) 1.0534(12) 0.3189(9)
N9 N 1.1201(15) 0.9673(11) 0.4436(8)
C8 C 0.9985(13) 0.8041(10) 0.4094(11)
C9 C 0.9039(16) 0.7493(15) 0.3482(11)
C10 C 0.843(2) 0.7957(15) 0.2672(12)
C11 C 0.8816(14) 0.9012(12) 0.2500(8)
C12 C 0.9767(15) 0.9536(11) 0.3130(9)
C13 C 1.0348(12) 0.9051(8) 0.3910(10)
N10? N 0.225(2) 0.772(2) 0.2126(13)
N11? N 0.571(2) 0.7330(19) -0.0306(12)
O13? O 0.2348(19) 0.7533(12) 0.2930(11)
O14? O 0.1313(12) 0.8250(13) 0.1743(13)
O15? O 0.554(2) 0.8164(17) -0.0674(13)
O16? O 0.636(3) 0.6650(15) -0.0679(18)
O17? O 0.826(2) 1.0354(18) 0.1441(16)
O18? O 1.109(3) 1.0432(18) 0.4100(16)
O19? O 1.164(3) 0.9088(15) 0.5150(14)
N12? N 1.0231(16) 1.0462(10) 0.3222(12)
N13? N 1.097(4) 0.941(2) 0.4467(19)
C14? C 0.961(2) 0.7780(17) 0.3945(16)
C15? C 0.872(2) 0.745(3) 0.3184(15)
C16? C 0.830(4) 0.808(3) 0.2440(19)
C17? C 0.881(3) 0.910(3) 0.2482(15)
C18? C 0.970(2) 0.9478(13) 0.3226(14)
C19? C 1.0062(19) 0.8789(15) 0.3928(16)
N14? N 0.9907(14) 0.7217(13) 0.4598(9)
O20? O 0.9022(17) 0.6227(12) 0.4322(11)
O21? O 0.7512(12) 0.5901(10) 0.3026(8)
N15? N 0.8309(14) 0.6508(12) 0.3430(10)
O22? O 0.737(3) 0.8728(14) 0.1119(10)
N16? N 0.7498(15) 0.7810(11) 0.1714(9)
N17? N 0.823(2) 0.9454(17) 0.1674(13)
loop_
_geom_bond_atom_site_label_1
_geom_bond_atom_site_label_2
_geom_bond_site_symmetry_1
_geom_bond_site_symmetry_2
O1 N3 1_555 1_555
O2 N3 1_555 1_555
N1 O3 1_555 1_555
N2 O5 1_555 1_555
O4 N1 1_555 1_555
O6 N2 1_555 1_555
N3 C1 1_555 1_555
C1 C2 1_555 1_555
C2 H1 1_555 1_555
C3 N1 1_555 1_555
C4 C3 1_555 1_555
C5 N2 1_555 1_555
C6 C1 1_555 1_555
H2 C6 1_555 1_555
C7 C4 1_555 1_555
H3 C7 1_555 1_555
H4 C7 1_555 1_555
H5 C7 1_555 1_555
O7 N4 1_555 1_555
O8 N5 1_555 1_555
O9 N6 1_555 1_555
O10 N7 1_555 1_555
O11 N8 1_555 1_555
O12 N9 1_555 1_555
N4 C8 1_555 1_555
N5 O7 1_555 1_555
N6 C10 1_555 1_555
N7 O9 1_555 1_555
N8 C12 1_555 1_555
N9 O11 1_555 1_555
C8 C9 1_555 1_555
C9 N5 1_555 1_555
C10 C9 1_555 1_555
C11 N7 1_555 1_555
C12 C11 1_555 1_555
C13 N9 1_555 1_555
C2 C3 1_555 1_555
C4 C5 1_555 1_555
C5 C6 1_555 1_555
C8 C13 1_555 1_555
C10 C11 1_555 1_555
C12 C13 1_555 1_555

#END
