
#######################################################################
#
#                 Cambridge Crystallographic Data Centre
#                                CCDC 
#
#######################################################################
#
# If this CIF has been generated from an entry in the Cambridge 
# Structural Database, then it will include bibliographic, chemical, 
# crystal, experimental, refinement or atomic coordinate data resulting 
# from the CCDC's data processing and validation procedures.
#
#######################################################################

data_QIQYIA
_chemical_formula_moiety         'C24 H27 N3 O5'
_chemical_name_systematic        
'Diethyl 1-(2-(2-((hydroxyimino)(phenyl)methyl)phenyl)cyclopent-3-en-1-yl)hydrazine-1,2-dicarboxylate'
_symmetry_cell_setting           triclinic
_symmetry_space_group_name_H-M   'P -1'
_symmetry_Int_Tables_number      2
_space_group_name_Hall           '-P 1'
loop_
_symmetry_equiv_pos_site_id
_symmetry_equiv_pos_as_xyz
1 x,y,z
2 -x,-y,-z
_cell_length_a                   8.9819(6)
_cell_length_b                   10.2800(9)
_cell_length_c                   13.0080(11)
_cell_angle_alpha                86.490(7)
_cell_angle_beta                 73.036(7)
_cell_angle_gamma                79.688(7)
_cell_volume                     1130.21
_exptl_crystal_colour            colorless
_exptl_crystal_description       block
_cell_formula_units_Z            2
loop_
_atom_site_label
_atom_site_type_symbol
_atom_site_fract_x
_atom_site_fract_y
_atom_site_fract_z
O1 O 0.13668(15) 0.27646(15) 0.08554(11)
H1 H 0.1699 0.2213 0.0355
O2 O 0.71399(14) -0.06793(13) 0.04244(9)
O3 O 0.73817(13) -0.01951(14) 0.20264(9)
O4 O 0.51155(15) -0.29312(14) 0.13475(11)
O5 O 0.35024(14) -0.21336(13) 0.03190(10)
N1 N 0.24684(17) 0.26620(17) 0.14429(12)
N2 N 0.50093(16) -0.04077(15) 0.19042(11)
N3 N 0.40737(16) -0.07308(16) 0.13094(12)
H2 H 0.3353 -0.0134 0.1134
C1 C 0.0019(2) 0.5268(2) 0.17262(16)
H3 H 0.0500 0.5083 0.0985
C2 C -0.1273(2) 0.6262(2) 0.20372(18)
H4 H -0.1673 0.6757 0.1506
C3 C -0.1990(2) 0.6545(2) 0.3107(2)
H5 H -0.2864 0.7244 0.3312
C4 C -0.1430(2) 0.5809(2) 0.38777(18)
H6 H -0.1936 0.5984 0.4618
C5 C -0.0131(2) 0.4817(2) 0.35749(16)
H7 H 0.0254 0.4321 0.4112
C6 C 0.0620(2) 0.45342(19) 0.24965(15)
C7 C 0.2055(2) 0.34900(19) 0.22161(14)
C8 C 0.3201(2) 0.34113(19) 0.28671(14)
C9 C 0.3787(2) 0.4562(2) 0.29357(16)
H8 H 0.3422 0.5350 0.2598
C10 C 0.4882(2) 0.4577(2) 0.34830(16)
H9 H 0.5288 0.5363 0.3507
C11 C 0.5387(2) 0.3445(2) 0.39958(16)
H10 H 0.6144 0.3447 0.4375
C12 C 0.4788(2) 0.2304(2) 0.39571(15)
H11 H 0.5124 0.1535 0.4328
C13 C 0.37033(19) 0.22569(19) 0.33879(14)
C14 C 0.30505(19) 0.09917(19) 0.34052(14)
H12 H 0.2354 0.1109 0.2919
C15 C 0.2123(2) 0.0564(2) 0.45013(16)
H13 H 0.1454 0.1158 0.5041
C16 C 0.2350(2) -0.0729(2) 0.46193(16)
H14 H 0.1859 -0.1181 0.5252
C17 C 0.3481(2) -0.1403(2) 0.36340(15)
H15 H 0.2919 -0.1750 0.3188
H16 H 0.4241 -0.2133 0.3822
C18 C 0.4301(2) -0.02608(19) 0.30667(14)
H17 H 0.5173 -0.0207 0.3388
C19 C 0.6560(2) -0.04467(18) 0.13817(14)
C20 C 0.9056(2) -0.0186(2) 0.15225(15)
H18 H 0.9204 0.0490 0.0943
H19 H 0.9589 -0.1061 0.1210
C21 C 0.9716(3) 0.0128(3) 0.23816(19)
H20 H 1.0847 0.0145 0.2079
H21 H 0.9560 -0.0549 0.2949
H22 H 0.9176 0.0994 0.2684
C22 C 0.4329(2) -0.2034(2) 0.10056(14)
C23 C 0.3668(2) -0.3456(2) -0.00817(17)
H23 H 0.3302 -0.4067 0.0522
H24 H 0.4789 -0.3792 -0.0457
C24 C 0.2685(2) -0.3373(2) -0.08426(18)
H25 H 0.3059 -0.2768 -0.1437
H26 H 0.1579 -0.3042 -0.0462
H27 H 0.2774 -0.4253 -0.1128
loop_
_geom_bond_atom_site_label_1
_geom_bond_atom_site_label_2
_geom_bond_site_symmetry_1
_geom_bond_site_symmetry_2
O1 H1 1_555 1_555
O2 C19 1_555 1_555
O3 C19 1_555 1_555
O4 C22 1_555 1_555
O5 C22 1_555 1_555
N1 O1 1_555 1_555
N2 N3 1_555 1_555
N3 H2 1_555 1_555
C1 H3 1_555 1_555
C2 C1 1_555 1_555
H4 C2 1_555 1_555
C3 C2 1_555 1_555
H5 C3 1_555 1_555
C4 C3 1_555 1_555
H6 C4 1_555 1_555
C5 C4 1_555 1_555
H7 C5 1_555 1_555
C6 C1 1_555 1_555
C7 N1 1_555 1_555
C8 C7 1_555 1_555
C9 C8 1_555 1_555
H8 C9 1_555 1_555
C10 C9 1_555 1_555
H9 C10 1_555 1_555
C11 C10 1_555 1_555
H10 C11 1_555 1_555
C12 C11 1_555 1_555
H11 C12 1_555 1_555
C13 C8 1_555 1_555
C14 C13 1_555 1_555
H12 C14 1_555 1_555
C15 C14 1_555 1_555
H13 C15 1_555 1_555
C16 C15 1_555 1_555
H14 C16 1_555 1_555
C17 C16 1_555 1_555
H15 C17 1_555 1_555
H16 C17 1_555 1_555
C18 N2 1_555 1_555
H17 C18 1_555 1_555
C19 N2 1_555 1_555
C20 O3 1_555 1_555
H18 C20 1_555 1_555
H19 C20 1_555 1_555
C21 C20 1_555 1_555
H20 C21 1_555 1_555
H21 C21 1_555 1_555
H22 C21 1_555 1_555
C22 N3 1_555 1_555
C23 O5 1_555 1_555
H23 C23 1_555 1_555
H24 C23 1_555 1_555
C24 C23 1_555 1_555
H25 C24 1_555 1_555
H26 C24 1_555 1_555
H27 C24 1_555 1_555
C5 C6 1_555 1_555
C6 C7 1_555 1_555
C12 C13 1_555 1_555
C14 C18 1_555 1_555
C17 C18 1_555 1_555

#END
