
#######################################################################
#
#                 Cambridge Crystallographic Data Centre
#                                CCDC 
#
#######################################################################
#
# If this CIF has been generated from an entry in the Cambridge 
# Structural Database, then it will include bibliographic, chemical, 
# crystal, experimental, refinement or atomic coordinate data resulting 
# from the CCDC's data processing and validation procedures.
#
#######################################################################

data_QIRFUU
_chemical_formula_moiety         'C42 H48,C7 H8'
_chemical_name_systematic        
'3,6-Di-t-butyl-9-(3,6-di-t-butyl-9H-fluoren-9-ylidene)-9H-fluorene toluene solvate'
_symmetry_cell_setting           monoclinic
_symmetry_space_group_name_H-M   'C c'
_symmetry_Int_Tables_number      9
_space_group_name_Hall           'C -2yc'
loop_
_symmetry_equiv_pos_site_id
_symmetry_equiv_pos_as_xyz
1 x,y,z
2 x,-y,1/2+z
3 1/2+x,1/2+y,z
4 1/2+x,1/2-y,1/2+z
_cell_length_a                   16.3683(12)
_cell_length_b                   27.834(2)
_cell_length_c                   10.1929(16)
_cell_angle_alpha                90
_cell_angle_beta                 120.5590(10)
_cell_angle_gamma                90
_cell_volume                     3998.84
_exptl_crystal_colour            'red orange'
_exptl_crystal_description       plate
_cell_formula_units_Z            4
loop_
_atom_site_label
_atom_site_type_symbol
_atom_site_fract_x
_atom_site_fract_y
_atom_site_fract_z
C1 C 0.0850(3) 0.25286(13) 0.3329(5)
H1 H 0.0999 0.2185 0.3441
H2 H 0.0332 0.2589 0.3526
H3 H 0.1412 0.2710 0.4059
C2 C 0.0310(3) 0.32182(14) 0.1575(5)
H4 H 0.0846 0.3396 0.2386
H5 H -0.0253 0.3267 0.1664
H6 H 0.0183 0.3335 0.0581
C3 C -0.0325(3) 0.2413(2) 0.0606(7)
H7 H -0.0504 0.2504 -0.0435
H8 H -0.0846 0.2489 0.0781
H9 H -0.0194 0.2067 0.0745
C4 C 0.05503(19) 0.26865(11) 0.1724(3)
C5 C 0.13751(17) 0.25924(9) 0.1447(3)
C6 C 0.20984(17) 0.29311(9) 0.1876(3)
H10 H 0.2075 0.3224 0.2335
C7 C 0.28466(16) 0.28460(8) 0.1642(2)
C8 C 0.36917(16) 0.31335(8) 0.2041(3)
C9 C 0.39276(16) 0.35953(8) 0.2630(2)
H11 H 0.3533 0.3762 0.2911
C10 C 0.47385(17) 0.38146(8) 0.2808(3)
C11 C 0.50342(19) 0.43235(8) 0.3450(3)
C12 C 0.6036(2) 0.43114(12) 0.4810(4)
H12 H 0.6074 0.4074 0.5548
H13 H 0.6203 0.4629 0.5290
H14 H 0.6479 0.4224 0.4470
C13 C 0.4968(3) 0.46567(11) 0.2236(4)
H15 H 0.5424 0.4557 0.1936
H16 H 0.5112 0.4985 0.2634
H17 H 0.4324 0.4645 0.1348
C14 C 0.4399(3) 0.45282(12) 0.4033(5)
H18 H 0.3746 0.4559 0.3179
H19 H 0.4636 0.4845 0.4490
H20 H 0.4412 0.4311 0.4799
C15 C 0.52803(17) 0.35614(8) 0.2326(3)
H21 H 0.5822 0.3714 0.2401
C16 C 0.50609(16) 0.30988(8) 0.1747(3)
H22 H 0.5441 0.2939 0.1423
C17 C 0.42696(16) 0.28725(8) 0.1649(2)
C18 C 0.38053(16) 0.24114(8) 0.0949(3)
C19 C 0.28991(16) 0.24150(8) 0.0946(2)
C20 C 0.22099(17) 0.20677(9) 0.0597(3)
H23 H 0.2252 0.1766 0.0199
C21 C 0.14620(17) 0.21601(9) 0.0828(3)
H24 H 0.0989 0.1921 0.0556
C22 C 0.41266(16) 0.20587(8) 0.0387(3)
C23 C 0.51175(16) 0.19047(8) 0.0953(3)
C24 C 0.59746(16) 0.20273(8) 0.2249(3)
H25 H 0.5992 0.2267 0.2926
C25 C 0.68036(17) 0.17957(9) 0.2542(3)
H26 H 0.7386 0.1889 0.3411
C26 C 0.68113(17) 0.14278(9) 0.1600(3)
C27 C 0.8187(2) 0.09426(13) 0.3495(3)
H27 H 0.8792 0.0796 0.3735
H28 H 0.7752 0.0692 0.3447
H29 H 0.8295 0.1175 0.4289
C28 C 0.8431(2) 0.15893(13) 0.2057(5)
H30 H 0.8162 0.1752 0.1070
H31 H 0.9043 0.1445 0.2321
H32 H 0.8525 0.1823 0.2841
C29 C 0.7628(2) 0.08314(13) 0.0744(4)
H33 H 0.7320 0.0988 -0.0256
H34 H 0.7232 0.0565 0.0727
H35 H 0.8250 0.0708 0.0984
C30 C 0.77547(18) 0.11977(10) 0.1963(3)
C31 C 0.59424(17) 0.12846(9) 0.0366(3)
H36 H 0.5918 0.1026 -0.0260
C32 C 0.51153(15) 0.15177(8) 0.0049(2)
C33 C 0.41280(16) 0.14346(8) -0.1179(3)
C34 C 0.37668(17) 0.11480(8) -0.2465(3)
H37 H 0.4171 0.0930 -0.2586
C35 C 0.28036(17) 0.11786(8) -0.3590(3)
C36 C 0.2746(2) 0.03648(10) -0.4674(4)
H38 H 0.2515 0.0230 -0.4034
H39 H 0.3441 0.0351 -0.4125
H40 H 0.2490 0.0178 -0.5617
C37 C 0.2819(2) 0.11032(11) -0.6001(3)
H41 H 0.2598 0.0915 -0.6934
H42 H 0.3514 0.1097 -0.5404
H43 H 0.2601 0.1436 -0.6268
C38 C 0.1334(2) 0.08915(12) -0.6015(3)
H44 H 0.1074 0.0759 -0.5412
H45 H 0.1124 0.0696 -0.6931
H46 H 0.1110 0.1222 -0.6311
C39 C 0.24221(19) 0.08879(9) -0.5060(3)
C40 C 0.22396(17) 0.15100(9) -0.3385(3)
H47 H 0.1591 0.1540 -0.4152
C41 C 0.25946(17) 0.17974(9) -0.2096(3)
H48 H 0.2193 0.2022 -0.1996
C42 C 0.35368(16) 0.17548(8) -0.0957(3)
C43 C 0.4074(3) 0.07896(12) 0.1934(4)
H49 H 0.3507 0.0601 0.1688
H50 H 0.4236 0.0742 0.1140
H51 H 0.3947 0.1131 0.1988
C44 C 0.4887(2) 0.06291(10) 0.3443(3)
C45 C 0.4780(2) 0.02818(11) 0.4305(4)
H52 H 0.4178 0.0134 0.3933
C46 C 0.5533(3) 0.01446(14) 0.5705(4)
H53 H 0.5451 -0.0099 0.6282
C47 C 0.6404(3) 0.03637(16) 0.6256(5)
H54 H 0.6918 0.0284 0.7238
C48 C 0.6524(3) 0.07001(14) 0.5365(5)
H55 H 0.7132 0.0838 0.5712
C49 C 0.5774(3) 0.08336(12) 0.3995(4)
H56 H 0.5860 0.1071 0.3407
loop_
_geom_bond_atom_site_label_1
_geom_bond_atom_site_label_2
_geom_bond_site_symmetry_1
_geom_bond_site_symmetry_2
C1 H1 1_555 1_555
H2 C1 1_555 1_555
H3 C1 1_555 1_555
C2 H4 1_555 1_555
H5 C2 1_555 1_555
H6 C2 1_555 1_555
C3 H7 1_555 1_555
H8 C3 1_555 1_555
H9 C3 1_555 1_555
C4 C1 1_555 1_555
C5 C4 1_555 1_555
C6 C5 1_555 1_555
H10 C6 1_555 1_555
C7 C6 1_555 1_555
C8 C7 1_555 1_555
C9 C8 1_555 1_555
H11 C9 1_555 1_555
C10 C9 1_555 1_555
C11 C10 1_555 1_555
C12 C11 1_555 1_555
H12 C12 1_555 1_555
H13 C12 1_555 1_555
H14 C12 1_555 1_555
C13 C11 1_555 1_555
H15 C13 1_555 1_555
H16 C13 1_555 1_555
H17 C13 1_555 1_555
C14 C11 1_555 1_555
H18 C14 1_555 1_555
H19 C14 1_555 1_555
H20 C14 1_555 1_555
C15 C10 1_555 1_555
H21 C15 1_555 1_555
C16 C15 1_555 1_555
H22 C16 1_555 1_555
C17 C8 1_555 1_555
C18 C17 1_555 1_555
C19 C7 1_555 1_555
C20 C19 1_555 1_555
H23 C20 1_555 1_555
C21 C5 1_555 1_555
H24 C21 1_555 1_555
C22 C18 1_555 1_555
C23 C22 1_555 1_555
C24 C23 1_555 1_555
H25 C24 1_555 1_555
C25 C24 1_555 1_555
H26 C25 1_555 1_555
C26 C25 1_555 1_555
C27 H27 1_555 1_555
H28 C27 1_555 1_555
H29 C27 1_555 1_555
C28 H30 1_555 1_555
H31 C28 1_555 1_555
H32 C28 1_555 1_555
C29 H33 1_555 1_555
H34 C29 1_555 1_555
H35 C29 1_555 1_555
C30 C26 1_555 1_555
C31 C26 1_555 1_555
H36 C31 1_555 1_555
C32 C23 1_555 1_555
C33 C32 1_555 1_555
C34 C33 1_555 1_555
H37 C34 1_555 1_555
C35 C34 1_555 1_555
C36 H38 1_555 1_555
H39 C36 1_555 1_555
H40 C36 1_555 1_555
C37 H41 1_555 1_555
H42 C37 1_555 1_555
H43 C37 1_555 1_555
C38 H44 1_555 1_555
H45 C38 1_555 1_555
H46 C38 1_555 1_555
C39 C35 1_555 1_555
C40 C35 1_555 1_555
H47 C40 1_555 1_555
C41 C40 1_555 1_555
H48 C41 1_555 1_555
C42 C22 1_555 1_555
C43 H49 1_555 1_555
H50 C43 1_555 1_555
H51 C43 1_555 1_555
C44 C43 1_555 1_555
C45 C44 1_555 1_555
H52 C45 1_555 1_555
C46 C45 1_555 1_555
H53 C46 1_555 1_555
C47 C46 1_555 1_555
H54 C47 1_555 1_555
C48 C47 1_555 1_555
H55 C48 1_555 1_555
C49 C44 1_555 1_555
H56 C49 1_555 1_555
C2 C4 1_555 1_555
C3 C4 1_555 1_555
C16 C17 1_555 1_555
C18 C19 1_555 1_555
C20 C21 1_555 1_555
C27 C30 1_555 1_555
C28 C30 1_555 1_555
C29 C30 1_555 1_555
C31 C32 1_555 1_555
C33 C42 1_555 1_555
C36 C39 1_555 1_555
C37 C39 1_555 1_555
C38 C39 1_555 1_555
C41 C42 1_555 1_555
C48 C49 1_555 1_555

#END
