
#######################################################################
#
#                 Cambridge Crystallographic Data Centre
#                                CCDC 
#
#######################################################################
#
# If this CIF has been generated from an entry in the Cambridge 
# Structural Database, then it will include bibliographic, chemical, 
# crystal, experimental, refinement or atomic coordinate data resulting 
# from the CCDC's data processing and validation procedures.
#
#######################################################################

data_QIRKEK
_chemical_formula_moiety         'C21 H16 Cl1 N3 O2'
_chemical_name_systematic        
(Z)-2-(4-chlorophenyl)-4-(furan-2-yl(phenylamino)methylene)-5-methyl-2,4-dihydro-3H-pyrazol-3-one
_symmetry_cell_setting           monoclinic
_symmetry_space_group_name_H-M   'C 2/c'
_symmetry_Int_Tables_number      15
_space_group_name_Hall           '-C 2yn'
loop_
_symmetry_equiv_pos_site_id
_symmetry_equiv_pos_as_xyz
1 x,y,z
2 -x,y,1/2-z
3 1/2+x,1/2+y,z
4 1/2-x,1/2+y,1/2-z
5 -x,-y,-z
6 x,-y,1/2+z
7 1/2-x,1/2-y,-z
8 1/2+x,1/2-y,1/2+z
_cell_length_a                   19.0523(19)
_cell_length_b                   9.3818(8)
_cell_length_c                   21.0602(17)
_cell_angle_alpha                90
_cell_angle_beta                 107.303(10)
_cell_angle_gamma                90
_cell_volume                     3594.05
_exptl_crystal_colour            yellow
_exptl_crystal_description       block
_cell_formula_units_Z            8
loop_
_atom_site_label
_atom_site_type_symbol
_atom_site_fract_x
_atom_site_fract_y
_atom_site_fract_z
C1 C 0.88256(17) 1.1454(3) 1.06969(14)
C2 C 0.94649(17) 1.1149(4) 1.05304(15)
H1 H 0.944698 1.053288 1.018002
C3 C 1.01238(18) 1.1759(4) 1.08835(16)
H2 H 1.054985 1.154929 1.077258
C4 C 1.01520(18) 1.2683(4) 1.14024(16)
C5 C 0.95207(18) 1.2992(4) 1.15736(16)
H3 H 0.953996 1.361170 1.192313
C6 C 0.88633(18) 1.2374(4) 1.12217(15)
H4 H 0.843961 1.257633 1.133782
C7 C 0.79680(18) 1.0022(4) 0.97735(15)
C8 C 0.72020(16) 0.9668(4) 0.96525(15)
C9 C 0.69876(17) 1.0374(4) 1.01752(16)
C10 C 0.62545(17) 1.0470(4) 1.02971(17)
H5 H 0.626158 1.123017 1.060416
H6 H 0.614987 0.958669 1.048044
H7 H 0.588159 1.065500 0.988489
C11 C 0.68157(17) 0.8888(4) 0.90977(15)
C12 C 0.60639(17) 0.8413(4) 0.89913(15)
C13 C 0.57339(19) 0.7722(4) 0.93781(16)
H8 H 0.594225 0.748843 0.982368
C14 C 0.50046(19) 0.7411(4) 0.89818(17)
H9 H 0.464593 0.692382 0.911336
C15 C 0.49401(18) 0.7963(4) 0.83786(17)
H10 H 0.451508 0.792724 0.801934
C16 C 0.69194(17) 0.7578(4) 0.80940(16)
C17 C 0.70977(18) 0.7878(4) 0.75142(16)
H11 H 0.734067 0.872306 0.748416
C18 C 0.69241(18) 0.6957(4) 0.69871(16)
H12 H 0.705704 0.715855 0.660604
C19 C 0.65424(18) 0.5706(4) 0.70327(17)
H13 H 0.640999 0.508345 0.667316
C20 C 0.63578(19) 0.5379(4) 0.76074(16)
H14 H 0.609962 0.455002 0.763201
C21 C 0.6563(2) 0.6301(4) 0.81384(17)
H15 H 0.646292 0.606965 0.853197
Cl1 Cl 1.09890(5) 1.34391(11) 1.18441(4)
H16 H 0.7601(19) 0.888(4) 0.8747(16)
N1 N 0.81516(14) 1.0824(3) 1.03466(12)
N2 N 0.75371(14) 1.1057(3) 1.05768(12)
N3 N 0.71433(17) 0.8573(3) 0.86296(14)
O1 O 0.83889(12) 0.9723(3) 0.94399(10)
O2 O 0.55829(12) 0.8584(2) 0.83646(10)
loop_
_geom_bond_atom_site_label_1
_geom_bond_atom_site_label_2
_geom_bond_site_symmetry_1
_geom_bond_site_symmetry_2
C1 C2 1_555 1_555
C2 H1 1_555 1_555
C3 C2 1_555 1_555
H2 C3 1_555 1_555
C4 C3 1_555 1_555
C5 C4 1_555 1_555
H3 C5 1_555 1_555
C6 C1 1_555 1_555
H4 C6 1_555 1_555
C7 C8 1_555 1_555
C8 C9 1_555 1_555
C9 C10 1_555 1_555
C10 H5 1_555 1_555
H6 C10 1_555 1_555
H7 C10 1_555 1_555
C11 C8 1_555 1_555
C12 C11 1_555 1_555
C13 C12 1_555 1_555
H8 C13 1_555 1_555
C14 C13 1_555 1_555
H9 C14 1_555 1_555
C15 C14 1_555 1_555
H10 C15 1_555 1_555
C16 C17 1_555 1_555
C17 H11 1_555 1_555
C18 C17 1_555 1_555
H12 C18 1_555 1_555
C19 C18 1_555 1_555
H13 C19 1_555 1_555
C20 C19 1_555 1_555
H14 C20 1_555 1_555
C21 C16 1_555 1_555
H15 C21 1_555 1_555
Cl1 C4 1_555 1_555
H16 N3 1_555 1_555
N1 C1 1_555 1_555
N2 C9 1_555 1_555
N3 C11 1_555 1_555
O1 C7 1_555 1_555
O2 C12 1_555 1_555
C5 C6 1_555 1_555
C7 N1 1_555 1_555
C15 O2 1_555 1_555
C16 N3 1_555 1_555
C20 C21 1_555 1_555
N1 N2 1_555 1_555

#END
