
#######################################################################
#
#                 Cambridge Crystallographic Data Centre
#                                CCDC 
#
#######################################################################
#
# If this CIF has been generated from an entry in the Cambridge 
# Structural Database, then it will include bibliographic, chemical, 
# crystal, experimental, refinement or atomic coordinate data resulting 
# from the CCDC's data processing and validation procedures.
#
#######################################################################

data_QIRLAH
_chemical_formula_moiety         'C31 H58 Cl1 N7'
_chemical_name_systematic        
N^2^,N^4^-dibutyl-6-chloro-N^2^,N^4^-bis(1,2,2,6,6-pentamethylpiperidin-4-yl)-1,3,5-triazine-2,4-diamine
_symmetry_cell_setting           monoclinic
_symmetry_space_group_name_H-M   'P 21/c'
_symmetry_Int_Tables_number      14
_space_group_name_Hall           '-P 2ybc'
loop_
_symmetry_equiv_pos_site_id
_symmetry_equiv_pos_as_xyz
1 x,y,z
2 -x,1/2+y,1/2-z
3 -x,-y,-z
4 x,1/2-y,1/2+z
_cell_length_a                   29.9370(18)
_cell_length_b                   15.6432(8)
_cell_length_c                   14.2792(8)
_cell_angle_alpha                90
_cell_angle_beta                 90.819(2)
_cell_angle_gamma                90
_cell_volume                     6686.42
_exptl_crystal_colour            colorless
_exptl_crystal_description       block
_cell_formula_units_Z            8
loop_
_atom_site_label
_atom_site_type_symbol
_atom_site_fract_x
_atom_site_fract_y
_atom_site_fract_z
C1 C 0.26829(11) 0.3979(2) 0.1596(2)
C2 C 0.33707(11) 0.4313(2) 0.1164(2)
C3 C 0.31006(11) 0.4797(2) 0.2537(2)
C4 C 0.40603(13) 0.2744(2) -0.1439(3)
C5 C 0.41011(11) 0.3296(2) -0.0560(2)
H1 H 0.4197 0.2933 -0.0027
H2 H 0.4335 0.3733 -0.0657
C6 C 0.36684(11) 0.3740(2) -0.0315(2)
H3 H 0.3437 0.3292 -0.0204
C7 C 0.35167(12) 0.4278(2) -0.1147(2)
H4 H 0.3739 0.4735 -0.1251
H5 H 0.3229 0.4555 -0.0996
C8 C 0.34571(12) 0.3762(2) -0.2055(2)
C9 C 0.38706(17) 0.2823(3) -0.3125(3)
H6 H 0.4169 0.2594 -0.3247
H7 H 0.3786 0.3227 -0.3621
H8 H 0.3654 0.2353 -0.3112
C10 C 0.37989(16) 0.1909(2) -0.1225(3)
H9 H 0.3512 0.2054 -0.0941
H10 H 0.3974 0.1555 -0.0789
H11 H 0.3745 0.1593 -0.1808
C11 C 0.45398(14) 0.2478(3) -0.1692(3)
H12 H 0.4528 0.2026 -0.2168
H13 H 0.4696 0.2265 -0.1131
H14 H 0.4700 0.2973 -0.1939
C12 C 0.30264(13) 0.3226(3) -0.2003(3)
H15 H 0.3020 0.2809 -0.2515
H16 H 0.2766 0.3603 -0.2059
H17 H 0.3019 0.2924 -0.1402
C13 C 0.33966(16) 0.4421(3) -0.2842(3)
H18 H 0.3682 0.4706 -0.2956
H19 H 0.3174 0.4846 -0.2659
H20 H 0.3295 0.4131 -0.3416
C14 C 0.40926(11) 0.4853(2) 0.0654(2)
H21 H 0.3983 0.5406 0.0897
H22 H 0.4220 0.4960 0.0029
C15 C 0.44614(11) 0.4529(2) 0.1302(2)
H23 H 0.4574 0.3978 0.1059
H24 H 0.4336 0.4422 0.1929
C16 C 0.48495(12) 0.5155(2) 0.1396(3)
H25 H 0.4978 0.5254 0.0770
H26 H 0.4735 0.5709 0.1627
C17 C 0.52144(13) 0.4847(3) 0.2053(3)
H27 H 0.5091 0.4751 0.2675
H28 H 0.5451 0.5279 0.2094
H29 H 0.5339 0.4311 0.1815
C18 C 0.38858(13) 0.7230(2) 0.3488(3)
C19 C 0.34609(13) 0.6689(2) 0.3393(3)
H30 H 0.3242 0.6884 0.3859
H31 H 0.3328 0.6777 0.2761
C20 C 0.35516(12) 0.5747(2) 0.3537(2)
H32 H 0.3784 0.5572 0.3078
C21 C 0.37470(13) 0.5622(2) 0.4509(3)
H33 H 0.3806 0.5006 0.4612
H34 H 0.3526 0.5809 0.4976
C22 C 0.41811(14) 0.6121(3) 0.4662(3)
C23 C 0.44883(18) 0.7587(3) 0.4616(4)
H35 H 0.4599 0.7471 0.5252
H36 H 0.4398 0.8188 0.4566
H37 H 0.4725 0.7469 0.4166
C24 C 0.41844(17) 0.7103(3) 0.2629(3)
H38 H 0.4463 0.7422 0.2718
H39 H 0.4028 0.7312 0.2066
H40 H 0.4252 0.6493 0.2555
C25 C 0.37391(17) 0.8176(3) 0.3495(4)
H41 H 0.3599 0.8308 0.4094
H42 H 0.3525 0.8278 0.2982
H43 H 0.4001 0.8544 0.3414
C26 C 0.45685(14) 0.5689(3) 0.4134(4)
H44 H 0.4485 0.5624 0.3471
H45 H 0.4629 0.5126 0.4407
H46 H 0.4837 0.6045 0.4188
C27 C 0.42895(19) 0.6066(3) 0.5716(3)
H47 H 0.4592 0.6282 0.5836
H48 H 0.4270 0.5470 0.5921
H49 H 0.4075 0.6412 0.6063
C28 C 0.27865(12) 0.5212(2) 0.4033(2)
H50 H 0.2498 0.5297 0.3698
H51 H 0.2828 0.5695 0.4475
C29 C 0.27680(13) 0.4387(2) 0.4581(3)
H52 H 0.2735 0.3905 0.4136
H53 H 0.3054 0.4310 0.4926
C30 C 0.23909(16) 0.4356(3) 0.5267(3)
H54 H 0.2448 0.4786 0.5764
H55 H 0.2110 0.4519 0.4937
C31 C 0.23274(18) 0.3507(3) 0.5714(3)
H56 H 0.2238 0.3089 0.5236
H57 H 0.2094 0.3548 0.6187
H58 H 0.2608 0.3324 0.6013
Cl1 Cl 0.21671(3) 0.35110(6) 0.13449(7)
N1 N 0.26999(9) 0.43953(18) 0.23970(18)
N2 N 0.29914(9) 0.38719(17) 0.09507(19)
N3 N 0.34409(9) 0.47881(17) 0.19321(18)
N4 N 0.37118(9) 0.42679(18) 0.05467(18)
N5 N 0.38746(10) 0.32660(19) -0.2215(2)
N6 N 0.31499(9) 0.52225(18) 0.33512(18)
N7 N 0.41027(11) 0.7038(2) 0.4410(2)
C32 C 0.22620(11) 0.8738(2) 0.1645(2)
C33 C 0.15926(11) 0.9183(2) 0.1164(2)
C34 C 0.18819(11) 0.9627(2) 0.2562(2)
C35 C 0.14532(12) 0.8773(2) -0.2102(2)
C36 C 0.14263(11) 0.9247(2) -0.1166(2)
H59 H 0.1724 0.9490 -0.1013
H60 H 0.1214 0.9729 -0.1237
C37 C 0.12786(11) 0.8691(2) -0.0352(2)
H61 H 0.1504 0.8226 -0.0261
C38 C 0.08329(11) 0.8281(2) -0.0607(2)
H62 H 0.0603 0.8734 -0.0658
H63 H 0.0746 0.7892 -0.0095
C39 C 0.08388(12) 0.7776(2) -0.1528(2)
C40 C 0.09836(15) 0.7941(3) -0.3216(2)
H64 H 0.1194 0.7464 -0.3254
H65 H 0.1056 0.8368 -0.3693
H66 H 0.0679 0.7731 -0.3324
C41 C 0.18703(13) 0.8199(2) -0.2117(3)
H67 H 0.1886 0.7859 -0.1540
H68 H 0.2138 0.8556 -0.2160
H69 H 0.1853 0.7816 -0.2659
C42 C 0.15117(14) 0.9473(2) -0.2845(2)
H70 H 0.1582 0.9208 -0.3447
H71 H 0.1756 0.9855 -0.2654
H72 H 0.1234 0.9802 -0.2909
C43 C 0.10848(14) 0.6921(2) -0.1379(3)
H73 H 0.1107 0.6620 -0.1978
H74 H 0.0919 0.6568 -0.0936
H75 H 0.1385 0.7031 -0.1126
C44 C 0.03484(13) 0.7566(2) -0.1777(3)
H76 H 0.0200 0.8079 -0.2022
H77 H 0.0195 0.7370 -0.1214
H78 H 0.0338 0.7114 -0.2253
C45 C 0.08858(11) 0.9799(2) 0.0647(2)
H79 H 0.0753 0.9935 0.0025
H80 H 0.1007 1.0337 0.0915
C46 C 0.05205(11) 0.9468(2) 0.1279(2)
H81 H 0.0392 0.8940 0.1003
H82 H 0.0653 0.9319 0.1896
C47 C 0.01503(11) 1.0112(2) 0.1416(2)
H83 H 0.0021 1.0266 0.0796
H84 H 0.0279 1.0638 0.1695
C48 C -0.02210(13) 0.9785(3) 0.2041(3)
H85 H -0.0366 0.9291 0.1744
H86 H -0.0442 1.0239 0.2133
H87 H -0.0094 0.9615 0.2649
C49 C 0.08348(12) 1.1103(2) 0.4588(2)
C50 C 0.12403(12) 1.0513(2) 0.4462(2)
H88 H 0.1458 1.0616 0.4979
H89 H 0.1141 0.9910 0.4501
C51 C 0.14706(11) 1.0654(2) 0.3529(2)
H90 H 0.1244 1.0560 0.3018
C52 C 0.16195(13) 1.1572(2) 0.3482(3)
H91 H 0.1772 1.1667 0.2880
H92 H 0.1839 1.1681 0.3993
C53 C 0.12328(14) 1.2214(2) 0.3563(3)
C54 C 0.06216(17) 1.2621(3) 0.4622(4)
H93 H 0.0375 1.2546 0.4171
H94 H 0.0741 1.3202 0.4569
H95 H 0.0512 1.2531 0.5258
C55 C 0.04405(13) 1.0789(3) 0.3974(3)
H96 H 0.0198 1.1210 0.3991
H97 H 0.0333 1.0240 0.4213
H98 H 0.0539 1.0718 0.3328
C56 C 0.07045(15) 1.1009(3) 0.5620(3)
H99 H 0.0934 1.1273 0.6020
H100 H 0.0679 1.0401 0.5776
H101 H 0.0417 1.1292 0.5721
C57 C 0.09587(16) 1.2217(3) 0.2646(3)
H102 H 0.0855 1.1636 0.2507
H103 H 0.1146 1.2421 0.2134
H104 H 0.0700 1.2596 0.2711
C58 C 0.14392(17) 1.3105(3) 0.3695(4)
H105 H 0.1208 1.3541 0.3606
H106 H 0.1675 1.3190 0.3236
H107 H 0.1567 1.3152 0.4329
C59 C 0.21869(11) 0.9933(2) 0.4116(2)
H108 H 0.2181 1.0426 0.4551
H109 H 0.2486 0.9915 0.3829
C60 C 0.21142(13) 0.9108(2) 0.4672(2)
H110 H 0.1807 0.9114 0.4921
H111 H 0.2135 0.8617 0.4238
C61 C 0.24411(14) 0.8964(3) 0.5486(3)
H112 H 0.2446 0.9484 0.5882
H113 H 0.2329 0.8488 0.5874
C62 C 0.29019(15) 0.8767(3) 0.5207(4)
H114 H 0.2900 0.8275 0.4782
H115 H 0.3083 0.8632 0.5765
H116 H 0.3030 0.9263 0.4888
Cl2 Cl 0.27567(3) 0.81828(6) 0.14199(7)
N8 N 0.22630(9) 0.91616(18) 0.24427(19)
N9 N 0.19552(9) 0.86809(17) 0.09815(19)
N10 N 0.15456(9) 0.96737(17) 0.19276(18)
N11 N 0.12569(9) 0.91909(17) 0.05227(18)
N12 N 0.10165(10) 0.83328(18) -0.22820(19)
N13 N 0.18456(9) 1.00567(18) 0.33765(19)
N14 N 0.09753(11) 1.20000(19) 0.4427(2)
loop_
_geom_bond_atom_site_label_1
_geom_bond_atom_site_label_2
_geom_bond_site_symmetry_1
_geom_bond_site_symmetry_2
C1 Cl1 1_555 1_555
C2 N2 1_555 1_555
C3 N1 1_555 1_555
C4 C5 1_555 1_555
C5 H1 1_555 1_555
H2 C5 1_555 1_555
C6 C5 1_555 1_555
H3 C6 1_555 1_555
C7 C6 1_555 1_555
H4 C7 1_555 1_555
H5 C7 1_555 1_555
C8 C7 1_555 1_555
C9 H6 1_555 1_555
H7 C9 1_555 1_555
H8 C9 1_555 1_555
C10 C4 1_555 1_555
H9 C10 1_555 1_555
H10 C10 1_555 1_555
H11 C10 1_555 1_555
C11 C4 1_555 1_555
H12 C11 1_555 1_555
H13 C11 1_555 1_555
H14 C11 1_555 1_555
C12 C8 1_555 1_555
H15 C12 1_555 1_555
H16 C12 1_555 1_555
H17 C12 1_555 1_555
C13 C8 1_555 1_555
H18 C13 1_555 1_555
H19 C13 1_555 1_555
H20 C13 1_555 1_555
C14 H21 1_555 1_555
H22 C14 1_555 1_555
C15 C14 1_555 1_555
H23 C15 1_555 1_555
H24 C15 1_555 1_555
C16 C15 1_555 1_555
H25 C16 1_555 1_555
H26 C16 1_555 1_555
C17 C16 1_555 1_555
H27 C17 1_555 1_555
H28 C17 1_555 1_555
H29 C17 1_555 1_555
C18 C19 1_555 1_555
C19 H30 1_555 1_555
H31 C19 1_555 1_555
C20 C19 1_555 1_555
H32 C20 1_555 1_555
C21 C20 1_555 1_555
H33 C21 1_555 1_555
H34 C21 1_555 1_555
C22 C21 1_555 1_555
C23 H35 1_555 1_555
H36 C23 1_555 1_555
H37 C23 1_555 1_555
C24 C18 1_555 1_555
H38 C24 1_555 1_555
H39 C24 1_555 1_555
H40 C24 1_555 1_555
C25 C18 1_555 1_555
H41 C25 1_555 1_555
H42 C25 1_555 1_555
H43 C25 1_555 1_555
C26 C22 1_555 1_555
H44 C26 1_555 1_555
H45 C26 1_555 1_555
H46 C26 1_555 1_555
C27 C22 1_555 1_555
H47 C27 1_555 1_555
H48 C27 1_555 1_555
H49 C27 1_555 1_555
C28 H50 1_555 1_555
H51 C28 1_555 1_555
C29 C28 1_555 1_555
H52 C29 1_555 1_555
H53 C29 1_555 1_555
C30 C29 1_555 1_555
H54 C30 1_555 1_555
H55 C30 1_555 1_555
C31 C30 1_555 1_555
H56 C31 1_555 1_555
H57 C31 1_555 1_555
H58 C31 1_555 1_555
N1 C1 1_555 1_555
N2 C1 1_555 1_555
N3 C2 1_555 1_555
N4 C2 1_555 1_555
N5 C4 1_555 1_555
N6 C3 1_555 1_555
N7 C18 1_555 1_555
C32 Cl2 1_555 1_555
C33 N9 1_555 1_555
C34 N8 1_555 1_555
C35 C36 1_555 1_555
C36 H59 1_555 1_555
H60 C36 1_555 1_555
C37 C36 1_555 1_555
H61 C37 1_555 1_555
C38 C37 1_555 1_555
H62 C38 1_555 1_555
H63 C38 1_555 1_555
C39 C38 1_555 1_555
C40 H64 1_555 1_555
H65 C40 1_555 1_555
H66 C40 1_555 1_555
C41 C35 1_555 1_555
H67 C41 1_555 1_555
H68 C41 1_555 1_555
H69 C41 1_555 1_555
C42 C35 1_555 1_555
H70 C42 1_555 1_555
H71 C42 1_555 1_555
H72 C42 1_555 1_555
C43 C39 1_555 1_555
H73 C43 1_555 1_555
H74 C43 1_555 1_555
H75 C43 1_555 1_555
C44 C39 1_555 1_555
H76 C44 1_555 1_555
H77 C44 1_555 1_555
H78 C44 1_555 1_555
C45 H79 1_555 1_555
H80 C45 1_555 1_555
C46 C45 1_555 1_555
H81 C46 1_555 1_555
H82 C46 1_555 1_555
C47 C46 1_555 1_555
H83 C47 1_555 1_555
H84 C47 1_555 1_555
C48 C47 1_555 1_555
H85 C48 1_555 1_555
H86 C48 1_555 1_555
H87 C48 1_555 1_555
C49 C50 1_555 1_555
C50 H88 1_555 1_555
H89 C50 1_555 1_555
C51 C50 1_555 1_555
H90 C51 1_555 1_555
C52 C51 1_555 1_555
H91 C52 1_555 1_555
H92 C52 1_555 1_555
C53 C52 1_555 1_555
C54 H93 1_555 1_555
H94 C54 1_555 1_555
H95 C54 1_555 1_555
C55 C49 1_555 1_555
H96 C55 1_555 1_555
H97 C55 1_555 1_555
H98 C55 1_555 1_555
C56 C49 1_555 1_555
H99 C56 1_555 1_555
H100 C56 1_555 1_555
H101 C56 1_555 1_555
C57 C53 1_555 1_555
H102 C57 1_555 1_555
H103 C57 1_555 1_555
H104 C57 1_555 1_555
C58 C53 1_555 1_555
H105 C58 1_555 1_555
H106 C58 1_555 1_555
H107 C58 1_555 1_555
C59 H108 1_555 1_555
H109 C59 1_555 1_555
C60 C59 1_555 1_555
H110 C60 1_555 1_555
H111 C60 1_555 1_555
C61 C60 1_555 1_555
H112 C61 1_555 1_555
H113 C61 1_555 1_555
C62 C61 1_555 1_555
H114 C62 1_555 1_555
H115 C62 1_555 1_555
H116 C62 1_555 1_555
N8 C32 1_555 1_555
N9 C32 1_555 1_555
N10 C33 1_555 1_555
N11 C33 1_555 1_555
N12 C35 1_555 1_555
N13 C34 1_555 1_555
N14 C49 1_555 1_555
C3 N3 1_555 1_555
C6 N4 1_555 1_555
C8 N5 1_555 1_555
C9 N5 1_555 1_555
C14 N4 1_555 1_555
C20 N6 1_555 1_555
C22 N7 1_555 1_555
C23 N7 1_555 1_555
C28 N6 1_555 1_555
C34 N10 1_555 1_555
C37 N11 1_555 1_555
C39 N12 1_555 1_555
C40 N12 1_555 1_555
C45 N11 1_555 1_555
C51 N13 1_555 1_555
C53 N14 1_555 1_555
C54 N14 1_555 1_555
C59 N13 1_555 1_555

#END
