
#######################################################################
#
#                 Cambridge Crystallographic Data Centre
#                                CCDC 
#
#######################################################################
#
# If this CIF has been generated from an entry in the Cambridge 
# Structural Database, then it will include bibliographic, chemical, 
# crystal, experimental, refinement or atomic coordinate data resulting 
# from the CCDC's data processing and validation procedures.
#
#######################################################################

data_QIRLEL
_chemical_formula_moiety         'C20 H18 N1 O4 1+,C15 H9 O5 1-,3(H2 O1)'
_chemical_name_systematic        
'9,10-dimethoxy-5,6-dihydro-2H-[1,3]dioxolo[4,5-g]isoquinolino[3,2-a]isoquinolin-7-ium 5-hydroxy-2-(4-hydroxyphenyl)-4-oxo-4H-1-benzopyran-7-olate trihydrate'
_symmetry_cell_setting           monoclinic
_symmetry_space_group_name_H-M   'P 21/c'
_symmetry_Int_Tables_number      14
_space_group_name_Hall           '-P 2ybc'
loop_
_symmetry_equiv_pos_site_id
_symmetry_equiv_pos_as_xyz
1 x,y,z
2 -x,1/2+y,1/2-z
3 -x,-y,-z
4 x,1/2-y,1/2+z
_cell_length_a                   7.595(4)
_cell_length_b                   19.478(9)
_cell_length_c                   20.910(11)
_cell_angle_alpha                90
_cell_angle_beta                 99.124(10)
_cell_angle_gamma                90
_cell_volume                     3054.19
_exptl_crystal_colour            yellow
_exptl_crystal_description       prism
_cell_formula_units_Z            4
loop_
_atom_site_label
_atom_site_type_symbol
_atom_site_fract_x
_atom_site_fract_y
_atom_site_fract_z
O1 O 0.6759(2) 0.16249(6) 0.37216(7)
O2 O 0.9555(2) 0.15910(8) 0.55597(8)
O3 O 0.8920(3) 0.28931(8) 0.56590(8)
O4 O 0.5491(2) 0.39878(7) 0.38534(8)
O5 O 0.6618(2) -0.11790(7) 0.22189(8)
H1 H 0.599036 -0.107798 0.180193
H2 H 0.911146 0.241042 0.574333
C1 C 0.7513(3) 0.10297(10) 0.39789(11)
C2 C 0.8391(3) 0.10071(11) 0.45904(11)
H3 H 0.885575 0.057963 0.475887
C3 C 0.8653(3) 0.16044(11) 0.49993(11)
C4 C 0.7966(3) 0.28650(11) 0.50477(11)
C5 C 0.7204(3) 0.34417(10) 0.47581(11)
H4 H 0.732120 0.386366 0.498870
C6 C 0.6241(3) 0.34264(10) 0.41221(11)
C7 C 0.6105(3) 0.27952(10) 0.37835(11)
H5 H 0.547449 0.276894 0.335390
C8 C 0.6896(3) 0.22204(9) 0.40833(10)
C9 C 0.7835(3) 0.22220(10) 0.47153(10)
C10 C 0.7274(3) 0.04634(9) 0.35101(10)
C11 C 0.6411(3) 0.05574(10) 0.28771(11)
H6 H 0.596468 0.099943 0.274550
C12 C 0.6186(3) 0.00230(10) 0.24344(12)
H7 H 0.560307 0.010183 0.200421
C13 C 0.7937(3) -0.01975(10) 0.36856(11)
H8 H 0.854860 -0.027546 0.411206
C14 C 0.7714(3) -0.07308(10) 0.32502(11)
H9 H 0.817476 -0.117181 0.337876
C15 C 0.6818(3) -0.06313(10) 0.26215(11)
O6 O 0.1372(2) 0.25447(8) 0.37144(9)
O7 O 0.0651(2) 0.17089(8) 0.26771(8)
O8 O 0.6182(3) -0.26770(8) 0.42830(10)
O9 O 0.4765(3) -0.33973(8) 0.34823(10)
N1 N 0.1942(2) -0.03439(9) 0.28124(8)
C16 C 0.1818(4) 0.20944(15) 0.23324(14)
H10 H 0.228561 0.249252 0.259179
H11 H 0.115338 0.225113 0.191803
H12 H 0.281102 0.180188 0.225277
C17 C 0.1771(3) 0.30146(12) 0.42435(13)
H13 H 0.120862 0.285571 0.460740
H14 H 0.131255 0.347075 0.410728
H15 H 0.306560 0.303909 0.437807
C18 C 0.1834(3) 0.18765(11) 0.38027(11)
C19 C 0.1461(3) 0.14606(11) 0.32627(11)
C20 C 0.1870(3) 0.07544(11) 0.33109(10)
C21 C 0.2627(3) 0.15904(11) 0.43943(12)
H16 H 0.289322 0.187914 0.476315
C22 C 0.3027(3) 0.09044(11) 0.44542(11)
H17 H 0.354325 0.072416 0.486332
C23 C 0.2677(3) 0.04640(10) 0.39129(10)
C24 C 0.3085(3) -0.02352(11) 0.39252(11)
H18 H 0.358816 -0.043736 0.432615
C25 C 0.1494(3) 0.03153(11) 0.27743(11)
H19 H 0.090400 0.049414 0.237436
C26 C 0.2790(3) -0.06442(10) 0.33829(10)
C27 C 0.3302(3) -0.13695(11) 0.33735(11)
C28 C 0.2482(3) -0.17992(11) 0.28792(11)
C29 C 0.1132(3) -0.14919(12) 0.23595(12)
H20 H -0.005262 -0.149365 0.249987
H21 H 0.105245 -0.177281 0.196129
C30 C 0.1635(3) -0.07663(12) 0.22152(12)
H22 H 0.273207 -0.077156 0.201487
H23 H 0.066905 -0.055824 0.190150
C31 C 0.2901(3) -0.25012(11) 0.28789(12)
H24 H 0.235070 -0.279782 0.254532
C32 C 0.4596(3) -0.16306(11) 0.38706(12)
H25 H 0.518934 -0.134105 0.420209
C33 C 0.4964(3) -0.23130(11) 0.38583(12)
C34 C 0.4132(3) -0.27416(11) 0.33771(13)
C35 C 0.5970(4) -0.33774(12) 0.40823(14)
H26 H 0.548670 -0.365017 0.441433
H27 H 0.713682 -0.357401 0.402482
O10 O 0.7168(4) 0.52290(14) 0.56150(14)
H28 H 0.658216 0.532572 0.519083
H29 H 0.622626 0.540802 0.582663
H30 H 0.846156 0.450772 0.619763
H31 H 0.943496 0.389722 0.610303
O11 O 0.9640(3) 0.43444(11) 0.62620(11)
H32 H 0.652336 0.487542 0.413473
H33 H 0.832086 0.535472 0.404663
O12 O 0.7457(4) 0.51596(11) 0.43060(13)
loop_
_geom_bond_atom_site_label_1
_geom_bond_atom_site_label_2
_geom_bond_site_symmetry_1
_geom_bond_site_symmetry_2
O1 C1 1_555 1_555
O2 C3 1_555 1_555
O3 H2 1_555 1_555
O4 C6 1_555 1_555
O5 H1 1_555 1_555
C1 C2 1_555 1_555
C2 H3 1_555 1_555
C3 C2 1_555 1_555
C4 O3 1_555 1_555
C5 C4 1_555 1_555
H4 C5 1_555 1_555
C6 C5 1_555 1_555
C7 C6 1_555 1_555
H5 C7 1_555 1_555
C8 O1 1_555 1_555
C9 C3 1_555 1_555
C10 C1 1_555 1_555
C11 C10 1_555 1_555
H6 C11 1_555 1_555
C12 C11 1_555 1_555
H7 C12 1_555 1_555
C13 C10 1_555 1_555
H8 C13 1_555 1_555
C14 C13 1_555 1_555
H9 C14 1_555 1_555
C15 O5 1_555 1_555
O6 C17 1_555 1_555
O7 C16 1_555 1_555
O8 C33 1_555 1_555
O9 C34 1_555 1_555
N1 C25 1_555 1_555
C16 H10 1_555 1_555
H11 C16 1_555 1_555
H12 C16 1_555 1_555
C17 H13 1_555 1_555
H14 C17 1_555 1_555
H15 C17 1_555 1_555
C18 O6 1_555 1_555
C19 O7 1_555 1_555
C20 C19 1_555 1_555
C21 C18 1_555 1_555
H16 C21 1_555 1_555
C22 C21 1_555 1_555
H17 C22 1_555 1_555
C23 C20 1_555 1_555
C24 C23 1_555 1_555
H18 C24 1_555 1_555
C25 C20 1_555 1_555
H19 C25 1_555 1_555
C26 N1 1_555 1_555
C27 C26 1_555 1_555
C28 C27 1_555 1_555
C29 C28 1_555 1_555
H20 C29 1_555 1_555
H21 C29 1_555 1_555
C30 N1 1_555 1_555
H22 C30 1_555 1_555
H23 C30 1_555 1_555
C31 C28 1_555 1_555
H24 C31 1_555 1_555
C32 C27 1_555 1_555
H25 C32 1_555 1_555
C33 C32 1_555 1_555
C34 C31 1_555 1_555
C35 O8 1_555 1_555
H26 C35 1_555 1_555
H27 C35 1_555 1_555
O10 H28 1_555 1_555
H29 O10 1_555 1_555
H30 O11 1_555 1_555
H31 O11 1_555 1_555
H32 O12 1_555 1_555
H33 O12 1_555 1_555
C4 C9 1_555 1_555
C7 C8 1_555 1_555
C8 C9 1_555 1_555
C12 C15 1_555 1_555
C14 C15 1_555 1_555
O9 C35 1_555 1_555
C18 C19 1_555 1_555
C22 C23 1_555 1_555
C24 C26 1_555 1_555
C29 C30 1_555 1_555
C33 C34 1_555 1_555

#END
