
#######################################################################
#
#                 Cambridge Crystallographic Data Centre
#                                CCDC 
#
#######################################################################
#
# If this CIF has been generated from an entry in the Cambridge 
# Structural Database, then it will include bibliographic, chemical, 
# crystal, experimental, refinement or atomic coordinate data resulting 
# from the CCDC's data processing and validation procedures.
#
#######################################################################

data_QIRPEP
_chemical_formula_moiety         'C8 H8 N2 O4'
_chemical_name_systematic        1,2-dimethyl-3,5-dinitrobenzene
_symmetry_cell_setting           monoclinic
_symmetry_space_group_name_H-M   'P 21/n'
_symmetry_Int_Tables_number      14
_space_group_name_Hall           '-P 2yn'
loop_
_symmetry_equiv_pos_site_id
_symmetry_equiv_pos_as_xyz
1 x,y,z
2 1/2-x,1/2+y,1/2-z
3 -x,-y,-z
4 1/2+x,1/2-y,1/2+z
_cell_length_a                   14.6418(13)
_cell_length_b                   3.8852(4)
_cell_length_c                   15.7884(15)
_cell_angle_alpha                90
_cell_angle_beta                 108.417(3)
_cell_angle_gamma                90
_cell_volume                     852.143
_exptl_crystal_colour            colorless
_exptl_crystal_description       plate
_cell_formula_units_Z            4
loop_
_atom_site_label
_atom_site_type_symbol
_atom_site_fract_x
_atom_site_fract_y
_atom_site_fract_z
C1 C 0.89018(17) 0.5728(7) 0.59829(16)
C2 C 0.82359(17) 0.4472(7) 0.63513(15)
H1 H 0.8403 0.3934 0.6969
C3 C 0.73106(17) 0.4029(6) 0.57781(16)
C4 C 0.70172(17) 0.4776(6) 0.48635(16)
C5 C 0.77280(17) 0.6066(6) 0.45200(16)
C6 C 0.86628(17) 0.6550(7) 0.50862(16)
H2 H 0.9140 0.7449 0.4856
C7 C 0.59891(17) 0.4388(7) 0.42663(17)
H3 H 0.5870 0.1985 0.4074
H4 H 0.5880 0.5873 0.3742
H5 H 0.5550 0.5054 0.4595
C8 C 0.74948(19) 0.6960(8) 0.35423(17)
H6 H 0.8080 0.7751 0.3427
H7 H 0.7009 0.8789 0.3387
H8 H 0.7244 0.4917 0.3179
N1 N 0.98979(15) 0.6254(6) 0.65640(15)
N2 N 0.66063(15) 0.2775(6) 0.62040(14)
O1 O 1.04325(13) 0.7993(6) 0.62793(13)
O2 O 1.01401(14) 0.4903(6) 0.73024(13)
O3 O 0.60282(13) 0.0551(5) 0.58169(14)
O4 O 0.66485(13) 0.4010(6) 0.69287(12)
loop_
_geom_bond_atom_site_label_1
_geom_bond_atom_site_label_2
_geom_bond_site_symmetry_1
_geom_bond_site_symmetry_2
C1 C2 1_555 1_555
C2 H1 1_555 1_555
C3 C2 1_555 1_555
C4 C3 1_555 1_555
C5 C4 1_555 1_555
C6 C1 1_555 1_555
H2 C6 1_555 1_555
C7 C4 1_555 1_555
H3 C7 1_555 1_555
H4 C7 1_555 1_555
H5 C7 1_555 1_555
C8 C5 1_555 1_555
H6 C8 1_555 1_555
H7 C8 1_555 1_555
H8 C8 1_555 1_555
N1 C1 1_555 1_555
N2 C3 1_555 1_555
O1 N1 1_555 1_555
O2 N1 1_555 1_555
O3 N2 1_555 1_555
O4 N2 1_555 1_555
C5 C6 1_555 1_555

#END
