
#######################################################################
#
#                 Cambridge Crystallographic Data Centre
#                                CCDC 
#
#######################################################################
#
# If this CIF has been generated from an entry in the Cambridge 
# Structural Database, then it will include bibliographic, chemical, 
# crystal, experimental, refinement or atomic coordinate data resulting 
# from the CCDC's data processing and validation procedures.
#
#######################################################################

data_QIRSEP
_chemical_formula_moiety         
'2(C21 H24 Cl2 N1 O1 1+),2(Cl1 1-),0.5(C1 H1 Cl3),6(H2 O1)'
_chemical_name_systematic        
"bis(Nor-3-\a-(bis(4'-chlorophenyl)methoxy)tropane hydrochloride) chloroform solvate hexahydrate"
_symmetry_cell_setting           monoclinic
_symmetry_space_group_name_H-M   'C 2/c'
_symmetry_Int_Tables_number      15
_space_group_name_Hall           '-C 2yn'
loop_
_symmetry_equiv_pos_site_id
_symmetry_equiv_pos_as_xyz
1 x,y,z
2 1/2+x,1/2+y,z
3 x,-y,1/2+z
4 1/2+x,1/2-y,1/2+z
5 -x,-y,-z
6 1/2-x,1/2-y,-z
7 -x,y,1/2-z
8 1/2-x,1/2+y,1/2-z
_cell_length_a                   38.198(2)
_cell_length_b                   11.476(1)
_cell_length_c                   22.301(1)
_cell_angle_alpha                90
_cell_angle_beta                 90.94(1)
_cell_angle_gamma                90
_cell_volume                     9774.56
_exptl_crystal_colour            colorless
_exptl_crystal_description       plate
_cell_formula_units_Z            8
loop_
_atom_site_label
_atom_site_type_symbol
_atom_site_fract_x
_atom_site_fract_y
_atom_site_fract_z
Cl3 Cl 0.22496(6) -0.17688(17) -0.07791(9)
Cl4 Cl 0.16060(4) 0.62472(11) 0.03339(6)
C22 C 0.10680(11) 0.3260(3) -0.31298(18)
H25 H 0.1138 0.3832 -0.3438
C23 C 0.10362(11) 0.3836(3) -0.25227(18)
H26 H 0.0863 0.4463 -0.2554
H27 H 0.1262 0.4191 -0.2414
C24 C 0.09302(10) 0.3014(3) -0.20240(17)
H28 H 0.0837 0.3478 -0.1688
C25 C 0.06503(10) 0.2168(3) -0.22397(19)
H29 H 0.0422 0.2558 -0.2230
H30 H 0.0643 0.1506 -0.1963
C26 C 0.07097(11) 0.1714(3) -0.2871(2)
H31 H 0.0522 0.1166 -0.2993
C27 C 0.10684(12) 0.1173(4) -0.2965(2)
H32 H 0.1058 0.0589 -0.3285
H33 H 0.1156 0.0802 -0.2596
C28 C 0.13027(11) 0.2200(4) -0.3140(2)
H34 H 0.1498 0.2287 -0.2853
H35 H 0.1398 0.2083 -0.3541
N2 N 0.07157(10) 0.2747(3) -0.32794(15)
H36 H 0.0500(13) 0.322(4) -0.320(2)
C29 C 0.06692(16) 0.2456(6) -0.3930(2)
H37 H 0.0681 0.3164 -0.4166
H38 H 0.0443 0.2086 -0.3994
H39 H 0.0853 0.1928 -0.4050
O2 O 0.12360(7) 0.2405(2) -0.18217(11)
C30 C 0.12355(10) 0.2118(3) -0.12015(17)
H40 H 0.1000 0.1830 -0.1096
C31 C 0.14977(10) 0.1154(3) -0.11005(17)
C32 C 0.14430(12) 0.0349(4) -0.06486(18)
H41 H 0.1245 0.0415 -0.0407
C33 C 0.16733(14) -0.0537(4) -0.0551(2)
H42 H 0.1634 -0.1083 -0.0245
C34 C 0.19642(14) -0.0628(4) -0.0902(2)
C35 C 0.20230(14) 0.0164(5) -0.1348(2)
H43 H 0.2223 0.0102 -0.1584
C36 C 0.17880(12) 0.1051(4) -0.1447(2)
H44 H 0.1827 0.1591 -0.1756
C37 C 0.13219(10) 0.3173(3) -0.08178(17)
C38 C 0.15707(12) 0.3963(4) -0.09945(19)
H45 H 0.1680 0.3858 -0.1365
C39 C 0.16632(13) 0.4898(4) -0.0645(2)
H46 H 0.1836 0.5423 -0.0769
C40 C 0.14956(13) 0.5052(4) -0.01057(18)
C41 C 0.12473(13) 0.4294(4) 0.00764(19)
H47 H 0.1135 0.4406 0.0444
C42 C 0.11609(11) 0.3366(4) -0.02789(18)
H48 H 0.0987 0.2846 -0.0153
Cl6 Cl 0.01237(6) 0.4495(2) -0.30679(12)
O3 O -0.00054(6) 0.0407(2) 0.18841(12)
Cl7 Cl 0.06324(6) 0.4032(2) 0.12269(10)
O5 O 0.03524(16) 0.4865(5) 0.0023(3)
H50 H 0.0328(19) 0.424(2) -0.0188(18)
H51 H 0.0429(15) 0.469(4) 0.0373(11)
O6 O 0.03064(18) 0.3427(7) -0.0922(3)
H52 H 0.0163(11) 0.376(4) -0.068(2)
H53 H 0.0300(18) 0.2696(12) -0.086(3)
O7 O 0.0229(3) 0.1080(8) -0.0835(4)
H54 H 0.0075(12) 0.069(6) -0.065(3)
H55 H 0.0359(12) 0.097(6) -0.0524(17)
O8 O 0.06303(13) 0.0056(4) 0.01680(17)
H56 H 0.0619(12) 0.059(3) -0.0101(16)
H57 H 0.0414(5) -0.011(5) 0.024(3)
O9 O 0.06284(12) 0.1458(6) 0.1209(2)
H58 H 0.0430(7) 0.121(5) 0.131(3)
H59 H 0.0576(18) 0.128(6) 0.0849(11)
C43 C 0.2345(7) 0.2316(17) -0.0224(8)
H49 H 0.2116 0.2035 -0.0333
Cl8 Cl 0.2518(3) 0.1122(9) 0.0021(6)
Cl9 Cl 0.2510(2) 0.2848(10) -0.0852(6)
Cl10 Cl 0.2228(3) 0.3216(13) 0.0323(8)
C43E C 0.2655(7) 0.2684(17) 0.0224(8)
H49E H 0.2884 0.2965 0.0333
Cl8E Cl 0.2482(3) 0.3878(9) -0.0021(6)
Cl9E Cl 0.2490(2) 0.2152(10) 0.0852(6)
Cl10E Cl 0.2772(3) 0.1784(13) -0.0323(8)
Cl1 Cl -0.23851(3) 0.68843(11) 0.25365(7)
Cl2 Cl -0.20964(4) -0.12000(12) 0.40160(7)
C1 C -0.08246(10) 0.1766(3) 0.11464(17)
H1 H -0.0820 0.1205 0.0809
C2 C -0.09380(11) 0.1167(3) 0.17243(18)
H2 H -0.1172 0.0832 0.1660
H3 H -0.0776 0.0525 0.1813
C3 C -0.09473(10) 0.1972(3) 0.22605(17)
H4 H -0.0936 0.1495 0.2630
C4 C -0.06400(10) 0.2820(3) 0.22691(18)
H5 H -0.0694 0.3473 0.2535
H6 H -0.0433 0.2423 0.2435
C5 C -0.05552(11) 0.3291(3) 0.16550(18)
H7 H -0.0355 0.3839 0.1680
C6 C -0.08629(12) 0.3841(4) 0.1320(2)
H8 H -0.0783 0.4442 0.1042
H9 H -0.1027 0.4195 0.1601
C7 C -0.10360(12) 0.2831(4) 0.09796(19)
H10 H -0.1280 0.2738 0.1099
H11 H -0.1031 0.2967 0.0546
N1 N -0.04690(9) 0.2266(3) 0.12645(15)
H12 H -0.0316(12) 0.175(4) 0.149(2)
C8 C -0.02769(14) 0.2570(5) 0.0710(2)
H13 H -0.0236 0.1869 0.0479
H14 H -0.0055 0.2927 0.0818
H15 H -0.0416 0.3113 0.0472
O1 O -0.12749(6) 0.2580(2) 0.22437(11)
C9 C -0.14048(10) 0.2850(3) 0.28213(17)
H16 H -0.1209 0.3137 0.3076
C10 C -0.16705(9) 0.3810(3) 0.27493(17)
C11 C -0.17314(11) 0.4560(4) 0.32177(19)
H17 H -0.1616 0.4432 0.3587
C12 C -0.19561(12) 0.5491(4) 0.3162(2)
H18 H -0.1992 0.5998 0.3486
C13 C -0.21265(10) 0.5664(4) 0.2627(2)
C14 C -0.20868(11) 0.4895(4) 0.2161(2)
H19 H -0.2215 0.4997 0.1801
C15 C -0.18561(11) 0.3966(4) 0.22252(18)
H20 H -0.1827 0.3441 0.1906
C16 C -0.15628(10) 0.1789(3) 0.31173(16)
C17 C -0.17594(10) 0.1007(4) 0.27907(19)
H21 H -0.1785 0.1105 0.2374
C18 C -0.19202(11) 0.0078(4) 0.3065(2)
H22 H -0.2053 -0.0458 0.2837
C19 C -0.18855(11) -0.0051(4) 0.3663(2)
C20 C -0.16872(15) 0.0697(5) 0.3999(2)
H23 H -0.1660 0.0585 0.4414
C21 C -0.15262(14) 0.1620(4) 0.3722(2)
H24 H -0.1390 0.2142 0.3952
Cl5? Cl -0.00054(6) 0.0407(2) 0.18841(12)
O4? O 0.01237(6) 0.4495(2) -0.30679(12)
loop_
_geom_bond_atom_site_label_1
_geom_bond_atom_site_label_2
_geom_bond_site_symmetry_1
_geom_bond_site_symmetry_2
Cl1 C13 1_555 1_555
Cl2 C19 1_555 1_555
C1 H1 1_555 1_555
C2 C1 1_555 1_555
H2 C2 1_555 1_555
H3 C2 1_555 1_555
C3 C2 1_555 1_555
H4 C3 1_555 1_555
C4 C3 1_555 1_555
H5 C4 1_555 1_555
H6 C4 1_555 1_555
C5 C4 1_555 1_555
H7 C5 1_555 1_555
C6 C5 1_555 1_555
H8 C6 1_555 1_555
H9 C6 1_555 1_555
C7 C1 1_555 1_555
H10 C7 1_555 1_555
H11 C7 1_555 1_555
N1 C1 1_555 1_555
H12 N1 1_555 1_555
C8 N1 1_555 1_555
H13 C8 1_555 1_555
H14 C8 1_555 1_555
H15 C8 1_555 1_555
O1 C3 1_555 1_555
C9 O1 1_555 1_555
H16 C9 1_555 1_555
C10 C9 1_555 1_555
C11 C10 1_555 1_555
H17 C11 1_555 1_555
C12 C11 1_555 1_555
H18 C12 1_555 1_555
C13 C12 1_555 1_555
C14 C13 1_555 1_555
H19 C14 1_555 1_555
C15 C10 1_555 1_555
H20 C15 1_555 1_555
C16 C9 1_555 1_555
C17 C16 1_555 1_555
H21 C17 1_555 1_555
C18 C17 1_555 1_555
H22 C18 1_555 1_555
C19 C18 1_555 1_555
C20 C19 1_555 1_555
H23 C20 1_555 1_555
C21 C16 1_555 1_555
H24 C21 1_555 1_555
Cl3 C34 1_555 1_555
Cl4 C40 1_555 1_555
C22 H25 1_555 1_555
C23 C22 1_555 1_555
H26 C23 1_555 1_555
H27 C23 1_555 1_555
C24 C23 1_555 1_555
H28 C24 1_555 1_555
C25 C24 1_555 1_555
H29 C25 1_555 1_555
H30 C25 1_555 1_555
C26 C25 1_555 1_555
H31 C26 1_555 1_555
C27 C26 1_555 1_555
H32 C27 1_555 1_555
H33 C27 1_555 1_555
C28 C22 1_555 1_555
H34 C28 1_555 1_555
H35 C28 1_555 1_555
N2 C22 1_555 1_555
H36 N2 1_555 1_555
C29 N2 1_555 1_555
H37 C29 1_555 1_555
H38 C29 1_555 1_555
H39 C29 1_555 1_555
O2 C24 1_555 1_555
C30 O2 1_555 1_555
H40 C30 1_555 1_555
C31 C30 1_555 1_555
C32 C31 1_555 1_555
H41 C32 1_555 1_555
C33 C32 1_555 1_555
H42 C33 1_555 1_555
C34 C33 1_555 1_555
C35 C34 1_555 1_555
H43 C35 1_555 1_555
C36 C31 1_555 1_555
H44 C36 1_555 1_555
C37 C30 1_555 1_555
C38 C37 1_555 1_555
H45 C38 1_555 1_555
C39 C38 1_555 1_555
H46 C39 1_555 1_555
C40 C39 1_555 1_555
C41 C40 1_555 1_555
H47 C41 1_555 1_555
C42 C37 1_555 1_555
H48 C42 1_555 1_555
O5 H50 1_555 1_555
O6 H52 1_555 1_555
O7 H54 1_555 1_555
O8 H56 1_555 1_555
O9 H58 1_555 1_555
C43 H49 1_555 1_555
Cl8 C43 1_555 1_555
Cl9 C43 1_555 1_555
Cl10 C43 1_555 1_555
H51 O5 1_555 1_555
H53 O6 1_555 1_555
H55 O7 1_555 1_555
H57 O8 1_555 1_555
H59 O9 1_555 1_555
C43E C43 1_555 1_555
H49E C43E 1_555 1_555
Cl8E C43 1_555 1_555
Cl9E Cl8 1_555 1_555
Cl10E C43 1_555 1_555
C5 N1 1_555 1_555
C6 C7 1_555 1_555
C14 C15 1_555 1_555
C20 C21 1_555 1_555
C26 N2 1_555 1_555
C27 C28 1_555 1_555
C35 C36 1_555 1_555
C41 C42 1_555 1_555
Cl8 Cl10E 1_555 1_555
Cl8 C43E 1_555 1_555
Cl9 Cl8E 1_555 1_555
Cl9 Cl10E 1_555 1_555
Cl10 C43E 1_555 1_555
Cl10 Cl8E 1_555 1_555
Cl10 Cl9E 1_555 1_555
C43E Cl8E 1_555 1_555
C43E Cl9E 1_555 1_555
C43E Cl10E 1_555 1_555

#END
