
#######################################################################
#
#                 Cambridge Crystallographic Data Centre
#                                CCDC 
#
#######################################################################
#
# If this CIF has been generated from an entry in the Cambridge 
# Structural Database, then it will include bibliographic, chemical, 
# crystal, experimental, refinement or atomic coordinate data resulting 
# from the CCDC's data processing and validation procedures.
#
#######################################################################

data_QIRXAT
_chemical_formula_moiety         'C20 H20 Br1 N1 O2'
_chemical_name_systematic        
4-bromo-N-(4-ethenyl-3-methyl-2-phenyloxolan-3-yl)benzamide
_symmetry_cell_setting           monoclinic
_symmetry_space_group_name_H-M   'P 21'
_symmetry_Int_Tables_number      4
_space_group_name_Hall           'P 2yb'
loop_
_symmetry_equiv_pos_site_id
_symmetry_equiv_pos_as_xyz
1 x,y,z
2 -x,1/2+y,-z
_cell_length_a                   10.901(2)
_cell_length_b                   6.2481(11)
_cell_length_c                   13.318(2)
_cell_angle_alpha                90
_cell_angle_beta                 98.052(4)
_cell_angle_gamma                90
_cell_volume                     898.153
_exptl_crystal_colour            colorless
_exptl_crystal_description       prismatic
_cell_formula_units_Z            2
loop_
_atom_site_label
_atom_site_type_symbol
_atom_site_fract_x
_atom_site_fract_y
_atom_site_fract_z
Br1 Br 0.16721(6) -0.28895(10) 0.36721(4)
N1 N 0.3045(4) 0.4528(7) 0.7441(3)
O1 O 0.3221(3) 1.0007(6) 0.8179(3)
O2 O 0.3829(4) 0.6230(7) 0.6168(3)
C1 C 0.4457(5) 0.9366(10) 0.8088(5)
H1 H 0.5056 1.0293 0.8483
H2 H 0.4600 0.9394 0.7386
C2 C 0.4543(4) 0.7077(13) 0.8507(4)
H3 H 0.4689 0.7200 0.9248
C3 C 0.3192(5) 0.6207(8) 0.8222(4)
C4 C 0.2461(5) 0.8250(8) 0.7810(4)
H4 H 0.2388 0.8240 0.7069
C5 C 0.1186(5) 0.8513(8) 0.8103(4)
C6 C 0.0946(5) 0.9855(9) 0.8875(4)
H5 H 0.1590 1.0636 0.9233
C7 C -0.0237(5) 1.0054(10) 0.9124(5)
H6 H -0.0384 1.0979 0.9642
C8 C -0.1190(6) 0.8903(11) 0.8616(5)
H7 H -0.1985 0.9028 0.8789
C9 C -0.0967(6) 0.7545(12) 0.7838(5)
H8 H -0.1609 0.6743 0.7490
C10 C 0.0214(5) 0.7392(12) 0.7585(4)
H9 H 0.0354 0.6510 0.7050
C11 C 0.2746(5) 0.5251(9) 0.9153(4)
H10 H 0.1921 0.4704 0.8974
H11 H 0.2745 0.6336 0.9663
H12 H 0.3289 0.4108 0.9411
C12 C 0.5564(5) 0.5768(11) 0.8216(5)
H13 H 0.5622 0.5633 0.7529
C13 C 0.6388(6) 0.4792(12) 0.8855(6)
H14 H 0.6358 0.4894 0.9548
H15 H 0.7009 0.3991 0.8619
C14 C 0.3300(5) 0.4698(9) 0.6483(4)
C15 C 0.2893(5) 0.2823(9) 0.5814(4)
C16 C 0.1760(4) 0.1826(10) 0.5845(3)
H16 H 0.1251 0.2294 0.6305
C17 C 0.1381(5) 0.0154(9) 0.5204(4)
H17 H 0.0614 -0.0489 0.5217
C18 C 0.2149(5) -0.0544(9) 0.4547(4)
C19 C 0.3263(5) 0.0424(10) 0.4493(4)
H18 H 0.3775 -0.0069 0.4040
C20 C 0.3620(4) 0.2137(14) 0.5118(3)
H19 H 0.4363 0.2834 0.5067
H20 H 0.290(5) 0.329(9) 0.768(4)
loop_
_geom_bond_atom_site_label_1
_geom_bond_atom_site_label_2
_geom_bond_site_symmetry_1
_geom_bond_site_symmetry_2
Br1 C18 1_555 1_555
N1 C3 1_555 1_555
O1 C1 1_555 1_555
O2 C14 1_555 1_555
C1 H1 1_555 1_555
H2 C1 1_555 1_555
C2 C1 1_555 1_555
H3 C2 1_555 1_555
C3 C2 1_555 1_555
C4 O1 1_555 1_555
H4 C4 1_555 1_555
C5 C4 1_555 1_555
C6 C5 1_555 1_555
H5 C6 1_555 1_555
C7 C6 1_555 1_555
H6 C7 1_555 1_555
C8 C7 1_555 1_555
H7 C8 1_555 1_555
C9 C8 1_555 1_555
H8 C9 1_555 1_555
C10 C5 1_555 1_555
H9 C10 1_555 1_555
C11 C3 1_555 1_555
H10 C11 1_555 1_555
H11 C11 1_555 1_555
H12 C11 1_555 1_555
C12 C2 1_555 1_555
H13 C12 1_555 1_555
C13 C12 1_555 1_555
H14 C13 1_555 1_555
H15 C13 1_555 1_555
C14 N1 1_555 1_555
C15 C14 1_555 1_555
C16 C15 1_555 1_555
H16 C16 1_555 1_555
C17 C16 1_555 1_555
H17 C17 1_555 1_555
C18 C17 1_555 1_555
C19 C18 1_555 1_555
H18 C19 1_555 1_555
C20 C15 1_555 1_555
H19 C20 1_555 1_555
H20 N1 1_555 1_555
C3 C4 1_555 1_555
C9 C10 1_555 1_555
C19 C20 1_555 1_555

#END
