
#######################################################################
#
#                 Cambridge Crystallographic Data Centre
#                                CCDC 
#
#######################################################################
#
# If this CIF has been generated from an entry in the Cambridge 
# Structural Database, then it will include bibliographic, chemical, 
# crystal, experimental, refinement or atomic coordinate data resulting 
# from the CCDC's data processing and validation procedures.
#
#######################################################################

data_QIRXUN
_chemical_formula_moiety         'C20 H19 F1 N2 O2 S1,0.5(C7 H8)'
_chemical_name_systematic        
'2-(4-fluorophenyl)-N-phenyl-2-(phenylamino)ethane-1-sulfonamide toluene solvate'
_symmetry_cell_setting           monoclinic
_symmetry_space_group_name_H-M   'C 2/c'
_symmetry_Int_Tables_number      15
_space_group_name_Hall           '-C 2yn'
loop_
_symmetry_equiv_pos_site_id
_symmetry_equiv_pos_as_xyz
1 x,y,z
2 -x,y,1/2-z
3 1/2+x,1/2+y,z
4 1/2-x,1/2+y,1/2-z
5 -x,-y,-z
6 x,-y,1/2+z
7 1/2-x,1/2-y,-z
8 1/2+x,1/2-y,1/2+z
_cell_length_a                   27.2594(19)
_cell_length_b                   5.7351(4)
_cell_length_c                   26.1139(18)
_cell_angle_alpha                90
_cell_angle_beta                 102.009(2)
_cell_angle_gamma                90
_cell_volume                     3993.18
_exptl_crystal_colour            colorless
_exptl_crystal_description       needle
_cell_formula_units_Z            8
_exptl_crystal_recrystallization_method toluene
loop_
_atom_site_label
_atom_site_type_symbol
_atom_site_fract_x
_atom_site_fract_y
_atom_site_fract_z
S1 S 0.24347(2) 0.27161(5) 0.31603(2)
F1 F 0.48592(3) 0.36466(17) 0.34266(4)
O1 O 0.23132(4) 0.11047(17) 0.35354(4)
O2 O 0.28256(4) 0.21137(19) 0.28887(4)
N1 N 0.19352(4) 0.3142(2) 0.27017(4)
H1 H 0.199724 0.418803 0.247685
N2 N 0.29754(4) 0.7604(2) 0.42291(4)
C1 C 0.05088(5) 0.4392(3) 0.30282(6)
H2 H 0.018825 0.468200 0.310403
C2 C 0.07275(5) 0.6032(3) 0.27569(5)
H3 H 0.055185 0.742515 0.263755
C3 C 0.12041(5) 0.5649(2) 0.26581(5)
H4 H 0.135716 0.678716 0.247823
C4 C 0.14539(5) 0.3577(2) 0.28262(5)
C5 C 0.25712(5) 0.5463(2) 0.34694(5)
H5 H 0.266781 0.656436 0.321563
H6 H 0.226335 0.607348 0.356656
C6 C 0.29934(5) 0.5385(2) 0.39625(5)
H7 H 0.291900 0.410566 0.419535
C7 C 0.35038(5) 0.4921(2) 0.38311(5)
C8 C 0.37608(5) 0.2852(2) 0.39816(5)
H8 H 0.361956 0.172699 0.417571
C9 C 0.42224(5) 0.2408(2) 0.38511(6)
H9 H 0.440171 0.101121 0.395857
C10 C 0.44100(5) 0.4064(3) 0.35611(5)
C11 C 0.07580(5) 0.2324(3) 0.31893(5)
H10 H 0.060517 0.119511 0.337179
C12 C 0.12293(5) 0.1892(2) 0.30855(5)
H11 H 0.139665 0.046364 0.319036
C13 C 0.41688(5) 0.6143(3) 0.34047(5)
H12 H 0.431007 0.724968 0.320632
C14 C 0.37137(5) 0.6565(2) 0.35466(5)
H13 H 0.354294 0.799170 0.344864
C15 C 0.31376(5) 0.7815(2) 0.47681(5)
C16 C 0.34210(5) 0.6093(2) 0.50747(5)
H14 H 0.350417 0.469452 0.491720
C17 C 0.35812(5) 0.6434(3) 0.56124(5)
H15 H 0.376779 0.524366 0.581950
C18 C 0.34734(5) 0.8471(3) 0.58494(5)
H16 H 0.359150 0.869953 0.621462
C19 C 0.31900(5) 1.0182(3) 0.55462(5)
H17 H 0.311241 1.158409 0.570602
C20 C 0.30196(5) 0.9860(2) 0.50136(5)
H18 H 0.282116 1.103120 0.481212
H19 H 0.2738(7) 0.850(3) 0.4086(7)
C21? C 0.47069(16) 0.2774(7) 0.56027(14)
H20? H 0.434217 0.269302 0.556603
H21? H 0.480278 0.435673 0.552156
H22? H 0.487079 0.237755 0.596271
C22? C 0.48572(13) 0.1192(7) 0.52562(14)
C23? C 0.45782(15) -0.0810(8) 0.50905(16)
H23? H 0.426993 -0.105386 0.519796
C24? C 0.47410(16) -0.2460(8) 0.47710(17)
H24? H 0.454389 -0.381622 0.467226
C25? C 0.51911(15) -0.2172(8) 0.4590(2)
H25? H 0.530164 -0.327790 0.436765
C26? C 0.54637(17) -0.0139(8) 0.47612(19)
H26? H 0.577145 0.011562 0.465348
C27? C 0.53057(15) 0.1526(9) 0.50812(18)
H27? H 0.550148 0.288551 0.518086
loop_
_geom_bond_atom_site_label_1
_geom_bond_atom_site_label_2
_geom_bond_site_symmetry_1
_geom_bond_site_symmetry_2
S1 O1 1_555 1_555
F1 C10 1_555 1_555
O2 S1 1_555 1_555
N1 S1 1_555 1_555
H1 N1 1_555 1_555
N2 C6 1_555 1_555
C1 H2 1_555 1_555
C2 C1 1_555 1_555
H3 C2 1_555 1_555
C3 C2 1_555 1_555
H4 C3 1_555 1_555
C4 N1 1_555 1_555
C5 S1 1_555 1_555
H5 C5 1_555 1_555
H6 C5 1_555 1_555
C6 C5 1_555 1_555
H7 C6 1_555 1_555
C7 C6 1_555 1_555
C8 C7 1_555 1_555
H8 C8 1_555 1_555
C9 C8 1_555 1_555
H9 C9 1_555 1_555
C10 C9 1_555 1_555
C11 C1 1_555 1_555
H10 C11 1_555 1_555
C12 C4 1_555 1_555
H11 C12 1_555 1_555
C13 C10 1_555 1_555
H12 C13 1_555 1_555
C14 C7 1_555 1_555
H13 C14 1_555 1_555
C15 N2 1_555 1_555
C16 C15 1_555 1_555
H14 C16 1_555 1_555
C17 C16 1_555 1_555
H15 C17 1_555 1_555
C18 C17 1_555 1_555
H16 C18 1_555 1_555
C19 C18 1_555 1_555
H17 C19 1_555 1_555
C20 C15 1_555 1_555
H18 C20 1_555 1_555
H19 N2 1_555 1_555
C3 C4 1_555 1_555
C11 C12 1_555 1_555
C13 C14 1_555 1_555
C19 C20 1_555 1_555

#END
