
#######################################################################
#
#                 Cambridge Crystallographic Data Centre
#                                CCDC 
#
#######################################################################
#
# If this CIF has been generated from an entry in the Cambridge 
# Structural Database, then it will include bibliographic, chemical, 
# crystal, experimental, refinement or atomic coordinate data resulting 
# from the CCDC's data processing and validation procedures.
#
#######################################################################

data_QIRXIB
_chemical_formula_moiety         'C17 H24 Br1 N1 O2'
_chemical_name_systematic        
4-bromo-N-[(2R,3S,4R)-4-ethyl-2-isopropyl-3-methyltetrahydrofuran-3-yl]benzamide
_symmetry_cell_setting           orthorhombic
_symmetry_space_group_name_H-M   'P 21 21 21'
_symmetry_Int_Tables_number      19
_space_group_name_Hall           'P 2ac 2ab'
loop_
_symmetry_equiv_pos_site_id
_symmetry_equiv_pos_as_xyz
1 x,y,z
2 1/2-x,-y,1/2+z
3 -x,1/2+y,1/2-z
4 1/2+x,1/2-y,-z
_cell_length_a                   10.2614(10)
_cell_length_b                   21.747(2)
_cell_length_c                   40.341(4)
_cell_angle_alpha                90
_cell_angle_beta                 90
_cell_angle_gamma                90
_cell_volume                     9002.28
_exptl_crystal_colour            colorless
_exptl_crystal_description       prismatic
_cell_formula_units_Z            20
loop_
_atom_site_label
_atom_site_type_symbol
_atom_site_fract_x
_atom_site_fract_y
_atom_site_fract_z
Br1 Br 0.4749(2) 0.76533(6) 1.01083(4)
N1 N 0.5481(10) 0.4541(4) 0.9916(2)
H1 H 0.5305 0.4663 1.0113
O1 O 0.5652(18) 0.2971(4) 1.0164(2)
O2 O 0.6044(8) 0.4866(3) 0.94077(19)
C1 C 0.5534(16) 0.3876(5) 0.9862(3)
C2 C 0.505(2) 0.3550(6) 1.0179(3)
H2 H 0.5433 0.3769 1.0368
C3 C 0.689(3) 0.3065(8) 1.0059(5)
H3 H 0.7206 0.2702 0.9944
H4 H 0.7456 0.3137 1.0248
C4 C 0.695(2) 0.3633(6) 0.9820(3)
H5 H 0.7061 0.3485 0.9592
C5 C 0.805(2) 0.4061(7) 0.9901(4)
H6 H 0.7946 0.4202 1.0127
H7 H 0.7992 0.4417 0.9757
C6 C 0.942(2) 0.3787(10) 0.9865(5)
H8 H 0.9521 0.3623 0.9646
H9 H 0.9529 0.3464 1.0025
H10 H 1.0056 0.4102 0.9903
C7 C 0.4687(18) 0.3702(6) 0.9557(3)
H11 H 0.3799 0.3820 0.9596
H12 H 0.4731 0.3266 0.9521
H13 H 0.5008 0.3913 0.9364
C8 C 0.358(2) 0.3473(7) 1.0249(3)
H14 H 0.3184 0.3257 1.0061
C9 C 0.346(2) 0.3058(6) 1.0556(3)
H15 H 0.3881 0.2672 1.0513
H16 H 0.2554 0.2987 1.0604
H17 H 0.3865 0.3255 1.0742
C10 C 0.2929(16) 0.4082(8) 1.0281(4)
H18 H 0.2015 0.4024 1.0321
H19 H 0.3048 0.4312 1.0080
H20 H 0.3307 0.4304 1.0463
C11 C 0.5679(12) 0.4974(5) 0.9688(3)
C12 C 0.5379(11) 0.5613(5) 0.9794(2)
C13 C 0.4452(13) 0.5768(5) 1.0023(3)
H21 H 0.3944 0.5462 1.0120
C14 C 0.4265(14) 0.6378(6) 1.0112(3)
H22 H 0.3627 0.6477 1.0267
C15 C 0.5000(15) 0.6831(5) 0.9975(3)
C16 C 0.5896(14) 0.6692(6) 0.9749(3)
H23 H 0.6378 0.7004 0.9651
C17 C 0.6119(12) 0.6089(6) 0.9660(3)
H24 H 0.6772 0.5998 0.9508
Br2 Br 1.49117(14) 0.92598(10) 0.24689(3)
N2 N 0.9112(9) 0.9196(4) 0.32885(19)
H25 H 0.9239 0.8900 0.3151
O3 O 0.5617(8) 0.9085(4) 0.33462(17)
O4 O 1.0064(8) 0.9980(3) 0.35632(18)
C18 C 0.7806(11) 0.9265(5) 0.3436(2)
C19 C 0.6829(11) 0.8812(5) 0.3279(3)
H26 H 0.6963 0.8812 0.3038
C20 C 0.5750(13) 0.9735(5) 0.3387(3)
H27 H 0.5424 0.9858 0.3603
H28 H 0.5255 0.9950 0.3218
C21 C 0.7173(11) 0.9891(5) 0.3358(3)
H29 H 0.7411 1.0190 0.3529
C22 C 0.7534(12) 1.0142(5) 0.3018(3)
H30 H 0.7291 0.9842 0.2852
H31 H 0.8473 1.0192 0.3008
C23 C 0.6896(14) 1.0755(6) 0.2932(3)
H32 H 0.5977 1.0696 0.2901
H33 H 0.7273 1.0913 0.2731
H34 H 0.7038 1.1043 0.3109
C24 C 0.7867(11) 0.9181(5) 0.3813(2)
H35 H 0.8265 0.8793 0.3864
H36 H 0.7001 0.9191 0.3903
H37 H 0.8374 0.9507 0.3909
C25 C 0.6765(15) 0.8156(5) 0.3395(3)
H38 H 0.6528 0.8158 0.3630
C26 C 0.8078(15) 0.7818(5) 0.3359(3)
H39 H 0.8348 0.7826 0.3132
H40 H 0.7981 0.7400 0.3431
H41 H 0.8723 0.8019 0.3494
C27 C 0.5709(15) 0.7807(6) 0.3207(3)
H42 H 0.5946 0.7777 0.2977
H43 H 0.4896 0.8023 0.3226
H44 H 0.5619 0.7402 0.3298
C28 C 1.0120(13) 0.9575(6) 0.3358(3)
C29 C 1.1273(12) 0.9480(6) 0.3153(3)
C30 C 1.1913(14) 0.9984(6) 0.3027(3)
H45 H 1.1620 1.0377 0.3079
C31 C 1.3002(15) 0.9909(7) 0.2823(4)
H46 H 1.3433 1.0253 0.2741
C32 C 1.3431(12) 0.9345(10) 0.2745(3)
C33 C 1.2815(15) 0.8835(7) 0.2870(3)
H47 H 1.3133 0.8444 0.2823
C34 C 1.1712(12) 0.8906(6) 0.3067(3)
H48 H 1.1266 0.8560 0.3141
Br3 Br -0.45263(15) 0.93461(8) 0.03643(4)
N3 N 0.1165(9) 0.9436(4) 0.1236(2)
H49 H 0.1082 0.9695 0.1076
O5 O 0.4531(11) 0.9774(5) 0.1391(2)
O6 O 0.0224(8) 0.8619(4) 0.14848(17)
C35 C 0.2360(12) 0.9468(5) 0.1434(2)
C36 C 0.3253(15) 0.9961(6) 0.1289(3)
H50 H 0.3208 0.9936 0.1046
C37 C 0.4545(15) 0.9137(7) 0.1448(3)
H51 H 0.4848 0.9053 0.1671
H52 H 0.5136 0.8939 0.1293
C38 C 0.3209(12) 0.8887(6) 0.1404(3)
H53 H 0.3012 0.8615 0.1591
C39 C 0.3102(12) 0.8522(5) 0.1089(3)
H54 H 0.3377 0.8777 0.0904
H55 H 0.2196 0.8412 0.1053
C40 C 0.3935(13) 0.7930(6) 0.1095(3)
H56 H 0.4842 0.8037 0.1086
H57 H 0.3719 0.7679 0.0907
H58 H 0.3761 0.7705 0.1295
C41 C 0.2013(13) 0.9589(6) 0.1793(3)
H59 H 0.1345 0.9898 0.1804
H60 H 0.2772 0.9730 0.1910
H61 H 0.1702 0.9216 0.1893
C42 C 0.3080(18) 1.0641(6) 0.1391(3)
H62 H 0.3207 1.0672 0.1632
C43 C 0.416(2) 1.1016(7) 0.1218(5)
H63 H 0.4189 1.0911 0.0987
H64 H 0.4990 1.0921 0.1318
H65 H 0.3988 1.1447 0.1242
C44 C 0.1765(19) 1.0888(6) 0.1310(4)
H66 H 0.1706 1.1308 0.1381
H67 H 0.1112 1.0648 0.1420
H68 H 0.1630 1.0867 0.1075
C45 C 0.0202(12) 0.9041(6) 0.1284(3)
C46 C -0.0967(11) 0.9134(6) 0.1062(3)
C47 C -0.1463(13) 0.9708(5) 0.0998(3)
H69 H -0.1083 1.0052 0.1094
C48 C -0.2550(13) 0.9777(6) 0.0786(3)
H70 H -0.2881 1.0164 0.0736
C49 C -0.3106(11) 0.9250(6) 0.0654(2)
C50 C -0.2620(14) 0.8684(6) 0.0726(3)
H71 H -0.3002 0.8336 0.0634
C51 C -0.1575(13) 0.8624(6) 0.0932(3)
H72 H -0.1269 0.8234 0.0985
Br4 Br 0.7630(2) 1.10709(7) 0.17994(5)
N4 N 0.9093(9) 0.8079(4) 0.2086(2)
H73 H 0.8969 0.8207 0.1887
O7 O 0.932(2) 0.6712(6) 0.2555(4)
O8 O 0.9205(7) 0.8427(3) 0.26166(18)
C52 C 0.9343(13) 0.7417(5) 0.2119(3)
C53 C 0.8488(16) 0.7125(6) 0.2385(4)
H74 H 0.8241 0.7449 0.2541
C54 C 1.055(3) 0.7029(10) 0.2563(6)
H75 H 1.1248 0.6747 0.2617
H76 H 1.0530 0.7354 0.2728
C55 C 1.0739(15) 0.7286(6) 0.2231(5)
H77 H 1.1050 0.6946 0.2093
C56 C 1.1727(16) 0.7798(8) 0.2193(6)
H78 H 1.1476 0.8206 0.2166
C57 C 1.299(2) 0.7629(9) 0.2199(5)
H79 H 1.3211 0.7218 0.2227
H80 H 1.3638 0.7925 0.2177
C58 C 0.9147(16) 0.7149(5) 0.1768(3)
H81 H 0.8361 0.7312 0.1674
H82 H 0.9082 0.6709 0.1782
H83 H 0.9875 0.7258 0.1631
C59 C 0.728(2) 0.6795(8) 0.2288(5)
H84 H 0.7484 0.6503 0.2111
C60 C 0.680(3) 0.6423(9) 0.2603(6)
H85 H 0.6760 0.6695 0.2791
H86 H 0.7403 0.6096 0.2649
H87 H 0.5953 0.6255 0.2562
C61 C 0.638(2) 0.7227(12) 0.2168(7)
H88 H 0.6600 0.7641 0.2160
H89 H 0.5561 0.7099 0.2096
C62 C 0.9030(11) 0.8513(5) 0.2322(3)
C63 C 0.8689(10) 0.9134(5) 0.2193(2)
C64 C 0.7746(11) 0.9213(5) 0.1952(3)
H90 H 0.7331 0.8871 0.1863
C65 C 0.7412(12) 0.9794(6) 0.1843(3)
H91 H 0.6751 0.9847 0.1688
C66 C 0.8060(15) 1.0282(5) 0.1965(3)
C67 C 0.9005(13) 1.0221(5) 0.2203(3)
H92 H 0.9435 1.0566 0.2285
C68 C 0.9301(12) 0.9654(5) 0.2317(2)
H93 H 0.9928 0.9612 0.2482
Br5 Br 0.1643(3) -0.28169(7) 0.37913(6)
N5 N 0.1848(9) 0.0269(4) 0.41422(18)
H94 H 0.1195 0.0163 0.4022
O9 O 0.1334(9) 0.1910(3) 0.4097(2)
O10 O 0.3738(9) -0.0059(3) 0.43672(18)
C69 C 0.1914(11) 0.0907(4) 0.4256(2)
C70 C 0.0829(11) 0.1296(5) 0.4094(3)
H95 H 0.0720 0.1164 0.3863
C71 C 0.2672(15) 0.1905(5) 0.4145(4)
H96 H 0.2882 0.2081 0.4359
H97 H 0.3096 0.2148 0.3975
C72 C 0.3143(12) 0.1247(5) 0.4129(3)
H98 H 0.3865 0.1187 0.4285
C73 C 0.3572(13) 0.1066(5) 0.3780(3)
H99 H 0.3614 0.0621 0.3766
H100 H 0.2918 0.1204 0.3623
C74 C 0.4884(16) 0.1328(7) 0.3678(5)
H101 H 0.4821 0.1768 0.3662
H102 H 0.5134 0.1162 0.3467
H103 H 0.5526 0.1221 0.3841
C75 C 0.1863(13) 0.0932(5) 0.4629(2)
H104 H 0.1075 0.0741 0.4705
H105 H 0.1881 0.1353 0.4701
H106 H 0.2601 0.0718 0.4719
C76 C -0.0491(13) 0.1313(5) 0.4259(3)
H107 H -0.0370 0.1452 0.4488
C77 C -0.1389(14) 0.1780(6) 0.4081(4)
H108 H -0.0983 0.2178 0.4080
H109 H -0.2208 0.1804 0.4195
H110 H -0.1533 0.1648 0.3857
C78 C -0.1137(13) 0.0683(6) 0.4268(3)
H111 H -0.1080 0.0496 0.4053
H112 H -0.2037 0.0728 0.4329
H113 H -0.0703 0.0428 0.4428
C79 C 0.2732(15) -0.0156(5) 0.4213(3)
C80 C 0.2454(15) -0.0797(5) 0.4095(2)
C81 C 0.1229(14) -0.1057(6) 0.4124(3)
H114 H 0.0544 -0.0818 0.4203
C82 C 0.0997(16) -0.1658(6) 0.4038(3)
H115 H 0.0171 -0.1828 0.4062
C83 C 0.1993(19) -0.1994(5) 0.3919(3)
C84 C 0.3221(18) -0.1751(7) 0.3881(3)
H116 H 0.3895 -0.1985 0.3793
C85 C 0.3423(14) -0.1149(5) 0.3977(3)
H117 H 0.4255 -0.0983 0.3960
loop_
_geom_bond_atom_site_label_1
_geom_bond_atom_site_label_2
_geom_bond_site_symmetry_1
_geom_bond_site_symmetry_2
Br1 C15 1_555 1_555
N1 H1 1_555 1_555
O1 C2 1_555 1_555
O2 C11 1_555 1_555
C1 N1 1_555 1_555
C2 C1 1_555 1_555
H2 C2 1_555 1_555
C3 O1 1_555 1_555
H3 C3 1_555 1_555
H4 C3 1_555 1_555
C4 C1 1_555 1_555
H5 C4 1_555 1_555
C5 C4 1_555 1_555
H6 C5 1_555 1_555
H7 C5 1_555 1_555
C6 C5 1_555 1_555
H8 C6 1_555 1_555
H9 C6 1_555 1_555
H10 C6 1_555 1_555
C7 C1 1_555 1_555
H11 C7 1_555 1_555
H12 C7 1_555 1_555
H13 C7 1_555 1_555
C8 C2 1_555 1_555
H14 C8 1_555 1_555
C9 C8 1_555 1_555
H15 C9 1_555 1_555
H16 C9 1_555 1_555
H17 C9 1_555 1_555
C10 C8 1_555 1_555
H18 C10 1_555 1_555
H19 C10 1_555 1_555
H20 C10 1_555 1_555
C11 N1 1_555 1_555
C12 C11 1_555 1_555
C13 C12 1_555 1_555
H21 C13 1_555 1_555
C14 C13 1_555 1_555
H22 C14 1_555 1_555
C15 C14 1_555 1_555
C16 C15 1_555 1_555
H23 C16 1_555 1_555
C17 C12 1_555 1_555
H24 C17 1_555 1_555
Br2 C32 1_555 1_555
N2 H25 1_555 1_555
O3 C19 1_555 1_555
O4 C28 1_555 1_555
C18 N2 1_555 1_555
C19 C18 1_555 1_555
H26 C19 1_555 1_555
C20 O3 1_555 1_555
H27 C20 1_555 1_555
H28 C20 1_555 1_555
C21 C18 1_555 1_555
H29 C21 1_555 1_555
C22 C21 1_555 1_555
H30 C22 1_555 1_555
H31 C22 1_555 1_555
C23 C22 1_555 1_555
H32 C23 1_555 1_555
H33 C23 1_555 1_555
H34 C23 1_555 1_555
C24 C18 1_555 1_555
H35 C24 1_555 1_555
H36 C24 1_555 1_555
H37 C24 1_555 1_555
C25 C19 1_555 1_555
H38 C25 1_555 1_555
C26 C25 1_555 1_555
H39 C26 1_555 1_555
H40 C26 1_555 1_555
H41 C26 1_555 1_555
C27 C25 1_555 1_555
H42 C27 1_555 1_555
H43 C27 1_555 1_555
H44 C27 1_555 1_555
C28 N2 1_555 1_555
C29 C28 1_555 1_555
C30 C29 1_555 1_555
H45 C30 1_555 1_555
C31 C30 1_555 1_555
H46 C31 1_555 1_555
C32 C31 1_555 1_555
C33 C32 1_555 1_555
H47 C33 1_555 1_555
C34 C29 1_555 1_555
H48 C34 1_555 1_555
Br3 C49 1_555 1_555
N3 H49 1_555 1_555
O5 C36 1_555 1_555
O6 C45 1_555 1_555
C35 N3 1_555 1_555
C36 C35 1_555 1_555
H50 C36 1_555 1_555
C37 O5 1_555 1_555
H51 C37 1_555 1_555
H52 C37 1_555 1_555
C38 C35 1_555 1_555
H53 C38 1_555 1_555
C39 C38 1_555 1_555
H54 C39 1_555 1_555
H55 C39 1_555 1_555
C40 C39 1_555 1_555
H56 C40 1_555 1_555
H57 C40 1_555 1_555
H58 C40 1_555 1_555
C41 C35 1_555 1_555
H59 C41 1_555 1_555
H60 C41 1_555 1_555
H61 C41 1_555 1_555
C42 C36 1_555 1_555
H62 C42 1_555 1_555
C43 C42 1_555 1_555
H63 C43 1_555 1_555
H64 C43 1_555 1_555
H65 C43 1_555 1_555
C44 C42 1_555 1_555
H66 C44 1_555 1_555
H67 C44 1_555 1_555
H68 C44 1_555 1_555
C45 N3 1_555 1_555
C46 C45 1_555 1_555
C47 C46 1_555 1_555
H69 C47 1_555 1_555
C48 C47 1_555 1_555
H70 C48 1_555 1_555
C49 C48 1_555 1_555
C50 C49 1_555 1_555
H71 C50 1_555 1_555
C51 C46 1_555 1_555
H72 C51 1_555 1_555
Br4 C66 1_555 1_555
N4 H73 1_555 1_555
O7 C53 1_555 1_555
O8 C62 1_555 1_555
C52 N4 1_555 1_555
C53 C52 1_555 1_555
H74 C53 1_555 1_555
C54 O7 1_555 1_555
H75 C54 1_555 1_555
H76 C54 1_555 1_555
C55 C52 1_555 1_555
H77 C55 1_555 1_555
C56 C55 1_555 1_555
H78 C56 1_555 1_555
C57 C56 1_555 1_555
H79 C57 1_555 1_555
H80 C57 1_555 1_555
C58 C52 1_555 1_555
H81 C58 1_555 1_555
H82 C58 1_555 1_555
H83 C58 1_555 1_555
C59 C53 1_555 1_555
H84 C59 1_555 1_555
C60 C59 1_555 1_555
H85 C60 1_555 1_555
H86 C60 1_555 1_555
H87 C60 1_555 1_555
C61 C59 1_555 1_555
H88 C61 1_555 1_555
H89 C61 1_555 1_555
C62 N4 1_555 1_555
C63 C62 1_555 1_555
C64 C63 1_555 1_555
H90 C64 1_555 1_555
C65 C64 1_555 1_555
H91 C65 1_555 1_555
C66 C65 1_555 1_555
C67 C66 1_555 1_555
H92 C67 1_555 1_555
C68 C63 1_555 1_555
H93 C68 1_555 1_555
Br5 C83 1_555 1_555
N5 H94 1_555 1_555
O9 C70 1_555 1_555
O10 C79 1_555 1_555
C69 N5 1_555 1_555
C70 C69 1_555 1_555
H95 C70 1_555 1_555
C71 O9 1_555 1_555
H96 C71 1_555 1_555
H97 C71 1_555 1_555
C72 C69 1_555 1_555
H98 C72 1_555 1_555
C73 C72 1_555 1_555
H99 C73 1_555 1_555
H100 C73 1_555 1_555
C74 C73 1_555 1_555
H101 C74 1_555 1_555
H102 C74 1_555 1_555
H103 C74 1_555 1_555
C75 C69 1_555 1_555
H104 C75 1_555 1_555
H105 C75 1_555 1_555
H106 C75 1_555 1_555
C76 C70 1_555 1_555
H107 C76 1_555 1_555
C77 C76 1_555 1_555
H108 C77 1_555 1_555
H109 C77 1_555 1_555
H110 C77 1_555 1_555
C78 C76 1_555 1_555
H111 C78 1_555 1_555
H112 C78 1_555 1_555
H113 C78 1_555 1_555
C79 N5 1_555 1_555
C80 C79 1_555 1_555
C81 C80 1_555 1_555
H114 C81 1_555 1_555
C82 C81 1_555 1_555
H115 C82 1_555 1_555
C83 C82 1_555 1_555
C84 C83 1_555 1_555
H116 C84 1_555 1_555
C85 C80 1_555 1_555
H117 C85 1_555 1_555
C3 C4 1_555 1_555
C16 C17 1_555 1_555
C20 C21 1_555 1_555
C33 C34 1_555 1_555
C37 C38 1_555 1_555
C50 C51 1_555 1_555
C54 C55 1_555 1_555
C67 C68 1_555 1_555
C71 C72 1_555 1_555
C84 C85 1_555 1_555

#END
