
#######################################################################
#
#                 Cambridge Crystallographic Data Centre
#                                CCDC 
#
#######################################################################
#
# If this CIF has been generated from an entry in the Cambridge 
# Structural Database, then it will include bibliographic, chemical, 
# crystal, experimental, refinement or atomic coordinate data resulting 
# from the CCDC's data processing and validation procedures.
#
#######################################################################

data_QIRZEY
_chemical_formula_moiety         'C13 H13 I1 N1 S1 1+,I1 1-'
_chemical_name_systematic        
'3-(Iodomethyl)-3-methyl-2,3-dihydro[1,4]thiazino[2,3,4-ij]quinolin-4-ium iodide'
_symmetry_cell_setting           monoclinic
_symmetry_space_group_name_H-M   'P 21/c'
_symmetry_Int_Tables_number      14
_space_group_name_Hall           '-P 2ybc'
loop_
_symmetry_equiv_pos_site_id
_symmetry_equiv_pos_as_xyz
1 x,y,z
2 -x,1/2+y,1/2-z
3 -x,-y,-z
4 x,1/2-y,1/2+z
_cell_length_a                   12.8597(8)
_cell_length_b                   9.0676(6)
_cell_length_c                   13.2057(6)
_cell_angle_alpha                90
_cell_angle_beta                 112.025(5)
_cell_angle_gamma                90
_cell_volume                     1427.49
_exptl_crystal_colour            orange
_exptl_crystal_description       prism
_cell_formula_units_Z            4
loop_
_atom_site_label
_atom_site_type_symbol
_atom_site_fract_x
_atom_site_fract_y
_atom_site_fract_z
I1 I 0.333576(14) 0.93907(2) 0.469651(14)
S1 S 0.37904(6) 1.01962(9) 0.87159(5)
C1 C 0.1687(3) 0.9691(3) 0.8522(2)
H1 H 0.2033 0.9225 0.9193
C2 C 0.18193(19) 1.0965(2) 0.69736(19)
N1 N 0.24106(15) 1.1571(2) 0.63716(15)
C3 C 0.0526(3) 0.9754(3) 0.8067(3)
H2 H 0.0105 0.9328 0.8428
C4 C 0.2348(2) 1.0297(3) 0.8012(2)
C5 C 0.36680(19) 1.1380(3) 0.6727(2)
C6 C 0.0635(2) 1.1053(3) 0.6520(2)
C7 C 0.3914(2) 0.9835(3) 0.6422(2)
H3 H 0.3572 0.9126 0.6751
H4 H 0.4719 0.9677 0.6737
C8 C 0.0004(2) 1.0438(3) 0.7092(3)
H5 H -0.0774 1.0502 0.6799
C9 C 0.0092(2) 1.1753(3) 0.5515(2)
H6 H -0.0687 1.1809 0.5218
C10 C 0.0699(2) 1.2344(3) 0.4979(2)
H7 H 0.0343 1.2815 0.4312
C11 C 0.4186(2) 1.2559(3) 0.6246(2)
H8 H 0.3889 1.2475 0.5464
H9 H 0.4986 1.2432 0.6519
H10 H 0.4012 1.3517 0.6450
C12 C 0.4191(2) 1.1591(3) 0.7975(2)
H11 H 0.3968 1.2546 0.8156
H12 H 0.5002 1.1592 0.8206
C13 C 0.1859(2) 1.2243(3) 0.5430(2)
H13 H 0.2269 1.2666 0.5056
I2 I 0.244278(16) 0.89651(2) 0.174552(14)
loop_
_geom_bond_atom_site_label_1
_geom_bond_atom_site_label_2
_geom_bond_site_symmetry_1
_geom_bond_site_symmetry_2
I1 C7 1_555 1_555
S1 C4 1_555 1_555
C1 H1 1_555 1_555
C2 N1 1_555 1_555
N1 C5 1_555 1_555
C3 C1 1_555 1_555
H2 C3 1_555 1_555
C4 C1 1_555 1_555
C5 C7 1_555 1_555
C6 C2 1_555 1_555
C7 H3 1_555 1_555
H4 C7 1_555 1_555
C8 C3 1_555 1_555
H5 C8 1_555 1_555
C9 C6 1_555 1_555
H6 C9 1_555 1_555
C10 C9 1_555 1_555
H7 C10 1_555 1_555
C11 C5 1_555 1_555
H8 C11 1_555 1_555
H9 C11 1_555 1_555
H10 C11 1_555 1_555
C12 S1 1_555 1_555
H11 C12 1_555 1_555
H12 C12 1_555 1_555
C13 N1 1_555 1_555
H13 C13 1_555 1_555
C2 C4 1_555 1_555
C5 C12 1_555 1_555
C6 C8 1_555 1_555
C10 C13 1_555 1_555

#END
