
#######################################################################
#
#                 Cambridge Crystallographic Data Centre
#                                CCDC 
#
#######################################################################
#
# If this CIF has been generated from an entry in the Cambridge 
# Structural Database, then it will include bibliographic, chemical, 
# crystal, experimental, refinement or atomic coordinate data resulting 
# from the CCDC's data processing and validation procedures.
#
#######################################################################

data_QISCUS
_chemical_formula_moiety         'C18 H26 N2 O1'
_chemical_name_systematic        1-(4-(Piperidin-1-yl)phenyl)azocan-2-one
_symmetry_cell_setting           triclinic
_symmetry_space_group_name_H-M   'P -1'
_symmetry_Int_Tables_number      2
_space_group_name_Hall           '-P 1'
loop_
_symmetry_equiv_pos_site_id
_symmetry_equiv_pos_as_xyz
1 x,y,z
2 -x,-y,-z
_cell_length_a                   5.781(2)
_cell_length_b                   11.420(4)
_cell_length_c                   12.069(4)
_cell_angle_alpha                88.457(13)
_cell_angle_beta                 88.442(12)
_cell_angle_gamma                79.566(11)
_cell_volume                     783.122
_exptl_crystal_colour            colorless
_exptl_crystal_description       plate
_cell_formula_units_Z            2
loop_
_atom_site_label
_atom_site_type_symbol
_atom_site_fract_x
_atom_site_fract_y
_atom_site_fract_z
C1 C 1.1713(7) 0.2827(3) 0.9305(3)
H1 H 1.0180 0.2865 0.9663
H2 H 1.2371 0.3498 0.9547
C2 C 1.3310(7) 0.1672(3) 0.9649(3)
H3 H 1.3466 0.1641 1.0448
H4 H 1.2615 0.1000 0.9441
C3 C 1.5728(7) 0.1586(3) 0.9095(3)
H5 H 1.6490 0.2215 0.9354
H6 H 1.6700 0.0827 0.9285
C4 C 1.5463(7) 0.1704(3) 0.7850(3)
H7 H 1.4901 0.1014 0.7584
H8 H 1.6987 0.1723 0.7500
C5 C 1.3757(6) 0.2826(3) 0.7525(3)
H9 H 1.4431 0.3516 0.7697
H10 H 1.3530 0.2838 0.6731
C6 C 0.9233(6) 0.3960(3) 0.6567(3)
H11 H 1.0066 0.3408 0.6083
C7 C 0.9709(6) 0.3857(3) 0.7704(3)
C8 C 0.8408(6) 0.4701(3) 0.8403(3)
H12 H 0.8682 0.4656 0.9160
C9 C 0.6698(6) 0.5615(3) 0.7974(3)
H13 H 0.5845 0.6166 0.8454
C10 C 0.7542(6) 0.4872(3) 0.6156(3)
H14 H 0.7260 0.4924 0.5400
C11 C 0.6252(6) 0.5716(3) 0.6857(3)
C12 C 0.2008(6) 0.6669(3) 0.6836(3)
H15 H 0.1789 0.5858 0.6993
H16 H 0.0942 0.6992 0.6252
C13 C 0.1332(7) 0.7400(3) 0.7876(3)
H17 H -0.0362 0.7507 0.7983
H18 H 0.2036 0.6940 0.8508
C14 C 0.2033 0.8613 0.7882
H19 H 0.3736 0.8504 0.7837
H20 H 0.1534 0.8976 0.8587
C15 C 0.1031(7) 0.9486(3) 0.6947(3)
H21 H -0.0426 0.9271 0.6712
H22 H 0.0645 1.0278 0.7249
C16 C 0.2620(7) 0.9542(3) 0.5924(3)
H23 H 0.4105 0.9719 0.6163
H24 H 0.1900 1.0203 0.5454
C17 C 0.3141(6) 0.8428(3) 0.5224(3)
H25 H 0.1715 0.8099 0.5172
H26 H 0.3605 0.8650 0.4481
C18 C 0.5064(7) 0.7479(3) 0.5692(3)
N1 N 0.4446(5) 0.6640(2) 0.6425(2)
N2 N 1.1448(5) 0.2908(3) 0.8105(2)
O1 O 0.7140(4) 0.7485(2) 0.5442(2)
loop_
_geom_bond_atom_site_label_1
_geom_bond_atom_site_label_2
_geom_bond_site_symmetry_1
_geom_bond_site_symmetry_2
C1 H1 1_555 1_555
H2 C1 1_555 1_555
C2 C1 1_555 1_555
H3 C2 1_555 1_555
H4 C2 1_555 1_555
C3 C2 1_555 1_555
H5 C3 1_555 1_555
H6 C3 1_555 1_555
C4 C3 1_555 1_555
H7 C4 1_555 1_555
H8 C4 1_555 1_555
C5 C4 1_555 1_555
H9 C5 1_555 1_555
H10 C5 1_555 1_555
C6 H11 1_555 1_555
C7 C6 1_555 1_555
C8 C7 1_555 1_555
H12 C8 1_555 1_555
C9 C8 1_555 1_555
H13 C9 1_555 1_555
C10 C6 1_555 1_555
H14 C10 1_555 1_555
C11 C9 1_555 1_555
C12 H15 1_555 1_555
H16 C12 1_555 1_555
C13 C12 1_555 1_555
H17 C13 1_555 1_555
H18 C13 1_555 1_555
C14 C13 1_555 1_555
H19 C14 1_555 1_555
H20 C14 1_555 1_555
C15 C14 1_555 1_555
H21 C15 1_555 1_555
H22 C15 1_555 1_555
C16 C15 1_555 1_555
H23 C16 1_555 1_555
H24 C16 1_555 1_555
C17 C16 1_555 1_555
H25 C17 1_555 1_555
H26 C17 1_555 1_555
C18 C17 1_555 1_555
N1 C11 1_555 1_555
N2 C1 1_555 1_555
O1 C18 1_555 1_555
C5 N2 1_555 1_555
C7 N2 1_555 1_555
C10 C11 1_555 1_555
C12 N1 1_555 1_555
C18 N1 1_555 1_555

#END
