
#######################################################################
#
#                 Cambridge Crystallographic Data Centre
#                                CCDC 
#
#######################################################################
#
# If this CIF has been generated from an entry in the Cambridge 
# Structural Database, then it will include bibliographic, chemical, 
# crystal, experimental, refinement or atomic coordinate data resulting 
# from the CCDC's data processing and validation procedures.
#
#######################################################################

data_QISCAZ
_chemical_formula_moiety         'C20 H19 N2 1+,1.5(H2 O1),I1 1-'
_chemical_name_systematic        
'1,3-dimethyl-2-(4-methylphenyl)-1H-perimidin-3-ium iodide sesquihydrate'
_symmetry_cell_setting           monoclinic
_symmetry_space_group_name_H-M   'C 2/c'
_symmetry_Int_Tables_number      15
_space_group_name_Hall           '-C 2yn'
loop_
_symmetry_equiv_pos_site_id
_symmetry_equiv_pos_as_xyz
1 x,y,z
2 -x,y,1/2-z
3 1/2+x,1/2+y,z
4 1/2-x,1/2+y,1/2-z
5 -x,-y,-z
6 x,-y,1/2+z
7 1/2-x,1/2-y,-z
8 1/2+x,1/2-y,1/2+z
_cell_length_a                   38.828(4)
_cell_length_b                   9.5689(9)
_cell_length_c                   26.186(2)
_cell_angle_alpha                90
_cell_angle_beta                 127.7190(10)
_cell_angle_gamma                90
_cell_volume                     7695.98
_exptl_crystal_description       block
_cell_formula_units_Z            16
loop_
_atom_site_label
_atom_site_type_symbol
_atom_site_fract_x
_atom_site_fract_y
_atom_site_fract_z
I1 I -0.079488(9) 0.98965(3) 0.020967(15)
I2 I 0.164420(10) 0.36573(4) 0.309302(15)
O1 O -0.03783(19) 0.2095(5) 0.1576(2)
H1 H -0.0136 0.2091 0.1953
H2 H -0.0363 0.1559 0.1332
N1 N 0.01707(9) 0.7558(3) 0.07866(14)
N2 N -0.02088(11) 0.6172(4) 0.10198(16)
C1 C -0.06228(15) 0.6206(6) -0.1137(2)
H3 H -0.0798 0.5913 -0.1566
C2 C -0.06783(12) 0.5627(5) -0.0705(2)
C3 C -0.04127(11) 0.6118(4) -0.00493(18)
C4 C -0.00965(11) 0.7131(4) 0.01290(17)
C5 C 0.01034(11) 0.7107(4) 0.11965(18)
C6 C 0.03907(12) 0.7594(4) 0.18777(18)
C7 C 0.03324(17) 0.8884(6) 0.2047(2)
H4 H 0.0107 0.9463 0.1737
C8 C 0.06129(18) 0.9309(6) 0.2685(2)
H5 H 0.0568 1.0169 0.2801
C9 C 0.09582(14) 0.8488(5) 0.3153(2)
C10 C 0.12821(18) 0.9053(8) 0.3836(2)
H6 H 0.1424 0.9864 0.3828
H7 H 0.1495 0.8349 0.4105
H8 H 0.1131 0.9302 0.4006
C11 C 0.05114(14) 0.8595(5) 0.0980(2)
H9 H 0.0683 0.8273 0.0853
H10 H 0.0695 0.8717 0.1439
H11 H 0.0378 0.9471 0.0772
C12 C -0.03097(19) 0.5807(7) 0.1463(3)
H12 H -0.0206 0.4881 0.1628
H13 H -0.0619 0.5843 0.1234
H14 H -0.0170 0.6460 0.1815
C13 C -0.04721(12) 0.5593(4) 0.0390(2)
C14 C -0.07704(15) 0.4560(5) 0.0215(3)
H15 H -0.0807 0.4198 0.0509
C15 C -0.10241(15) 0.4057(6) -0.0435(3)
H16 H -0.1223 0.3342 -0.0559
C16 C -0.09848(15) 0.4576(6) -0.0869(3)
H17 H -0.1164 0.4238 -0.1289
C17 C 0.10090(14) 0.7214(5) 0.2975(2)
H18 H 0.1238 0.6641 0.3285
C18 C 0.07292(14) 0.6756(5) 0.23470(19)
H19 H 0.0768 0.5877 0.2238
C19 C -0.00445(14) 0.7657(5) -0.0302(2)
H20 H 0.0169 0.8321 -0.0174
C20 C -0.03175(17) 0.7183(6) -0.0940(2)
H21 H -0.0286 0.7559 -0.1237
N3 N -0.18228(9) 0.8937(3) -0.15015(14)
C21 C -0.17093(13) 1.2183(5) -0.24712(19)
H22 H -0.1688 1.2895 -0.2692
C22 C -0.15646(14) 1.0879(5) -0.2457(2)
H23 H -0.1445 1.0717 -0.2669
C23 C -0.15906(13) 0.9769(4) -0.21310(19)
H24 H -0.1496 0.8880 -0.2136
C24 C -0.17574(11) 1.0019(4) -0.18056(17)
C25 C -0.19358(10) 0.9213(4) -0.11245(16)
C26 C -0.20099(12) 0.8063(4) -0.08252(17)
C27 C -0.24237(13) 0.7961(5) -0.0990(2)
H25 H -0.2634 0.8627 -0.1259
C28 C -0.25224(15) 0.6872(5) -0.0756(2)
H26 H -0.2801 0.6809 -0.0871
C29 C -0.22143(16) 0.5866(5) -0.0351(2)
C30 C -0.2330(2) 0.4671(6) -0.0103(3)
H27 H -0.2295 0.4964 0.0277
H28 H -0.2142 0.3892 0.0000
H29 H -0.2627 0.4399 -0.0429
C31 C -0.20642(12) 1.3776(4) -0.21622(19)
H30 H -0.2063 1.4512 -0.2393
C32 C -0.18931(11) 1.2466(4) -0.21521(17)
C33 C -0.17779(17) 0.7502(4) -0.1652(2)
H31 H -0.1918 0.7425 -0.2105
H32 H -0.1912 0.6866 -0.1537
H33 H -0.1475 0.7277 -0.1411
C34 C -0.16969(13) 0.7085(4) -0.0410(2)
H34 H -0.1417 0.7155 -0.0289
C35 C -0.18009(15) 0.6008(5) -0.0176(2)
H35 H -0.1587 0.5362 0.0106
N4 N -0.20240(9) 1.0517(3) -0.10570(14)
C36 C -0.20382(15) 1.0908(5) -0.05240(19)
H36 H -0.2334 1.1090 -0.0694
H37 H -0.1866 1.1732 -0.0314
H38 H -0.1924 1.0156 -0.0218
C37 C -0.20565(10) 1.1629(4) -0.14404(16)
C38 C -0.19002(10) 1.1365(4) -0.17953(16)
C39 C -0.22229(12) 1.2903(4) -0.1464(2)
H39 H -0.2330 1.3063 -0.1235
C40 C -0.22303(13) 1.3972(4) -0.1839(2)
H40 H -0.2352 1.4832 -0.1866
O2 O 0.04859(19) 0.3069(7) 0.2480(3)
H41 H 0.0758 0.3422 0.2917
H42 H 0.0526 0.2371 0.2735
O3 O -0.1282(3) 0.3201(10) 0.0871(4)
H43 H -0.1082 0.2597 0.1011
H44 H -0.1444 0.2960 0.0973
loop_
_geom_bond_atom_site_label_1
_geom_bond_atom_site_label_2
_geom_bond_site_symmetry_1
_geom_bond_site_symmetry_2
O1 H1 1_555 1_555
H2 O1 1_555 1_555
N1 C4 1_555 1_555
N2 C5 1_555 1_555
C1 H3 1_555 1_555
C2 C1 1_555 1_555
C3 C2 1_555 1_555
C4 C3 1_555 1_555
C5 N1 1_555 1_555
C6 C5 1_555 1_555
C7 C6 1_555 1_555
H4 C7 1_555 1_555
C8 C7 1_555 1_555
H5 C8 1_555 1_555
C9 C8 1_555 1_555
C10 C9 1_555 1_555
H6 C10 1_555 1_555
H7 C10 1_555 1_555
H8 C10 1_555 1_555
C11 N1 1_555 1_555
H9 C11 1_555 1_555
H10 C11 1_555 1_555
H11 C11 1_555 1_555
C12 N2 1_555 1_555
H12 C12 1_555 1_555
H13 C12 1_555 1_555
H14 C12 1_555 1_555
C13 N2 1_555 1_555
C14 C13 1_555 1_555
H15 C14 1_555 1_555
C15 C14 1_555 1_555
H16 C15 1_555 1_555
C16 C2 1_555 1_555
H17 C16 1_555 1_555
C17 C9 1_555 1_555
H18 C17 1_555 1_555
C18 C6 1_555 1_555
H19 C18 1_555 1_555
C19 C4 1_555 1_555
H20 C19 1_555 1_555
C20 C1 1_555 1_555
H21 C20 1_555 1_555
N3 C24 1_555 1_555
C21 H22 1_555 1_555
C22 C21 1_555 1_555
H23 C22 1_555 1_555
C23 C22 1_555 1_555
H24 C23 1_555 1_555
C24 C23 1_555 1_555
C25 N3 1_555 1_555
C26 C25 1_555 1_555
C27 C26 1_555 1_555
H25 C27 1_555 1_555
C28 C27 1_555 1_555
H26 C28 1_555 1_555
C29 C28 1_555 1_555
C30 C29 1_555 1_555
H27 C30 1_555 1_555
H28 C30 1_555 1_555
H29 C30 1_555 1_555
C31 H30 1_555 1_555
C32 C21 1_555 1_555
C33 N3 1_555 1_555
H31 C33 1_555 1_555
H32 C33 1_555 1_555
H33 C33 1_555 1_555
C34 C26 1_555 1_555
H34 C34 1_555 1_555
C35 C29 1_555 1_555
H35 C35 1_555 1_555
N4 C25 1_555 1_555
C36 N4 1_555 1_555
H36 C36 1_555 1_555
H37 C36 1_555 1_555
H38 C36 1_555 1_555
C37 N4 1_555 1_555
C38 C24 1_555 1_555
C39 C37 1_555 1_555
H39 C39 1_555 1_555
C40 C31 1_555 1_555
H40 C40 1_555 1_555
O2 H41 1_555 1_555
H42 O2 1_555 1_555
O3 H43 1_555 1_555
H44 O3 1_555 1_555
C3 C13 1_555 1_555
C15 C16 1_555 1_555
C17 C18 1_555 1_555
C19 C20 1_555 1_555
C31 C32 1_555 1_555
C32 C38 1_555 1_555
C34 C35 1_555 1_555
C37 C38 1_555 1_555
C39 C40 1_555 1_555

#END
