
#######################################################################
#
#                 Cambridge Crystallographic Data Centre
#                                CCDC 
#
#######################################################################
#
# If this CIF has been generated from an entry in the Cambridge 
# Structural Database, then it will include bibliographic, chemical, 
# crystal, experimental, refinement or atomic coordinate data resulting 
# from the CCDC's data processing and validation procedures.
#
#######################################################################

data_QISGEH
_chemical_name_common            
2,2'-(4,7-dioxa-3,8-diazadeca-2,8-diene-2,9-diyl)bis(5-methoxyphenol)
_chemical_formula_moiety         'C20 H24 N2 O6'
_chemical_name_systematic        
5,5'-dimethoxy-2,2'-[1,1'-(ethylenedioxydinitrilo)diethylidyne]diphenol
_symmetry_cell_setting           triclinic
_symmetry_space_group_name_H-M   'P -1'
_symmetry_Int_Tables_number      2
_space_group_name_Hall           '-P 1'
loop_
_symmetry_equiv_pos_site_id
_symmetry_equiv_pos_as_xyz
1 x,y,z
2 -x,-y,-z
_cell_length_a                   7.1389(5)
_cell_length_b                   9.4977(7)
_cell_length_c                   14.6456(10)
_cell_angle_alpha                105.118(3)
_cell_angle_beta                 101.188(2)
_cell_angle_gamma                94.739(3)
_cell_volume                     931.08
_exptl_crystal_colour            colorless
_exptl_crystal_description       needle
_cell_formula_units_Z            2
loop_
_atom_site_label
_atom_site_type_symbol
_atom_site_fract_x
_atom_site_fract_y
_atom_site_fract_z
C1 C 1.0205(4) -0.0199(3) 0.85784(17)
H1 H 1.144195 -0.000637 0.840587
H2 H 1.039244 -0.066492 0.910648
H3 H 0.970153 0.073248 0.878946
C2 C 0.8514(3) -0.0694(3) 0.69363(16)
C3 C 0.9261(3) 0.0668(3) 0.68938(15)
H4 H 1.006282 0.135260 0.745458
C4 C 0.8829(3) 0.1033(3) 0.60217(15)
C5 C 0.7650(3) 0.0039(3) 0.51769(15)
C6 C 0.6914(3) -0.1326(3) 0.52569(16)
H5 H 0.610902 -0.201760 0.470058
C7 C 0.7318(3) -0.1700(3) 0.61134(16)
H6 H 0.679006 -0.263206 0.614623
C8 C 0.7189(3) 0.0390(3) 0.42403(15)
C9 C 0.6063(3) -0.0749(3) 0.33521(15)
H7 H 0.605523 -0.038592 0.278378
H8 H 0.473511 -0.095557 0.341795
H9 H 0.665763 -0.165444 0.327116
C10 C 0.8222(3) 0.3443(3) 0.34477(17)
H10 H 0.817583 0.357469 0.279538
H11 H 0.959479 0.357126 0.378419
C11 C 0.7255(3) 0.4612(3) 0.40045(16)
H12 H 0.718276 0.442112 0.463063
H13 H 0.805482 0.557974 0.414943
C12 C 0.3873(3) 0.5424(3) 0.22381(16)
C13 C 0.1995(3) 0.4949(3) 0.24579(18)
H14 H 0.190729 0.390828 0.244345
H15 H 0.092571 0.508388 0.197081
H16 H 0.192469 0.554590 0.310313
C14 C 0.3923(3) 0.6079(3) 0.14311(15)
C15 C 0.5656(3) 0.6495(3) 0.11834(16)
C16 C 0.5653(3) 0.7108(3) 0.04174(16)
H17 H 0.683646 0.738811 0.026396
C17 C 0.3938(3) 0.7310(3) -0.01182(16)
C18 C 0.2203(3) 0.6902(3) 0.01058(17)
H18 H 0.101778 0.703305 -0.026671
C19 C 0.2209(3) 0.6309(3) 0.08677(17)
H19 H 0.101628 0.604596 0.101796
C20 C 0.5523(4) 0.8415(3) -0.11097(18)
H20 H 0.626886 0.921359 -0.055630
H21 H 0.520890 0.878210 -0.167961
H22 H 0.628661 0.760549 -0.124846
N1 N 0.7830(2) 0.1708(2) 0.42553(12)
N2 N 0.5514(3) 0.5304(2) 0.27345(13)
O1 O 0.8863(2) -0.1158(2) 0.77513(11)
O2 O 0.9624(2) 0.23875(18) 0.60326(11)
H23 H 0.930530 0.250192 0.547636
O3 O 0.7360(2) 0.19814(19) 0.33417(10)
O4 O 0.5344(2) 0.46846(19) 0.34970(11)
O5 O 0.7408(2) 0.63313(19) 0.16622(11)
H24 H 0.727886 0.597299 0.211728
O6 O 0.3785(2) 0.7898(2) -0.08836(11)
loop_
_geom_bond_atom_site_label_1
_geom_bond_atom_site_label_2
_geom_bond_site_symmetry_1
_geom_bond_site_symmetry_2
C1 H1 1_555 1_555
H2 C1 1_555 1_555
H3 C1 1_555 1_555
C2 C3 1_555 1_555
C3 H4 1_555 1_555
C4 C3 1_555 1_555
C5 C4 1_555 1_555
C6 C5 1_555 1_555
H5 C6 1_555 1_555
C7 C2 1_555 1_555
H6 C7 1_555 1_555
C8 C5 1_555 1_555
C9 C8 1_555 1_555
H7 C9 1_555 1_555
H8 C9 1_555 1_555
H9 C9 1_555 1_555
C10 H10 1_555 1_555
H11 C10 1_555 1_555
C11 C10 1_555 1_555
H12 C11 1_555 1_555
H13 C11 1_555 1_555
C12 C13 1_555 1_555
C13 H14 1_555 1_555
H15 C13 1_555 1_555
H16 C13 1_555 1_555
C14 C12 1_555 1_555
C15 C14 1_555 1_555
C16 C15 1_555 1_555
H17 C16 1_555 1_555
C17 C16 1_555 1_555
C18 C17 1_555 1_555
H18 C18 1_555 1_555
C19 C14 1_555 1_555
H19 C19 1_555 1_555
C20 H20 1_555 1_555
H21 C20 1_555 1_555
H22 C20 1_555 1_555
N1 C8 1_555 1_555
N2 C12 1_555 1_555
O1 C1 1_555 1_555
O2 C4 1_555 1_555
H23 O2 1_555 1_555
O3 C10 1_555 1_555
O4 C11 1_555 1_555
O5 C15 1_555 1_555
H24 O5 1_555 1_555
O6 C17 1_555 1_555
C2 O1 1_555 1_555
C6 C7 1_555 1_555
C18 C19 1_555 1_555
C20 O6 1_555 1_555
N1 O3 1_555 1_555
N2 O4 1_555 1_555

#END
