
#######################################################################
#
#                 Cambridge Crystallographic Data Centre
#                                CCDC 
#
#######################################################################
#
# If this CIF has been generated from an entry in the Cambridge 
# Structural Database, then it will include bibliographic, chemical, 
# crystal, experimental, refinement or atomic coordinate data resulting 
# from the CCDC's data processing and validation procedures.
#
#######################################################################

data_QISKAG
_chemical_formula_moiety         'C30 H30 S2'
_chemical_name_systematic        'bis(1,3-diphenylpropan-2-yl) disulfide'
_symmetry_cell_setting           monoclinic
_symmetry_space_group_name_H-M   'C 2'
_symmetry_Int_Tables_number      5
_space_group_name_Hall           'C 2y'
loop_
_symmetry_equiv_pos_site_id
_symmetry_equiv_pos_as_xyz
1 x,y,z
2 -x,y,-z
3 1/2+x,1/2+y,z
4 1/2-x,1/2+y,-z
_cell_length_a                   18.727(3)
_cell_length_b                   6.5179(9)
_cell_length_c                   13.7576(18)
_cell_angle_alpha                90
_cell_angle_beta                 131.0610(10)
_cell_angle_gamma                90
_cell_volume                     1266.18
_chemical_melting_point          '399 K'
_cell_formula_units_Z            4
loop_
_atom_site_label
_atom_site_type_symbol
_atom_site_fract_x
_atom_site_fract_y
_atom_site_fract_z
C1 C 0.73914(15) 0.1480(4) 0.3291(2)
C2 C 0.83758(16) 0.1441(4) 0.4166(2)
H1 H 0.8697 0.0292 0.4185
C3 C 0.88969(14) 0.3064(5) 0.50149(19)
H2 H 0.9569 0.3018 0.5602
C4 C 0.84396(17) 0.4756(4) 0.5010(2)
H3 H 0.8797 0.5856 0.5596
C5 C 0.74559(17) 0.4818(4) 0.4140(2)
H4 H 0.7138 0.5963 0.4131
C6 C 0.69380(13) 0.3210(5) 0.32846(18)
H5 H 0.6266 0.3277 0.2684
C7 C 0.68314(16) -0.0314(4) 0.2394(2)
H6 H 0.6374 -0.0782 0.2484
H7 H 0.7268 -0.1464 0.2645
C8 C 0.62935(15) 0.0255(3) 0.0983(2)
H8 H 0.5918 0.1530 0.0766
C9 C 0.69647(15) 0.0612(4) 0.0718(2)
H9 H 0.7485 0.1530 0.1392
H10 H 0.7249 -0.0715 0.0779
C10 C 0.64741(13) 0.1550(3) -0.05940(18)
C11 C 0.60430(15) 0.3461(4) -0.0914(2)
H11 H 0.6062 0.4181 -0.0296
C12 C 0.55866(16) 0.4343(4) -0.2107(2)
H12 H 0.5284 0.5638 -0.2314
C13 C 0.55765(14) 0.3329(6) -0.2989(2)
H13 H 0.5261 0.3931 -0.3810
C14 C 0.60172(19) 0.1439(5) -0.2708(3)
H14 H 0.6016 0.0767 -0.3322
C15 C 0.64715(17) 0.0524(4) -0.1486(2)
H15 H 0.6770 -0.0776 -0.1280
S1 S 0.54890(3) -0.18134(8) -0.01028(4)
C1A C 0.26086(15) 0.1480(4) -0.3291(2)
C2A C 0.16242(16) 0.1441(4) -0.4166(2)
H1A H 0.1303 0.0292 -0.4185
C3A C 0.11031(14) 0.3064(5) -0.50149(19)
H2A H 0.0431 0.3018 -0.5602
C4A C 0.15604(17) 0.4756(4) -0.5010(2)
H3A H 0.1203 0.5856 -0.5596
C5A C 0.25441(17) 0.4818(4) -0.4140(2)
H4A H 0.2862 0.5963 -0.4131
C6A C 0.30620(13) 0.3210(5) -0.32846(18)
H5A H 0.3734 0.3277 -0.2684
C7A C 0.31686(16) -0.0314(4) -0.2394(2)
H6A H 0.3626 -0.0782 -0.2484
H7A H 0.2732 -0.1464 -0.2645
C8A C 0.37065(15) 0.0255(3) -0.0983(2)
H8A H 0.4082 0.1530 -0.0766
C9A C 0.30353(15) 0.0612(4) -0.0718(2)
H9A H 0.2515 0.1530 -0.1392
H10A H 0.2751 -0.0715 -0.0779
C10A C 0.35259(13) 0.1550(3) 0.05940(18)
C11A C 0.39570(15) 0.3461(4) 0.0914(2)
H11A H 0.3938 0.4181 0.0296
C12A C 0.44134(16) 0.4343(4) 0.2107(2)
H12A H 0.4716 0.5638 0.2314
C13A C 0.44235(14) 0.3329(6) 0.2989(2)
H13A H 0.4739 0.3931 0.3810
C14A C 0.39828(19) 0.1439(5) 0.2708(3)
H14A H 0.3984 0.0767 0.3322
C15A C 0.35285(17) 0.0524(4) 0.1486(2)
H15A H 0.3230 -0.0776 0.1280
S1A S 0.45110(3) -0.18134(8) 0.01028(4)
loop_
_geom_bond_atom_site_label_1
_geom_bond_atom_site_label_2
_geom_bond_site_symmetry_1
_geom_bond_site_symmetry_2
C1 C2 1_555 1_555
C2 H1 1_555 1_555
C3 C2 1_555 1_555
H2 C3 1_555 1_555
C4 C3 1_555 1_555
H3 C4 1_555 1_555
C5 C4 1_555 1_555
H4 C5 1_555 1_555
C6 C1 1_555 1_555
H5 C6 1_555 1_555
C7 C1 1_555 1_555
H6 C7 1_555 1_555
H7 C7 1_555 1_555
C8 C7 1_555 1_555
H8 C8 1_555 1_555
C9 C8 1_555 1_555
H9 C9 1_555 1_555
H10 C9 1_555 1_555
C10 C9 1_555 1_555
C11 C10 1_555 1_555
H11 C11 1_555 1_555
C12 C11 1_555 1_555
H12 C12 1_555 1_555
C13 C12 1_555 1_555
H13 C13 1_555 1_555
C14 C13 1_555 1_555
H14 C14 1_555 1_555
C15 C10 1_555 1_555
H15 C15 1_555 1_555
S1 C8 1_555 1_555
C1A C2A 1_555 1_555
C2A H1A 1_555 1_555
C3A C2A 1_555 1_555
H2A C3A 1_555 1_555
C4A C3A 1_555 1_555
H3A C4A 1_555 1_555
C5A C4A 1_555 1_555
H4A C5A 1_555 1_555
C6A C1A 1_555 1_555
H5A C6A 1_555 1_555
C7A C1A 1_555 1_555
H6A C7A 1_555 1_555
H7A C7A 1_555 1_555
C8A C7A 1_555 1_555
H8A C8A 1_555 1_555
C9A C8A 1_555 1_555
H9A C9A 1_555 1_555
H10A C9A 1_555 1_555
C10A C9A 1_555 1_555
C11A C10A 1_555 1_555
H11A C11A 1_555 1_555
C12A C11A 1_555 1_555
H12A C12A 1_555 1_555
C13A C12A 1_555 1_555
H13A C13A 1_555 1_555
C14A C13A 1_555 1_555
H14A C14A 1_555 1_555
C15A C10A 1_555 1_555
H15A C15A 1_555 1_555
S1A S1 1_555 1_555
C5 C6 1_555 1_555
C14 C15 1_555 1_555
C5A C6A 1_555 1_555
C8A S1A 1_555 1_555
C14A C15A 1_555 1_555

#END
