
#######################################################################
#
#                 Cambridge Crystallographic Data Centre
#                                CCDC 
#
#######################################################################
#
# If this CIF has been generated from an entry in the Cambridge 
# Structural Database, then it will include bibliographic, chemical, 
# crystal, experimental, refinement or atomic coordinate data resulting 
# from the CCDC's data processing and validation procedures.
#
#######################################################################

data_QISMEN
_chemical_formula_moiety         'C17 H21 N2 O2 1+,Br1 1-'
_chemical_name_systematic        
'9-butoxy-2-(2-hydroxyethyl)imidazo[1,5-a]quinolin-2-ium bromide'
_symmetry_cell_setting           orthorhombic
_symmetry_space_group_name_H-M   'P b c n'
_symmetry_Int_Tables_number      60
_space_group_name_Hall           '-P 2n 2ab'
loop_
_symmetry_equiv_pos_site_id
_symmetry_equiv_pos_as_xyz
1 x,y,z
2 1/2-x,1/2-y,1/2+z
3 -x,y,1/2-z
4 1/2+x,1/2-y,-z
5 -x,-y,-z
6 1/2+x,1/2+y,1/2-z
7 x,-y,1/2+z
8 1/2-x,1/2+y,z
_cell_length_a                   20.179(12)
_cell_length_b                   10.902(7)
_cell_length_c                   15.026(9)
_cell_angle_alpha                90
_cell_angle_beta                 90
_cell_angle_gamma                90
_cell_volume                     3305.59
_exptl_crystal_colour            yellow
_exptl_crystal_description       rod
_cell_formula_units_Z            8
loop_
_atom_site_label
_atom_site_type_symbol
_atom_site_fract_x
_atom_site_fract_y
_atom_site_fract_z
Br1 Br 0.66944(2) 0.55079(4) 0.05020(3)
C1 C 0.53344(19) 1.0427(3) 0.1458(2)
C2 C 0.5533(2) 1.1630(3) 0.1508(3)
H1 H 0.5938 1.1823 0.1768
C3 C 0.5139(2) 1.2549(3) 0.1180(3)
H2 H 0.5283 1.3358 0.1215
C4 C 0.4547(2) 1.2298(3) 0.0807(3)
H3 H 0.4291 1.2936 0.0582
C5 C 0.4312(2) 1.1098(3) 0.0751(2)
C6 C 0.47233(18) 1.0153(3) 0.1083(2)
C7 C 0.3685(2) 1.0820(4) 0.0371(3)
H4 H 0.3421 1.1461 0.0168
C8 C 0.3463(2) 0.9677(4) 0.0295(3)
H5 H 0.3051 0.9520 0.0041
C9 C 0.38627(19) 0.8709(3) 0.0607(2)
C10 C 0.3786(2) 0.7473(4) 0.0621(3)
H6 H 0.3426 0.7034 0.0401
C11 C 0.47459(18) 0.7878(3) 0.1253(2)
H7 H 0.5150 0.7774 0.1540
C12 C 0.4433(2) 0.5707(3) 0.1214(3)
H8 H 0.4894 0.5566 0.1367
H9 H 0.4331 0.5225 0.0689
C13 C 0.4001(2) 0.5302(3) 0.1970(3)
H10 H 0.3540 0.5457 0.1827
H11 H 0.4055 0.4428 0.2069
C14 C 0.63712(19) 0.9720(3) 0.2039(2)
H12 H 0.6364 1.0182 0.2590
H13 H 0.6602 1.0202 0.1593
C15 C 0.67182(18) 0.8534(3) 0.2176(3)
H14 H 0.6748 0.8104 0.1612
H15 H 0.6461 0.8030 0.2580
C16 C 0.74048(19) 0.8705(3) 0.2549(3)
H16 H 0.7666 0.9183 0.2133
H17 H 0.7376 0.9165 0.3100
N1 N 0.44788(13) 0.8954(2) 0.10058(17)
N2 N 0.43354(15) 0.6996(2) 0.10192(19)
O1 O 0.57046(12) 0.94773(19) 0.17491(16)
O2 O 0.41762(15) 0.5944(3) 0.27339(19)
H18 H 0.3915 0.5782 0.3135
C17 C 0.7748(3) 0.7521(4) 0.2723(5)
H19 H 0.8181 0.7679 0.2960
H20 H 0.7496 0.7051 0.3145
H21 H 0.7787 0.7069 0.2178
loop_
_geom_bond_atom_site_label_1
_geom_bond_atom_site_label_2
_geom_bond_site_symmetry_1
_geom_bond_site_symmetry_2
C1 C2 1_555 1_555
C2 H1 1_555 1_555
C3 C2 1_555 1_555
H2 C3 1_555 1_555
C4 C3 1_555 1_555
H3 C4 1_555 1_555
C5 C4 1_555 1_555
C6 C1 1_555 1_555
C7 C5 1_555 1_555
H4 C7 1_555 1_555
C8 C7 1_555 1_555
H5 C8 1_555 1_555
C9 C8 1_555 1_555
C10 C9 1_555 1_555
H6 C10 1_555 1_555
C11 H7 1_555 1_555
C12 H8 1_555 1_555
H9 C12 1_555 1_555
C13 C12 1_555 1_555
H10 C13 1_555 1_555
H11 C13 1_555 1_555
C14 H12 1_555 1_555
H13 C14 1_555 1_555
C15 C14 1_555 1_555
H14 C15 1_555 1_555
H15 C15 1_555 1_555
C16 C15 1_555 1_555
H16 C16 1_555 1_555
H17 C16 1_555 1_555
N1 C6 1_555 1_555
N2 C10 1_555 1_555
O1 C1 1_555 1_555
O2 C13 1_555 1_555
H18 O2 1_555 1_555
C17 C16 1_555 1_555
H19 C17 1_555 1_555
H20 C17 1_555 1_555
H21 C17 1_555 1_555
C5 C6 1_555 1_555
C9 N1 1_555 1_555
C11 N1 1_555 1_555
C11 N2 1_555 1_555
C12 N2 1_555 1_555
C14 O1 1_555 1_555

#END
