
#######################################################################
#
#                 Cambridge Crystallographic Data Centre
#                                CCDC 
#
#######################################################################
#
# If this CIF has been generated from an entry in the Cambridge 
# Structural Database, then it will include bibliographic, chemical, 
# crystal, experimental, refinement or atomic coordinate data resulting 
# from the CCDC's data processing and validation procedures.
#
#######################################################################

data_QISVAR
_chemical_formula_moiety         'C16 H11 I1 N2 O4'
_chemical_name_systematic        
'Methyl 3-iodo-2-(4-nitrophenyl)indolizine-1-carboxylate'
_symmetry_cell_setting           triclinic
_symmetry_space_group_name_H-M   'P -1'
_symmetry_Int_Tables_number      2
_space_group_name_Hall           '-P 1'
loop_
_symmetry_equiv_pos_site_id
_symmetry_equiv_pos_as_xyz
1 x,y,z
2 -x,-y,-z
_cell_length_a                   8.2774(12)
_cell_length_b                   9.9061(14)
_cell_length_c                   10.0956(14)
_cell_angle_alpha                83.048(2)
_cell_angle_beta                 79.836(2)
_cell_angle_gamma                81.262(2)
_cell_volume                     801.572
_cell_formula_units_Z            2
loop_
_atom_site_label
_atom_site_type_symbol
_atom_site_fract_x
_atom_site_fract_y
_atom_site_fract_z
C1 C 0.1044(5) 0.2992(4) 0.1471(4)
C2 C 0.2640(5) 0.3258(5) 0.1014(4)
H1 H 0.2971 0.3563 0.0113
C3 C 0.3740(5) 0.3063(5) 0.1921(4)
H2 H 0.4824 0.3236 0.1622
C4 C 0.3264(4) 0.2613(4) 0.3270(4)
C5 C 0.1647(5) 0.2317(4) 0.3697(4)
H3 H 0.1316 0.1993 0.4592
C6 C 0.0528(5) 0.2504(4) 0.2790(4)
H4 H -0.0549 0.2303 0.3070
C7 C 0.4397(4) 0.2477(4) 0.4279(4)
C8 C 0.5946(4) 0.1614(4) 0.4337(4)
C9 C 0.6536(4) 0.1891(4) 0.5481(4)
C10 C 0.4084(4) 0.3228(4) 0.5373(4)
C11 C 0.7969(5) 0.1393(5) 0.6080(5)
H5 H 0.8741 0.0696 0.5717
C12 C 0.8199(6) 0.1947(5) 0.7189(5)
H6 H 0.9145 0.1634 0.7574
C13 C 0.7012(6) 0.3003(6) 0.7772(5)
H7 H 0.7193 0.3378 0.8526
C14 C 0.5633(5) 0.3454(5) 0.7231(4)
H8 H 0.4856 0.4141 0.7608
C15 C 0.6809(5) 0.0595(4) 0.3447(4)
C16 C 0.6770(8) -0.0498(6) 0.1482(7)
H9 H 0.7546 -0.0023 0.0843
H10 H 0.5967 -0.0765 0.1021
H11 H 0.7348 -0.1299 0.1911
I1 I 0.20891(3) 0.46772(3) 0.59628(3)
N1 N -0.0169(5) 0.3206(5) 0.0538(4)
N2 N 0.5377(4) 0.2892(3) 0.6113(3)
O1 O 0.0322(6) 0.3525(6) -0.0655(4)
O2 O -0.1612(5) 0.3091(6) 0.0989(5)
O3 O 0.5932(4) 0.0408(3) 0.2504(3)
O4 O 0.8170(4) -0.0029(3) 0.3532(3)
loop_
_geom_bond_atom_site_label_1
_geom_bond_atom_site_label_2
_geom_bond_site_symmetry_1
_geom_bond_site_symmetry_2
C1 C2 1_555 1_555
C2 H1 1_555 1_555
C3 C2 1_555 1_555
H2 C3 1_555 1_555
C4 C3 1_555 1_555
C5 C4 1_555 1_555
H3 C5 1_555 1_555
C6 C1 1_555 1_555
H4 C6 1_555 1_555
C7 C4 1_555 1_555
C8 C7 1_555 1_555
C9 C8 1_555 1_555
C10 C7 1_555 1_555
C11 C9 1_555 1_555
H5 C11 1_555 1_555
C12 C11 1_555 1_555
H6 C12 1_555 1_555
C13 C12 1_555 1_555
H7 C13 1_555 1_555
C14 C13 1_555 1_555
H8 C14 1_555 1_555
C15 C8 1_555 1_555
C16 H9 1_555 1_555
H10 C16 1_555 1_555
H11 C16 1_555 1_555
I1 C10 1_555 1_555
N1 C1 1_555 1_555
N2 C9 1_555 1_555
O1 N1 1_555 1_555
O2 N1 1_555 1_555
O3 C15 1_555 1_555
O4 C15 1_555 1_555
C5 C6 1_555 1_555
C10 N2 1_555 1_555
C14 N2 1_555 1_555
C16 O3 1_555 1_555

#END
