
#######################################################################
#
#                 Cambridge Crystallographic Data Centre
#                                CCDC 
#
#######################################################################
#
# If this CIF has been generated from an entry in the Cambridge 
# Structural Database, then it will include bibliographic, chemical, 
# crystal, experimental, refinement or atomic coordinate data resulting 
# from the CCDC's data processing and validation procedures.
#
#######################################################################

data_QITJOT
_chemical_formula_moiety         'C27 H25 N3 O3'
_chemical_name_systematic        
1-Benzyl-2,5-dimethyl-3-oxo-N,N'-diphenyl-2,3-dihydro-1H-pyrrole-2,4-dicarboxamide
_symmetry_cell_setting           monoclinic
_symmetry_space_group_name_H-M   'P 21/n'
_symmetry_Int_Tables_number      14
_space_group_name_Hall           '-P 2yn'
loop_
_symmetry_equiv_pos_site_id
_symmetry_equiv_pos_as_xyz
1 x,y,z
2 1/2-x,1/2+y,1/2-z
3 -x,-y,-z
4 1/2+x,1/2-y,1/2+z
_cell_length_a                   10.6549(12)
_cell_length_b                   13.2969(15)
_cell_length_c                   16.6657(19)
_cell_angle_alpha                90
_cell_angle_beta                 104.718(2)
_cell_angle_gamma                90
_cell_volume                     2283.67
_exptl_crystal_colour            colorless
_exptl_crystal_description       block
_chemical_melting_point          '167-168 deg.C'
_cell_formula_units_Z            4
loop_
_atom_site_label
_atom_site_type_symbol
_atom_site_fract_x
_atom_site_fract_y
_atom_site_fract_z
O1 O 0.65347(17) 0.94759(13) 0.08804(11)
N1 N 0.4752(2) 1.23819(15) 0.05863(13)
N2 N 0.5561(2) 0.93529(15) 0.19459(13)
H1 H 0.5110 0.9686 0.2217
O2 O 0.17621(19) 1.28356(16) 0.10426(13)
O3 O 0.38834(19) 1.08802(14) 0.21037(12)
N3 N 0.2114(2) 1.17530(16) 0.00689(14)
H2 H 0.2717 1.1453 -0.0098
C1 C 0.5842(2) 0.98462(19) 0.12962(15)
C2 C 0.0812(3) 1.1592(2) -0.04044(17)
C3 C 0.4327(3) 1.12446(19) 0.15500(16)
C4 C 0.5448(2) 1.15485(18) 0.05667(15)
C5 C 0.5240(2) 1.08342(18) 0.11419(15)
C6 C 0.5911(2) 0.83659(19) 0.22336(16)
C7 C 0.5865(3) 1.37957(19) 0.00169(18)
C8 C 0.3956(3) 1.22961(19) 0.11836(17)
C9 C 0.6328(2) 1.1472(2) 0.00127(16)
H3 H 0.6269 1.2074 -0.0312
H4 H 0.6084 1.0904 -0.0349
H5 H 0.7204 1.1387 0.0339
C10 C 0.2490(3) 1.2333(2) 0.07539(17)
C11 C 0.7169(3) 0.6857(2) 0.23467(18)
H6 H 0.7826 0.6488 0.2208
C12 C 0.4624(2) 1.32486(19) 0.00194(17)
H7 H 0.4028 1.3726 0.0163
H8 H 0.4233 1.3016 -0.0540
C13 C 0.6911(3) 0.7826(2) 0.20385(16)
H9 H 0.7399 0.8110 0.1707
C14 C -0.1357(3) 1.2140(2) -0.0995(2)
H10 H -0.1979 1.2646 -0.1078
C15 C 0.6107(3) 1.4055(2) -0.0733(2)
H11 H 0.5520 1.3867 -0.1225
C16 C 0.0481(3) 1.0660(2) -0.07565(18)
H12 H 0.1101 1.0153 -0.0680
C17 C 0.5225(3) 0.7943(2) 0.27557(17)
H13 H 0.4568 0.8308 0.2897
C18 C -0.1691(3) 1.1219(2) -0.13379(18)
H14 H -0.2534 1.1094 -0.1647
C19 C -0.0767(3) 1.0475(2) -0.12231(19)
H15 H -0.0983 0.9845 -0.1460
C20 C 0.6476(3) 0.6431(2) 0.28522(19)
H16 H 0.6654 0.5778 0.3048
C21 C -0.0114(3) 1.2341(2) -0.0525(2)
H17 H 0.0096 1.2974 -0.0292
C22 C 0.5508(3) 0.6985(2) 0.30663(19)
H18 H 0.5050 0.6711 0.3420
C23 C 0.6748(3) 1.4076(2) 0.0741(2)
H19 H 0.6604 1.3902 0.1251
C24 C 0.7851(3) 1.4617(2) 0.0713(3)
H20 H 0.8438 1.4809 0.1203
C25 C 0.7210(3) 1.4588(2) -0.0762(3)
H21 H 0.7364 1.4756 -0.1271
C26 C 0.8076(3) 1.4869(2) -0.0036(3)
H22 H 0.8816 1.5231 -0.0053
C27 C 0.4318(3) 1.3076(2) 0.18704(17)
H23 H 0.5231 1.3038 0.2126
H24 H 0.3843 1.2948 0.2278
H25 H 0.4107 1.3735 0.1640
loop_
_geom_bond_atom_site_label_1
_geom_bond_atom_site_label_2
_geom_bond_site_symmetry_1
_geom_bond_site_symmetry_2
O1 C1 1_555 1_555
N1 C4 1_555 1_555
N2 H1 1_555 1_555
O2 C10 1_555 1_555
O3 C3 1_555 1_555
N3 H2 1_555 1_555
C1 N2 1_555 1_555
C2 N3 1_555 1_555
C3 C5 1_555 1_555
C4 C5 1_555 1_555
C5 C1 1_555 1_555
C6 N2 1_555 1_555
C7 C12 1_555 1_555
C8 N1 1_555 1_555
C9 C4 1_555 1_555
H3 C9 1_555 1_555
H4 C9 1_555 1_555
H5 C9 1_555 1_555
C10 N3 1_555 1_555
C11 H6 1_555 1_555
C12 N1 1_555 1_555
H7 C12 1_555 1_555
H8 C12 1_555 1_555
C13 C6 1_555 1_555
H9 C13 1_555 1_555
C14 H10 1_555 1_555
C15 C7 1_555 1_555
H11 C15 1_555 1_555
C16 C2 1_555 1_555
H12 C16 1_555 1_555
C17 C6 1_555 1_555
H13 C17 1_555 1_555
C18 C14 1_555 1_555
H14 C18 1_555 1_555
C19 C16 1_555 1_555
H15 C19 1_555 1_555
C20 C11 1_555 1_555
H16 C20 1_555 1_555
C21 C2 1_555 1_555
H17 C21 1_555 1_555
C22 C17 1_555 1_555
H18 C22 1_555 1_555
C23 C7 1_555 1_555
H19 C23 1_555 1_555
C24 C23 1_555 1_555
H20 C24 1_555 1_555
C25 C15 1_555 1_555
H21 C25 1_555 1_555
C26 C24 1_555 1_555
H22 C26 1_555 1_555
C27 C8 1_555 1_555
H23 C27 1_555 1_555
H24 C27 1_555 1_555
H25 C27 1_555 1_555
C3 C8 1_555 1_555
C8 C10 1_555 1_555
C11 C13 1_555 1_555
C14 C21 1_555 1_555
C18 C19 1_555 1_555
C20 C22 1_555 1_555
C25 C26 1_555 1_555

#END
