
#######################################################################
#
#                 Cambridge Crystallographic Data Centre
#                                CCDC 
#
#######################################################################
#
# If this CIF has been generated from an entry in the Cambridge 
# Structural Database, then it will include bibliographic, chemical, 
# crystal, experimental, refinement or atomic coordinate data resulting 
# from the CCDC's data processing and validation procedures.
#
#######################################################################

data_QITJUZ
_chemical_formula_moiety         'C25 H24 Cl1 N3 O4'
_chemical_name_systematic        
'Ethyl 2-(1-(2-chlorophenyl)-3-((ethoxycarbonyl)amino)-3-(2-naphthyl)prop-2-en-1-ylidene)hydrazine-1-carboxylate'
_symmetry_cell_setting           monoclinic
_symmetry_space_group_name_H-M   'P 21/c'
_symmetry_Int_Tables_number      14
_space_group_name_Hall           '-P 2ybc'
loop_
_symmetry_equiv_pos_site_id
_symmetry_equiv_pos_as_xyz
1 x,y,z
2 -x,1/2+y,1/2-z
3 -x,-y,-z
4 x,1/2-y,1/2+z
_cell_length_a                   13.3036(7)
_cell_length_b                   16.2479(8)
_cell_length_c                   12.1618(6)
_cell_angle_alpha                90
_cell_angle_beta                 114.9040(11)
_cell_angle_gamma                90
_cell_volume                     2384.4
_exptl_crystal_colour            yellow
_exptl_crystal_description       prism
_cell_formula_units_Z            4
loop_
_atom_site_label
_atom_site_type_symbol
_atom_site_fract_x
_atom_site_fract_y
_atom_site_fract_z
Cl1 Cl 0.21048(10) 0.15776(6) 0.78513(11)
O1 O -0.01817(18) 0.02858(13) 0.36274(17)
O2 O 0.12105(16) 0.09665(12) 0.34374(16)
O3 O 0.5234(2) 0.21055(14) 0.44989(19)
O4 O 0.3651(2) 0.15293(13) 0.31576(18)
N1 N 0.2578(2) 0.06157(13) 0.5561(2)
N2 N 0.1497(2) 0.03640(13) 0.51927(19)
N3 N 0.4223(2) 0.11888(13) 0.5071(2)
C1 C 0.2988(2) 0.0132(2) 0.7619(2)
C2 C 0.2471(2) 0.0571(2) 0.8225(2)
C3 C 0.2241(3) 0.0201(3) 0.9119(3)
C4 C 0.2533(5) -0.0594(4) 0.9423(4)
C5 C 0.3002(5) -0.1044(3) 0.8853(5)
C6 C 0.3227(3) -0.0675(2) 0.7932(3)
C7 C 0.3275(2) 0.05183(17) 0.6676(2)
C8 C 0.4404(2) 0.07791(17) 0.7024(2)
C9 C 0.4864(2) 0.10992(16) 0.6325(2)
C10 C 0.6055(2) 0.13320(17) 0.6830(2)
C11 C 0.6493(2) 0.18402(16) 0.7808(2)
C12 C 0.7632(2) 0.20637(17) 0.8323(2)
C13 C 0.8087(2) 0.26093(19) 0.9307(2)
C14 C 0.9182(2) 0.2820(2) 0.9750(2)
C15 C 0.9861(3) 0.2490(2) 0.9263(3)
C16 C 0.9454(2) 0.1963(2) 0.8327(3)
C17 C 0.8323(2) 0.17342(19) 0.7819(2)
C18 C 0.7861(2) 0.1194(2) 0.6833(3)
C19 C 0.6767(2) 0.09988(19) 0.6344(2)
C20 C 0.0762(2) 0.05210(18) 0.4044(2)
C21 C 0.0486(3) 0.1196(2) 0.2188(2)
C22 C 0.0596(3) 0.0599(2) 0.1355(2)
C23 C 0.4468(2) 0.1652(2) 0.4275(2)
C24 C 0.3787(4) 0.2014(2) 0.2200(3)
C25 C 0.4341(7) 0.1421(4) 0.1698(7)
H1 H 0.1887 0.0497 0.9508
H2 H 0.2403 -0.0831 1.0047
H3 H 0.3178 -0.1593 0.9059
H4 H 0.3548 -0.0990 0.7526
H5 H 0.4877 0.0717 0.7840
H6 H 0.6036 0.2046 0.8148
H7 H 0.7643 0.2827 0.9657
H8 H 0.9474 0.3191 1.0390
H9 H 1.0607 0.2634 0.9586
H10 H 0.9922 0.1745 0.8009
H11 H 0.8315 0.0963 0.6506
H12 H 0.6482 0.0644 0.5684
H13 H 0.1293 0.0111 0.5686
H14 H -0.0277 0.1206 0.2088
H15 H 0.0692 0.1737 0.2016
H16 H 0.1351 0.0588 0.1453
H17 H 0.0120 0.0753 0.0537
H18 H 0.0391 0.0064 0.1524
H19 H 0.4793 0.1049 0.2325
H20 H 0.4797 0.1716 0.1396
H21 H 0.3789 0.1114 0.1049
H25 H 0.3608 0.0922 0.4770
C26? C 0.2791(6) 0.1905(6) 0.1035(5)
H22? H 0.2999 0.1951 0.0372
H23? H 0.2255 0.2322 0.0962
H24? H 0.2475 0.1371 0.1020
loop_
_geom_bond_atom_site_label_1
_geom_bond_atom_site_label_2
_geom_bond_site_symmetry_1
_geom_bond_site_symmetry_2
Cl1 C2 1_555 1_555
O1 C20 1_555 1_555
O2 C20 1_555 1_555
O3 C23 1_555 1_555
O4 C23 1_555 1_555
N1 N2 1_555 1_555
N2 C20 1_555 1_555
N3 C9 1_555 1_555
C1 C2 1_555 1_555
C2 C3 1_555 1_555
C3 C4 1_555 1_555
C4 C5 1_555 1_555
C5 C6 1_555 1_555
C6 C1 1_555 1_555
C7 N1 1_555 1_555
C8 C7 1_555 1_555
C9 C8 1_555 1_555
C10 C9 1_555 1_555
C11 C10 1_555 1_555
C12 C11 1_555 1_555
C13 C12 1_555 1_555
C14 C13 1_555 1_555
C15 C14 1_555 1_555
C16 C15 1_555 1_555
C17 C12 1_555 1_555
C18 C17 1_555 1_555
C19 C10 1_555 1_555
C21 O2 1_555 1_555
C22 C21 1_555 1_555
C23 N3 1_555 1_555
C24 O4 1_555 1_555
C25 C24 1_555 1_555
H1 C3 1_555 1_555
H2 C4 1_555 1_555
H3 C5 1_555 1_555
H4 C6 1_555 1_555
H5 C8 1_555 1_555
H6 C11 1_555 1_555
H7 C13 1_555 1_555
H8 C14 1_555 1_555
H9 C15 1_555 1_555
H10 C16 1_555 1_555
H11 C18 1_555 1_555
H12 C19 1_555 1_555
H13 N2 1_555 1_555
H14 C21 1_555 1_555
H15 C21 1_555 1_555
H16 C22 1_555 1_555
H17 C22 1_555 1_555
H18 C22 1_555 1_555
H19 C25 1_555 1_555
H20 C25 1_555 1_555
H21 C25 1_555 1_555
H25 N3 1_555 1_555
C1 C7 1_555 1_555
C16 C17 1_555 1_555
C18 C19 1_555 1_555

#END
