
#######################################################################
#
#                 Cambridge Crystallographic Data Centre
#                                CCDC 
#
#######################################################################
#
# If this CIF has been generated from an entry in the Cambridge 
# Structural Database, then it will include bibliographic, chemical, 
# crystal, experimental, refinement or atomic coordinate data resulting 
# from the CCDC's data processing and validation procedures.
#
#######################################################################

data_QITKUZ
_chemical_formula_moiety         'C24 H28 S2'
_chemical_name_systematic        
3,15-Dithia-(3.3)(1,3)adamantano-1,3-naphthalenocyclophane
_symmetry_cell_setting           monoclinic
_symmetry_space_group_name_H-M   'P 21/n'
_symmetry_Int_Tables_number      14
_space_group_name_Hall           '-P 2yn'
loop_
_symmetry_equiv_pos_site_id
_symmetry_equiv_pos_as_xyz
1 x,y,z
2 1/2+x,1/2-y,1/2+z
3 -x,-y,-z
4 1/2-x,1/2+y,1/2-z
_cell_length_a                   12.766(3)
_cell_length_b                   10.658(2)
_cell_length_c                   14.593(3)
_cell_angle_alpha                90
_cell_angle_beta                 95.76(2)
_cell_angle_gamma                90
_cell_volume                     1975.5
_exptl_crystal_colour            colorless
_exptl_crystal_description       plates
_cell_formula_units_Z            4
loop_
_atom_site_label
_atom_site_type_symbol
_atom_site_fract_x
_atom_site_fract_y
_atom_site_fract_z
C1 C 0.7663(2) 0.2005(3) 0.3546(2)
H1 H 0.8347 0.1779 0.3851
H2 H 0.7197 0.1294 0.3595
S1 S 0.71471(7) 0.33487(10) 0.41567(6)
C2 C 0.5750(3) 0.3042(3) 0.4138(2)
H3 H 0.5642 0.2146 0.4061
H4 H 0.5537 0.3265 0.4736
C3 C 0.4999(2) 0.3716(3) 0.3396(2)
C4 C 0.5033(3) 0.5137(3) 0.3470(2)
H5 H 0.5737 0.5434 0.3393
H6 H 0.4860 0.5393 0.4074
C5 C 0.4249(3) 0.5712(3) 0.2729(3)
H7 H 0.4276 0.6628 0.2781
C6 C 0.3130(3) 0.5261(3) 0.2853(3)
H8 H 0.2939 0.5514 0.3453
H9 H 0.2632 0.5634 0.2386
C7 C 0.3096(2) 0.3827(3) 0.2770(3)
H10 H 0.2386 0.3530 0.2853
C8 C 0.3380(2) 0.3439(3) 0.1816(3)
H11 H 0.2881 0.3803 0.1346
H12 H 0.3343 0.2533 0.1757
C9 C 0.4494(2) 0.3888(3) 0.1680(2)
C10 C 0.5262(2) 0.3340(3) 0.24428(18)
H13 H 0.5252 0.2433 0.2395
H14 H 0.5968 0.3623 0.2359
C11 C 0.3870(3) 0.3271(3) 0.3509(3)
H15 H 0.3841 0.2362 0.3472
H16 H 0.3681 0.3519 0.4110
C12 C 0.4527(3) 0.5325(3) 0.1775(2)
H17 H 0.5225 0.5628 0.1684
H18 H 0.4030 0.5699 0.1307
C13 C 0.4826(2) 0.3519(3) 0.0736(2)
H19 H 0.5521 0.3860 0.0678
H20 H 0.4343 0.3902 0.0261
S2 S 0.48569(6) 0.18268(8) 0.05297(6)
C14 C 0.6197(3) 0.1532(3) 0.0261(2)
H21 H 0.6291 0.0633 0.0207
H22 H 0.6283 0.1900 -0.0334
C15 C 0.7046(2) 0.2027(3) 0.0947(2)
C16 C 0.7783(2) 0.2857(3) 0.0686(2)
H23 H 0.7755 0.3104 0.0073
C17 C 0.8576(2) 0.3342(3) 0.1321(2)
C18 C 0.9403(3) 0.4100(3) 0.1043(3)
H24 H 0.9423 0.4281 0.0421
C19 C 1.0162(3) 0.4564(3) 0.1665(3)
H25 H 1.0709 0.5034 0.1465
C20 C 1.0129(2) 0.4343(3) 0.2601(3)
H26 H 1.0641 0.4691 0.3024
C21 C 0.9349(2) 0.3618(3) 0.2902(2)
H27 H 0.9335 0.3482 0.3530
C22 C 0.85673(19) 0.3075(3) 0.22776(19)
C23 C 0.7772(2) 0.2242(3) 0.2547(2)
C24 C 0.7093(2) 0.1695(3) 0.1888(2)
H28 H 0.6640 0.1076 0.2063
loop_
_geom_bond_atom_site_label_1
_geom_bond_atom_site_label_2
_geom_bond_site_symmetry_1
_geom_bond_site_symmetry_2
C1 H1 1_555 1_555
H2 C1 1_555 1_555
S1 C1 1_555 1_555
C2 S1 1_555 1_555
H3 C2 1_555 1_555
H4 C2 1_555 1_555
C3 C2 1_555 1_555
C4 C3 1_555 1_555
H5 C4 1_555 1_555
H6 C4 1_555 1_555
C5 C4 1_555 1_555
H7 C5 1_555 1_555
C6 C5 1_555 1_555
H8 C6 1_555 1_555
H9 C6 1_555 1_555
C7 C6 1_555 1_555
H10 C7 1_555 1_555
C8 C7 1_555 1_555
H11 C8 1_555 1_555
H12 C8 1_555 1_555
C9 C8 1_555 1_555
C10 C3 1_555 1_555
H13 C10 1_555 1_555
H14 C10 1_555 1_555
C11 C3 1_555 1_555
H15 C11 1_555 1_555
H16 C11 1_555 1_555
C12 C5 1_555 1_555
H17 C12 1_555 1_555
H18 C12 1_555 1_555
C13 C9 1_555 1_555
H19 C13 1_555 1_555
H20 C13 1_555 1_555
S2 C13 1_555 1_555
C14 S2 1_555 1_555
H21 C14 1_555 1_555
H22 C14 1_555 1_555
C15 C14 1_555 1_555
C16 C15 1_555 1_555
H23 C16 1_555 1_555
C17 C16 1_555 1_555
C18 C17 1_555 1_555
H24 C18 1_555 1_555
C19 C18 1_555 1_555
H25 C19 1_555 1_555
C20 C19 1_555 1_555
H26 C20 1_555 1_555
C21 C20 1_555 1_555
H27 C21 1_555 1_555
C22 C17 1_555 1_555
C23 C1 1_555 1_555
C24 C15 1_555 1_555
H28 C24 1_555 1_555
C7 C11 1_555 1_555
C9 C10 1_555 1_555
C9 C12 1_555 1_555
C21 C22 1_555 1_555
C22 C23 1_555 1_555
C23 C24 1_555 1_555

#END
