
#######################################################################
#
#                 Cambridge Crystallographic Data Centre
#                                CCDC 
#
#######################################################################
#
# If this CIF has been generated from an entry in the Cambridge 
# Structural Database, then it will include bibliographic, chemical, 
# crystal, experimental, refinement or atomic coordinate data resulting 
# from the CCDC's data processing and validation procedures.
#
#######################################################################

data_QITKAG
_chemical_formula_moiety         'C21 H22 N4 O6'
_chemical_name_systematic        
'Ethyl 5-((ethoxycarbonyl)amino)-3-(3-nitrophenyl)-5-phenyl-4,5-dihydro-1H-pyrazole-1-carboxylate'
_symmetry_cell_setting           triclinic
_symmetry_space_group_name_H-M   'P -1'
_symmetry_Int_Tables_number      2
_space_group_name_Hall           '-P 1'
loop_
_symmetry_equiv_pos_site_id
_symmetry_equiv_pos_as_xyz
1 x,y,z
2 -x,-y,-z
_cell_length_a                   10.0212(7)
_cell_length_b                   11.0094(8)
_cell_length_c                   20.3173(16)
_cell_angle_alpha                89.994(2)
_cell_angle_beta                 85.467(2)
_cell_angle_gamma                75.5870(17)
_cell_volume                     2163.77
_exptl_crystal_colour            yellow
_exptl_crystal_description       chunk
_chemical_melting_point          '114-115 deg.C'
_cell_formula_units_Z            4
loop_
_atom_site_label
_atom_site_type_symbol
_atom_site_fract_x
_atom_site_fract_y
_atom_site_fract_z
O1 O 0.4609(4) -0.3177(2) 0.5913(2)
O2 O 0.4928(4) -0.1669(3) 0.5304(2)
O3 O 0.4524(2) 0.2661(2) 0.70655(14)
O4 O 0.5825(2) 0.4050(2) 0.69445(14)
O5 O 0.1626(2) 0.6064(2) 0.72310(12)
O6 O 0.0442(2) 0.4867(2) 0.77862(13)
N1 N 0.4320(4) -0.2078(3) 0.5752(2)
N2 N 0.3921(2) 0.4386(2) 0.64356(13)
N3 N 0.1383(2) 0.2976(2) 0.69490(13)
N4 N 0.1661(2) 0.4144(2) 0.68351(13)
C1 C 0.2042(3) 0.2226(2) 0.64857(17)
C2 C 0.2065(3) 0.0892(2) 0.64839(17)
C3 C 0.1131(4) 0.0428(3) 0.6885(2)
C4 C 0.1239(5) -0.0850(3) 0.6904(2)
C5 C 0.2266(5) -0.1674(3) 0.6536(2)
C6 C 0.3181(4) -0.1206(3) 0.6143(2)
C7 C 0.3094(3) 0.0055(2) 0.61029(18)
C8 C 0.2842(3) 0.2808(2) 0.59765(17)
C9 C 0.2638(3) 0.4154(2) 0.62537(17)
C10 C 0.2026(3) 0.5110(2) 0.57491(18)
C11 C 0.2850(4) 0.5258(3) 0.5194(2)
C12 C 0.2313(5) 0.6050(5) 0.4693(2)
C13 C 0.0971(6) 0.6708(4) 0.4751(2)
C14 C 0.0140(5) 0.6563(3) 0.5293(2)
C15 C 0.0657(3) 0.5761(3) 0.5794(2)
C16 C 0.4745(3) 0.3613(3) 0.6841(2)
C17 C 0.6842(5) 0.3250(6) 0.7333(2)
C18 C 0.7904(6) 0.3813(9) 0.7401(4)
C19 C 0.1265(3) 0.5105(3) 0.72918(19)
C20 C -0.0234(6) 0.5933(4) 0.8232(2)
C21 C -0.0114(5) 0.5630(5) 0.8890(2)
H1 H 0.0428 0.0977 0.7142
H2 H 0.0600 -0.1150 0.7172
H3 H 0.2342 -0.2532 0.6553
H4 H 0.3720 0.0345 0.5822
H5 H 0.3777 0.4824 0.5154
H6 H 0.2877 0.6128 0.4318
H7 H 0.0620 0.7255 0.4422
H8 H -0.0783 0.7006 0.5330
H9 H 0.0075 0.5665 0.6159
H10 H 0.2470 0.2817 0.5549
H11 H 0.3812 0.2366 0.5937
H21 H 0.4169 0.5031 0.6282
H22 H 0.7199 0.2442 0.7110
H23 H 0.6412 0.3133 0.7765
H24 H 0.8247 0.4029 0.6974
H25 H 0.8635 0.3244 0.7606
H26 H 0.7572 0.4559 0.7671
H27 H -0.1207 0.6191 0.8156
H28 H 0.0192 0.6620 0.8136
H29 H -0.0539 0.4954 0.8991
H30 H 0.0846 0.5377 0.8971
H31 H -0.0566 0.6349 0.9163
O7 O 0.7900(5) -0.6210(4) 0.9865(2)
O8 O 0.6632(4) -0.7508(2) 0.99247(19)
O9 O 0.6703(3) -0.1865(2) 0.70828(18)
O10 O 0.6516(3) -0.0044(2) 0.65476(16)
O11 O 0.6979(2) 0.0817(2) 0.83632(14)
O12 O 0.8321(2) -0.0906(2) 0.88060(12)
N5 N 0.6897(5) -0.6555(3) 0.9718(2)
N6 N 0.5263(2) -0.0037(2) 0.74860(14)
N7 N 0.6424(2) -0.2177(2) 0.87079(13)
N8 N 0.6257(2) -0.0961(2) 0.84767(14)
C22 C 0.5424(3) -0.2606(2) 0.85216(17)
C23 C 0.5277(3) -0.3846(2) 0.87019(18)
C24 C 0.4252(3) -0.4322(3) 0.8444(2)
C25 C 0.4111(4) -0.5500(3) 0.8606(2)
C26 C 0.4954(4) -0.6228(3) 0.9023(2)
C27 C 0.5962(4) -0.5760(3) 0.9277(2)
C28 C 0.6147(3) -0.4593(3) 0.91308(18)
C29 C 0.4455(3) -0.1718(2) 0.81179(19)
C30 C 0.4966(3) -0.0496(2) 0.81346(18)
C31 C 0.3929(3) 0.0501(2) 0.85439(17)
C32 C 0.2855(3) 0.1329(2) 0.82573(18)
C33 C 0.1832(4) 0.2160(3) 0.8636(2)
C34 C 0.1848(4) 0.2202(3) 0.9305(2)
C35 C 0.2908(4) 0.1402(4) 0.9601(2)
C36 C 0.3925(4) 0.0553(3) 0.92237(19)
C37 C 0.6207(4) -0.0752(4) 0.7044(2)
C38 C 0.7562(6) -0.0691(6) 0.6050(3)
C39 C 0.8079(8) 0.0168(7) 0.5669(3)
C40 C 0.7182(3) -0.0257(3) 0.85423(18)
C41 C 0.9311(4) -0.0174(4) 0.8921(2)
C42 C 1.0541(4) -0.0982(4) 0.9125(3)
H12 H 0.3660 -0.3837 0.8161
H13 H 0.3428 -0.5804 0.8428
H14 H 0.4852 -0.7021 0.9134
H15 H 0.6836 -0.4304 0.9313
H16 H 0.2829 0.1319 0.7801
H17 H 0.1122 0.2700 0.8433
H18 H 0.1151 0.2764 0.9560
H19 H 0.2938 0.1435 1.0057
H20 H 0.4621 0.0004 0.9431
H32 H 0.4830 0.0705 0.7381
H33 H 0.4510 -0.2036 0.7669
H34 H 0.3511 -0.1571 0.8312
H35 H 0.8312 -0.1237 0.6264
H36 H 0.7160 -0.1188 0.5767
H37 H 0.8358 0.0740 0.5953
H38 H 0.7373 0.0628 0.5406
H39 H 0.8860 -0.0271 0.5384
H40 H 0.9523 0.0234 0.8517
H41 H 0.8919 0.0457 0.9264
H42 H 1.1090 -0.0491 0.9314
H43 H 1.1058 -0.1454 0.8750
H44 H 1.0308 -0.1547 0.9449
loop_
_geom_bond_atom_site_label_1
_geom_bond_atom_site_label_2
_geom_bond_site_symmetry_1
_geom_bond_site_symmetry_2
O1 N1 1_555 1_555
O2 N1 1_555 1_555
O3 C16 1_555 1_555
O4 C16 1_555 1_555
O5 C19 1_555 1_555
O6 C19 1_555 1_555
O7 N5 1_555 1_555
O8 N5 1_555 1_555
O9 C37 1_555 1_555
O10 C37 1_555 1_555
O11 C40 1_555 1_555
O12 C40 1_555 1_555
N1 C6 1_555 1_555
N2 C9 1_555 1_555
N3 N4 1_555 1_555
N4 C9 1_555 1_555
N5 C27 1_555 1_555
N6 C30 1_555 1_555
N7 N8 1_555 1_555
N8 C30 1_555 1_555
C1 N3 1_555 1_555
C2 C1 1_555 1_555
C3 C2 1_555 1_555
C4 C3 1_555 1_555
C5 C4 1_555 1_555
C6 C5 1_555 1_555
C7 C2 1_555 1_555
C8 C1 1_555 1_555
C9 C8 1_555 1_555
C10 C9 1_555 1_555
C11 C10 1_555 1_555
C12 C11 1_555 1_555
C13 C12 1_555 1_555
C14 C13 1_555 1_555
C15 C10 1_555 1_555
C16 N2 1_555 1_555
C17 O4 1_555 1_555
C18 C17 1_555 1_555
C19 N4 1_555 1_555
C20 O6 1_555 1_555
C21 C20 1_555 1_555
C22 N7 1_555 1_555
C23 C22 1_555 1_555
C24 C23 1_555 1_555
C25 C24 1_555 1_555
C26 C25 1_555 1_555
C27 C26 1_555 1_555
C28 C23 1_555 1_555
C29 C22 1_555 1_555
C30 C29 1_555 1_555
C31 C30 1_555 1_555
C32 C31 1_555 1_555
C33 C32 1_555 1_555
C34 C33 1_555 1_555
C35 C34 1_555 1_555
C36 C31 1_555 1_555
C37 N6 1_555 1_555
C38 O10 1_555 1_555
C39 C38 1_555 1_555
C40 N8 1_555 1_555
C41 O12 1_555 1_555
C42 C41 1_555 1_555
H1 C3 1_555 1_555
H2 C4 1_555 1_555
H3 C5 1_555 1_555
H4 C7 1_555 1_555
H5 C11 1_555 1_555
H6 C12 1_555 1_555
H7 C13 1_555 1_555
H8 C14 1_555 1_555
H9 C15 1_555 1_555
H10 C8 1_555 1_555
H11 C8 1_555 1_555
H12 C24 1_555 1_555
H13 C25 1_555 1_555
H14 C26 1_555 1_555
H15 C28 1_555 1_555
H16 C32 1_555 1_555
H17 C33 1_555 1_555
H18 C34 1_555 1_555
H19 C35 1_555 1_555
H20 C36 1_555 1_555
H21 N2 1_555 1_555
H22 C17 1_555 1_555
H23 C17 1_555 1_555
H24 C18 1_555 1_555
H25 C18 1_555 1_555
H26 C18 1_555 1_555
H27 C20 1_555 1_555
H28 C20 1_555 1_555
H29 C21 1_555 1_555
H30 C21 1_555 1_555
H31 C21 1_555 1_555
H32 N6 1_555 1_555
H33 C29 1_555 1_555
H34 C29 1_555 1_555
H35 C38 1_555 1_555
H36 C38 1_555 1_555
H37 C39 1_555 1_555
H38 C39 1_555 1_555
H39 C39 1_555 1_555
H40 C41 1_555 1_555
H41 C41 1_555 1_555
H42 C42 1_555 1_555
H43 C42 1_555 1_555
H44 C42 1_555 1_555
C6 C7 1_555 1_555
C14 C15 1_555 1_555
C27 C28 1_555 1_555
C35 C36 1_555 1_555

#END
