
#######################################################################
#
#                 Cambridge Crystallographic Data Centre
#                                CCDC 
#
#######################################################################
#
# If this CIF has been generated from an entry in the Cambridge 
# Structural Database, then it will include bibliographic, chemical, 
# crystal, experimental, refinement or atomic coordinate data resulting 
# from the CCDC's data processing and validation procedures.
#
#######################################################################

data_QITLEK
_chemical_name_common            (5.2.2)(1,4)Cyclophan-3-one
_chemical_formula_moiety         'C27 H28 O1'
_chemical_name_systematic        1,7,10(1,4)-Tribenzenacyclododecaphan-4-one
_symmetry_cell_setting           monoclinic
_symmetry_space_group_name_H-M   'P 21'
_symmetry_Int_Tables_number      4
_space_group_name_Hall           'P 2yb'
loop_
_symmetry_equiv_pos_site_id
_symmetry_equiv_pos_as_xyz
1 x,y,z
2 -x,1/2+y,-z
_cell_length_a                   10.532(2)
_cell_length_b                   10.146(2)
_cell_length_c                   11.062(3)
_cell_angle_alpha                90
_cell_angle_beta                 117.43(2)
_cell_angle_gamma                90
_cell_volume                     1049.17
_exptl_crystal_colour            colorless
_exptl_crystal_description       plates
_cell_formula_units_Z            2
loop_
_atom_site_label
_atom_site_type_symbol
_atom_site_fract_x
_atom_site_fract_y
_atom_site_fract_z
O1 O 0.4516(3) 0.0000 0.5194(3)
C1 C 0.6106(5) 0.0905(7) 0.7867(5)
H1 H 0.6978 0.0992 0.8718
H2 H 0.5870 -0.0026 0.7733
C2 C 0.6407(4) 0.1367(6) 0.6728(5)
H3 H 0.7352 0.1067 0.6906
H4 H 0.6415 0.2323 0.6721
C3 C 0.5318(4) 0.0876(4) 0.5323(4)
C4 C 0.5365(4) 0.1545(6) 0.4167(5)
H5 H 0.6255 0.1322 0.4156
H6 H 0.5360 0.2490 0.4297
C5 C 0.4147(5) 0.1195(7) 0.2820(5)
H7 H 0.4067 0.0242 0.2765
H8 H 0.4385 0.1483 0.2113
C6 C 0.2688(5) 0.1758(6) 0.2504(4)
C7 C 0.2483(4) 0.2808(6) 0.3172(4)
H9 H 0.3271 0.3186 0.3896
C8 C 0.1140(4) 0.3324(5) 0.2801(4)
H10 H 0.1058 0.4031 0.3295
C9 C -0.0068(3) 0.2844(5) 0.1747(3)
C10 C 0.0136(4) 0.1759(5) 0.1084(4)
H11 H -0.0653 0.1371 0.0369
C11 C 0.1484(5) 0.1244(5) 0.1463(4)
H12 H 0.1572 0.0520 0.0991
C12 C -0.1513(4) 0.3424(5) 0.1369(4)
H13 H -0.2060 0.3441 0.0385
H14 H -0.1388 0.4329 0.1688
C13 C -0.2369(3) 0.2684(5) 0.1948(3)
H15 H -0.3321 0.3062 0.1576
H16 H -0.2469 0.1773 0.1653
C14 C -0.1701(3) 0.2719(5) 0.3486(3)
C15 C -0.0809(3) 0.1723(4) 0.4274(4)
H17 H -0.0612 0.1018 0.3850
C16 C -0.0206(3) 0.1751(4) 0.5675(4)
H18 H 0.0396 0.1070 0.6177
C17 C -0.0483(3) 0.2778(5) 0.6348(3)
C18 C -0.1359(3) 0.3774(4) 0.5562(4)
H19 H -0.1552 0.4482 0.5986
C19 C -0.1959(3) 0.3749(4) 0.4165(4)
H20 H -0.2549 0.4438 0.3665
C20 C 0.0152(4) 0.2795(5) 0.7867(4)
H21 H 0.0301 0.1893 0.8195
H22 H -0.0528 0.3197 0.8119
C21 C 0.1566(4) 0.3534(5) 0.8577(4)
H23 H 0.1427 0.4429 0.8231
H24 H 0.1850 0.3580 0.9544
C22 C 0.2755(4) 0.2906(5) 0.8381(4)
C23 C 0.3158(4) 0.3342(5) 0.7432(4)
H25 H 0.2703 0.4071 0.6897
C24 C 0.4229(5) 0.2717(6) 0.7258(5)
H26 H 0.4493 0.3044 0.6621
C25 C 0.4918(4) 0.1614(6) 0.8013(4)
C26 C 0.4504(5) 0.1194(5) 0.8954(4)
H27 H 0.4954 0.0466 0.9493
C27 C 0.3457(4) 0.1811(5) 0.9117(4)
H28 H 0.3199 0.1480 0.9757
loop_
_geom_bond_atom_site_label_1
_geom_bond_atom_site_label_2
_geom_bond_site_symmetry_1
_geom_bond_site_symmetry_2
O1 C3 1_555 1_555
C1 H1 1_555 1_555
H2 C1 1_555 1_555
C2 C1 1_555 1_555
H3 C2 1_555 1_555
H4 C2 1_555 1_555
C3 C2 1_555 1_555
C4 C3 1_555 1_555
H5 C4 1_555 1_555
H6 C4 1_555 1_555
C5 C4 1_555 1_555
H7 C5 1_555 1_555
H8 C5 1_555 1_555
C6 C5 1_555 1_555
C7 C6 1_555 1_555
H9 C7 1_555 1_555
C8 C7 1_555 1_555
H10 C8 1_555 1_555
C9 C8 1_555 1_555
C10 C9 1_555 1_555
H11 C10 1_555 1_555
C11 C6 1_555 1_555
H12 C11 1_555 1_555
C12 C9 1_555 1_555
H13 C12 1_555 1_555
H14 C12 1_555 1_555
C13 C12 1_555 1_555
H15 C13 1_555 1_555
H16 C13 1_555 1_555
C14 C13 1_555 1_555
C15 C14 1_555 1_555
H17 C15 1_555 1_555
C16 C15 1_555 1_555
H18 C16 1_555 1_555
C17 C16 1_555 1_555
C18 C17 1_555 1_555
H19 C18 1_555 1_555
C19 C14 1_555 1_555
H20 C19 1_555 1_555
C20 C17 1_555 1_555
H21 C20 1_555 1_555
H22 C20 1_555 1_555
C21 C20 1_555 1_555
H23 C21 1_555 1_555
H24 C21 1_555 1_555
C22 C21 1_555 1_555
C23 C22 1_555 1_555
H25 C23 1_555 1_555
C24 C23 1_555 1_555
H26 C24 1_555 1_555
C25 C1 1_555 1_555
C26 C25 1_555 1_555
H27 C26 1_555 1_555
C27 C22 1_555 1_555
H28 C27 1_555 1_555
C10 C11 1_555 1_555
C18 C19 1_555 1_555
C24 C25 1_555 1_555
C26 C27 1_555 1_555

#END
