
#######################################################################
#
#                 Cambridge Crystallographic Data Centre
#                                CCDC 
#
#######################################################################
#
# If this CIF has been generated from an entry in the Cambridge 
# Structural Database, then it will include bibliographic, chemical, 
# crystal, experimental, refinement or atomic coordinate data resulting 
# from the CCDC's data processing and validation procedures.
#
#######################################################################

data_QITLAH
_chemical_formula_moiety         'C19 H32 O3 Si1'
_chemical_name_systematic        
'exo,exo-4,5-Di-n-butyl-7-oxo-3-(trimethylsilyl)bicyclo(2.2.1)hept-5-ene-2-carboxylic acid'
_symmetry_cell_setting           triclinic
_symmetry_space_group_name_H-M   'P -1'
_symmetry_Int_Tables_number      2
_space_group_name_Hall           '-P 1'
loop_
_symmetry_equiv_pos_site_id
_symmetry_equiv_pos_as_xyz
1 x,y,z
2 -x,-y,-z
_cell_length_a                   6.5493(13)
_cell_length_b                   11.954(2)
_cell_length_c                   14.124(3)
_cell_angle_alpha                102.24(3)
_cell_angle_beta                 93.57(3)
_cell_angle_gamma                102.03(3)
_cell_volume                     1050.33
_exptl_crystal_colour            colorless
_exptl_crystal_description       needle
_chemical_melting_point          '106.3-106.8 deg.C'
_cell_formula_units_Z            2
loop_
_atom_site_label
_atom_site_type_symbol
_atom_site_fract_x
_atom_site_fract_y
_atom_site_fract_z
Si1 Si 0.22913(11) 0.05136(7) 0.22475(6)
O1 O -0.0365(3) 0.07200(17) 0.41542(13)
O2 O 0.2463(3) 0.11026(18) 0.52176(13)
H1 H 0.172(7) 0.040(4) 0.545(3)
O3 O -0.2221(3) 0.25885(18) 0.31591(15)
C1 C -0.0351(4) 0.2852(2) 0.33072(19)
C2 C 0.1083(4) 0.3266(2) 0.42625(17)
H2 H 0.0405 0.3370 0.4864
C3 C 0.2448(4) 0.2331(2) 0.41087(17)
H3 H 0.3845 0.2671 0.4469
C4 C 0.1390(4) 0.1298(2) 0.44822(18)
C5 C 0.2629(3) 0.2085(2) 0.29782(16)
H4 H 0.4093 0.2454 0.2934
C6 C 0.1327(3) 0.2927(2) 0.26098(17)
C7 C 0.2565(4) 0.4161(2) 0.30888(19)
C8 C 0.2380(4) 0.4360(2) 0.4034(2)
H5 H 0.2955 0.5062 0.4487
C9 C 0.0617(4) 0.2665(2) 0.15339(17)
H6 H -0.0091 0.1841 0.1325
H7 H 0.1854 0.2781 0.1191
C10 C -0.0834(4) 0.3386(2) 0.12200(18)
H8 H -0.2067 0.3286 0.1567
H9 H -0.0121 0.4210 0.1405
C11 C -0.1525(6) 0.3062(3) 0.0147(2)
H10 H -0.0292 0.3224 -0.0192
H11 H -0.2111 0.2222 -0.0042
C12 C -0.3096(6) 0.3668(4) -0.0196(3)
H12 H -0.3422 0.3401 -0.0890
H13 H -0.2528 0.4501 -0.0032
H14 H -0.4352 0.3492 0.0112
C13 C 0.3969(5) 0.4925(3) 0.2553(2)
H15 H 0.4356 0.4412 0.1998
H16 H 0.3142 0.5402 0.2298
C14 C 0.5848(6) 0.5690(3) 0.3073(3)
H17 H 0.6676 0.5222 0.3342
H18 H 0.5473 0.6226 0.3617
C15 C 0.7226(6) 0.6415(3) 0.2482(3)
H19 H 0.7089 0.5959 0.1816
H20 H 0.6707 0.7115 0.2468
C16 C 0.9382(7) 0.6759(4) 0.2847(3)
H21 H 1.0137 0.7224 0.2450
H22 H 0.9932 0.6072 0.2833
H23 H 0.9539 0.7214 0.3506
C17 C 0.3676(5) 0.0611(3) 0.1141(2)
H24 H 0.5102 0.1043 0.1336
H25 H 0.2976 0.1007 0.0743
H26 H 0.3661 -0.0166 0.0776
C18 C -0.0466(4) -0.0339(2) 0.1867(2)
H27 H -0.1182 -0.0390 0.2435
H28 H -0.0465 -0.1115 0.1506
H29 H -0.1174 0.0049 0.1465
C19 C 0.3768(4) -0.0262(2) 0.2972(2)
H30 H 0.3113 -0.0336 0.3552
H31 H 0.5192 0.0180 0.3148
H32 H 0.3756 -0.1030 0.2588
loop_
_geom_bond_atom_site_label_1
_geom_bond_atom_site_label_2
_geom_bond_site_symmetry_1
_geom_bond_site_symmetry_2
Si1 C5 1_555 1_555
O1 C4 1_555 1_555
O2 H1 1_555 1_555
O3 C1 1_555 1_555
C1 C2 1_555 1_555
C2 H2 1_555 1_555
C3 C2 1_555 1_555
H3 C3 1_555 1_555
C4 O2 1_555 1_555
C5 C3 1_555 1_555
H4 C5 1_555 1_555
C6 C1 1_555 1_555
C7 C6 1_555 1_555
C8 C2 1_555 1_555
H5 C8 1_555 1_555
C9 C6 1_555 1_555
H6 C9 1_555 1_555
H7 C9 1_555 1_555
C10 C9 1_555 1_555
H8 C10 1_555 1_555
H9 C10 1_555 1_555
C11 C10 1_555 1_555
H10 C11 1_555 1_555
H11 C11 1_555 1_555
C12 C11 1_555 1_555
H12 C12 1_555 1_555
H13 C12 1_555 1_555
H14 C12 1_555 1_555
C13 C7 1_555 1_555
H15 C13 1_555 1_555
H16 C13 1_555 1_555
C14 C13 1_555 1_555
H17 C14 1_555 1_555
H18 C14 1_555 1_555
C15 C14 1_555 1_555
H19 C15 1_555 1_555
H20 C15 1_555 1_555
C16 C15 1_555 1_555
H21 C16 1_555 1_555
H22 C16 1_555 1_555
H23 C16 1_555 1_555
C17 Si1 1_555 1_555
H24 C17 1_555 1_555
H25 C17 1_555 1_555
H26 C17 1_555 1_555
C18 Si1 1_555 1_555
H27 C18 1_555 1_555
H28 C18 1_555 1_555
H29 C18 1_555 1_555
C19 Si1 1_555 1_555
H30 C19 1_555 1_555
H31 C19 1_555 1_555
H32 C19 1_555 1_555
C3 C4 1_555 1_555
C5 C6 1_555 1_555
C7 C8 1_555 1_555

#END
