
#######################################################################
#
#                 Cambridge Crystallographic Data Centre
#                                CCDC 
#
#######################################################################
#
# If this CIF has been generated from an entry in the Cambridge 
# Structural Database, then it will include bibliographic, chemical, 
# crystal, experimental, refinement or atomic coordinate data resulting 
# from the CCDC's data processing and validation procedures.
#
#######################################################################

data_QITWUN
_chemical_formula_moiety         'C21 H20 Br1 N1 O4'
_chemical_name_systematic        
"Ethyl 7'-bromo-3-hydroxy-2'-oxo-1,1',2',3,4,9a-hexahydrospiro[benzo[7]annulene-2,3'-indole]-1-carboxylate"
_symmetry_cell_setting           monoclinic
_symmetry_space_group_name_H-M   'P 21'
_symmetry_Int_Tables_number      4
_space_group_name_Hall           'P 2yb'
loop_
_symmetry_equiv_pos_site_id
_symmetry_equiv_pos_as_xyz
1 x,y,z
2 -x,1/2+y,-z
_cell_length_a                   10.3326(5)
_cell_length_b                   6.3617(3)
_cell_length_c                   14.1521(7)
_cell_angle_alpha                90
_cell_angle_beta                 96.731(2)
_cell_angle_gamma                90
_cell_volume                     923.847
_exptl_crystal_colour            colorless
_exptl_crystal_description       irregular
_cell_formula_units_Z            2
loop_
_atom_site_label
_atom_site_type_symbol
_atom_site_fract_x
_atom_site_fract_y
_atom_site_fract_z
Br1 Br -0.13168(2) 0.37253(4) 0.433987(16)
C1 C 0.5522(2) 0.8248(3) 0.28700(16)
O1 O 0.20330(18) 0.3475(4) 0.16063(12)
C2 C 0.29944(19) 0.3678(5) 0.36798(13)
C3 C 0.1220(2) 0.8621(6) 0.28703(16)
H1 H 0.1736 0.9638 0.2596
N1 N 0.17547(18) 0.3498(4) 0.39247(14)
H2 H 0.1469 0.2407 0.4221
O2 O 0.38973(18) 0.6375(3) 0.49257(12)
H3 H 0.4514 0.6782 0.5323
O3 O 0.38321(17) 0.2341(3) 0.37812(12)
C4 C -0.0107(2) 0.8973(5) 0.29257(19)
H4 H -0.0501 1.0229 0.2669
C5 C 0.6002(3) 0.8458(6) 0.07959(17)
H5 H 0.6368 0.8003 0.0245
C6 C 0.3699(2) 0.5742(4) 0.22888(16)
H6 H 0.4271 0.4469 0.2324
C7 C 0.4541(2) 0.7613(4) 0.20387(17)
H7 H 0.3962 0.8837 0.1846
C8 C 0.5306(3) 0.7044(4) 0.12296(17)
H8 H 0.5296 0.5626 0.1018
C9 C 0.1760(2) 0.6741(4) 0.32275(17)
C10 C 0.6241(3) 1.0600(5) 0.10924(19)
H9 H 0.6335 1.1609 0.0610
C11 C 0.1001(2) 0.5262(4) 0.36449(16)
C12 C 0.5483(2) 0.7018(4) 0.37762(17)
H10 H 0.6090 0.7629 0.4298
H11 H 0.5730 0.5534 0.3686
C13 C 0.3137(2) 0.5916(3) 0.32695(16)
C14 C 0.6235(2) 1.0015(4) 0.28371(18)
H12 H 0.6712 1.0464 0.3417
C15 C 0.4074(2) 0.7167(4) 0.40057(16)
H13 H 0.3807 0.8679 0.3975
C16 C 0.2600(3) 0.5350(4) 0.14983(17)
C17 C -0.0299(2) 0.5650(4) 0.37219(18)
C18 C -0.0855(3) 0.7513(4) 0.3351(2)
H14 H -0.1751 0.7788 0.3390
O4 O 0.2260(2) 0.6550(3) 0.08578(13)
C19 C 0.6345(3) 1.1297(4) 0.20052(19)
H15 H 0.6503 1.2755 0.2107
C20 C -0.0311(3) 0.3952(7) 0.1145(2)
H16 H -0.1043 0.3497 0.0688
H17 H -0.0226 0.5485 0.1118
H18 H -0.0468 0.3532 0.1788
C21 C 0.0922(3) 0.2946(5) 0.0903(2)
H19 H 0.0808 0.1401 0.0879
H20 H 0.1102 0.3426 0.0266
loop_
_geom_bond_atom_site_label_1
_geom_bond_atom_site_label_2
_geom_bond_site_symmetry_1
_geom_bond_site_symmetry_2
Br1 C17 1_555 1_555
C1 C7 1_555 1_555
O1 C16 1_555 1_555
C2 N1 1_555 1_555
C3 H1 1_555 1_555
N1 H2 1_555 1_555
O2 H3 1_555 1_555
O3 C2 1_555 1_555
C4 C3 1_555 1_555
H4 C4 1_555 1_555
C5 H5 1_555 1_555
C6 H6 1_555 1_555
C7 C6 1_555 1_555
H7 C7 1_555 1_555
C8 C5 1_555 1_555
H8 C8 1_555 1_555
C9 C3 1_555 1_555
C10 C5 1_555 1_555
H9 C10 1_555 1_555
C11 N1 1_555 1_555
C12 C1 1_555 1_555
H10 C12 1_555 1_555
H11 C12 1_555 1_555
C13 C2 1_555 1_555
C14 C1 1_555 1_555
H12 C14 1_555 1_555
C15 O2 1_555 1_555
H13 C15 1_555 1_555
C16 C6 1_555 1_555
C17 C11 1_555 1_555
C18 C4 1_555 1_555
H14 C18 1_555 1_555
O4 C16 1_555 1_555
C19 C10 1_555 1_555
H15 C19 1_555 1_555
C20 H16 1_555 1_555
H17 C20 1_555 1_555
H18 C20 1_555 1_555
C21 O1 1_555 1_555
H19 C21 1_555 1_555
H20 C21 1_555 1_555
C6 C13 1_555 1_555
C7 C8 1_555 1_555
C9 C11 1_555 1_555
C9 C13 1_555 1_555
C12 C15 1_555 1_555
C13 C15 1_555 1_555
C14 C19 1_555 1_555
C17 C18 1_555 1_555
C20 C21 1_555 1_555

#END
