
#######################################################################
#
#                 Cambridge Crystallographic Data Centre
#                                CCDC 
#
#######################################################################
#
# If this CIF has been generated from an entry in the Cambridge 
# Structural Database, then it will include bibliographic, chemical, 
# crystal, experimental, refinement or atomic coordinate data resulting 
# from the CCDC's data processing and validation procedures.
#
#######################################################################

data_QIVBIG
_chemical_formula_moiety         'C41 H80 O12 Si8'
_chemical_name_systematic        
'Heptacyclopentyl-heptasilasequioxane-diol t-butyldimethylether'
_symmetry_cell_setting           monoclinic
_symmetry_space_group_name_H-M   'C c'
_symmetry_Int_Tables_number      9
_space_group_name_Hall           'C -2yc'
loop_
_symmetry_equiv_pos_site_id
_symmetry_equiv_pos_as_xyz
1 x,y,z
2 x,-y,1/2+z
3 1/2+x,1/2+y,z
4 1/2+x,1/2-y,1/2+z
_cell_length_a                   22.0658(10)
_cell_length_b                   17.1093(8)
_cell_length_c                   29.2595(9)
_cell_angle_alpha                90
_cell_angle_beta                 105.651(2)
_cell_angle_gamma                90
_cell_volume                     10636.8
_exptl_crystal_colour            colorless
_exptl_crystal_description       block
_chemical_melting_point          200-202deg.C
_cell_formula_units_Z            8
_exptl_crystal_recrystallization_method pentane
loop_
_atom_site_label
_atom_site_type_symbol
_atom_site_fract_x
_atom_site_fract_y
_atom_site_fract_z
Si1 Si 0.10128(13) 0.36808(16) 0.67943(8)
Si2 Si 0.17056(15) 0.13959(16) 0.80749(9)
Si3 Si 0.17431(13) 0.48479(15) 0.75843(8)
Si4 Si 0.06988(14) 0.26558(16) 0.75887(9)
Si5 Si 0.14331(13) 0.38533(16) 0.83567(8)
Si6 Si 0.29347(12) 0.38555(16) 0.76311(8)
Si7 Si 0.26037(13) 0.28106(16) 0.84073(9)
O1 O 0.1585(3) 0.3386(4) 0.6588(2)
O2 O 0.2795(3) 0.3523(5) 0.7098(2)
O3 O 0.0825(3) 0.2973(3) 0.70987(18)
O4 O 0.0908(3) 0.3316(3) 0.79969(19)
O5 O 0.1109(3) 0.1875(4) 0.7751(2)
O6 O 0.1275(3) 0.4408(3) 0.71504(18)
O7 O 0.2303(3) 0.1968(4) 0.8232(2)
O8 O 0.2809(4) 0.3192(4) 0.7969(2)
O9 O 0.2444(3) 0.4574(4) 0.7623(2)
O22 O 0.1574(3) 0.4615(3) 0.80715(19)
O23 O 0.2073(3) 0.3347(4) 0.8545(2)
O24 O 0.1869(3) 0.0691(3) 0.77709(19)
C1 C 0.0344(5) 0.3999(4) 0.6309(2)
H1 H -0.0033 0.4053 0.6434
C2 C 0.0458(5) 0.4783(5) 0.6090(3)
H2 H 0.0253 0.5212 0.6220
H3 H 0.0915 0.4893 0.6165
C3 C 0.0183(6) 0.4730(8) 0.5557(3)
C5 C 0.0352(9) 0.3846(8) 0.5474(4)
H6 H 0.0097 0.3649 0.5163
H7 H 0.0804 0.3785 0.5493
C6 C 0.0182(5) 0.3431(6) 0.5884(3)
C7 C 0.1560(7) 0.1000(7) 0.8615(4)
C8 C 0.144(3) 0.0185(13) 0.8746(14)
H8 H 0.1810 -0.0154 0.8753
H9 H 0.1066 -0.0037 0.8521
C9 C 0.135(2) 0.027(2) 0.9242(12)
H10 H 0.1755 0.0269 0.9487
H11 H 0.1086 -0.0165 0.9308
C12 C 0.0994(7) 0.1089(7) 0.9230(4)
C13 C 0.1302(6) 0.1581(6) 0.8919(3)
H16 H 0.1648 0.1901 0.9118
H17 H 0.0989 0.1935 0.8714
C14 C 0.1690(4) 0.5919(6) 0.7509(3)
H18 H 0.1256 0.6085 0.7509
C15 C 0.1820(6) 0.6218(6) 0.7062(3)
H19 H 0.2152 0.5900 0.6982
H20 H 0.1435 0.6187 0.6794
C16 C 0.2030(6) 0.7041(6) 0.7146(4)
H21 H 0.1696 0.7402 0.6971
H22 H 0.2414 0.7132 0.7040
C17 C 0.2162(6) 0.7168(6) 0.7668(4)
H23 H 0.2579 0.7415 0.7795
H24 H 0.1837 0.7509 0.7740
C18 C 0.2149(6) 0.6389(6) 0.7875(3)
H25 H 0.2013 0.6422 0.8170
H26 H 0.2572 0.6147 0.7950
C19 C -0.0141(4) 0.2459(5) 0.7489(3)
H27 H -0.0251 0.1989 0.7279
C20 C -0.0342(5) 0.2304(8) 0.7942(3)
H28 H -0.0225 0.1769 0.8063
H29 H -0.0146 0.2685 0.8194
C21 C -0.1048(5) 0.2402(8) 0.7788(4)
H30 H -0.1207 0.2552 0.8062
H31 H -0.1254 0.1908 0.7653
C22 C -0.1183(5) 0.3042(7) 0.7415(4)
H32 H -0.1286 0.3540 0.7550
H33 H -0.1539 0.2894 0.7142
C23 C -0.0575(4) 0.3122(6) 0.7263(4)
H34 H -0.0668 0.3093 0.6913
H35 H -0.0373 0.3631 0.7369
C24 C 0.1144(5) 0.4175(5) 0.8859(3)
C25 C 0.0999(7) 0.3611(8) 0.9181(5)
H36 H 0.1388 0.3388 0.9393
H37 H 0.0735 0.3182 0.9006
C26 C 0.0625(9) 0.4117(10) 0.9471(6)
H38 H 0.0256 0.3818 0.9506
H39 H 0.0901 0.4226 0.9792
C29 C 0.0415(7) 0.4854(8) 0.9226(5)
C30 C 0.0544(5) 0.4655(7) 0.8735(4)
H44 H 0.0191 0.4352 0.8532
H45 H 0.0601 0.5140 0.8566
C31 C 0.3753(4) 0.4220(8) 0.7841(6)
C32 C 0.4249(6) 0.3686(7) 0.7736(5)
H46 H 0.4057 0.3348 0.7461
H47 H 0.4431 0.3347 0.8013
C33 C 0.4765(8) 0.4192(11) 0.7628(11)
H48 H 0.4811 0.4074 0.7307
H49 H 0.5174 0.4097 0.7864
C37 C 0.4552(6) 0.5050(11) 0.7655(7)
C38 C 0.3859(5) 0.5017(6) 0.7636(4)
H54 H 0.3596 0.5069 0.7305
H55 H 0.3749 0.5445 0.7828
C39 C 0.3281(5) 0.2700(7) 0.8916(3)
H56 H 0.3443 0.3238 0.9014
C40 C 0.3194(6) 0.2296(9) 0.9358(3)
H57 H 0.3002 0.2657 0.9544
H58 H 0.2921 0.1830 0.9271
C41 C 0.3848(7) 0.2063(10) 0.9640(4)
H59 H 0.4030 0.2466 0.9881
H60 H 0.3837 0.1559 0.9804
C42 C 0.4224(7) 0.1992(11) 0.9298(5)
H61 H 0.4363 0.1444 0.9284
H62 H 0.4602 0.2328 0.9395
C43 C 0.3815(6) 0.2246(9) 0.8813(4)
H63 H 0.4058 0.2578 0.8649
H64 H 0.3654 0.1785 0.8612
Si15 Si 0.19923(13) 0.04162(16) 0.72653(9)
C96 C 0.1327(4) -0.0217(5) 0.6964(3)
C97 C 0.2045(5) 0.1292(5) 0.6905(3)
H139 H 0.1650 0.1588 0.6843
H140 H 0.2118 0.1129 0.6603
H141 H 0.2394 0.1623 0.7078
C98 C 0.2735(5) -0.0174(6) 0.7398(3)
H142 H 0.2691 -0.0631 0.7588
H143 H 0.3088 0.0148 0.7576
H144 H 0.2814 -0.0345 0.7100
C99 C 0.0703(4) 0.0256(6) 0.6837(4)
H145 H 0.0354 -0.0085 0.6676
H146 H 0.0736 0.0692 0.6627
H147 H 0.0624 0.0462 0.7129
C100 C 0.1458(6) -0.0588(7) 0.6518(4)
H148 H 0.1104 -0.0922 0.6359
H149 H 0.1843 -0.0902 0.6612
H150 H 0.1511 -0.0173 0.6301
C101 C 0.1253(6) -0.0878(6) 0.7303(4)
H151 H 0.0863 -0.1166 0.7163
H152 H 0.1236 -0.0653 0.7607
H153 H 0.1612 -0.1235 0.7354
Si8 Si 0.42511(14) 0.26412(17) 0.56051(9)
Si9 Si 0.37300(13) 0.20335(17) 0.64399(8)
Si10 Si 0.34514(13) 0.13892(16) 0.49417(8)
Si11 Si 0.23518(16) 0.26176(19) 0.46711(9)
Si12 Si 0.29316(13) 0.07909(16) 0.57504(8)
Si13 Si 0.33216(19) 0.39331(18) 0.50577(10)
Si14 Si 0.17863(14) 0.1967(2) 0.54661(9)
O10 O 0.1913(3) 0.2394(5) 0.5004(2)
O11 O 0.1957(3) 0.2573(4) 0.59173(19)
O12 O 0.3171(3) 0.2641(4) 0.6487(2)
O13 O 0.3385(3) 0.1241(4) 0.61954(19)
O14 O 0.4119(3) 0.2424(4) 0.6099(2)
O15 O 0.2253(3) 0.1225(4) 0.5607(2)
O16 O 0.3167(4) 0.4651(4) 0.5349(2)
O17 O 0.2714(4) 0.3422(5) 0.4864(3)
O18 O 0.3867(3) 0.3407(4) 0.5398(2)
O19 O 0.3232(3) 0.0821(3) 0.53061(19)
O20 O 0.2862(3) 0.1936(4) 0.46844(19)
O21 O 0.4022(3) 0.1929(4) 0.52276(19)
C44 C 0.5102(5) 0.2803(6) 0.5691(3)
H65 H 0.5219 0.3280 0.5893
C45 C 0.5309(5) 0.2945(8) 0.5238(4)
C46 C 0.6007(6) 0.2747(14) 0.5391(7)
H66 H 0.6258 0.3220 0.5510
H67 H 0.6143 0.2537 0.5119
C48 C 0.6102(6) 0.2131(9) 0.5785(4)
C49 C 0.5517(5) 0.2135(8) 0.5950(4)
H70 H 0.5624 0.2218 0.6298
H71 H 0.5294 0.1630 0.5876
C50 C 0.4276(5) 0.1782(7) 0.7025(3)
H72 H 0.4500 0.2267 0.7170
C51 C 0.4762(5) 0.1170(8) 0.6993(3)
C52 C 0.495(2) 0.089(3) 0.7509(8)
H73 H 0.4957 0.0312 0.7520
H74 H 0.5372 0.1087 0.7674
C53 C 0.4472(15) 0.119(5) 0.7756(7)
H75 H 0.4354 0.0775 0.7951
H76 H 0.4645 0.1641 0.7963
C56 C 0.3925(5) 0.1431(8) 0.7369(3)
C57 C 0.3686(5) 0.0816(6) 0.4482(3)
H81 H 0.4080 0.0522 0.4636
C58 C 0.3808(6) 0.1332(6) 0.4068(3)
C59 C 0.326(3) 0.117(3) 0.3634(16)
H82 H 0.2897 0.1515 0.3627
H83 H 0.3386 0.1239 0.3336
C60 C 0.311(2) 0.033(2) 0.3710(5)
H84 H 0.3413 -0.0020 0.3611
H85 H 0.2682 0.0199 0.3520
C63 C 0.3170(6) 0.0223(6) 0.4239(3)
C64 C 0.1858(4) 0.2710(6) 0.4051(3)
C65 C 0.1584(5) 0.1941(6) 0.3826(3)
C66 C 0.0913(6) 0.2072(11) 0.3538(5)
H90 H 0.0888 0.2082 0.3195
H91 H 0.0639 0.1646 0.3597
C67 C 0.0707(6) 0.2841(11) 0.3690(9)
H92 H 0.0373 0.2761 0.3854
H93 H 0.0539 0.3181 0.3411
C68 C 0.1281(8) 0.3215(10) 0.4025(6)
H94 H 0.1214 0.3266 0.4345
H95 H 0.1346 0.3744 0.3910
C72 C 0.2850(4) -0.0217(5) 0.5914(3)
H102 H 0.2662 -0.0213 0.6189
C73 C 0.3467(5) -0.0673(6) 0.6068(4)
C74 C 0.3305(9) -0.1531(7) 0.5967(11)
H103 H 0.3612 -0.1784 0.5823
H104 H 0.3307 -0.1811 0.6263
C75 C 0.2664(10) -0.1540(9) 0.5631(11)
H105 H 0.2377 -0.1839 0.5774
H106 H 0.2681 -0.1811 0.5336
C78 C 0.2401(6) -0.0716(6) 0.5508(4)
C79 C 0.3871(12) 0.4402(12) 0.4653(6)
H111 H 0.4293 0.4533 0.4869
C80 C 0.3959(10) 0.3755(9) 0.4305(6)
H112 H 0.4365 0.3484 0.4435
H113 H 0.3616 0.3366 0.4259
C81 C 0.3949(17) 0.4111(15) 0.3871(7)
H114 H 0.3569 0.3957 0.3619
H115 H 0.4328 0.3974 0.3769
C82 C 0.394(2) 0.4913(17) 0.3976(11)
H116 H 0.3668 0.5200 0.3702
H117 H 0.4368 0.5133 0.4050
C83 C 0.3669(17) 0.4981(13) 0.4413(10)
H118 H 0.3818 0.5466 0.4593
H119 H 0.3203 0.4982 0.4314
C89 C 0.0955(5) 0.1728(6) 0.5301(3)
C90 C 0.058(3) 0.138(3) 0.4823(4)
H129 H 0.0271 0.1768 0.4648
H130 H 0.0872 0.1251 0.4628
C91 C 0.0248(11) 0.0649(11) 0.4924(7)
H131 H -0.0213 0.0712 0.4802
H132 H 0.0377 0.0191 0.4765
C94 C 0.0424(10) 0.0531(9) 0.5442(5)
C95 C 0.0766(7) 0.1269(8) 0.5686(3)
H137 H 0.0483 0.1584 0.5824
H138 H 0.1143 0.1123 0.5943
Si16 Si 0.2859(2) 0.5273(3) 0.56394(17)
C102 C 0.3517(5) 0.5788(7) 0.6054(4)
C103 C 0.2399(10) 0.5992(12) 0.5204(8)
H154 H 0.2677 0.6246 0.5038
H155 H 0.2220 0.6388 0.5372
H156 H 0.2059 0.5722 0.4973
C105 C 0.3978(9) 0.5202(12) 0.6370(7)
H160 H 0.4323 0.5488 0.6586
H161 H 0.4149 0.4855 0.6169
H162 H 0.3755 0.4891 0.6554
C106 C 0.3243(6) 0.6389(7) 0.6340(4)
H163 H 0.3588 0.6666 0.6562
H164 H 0.2988 0.6115 0.6517
H165 H 0.2979 0.6765 0.6122
C107 C 0.3881(6) 0.6246(9) 0.5756(5)
H166 H 0.4233 0.6526 0.5969
H167 H 0.3597 0.6621 0.5552
H168 H 0.4042 0.5880 0.5560
C110 C 0.2373(6) 0.4759(9) 0.5978(5)
H172 H 0.2034 0.5009 0.5735
H173 H 0.2375 0.4964 0.6291
H174 H 0.2305 0.4193 0.5971
C4? C -0.004(4) 0.3913(12) 0.5434(5)
H4? H 0.0145 0.3704 0.5184
H5? H -0.0501 0.3898 0.5315
C10? C 0.1063(8) 0.0383(9) 0.8517(5)
H12? H 0.1247 -0.0130 0.8471
H13? H 0.0728 0.0512 0.8225
C11? C 0.0795(10) 0.0354(9) 0.8939(6)
H14? H 0.0954 -0.0113 0.9134
H15? H 0.0330 0.0323 0.8831
C27? C 0.1604(11) 0.4574(17) 0.9236(8)
H40? H 0.1805 0.5021 0.9119
H41? H 0.1930 0.4215 0.9423
C28? C 0.1117(13) 0.484(3) 0.9517(8)
H42? H 0.1159 0.4487 0.9791
H43? H 0.1234 0.5372 0.9644
C34? C 0.3754(5) 0.4224(7) 0.7836(6)
C35? C 0.4391(7) 0.391(4) 0.812(3)
H50? H 0.4439 0.3353 0.8037
H51? H 0.4428 0.3937 0.8466
C36? C 0.4897(5) 0.441(2) 0.800(2)
H52? H 0.5173 0.4653 0.8285
H53? H 0.5159 0.4093 0.7841
C47? C 0.585(2) 0.238(4) 0.5267(7)
H68? H 0.6190 0.2647 0.5159
H69? H 0.5707 0.1924 0.5062
C54? C 0.4782(19) 0.058(2) 0.7393(14)
H77? H 0.4642 0.0061 0.7258
H78? H 0.5216 0.0536 0.7600
C55? C 0.4383(11) 0.086(2) 0.7651(11)
H79? H 0.4634 0.1105 0.7946
H80? H 0.4151 0.0410 0.7740
C61? C 0.3603(9) 0.0781(10) 0.3635(5)
H86? H 0.3281 0.1042 0.3378
H87? H 0.3970 0.0657 0.3514
C62? C 0.3342(14) 0.0054(14) 0.3775(7)
H88? H 0.3657 -0.0372 0.3822
H89? H 0.2964 -0.0109 0.3524
C69? C 0.0855(16) 0.261(2) 0.3505(9)
H96? H 0.0936 0.2949 0.3254
H97? H 0.0456 0.2319 0.3388
C70? C 0.0912(19) 0.303(2) 0.3969(12)
H98? H 0.0975 0.2655 0.4235
H99? H 0.0534 0.3350 0.3955
C71? C 0.1495(15) 0.355(2) 0.4022(12)
H100? H 0.1614 0.3860 0.4318
H101? H 0.1493 0.3866 0.3739
C76? C 0.3419(15) -0.136(3) 0.570(2)
H107? H 0.3746 -0.1301 0.5530
H108? H 0.3486 -0.1869 0.5871
C77? C 0.2782(12) -0.134(3) 0.5360(15)
H109? H 0.2573 -0.1856 0.5356
H110? H 0.2819 -0.1235 0.5036
C84? C 0.3510(13) 0.4281(12) 0.4528(6)
H120? H 0.3953 0.4468 0.4651
C85? C 0.3565(14) 0.3632(12) 0.4167(9)
H121? H 0.3912 0.3267 0.4311
H122? H 0.3168 0.3331 0.4063
C86? C 0.3689(17) 0.4031(15) 0.3783(9)
H123? H 0.3498 0.3759 0.3479
H124? H 0.4147 0.4087 0.3824
C87? C 0.3402(14) 0.4765(14) 0.3800(8)
H125? H 0.3011 0.4808 0.3537
H126? H 0.3690 0.5190 0.3765
C88? C 0.3247(15) 0.4835(13) 0.4283(9)
H127? H 0.3406 0.5337 0.4438
H128? H 0.2787 0.4811 0.4238
C92? C 0.0798(10) 0.1191(9) 0.4862(4)
H133? H 0.0410 0.1375 0.4629
H134? H 0.1146 0.1196 0.4709
C93? C 0.070(2) 0.0364(9) 0.5028(9)
H135? H 0.0405 0.0062 0.4776
H136? H 0.1104 0.0077 0.5134
C104? C 0.2373(6) 0.4759(9) 0.5978(5)
H157? H 0.2638 0.4393 0.6203
H158? H 0.2033 0.4472 0.5757
H159? H 0.2191 0.5143 0.6151
Si17? Si 0.3143(3) 0.4973(4) 0.5856(2)
C108? C 0.3240(5) 0.6046(6) 0.5846(4)
C109? C 0.3825(7) 0.4544(11) 0.6309(7)
H169? H 0.4216 0.4673 0.6227
H170? H 0.3777 0.3975 0.6314
H171? H 0.3840 0.4758 0.6622
C111? C 0.2716(9) 0.6407(12) 0.5436(6)
H175? H 0.2770 0.6975 0.5434
H176? H 0.2303 0.6284 0.5483
H177? H 0.2744 0.6189 0.5133
H178? H 0.3314 0.6954 0.6341
H179? H 0.3580 0.6143 0.6586
H180? H 0.2837 0.6284 0.6404
H181? H 0.3939 0.6814 0.5767
H182? H 0.3889 0.6050 0.5443
H183? H 0.4219 0.6000 0.6001
loop_
_geom_bond_atom_site_label_1
_geom_bond_atom_site_label_2
_geom_bond_site_symmetry_1
_geom_bond_site_symmetry_2
Si1 O1 1_555 1_555
Si2 O5 1_555 1_555
Si3 O6 1_555 1_555
Si4 O3 1_555 1_555
Si5 O4 1_555 1_555
Si6 O2 1_555 1_555
Si7 O7 1_555 1_555
Si8 O14 1_555 1_555
Si9 O12 1_555 1_555
Si10 O19 1_555 1_555
Si11 O10 1_555 1_555
Si12 O13 1_555 1_555
Si13 O16 1_555 1_555
Si14 O10 1_555 1_555
O3 Si1 1_555 1_555
O4 Si4 1_555 1_555
O5 Si4 1_555 1_555
O6 Si1 1_555 1_555
O7 Si2 1_555 1_555
O8 Si6 1_555 1_555
O9 Si3 1_555 1_555
O11 Si14 1_555 1_555
O13 Si9 1_555 1_555
O14 Si9 1_555 1_555
O15 Si12 1_555 1_555
O16 Si16 1_555 1_555
O17 Si11 1_555 1_555
O18 Si8 1_555 1_555
O19 Si12 1_555 1_555
O20 Si10 1_555 1_555
O21 Si8 1_555 1_555
O22 Si3 1_555 1_555
O23 Si5 1_555 1_555
O24 Si2 1_555 1_555
C1 Si1 1_555 1_555
H1 C1 1_555 1_555
C2 C1 1_555 1_555
H2 C2 1_555 1_555
H3 C2 1_555 1_555
C3 C2 1_555 1_555
C5 C3 1_555 1_555
H6 C5 1_555 1_555
H7 C5 1_555 1_555
C6 C1 1_555 1_555
C7 Si2 1_555 1_555
C8 C7 1_555 1_555
H8 C8 1_555 1_555
H9 C8 1_555 1_555
C9 C8 1_555 1_555
H10 C9 1_555 1_555
H11 C9 1_555 1_555
C12 C9 1_555 1_555
C13 C7 1_555 1_555
H16 C13 1_555 1_555
H17 C13 1_555 1_555
C14 Si3 1_555 1_555
H18 C14 1_555 1_555
C15 C14 1_555 1_555
H19 C15 1_555 1_555
H20 C15 1_555 1_555
C16 C15 1_555 1_555
H21 C16 1_555 1_555
H22 C16 1_555 1_555
C17 C16 1_555 1_555
H23 C17 1_555 1_555
H24 C17 1_555 1_555
C18 C14 1_555 1_555
H25 C18 1_555 1_555
H26 C18 1_555 1_555
C19 Si4 1_555 1_555
H27 C19 1_555 1_555
C20 C19 1_555 1_555
H28 C20 1_555 1_555
H29 C20 1_555 1_555
C21 C20 1_555 1_555
H30 C21 1_555 1_555
H31 C21 1_555 1_555
C22 C21 1_555 1_555
H32 C22 1_555 1_555
H33 C22 1_555 1_555
C23 C19 1_555 1_555
H34 C23 1_555 1_555
H35 C23 1_555 1_555
C24 Si5 1_555 1_555
C25 C24 1_555 1_555
H36 C25 1_555 1_555
H37 C25 1_555 1_555
C26 C25 1_555 1_555
H38 C26 1_555 1_555
H39 C26 1_555 1_555
C29 C26 1_555 1_555
C30 C24 1_555 1_555
H44 C30 1_555 1_555
H45 C30 1_555 1_555
C31 Si6 1_555 1_555
C32 C31 1_555 1_555
H46 C32 1_555 1_555
H47 C32 1_555 1_555
C33 C32 1_555 1_555
H48 C33 1_555 1_555
H49 C33 1_555 1_555
C37 C33 1_555 1_555
C38 C31 1_555 1_555
H54 C38 1_555 1_555
H55 C38 1_555 1_555
C39 Si7 1_555 1_555
H56 C39 1_555 1_555
C40 C39 1_555 1_555
H57 C40 1_555 1_555
H58 C40 1_555 1_555
C41 C40 1_555 1_555
H59 C41 1_555 1_555
H60 C41 1_555 1_555
C42 C41 1_555 1_555
H61 C42 1_555 1_555
H62 C42 1_555 1_555
C43 C39 1_555 1_555
H63 C43 1_555 1_555
H64 C43 1_555 1_555
C44 Si8 1_555 1_555
H65 C44 1_555 1_555
C45 C44 1_555 1_555
C46 C45 1_555 1_555
H66 C46 1_555 1_555
H67 C46 1_555 1_555
C48 C46 1_555 1_555
C49 C44 1_555 1_555
H70 C49 1_555 1_555
H71 C49 1_555 1_555
C50 Si9 1_555 1_555
H72 C50 1_555 1_555
C51 C50 1_555 1_555
C52 C51 1_555 1_555
H73 C52 1_555 1_555
H74 C52 1_555 1_555
C53 C52 1_555 1_555
H75 C53 1_555 1_555
H76 C53 1_555 1_555
C56 C50 1_555 1_555
C57 Si10 1_555 1_555
H81 C57 1_555 1_555
C58 C57 1_555 1_555
C59 C58 1_555 1_555
H82 C59 1_555 1_555
H83 C59 1_555 1_555
C60 C59 1_555 1_555
H84 C60 1_555 1_555
H85 C60 1_555 1_555
C63 C57 1_555 1_555
C64 Si11 1_555 1_555
C65 C64 1_555 1_555
C66 C65 1_555 1_555
H90 C66 1_555 1_555
H91 C66 1_555 1_555
C67 C66 1_555 1_555
H92 C67 1_555 1_555
H93 C67 1_555 1_555
C68 C64 1_555 1_555
H94 C68 1_555 1_555
H95 C68 1_555 1_555
C72 Si12 1_555 1_555
H102 C72 1_555 1_555
C73 C72 1_555 1_555
C74 C73 1_555 1_555
H103 C74 1_555 1_555
H104 C74 1_555 1_555
C75 C74 1_555 1_555
H105 C75 1_555 1_555
H106 C75 1_555 1_555
C78 C72 1_555 1_555
C79 Si13 1_555 1_555
H111 C79 1_555 1_555
C80 C79 1_555 1_555
H112 C80 1_555 1_555
H113 C80 1_555 1_555
C81 C80 1_555 1_555
H114 C81 1_555 1_555
H115 C81 1_555 1_555
C82 C81 1_555 1_555
H116 C82 1_555 1_555
H117 C82 1_555 1_555
C83 C79 1_555 1_555
H118 C83 1_555 1_555
H119 C83 1_555 1_555
C89 Si14 1_555 1_555
C90 C89 1_555 1_555
H129 C90 1_555 1_555
H130 C90 1_555 1_555
C91 C90 1_555 1_555
H131 C91 1_555 1_555
H132 C91 1_555 1_555
C94 C91 1_555 1_555
C95 C89 1_555 1_555
H137 C95 1_555 1_555
H138 C95 1_555 1_555
Si15 O24 1_555 1_555
C96 Si15 1_555 1_555
C97 Si15 1_555 1_555
H139 C97 1_555 1_555
H140 C97 1_555 1_555
H141 C97 1_555 1_555
C98 Si15 1_555 1_555
H142 C98 1_555 1_555
H143 C98 1_555 1_555
H144 C98 1_555 1_555
C99 C96 1_555 1_555
H145 C99 1_555 1_555
H146 C99 1_555 1_555
H147 C99 1_555 1_555
C100 C96 1_555 1_555
H148 C100 1_555 1_555
H149 C100 1_555 1_555
H150 C100 1_555 1_555
C101 C96 1_555 1_555
H151 C101 1_555 1_555
H152 C101 1_555 1_555
H153 C101 1_555 1_555
Si16 C102 1_555 1_555
C102 C105 1_555 1_555
C103 Si16 1_555 1_555
H154 C103 1_555 1_555
H155 C103 1_555 1_555
H156 C103 1_555 1_555
C105 H160 1_555 1_555
H161 C105 1_555 1_555
H162 C105 1_555 1_555
C106 C102 1_555 1_555
H163 C106 1_555 1_555
H164 C106 1_555 1_555
H165 C106 1_555 1_555
C107 C102 1_555 1_555
H166 C107 1_555 1_555
H167 C107 1_555 1_555
H168 C107 1_555 1_555
C110 Si16 1_555 1_555
H172 C110 1_555 1_555
H173 C110 1_555 1_555
H174 C110 1_555 1_555
Si5 O22 1_555 1_555
Si6 O9 1_555 1_555
Si7 O8 1_555 1_555
Si7 O23 1_555 1_555
Si10 O21 1_555 1_555
Si11 O20 1_555 1_555
Si13 O17 1_555 1_555
Si13 O18 1_555 1_555
Si14 O15 1_555 1_555
C5 C6 1_555 1_555
C12 C13 1_555 1_555
C17 C18 1_555 1_555
C22 C23 1_555 1_555
C29 C30 1_555 1_555
C37 C38 1_555 1_555
C42 C43 1_555 1_555
C48 C49 1_555 1_555
C53 C56 1_555 1_555
C60 C63 1_555 1_555
C67 C68 1_555 1_555
C75 C78 1_555 1_555
C82 C83 1_555 1_555
C94 C95 1_555 1_555

#END
