
#######################################################################
#
#                 Cambridge Crystallographic Data Centre
#                                CCDC 
#
#######################################################################
#
# If this CIF has been generated from an entry in the Cambridge 
# Structural Database, then it will include bibliographic, chemical, 
# crystal, experimental, refinement or atomic coordinate data resulting 
# from the CCDC's data processing and validation procedures.
#
#######################################################################

data_QIVBOO
_chemical_formula_moiety         'C30 H28 N2'
_chemical_name_systematic        
N,N'-bis(3-methylbiphenyl-4-yl)butane-2,3-diimine
_symmetry_cell_setting           orthorhombic
_symmetry_space_group_name_H-M   'P b c a'
_symmetry_Int_Tables_number      61
_space_group_name_Hall           '-P 2ac 2ab'
loop_
_symmetry_equiv_pos_site_id
_symmetry_equiv_pos_as_xyz
1 x,y,z
2 1/2-x,-y,1/2+z
3 1/2+x,1/2-y,-z
4 -x,1/2+y,1/2-z
5 -x,-y,-z
6 1/2+x,y,1/2-z
7 1/2-x,1/2+y,z
8 x,1/2-y,1/2+z
_cell_length_a                   8.347(3)
_cell_length_b                   7.063(3)
_cell_length_c                   39.946(16)
_cell_angle_alpha                90
_cell_angle_beta                 90
_cell_angle_gamma                90
_cell_volume                     2355.01
_exptl_crystal_colour            yellow
_exptl_crystal_description       block
_cell_formula_units_Z            4
loop_
_atom_site_label
_atom_site_type_symbol
_atom_site_fract_x
_atom_site_fract_y
_atom_site_fract_z
C1 C 0.6218(4) -0.0240(5) 0.17712(7)
H1 H 0.7117 -0.0468 0.1640
C2 C 0.6029(4) -0.1219(5) 0.20680(8)
H2 H 0.6792 -0.2106 0.2133
C3 C 0.4725(4) -0.0893(5) 0.22677(7)
H3 H 0.4597 -0.1548 0.2468
C4 C 0.3612(4) 0.0413(4) 0.21680(7)
H4 H 0.2726 0.0652 0.2303
C5 C 0.3788(4) 0.1375(4) 0.18713(6)
H5 H 0.3012 0.2248 0.1807
C6 C 0.5099(3) 0.1070(4) 0.16654(6)
C7 C 0.5276(3) 0.2107(4) 0.13451(6)
C8 C 0.6072(3) 0.1298(4) 0.10744(7)
H6 H 0.6563 0.0124 0.1099
C9 C 0.6142(3) 0.2216(4) 0.07704(7)
H7 H 0.6678 0.1652 0.0592
C10 C 0.5427(3) 0.3961(4) 0.07266(6)
C11 C 0.4688(3) 0.4856(4) 0.09956(6)
C12 C 0.4629(3) 0.3887(4) 0.12980(6)
H8 H 0.4126 0.4468 0.1479
C13 C 0.3949(4) 0.6774(4) 0.09594(8)
H9 H 0.2882 0.6648 0.0873
H10 H 0.4580 0.7522 0.0808
H11 H 0.3912 0.7384 0.1174
C14 C 0.4850(3) 0.4425(4) 0.01552(6)
C15 C 0.3729(4) 0.2792(5) 0.01278(8)
H12 H 0.3722 0.2102 0.0335
H13 H 0.4073 0.1972 -0.0050
H14 H 0.2670 0.3248 0.0081
N1 N 0.5572(3) 0.4954(3) 0.04174(5)
C1D C 0.3782(4) 1.0240(5) -0.17712(7)
H1D H 0.2883 1.0468 -0.1640
C2D C 0.3971(4) 1.1219(5) -0.20680(8)
H2D H 0.3208 1.2106 -0.2133
C3D C 0.5275(4) 1.0893(5) -0.22677(7)
H3D H 0.5403 1.1548 -0.2468
C4D C 0.6388(4) 0.9587(4) -0.21680(7)
H4D H 0.7274 0.9348 -0.2303
C5D C 0.6212(4) 0.8625(4) -0.18713(6)
H5D H 0.6988 0.7752 -0.1807
C6D C 0.4901(3) 0.8930(4) -0.16654(6)
C7D C 0.4724(3) 0.7893(4) -0.13451(6)
C8D C 0.3928(3) 0.8702(4) -0.10744(7)
H6D H 0.3437 0.9876 -0.1099
C9D C 0.3858(3) 0.7784(4) -0.07704(7)
H7D H 0.3322 0.8348 -0.0592
C10D C 0.4573(3) 0.6039(4) -0.07266(6)
C11D C 0.5312(3) 0.5144(4) -0.09956(6)
C12D C 0.5371(3) 0.6113(4) -0.12980(6)
H8D H 0.5874 0.5532 -0.1479
C13D C 0.6051(4) 0.3226(4) -0.09594(8)
H9D H 0.7118 0.3352 -0.0873
H10D H 0.5420 0.2478 -0.0808
H11D H 0.6088 0.2616 -0.1174
C14D C 0.5150(3) 0.5575(4) -0.01552(6)
C15D C 0.6271(4) 0.7208(5) -0.01278(8)
H12D H 0.6278 0.7898 -0.0335
H13D H 0.5927 0.8028 0.0050
H14D H 0.7330 0.6752 -0.0081
N1D N 0.4428(3) 0.5046(3) -0.04174(5)
loop_
_geom_bond_atom_site_label_1
_geom_bond_atom_site_label_2
_geom_bond_site_symmetry_1
_geom_bond_site_symmetry_2
C1 H1 1_555 1_555
C2 C1 1_555 1_555
H2 C2 1_555 1_555
C3 C2 1_555 1_555
H3 C3 1_555 1_555
C4 C3 1_555 1_555
H4 C4 1_555 1_555
C5 C4 1_555 1_555
H5 C5 1_555 1_555
C6 C1 1_555 1_555
C7 C6 1_555 1_555
C8 C7 1_555 1_555
H6 C8 1_555 1_555
C9 C8 1_555 1_555
H7 C9 1_555 1_555
C10 C9 1_555 1_555
C11 C10 1_555 1_555
C12 C7 1_555 1_555
H8 C12 1_555 1_555
C13 C11 1_555 1_555
H9 C13 1_555 1_555
H10 C13 1_555 1_555
H11 C13 1_555 1_555
C14 C15 1_555 1_555
C15 H12 1_555 1_555
H13 C15 1_555 1_555
H14 C15 1_555 1_555
N1 C10 1_555 1_555
C1D H1D 1_555 1_555
C2D C1D 1_555 1_555
H2D C2D 1_555 1_555
C3D C2D 1_555 1_555
H3D C3D 1_555 1_555
C4D C3D 1_555 1_555
H4D C4D 1_555 1_555
C5D C4D 1_555 1_555
H5D C5D 1_555 1_555
C6D C1D 1_555 1_555
C7D C6D 1_555 1_555
C8D C7D 1_555 1_555
H6D C8D 1_555 1_555
C9D C8D 1_555 1_555
H7D C9D 1_555 1_555
C10D C9D 1_555 1_555
C11D C10D 1_555 1_555
C12D C7D 1_555 1_555
H8D C12D 1_555 1_555
C13D C11D 1_555 1_555
H9D C13D 1_555 1_555
H10D C13D 1_555 1_555
H11D C13D 1_555 1_555
C14D C14 1_555 1_555
C15D C14D 1_555 1_555
H12D C15D 1_555 1_555
H13D C15D 1_555 1_555
H14D C15D 1_555 1_555
N1D C10D 1_555 1_555
C5 C6 1_555 1_555
C11 C12 1_555 1_555
C14 N1 1_555 1_555
C5D C6D 1_555 1_555
C11D C12D 1_555 1_555
C14D N1D 1_555 1_555

#END
