
#######################################################################
#
#                 Cambridge Crystallographic Data Centre
#                                CCDC 
#
#######################################################################
#
# If this CIF has been generated from an entry in the Cambridge 
# Structural Database, then it will include bibliographic, chemical, 
# crystal, experimental, refinement or atomic coordinate data resulting 
# from the CCDC's data processing and validation procedures.
#
#######################################################################

data_QIVDEE
_chemical_name_common            
'meso-Pentfluorophenyl-N-fused-pentaphyrin chloroform solvate'
_chemical_formula_moiety         'C55 H12 F25 N5,C1 H1 Cl3'
_chemical_name_systematic        
'1^7^,2,4,6,8-pentakis(Pentafluorophenyl)-1(2,4)-(pyrrolo(2,3-b)pyrrolizina)-3,5,7(2,5)-tripyrrolaoctaphane-2,4,6,8-tetraene chloroform solvate'
_symmetry_cell_setting           monoclinic
_symmetry_space_group_name_H-M   'P 21/n'
_symmetry_Int_Tables_number      14
_space_group_name_Hall           '-P 2yn'
loop_
_symmetry_equiv_pos_site_id
_symmetry_equiv_pos_as_xyz
1 x,y,z
2 1/2+x,1/2-y,1/2+z
3 -x,-y,-z
4 1/2-x,1/2+y,1/2-z
_cell_length_a                   14.5874(3)
_cell_length_b                   18.1587(2)
_cell_length_c                   20.0040(3)
_cell_angle_alpha                90
_cell_angle_beta                 100.331(2)
_cell_angle_gamma                90
_cell_volume                     5212.92
_exptl_crystal_colour            red
_exptl_crystal_description       block
_cell_formula_units_Z            4
loop_
_atom_site_label
_atom_site_type_symbol
_atom_site_fract_x
_atom_site_fract_y
_atom_site_fract_z
Cl1 Cl 0.43450(6) 0.62531(4) 0.52884(4)
Cl2 Cl 0.26327(6) 0.57748(6) 0.56555(5)
Cl3 Cl 0.36469(7) 0.47859(5) 0.49530(5)
C1 C 0.3345(2) 0.5708(1) 0.5037(1)
H4 H 0.2993 0.5953 0.4557
F1 F 0.5940(1) 0.38348(8) 0.11412(7)
F2 F 0.22960(8) 0.25376(7) 0.28912(7)
F3 F 0.1652(1) 0.12481(8) 0.32590(8)
F4 F 0.2842(1) 0.02375(8) 0.39749(8)
F5 F 0.4685(1) 0.05561(7) 0.43223(7)
F6 F 0.53500(8) 0.18471(7) 0.39676(7)
F7 F 0.7135(1) 0.3864(1) 0.02823(8)
F8 F 0.8710(1) 0.4698(1) 0.05659(9)
F9 F 0.9093(1) 0.5490(1) 0.1750(1)
F10 F 0.79198(9) 0.54396(8) 0.26270(8)
F11 F 0.1822(1) 0.88439(9) 0.32952(7)
F12 F 0.0802(1) 0.97620(9) 0.3928(1)
F13 F 0.0757(1) 0.9561(1) 0.5267(1)
F14 F 0.1784(2) 0.8475(1) 0.59703(9)
F15 F 0.2797(1) 0.7565(1) 0.53363(8)
F16 F 0.66221(9) 0.69170(8) 0.52887(6)
F17 F 0.75137(9) 0.69725(9) 0.31277(7)
F18 F 0.9292(1) 0.7073(1) 0.37332(9)
F19 F 0.9769(1) 0.7165(1) 0.5119(1)
F20 F 0.8401(1) 0.7062(1) 0.58838(8)
F21 F 0.1149(1) 0.43301(9) 0.20058(7)
F22 F -0.0449(1) 0.3578(1) 0.1997(1)
F23 F -0.1251(1) 0.3561(1) 0.3110(1)
F24 F -0.0416(1) 0.4300(1) 0.4255(1)
F25 F 0.1188(1) 0.5022(1) 0.42796(8)
N1 N 0.5147(1) 0.38979(8) 0.29618(8)
N2 N 0.2910(1) 0.39717(9) 0.32789(8)
N3 N 0.4358(1) 0.71653(9) 0.37722(8)
N4 N 0.2740(1) 0.63881(9) 0.34372(8)
N5 N 0.6081(1) 0.56614(9) 0.32271(8)
C2 C 0.2101(1) 0.5151(1) 0.3153(1)
C3 C 0.5985(1) 0.6864(1) 0.3830(1)
C4 C 0.3747(1) 0.3671(1) 0.3220(1)
C5 C 0.4309(1) 0.4243(1) 0.3048(1)
C6 C 0.5883(1) 0.5395(1) 0.2565(1)
C7 C 0.2003(1) 0.5904(1) 0.3225(1)
C8 C 0.5434(1) 0.5948(1) 0.2158(1)
C9 C 0.5303(1) 0.7290(1) 0.4014(1)
C10 C 0.4199(1) 0.2975(1) 0.3252(1)
C11 C 0.5845(1) 0.2775(1) 0.2874(1)
C12 C 0.3829(1) 0.4910(1) 0.3016(1)
C13 C 0.5062(1) 0.3139(1) 0.3076(1)
C14 C 0.6337(1) 0.3290(1) 0.2605(1)
C15 C 0.2347(1) 0.7027(1) 0.3600(1)
C16 C 0.3856(1) 0.2249(1) 0.3416(1)
C17 C 0.4428(1) 0.1715(1) 0.3770(1)
C18 C 0.6194(1) 0.4662(1) 0.2393(1)
C19 C 0.5918(1) 0.4018(1) 0.2630(1)
C20 C 0.2862(1) 0.7629(1) 0.3940(1)
C21 C 0.5347(1) 0.7951(1) 0.4430(1)
C22 C 0.6871(1) 0.4642(1) 0.1919(1)
C23 C 0.6975(1) 0.6939(1) 0.4175(1)
C24 C 0.3825(1) 0.7671(1) 0.4035(1)
C25 C 0.1119(1) 0.6286(1) 0.3209(1)
C26 C 0.6720(2) 0.4243(1) 0.1321(1)
C27 C 0.2339(1) 0.8176(1) 0.4289(1)
C28 C 0.1822(1) 0.8744(1) 0.3956(1)
C29 C 0.2932(1) 0.4734(1) 0.3155(1)
C30 C 0.4463(1) 0.8185(1) 0.4432(1)
C31 C 0.2916(1) 0.2058(1) 0.3250(1)
C32 C 0.4099(2) 0.1042(1) 0.3958(1)
C33 C 0.0796(2) 0.4680(1) 0.3705(1)
C34 C 0.5762(1) 0.6378(1) 0.3243(1)
C35 C 0.5335(1) 0.6555(1) 0.2586(1)
C36 C 0.1221(1) 0.4707(1) 0.3136(1)
C37 C 0.7706(2) 0.6975(1) 0.3810(1)
C38 C 0.1294(2) 0.9213(1) 0.4281(2)
C39 C 0.2306(2) 0.8108(1) 0.4971(1)
C40 C 0.7687(2) 0.5060(1) 0.2040(1)
C41 C 0.7256(1) 0.6969(1) 0.4881(1)
C42 C 0.3166(2) 0.0886(1) 0.3786(1)
C43 C 0.7333(2) 0.4256(1) 0.0868(1)
C44 C 0.1329(1) 0.6978(1) 0.3438(1)
C45 C 0.0788(2) 0.4324(1) 0.2569(1)
C46 C 0.8178(2) 0.7036(2) 0.5199(1)
C47 C -0.0442(2) 0.3932(2) 0.3125(2)
C48 C 0.1274(2) 0.9113(1) 0.4952(2)
C49 C 0.8628(2) 0.7041(2) 0.4121(2)
C50 C 0.2572(2) 0.1398(1) 0.3434(1)
C51 C 0.8123(2) 0.4682(2) 0.1010(1)
C52 C 0.8307(2) 0.5083(1) 0.1592(1)
C53 C -0.0039(2) 0.4294(2) 0.3693(2)
C54 C 0.8866(2) 0.7077(2) 0.4817(2)
C55 C -0.0030(2) 0.3933(1) 0.2564(2)
C56 C 0.1787(2) 0.8570(2) 0.5299(1)
H1 H 0.2388 0.3684 0.3384
H2 H 0.4105 0.6706 0.3603
H3 H 0.6407 0.5399 0.3636
H5 H 0.5145 0.5926 0.1630
H6 H 0.5925 0.2211 0.2868
H7 H 0.6931 0.3170 0.2382
H8 H 0.0450 0.6062 0.3010
H9 H 0.4225 0.8659 0.4657
H10 H 0.0887 0.7413 0.3493
H11 H 0.5991 0.8183 0.4653
H12 H 0.5057 0.7075 0.2472
H13 H 0.4015 0.5433 0.2863
loop_
_geom_bond_atom_site_label_1
_geom_bond_atom_site_label_2
_geom_bond_site_symmetry_1
_geom_bond_site_symmetry_2
Cl1 C1 1_555 1_555
Cl2 C1 1_555 1_555
Cl3 C1 1_555 1_555
F1 C26 1_555 1_555
F2 C31 1_555 1_555
F3 C50 1_555 1_555
F4 C42 1_555 1_555
F5 C32 1_555 1_555
F6 C17 1_555 1_555
F7 C43 1_555 1_555
F8 C51 1_555 1_555
F9 C52 1_555 1_555
F10 C40 1_555 1_555
F11 C28 1_555 1_555
F12 C38 1_555 1_555
F13 C48 1_555 1_555
F14 C56 1_555 1_555
F15 C39 1_555 1_555
F16 C41 1_555 1_555
F17 C37 1_555 1_555
F18 C49 1_555 1_555
F19 C54 1_555 1_555
F20 C46 1_555 1_555
F21 C45 1_555 1_555
F22 C55 1_555 1_555
F23 C47 1_555 1_555
F24 C53 1_555 1_555
F25 C33 1_555 1_555
N1 C5 1_555 1_555
N2 C4 1_555 1_555
N3 C9 1_555 1_555
N4 C7 1_555 1_555
N5 C6 1_555 1_555
C1 H4 1_555 1_555
C2 C7 1_555 1_555
C3 C9 1_555 1_555
C4 C5 1_555 1_555
C5 C12 1_555 1_555
C6 C8 1_555 1_555
C7 C25 1_555 1_555
C8 C35 1_555 1_555
C9 C21 1_555 1_555
C10 C4 1_555 1_555
C11 C13 1_555 1_555
C12 C29 1_555 1_555
C13 N1 1_555 1_555
C14 C11 1_555 1_555
C15 N4 1_555 1_555
C16 C10 1_555 1_555
C17 C16 1_555 1_555
C18 C6 1_555 1_555
C19 N1 1_555 1_555
C20 C15 1_555 1_555
C21 C30 1_555 1_555
C22 C18 1_555 1_555
C23 C3 1_555 1_555
C24 N3 1_555 1_555
C25 C44 1_555 1_555
C26 C22 1_555 1_555
C27 C20 1_555 1_555
C28 C27 1_555 1_555
C29 N2 1_555 1_555
C30 C24 1_555 1_555
C31 C16 1_555 1_555
C32 C17 1_555 1_555
C33 C36 1_555 1_555
C34 N5 1_555 1_555
C35 C34 1_555 1_555
C36 C2 1_555 1_555
C37 C23 1_555 1_555
C38 C28 1_555 1_555
C39 C27 1_555 1_555
C40 C22 1_555 1_555
C41 C23 1_555 1_555
C42 C32 1_555 1_555
C43 C26 1_555 1_555
C44 C15 1_555 1_555
C45 C36 1_555 1_555
C46 C41 1_555 1_555
C47 C53 1_555 1_555
C48 C38 1_555 1_555
C49 C37 1_555 1_555
C50 C31 1_555 1_555
C51 C43 1_555 1_555
C52 C40 1_555 1_555
C53 C33 1_555 1_555
C54 C46 1_555 1_555
C55 C45 1_555 1_555
C56 C39 1_555 1_555
H1 N2 1_555 1_555
H2 N3 1_555 1_555
H3 N5 1_555 1_555
H5 C8 1_555 1_555
H6 C11 1_555 1_555
H7 C14 1_555 1_555
H8 C25 1_555 1_555
H9 C30 1_555 1_555
H10 C44 1_555 1_555
H11 C21 1_555 1_555
H12 C35 1_555 1_555
H13 C12 1_555 1_555
C2 C29 1_555 1_555
C3 C34 1_555 1_555
C10 C13 1_555 1_555
C14 C19 1_555 1_555
C18 C19 1_555 1_555
C20 C24 1_555 1_555
C42 C50 1_555 1_555
C47 C55 1_555 1_555
C48 C56 1_555 1_555
C49 C54 1_555 1_555
C51 C52 1_555 1_555

#END
