
#######################################################################
#
#                 Cambridge Crystallographic Data Centre
#                                CCDC 
#
#######################################################################
#
# If this CIF has been generated from an entry in the Cambridge 
# Structural Database, then it will include bibliographic, chemical, 
# crystal, experimental, refinement or atomic coordinate data resulting 
# from the CCDC's data processing and validation procedures.
#
#######################################################################

data_QIVQUJ
_chemical_formula_moiety         'C30 H28 Mg1 N6 O4'
_chemical_name_systematic        
bis(2-((1H-benzimidazol-2-ylimino)methyl)phenolato)-bis(methanol)-magnesium
_symmetry_cell_setting           monoclinic
_symmetry_space_group_name_H-M   'P 21/n'
_symmetry_Int_Tables_number      14
_space_group_name_Hall           '-P 2yn'
loop_
_symmetry_equiv_pos_site_id
_symmetry_equiv_pos_as_xyz
1 x,y,z
2 1/2-x,1/2+y,1/2-z
3 -x,-y,-z
4 1/2+x,1/2-y,1/2+z
_cell_length_a                   6.7782(6)
_cell_length_b                   8.7472(8)
_cell_length_c                   22.946(2)
_cell_angle_alpha                90
_cell_angle_beta                 98.465(2)
_cell_angle_gamma                90
_cell_volume                     1345.65
_exptl_crystal_colour            yellow
_exptl_crystal_description       block
_cell_formula_units_Z            2
loop_
_atom_site_label
_atom_site_type_symbol
_atom_site_fract_x
_atom_site_fract_y
_atom_site_fract_z
C1 C 0.6757(3) 0.9547(2) 0.09175(8)
C2 C 0.5358(3) 0.9934(2) 0.16871(9)
C3 C 0.4087(3) 0.9982(2) 0.21108(9)
H1 H 0.2902 0.9429 0.2067
C4 C 0.4667(4) 1.0893(3) 0.26011(10)
H2 H 0.3849 1.0948 0.2892
C5 C 0.6437(4) 1.1727(3) 0.26708(10)
H3 H 0.6765 1.2330 0.3005
C6 C 0.7721(4) 1.1678(3) 0.22536(9)
H4 H 0.8909 1.2227 0.2300
C7 C 0.7143(3) 1.0770(2) 0.17632(9)
C8 C 0.6168(3) 0.7348(2) -0.04514(8)
C9 C 0.7679(3) 0.7584(2) -0.08076(8)
C10 C 0.7487(3) 0.6794(2) -0.13495(9)
H5 H 0.8470 0.6910 -0.1589
C11 C 0.5897(3) 0.5865(2) -0.15312(9)
H6 H 0.5806 0.5384 -0.1896
C12 C 0.4410(3) 0.5622(2) -0.11824(10)
H7 H 0.3335 0.4983 -0.1309
C13 C 0.4572(3) 0.6343(2) -0.06510(10)
H8 H 0.3601 0.6170 -0.0411
C14 C 0.6110(3) 0.8052(2) 0.01078(9)
H9 H 0.5113 0.7704 0.0313
C15 C 1.1060(4) 0.6825(3) 0.06297(12)
H10 H 1.0335 0.6780 0.0959
H11 H 1.2255 0.6226 0.0714
H12 H 1.0246 0.6427 0.0285
Mg1 Mg 1.0000 1.0000 0.0000
N1 N 0.7260(2) 0.91086(18) 0.03676(6)
N2 N 0.5147(2) 0.91632(18) 0.11518(7)
N3 N 0.8006(3) 1.04852(19) 0.12677(7)
O1 O 0.9191(2) 0.84911(15) -0.06477(6)
O2 O 1.1568(2) 0.83638(16) 0.05284(7)
H13 H 0.915(4) 1.094(3) 0.1139(10)
H14 H 1.265(4) 0.865(3) 0.0781(11)
C1B C 1.3243(3) 1.0453(2) -0.09175(8)
C2B C 1.4642(3) 1.0066(2) -0.16871(9)
C3B C 1.5913(3) 1.0018(2) -0.21108(9)
H1B H 1.7098 1.0571 -0.2067
C4B C 1.5333(4) 0.9107(3) -0.26011(10)
H2B H 1.6151 0.9052 -0.2892
C5B C 1.3563(4) 0.8273(3) -0.26708(10)
H3B H 1.3235 0.7670 -0.3005
C6B C 1.2279(4) 0.8322(3) -0.22536(9)
H4B H 1.1091 0.7773 -0.2300
C7B C 1.2857(3) 0.9230(2) -0.17632(9)
C8B C 1.3832(3) 1.2652(2) 0.04514(8)
C9B C 1.2321(3) 1.2416(2) 0.08076(8)
C10B C 1.2513(3) 1.3206(2) 0.13495(9)
H5B H 1.1530 1.3090 0.1589
C11B C 1.4103(3) 1.4135(2) 0.15312(9)
H6B H 1.4194 1.4616 0.1896
C12B C 1.5590(3) 1.4378(2) 0.11824(10)
H7B H 1.6665 1.5017 0.1309
C13B C 1.5428(3) 1.3657(2) 0.06510(10)
H8B H 1.6399 1.3830 0.0411
C14B C 1.3890(3) 1.1948(2) -0.01078(9)
H9B H 1.4887 1.2296 -0.0313
C15B C 0.8940(4) 1.3175(3) -0.06297(12)
H10B H 0.9665 1.3220 -0.0959
H11B H 0.7745 1.3774 -0.0714
H12B H 0.9754 1.3573 -0.0285
N1B N 1.2740(2) 1.08914(18) -0.03676(6)
N2B N 1.4853(2) 1.08368(18) -0.11518(7)
N3B N 1.1994(3) 0.95148(19) -0.12677(7)
O1B O 1.0809(2) 1.15089(15) 0.06477(6)
O2B O 0.8432(2) 1.16362(16) -0.05284(7)
H13B H 1.085(4) 0.906(3) -0.1139(10)
H14B H 0.735(4) 1.135(3) -0.0781(11)
loop_
_geom_bond_atom_site_label_1
_geom_bond_atom_site_label_2
_geom_bond_site_symmetry_1
_geom_bond_site_symmetry_2
C1 N1 1_555 1_555
C2 C3 1_555 1_555
C3 H1 1_555 1_555
C4 C3 1_555 1_555
H2 C4 1_555 1_555
C5 C4 1_555 1_555
H3 C5 1_555 1_555
C6 C5 1_555 1_555
H4 C6 1_555 1_555
C7 C2 1_555 1_555
C8 C9 1_555 1_555
C9 C10 1_555 1_555
C10 H5 1_555 1_555
C11 C10 1_555 1_555
H6 C11 1_555 1_555
C12 C11 1_555 1_555
H7 C12 1_555 1_555
C13 C8 1_555 1_555
H8 C13 1_555 1_555
C14 C8 1_555 1_555
H9 C14 1_555 1_555
C15 H10 1_555 1_555
H11 C15 1_555 1_555
H12 C15 1_555 1_555
Mg1 N1 1_555 1_555
N1 C14 1_555 1_555
N2 C1 1_555 1_555
N3 C1 1_555 1_555
O1 C9 1_555 1_555
O2 C15 1_555 1_555
H13 N3 1_555 1_555
H14 O2 1_555 1_555
C1B N1B 1_555 1_555
C2B C3B 1_555 1_555
C3B H1B 1_555 1_555
C4B C3B 1_555 1_555
H2B C4B 1_555 1_555
C5B C4B 1_555 1_555
H3B C5B 1_555 1_555
C6B C5B 1_555 1_555
H4B C6B 1_555 1_555
C7B C2B 1_555 1_555
C8B C9B 1_555 1_555
C9B C10B 1_555 1_555
C10B H5B 1_555 1_555
C11B C10B 1_555 1_555
H6B C11B 1_555 1_555
C12B C11B 1_555 1_555
H7B C12B 1_555 1_555
C13B C8B 1_555 1_555
H8B C13B 1_555 1_555
C14B C8B 1_555 1_555
H9B C14B 1_555 1_555
C15B H10B 1_555 1_555
H11B C15B 1_555 1_555
H12B C15B 1_555 1_555
N1B Mg1 1_555 1_555
N2B C1B 1_555 1_555
N3B C1B 1_555 1_555
O1B Mg1 1_555 1_555
O2B Mg1 1_555 1_555
H13B N3B 1_555 1_555
H14B O2B 1_555 1_555
C2 N2 1_555 1_555
C6 C7 1_555 1_555
C7 N3 1_555 1_555
C12 C13 1_555 1_555
Mg1 O1 1_555 1_555
Mg1 O2 1_555 1_555
C2B N2B 1_555 1_555
C6B C7B 1_555 1_555
C7B N3B 1_555 1_555
C9B O1B 1_555 1_555
C12B C13B 1_555 1_555
C14B N1B 1_555 1_555
C15B O2B 1_555 1_555

#END
