
#######################################################################
#
#                 Cambridge Crystallographic Data Centre
#                                CCDC 
#
#######################################################################
#
# If this CIF has been generated from an entry in the Cambridge 
# Structural Database, then it will include bibliographic, chemical, 
# crystal, experimental, refinement or atomic coordinate data resulting 
# from the CCDC's data processing and validation procedures.
#
#######################################################################

data_QIVTIA
_chemical_formula_moiety         'C15 H12 Cl2 O2 S1'
_chemical_name_systematic        
'1,2-Dichloro-2-(4-methylphenyl)vinyl phenyl sulfone'
_symmetry_cell_setting           monoclinic
_symmetry_space_group_name_H-M   'P 21/c'
_symmetry_Int_Tables_number      14
_space_group_name_Hall           '-P 2ybc'
loop_
_symmetry_equiv_pos_site_id
_symmetry_equiv_pos_as_xyz
1 x,y,z
2 -x,1/2+y,1/2-z
3 -x,-y,-z
4 x,1/2-y,1/2+z
_cell_length_a                   13.1952(6)
_cell_length_b                   14.6121(6)
_cell_length_c                   7.9066(3)
_cell_angle_alpha                90
_cell_angle_beta                 100.933(2)
_cell_angle_gamma                90
_cell_volume                     1496.8
_exptl_crystal_colour            colorless
_exptl_crystal_description       block
_cell_formula_units_Z            4
loop_
_atom_site_label
_atom_site_type_symbol
_atom_site_fract_x
_atom_site_fract_y
_atom_site_fract_z
S1 S 0.78983(5) 0.44053(5) 0.11735(8)
Cl1 Cl 0.86420(6) 0.52014(5) 0.45494(10)
Cl2 Cl 0.67729(9) 0.45272(8) 0.60226(12)
O1 O 0.83016(16) 0.52366(13) 0.0603(3)
O2 O 0.70054(15) 0.40019(14) 0.0147(2)
C1 C 0.7642(2) 0.46134(17) 0.3280(3)
C2 C 0.5927(2) 0.37933(18) 0.2936(3)
C3 C 0.6818(2) 0.43210(19) 0.3868(4)
C4 C 0.8900(2) 0.35930(18) 0.1587(3)
C5 C 0.5059(3) 0.2358(2) 0.2336(4)
H1 H 0.5061 0.1725 0.2462
C6 C 0.8650(3) 0.2685(2) 0.1836(4)
H2 H 0.7967 0.2505 0.1768
C7 C 0.9450(3) 0.2055(2) 0.2189(5)
H3 H 0.9307 0.1443 0.2366
C8 C 0.5078(2) 0.4217(2) 0.1956(4)
H4 H 0.5074 0.4849 0.1812
C9 C 0.9913(2) 0.3867(2) 0.1670(4)
H5 H 1.0066 0.4477 0.1496
C10 C 0.4211(2) 0.2777(2) 0.1360(4)
C11 C 0.5908(2) 0.28537(19) 0.3133(4)
H6 H 0.6467 0.2555 0.3802
C12 C 1.0685(3) 0.3231(3) 0.2012(5)
H7 H 1.1368 0.3407 0.2064
C13 C 0.4236(2) 0.3706(2) 0.1193(4)
H8 H 0.3669 0.4003 0.0546
C14 C 1.0454(3) 0.2336(3) 0.2277(5)
H9 H 1.0985 0.1910 0.2521
C15 C 0.3283(3) 0.2213(3) 0.0524(6)
H10 H 0.2727 0.2615 0.0046
H11 H 0.3071 0.1826 0.1374
H12 H 0.3466 0.1843 -0.0375
loop_
_geom_bond_atom_site_label_1
_geom_bond_atom_site_label_2
_geom_bond_site_symmetry_1
_geom_bond_site_symmetry_2
S1 O1 1_555 1_555
Cl1 C1 1_555 1_555
Cl2 C3 1_555 1_555
O2 S1 1_555 1_555
C1 S1 1_555 1_555
C2 C3 1_555 1_555
C3 C1 1_555 1_555
C4 S1 1_555 1_555
C5 H1 1_555 1_555
C6 C4 1_555 1_555
H2 C6 1_555 1_555
C7 C6 1_555 1_555
H3 C7 1_555 1_555
C8 C2 1_555 1_555
H4 C8 1_555 1_555
C9 C4 1_555 1_555
H5 C9 1_555 1_555
C10 C5 1_555 1_555
C11 C2 1_555 1_555
H6 C11 1_555 1_555
C12 C9 1_555 1_555
H7 C12 1_555 1_555
C13 C8 1_555 1_555
H8 C13 1_555 1_555
C14 C7 1_555 1_555
H9 C14 1_555 1_555
C15 C10 1_555 1_555
H10 C15 1_555 1_555
H11 C15 1_555 1_555
H12 C15 1_555 1_555
C5 C11 1_555 1_555
C10 C13 1_555 1_555
C12 C14 1_555 1_555

#END
