
#######################################################################
#
#                 Cambridge Crystallographic Data Centre
#                                CCDC 
#
#######################################################################
#
# If this CIF has been generated from an entry in the Cambridge 
# Structural Database, then it will include bibliographic, chemical, 
# crystal, experimental, refinement or atomic coordinate data resulting 
# from the CCDC's data processing and validation procedures.
#
#######################################################################

data_QIWMOA
_chemical_formula_moiety         'C23 H38 O5,1.5(H2 O1)'
_chemical_name_systematic        
'17-(3,4-Dihydroxybutan-2-yl)-2,3-dihydroxy-10,13-dimethylhexadecahydro-6H-cyclopenta[a]phenanthren-6-one sesquihydrate'
_symmetry_cell_setting           monoclinic
_symmetry_space_group_name_H-M   'P 21'
_symmetry_Int_Tables_number      4
_space_group_name_Hall           'P 2yb'
loop_
_symmetry_equiv_pos_site_id
_symmetry_equiv_pos_as_xyz
1 x,y,z
2 -x,1/2+y,-z
_cell_length_a                   10.5102(9)
_cell_length_b                   7.1992(6)
_cell_length_c                   30.341(3)
_cell_angle_alpha                90
_cell_angle_beta                 92.509(2)
_cell_angle_gamma                90
_cell_volume                     2293.55
_exptl_crystal_colour            colorless
_exptl_crystal_description       prismatic
_cell_formula_units_Z            4
loop_
_atom_site_label
_atom_site_type_symbol
_atom_site_fract_x
_atom_site_fract_y
_atom_site_fract_z
O1 O 0.1903(3) 1.0492(5) 0.99925(8)
O2 O 0.1414(3) 0.6757(5) 0.97319(8)
O3 O 0.5376(3) 0.4233(4) 0.91807(8)
O4 O 0.4799(3) 1.1505(4) 0.60642(9)
O5 O 0.3274(3) 0.8171(4) 0.58184(8)
C1 C 0.2913(3) 0.9731(5) 0.93096(10)
H1 H 0.3086 1.1039 0.9265
H2 H 0.2088 0.9458 0.9168
C2 C 0.2852(3) 0.9362(6) 0.98027(10)
H3 H 0.3677 0.9713 0.9941
C3 C 0.2642(3) 0.7301(6) 0.98986(11)
H4 H 0.2692 0.7110 1.0219
C4 C 0.3654(3) 0.6145(6) 0.96941(10)
H5 H 0.3476 0.4840 0.9742
H6 H 0.4474 0.6426 0.9838
C5 C 0.3717(3) 0.6510(5) 0.91987(10)
H7 H 0.2880 0.6182 0.9067
C6 C 0.4666(3) 0.5302(5) 0.89807(11)
C7 C 0.4693(4) 0.5523(5) 0.84880(10)
H8 H 0.3931 0.4967 0.8353
H9 H 0.5422 0.4858 0.8382
C8 C 0.4769(3) 0.7564(5) 0.83438(10)
H10 H 0.5622 0.8037 0.8425
C9 C 0.3782(3) 0.8758(5) 0.85739(9)
H11 H 0.2945 0.8237 0.8489
C10 C 0.3939(3) 0.8570(5) 0.90855(10)
C11 C 0.3779(3) 1.0743(5) 0.84029(10)
H12 H 0.4574 1.1335 0.8497
H13 H 0.3093 1.1421 0.8534
C12 C 0.3617(3) 1.0880(5) 0.78992(9)
H14 H 0.3689 1.2170 0.7811
H15 H 0.2773 1.0449 0.7806
C13 C 0.4617(3) 0.9723(4) 0.76684(9)
C14 C 0.4545(3) 0.7739(5) 0.78489(9)
H16 H 0.3670 0.7317 0.7784
C15 C 0.5386(3) 0.6612(6) 0.75497(10)
H17 H 0.5110 0.5328 0.7533
H18 H 0.6270 0.6651 0.7656
C16 C 0.5212(3) 0.7576(5) 0.70972(10)
H19 H 0.4804 0.6743 0.6883
H20 H 0.6030 0.7949 0.6990
C17 C 0.4364(3) 0.9300(5) 0.71700(9)
H21 H 0.3479 0.8873 0.7137
C18 C 0.5939(3) 1.0603(6) 0.77468(11)
H22 H 0.6153 1.0637 0.8058
H23 H 0.5931 1.1845 0.7631
H24 H 0.6561 0.9878 0.7601
C19 C 0.5269(3) 0.9200(6) 0.92522(11)
H25 H 0.5904 0.8498 0.9106
H26 H 0.5363 0.9000 0.9565
H27 H 0.5374 1.0497 0.9190
C20 C 0.4516(3) 1.0841(5) 0.68252(10)
H28 H 0.5361 1.1391 0.6879
C21 C 0.3543(4) 1.2393(6) 0.68655(12)
H29 H 0.3553 1.3174 0.6609
H30 H 0.3754 1.3118 0.7124
H31 H 0.2710 1.1865 0.6889
C22 C 0.4473(3) 1.0042(5) 0.63563(10)
H32 H 0.5121 0.9068 0.6343
C23 C 0.3203(3) 0.9219(7) 0.62112(11)
H33 H 0.2906 0.8425 0.6444
H34 H 0.2588 1.0212 0.6164
H35 H 0.126(2) 1.031(5) 0.9840(10)
H36 H 0.097(4) 0.639(8) 0.9928(12)
H37 H 0.493(4) 1.103(6) 0.5825(8)
H38 H 0.372(4) 0.722(5) 0.5858(15)
O6 O 0.7261(3) 0.2935(4) 0.50598(8)
O7 O 0.6435(2) 0.6681(4) 0.52037(8)
O8 O 1.0156(2) 1.0102(4) 0.57717(9)
O9 O 1.0274(3) 0.4439(5) 0.90664(9)
O10 O 0.8482(3) 0.7482(5) 0.92453(9)
C24 C 0.8148(3) 0.4190(5) 0.57326(10)
H39 H 0.8444 0.2958 0.5816
H40 H 0.7294 0.4337 0.5837
C25 C 0.8101(3) 0.4352(5) 0.52314(10)
H41 H 0.8955 0.4108 0.5128
C26 C 0.7689(3) 0.6251(5) 0.50715(10)
H42 H 0.7706 0.6292 0.4749
C27 C 0.8607(3) 0.7682(5) 0.52672(10)
H43 H 0.8342 0.8912 0.5170
H44 H 0.9452 0.7454 0.5162
C28 C 0.8652(3) 0.7603(5) 0.57694(10)
H45 H 0.7788 0.7866 0.5862
C29 C 0.9510(3) 0.9061(5) 0.59798(11)
C30 C 0.9494(4) 0.9126(5) 0.64762(11)
H46 H 0.8688 0.9643 0.6561
H47 H 1.0166 0.9948 0.6587
C31 C 0.9675(3) 0.7215(5) 0.66916(10)
H48 H 1.0559 0.6828 0.6657
C32 C 0.8795(3) 0.5754(4) 0.64646(9)
H49 H 0.7921 0.6204 0.6491
C33 C 0.9027(3) 0.5646(5) 0.59602(10)
C34 C 0.8875(4) 0.3894(5) 0.67057(11)
H50 H 0.9701 0.3342 0.6660
H51 H 0.8231 0.3067 0.6577
C35 C 0.8688(3) 0.4050(5) 0.72035(10)
H52 H 0.8801 0.2836 0.7339
H53 H 0.7826 0.4459 0.7252
C36 C 0.9636(3) 0.5426(5) 0.74241(10)
C37 C 0.9435(3) 0.7281(5) 0.71839(10)
H54 H 0.8536 0.7609 0.7209
C38 C 1.0206(4) 0.8680(6) 0.74655(11)
H55 H 0.9854 0.9920 0.7433
H56 H 1.1089 0.8700 0.7385
C39 C 1.0086(4) 0.7958(6) 0.79400(12)
H57 H 0.9599 0.8825 0.8110
H58 H 1.0922 0.7813 0.8084
C40 C 0.9394(3) 0.6053(5) 0.79063(10)
H59 H 0.8480 0.6298 0.7921
C41 C 1.1003(3) 0.4695(6) 0.73986(12)
H60 H 1.1204 0.4541 0.7095
H61 H 1.1076 0.3520 0.7547
H62 H 1.1585 0.5566 0.7537
C42 C 1.0423(3) 0.5182(5) 0.58722(12)
H63 H 1.0964 0.6160 0.5986
H64 H 1.0519 0.5061 0.5560
H65 H 1.0655 0.4035 0.6016
C43 C 0.9769(4) 0.4732(6) 0.82911(11)
H66 H 1.0653 0.4356 0.8253
C44 C 0.8967(6) 0.2965(7) 0.82817(13)
H67 H 0.9201 0.2213 0.8534
H68 H 0.9114 0.2282 0.8017
H69 H 0.8082 0.3286 0.8289
C45 C 0.9727(3) 0.5693(6) 0.87421(10)
H70 H 1.0269 0.6800 0.8736
C46 C 0.8421(3) 0.6290(7) 0.88704(11)
H71 H 0.7997 0.6933 0.8624
H72 H 0.7920 0.5200 0.8936
H73 H 0.715(4) 0.309(6) 0.4791(7)
H74 H 0.594(3) 0.603(5) 0.5048(11)
H75 H 1.068(4) 0.522(6) 0.9213(15)
H76 H 0.826(4) 0.689(6) 0.9460(10)
O11 O 0.4926(4) 0.5355(6) 0.59592(13)
H77 H 0.427(2) 0.481(4) 0.5759(8)
H78 H 0.531(8) 0.427(5) 0.603(3)
O12 O 0.5610(3) 0.0307(4) 0.52788(8)
H79 H 0.627(3) 0.106(6) 0.5247(16)
H80 H 0.584(5) -0.087(4) 0.5236(16)
O13 O 0.9695(3) 0.0939(5) 0.94765(9)
H81 H 0.980(5) 0.204(5) 0.9334(16)
H82 H 0.932(5) 0.001(5) 0.9317(15)
loop_
_geom_bond_atom_site_label_1
_geom_bond_atom_site_label_2
_geom_bond_site_symmetry_1
_geom_bond_site_symmetry_2
O1 C2 1_555 1_555
O2 C3 1_555 1_555
O3 C6 1_555 1_555
O4 C22 1_555 1_555
O5 C23 1_555 1_555
C1 H1 1_555 1_555
H2 C1 1_555 1_555
C2 C1 1_555 1_555
H3 C2 1_555 1_555
C3 C2 1_555 1_555
H4 C3 1_555 1_555
C4 C3 1_555 1_555
H5 C4 1_555 1_555
H6 C4 1_555 1_555
C5 C4 1_555 1_555
H7 C5 1_555 1_555
C6 C5 1_555 1_555
C7 C6 1_555 1_555
H8 C7 1_555 1_555
H9 C7 1_555 1_555
C8 C7 1_555 1_555
H10 C8 1_555 1_555
C9 C8 1_555 1_555
H11 C9 1_555 1_555
C10 C1 1_555 1_555
C11 C9 1_555 1_555
H12 C11 1_555 1_555
H13 C11 1_555 1_555
C12 C11 1_555 1_555
H14 C12 1_555 1_555
H15 C12 1_555 1_555
C13 C12 1_555 1_555
C14 C8 1_555 1_555
H16 C14 1_555 1_555
C15 C14 1_555 1_555
H17 C15 1_555 1_555
H18 C15 1_555 1_555
C16 C15 1_555 1_555
H19 C16 1_555 1_555
H20 C16 1_555 1_555
C17 C13 1_555 1_555
H21 C17 1_555 1_555
C18 C13 1_555 1_555
H22 C18 1_555 1_555
H23 C18 1_555 1_555
H24 C18 1_555 1_555
C19 C10 1_555 1_555
H25 C19 1_555 1_555
H26 C19 1_555 1_555
H27 C19 1_555 1_555
C20 C17 1_555 1_555
H28 C20 1_555 1_555
C21 C20 1_555 1_555
H29 C21 1_555 1_555
H30 C21 1_555 1_555
H31 C21 1_555 1_555
C22 C20 1_555 1_555
H32 C22 1_555 1_555
C23 C22 1_555 1_555
H33 C23 1_555 1_555
H34 C23 1_555 1_555
H35 O1 1_555 1_555
H36 O2 1_555 1_555
H37 O4 1_555 1_555
H38 O5 1_555 1_555
O6 C25 1_555 1_555
O7 C26 1_555 1_555
O8 C29 1_555 1_555
O9 C45 1_555 1_555
O10 C46 1_555 1_555
C24 H39 1_555 1_555
H40 C24 1_555 1_555
C25 C24 1_555 1_555
H41 C25 1_555 1_555
C26 C25 1_555 1_555
H42 C26 1_555 1_555
C27 C26 1_555 1_555
H43 C27 1_555 1_555
H44 C27 1_555 1_555
C28 C27 1_555 1_555
H45 C28 1_555 1_555
C29 C28 1_555 1_555
C30 C29 1_555 1_555
H46 C30 1_555 1_555
H47 C30 1_555 1_555
C31 C30 1_555 1_555
H48 C31 1_555 1_555
C32 C31 1_555 1_555
H49 C32 1_555 1_555
C33 C24 1_555 1_555
C34 C32 1_555 1_555
H50 C34 1_555 1_555
H51 C34 1_555 1_555
C35 C34 1_555 1_555
H52 C35 1_555 1_555
H53 C35 1_555 1_555
C36 C35 1_555 1_555
C37 C31 1_555 1_555
H54 C37 1_555 1_555
C38 C37 1_555 1_555
H55 C38 1_555 1_555
H56 C38 1_555 1_555
C39 C38 1_555 1_555
H57 C39 1_555 1_555
H58 C39 1_555 1_555
C40 C36 1_555 1_555
H59 C40 1_555 1_555
C41 C36 1_555 1_555
H60 C41 1_555 1_555
H61 C41 1_555 1_555
H62 C41 1_555 1_555
C42 C33 1_555 1_555
H63 C42 1_555 1_555
H64 C42 1_555 1_555
H65 C42 1_555 1_555
C43 C40 1_555 1_555
H66 C43 1_555 1_555
C44 C43 1_555 1_555
H67 C44 1_555 1_555
H68 C44 1_555 1_555
H69 C44 1_555 1_555
C45 C43 1_555 1_555
H70 C45 1_555 1_555
C46 C45 1_555 1_555
H71 C46 1_555 1_555
H72 C46 1_555 1_555
H73 O6 1_555 1_555
H74 O7 1_555 1_555
H75 O9 1_555 1_555
H76 O10 1_555 1_555
O11 H77 1_555 1_555
H78 O11 1_555 1_555
O12 H79 1_555 1_555
H80 O12 1_555 1_555
O13 H81 1_555 1_555
H82 O13 1_555 1_555
C5 C10 1_555 1_555
C9 C10 1_555 1_555
C13 C14 1_555 1_555
C16 C17 1_555 1_555
C28 C33 1_555 1_555
C32 C33 1_555 1_555
C36 C37 1_555 1_555
C39 C40 1_555 1_555

#END
