
#######################################################################
#
#                 Cambridge Crystallographic Data Centre
#                                CCDC 
#
#######################################################################
#
# If this CIF has been generated from an entry in the Cambridge 
# Structural Database, then it will include bibliographic, chemical, 
# crystal, experimental, refinement or atomic coordinate data resulting 
# from the CCDC's data processing and validation procedures.
#
#######################################################################

data_QIWQUK
_chemical_formula_moiety         'C33 H23 F7 N2 O4'
_chemical_name_systematic        
(2S,3R)-3-(3,4-Dimethylphenyl)-3-(4-methoxyphenyl)-2-phthalimido-N-(2,3,5,6-tetrafluoro-4-(trifluoromethyl)phenyl)propanamide
_symmetry_cell_setting           monoclinic
_symmetry_space_group_name_H-M   'C 2'
_symmetry_Int_Tables_number      5
_space_group_name_Hall           'C 2y'
loop_
_symmetry_equiv_pos_site_id
_symmetry_equiv_pos_as_xyz
1 x,y,z
2 -x,y,-z
3 1/2+x,1/2+y,z
4 1/2-x,1/2+y,-z
_cell_length_a                   47.544(18)
_cell_length_b                   5.5459(19)
_cell_length_c                   21.860(7)
_cell_angle_alpha                90
_cell_angle_beta                 92.544(9)
_cell_angle_gamma                90
_cell_volume                     5758.24
_exptl_crystal_colour            colorless
_exptl_crystal_description       'fine needle'
_chemical_melting_point          '465 K'
_cell_formula_units_Z            8
_exptl_crystal_recrystallization_method 'ethyl acetate/hexane'
loop_
_atom_site_label
_atom_site_type_symbol
_atom_site_fract_x
_atom_site_fract_y
_atom_site_fract_z
F1 F 0.54361(6) 0.5491(6) 0.27107(17)
F2 F 0.49438(7) 0.5965(7) 0.3240(2)
F3 F 0.51235(6) -0.1147(6) 0.43591(12)
F4 F 0.56104(6) -0.1579(6) 0.38348(13)
F5 F 0.46936(16) 0.4998(13) 0.4277(5)
F6 F 0.45345(15) 0.2358(19) 0.3651(3)
F7 F 0.4680(2) 0.1317(16) 0.4543(4)
O1 O 0.64388(6) 0.0572(6) 0.16391(10)
O2 O 0.60087(6) 0.7367(5) 0.23313(11)
O3 O 0.60016(5) 0.4682(5) 0.35300(10)
O4 O 0.74313(5) 0.4766(5) 0.14452(10)
N1 N 0.62249(6) 0.3723(6) 0.21379(12)
N2 N 0.57972(7) 0.1681(6) 0.29763(13)
H1 H 0.5818 0.0548 0.2700
C1 C 0.63103(8) 0.2445(8) 0.16176(15)
C2 C 0.62030(8) 0.3870(8) 0.10833(15)
C3 C 0.62139(8) 0.3363(9) 0.04596(15)
H2 H 0.6307 0.1969 0.0317
C4 C 0.60829(10) 0.4983(10) 0.00575(17)
H3 H 0.6083 0.4686 -0.0370
C5 C 0.59516(11) 0.7021(10) 0.0269(2)
H4 H 0.5864 0.8100 -0.0019
C6 C 0.59436(10) 0.7541(9) 0.08928(18)
H5 H 0.5856 0.8962 0.1036
C7 C 0.60689(8) 0.5891(8) 0.12922(16)
C8 C 0.60908(8) 0.5884(8) 0.19760(15)
C9 C 0.62804(7) 0.2788(8) 0.27587(13)
H6 H 0.6309 0.1008 0.2723
C10 C 0.60163(8) 0.3182(7) 0.31326(15)
C11 C 0.55369(8) 0.1941(8) 0.32567(16)
C12 C 0.53628(10) 0.3840(10) 0.3122(2)
C13 C 0.51070(10) 0.4072(10) 0.3394(3)
C14 C 0.50156(9) 0.2470(9) 0.3813(2)
C15 C 0.51934(10) 0.0558(9) 0.39606(16)
C16 C 0.54476(9) 0.0335(8) 0.36831(16)
C17 C 0.47404(11) 0.2772(9) 0.4090(2)
C18 C 0.65425(7) 0.3824(7) 0.30969(14)
H7 H 0.6494 0.5495 0.3229
C19 C 0.66161(8) 0.2378(7) 0.36761(14)
C20 C 0.64844(8) 0.0233(7) 0.38347(15)
H8 H 0.6338 -0.0411 0.3574
C21 C 0.65661(8) -0.0964(8) 0.43712(16)
H9 H 0.6475 -0.2427 0.4470
C22 C 0.67795(9) -0.0077(8) 0.47707(16)
C23 C 0.69185(8) 0.2026(8) 0.46102(15)
C24 C 0.68346(8) 0.3224(8) 0.40752(15)
H10 H 0.6928 0.4674 0.3975
C25 C 0.68541(9) -0.1388(9) 0.53642(16)
H11 H 0.7056 -0.1738 0.5389
H12 H 0.6748 -0.2902 0.5376
H13 H 0.6806 -0.0373 0.5711
C26 C 0.71612(9) 0.2984(9) 0.50016(18)
H14 H 0.7218 0.4561 0.4846
H15 H 0.7320 0.1863 0.4989
H16 H 0.7104 0.3154 0.5425
C27 C 0.67879(8) 0.4033(7) 0.26752(14)
C28 C 0.69885(8) 0.2212(7) 0.26316(15)
H17 H 0.6975 0.0822 0.2883
C29 C 0.72072(8) 0.2367(8) 0.22325(14)
H18 H 0.7343 0.1113 0.2215
C30 C 0.72246(8) 0.4403(7) 0.18551(15)
C31 C 0.70263(8) 0.6223(7) 0.18906(15)
H19 H 0.7037 0.7606 0.1636
C32 C 0.68114(8) 0.6024(7) 0.22981(14)
H20 H 0.6677 0.7286 0.2319
C33 C 0.76278(8) 0.2861(8) 0.13765(16)
H21 H 0.7761 0.3305 0.1065
H22 H 0.7527 0.1390 0.1249
H23 H 0.7731 0.2577 0.1768
O5 O 0.35641(6) 0.0442(5) 0.34026(10)
O6 O 0.39884(6) 0.7224(5) 0.26836(11)
O7 O 0.40070(6) 0.4335(6) 0.14884(11)
O8 O 0.25644(5) 0.4675(5) 0.35614(10)
N3 N 0.37739(6) 0.3596(6) 0.28931(11)
N4 N 0.41991(8) 0.1473(7) 0.2110(2)
C34 C 0.36941(8) 0.2322(8) 0.34174(15)
C35 C 0.38067(8) 0.3740(8) 0.39452(15)
C36 C 0.38068(9) 0.3223(8) 0.45695(16)
H24 H 0.3716 0.1831 0.4718
C37 C 0.39453(9) 0.4825(8) 0.49635(16)
H25 H 0.3952 0.4521 0.5392
C38 C 0.40757(9) 0.6873(9) 0.47428(17)
H26 H 0.4169 0.7935 0.5026
C39 C 0.40742(9) 0.7421(8) 0.41210(17)
H27 H 0.4161 0.8832 0.3972
C40 C 0.39363(8) 0.5767(8) 0.37305(15)
C41 C 0.39086(8) 0.5759(8) 0.30475(15)
C42 C 0.37193(8) 0.2665(8) 0.22730(14)
H28 H 0.3682 0.0897 0.2310
C43 C 0.39878(8) 0.2953(8) 0.19064(16)
C44 C 0.34602(8) 0.3789(7) 0.19280(15)
H29 H 0.3512 0.5467 0.1810
C45 C 0.33824(8) 0.2414(7) 0.13399(15)
C46 C 0.35062(8) 0.0253(7) 0.11672(15)
H30 H 0.3648 -0.0476 0.1424
C47 C 0.34200(9) -0.0826(8) 0.06162(16)
H31 H 0.3509 -0.2277 0.0500
C48 C 0.32090(9) 0.0124(8) 0.02294(15)
C49 C 0.30766(8) 0.2249(8) 0.04090(15)
C50 C 0.31666(8) 0.3344(8) 0.09538(15)
H32 H 0.3077 0.4795 0.1070
C51 C 0.31327(9) -0.1079(9) -0.03759(16)
H33 H 0.3236 -0.2602 -0.0404
H34 H 0.3183 -0.0015 -0.0712
H35 H 0.2930 -0.1398 -0.0405
C52 C 0.28366(9) 0.3293(9) 0.00247(17)
H36 H 0.2787 0.4878 0.0186
H37 H 0.2673 0.2217 0.0036
H38 H 0.2893 0.3465 -0.0399
C53 C 0.32121(8) 0.3970(7) 0.23504(15)
C54 C 0.30137(8) 0.2175(7) 0.23834(15)
H39 H 0.3027 0.0794 0.2129
C55 C 0.27928(8) 0.2333(8) 0.27808(15)
H40 H 0.2656 0.1084 0.2792
C56 C 0.27740(8) 0.4321(7) 0.31570(15)
C57 C 0.29695(8) 0.6170(7) 0.31272(15)
H41 H 0.2954 0.7553 0.3380
C58 C 0.31876(8) 0.5993(7) 0.27264(14)
H42 H 0.3321 0.7261 0.2708
C59 C 0.23670(8) 0.2774(7) 0.36266(16)
H43 H 0.2228 0.3249 0.3922
H44 H 0.2466 0.1320 0.3773
H45 H 0.2271 0.2443 0.3229
C60 C 0.4443(2) 0.142(2) 0.1699(5)
C61 C 0.44617(13) 0.1613(16) 0.1073(3)
C62 C 0.4714(2) 0.1911(18) 0.0801(2)
C63 C 0.49663(19) 0.1900(17) 0.1128(5)
C64 C 0.49573(17) 0.137(3) 0.1759(4)
C65 C 0.4696(2) 0.122(2) 0.2033(2)
C66 C 0.5236(2) 0.2266(16) 0.0811(5)
F8 F 0.42273(10) 0.1507(10) 0.07178(18)
F9 F 0.47116(13) 0.2216(13) 0.01974(19)
F10 F 0.46949(12) 0.0953(13) 0.26380(19)
F11 F 0.51895(11) 0.1258(14) 0.2118(3)
F12 F 0.5446(3) 0.270(3) 0.1192(6)
F13 F 0.53002(15) 0.0426(14) 0.0464(4)
F14 F 0.52267(16) 0.4223(14) 0.0462(4)
H46 H 0.4193 0.0627 0.2450
F15? F 0.47560(16) 0.4397(17) 0.4549(5)
F16? F 0.45233(15) 0.332(2) 0.3742(4)
F17? F 0.4657(2) 0.0775(15) 0.4396(4)
H47? H 0.4150 0.0258 0.2341
C67? C 0.4493(3) 0.165(2) 0.1994(4)
C68? C 0.46270(17) 0.3714(12) 0.1818(3)
C69? C 0.49045(17) -0.0627(13) 0.1763(4)
C70? C 0.50365(18) 0.149(2) 0.1542(5)
C71? C 0.48950(18) 0.3636(14) 0.1597(3)
C72? C 0.4637(2) -0.0549(14) 0.1964(4)
C73? C 0.53284(18) 0.1240(17) 0.1324(3)
F18? F 0.45069(10) 0.5858(9) 0.1886(2)
F19? F 0.50373(11) -0.2738(11) 0.1746(3)
F20? F 0.45209(10) -0.2590(10) 0.2157(2)
F21? F 0.50055(11) 0.5714(11) 0.1432(3)
F22? F 0.53356(11) -0.0361(12) 0.0874(2)
F23? F 0.5442(4) 0.317(2) 0.1101(6)
F24? F 0.55126(10) 0.0479(13) 0.1760(2)
loop_
_geom_bond_atom_site_label_1
_geom_bond_atom_site_label_2
_geom_bond_site_symmetry_1
_geom_bond_site_symmetry_2
F1 C12 1_555 1_555
F2 C13 1_555 1_555
F3 C15 1_555 1_555
F4 C16 1_555 1_555
F5 C17 1_555 1_555
F6 C17 1_555 1_555
F7 C17 1_555 1_555
O1 C1 1_555 1_555
O2 C8 1_555 1_555
O3 C10 1_555 1_555
O4 C30 1_555 1_555
N1 C1 1_555 1_555
N2 H1 1_555 1_555
C1 C2 1_555 1_555
C2 C3 1_555 1_555
C3 H2 1_555 1_555
C4 C3 1_555 1_555
H3 C4 1_555 1_555
C5 C4 1_555 1_555
H4 C5 1_555 1_555
C6 C5 1_555 1_555
H5 C6 1_555 1_555
C7 C2 1_555 1_555
C8 N1 1_555 1_555
C9 N1 1_555 1_555
H6 C9 1_555 1_555
C10 N2 1_555 1_555
C11 N2 1_555 1_555
C12 C11 1_555 1_555
C13 C12 1_555 1_555
C14 C13 1_555 1_555
C15 C14 1_555 1_555
C16 C11 1_555 1_555
C17 C14 1_555 1_555
C18 C9 1_555 1_555
H7 C18 1_555 1_555
C19 C18 1_555 1_555
C20 C19 1_555 1_555
H8 C20 1_555 1_555
C21 C20 1_555 1_555
H9 C21 1_555 1_555
C22 C21 1_555 1_555
C23 C22 1_555 1_555
C24 C19 1_555 1_555
H10 C24 1_555 1_555
C25 C22 1_555 1_555
H11 C25 1_555 1_555
H12 C25 1_555 1_555
H13 C25 1_555 1_555
C26 C23 1_555 1_555
H14 C26 1_555 1_555
H15 C26 1_555 1_555
H16 C26 1_555 1_555
C27 C18 1_555 1_555
C28 C27 1_555 1_555
H17 C28 1_555 1_555
C29 C28 1_555 1_555
H18 C29 1_555 1_555
C30 C29 1_555 1_555
C31 C30 1_555 1_555
H19 C31 1_555 1_555
C32 C27 1_555 1_555
H20 C32 1_555 1_555
C33 O4 1_555 1_555
H21 C33 1_555 1_555
H22 C33 1_555 1_555
H23 C33 1_555 1_555
O5 C34 1_555 1_555
O6 C41 1_555 1_555
O7 C43 1_555 1_555
O8 C56 1_555 1_555
N3 C34 1_555 1_555
N4 C43 1_555 1_555
C34 C35 1_555 1_555
C35 C36 1_555 1_555
C36 H24 1_555 1_555
C37 C36 1_555 1_555
H25 C37 1_555 1_555
C38 C37 1_555 1_555
H26 C38 1_555 1_555
C39 C38 1_555 1_555
H27 C39 1_555 1_555
C40 C35 1_555 1_555
C41 N3 1_555 1_555
C42 N3 1_555 1_555
H28 C42 1_555 1_555
C43 C42 1_555 1_555
C44 C42 1_555 1_555
H29 C44 1_555 1_555
C45 C44 1_555 1_555
C46 C45 1_555 1_555
H30 C46 1_555 1_555
C47 C46 1_555 1_555
H31 C47 1_555 1_555
C48 C47 1_555 1_555
C49 C48 1_555 1_555
C50 C45 1_555 1_555
H32 C50 1_555 1_555
C51 C48 1_555 1_555
H33 C51 1_555 1_555
H34 C51 1_555 1_555
H35 C51 1_555 1_555
C52 C49 1_555 1_555
H36 C52 1_555 1_555
H37 C52 1_555 1_555
H38 C52 1_555 1_555
C53 C44 1_555 1_555
C54 C53 1_555 1_555
H39 C54 1_555 1_555
C55 C54 1_555 1_555
H40 C55 1_555 1_555
C56 C55 1_555 1_555
C57 C56 1_555 1_555
H41 C57 1_555 1_555
C58 C53 1_555 1_555
H42 C58 1_555 1_555
C59 O8 1_555 1_555
H43 C59 1_555 1_555
H44 C59 1_555 1_555
H45 C59 1_555 1_555
C60 N4 1_555 1_555
C61 C60 1_555 1_555
C62 C61 1_555 1_555
C63 C62 1_555 1_555
C64 C63 1_555 1_555
C65 C60 1_555 1_555
C66 C63 1_555 1_555
F8 C61 1_555 1_555
F9 C62 1_555 1_555
F10 C65 1_555 1_555
F11 C64 1_555 1_555
F12 C66 1_555 1_555
F13 C66 1_555 1_555
F14 C66 1_555 1_555
H46 N4 1_555 1_555
C6 C7 1_555 1_555
C7 C8 1_555 1_555
C9 C10 1_555 1_555
C15 C16 1_555 1_555
C23 C24 1_555 1_555
C31 C32 1_555 1_555
C39 C40 1_555 1_555
C40 C41 1_555 1_555
C49 C50 1_555 1_555
C57 C58 1_555 1_555
C64 C65 1_555 1_555

#END
