
#######################################################################
#
#                 Cambridge Crystallographic Data Centre
#                                CCDC 
#
#######################################################################
#
# If this CIF has been generated from an entry in the Cambridge 
# Structural Database, then it will include bibliographic, chemical, 
# crystal, experimental, refinement or atomic coordinate data resulting 
# from the CCDC's data processing and validation procedures.
#
#######################################################################

data_QIWVOH
_chemical_formula_moiety         'C19 H15 N5 O1'
_chemical_name_systematic        
4-(p-Methoxyphenyl)-3,5-bis(4-pyridyl)-1,2,4-triazole
_symmetry_cell_setting           monoclinic
_symmetry_space_group_name_H-M   'P 21/n'
_symmetry_Int_Tables_number      14
_space_group_name_Hall           '-P 2yn'
loop_
_symmetry_equiv_pos_site_id
_symmetry_equiv_pos_as_xyz
1 x,y,z
2 1/2+x,1/2-y,1/2+z
3 -x,-y,-z
4 1/2-x,1/2+y,1/2-z
_cell_length_a                   12.5832(6)
_cell_length_b                   7.0512(5)
_cell_length_c                   18.4669(12)
_cell_angle_alpha                90
_cell_angle_beta                 96.8260(10)
_cell_angle_gamma                90
_cell_volume                     1626.89
_exptl_crystal_colour            colorless
_exptl_crystal_description       plate
_cell_formula_units_Z            4
_exptl_crystal_recrystallization_method acetone
loop_
_atom_site_label
_atom_site_type_symbol
_atom_site_fract_x
_atom_site_fract_y
_atom_site_fract_z
O1 O 0.3302(2) 0.1983(4) 0.35031(15)
N1 N 0.6026(2) 0.2597(4) -0.00018(15)
N2 N 0.4984(2) 0.2623(4) -0.03411(15)
N3 N 0.4931(2) 0.2551(4) 0.08452(14)
N4 N 0.0947(3) 0.2673(6) -0.0366(3)
N5 N 0.8842(2) 0.2492(4) 0.22208(19)
C1 C 0.4344(3) 0.2605(5) 0.01687(18)
C2 C 0.5980(3) 0.2557(5) 0.07103(18)
C3 C 0.3166(3) 0.2640(5) 0.00170(18)
C4 C 0.2710(3) 0.1917(5) -0.0643(2)
H1 H 0.3136 0.1408 -0.0974
C5 C 0.1613(4) 0.1966(6) -0.0801(3)
H2 H 0.1318 0.1466 -0.1246
C6 C 0.1397(3) 0.3398(6) 0.0262(3)
H3 H 0.0950 0.3927 0.0575
C7 C 0.2491(3) 0.3415(5) 0.0479(2)
H4 H 0.2766 0.3935 0.0925
C8 C 0.6939(3) 0.2525(5) 0.12496(18)
C9 C 0.7875(3) 0.3253(5) 0.1058(2)
H5 H 0.7896 0.3768 0.0596
C10 C 0.8784(3) 0.3217(5) 0.1551(2)
H6 H 0.9404 0.3737 0.1406
C11 C 0.7936(3) 0.1751(5) 0.2394(2)
H7 H 0.7949 0.1191 0.2852
C12 C 0.6968(3) 0.1748(5) 0.19446(19)
H8 H 0.6355 0.1239 0.2104
C13 C 0.4530(2) 0.2448(5) 0.15458(17)
C14 C 0.4138(3) 0.0732(5) 0.17648(19)
H9 H 0.4142 -0.0337 0.1470
C15 C 0.3742(3) 0.0640(5) 0.2428(2)
H10 H 0.3473 -0.0500 0.2583
C16 C 0.3741(3) 0.2231(6) 0.28668(19)
C17 C 0.4161(3) 0.3920(5) 0.26494(19)
H11 H 0.4185 0.4977 0.2952
C18 C 0.4546(2) 0.4028(5) 0.19765(19)
H12 H 0.4813 0.5167 0.1820
C19 C 0.3345(3) 0.3541(7) 0.4007(2)
H13 H 0.3011 0.3177 0.4427
H14 H 0.2974 0.4610 0.3776
H15 H 0.4078 0.3876 0.4155
loop_
_geom_bond_atom_site_label_1
_geom_bond_atom_site_label_2
_geom_bond_site_symmetry_1
_geom_bond_site_symmetry_2
O1 C16 1_555 1_555
N1 N2 1_555 1_555
N2 C1 1_555 1_555
N3 C1 1_555 1_555
N4 C5 1_555 1_555
N5 C10 1_555 1_555
C1 C3 1_555 1_555
C2 N1 1_555 1_555
C3 C4 1_555 1_555
C4 H1 1_555 1_555
C5 C4 1_555 1_555
H2 C5 1_555 1_555
C6 N4 1_555 1_555
H3 C6 1_555 1_555
C7 C3 1_555 1_555
H4 C7 1_555 1_555
C8 C2 1_555 1_555
C9 C8 1_555 1_555
H5 C9 1_555 1_555
C10 C9 1_555 1_555
H6 C10 1_555 1_555
C11 N5 1_555 1_555
H7 C11 1_555 1_555
C12 C8 1_555 1_555
H8 C12 1_555 1_555
C13 N3 1_555 1_555
C14 C13 1_555 1_555
H9 C14 1_555 1_555
C15 C14 1_555 1_555
H10 C15 1_555 1_555
C16 C15 1_555 1_555
C17 C16 1_555 1_555
H11 C17 1_555 1_555
C18 C13 1_555 1_555
H12 C18 1_555 1_555
C19 O1 1_555 1_555
H13 C19 1_555 1_555
H14 C19 1_555 1_555
H15 C19 1_555 1_555
N3 C2 1_555 1_555
C6 C7 1_555 1_555
C11 C12 1_555 1_555
C17 C18 1_555 1_555

#END
