
#######################################################################
#
#                 Cambridge Crystallographic Data Centre
#                                CCDC 
#
#######################################################################
#
# If this CIF has been generated from an entry in the Cambridge 
# Structural Database, then it will include bibliographic, chemical, 
# crystal, experimental, refinement or atomic coordinate data resulting 
# from the CCDC's data processing and validation procedures.
#
#######################################################################

data_QIWXOL
_chemical_formula_moiety         'C26 H20 N4 2+,0.5(C10 H8 N2),2(F6 P1 1-)'
_chemical_name_systematic        
"2,2'-Biphenyl-4,4'-diylbis(imidazo[1,5-a]pyridin-2-ium) bis(hexafluorophosphate) hemikis(4,4'-bipyridine)"
_symmetry_cell_setting           triclinic
_symmetry_space_group_name_H-M   'P -1'
_symmetry_Int_Tables_number      2
_space_group_name_Hall           '-P 1'
loop_
_symmetry_equiv_pos_site_id
_symmetry_equiv_pos_as_xyz
1 x,y,z
2 -x,-y,-z
_cell_length_a                   10.921(4)
_cell_length_b                   16.998(6)
_cell_length_c                   17.666(6)
_cell_angle_alpha                95.720(7)
_cell_angle_beta                 104.272(7)
_cell_angle_gamma                93.340(6)
_cell_volume                     3150.7
_cell_formula_units_Z            4
loop_
_atom_site_label
_atom_site_type_symbol
_atom_site_fract_x
_atom_site_fract_y
_atom_site_fract_z
P1 P 0.4308(2) 0.21727(14) 0.23442(15)
F1 F 0.4452(7) 0.1675(5) 0.1631(4)
F2 F 0.4358(9) 0.1441(5) 0.2767(5)
F3 F 0.4324(9) 0.2875(4) 0.1905(5)
F4 F 0.4073(9) 0.2690(6) 0.3027(5)
F5 F 0.5729(6) 0.2297(5) 0.2712(4)
F6 F 0.2843(6) 0.1991(4) 0.1989(5)
P2 P 0.1057(2) 0.36522(13) 0.41924(14)
F7 F 0.2252(6) 0.3592(5) 0.3878(4)
F8 F 0.1348(8) 0.2914(5) 0.4619(5)
F9 F 0.0219(8) 0.3232(5) 0.3441(4)
F10 F -0.0045(6) 0.3736(5) 0.4563(4)
F11 F 0.0841(8) 0.4392(5) 0.3784(6)
F12 F 0.1994(8) 0.4062(6) 0.4957(5)
P3 P 0.8359(2) 0.65029(15) 0.02815(16)
F13 F 0.8586(9) 0.5778(5) 0.0719(6)
F14 F 0.9244(8) 0.6310(6) -0.0186(5)
F15 F 0.9421(7) 0.6904(4) 0.0953(4)
F16 F 0.8080(8) 0.7251(4) -0.0123(5)
F17 F 0.7354(7) 0.6597(6) 0.0694(5)
F18 F 0.7254(9) 0.6104(6) -0.0398(5)
P4 P 0.5415(2) 0.77313(13) 0.28972(13)
F19 F 0.6335(8) 0.7926(5) 0.2426(5)
F20 F 0.5985(10) 0.8363(5) 0.3576(4)
F21 F 0.4564(8) 0.8294(5) 0.2470(4)
F22 F 0.4452(7) 0.7529(5) 0.3367(4)
F23 F 0.4899(10) 0.7052(5) 0.2237(5)
F24 F 0.6193(9) 0.7125(5) 0.3323(5)
C1 C 0.2348(7) -0.2993(5) 0.0553(5)
H1 H 0.1706 -0.2750 0.0724
C2 C 0.2262(9) -0.3789(6) 0.0348(5)
H2 H 0.1555 -0.4098 0.0389
C3 C 0.3213(9) -0.4154(5) 0.0076(6)
H3 H 0.3136 -0.4702 -0.0052
C4 C 0.4240(8) -0.3721(5) -0.0004(5)
H4 H 0.4857 -0.3967 -0.0198
C5 C 0.4369(6) -0.2898(4) 0.0208(4)
C6 C 0.5267(7) -0.2324(4) 0.0212(4)
H5 H 0.6002 -0.2388 0.0043
C7 C 0.3786(6) -0.1766(4) 0.0671(4)
H6 H 0.3326 -0.1388 0.0867
C8 C 0.5655(6) -0.0882(4) 0.0653(4)
C9 C 0.5667(6) -0.0367(4) 0.1309(4)
H7 H 0.5195 -0.0502 0.1656
C10 C 0.6382(6) 0.0344(4) 0.1444(4)
H8 H 0.6389 0.0691 0.1887
C11 C 0.7100(6) 0.0561(4) 0.0934(4)
C12 C 0.7055(6) 0.0015(4) 0.0281(4)
H9 H 0.7539 0.0136 -0.0064
C13 C 0.6333(6) -0.0686(4) 0.0131(4)
H10 H 0.6298 -0.1029 -0.0319
C14 C 0.7880(6) 0.1315(4) 0.1098(4)
C15 C 0.7469(6) 0.1996(4) 0.1439(4)
H11 H 0.6665 0.1973 0.1529
C16 C 0.8222(7) 0.2695(4) 0.1643(4)
H12 H 0.7942 0.3134 0.1887
C17 C 0.9383(6) 0.2747(4) 0.1487(4)
C18 C 0.9817(6) 0.2082(4) 0.1120(4)
H13 H 1.0607 0.2114 0.1009
C19 C 0.9059(6) 0.1398(4) 0.0935(4)
H14 H 0.9340 0.0961 0.0687
C20 C 1.1418(7) 0.3503(4) 0.2037(4)
H15 H 1.1895 0.3071 0.2132
C21 C 0.9821(7) 0.4215(4) 0.1667(4)
H16 H 0.9000 0.4346 0.1461
C22 C 1.0864(8) 0.4741(4) 0.1969(4)
C23 C 1.1142(9) 0.5565(5) 0.2082(5)
H17 H 1.0502 0.5897 0.1927
C24 C 1.2340(10) 0.5873(5) 0.2418(6)
H18 H 1.2523 0.6421 0.2499
C25 C 1.3306(9) 0.5382(5) 0.2646(6)
H19 H 1.4124 0.5613 0.2876
C26 C 1.3102(8) 0.4582(5) 0.2546(6)
H20 H 1.3756 0.4259 0.2702
N1 N 0.3448(5) -0.2547(3) 0.0499(3)
N2 N 0.4906(5) -0.1631(3) 0.0508(3)
N3 N 1.0188(5) 0.3468(3) 0.1721(3)
N4 N 1.1859(6) 0.4263(3) 0.2197(4)
C27 C -0.3483(9) 0.5373(6) 0.1923(6)
H21 H -0.3894 0.5576 0.1467
C28 C -0.3863(10) 0.4661(7) 0.2084(6)
H22 H -0.4548 0.4368 0.1728
C29 C -0.3281(10) 0.4343(5) 0.2755(8)
H23 H -0.3578 0.3846 0.2844
C30 C -0.2277(9) 0.4751(5) 0.3284(7)
H24 H -0.1870 0.4536 0.3734
C31 C -0.1858(7) 0.5515(4) 0.3138(4)
C32 C -0.0945(8) 0.6049(5) 0.3528(5)
H25 H -0.0387 0.6001 0.4009
C33 C -0.0118(6) 0.7391(4) 0.3356(4)
C34 C -0.0058(7) 0.7848(4) 0.4055(4)
H26 H -0.0570 0.7695 0.4374
C35 C 0.0728(7) 0.8510(4) 0.4281(4)
H27 H 0.0752 0.8810 0.4755
C36 C 0.1521(6) 0.8762(4) 0.3815(4)
C37 C 0.1418(7) 0.8308(4) 0.3115(4)
H28 H 0.1918 0.8463 0.2790
C38 C 0.0599(7) 0.7625(4) 0.2868(4)
H29 H 0.0538 0.7334 0.2384
C39 C -0.1870(7) 0.6523(4) 0.2459(5)
H30 H -0.2076 0.6854 0.2065
C40 C 0.2349(6) 0.9501(4) 0.4060(4)
C41 C 0.3492(7) 0.9591(4) 0.3861(4)
H31 H 0.3765 0.9161 0.3597
C42 C 0.4240(6) 1.0301(4) 0.4042(4)
H32 H 0.5011 1.0344 0.3908
C43 C 0.3844(6) 1.0941(4) 0.4420(4)
C44 C 0.2731(7) 1.0869(4) 0.4637(4)
H33 H 0.2483 1.1298 0.4915
C45 C 0.1975(7) 1.0168(4) 0.4445(4)
H34 H 0.1199 1.0137 0.4575
C46 C 0.4198(6) 1.2366(4) 0.4799(4)
H35 H 0.3377 1.2437 0.4839
C47 C 0.5851(6) 1.1814(4) 0.4592(4)
H36 H 0.6362 1.1428 0.4469
C48 C 0.6202(6) 1.2589(4) 0.4788(4)
C49 C 0.7305(7) 1.3087(5) 0.4873(5)
H37 H 0.8023 1.2879 0.4769
C50 C 0.7327(8) 1.3869(5) 0.5107(5)
H38 H 0.8068 1.4196 0.5170
C51 C 0.6258(8) 1.4195(5) 0.5255(6)
H39 H 0.6299 1.4736 0.5415
C52 C 0.5168(8) 1.3748(4) 0.5173(6)
H40 H 0.4458 1.3970 0.5274
N5 N -0.2453(6) 0.5804(4) 0.2461(4)
N6 N -0.0946(5) 0.6679(3) 0.3119(3)
N7 N 0.4617(5) 1.1690(3) 0.4606(3)
N8 N 0.5138(5) 1.2940(3) 0.4931(3)
C53 C 0.7851(7) -0.0001(5) 0.3482(4)
H41 H 0.7327 -0.0361 0.3648
C54 C 0.8542(6) -0.0292(4) 0.2999(4)
H42 H 0.8479 -0.0835 0.2841
C55 C 0.9344(6) 0.0216(4) 0.2737(4)
C56 C 0.9377(7) 0.0999(4) 0.2998(4)
H43 H 0.9904 0.1369 0.2846
C57 C 0.8633(8) 0.1242(5) 0.3484(5)
H44 H 0.8672 0.1782 0.3647
C58 C 1.0106(6) -0.0081(4) 0.2207(4)
C59 C 1.1300(7) 0.0262(4) 0.2246(4)
H45 H 1.1645 0.0705 0.2604
C60 C 1.1971(8) -0.0061(5) 0.1747(5)
H46 H 1.2775 0.0181 0.1789
C61 C 0.9648(7) -0.0732(4) 0.1629(4)
H47 H 0.8842 -0.0980 0.1567
C62 C 1.0399(8) -0.0999(5) 0.1157(5)
H48 H 1.0071 -0.1425 0.0773
N9 N 0.7863(7) 0.0763(4) 0.3739(4)
N10 N 1.1579(7) -0.0683(4) 0.1212(4)
loop_
_geom_bond_atom_site_label_1
_geom_bond_atom_site_label_2
_geom_bond_site_symmetry_1
_geom_bond_site_symmetry_2
P1 F1 1_555 1_555
F2 P1 1_555 1_555
F3 P1 1_555 1_555
F4 P1 1_555 1_555
F5 P1 1_555 1_555
F6 P1 1_555 1_555
P2 F7 1_555 1_555
F8 P2 1_555 1_555
F9 P2 1_555 1_555
F10 P2 1_555 1_555
F11 P2 1_555 1_555
F12 P2 1_555 1_555
P3 F13 1_555 1_555
F14 P3 1_555 1_555
F15 P3 1_555 1_555
F16 P3 1_555 1_555
F17 P3 1_555 1_555
F18 P3 1_555 1_555
P4 F19 1_555 1_555
F20 P4 1_555 1_555
F21 P4 1_555 1_555
F22 P4 1_555 1_555
F23 P4 1_555 1_555
F24 P4 1_555 1_555
C1 H1 1_555 1_555
C2 C1 1_555 1_555
H2 C2 1_555 1_555
C3 C2 1_555 1_555
H3 C3 1_555 1_555
C4 C3 1_555 1_555
H4 C4 1_555 1_555
C5 C4 1_555 1_555
C6 C5 1_555 1_555
H5 C6 1_555 1_555
C7 H6 1_555 1_555
C8 C9 1_555 1_555
C9 H7 1_555 1_555
C10 C9 1_555 1_555
H8 C10 1_555 1_555
C11 C10 1_555 1_555
C12 C11 1_555 1_555
H9 C12 1_555 1_555
C13 C8 1_555 1_555
H10 C13 1_555 1_555
C14 C11 1_555 1_555
C15 C14 1_555 1_555
H11 C15 1_555 1_555
C16 C15 1_555 1_555
H12 C16 1_555 1_555
C17 C16 1_555 1_555
C18 C17 1_555 1_555
H13 C18 1_555 1_555
C19 C14 1_555 1_555
H14 C19 1_555 1_555
C20 H15 1_555 1_555
C21 H16 1_555 1_555
C22 C21 1_555 1_555
C23 C22 1_555 1_555
H17 C23 1_555 1_555
C24 C23 1_555 1_555
H18 C24 1_555 1_555
C25 C24 1_555 1_555
H19 C25 1_555 1_555
C26 C25 1_555 1_555
H20 C26 1_555 1_555
N1 C1 1_555 1_555
N2 C6 1_555 1_555
N3 C17 1_555 1_555
N4 C20 1_555 1_555
C27 H21 1_555 1_555
C28 C27 1_555 1_555
H22 C28 1_555 1_555
C29 C28 1_555 1_555
H23 C29 1_555 1_555
C30 C29 1_555 1_555
H24 C30 1_555 1_555
C31 C30 1_555 1_555
C32 C31 1_555 1_555
H25 C32 1_555 1_555
C33 C34 1_555 1_555
C34 H26 1_555 1_555
C35 C34 1_555 1_555
H27 C35 1_555 1_555
C36 C35 1_555 1_555
C37 C36 1_555 1_555
H28 C37 1_555 1_555
C38 C33 1_555 1_555
H29 C38 1_555 1_555
C39 H30 1_555 1_555
C40 C36 1_555 1_555
C41 C40 1_555 1_555
H31 C41 1_555 1_555
C42 C41 1_555 1_555
H32 C42 1_555 1_555
C43 C42 1_555 1_555
C44 C43 1_555 1_555
H33 C44 1_555 1_555
C45 C40 1_555 1_555
H34 C45 1_555 1_555
C46 H35 1_555 1_555
C47 H36 1_555 1_555
C48 C47 1_555 1_555
C49 C48 1_555 1_555
H37 C49 1_555 1_555
C50 C49 1_555 1_555
H38 C50 1_555 1_555
C51 C50 1_555 1_555
H39 C51 1_555 1_555
C52 C51 1_555 1_555
H40 C52 1_555 1_555
N5 C27 1_555 1_555
N6 C32 1_555 1_555
N7 C43 1_555 1_555
N8 C46 1_555 1_555
C53 H41 1_555 1_555
C54 C53 1_555 1_555
H42 C54 1_555 1_555
C55 C54 1_555 1_555
C56 C55 1_555 1_555
H43 C56 1_555 1_555
C57 C56 1_555 1_555
H44 C57 1_555 1_555
C58 C55 1_555 1_555
C59 C58 1_555 1_555
H45 C59 1_555 1_555
C60 C59 1_555 1_555
H46 C60 1_555 1_555
C61 C58 1_555 1_555
H47 C61 1_555 1_555
C62 C61 1_555 1_555
H48 C62 1_555 1_555
N9 C53 1_555 1_555
N10 C60 1_555 1_555
C5 N1 1_555 1_555
C7 N1 1_555 1_555
C7 N2 1_555 1_555
C8 N2 1_555 1_555
C12 C13 1_555 1_555
C18 C19 1_555 1_555
C20 N3 1_555 1_555
C21 N3 1_555 1_555
C22 N4 1_555 1_555
C26 N4 1_555 1_555
C31 N5 1_555 1_555
C33 N6 1_555 1_555
C37 C38 1_555 1_555
C39 N5 1_555 1_555
C39 N6 1_555 1_555
C44 C45 1_555 1_555
C46 N7 1_555 1_555
C47 N7 1_555 1_555
C48 N8 1_555 1_555
C52 N8 1_555 1_555
C57 N9 1_555 1_555
C62 N10 1_555 1_555

#END
