
#######################################################################
#
#                 Cambridge Crystallographic Data Centre
#                                CCDC 
#
#######################################################################
#
# If this CIF has been generated from an entry in the Cambridge 
# Structural Database, then it will include bibliographic, chemical, 
# crystal, experimental, refinement or atomic coordinate data resulting 
# from the CCDC's data processing and validation procedures.
#
#######################################################################

data_QIXGUB
_chemical_formula_moiety         'C40 H38 N4,0.5(H2 O1)'
_chemical_name_systematic        
"5,5'-(1,3-Phenylenedipyridine-6,2-diyl)bis(10,10-dimethyl-4-azatricyclo[7.1.1.0^2,7^]undeca-2,4,6-triene) hemihydrate"
_symmetry_cell_setting           orthorhombic
_symmetry_space_group_name_H-M   'P 21 21 21'
_symmetry_Int_Tables_number      19
_space_group_name_Hall           'P 2ac 2ab'
loop_
_symmetry_equiv_pos_site_id
_symmetry_equiv_pos_as_xyz
1 x,y,z
2 1/2-x,-y,1/2+z
3 1/2+x,1/2-y,-z
4 -x,1/2+y,1/2-z
_cell_length_a                   10.0224(4)
_cell_length_b                   13.5194(6)
_cell_length_c                   24.2193(11)
_cell_angle_alpha                90
_cell_angle_beta                 90
_cell_angle_gamma                90
_cell_volume                     3281.64
_exptl_crystal_colour            colorless
_exptl_crystal_description       block
_cell_formula_units_Z            4
loop_
_atom_site_label
_atom_site_type_symbol
_atom_site_fract_x
_atom_site_fract_y
_atom_site_fract_z
O1 O 0.8502(3) 0.1283(2) 0.31626(10)
N1 N 0.03410(19) 0.18402(15) 0.40539(8)
N2 N 0.17320(18) 0.42751(14) 0.39346(7)
N3 N 0.28406(18) 0.64223(12) 0.54712(7)
N4 N 0.2000(2) 0.60793(13) 0.68940(7)
C1 C 0.3408(3) 0.0113(2) 0.52337(11)
H1 H 0.3464 0.0725 0.5034
H2 H 0.3313 -0.0425 0.4978
H3 H 0.4205 0.0023 0.5447
C2 C 0.2208(3) 0.01411(18) 0.56163(10)
C3 C 0.2228(4) -0.0806(2) 0.59652(11)
H4 H 0.3028 -0.0823 0.6183
H5 H 0.2202 -0.1372 0.5726
H6 H 0.1465 -0.0815 0.6205
C4 C 0.0803(3) 0.03434(18) 0.53667(10)
H7 H 0.0276 -0.0240 0.5266
C5 C 0.0443(3) 0.0845(2) 0.59213(10)
H8 H -0.0127 0.1422 0.5886
H9 H 0.0113 0.0395 0.6202
C6 C 0.1939(3) 0.10832(18) 0.59672(10)
H10 H 0.2303 0.1068 0.6343
C7 C 0.2247(3) 0.20202(17) 0.56395(9)
H11 H 0.1940 0.2594 0.5843
H12 H 0.3204 0.2080 0.5589
C8 C 0.0298(2) 0.11099(19) 0.44261(10)
H13 H -0.0158 0.0537 0.4329
C9 C 0.0879(2) 0.11393(17) 0.49464(9)
C10 C 0.1576(2) 0.19883(17) 0.50880(9)
C11 C 0.1627(2) 0.27543(17) 0.47068(10)
H14 H 0.2083 0.3334 0.4792
C12 C 0.0995(2) 0.26568(17) 0.41963(9)
C13 C 0.1026(2) 0.34830(18) 0.37870(9)
C14 C 0.0375(2) 0.3419(2) 0.32841(10)
H15 H -0.0116 0.2860 0.3190
C15 C 0.0477(3) 0.4212(2) 0.29261(10)
H16 H 0.0059 0.4188 0.2583
C16 C 0.1188(3) 0.5028(2) 0.30753(10)
H17 H 0.1252 0.5568 0.2839
C17 C 0.1810(2) 0.50395(18) 0.35823(9)
C18 C 0.2603(2) 0.58977(17) 0.37759(9)
C19 C 0.3183(3) 0.65806(19) 0.34175(10)
H18 H 0.3074 0.6508 0.3038
C20 C 0.3914(3) 0.7360(2) 0.36204(12)
H19 H 0.4289 0.7813 0.3377
C21 C 0.4099(3) 0.74783(18) 0.41765(12)
H20 H 0.4601 0.8008 0.4307
C22 C 0.3543(2) 0.68117(16) 0.45475(9)
C23 C 0.2798(2) 0.60345(16) 0.43362(9)
H21 H 0.2414 0.5587 0.4581
C24 C 0.3760(2) 0.68722(16) 0.51531(9)
C25 C 0.4881(3) 0.73178(18) 0.53773(12)
H22 H 0.5503 0.7627 0.5151
C26 C 0.5059(3) 0.7296(2) 0.59391(13)
H23 H 0.5814 0.7580 0.6097
C27 C 0.4113(3) 0.68532(18) 0.62670(10)
H24 H 0.4205 0.6849 0.6649
C28 C 0.3025(2) 0.64157(15) 0.60198(9)
C29 C 0.2008(2) 0.58903(15) 0.63472(8)
C30 C 0.1153(2) 0.51982(16) 0.61153(8)
H25 H 0.1169 0.5091 0.5736
C31 C 0.0278(2) 0.46663(16) 0.64426(8)
C32 C 0.0278(2) 0.48558(15) 0.70079(8)
C33 C 0.1143(2) 0.55694(17) 0.72020(8)
H26 H 0.1126 0.5705 0.7578
C34 C -0.0667(2) 0.38878(18) 0.62318(8)
H27 H -0.0170 0.3392 0.6028
H28 H -0.1305 0.4189 0.5982
C35 C -0.1406(2) 0.33965(18) 0.67054(9)
H29 H -0.1998 0.2852 0.6599
C36 C -0.0417(3) 0.31553(18) 0.71708(9)
H30 H 0.0478 0.3000 0.7045
H31 H -0.0737 0.2670 0.7434
C37 C -0.0612(2) 0.42442(18) 0.73536(9)
H32 H -0.0575 0.4369 0.7752
C38 C -0.2033(2) 0.41728(18) 0.70955(9)
C39 C -0.3046(3) 0.3716(2) 0.74935(10)
H33 H -0.3218 0.4169 0.7790
H34 H -0.2694 0.3110 0.7640
H35 H -0.3862 0.3582 0.7300
C40 C -0.2611(3) 0.51027(19) 0.68555(11)
H36 H -0.3466 0.4961 0.6695
H37 H -0.2023 0.5354 0.6576
H38 H -0.2713 0.5588 0.7142
loop_
_geom_bond_atom_site_label_1
_geom_bond_atom_site_label_2
_geom_bond_site_symmetry_1
_geom_bond_site_symmetry_2
N1 C8 1_555 1_555
N2 C13 1_555 1_555
N3 C24 1_555 1_555
N4 C29 1_555 1_555
C1 H1 1_555 1_555
H2 C1 1_555 1_555
H3 C1 1_555 1_555
C2 C1 1_555 1_555
C3 C2 1_555 1_555
H4 C3 1_555 1_555
H5 C3 1_555 1_555
H6 C3 1_555 1_555
C4 C2 1_555 1_555
H7 C4 1_555 1_555
C5 C4 1_555 1_555
H8 C5 1_555 1_555
H9 C5 1_555 1_555
C6 C2 1_555 1_555
H10 C6 1_555 1_555
C7 C6 1_555 1_555
H11 C7 1_555 1_555
H12 C7 1_555 1_555
C8 H13 1_555 1_555
C9 C4 1_555 1_555
C10 C7 1_555 1_555
C11 C10 1_555 1_555
H14 C11 1_555 1_555
C12 N1 1_555 1_555
C13 C12 1_555 1_555
C14 C13 1_555 1_555
H15 C14 1_555 1_555
C15 C14 1_555 1_555
H16 C15 1_555 1_555
C16 C15 1_555 1_555
H17 C16 1_555 1_555
C17 N2 1_555 1_555
C18 C17 1_555 1_555
C19 C18 1_555 1_555
H18 C19 1_555 1_555
C20 C19 1_555 1_555
H19 C20 1_555 1_555
C21 C20 1_555 1_555
H20 C21 1_555 1_555
C22 C21 1_555 1_555
C23 C18 1_555 1_555
H21 C23 1_555 1_555
C24 C22 1_555 1_555
C25 C24 1_555 1_555
H22 C25 1_555 1_555
C26 C25 1_555 1_555
H23 C26 1_555 1_555
C27 C26 1_555 1_555
H24 C27 1_555 1_555
C28 N3 1_555 1_555
C29 C28 1_555 1_555
C30 C29 1_555 1_555
H25 C30 1_555 1_555
C31 C30 1_555 1_555
C32 C31 1_555 1_555
C33 N4 1_555 1_555
H26 C33 1_555 1_555
C34 C31 1_555 1_555
H27 C34 1_555 1_555
H28 C34 1_555 1_555
C35 C34 1_555 1_555
H29 C35 1_555 1_555
C36 C35 1_555 1_555
H30 C36 1_555 1_555
H31 C36 1_555 1_555
C37 C32 1_555 1_555
H32 C37 1_555 1_555
C38 C35 1_555 1_555
C39 C38 1_555 1_555
H33 C39 1_555 1_555
H34 C39 1_555 1_555
H35 C39 1_555 1_555
C40 C38 1_555 1_555
H36 C40 1_555 1_555
H37 C40 1_555 1_555
H38 C40 1_555 1_555
C5 C6 1_555 1_555
C8 C9 1_555 1_555
C9 C10 1_555 1_555
C11 C12 1_555 1_555
C16 C17 1_555 1_555
C22 C23 1_555 1_555
C27 C28 1_555 1_555
C32 C33 1_555 1_555
C36 C37 1_555 1_555
C37 C38 1_555 1_555

#END
