
#######################################################################
#
#                 Cambridge Crystallographic Data Centre
#                                CCDC 
#
#######################################################################
#
# If this CIF has been generated from an entry in the Cambridge 
# Structural Database, then it will include bibliographic, chemical, 
# crystal, experimental, refinement or atomic coordinate data resulting 
# from the CCDC's data processing and validation procedures.
#
#######################################################################

data_QIXPES
_chemical_formula_moiety         
'C36 H60 N8 6+,O4 Se1 2-,4(Cl1 O4 1-),8.5(H2 O1)'
_chemical_name_systematic        
'4,12,18,26,31,39-Hexa-azonia-1,15-diazapentacyclo(13.13.13.1^6,10^.1^20,24^.1^33,37^)tetratetraconta-6(42),7,9,20(43),21,23,33(44),34,36-nonaene selenate(vi) clathrate tetraperchlorate hydrate'
_symmetry_cell_setting           monoclinic
_symmetry_space_group_name_H-M   'P 21/n'
_symmetry_Int_Tables_number      14
_space_group_name_Hall           '-P 2yn'
loop_
_symmetry_equiv_pos_site_id
_symmetry_equiv_pos_as_xyz
1 x,y,z
2 1/2+x,1/2-y,1/2+z
3 -x,-y,-z
4 1/2-x,1/2+y,1/2-z
_cell_length_a                   14.4758(10)
_cell_length_b                   13.9235(9)
_cell_length_c                   27.5511(18)
_cell_angle_alpha                90
_cell_angle_beta                 90.3820(10)
_cell_angle_gamma                90
_cell_volume                     5552.91
_exptl_crystal_colour            colorless
_exptl_crystal_description       'irregular block'
_cell_formula_units_Z            4
loop_
_atom_site_label
_atom_site_type_symbol
_atom_site_fract_x
_atom_site_fract_y
_atom_site_fract_z
N1 N 0.0976(3) -0.8502(4) 0.40570(18)
C1 C 0.0901(4) -0.9404(5) 0.4326(2)
H1 H 0.0242 -0.9525 0.4398
H2 H 0.1233 -0.9336 0.4640
C2 C 0.1281(4) -1.0250(4) 0.4061(2)
H3 H 0.1006 -1.0273 0.3731
H4 H 0.1102 -1.0845 0.4233
N2 N 0.2319(3) -1.0215(3) 0.40200(17)
H5 H 0.2485 -0.9696 0.3833
H6 H 0.2575 -1.0136 0.4324
C3 C 0.2684(4) -1.1111(4) 0.3797(2)
H7 H 0.2591 -1.1080 0.3441
H8 H 0.2328 -1.1666 0.3920
C4 C 0.3688(4) -1.1268(4) 0.3904(2)
C5 C 0.3951(5) -1.1557(5) 0.4371(3)
H9 H 0.3497 -1.1650 0.4614
C6 C 0.4870(5) -1.1706(6) 0.4479(3)
H10 H 0.5048 -1.1879 0.4800
C7 C 0.5541(5) -1.1606(5) 0.4124(3)
H11 H 0.6169 -1.1743 0.4198
C8 C 0.5293(4) -1.1308(4) 0.3662(2)
C9 C 0.4359(4) -1.1139(4) 0.3560(2)
H12 H 0.4184 -1.0930 0.3244
C10 C 0.6011(5) -1.1101(4) 0.3292(2)
H13 H 0.5746 -1.1169 0.2962
H14 H 0.6528 -1.1562 0.3326
N3 N 0.6357(3) -1.0089(3) 0.33681(17)
H15 H 0.5894 -0.9665 0.3288
H16 H 0.6498 -1.0004 0.3691
C11 C 0.7195(4) -0.9864(5) 0.3072(3)
H17 H 0.7668 -1.0367 0.3125
H18 H 0.7026 -0.9864 0.2723
C12 C 0.7584(4) -0.8915(6) 0.3206(3)
H19 H 0.8203 -0.8856 0.3059
H20 H 0.7666 -0.8895 0.3563
C13 C 0.0254(4) -0.8462(4) 0.3681(2)
H21 H -0.0341 -0.8296 0.3834
H22 H 0.0188 -0.9105 0.3531
C14 C 0.0460(4) -0.7739(4) 0.3289(2)
H23 H 0.0526 -0.7094 0.3436
H24 H -0.0062 -0.7717 0.3056
N4 N 0.1335(3) -0.7990(3) 0.30226(16)
H25 H 0.1840 -0.7832 0.3211
H26 H 0.1352 -0.8641 0.2965
C15 C 0.1374(4) -0.7454(4) 0.2548(2)
H27 H 0.0806 -0.7593 0.2359
H28 H 0.1387 -0.6756 0.2616
C16 C 0.2194(4) -0.7711(3) 0.22500(19)
C17 C 0.2103(4) -0.8279(4) 0.1840(2)
H29 H 0.1518 -0.8543 0.1757
C18 C 0.2859(4) -0.8464(4) 0.1551(2)
H30 H 0.2789 -0.8856 0.1271
C19 C 0.3711(4) -0.8087(4) 0.1663(2)
H31 H 0.4224 -0.8209 0.1459
C20 C 0.3819(3) -0.7525(3) 0.20776(19)
C21 C 0.3056(4) -0.7343(3) 0.23703(18)
H32 H 0.3127 -0.6963 0.2655
C22 C 0.4728(4) -0.7041(4) 0.2195(2)
H33 H 0.4929 -0.6664 0.1910
H34 H 0.4638 -0.6589 0.2468
N5 N 0.5472(3) -0.7741(3) 0.23285(17)
H35 H 0.5474 -0.8240 0.2110
H36 H 0.5358 -0.7990 0.2632
C23 C 0.6396(4) -0.7251(6) 0.2329(3)
H37 H 0.6363 -0.6656 0.2524
H38 H 0.6561 -0.7073 0.1992
C24 C 0.7139(4) -0.7914(6) 0.2540(3)
H39 H 0.7116 -0.8540 0.2370
H40 H 0.7755 -0.7627 0.2483
C25 C 0.0868(4) -0.7694(6) 0.4391(3)
H41 H 0.0397 -0.7856 0.4637
H42 H 0.0649 -0.7124 0.4209
C26 C 0.1765(7) -0.7464(8) 0.4640(5)
H43 H 0.1942 -0.7995 0.4861
N6 N 0.1663(7) -0.6612(8) 0.4905(5)
H45 H 0.1183 -0.6691 0.5119
H46 H 0.1499 -0.6130 0.4693
C27 C 0.2498(10) -0.6296(10) 0.5185(6)
H47 H 0.2309 -0.5835 0.5439
H48 H 0.2779 -0.6860 0.5348
C28 C 0.3185(6) -0.5844(6) 0.4872(4)
C29 C 0.3128(8) -0.4902(6) 0.4708(4)
H49 H 0.2595 -0.4528 0.4775
C30 C 0.3850(10) -0.4506(5) 0.4445(4)
H50 H 0.3811 -0.3862 0.4333
C31 C 0.4630(8) -0.5052(5) 0.4346(3)
H51 H 0.5124 -0.4782 0.4166
C32 C 0.4688(6) -0.5995(5) 0.4510(2)
C33 C 0.3965(6) -0.6390(4) 0.4773(3)
H52 H 0.4005 -0.7034 0.4885
C34 C 0.5524(6) -0.6432(7) 0.4436(3)
H53 H 0.5481 -0.7089 0.4571
H54 H 0.5989 -0.6083 0.4633
N7 N 0.5902(10) -0.6521(10) 0.3938(4)
H55 H 0.6041 -0.5916 0.3825
H56 H 0.5449 -0.6770 0.3738
C35 C 0.6760(15) -0.7147(16) 0.3896(6)
H57 H 0.7227 -0.6926 0.4135
H58 H 0.6595 -0.7818 0.3978
C36 C 0.7178(14) -0.7124(18) 0.3394(8)
H59 H 0.7851 -0.7019 0.3431
H60 H 0.6922 -0.6561 0.3220
N8 N 0.7020(3) -0.8070(4) 0.3055(2)
Se1 Se 0.42836(3) -0.83728(3) 0.354239(18)
O1 O 0.4801(3) -0.8980(3) 0.31071(13)
O2 O 0.3180(3) -0.8585(3) 0.35277(15)
O3 O 0.4732(3) -0.8665(3) 0.40687(13)
O4 O 0.4500(3) -0.7241(3) 0.34303(15)
Cl1 Cl 0.87084(11) -1.13162(15) 0.40425(6)
O5 O 0.9144(6) -1.0749(6) 0.3678(3)
O6 O 0.9199(11) -1.1118(15) 0.4453(4)
O7 O 0.7826(8) -1.0957(17) 0.4108(7)
O8 O 0.8689(18) -1.2207(8) 0.3886(6)
Cl3 Cl 0.9439(3) -0.52465(17) 0.32872(9)
O13 O 0.9167(4) -0.5778(4) 0.36985(19)
O14 O 0.9125(5) -0.4258(5) 0.3377(4)
O15 O 0.9165(6) -0.5653(9) 0.2884(3)
O16 O 1.0410(4) -0.5213(5) 0.3337(3)
Cl5 Cl -0.17737(16) -0.76223(19) 0.49415(9)
O18 O -0.2068(10) -0.8555(8) 0.4886(5)
O19 O -0.2604(9) -0.7153(12) 0.5020(7)
O20 O -0.1161(9) -0.7644(9) 0.5333(4)
O21 O -0.1319(4) -0.7307(7) 0.4557(2)
Cl7 Cl 0.55995(15) -0.44420(17) 0.28750(8)
O26 O 0.5533(9) -0.3638(7) 0.3094(4)
O27 O 0.5335(5) -0.4362(8) 0.2385(2)
O28 O 0.4842(8) -0.5057(7) 0.3066(4)
O29 O 0.6367(7) -0.4982(8) 0.2893(3)
O30 O 0.3471(3) -1.0017(3) 0.25491(14)
O31 O 0.3361(3) -0.9245(4) 0.47504(15)
O32 O 0.6355(3) -0.9544(4) 0.43779(16)
O33 O 0.1670(3) -0.9897(3) 0.28101(18)
O34 O 0.0239(6) -0.6331(6) 0.5576(3)
O35 O 0.0717(14) -0.5372(14) 0.4420(7)
O38 O 0.7110(8) -0.4879(8) 0.3945(5)
O39 O -0.1338(13) -0.5122(13) 0.4729(6)
O40 O 0.2670(7) -0.6383(6) 0.3507(3)
O41 O 0.3587(9) -0.5635(9) 0.3239(5)
H44? H 0.2259 -0.7386 0.4396
C37? C 0.1755(13) -0.7460(15) 0.4658(10)
H61? H 0.1573 -0.7186 0.4975
H62? H 0.2059 -0.8081 0.4728
N9? N 0.2338(10) -0.6946(11) 0.4502(5)
H63? H 0.2049 -0.6439 0.4350
H64? H 0.2652 -0.7281 0.4267
C38? C 0.3083(15) -0.6515(17) 0.4870(8)
H65? H 0.2761 -0.6156 0.5129
H66? H 0.3429 -0.7048 0.5024
C39? C 0.3720(7) -0.5886(7) 0.4631(4)
C40? C 0.3501(5) -0.4936(7) 0.4527(4)
H67? H 0.2909 -0.4690 0.4608
C41? C 0.4147(6) -0.4346(6) 0.4305(4)
H68? H 0.3997 -0.3696 0.4234
C42? C 0.5012(6) -0.4705(8) 0.4187(4)
H69? H 0.5454 -0.4302 0.4035
C43? C 0.5232(6) -0.5656(8) 0.4291(4)
C44? C 0.4586(8) -0.6246(6) 0.4513(5)
H70? H 0.4736 -0.6895 0.4584
C45? C 0.6186(15) -0.601(2) 0.4183(9)
H71? H 0.6611 -0.5454 0.4186
H72? H 0.6381 -0.6444 0.4450
N10? N 0.6297(9) -0.6508(11) 0.3735(6)
H73? H 0.6307 -0.6067 0.3486
H74? H 0.5795 -0.6902 0.3686
C46? C 0.7145(12) -0.7093(15) 0.3715(11)
H75? H 0.7634 -0.6757 0.3902
H76? H 0.7024 -0.7711 0.3880
C47? C 0.7501(10) -0.7300(14) 0.3234(8)
H77? H 0.7418 -0.6736 0.3019
H78? H 0.8169 -0.7452 0.3253
N11? N 0.7020(3) -0.8070(4) 0.3055(2)
Cl2? Cl 0.87084(11) -1.13162(15) 0.40425(6)
O9? O 0.878(2) -1.1571(17) 0.4530(4)
O10? O 0.8860(18) -1.0461(11) 0.3869(12)
O11? O 0.7825(8) -1.1646(14) 0.3868(6)
O12? O 0.9304(11) -1.2036(14) 0.3881(8)
Cl4? Cl 0.8913(6) -0.5056(5) 0.3412(3)
O17? O 0.7923(11) -0.5055(12) 0.3463(10)
Cl6? Cl -0.1379(3) -0.6818(3) 0.49611(18)
O22? O -0.1616(10) -0.5923(8) 0.4756(5)
O23? O -0.2077(13) -0.7121(9) 0.5278(6)
O24? O -0.0552(9) -0.6701(11) 0.5253(6)
O25? O -0.1319(4) -0.7307(7) 0.4557(2)
O36? O 0.1347(10) -0.5313(10) 0.4278(5)
O37? O 0.0855(10) -0.5067(10) 0.4240(5)
O42? O 0.1748(9) -0.5859(9) 0.3406(4)
O43? O -0.2075(10) -0.9319(13) 0.4795(6)
loop_
_geom_bond_atom_site_label_1
_geom_bond_atom_site_label_2
_geom_bond_site_symmetry_1
_geom_bond_site_symmetry_2
N1 C1 1_555 1_555
C1 H1 1_555 1_555
H2 C1 1_555 1_555
C2 C1 1_555 1_555
H3 C2 1_555 1_555
H4 C2 1_555 1_555
N2 C2 1_555 1_555
H5 N2 1_555 1_555
H6 N2 1_555 1_555
C3 N2 1_555 1_555
H7 C3 1_555 1_555
H8 C3 1_555 1_555
C4 C3 1_555 1_555
C5 C4 1_555 1_555
H9 C5 1_555 1_555
C6 C5 1_555 1_555
H10 C6 1_555 1_555
C7 C6 1_555 1_555
H11 C7 1_555 1_555
C8 C7 1_555 1_555
C9 C4 1_555 1_555
H12 C9 1_555 1_555
C10 C8 1_555 1_555
H13 C10 1_555 1_555
H14 C10 1_555 1_555
N3 C10 1_555 1_555
H15 N3 1_555 1_555
H16 N3 1_555 1_555
C11 N3 1_555 1_555
H17 C11 1_555 1_555
H18 C11 1_555 1_555
C12 C11 1_555 1_555
H19 C12 1_555 1_555
H20 C12 1_555 1_555
C13 N1 1_555 1_555
H21 C13 1_555 1_555
H22 C13 1_555 1_555
C14 C13 1_555 1_555
H23 C14 1_555 1_555
H24 C14 1_555 1_555
N4 C14 1_555 1_555
H25 N4 1_555 1_555
H26 N4 1_555 1_555
C15 N4 1_555 1_555
H27 C15 1_555 1_555
H28 C15 1_555 1_555
C16 C15 1_555 1_555
C17 C16 1_555 1_555
H29 C17 1_555 1_555
C18 C17 1_555 1_555
H30 C18 1_555 1_555
C19 C18 1_555 1_555
H31 C19 1_555 1_555
C20 C19 1_555 1_555
C21 C16 1_555 1_555
H32 C21 1_555 1_555
C22 C20 1_555 1_555
H33 C22 1_555 1_555
H34 C22 1_555 1_555
N5 C22 1_555 1_555
H35 N5 1_555 1_555
H36 N5 1_555 1_555
C23 N5 1_555 1_555
H37 C23 1_555 1_555
H38 C23 1_555 1_555
C24 C23 1_555 1_555
H39 C24 1_555 1_555
H40 C24 1_555 1_555
C25 N1 1_555 1_555
H41 C25 1_555 1_555
H42 C25 1_555 1_555
C26 C25 1_555 1_555
H43 C26 1_555 1_555
N6 C26 1_555 1_555
H45 N6 1_555 1_555
H46 N6 1_555 1_555
C27 N6 1_555 1_555
H47 C27 1_555 1_555
H48 C27 1_555 1_555
C28 C27 1_555 1_555
C29 C28 1_555 1_555
H49 C29 1_555 1_555
C30 C29 1_555 1_555
H50 C30 1_555 1_555
C31 C30 1_555 1_555
H51 C31 1_555 1_555
C32 C31 1_555 1_555
C33 C28 1_555 1_555
H52 C33 1_555 1_555
C34 C32 1_555 1_555
H53 C34 1_555 1_555
H54 C34 1_555 1_555
N7 C34 1_555 1_555
H55 N7 1_555 1_555
H56 N7 1_555 1_555
C35 N7 1_555 1_555
H57 C35 1_555 1_555
H58 C35 1_555 1_555
C36 C35 1_555 1_555
H59 C36 1_555 1_555
H60 C36 1_555 1_555
N8 C12 1_555 1_555
Se1 O1 1_555 1_555
O2 Se1 1_555 1_555
O3 Se1 1_555 1_555
O4 Se1 1_555 1_555
Cl1 O5 1_555 1_555
O6 Cl1 1_555 1_555
O7 Cl1 1_555 1_555
O8 Cl1 1_555 1_555
Cl3 O13 1_555 1_555
O14 Cl3 1_555 1_555
O15 Cl3 1_555 1_555
O16 Cl3 1_555 1_555
Cl5 O18 1_555 1_555
O19 Cl5 1_555 1_555
O20 Cl5 1_555 1_555
O21 Cl5 1_555 1_555
Cl7 O26 1_555 1_555
O27 Cl7 1_555 1_555
O28 Cl7 1_555 1_555
O29 Cl7 1_555 1_555
C8 C9 1_555 1_555
C20 C21 1_555 1_555
C24 N8 1_555 1_555
C32 C33 1_555 1_555
C36 N8 1_555 1_555

#END
