
#######################################################################
#
#                 Cambridge Crystallographic Data Centre
#                                CCDC 
#
#######################################################################
#
# If this CIF has been generated from an entry in the Cambridge 
# Structural Database, then it will include bibliographic, chemical, 
# crystal, experimental, refinement or atomic coordinate data resulting 
# from the CCDC's data processing and validation procedures.
#
#######################################################################

data_QIXQUK
_chemical_formula_moiety         'C20 H22 N4 O2 S2'
_chemical_name_systematic        
3,3'-Dibenzoyl-1,1'-(butane-1,4-diyl)dithiourea
_symmetry_cell_setting           monoclinic
_symmetry_space_group_name_H-M   'P 21/c'
_symmetry_Int_Tables_number      14
_space_group_name_Hall           '-P 2ybc'
loop_
_symmetry_equiv_pos_site_id
_symmetry_equiv_pos_as_xyz
1 x,y,z
2 -x,1/2+y,1/2-z
3 -x,-y,-z
4 x,1/2-y,1/2+z
_cell_length_a                   6.0405(11)
_cell_length_b                   23.358(2)
_cell_length_c                   7.2877(13)
_cell_angle_alpha                90
_cell_angle_beta                 104.018(2)
_cell_angle_gamma                90
_cell_volume                     997.629
_exptl_crystal_colour            colorless
_exptl_crystal_description       block
_cell_formula_units_Z            2
_exptl_crystal_recrystallization_method 'diethyl ether/DMF'
loop_
_atom_site_label
_atom_site_type_symbol
_atom_site_fract_x
_atom_site_fract_y
_atom_site_fract_z
N1 N 0.6333(4) 0.33193(10) 0.2464(3)
H1 H 0.4996 0.3174 0.2342
N2 N 0.8393(4) 0.41571(9) 0.2530(3)
H2 H 0.9588 0.3944 0.2747
O1 O 1.0080(4) 0.30751(8) 0.3060(3)
S1 S 0.39076(13) 0.42652(4) 0.19513(14)
C1 C 0.6387(5) 0.39150(12) 0.2345(4)
C2 C 0.8669(5) 0.47772(12) 0.2383(4)
H3 H 0.7351 0.4931 0.1482
H4 H 1.0004 0.4853 0.1902
C3 C 0.8930(4) 0.50817(12) 0.4263(4)
H5 H 0.8946 0.5491 0.4051
H6 H 0.7612 0.4996 0.4755
C4 C 0.8082(5) 0.29268(13) 0.2746(4)
C5 C 0.7380(5) 0.23119(12) 0.2626(4)
C6 C 0.5157(6) 0.21226(13) 0.1896(5)
H7 H 0.3997 0.2387 0.1462
C7 C 0.4663(6) 0.15458(15) 0.1811(5)
H8 H 0.3171 0.1425 0.1316
C8 C 0.6341(6) 0.11496(14) 0.2445(5)
H9 H 0.5993 0.0761 0.2394
C9 C 0.8531(6) 0.13299(14) 0.3154(5)
H10 H 0.9681 0.1062 0.3581
C10 C 0.9057(5) 0.19086(13) 0.3241(4)
H11 H 1.0558 0.2026 0.3720
N1B N 1.3667(4) 0.66807(10) 0.7536(3)
H1B H 1.5004 0.6826 0.7658
N2B N 1.1607(4) 0.58429(9) 0.7470(3)
H2B H 1.0412 0.6056 0.7253
O1B O 0.9920(4) 0.69249(8) 0.6940(3)
S1B S 1.60924(13) 0.57348(4) 0.80487(14)
C1B C 1.3613(5) 0.60850(12) 0.7655(4)
C2B C 1.1331(5) 0.52228(12) 0.7617(4)
H3B H 1.2649 0.5069 0.8518
H4B H 0.9996 0.5147 0.8098
C3B C 1.1070(4) 0.49183(12) 0.5737(4)
H5B H 1.1054 0.4509 0.5949
H6B H 1.2388 0.5004 0.5245
C4B C 1.1918(5) 0.70732(13) 0.7254(4)
C5B C 1.2620(5) 0.76881(12) 0.7374(4)
C6B C 1.4843(6) 0.78774(13) 0.8104(5)
H7B H 1.6003 0.7613 0.8538
C7B C 1.5337(6) 0.84542(15) 0.8189(5)
H8B H 1.6829 0.8575 0.8684
C8B C 1.3659(6) 0.88504(14) 0.7555(5)
H9B H 1.4007 0.9239 0.7606
C9B C 1.1469(6) 0.86701(14) 0.6846(5)
H10B H 1.0319 0.8938 0.6419
C10B C 1.0943(5) 0.80914(13) 0.6759(4)
H11B H 0.9442 0.7974 0.6280
loop_
_geom_bond_atom_site_label_1
_geom_bond_atom_site_label_2
_geom_bond_site_symmetry_1
_geom_bond_site_symmetry_2
N1 H1 1_555 1_555
N2 H2 1_555 1_555
O1 C4 1_555 1_555
S1 C1 1_555 1_555
C1 N1 1_555 1_555
C2 N2 1_555 1_555
H3 C2 1_555 1_555
H4 C2 1_555 1_555
C3 C2 1_555 1_555
H5 C3 1_555 1_555
H6 C3 1_555 1_555
C4 N1 1_555 1_555
C5 C4 1_555 1_555
C6 C5 1_555 1_555
H7 C6 1_555 1_555
C7 C6 1_555 1_555
H8 C7 1_555 1_555
C8 C7 1_555 1_555
H9 C8 1_555 1_555
C9 C8 1_555 1_555
H10 C9 1_555 1_555
C10 C5 1_555 1_555
H11 C10 1_555 1_555
N1B H1B 1_555 1_555
N2B H2B 1_555 1_555
O1B C4B 1_555 1_555
S1B C1B 1_555 1_555
C1B N1B 1_555 1_555
C2B N2B 1_555 1_555
H3B C2B 1_555 1_555
H4B C2B 1_555 1_555
C3B C3 1_555 1_555
H5B C3B 1_555 1_555
H6B C3B 1_555 1_555
C4B N1B 1_555 1_555
C5B C4B 1_555 1_555
C6B C5B 1_555 1_555
H7B C6B 1_555 1_555
C7B C6B 1_555 1_555
H8B C7B 1_555 1_555
C8B C7B 1_555 1_555
H9B C8B 1_555 1_555
C9B C8B 1_555 1_555
H10B C9B 1_555 1_555
C10B C5B 1_555 1_555
H11B C10B 1_555 1_555
N2 C1 1_555 1_555
C9 C10 1_555 1_555
N2B C1B 1_555 1_555
C2B C3B 1_555 1_555
C9B C10B 1_555 1_555

#END
