
#######################################################################
#
#                 Cambridge Crystallographic Data Centre
#                                CCDC 
#
#######################################################################
#
# If this CIF has been generated from an entry in the Cambridge 
# Structural Database, then it will include bibliographic, chemical, 
# crystal, experimental, refinement or atomic coordinate data resulting 
# from the CCDC's data processing and validation procedures.
#
#######################################################################

data_QIXROF
_chemical_formula_moiety         'C24 H32 N4 2+,2(Cl1 1-),3(H2 O1)'
_chemical_name_systematic        
"2,2'-(Decane-1,10-diyl)dibenzimidazolium dichloride trihydrate"
_symmetry_cell_setting           triclinic
_symmetry_space_group_name_H-M   'P -1'
_symmetry_Int_Tables_number      2
_space_group_name_Hall           '-P 1'
loop_
_symmetry_equiv_pos_site_id
_symmetry_equiv_pos_as_xyz
1 x,y,z
2 -x,-y,-z
_cell_length_a                   10.8482(6)
_cell_length_b                   11.5089(6)
_cell_length_c                   11.9503(6)
_cell_angle_alpha                77.619(2)
_cell_angle_beta                 71.501(2)
_cell_angle_gamma                76.030(2)
_cell_volume                     1357.58
_cell_formula_units_Z            2
loop_
_atom_site_label
_atom_site_type_symbol
_atom_site_fract_x
_atom_site_fract_y
_atom_site_fract_z
C1 C 0.85990(18) 0.84497(16) 0.38857(15)
C2 C 0.8746(2) 0.71973(18) 0.40598(19)
H1 H 0.9553 0.6692 0.4077
C3 C 0.7629(2) 0.6743(2) 0.42061(19)
H2 H 0.7684 0.5909 0.4333
C4 C 0.6421(2) 0.7500(2) 0.41690(17)
H3 H 0.5694 0.7154 0.4271
C5 C 0.6274(2) 0.87378(19) 0.39867(16)
H4 H 0.5470 0.9241 0.3957
C6 C 0.73961(17) 0.91981(16) 0.38489(15)
C7 C 0.88507(17) 1.03515(15) 0.36296(15)
C8 C 0.94598(18) 1.14055(16) 0.35372(17)
H5 H 1.0411 1.1136 0.3366
H6 H 0.9149 1.1685 0.4307
C9 C 0.91771(18) 1.24686(15) 0.25969(15)
H7 H 0.8229 1.2740 0.2745
H8 H 0.9527 1.2216 0.1814
C10 C 0.98074(18) 1.35049(16) 0.26228(16)
H9 H 0.9486 1.3719 0.3421
H10 H 1.0757 1.3229 0.2452
C11 C 0.95273(18) 1.46286(16) 0.17410(16)
H11 H 0.9907 1.5263 0.1852
H12 H 0.8578 1.4908 0.1914
C12 C 1.00747(16) 1.44268(15) 0.04447(15)
H13 H 1.1006 1.4064 0.0295
H14 H 0.9625 1.3856 0.0314
N1 N 0.94812(14) 0.92071(12) 0.37362(13)
H29 H 1.0302 0.8973 0.3716
N2 N 0.76021(14) 1.03763(13) 0.36834(13)
H30 H 0.7014 1.1021 0.3625
C1A C 1.14010(18) 2.15503(16) -0.38857(15)
C2A C 1.1254(2) 2.28027(18) -0.40598(19)
H1A H 1.0447 2.3308 -0.4077
C3A C 1.2371(2) 2.3257(2) -0.42061(19)
H2A H 1.2316 2.4091 -0.4333
C4A C 1.3579(2) 2.2500(2) -0.41690(17)
H3A H 1.4306 2.2846 -0.4271
C5A C 1.3726(2) 2.12622(19) -0.39867(16)
H4A H 1.4530 2.0759 -0.3957
C6A C 1.26039(17) 2.08019(16) -0.38489(15)
C7A C 1.11493(17) 1.96485(15) -0.36296(15)
C8A C 1.05402(18) 1.85945(16) -0.35372(17)
H5A H 0.9589 1.8864 -0.3366
H6A H 1.0851 1.8315 -0.4307
C9A C 1.08229(18) 1.75314(15) -0.25969(15)
H7A H 1.1771 1.7260 -0.2745
H8A H 1.0473 1.7784 -0.1814
C10A C 1.01926(18) 1.64951(16) -0.26228(16)
H9A H 1.0514 1.6281 -0.3421
H10A H 0.9243 1.6771 -0.2452
C11A C 1.04727(18) 1.53714(16) -0.17410(16)
H11A H 1.0093 1.4737 -0.1852
H12A H 1.1422 1.5092 -0.1914
C12A C 0.99253(16) 1.55732(15) -0.04447(15)
H13A H 0.8994 1.5936 -0.0295
H14A H 1.0375 1.6144 -0.0314
N1A N 1.05188(14) 2.07929(12) -0.37362(13)
H29A H 0.9698 2.1027 -0.3716
N2A N 1.23979(14) 1.96237(13) -0.36834(13)
H30A H 1.2986 1.8979 -0.3625
C13 C 0.33988(15) 0.50823(15) 0.99849(15)
C14 C 0.30500(17) 0.63244(16) 0.99960(18)
H15 H 0.3124 0.6877 0.9296
C15 C 0.25880(18) 0.66880(18) 1.11035(19)
H16 H 0.2338 0.7511 1.1153
C16 C 0.24830(17) 0.58603(18) 1.21557(18)
H17 H 0.2173 0.6149 1.2884
C17 C 0.28249(16) 0.46300(17) 1.21459(16)
H18 H 0.2755 0.4079 1.2847
C18 C 0.32806(15) 0.42575(15) 1.10314(15)
C19 C 0.40379(15) 0.32294(16) 0.94985(15)
C20 C 0.45559(17) 0.22221(17) 0.87775(17)
H19 H 0.5490 0.1945 0.8717
H20 H 0.4476 0.2531 0.7977
C21 C 0.38547(17) 0.11424(16) 0.92798(18)
H21 H 0.4315 0.0498 0.8807
H22 H 0.3914 0.0847 1.0088
C22 C 0.24080(16) 0.14227(15) 0.92967(17)
H23 H 0.1936 0.2048 0.9791
H24 H 0.2341 0.1735 0.8493
C23 C 0.17600(18) 0.03183(17) 0.97708(18)
H25 H 0.1780 0.0041 1.0592
H26 H 0.2275 -0.0324 0.9311
C24 C 0.03359(18) 0.05426(17) 0.97231(17)
H27 H -0.0167 0.1222 1.0136
H28 H 0.0322 0.0764 0.8896
N3 N 0.38745(13) 0.43990(13) 0.90558(12)
H31 H 0.4038 0.4689 0.8309
N4 N 0.36847(13) 0.31127(12) 1.06872(12)
H32 H 0.3704 0.2437 1.1165
C13A C -0.33988(15) -0.50823(15) 1.00151(15)
C14A C -0.30500(17) -0.63244(16) 1.00040(18)
H15A H -0.3124 -0.6877 1.0704
C15A C -0.25880(18) -0.66880(18) 0.88965(19)
H16A H -0.2338 -0.7511 0.8847
C16A C -0.24830(17) -0.58603(18) 0.78443(18)
H17A H -0.2173 -0.6149 0.7116
C17A C -0.28249(16) -0.46300(17) 0.78541(16)
H18A H -0.2755 -0.4079 0.7153
C18A C -0.32806(15) -0.42575(15) 0.89686(15)
C19A C -0.40379(15) -0.32294(16) 1.05015(15)
C20A C -0.45559(17) -0.22221(17) 1.12225(17)
H19A H -0.5490 -0.1945 1.1283
H20A H -0.4476 -0.2531 1.2023
C21A C -0.38547(17) -0.11424(16) 1.07202(18)
H21A H -0.4315 -0.0498 1.1193
H22A H -0.3914 -0.0847 0.9912
C22A C -0.24080(16) -0.14227(15) 1.07033(17)
H23A H -0.1936 -0.2048 1.0209
H24A H -0.2341 -0.1735 1.1507
C23A C -0.17600(18) -0.03183(17) 1.02292(18)
H25A H -0.1780 -0.0041 0.9408
H26A H -0.2275 0.0324 1.0689
C24A C -0.03359(18) -0.05426(17) 1.02769(17)
H27A H 0.0167 -0.1222 0.9864
H28A H -0.0322 -0.0764 1.1104
N3A N -0.38745(13) -0.43990(13) 1.09442(12)
H31A H -0.4038 -0.4689 1.1691
N4A N -0.36847(13) -0.31127(12) 0.93128(12)
H32A H -0.3704 -0.2437 0.8835
Cl1 Cl 0.31575(5) 0.64258(4) 0.47431(4)
Cl2 Cl 0.33989(5) 0.10332(4) 0.28068(4)
O1 O 0.54177(12) 0.46330(11) 0.33030(10)
H33 H 0.4740 0.5163 0.3665
H34 H 0.5916 0.4382 0.3818
O2 O 0.57185(12) 1.21753(11) 0.29475(12)
H35 H 0.5358 1.2940 0.3126
H36 H 0.5015 1.1847 0.2982
O3 O 0.21642(12) 0.87467(11) 0.31726(12)
H37 H 0.2632 0.9388 0.3078
H38 H 0.2541 0.8153 0.3704
loop_
_geom_bond_atom_site_label_1
_geom_bond_atom_site_label_2
_geom_bond_site_symmetry_1
_geom_bond_site_symmetry_2
C1 C2 1_555 1_555
C2 H1 1_555 1_555
C3 C2 1_555 1_555
H2 C3 1_555 1_555
C4 C3 1_555 1_555
H3 C4 1_555 1_555
C5 C4 1_555 1_555
H4 C5 1_555 1_555
C6 C1 1_555 1_555
C7 C8 1_555 1_555
C8 H5 1_555 1_555
H6 C8 1_555 1_555
C9 C8 1_555 1_555
H7 C9 1_555 1_555
H8 C9 1_555 1_555
C10 C9 1_555 1_555
H9 C10 1_555 1_555
H10 C10 1_555 1_555
C11 C10 1_555 1_555
H11 C11 1_555 1_555
H12 C11 1_555 1_555
C12 C11 1_555 1_555
H13 C12 1_555 1_555
H14 C12 1_555 1_555
C13 C14 1_555 1_555
C14 H15 1_555 1_555
C15 C14 1_555 1_555
H16 C15 1_555 1_555
C16 C15 1_555 1_555
H17 C16 1_555 1_555
C17 C16 1_555 1_555
H18 C17 1_555 1_555
C18 C13 1_555 1_555
C19 C20 1_555 1_555
C20 H19 1_555 1_555
H20 C20 1_555 1_555
C21 C20 1_555 1_555
H21 C21 1_555 1_555
H22 C21 1_555 1_555
C22 C21 1_555 1_555
H23 C22 1_555 1_555
H24 C22 1_555 1_555
C23 C22 1_555 1_555
H25 C23 1_555 1_555
H26 C23 1_555 1_555
C24 C23 1_555 1_555
H27 C24 1_555 1_555
H28 C24 1_555 1_555
N1 C1 1_555 1_555
H29 N1 1_555 1_555
N2 C6 1_555 1_555
H30 N2 1_555 1_555
N3 C13 1_555 1_555
H31 N3 1_555 1_555
N4 C18 1_555 1_555
H32 N4 1_555 1_555
O1 H33 1_555 1_555
H34 O1 1_555 1_555
O2 H35 1_555 1_555
H36 O2 1_555 1_555
O3 H37 1_555 1_555
H38 O3 1_555 1_555
C1A C2A 1_555 1_555
C2A H1A 1_555 1_555
C3A C2A 1_555 1_555
H2A C3A 1_555 1_555
C4A C3A 1_555 1_555
H3A C4A 1_555 1_555
C5A C4A 1_555 1_555
H4A C5A 1_555 1_555
C6A C1A 1_555 1_555
C7A C8A 1_555 1_555
C8A H5A 1_555 1_555
H6A C8A 1_555 1_555
C9A C8A 1_555 1_555
H7A C9A 1_555 1_555
H8A C9A 1_555 1_555
C10A C9A 1_555 1_555
H9A C10A 1_555 1_555
H10A C10A 1_555 1_555
C11A C10A 1_555 1_555
H11A C11A 1_555 1_555
H12A C11A 1_555 1_555
C12A C12 1_555 1_555
H13A C12A 1_555 1_555
H14A C12A 1_555 1_555
C13A C14A 1_555 1_555
C14A H15A 1_555 1_555
C15A C14A 1_555 1_555
H16A C15A 1_555 1_555
C16A C15A 1_555 1_555
H17A C16A 1_555 1_555
C17A C16A 1_555 1_555
H18A C17A 1_555 1_555
C18A C13A 1_555 1_555
C19A C20A 1_555 1_555
C20A H19A 1_555 1_555
H20A C20A 1_555 1_555
C21A C20A 1_555 1_555
H21A C21A 1_555 1_555
H22A C21A 1_555 1_555
C22A C21A 1_555 1_555
H23A C22A 1_555 1_555
H24A C22A 1_555 1_555
C23A C22A 1_555 1_555
H25A C23A 1_555 1_555
H26A C23A 1_555 1_555
C24A C24 1_555 1_555
H27A C24A 1_555 1_555
H28A C24A 1_555 1_555
N1A C1A 1_555 1_555
H29A N1A 1_555 1_555
N2A C6A 1_555 1_555
H30A N2A 1_555 1_555
N3A C13A 1_555 1_555
H31A N3A 1_555 1_555
N4A C18A 1_555 1_555
H32A N4A 1_555 1_555
C5 C6 1_555 1_555
C7 N1 1_555 1_555
C7 N2 1_555 1_555
C17 C18 1_555 1_555
C19 N3 1_555 1_555
C19 N4 1_555 1_555
C5A C6A 1_555 1_555
C7A N1A 1_555 1_555
C7A N2A 1_555 1_555
C11A C12A 1_555 1_555
C17A C18A 1_555 1_555
C19A N3A 1_555 1_555
C19A N4A 1_555 1_555
C23A C24A 1_555 1_555

#END
