
#######################################################################
#
#                 Cambridge Crystallographic Data Centre
#                                CCDC 
#
#######################################################################
#
# If this CIF has been generated from an entry in the Cambridge 
# Structural Database, then it will include bibliographic, chemical, 
# crystal, experimental, refinement or atomic coordinate data resulting 
# from the CCDC's data processing and validation procedures.
#
#######################################################################

data_QIXREV
_chemical_formula_moiety         'C4 H12 N2 2+,2(C6 H2 N3 O7 1-),C4 H10 N2'
_chemical_name_systematic        'Piperazine-1,4-diium picrate piperazine'
_symmetry_cell_setting           triclinic
_symmetry_space_group_name_H-M   'P -1'
_symmetry_Int_Tables_number      2
_space_group_name_Hall           '-P 1'
loop_
_symmetry_equiv_pos_site_id
_symmetry_equiv_pos_as_xyz
1 x,y,z
2 -x,-y,-z
_cell_length_a                   7.7150(6)
_cell_length_b                   8.1658(6)
_cell_length_c                   11.3024(8)
_cell_angle_alpha                98.1400(10)
_cell_angle_beta                 98.9740(10)
_cell_angle_gamma                109.2500(10)
_cell_volume                     649.623
_exptl_crystal_colour            yellow
_exptl_crystal_description       plate
_chemical_melting_point          '512-514 K'
_cell_formula_units_Z            1
loop_
_atom_site_label
_atom_site_type_symbol
_atom_site_fract_x
_atom_site_fract_y
_atom_site_fract_z
C1 C 0.1576(5) 0.8052(4) 0.9002(3)
C2 C 0.2353(5) 0.7965(5) 1.0152(3)
H1 H 0.2296 0.6883 1.0348
C3 C 0.3230(5) 0.9530(5) 1.1019(3)
C4 C 0.3317(5) 1.1141(5) 1.0738(3)
H2 H 0.3912 1.2181 1.1329
C5 C 0.2518(5) 1.1200(5) 0.9578(3)
C6 C 0.1526(5) 0.9660(5) 0.8609(3)
N1 N 0.0732(4) 0.6390(4) 0.8092(3)
N2 N 0.4143(5) 0.9504(4) 1.2226(3)
N3 N 0.2705(6) 1.2965(4) 0.9349(3)
O1 O 0.0655(4) 0.9638(4) 0.7581(2)
O2 O 0.1103(5) 0.6367(4) 0.7077(3)
O3 O -0.0265(5) 0.5088(4) 0.8379(3)
O4 O 0.4179(6) 0.8106(4) 1.2447(3)
O5 O 0.4870(5) 1.0892(4) 1.2985(3)
O6 O 0.3035(6) 1.4152(4) 1.0227(3)
O7 O 0.2583(6) 1.3203(4) 0.8304(3)
C7 C 0.1883(5) 1.0168(5) 0.4896(3)
H3 H 0.3073 1.0068 0.5226
H4 H 0.1971 1.0570 0.4132
C8 C 0.0332(5) 0.8378(5) 0.4654(3)
H5 H 0.0549 0.7561 0.4034
H6 H 0.0337 0.7912 0.5397
N4 N 0.1521(4) 1.1476(4) 0.5768(3)
H11 H 0.157(6) 1.118(5) 0.647(4)
H12 H 0.228(6) 1.255(6) 0.584(4)
C7A C -0.1883(5) 0.9832(5) 0.5104(3)
H3A H -0.3073 0.9932 0.4774
H4A H -0.1971 0.9430 0.5868
C8A C -0.0332(5) 1.1622(5) 0.5346(3)
H5A H -0.0549 1.2439 0.5966
H6A H -0.0337 1.2088 0.4603
N4A N -0.1521(4) 0.8524(4) 0.4232(3)
H11A H -0.157(6) 0.882(5) 0.353(4)
H12A H -0.228(6) 0.745(6) 0.416(4)
C9 C 0.3474(5) 1.5596(5) 0.4793(4)
H7 H 0.4124 1.6869 0.4938
H8 H 0.2133 1.5352 0.4581
C10 C 0.4060(5) 1.4701(5) 0.3753(3)
H9 H 0.3790 1.5152 0.3024
H10 H 0.3361 1.3434 0.3575
N5 N 0.3922(5) 1.4953(4) 0.5905(3)
H13 H 0.359(6) 1.548(5) 0.649(4)
C9A C 0.6526(5) 1.4404(5) 0.5207(4)
H7A H 0.5876 1.3131 0.5062
H8A H 0.7867 1.4648 0.5419
C10A C 0.5940(5) 1.5299(5) 0.6247(3)
H9A H 0.6210 1.4848 0.6976
H10A H 0.6639 1.6566 0.6425
N5A N 0.6078(5) 1.5047(4) 0.4095(3)
H13A H 0.641(6) 1.452(5) 0.351(4)
loop_
_geom_bond_atom_site_label_1
_geom_bond_atom_site_label_2
_geom_bond_site_symmetry_1
_geom_bond_site_symmetry_2
C1 C2 1_555 1_555
C2 H1 1_555 1_555
C3 C2 1_555 1_555
C4 C3 1_555 1_555
H2 C4 1_555 1_555
C5 C4 1_555 1_555
C6 C1 1_555 1_555
C7 H3 1_555 1_555
H4 C7 1_555 1_555
C8 C7 1_555 1_555
H5 C8 1_555 1_555
H6 C8 1_555 1_555
C9 H7 1_555 1_555
H8 C9 1_555 1_555
C10 C9 1_555 1_555
H9 C10 1_555 1_555
H10 C10 1_555 1_555
N1 C1 1_555 1_555
N2 C3 1_555 1_555
N3 C5 1_555 1_555
N4 C7 1_555 1_555
H11 N4 1_555 1_555
H12 N4 1_555 1_555
N5 C9 1_555 1_555
H13 N5 1_555 1_555
O1 C6 1_555 1_555
O2 N1 1_555 1_555
O3 N1 1_555 1_555
O4 N2 1_555 1_555
O5 N2 1_555 1_555
O6 N3 1_555 1_555
O7 N3 1_555 1_555
C7A H3A 1_555 1_555
H4A C7A 1_555 1_555
C8A N4 1_555 1_555
H5A C8A 1_555 1_555
H6A C8A 1_555 1_555
C9A H7A 1_555 1_555
H8A C9A 1_555 1_555
C10A N5 1_555 1_555
H9A C10A 1_555 1_555
H10A C10A 1_555 1_555
N4A C8 1_555 1_555
H11A N4A 1_555 1_555
H12A N4A 1_555 1_555
N5A C10 1_555 1_555
H13A N5A 1_555 1_555
C5 C6 1_555 1_555
C7A C8A 1_555 1_555
C7A N4A 1_555 1_555
C9A C10A 1_555 1_555
C9A N5A 1_555 1_555

#END
