
#######################################################################
#
#                 Cambridge Crystallographic Data Centre
#                                CCDC 
#
#######################################################################
#
# If this CIF has been generated from an entry in the Cambridge 
# Structural Database, then it will include bibliographic, chemical, 
# crystal, experimental, refinement or atomic coordinate data resulting 
# from the CCDC's data processing and validation procedures.
#
#######################################################################

data_QIXRUL
_chemical_formula_moiety         'C15 H12 Br2 O2'
_chemical_name_systematic        
2,10-Dibromo-6,6-dimethyl-dibenzo(d,f)(1,3)dioxepine
_symmetry_cell_setting           monoclinic
_symmetry_space_group_name_H-M   'P 21/n'
_symmetry_Int_Tables_number      14
_space_group_name_Hall           '-P 2yn'
loop_
_symmetry_equiv_pos_site_id
_symmetry_equiv_pos_as_xyz
1 x,y,z
2 1/2-x,1/2+y,1/2-z
3 -x,-y,-z
4 1/2+x,1/2-y,1/2+z
_cell_length_a                   10.8411(6)
_cell_length_b                   7.6902(3)
_cell_length_c                   16.7466(8)
_cell_angle_alpha                90
_cell_angle_beta                 99.824(2)
_cell_angle_gamma                90
_cell_volume                     1375.7
_exptl_crystal_colour            colorless
_exptl_crystal_description       block
_chemical_melting_point          135-136deg.C
_cell_formula_units_Z            4
loop_
_atom_site_label
_atom_site_type_symbol
_atom_site_fract_x
_atom_site_fract_y
_atom_site_fract_z
Br1 Br -0.13190(3) 1.13271(4) 0.551100(16)
Br2 Br 0.02801(3) 0.90894(4) 0.113680(17)
O1 O -0.48608(17) 0.8227(2) 0.26950(10)
O2 O -0.48163(17) 1.0765(2) 0.19110(10)
C1 C -0.4064(2) 0.8978(3) 0.33413(15)
C2 C -0.4324(3) 0.8807(4) 0.41171(16)
H1 H -0.517(3) 0.818(4) 0.4191(15)
C3 C -0.3488(3) 0.9462(4) 0.47662(17)
H2 H -0.366(2) 0.934(3) 0.5313(15)
C4 C -0.2416(3) 1.0286(4) 0.46293(15)
C5 C -0.2125(3) 1.0418(4) 0.38549(16)
H3 H -0.141(3) 1.095(3) 0.3764(15)
C6 C -0.2958(2) 0.9752(4) 0.31991(14)
C7 C -0.3664(3) 1.0282(4) 0.17273(15)
C8 C -0.2695(3) 0.9842(4) 0.23571(15)
C9 C -0.1513(3) 0.9486(4) 0.21778(15)
H4 H -0.079(2) 0.916(3) 0.2578(14)
C10 C -0.1328(3) 0.9579(4) 0.13793(16)
C11 C -0.2277(3) 1.0033(4) 0.07557(16)
H5 H -0.205(3) 1.003(4) 0.0153(17)
C12 C -0.3451(3) 1.0387(4) 0.09343(16)
H6 H -0.414(3) 1.068(4) 0.0543(16)
C13 C -0.5599(2) 0.9390(4) 0.21339(16)
C14 C -0.6584(3) 1.0279(5) 0.2514(2)
H7 H -0.705(3) 1.098(4) 0.2162(17)
H8 H -0.719(3) 0.937(4) 0.2672(17)
H9 H -0.624(3) 1.098(4) 0.3026(19)
C15 C -0.6126(3) 0.8284(5) 0.1414(2)
H10 H -0.676(3) 0.730(5) 0.1593(18)
H11 H -0.560(3) 0.785(4) 0.1221(15)
H12 H -0.677(3) 0.899(4) 0.1037(18)
loop_
_geom_bond_atom_site_label_1
_geom_bond_atom_site_label_2
_geom_bond_site_symmetry_1
_geom_bond_site_symmetry_2
Br1 C4 1_555 1_555
Br2 C10 1_555 1_555
O1 C1 1_555 1_555
O2 C7 1_555 1_555
C1 C2 1_555 1_555
C2 H1 1_555 1_555
C3 C2 1_555 1_555
H2 C3 1_555 1_555
C4 C3 1_555 1_555
C5 C4 1_555 1_555
H3 C5 1_555 1_555
C6 C1 1_555 1_555
C7 C8 1_555 1_555
C8 C6 1_555 1_555
C9 C8 1_555 1_555
H4 C9 1_555 1_555
C10 C9 1_555 1_555
C11 C10 1_555 1_555
H5 C11 1_555 1_555
C12 C7 1_555 1_555
H6 C12 1_555 1_555
C13 O1 1_555 1_555
C14 C13 1_555 1_555
H7 C14 1_555 1_555
H8 C14 1_555 1_555
H9 C14 1_555 1_555
C15 C13 1_555 1_555
H10 C15 1_555 1_555
H11 C15 1_555 1_555
H12 C15 1_555 1_555
O2 C13 1_555 1_555
C5 C6 1_555 1_555
C11 C12 1_555 1_555

#END
