
#######################################################################
#
#                 Cambridge Crystallographic Data Centre
#                                CCDC 
#
#######################################################################
#
# If this CIF has been generated from an entry in the Cambridge 
# Structural Database, then it will include bibliographic, chemical, 
# crystal, experimental, refinement or atomic coordinate data resulting 
# from the CCDC's data processing and validation procedures.
#
#######################################################################

data_QIXTUN
_chemical_formula_moiety         'C48 H46 N2'
_chemical_name_systematic        
2,13-bis(4-butylphenyl)-2,13-diazapentacyclo[18.2.2.2^3,6^.2^9,12^.2^14,17^]triaconta-1(22),3,5,7,9,11,14,16,18,20,23,25,27,29-tetradecaene
_symmetry_cell_setting           triclinic
_symmetry_space_group_name_H-M   'P -1'
_symmetry_Int_Tables_number      2
_space_group_name_Hall           '-P 1'
loop_
_symmetry_equiv_pos_site_id
_symmetry_equiv_pos_as_xyz
1 x,y,z
2 -x,-y,-z
_cell_length_a                   10.514(2)
_cell_length_b                   11.309(3)
_cell_length_c                   16.393(5)
_cell_angle_alpha                83.502(14)
_cell_angle_beta                 78.733(16)
_cell_angle_gamma                69.532(13)
_cell_volume                     1788.79
_exptl_crystal_colour            yellow
_exptl_crystal_description       block
_chemical_melting_point          '280-281 deg.C'
_cell_formula_units_Z            2
_exptl_crystal_recrystallization_method dichloromethane
loop_
_atom_site_label
_atom_site_type_symbol
_atom_site_fract_x
_atom_site_fract_y
_atom_site_fract_z
N1 N 1.12528(16) -0.12295(16) 0.80648(11)
N2 N 0.89448(16) 0.39726(16) 0.44942(11)
C1 C 1.20554(19) -0.1223(2) 0.72547(13)
C2 C 1.1952(2) -0.0069(2) 0.68102(13)
H1 H 1.1397 0.0697 0.7068
C3 C 1.26387(19) -0.0022(2) 0.60052(13)
H2 H 1.2542 0.0776 0.5720
C4 C 1.34771(19) -0.1126(2) 0.55984(13)
C5 C 1.3621(2) -0.2266(2) 0.60578(14)
H3 H 1.4218 -0.3028 0.5810
C6 C 1.2923(2) -0.2328(2) 0.68679(13)
H4 H 1.3036 -0.3125 0.7158
C7 C 1.4226(2) -0.1122(2) 0.47392(14)
H5 H 1.5044 -0.1825 0.4613
C8 C 1.3913(2) -0.0267(2) 0.41146(14)
H6 H 1.4564 -0.0378 0.3613
C9 C 1.2635(2) 0.0841(2) 0.41374(12)
C10 C 1.1350(2) 0.0670(2) 0.43281(13)
H7 H 1.1306 -0.0161 0.4398
C11 C 1.0142(2) 0.1701(2) 0.44155(13)
H8 H 0.9277 0.1572 0.4536
C12 C 1.0191(2) 0.2921(2) 0.43282(13)
C13 C 1.1456(2) 0.3107(2) 0.40923(13)
H9 H 1.1495 0.3939 0.3998
C14 C 1.2662(2) 0.2070(2) 0.39950(13)
H10 H 1.3522 0.2202 0.3828
C15 C 0.9919(2) -0.02609(19) 0.82028(13)
C16 C 0.9548(2) 0.0531(2) 0.88614(13)
H11 H 1.0146 0.0392 0.9255
C17 C 0.8306(2) 0.1525(2) 0.89450(13)
H12 H 0.8045 0.2045 0.9407
C18 C 0.7436(2) 0.1770(2) 0.83581(13)
C19 C 0.7794(2) 0.0922(2) 0.77230(14)
H13 H 0.7188 0.1041 0.7338
C20 C 0.9013(2) -0.0082(2) 0.76497(13)
H14 H 0.9234 -0.0653 0.7220
C21 C 0.6175(2) 0.2911(2) 0.83847(14)
H15 H 0.5565 0.3061 0.8902
C22 C 0.5817(2) 0.3741(2) 0.77548(14)
H16 H 0.4926 0.4361 0.7855
C23 C 0.6634(2) 0.38188(19) 0.69182(13)
C24 C 0.5971(2) 0.4325(2) 0.62356(14)
H17 H 0.4993 0.4622 0.6317
C25 C 0.6705(2) 0.4407(2) 0.54367(14)
H18 H 0.6225 0.4759 0.4984
C26 C 0.8141(2) 0.39730(19) 0.52994(13)
C27 C 0.8813(2) 0.35117(19) 0.59852(13)
H19 H 0.9789 0.3246 0.5908
C28 C 0.8075(2) 0.3437(2) 0.67737(14)
H20 H 0.8557 0.3119 0.7229
C29 C 1.1584(2) -0.2255(2) 0.86515(13)
C30 C 1.2953(2) -0.2938(2) 0.87301(14)
H21 H 1.3671 -0.2679 0.8404
C31 C 1.3276(2) -0.3983(2) 0.92759(14)
H22 H 1.4216 -0.4434 0.9309
C32 C 1.2266(2) -0.4394(2) 0.97777(13)
C33 C 1.0898(2) -0.3668(2) 0.97271(13)
H23 H 1.0181 -0.3892 1.0084
C34 C 1.0555(2) -0.2631(2) 0.91729(13)
H24 H 0.9615 -0.2171 0.9147
C35 C 1.2628(2) -0.5545(2) 1.03647(13)
H25 H 1.3638 -0.5970 1.0262
H26 H 1.2202 -0.6142 1.0237
C36 C 1.2166(2) -0.5262(2) 1.12789(14)
H27 H 1.1190 -0.5089 1.1415
H28 H 1.2343 -0.4513 1.1368
C37 C 1.2874(4) -0.6337(3) 1.1872(2)
H31 H 1.3884 -0.6533 1.1732
H32 H 1.2575 -0.6058 1.2451
C38 C 1.2534(3) -0.7521(3) 1.18169(19)
H33 H 1.3009 -0.8188 1.2198
H34 H 1.2836 -0.7804 1.1246
H35 H 1.1538 -0.7336 1.1971
C41 C 0.84796(19) 0.4828(2) 0.38257(13)
C42 C 0.8799(2) 0.4406(2) 0.30211(14)
H41 H 0.9309 0.3542 0.2925
C43 C 0.8379(2) 0.5236(2) 0.23574(14)
H42 H 0.8608 0.4925 0.1814
C44 C 0.7632(2) 0.6511(2) 0.24647(14)
C45 C 0.7320(2) 0.6921(2) 0.32724(14)
H43 H 0.6810 0.7785 0.3367
C46 C 0.7731(2) 0.6105(2) 0.39442(13)
H44 H 0.7503 0.6417 0.4487
C47 C 0.7194(3) 0.7375(2) 0.17315(17)
H45 H 0.6235 0.7850 0.1888
H46 H 0.7258 0.6840 0.1300
C48 C 0.7826(5) 0.8222(5) 0.1362(3)
H49 H 0.8797 0.7742 0.1141
H50 H 0.7832 0.8759 0.1797
C49 C 0.7189(6) 0.9090(6) 0.0654(4)
H51 H 0.7872 0.9457 0.0330
H52 H 0.6992 0.8575 0.0277
C50 C 0.5867(7) 1.0163(6) 0.0945(5)
H53 H 0.5517 1.0670 0.0459
H54 H 0.6057 1.0697 0.1302
H55 H 0.5177 0.9810 0.1258
H29? H 1.1240 -0.4678 1.1356
H30? H 1.2744 -0.4868 1.1444
C39? C 1.2181(13) -0.6454(12) 1.1840(7)
H36? H 1.1704 -0.6211 1.2410
H37? H 1.1691 -0.6920 1.1620
C40? C 1.3668(13) -0.7297(13) 1.1863(10)
H38? H 1.3680 -0.8059 1.2216
H39? H 1.4145 -0.6836 1.2090
H40? H 1.4135 -0.7537 1.1297
H47? H 0.6790 0.6955 0.1432
H48? H 0.8003 0.7449 0.1371
C51? C 0.6216(4) 0.8630(4) 0.1855(3)
H56? H 0.6638 0.9132 0.2101
H57? H 0.5401 0.8576 0.2257
C52? C 0.5745(5) 0.9319(6) 0.1047(3)
H58? H 0.5539 0.8732 0.0730
H59? H 0.4883 1.0036 0.1190
C53? C 0.6798(7) 0.9806(7) 0.0505(4)
H60? H 0.6442 1.0238 0.0002
H61? H 0.7646 0.9098 0.0348
H62? H 0.6994 1.0401 0.0811
loop_
_geom_bond_atom_site_label_1
_geom_bond_atom_site_label_2
_geom_bond_site_symmetry_1
_geom_bond_site_symmetry_2
N1 C1 1_555 1_555
N2 C12 1_555 1_555
C1 C2 1_555 1_555
C2 H1 1_555 1_555
C3 C2 1_555 1_555
H2 C3 1_555 1_555
C4 C3 1_555 1_555
C5 C4 1_555 1_555
H3 C5 1_555 1_555
C6 C1 1_555 1_555
H4 C6 1_555 1_555
C7 C4 1_555 1_555
H5 C7 1_555 1_555
C8 C7 1_555 1_555
H6 C8 1_555 1_555
C9 C8 1_555 1_555
C10 C9 1_555 1_555
H7 C10 1_555 1_555
C11 C10 1_555 1_555
H8 C11 1_555 1_555
C12 C11 1_555 1_555
C13 C12 1_555 1_555
H9 C13 1_555 1_555
C14 C9 1_555 1_555
H10 C14 1_555 1_555
C15 N1 1_555 1_555
C16 C15 1_555 1_555
H11 C16 1_555 1_555
C17 C16 1_555 1_555
H12 C17 1_555 1_555
C18 C17 1_555 1_555
C19 C18 1_555 1_555
H13 C19 1_555 1_555
C20 C15 1_555 1_555
H14 C20 1_555 1_555
C21 C18 1_555 1_555
H15 C21 1_555 1_555
C22 C21 1_555 1_555
H16 C22 1_555 1_555
C23 C22 1_555 1_555
C24 C23 1_555 1_555
H17 C24 1_555 1_555
C25 C24 1_555 1_555
H18 C25 1_555 1_555
C26 N2 1_555 1_555
C27 C26 1_555 1_555
H19 C27 1_555 1_555
C28 C23 1_555 1_555
H20 C28 1_555 1_555
C29 N1 1_555 1_555
C30 C29 1_555 1_555
H21 C30 1_555 1_555
C31 C30 1_555 1_555
H22 C31 1_555 1_555
C32 C31 1_555 1_555
C33 C32 1_555 1_555
H23 C33 1_555 1_555
C34 C29 1_555 1_555
H24 C34 1_555 1_555
C35 C32 1_555 1_555
H25 C35 1_555 1_555
H26 C35 1_555 1_555
C36 C35 1_555 1_555
H27 C36 1_555 1_555
H28 C36 1_555 1_555
C37 C36 1_555 1_555
H31 C37 1_555 1_555
H32 C37 1_555 1_555
C38 C37 1_555 1_555
H33 C38 1_555 1_555
H34 C38 1_555 1_555
H35 C38 1_555 1_555
C41 N2 1_555 1_555
C42 C41 1_555 1_555
H41 C42 1_555 1_555
C43 C42 1_555 1_555
H42 C43 1_555 1_555
C44 C43 1_555 1_555
C45 C44 1_555 1_555
H43 C45 1_555 1_555
C46 C41 1_555 1_555
H44 C46 1_555 1_555
C47 C44 1_555 1_555
H45 C47 1_555 1_555
H46 C47 1_555 1_555
C48 C47 1_555 1_555
H49 C48 1_555 1_555
H50 C48 1_555 1_555
C49 C48 1_555 1_555
H51 C49 1_555 1_555
H52 C49 1_555 1_555
C50 C49 1_555 1_555
H53 C50 1_555 1_555
H54 C50 1_555 1_555
H55 C50 1_555 1_555
C5 C6 1_555 1_555
C13 C14 1_555 1_555
C19 C20 1_555 1_555
C25 C26 1_555 1_555
C27 C28 1_555 1_555
C33 C34 1_555 1_555
C45 C46 1_555 1_555

#END
