
#######################################################################
#
#                 Cambridge Crystallographic Data Centre
#                                CCDC 
#
#######################################################################
#
# If this CIF has been generated from an entry in the Cambridge 
# Structural Database, then it will include bibliographic, chemical, 
# crystal, experimental, refinement or atomic coordinate data resulting 
# from the CCDC's data processing and validation procedures.
#
#######################################################################

data_QIXTOH
_chemical_formula_moiety         'C27 H18 F6 N4 O6 S2'
_chemical_name_systematic        
1,2-bis(5-ethoxy-2-(4-nitrophenyl)thiazol-4-yl)perfluorocyclopentene
_symmetry_cell_setting           monoclinic
_symmetry_space_group_name_H-M   'P 21/c'
_symmetry_Int_Tables_number      14
_space_group_name_Hall           '-P 2ybc'
loop_
_symmetry_equiv_pos_site_id
_symmetry_equiv_pos_as_xyz
1 x,y,z
2 -x,1/2+y,1/2-z
3 -x,-y,-z
4 x,1/2-y,1/2+z
_cell_length_a                   16.5004(7)
_cell_length_b                   11.8425(5)
_cell_length_c                   14.1320(7)
_cell_angle_alpha                90
_cell_angle_beta                 98.387(2)
_cell_angle_gamma                90
_cell_volume                     2731.94
_exptl_crystal_colour            colorless
_exptl_crystal_description       plate
_cell_formula_units_Z            4
_exptl_crystal_preparation       fluorescent
loop_
_atom_site_label
_atom_site_type_symbol
_atom_site_fract_x
_atom_site_fract_y
_atom_site_fract_z
F1 F 0.12428(11) -0.02240(15) 0.29701(16)
F2 F 0.23542(14) -0.04043(15) 0.39949(12)
S1 S 0.20108(4) 0.38809(5) 0.44088(4)
S2 S 0.31307(4) 0.38706(5) 0.06938(4)
F3 F 0.18587(11) -0.10191(16) 0.16042(13)
O1 O 0.18944(11) 0.32113(15) 0.16341(13)
F4 F 0.31834(12) -0.02904(14) 0.11112(12)
O2 O 0.32484(11) 0.32311(15) 0.34662(13)
F5 F 0.27187(12) -0.17996(14) 0.27232(14)
N1 N 0.38324(14) 0.20111(18) 0.13203(15)
F6 F 0.38431(10) -0.03142(14) 0.25510(14)
N2 N 0.13223(14) 0.20074(18) 0.38032(15)
O3 O 0.64112(14) 0.37912(18) -0.21557(15)
O4 O 0.72812(12) 0.32932(18) -0.09300(15)
O5 O -0.21787(13) 0.33739(18) 0.59040(17)
C1 C 0.25115(16) 0.3012(2) 0.36989(18)
C2 C 0.46312(17) 0.3083(2) 0.02796(18)
C3 C 0.26316(16) 0.3010(2) 0.14066(17)
O6 O -0.13345(15) 0.3682(2) 0.72045(17)
C4 C 0.51523(17) 0.3820(2) -0.11064(19)
H1 H 0.5077 0.4215 -0.1681
C5 C 0.20516(16) 0.2055(2) 0.34353(17)
C6 C 0.23081(16) 0.1125(2) 0.28845(18)
N3 N 0.65790(14) 0.34772(19) -0.13235(17)
C7 C 0.12178(16) 0.2895(2) 0.43180(18)
C8 C 0.05131(17) 0.3076(2) 0.48197(19)
C9 C 0.39366(16) 0.2890(2) 0.08005(18)
C10 C 0.30976(16) 0.2059(2) 0.16788(17)
C11 C -0.08998(17) 0.2714(2) 0.4976(2)
H2 H -0.1406 0.2395 0.4748
C12 C 0.59046(16) 0.3345(2) -0.07567(19)
C13 C 0.60503(17) 0.2766(2) 0.0106(2)
H3 H 0.6567 0.2476 0.0330
C14 C -0.00544(18) 0.3849(2) 0.6169(2)
H4 H 0.0001 0.4264 0.6733
C15 C 0.28310(16) 0.1123(2) 0.22149(18)
C16 C 0.44785(17) 0.4298(2) 0.3498(2)
H5 H 0.4766 0.4971 0.3729
H6 H 0.4405 0.4291 0.2812
H7 H 0.4790 0.3647 0.3739
C17 C 0.54028(17) 0.2631(2) 0.06245(19)
H8 H 0.5482 0.2239 0.1201
C18 C -0.02409(17) 0.2578(2) 0.44835(19)
H9 H -0.0300 0.2151 0.3925
C19 C 0.30912(17) -0.0067(2) 0.20263(19)
N4 N -0.14849(15) 0.3467(2) 0.63494(18)
C20 C 0.05973(17) 0.3728(2) 0.56618(19)
H10 H 0.1094 0.4079 0.5879
C21 C 0.20553(17) -0.0070(2) 0.30896(18)
C22 C 0.45221(17) 0.3691(2) -0.05807(19)
H11 H 0.4015 0.4013 -0.0798
C23 C 0.14778(17) 0.4245(2) 0.12668(19)
H12 H 0.1417 0.4260 0.0574
H13 H 0.1790 0.4903 0.1513
C24 C 0.06484(17) 0.4244(2) 0.1597(2)
H14 H 0.0353 0.4912 0.1369
H15 H 0.0717 0.4230 0.2283
H16 H 0.0347 0.3589 0.1350
C25 C -0.07904(17) 0.3336(2) 0.5816(2)
C26 C 0.36571(17) 0.4272(2) 0.38348(19)
H17 H 0.3723 0.4282 0.4528
H18 H 0.3336 0.4925 0.3595
C27 C 0.24449(17) -0.0816(2) 0.2378(2)
loop_
_geom_bond_atom_site_label_1
_geom_bond_atom_site_label_2
_geom_bond_site_symmetry_1
_geom_bond_site_symmetry_2
F1 C21 1_555 1_555
F2 C21 1_555 1_555
S1 C1 1_555 1_555
S2 C3 1_555 1_555
F3 C27 1_555 1_555
O1 C3 1_555 1_555
F4 C19 1_555 1_555
O2 C1 1_555 1_555
F5 C27 1_555 1_555
N1 C9 1_555 1_555
F6 C19 1_555 1_555
N2 C5 1_555 1_555
O3 N3 1_555 1_555
O4 N3 1_555 1_555
O5 N4 1_555 1_555
C1 C5 1_555 1_555
C2 C9 1_555 1_555
C3 C10 1_555 1_555
O6 N4 1_555 1_555
C4 H1 1_555 1_555
C5 C6 1_555 1_555
C6 C15 1_555 1_555
N3 C12 1_555 1_555
C7 S1 1_555 1_555
C8 C7 1_555 1_555
C9 S2 1_555 1_555
C10 N1 1_555 1_555
C11 H2 1_555 1_555
C12 C4 1_555 1_555
C13 C12 1_555 1_555
H3 C13 1_555 1_555
C14 H4 1_555 1_555
C15 C10 1_555 1_555
C16 H5 1_555 1_555
H6 C16 1_555 1_555
H7 C16 1_555 1_555
C17 C2 1_555 1_555
H8 C17 1_555 1_555
C18 C8 1_555 1_555
H9 C18 1_555 1_555
C19 C15 1_555 1_555
N4 C25 1_555 1_555
C20 C8 1_555 1_555
H10 C20 1_555 1_555
C21 C6 1_555 1_555
C22 C2 1_555 1_555
H11 C22 1_555 1_555
C23 O1 1_555 1_555
H12 C23 1_555 1_555
H13 C23 1_555 1_555
C24 C23 1_555 1_555
H14 C24 1_555 1_555
H15 C24 1_555 1_555
H16 C24 1_555 1_555
C25 C11 1_555 1_555
C26 O2 1_555 1_555
H17 C26 1_555 1_555
H18 C26 1_555 1_555
C27 C19 1_555 1_555
N2 C7 1_555 1_555
C4 C22 1_555 1_555
C11 C18 1_555 1_555
C13 C17 1_555 1_555
C14 C20 1_555 1_555
C14 C25 1_555 1_555
C16 C26 1_555 1_555
C21 C27 1_555 1_555

#END
