
#######################################################################
#
#                 Cambridge Crystallographic Data Centre
#                                CCDC 
#
#######################################################################
#
# If this CIF has been generated from an entry in the Cambridge 
# Structural Database, then it will include bibliographic, chemical, 
# crystal, experimental, refinement or atomic coordinate data resulting 
# from the CCDC's data processing and validation procedures.
#
#######################################################################

data_QIXTAT
_chemical_formula_moiety         'C25 H16 F6 N4 O3 S2'
_chemical_name_systematic        
1-(5-ethoxy-2-(4-nitrophenyl)thiazol-4-yl)-2-(4-methyl-2-(2-pyridyl)thiazol-4-yl)perfluorocyclopentene
_symmetry_cell_setting           monoclinic
_symmetry_space_group_name_H-M   'P 21/c'
_symmetry_Int_Tables_number      14
_space_group_name_Hall           '-P 2ybc'
loop_
_symmetry_equiv_pos_site_id
_symmetry_equiv_pos_as_xyz
1 x,y,z
2 -x,1/2+y,1/2-z
3 -x,-y,-z
4 x,1/2-y,1/2+z
_cell_length_a                   7.9782(7)
_cell_length_b                   12.8551(10)
_cell_length_c                   23.714(2)
_cell_angle_alpha                90
_cell_angle_beta                 92.789(4)
_cell_angle_gamma                90
_cell_volume                     2429.24
_exptl_crystal_colour            colorless
_exptl_crystal_description       plate
_cell_formula_units_Z            4
_exptl_crystal_preparation       fluorescent
loop_
_atom_site_label
_atom_site_type_symbol
_atom_site_fract_x
_atom_site_fract_y
_atom_site_fract_z
C1 C -0.1393(3) 0.20403(17) 0.24419(9)
H1 H -0.1841 0.1737 0.2772
H2 H -0.1482 0.1551 0.2136
H3 H -0.2013 0.2658 0.2340
S1 S 0.34442(6) 0.29201(4) 0.25066(2)
S2 S -0.04469(6) -0.05011(4) 0.11079(2)
F1 F 0.01222(16) 0.29855(9) 0.01709(5)
F2 F -0.17744(15) 0.36256(10) 0.07026(5)
F3 F 0.02348(16) 0.51874(9) 0.06695(5)
F4 F 0.24025(15) 0.42057(10) 0.05474(5)
O1 O 0.15635(18) 0.06326(11) 0.18221(6)
F5 F 0.29752(17) 0.45281(11) 0.15985(6)
F6 F 0.03715(18) 0.48631(10) 0.17446(5)
N1 N -0.1236(2) 0.12483(13) 0.06388(7)
C2 C 0.0429(2) 0.06254(15) 0.13930(8)
N2 N 0.1142(2) 0.20970(13) 0.30847(7)
O2 O -0.5353(2) -0.24252(13) -0.13207(7)
N3 N -0.5258(2) -0.14735(15) -0.12820(8)
C3 C -0.1483(2) 0.02537(15) 0.05885(8)
O3 O -0.5906(2) -0.08629(14) -0.16233(7)
C4 C 0.0308(2) 0.25756(15) 0.11709(8)
C5 C -0.2474(2) -0.02141(16) 0.01181(8)
C6 C 0.2730(2) 0.23565(15) 0.31075(8)
C7 C -0.4078(2) 0.00298(17) -0.07629(9)
H4 H -0.4537 0.0462 -0.1044
C8 C -0.3157(2) 0.04340(16) -0.03065(9)
H5 H -0.2988 0.1149 -0.0281
C9 C -0.4300(2) -0.10392(17) -0.07901(9)
C10 C 0.1948(3) -0.03666(16) 0.20901(9)
H6 H 0.2449 -0.0832 0.1824
H7 H 0.0929 -0.0686 0.2216
C11 C 0.3914(3) 0.21082(16) 0.35809(8)
C12 C 0.1468(2) 0.27615(15) 0.21911(8)
C13 C -0.0156(2) 0.14885(15) 0.10941(8)
N4 N 0.5478(2) 0.24759(14) 0.35432(8)
C14 C -0.3654(3) -0.17033(17) -0.03796(9)
H8 H -0.3829 -0.2417 -0.0408
C15 C 0.0410(2) 0.23137(15) 0.25621(8)
C16 C 0.1072(2) 0.30958(15) 0.16113(8)
C17 C 0.4612(3) 0.12022(18) 0.44341(9)
H9 H 0.4326 0.0778 0.4732
C18 C 0.3424(3) 0.14719(17) 0.40165(9)
H10 H 0.2325 0.1234 0.4027
C19 C 0.1386(3) 0.42157(16) 0.14657(9)
C20 C -0.2736(3) -0.12862(17) 0.00777(9)
H11 H -0.2292 -0.1723 0.0359
C21 C -0.0134(2) 0.33350(16) 0.06979(8)
C22 C 0.6228(3) 0.15706(18) 0.44031(9)
H12 H 0.7048 0.1402 0.4680
C23 C 0.0973(3) 0.42898(16) 0.08296(9)
C24 C 0.6605(3) 0.21970(18) 0.39514(9)
H13 H 0.7700 0.2437 0.3931
C25 C 0.3152(3) -0.01714(18) 0.25857(9)
H14 H 0.3427 -0.0819 0.2769
H15 H 0.2642 0.0287 0.2847
H16 H 0.4156 0.0143 0.2457
loop_
_geom_bond_atom_site_label_1
_geom_bond_atom_site_label_2
_geom_bond_site_symmetry_1
_geom_bond_site_symmetry_2
C1 H1 1_555 1_555
H2 C1 1_555 1_555
H3 C1 1_555 1_555
S1 C6 1_555 1_555
S2 C2 1_555 1_555
F1 C21 1_555 1_555
F2 C21 1_555 1_555
F3 C23 1_555 1_555
F4 C23 1_555 1_555
O1 C2 1_555 1_555
F5 C19 1_555 1_555
F6 C19 1_555 1_555
N1 C3 1_555 1_555
C2 C13 1_555 1_555
N2 C6 1_555 1_555
O2 N3 1_555 1_555
N3 O3 1_555 1_555
C3 S2 1_555 1_555
C4 C13 1_555 1_555
C5 C3 1_555 1_555
C6 C11 1_555 1_555
C7 H4 1_555 1_555
C8 C5 1_555 1_555
H5 C8 1_555 1_555
C9 N3 1_555 1_555
C10 O1 1_555 1_555
H6 C10 1_555 1_555
H7 C10 1_555 1_555
C11 N4 1_555 1_555
C12 S1 1_555 1_555
C13 N1 1_555 1_555
N4 C24 1_555 1_555
C14 C9 1_555 1_555
H8 C14 1_555 1_555
C15 C1 1_555 1_555
C16 C4 1_555 1_555
C17 H9 1_555 1_555
C18 C11 1_555 1_555
H10 C18 1_555 1_555
C19 C16 1_555 1_555
C20 C5 1_555 1_555
H11 C20 1_555 1_555
C21 C4 1_555 1_555
C22 C17 1_555 1_555
H12 C22 1_555 1_555
C23 C19 1_555 1_555
C24 C22 1_555 1_555
H13 C24 1_555 1_555
C25 C10 1_555 1_555
H14 C25 1_555 1_555
H15 C25 1_555 1_555
H16 C25 1_555 1_555
N2 C15 1_555 1_555
C7 C8 1_555 1_555
C7 C9 1_555 1_555
C12 C15 1_555 1_555
C12 C16 1_555 1_555
C14 C20 1_555 1_555
C17 C18 1_555 1_555
C21 C23 1_555 1_555

#END
