
#######################################################################
#
#                 Cambridge Crystallographic Data Centre
#                                CCDC 
#
#######################################################################
#
# If this CIF has been generated from an entry in the Cambridge 
# Structural Database, then it will include bibliographic, chemical, 
# crystal, experimental, refinement or atomic coordinate data resulting 
# from the CCDC's data processing and validation procedures.
#
#######################################################################

data_QIXXIE
_chemical_formula_moiety         'C27 H31 O3 P1 Se2'
_chemical_name_systematic        
5-Phenyl-5,12,13,16,17,19,20,22-octahydro-10H,15H-5\l^5^-dibenzo(m,p)(1,11,4,8,15)dioxadiselenaphosphacyclo-octadeca-13,16-diene-15-one
_symmetry_cell_setting           orthorhombic
_symmetry_space_group_name_H-M   'P b c a'
_symmetry_Int_Tables_number      61
_space_group_name_Hall           '-P 2ac 2ab'
loop_
_symmetry_equiv_pos_site_id
_symmetry_equiv_pos_as_xyz
1 x,y,z
2 1/2-x,-y,1/2+z
3 1/2+x,1/2-y,-z
4 -x,1/2+y,1/2-z
5 -x,-y,-z
6 1/2+x,y,1/2-z
7 1/2-x,1/2+y,z
8 x,1/2-y,1/2+z
_cell_length_a                   16.012(3)
_cell_length_b                   17.047(3)
_cell_length_c                   18.176(4)
_cell_angle_alpha                90
_cell_angle_beta                 90
_cell_angle_gamma                90
_cell_volume                     4961.26
_exptl_crystal_colour            colorless
_exptl_crystal_description       block
_chemical_melting_point          131-132deg.C
_cell_formula_units_Z            8
_exptl_crystal_recrystallization_method dichloromethane
loop_
_atom_site_label
_atom_site_type_symbol
_atom_site_fract_x
_atom_site_fract_y
_atom_site_fract_z
Se1 Se 0.6477(2) 0.0373(1) 0.3514(1)
Se2 Se 0.5139(2) 0.0832(1) 0.0594(1)
P1 P 0.3172(3) -0.1560(2) 0.3663(2)
O1 O 0.3821(7) -0.1877(5) 0.3170(5)
O2 O 0.3667(7) 0.0186(5) 0.1905(5)
O3 O 0.4773(9) -0.1071(5) 0.4433(6)
C1 C 0.3499(8) -0.0413(7) 0.2387(7)
C2 C 0.3740(13) -0.0067(9) 0.1155(8)
C3 C 0.4001(14) 0.0608(9) 0.0686(7)
C4 C 0.5338(16) 0.1260(10) 0.1548(10)
C5 C 0.5745(12) 0.0680(10) 0.2103(10)
C6 C 0.5981(12) 0.1054(10) 0.2789(11)
C7 C 0.5462(17) 0.0009(12) 0.3959(13)
C8 C 0.5484(13) -0.0844(10) 0.4039(10)
C9 C 0.4789(15) -0.1881(10) 0.4605(11)
C10 C 0.3203(11) -0.1965(7) 0.4564(7)
C11 C 0.3992(13) -0.2092(9) 0.4907(8)
C12 C 0.4027(13) -0.2430(9) 0.5630(10)
C13 C 0.3299(14) -0.2672(8) 0.5910(9)
C14 C 0.2472(12) -0.2570(8) 0.5627(9)
C15 C 0.2510(12) -0.2191(7) 0.4911(7)
C16 C 0.2130(10) -0.1738(6) 0.3322(7)
C17 C 0.2091(11) -0.2307(8) 0.2759(8)
C18 C 0.1334(13) -0.2484(8) 0.2491(9)
C19 C 0.0591(14) -0.2106(9) 0.2664(9)
C20 C 0.0677(14) -0.1528(10) 0.3209(10)
C21 C 0.1384(12) -0.1356(8) 0.3500(9)
C22 C 0.3320(11) -0.0094(7) 0.3137(7)
C23 C 0.3231(13) 0.0694(8) 0.3217(8)
C24 C 0.3018(13) 0.0988(8) 0.3935(9)
C25 C 0.2857(11) 0.0558(7) 0.4510(7)
C26 C 0.2969(12) -0.0247(7) 0.4450(7)
C27 C 0.3167(10) -0.0542(6) 0.3758(6)
loop_
_geom_bond_atom_site_label_1
_geom_bond_atom_site_label_2
_geom_bond_site_symmetry_1
_geom_bond_site_symmetry_2
Se1 C6 1_555 1_555
Se2 C3 1_555 1_555
P1 O1 1_555 1_555
O2 C1 1_555 1_555
O3 C8 1_555 1_555
C1 C22 1_555 1_555
C2 O2 1_555 1_555
C3 C2 1_555 1_555
C4 Se2 1_555 1_555
C5 C4 1_555 1_555
C6 C5 1_555 1_555
C7 Se1 1_555 1_555
C8 C7 1_555 1_555
C9 O3 1_555 1_555
C10 P1 1_555 1_555
C11 C9 1_555 1_555
C12 C11 1_555 1_555
C13 C12 1_555 1_555
C14 C13 1_555 1_555
C15 C10 1_555 1_555
C16 P1 1_555 1_555
C17 C16 1_555 1_555
C18 C17 1_555 1_555
C19 C18 1_555 1_555
C20 C19 1_555 1_555
C21 C16 1_555 1_555
C22 C23 1_555 1_555
C23 C24 1_555 1_555
C24 C25 1_555 1_555
C25 C26 1_555 1_555
C26 C27 1_555 1_555
C27 P1 1_555 1_555
C10 C11 1_555 1_555
C14 C15 1_555 1_555
C20 C21 1_555 1_555
C22 C27 1_555 1_555

#END
