
#######################################################################
#
#                 Cambridge Crystallographic Data Centre
#                                CCDC 
#
#######################################################################
#
# If this CIF has been generated from an entry in the Cambridge 
# Structural Database, then it will include bibliographic, chemical, 
# crystal, experimental, refinement or atomic coordinate data resulting 
# from the CCDC's data processing and validation procedures.
#
#######################################################################

data_QIYJIR
_chemical_formula_moiety         'C14 H12 N2 O4'
_chemical_name_systematic        
'2-(2-Hydroxycyclopentylidene)ethanenitrile p-nitrobenzoate'
_symmetry_cell_setting           monoclinic
_symmetry_space_group_name_H-M   'P 21'
_symmetry_Int_Tables_number      4
_space_group_name_Hall           'P 2yb'
loop_
_symmetry_equiv_pos_site_id
_symmetry_equiv_pos_as_xyz
1 x,y,z
2 -x,1/2+y,-z
_cell_length_a                   10.123(1)
_cell_length_b                   6.087(2)
_cell_length_c                   21.693(1)
_cell_angle_alpha                90
_cell_angle_beta                 100.902(8)
_cell_angle_gamma                90
_cell_volume                     1312.57
_exptl_crystal_colour            colorless
_exptl_crystal_description       plate
_chemical_melting_point          340-342K
_cell_formula_units_Z            4
_exptl_crystal_recrystallization_method 'ethyl acetate'
loop_
_atom_site_label
_atom_site_type_symbol
_atom_site_fract_x
_atom_site_fract_y
_atom_site_fract_z
O1 O 0.0036(7) -0.084(4) 0.6065(4)
O2 O 0.1075(7) 0.238(4) 0.6109(3)
O3 O 0.553(1) -0.590(4) 0.7715(5)
O4 O 0.681(1) -0.310(4) 0.7648(5)
N1 N -0.423(1) -0.605(4) 0.6124(6)
N2 N 0.571(1) -0.406(4) 0.7540(5)
C1 C -0.340(1) -0.468(4) 0.6161(5)
C2 C -0.228(2) -0.318(4) 0.6154(7)
C3 C -0.230(1) -0.151(4) 0.5766(6)
C4 C -0.347(1) -0.088(4) 0.5206(5)
C5 C -0.294(1) 0.077(5) 0.4902(5)
C6 C -0.145(1) 0.104(5) 0.5180(8)
C7 C -0.120(1) 0.005(4) 0.5754(7)
C8 C 0.111(1) 0.035(4) 0.6166(6)
C9 C 0.2308(9) -0.086(4) 0.6504(5)
C10 C 0.221(1) -0.286(4) 0.6739(5)
C11 C 0.334(1) -0.394(4) 0.7083(5)
C12 C 0.453(1) -0.285(4) 0.7164(6)
C13 C 0.4695(9) -0.089(4) 0.6932(5)
C14 C 0.362(1) 0.024(4) 0.6608(6)
H1 H -0.1417 -0.3373 0.6444
H2 H -0.4267 -0.0307 0.5340
H3 H -0.3683 -0.1992 0.4926
H4 H -0.3427 0.2238 0.4949
H5 H -0.3043 0.0586 0.4467
H6 H -0.1277 0.2705 0.5201
H7 H -0.0969 0.0426 0.4941
H8 H -0.1388 0.1491 0.6072
H9 H 0.1379 -0.3459 0.6685
H10 H 0.3273 -0.5227 0.7259
H11 H 0.5578 -0.0157 0.6989
H12 H 0.3717 0.1840 0.6470
O5 O 0.4996(7) -0.138(4) 0.8945(4)
O6 O 0.383(1) -0.445(4) 0.9018(6)
O7 O -0.051(1) 0.360(4) 0.7231(6)
O8 O -0.174(1) 0.092(4) 0.7380(5)
N3 N 0.913(1) 0.374(4) 0.8856(5)
N4 N -0.0675(9) 0.182(4) 0.7465(4)
C15 C 0.832(1) 0.260(4) 0.8861(6)
C16 C 0.732(1) 0.090(4) 0.8780(5)
C17 C 0.737(1) -0.066(4) 0.9212(5)
C18 C 0.837(1) -0.101(4) 0.9734(7)
C19 C 0.795(1) -0.315(5) 1.0114(6)
C20 C 0.643(1) -0.310(4) 0.9893(5)
C21 C 0.6309(8) -0.242(4) 0.9200(4)
C22 C 0.388(1) -0.275(4) 0.8808(5)
C23 C 0.268(1) -0.141(4) 0.8488(5)
C24 C 0.283(1) 0.071(4) 0.8265(6)
C25 C 0.172(1) 0.176(4) 0.7946(5)
C26 C 0.047(1) 0.074(4) 0.7837(5)
C27 C 0.031(1) -0.136(4) 0.8079(7)
C28 C 0.149(1) -0.232(4) 0.8425(4)
H13 H 0.6657 0.1000 0.8422
H14 H 0.8489 0.0344 0.9990
H15 H 0.9176 -0.1218 0.9581
H16 H 0.8298 -0.4353 0.9984
H17 H 0.8179 -0.2842 1.0546
H18 H 0.5985 -0.1944 1.0126
H19 H 0.6004 -0.4380 0.9917
H20 H 0.6479 -0.3428 0.8950
H21 H 0.3708 0.1537 0.8348
H22 H 0.1804 0.3352 0.7803
H23 H -0.0523 -0.2002 0.8009
H24 H 0.1422 -0.3511 0.8643
loop_
_geom_bond_atom_site_label_1
_geom_bond_atom_site_label_2
_geom_bond_site_symmetry_1
_geom_bond_site_symmetry_2
O1 C7 1_555 1_555
O2 C8 1_555 1_555
O3 N2 1_555 1_555
O4 N2 1_555 1_555
O5 C21 1_555 1_555
O6 C22 1_555 1_555
O7 N4 1_555 1_555
O8 N4 1_555 1_555
N1 C1 1_555 1_555
N2 C12 1_555 1_555
N3 C15 1_555 1_555
N4 C26 1_555 1_555
C1 C2 1_555 1_555
C2 C3 1_555 1_555
C3 C4 1_555 1_555
C4 C5 1_555 1_555
C5 C6 1_555 1_555
C6 C7 1_555 1_555
C7 C3 1_555 1_555
C8 O1 1_555 1_555
C9 C8 1_555 1_555
C10 C9 1_555 1_555
C11 C10 1_555 1_555
C12 C11 1_555 1_555
C13 C12 1_555 1_555
C14 C9 1_555 1_555
C15 C16 1_555 1_555
C16 C17 1_555 1_555
C17 C18 1_555 1_555
C18 C19 1_555 1_555
C19 C20 1_555 1_555
C20 C21 1_555 1_555
C21 C17 1_555 1_555
C22 O5 1_555 1_555
C23 C22 1_555 1_555
C24 C23 1_555 1_555
C25 C24 1_555 1_555
C26 C25 1_555 1_555
C27 C26 1_555 1_555
C28 C23 1_555 1_555
H1 C2 1_555 1_555
H2 C4 1_555 1_555
H3 C4 1_555 1_555
H4 C5 1_555 1_555
H5 C5 1_555 1_555
H6 C6 1_555 1_555
H7 C6 1_555 1_555
H8 C7 1_555 1_555
H9 C10 1_555 1_555
H10 C11 1_555 1_555
H11 C13 1_555 1_555
H12 C14 1_555 1_555
H13 C16 1_555 1_555
H14 C18 1_555 1_555
H15 C18 1_555 1_555
H16 C19 1_555 1_555
H17 C19 1_555 1_555
H18 C20 1_555 1_555
H19 C20 1_555 1_555
H20 C21 1_555 1_555
H21 C24 1_555 1_555
H22 C25 1_555 1_555
H23 C27 1_555 1_555
H24 C28 1_555 1_555
C13 C14 1_555 1_555
C27 C28 1_555 1_555

#END
