
#######################################################################
#
#                 Cambridge Crystallographic Data Centre
#                                CCDC 
#
#######################################################################
#
# If this CIF has been generated from an entry in the Cambridge 
# Structural Database, then it will include bibliographic, chemical, 
# crystal, experimental, refinement or atomic coordinate data resulting 
# from the CCDC's data processing and validation procedures.
#
#######################################################################

data_QIYYOO
_chemical_formula_moiety         'C23 H20 N4 O4'
_chemical_name_systematic        
N,N'-(2,4,6-trimethyl-1,3-phenylene)bis(1-(4-nitrophenyl)methanimine)
_symmetry_cell_setting           monoclinic
_symmetry_space_group_name_H-M   'P 21/c'
_symmetry_Int_Tables_number      14
_space_group_name_Hall           '-P 2ybc'
loop_
_symmetry_equiv_pos_site_id
_symmetry_equiv_pos_as_xyz
1 x,y,z
2 -x,1/2+y,1/2-z
3 -x,-y,-z
4 x,1/2-y,1/2+z
_cell_length_a                   13.501(2)
_cell_length_b                   7.9604(10)
_cell_length_c                   20.334(3)
_cell_angle_alpha                90
_cell_angle_beta                 108.794(18)
_cell_angle_gamma                90
_cell_volume                     2068.85
_exptl_crystal_colour            red
_exptl_crystal_description       block
_cell_formula_units_Z            4
loop_
_atom_site_label
_atom_site_type_symbol
_atom_site_fract_x
_atom_site_fract_y
_atom_site_fract_z
N1 N 0.8612(2) 0.1102(3) 0.83096(16)
N2 N 0.5143(2) 0.1371(4) 0.66172(17)
O1 O 0.1068(2) 0.6313(4) 0.45433(18)
O2 O 1.2491(3) 0.5756(4) 1.0644(2)
C1 C 0.6015(3) 0.0400(4) 0.69921(19)
C2 C 0.6906(3) 0.1239(4) 0.74127(18)
O3 O 0.1551(3) 0.5750(5) 0.36647(19)
N3 N 0.1656(3) 0.5663(4) 0.4282(2)
O4 O 1.3168(3) 0.6312(4) 0.98416(19)
C3 C 0.6827(3) -0.2226(4) 0.74043(18)
H1 H 0.6804 -0.3394 0.7396
C4 C 0.7743(3) 0.0307(4) 0.78217(18)
N4 N 1.2514(3) 0.5647(4) 1.0053(2)
C5 C 1.0798(3) 0.3824(5) 0.8398(2)
H2 H 1.0732 0.3823 0.7929
C6 C 0.7727(3) -0.1462(4) 0.78268(17)
C7 C 1.0960(3) 0.3883(5) 0.9789(2)
H3 H 1.1015 0.3925 1.0257
C8 C 0.5965(3) -0.1369(4) 0.69964(19)
C9 C 1.0083(3) 0.2933(4) 0.8623(2)
C10 C 1.1661(3) 0.4724(4) 0.9543(2)
C11 C 0.6922(3) 0.3149(4) 0.7442(2)
H4 H 0.6282 0.3581 0.7126
H5 H 0.7503 0.3561 0.7314
H6 H 0.6993 0.3509 0.7906
C12 C 0.9232(3) 0.1995(4) 0.8121(2)
H7 H 0.9154 0.2068 0.7650
C13 C 1.0169(3) 0.2971(4) 0.9318(2)
H8 H 0.9692 0.2380 0.9472
C14 C 0.2676(3) 0.4583(4) 0.5436(2)
H9 H 0.2224 0.5140 0.5624
C15 C 0.8611(3) -0.2479(5) 0.8275(2)
H10 H 0.9166 -0.1746 0.8531
H11 H 0.8862 -0.3217 0.7990
H12 H 0.8376 -0.3131 0.8594
C16 C 0.3494(3) 0.3614(5) 0.5850(2)
H13 H 0.3596 0.3530 0.6323
C17 C 0.4153(3) 0.2778(4) 0.5572(2)
C18 C 0.5006(3) 0.1727(5) 0.6004(2)
H14 H 0.5479 0.1297 0.5801
C19 C 1.1605(3) 0.4710(5) 0.8858(2)
H15 H 1.2095 0.5280 0.8708
C20 C 0.2552(3) 0.4697(4) 0.4742(2)
C21 C 0.3199(4) 0.3887(6) 0.4448(2)
H16 H 0.3094 0.3970 0.3974
C22 C 0.4991(3) -0.2307(5) 0.6607(2)
H17 H 0.4467 -0.1527 0.6349
H18 H 0.4737 -0.2909 0.6930
H19 H 0.5144 -0.3086 0.6293
C23 C 0.4000(4) 0.2956(6) 0.4868(3)
H20 H 0.4458 0.2425 0.4677
loop_
_geom_bond_atom_site_label_1
_geom_bond_atom_site_label_2
_geom_bond_site_symmetry_1
_geom_bond_site_symmetry_2
N1 C4 1_555 1_555
N2 C1 1_555 1_555
O1 N3 1_555 1_555
O2 N4 1_555 1_555
C1 C2 1_555 1_555
C2 C4 1_555 1_555
O3 N3 1_555 1_555
N3 C20 1_555 1_555
O4 N4 1_555 1_555
C3 H1 1_555 1_555
C4 C6 1_555 1_555
N4 C10 1_555 1_555
C5 H2 1_555 1_555
C6 C3 1_555 1_555
C7 H3 1_555 1_555
C8 C1 1_555 1_555
C9 C5 1_555 1_555
C10 C7 1_555 1_555
C11 C2 1_555 1_555
H4 C11 1_555 1_555
H5 C11 1_555 1_555
H6 C11 1_555 1_555
C12 N1 1_555 1_555
H7 C12 1_555 1_555
C13 C7 1_555 1_555
H8 C13 1_555 1_555
C14 H9 1_555 1_555
C15 C6 1_555 1_555
H10 C15 1_555 1_555
H11 C15 1_555 1_555
H12 C15 1_555 1_555
C16 C14 1_555 1_555
H13 C16 1_555 1_555
C17 C16 1_555 1_555
C18 N2 1_555 1_555
H14 C18 1_555 1_555
C19 C5 1_555 1_555
H15 C19 1_555 1_555
C20 C14 1_555 1_555
C21 C20 1_555 1_555
H16 C21 1_555 1_555
C22 C8 1_555 1_555
H17 C22 1_555 1_555
H18 C22 1_555 1_555
H19 C22 1_555 1_555
C23 C17 1_555 1_555
H20 C23 1_555 1_555
C3 C8 1_555 1_555
C9 C12 1_555 1_555
C9 C13 1_555 1_555
C10 C19 1_555 1_555
C17 C18 1_555 1_555
C21 C23 1_555 1_555

#END
