
#######################################################################
#
#                 Cambridge Crystallographic Data Centre
#                                CCDC 
#
#######################################################################
#
# If this CIF has been generated from an entry in the Cambridge 
# Structural Database, then it will include bibliographic, chemical, 
# crystal, experimental, refinement or atomic coordinate data resulting 
# from the CCDC's data processing and validation procedures.
#
#######################################################################

data_QIYYUU
_chemical_formula_moiety         'C25 H20 N4'
_chemical_name_systematic        
4,4'-((2,4,6-trimethyl-1,3-phenylene)bis(nitrilomethylylidene))dibenzonitrile
_symmetry_cell_setting           monoclinic
_symmetry_space_group_name_H-M   'C 2/c'
_symmetry_Int_Tables_number      15
_space_group_name_Hall           '-C 2yn'
loop_
_symmetry_equiv_pos_site_id
_symmetry_equiv_pos_as_xyz
1 x,y,z
2 -x,y,1/2-z
3 1/2+x,1/2+y,z
4 1/2-x,1/2+y,1/2-z
5 -x,-y,-z
6 x,-y,1/2+z
7 1/2-x,1/2-y,-z
8 1/2+x,1/2-y,1/2+z
_cell_length_a                   34.766(5)
_cell_length_b                   8.0651(9)
_cell_length_c                   18.833(2)
_cell_angle_alpha                90
_cell_angle_beta                 124.311(19)
_cell_angle_gamma                90
_cell_volume                     4361.73
_exptl_crystal_colour            yellow
_exptl_crystal_description       block
_cell_formula_units_Z            8
loop_
_atom_site_label
_atom_site_type_symbol
_atom_site_fract_x
_atom_site_fract_y
_atom_site_fract_z
N1 N 0.21851(10) 0.8209(4) 0.06277(19)
C1 C 0.17623(11) 0.9134(5) 0.0215(2)
C2 C 0.09253(12) 0.9208(5) -0.0668(2)
C3 C 0.13373(12) 0.8302(4) -0.0205(2)
C4 C 0.28106(12) 0.6763(5) 0.1833(2)
C5 C 0.17834(12) 1.0865(5) 0.0166(2)
C6 C 0.23773(12) 0.7719(5) 0.1384(2)
H1 H 0.2237 0.7979 0.1680
N2 N 0.04907(11) 0.8374(5) -0.1111(2)
C7 C 0.30263(13) 0.6319(6) 0.1426(2)
H2 H 0.2889 0.6620 0.0843
C8 C 0.13643(13) 1.1704(5) -0.0314(2)
H3 H 0.1373 1.2876 -0.0352
C9 C 0.36357(12) 0.4989(5) 0.2699(2)
C10 C 0.02934(14) 0.8160(6) -0.0733(3)
H4 H 0.0441 0.8591 -0.0167
C11 C 0.09367(12) 1.0944(5) -0.0740(2)
C12 C 0.34362(13) 0.5448(6) 0.1860(2)
H5 H 0.3583 0.5161 0.1578
C13 C 0.40705(14) 0.4101(6) 0.3155(3)
C14 C -0.01539(13) 0.7282(5) -0.1105(2)
C15 C 0.22399(14) 1.1751(6) 0.0583(3)
H6 H 0.2495 1.0948 0.0887
H7 H 0.2266 1.2568 0.0993
H8 H 0.2258 1.2317 0.0142
C16 C 0.34259(14) 0.5411(6) 0.3112(3)
H9 H 0.3563 0.5098 0.3694
C17 C 0.30132(14) 0.6295(6) 0.2673(3)
H10 H 0.2868 0.6582 0.2958
N3 N 0.44143(13) 0.3401(6) 0.3523(3)
C18 C -0.04194(15) 0.6764(6) -0.1938(3)
H11 H -0.0321 0.6973 -0.2309
C19 C -0.08317(15) 0.5933(7) -0.2242(3)
H12 H -0.1014 0.5568 -0.2823
C20 C -0.14128(15) 0.4767(6) -0.2023(3)
C21 C 0.04963(15) 1.1941(7) -0.1294(3)
H13 H 0.0226 1.1202 -0.1550
H14 H 0.0502 1.2492 -0.1751
H15 H 0.0474 1.2778 -0.0941
C22 C -0.09827(13) 0.5625(6) -0.1717(3)
C23 C -0.07220(17) 0.6167(8) -0.0896(3)
H16 H -0.0823 0.5970 -0.0528
C24 C -0.03087(17) 0.7007(8) -0.0587(3)
H17 H -0.0131 0.7397 -0.0011
N4 N -0.17518(14) 0.4097(6) -0.2249(3)
C25 C 0.13258(16) 0.6435(5) -0.0185(3)
H18 H 0.1002 0.6056 -0.0508
H19 H 0.1488 0.6057 0.0412
H20 H 0.1480 0.5978 -0.0445
loop_
_geom_bond_atom_site_label_1
_geom_bond_atom_site_label_2
_geom_bond_site_symmetry_1
_geom_bond_site_symmetry_2
N1 C1 1_555 1_555
C1 C3 1_555 1_555
C2 C3 1_555 1_555
C3 C25 1_555 1_555
C4 C6 1_555 1_555
C5 C1 1_555 1_555
C6 N1 1_555 1_555
H1 C6 1_555 1_555
N2 C2 1_555 1_555
C7 C4 1_555 1_555
H2 C7 1_555 1_555
C8 C5 1_555 1_555
H3 C8 1_555 1_555
C9 C12 1_555 1_555
C10 N2 1_555 1_555
H4 C10 1_555 1_555
C11 C2 1_555 1_555
C12 C7 1_555 1_555
H5 C12 1_555 1_555
C13 C9 1_555 1_555
C14 C10 1_555 1_555
C15 C5 1_555 1_555
H6 C15 1_555 1_555
H7 C15 1_555 1_555
H8 C15 1_555 1_555
C16 C9 1_555 1_555
H9 C16 1_555 1_555
C17 C4 1_555 1_555
H10 C17 1_555 1_555
N3 C13 1_555 1_555
C18 C14 1_555 1_555
H11 C18 1_555 1_555
C19 C18 1_555 1_555
H12 C19 1_555 1_555
C20 C22 1_555 1_555
C21 C11 1_555 1_555
H13 C21 1_555 1_555
H14 C21 1_555 1_555
H15 C21 1_555 1_555
C22 C19 1_555 1_555
C23 C22 1_555 1_555
H16 C23 1_555 1_555
C24 C14 1_555 1_555
H17 C24 1_555 1_555
N4 C20 1_555 1_555
C25 H18 1_555 1_555
H19 C25 1_555 1_555
H20 C25 1_555 1_555
C8 C11 1_555 1_555
C16 C17 1_555 1_555
C23 C24 1_555 1_555

#END
