
#######################################################################
#
#                 Cambridge Crystallographic Data Centre
#                                CCDC 
#
#######################################################################
#
# If this CIF has been generated from an entry in the Cambridge 
# Structural Database, then it will include bibliographic, chemical, 
# crystal, experimental, refinement or atomic coordinate data resulting 
# from the CCDC's data processing and validation procedures.
#
#######################################################################

data_QIYZUV
_chemical_name_common            
'(+-)-2-(Trifluoromethyl)phenyl 3-methyl-2-(8-nitro-6,12-dihydro-5,11-methanodibenzo[b,f][1,5]diazocin-2-yl)benzoate'
_chemical_formula_moiety         'C30 H22 F3 N3 O4'
_chemical_name_systematic        
'2-(Trifluoromethyl)phenyl 3-methyl-2-(13-nitro-1,9-diazatetracyclo[7.7.1.0^2,7^.0^10,15^]heptadeca-2,4,6,10,12,14-hexaen-5-yl)benzoate'
_symmetry_cell_setting           triclinic
_symmetry_space_group_name_H-M   'P -1'
_symmetry_Int_Tables_number      2
_space_group_name_Hall           '-P 1'
loop_
_symmetry_equiv_pos_site_id
_symmetry_equiv_pos_as_xyz
1 x,y,z
2 -x,-y,-z
_cell_length_a                   10.6133(12)
_cell_length_b                   10.8092(14)
_cell_length_c                   11.6820(16)
_cell_angle_alpha                90.661(4)
_cell_angle_beta                 90.019(5)
_cell_angle_gamma                114.330(4)
_cell_volume                     1221.05
_exptl_crystal_colour            yellow
_exptl_crystal_description       irregular
_chemical_melting_point          '364-366 K'
_cell_formula_units_Z            2
_exptl_crystal_recrystallization_method dichloromethane/n-pentane
loop_
_atom_site_label
_atom_site_type_symbol
_atom_site_fract_x
_atom_site_fract_y
_atom_site_fract_z
F1 F 0.7264(3) 0.2308(3) 1.0564(2)
F2 F 0.6791(2) 0.4031(2) 1.0858(2)
F3 F 0.6792(2) 0.2764(3) 1.2258(2)
O1 O 0.8357(3) 0.5777(3) 1.2553(2)
O2 O 1.3292(3) 0.8817(3) 0.5648(3)
O3 O 0.8741(3) 0.7151(3) 1.1044(2)
O4 O 1.2255(3) 0.6667(3) 0.5266(3)
N1 N 0.6991(4) 0.7701(4) 0.6484(3)
N2 N 1.2248(4) 0.7752(4) 0.5579(3)
N3 N 0.8046(3) 0.9974(4) 0.7305(3)
C1 C 1.1339(4) 0.4579(5) 1.1289(4)
H1 H 1.2018 0.4295 1.1007
C2 C 0.9967(4) 0.3788(4) 1.1099(4)
H2 H 0.9699 0.2955 1.0687
C3 C 0.8967(4) 0.4187(4) 1.1502(4)
C4 C 0.9379(4) 0.5396(5) 1.2115(4)
C5 C 0.8084(4) 0.6689(4) 1.1894(4)
C6 C 0.6966(4) 0.7004(4) 1.2384(3)
C7 C 0.6484(4) 0.7839(4) 1.1790(3)
C8 C 0.6967(4) 0.8346(4) 1.0615(4)
C9 C 0.6464(4) 0.7528(4) 0.9676(4)
H3 H 0.5845 0.6606 0.9778
C10 C 0.6842(4) 0.8017(5) 0.8546(4)
C11 C 0.6325(4) 0.7081(5) 0.7546(4)
H4 H 0.6492 0.6258 0.7681
H5 H 0.5315 0.6796 0.7469
C12 C 0.8373(5) 0.7740(4) 0.6322(4)
C13 C 0.9523(4) 0.8955(4) 0.6475(3)
C14 C 1.0847(5) 0.8955(5) 0.6236(4)
H6 H 1.1665 0.9764 0.6323
C15 C 1.0918(5) 0.7768(5) 0.5879(4)
C16 C 1.1734(5) 0.5780(5) 1.1884(4)
H7 H 1.2690 0.6329 1.2005
C17 C 1.0759(4) 0.6203(4) 1.2311(4)
H8 H 1.1034 0.7031 1.2731
C18 C 0.7482(5) 0.3343(5) 1.1302(4)
C19 C 0.6433(4) 0.6500(4) 1.3450(4)
H9 H 0.6732 0.5896 1.3831
C20 C 0.5473(5) 0.6878(5) 1.3952(4)
H10 H 0.5113 0.6545 1.4685
C21 C 0.5033(4) 0.7747(5) 1.3383(4)
H11 H 0.4387 0.8022 1.3746
C22 C 0.5499(4) 0.8222(4) 1.2313(4)
C23 C 0.7712(4) 0.9354(5) 0.8411(4)
C24 C 0.8272(4) 1.0202(4) 0.9367(4)
H12 H 0.8903 1.1121 0.9269
C25 C 0.7899(4) 0.9691(4) 1.0455(4)
H13 H 0.8282 1.0263 1.1103
C26 C 0.9440(5) 1.0218(4) 0.6911(4)
H14 H 1.0103 1.0596 0.7553
H15 H 0.9711 1.0898 0.6295
C27 C 0.8462(5) 0.6551(5) 0.6011(4)
H16 H 0.7654 0.5727 0.5954
C28 C 0.9747(5) 0.6573(5) 0.5783(4)
H17 H 0.9825 0.5760 0.5560
C29 C 0.7060(5) 0.9073(5) 0.6434(4)
H18 H 0.6129 0.9048 0.6571
H19 H 0.7359 0.9443 0.5661
C30 C 0.4958(4) 0.9141(5) 1.1720(4)
H20 H 0.4091 0.9053 1.2078
H21 H 0.4792 0.8881 1.0909
H22 H 0.5641 1.0084 1.1789
loop_
_geom_bond_atom_site_label_1
_geom_bond_atom_site_label_2
_geom_bond_site_symmetry_1
_geom_bond_site_symmetry_2
F1 C18 1_555 1_555
F2 C18 1_555 1_555
F3 C18 1_555 1_555
O1 C4 1_555 1_555
O2 N2 1_555 1_555
O3 C5 1_555 1_555
O4 N2 1_555 1_555
N1 C11 1_555 1_555
N2 C15 1_555 1_555
N3 C23 1_555 1_555
C1 H1 1_555 1_555
C2 C1 1_555 1_555
H2 C2 1_555 1_555
C3 C2 1_555 1_555
C4 C3 1_555 1_555
C5 O1 1_555 1_555
C6 C5 1_555 1_555
C7 C6 1_555 1_555
C8 C7 1_555 1_555
C9 C8 1_555 1_555
H3 C9 1_555 1_555
C10 C9 1_555 1_555
C11 C10 1_555 1_555
H4 C11 1_555 1_555
H5 C11 1_555 1_555
C12 N1 1_555 1_555
C13 C12 1_555 1_555
C14 C13 1_555 1_555
H6 C14 1_555 1_555
C15 C14 1_555 1_555
C16 C1 1_555 1_555
H7 C16 1_555 1_555
C17 C4 1_555 1_555
H8 C17 1_555 1_555
C18 C3 1_555 1_555
C19 C6 1_555 1_555
H9 C19 1_555 1_555
C20 C19 1_555 1_555
H10 C20 1_555 1_555
C21 C20 1_555 1_555
H11 C21 1_555 1_555
C22 C7 1_555 1_555
C23 C10 1_555 1_555
C24 C23 1_555 1_555
H12 C24 1_555 1_555
C25 C8 1_555 1_555
H13 C25 1_555 1_555
C26 N3 1_555 1_555
H14 C26 1_555 1_555
H15 C26 1_555 1_555
C27 C12 1_555 1_555
H16 C27 1_555 1_555
C28 C15 1_555 1_555
H17 C28 1_555 1_555
C29 N1 1_555 1_555
H18 C29 1_555 1_555
H19 C29 1_555 1_555
C30 C22 1_555 1_555
H20 C30 1_555 1_555
H21 C30 1_555 1_555
H22 C30 1_555 1_555
N3 C29 1_555 1_555
C13 C26 1_555 1_555
C16 C17 1_555 1_555
C21 C22 1_555 1_555
C24 C25 1_555 1_555
C27 C28 1_555 1_555

#END
