
#######################################################################
#
#                 Cambridge Crystallographic Data Centre
#                                CCDC 
#
#######################################################################
#
# If this CIF has been generated from an entry in the Cambridge 
# Structural Database, then it will include bibliographic, chemical, 
# crystal, experimental, refinement or atomic coordinate data resulting 
# from the CCDC's data processing and validation procedures.
#
#######################################################################

data_QIZDUA
_chemical_formula_moiety         'C29 H24 F1 N3 O2'
_chemical_name_systematic        
'4-fluorophenyl 2-(13-amino-1,9-diazatetracyclo[7.7.1.0^2,7^.0^10,15^]heptadeca-2,4,6,10,12,14-hexaen-5-yl)-3-methylbenzoate'
_symmetry_cell_setting           monoclinic
_symmetry_space_group_name_H-M   'P 21/c'
_symmetry_Int_Tables_number      14
_space_group_name_Hall           '-P 2ybc'
loop_
_symmetry_equiv_pos_site_id
_symmetry_equiv_pos_as_xyz
1 x,y,z
2 -x,1/2+y,1/2-z
3 -x,-y,-z
4 x,1/2-y,1/2+z
_cell_length_a                   19.9853(5)
_cell_length_b                   6.4518(2)
_cell_length_c                   17.7815(4)
_cell_angle_alpha                90
_cell_angle_beta                 103.7570(10)
_cell_angle_gamma                90
_cell_volume                     2226.99
_exptl_crystal_colour            'dark yellow'
_exptl_crystal_description       irregular
_chemical_melting_point          '450-451 K'
_cell_formula_units_Z            4
_exptl_crystal_recrystallization_method n-pentane/dichloromethane
loop_
_atom_site_label
_atom_site_type_symbol
_atom_site_fract_x
_atom_site_fract_y
_atom_site_fract_z
F1 F 0.79208(8) 0.2723(3) 0.17891(8)
O1 O 0.59706(9) 0.8350(3) 0.30529(9)
O2 O 0.63777(8) 0.5484(3) 0.37418(9)
N1 N 0.87622(9) 1.1485(3) 0.48886(10)
N2 N 0.88472(9) 0.8620(3) 0.57990(10)
N3 N 0.95136(11) 0.6179(5) 0.26870(14)
H1 H 0.9575(17) 0.462(6) 0.285(2)
H2 H 0.9306(19) 0.645(6) 0.215(2)
C1 C 0.89322(10) 1.0058(4) 0.43366(12)
C2 C 0.88857(11) 1.0748(4) 0.35770(12)
H3 H 0.8708 1.2303 0.3415
C3 C 0.90651(11) 0.9458(4) 0.30322(13)
H4 H 0.9031 1.0022 0.2452
C4 C 0.92887(11) 0.7442(4) 0.32274(13)
C5 C 0.93165(11) 0.6732(4) 0.39774(13)
H5 H 0.9475 0.5157 0.4132
C6 C 0.91423(10) 0.8033(4) 0.45298(12)
C7 C 0.91977(11) 0.7237(4) 0.53505(13)
H6 H 0.8970 0.5696 0.5323
H7 H 0.9740 0.7106 0.5648
C8 C 0.81091(11) 0.8401(4) 0.55732(12)
C9 C 0.78115(11) 0.6699(4) 0.58480(12)
H8 H 0.8136 0.5568 0.6208
C10 C 0.71030(11) 0.6441(4) 0.56637(12)
H9 H 0.6881 0.5104 0.5878
C11 C 0.66778(11) 0.7878(4) 0.52081(12)
C12 C 0.69797(11) 0.9584(4) 0.49348(12)
H10 H 0.6652 1.0726 0.4583
C13 C 0.76952(11) 0.9855(4) 0.51043(12)
C14 C 0.80092(11) 1.1707(4) 0.47881(13)
H11 H 0.7767 1.1883 0.4174
H12 H 0.7904 1.3105 0.5085
C15 C 0.90518(11) 1.0758(4) 0.56775(12)
H13 H 0.8881 1.1778 0.6084
H14 H 0.9612 1.0844 0.5799
C16 C 0.59123(11) 0.7607(4) 0.49762(13)
C17 C 0.55826(11) 0.7467(4) 0.41928(13)
C18 C 0.48713(12) 0.7424(4) 0.39335(14)
H15 H 0.4632 0.7374 0.3322
C19 C 0.44731(12) 0.7446(4) 0.44754(14)
H16 H 0.3918 0.7399 0.4289
C20 C 0.47913(12) 0.7530(4) 0.52569(14)
H17 H 0.4476 0.7516 0.5673
C21 C 0.55048(12) 0.7631(4) 0.55234(13)
C22 C 0.58181(13) 0.7782(5) 0.63766(14)
H18 H 0.6008 0.6264 0.6599
H19 H 0.5430 0.8312 0.6672
H20 H 0.6244 0.8881 0.6479
C23 C 0.59920(12) 0.7243(4) 0.35979(12)
C24 C 0.67657(11) 0.4877(4) 0.32190(12)
C25 C 0.66351(12) 0.2924(4) 0.29075(13)
H21 H 0.6229 0.1986 0.3037
C26 C 0.70327(13) 0.2179(4) 0.24236(13)
H22 H 0.6952 0.0638 0.2181
C27 C 0.75297(12) 0.3447(4) 0.22622(13)
C28 C 0.76664(11) 0.5403(4) 0.25694(13)
H23 H 0.8065 0.6348 0.2426
C29 C 0.72805(11) 0.6134(4) 0.30673(12)
H24 H 0.7379 0.7647 0.3330
loop_
_geom_bond_atom_site_label_1
_geom_bond_atom_site_label_2
_geom_bond_site_symmetry_1
_geom_bond_site_symmetry_2
F1 C27 1_555 1_555
O1 C23 1_555 1_555
O2 C23 1_555 1_555
N1 C1 1_555 1_555
N2 C7 1_555 1_555
N3 H1 1_555 1_555
H2 N3 1_555 1_555
C1 C2 1_555 1_555
C2 H3 1_555 1_555
C3 C2 1_555 1_555
H4 C3 1_555 1_555
C4 N3 1_555 1_555
C5 C4 1_555 1_555
H5 C5 1_555 1_555
C6 C1 1_555 1_555
C7 C6 1_555 1_555
H6 C7 1_555 1_555
H7 C7 1_555 1_555
C8 N2 1_555 1_555
C9 C8 1_555 1_555
H8 C9 1_555 1_555
C10 C9 1_555 1_555
H9 C10 1_555 1_555
C11 C10 1_555 1_555
C12 C11 1_555 1_555
H10 C12 1_555 1_555
C13 C8 1_555 1_555
C14 N1 1_555 1_555
H11 C14 1_555 1_555
H12 C14 1_555 1_555
C15 N1 1_555 1_555
H13 C15 1_555 1_555
H14 C15 1_555 1_555
C16 C11 1_555 1_555
C17 C16 1_555 1_555
C18 C17 1_555 1_555
H15 C18 1_555 1_555
C19 C18 1_555 1_555
H16 C19 1_555 1_555
C20 C19 1_555 1_555
H17 C20 1_555 1_555
C21 C16 1_555 1_555
C22 C21 1_555 1_555
H18 C22 1_555 1_555
H19 C22 1_555 1_555
H20 C22 1_555 1_555
C23 C17 1_555 1_555
C24 O2 1_555 1_555
C25 C24 1_555 1_555
H21 C25 1_555 1_555
C26 C25 1_555 1_555
H22 C26 1_555 1_555
C27 C26 1_555 1_555
C28 C27 1_555 1_555
H23 C28 1_555 1_555
C29 C24 1_555 1_555
H24 C29 1_555 1_555
N2 C15 1_555 1_555
C3 C4 1_555 1_555
C5 C6 1_555 1_555
C12 C13 1_555 1_555
C13 C14 1_555 1_555
C20 C21 1_555 1_555
C28 C29 1_555 1_555

#END
