
#######################################################################
#
#                 Cambridge Crystallographic Data Centre
#                                CCDC 
#
#######################################################################
#
# If this CIF has been generated from an entry in the Cambridge 
# Structural Database, then it will include bibliographic, chemical, 
# crystal, experimental, refinement or atomic coordinate data resulting 
# from the CCDC's data processing and validation procedures.
#
#######################################################################

data_QIZDEK
_chemical_formula_moiety         'C29 H22 F1 N3 O4,0.33(C1 H2 Cl2)'
_chemical_name_systematic        
'4-fluorophenyl 3-methyl-2-(13-nitro-1,9-diazatetracyclo[7.7.1.0^2,7^.0^10,15^]heptadeca-2,4,6,10,12,14-hexaen-5-yl)benzoate dichloromethane solvate'
_symmetry_cell_setting           triclinic
_symmetry_space_group_name_H-M   'P -1'
_symmetry_Int_Tables_number      2
_space_group_name_Hall           '-P 1'
loop_
_symmetry_equiv_pos_site_id
_symmetry_equiv_pos_as_xyz
1 x,y,z
2 -x,-y,-z
_cell_length_a                   11.7218(9)
_cell_length_b                   14.6827(11)
_cell_length_c                   21.3938(16)
_cell_angle_alpha                99.209(4)
_cell_angle_beta                 92.510(4)
_cell_angle_gamma                96.749(4)
_cell_volume                     3602.03
_exptl_crystal_colour            'yellowish orange'
_exptl_crystal_description       plate
_chemical_melting_point          '372-375 K'
_cell_formula_units_Z            6
_exptl_crystal_recrystallization_method n-pentane/dichloromethane
loop_
_atom_site_label
_atom_site_type_symbol
_atom_site_fract_x
_atom_site_fract_y
_atom_site_fract_z
Cl1 Cl 0.0061(4) 0.3737(4) 0.3967(2)
Cl2 Cl -0.1447(3) 0.3055(3) 0.4852(2)
C1 C -0.0731(5) 0.4000(5) 0.4587(3)
H1 H -0.1304 0.4397 0.4469
H2 H -0.0221 0.4370 0.4942
F1 F 0.38591(14) -0.03233(10) 0.22006(8)
O1 O 0.21050(15) -0.01049(11) 0.06134(8)
O2 O 0.38276(15) -0.03598(11) 0.04130(9)
O3 O 0.46824(14) 0.34415(11) 0.39284(8)
O4 O 0.62058(13) 0.29482(11) 0.34311(8)
N1 N 0.44591(16) 0.40263(12) 0.09502(9)
N2 N 0.64634(16) 0.38112(12) 0.08935(9)
N3 N 0.31192(18) 0.01672(13) 0.05611(9)
C3 C 0.4588(2) 0.44990(16) 0.16107(11)
H5 H 0.3954 0.4241 0.1847
H6 H 0.4533 0.5170 0.1624
C4 C 0.57353(19) 0.43819(15) 0.19284(11)
C5 C 0.65872(19) 0.40135(15) 0.15665(11)
C6 C 0.5535(2) 0.42689(17) 0.06552(12)
H7 H 0.5417 0.4079 0.0189
H8 H 0.5752 0.4951 0.0746
C7 C 0.4173(2) 0.30535(15) 0.08840(11)
C8 C 0.3053(2) 0.26963(16) 0.09882(11)
H9 H 0.2525 0.3114 0.1134
C9 C 0.2697(2) 0.17592(16) 0.08855(10)
H10 H 0.1931 0.1523 0.0953
C10 C 0.3492(2) 0.11665(15) 0.06796(11)
C11 C 0.46188(19) 0.14880(16) 0.05956(10)
H11 H 0.5147 0.1061 0.0466
C12 C 0.4978(2) 0.24365(16) 0.07006(11)
C13 C 0.62205(19) 0.28147(15) 0.06309(11)
H12 H 0.6738 0.2467 0.0853
H13 H 0.6380 0.2718 0.0176
C14 C 0.59438(19) 0.46371(15) 0.25756(11)
H14 H 0.5362 0.4894 0.2817
C15 C 0.69746(19) 0.45328(15) 0.28897(11)
C16 C 0.7804(2) 0.41336(15) 0.25253(12)
H15 H 0.8509 0.4037 0.2726
C17 C 0.76120(19) 0.38804(15) 0.18811(11)
H16 H 0.8187 0.3608 0.1642
C18 C 0.71487(19) 0.48662(16) 0.35829(11)
C19 C 0.64402(19) 0.44632(15) 0.40037(11)
C20 C 0.6466(2) 0.48572(16) 0.46402(12)
H17 H 0.5948 0.4596 0.4912
C21 C 0.7237(2) 0.56216(18) 0.48752(12)
H18 H 0.7264 0.5888 0.5311
C22 C 0.7976(2) 0.60023(17) 0.44733(13)
H19 H 0.8528 0.6519 0.4643
C23 C 0.7935(2) 0.56530(16) 0.38292(12)
C24 C 0.8715(2) 0.61274(18) 0.34113(13)
H20 H 0.9331 0.5748 0.3292
H21 H 0.9053 0.6738 0.3641
H22 H 0.8273 0.6206 0.3028
C25 C 0.5656(2) 0.35973(16) 0.37896(11)
C26 C 0.5556(2) 0.21214(16) 0.31321(11)
C27 C 0.4749(2) 0.21319(17) 0.26475(12)
H23 H 0.4597 0.2703 0.2527
C28 C 0.4166(2) 0.13005(18) 0.23395(12)
H24 H 0.3590 0.1290 0.2011
C29 C 0.4430(2) 0.04932(18) 0.25160(13)
C30 C 0.5242(2) 0.04672(17) 0.29864(13)
H25 H 0.5409 -0.0108 0.3094
C31 C 0.5815(2) 0.13014(16) 0.33036(12)
H26 H 0.6381 0.1308 0.3636
F2 F 0.07689(13) 0.29333(10) 0.18163(7)
O5 O -0.09674(15) 0.33196(11) 0.05218(8)
O6 O 0.06086(14) 0.29096(11) 0.01601(8)
O7 O 0.44110(15) 0.57445(11) 0.36046(8)
O8 O 0.25328(14) 0.59138(10) 0.36025(8)
N4 N 0.22009(17) 0.71750(13) 0.10673(9)
N5 N 0.05924(17) 0.76429(13) 0.16552(9)
N6 N 0.00379(17) 0.35016(13) 0.04159(9)
C32 C 0.3026(2) 0.73834(17) 0.16204(11)
H27 H 0.3568 0.7940 0.1585
H28 H 0.3477 0.6855 0.1627
C33 C 0.2435(2) 0.75555(15) 0.22306(11)
C34 C 0.1265(2) 0.76302(15) 0.22319(11)
C35 C 0.1357(2) 0.78306(16) 0.11527(12)
H29 H 0.0891 0.7787 0.0749
H30 H 0.1761 0.8471 0.1263
C36 C 0.1653(2) 0.62418(16) 0.09427(11)
C37 C 0.2274(2) 0.55372(17) 0.06822(11)
H31 H 0.3069 0.5681 0.0623
C38 C 0.1758(2) 0.46438(16) 0.05100(11)
H32 H 0.2184 0.4165 0.0332
C39 C 0.0600(2) 0.44509(16) 0.06005(11)
C40 C -0.0038(2) 0.51252(16) 0.08739(11)
H33 H -0.0832 0.4971 0.0933
C41 C 0.0491(2) 0.60310(16) 0.10608(11)
C42 C -0.0157(2) 0.67708(16) 0.14104(11)
H34 H -0.0774 0.6901 0.1119
H35 H -0.0525 0.6530 0.1769
C43 C 0.3069(2) 0.76384(15) 0.28128(11)
H36 H 0.3872 0.7600 0.2813
C44 C 0.2563(2) 0.77735(15) 0.33849(11)
C45 C 0.1381(2) 0.78105(15) 0.33717(12)
H37 H 0.1008 0.7883 0.3759
C46 C 0.0745(2) 0.77433(15) 0.28057(11)
H38 H -0.0059 0.7775 0.2808
C47 C 0.32823(19) 0.78798(16) 0.39884(11)
C48 C 0.38342(19) 0.71434(15) 0.41465(11)
C49 C 0.4606(2) 0.72690(16) 0.46754(11)
H39 H 0.5014 0.6775 0.4759
C50 C 0.4776(2) 0.81071(16) 0.50750(11)
H40 H 0.5277 0.8188 0.5446
C51 C 0.4215(2) 0.88331(17) 0.49362(12)
H41 H 0.4321 0.9407 0.5222
C52 C 0.3499(2) 0.87449(16) 0.43886(12)
C53 C 0.3022(2) 0.95916(16) 0.42220(12)
H42 H 0.3450 0.9817 0.3882
H43 H 0.3099 1.0080 0.4597
H44 H 0.2207 0.9428 0.4079
C54 C 0.3661(2) 0.62022(16) 0.37533(11)
C55 C 0.2180(2) 0.51256(16) 0.31399(12)
C56 C 0.1351(2) 0.52426(17) 0.26996(12)
H45 H 0.1110 0.5838 0.2701
C57 C 0.0868(2) 0.45005(18) 0.22568(12)
H46 H 0.0282 0.4572 0.1954
C58 C 0.1243(2) 0.36700(17) 0.22609(12)
C59 C 0.2111(2) 0.35397(18) 0.26746(13)
H47 H 0.2383 0.2951 0.2649
C60 C 0.2587(2) 0.42817(17) 0.31300(12)
H48 H 0.3180 0.4210 0.3429
F3 F 0.56546(13) 0.65889(10) 0.22433(7)
O9 O 0.50603(15) 0.69830(12) 0.07929(8)
O10 O 0.67462(15) 0.66291(11) 0.05740(8)
O11 O 0.75344(14) 1.02372(11) 0.40785(8)
O12 O 0.87579(13) 0.93979(11) 0.35167(7)
N7 N 0.78228(16) 1.09984(13) 0.12310(9)
N8 N 0.97530(16) 1.06047(13) 0.11248(9)
N9 N 0.60840(18) 0.72059(14) 0.07210(9)
C61 C 0.8010(2) 1.13625(16) 0.19145(11)
H49 H 0.7337 1.1134 0.2136
H50 H 0.8078 1.2050 0.1982
C62 C 0.90902(19) 1.10640(15) 0.21950(11)
C63 C 0.9869(2) 1.06598(16) 0.17962(11)
C64 C 0.8918(2) 1.11923(16) 0.09419(12)
H51 H 0.8784 1.1080 0.0474
H52 H 0.9229 1.1854 0.1078
C65 C 0.7412(2) 1.00337(16) 0.11019(11)
C66 C 0.6270(2) 0.97471(16) 0.12047(11)
H53 H 0.5795 1.0196 0.1372
C67 C 0.5821(2) 0.88272(16) 0.10676(11)
H54 H 0.5040 0.8636 0.1135
C68 C 0.6529(2) 0.81871(15) 0.08299(11)
C69 C 0.76625(19) 0.84441(16) 0.07251(10)
H55 H 0.8128 0.7987 0.0557
C70 C 0.81183(19) 0.93658(16) 0.08645(10)
C71 C 0.93816(19) 0.96574(16) 0.07913(11)
H56 H 0.9846 0.9221 0.0963
H57 H 0.9517 0.9625 0.0335
C72 C 0.9311(2) 1.11747(15) 0.28461(11)
H58 H 0.8801 1.1482 0.3115
C73 C 1.02479(19) 1.08554(15) 0.31211(11)
C74 C 1.0975(2) 1.04000(16) 0.27112(12)
H59 H 1.1603 1.0145 0.2884
C75 C 1.0802(2) 1.03148(16) 0.20677(12)
H60 H 1.1322 1.0017 0.1801
C76 C 1.0443(2) 1.10101(15) 0.38216(12)
C77 C 0.9559(2) 1.07361(16) 0.41991(12)
C78 C 0.9667(2) 1.09864(16) 0.48546(12)
H61 H 0.9043 1.0826 0.5101
C79 C 1.0677(2) 1.14654(16) 0.51456(12)
H62 H 1.0760 1.1635 0.5594
C80 C 1.1568(2) 1.16969(16) 0.47793(12)
H63 H 1.2276 1.2005 0.4984
C81 C 1.1469(2) 1.14980(16) 0.41236(12)
C82 C 1.2447(2) 1.18420(18) 0.37624(13)
H64 H 1.2924 1.1343 0.3647
H65 H 1.2914 1.2374 0.4027
H66 H 1.2144 1.2035 0.3376
C83 C 0.8495(2) 1.01392(16) 0.39318(11)
C84 C 0.78909(19) 0.87188(16) 0.32088(12)
C85 C 0.7988(2) 0.84498(16) 0.25700(11)
H67 H 0.8560 0.8769 0.2355
C86 C 0.7247(2) 0.77122(17) 0.22462(12)
H68 H 0.7314 0.7500 0.1808
C87 C 0.6413(2) 0.72921(17) 0.25677(13)
C88 C 0.6306(2) 0.75463(18) 0.32054(13)
H69 H 0.5727 0.7228 0.3417
C89 C 0.7062(2) 0.82783(17) 0.35335(12)
H70 H 0.7010 0.8474 0.3975
Cl3? Cl -0.11243(18) 0.3602(2) 0.51282(10)
C2? C -0.1029(5) 0.3162(4) 0.4292(3)
H3? H -0.0956 0.2489 0.4243
H4? H -0.1757 0.3228 0.4061
Cl4? Cl 0.0090(3) 0.3698(2) 0.39451(17)
loop_
_geom_bond_atom_site_label_1
_geom_bond_atom_site_label_2
_geom_bond_site_symmetry_1
_geom_bond_site_symmetry_2
Cl1 C1 1_555 1_555
Cl2 C1 1_555 1_555
C1 H1 1_555 1_555
H2 C1 1_555 1_555
F1 C29 1_555 1_555
O1 N3 1_555 1_555
O2 N3 1_555 1_555
O3 C25 1_555 1_555
O4 C25 1_555 1_555
N1 C3 1_555 1_555
N2 C5 1_555 1_555
N3 C10 1_555 1_555
C3 H5 1_555 1_555
H6 C3 1_555 1_555
C4 C3 1_555 1_555
C5 C4 1_555 1_555
C6 N1 1_555 1_555
H7 C6 1_555 1_555
H8 C6 1_555 1_555
C7 N1 1_555 1_555
C8 C7 1_555 1_555
H9 C8 1_555 1_555
C9 C8 1_555 1_555
H10 C9 1_555 1_555
C10 C9 1_555 1_555
C11 C10 1_555 1_555
H11 C11 1_555 1_555
C12 C7 1_555 1_555
C13 N2 1_555 1_555
H12 C13 1_555 1_555
H13 C13 1_555 1_555
C14 C4 1_555 1_555
H14 C14 1_555 1_555
C15 C14 1_555 1_555
C16 C15 1_555 1_555
H15 C16 1_555 1_555
C17 C5 1_555 1_555
H16 C17 1_555 1_555
C18 C15 1_555 1_555
C19 C18 1_555 1_555
C20 C19 1_555 1_555
H17 C20 1_555 1_555
C21 C20 1_555 1_555
H18 C21 1_555 1_555
C22 C21 1_555 1_555
H19 C22 1_555 1_555
C23 C18 1_555 1_555
C24 C23 1_555 1_555
H20 C24 1_555 1_555
H21 C24 1_555 1_555
H22 C24 1_555 1_555
C25 C19 1_555 1_555
C26 O4 1_555 1_555
C27 C26 1_555 1_555
H23 C27 1_555 1_555
C28 C27 1_555 1_555
H24 C28 1_555 1_555
C29 C28 1_555 1_555
C30 C29 1_555 1_555
H25 C30 1_555 1_555
C31 C26 1_555 1_555
H26 C31 1_555 1_555
F2 C58 1_555 1_555
O5 N6 1_555 1_555
O6 N6 1_555 1_555
O7 C54 1_555 1_555
O8 C54 1_555 1_555
N4 C32 1_555 1_555
N5 C34 1_555 1_555
N6 C39 1_555 1_555
C32 H27 1_555 1_555
H28 C32 1_555 1_555
C33 C32 1_555 1_555
C34 C33 1_555 1_555
C35 N4 1_555 1_555
H29 C35 1_555 1_555
H30 C35 1_555 1_555
C36 N4 1_555 1_555
C37 C36 1_555 1_555
H31 C37 1_555 1_555
C38 C37 1_555 1_555
H32 C38 1_555 1_555
C39 C38 1_555 1_555
C40 C39 1_555 1_555
H33 C40 1_555 1_555
C41 C36 1_555 1_555
C42 N5 1_555 1_555
H34 C42 1_555 1_555
H35 C42 1_555 1_555
C43 C33 1_555 1_555
H36 C43 1_555 1_555
C44 C43 1_555 1_555
C45 C44 1_555 1_555
H37 C45 1_555 1_555
C46 C34 1_555 1_555
H38 C46 1_555 1_555
C47 C44 1_555 1_555
C48 C47 1_555 1_555
C49 C48 1_555 1_555
H39 C49 1_555 1_555
C50 C49 1_555 1_555
H40 C50 1_555 1_555
C51 C50 1_555 1_555
H41 C51 1_555 1_555
C52 C47 1_555 1_555
C53 C52 1_555 1_555
H42 C53 1_555 1_555
H43 C53 1_555 1_555
H44 C53 1_555 1_555
C54 C48 1_555 1_555
C55 O8 1_555 1_555
C56 C55 1_555 1_555
H45 C56 1_555 1_555
C57 C56 1_555 1_555
H46 C57 1_555 1_555
C58 C57 1_555 1_555
C59 C58 1_555 1_555
H47 C59 1_555 1_555
C60 C55 1_555 1_555
H48 C60 1_555 1_555
F3 C87 1_555 1_555
O9 N9 1_555 1_555
O10 N9 1_555 1_555
O11 C83 1_555 1_555
O12 C83 1_555 1_555
N7 C61 1_555 1_555
N8 C63 1_555 1_555
N9 C68 1_555 1_555
C61 H49 1_555 1_555
H50 C61 1_555 1_555
C62 C61 1_555 1_555
C63 C62 1_555 1_555
C64 N7 1_555 1_555
H51 C64 1_555 1_555
H52 C64 1_555 1_555
C65 N7 1_555 1_555
C66 C65 1_555 1_555
H53 C66 1_555 1_555
C67 C66 1_555 1_555
H54 C67 1_555 1_555
C68 C67 1_555 1_555
C69 C68 1_555 1_555
H55 C69 1_555 1_555
C70 C65 1_555 1_555
C71 N8 1_555 1_555
H56 C71 1_555 1_555
H57 C71 1_555 1_555
C72 C62 1_555 1_555
H58 C72 1_555 1_555
C73 C72 1_555 1_555
C74 C73 1_555 1_555
H59 C74 1_555 1_555
C75 C63 1_555 1_555
H60 C75 1_555 1_555
C76 C73 1_555 1_555
C77 C76 1_555 1_555
C78 C77 1_555 1_555
H61 C78 1_555 1_555
C79 C78 1_555 1_555
H62 C79 1_555 1_555
C80 C79 1_555 1_555
H63 C80 1_555 1_555
C81 C76 1_555 1_555
C82 C81 1_555 1_555
H64 C82 1_555 1_555
H65 C82 1_555 1_555
H66 C82 1_555 1_555
C83 C77 1_555 1_555
C84 O12 1_555 1_555
C85 C84 1_555 1_555
H67 C85 1_555 1_555
C86 C85 1_555 1_555
H68 C86 1_555 1_555
C87 C86 1_555 1_555
C88 C87 1_555 1_555
H69 C88 1_555 1_555
C89 C84 1_555 1_555
H70 C89 1_555 1_555
N2 C6 1_555 1_555
C11 C12 1_555 1_555
C12 C13 1_555 1_555
C16 C17 1_555 1_555
C22 C23 1_555 1_555
C30 C31 1_555 1_555
N5 C35 1_555 1_555
C40 C41 1_555 1_555
C41 C42 1_555 1_555
C45 C46 1_555 1_555
C51 C52 1_555 1_555
C59 C60 1_555 1_555
N8 C64 1_555 1_555
C69 C70 1_555 1_555
C70 C71 1_555 1_555
C74 C75 1_555 1_555
C80 C81 1_555 1_555
C88 C89 1_555 1_555

#END
