
#######################################################################
#
#                 Cambridge Crystallographic Data Centre
#                                CCDC 
#
#######################################################################
#
# If this CIF has been generated from an entry in the Cambridge 
# Structural Database, then it will include bibliographic, chemical, 
# crystal, experimental, refinement or atomic coordinate data resulting 
# from the CCDC's data processing and validation procedures.
#
#######################################################################

data_QIZGOX
_chemical_formula_moiety         'C30 H32 N1 O2 P1 S1'
_chemical_name_systematic        
N-((2-(Diphenylphosphino)phenyl)(4-methoxyphenyl)methyl)-2-methylpropane-2-sulfinamide
_symmetry_cell_setting           orthorhombic
_symmetry_space_group_name_H-M   'P 21 21 21'
_symmetry_Int_Tables_number      19
_space_group_name_Hall           'P 2ac 2ab'
loop_
_symmetry_equiv_pos_site_id
_symmetry_equiv_pos_as_xyz
1 x,y,z
2 1/2-x,-y,1/2+z
3 1/2+x,1/2-y,-z
4 -x,1/2+y,1/2-z
_cell_length_a                   8.8835(11)
_cell_length_b                   11.4075(14)
_cell_length_c                   25.969(3)
_cell_angle_alpha                90
_cell_angle_beta                 90
_cell_angle_gamma                90
_cell_volume                     2631.66
_exptl_crystal_colour            colorless
_exptl_crystal_description       block
_cell_formula_units_Z            4
loop_
_atom_site_label
_atom_site_type_symbol
_atom_site_fract_x
_atom_site_fract_y
_atom_site_fract_z
S1 S 1.12118(15) 0.09411(13) 0.00836(6)
P1 P 0.70562(17) -0.04555(14) 0.13500(7)
O1 O 1.0347(5) 0.5569(4) 0.20291(17)
O2 O 1.2408(4) 0.1859(4) 0.00434(18)
N1 N 0.9666(5) 0.1438(4) 0.03521(18)
H1 H 0.8991 0.1765 0.0150
C1 C 0.6569(6) -0.0980(5) 0.0708(2)
C2 C 0.5494(7) -0.0345(6) 0.0427(3)
H2 H 0.4994 0.0303 0.0581
C3 C 0.5169(7) -0.0661(6) -0.0069(3)
H3 H 0.4478 -0.0201 -0.0261
C4 C 0.5817(8) -0.1629(7) -0.0295(3)
H4 H 0.5557 -0.1842 -0.0637
C5 C 0.6860(8) -0.2295(6) -0.0019(3)
H5 H 0.7320 -0.2963 -0.0170
C6 C 0.7211(7) -0.1965(5) 0.0482(2)
H6 H 0.7906 -0.2422 0.0675
C7 C 0.6472(6) -0.1609(5) 0.1796(2)
C8 C 0.5559(7) -0.2547(5) 0.1661(3)
H7 H 0.5309 -0.2677 0.1310
C9 C 0.5008(8) -0.3299(6) 0.2038(3)
H8 H 0.4410 -0.3951 0.1938
C10 C 0.5305(8) -0.3126(7) 0.2552(3)
H9 H 0.4895 -0.3631 0.2807
C11 C 0.6226(9) -0.2188(7) 0.2686(3)
H10 H 0.6481 -0.2065 0.3038
C12 C 0.6772(7) -0.1434(6) 0.2314(3)
H11 H 0.7366 -0.0782 0.2416
C13 C 0.9101(6) -0.0612(5) 0.1349(2)
C14 C 0.9841(6) -0.1592(5) 0.1559(2)
H12 H 0.9255 -0.2233 0.1679
C15 C 1.1382(7) -0.1654(5) 0.1596(2)
H13 H 1.1849 -0.2336 0.1732
C16 C 1.2245(7) -0.0722(5) 0.1436(2)
H14 H 1.3309 -0.0754 0.1470
C17 C 1.1570(6) 0.0267(5) 0.1225(2)
H15 H 1.2172 0.0916 0.1125
C18 C 1.0008(6) 0.0309(5) 0.1161(2)
C19 C 0.9323(6) 0.1377(4) 0.0904(2)
H16 H 0.8210 0.1258 0.0924
C20 C 0.9626(6) 0.2493(5) 0.1200(2)
C21 C 0.8803(8) 0.2705(5) 0.1644(2)
H17 H 0.8084 0.2142 0.1755
C22 C 0.9003(7) 0.3716(5) 0.1931(2)
H18 H 0.8408 0.3855 0.2229
C23 C 1.0082(7) 0.4523(5) 0.1779(2)
C24 C 1.0918(7) 0.4318(5) 0.1340(3)
H19 H 1.1648 0.4875 0.1232
C25 C 1.0701(7) 0.3313(5) 0.1057(3)
H20 H 1.1297 0.3178 0.0759
C26 C 1.0507(6) 0.0750(5) -0.0578(2)
C27 C 0.9205(7) -0.0106(6) -0.0551(3)
H21 H 0.8911 -0.0336 -0.0900
H22 H 0.8350 0.0267 -0.0378
H23 H 0.9513 -0.0803 -0.0357
C28 C 1.0082(8) 0.1930(6) -0.0811(3)
H24 H 0.9860 0.1831 -0.1178
H25 H 1.0922 0.2479 -0.0769
H26 H 0.9191 0.2240 -0.0634
C29 C 1.1813(6) 0.0213(5) -0.0871(2)
H27 H 1.1543 0.0134 -0.1235
H28 H 1.2043 -0.0562 -0.0728
H29 H 1.2699 0.0720 -0.0839
C30 C 0.9367(8) 0.5868(6) 0.2434(3)
H30 H 0.9581 0.6669 0.2549
H31 H 0.9513 0.5323 0.2722
H32 H 0.8323 0.5821 0.2314
loop_
_geom_bond_atom_site_label_1
_geom_bond_atom_site_label_2
_geom_bond_site_symmetry_1
_geom_bond_site_symmetry_2
S1 O2 1_555 1_555
P1 C1 1_555 1_555
O1 C23 1_555 1_555
N1 S1 1_555 1_555
H1 N1 1_555 1_555
C1 C2 1_555 1_555
C2 H2 1_555 1_555
C3 C2 1_555 1_555
H3 C3 1_555 1_555
C4 C3 1_555 1_555
H4 C4 1_555 1_555
C5 C4 1_555 1_555
H5 C5 1_555 1_555
C6 C1 1_555 1_555
H6 C6 1_555 1_555
C7 P1 1_555 1_555
C8 C7 1_555 1_555
H7 C8 1_555 1_555
C9 C8 1_555 1_555
H8 C9 1_555 1_555
C10 C9 1_555 1_555
H9 C10 1_555 1_555
C11 C10 1_555 1_555
H10 C11 1_555 1_555
C12 C7 1_555 1_555
H11 C12 1_555 1_555
C13 P1 1_555 1_555
C14 C13 1_555 1_555
H12 C14 1_555 1_555
C15 C14 1_555 1_555
H13 C15 1_555 1_555
C16 C15 1_555 1_555
H14 C16 1_555 1_555
C17 C16 1_555 1_555
H15 C17 1_555 1_555
C18 C13 1_555 1_555
C19 N1 1_555 1_555
H16 C19 1_555 1_555
C20 C19 1_555 1_555
C21 C20 1_555 1_555
H17 C21 1_555 1_555
C22 C21 1_555 1_555
H18 C22 1_555 1_555
C23 C22 1_555 1_555
C24 C23 1_555 1_555
H19 C24 1_555 1_555
C25 C20 1_555 1_555
H20 C25 1_555 1_555
C26 S1 1_555 1_555
C27 C26 1_555 1_555
H21 C27 1_555 1_555
H22 C27 1_555 1_555
H23 C27 1_555 1_555
C28 C26 1_555 1_555
H24 C28 1_555 1_555
H25 C28 1_555 1_555
H26 C28 1_555 1_555
C29 C26 1_555 1_555
H27 C29 1_555 1_555
H28 C29 1_555 1_555
H29 C29 1_555 1_555
C30 O1 1_555 1_555
H30 C30 1_555 1_555
H31 C30 1_555 1_555
H32 C30 1_555 1_555
C5 C6 1_555 1_555
C11 C12 1_555 1_555
C17 C18 1_555 1_555
C18 C19 1_555 1_555
C24 C25 1_555 1_555

#END
