
#######################################################################
#
#                 Cambridge Crystallographic Data Centre
#                                CCDC 
#
#######################################################################
#
# If this CIF has been generated from an entry in the Cambridge 
# Structural Database, then it will include bibliographic, chemical, 
# crystal, experimental, refinement or atomic coordinate data resulting 
# from the CCDC's data processing and validation procedures.
#
#######################################################################

data_QIZJIS
_chemical_formula_moiety         'C8 H9 N1 O3 S1'
_chemical_name_systematic        
trans-N-methylsulfonyl-3-phenyl-1,2-oxaziridine
_symmetry_cell_setting           monoclinic
_symmetry_space_group_name_H-M   'C c'
_symmetry_Int_Tables_number      9
_space_group_name_Hall           'C -2yc'
loop_
_symmetry_equiv_pos_site_id
_symmetry_equiv_pos_as_xyz
1 x,y,z
2 x,-y,1/2+z
3 1/2+x,1/2+y,z
4 1/2+x,1/2-y,1/2+z
_cell_length_a                   18.871(2)
_cell_length_b                   5.073(2)
_cell_length_c                   9.761(2)
_cell_angle_alpha                90
_cell_angle_beta                 94.55(2)
_cell_angle_gamma                90
_cell_volume                     931.501
_exptl_crystal_colour            colorless
_cell_formula_units_Z            4
loop_
_atom_site_label
_atom_site_type_symbol
_atom_site_fract_x
_atom_site_fract_y
_atom_site_fract_z
S1 S 0.2820 -0.1176(2) 0.4019
O1 O 0.3822(2) 0.1590(8) 0.2957(4)
O2 O 0.2433(2) 0.1243(6) 0.4000(4)
O3 O 0.2828(2) -0.2830(8) 0.5194(4)
N1 N 0.3722(2) -0.0710(9) 0.3877(5)
C1 C 0.3970(3) 0.186(1) 0.4404(5)
C2 C 0.4704(3) 0.210(1) 0.4981(5)
C3 C 0.4868(3) 0.393(1) 0.6002(7)
C4 C 0.5561(4) 0.421(1) 0.6571(8)
C5 C 0.6093(3) 0.267(1) 0.6115(8)
C6 C 0.5934(3) 0.087(1) 0.5112(8)
C7 C 0.5247(3) 0.056(1) 0.4518(7)
C8 C 0.2594(3) -0.295(1) 0.2511(5)
H1 H 0.3632 0.2858 0.4858
H2 H 0.4502 0.5016 0.6315
H3 H 0.5669 0.5463 0.7280
H4 H 0.6568 0.2860 0.6499
H5 H 0.6303 -0.0203 0.4806
H6 H 0.5147 -0.0694 0.3805
H7 H 0.2100 -0.3328 0.2445
H8 H 0.2706 -0.1930 0.1740
H9 H 0.2856 -0.4550 0.2530
loop_
_geom_bond_atom_site_label_1
_geom_bond_atom_site_label_2
_geom_bond_site_symmetry_1
_geom_bond_site_symmetry_2
S1 O2 1_555 1_555
O1 N1 1_555 1_555
O3 S1 1_555 1_555
N1 S1 1_555 1_555
C1 O1 1_555 1_555
C2 C1 1_555 1_555
C3 C2 1_555 1_555
C4 C3 1_555 1_555
C5 C4 1_555 1_555
C6 C5 1_555 1_555
C7 C2 1_555 1_555
C8 S1 1_555 1_555
H1 C1 1_555 1_555
H2 C3 1_555 1_555
H3 C4 1_555 1_555
H4 C5 1_555 1_555
H5 C6 1_555 1_555
H6 C7 1_555 1_555
H7 C8 1_555 1_555
H8 C8 1_555 1_555
H9 C8 1_555 1_555
N1 C1 1_555 1_555
C6 C7 1_555 1_555

#END
