
#######################################################################
#
#                 Cambridge Crystallographic Data Centre
#                                CCDC 
#
#######################################################################
#
# If this CIF has been generated from an entry in the Cambridge 
# Structural Database, then it will include bibliographic, chemical, 
# crystal, experimental, refinement or atomic coordinate data resulting 
# from the CCDC's data processing and validation procedures.
#
#######################################################################

data_QIZKER
_chemical_name_common            
'4-(Trifluoromethyl)phenyl 2-(8-bromo-6,12-dihydro-5,11-methanodibenzo[b,f][1,5]diazocin-2-yl)-3-methylbenzoate'
_chemical_formula_moiety         'C30 H22 Br1 F3 N2 O2'
_chemical_name_systematic        
'4-(Trifluoromethyl)phenyl 2-(13-bromo-1,9-diazatetracyclo[7.7.1.0^2,7^.0^10,15^]heptadeca-2,4,6,10,12,14-hexaen-5-yl)-3-methylbenzoate'
_symmetry_cell_setting           orthorhombic
_symmetry_space_group_name_H-M   'F d d 2'
_symmetry_Int_Tables_number      43
_space_group_name_Hall           'F 2 -2d'
loop_
_symmetry_equiv_pos_site_id
_symmetry_equiv_pos_as_xyz
1 x,y,z
2 -x,-y,z
3 1/4-x,1/4+y,1/4+z
4 1/4+x,1/4-y,1/4+z
5 x,1/2+y,1/2+z
6 -x,1/2-y,1/2+z
7 1/4-x,3/4+y,3/4+z
8 1/4+x,3/4-y,3/4+z
9 1/2+x,y,1/2+z
10 1/2-x,-y,1/2+z
11 3/4-x,1/4+y,3/4+z
12 3/4+x,1/4-y,3/4+z
13 1/2+x,1/2+y,z
14 1/2-x,1/2-y,z
15 3/4-x,3/4+y,1/4+z
16 3/4+x,3/4-y,1/4+z
_cell_length_a                   24.995(3)
_cell_length_b                   38.166(4)
_cell_length_c                   10.4450(11)
_cell_angle_alpha                90
_cell_angle_beta                 90
_cell_angle_gamma                90
_cell_volume                     9964.1
_exptl_crystal_colour            yellow
_exptl_crystal_description       prism
_chemical_melting_point          '451-453 K'
_cell_formula_units_Z            16
loop_
_atom_site_label
_atom_site_type_symbol
_atom_site_fract_x
_atom_site_fract_y
_atom_site_fract_z
Br1 Br 0.36676(2) 0.03784(2) 1.12358(3)
F1 F 0.40927(13) 0.17800(6) 1.0405(2)
F2 F 0.43799(8) 0.12951(7) 0.96843(18)
F3 F 0.36866(8) 0.13066(7) 1.08147(18)
O1 O 0.28073(7) 0.16263(5) 0.52530(15)
O2 O 0.35579(8) 0.18569(5) 0.44049(17)
N1 N 0.38114(8) 0.01614(6) 0.54630(19)
N2 N 0.28526(8) 0.00883(5) 0.53164(19)
C1 C 0.39390(12) 0.14803(8) 0.9905(2)
C2 C 0.36088(10) 0.15253(7) 0.8717(2)
C3 C 0.34346(11) 0.12292(7) 0.8061(2)
H1 H 0.3505 0.1002 0.8396
C4 C 0.31579(11) 0.12660(7) 0.6916(2)
H2 H 0.3031 0.1066 0.6468
C5 C 0.30699(10) 0.15997(6) 0.6440(2)
C6 C 0.31173(10) 0.17408(6) 0.4252(2)
C7 C 0.28460(10) 0.17038(6) 0.2988(2)
C8 C 0.26458(10) 0.13799(6) 0.2571(2)
C9 C 0.26971(10) 0.10592(6) 0.3388(2)
C10 C 0.32037(9) 0.09257(6) 0.3657(2)
H3 H 0.3511 0.1048 0.3363
C11 C 0.32670(10) 0.06131(6) 0.4358(2)
C12 C 0.38257(10) 0.04758(7) 0.4649(2)
H4 H 0.4009 0.0419 0.3835
H5 H 0.4034 0.0661 0.5086
C13 C 0.37598(10) 0.02352(7) 0.6806(2)
C14 C 0.32692(10) 0.01867(6) 0.7444(2)
C15 C 0.32485(10) 0.02346(6) 0.8769(2)
H6 H 0.2922 0.0201 0.9219
C16 C 0.37080(11) 0.03310(7) 0.9424(2)
C17 C 0.42072(11) 0.03450(6) 0.7484(2)
H7 H 0.4533 0.0387 0.7040
C18 C 0.41868(10) 0.03945(6) 0.8806(2)
H8 H 0.4493 0.0470 0.9269
C19 C 0.22478(10) 0.08828(6) 0.3857(2)
H9 H 0.1900 0.0976 0.3710
C20 C 0.23071(11) 0.05736(7) 0.4535(2)
H10 H 0.1999 0.0456 0.4852
C21 C 0.28126(10) 0.04325(6) 0.4757(2)
C22 C 0.33749(10) -0.00660(6) 0.5031(2)
H11 H 0.3407 -0.0104 0.4097
H12 H 0.3404 -0.0296 0.5461
C23 C 0.27720(10) 0.00772(7) 0.6714(2)
H13 H 0.2672 -0.0164 0.6970
H14 H 0.2473 0.0235 0.6947
C24 C 0.28390(10) 0.19997(7) 0.2196(2)
H15 H 0.2979 0.2217 0.2490
C25 C 0.26251(10) 0.19708(7) 0.0976(2)
H16 H 0.2611 0.2171 0.0435
C26 C 0.24303(10) 0.16510(7) 0.0541(2)
H17 H 0.2288 0.1635 -0.0301
C27 C 0.24397(10) 0.13530(6) 0.1320(2)
C28 C 0.22629(12) 0.10030(7) 0.0771(2)
H18 H 0.2207 0.1026 -0.0153
H19 H 0.1928 0.0930 0.1181
H20 H 0.2540 0.0827 0.0932
C29 C 0.34968(11) 0.18572(7) 0.8250(2)
H21 H 0.3607 0.2058 0.8718
C30 C 0.32240(11) 0.18976(7) 0.7096(2)
H22 H 0.3146 0.2124 0.6768
loop_
_geom_bond_atom_site_label_1
_geom_bond_atom_site_label_2
_geom_bond_site_symmetry_1
_geom_bond_site_symmetry_2
Br1 C16 1_555 1_555
F1 C1 1_555 1_555
F2 C1 1_555 1_555
F3 C1 1_555 1_555
O1 C5 1_555 1_555
O2 C6 1_555 1_555
N1 C12 1_555 1_555
N2 C21 1_555 1_555
C1 C2 1_555 1_555
C2 C3 1_555 1_555
C3 H1 1_555 1_555
C4 C3 1_555 1_555
H2 C4 1_555 1_555
C5 C4 1_555 1_555
C6 O1 1_555 1_555
C7 C6 1_555 1_555
C8 C7 1_555 1_555
C9 C8 1_555 1_555
C10 C9 1_555 1_555
H3 C10 1_555 1_555
C11 C10 1_555 1_555
C12 C11 1_555 1_555
H4 C12 1_555 1_555
H5 C12 1_555 1_555
C13 N1 1_555 1_555
C14 C13 1_555 1_555
C15 C14 1_555 1_555
H6 C15 1_555 1_555
C16 C15 1_555 1_555
C17 C13 1_555 1_555
H7 C17 1_555 1_555
C18 C16 1_555 1_555
H8 C18 1_555 1_555
C19 C9 1_555 1_555
H9 C19 1_555 1_555
C20 C19 1_555 1_555
H10 C20 1_555 1_555
C21 C11 1_555 1_555
C22 N1 1_555 1_555
H11 C22 1_555 1_555
H12 C22 1_555 1_555
C23 N2 1_555 1_555
H13 C23 1_555 1_555
H14 C23 1_555 1_555
C24 C7 1_555 1_555
H15 C24 1_555 1_555
C25 C24 1_555 1_555
H16 C25 1_555 1_555
C26 C25 1_555 1_555
H17 C26 1_555 1_555
C27 C8 1_555 1_555
C28 C27 1_555 1_555
H18 C28 1_555 1_555
H19 C28 1_555 1_555
H20 C28 1_555 1_555
C29 C2 1_555 1_555
H21 C29 1_555 1_555
C30 C5 1_555 1_555
H22 C30 1_555 1_555
N2 C22 1_555 1_555
C14 C23 1_555 1_555
C17 C18 1_555 1_555
C20 C21 1_555 1_555
C26 C27 1_555 1_555
C29 C30 1_555 1_555

#END
