
#######################################################################
#
#                 Cambridge Crystallographic Data Centre
#                                CCDC 
#
#######################################################################
#
# If this CIF has been generated from an entry in the Cambridge 
# Structural Database, then it will include bibliographic, chemical, 
# crystal, experimental, refinement or atomic coordinate data resulting 
# from the CCDC's data processing and validation procedures.
#
#######################################################################

data_QIZKUH
_chemical_name_common            
'(+-)-3-(Trifluoromethyl)phenyl 3-methyl-2-((5R*,11R*)-8-nitro-6,12-dihydro-5,11-methanodibenzo[b,f][1,5]diazocin-2-yl)benzoate'
_chemical_formula_moiety         'C30 H22 F3 N3 O4'
_chemical_name_systematic        
'3-(Trifluoromethyl)phenyl 3-methyl-2-(13-nitro-1,9-diazatetracyclo[7.7.1.0^2,7^.0^10,15^]heptadeca-2,4,6,10,12,14-hexaen-5-yl)benzoate'
_symmetry_cell_setting           monoclinic
_symmetry_space_group_name_H-M   'P 21/c'
_symmetry_Int_Tables_number      14
_space_group_name_Hall           '-P 2ybc'
loop_
_symmetry_equiv_pos_site_id
_symmetry_equiv_pos_as_xyz
1 x,y,z
2 -x,1/2+y,1/2-z
3 -x,-y,-z
4 x,1/2-y,1/2+z
_cell_length_a                   7.9981(5)
_cell_length_b                   19.5466(13)
_cell_length_c                   15.6986(12)
_cell_angle_alpha                90
_cell_angle_beta                 92.937(3)
_cell_angle_gamma                90
_cell_volume                     2451.03
_exptl_crystal_colour            yellow
_exptl_crystal_description       irregular
_chemical_melting_point          '353-356 K'
_cell_formula_units_Z            4
_exptl_crystal_recrystallization_method dichloromethane/n-pentane
loop_
_atom_site_label
_atom_site_type_symbol
_atom_site_fract_x
_atom_site_fract_y
_atom_site_fract_z
F1 F -0.56132(13) 0.34762(5) 0.54126(7)
F2 F -0.63551(12) 0.24649(6) 0.57499(8)
F3 F -0.45093(12) 0.30001(6) 0.65214(7)
O1 O 0.04225(13) 0.31154(5) 0.44512(8)
O2 O -0.26143(18) -0.09792(8) 0.49424(10)
O3 O -0.07848(14) 0.41546(6) 0.42984(9)
O4 O -0.44931(17) -0.04637(8) 0.41357(11)
N1 N 0.20480(17) 0.05211(7) 0.24280(10)
N2 N -0.3034(2) -0.06020(8) 0.43437(12)
N3 N 0.00963(17) 0.12848(7) 0.16913(10)
C1 C -0.5043(2) 0.28756(9) 0.57110(12)
C2 C -0.36777(19) 0.25957(8) 0.52021(11)
C3 C -0.23280(19) 0.30187(8) 0.50567(11)
H1 H -0.2296 0.3476 0.5260
C4 C -0.10401(19) 0.27572(8) 0.46104(11)
C5 C 0.0399(2) 0.37869(8) 0.42372(11)
C6 C 0.20575(19) 0.40052(8) 0.39490(11)
C7 C 0.30001(19) 0.36079(8) 0.34056(11)
C8 C 0.22588(19) 0.29843(8) 0.29899(11)
C9 C 0.29783(19) 0.23442(8) 0.30843(11)
H2 H 0.3982 0.2296 0.3430
C10 C 0.22717(19) 0.17689(8) 0.26867(11)
C11 C 0.30889(19) 0.10738(8) 0.28116(12)
H3 H 0.4190 0.1076 0.2550
H4 H 0.3284 0.0985 0.3430
C12 C 0.0764(2) 0.02794(8) 0.29474(12)
C13 C 0.1180(2) -0.01614(9) 0.36183(12)
H5 H 0.2322 -0.0263 0.3761
C14 C -0.0059(2) -0.04535(9) 0.40795(13)
H6 H 0.0214 -0.0755 0.4541
C15 C -0.1711(2) -0.02962(9) 0.38525(13)
C16 C -0.3742(2) 0.19311(8) 0.49111(12)
H7 H -0.4675 0.1648 0.5014
C17 C -0.2421(2) 0.16830(9) 0.44654(13)
H8 H -0.2449 0.1225 0.4261
C18 C -0.1064(2) 0.20937(8) 0.43145(12)
H9 H -0.0158 0.1921 0.4010
C19 C 0.2653(2) 0.46259(8) 0.42674(12)
H10 H 0.1997 0.4892 0.4631
C20 C 0.4211(2) 0.48543(9) 0.40502(12)
H11 H 0.4624 0.5281 0.4260
C21 C 0.5158(2) 0.44646(9) 0.35328(12)
H12 H 0.6235 0.4624 0.3398
C22 C 0.4592(2) 0.38436(9) 0.32002(12)
C23 C 0.0775(2) 0.30463(8) 0.24866(11)
H13 H 0.0250 0.3480 0.2423
C24 C 0.0068(2) 0.24861(9) 0.20822(11)
H14 H -0.0940 0.2536 0.1741
C25 C 0.0815(2) 0.18469(8) 0.21684(11)
C26 C -0.0908(2) 0.04550(8) 0.27479(12)
C27 C -0.1370(2) 0.09829(9) 0.20780(13)
H15 H -0.2098 0.0768 0.1624
H16 H -0.2020 0.1352 0.2339
C28 C 0.1336(2) 0.07490(9) 0.16022(12)
H17 H 0.2244 0.0922 0.1255
H18 H 0.0807 0.0355 0.1297
C29 C -0.2151(2) 0.01458(8) 0.32043(12)
H19 H -0.3298 0.0241 0.3066
C30 C 0.5679(2) 0.34557(10) 0.26139(14)
H20 H 0.6555 0.3759 0.2417
H21 H 0.4994 0.3288 0.2122
H22 H 0.6196 0.3067 0.2921
loop_
_geom_bond_atom_site_label_1
_geom_bond_atom_site_label_2
_geom_bond_site_symmetry_1
_geom_bond_site_symmetry_2
F1 C1 1_555 1_555
F2 C1 1_555 1_555
F3 C1 1_555 1_555
O1 C4 1_555 1_555
O2 N2 1_555 1_555
O3 C5 1_555 1_555
O4 N2 1_555 1_555
N1 C11 1_555 1_555
N2 C15 1_555 1_555
N3 C25 1_555 1_555
C1 C2 1_555 1_555
C2 C3 1_555 1_555
C3 H1 1_555 1_555
C4 C3 1_555 1_555
C5 O1 1_555 1_555
C6 C5 1_555 1_555
C7 C6 1_555 1_555
C8 C7 1_555 1_555
C9 C8 1_555 1_555
H2 C9 1_555 1_555
C10 C9 1_555 1_555
C11 C10 1_555 1_555
H3 C11 1_555 1_555
H4 C11 1_555 1_555
C12 N1 1_555 1_555
C13 C12 1_555 1_555
H5 C13 1_555 1_555
C14 C13 1_555 1_555
H6 C14 1_555 1_555
C15 C14 1_555 1_555
C16 C2 1_555 1_555
H7 C16 1_555 1_555
C17 C16 1_555 1_555
H8 C17 1_555 1_555
C18 C4 1_555 1_555
H9 C18 1_555 1_555
C19 C6 1_555 1_555
H10 C19 1_555 1_555
C20 C19 1_555 1_555
H11 C20 1_555 1_555
C21 C20 1_555 1_555
H12 C21 1_555 1_555
C22 C7 1_555 1_555
C23 C8 1_555 1_555
H13 C23 1_555 1_555
C24 C23 1_555 1_555
H14 C24 1_555 1_555
C25 C10 1_555 1_555
C26 C12 1_555 1_555
C27 N3 1_555 1_555
H15 C27 1_555 1_555
H16 C27 1_555 1_555
C28 N1 1_555 1_555
H17 C28 1_555 1_555
H18 C28 1_555 1_555
C29 C15 1_555 1_555
H19 C29 1_555 1_555
C30 C22 1_555 1_555
H20 C30 1_555 1_555
H21 C30 1_555 1_555
H22 C30 1_555 1_555
N3 C28 1_555 1_555
C17 C18 1_555 1_555
C21 C22 1_555 1_555
C24 C25 1_555 1_555
C26 C27 1_555 1_555
C26 C29 1_555 1_555

#END
