
#######################################################################
#
#                 Cambridge Crystallographic Data Centre
#                                CCDC 
#
#######################################################################
#
# If this CIF has been generated from an entry in the Cambridge 
# Structural Database, then it will include bibliographic, chemical, 
# crystal, experimental, refinement or atomic coordinate data resulting 
# from the CCDC's data processing and validation procedures.
#
#######################################################################

data_QIZTUQ
_chemical_formula_moiety         'C13 H19 B1 N4 O3'
_chemical_name_systematic        
1-ethanol-10,10-diethyl-6,8-dioxo-7,8-dihydro-6H,10H-10-imidazo[2',1':3,4][1,4,2]diazaborata[1,5-c]pyrimidin-1-ium
_symmetry_cell_setting           monoclinic
_symmetry_space_group_name_H-M   'P 21/n'
_symmetry_Int_Tables_number      14
_space_group_name_Hall           '-P 2yn'
loop_
_symmetry_equiv_pos_site_id
_symmetry_equiv_pos_as_xyz
1 x,y,z
2 1/2-x,1/2+y,1/2-z
3 -x,-y,-z
4 1/2+x,1/2-y,1/2+z
_cell_length_a                   8.6058(4)
_cell_length_b                   7.5126(3)
_cell_length_c                   22.4696(8)
_cell_angle_alpha                90
_cell_angle_beta                 97.873(2)
_cell_angle_gamma                90
_cell_volume                     1439.01
_exptl_crystal_colour            colorless
_exptl_crystal_description       blocks
_cell_formula_units_Z            4
loop_
_atom_site_label
_atom_site_type_symbol
_atom_site_fract_x
_atom_site_fract_y
_atom_site_fract_z
B1 B 0.7177(4) 0.6358(5) 0.36511(13)
N1 N 0.7148(3) 0.7307(3) 0.42986(10)
C1 C 0.8345(3) 0.8262(4) 0.46082(13)
O1 O 0.9614(2) 0.8462(3) 0.44256(10)
N2 N 0.8051(3) 0.8983(3) 0.51473(10)
H1 H 0.880(3) 0.966(4) 0.5335(14)
C2 C 0.6695(3) 0.8796(4) 0.54085(12)
O2 O 0.6606(3) 0.9477(3) 0.59018(9)
C3 C 0.5458(3) 0.7830(4) 0.50549(11)
H2 H 0.4475 0.7641 0.5192
C4 C 0.5753(3) 0.7205(3) 0.45202(11)
N3 N 0.4699(3) 0.6294(3) 0.40908(10)
C5 C 0.3117(3) 0.5859(4) 0.40233(14)
H3 H 0.2381 0.6134 0.4289
C6 C 0.2852(3) 0.4965(5) 0.35018(16)
H4 H 0.1876 0.4475 0.3329
N4 N 0.4256(3) 0.4879(4) 0.32571(11)
C7 C 0.5374(3) 0.5710(4) 0.36176(11)
C8 C 0.4522(4) 0.4016(6) 0.26894(16)
H5 H 0.3806 0.2985 0.2611
H6 H 0.5613 0.3566 0.2729
C9 C 0.4236(6) 0.5342(7) 0.2144(2)
H7 H 0.4947 0.6379 0.2216
H8 H 0.4452 0.4741 0.1771
O3 O 0.2662(6) 0.5909(7) 0.2080(2)
H9 H 0.2492 0.6620 0.1790
C10 C 0.8446(3) 0.4776(5) 0.36909(14)
H10 H 0.8351 0.4183 0.3294
H11 H 0.9505 0.5312 0.3766
C11 C 0.8335(5) 0.3361(6) 0.41641(19)
H12 H 0.9160 0.2471 0.4146
H13 H 0.7306 0.2782 0.4090
H14 H 0.8468 0.3914 0.4563
C12 C 0.7351(5) 0.7837(5) 0.31457(15)
H15 H 0.8442 0.8287 0.3211
H16 H 0.7194 0.7242 0.2749
C13 C 0.6268(7) 0.9403(5) 0.31178(19)
H17 H 0.6481 1.0202 0.2794
H18 H 0.6435 1.0043 0.3501
H19 H 0.5179 0.8990 0.3040
H20? H 0.4757 0.2741 0.2770
H21? H 0.5456 0.4560 0.2550
C14? C 0.3134(9) 0.4156(10) 0.2183(3)
H22? H 0.3223 0.3300 0.1854
H23? H 0.2113 0.4000 0.2332
O4? O 0.3379(12) 0.5955(10) 0.2006(4)
H24? H 0.2689 0.6235 0.1720
loop_
_geom_bond_atom_site_label_1
_geom_bond_atom_site_label_2
_geom_bond_site_symmetry_1
_geom_bond_site_symmetry_2
B1 N1 1_555 1_555
N1 C1 1_555 1_555
C1 O1 1_555 1_555
N2 C1 1_555 1_555
H1 N2 1_555 1_555
C2 N2 1_555 1_555
O2 C2 1_555 1_555
C3 C2 1_555 1_555
H2 C3 1_555 1_555
C4 N1 1_555 1_555
N3 C4 1_555 1_555
C5 N3 1_555 1_555
H3 C5 1_555 1_555
C6 C5 1_555 1_555
H4 C6 1_555 1_555
N4 C6 1_555 1_555
C7 B1 1_555 1_555
C8 N4 1_555 1_555
H5 C8 1_555 1_555
H6 C8 1_555 1_555
C9 C8 1_555 1_555
H7 C9 1_555 1_555
H8 C9 1_555 1_555
O3 C9 1_555 1_555
H9 O3 1_555 1_555
C10 B1 1_555 1_555
H10 C10 1_555 1_555
H11 C10 1_555 1_555
C11 C10 1_555 1_555
H12 C11 1_555 1_555
H13 C11 1_555 1_555
H14 C11 1_555 1_555
C12 B1 1_555 1_555
H15 C12 1_555 1_555
H16 C12 1_555 1_555
C13 C12 1_555 1_555
H17 C13 1_555 1_555
H18 C13 1_555 1_555
H19 C13 1_555 1_555
C3 C4 1_555 1_555
N3 C7 1_555 1_555
N4 C7 1_555 1_555

#END
