
#######################################################################
#
#                 Cambridge Crystallographic Data Centre
#                                CCDC 
#
#######################################################################
#
# If this CIF has been generated from an entry in the Cambridge 
# Structural Database, then it will include bibliographic, chemical, 
# crystal, experimental, refinement or atomic coordinate data resulting 
# from the CCDC's data processing and validation procedures.
#
#######################################################################

data_QOBJOH
_chemical_formula_moiety         'C10 H9 N2 1+,Cl1 O4 1-,2(H2 O1)'
_chemical_name_systematic        "4,4'-bipyridin-1-ium perchlorate dihydrate"
_symmetry_cell_setting           triclinic
_symmetry_space_group_name_H-M   'P -1'
_symmetry_Int_Tables_number      2
_space_group_name_Hall           '-P 1'
loop_
_symmetry_equiv_pos_site_id
_symmetry_equiv_pos_as_xyz
1 x,y,z
2 -x,-y,-z
_cell_length_a                   8.122(3)
_cell_length_b                   9.726(3)
_cell_length_c                   17.648(6)
_cell_angle_alpha                78.181(4)
_cell_angle_beta                 82.797(5)
_cell_angle_gamma                67.439(4)
_cell_volume                     1258.42
_exptl_crystal_colour            colorless
_exptl_crystal_description       block
_cell_formula_units_Z            4
loop_
_atom_site_label
_atom_site_type_symbol
_atom_site_fract_x
_atom_site_fract_y
_atom_site_fract_z
C1 C 0.7030(3) -0.1455(2) 0.43600(12)
H1 H 0.6745 -0.1687 0.3920
C2 C 0.6996(3) -0.0019(2) 0.43361(11)
H2 H 0.6676 0.0702 0.3890
C3 C 0.7897(3) -0.2193(2) 0.56106(12)
H3 H 0.8226 -0.2943 0.6045
C4 C 0.7885(3) -0.0782(2) 0.56345(11)
H4 H 0.8171 -0.0584 0.6085
C5 C 0.7445(3) 0.03458(19) 0.49842(11)
C6 C 0.7400(3) 0.1886(2) 0.49849(11)
C7 C 0.7504(3) 0.2847(2) 0.42980(11)
H5 H 0.7580 0.2538 0.3826
C8 C 0.7496(3) 0.4245(2) 0.43146(12)
H6 H 0.7579 0.4878 0.3851
C9 C 0.7250(3) 0.2425(2) 0.56663(12)
H7 H 0.7147 0.1824 0.6139
C10 C 0.7251(3) 0.3848(2) 0.56495(13)
H8 H 0.7166 0.4199 0.6111
N1 N 0.7451(2) -0.25190(18) 0.49847(10)
N2 N 0.7373(2) 0.47169(19) 0.49787(11)
H9 H 0.736(3) 0.558(3) 0.4983(13)
C11 C 0.1897(3) 0.3917(2) 1.06537(12)
H10 H 0.1567 0.4351 1.1099
C12 C 0.1859(3) 0.2509(2) 1.06717(12)
H11 H 0.1487 0.2001 1.1124
C13 C 0.2891(3) 0.4072(2) 0.93696(13)
H12 H 0.3250 0.4612 0.8926
C14 C 0.2882(3) 0.2678(2) 0.93501(12)
H13 H 0.3215 0.2284 0.8892
C15 C 0.2381(3) 0.1847(2) 1.00078(11)
C16 C 0.2399(2) 0.0316(2) 1.00118(11)
C17 C 0.2545(3) -0.0724(2) 1.06857(11)
H14 H 0.2614 -0.0468 1.1157
C18 C 0.2588(3) -0.2144(2) 1.06580(12)
H15 H 0.2715 -0.2839 1.1116
C19 C 0.2273(3) -0.0134(2) 0.93332(12)
H16 H 0.2162 0.0530 0.8864
C20 C 0.2312(3) -0.1566(2) 0.93568(13)
H17 H 0.2234 -0.1853 0.8895
N3 N 0.2397(2) 0.4665(2) 1.00114(11)
H18 H 0.234(3) 0.553(3) 1.0026(14)
N4 N 0.2456(2) -0.25554(18) 1.00058(10)
Cl1 Cl 0.54921(7) 0.69362(5) 0.75786(3)
O1 O 0.4034(2) 0.83633(18) 0.75434(10)
O2 O 0.5500(3) 0.6306(2) 0.69159(10)
O3 O 0.7136(2) 0.71819(18) 0.75654(9)
O4 O 0.5314(2) 0.59401(18) 0.82733(9)
Cl2 Cl 0.99399(7) 0.29492(5) 0.74160(3)
O5 O 0.9955(3) 0.3544(2) 0.80887(10)
O6 O 1.1356(2) 0.15089(18) 0.74410(10)
O7 O 1.0138(2) 0.39562(18) 0.67291(10)
O8 O 0.8269(2) 0.27434(18) 0.74217(9)
O9 O 0.1083(3) 0.6266(2) 0.76175(13)
H19 H 0.2080(18) 0.557(2) 0.7546(14)
H20 H 0.028(3) 0.595(4) 0.755(3)
O10 O 0.4202(3) 0.3755(2) 0.74404(14)
H21 H 0.454(3) 0.2815(9) 0.7431(15)
H22 H 0.513(2) 0.397(3) 0.7393(18)
O11 O 0.5715(4) 0.0677(2) 0.75240(16)
H23 H 0.6845(8) 0.023(2) 0.7503(13)
H24 H 0.524(3) 0.004(2) 0.7526(17)
O12 O 0.9411(3) -0.0664(2) 0.74216(16)
H25 H 1.018(3) -0.1546(13) 0.7414(17)
H26 H 0.995(3) -0.007(2) 0.7418(16)
loop_
_geom_bond_atom_site_label_1
_geom_bond_atom_site_label_2
_geom_bond_site_symmetry_1
_geom_bond_site_symmetry_2
C1 H1 1_555 1_555
C2 C1 1_555 1_555
H2 C2 1_555 1_555
C3 H3 1_555 1_555
C4 C3 1_555 1_555
H4 C4 1_555 1_555
C5 C2 1_555 1_555
C6 C5 1_555 1_555
C7 C6 1_555 1_555
H5 C7 1_555 1_555
C8 C7 1_555 1_555
H6 C8 1_555 1_555
C9 C6 1_555 1_555
H7 C9 1_555 1_555
C10 C9 1_555 1_555
H8 C10 1_555 1_555
N1 C1 1_555 1_555
N2 C8 1_555 1_555
H9 N2 1_555 1_555
C11 H10 1_555 1_555
C12 C11 1_555 1_555
H11 C12 1_555 1_555
C13 H12 1_555 1_555
C14 C13 1_555 1_555
H13 C14 1_555 1_555
C15 C12 1_555 1_555
C16 C15 1_555 1_555
C17 C16 1_555 1_555
H14 C17 1_555 1_555
C18 C17 1_555 1_555
H15 C18 1_555 1_555
C19 C16 1_555 1_555
H16 C19 1_555 1_555
C20 C19 1_555 1_555
H17 C20 1_555 1_555
N3 C11 1_555 1_555
H18 N3 1_555 1_555
N4 C18 1_555 1_555
Cl1 O1 1_555 1_555
O2 Cl1 1_555 1_555
O3 Cl1 1_555 1_555
O4 Cl1 1_555 1_555
Cl2 O5 1_555 1_555
O6 Cl2 1_555 1_555
O7 Cl2 1_555 1_555
O8 Cl2 1_555 1_555
O9 H19 1_555 1_555
H20 O9 1_555 1_555
O10 H21 1_555 1_555
H22 O10 1_555 1_555
O11 H23 1_555 1_555
H24 O11 1_555 1_555
O12 H25 1_555 1_555
H26 O12 1_555 1_555
C3 N1 1_555 1_555
C4 C5 1_555 1_555
C10 N2 1_555 1_555
C13 N3 1_555 1_555
C14 C15 1_555 1_555
C20 N4 1_555 1_555

#END
