
#######################################################################
#
#                 Cambridge Crystallographic Data Centre
#                                CCDC 
#
#######################################################################
#
# If this CIF has been generated from an entry in the Cambridge 
# Structural Database, then it will include bibliographic, chemical, 
# crystal, experimental, refinement or atomic coordinate data resulting 
# from the CCDC's data processing and validation procedures.
#
#######################################################################

data_QOBMAX
_chemical_formula_moiety         'C15 H12 N3 O1 1+,N1 O3 1-'
_chemical_name_systematic        
'6-Oxo-6,7-dihydro-5H-[3,1]benzimidazo[1,2-d][1,4]benzodiazepin-13-ium nitrate'
_symmetry_cell_setting           triclinic
_symmetry_space_group_name_H-M   'P -1'
_symmetry_Int_Tables_number      2
_space_group_name_Hall           '-P 1'
loop_
_symmetry_equiv_pos_site_id
_symmetry_equiv_pos_as_xyz
1 x,y,z
2 -x,-y,-z
_cell_length_a                   7.187(5)
_cell_length_b                   8.453(5)
_cell_length_c                   12.382(5)
_cell_angle_alpha                93.382(5)
_cell_angle_beta                 95.364(5)
_cell_angle_gamma                107.885(5)
_cell_volume                     709.681
_cell_formula_units_Z            2
loop_
_atom_site_label
_atom_site_type_symbol
_atom_site_fract_x
_atom_site_fract_y
_atom_site_fract_z
C1 C 0.6770(2) 0.08682(16) 0.17433(11)
C2 C 0.55242(19) 0.18957(16) 0.13067(11)
H1 H 0.4895 0.1429 0.0581
H2 H 0.4503 0.1868 0.1772
C3 C 0.72034(19) 0.44853(17) 0.03555(10)
C4 C 0.6721(2) 0.3983(2) -0.07537(11)
H3 H 0.5974 0.2897 -0.1015
C5 C 0.7425(3) 0.5204(2) -0.14400(13)
H4 H 0.7132 0.4933 -0.2189
C6 C 0.8562(2) 0.6831(2) -0.10496(14)
H5 H 0.9014 0.7603 -0.1546
C7 C 0.9034(2) 0.73275(19) 0.00482(13)
H6 H 0.9792 0.8412 0.0306
C8 C 0.83110(19) 0.61120(17) 0.07494(11)
C9 C 0.75786(18) 0.46642(15) 0.21705(10)
C10 C 0.74588(18) 0.41755(16) 0.32751(10)
C11 C 0.74843(19) 0.25814(17) 0.35336(10)
C12 C 0.7471(2) 0.2224(2) 0.46197(12)
H7 H 0.749 0.1177 0.4802
C13 C 0.7430(3) 0.3407(2) 0.54234(12)
H8 H 0.7419 0.3147 0.6143
C14 C 0.7404(3) 0.4972(2) 0.51776(13)
H9 H 0.7378 0.5761 0.5727
C15 C 0.7418(2) 0.53569(18) 0.41107(11)
H10 H 0.7399 0.6411 0.3943
N1 N 0.76788(17) 0.13477(14) 0.27732(10)
H11 H 0.832(2) 0.070(2) 0.3046(14)
N2 N 0.67609(16) 0.36182(13) 0.12708(8)
N3 N 0.84979(17) 0.61772(14) 0.18790(9)
H12 H 0.915(2) 0.7099(19) 0.2331(13)
O1 O 0.69595(19) -0.03093(14) 0.11964(9)
N4 N 1.16822(19) 0.98808(15) 0.30171(10)
O2 O 1.2528(2) 0.91305(18) 0.24530(15)
O3 O 0.99916(16) 0.90805(14) 0.32529(10)
O4 O 1.2422(2) 1.13626(16) 0.33220(13)
loop_
_geom_bond_atom_site_label_1
_geom_bond_atom_site_label_2
_geom_bond_site_symmetry_1
_geom_bond_site_symmetry_2
C1 C2 1_555 1_555
C2 H1 1_555 1_555
H2 C2 1_555 1_555
C3 C4 1_555 1_555
C4 H3 1_555 1_555
C5 C4 1_555 1_555
H4 C5 1_555 1_555
C6 C5 1_555 1_555
H5 C6 1_555 1_555
C7 C6 1_555 1_555
H6 C7 1_555 1_555
C8 C3 1_555 1_555
C9 C10 1_555 1_555
C10 C11 1_555 1_555
C11 C12 1_555 1_555
C12 H7 1_555 1_555
C13 C12 1_555 1_555
H8 C13 1_555 1_555
C14 C13 1_555 1_555
H9 C14 1_555 1_555
C15 C10 1_555 1_555
H10 C15 1_555 1_555
N1 C1 1_555 1_555
H11 N1 1_555 1_555
N2 C2 1_555 1_555
N3 C8 1_555 1_555
H12 N3 1_555 1_555
O1 C1 1_555 1_555
N4 O2 1_555 1_555
O3 N4 1_555 1_555
O4 N4 1_555 1_555
C3 N2 1_555 1_555
C7 C8 1_555 1_555
C9 N2 1_555 1_555
C9 N3 1_555 1_555
C11 N1 1_555 1_555
C14 C15 1_555 1_555

#END
