
#######################################################################
#
#                 Cambridge Crystallographic Data Centre
#                                CCDC 
#
#######################################################################
#
# If this CIF has been generated from an entry in the Cambridge 
# Structural Database, then it will include bibliographic, chemical, 
# crystal, experimental, refinement or atomic coordinate data resulting 
# from the CCDC's data processing and validation procedures.
#
#######################################################################

data_QOBQAZ
_chemical_formula_moiety         'C17 H15 Cl1 N6 S1'
_chemical_name_systematic        
3-(4-Chloro-3-ethyl-1-methyl-1H-pyrazol-5-yl)-6-((E)-phenylvinyl)(1,2,4)triazolo(3,4-b)-1,3,4-thiadiazole
_symmetry_cell_setting           monoclinic
_symmetry_space_group_name_H-M   'P 21/n'
_symmetry_Int_Tables_number      14
_space_group_name_Hall           '-P 2yn'
loop_
_symmetry_equiv_pos_site_id
_symmetry_equiv_pos_as_xyz
1 x,y,z
2 1/2-x,1/2+y,1/2-z
3 -x,-y,-z
4 1/2+x,1/2-y,1/2+z
_cell_length_a                   10.862(2)
_cell_length_b                   11.541(2)
_cell_length_c                   14.994(3)
_cell_angle_alpha                90
_cell_angle_beta                 108.41(3)
_cell_angle_gamma                90
_cell_volume                     1783.43
_exptl_crystal_colour            colorless
_chemical_melting_point          190-191deg.C
_cell_formula_units_Z            4
_exptl_crystal_recrystallization_method 'ethyl acetate/petroleum ether'
loop_
_atom_site_label
_atom_site_type_symbol
_atom_site_fract_x
_atom_site_fract_y
_atom_site_fract_z
Cl1 Cl -0.0011(2) -0.2088(1) 0.1133(1)
S1 S -0.3483(1) 0.0621(1) 0.2262(1)
N1 N 0.2137(4) -0.3093(4) 0.3592(3)
N2 N 0.1447(4) -0.2228(3) 0.3809(3)
N3 N 0.0167(4) 0.0173(3) 0.3590(3)
N4 N -0.0886(4) 0.0922(3) 0.3435(3)
N5 N -0.1504(3) -0.0660(3) 0.2602(3)
N6 N -0.2435(4) -0.1360(3) 0.2026(3)
C1 C -0.6971(5) -0.1295(4) 0.0146(3)
C2 C -0.8061(5) -0.0613(5) -0.0247(3)
C3 C -0.9157(6) -0.1062(6) -0.0865(4)
C4 C -0.9218(6) -0.2206(6) -0.1110(4)
C5 C -0.8169(6) -0.2909(5) -0.0714(4)
C6 C -0.7048(5) -0.2469(5) -0.0086(4)
C7 C -0.5821(5) -0.0767(5) 0.0784(3)
C8 C -0.4698(5) -0.1318(4) 0.1204(4)
C9 C -0.3527(5) -0.0798(4) 0.1798(3)
C10 C -0.1856(5) 0.0396(4) 0.2835(3)
C11 C -0.0218(4) -0.0768(4) 0.3085(3)
C12 C 0.1717(6) -0.1878(6) 0.4789(4)
C13 C 0.0598(4) -0.1753(4) 0.3033(3)
C14 C 0.0749(4) -0.2349(4) 0.2298(3)
C15 C 0.1706(4) -0.3173(4) 0.2666(4)
C16 C 0.2257(5) -0.4047(5) 0.2161(4)
C17 C 0.1385(7) -0.5020(6) 0.1759(6)
loop_
_geom_bond_atom_site_label_1
_geom_bond_atom_site_label_2
_geom_bond_site_symmetry_1
_geom_bond_site_symmetry_2
Cl1 C14 1_555 1_555
S1 C9 1_555 1_555
N1 N2 1_555 1_555
N2 C12 1_555 1_555
N3 N4 1_555 1_555
N4 C10 1_555 1_555
N5 N6 1_555 1_555
N6 C9 1_555 1_555
C1 C2 1_555 1_555
C2 C3 1_555 1_555
C3 C4 1_555 1_555
C4 C5 1_555 1_555
C5 C6 1_555 1_555
C6 C1 1_555 1_555
C7 C1 1_555 1_555
C8 C7 1_555 1_555
C9 C8 1_555 1_555
C10 S1 1_555 1_555
C11 N3 1_555 1_555
C13 N2 1_555 1_555
C14 C13 1_555 1_555
C15 N1 1_555 1_555
C16 C15 1_555 1_555
C17 C16 1_555 1_555
N5 C10 1_555 1_555
N5 C11 1_555 1_555
C11 C13 1_555 1_555
C14 C15 1_555 1_555

#END
