
#######################################################################
#
#                 Cambridge Crystallographic Data Centre
#                                CCDC 
#
#######################################################################
#
# If this CIF has been generated from an entry in the Cambridge 
# Structural Database, then it will include bibliographic, chemical, 
# crystal, experimental, refinement or atomic coordinate data resulting 
# from the CCDC's data processing and validation procedures.
#
#######################################################################

data_QOBQIH
_chemical_formula_moiety         'C26 H48 N6 O2 6+,6(Br1 1-),4(H2 O1)'
_chemical_name_systematic        
'3,6,9,17,20,23-Hexa-azonia-29,30-dihydroxy-13,27-dimethyltricyclo(23.3.1.1^11,15^)triaconta-1(28),11,13,15(30),25(29),26-hexaene hexabromide tetrahydrate'
_symmetry_cell_setting           monoclinic
_symmetry_space_group_name_H-M   'P 21/c'
_symmetry_Int_Tables_number      14
_space_group_name_Hall           '-P 2ybc'
loop_
_symmetry_equiv_pos_site_id
_symmetry_equiv_pos_as_xyz
1 x,y,z
2 -x,1/2+y,1/2-z
3 -x,-y,-z
4 x,1/2-y,1/2+z
_cell_length_a                   14.441(5)
_cell_length_b                   11.482(4)
_cell_length_c                   12.090(6)
_cell_angle_alpha                90
_cell_angle_beta                 96.92
_cell_angle_gamma                90
_cell_volume                     1990.06
_exptl_crystal_colour            'colorless or light yellow'
_exptl_crystal_description       plate
_cell_formula_units_Z            2
_exptl_crystal_recrystallization_method methanol
loop_
_atom_site_label
_atom_site_type_symbol
_atom_site_fract_x
_atom_site_fract_y
_atom_site_fract_z
Br1 Br 0.6609(1) 0.0612(1) 0.6186(1)
Br2 Br 0.5597(1) 0.4438(1) 0.6519(1)
Br3 Br 0.2049(1) 0.0889(1) 0.6532(1)
O1 O 0.7827(4) 0.0087(5) 0.8515(5)
N1 N 0.6736(4) 0.3172(6) 0.8682(5)
N2 N 0.4453(4) 0.2087(6) 0.9452(5)
N3 N 0.8124(4) -0.1678(6) 1.0861(6)
C1 C 0.8233(5) 0.0772(7) 0.9353(7)
C2 C 0.8734(6) 0.0222(8) 1.0240(7)
C3 C 0.9175(5) 0.0869(9) 1.1117(7)
C4 C 0.9119(5) 0.2069(9) 1.1120(7)
C5 C 0.8610(5) 0.2614(8) 1.0229(7)
C6 C 0.8153(5) 0.1990(8) 0.9342(7)
C7 C 0.9620(7) 0.2787(10) 1.2068(8)
C8 C 0.7645(5) 0.2684(7) 0.8402(7)
C9 C 0.6053(6) 0.2282(7) 0.8985(7)
C10 C 0.5097(5) 0.2836(7) 0.8918(7)
C11 C 0.3462(5) 0.2343(8) 0.9055(7)
C12 C 0.8849(6) -0.1084(8) 1.0252(7)
C13 C 0.2841(5) 0.1575(8) 0.9677(7)
N3B N 0.1876(4) 0.1678(6) 0.9139(6)
C12B C 0.1151(6) 0.1084(8) 0.9748(7)
C2B C 0.1266(6) -0.0222(8) 0.9760(7)
C1B C 0.1767(5) -0.0772(7) 1.0647(7)
O1B O 0.2173(4) -0.0087(5) 1.1485(5)
C6B C 0.1847(5) -0.1990(8) 1.0658(7)
C5B C 0.1390(5) -0.2614(8) 0.9771(7)
C4B C 0.0881(5) -0.2069(9) 0.8880(7)
C3B C 0.0825(5) -0.0869(9) 0.8883(7)
C7B C 0.0380(7) -0.2787(10) 0.7932(8)
C8B C 0.2355(5) -0.2684(7) 1.1598(7)
N1B N 0.3264(4) -0.3172(6) 1.1318(5)
C9B C 0.3947(6) -0.2282(7) 1.1015(7)
C10B C 0.4903(5) -0.2836(7) 1.1082(7)
N2B N 0.5547(4) -0.2087(6) 1.0548(5)
C11B C 0.6538(5) -0.2343(8) 1.0945(7)
C13B C 0.7159(5) -0.1575(8) 1.0323(7)
O2 O 0.4342(5) 0.3422(7) 0.1379(5)
O3 O 0.8675(6) 0.6002(7) 0.1234(8)
loop_
_geom_bond_atom_site_label_1
_geom_bond_atom_site_label_2
_geom_bond_site_symmetry_1
_geom_bond_site_symmetry_2
O1 C1 1_555 1_555
N1 C8 1_555 1_555
N2 C10 1_555 1_555
N3 C12 1_555 1_555
C1 C2 1_555 1_555
C2 C3 1_555 1_555
C3 C4 1_555 1_555
C4 C5 1_555 1_555
C5 C6 1_555 1_555
C6 C1 1_555 1_555
C7 C4 1_555 1_555
C8 C6 1_555 1_555
C9 N1 1_555 1_555
C10 C9 1_555 1_555
C11 N2 1_555 1_555
C12 C2 1_555 1_555
C13 C11 1_555 1_555
N3B C13 1_555 1_555
C12B N3B 1_555 1_555
C2B C12B 1_555 1_555
C1B C2B 1_555 1_555
O1B C1B 1_555 1_555
C6B C1B 1_555 1_555
C5B C6B 1_555 1_555
C4B C5B 1_555 1_555
C3B C2B 1_555 1_555
C7B C4B 1_555 1_555
C8B C6B 1_555 1_555
N1B C8B 1_555 1_555
C9B N1B 1_555 1_555
C10B C9B 1_555 1_555
N2B C10B 1_555 1_555
C11B N2B 1_555 1_555
C13B N3 1_555 1_555
C4B C3B 1_555 1_555
C11B C13B 1_555 1_555

#END
