
#######################################################################
#
#                 Cambridge Crystallographic Data Centre
#                                CCDC 
#
#######################################################################
#
# If this CIF has been generated from an entry in the Cambridge 
# Structural Database, then it will include bibliographic, chemical, 
# crystal, experimental, refinement or atomic coordinate data resulting 
# from the CCDC's data processing and validation procedures.
#
#######################################################################

data_QOCZOZ
_chemical_formula_moiety         'C19 H16 B1 F2 N3 O1 S1'
_chemical_name_systematic        
"2-t-Butyl-6,6-difluoro-6H,8H-5\l^5^,6\l^5^-isoindolo[2',1':3,4][1,3,5,2]triazaborinino[6,1-b][1,3]benzothiazol-8-one unknown solvate"
_symmetry_cell_setting           triclinic
_symmetry_space_group_name_H-M   'P -1'
_symmetry_Int_Tables_number      2
_space_group_name_Hall           '-P 1'
loop_
_symmetry_equiv_pos_site_id
_symmetry_equiv_pos_as_xyz
1 x,y,z
2 -x,-y,-z
_cell_length_a                   8.5735(11)
_cell_length_b                   9.5948(12)
_cell_length_c                   13.8754(18)
_cell_angle_alpha                89.966(2)
_cell_angle_beta                 76.1290(10)
_cell_angle_gamma                63.7190(10)
_cell_volume                     986.244
_exptl_crystal_colour            colorless
_exptl_crystal_description       block
_cell_formula_units_Z            2
loop_
_atom_site_label
_atom_site_type_symbol
_atom_site_fract_x
_atom_site_fract_y
_atom_site_fract_z
B1 B 0.3072(5) 0.4574(5) 0.1079(3)
C1 C 0.5123(5) 0.2058(4) -0.0208(3)
C2 C 0.5166(5) 0.1549(4) -0.1228(3)
C3 C 0.6238(6) 0.0151(6) -0.1843(4)
H1 H 0.7143 -0.0684 -0.1649
C4 C 0.5897(6) 0.0051(6) -0.2771(4)
H2 H 0.6598 -0.0869 -0.3209
C5 C 0.4564(6) 0.1271(6) -0.3046(4)
H3 H 0.4373 0.1154 -0.3667
C6 C 0.3485(6) 0.2670(5) -0.2442(3)
H4 H 0.2580 0.3496 -0.2642
C7 C 0.3807(5) 0.2792(4) -0.1528(3)
C8 C 0.2911(4) 0.4065(4) -0.0694(3)
C9 C 0.1010(4) 0.6463(4) 0.0108(2)
C10 C -0.0557(4) 0.8826(4) 0.1310(2)
C11 C -0.1575(5) 1.0268(4) 0.1908(3)
H5 H -0.2434 1.1102 0.1686
C12 C -0.1299(5) 1.0448(5) 0.2832(3)
C13 C 0.0028(6) 0.9132(5) 0.3125(3)
H6 H 0.0229 0.9244 0.3743
C14 C 0.1039(6) 0.7695(5) 0.2552(3)
H7 H 0.1890 0.6855 0.2775
C15 C 0.0729(4) 0.7556(4) 0.1621(2)
C16 C -0.2344(5) 1.1993(5) 0.3508(3)
C17 C -0.3896(11) 1.3206(9) 0.3110(7)
H8 H -0.3396 1.3552 0.2520
H9 H -0.4660 1.4086 0.3613
H10 H -0.4593 1.2729 0.2950
C18 C -0.1050(12) 1.2656(14) 0.3590(13)
H11 H -0.0530 1.2841 0.2940
H12 H -0.0109 1.1921 0.3854
H13 H -0.1699 1.3624 0.4028
C19 C -0.3215(17) 1.1749(13) 0.4543(6)
H14 H -0.3626 1.0980 0.4481
H15 H -0.4221 1.2720 0.4873
H16 H -0.2346 1.1393 0.4928
F1 F 0.4456(3) 0.4762(3) 0.12985(19)
F2 F 0.2292(3) 0.3989(3) 0.18450(17)
N1 N 0.3682(4) 0.3568(3) 0.0064(2)
N2 N 0.1579(4) 0.5423(3) -0.0714(2)
N3 N 0.1596(4) 0.6212(3) 0.0919(2)
O1 O 0.6100(4) 0.1363(4) 0.0307(3)
S1 S -0.06418(11) 0.83299(10) 0.01274(6)
C20? C -0.4376(11) 1.265(2) 0.3691(16)
H17? H -0.4839 1.3641 0.3428
H18? H -0.4931 1.2806 0.4396
H19? H -0.4642 1.1937 0.3364
C21? C -0.167(3) 1.314(2) 0.3036(15)
H20? H -0.0493 1.2864 0.3119
H21? H -0.2490 1.4187 0.3358
H22? H -0.1612 1.3102 0.2336
C22? C -0.198(2) 1.1858(19) 0.4559(8)
H23? H -0.1764 1.0838 0.4745
H24? H -0.3007 1.2642 0.5041
H25? H -0.0937 1.2010 0.4538
loop_
_geom_bond_atom_site_label_1
_geom_bond_atom_site_label_2
_geom_bond_site_symmetry_1
_geom_bond_site_symmetry_2
B1 F1 1_555 1_555
C1 C2 1_555 1_555
C2 C3 1_555 1_555
C3 H1 1_555 1_555
C4 C3 1_555 1_555
H2 C4 1_555 1_555
C5 C4 1_555 1_555
H3 C5 1_555 1_555
C6 C5 1_555 1_555
H4 C6 1_555 1_555
C7 C2 1_555 1_555
C8 C7 1_555 1_555
C9 N2 1_555 1_555
C10 C11 1_555 1_555
C11 H5 1_555 1_555
C12 C11 1_555 1_555
C13 C12 1_555 1_555
H6 C13 1_555 1_555
C14 C13 1_555 1_555
H7 C14 1_555 1_555
C15 C10 1_555 1_555
C16 C12 1_555 1_555
C17 C16 1_555 1_555
H8 C17 1_555 1_555
H9 C17 1_555 1_555
H10 C17 1_555 1_555
C18 C16 1_555 1_555
H11 C18 1_555 1_555
H12 C18 1_555 1_555
H13 C18 1_555 1_555
C19 C16 1_555 1_555
H14 C19 1_555 1_555
H15 C19 1_555 1_555
H16 C19 1_555 1_555
F2 B1 1_555 1_555
N1 B1 1_555 1_555
N2 C8 1_555 1_555
N3 B1 1_555 1_555
O1 C1 1_555 1_555
S1 C9 1_555 1_555
C1 N1 1_555 1_555
C6 C7 1_555 1_555
C8 N1 1_555 1_555
C9 N3 1_555 1_555
C10 S1 1_555 1_555
C14 C15 1_555 1_555
C15 N3 1_555 1_555

#END
