
#######################################################################
#
#                 Cambridge Crystallographic Data Centre
#                                CCDC 
#
#######################################################################
#
# If this CIF has been generated from an entry in the Cambridge 
# Structural Database, then it will include bibliographic, chemical, 
# crystal, experimental, refinement or atomic coordinate data resulting 
# from the CCDC's data processing and validation procedures.
#
#######################################################################

data_QODTOT
_chemical_formula_moiety         'C15 H20 O4 S2'
_chemical_name_systematic        
15-Formyl-2,3,5,6,8,9,11,12-octahydro-1,7,13,4,10-benzotrioxadithiacyclopentadecine
_symmetry_cell_setting           orthorhombic
_symmetry_space_group_name_H-M   'P c c n'
_symmetry_Int_Tables_number      56
_space_group_name_Hall           '-P 2ab 2ac'
loop_
_symmetry_equiv_pos_site_id
_symmetry_equiv_pos_as_xyz
1 x,y,z
2 1/2-x,1/2-y,z
3 -x,1/2+y,1/2-z
4 1/2+x,-y,1/2-z
5 -x,-y,-z
6 1/2+x,1/2+y,-z
7 x,1/2-y,1/2+z
8 1/2-x,y,1/2+z
_cell_length_a                   14.5425(9)
_cell_length_b                   26.9389(17)
_cell_length_c                   7.8381(5)
_cell_angle_alpha                90
_cell_angle_beta                 90
_cell_angle_gamma                90
_cell_volume                     3070.65
_exptl_crystal_colour            colorless
_exptl_crystal_description       block
_cell_formula_units_Z            8
_exptl_crystal_recrystallization_method dichloromethane/hexane
loop_
_atom_site_label
_atom_site_type_symbol
_atom_site_fract_x
_atom_site_fract_y
_atom_site_fract_z
S1 S 1.20635(3) 0.315286(18) -0.37732(7)
S2 S 0.80574(3) 0.336020(17) -0.00127(6)
O1 O 1.00053(8) 0.39372(4) 0.06068(16)
O2 O 1.10247(9) 0.40749(4) -0.20176(16)
O3 O 0.98607(8) 0.28343(5) -0.35489(16)
O4 O 1.07785(12) 0.54709(6) 0.4545(2)
C1 C 0.93870(12) 0.38626(7) 0.2004(2)
C2 C 1.05411(11) 0.43555(6) 0.0663(2)
C3 C 1.05624(12) 0.46949(7) 0.1979(2)
C4 C 1.11478(12) 0.51100(6) 0.1852(2)
C5 C 1.16929(12) 0.51794(7) 0.0423(2)
C6 C 1.16692(12) 0.48397(6) -0.0911(2)
C7 C 1.10997(12) 0.44292(6) -0.0799(2)
C8 C 1.15243(14) 0.41459(7) -0.3583(2)
C9 C 1.14254(14) 0.36753(7) -0.4608(2)
C10 C 1.13579(12) 0.29154(7) -0.2055(2)
C11 C 1.05655(12) 0.25854(6) -0.2598(2)
C12 C 0.93402(12) 0.31833(7) -0.2561(2)
C13 C 0.86085(13) 0.29319(7) -0.1480(3)
C14 C 0.88823(13) 0.33782(7) 0.1737(2)
C15 C 1.11952(13) 0.54835(7) 0.3208(3)
H1 H 0.8956(15) 0.4143(8) 0.210(3)
H2 H 0.9740(13) 0.3854(7) 0.304(3)
H3 H 1.0192(14) 0.4647(7) 0.291(3)
H4 H 1.2087(15) 0.5470(8) 0.041(3)
H5 H 1.2025(15) 0.4899(8) -0.189(3)
H6 H 1.2185(15) 0.4232(7) -0.333(3)
H7 H 1.1268(15) 0.4421(8) -0.418(3)
H8 H 1.0783(16) 0.3600(8) -0.477(3)
H9 H 1.1675(15) 0.3726(8) -0.573(3)
H10 H 1.1158(13) 0.3178(7) -0.132(3)
H11 H 1.1744(15) 0.2720(8) -0.142(3)
H12 H 1.0789(12) 0.2333(7) -0.334(3)
H13 H 1.0307(13) 0.2436(7) -0.160(2)
H14 H 0.9049(15) 0.3395(8) -0.336(3)
H15 H 0.9722(15) 0.3379(7) -0.188(3)
H16 H 0.8115(14) 0.2800(8) -0.218(3)
H17 H 0.8860(13) 0.2673(7) -0.089(3)
H18 H 0.9310(15) 0.3106(8) 0.158(3)
H19 H 0.8544(15) 0.3300(7) 0.276(3)
H20 H 1.1670(15) 0.5772(8) 0.291(3)
loop_
_geom_bond_atom_site_label_1
_geom_bond_atom_site_label_2
_geom_bond_site_symmetry_1
_geom_bond_site_symmetry_2
S1 C9 1_555 1_555
S2 C13 1_555 1_555
O1 C1 1_555 1_555
O2 C7 1_555 1_555
O3 C11 1_555 1_555
O4 C15 1_555 1_555
C1 C14 1_555 1_555
C2 O1 1_555 1_555
C3 C2 1_555 1_555
C4 C3 1_555 1_555
C5 C4 1_555 1_555
C6 C5 1_555 1_555
C7 C2 1_555 1_555
C8 O2 1_555 1_555
C9 C8 1_555 1_555
C10 S1 1_555 1_555
C11 C10 1_555 1_555
C12 O3 1_555 1_555
C13 C12 1_555 1_555
C14 S2 1_555 1_555
C15 C4 1_555 1_555
H1 C1 1_555 1_555
H2 C1 1_555 1_555
H3 C3 1_555 1_555
H4 C5 1_555 1_555
H5 C6 1_555 1_555
H6 C8 1_555 1_555
H7 C8 1_555 1_555
H8 C9 1_555 1_555
H9 C9 1_555 1_555
H10 C10 1_555 1_555
H11 C10 1_555 1_555
H12 C11 1_555 1_555
H13 C11 1_555 1_555
H14 C12 1_555 1_555
H15 C12 1_555 1_555
H16 C13 1_555 1_555
H17 C13 1_555 1_555
H18 C14 1_555 1_555
H19 C14 1_555 1_555
H20 C15 1_555 1_555
C6 C7 1_555 1_555

#END
