
#######################################################################
#
#                 Cambridge Crystallographic Data Centre
#                                CCDC 
#
#######################################################################
#
# If this CIF has been generated from an entry in the Cambridge 
# Structural Database, then it will include bibliographic, chemical, 
# crystal, experimental, refinement or atomic coordinate data resulting 
# from the CCDC's data processing and validation procedures.
#
#######################################################################

data_QODVAH
_chemical_formula_moiety         'C17 H22 O4 S2'
_chemical_name_systematic        
15-(2-formylethenyl)-2,3,5,6,8,9,11,12-octahydro-1,7,13,4,10-benzotrioxadithiacyclopentadecine
_symmetry_cell_setting           orthorhombic
_symmetry_space_group_name_H-M   'P c c n'
_symmetry_Int_Tables_number      56
_space_group_name_Hall           '-P 2ab 2ac'
loop_
_symmetry_equiv_pos_site_id
_symmetry_equiv_pos_as_xyz
1 x,y,z
2 1/2-x,1/2-y,z
3 -x,1/2+y,1/2-z
4 1/2+x,-y,1/2-z
5 -x,-y,-z
6 1/2+x,1/2+y,-z
7 x,1/2-y,1/2+z
8 1/2-x,y,1/2+z
_cell_length_a                   14.7252(9)
_cell_length_b                   29.3814(19)
_cell_length_c                   7.9467(5)
_cell_angle_alpha                90
_cell_angle_beta                 90
_cell_angle_gamma                90
_cell_volume                     3438.12
_cell_formula_units_Z            8
_exptl_crystal_recrystallization_method dichloromethane/hexane
loop_
_atom_site_label
_atom_site_type_symbol
_atom_site_fract_x
_atom_site_fract_y
_atom_site_fract_z
S1 S 0.70662(3) 0.307209(19) 0.50740(8)
S2 S 0.31051(3) 0.333236(19) 0.13968(7)
O1 O 0.50981(9) 0.37950(5) 0.06796(19)
O2 O 0.60772(10) 0.39266(5) 0.33317(18)
O3 O 0.48637(9) 0.28077(5) 0.48645(18)
O4 O 0.56100(12) 0.56748(6) -0.5814(2)
C1 C 0.44536(14) 0.37429(7) -0.0666(3)
C2 C 0.56284(13) 0.41809(7) 0.0651(3)
C3 C 0.56642(13) 0.44913(7) -0.0650(3)
C4 C 0.62060(13) 0.48895(7) -0.0504(3)
C5 C 0.66932(14) 0.49594(7) 0.0965(3)
C6 C 0.66681(14) 0.46460(7) 0.2285(3)
C7 C 0.61531(13) 0.42548(7) 0.2131(3)
C8 C 0.65747(15) 0.39910(7) 0.4879(3)
C9 C 0.64621(16) 0.35622(8) 0.5898(3)
C10 C 0.63508(14) 0.28645(8) 0.3381(3)
C11 C 0.55488(14) 0.25723(7) 0.3915(3)
C12 C 0.43684(14) 0.31406(7) 0.3901(3)
C13 C 0.36180(15) 0.29239(8) 0.2851(3)
C14 C 0.39018(14) 0.33166(8) -0.0369(3)
C15 C 0.62590(14) 0.52313(7) -0.1831(3)
C16 C 0.58202(14) 0.52413(7) -0.3311(3)
C17 C 0.59775(15) 0.56225(7) -0.4453(3)
H1 H 0.4747(14) 0.3707(7) -0.169(3)
H2 H 0.4058(16) 0.4027(8) -0.082(3)
H3 H 0.5314(15) 0.4449(8) -0.155(3)
H4 H 0.7035(17) 0.5225(9) 0.109(3)
H5 H 0.6992(16) 0.4707(8) 0.327(3)
H6 H 0.6322(18) 0.4263(9) 0.539(3)
H7 H 0.7260(17) 0.4056(8) 0.454(3)
H8 H 0.5857(17) 0.3499(8) 0.601(3)
H9 H 0.6735(16) 0.3613(9) 0.701(3)
H10 H 0.6163(16) 0.3107(8) 0.271(3)
H11 H 0.6736(19) 0.2671(10) 0.275(4)
H12 H 0.5276(16) 0.2428(8) 0.291(3)
H13 H 0.5764(17) 0.2333(9) 0.470(3)
H14 H 0.4789(16) 0.3328(8) 0.320(3)
H15 H 0.4100(16) 0.3356(9) 0.478(3)
H16 H 0.3144(18) 0.2810(9) 0.355(3)
H17 H 0.3867(17) 0.2678(9) 0.220(3)
H18 H 0.4260(17) 0.3061(8) -0.018(3)
H19 H 0.3574(18) 0.3235(9) -0.140(4)
H20 H 0.6650(16) 0.5480(9) -0.158(3)
H21 H 0.5407(16) 0.5006(8) -0.367(3)
H22 H 0.6480(17) 0.5845(8) -0.407(3)
loop_
_geom_bond_atom_site_label_1
_geom_bond_atom_site_label_2
_geom_bond_site_symmetry_1
_geom_bond_site_symmetry_2
S1 C9 1_555 1_555
S2 C13 1_555 1_555
O1 C1 1_555 1_555
O2 C7 1_555 1_555
O3 C11 1_555 1_555
O4 C17 1_555 1_555
C1 C14 1_555 1_555
C2 O1 1_555 1_555
C3 C2 1_555 1_555
C4 C3 1_555 1_555
C5 C4 1_555 1_555
C6 C5 1_555 1_555
C7 C2 1_555 1_555
C8 O2 1_555 1_555
C9 C8 1_555 1_555
C10 S1 1_555 1_555
C11 C10 1_555 1_555
C12 O3 1_555 1_555
C13 C12 1_555 1_555
C14 S2 1_555 1_555
C15 C4 1_555 1_555
C16 C15 1_555 1_555
C17 C16 1_555 1_555
H1 C1 1_555 1_555
H2 C1 1_555 1_555
H3 C3 1_555 1_555
H4 C5 1_555 1_555
H5 C6 1_555 1_555
H6 C8 1_555 1_555
H7 C8 1_555 1_555
H8 C9 1_555 1_555
H9 C9 1_555 1_555
H10 C10 1_555 1_555
H11 C10 1_555 1_555
H12 C11 1_555 1_555
H13 C11 1_555 1_555
H14 C12 1_555 1_555
H15 C12 1_555 1_555
H16 C13 1_555 1_555
H17 C13 1_555 1_555
H18 C14 1_555 1_555
H19 C14 1_555 1_555
H20 C15 1_555 1_555
H21 C16 1_555 1_555
H22 C17 1_555 1_555
C6 C7 1_555 1_555

#END
