
#######################################################################
#
#                 Cambridge Crystallographic Data Centre
#                                CCDC 
#
#######################################################################
#
# If this CIF has been generated from an entry in the Cambridge 
# Structural Database, then it will include bibliographic, chemical, 
# crystal, experimental, refinement or atomic coordinate data resulting 
# from the CCDC's data processing and validation procedures.
#
#######################################################################

data_QODVUB
_chemical_formula_moiety         'C12 H15 N1 O4 S2'
_chemical_name_systematic        
12-Nitro-2,3,5,6,8,9-hexahydro-1,10,4,7-benzodioxadithiacyclododecine
_symmetry_cell_setting           monoclinic
_symmetry_space_group_name_H-M   'P 21/c'
_symmetry_Int_Tables_number      14
_space_group_name_Hall           '-P 2ybc'
loop_
_symmetry_equiv_pos_site_id
_symmetry_equiv_pos_as_xyz
1 x,y,z
2 -x,1/2+y,1/2-z
3 -x,-y,-z
4 x,1/2-y,1/2+z
_cell_length_a                   15.0682(12)
_cell_length_b                   10.4511(8)
_cell_length_c                   8.6043(6)
_cell_angle_alpha                90
_cell_angle_beta                 97.526(4)
_cell_angle_gamma                90
_cell_volume                     1343.33
_exptl_crystal_colour            yellow
_exptl_crystal_description       plate
_chemical_melting_point          159-161deg.C
_cell_formula_units_Z            4
_exptl_crystal_recrystallization_method dichloromethane/hexane
loop_
_atom_site_label
_atom_site_type_symbol
_atom_site_fract_x
_atom_site_fract_y
_atom_site_fract_z
S1 S 0.48683(18) 0.0490(3) 0.2411(3)
S2 S 0.2769(3) -0.2203(3) 0.0339(7)
O1 O 0.1900(4) 0.0501(6) 0.1147(8)
O2 O 0.3046(4) 0.1904(6) 0.2649(8)
O3 O 0.0432(5) 0.5434(8) -0.1585(10)
O4 O -0.0069(6) 0.3572(9) -0.2313(10)
N1 N 0.0481(6) 0.4309(9) -0.1476(10)
C1 C 0.1385(7) -0.0372(10) 0.0182(14)
H1 H 0.1492 -0.0265 -0.0922
H2 H 0.0740 -0.0239 0.0244
C2 C 0.1813(6) 0.1807(9) 0.0835(10)
C3 C 0.1151(6) 0.2369(9) -0.0269(11)
H3 H 0.0719 0.1857 -0.0887
C4 C 0.1150(6) 0.3642(9) -0.0420(11)
C5 C 0.1794(7) 0.4461(10) 0.0459(12)
H4 H 0.1771 0.5363 0.0327
C6 C 0.2450(7) 0.3888(9) 0.1509(12)
H5 H 0.2895 0.4397 0.2101
C7 C 0.2457(6) 0.2566(9) 0.1694(11)
C8 C 0.3881(6) 0.2490(8) 0.3361(11)
H6 H 0.3772 0.3050 0.4245
H7 H 0.4148 0.3009 0.2580
C9 C 0.4482(6) 0.1424(9) 0.3926(11)
H8 H 0.4163 0.0854 0.4586
H9 H 0.5008 0.1779 0.4599
C10 C 0.4008(11) -0.0288(17) 0.126(2)
H10 H 0.3566 0.0359 0.0812
H11 H 0.4254 -0.0703 0.0376
C11 C 0.3524(13) -0.129(2) 0.210(2)
H12 H 0.3147 -0.0886 0.2824
H13 H 0.3952 -0.1880 0.2700
C14 C 0.1665(6) -0.1657(10) 0.0756(13)
H18 H 0.1211 -0.2280 0.0292
H19 H 0.1662 -0.1673 0.1906
C12? C 0.3840(16) -0.088(2) 0.218(3)
H14? H 0.4075 -0.1724 0.2537
H15? H 0.3362 -0.0627 0.2806
C13? C 0.3477(16) -0.092(2) 0.044(3)
H16? H 0.3963 -0.1051 -0.0210
H17? H 0.3151 -0.0121 0.0107
loop_
_geom_bond_atom_site_label_1
_geom_bond_atom_site_label_2
_geom_bond_site_symmetry_1
_geom_bond_site_symmetry_2
S1 C9 1_555 1_555
S2 C11 1_555 1_555
O1 C1 1_555 1_555
O2 C7 1_555 1_555
O3 N1 1_555 1_555
O4 N1 1_555 1_555
N1 C4 1_555 1_555
C1 H1 1_555 1_555
H2 C1 1_555 1_555
C2 O1 1_555 1_555
C3 C2 1_555 1_555
H3 C3 1_555 1_555
C4 C3 1_555 1_555
C5 C4 1_555 1_555
H4 C5 1_555 1_555
C6 C5 1_555 1_555
H5 C6 1_555 1_555
C7 C2 1_555 1_555
C8 O2 1_555 1_555
H6 C8 1_555 1_555
H7 C8 1_555 1_555
C9 C8 1_555 1_555
H8 C9 1_555 1_555
H9 C9 1_555 1_555
C10 S1 1_555 1_555
H10 C10 1_555 1_555
H11 C10 1_555 1_555
C11 C10 1_555 1_555
H12 C11 1_555 1_555
H13 C11 1_555 1_555
C14 S2 1_555 1_555
H18 C14 1_555 1_555
H19 C14 1_555 1_555
C1 C14 1_555 1_555
C6 C7 1_555 1_555

#END
