
#######################################################################
#
#                 Cambridge Crystallographic Data Centre
#                                CCDC 
#
#######################################################################
#
# If this CIF has been generated from an entry in the Cambridge 
# Structural Database, then it will include bibliographic, chemical, 
# crystal, experimental, refinement or atomic coordinate data resulting 
# from the CCDC's data processing and validation procedures.
#
#######################################################################

data_QODVEL
_chemical_formula_moiety         'C15 H20 O5 S1'
_chemical_name_systematic        
15-Formyl-2,3,5,6,8,9,11,12-octahydro-1,4,10,13,7-benzotetraoxathiacyclopentadecine
_symmetry_cell_setting           monoclinic
_symmetry_space_group_name_H-M   'P 21/c'
_symmetry_Int_Tables_number      14
_space_group_name_Hall           '-P 2ybc'
loop_
_symmetry_equiv_pos_site_id
_symmetry_equiv_pos_as_xyz
1 x,y,z
2 -x,1/2+y,1/2-z
3 -x,-y,-z
4 x,1/2-y,1/2+z
_cell_length_a                   18.5922(7)
_cell_length_b                   9.8018(4)
_cell_length_c                   8.1676(3)
_cell_angle_alpha                90
_cell_angle_beta                 92.349(2)
_cell_angle_gamma                90
_cell_volume                     1487.19
_cell_formula_units_Z            4
_exptl_crystal_recrystallization_method dichloromethane/hexane
loop_
_atom_site_label
_atom_site_type_symbol
_atom_site_fract_x
_atom_site_fract_y
_atom_site_fract_z
S1 S 0.10147(2) 0.06671(5) 0.12435(5)
O1 O 0.32153(6) -0.06198(12) 0.42018(14)
O2 O 0.24890(6) -0.27198(12) 0.32048(14)
O3 O 0.09860(7) -0.24660(12) 0.26659(14)
O4 O 0.24137(7) 0.17084(13) 0.49974(16)
O5 O 0.54287(7) -0.26381(14) 0.75264(17)
C1 C 0.35623(10) 0.05670(18) 0.4891(2)
C2 C 0.34977(9) -0.18565(17) 0.46769(19)
C3 C 0.41252(9) -0.20391(19) 0.5606(2)
C4 C 0.43554(9) -0.33626(18) 0.6040(2)
C5 C 0.39553(10) -0.44890(19) 0.5543(2)
C6 C 0.33203(10) -0.43156(18) 0.4581(2)
C7 C 0.30912(9) -0.30118(17) 0.41388(19)
C8 C 0.20354(10) -0.38462(19) 0.2670(2)
C9 C 0.14185(10) -0.3271(2) 0.1658(2)
C10 C 0.03733(11) -0.1860(2) 0.1826(2)
C11 C 0.03378(9) -0.03506(19) 0.2217(2)
C12 C 0.17890(10) 0.05336(19) 0.2671(2)
C13 C 0.18365(11) 0.1776(2) 0.3783(2)
C14 C 0.31198(10) 0.17857(19) 0.4355(3)
C15 C 0.50266(10) -0.3547(2) 0.7043(2)
H1 H 0.4043(12) 0.066(2) 0.447(2)
H2 H 0.3590(11) 0.053(2) 0.616(2)
H3 H 0.4372(10) -0.130(2) 0.597(2)
H4 H 0.4129(11) -0.541(2) 0.586(2)
H5 H 0.3030(11) -0.508(2) 0.425(3)
H6 H 0.1862(11) -0.433(2) 0.365(2)
H7 H 0.2319(12) -0.443(2) 0.199(3)
H8 H 0.1572(12) -0.276(2) 0.072(3)
H9 H 0.1135(11) -0.407(2) 0.121(2)
H10 H -0.0073(13) -0.229(2) 0.217(3)
H11 H 0.0414(9) -0.1989(18) 0.067(2)
H12 H 0.0383(10) -0.0193(19) 0.336(2)
H13 H -0.0135(11) -0.003(2) 0.180(2)
H14 H 0.1749(12) -0.029(3) 0.328(3)
H15 H 0.2211(11) 0.051(2) 0.200(2)
H16 H 0.1895(11) 0.258(2) 0.315(2)
H17 H 0.1375(11) 0.185(2) 0.442(2)
H18 H 0.3344(11) 0.262(2) 0.476(2)
H19 H 0.3095(10) 0.1869(19) 0.317(3)
H20 H 0.5123(10) -0.457(2) 0.734(2)
loop_
_geom_bond_atom_site_label_1
_geom_bond_atom_site_label_2
_geom_bond_site_symmetry_1
_geom_bond_site_symmetry_2
S1 C11 1_555 1_555
O1 C1 1_555 1_555
O2 C7 1_555 1_555
O3 C9 1_555 1_555
O4 C13 1_555 1_555
O5 C15 1_555 1_555
C1 C14 1_555 1_555
C2 O1 1_555 1_555
C3 C2 1_555 1_555
C4 C3 1_555 1_555
C5 C4 1_555 1_555
C6 C5 1_555 1_555
C7 C2 1_555 1_555
C8 O2 1_555 1_555
C9 C8 1_555 1_555
C10 O3 1_555 1_555
C11 C10 1_555 1_555
C12 S1 1_555 1_555
C13 C12 1_555 1_555
C14 O4 1_555 1_555
C15 C4 1_555 1_555
H1 C1 1_555 1_555
H2 C1 1_555 1_555
H3 C3 1_555 1_555
H4 C5 1_555 1_555
H5 C6 1_555 1_555
H6 C8 1_555 1_555
H7 C8 1_555 1_555
H8 C9 1_555 1_555
H9 C9 1_555 1_555
H10 C10 1_555 1_555
H11 C10 1_555 1_555
H12 C11 1_555 1_555
H13 C11 1_555 1_555
H14 C12 1_555 1_555
H15 C12 1_555 1_555
H16 C13 1_555 1_555
H17 C13 1_555 1_555
H18 C14 1_555 1_555
H19 C14 1_555 1_555
H20 C15 1_555 1_555
C6 C7 1_555 1_555

#END
