
#######################################################################
#
#                 Cambridge Crystallographic Data Centre
#                                CCDC 
#
#######################################################################
#
# If this CIF has been generated from an entry in the Cambridge 
# Structural Database, then it will include bibliographic, chemical, 
# crystal, experimental, refinement or atomic coordinate data resulting 
# from the CCDC's data processing and validation procedures.
#
#######################################################################

data_QODWAI
_chemical_formula_moiety         'C16 H23 N1 O6 S2'
_chemical_name_systematic        
18-Nitro-2,3,5,6,8,9,11,12,14,15-decahydro-1,7,10,16,4,13-benzotetraoxadithiacyclooctadecine
_symmetry_cell_setting           orthorhombic
_symmetry_space_group_name_H-M   'P 21 21 21'
_symmetry_Int_Tables_number      19
_space_group_name_Hall           'P 2ac 2ab'
loop_
_symmetry_equiv_pos_site_id
_symmetry_equiv_pos_as_xyz
1 x,y,z
2 1/2-x,-y,1/2+z
3 -x,1/2+y,1/2-z
4 1/2+x,1/2-y,-z
_cell_length_a                   4.7106(3)
_cell_length_b                   12.8364(9)
_cell_length_c                   30.351(2)
_cell_angle_alpha                90
_cell_angle_beta                 90
_cell_angle_gamma                90
_cell_volume                     1835.24
_exptl_crystal_colour            yellow
_exptl_crystal_description       plate
_chemical_melting_point          '128-129 deg.C'
_cell_formula_units_Z            4
_exptl_crystal_recrystallization_method dichloromethane/hexane
loop_
_atom_site_label
_atom_site_type_symbol
_atom_site_fract_x
_atom_site_fract_y
_atom_site_fract_z
S1 S 0.9441(5) 0.9519(2) -0.21731(7)
S2 S 0.2116(4) 0.89610(15) 0.00613(6)
O1 O 0.4532(11) 0.7606(3) -0.10673(14)
O2 O 0.7852(12) 0.7377(5) -0.17345(16)
O3 O 0.5768(15) 1.0836(4) -0.11498(18)
O4 O 0.3692(13) 1.1317(4) -0.0301(2)
O5 O 0.0297(17) 0.3413(5) -0.1664(3)
O6 O -0.100(2) 0.4232(6) -0.1026(3)
N1 N 0.046(2) 0.4208(7) -0.1376(3)
C1 C 0.2626(16) 0.7793(5) -0.0699(2)
H1 H 0.2541 0.7178 -0.0502
H2 H 0.0686 0.7956 -0.0803
C2 C 0.4262(17) 0.6669(6) -0.1281(3)
C3 C 0.2398(18) 0.5881(6) -0.1178(3)
H3 H 0.1152 0.5928 -0.0933
C4 C 0.243(2) 0.4974(7) -0.1463(3)
C5 C 0.421(2) 0.4910(9) -0.1823(3)
H4 H 0.4142 0.4314 -0.2008
C6 C 0.602(2) 0.5675(7) -0.1912(3)
H5 H 0.7252 0.5615 -0.2158
C7 C 0.6122(18) 0.6565(7) -0.1651(2)
C8 C 0.956(2) 0.7342(9) -0.2130(3)
H6 H 0.8316 0.7320 -0.2394
H7 H 1.0766 0.6712 -0.2130
C9 C 1.141(2) 0.8324(10) -0.2139(3)
H8 H 1.2704 0.8282 -0.2395
H9 H 1.2587 0.8339 -0.1870
C10 C 0.8474(19) 0.9732(6) -0.1603(2)
H10 H 0.7125 0.9188 -0.1504
H11 H 1.0183 0.9699 -0.1414
C11 C 0.714(2) 1.0777(7) -0.1570(3)
H12 H 0.8598 1.1328 -0.1596
H13 H 0.5734 1.0873 -0.1809
C12 C 0.474(2) 1.1835(7) -0.1039(3)
H14 H 0.3920 1.2171 -0.1304
H15 H 0.6321 1.2274 -0.0932
C13 C 0.250(2) 1.1754(8) -0.0686(3)
H16 H 0.1729 1.2455 -0.0620
H17 H 0.0915 1.1311 -0.0791
C14 C 0.157(2) 1.1135(6) 0.0016(3)
H18 H 0.0170 1.1710 0.0004
H19 H 0.2443 1.1141 0.0312
C15 C 0.0017(17) 1.0101(7) -0.0050(3)
H20 H -0.0661 1.0066 -0.0359
H21 H -0.1673 1.0090 0.0143
C16 C 0.3943(17) 0.8735(5) -0.0459(2)
H22 H 0.3789 0.9363 -0.0647
H23 H 0.5981 0.8602 -0.0403
loop_
_geom_bond_atom_site_label_1
_geom_bond_atom_site_label_2
_geom_bond_site_symmetry_1
_geom_bond_site_symmetry_2
S1 C9 1_555 1_555
S2 C15 1_555 1_555
O1 C1 1_555 1_555
O2 C7 1_555 1_555
O3 C11 1_555 1_555
O4 C13 1_555 1_555
O5 N1 1_555 1_555
O6 N1 1_555 1_555
N1 C4 1_555 1_555
C1 H1 1_555 1_555
H2 C1 1_555 1_555
C2 O1 1_555 1_555
C3 C2 1_555 1_555
H3 C3 1_555 1_555
C4 C3 1_555 1_555
C5 C4 1_555 1_555
H4 C5 1_555 1_555
C6 C5 1_555 1_555
H5 C6 1_555 1_555
C7 C2 1_555 1_555
C8 O2 1_555 1_555
H6 C8 1_555 1_555
H7 C8 1_555 1_555
C9 C8 1_555 1_555
H8 C9 1_555 1_555
H9 C9 1_555 1_555
C10 S1 1_555 1_555
H10 C10 1_555 1_555
H11 C10 1_555 1_555
C11 C10 1_555 1_555
H12 C11 1_555 1_555
H13 C11 1_555 1_555
C12 O3 1_555 1_555
H14 C12 1_555 1_555
H15 C12 1_555 1_555
C13 C12 1_555 1_555
H16 C13 1_555 1_555
H17 C13 1_555 1_555
C14 O4 1_555 1_555
H18 C14 1_555 1_555
H19 C14 1_555 1_555
C15 C14 1_555 1_555
H20 C15 1_555 1_555
H21 C15 1_555 1_555
C16 S2 1_555 1_555
H22 C16 1_555 1_555
H23 C16 1_555 1_555
C1 C16 1_555 1_555
C6 C7 1_555 1_555

#END
