
#######################################################################
#
#                 Cambridge Crystallographic Data Centre
#                                CCDC 
#
#######################################################################
#
# If this CIF has been generated from an entry in the Cambridge 
# Structural Database, then it will include bibliographic, chemical, 
# crystal, experimental, refinement or atomic coordinate data resulting 
# from the CCDC's data processing and validation procedures.
#
#######################################################################

data_QOFJAX
_chemical_formula_moiety         'C12 H16 O4'
_chemical_name_systematic        5,5-bis(Hydroxymethyl)-2-phenyl-1,3-dioxane
_symmetry_cell_setting           orthorhombic
_symmetry_space_group_name_H-M   'C 2 2 21'
_symmetry_Int_Tables_number      20
_space_group_name_Hall           'C 2n 2'
loop_
_symmetry_equiv_pos_site_id
_symmetry_equiv_pos_as_xyz
1 x,y,z
2 -x,-y,1/2+z
3 -x,y,1/2-z
4 x,-y,-z
5 1/2+x,1/2+y,z
6 1/2-x,1/2-y,1/2+z
7 1/2-x,1/2+y,1/2-z
8 1/2+x,1/2-y,-z
_cell_length_a                   6.2654(4)
_cell_length_b                   10.4593(6)
_cell_length_c                   34.5285(19)
_cell_angle_alpha                90
_cell_angle_beta                 90
_cell_angle_gamma                90
_cell_volume                     2262.71
_exptl_crystal_colour            colorless
_exptl_crystal_description       block
_chemical_melting_point          '408 K'
_cell_formula_units_Z            8
_exptl_crystal_recrystallization_method 'ethyl acetate'
loop_
_atom_site_label
_atom_site_type_symbol
_atom_site_fract_x
_atom_site_fract_y
_atom_site_fract_z
O1 O 0.8999(6) 0.8806(3) 0.63367(9)
O2 O 0.7606(6) 0.6825(3) 0.61705(10)
O3 O 0.3975(7) 0.9308(4) 0.71647(11)
H1 H 0.4584 0.9956 0.7073
O4 O 0.6297(7) 0.6260(4) 0.71881(12)
H2 H 0.7073 0.5941 0.7361
C1 C 0.8416(8) 0.7994(4) 0.60313(13)
H3 H 0.7304 0.8424 0.5869
C2 C 1.0363(7) 0.7728(4) 0.57852(12)
C3 C 1.1598(8) 0.8734(5) 0.56544(13)
H4 H 1.1272 0.9583 0.5732
C4 C 1.3332(8) 0.8500(5) 0.54074(13)
H5 H 1.4162 0.9193 0.5313
C5 C 1.3830(9) 0.7266(5) 0.53020(14)
H6 H 1.5014 0.7107 0.5137
C6 C 1.2612(9) 0.6257(5) 0.54353(13)
H7 H 1.2966 0.5406 0.5364
C7 C 1.0871(8) 0.6485(4) 0.56740(12)
H8 H 1.0023 0.5791 0.5762
C8 C 0.7140(9) 0.9151(4) 0.65602(14)
H9 H 0.6150 0.9651 0.6396
H10 H 0.7578 0.9698 0.6780
C9 C 0.5640(8) 0.7038(5) 0.63773(14)
H11 H 0.5098 0.6214 0.6479
H12 H 0.4556 0.7391 0.6198
C10 C 0.5989(8) 0.7970(4) 0.67141(12)
C11 C 0.3785(8) 0.8368(5) 0.68698(14)
H13 H 0.2913 0.8713 0.6655
H14 H 0.3045 0.7608 0.6975
C12 C 0.7350(8) 0.7357(5) 0.70299(13)
H15 H 0.8744 0.7098 0.6920
H16 H 0.7618 0.7987 0.7238
loop_
_geom_bond_atom_site_label_1
_geom_bond_atom_site_label_2
_geom_bond_site_symmetry_1
_geom_bond_site_symmetry_2
O1 C1 1_555 1_555
O2 C1 1_555 1_555
O3 H1 1_555 1_555
O4 H2 1_555 1_555
C1 H3 1_555 1_555
C2 C1 1_555 1_555
C3 C2 1_555 1_555
H4 C3 1_555 1_555
C4 C3 1_555 1_555
H5 C4 1_555 1_555
C5 C4 1_555 1_555
H6 C5 1_555 1_555
C6 C5 1_555 1_555
H7 C6 1_555 1_555
C7 C2 1_555 1_555
H8 C7 1_555 1_555
C8 O1 1_555 1_555
H9 C8 1_555 1_555
H10 C8 1_555 1_555
C9 O2 1_555 1_555
H11 C9 1_555 1_555
H12 C9 1_555 1_555
C10 C8 1_555 1_555
C11 O3 1_555 1_555
H13 C11 1_555 1_555
H14 C11 1_555 1_555
C12 O4 1_555 1_555
H15 C12 1_555 1_555
H16 C12 1_555 1_555
C6 C7 1_555 1_555
C9 C10 1_555 1_555
C10 C11 1_555 1_555
C10 C12 1_555 1_555

#END
