
#######################################################################
#
#                 Cambridge Crystallographic Data Centre
#                                CCDC 
#
#######################################################################
#
# If this CIF has been generated from an entry in the Cambridge 
# Structural Database, then it will include bibliographic, chemical, 
# crystal, experimental, refinement or atomic coordinate data resulting 
# from the CCDC's data processing and validation procedures.
#
#######################################################################

data_QOFJUS
_chemical_formula_moiety         'C29 H28 N2 O3'
_chemical_name_systematic        
'ethyl 1-acetyl-3-(4-methylbenzyl)-2-methylene-1,2,3,3a-tetrahydropyrazolo[1,5-f]phenanthridine-3-carboxylate'
_symmetry_cell_setting           monoclinic
_symmetry_space_group_name_H-M   'C 2/c'
_symmetry_Int_Tables_number      15
_space_group_name_Hall           '-C 2yn'
loop_
_symmetry_equiv_pos_site_id
_symmetry_equiv_pos_as_xyz
1 x,y,z
2 -x,y,1/2-z
3 1/2+x,1/2+y,z
4 1/2-x,1/2+y,1/2-z
5 -x,-y,-z
6 x,-y,1/2+z
7 1/2-x,1/2-y,-z
8 1/2+x,1/2-y,1/2+z
_cell_length_a                   36.885(7)
_cell_length_b                   10.314(2)
_cell_length_c                   13.387(3)
_cell_angle_alpha                90
_cell_angle_beta                 110.87(3)
_cell_angle_gamma                90
_cell_volume                     4758.71
_exptl_crystal_colour            colorless
_exptl_crystal_description       rod
_cell_formula_units_Z            8
loop_
_atom_site_label
_atom_site_type_symbol
_atom_site_fract_x
_atom_site_fract_y
_atom_site_fract_z
O1 O 0.21550(4) 0.68489(13) 0.35544(12)
O2 O 0.10570(5) 1.00567(16) 0.37809(12)
O3 O 0.09045(4) 1.15268(14) 0.24660(12)
N1 N 0.19530(5) 1.02083(14) 0.30979(12)
N2 N 0.18992(5) 0.88573(15) 0.32201(12)
C1 C 0.19846(5) 1.09436(18) 0.40339(15)
C2 C 0.21438(6) 1.0398(2) 0.50474(15)
H1 H 0.2211 0.9504 0.5124
C3 C 0.22041(6) 1.1159(2) 0.59428(16)
H2 H 0.2316 1.0787 0.6634
C4 C 0.21039(7) 1.2452(2) 0.58405(17)
H3 H 0.2146 1.2969 0.6459
C5 C 0.19422(6) 1.2995(2) 0.48317(17)
H4 H 0.1870 1.3884 0.4766
C6 C 0.18828(6) 1.22620(18) 0.39098(15)
C7 C 0.17196(6) 1.28139(18) 0.28256(16)
C8 C 0.17036(6) 1.41477(19) 0.26345(17)
H5 H 0.1805 1.4731 0.3218
C9 C 0.15428(6) 1.4629(2) 0.16079(18)
H6 H 0.1527 1.5539 0.1490
C10 C 0.14042(6) 1.3786(2) 0.07493(17)
H7 H 0.1293 1.4118 0.0044
C11 C 0.14279(6) 1.24548(19) 0.09190(16)
H8 H 0.1338 1.1877 0.0329
C12 C 0.15835(5) 1.19699(18) 0.19540(15)
C13 C 0.16152(5) 1.05336(18) 0.21444(14)
H9 H 0.1666 1.0146 0.1522
C14 C 0.12724(5) 0.97284(18) 0.22794(14)
C15 C 0.14938(6) 0.85546(18) 0.28837(15)
C16 C 0.13485(7) 0.7462(2) 0.31006(17)
H10 H 0.1517 0.6805 0.3509
H11 H 0.1076 0.7335 0.2848
C17 C 0.22069(6) 0.80158(19) 0.34980(14)
C18 C 0.26051(6) 0.8574(2) 0.37621(16)
H12 H 0.2741 0.8562 0.4538
H13 H 0.2585 0.9470 0.3503
H14 H 0.2750 0.8057 0.3417
C19 C 0.10721(6) 1.04270(19) 0.29451(15)
C20 C 0.07167(9) 1.2314(3) 0.3033(2)
H15 H 0.0907 1.2599 0.3728
H16 H 0.0509 1.1815 0.3166
C21 C 0.05498(11) 1.3456(3) 0.2338(3)
H17 H 0.0361 1.3158 0.1655
H18 H 0.0758 1.3936 0.2209
H19 H 0.0420 1.4023 0.2693
C22 C 0.09756(6) 0.9429(2) 0.11403(15)
H20 H 0.0894 1.0263 0.0760
H21 H 0.1112 0.8930 0.0748
C23 C 0.06137(6) 0.8688(2) 0.10735(16)
C24 C 0.02968(6) 0.9309(2) 0.11939(18)
H22 H 0.0305 1.0219 0.1308
C25 C -0.00312(7) 0.8622(3) 0.1151(2)
H23 H -0.0242 0.9069 0.1243
C26 C -0.00572(8) 0.7307(3) 0.0977(2)
C27 C 0.02524(8) 0.6685(3) 0.0829(2)
H24 H 0.0239 0.5777 0.0700
C28 C 0.05824(7) 0.7365(2) 0.08648(19)
H25 H 0.0789 0.6920 0.0745
C29 C -0.04129(9) 0.6564(4) 0.0967(3)
H26 H -0.0430 0.5745 0.0582
H27 H -0.0646 0.7084 0.0609
H28 H -0.0393 0.6384 0.1703
loop_
_geom_bond_atom_site_label_1
_geom_bond_atom_site_label_2
_geom_bond_site_symmetry_1
_geom_bond_site_symmetry_2
O1 C17 1_555 1_555
O2 C19 1_555 1_555
O3 C19 1_555 1_555
N1 N2 1_555 1_555
N2 C15 1_555 1_555
C1 N1 1_555 1_555
C2 C1 1_555 1_555
H1 C2 1_555 1_555
C3 C2 1_555 1_555
H2 C3 1_555 1_555
C4 C3 1_555 1_555
H3 C4 1_555 1_555
C5 C4 1_555 1_555
H4 C5 1_555 1_555
C6 C1 1_555 1_555
C7 C6 1_555 1_555
C8 C7 1_555 1_555
H5 C8 1_555 1_555
C9 C8 1_555 1_555
H6 C9 1_555 1_555
C10 C9 1_555 1_555
H7 C10 1_555 1_555
C11 C10 1_555 1_555
H8 C11 1_555 1_555
C12 C7 1_555 1_555
C13 N1 1_555 1_555
H9 C13 1_555 1_555
C14 C13 1_555 1_555
C15 C14 1_555 1_555
C16 C15 1_555 1_555
H10 C16 1_555 1_555
H11 C16 1_555 1_555
C17 N2 1_555 1_555
C18 C17 1_555 1_555
H12 C18 1_555 1_555
H13 C18 1_555 1_555
H14 C18 1_555 1_555
C19 C14 1_555 1_555
C20 O3 1_555 1_555
H15 C20 1_555 1_555
H16 C20 1_555 1_555
C21 C20 1_555 1_555
H17 C21 1_555 1_555
H18 C21 1_555 1_555
H19 C21 1_555 1_555
C22 C14 1_555 1_555
H20 C22 1_555 1_555
H21 C22 1_555 1_555
C23 C22 1_555 1_555
C24 C23 1_555 1_555
H22 C24 1_555 1_555
C25 C24 1_555 1_555
H23 C25 1_555 1_555
C26 C25 1_555 1_555
C27 C26 1_555 1_555
H24 C27 1_555 1_555
C28 C23 1_555 1_555
H25 C28 1_555 1_555
C29 C26 1_555 1_555
H26 C29 1_555 1_555
H27 C29 1_555 1_555
H28 C29 1_555 1_555
C5 C6 1_555 1_555
C11 C12 1_555 1_555
C12 C13 1_555 1_555
C27 C28 1_555 1_555

#END
