
#######################################################################
#
#                 Cambridge Crystallographic Data Centre
#                                CCDC 
#
#######################################################################
#
# If this CIF has been generated from an entry in the Cambridge 
# Structural Database, then it will include bibliographic, chemical, 
# crystal, experimental, refinement or atomic coordinate data resulting 
# from the CCDC's data processing and validation procedures.
#
#######################################################################

data_QOFJIF
_chemical_compound_source        'Arctium lappa (Burdock)'
_chemical_name_common            Arctigenin
_chemical_formula_moiety         'C21 H24 O6'
_chemical_name_systematic        
(3R-trans)-4-((3,4-dimethoxyphenyl)methyl)-3-((4-hydroxy-3-methoxyphenyl)methyl)-4,5-dihydrofuran-2(3H)-one
_symmetry_cell_setting           orthorhombic
_symmetry_space_group_name_H-M   'P 21 21 21'
_symmetry_Int_Tables_number      19
_space_group_name_Hall           'P 2ac 2ab'
loop_
_symmetry_equiv_pos_site_id
_symmetry_equiv_pos_as_xyz
1 x,y,z
2 1/2-x,-y,1/2+z
3 -x,1/2+y,1/2-z
4 1/2+x,1/2-y,-z
_cell_length_a                   9.4845(19)
_cell_length_b                   10.065(2)
_cell_length_c                   19.915(4)
_cell_angle_alpha                90
_cell_angle_beta                 90
_cell_angle_gamma                90
_cell_volume                     1901.12
_exptl_crystal_colour            colorless
_exptl_crystal_description       block
_cell_formula_units_Z            4
_exptl_crystal_recrystallization_method methanol
loop_
_atom_site_label
_atom_site_type_symbol
_atom_site_fract_x
_atom_site_fract_y
_atom_site_fract_z
O1 O 0.07380(13) 0.28900(13) 0.73971(6)
O2 O 0.23820(12) 0.17843(12) 0.82576(5)
O3 O 0.38552(14) 0.79457(13) 0.92594(6)
O4 O 0.34335(15) 0.69713(14) 1.02429(6)
O5 O 0.96166(13) 0.15373(12) 0.87738(6)
H1 H 1.036(2) 0.195(2) 0.8592(10)
O6 O 1.04322(12) 0.40766(12) 0.88872(6)
C1 C 0.44649(17) 0.48348(17) 0.79244(7)
C2 C 0.35798(18) 0.53926(18) 0.74441(8)
H2 H 0.3827 0.6219 0.7246
C3 C 0.23339(18) 0.47622(18) 0.72471(8)
H3 H 0.1747 0.5159 0.6917
C4 C 0.19554(17) 0.35649(18) 0.75310(8)
C5 C 0.28519(17) 0.29699(17) 0.80056(7)
C6 C 0.40879(17) 0.35955(17) 0.81937(7)
H4 H 0.4693 0.3180 0.8511
C7 C -0.0319(2) 0.3594(2) 0.70329(11)
H5 H -0.0003 0.3730 0.6569
H6 H -0.0485 0.4458 0.7246
H7 H -0.1196 0.3079 0.7033
C8 C 0.32263(19) 0.11735(19) 0.87673(9)
H8 H 0.3305 0.1774 0.9153
H9 H 0.4168 0.0988 0.8588
H10 H 0.2784 0.0340 0.8910
C9 C 0.57710(16) 0.55340(17) 0.81719(7)
H11 H 0.6165 0.6068 0.7799
H12 H 0.6482 0.4855 0.8294
C10 C 0.55425(17) 0.64553(16) 0.87818(8)
H13 H 0.6479 0.6827 0.8916
C11 C 0.4557(2) 0.76166(18) 0.86314(9)
H14 H 0.5100 0.8389 0.8464
H15 H 0.3856 0.7361 0.8286
C12 C 0.39834(18) 0.69247(18) 0.96988(8)
C13 C 0.48662(16) 0.58224(16) 0.94058(8)
H16 H 0.4229 0.5086 0.9259
C14 C 0.58852(17) 0.52865(17) 0.99399(7)
H17 H 0.6435 0.6035 1.0129
H18 H 0.5334 0.4884 1.0310
C15 C 0.68864(17) 0.42650(16) 0.96613(8)
C16 C 0.65324(16) 0.29296(17) 0.96147(7)
H19 H 0.5651 0.2633 0.9785
C17 C 0.74541(16) 0.20166(17) 0.93208(7)
H20 H 0.7201 0.1105 0.9295
C18 C 0.87370(16) 0.24419(16) 0.90675(7)
C19 C 0.91196(16) 0.37751(17) 0.91323(7)
C20 C 0.82073(16) 0.46753(17) 0.94260(7)
H21 H 0.8479 0.5580 0.9469
C21 C 1.08409(19) 0.54337(18) 0.89079(10)
H22 H 1.0905 0.5726 0.9376
H23 H 1.0139 0.5973 0.8671
H24 H 1.1761 0.5538 0.8691
loop_
_geom_bond_atom_site_label_1
_geom_bond_atom_site_label_2
_geom_bond_site_symmetry_1
_geom_bond_site_symmetry_2
O1 C4 1_555 1_555
O2 C5 1_555 1_555
O3 C11 1_555 1_555
O4 C12 1_555 1_555
O5 H1 1_555 1_555
O6 C19 1_555 1_555
C1 C2 1_555 1_555
C2 H2 1_555 1_555
C3 C2 1_555 1_555
H3 C3 1_555 1_555
C4 C3 1_555 1_555
C5 C4 1_555 1_555
C6 C1 1_555 1_555
H4 C6 1_555 1_555
C7 O1 1_555 1_555
H5 C7 1_555 1_555
H6 C7 1_555 1_555
H7 C7 1_555 1_555
C8 O2 1_555 1_555
H8 C8 1_555 1_555
H9 C8 1_555 1_555
H10 C8 1_555 1_555
C9 C1 1_555 1_555
H11 C9 1_555 1_555
H12 C9 1_555 1_555
C10 C9 1_555 1_555
H13 C10 1_555 1_555
C11 C10 1_555 1_555
H14 C11 1_555 1_555
H15 C11 1_555 1_555
C12 O3 1_555 1_555
C13 C10 1_555 1_555
H16 C13 1_555 1_555
C14 C13 1_555 1_555
H17 C14 1_555 1_555
H18 C14 1_555 1_555
C15 C14 1_555 1_555
C16 C15 1_555 1_555
H19 C16 1_555 1_555
C17 C16 1_555 1_555
H20 C17 1_555 1_555
C18 O5 1_555 1_555
C19 C18 1_555 1_555
C20 C15 1_555 1_555
H21 C20 1_555 1_555
C21 O6 1_555 1_555
H22 C21 1_555 1_555
H23 C21 1_555 1_555
H24 C21 1_555 1_555
C5 C6 1_555 1_555
C12 C13 1_555 1_555
C17 C18 1_555 1_555
C19 C20 1_555 1_555

#END
