
#######################################################################
#
#                 Cambridge Crystallographic Data Centre
#                                CCDC 
#
#######################################################################
#
# If this CIF has been generated from an entry in the Cambridge 
# Structural Database, then it will include bibliographic, chemical, 
# crystal, experimental, refinement or atomic coordinate data resulting 
# from the CCDC's data processing and validation procedures.
#
#######################################################################

data_QOFLIH
_chemical_formula_moiety         'C11 H18 N2 S1 2+,2(Br1 1-)'
_chemical_name_systematic        
'(S)-2-((2-Ammoniophenyl)sulfanylmethyl)pyrrolidinium dibromide'
_symmetry_cell_setting           orthorhombic
_symmetry_space_group_name_H-M   'P 21 21 21'
_symmetry_Int_Tables_number      19
_space_group_name_Hall           'P 2ac 2ab'
loop_
_symmetry_equiv_pos_site_id
_symmetry_equiv_pos_as_xyz
1 x,y,z
2 1/2-x,-y,1/2+z
3 -x,1/2+y,1/2-z
4 1/2+x,1/2-y,-z
_cell_length_a                   7.9399(9)
_cell_length_b                   10.8427(13)
_cell_length_c                   17.658(2)
_cell_angle_alpha                90
_cell_angle_beta                 90
_cell_angle_gamma                90
_cell_volume                     1520.18
_exptl_crystal_colour            colorless
_exptl_crystal_description       prismatic
_cell_formula_units_Z            4
_exptl_crystal_recrystallization_method ethanol
loop_
_atom_site_label
_atom_site_type_symbol
_atom_site_fract_x
_atom_site_fract_y
_atom_site_fract_z
Br1 Br 0.30470(12) -0.24305(9) -0.08797(5)
Br2 Br -0.38177(12) 0.34415(8) 0.06967(5)
S1 S -0.0443(3) 0.1034(2) 0.14946(13)
N1 N 0.0399(9) 0.3571(6) 0.0600(4)
H1 H 0.0636 0.2939 0.0288
H2 H -0.0728 0.3650 0.0630
N2 N 0.1147(12) -0.0815(8) 0.0452(5)
C1 C 0.1159(18) 0.4726(9) 0.0308(7)
H3 H 0.0296 0.5273 0.0111
H4 H 0.1959 0.4549 -0.0093
C2 C 0.2025(14) 0.5297(9) 0.0973(7)
H5 H 0.3237 0.5225 0.0921
H6 H 0.1735 0.6164 0.1013
C3 C 0.1443(14) 0.4625(9) 0.1640(6)
H7 H 0.0420 0.4990 0.1840
H8 H 0.2297 0.4627 0.2033
C4 C 0.1120(12) 0.3339(8) 0.1362(4)
H9 H 0.2194 0.2901 0.1309
C5 C -0.0079(11) 0.2577(8) 0.1852(4)
H10 H -0.1150 0.3004 0.1885
H11 H 0.0381 0.2519 0.2359
C6 C 0.1553(11) 0.0316(8) 0.1640(5)
C7 C 0.2504(11) 0.0537(9) 0.2270(5)
H12 H 0.2117 0.1092 0.2632
C8 C 0.4032(13) -0.0049(10) 0.2382(6)
H13 H 0.4680 0.0138 0.2805
C9 C 0.4579(14) -0.0887(10) 0.1879(6)
H14 H 0.5602 -0.1285 0.1956
C10 C 0.3611(11) -0.1161(8) 0.1239(5)
H15 H 0.3980 -0.1750 0.0893
C11 C 0.2112(12) -0.0555(8) 0.1123(5)
H16 H 0.157(10) -0.127(6) 0.012(4)
H17 H 0.094(12) -0.032(6) 0.010(3)
H18 H 0.043(10) -0.135(7) 0.054(6)
loop_
_geom_bond_atom_site_label_1
_geom_bond_atom_site_label_2
_geom_bond_site_symmetry_1
_geom_bond_site_symmetry_2
S1 C5 1_555 1_555
N1 H1 1_555 1_555
H2 N1 1_555 1_555
N2 C11 1_555 1_555
C1 N1 1_555 1_555
H3 C1 1_555 1_555
H4 C1 1_555 1_555
C2 C1 1_555 1_555
H5 C2 1_555 1_555
H6 C2 1_555 1_555
C3 C2 1_555 1_555
H7 C3 1_555 1_555
H8 C3 1_555 1_555
C4 N1 1_555 1_555
H9 C4 1_555 1_555
C5 C4 1_555 1_555
H10 C5 1_555 1_555
H11 C5 1_555 1_555
C6 S1 1_555 1_555
C7 C6 1_555 1_555
H12 C7 1_555 1_555
C8 C7 1_555 1_555
H13 C8 1_555 1_555
C9 C8 1_555 1_555
H14 C9 1_555 1_555
C10 C9 1_555 1_555
H15 C10 1_555 1_555
C11 C6 1_555 1_555
H16 N2 1_555 1_555
H17 N2 1_555 1_555
H18 N2 1_555 1_555
C3 C4 1_555 1_555
C10 C11 1_555 1_555

#END
