
#######################################################################
#
#                 Cambridge Crystallographic Data Centre
#                                CCDC 
#
#######################################################################
#
# If this CIF has been generated from an entry in the Cambridge 
# Structural Database, then it will include bibliographic, chemical, 
# crystal, experimental, refinement or atomic coordinate data resulting 
# from the CCDC's data processing and validation procedures.
#
#######################################################################

data_QOFVOY
_chemical_formula_moiety         'C24 H30 N10 O3,0.5(H2 O1)'
_chemical_name_systematic        
"1,1',1''-(nitrilotriethane-2,1-diyl)tris(3-pyridin-4-ylurea) hemihydrate"
_symmetry_cell_setting           monoclinic
_symmetry_space_group_name_H-M   'C 2/c'
_symmetry_Int_Tables_number      15
_space_group_name_Hall           '-C 2yn'
loop_
_symmetry_equiv_pos_site_id
_symmetry_equiv_pos_as_xyz
1 x,y,z
2 -x,y,1/2-z
3 1/2+x,1/2+y,z
4 1/2-x,1/2+y,1/2-z
5 -x,-y,-z
6 x,-y,1/2+z
7 1/2-x,1/2-y,-z
8 1/2+x,1/2-y,1/2+z
_cell_length_a                   25.391(4)
_cell_length_b                   9.8909(17)
_cell_length_c                   20.453(4)
_cell_angle_alpha                90
_cell_angle_beta                 94.595(3)
_cell_angle_gamma                90
_cell_volume                     5120.05
_exptl_crystal_colour            colorless
_exptl_crystal_description       block
_cell_formula_units_Z            8
loop_
_atom_site_label
_atom_site_type_symbol
_atom_site_fract_x
_atom_site_fract_y
_atom_site_fract_z
O1 O 0.00874(7) 0.3497(2) -0.03846(11)
O2 O 0.17622(6) 0.58356(19) 0.08257(8)
O3 O 0.32602(7) 0.3534(2) 0.03103(9)
N1 N 0.16962(8) 0.5801(2) -0.09033(9)
N2 N 0.09341(8) 0.3516(2) -0.06599(12)
H1 H 0.1248 0.3220 -0.0556
N3 N 0.06859(8) 0.1956(2) 0.00708(11)
H2 H 0.0995 0.1629 0.0031
N4 N -0.01452(13) 0.0175(5) 0.14913(18)
N5 N 0.11153(8) 0.6959(2) 0.02068(10)
H3 H 0.0782 0.7113 0.0147
N6 N 0.08931(8) 0.5339(2) 0.09408(10)
H4 H 0.0572 0.5586 0.0839
N7 N 0.11262(18) 0.2095(4) 0.2186(2)
N8 N 0.25131(8) 0.4692(2) 0.00104(10)
H5 H 0.2249 0.5120 0.0148
N9 N 0.27484(8) 0.4320(2) 0.10943(10)
H6 H 0.2480 0.4814 0.1164
N10 N 0.36215(13) 0.2644(3) 0.26875(14)
C1 C 0.13921(10) 0.4954(3) -0.13893(11)
H7 H 0.1598 0.4156 -0.1473
H8 H 0.1338 0.5454 -0.1797
C2 C 0.08618(10) 0.4515(3) -0.11800(14)
H9 H 0.0674 0.5292 -0.1026
H10 H 0.0652 0.4131 -0.1552
C3 C 0.05371(9) 0.3030(3) -0.03321(12)
C4 C 0.03914(9) 0.1333(3) 0.05386(12)
C5 C -0.00184(10) 0.1970(4) 0.08277(14)
H11 H -0.0111 0.2841 0.0691
C6 C -0.02851(11) 0.1406(4) 0.12876(15)
H12 H -0.0562 0.1860 0.1462
C7 C 0.02637(14) -0.0543(4) 0.12407(17)
H13 H 0.0351 -0.1408 0.1391
C8 C 0.05363(13) 0.0060(3) 0.07643(16)
H14 H 0.0817 -0.0388 0.0595
C9 C 0.14818(11) 0.7172(3) -0.08806(12)
H15 H 0.1126 0.7178 -0.1092
H16 H 0.1695 0.7773 -0.1125
C10 C 0.14686(11) 0.7707(3) -0.01799(13)
H17 H 0.1823 0.7668 0.0036
H18 H 0.1360 0.8647 -0.0197
C11 C 0.12880(8) 0.6023(2) 0.06611(11)
C12 C 0.09797(9) 0.4261(3) 0.13831(12)
C13 C 0.06515(12) 0.4099(4) 0.18916(13)
H19 H 0.0388 0.4727 0.1954
C14 C 0.07219(16) 0.3006(4) 0.22980(16)
H20 H 0.0507 0.2872 0.2640
C15 C 0.14434(12) 0.2223(3) 0.17023(17)
H21 H 0.1708 0.1598 0.1641
C16 C 0.13630(11) 0.3286(3) 0.13122(16)
H22 H 0.1578 0.3384 0.0968
C17 C 0.22601(10) 0.5802(3) -0.10155(12)
H23 H 0.2420 0.6633 -0.0844
H24 H 0.2297 0.5779 -0.1484
C18 C 0.25531(10) 0.4603(3) -0.06923(12)
H25 H 0.2398 0.3763 -0.0860
H26 H 0.2921 0.4621 -0.0788
C19 C 0.28655(8) 0.4143(2) 0.04557(11)
C20 C 0.30392(9) 0.3747(3) 0.16456(11)
C21 C 0.35898(10) 0.3795(3) 0.17115(13)
H27 H 0.3764 0.4230 0.1388
C22 C 0.38794(9) 0.3240(3) 0.22213(12)
H28 H 0.4247 0.3270 0.2249
C23 C 0.30800(13) 0.2585(4) 0.26690(14)
H29 H 0.2915 0.2180 0.3009
C24 C 0.27829(11) 0.3137(3) 0.21362(13)
H30 H 0.2416 0.3097 0.2111
O4 O 0.5000 0.2040(4) 0.2500
H31 H 0.4768(13) 0.268(3) 0.240(2)
H31A H 0.5232(13) 0.268(3) 0.260(2)
loop_
_geom_bond_atom_site_label_1
_geom_bond_atom_site_label_2
_geom_bond_site_symmetry_1
_geom_bond_site_symmetry_2
O1 C3 1_555 1_555
O2 C11 1_555 1_555
O3 C19 1_555 1_555
N1 C1 1_555 1_555
N2 H1 1_555 1_555
N3 H2 1_555 1_555
N4 C6 1_555 1_555
N5 H3 1_555 1_555
N6 H4 1_555 1_555
N7 C14 1_555 1_555
N8 H5 1_555 1_555
N9 H6 1_555 1_555
N10 C22 1_555 1_555
C1 H7 1_555 1_555
H8 C1 1_555 1_555
C2 N2 1_555 1_555
H9 C2 1_555 1_555
H10 C2 1_555 1_555
C3 N2 1_555 1_555
C4 N3 1_555 1_555
C5 C4 1_555 1_555
H11 C5 1_555 1_555
C6 C5 1_555 1_555
H12 C6 1_555 1_555
C7 N4 1_555 1_555
H13 C7 1_555 1_555
C8 C4 1_555 1_555
H14 C8 1_555 1_555
C9 N1 1_555 1_555
H15 C9 1_555 1_555
H16 C9 1_555 1_555
C10 N5 1_555 1_555
H17 C10 1_555 1_555
H18 C10 1_555 1_555
C11 N5 1_555 1_555
C12 N6 1_555 1_555
C13 C12 1_555 1_555
H19 C13 1_555 1_555
C14 C13 1_555 1_555
H20 C14 1_555 1_555
C15 N7 1_555 1_555
H21 C15 1_555 1_555
C16 C12 1_555 1_555
H22 C16 1_555 1_555
C17 N1 1_555 1_555
H23 C17 1_555 1_555
H24 C17 1_555 1_555
C18 N8 1_555 1_555
H25 C18 1_555 1_555
H26 C18 1_555 1_555
C19 N8 1_555 1_555
C20 N9 1_555 1_555
C21 C20 1_555 1_555
H27 C21 1_555 1_555
C22 C21 1_555 1_555
H28 C22 1_555 1_555
C23 N10 1_555 1_555
H29 C23 1_555 1_555
C24 C20 1_555 1_555
H30 C24 1_555 1_555
O4 H31 1_555 1_555
H31A O4 1_555 1_555
N3 C3 1_555 1_555
N6 C11 1_555 1_555
N9 C19 1_555 1_555
C1 C2 1_555 1_555
C7 C8 1_555 1_555
C9 C10 1_555 1_555
C15 C16 1_555 1_555
C17 C18 1_555 1_555
C23 C24 1_555 1_555

#END
