
#######################################################################
#
#                 Cambridge Crystallographic Data Centre
#                                CCDC 
#
#######################################################################
#
# If this CIF has been generated from an entry in the Cambridge 
# Structural Database, then it will include bibliographic, chemical, 
# crystal, experimental, refinement or atomic coordinate data resulting 
# from the CCDC's data processing and validation procedures.
#
#######################################################################

data_QOFWEP
_chemical_formula_moiety         'C21 H31 N3 O2 S1,C2 H6 O1 S1'
_chemical_name_systematic        
'methyl 4-(4-t-butylphenyl)-6-(piperidin-1-yl)-2-thioxohexahydropyrimidine-5-carboxylate dimethyl sulfoxide solvate'
_symmetry_cell_setting           triclinic
_symmetry_space_group_name_H-M   'P -1'
_symmetry_Int_Tables_number      2
_space_group_name_Hall           '-P 1'
loop_
_symmetry_equiv_pos_site_id
_symmetry_equiv_pos_as_xyz
1 x,y,z
2 -x,-y,-z
_cell_length_a                   5.9873(13)
_cell_length_b                   14.283(3)
_cell_length_c                   16.323(4)
_cell_angle_alpha                112.958(3)
_cell_angle_beta                 91.203(3)
_cell_angle_gamma                96.878(3)
_cell_volume                     1272.57
_exptl_crystal_colour            colorless
_exptl_crystal_description       block
_cell_formula_units_Z            2
loop_
_atom_site_label
_atom_site_type_symbol
_atom_site_fract_x
_atom_site_fract_y
_atom_site_fract_z
C1 C 0.7886(5) 1.1603(2) 0.23546(19)
H1 H 0.7112 1.1307 0.2732
H2 H 0.6825 1.1520 0.1866
C2 C 0.8607(7) 1.2719(3) 0.2883(3)
H3 H 0.9324 1.2808 0.3452
H4 H 0.7280 1.3066 0.3002
C3 C 1.0202(7) 1.3217(3) 0.2432(3)
H5 H 1.0847 1.3892 0.2859
H6 H 0.9373 1.3305 0.1956
C4 C 1.2070(6) 1.2603(3) 0.2051(3)
H7 H 1.2873 1.2884 0.1669
H8 H 1.3127 1.2664 0.2534
C5 C 1.1229(5) 1.1498(3) 0.1526(2)
H9 H 1.0434 1.1426 0.0976
H10 H 1.2508 1.1121 0.1368
C6 C 0.9259(4) 0.9947(2) 0.15898(16)
H11 H 1.0570 0.9682 0.1274
C7 C 0.8836(4) 0.94788(19) 0.22779(16)
H12 H 0.7591 0.9761 0.2632
C8 C 1.0958(5) 0.9708(2) 0.28775(18)
C9 C 1.2411(7) 1.0162(3) 0.4355(2)
H13 H 1.2761 0.9496 0.4279
H14 H 1.2016 1.0515 0.4955
H15 H 1.3701 1.0550 0.4241
C10 C 0.8240(4) 0.8303(2) 0.17708(16)
H16 H 0.9488 0.8037 0.1411
C11 C 0.5785(5) 0.8726(2) 0.07535(16)
C12 C 0.7847(4) 0.77724(19) 0.24092(16)
C13 C 0.5932(4) 0.7856(2) 0.28843(18)
H17 H 0.4834 0.8222 0.2794
C14 C 0.5645(5) 0.7401(2) 0.34893(19)
H18 H 0.4346 0.7467 0.3798
C15 C 0.7241(4) 0.6847(2) 0.36509(17)
C16 C 0.9137(5) 0.6772(2) 0.31737(19)
H19 H 1.0241 0.6411 0.3269
C17 C 0.9451(4) 0.7217(2) 0.25551(18)
H20 H 1.0738 0.7142 0.2239
C18 C 0.6786(5) 0.6298(2) 0.42870(19)
C19 C 0.4973(7) 0.5364(3) 0.3816(3)
H21 H 0.5513 0.4910 0.3275
H22 H 0.3623 0.5591 0.3678
H23 H 0.4652 0.5008 0.4201
C20 C 0.8874(6) 0.5920(3) 0.4531(3)
H24 H 0.9358 0.5414 0.4004
H25 H 0.8520 0.5620 0.4954
H26 H 1.0060 0.6487 0.4788
C21 C 0.5901(8) 0.7000(3) 0.5157(2)
H27 H 0.5455 0.6612 0.5506
H28 H 0.4626 0.7276 0.5021
H29 H 0.7069 0.7551 0.5488
N1 N 0.9747(4) 1.10522(17) 0.19986(14)
N2 N 0.7259(4) 0.95766(17) 0.09344(14)
H30 H 0.7025 0.9947 0.0642
N3 N 0.6219(4) 0.81191(17) 0.11740(14)
H31 H 0.5251 0.7588 0.1089
O1 O 1.2787(4) 0.95731(18) 0.26238(15)
O2 O 1.0532(4) 1.00485(17) 0.37358(13)
S1 S 0.35362(13) 0.84187(6) 0.00123(5)
C22 C 0.1596(6) 0.4038(3) 0.0350(2)
H32 H 0.0116 0.4157 0.0213
H33 H 0.1473 0.3456 0.0510
H34 H 0.2457 0.3906 -0.0164
C23 C 0.5599(6) 0.4699(3) 0.1253(2)
H35 H 0.6166 0.4534 0.0674
H36 H 0.5409 0.4097 0.1384
H37 H 0.6648 0.5223 0.1694
O3 O 0.3328(4) 0.59944(17) 0.09281(15)
S2 S 0.29781(15) 0.51478(7) 0.12622(5)
loop_
_geom_bond_atom_site_label_1
_geom_bond_atom_site_label_2
_geom_bond_site_symmetry_1
_geom_bond_site_symmetry_2
C1 H1 1_555 1_555
H2 C1 1_555 1_555
C2 C1 1_555 1_555
H3 C2 1_555 1_555
H4 C2 1_555 1_555
C3 C2 1_555 1_555
H5 C3 1_555 1_555
H6 C3 1_555 1_555
C4 C3 1_555 1_555
H7 C4 1_555 1_555
H8 C4 1_555 1_555
C5 C4 1_555 1_555
H9 C5 1_555 1_555
H10 C5 1_555 1_555
C6 H11 1_555 1_555
C7 C6 1_555 1_555
H12 C7 1_555 1_555
C8 C7 1_555 1_555
C9 H13 1_555 1_555
H14 C9 1_555 1_555
H15 C9 1_555 1_555
C10 C7 1_555 1_555
H16 C10 1_555 1_555
C11 N2 1_555 1_555
C12 C10 1_555 1_555
C13 C12 1_555 1_555
H17 C13 1_555 1_555
C14 C13 1_555 1_555
H18 C14 1_555 1_555
C15 C14 1_555 1_555
C16 C15 1_555 1_555
H19 C16 1_555 1_555
C17 C12 1_555 1_555
H20 C17 1_555 1_555
C18 C15 1_555 1_555
C19 C18 1_555 1_555
H21 C19 1_555 1_555
H22 C19 1_555 1_555
H23 C19 1_555 1_555
C20 C18 1_555 1_555
H24 C20 1_555 1_555
H25 C20 1_555 1_555
H26 C20 1_555 1_555
C21 C18 1_555 1_555
H27 C21 1_555 1_555
H28 C21 1_555 1_555
H29 C21 1_555 1_555
N1 C1 1_555 1_555
N2 C6 1_555 1_555
H30 N2 1_555 1_555
N3 C10 1_555 1_555
H31 N3 1_555 1_555
O1 C8 1_555 1_555
O2 C8 1_555 1_555
S1 C11 1_555 1_555
C22 H32 1_555 1_555
H33 C22 1_555 1_555
H34 C22 1_555 1_555
C23 H35 1_555 1_555
H36 C23 1_555 1_555
H37 C23 1_555 1_555
O3 S2 1_555 1_555
S2 C22 1_555 1_555
C5 N1 1_555 1_555
C6 N1 1_555 1_555
C9 O2 1_555 1_555
C11 N3 1_555 1_555
C16 C17 1_555 1_555
C23 S2 1_555 1_555

#END
