
#######################################################################
#
#                 Cambridge Crystallographic Data Centre
#                                CCDC 
#
#######################################################################
#
# If this CIF has been generated from an entry in the Cambridge 
# Structural Database, then it will include bibliographic, chemical, 
# crystal, experimental, refinement or atomic coordinate data resulting 
# from the CCDC's data processing and validation procedures.
#
#######################################################################

data_QOFWIT
_chemical_formula_moiety         'C12 H13 Br1 N2 O3 S1'
_chemical_name_systematic        
'methyl 4-(4-bromophenyl)-6-hydroxy-2-thioxohexahydropyrimidine-5-carboxylate unknown solvate'
_symmetry_cell_setting           orthorhombic
_symmetry_space_group_name_H-M   'F d d 2'
_symmetry_Int_Tables_number      43
_space_group_name_Hall           'F 2 -2d'
loop_
_symmetry_equiv_pos_site_id
_symmetry_equiv_pos_as_xyz
1 x,y,z
2 -x,-y,z
3 1/4+x,1/4-y,1/4+z
4 1/4-x,1/4+y,1/4+z
5 x,1/2+y,1/2+z
6 -x,1/2-y,1/2+z
7 1/4+x,3/4-y,3/4+z
8 1/4-x,3/4+y,3/4+z
9 1/2+x,y,1/2+z
10 1/2-x,-y,1/2+z
11 3/4+x,1/4-y,3/4+z
12 3/4-x,1/4+y,3/4+z
13 1/2+x,1/2+y,z
14 1/2-x,1/2-y,z
15 3/4+x,3/4-y,1/4+z
16 3/4-x,3/4+y,1/4+z
_cell_length_a                   14.2229(18)
_cell_length_b                   52.225(7)
_cell_length_c                   9.9675(13)
_cell_angle_alpha                90
_cell_angle_beta                 90
_cell_angle_gamma                90
_cell_volume                     7403.77
_cell_formula_units_Z            16
loop_
_atom_site_label
_atom_site_type_symbol
_atom_site_fract_x
_atom_site_fract_y
_atom_site_fract_z
Br1 Br 0.36021(7) 0.02753(2) 0.7211(2)
C1 C 0.6285(5) 0.04092(12) 0.5714(7)
H1 H 0.6622 0.0372 0.4938
C2 C 0.5332(6) 0.03339(13) 0.5833(7)
H2 H 0.5023 0.0254 0.5125
C3 C 0.4880(5) 0.03814(14) 0.7016(10)
C4 C 0.5305(6) 0.05123(14) 0.8049(8)
H3 H 0.4966 0.0550 0.8823
C5 C 0.6212(5) 0.05865(14) 0.7942(8)
H4 H 0.6505 0.0670 0.8653
C6 C 0.6708(5) 0.05380(10) 0.6762(6)
C7 C 0.7726(5) 0.06305(11) 0.6618(6)
H5 H 0.7939 0.0595 0.5702
C8 C 0.8438(4) 0.10431(10) 0.7470(6)
C9 C 0.9367(4) 0.06507(11) 0.7576(7)
H6 H 0.9788 0.0579 0.8256
C10 C 0.8410(5) 0.05050(10) 0.7605(7)
H7 H 0.8145 0.0521 0.8509
C11 C 0.8568(6) 0.02209(12) 0.7322(10)
C12 C 0.8655(8) -0.00978(16) 0.5693(14)
H8 H 0.9299 -0.0108 0.5408
H9 H 0.8251 -0.0146 0.4966
H10 H 0.8557 -0.0212 0.6437
N1 N 0.7744(4) 0.09093(8) 0.6839(5)
H11 H 0.7273 0.0996 0.6542
N2 N 0.9181(4) 0.09155(10) 0.7883(6)
H12 H 0.9584 0.0996 0.8370
O1 O 0.9746(4) 0.06141(10) 0.6334(6)
H13 H 0.9561 0.0727 0.5825
O2 O 0.8850(8) 0.00782(13) 0.8246(10)
O3 O 0.8448(5) 0.01567(11) 0.6092(8)
S1 S 0.83309(11) 0.13654(3) 0.76769(16)
loop_
_geom_bond_atom_site_label_1
_geom_bond_atom_site_label_2
_geom_bond_site_symmetry_1
_geom_bond_site_symmetry_2
Br1 C3 1_555 1_555
C1 H1 1_555 1_555
C2 C1 1_555 1_555
H2 C2 1_555 1_555
C3 C2 1_555 1_555
C4 C3 1_555 1_555
H3 C4 1_555 1_555
C5 C4 1_555 1_555
H4 C5 1_555 1_555
C6 C1 1_555 1_555
C7 C6 1_555 1_555
H5 C7 1_555 1_555
C8 N1 1_555 1_555
C9 H6 1_555 1_555
C10 C7 1_555 1_555
H7 C10 1_555 1_555
C11 C10 1_555 1_555
C12 H8 1_555 1_555
H9 C12 1_555 1_555
H10 C12 1_555 1_555
N1 C7 1_555 1_555
H11 N1 1_555 1_555
N2 C8 1_555 1_555
H12 N2 1_555 1_555
O1 C9 1_555 1_555
H13 O1 1_555 1_555
O2 C11 1_555 1_555
O3 C11 1_555 1_555
S1 C8 1_555 1_555
C5 C6 1_555 1_555
C9 C10 1_555 1_555
C9 N2 1_555 1_555
C12 O3 1_555 1_555

#END
