
#######################################################################
#
#                 Cambridge Crystallographic Data Centre
#                                CCDC 
#
#######################################################################
#
# If this CIF has been generated from an entry in the Cambridge 
# Structural Database, then it will include bibliographic, chemical, 
# crystal, experimental, refinement or atomic coordinate data resulting 
# from the CCDC's data processing and validation procedures.
#
#######################################################################

data_QOFYER
_chemical_formula_moiety         'C30 H29 N3 O5'
_chemical_name_systematic        
'methyl 3-((2-(1H-indol-3-yl)ethyl)amino)-2-(2-(4-methylphenyl)-3-nitro-3,4-dihydro-2H-chromen-4-yl)acrylate'
_symmetry_cell_setting           monoclinic
_symmetry_space_group_name_H-M   'P 21/c'
_symmetry_Int_Tables_number      14
_space_group_name_Hall           '-P 2ybc'
loop_
_symmetry_equiv_pos_site_id
_symmetry_equiv_pos_as_xyz
1 x,y,z
2 -x,1/2+y,1/2-z
3 -x,-y,-z
4 x,1/2-y,1/2+z
_cell_length_a                   13.1823(17)
_cell_length_b                   13.9995(17)
_cell_length_c                   16.9980(17)
_cell_angle_alpha                90
_cell_angle_beta                 121.582(7)
_cell_angle_gamma                90
_cell_volume                     2672.3
_cell_formula_units_Z            4
loop_
_atom_site_label
_atom_site_type_symbol
_atom_site_fract_x
_atom_site_fract_y
_atom_site_fract_z
C1 C 0.6901(3) 0.5642(3) 0.5646(2)
C2 C 0.7407(3) 0.6231(3) 0.5292(3)
H1 H 0.7820 0.5979 0.5033
C3 C 0.7281(4) 0.7190(4) 0.5334(3)
H2 H 0.7623 0.7602 0.5108
C4 C 0.6651(4) 0.7566(3) 0.5710(3)
H3 H 0.6573 0.8225 0.5724
C5 C 0.6138(3) 0.6985(3) 0.6061(2)
H4 H 0.5718 0.7248 0.6310
C6 C 0.6259(3) 0.5997(2) 0.6038(2)
C7 C 0.5869(3) 0.5191(3) 0.6329(2)
C8 C 0.6266(3) 0.4418(3) 0.6108(3)
H5 H 0.6131 0.3792 0.6214
C9 C 0.5130(3) 0.5189(3) 0.6764(3)
H6 H 0.4664 0.4606 0.6587
H7 H 0.4579 0.5721 0.6517
C10 C 0.5844(3) 0.5259(3) 0.7813(3)
H8 H 0.5307 0.5198 0.8038
H9 H 0.6405 0.4733 0.8063
C11 C 0.7623(3) 0.6243(2) 0.8386(2)
H10 H 0.8058 0.5682 0.8502
C12 C 0.8212(3) 0.7077(2) 0.8480(2)
C13 C 0.7565(3) 0.7966(2) 0.8241(2)
C14 C 0.7702(4) 0.9645(3) 0.8059(3)
H11 H 0.7294 0.9759 0.8381
H12 H 0.7142 0.9668 0.7405
H13 H 0.8300 1.0125 0.8226
C15 C 1.0940(3) 0.5704(2) 0.9426(2)
C16 C 1.1425(3) 0.4861(2) 0.9338(3)
H14 H 1.2073 0.4581 0.9852
C17 C 1.0938(4) 0.4441(3) 0.8483(3)
H15 H 1.1263 0.3879 0.8418
C18 C 0.9969(3) 0.4851(3) 0.7720(3)
H16 H 0.9627 0.4559 0.7145
C19 C 0.9515(3) 0.5698(3) 0.7822(3)
H17 H 0.8873 0.5982 0.7306
C20 C 0.9994(3) 0.6138(2) 0.8678(2)
C21 C 0.9504(3) 0.7095(2) 0.8741(2)
H18 H 0.9546 0.7521 0.8301
C22 C 1.0291(3) 0.7540(2) 0.9704(2)
H19 H 0.9788 0.7956 0.9823
C23 C 1.0846(3) 0.6791(2) 1.0463(2)
H20 H 1.0195 0.6465 1.0474
C24 C 1.1643(3) 0.7220(2) 1.1401(2)
C25 C 1.2860(3) 0.7301(2) 1.1791(2)
H21 H 1.3214 0.7053 1.1484
C26 C 1.3550(3) 0.7747(3) 1.2630(3)
H22 H 1.4369 0.7781 1.2887
C27 C 1.3065(3) 0.8143(2) 1.3102(2)
C28 C 1.3821(4) 0.8637(3) 1.4016(3)
H23 H 1.4588 0.8778 1.4106
H24 H 1.3917 0.8228 1.4503
H25 H 1.3441 0.9220 1.4021
C29 C 1.1849(3) 0.8065(3) 1.2703(3)
H26 H 1.1493 0.8329 1.3002
C30 C 1.1153(3) 0.7607(2) 1.1874(2)
H27 H 1.0337 0.7557 1.1628
N1 N 0.6898(3) 0.4669(2) 0.5703(2)
H28 H 0.7234 0.4279 0.5518
N2 N 0.6491(2) 0.6149(2) 0.81449(19)
H29 H 0.6129 0.6638 0.8189
N3 N 1.1249(3) 0.8142(2) 0.9733(2)
O1 O 0.6528(2) 0.80733(17) 0.80029(17)
O2 O 0.8255(2) 0.87170(16) 0.83064(17)
O3 O 1.1889(3) 0.7789(2) 0.9498(2)
O4 O 1.1343(3) 0.8963(2) 0.9994(2)
O5 O 1.1496(2) 0.60836(16) 1.02994(16)
loop_
_geom_bond_atom_site_label_1
_geom_bond_atom_site_label_2
_geom_bond_site_symmetry_1
_geom_bond_site_symmetry_2
C1 C2 1_555 1_555
C2 H1 1_555 1_555
C3 C2 1_555 1_555
H2 C3 1_555 1_555
C4 C3 1_555 1_555
H3 C4 1_555 1_555
C5 C4 1_555 1_555
H4 C5 1_555 1_555
C6 C1 1_555 1_555
C7 C6 1_555 1_555
C8 C7 1_555 1_555
H5 C8 1_555 1_555
C9 C7 1_555 1_555
H6 C9 1_555 1_555
H7 C9 1_555 1_555
C10 C9 1_555 1_555
H8 C10 1_555 1_555
H9 C10 1_555 1_555
C11 H10 1_555 1_555
C12 C11 1_555 1_555
C13 C12 1_555 1_555
C14 H11 1_555 1_555
H12 C14 1_555 1_555
H13 C14 1_555 1_555
C15 C16 1_555 1_555
C16 H14 1_555 1_555
C17 C16 1_555 1_555
H15 C17 1_555 1_555
C18 C17 1_555 1_555
H16 C18 1_555 1_555
C19 C18 1_555 1_555
H17 C19 1_555 1_555
C20 C15 1_555 1_555
C21 C12 1_555 1_555
H18 C21 1_555 1_555
C22 C21 1_555 1_555
H19 C22 1_555 1_555
C23 C22 1_555 1_555
H20 C23 1_555 1_555
C24 C23 1_555 1_555
C25 C24 1_555 1_555
H21 C25 1_555 1_555
C26 C25 1_555 1_555
H22 C26 1_555 1_555
C27 C26 1_555 1_555
C28 C27 1_555 1_555
H23 C28 1_555 1_555
H24 C28 1_555 1_555
H25 C28 1_555 1_555
C29 C27 1_555 1_555
H26 C29 1_555 1_555
C30 C24 1_555 1_555
H27 C30 1_555 1_555
N1 C1 1_555 1_555
H28 N1 1_555 1_555
N2 C10 1_555 1_555
H29 N2 1_555 1_555
N3 C22 1_555 1_555
O1 C13 1_555 1_555
O2 C13 1_555 1_555
O3 N3 1_555 1_555
O4 N3 1_555 1_555
O5 C15 1_555 1_555
C5 C6 1_555 1_555
C8 N1 1_555 1_555
C11 N2 1_555 1_555
C14 O2 1_555 1_555
C19 C20 1_555 1_555
C20 C21 1_555 1_555
C23 O5 1_555 1_555
C29 C30 1_555 1_555

#END
