
#######################################################################
#
#                 Cambridge Crystallographic Data Centre
#                                CCDC 
#
#######################################################################
#
# If this CIF has been generated from an entry in the Cambridge 
# Structural Database, then it will include bibliographic, chemical, 
# crystal, experimental, refinement or atomic coordinate data resulting 
# from the CCDC's data processing and validation procedures.
#
#######################################################################

data_QOGBEV
_chemical_formula_moiety         'C18 H26 N2 O4,C10 H2 Br2 N2 O4'
_chemical_name_systematic        
"4,8-dibromopyrrolo[3,4-f]isoindole-1,3,5,7(2H,6H)-tetrone 2,2'-(naphthalene-1,5-diylbis(iminoethane-2,1-diyloxy))diethanol"
_symmetry_cell_setting           monoclinic
_symmetry_space_group_name_H-M   'P 21/c'
_symmetry_Int_Tables_number      14
_space_group_name_Hall           '-P 2ybc'
loop_
_symmetry_equiv_pos_site_id
_symmetry_equiv_pos_as_xyz
1 x,y,z
2 -x,1/2+y,1/2-z
3 -x,-y,-z
4 x,1/2-y,1/2+z
_cell_length_a                   6.7598(4)
_cell_length_b                   22.6656(13)
_cell_length_c                   9.1153(5)
_cell_angle_alpha                90
_cell_angle_beta                 101.623(2)
_cell_angle_gamma                90
_cell_volume                     1367.96
_exptl_crystal_colour            yellow
_exptl_crystal_description       needle
_cell_formula_units_Z            2
loop_
_atom_site_label
_atom_site_type_symbol
_atom_site_fract_x
_atom_site_fract_y
_atom_site_fract_z
N1 N 0.9638(2) 0.61258(7) 0.31134(17)
H1 H 0.9678 0.6364 0.3882
O1 O 1.1337(2) 0.71944(6) 0.28192(15)
O2 O 1.5323(2) 0.76506(6) 0.36935(16)
H2 H 1.5637 0.7848 0.2995
C1 C 1.0545(3) 0.54842(8) 0.7540(2)
H3 H 1.0735 0.5752 0.8359
C2 C 1.0252(3) 0.57013(8) 0.6110(2)
H4 H 1.0221 0.6115 0.5947
C3 C 0.9994(3) 0.53097(8) 0.4871(2)
C4 C 0.9705(3) 0.55232(8) 0.3355(2)
C5 C 0.9431(3) 0.51238(8) 0.2180(2)
H5 H 0.9226 0.5263 0.1178
C6 C 0.9503(3) 0.63798(9) 0.1631(2)
H6 H 0.8235 0.6252 0.0962
H7 H 1.0653 0.6244 0.1197
C7 C 0.9543(3) 0.70457(9) 0.1773(2)
H8 H 0.9550 0.7230 0.0790
H9 H 0.8339 0.7186 0.2134
C8 C 1.1697(3) 0.78111(8) 0.2965(2)
H10 H 1.0543 0.8009 0.3278
H11 H 1.1852 0.7979 0.1993
C9 C 1.3590(3) 0.79081(8) 0.4119(2)
H12 H 1.3815 0.8337 0.4272
H13 H 1.3418 0.7735 0.5083
N1B N 1.0362(2) 0.38742(7) 0.68866(17)
H1B H 1.0322 0.3636 0.6118
O1B O 0.8663(2) 0.28056(6) 0.71808(15)
O2B O 0.4677(2) 0.23494(6) 0.63065(16)
H2B H 0.4363 0.2152 0.7005
C1B C 0.9455(3) 0.45158(8) 0.2460(2)
H3B H 0.9265 0.4248 0.1641
C2B C 0.9748(3) 0.42987(8) 0.3890(2)
H4B H 0.9779 0.3885 0.4053
C3B C 1.0006(3) 0.46903(8) 0.5129(2)
C4B C 1.0295(3) 0.44768(8) 0.6645(2)
C5B C 1.0569(3) 0.48762(8) 0.7820(2)
H5B H 1.0774 0.4737 0.8822
C6B C 1.0497(3) 0.36202(9) 0.8369(2)
H6B H 1.1765 0.3748 0.9038
H7B H 0.9347 0.3756 0.8803
C7B C 1.0457(3) 0.29543(9) 0.8227(2)
H8B H 1.0450 0.2770 0.9210
H9B H 1.1661 0.2814 0.7866
C8B C 0.8303(3) 0.21889(8) 0.7035(2)
H10B H 0.9457 0.1991 0.6722
H11B H 0.8148 0.2021 0.8007
C9B C 0.6410(3) 0.20919(8) 0.5881(2)
H12B H 0.6185 0.1663 0.5728
H13B H 0.6582 0.2265 0.4917
Br1 Br 0.42675(3) 0.45733(2) 0.14584(2)
O3 O 0.5760(2) 0.65687(6) 0.64717(15)
O4 O 0.4619(2) 0.59910(6) 0.15811(14)
N2 N 0.5162(2) 0.64170(7) 0.39291(18)
H14 H 0.5181 0.6788 0.3651
C10 C 0.4650(2) 0.48147(8) 0.34611(19)
C11 C 0.4894(3) 0.54049(7) 0.3873(2)
C12 C 0.5234(2) 0.55839(8) 0.53685(19)
C13 C 0.5429(3) 0.62422(8) 0.5396(2)
C14 C 0.4859(3) 0.59492(8) 0.2928(2)
Br1B Br 0.57325(3) 0.54267(2) 0.85416(2)
O3B O 0.4240(2) 0.34313(6) 0.35283(15)
O4B O 0.5381(2) 0.40090(6) 0.84189(14)
N2B N 0.4838(2) 0.35830(7) 0.60709(18)
H14B H 0.4819 0.3212 0.6349
C10B C 0.5350(2) 0.51853(8) 0.65389(19)
C11B C 0.5106(3) 0.45951(7) 0.6127(2)
C12B C 0.4766(2) 0.44161(8) 0.46315(19)
C13B C 0.4571(3) 0.37578(8) 0.4604(2)
C14B C 0.5141(3) 0.40508(8) 0.7072(2)
loop_
_geom_bond_atom_site_label_1
_geom_bond_atom_site_label_2
_geom_bond_site_symmetry_1
_geom_bond_site_symmetry_2
N1 H1 1_555 1_555
O1 C7 1_555 1_555
O2 H2 1_555 1_555
C1 H3 1_555 1_555
C2 C1 1_555 1_555
H4 C2 1_555 1_555
C3 C2 1_555 1_555
C4 N1 1_555 1_555
C5 C4 1_555 1_555
H5 C5 1_555 1_555
C6 N1 1_555 1_555
H6 C6 1_555 1_555
H7 C6 1_555 1_555
C7 C6 1_555 1_555
H8 C7 1_555 1_555
H9 C7 1_555 1_555
C8 O1 1_555 1_555
H10 C8 1_555 1_555
H11 C8 1_555 1_555
C9 O2 1_555 1_555
H12 C9 1_555 1_555
H13 C9 1_555 1_555
Br1 C10 1_555 1_555
O3 C13 1_555 1_555
O4 C14 1_555 1_555
N2 H14 1_555 1_555
C10 C11 1_555 1_555
C11 C12 1_555 1_555
C12 C13 1_555 1_555
C13 N2 1_555 1_555
C14 N2 1_555 1_555
N1B H1B 1_555 1_555
O1B C7B 1_555 1_555
O2B H2B 1_555 1_555
C1B C5 1_555 1_555
H3B C1B 1_555 1_555
C2B C1B 1_555 1_555
H4B C2B 1_555 1_555
C3B C3 1_555 1_555
C4B N1B 1_555 1_555
C5B C1 1_555 1_555
H5B C5B 1_555 1_555
C6B N1B 1_555 1_555
H6B C6B 1_555 1_555
H7B C6B 1_555 1_555
C7B C6B 1_555 1_555
H8B C7B 1_555 1_555
H9B C7B 1_555 1_555
C8B O1B 1_555 1_555
H10B C8B 1_555 1_555
H11B C8B 1_555 1_555
C9B O2B 1_555 1_555
H12B C9B 1_555 1_555
H13B C9B 1_555 1_555
Br1B C10B 1_555 1_555
O3B C13B 1_555 1_555
O4B C14B 1_555 1_555
N2B H14B 1_555 1_555
C10B C12 1_555 1_555
C11B C10B 1_555 1_555
C12B C10 1_555 1_555
C13B N2B 1_555 1_555
C14B N2B 1_555 1_555
C3 C4 1_555 1_555
C8 C9 1_555 1_555
C11 C14 1_555 1_555
C2B C3B 1_555 1_555
C3B C4B 1_555 1_555
C4B C5B 1_555 1_555
C8B C9B 1_555 1_555
C11B C12B 1_555 1_555
C11B C14B 1_555 1_555
C12B C13B 1_555 1_555

#END
