
#######################################################################
#
#                 Cambridge Crystallographic Data Centre
#                                CCDC 
#
#######################################################################
#
# If this CIF has been generated from an entry in the Cambridge 
# Structural Database, then it will include bibliographic, chemical, 
# crystal, experimental, refinement or atomic coordinate data resulting 
# from the CCDC's data processing and validation procedures.
#
#######################################################################

data_QOGBAR
_chemical_formula_moiety         '2(C12 H12 O2),C10 H2 I2 N2 O4'
_chemical_name_systematic        
'4,8-diiodopyrrolo[3,4-f]isoindole-1,3,5,7(2H,6H)-tetrone bis(2,6-dimethoxynaphthalene)'
_symmetry_cell_setting           triclinic
_symmetry_space_group_name_H-M   'P -1'
_symmetry_Int_Tables_number      2
_space_group_name_Hall           '-P 1'
loop_
_symmetry_equiv_pos_site_id
_symmetry_equiv_pos_as_xyz
1 x,y,z
2 -x,-y,-z
_cell_length_a                   6.6274(3)
_cell_length_b                   9.4654(3)
_cell_length_c                   12.3549(4)
_cell_angle_alpha                82.120(2)
_cell_angle_beta                 80.651(3)
_cell_angle_gamma                79.408(2)
_cell_volume                     747.101
_exptl_crystal_colour            orange
_exptl_crystal_description       needle
_cell_formula_units_Z            1
loop_
_atom_site_label
_atom_site_type_symbol
_atom_site_fract_x
_atom_site_fract_y
_atom_site_fract_z
I1 I 0.39792(3) 0.87949(2) 0.78287(2)
O1 O 0.6692(4) 0.7692(2) 0.26226(19)
O2 O 0.5434(4) 0.6082(2) 0.62837(19)
N1 N 0.6188(5) 0.6563(3) 0.4397(2)
H1 H 0.6510 0.5663 0.4239
C1 C 0.6227(5) 0.7747(3) 0.3598(3)
C2 C 0.5601(5) 0.6924(3) 0.5457(3)
C3 C 0.5611(5) 0.9046(3) 0.4231(3)
C4 C 0.5228(5) 0.8551(3) 0.5350(3)
C5 C 0.4615(5) 0.9497(3) 0.6156(3)
I1A I 0.60208(3) 1.12051(2) 0.21713(2)
O1A O 0.3308(4) 1.2308(2) 0.73774(19)
O2A O 0.4566(4) 1.3918(2) 0.37163(19)
N1A N 0.3812(5) 1.3437(3) 0.5603(2)
H1A H 0.3490 1.4337 0.5761
C1A C 0.3773(5) 1.2253(3) 0.6402(3)
C2A C 0.4399(5) 1.3076(3) 0.4543(3)
C3A C 0.4389(5) 1.0954(3) 0.5769(3)
C4A C 0.4772(5) 1.1449(3) 0.4650(3)
C5A C 0.5385(5) 1.0503(3) 0.3844(3)
O3 O 0.2554(4) 0.6004(3) 0.07027(19)
C6 C 0.4300(6) 0.5913(4) 0.1254(3)
H2 H 0.5312 0.6455 0.0793
H3 H 0.4935 0.4897 0.1394
H4 H 0.3857 0.6324 0.1958
C7 C 0.1508(6) 0.7361(4) 0.0426(3)
C8 C 0.2108(6) 0.8632(4) 0.0574(3)
H5 H 0.3327 0.8607 0.0894
C9 C 0.0898(6) 0.9980(4) 0.0247(3)
C10 C 0.1461(6) 1.1322(4) 0.0376(3)
H6 H 0.2678 1.1323 0.0688
C11 C 0.0287(6) 1.2602(4) 0.0058(3)
H7 H 0.0683 1.3483 0.0164
O3A O -0.2554(4) 1.3996(3) -0.07027(19)
C6A C -0.4300(6) 1.4087(4) -0.1254(3)
H2A H -0.5312 1.3545 -0.0793
H3A H -0.4935 1.5103 -0.1394
H4A H -0.3857 1.3676 -0.1958
C7A C -0.1508(6) 1.2639(4) -0.0426(3)
C8A C -0.2108(6) 1.1368(4) -0.0574(3)
H5A H -0.3327 1.1393 -0.0894
C9A C -0.0898(6) 1.0020(4) -0.0247(3)
C10A C -0.1461(6) 0.8678(4) -0.0376(3)
H6A H -0.2678 0.8677 -0.0688
C11A C -0.0287(6) 0.7398(4) -0.0058(3)
H7A H -0.0683 0.6517 -0.0164
O4 O 0.0662(4) 0.5925(2) 0.61255(18)
C12 C 0.0175(6) 0.5732(4) 0.7310(3)
H8 H -0.1270 0.6165 0.7528
H9 H 0.1092 0.6203 0.7637
H10 H 0.0373 0.4697 0.7570
C13 C 0.0916(5) 0.7457(3) 0.4466(3)
H11 H 0.1306 0.6613 0.4094
C14 C 0.0460(5) 0.7327(3) 0.5629(3)
C15 C -0.0116(5) 0.8526(3) 0.6185(3)
H12 H -0.0432 0.8425 0.6967
C16 C -0.0238(5) 0.9929(3) 0.5580(3)
C17 C -0.0798(5) 1.1203(3) 0.6125(3)
H13 H -0.1093 1.1123 0.6907
O4A O -0.0662(4) 1.4075(2) 0.38745(18)
C12A C -0.0175(6) 1.4268(4) 0.2690(3)
H8A H 0.1270 1.3835 0.2472
H9A H -0.1092 1.3797 0.2363
H10A H -0.0373 1.5303 0.2430
C13A C -0.0916(5) 1.2543(3) 0.5534(3)
H11A H -0.1306 1.3387 0.5906
C14A C -0.0460(5) 1.2673(3) 0.4371(3)
C15A C 0.0116(5) 1.1474(3) 0.3815(3)
H12A H 0.0432 1.1575 0.3033
C16A C 0.0238(5) 1.0071(3) 0.4420(3)
C17A C 0.0798(5) 0.8797(3) 0.3875(3)
H13A H 0.1093 0.8877 0.3093
loop_
_geom_bond_atom_site_label_1
_geom_bond_atom_site_label_2
_geom_bond_site_symmetry_1
_geom_bond_site_symmetry_2
I1 C5 1_555 1_555
O1 C1 1_555 1_555
O2 C2 1_555 1_555
N1 H1 1_555 1_555
C1 N1 1_555 1_555
C2 N1 1_555 1_555
C3 C1 1_555 1_555
C4 C2 1_555 1_555
C5 C4 1_555 1_555
O3 C6 1_555 1_555
C6 H2 1_555 1_555
H3 C6 1_555 1_555
H4 C6 1_555 1_555
C7 O3 1_555 1_555
C8 C7 1_555 1_555
H5 C8 1_555 1_555
C9 C8 1_555 1_555
C10 C9 1_555 1_555
H6 C10 1_555 1_555
C11 C10 1_555 1_555
H7 C11 1_555 1_555
O4 C12 1_555 1_555
C12 H8 1_555 1_555
H9 C12 1_555 1_555
H10 C12 1_555 1_555
C13 H11 1_555 1_555
C14 O4 1_555 1_555
C15 C14 1_555 1_555
H12 C15 1_555 1_555
C16 C15 1_555 1_555
C17 C16 1_555 1_555
H13 C17 1_555 1_555
I1A C5A 1_555 1_555
O1A C1A 1_555 1_555
O2A C2A 1_555 1_555
N1A H1A 1_555 1_555
C1A N1A 1_555 1_555
C2A N1A 1_555 1_555
C3A C5 1_555 1_555
C4A C2A 1_555 1_555
C5A C3 1_555 1_555
O3A C6A 1_555 1_555
C6A H2A 1_555 1_555
H3A C6A 1_555 1_555
H4A C6A 1_555 1_555
C7A C11 1_555 1_555
C8A C7A 1_555 1_555
H5A C8A 1_555 1_555
C9A C9 1_555 1_555
C10A C9A 1_555 1_555
H6A C10A 1_555 1_555
C11A C7 1_555 1_555
H7A C11A 1_555 1_555
O4A C12A 1_555 1_555
C12A H8A 1_555 1_555
H9A C12A 1_555 1_555
H10A C12A 1_555 1_555
C13A C17 1_555 1_555
H11A C13A 1_555 1_555
C14A O4A 1_555 1_555
C15A C14A 1_555 1_555
H12A C15A 1_555 1_555
C16A C16 1_555 1_555
C17A C13 1_555 1_555
H13A C17A 1_555 1_555
C3 C4 1_555 1_555
C13 C14 1_555 1_555
C1A C3A 1_555 1_555
C3A C4A 1_555 1_555
C4A C5A 1_555 1_555
O3A C7A 1_555 1_555
C8A C9A 1_555 1_555
C10A C11A 1_555 1_555
C13A C14A 1_555 1_555
C15A C16A 1_555 1_555
C16A C17A 1_555 1_555

#END
