
#######################################################################
#
#                 Cambridge Crystallographic Data Centre
#                                CCDC 
#
#######################################################################
#
# If this CIF has been generated from an entry in the Cambridge 
# Structural Database, then it will include bibliographic, chemical, 
# crystal, experimental, refinement or atomic coordinate data resulting 
# from the CCDC's data processing and validation procedures.
#
#######################################################################

data_QOGBUL
_chemical_formula_moiety         'C10 H2 Br2 N2 O4'
_chemical_name_systematic        
4,8-dibromopyrrolo[3,4-f]isoindole-1,3,5,7(2H,6H)-tetrone
_symmetry_cell_setting           monoclinic
_symmetry_space_group_name_H-M   'P 21/c'
_symmetry_Int_Tables_number      14
_space_group_name_Hall           '-P 2ybc'
loop_
_symmetry_equiv_pos_site_id
_symmetry_equiv_pos_as_xyz
1 x,y,z
2 -x,1/2+y,1/2-z
3 -x,-y,-z
4 x,1/2-y,1/2+z
_cell_length_a                   7.3668(2)
_cell_length_b                   5.4181(2)
_cell_length_c                   12.5250(4)
_cell_angle_alpha                90
_cell_angle_beta                 92.257(2)
_cell_angle_gamma                90
_cell_volume                     499.536
_exptl_crystal_colour            yellow
_exptl_crystal_description       plate
_cell_formula_units_Z            2
loop_
_atom_site_label
_atom_site_type_symbol
_atom_site_fract_x
_atom_site_fract_y
_atom_site_fract_z
Br1 Br 0.79294(2) 0.07105(4) 0.43300(2)
O1 O 0.4206(2) -0.0073(3) 0.29383(13)
O2 O 0.03946(19) 0.6343(3) 0.36386(12)
N1 N 0.1995(2) 0.2903(3) 0.31154(13)
H1 H 0.1198 0.2331 0.2636
C1 C 0.6652(2) 0.4786(4) 0.55396(14)
C2 C 0.6258(2) 0.3114(3) 0.47208(14)
C3 C 0.4570(2) 0.3363(3) 0.41959(14)
C4 C 0.3671(2) 0.1802(4) 0.33402(15)
C5 C 0.1709(2) 0.4979(4) 0.37199(15)
Br1B Br 0.20706(2) 0.92895(4) 0.56700(2)
O1B O 0.5794(2) 1.0073(3) 0.70617(13)
O2B O 0.96054(19) 0.3657(3) 0.63614(12)
N1B N 0.8005(2) 0.7097(3) 0.68846(13)
H1B H 0.8802 0.7669 0.7364
C1B C 0.3348(2) 0.5214(4) 0.44604(14)
C2B C 0.3742(2) 0.6886(3) 0.52792(14)
C3B C 0.5430(2) 0.6637(3) 0.58041(14)
C4B C 0.6329(2) 0.8198(4) 0.66598(15)
C5B C 0.8291(2) 0.5021(4) 0.62801(15)
loop_
_geom_bond_atom_site_label_1
_geom_bond_atom_site_label_2
_geom_bond_site_symmetry_1
_geom_bond_site_symmetry_2
Br1 C2 1_555 1_555
O1 C4 1_555 1_555
O2 C5 1_555 1_555
N1 H1 1_555 1_555
C1 C2 1_555 1_555
C2 C3 1_555 1_555
C3 C4 1_555 1_555
C4 N1 1_555 1_555
C5 N1 1_555 1_555
Br1B C2B 1_555 1_555
O1B C4B 1_555 1_555
O2B C5B 1_555 1_555
N1B H1B 1_555 1_555
C1B C3 1_555 1_555
C2B C1B 1_555 1_555
C3B C1 1_555 1_555
C4B N1B 1_555 1_555
C5B C1 1_555 1_555
C5 C1B 1_555 1_555
N1B C5B 1_555 1_555
C2B C3B 1_555 1_555
C3B C4B 1_555 1_555

#END
