
#######################################################################
#
#                 Cambridge Crystallographic Data Centre
#                                CCDC 
#
#######################################################################
#
# If this CIF has been generated from an entry in the Cambridge 
# Structural Database, then it will include bibliographic, chemical, 
# crystal, experimental, refinement or atomic coordinate data resulting 
# from the CCDC's data processing and validation procedures.
#
#######################################################################

data_QOGFUP
_chemical_formula_moiety         'C21 H21 N11,1.5(H2 O1)'
_chemical_name_systematic        
'2,8,14,20-tetramethyl-2,8,14,20-tetraaza-tris(2,6-pyrazino)-(2,6-pyridino)calix(4)arene sesquihydrate'
_symmetry_cell_setting           monoclinic
_symmetry_space_group_name_H-M   'C 2/c'
_symmetry_Int_Tables_number      15
_space_group_name_Hall           '-C 2yn'
loop_
_symmetry_equiv_pos_site_id
_symmetry_equiv_pos_as_xyz
1 x,y,z
2 -x,y,1/2-z
3 1/2+x,1/2+y,z
4 1/2-x,1/2+y,1/2-z
5 -x,-y,-z
6 x,-y,1/2+z
7 1/2-x,1/2-y,-z
8 1/2+x,1/2-y,1/2+z
_cell_length_a                   30.584(6)
_cell_length_b                   9.1466(18)
_cell_length_c                   18.617(4)
_cell_angle_alpha                90
_cell_angle_beta                 123.31(3)
_cell_angle_gamma                90
_cell_volume                     4352.31
_exptl_crystal_colour            yellow
_exptl_crystal_description       platelet
_cell_formula_units_Z            8
loop_
_atom_site_label
_atom_site_type_symbol
_atom_site_fract_x
_atom_site_fract_y
_atom_site_fract_z
O1 O 0.03014(12) 0.9726(3) -0.09856(18)
H1 H 0.0629 0.9791 -0.0679
H2 H 0.0272 0.8966 -0.0762
O2 O 0.0000 0.1557(6) 0.2500
H3 H 0.0134 0.1071 0.2949
H3A H -0.0134 0.1071 0.2051
N1 N 0.08160(9) 0.5303(3) 0.13128(15)
N2 N 0.09232(10) 0.3780(3) 0.04446(15)
N3 N 0.17821(10) 0.3366(3) 0.16315(16)
N4 N 0.26393(10) 0.3023(3) 0.28325(17)
N5 N 0.24962(10) 0.4123(3) 0.37951(16)
N6 N 0.23044(10) 0.5215(3) 0.47018(16)
N7 N 0.15025(10) 0.5956(3) 0.34892(16)
N8 N 0.07190(10) 0.6731(3) 0.22433(16)
N9 N 0.03131(10) 0.7360(3) 0.00242(16)
N10 N 0.14219(15) 0.1116(4) 0.2192(2)
N11 N 0.35532(11) 0.4656(4) 0.49270(19)
C1 C 0.06381(11) 0.6543(4) 0.14370(18)
C2 C 0.03827(11) 0.7602(4) 0.07916(19)
H4 H 0.0260 0.8480 0.0895
C3 C 0.04878(11) 0.6114(4) -0.01077(19)
H5 H 0.0440 0.5937 -0.0649
C4 C 0.07389(11) 0.5073(4) 0.05430(18)
C5 C 0.12792(12) 0.2979(4) 0.12007(19)
C6 C 0.11027(15) 0.1873(4) 0.1473(2)
H6 H 0.0741 0.1635 0.1140
C7 C 0.10602(14) 0.3265(4) 0.3414(2)
H7 H 0.0909 0.2343 0.3389
C8 C 0.19212(16) 0.1528(4) 0.2613(3)
H8 H 0.2167 0.1024 0.3127
C9 C 0.20993(13) 0.2635(4) 0.2347(2)
C10 C 0.28441(12) 0.3683(4) 0.3618(2)
C11 C 0.33797(13) 0.3926(4) 0.4190(2)
H9 H 0.3621 0.3576 0.4059
C12 C 0.32090(13) 0.5101(4) 0.5111(2)
H10 H 0.3327 0.5612 0.5632
C13 C 0.26770(13) 0.4817(4) 0.4543(2)
C14 C 0.17725(13) 0.4896(4) 0.40610(19)
C15 C 0.15616(15) 0.3563(4) 0.4047(2)
H11 H 0.1766 0.2856 0.4478
C16 C 0.07821(14) 0.4291(4) 0.2827(2)
H12 H 0.0429 0.4109 0.2379
C17 C 0.10124(12) 0.5632(4) 0.28737(19)
C18 C 0.08980(14) 0.3447(4) -0.0341(2)
H13 H 0.0535 0.3517 -0.0833
H14 H 0.1028 0.2453 -0.0306
H15 H 0.1114 0.4146 -0.0412
C19 C 0.29724(13) 0.2384(4) 0.2580(2)
H16 H 0.3204 0.3139 0.2592
H17 H 0.2754 0.1984 0.1997
H18 H 0.3183 0.1599 0.2981
C20 C 0.24183(17) 0.5975(5) 0.5475(2)
H19 H 0.2798 0.6006 0.5892
H20 H 0.2253 0.5455 0.5726
H21 H 0.2281 0.6974 0.5326
C21 C 0.06986(15) 0.8194(4) 0.2540(2)
H22 H 0.0967 0.8812 0.2559
H23 H 0.0763 0.8130 0.3116
H24 H 0.0353 0.8622 0.2143
loop_
_geom_bond_atom_site_label_1
_geom_bond_atom_site_label_2
_geom_bond_site_symmetry_1
_geom_bond_site_symmetry_2
O1 H1 1_555 1_555
H2 O1 1_555 1_555
O2 H3 1_555 1_555
N1 C1 1_555 1_555
N2 C4 1_555 1_555
N3 C5 1_555 1_555
N4 C9 1_555 1_555
N5 C10 1_555 1_555
N6 C13 1_555 1_555
N7 C14 1_555 1_555
N8 C1 1_555 1_555
N9 C2 1_555 1_555
N10 C6 1_555 1_555
N11 C11 1_555 1_555
C1 C2 1_555 1_555
C2 H4 1_555 1_555
C3 N9 1_555 1_555
H5 C3 1_555 1_555
C4 N1 1_555 1_555
C5 N2 1_555 1_555
C6 C5 1_555 1_555
H6 C6 1_555 1_555
C7 H7 1_555 1_555
C8 N10 1_555 1_555
H8 C8 1_555 1_555
C9 N3 1_555 1_555
C10 N4 1_555 1_555
C11 C10 1_555 1_555
H9 C11 1_555 1_555
C12 N11 1_555 1_555
H10 C12 1_555 1_555
C13 N5 1_555 1_555
C14 N6 1_555 1_555
C15 C7 1_555 1_555
H11 C15 1_555 1_555
C16 C7 1_555 1_555
H12 C16 1_555 1_555
C17 N7 1_555 1_555
C18 N2 1_555 1_555
H13 C18 1_555 1_555
H14 C18 1_555 1_555
H15 C18 1_555 1_555
C19 N4 1_555 1_555
H16 C19 1_555 1_555
H17 C19 1_555 1_555
H18 C19 1_555 1_555
C20 N6 1_555 1_555
H19 C20 1_555 1_555
H20 C20 1_555 1_555
H21 C20 1_555 1_555
C21 N8 1_555 1_555
H22 C21 1_555 1_555
H23 C21 1_555 1_555
H24 C21 1_555 1_555
H3A O2 1_555 1_555
N8 C17 1_555 1_555
C3 C4 1_555 1_555
C8 C9 1_555 1_555
C12 C13 1_555 1_555
C14 C15 1_555 1_555
C16 C17 1_555 1_555

#END
