
#######################################################################
#
#                 Cambridge Crystallographic Data Centre
#                                CCDC 
#
#######################################################################
#
# If this CIF has been generated from an entry in the Cambridge 
# Structural Database, then it will include bibliographic, chemical, 
# crystal, experimental, refinement or atomic coordinate data resulting 
# from the CCDC's data processing and validation procedures.
#
#######################################################################

data_QOGGEA
_chemical_formula_moiety         'C23 H23 N9'
_chemical_name_systematic        
2,8,14,20-tetramethyl-2,8,14,20-tetraaza-(2,6-pyrazino)-tris(2,6-pyridino)calix(4)arene
_symmetry_cell_setting           monoclinic
_symmetry_space_group_name_H-M   'P 21/n'
_symmetry_Int_Tables_number      14
_space_group_name_Hall           '-P 2yn'
loop_
_symmetry_equiv_pos_site_id
_symmetry_equiv_pos_as_xyz
1 x,y,z
2 1/2-x,1/2+y,1/2-z
3 -x,-y,-z
4 1/2+x,1/2-y,1/2+z
_cell_length_a                   10.608(2)
_cell_length_b                   12.113(2)
_cell_length_c                   16.418(3)
_cell_angle_alpha                90
_cell_angle_beta                 100.19(3)
_cell_angle_gamma                90
_cell_volume                     2076.35
_exptl_crystal_colour            colorless
_exptl_crystal_description       block
_cell_formula_units_Z            4
loop_
_atom_site_label
_atom_site_type_symbol
_atom_site_fract_x
_atom_site_fract_y
_atom_site_fract_z
N1 N 0.49580(17) 0.51152(15) 0.30677(11)
N2 N 0.60456(15) 0.55214(14) 0.16636(11)
N3 N 0.50334(15) 0.39358(14) 0.10274(11)
N4 N 0.28802(15) 0.42985(13) 0.09544(10)
N5 N 0.07971(15) 0.48192(13) 0.09609(10)
N6 N 0.17883(15) 0.65628(13) 0.10416(10)
N7 N 0.28375(16) 0.82690(14) 0.10523(11)
N8 N 0.49077(16) 0.78295(13) 0.16350(10)
N9 N 0.68897(16) 0.72065(14) 0.22422(11)
C1 C 0.52760(18) 0.46621(16) 0.17030(12)
C2 C 0.47381(18) 0.44605(16) 0.24094(12)
H1 H 0.4199 0.3836 0.2417
C3 C 0.5695(2) 0.60175(18) 0.30087(13)
H2 H 0.5857 0.6525 0.3456
C4 C 0.62053(19) 0.62044(16) 0.23144(13)
C5 C 0.6011(2) 0.3751(2) 0.05152(16)
H3 H 0.5603 0.3718 -0.0068
H4 H 0.6454 0.3053 0.0675
H5 H 0.6631 0.4358 0.0597
C6 C 0.37590(18) 0.36284(16) 0.07293(12)
C7 C 0.3441(2) 0.27012(16) 0.02370(12)
H6 H 0.4080 0.2247 0.0071
C8 C 0.2150(2) 0.24714(16) 0.00004(12)
H7 H 0.1897 0.1839 -0.0331
C9 C 0.1227(2) 0.31349(17) 0.02329(12)
H8 H 0.0342 0.2969 0.0075
C10 C 0.16408(18) 0.40669(16) 0.07122(11)
C11 C -0.04802(19) 0.44518(18) 0.10653(14)
H9 H -0.0925 0.4127 0.0546
H10 H -0.0970 0.5084 0.1213
H11 H -0.0400 0.3898 0.1506
C12 C 0.13608(18) 0.57228(16) 0.14545(12)
C13 C 0.24120(18) 0.73707(16) 0.14917(12)
C14 C 0.26110(19) 0.73925(17) 0.23511(12)
H12 H 0.3076 0.7978 0.2650
C15 C 0.2121(2) 0.65505(18) 0.27572(13)
H13 H 0.2225 0.6551 0.3344
C16 C 0.1475(2) 0.57028(17) 0.23021(12)
H14 H 0.1115 0.5116 0.2569
C17 C 0.1917(2) 0.8837(2) 0.04420(16)
H15 H 0.2238 0.8875 -0.0081
H16 H 0.1785 0.9586 0.0636
H17 H 0.1102 0.8435 0.0357
C18 C 0.41183(19) 0.85716(16) 0.12151(12)
C19 C 0.4560(2) 0.95779(17) 0.09517(12)
H18 H 0.3993 1.0093 0.0641
C20 C 0.5854(2) 0.97872(17) 0.11642(12)
H19 H 0.6183 1.0469 0.1005
C21 C 0.6684(2) 0.90325(17) 0.16015(13)
H20 H 0.7575 0.9182 0.1749
C22 C 0.61631(19) 0.80446(16) 0.18172(12)
C23 C 0.8261(2) 0.71173(19) 0.22551(15)
H21 H 0.8702 0.7734 0.2572
H22 H 0.8428 0.7140 0.1687
H23 H 0.8576 0.6418 0.2515
loop_
_geom_bond_atom_site_label_1
_geom_bond_atom_site_label_2
_geom_bond_site_symmetry_1
_geom_bond_site_symmetry_2
N1 C2 1_555 1_555
N2 C1 1_555 1_555
N3 C1 1_555 1_555
N4 C6 1_555 1_555
N5 C10 1_555 1_555
N6 C12 1_555 1_555
N7 C13 1_555 1_555
N8 C18 1_555 1_555
N9 C4 1_555 1_555
C1 C2 1_555 1_555
C2 H1 1_555 1_555
C3 N1 1_555 1_555
H2 C3 1_555 1_555
C4 N2 1_555 1_555
C5 N3 1_555 1_555
H3 C5 1_555 1_555
H4 C5 1_555 1_555
H5 C5 1_555 1_555
C6 N3 1_555 1_555
C7 C6 1_555 1_555
H6 C7 1_555 1_555
C8 C7 1_555 1_555
H7 C8 1_555 1_555
C9 C8 1_555 1_555
H8 C9 1_555 1_555
C10 N4 1_555 1_555
C11 N5 1_555 1_555
H9 C11 1_555 1_555
H10 C11 1_555 1_555
H11 C11 1_555 1_555
C12 N5 1_555 1_555
C13 N6 1_555 1_555
C14 C13 1_555 1_555
H12 C14 1_555 1_555
C15 C14 1_555 1_555
H13 C15 1_555 1_555
C16 C12 1_555 1_555
H14 C16 1_555 1_555
C17 N7 1_555 1_555
H15 C17 1_555 1_555
H16 C17 1_555 1_555
H17 C17 1_555 1_555
C18 N7 1_555 1_555
C19 C18 1_555 1_555
H18 C19 1_555 1_555
C20 C19 1_555 1_555
H19 C20 1_555 1_555
C21 C20 1_555 1_555
H20 C21 1_555 1_555
C22 N8 1_555 1_555
C23 N9 1_555 1_555
H21 C23 1_555 1_555
H22 C23 1_555 1_555
H23 C23 1_555 1_555
N9 C22 1_555 1_555
C3 C4 1_555 1_555
C9 C10 1_555 1_555
C15 C16 1_555 1_555
C21 C22 1_555 1_555

#END
