
#######################################################################
#
#                 Cambridge Crystallographic Data Centre
#                                CCDC 
#
#######################################################################
#
# If this CIF has been generated from an entry in the Cambridge 
# Structural Database, then it will include bibliographic, chemical, 
# crystal, experimental, refinement or atomic coordinate data resulting 
# from the CCDC's data processing and validation procedures.
#
#######################################################################

data_QOGKON
_chemical_formula_moiety         
'C40 H44 N24 O12,C10 H10 N2 2+,2(Br1 1-),11(H2 O1)'
_chemical_name_systematic        
"tetramethylcucurbit[6]uril 4,4'-bipyridinium clathrate dibromide undecahydrate"
_symmetry_cell_setting           triclinic
_symmetry_space_group_name_H-M   'P -1'
_symmetry_Int_Tables_number      2
_space_group_name_Hall           '-P 1'
loop_
_symmetry_equiv_pos_site_id
_symmetry_equiv_pos_as_xyz
1 x,y,z
2 -x,-y,-z
_cell_length_a                   12.0016(9)
_cell_length_b                   12.5877(5)
_cell_length_c                   13.0413(5)
_cell_angle_alpha                118.587(2)
_cell_angle_beta                 94.744(3)
_cell_angle_gamma                104.459(3)
_cell_volume                     1627.16
_cell_formula_units_Z            1
loop_
_atom_site_label
_atom_site_type_symbol
_atom_site_fract_x
_atom_site_fract_y
_atom_site_fract_z
O1 O 0.6561(6) 0.9149(8) 0.8024(12)
O2 O 0.6142(10) 1.1162(9) 0.7978(11)
O3 O 0.4700(8) 0.4597(10) 0.8685(11)
O4 O 0.4945(11) 0.8970(11) 0.4099(12)
O6 O 0.622(5) 0.742(7) 0.254(4)
O8 O 0.660(2) 0.719(3) 0.418(3)
C10 C 0.8824(4) 0.7752(4) 0.8497(4)
C11 C 0.8534(4) 0.6430(4) 0.9326(4)
C12 C 0.9882(3) 0.7343(4) 0.9809(4)
C13 C 0.9790(4) 0.5181(4) 0.8790(4)
C14 C 0.7843(4) 0.6590(6) 1.0287(4)
H5 H 0.7784 0.7435 1.0674
H6 H 0.8247 0.6471 1.0871
H7 H 0.7064 0.5965 0.9922
C15 C 1.0313(4) 0.8235(4) 1.1159(4)
H8 H 0.9882 0.8828 1.1432
H9 H 1.1143 0.8700 1.1357
H10 H 1.0189 0.7743 1.1544
C16 C 1.0927(4) 0.9053(4) 0.9304(4)
H11 H 1.1395 0.9546 1.0127
H12 H 1.0650 0.9630 0.9141
C17 C 1.1787(4) 0.6711(4) 0.9571(4)
H13 H 1.1979 0.5999 0.9554
H14 H 1.2144 0.7457 1.0371
C18 C 1.1819(4) 0.8806(4) 0.7588(4)
C19 C 1.2648(3) 0.8220(4) 0.8853(4)
H15 H 1.3127 0.8882 0.9664
C20 C 1.3366(3) 0.8081(4) 0.7892(4)
H16 H 1.4189 0.8653 0.8258
C21 C 1.2768(4) 0.6149(4) 0.7860(4)
C22 C 1.3290(4) 0.8772(4) 0.6369(4)
H17 H 1.4121 0.9259 0.6754
H18 H 1.2923 0.9322 0.6251
C23 C 1.4097(4) 0.6294(5) 0.6557(4)
H19 H 1.4873 0.6949 0.6917
H20 H 1.4174 0.5539 0.6545
C24 C 1.2520(4) 0.7420(4) 0.4160(4)
C25 C 1.3989(4) 0.6932(4) 0.4990(4)
H21 H 1.4818 0.7490 0.5342
C26 C 1.3725(4) 0.6133(4) 0.3599(4)
H22 H 1.4409 0.6374 0.3300
C27 C 1.3509(4) 0.4768(5) 0.4359(4)
C28 C 0.7683(4) 0.3941(5) 0.8029(4)
H23 H 0.7025 0.3997 0.8414
H24 H 0.7947 0.3276 0.8037
C29 C 0.6813(4) 0.6255(5) 0.7856(4)
H25 H 0.6608 0.6934 0.7813
H26 H 0.6322 0.6012 0.8314
N3 N 0.8039(3) 0.6745(4) 0.8484(3)
N4 N 0.9913(3) 0.8066(4) 0.9192(3)
N5 N 0.8640(3) 0.5151(4) 0.8719(4)
N6 N 1.0516(3) 0.6411(3) 0.9348(3)
N7 N 1.1682(3) 0.8564(4) 0.8504(3)
N8 N 1.2742(3) 0.8420(4) 0.7154(3)
N9 N 1.2301(3) 0.6964(4) 0.8709(3)
N10 N 1.3289(3) 0.6751(4) 0.7303(3)
N11 N 1.3189(3) 0.7671(4) 0.5204(3)
N12 N 0.7270(3) 0.3572(4) 0.6781(3)
N13 N 1.3718(3) 0.5976(4) 0.5327(3)
N14 N 0.6544(3) 0.5159(4) 0.6647(3)
O11 O 0.8606(3) 0.8300(4) 0.7985(3)
O12 O 1.1235(3) 0.9290(4) 0.7240(3)
O13 O 1.1851(3) 0.7986(4) 0.4087(3)
O14 O 1.0111(3) 0.4236(3) 0.8427(3)
O15 O 1.2723(3) 0.5089(4) 0.7660(4)
O16 O 1.3428(3) 0.3813(3) 0.4423(3)
C10A C 1.1176(4) 0.2248(4) 0.1503(4)
C11A C 1.1466(4) 0.3570(4) 0.0674(4)
C12A C 1.0118(3) 0.2657(4) 0.0191(4)
C13A C 1.0210(4) 0.4819(4) 0.1210(4)
C14A C 1.2157(4) 0.3410(6) -0.0287(4)
H5A H 1.2216 0.2565 -0.0674
H6A H 1.1753 0.3529 -0.0871
H7A H 1.2936 0.4035 0.0078
C15A C 0.9687(4) 0.1765(4) -0.1159(4)
H8A H 1.0118 0.1172 -0.1432
H9A H 0.8857 0.1300 -0.1357
H10A H 0.9811 0.2257 -0.1544
C16A C 0.9073(4) 0.0947(4) 0.0696(4)
H11A H 0.8605 0.0454 -0.0127
H12A H 0.9350 0.0370 0.0859
C17A C 0.8213(4) 0.3289(4) 0.0429(4)
H13A H 0.8021 0.4001 0.0446
H14A H 0.7856 0.2543 -0.0371
C18A C 0.8181(4) 0.1194(4) 0.2412(4)
C19A C 0.7352(3) 0.1780(4) 0.1147(4)
H15A H 0.6873 0.1118 0.0336
C20A C 0.6634(3) 0.1919(4) 0.2108(4)
H16A H 0.5811 0.1347 0.1742
C21A C 0.7232(4) 0.3851(4) 0.2140(4)
C22A C 0.6710(4) 0.1228(4) 0.3631(4)
H17A H 0.5879 0.0741 0.3246
H18A H 0.7077 0.0678 0.3749
C23A C 0.5903(4) 0.3706(5) 0.3443(4)
H19A H 0.5127 0.3051 0.3083
H20A H 0.5826 0.4461 0.3455
C24A C 0.7480(4) 0.2580(4) 0.5840(4)
C25A C 0.6011(4) 0.3068(4) 0.5010(4)
H21A H 0.5182 0.2510 0.4658
C26A C 0.6275(4) 0.3867(4) 0.6401(4)
H22A H 0.5591 0.3626 0.6700
C27A C 0.6491(4) 0.5232(5) 0.5641(4)
C28A C 1.2317(4) 0.6059(5) 0.1971(4)
H23A H 1.2975 0.6003 0.1586
H24A H 1.2053 0.6724 0.1963
C29A C 1.3187(4) 0.3745(5) 0.2144(4)
H25A H 1.3392 0.3066 0.2187
H26A H 1.3678 0.3988 0.1686
N3A N 1.1961(3) 0.3255(4) 0.1516(3)
N4A N 1.0087(3) 0.1934(4) 0.0808(3)
N5A N 1.1360(3) 0.4849(4) 0.1281(4)
N6A N 0.9484(3) 0.3589(3) 0.0652(3)
N7A N 0.8318(3) 0.1436(4) 0.1496(3)
N8A N 0.7258(3) 0.1580(4) 0.2846(3)
N9A N 0.7699(3) 0.3036(4) 0.1291(3)
N10A N 0.6711(3) 0.3249(4) 0.2697(3)
N11A N 0.6811(3) 0.2329(4) 0.4796(3)
N12A N 1.2730(3) 0.6428(4) 0.3219(3)
N13A N 0.6282(3) 0.4024(4) 0.4673(3)
N14A N 1.3456(3) 0.4841(4) 0.3353(3)
O11A O 1.1394(3) 0.1700(4) 0.2015(3)
O12A O 0.8765(3) 0.0710(4) 0.2760(3)
O13A O 0.8149(3) 0.2014(4) 0.5913(3)
O14A O 0.9889(3) 0.5764(3) 0.1573(3)
O15A O 0.7277(3) 0.4911(4) 0.2340(4)
O16A O 0.6572(3) 0.6187(3) 0.5577(3)
Br1 Br 0.43254(6) 0.15086(6) 0.98829(6)
C1 C 0.8615(12) 0.8423(12) 0.5722(9)
H1 H 0.8469 0.8256 0.6329
C2 C 0.8378(12) 0.9496(10) 0.5731(10)
H2 H 0.8113 1.0062 0.6349
C3 C 0.8879(15) 0.8828(16) 0.3842(12)
H3 H 0.8855 0.8943 0.3188
C4 C 0.9264(9) 0.7773(10) 0.3760(9)
H4 H 0.9582 0.7277 0.3147
C5 C 0.9076(7) 0.7618(8) 0.4778(7)
C6 C 0.9421(7) 0.6594(9) 0.4850(8)
C7 C 0.9347(12) 0.6401(12) 0.5772(11)
C8 C 0.9769(10) 0.5291(11) 0.5920(10)
C9 C 0.9847(12) 0.5793(11) 0.3893(11)
N1 N 0.8565(9) 0.9626(10) 0.4792(9)
N2 N 0.9891(10) 0.5316(9) 0.5090(12)
C1A C 1.1385(12) 0.1577(12) 0.4278(9)
H1A H 1.1531 0.1744 0.3671
C2A C 1.1622(12) 0.0504(10) 0.4269(10)
H2A H 1.1887 -0.0062 0.3651
C3A C 1.1121(15) 0.1172(16) 0.6158(12)
H3A H 1.1145 0.1057 0.6812
C4A C 1.0736(9) 0.2227(10) 0.6240(9)
H4A H 1.0418 0.2723 0.6853
C5A C 1.0924(7) 0.2382(8) 0.5222(7)
C6A C 1.0579(7) 0.3406(9) 0.5150(8)
C7A C 1.0653(12) 0.3599(12) 0.4228(11)
C8A C 1.0231(10) 0.4709(11) 0.4080(10)
C9A C 1.0153(12) 0.4207(11) 0.6107(11)
N1A N 1.1435(9) 0.0374(10) 0.5208(9)
N2A N 1.0109(10) 0.4684(9) 0.4910(12)
O5? O 0.5261(19) 0.396(2) 0.941(3)
O7? O 0.677(3) 0.904(2) 0.712(5)
O9? O 0.648(3) 1.084(2) 0.710(4)
O10? O 0.635(3) 1.010(6) 0.769(4)
loop_
_geom_bond_atom_site_label_1
_geom_bond_atom_site_label_2
_geom_bond_site_symmetry_1
_geom_bond_site_symmetry_2
C1 H1 1_555 1_555
C2 C1 1_555 1_555
H2 C2 1_555 1_555
C3 H3 1_555 1_555
C4 C3 1_555 1_555
H4 C4 1_555 1_555
C5 C1 1_555 1_555
C6 C5 1_555 1_555
C7 C6 1_555 1_555
C8 C7 1_555 1_555
C9 C6 1_555 1_555
N1 C2 1_555 1_555
N2 C7 1_555 1_555
C10 N3 1_555 1_555
C11 C12 1_555 1_555
C12 C15 1_555 1_555
C13 N5 1_555 1_555
C14 C11 1_555 1_555
H5 C14 1_555 1_555
H6 C14 1_555 1_555
H7 C14 1_555 1_555
C15 H8 1_555 1_555
H9 C15 1_555 1_555
H10 C15 1_555 1_555
C16 H11 1_555 1_555
H12 C16 1_555 1_555
C17 H13 1_555 1_555
H14 C17 1_555 1_555
C18 N7 1_555 1_555
C19 H15 1_555 1_555
C20 C19 1_555 1_555
H16 C20 1_555 1_555
C21 N9 1_555 1_555
C22 H17 1_555 1_555
H18 C22 1_555 1_555
C23 H19 1_555 1_555
H20 C23 1_555 1_555
C24 N11 1_555 1_555
C25 H21 1_555 1_555
C26 C25 1_555 1_555
H22 C26 1_555 1_555
C27 N13 1_555 1_555
C28 H23 1_555 1_555
H24 C28 1_555 1_555
C29 H25 1_555 1_555
H26 C29 1_555 1_555
N3 C11 1_555 1_555
N4 C10 1_555 1_555
N5 C11 1_555 1_555
N6 C12 1_555 1_555
N7 C16 1_555 1_555
N8 C18 1_555 1_555
N9 C17 1_555 1_555
N10 C20 1_555 1_555
N11 C22 1_555 1_555
N12 C28 1_555 1_555
N13 C23 1_555 1_555
N14 C29 1_555 1_555
O11 C10 1_555 1_555
O12 C18 1_555 1_555
O13 C24 1_555 1_555
O14 C13 1_555 1_555
O15 C21 1_555 1_555
O16 C27 1_555 1_555
C1A H1A 1_555 1_555
C2A C1A 1_555 1_555
H2A C2A 1_555 1_555
C3A H3A 1_555 1_555
C4A C3A 1_555 1_555
H4A C4A 1_555 1_555
C5A C1A 1_555 1_555
C6A C5A 1_555 1_555
C7A C6A 1_555 1_555
C8A C9 1_555 1_555
C9A C8 1_555 1_555
N1A C2A 1_555 1_555
N2A C8 1_555 1_555
C10A N3A 1_555 1_555
C11A C12A 1_555 1_555
C12A C15A 1_555 1_555
C13A N5A 1_555 1_555
C14A C11A 1_555 1_555
H5A C14A 1_555 1_555
H6A C14A 1_555 1_555
H7A C14A 1_555 1_555
C15A H8A 1_555 1_555
H9A C15A 1_555 1_555
H10A C15A 1_555 1_555
C16A H11A 1_555 1_555
H12A C16A 1_555 1_555
C17A H13A 1_555 1_555
H14A C17A 1_555 1_555
C18A N7A 1_555 1_555
C19A H15A 1_555 1_555
C20A C19A 1_555 1_555
H16A C20A 1_555 1_555
C21A N9A 1_555 1_555
C22A H17A 1_555 1_555
H18A C22A 1_555 1_555
C23A H19A 1_555 1_555
H20A C23A 1_555 1_555
C24A N12 1_555 1_555
C25A H21A 1_555 1_555
C26A N12 1_555 1_555
H22A C26A 1_555 1_555
C27A N14 1_555 1_555
C28A H23A 1_555 1_555
H24A C28A 1_555 1_555
C29A H25A 1_555 1_555
H26A C29A 1_555 1_555
N3A C11A 1_555 1_555
N4A C10A 1_555 1_555
N5A C11A 1_555 1_555
N6A C12A 1_555 1_555
N7A C16A 1_555 1_555
N8A C18A 1_555 1_555
N9A C17A 1_555 1_555
N10A C20A 1_555 1_555
N11A C22A 1_555 1_555
N12A C24 1_555 1_555
N13A C23A 1_555 1_555
N14A C26 1_555 1_555
O11A C10A 1_555 1_555
O12A C18A 1_555 1_555
O13A C24A 1_555 1_555
O14A C13A 1_555 1_555
O15A C21A 1_555 1_555
O16A C27A 1_555 1_555
C3 N1 1_555 1_555
C4 C5 1_555 1_555
C8 N2 1_555 1_555
N2 C8A 1_555 1_555
N2 N2A 1_555 1_555
C12 N4 1_555 1_555
C13 N6 1_555 1_555
C16 N4 1_555 1_555
C17 N6 1_555 1_555
C19 N7 1_555 1_555
C19 N9 1_555 1_555
C20 N8 1_555 1_555
C21 N10 1_555 1_555
C22 N8 1_555 1_555
C23 N10 1_555 1_555
C25 N11 1_555 1_555
C25 N13 1_555 1_555
C26 N12A 1_555 1_555
C27 N14A 1_555 1_555
C28 N5 1_555 1_555
C29 N3 1_555 1_555
N14 C26A 1_555 1_555
C3A N1A 1_555 1_555
C4A C5A 1_555 1_555
C6A C9A 1_555 1_555
C7A C8A 1_555 1_555
C7A N2A 1_555 1_555
C8A N2A 1_555 1_555
C12A N4A 1_555 1_555
C13A N6A 1_555 1_555
C16A N4A 1_555 1_555
C17A N6A 1_555 1_555
C19A N7A 1_555 1_555
C19A N9A 1_555 1_555
C20A N8A 1_555 1_555
C21A N10A 1_555 1_555
C22A N8A 1_555 1_555
C23A N10A 1_555 1_555
C24A N11A 1_555 1_555
C25A C26A 1_555 1_555
C25A N11A 1_555 1_555
C25A N13A 1_555 1_555
C27A N13A 1_555 1_555
C28A N5A 1_555 1_555
C28A N12A 1_555 1_555
C29A N3A 1_555 1_555
C29A N14A 1_555 1_555

#END
