
#######################################################################
#
#                 Cambridge Crystallographic Data Centre
#                                CCDC 
#
#######################################################################
#
# If this CIF has been generated from an entry in the Cambridge 
# Structural Database, then it will include bibliographic, chemical, 
# crystal, experimental, refinement or atomic coordinate data resulting 
# from the CCDC's data processing and validation procedures.
#
#######################################################################

data_QOGNIJ
_chemical_formula_moiety         'C16 H8 N2 O4 S2,2.76(C1 H2 Cl2)'
_chemical_name_systematic        
"N,N'-Dithiodiphthalimide dichloromethane solvate"
_symmetry_cell_setting           monoclinic
_symmetry_space_group_name_H-M   'C 2/c'
_symmetry_Int_Tables_number      15
_space_group_name_Hall           '-C 2yn'
loop_
_symmetry_equiv_pos_site_id
_symmetry_equiv_pos_as_xyz
1 x,y,z
2 1/2+x,1/2+y,z
3 x,-y,1/2+z
4 1/2+x,1/2-y,1/2+z
5 -x,-y,-z
6 1/2-x,1/2-y,-z
7 -x,y,1/2-z
8 1/2-x,1/2+y,1/2-z
_cell_length_a                   14.3782(13)
_cell_length_b                   16.0723(14)
_cell_length_c                   7.7910(7)
_cell_angle_alpha                90
_cell_angle_beta                 93.256(2)
_cell_angle_gamma                90
_cell_volume                     1797.52
_exptl_crystal_colour            colorless
_exptl_crystal_description       plate
_cell_formula_units_Z            4
loop_
_atom_site_label
_atom_site_type_symbol
_atom_site_fract_x
_atom_site_fract_y
_atom_site_fract_z
S1 S 0.45435(3) 0.42888(3) 0.14589(6)
N1 N 0.37143(9) 0.35978(8) 0.19143(17)
C1 C 0.37358(11) 0.27380(11) 0.1519(2)
O1 O 0.43600(8) 0.24002(8) 0.08386(16)
C2 C 0.28892(11) 0.38182(12) 0.2758(2)
O2 O 0.27258(9) 0.45025(8) 0.32559(18)
C3 C 0.23594(11) 0.30352(10) 0.2826(2)
C4 C 0.15030(12) 0.28889(13) 0.3514(2)
C5 C 0.11807(13) 0.20822(14) 0.3465(2)
C6 C 0.16830(14) 0.14466(13) 0.2782(2)
C7 C 0.25377(13) 0.15926(12) 0.2087(2)
C8 C 0.28575(11) 0.23962(11) 0.2134(2)
H1 H 0.1163 0.3318 0.3982
H2 H 0.0610 0.1963 0.3912
H3 H 0.1446 0.0908 0.2783
H4 H 0.2876 0.1166 0.1612
S1F S 0.54565(3) 0.42888(3) 0.35411(6)
N1F N 0.62857(9) 0.35978(8) 0.30857(17)
C1F C 0.62642(11) 0.27380(11) 0.3481(2)
O1F O 0.56400(8) 0.24002(8) 0.41614(16)
C8F C 0.71425(11) 0.23962(11) 0.2866(2)
C3F C 0.76406(11) 0.30352(10) 0.2174(2)
C2F C 0.71108(11) 0.38182(12) 0.2242(2)
O2F O 0.72742(9) 0.45025(8) 0.17441(18)
C4F C 0.84970(12) 0.28889(13) 0.1486(2)
C5F C 0.88193(13) 0.20822(14) 0.1535(2)
C6F C 0.83170(14) 0.14466(13) 0.2218(2)
C7F C 0.74623(13) 0.15926(12) 0.2913(2)
H4F H 0.7124 0.1166 0.3388
H3F H 0.8554 0.0908 0.2217
H2F H 0.9390 0.1963 0.1088
H1F H 0.8837 0.3318 0.1018
loop_
_geom_bond_atom_site_label_1
_geom_bond_atom_site_label_2
_geom_bond_site_symmetry_1
_geom_bond_site_symmetry_2
S1 N1 1_555 1_555
N1 C1 1_555 1_555
C1 O1 1_555 1_555
C2 N1 1_555 1_555
O2 C2 1_555 1_555
C3 C2 1_555 1_555
C4 C3 1_555 1_555
C5 C4 1_555 1_555
C6 C5 1_555 1_555
C7 C6 1_555 1_555
C8 C1 1_555 1_555
H1 C4 1_555 1_555
H2 C5 1_555 1_555
H3 C6 1_555 1_555
H4 C7 1_555 1_555
S1F S1 1_555 1_555
N1F S1F 1_555 1_555
C1F N1F 1_555 1_555
O1F C1F 1_555 1_555
C8F C1F 1_555 1_555
C3F C8F 1_555 1_555
C2F N1F 1_555 1_555
O2F C2F 1_555 1_555
C4F C3F 1_555 1_555
C5F C4F 1_555 1_555
C6F C5F 1_555 1_555
C7F C8F 1_555 1_555
H4F C7F 1_555 1_555
H3F C6F 1_555 1_555
H2F C5F 1_555 1_555
H1F C4F 1_555 1_555
C3 C8 1_555 1_555
C7 C8 1_555 1_555
C3F C2F 1_555 1_555
C6F C7F 1_555 1_555

#END
