
#######################################################################
#
#                 Cambridge Crystallographic Data Centre
#                                CCDC 
#
#######################################################################
#
# If this CIF has been generated from an entry in the Cambridge 
# Structural Database, then it will include bibliographic, chemical, 
# crystal, experimental, refinement or atomic coordinate data resulting 
# from the CCDC's data processing and validation procedures.
#
#######################################################################

data_QOGQAE
_chemical_formula_moiety         'C13 H13 F2 I1 O3'
_chemical_name_systematic        
(E)-1-(2'-Deoxy-\b-D-ribofuranosyl)-2,4-difluoro-5-(2-iodovinyl)benzene
_chemical_properties_biological  'potential antiviral agent'
_symmetry_cell_setting           monoclinic
_symmetry_space_group_name_H-M   'P 21'
_symmetry_Int_Tables_number      4
_space_group_name_Hall           'P 2yb'
loop_
_symmetry_equiv_pos_site_id
_symmetry_equiv_pos_as_xyz
1 x,y,z
2 -x,1/2+y,-z
_cell_length_a                   9.2884(8)
_cell_length_b                   6.7527(6)
_cell_length_c                   10.6582(9)
_cell_angle_alpha                90
_cell_angle_beta                 96.5141(14)
_cell_angle_gamma                90
_cell_volume                     664.185
_exptl_crystal_colour            'pale yellow'
_exptl_crystal_description       plate
_chemical_melting_point          358-360K
_cell_formula_units_Z            2
_exptl_crystal_recrystallization_method dichloromethane/hexane
loop_
_atom_site_label
_atom_site_type_symbol
_atom_site_fract_x
_atom_site_fract_y
_atom_site_fract_z
C1 C -0.3620(6) -0.6186(7) 0.1474(5)
H1 H -0.4137 -0.7481 0.1507
O1 O -0.4659(4) -0.4616(5) 0.1352(3)
C2 C -0.2724(6) -0.5816(9) 0.2732(5)
H2 H -0.1966 -0.4809 0.2653
H3 H -0.2263 -0.7051 0.3080
C3 C -0.3851(5) -0.5068(11) 0.3548(4)
H4 H -0.3400 -0.4252 0.4271
O2 O -0.4620(5) -0.6716(6) 0.3970(4)
H5 H -0.4770 -0.6536 0.4724
C4 C -0.4816(6) -0.3807(7) 0.2590(5)
H6 H -0.5848 -0.3947 0.2759
C5 C -0.4428(6) -0.1640(8) 0.2587(5)
H7 H -0.3362 -0.1479 0.2686
H8 H -0.4824 -0.1027 0.1776
O3 O -0.5023(5) -0.0713(6) 0.3601(4)
H9 H -0.4628 0.0396 0.3745
C6 C -0.2751(6) -0.6183(8) 0.0351(5)
C7 C -0.1946(7) -0.7827(8) 0.0110(6)
F1 F -0.2025(4) -0.9461(5) 0.0850(4)
C8 C -0.1057(7) -0.7922(9) -0.0835(6)
H10 H -0.0492 -0.9064 -0.0956
C9 C -0.1027(6) -0.6278(9) -0.1597(5)
F2 F -0.0133(4) -0.6362(5) -0.2516(3)
C10 C -0.1823(6) -0.4566(8) -0.1446(5)
C11 C -0.1875(6) -0.2832(9) -0.2286(5)
H11 H -0.2428 -0.1738 -0.2050
C12 C -0.1247(7) -0.2612(9) -0.3326(6)
H12 H -0.0659 -0.3662 -0.3572
I1 I -0.14684(4) -0.01161(7) -0.44498(3)
C13 C -0.2672(6) -0.4565(7) -0.0432(5)
H13 H -0.3210 -0.3410 -0.0281
loop_
_geom_bond_atom_site_label_1
_geom_bond_atom_site_label_2
_geom_bond_site_symmetry_1
_geom_bond_site_symmetry_2
C1 H1 1_555 1_555
O1 C1 1_555 1_555
C2 C1 1_555 1_555
H2 C2 1_555 1_555
H3 C2 1_555 1_555
C3 C2 1_555 1_555
H4 C3 1_555 1_555
O2 C3 1_555 1_555
H5 O2 1_555 1_555
C4 O1 1_555 1_555
H6 C4 1_555 1_555
C5 C4 1_555 1_555
H7 C5 1_555 1_555
H8 C5 1_555 1_555
O3 C5 1_555 1_555
H9 O3 1_555 1_555
C6 C1 1_555 1_555
C7 C6 1_555 1_555
F1 C7 1_555 1_555
C8 C7 1_555 1_555
H10 C8 1_555 1_555
C9 C8 1_555 1_555
F2 C9 1_555 1_555
C10 C9 1_555 1_555
C11 C10 1_555 1_555
H11 C11 1_555 1_555
C12 C11 1_555 1_555
H12 C12 1_555 1_555
I1 C12 1_555 1_555
C13 C6 1_555 1_555
H13 C13 1_555 1_555
C3 C4 1_555 1_555
C10 C13 1_555 1_555

#END
