
#######################################################################
#
#                 Cambridge Crystallographic Data Centre
#                                CCDC 
#
#######################################################################
#
# If this CIF has been generated from an entry in the Cambridge 
# Structural Database, then it will include bibliographic, chemical, 
# crystal, experimental, refinement or atomic coordinate data resulting 
# from the CCDC's data processing and validation procedures.
#
#######################################################################

data_QOHFID
_chemical_formula_moiety         'C36 H38 Na2 O22 S2'
_chemical_name_systematic        
"bis(\m~2~-5-hydroxy-6,7,4'- trimethoxyisoflavone-3'-sulfonato-O,O',O'')-tetra-aqua-di-sodium"
_symmetry_cell_setting           monoclinic
_symmetry_space_group_name_H-M   'P 21/c'
_symmetry_Int_Tables_number      14
_space_group_name_Hall           '-P 2ybc'
loop_
_symmetry_equiv_pos_site_id
_symmetry_equiv_pos_as_xyz
1 x,y,z
2 -x,1/2+y,1/2-z
3 -x,-y,-z
4 x,1/2-y,1/2+z
_cell_length_a                   15.4591(4)
_cell_length_b                   7.9523(3)
_cell_length_c                   16.5859(5)
_cell_angle_alpha                90
_cell_angle_beta                 99.311(2)
_cell_angle_gamma                90
_cell_volume                     2012.13
_exptl_crystal_colour            yellow
_exptl_crystal_description       plate
_chemical_melting_point          '570 K(dec.)'
_cell_formula_units_Z            2
_exptl_crystal_recrystallization_method ethanol/water
loop_
_atom_site_label
_atom_site_type_symbol
_atom_site_fract_x
_atom_site_fract_y
_atom_site_fract_z
Na1 Na 0.03803(4) 0.16772(7) 0.60755(4)
S1 S 0.09995(2) 0.16058(4) 0.40344(2)
O1 O 0.07878(7) 0.19292(15) 0.48359(6)
O2 O -0.03321(7) -0.06322(13) 0.64797(6)
O3 O 0.12208(7) 0.31330(12) 0.36321(7)
O4 O -0.12202(7) 0.18059(12) 0.52375(7)
O5 O -0.55959(6) -0.00832(12) 0.68006(6)
O6 O -0.40549(8) -0.36145(14) 0.59405(8)
O7 O -0.77429(7) -0.42223(13) 0.71035(6)
O8 O -0.67722(8) -0.66307(12) 0.66024(7)
O9 O -0.51702(7) -0.58524(12) 0.61546(7)
H1 H -0.4737 -0.5437 0.6005
O10 O 0.16787(9) 0.16275(17) 0.70418(8)
O11 O -0.01026(10) 0.39550(18) 0.67545(8)
C1 C 0.19664(9) 0.03635(16) 0.41793(7)
C2 C -0.19828(9) 0.12383(17) 0.54521(8)
C3 C -0.27612(10) 0.21239(19) 0.53272(9)
H2 H -0.2784 0.3174 0.5078
C4 C -0.35103(10) 0.14658(18) 0.55695(9)
H3 H -0.4029 0.2079 0.5474
C5 C -0.35015(9) -0.00902(17) 0.59525(8)
C6 C 0.27174(9) 0.09918(17) 0.39319(8)
H4 H 0.2698 0.2042 0.3682
C7 C -0.12329(11) 0.3453(2) 0.48803(11)
H5 H -0.1672 0.3493 0.4400
H6 H -0.1365 0.4272 0.5267
H7 H -0.0670 0.3693 0.4735
C8 C -0.48382(9) 0.03289(17) 0.65466(9)
H8 H -0.4672 0.1454 0.6588
C9 C -0.42973(9) -0.07436(17) 0.62372(8)
C10 C -0.45259(9) -0.25207(17) 0.61952(8)
C11 C -0.53506(9) -0.29459(16) 0.64493(8)
C12 C -0.58682(9) -0.17276(16) 0.67398(8)
C13 C -0.66666(9) -0.20700(18) 0.69771(9)
H9 H -0.6993 -0.1225 0.7173
C14 C -0.69647(9) -0.37215(19) 0.69120(8)
C15 C -0.64685(9) -0.50006(17) 0.66240(8)
C16 C -0.56631(9) -0.46257(17) 0.64068(8)
C17 C -0.82869(12) -0.2976(2) 0.73926(11)
H10 H -0.7983 -0.2491 0.7889
H11 H -0.8421 -0.2112 0.6987
H12 H -0.8821 -0.3489 0.7495
C18 C -0.69901(12) -0.7317(2) 0.57976(10)
H13 H -0.7483 -0.6722 0.5504
H14 H -0.6497 -0.7205 0.5516
H15 H -0.7136 -0.8485 0.5833
H16 H 0.1587(16) 0.171(3) 0.7519(11)
H17 H 0.0077(14) 0.403(3) 0.7270(10)
H18 H 0.1989(15) 0.241(2) 0.7002(15)
H19 H -0.0417(14) 0.480(2) 0.6634(14)
Na1B Na -0.03803(4) -0.16772(7) 0.39245(4)
S1B S -0.09995(2) -0.16058(4) 0.59656(2)
O1B O -0.07878(7) -0.19292(15) 0.51641(6)
O2B O 0.03321(7) 0.06322(13) 0.35203(6)
O3B O -0.12208(7) -0.31330(12) 0.63679(7)
O4B O 0.12202(7) -0.18059(12) 0.47625(7)
O5B O 0.55959(6) 0.00832(12) 0.31994(6)
O6B O 0.40549(8) 0.36145(14) 0.40595(8)
O7B O 0.77429(7) 0.42223(13) 0.28965(6)
O8B O 0.67722(8) 0.66307(12) 0.33976(7)
O9B O 0.51702(7) 0.58524(12) 0.38454(7)
H1B H 0.4737 0.5437 0.3995
O10B O -0.16787(9) -0.16275(17) 0.29582(8)
O11B O 0.01026(10) -0.39550(18) 0.32455(8)
C1B C -0.19664(9) -0.03635(16) 0.58207(7)
C2B C 0.19828(9) -0.12383(17) 0.45479(8)
C3B C 0.27612(10) -0.21239(19) 0.46728(9)
H2B H 0.2784 -0.3174 0.4922
C4B C 0.35103(10) -0.14658(18) 0.44305(9)
H3B H 0.4029 -0.2079 0.4526
C5B C 0.35015(9) 0.00902(17) 0.40475(8)
C6B C -0.27174(9) -0.09918(17) 0.60681(8)
H4B H -0.2698 -0.2042 0.6318
C7B C 0.12329(11) -0.3453(2) 0.51197(11)
H5B H 0.1672 -0.3493 0.5600
H6B H 0.1365 -0.4272 0.4733
H7B H 0.0670 -0.3693 0.5265
C8B C 0.48382(9) -0.03289(17) 0.34534(9)
H8B H 0.4672 -0.1454 0.3412
C9B C 0.42973(9) 0.07436(17) 0.37628(8)
C10B C 0.45259(9) 0.25207(17) 0.38048(8)
C11B C 0.53506(9) 0.29459(16) 0.35507(8)
C12B C 0.58682(9) 0.17276(16) 0.32602(8)
C13B C 0.66666(9) 0.20700(18) 0.30229(9)
H9B H 0.6993 0.1225 0.2827
C14B C 0.69647(9) 0.37215(19) 0.30880(8)
C15B C 0.64685(9) 0.50006(17) 0.33760(8)
C16B C 0.56631(9) 0.46257(17) 0.35932(8)
C17B C 0.82869(12) 0.2976(2) 0.26074(11)
H10B H 0.7983 0.2491 0.2111
H11B H 0.8421 0.2112 0.3013
H12B H 0.8821 0.3489 0.2505
C18B C 0.69901(12) 0.7317(2) 0.42024(10)
H13B H 0.7483 0.6722 0.4496
H14B H 0.6497 0.7205 0.4484
H15B H 0.7136 0.8485 0.4167
H16B H -0.1587(16) -0.171(3) 0.2481(11)
H17B H -0.0077(14) -0.403(3) 0.2730(10)
H18B H -0.1989(15) -0.241(2) 0.2998(15)
H19B H 0.0417(14) -0.480(2) 0.3366(14)
loop_
_geom_bond_atom_site_label_1
_geom_bond_atom_site_label_2
_geom_bond_site_symmetry_1
_geom_bond_site_symmetry_2
Na1 O1 1_555 1_555
S1 O1 1_555 1_555
O2 Na1 1_555 1_555
O3 S1 1_555 1_555
O4 Na1 1_555 1_555
O5 C8 1_555 1_555
O6 C10 1_555 1_555
O7 C14 1_555 1_555
O8 C15 1_555 1_555
O9 H1 1_555 1_555
O10 Na1 1_555 1_555
O11 Na1 1_555 1_555
C1 S1 1_555 1_555
C2 O4 1_555 1_555
C3 C2 1_555 1_555
H2 C3 1_555 1_555
C4 C3 1_555 1_555
H3 C4 1_555 1_555
C5 C4 1_555 1_555
C6 C1 1_555 1_555
H4 C6 1_555 1_555
C7 O4 1_555 1_555
H5 C7 1_555 1_555
H6 C7 1_555 1_555
H7 C7 1_555 1_555
C8 H8 1_555 1_555
C9 C5 1_555 1_555
C10 C9 1_555 1_555
C11 C10 1_555 1_555
C12 O5 1_555 1_555
C13 C12 1_555 1_555
H9 C13 1_555 1_555
C14 C13 1_555 1_555
C15 C14 1_555 1_555
C16 O9 1_555 1_555
C17 O7 1_555 1_555
H10 C17 1_555 1_555
H11 C17 1_555 1_555
H12 C17 1_555 1_555
C18 O8 1_555 1_555
H13 C18 1_555 1_555
H14 C18 1_555 1_555
H15 C18 1_555 1_555
H16 O10 1_555 1_555
H17 O11 1_555 1_555
H18 O10 1_555 1_555
H19 O11 1_555 1_555
Na1B O1B 1_555 1_555
S1B O2 1_555 1_555
O1B S1B 1_555 1_555
O2B S1 1_555 1_555
O3B S1B 1_555 1_555
O4B Na1B 1_555 1_555
O5B C8B 1_555 1_555
O6B C10B 1_555 1_555
O7B C14B 1_555 1_555
O8B C15B 1_555 1_555
O9B H1B 1_555 1_555
O10B Na1B 1_555 1_555
O11B Na1B 1_555 1_555
C1B C2 1_555 1_555
C2B C1 1_555 1_555
C3B C2B 1_555 1_555
H2B C3B 1_555 1_555
C4B C3B 1_555 1_555
H3B C4B 1_555 1_555
C5B C6 1_555 1_555
C6B C5 1_555 1_555
H4B C6B 1_555 1_555
C7B O4B 1_555 1_555
H5B C7B 1_555 1_555
H6B C7B 1_555 1_555
H7B C7B 1_555 1_555
C8B H8B 1_555 1_555
C9B C5B 1_555 1_555
C10B C9B 1_555 1_555
C11B C10B 1_555 1_555
C12B O5B 1_555 1_555
C13B C12B 1_555 1_555
H9B C13B 1_555 1_555
C14B C13B 1_555 1_555
C15B C14B 1_555 1_555
C16B O9B 1_555 1_555
C17B O7B 1_555 1_555
H10B C17B 1_555 1_555
H11B C17B 1_555 1_555
H12B C17B 1_555 1_555
C18B O8B 1_555 1_555
H13B C18B 1_555 1_555
H14B C18B 1_555 1_555
H15B C18B 1_555 1_555
H16B O10B 1_555 1_555
H17B O11B 1_555 1_555
H18B O10B 1_555 1_555
H19B O11B 1_555 1_555
C8 C9 1_555 1_555
C11 C12 1_555 1_555
C11 C16 1_555 1_555
C15 C16 1_555 1_555
Na1B O2B 1_555 1_555
S1B C1B 1_555 1_555
O4B C2B 1_555 1_555
C1B C6B 1_555 1_555
C4B C5B 1_555 1_555
C8B C9B 1_555 1_555
C11B C12B 1_555 1_555
C11B C16B 1_555 1_555
C15B C16B 1_555 1_555

#END
