
#######################################################################
#
#                 Cambridge Crystallographic Data Centre
#                                CCDC 
#
#######################################################################
#
# If this CIF has been generated from an entry in the Cambridge 
# Structural Database, then it will include bibliographic, chemical, 
# crystal, experimental, refinement or atomic coordinate data resulting 
# from the CCDC's data processing and validation procedures.
#
#######################################################################

data_QOHJOO
_chemical_formula_moiety         'C22 H22 O9'
_chemical_name_systematic        
6,7-dihydroxy-2,3,12-trimethoxy-6,6a-dimethyl-6a,7-dihydro-1H-indeno[1',7a':2,3]indeno[5,6-d][1,3]dioxole-1,5(6H)-dione
_symmetry_cell_setting           monoclinic
_symmetry_space_group_name_H-M   'P 21'
_symmetry_Int_Tables_number      4
_space_group_name_Hall           'P 2yb'
loop_
_symmetry_equiv_pos_site_id
_symmetry_equiv_pos_as_xyz
1 x,y,z
2 -x,1/2+y,-z
_cell_length_a                   10.706(2)
_cell_length_b                   8.218(2)
_cell_length_c                   10.9345(9)
_cell_angle_alpha                90
_cell_angle_beta                 93.68(1)
_cell_angle_gamma                90
_cell_volume                     960.055
_exptl_crystal_colour            orange
_exptl_crystal_description       prism
_cell_formula_units_Z            2
loop_
_atom_site_label
_atom_site_type_symbol
_atom_site_fract_x
_atom_site_fract_y
_atom_site_fract_z
C1 C 0.2863(3) 0.6643(4) 0.4471(2)
C2 C 0.2339(3) 0.5292(4) 0.5114(2)
C3 C 0.2141(3) 0.3820(4) 0.4561(2)
C4 C 0.2689(3) 0.3450(4) 0.3412(3)
H1 H 0.2719 0.2380 0.3139
C5 C 0.3151(2) 0.4651(3) 0.2747(2)
C6 C 0.3970(2) 0.4457(4) 0.1732(2)
C7 C 0.4656(2) 0.6071(4) 0.1533(2)
C8 C 0.4387(2) 0.7119(3) 0.2702(2)
C9 C 0.4079(3) 0.8912(4) 0.2367(3)
H2 H 0.4562 0.9256 0.1681
C10 C 0.2697(2) 0.8844(3) 0.1965(2)
C11 C 0.2006(3) 1.0034(4) 0.1308(2)
H3 H 0.2364 1.0984 0.1028
C12 C 0.0754(3) 0.9684(4) 0.1109(2)
C13 C 0.0189(2) 0.8288(4) 0.1521(2)
C14 C 0.0861(2) 0.7131(4) 0.2187(2)
C15 C 0.2149(2) 0.7445(3) 0.2390(2)
C16 C 0.3120(2) 0.6395(3) 0.3120(2)
C17 C 0.6022(3) 0.5762(5) 0.1332(3)
H4 H 0.6435 0.6778 0.1201
H5 H 0.6086 0.5077 0.0628
H6 H 0.6412 0.5234 0.2041
C18 C 0.5443(3) 0.6921(4) 0.3696(3)
H7 H 0.5581 0.5784 0.3858
H8 H 0.5218 0.7454 0.4432
H9 H 0.6195 0.7399 0.3424
C19 C -0.1166(3) 0.9557(5) 0.0241(3)
H10 H -0.1120 0.9068 -0.0562
H11 H -0.1952 1.0140 0.0261
C20 C -0.0858(3) 0.5297(5) 0.2432(3)
H12 H -0.1022 0.4281 0.2824
H13 H -0.1042 0.5196 0.1565
H14 H -0.1375 0.6131 0.2750
C21 C 0.2764(3) 0.6030(6) 0.7201(3)
H15 H 0.2337 0.6169 0.7940
H16 H 0.3144 0.7041 0.6988
H17 H 0.3399 0.5212 0.7327
C22 C 0.1008(4) 0.1311(5) 0.4479(4)
H18 H 0.0596 0.0601 0.5022
H19 H 0.1668 0.0730 0.4115
H20 H 0.0415 0.1688 0.3846
O1 O 0.2996(2) 0.7995(3) 0.49549(19)
O2 O 0.1896(2) 0.5542(4) 0.62392(18)
O3 O 0.1522(2) 0.2673(3) 0.5152(2)
O4 O 0.4111(2) 0.3222(3) 0.1146(2)
O5 O 0.4048(2) 0.6742(3) 0.04378(18)
O6 O 0.4302(2) 0.9997(3) 0.3373(2)
O7 O -0.01422(19) 1.0635(3) 0.04881(18)
O8 O -0.10805(18) 0.8339(3) 0.11677(18)
O9 O 0.04298(17) 0.5719(3) 0.26673(19)
H21 H 0.453(3) 0.716(5) 0.002(3)
H22 H 0.396(5) 0.963(7) 0.399(4)
loop_
_geom_bond_atom_site_label_1
_geom_bond_atom_site_label_2
_geom_bond_site_symmetry_1
_geom_bond_site_symmetry_2
C1 C2 1_555 1_555
C2 C3 1_555 1_555
C3 C4 1_555 1_555
C4 H1 1_555 1_555
C5 C4 1_555 1_555
C6 C5 1_555 1_555
C7 C6 1_555 1_555
C8 C7 1_555 1_555
C9 C8 1_555 1_555
H2 C9 1_555 1_555
C10 C9 1_555 1_555
C11 C10 1_555 1_555
H3 C11 1_555 1_555
C12 C11 1_555 1_555
C13 C12 1_555 1_555
C14 C13 1_555 1_555
C15 C10 1_555 1_555
C16 C1 1_555 1_555
C17 C7 1_555 1_555
H4 C17 1_555 1_555
H5 C17 1_555 1_555
H6 C17 1_555 1_555
C18 C8 1_555 1_555
H7 C18 1_555 1_555
H8 C18 1_555 1_555
H9 C18 1_555 1_555
C19 H10 1_555 1_555
H11 C19 1_555 1_555
C20 H12 1_555 1_555
H13 C20 1_555 1_555
H14 C20 1_555 1_555
C21 H15 1_555 1_555
H16 C21 1_555 1_555
H17 C21 1_555 1_555
C22 H18 1_555 1_555
H19 C22 1_555 1_555
H20 C22 1_555 1_555
O1 C1 1_555 1_555
O2 C2 1_555 1_555
O3 C3 1_555 1_555
O4 C6 1_555 1_555
O5 C7 1_555 1_555
O6 C9 1_555 1_555
O7 C12 1_555 1_555
O8 C13 1_555 1_555
O9 C14 1_555 1_555
H21 O5 1_555 1_555
H22 O6 1_555 1_555
C5 C16 1_555 1_555
C8 C16 1_555 1_555
C14 C15 1_555 1_555
C15 C16 1_555 1_555
C19 O7 1_555 1_555
C19 O8 1_555 1_555
C20 O9 1_555 1_555
C21 O2 1_555 1_555
C22 O3 1_555 1_555

#END
