
#######################################################################
#
#                 Cambridge Crystallographic Data Centre
#                                CCDC 
#
#######################################################################
#
# If this CIF has been generated from an entry in the Cambridge 
# Structural Database, then it will include bibliographic, chemical, 
# crystal, experimental, refinement or atomic coordinate data resulting 
# from the CCDC's data processing and validation procedures.
#
#######################################################################

data_QOHKIJ
_chemical_formula_moiety         'C14 H15 N3 O2'
_chemical_name_systematic        
4-(4-methoxyphenyl)-3-methyl-2,4,5,7-tetrahydro-6H-pyrazolo[3,4-b]pyridin-6-one
_symmetry_cell_setting           monoclinic
_symmetry_space_group_name_H-M   'P 21/n'
_symmetry_Int_Tables_number      14
_space_group_name_Hall           '-P 2yn'
loop_
_symmetry_equiv_pos_site_id
_symmetry_equiv_pos_as_xyz
1 x,y,z
2 1/2-x,1/2+y,1/2-z
3 -x,-y,-z
4 1/2+x,1/2-y,1/2+z
_cell_length_a                   6.2622(6)
_cell_length_b                   8.2140(7)
_cell_length_c                   24.482(2)
_cell_angle_alpha                90
_cell_angle_beta                 95.8380(10)
_cell_angle_gamma                90
_cell_volume                     1252.77
_cell_formula_units_Z            4
loop_
_atom_site_label
_atom_site_type_symbol
_atom_site_fract_x
_atom_site_fract_y
_atom_site_fract_z
N1 N 0.2058(5) 0.6530(3) 0.03840(12)
H1 H 0.0864 0.6597 0.0178
N2 N 0.1982(5) 0.3635(4) 0.03450(12)
N3 N 0.3484(5) 0.2494(4) 0.05094(12)
H2 H 0.3300 0.1468 0.0453
O1 O 0.2325(5) 0.9232(3) 0.04354(14)
O2 O 1.1198(5) 0.5540(4) 0.30480(11)
C1 C 0.2949(5) 0.5016(4) 0.05077(13)
C2 C 0.5291(6) 0.3136(4) 0.07689(14)
C3 C 0.4984(6) 0.4795(4) 0.07798(14)
C4 C 0.6359(6) 0.6205(4) 0.09742(15)
H3 H 0.7339 0.6432 0.0696
C5 C 0.4897(7) 0.7685(5) 0.10078(18)
H4 H 0.4341 0.7659 0.1363
H5 H 0.5783 0.8651 0.1000
C6 C 0.3026(6) 0.7888(5) 0.05801(16)
C7 C 0.7164(7) 0.2110(5) 0.09655(18)
H6 H 0.6932 0.1633 0.1313
H7 H 0.8435 0.2771 0.1008
H8 H 0.7336 0.1264 0.0703
C8 C 0.7699(6) 0.5983(5) 0.15225(15)
C9 C 0.7040(6) 0.5020(5) 0.19363(16)
H9 H 0.5759 0.4443 0.1876
C10 C 0.8242(7) 0.4899(6) 0.24353(16)
H10 H 0.7779 0.4231 0.2707
C11 C 1.0118(6) 0.5752(5) 0.25372(15)
C12 C 1.0776(6) 0.6741(5) 0.21354(17)
H11 H 1.2036 0.7341 0.2201
C13 C 0.9565(6) 0.6842(5) 0.16349(15)
H12 H 1.0029 0.7514 0.1365
C14 C 1.3118(7) 0.6401(7) 0.31766(19)
H13 H 1.4106 0.6139 0.2914
H14 H 1.3734 0.6103 0.3538
H15 H 1.2829 0.7548 0.3165
loop_
_geom_bond_atom_site_label_1
_geom_bond_atom_site_label_2
_geom_bond_site_symmetry_1
_geom_bond_site_symmetry_2
N1 H1 1_555 1_555
N2 N3 1_555 1_555
N3 H2 1_555 1_555
O1 C6 1_555 1_555
O2 C11 1_555 1_555
C1 N1 1_555 1_555
C2 N3 1_555 1_555
C3 C1 1_555 1_555
C4 C3 1_555 1_555
H3 C4 1_555 1_555
C5 C4 1_555 1_555
H4 C5 1_555 1_555
H5 C5 1_555 1_555
C6 N1 1_555 1_555
C7 C2 1_555 1_555
H6 C7 1_555 1_555
H7 C7 1_555 1_555
H8 C7 1_555 1_555
C8 C4 1_555 1_555
C9 C8 1_555 1_555
H9 C9 1_555 1_555
C10 C9 1_555 1_555
H10 C10 1_555 1_555
C11 C10 1_555 1_555
C12 C11 1_555 1_555
H11 C12 1_555 1_555
C13 C8 1_555 1_555
H12 C13 1_555 1_555
C14 O2 1_555 1_555
H13 C14 1_555 1_555
H14 C14 1_555 1_555
H15 C14 1_555 1_555
N2 C1 1_555 1_555
C2 C3 1_555 1_555
C5 C6 1_555 1_555
C12 C13 1_555 1_555

#END
