
#######################################################################
#
#                 Cambridge Crystallographic Data Centre
#                                CCDC 
#
#######################################################################
#
# If this CIF has been generated from an entry in the Cambridge 
# Structural Database, then it will include bibliographic, chemical, 
# crystal, experimental, refinement or atomic coordinate data resulting 
# from the CCDC's data processing and validation procedures.
#
#######################################################################

data_QOHKED
_chemical_formula_moiety         '2(C7 H18 N3 1+),F6 Si1 2-,6(H2 O1)'
_chemical_name_systematic        
"bis(N,N,N',N',N'',N''-Hexamethylguanidinium) hexafluorosilicate hexahydrate"
_symmetry_cell_setting           triclinic
_symmetry_space_group_name_H-M   'P -1'
_symmetry_Int_Tables_number      2
_space_group_name_Hall           '-P 1'
loop_
_symmetry_equiv_pos_site_id
_symmetry_equiv_pos_as_xyz
1 x,y,z
2 -x,-y,-z
_cell_length_a                   7.961(2)
_cell_length_b                   8.068(2)
_cell_length_c                   11.084(2)
_cell_angle_alpha                89.60(3)
_cell_angle_beta                 71.37(3)
_cell_angle_gamma                79.89(3)
_cell_volume                     663.219
_cell_formula_units_Z            1
_chemical_properties_physical    hygroscopic
_exptl_crystal_recrystallization_method methanol
loop_
_atom_site_label
_atom_site_type_symbol
_atom_site_fract_x
_atom_site_fract_y
_atom_site_fract_z
Si1 Si 0.0000 0.0000 0.0000
F1 F -0.1577(3) -0.0817(2) 0.1146(2)
F2 F -0.1569(3) 0.1654(3) -0.0047(2)
F3 F 0.0449(3) 0.1047(3) 0.1141(2)
F1A F 0.1577(3) 0.0817(2) -0.1146(2)
F2A F 0.1569(3) -0.1654(3) 0.0047(2)
F3A F -0.0449(3) -0.1047(3) -0.1141(2)
C1 C -0.3027(4) 0.5746(4) -0.2220(3)
N1 N -0.1695(5) 0.4482(4) -0.2293(3)
N2 N -0.3613(4) 0.6930(4) -0.1267(3)
N3 N -0.3873(5) 0.5864(4) -0.3123(3)
C2 C -0.0185(5) 0.4736(5) -0.1827(4)
C3 C -0.1611(6) 0.2792(4) -0.2837(4)
C4 C -0.3545(6) 0.6480(6) 0.0020(3)
C5 C -0.4287(5) 0.8694(4) -0.1466(4)
C6 C -0.2834(7) 0.5231(6) -0.4447(3)
C7 C -0.5794(5) 0.6557(6) -0.2804(4)
H1 H 0.0944(6) 0.4397(35) -0.2494(10)
H2 H -0.0202(25) 0.4068(29) -0.1104(18)
H3 H -0.0329(22) 0.5905(8) -0.1583(27)
H4 H -0.1400(40) 0.1956(5) -0.2255(13)
H5 H -0.0646(26) 0.2580(16) -0.3634(14)
H6 H -0.2732(15) 0.2740(13) -0.2975(26)
H7 H -0.4723(11) 0.6809(37) 0.0636(5)
H8 H -0.2712(33) 0.7057(32) 0.0232(13)
H9 H -0.3158(42) 0.5285(8) 0.0024(9)
H10 H -0.3641(26) 0.9419(5) -0.1177(24)
H11 H -0.5549(10) 0.8986(11) -0.0993(21)
H12 H -0.4110(34) 0.8829(9) -0.2356(5)
H13 H -0.3046(34) 0.6071(17) -0.5025(4)
H14 H -0.3209(31) 0.4221(23) -0.4632(10)
H15 H -0.1572(7) 0.4989(38) -0.4543(9)
H16 H -0.6396(9) 0.5731(15) -0.3023(28)
H17 H -0.5952(5) 0.7545(23) -0.3273(23)
H18 H -0.6298(10) 0.6852(37) -0.1907(6)
O1 O -0.0043(4) 0.8389(4) -0.3664(2)
H19 H -0.0259(59) 0.8629(61) -0.2929(13)
H20 H 0.0785(46) 0.8744(60) -0.4131(31)
O2 O 0.3740(4) 0.1605(4) -0.3476(3)
H21 H 0.3148(44) 0.1351(61) -0.2800(25)
H22 H 0.4774(22) 0.1169(60) -0.3695(41)
O3 O 0.2666(4) 0.0013(4) -0.5272(3)
H23 H 0.2827(66) 0.0573(49) -0.4746(37)
H24 H 0.1993(58) 0.0485(51) -0.5613(42)
N4? N -0.2142(17) 0.5623(18) -0.1357(11)
N5? N -0.2318(20) 0.4550(15) -0.3182(11)
N6? N -0.4409(17) 0.7030(16) -0.2127(15)
loop_
_geom_bond_atom_site_label_1
_geom_bond_atom_site_label_2
_geom_bond_site_symmetry_1
_geom_bond_site_symmetry_2
Si1 F1 1_555 1_555
F2 Si1 1_555 1_555
F3 Si1 1_555 1_555
C1 N1 1_555 1_555
N1 C2 1_555 1_555
N2 C1 1_555 1_555
N3 C1 1_555 1_555
C2 H1 1_555 1_555
C3 N1 1_555 1_555
C4 N2 1_555 1_555
C5 N2 1_555 1_555
C6 N3 1_555 1_555
C7 N3 1_555 1_555
O1 H19 1_555 1_555
O2 H21 1_555 1_555
O3 H23 1_555 1_555
H2 C2 1_555 1_555
H3 C2 1_555 1_555
H4 C3 1_555 1_555
H5 C3 1_555 1_555
H6 C3 1_555 1_555
H7 C4 1_555 1_555
H8 C4 1_555 1_555
H9 C4 1_555 1_555
H10 C5 1_555 1_555
H11 C5 1_555 1_555
H12 C5 1_555 1_555
H13 C6 1_555 1_555
H14 C6 1_555 1_555
H15 C6 1_555 1_555
H16 C7 1_555 1_555
H17 C7 1_555 1_555
H18 C7 1_555 1_555
H20 O1 1_555 1_555
H22 O2 1_555 1_555
H24 O3 1_555 1_555
F1A Si1 1_555 1_555
F2A Si1 1_555 1_555
F3A Si1 1_555 1_555

#END
