
#######################################################################
#
#                 Cambridge Crystallographic Data Centre
#                                CCDC 
#
#######################################################################
#
# If this CIF has been generated from an entry in the Cambridge 
# Structural Database, then it will include bibliographic, chemical, 
# crystal, experimental, refinement or atomic coordinate data resulting 
# from the CCDC's data processing and validation procedures.
#
#######################################################################

data_QOHSIQ
_chemical_formula_moiety         'C39 H49 N5 O2,C2 H3 N1'
_chemical_name_systematic        
'5,5,15,15,20,20-hexaethyl-10-methyl-10-(4-nitrophenyl)-5,10,15,20,22,24-hexahydroporphyrin acetonitrile solvate'
_symmetry_cell_setting           triclinic
_symmetry_space_group_name_H-M   'P -1'
_symmetry_Int_Tables_number      2
_space_group_name_Hall           '-P 1'
loop_
_symmetry_equiv_pos_site_id
_symmetry_equiv_pos_as_xyz
1 x,y,z
2 -x,-y,-z
_cell_length_a                   10.634(5)
_cell_length_b                   13.231(7)
_cell_length_c                   14.940(8)
_cell_angle_alpha                103.196(10)
_cell_angle_beta                 108.839(9)
_cell_angle_gamma                96.503(10)
_cell_volume                     1896.6
_cell_formula_units_Z            2
_exptl_crystal_recrystallization_method acetonitrile
loop_
_atom_site_label
_atom_site_type_symbol
_atom_site_fract_x
_atom_site_fract_y
_atom_site_fract_z
O1 O 0.9141(6) 0.0252(3) 0.1863(4)
O2 O 0.8938(5) 0.0566(3) 0.0491(4)
N1 N 0.7820(4) 0.6238(3) 0.3958(3)
H1 H 0.847(4) 0.677(3) 0.426(3)
N2 N 0.5580(4) 0.7903(3) 0.3266(4)
H2 H 0.516(4) 0.729(3) 0.285(3)
N3 N 0.6304(4) 0.7930(3) 0.1198(3)
H3 H 0.702(4) 0.834(4) 0.152(3)
N4 N 0.8112(4) 0.5999(3) 0.1648(3)
H4 H 0.737(4) 0.580(4) 0.157(3)
N5 N 0.9065(6) 0.0848(4) 0.1349(5)
C1 C 0.9084(5) 0.4082(4) 0.2571(4)
C2 C 0.9119(4) 0.3725(4) 0.1642(4)
H5 H 0.9148 0.4204 0.1277
C3 C 0.9114(5) 0.2675(4) 0.1235(4)
H6 H 0.9145 0.2448 0.0607
C4 C 0.9061(5) 0.1975(4) 0.1776(4)
C5 C 0.9020(5) 0.2279(4) 0.2702(4)
H7 H 0.8984 0.1792 0.3059
C6 C 0.9033(5) 0.3348(4) 0.3096(4)
H8 H 0.9006 0.3572 0.3725
C7 C 1.0482(5) 0.5629(3) 0.3987(3)
H9 H 1.0567 0.6363 0.4308
H10 H 1.1251 0.5542 0.3795
H11 H 1.0445 0.5215 0.4432
C8 C 0.9162(5) 0.5252(3) 0.3057(4)
C9 C 0.7909(5) 0.5347(3) 0.3318(3)
C10 C 0.6685(5) 0.4695(4) 0.2956(3)
H12 H 0.6441 0.4028 0.2504
C11 C 0.5828(5) 0.5209(4) 0.3389(3)
H13 H 0.4925 0.4933 0.3264
C12 C 0.6549(5) 0.6169(3) 0.4014(3)
C13 C 0.6180(5) 0.7068(4) 0.4646(4)
C14 C 0.7212(5) 0.7369(4) 0.5712(4)
H14 H 0.8111 0.7577 0.5703
H15 H 0.7011 0.7981 0.6098
C15 C 0.7238(5) 0.6491(4) 0.6232(4)
H16 H 0.7899 0.6750 0.6889
H17 H 0.7472 0.5889 0.5872
H18 H 0.6358 0.6287 0.6259
C16 C 0.4724(4) 0.6704(4) 0.4598(4)
H19 H 0.4115 0.6509 0.3916
H20 H 0.4689 0.6075 0.4826
C17 C 0.4217(5) 0.7543(4) 0.5211(4)
H21 H 0.3299 0.7270 0.5131
H22 H 0.4249 0.8170 0.4992
H23 H 0.4784 0.7713 0.5894
C18 C 0.6252(5) 0.8012(4) 0.4246(4)
C19 C 0.6795(5) 0.9071(4) 0.4668(4)
H24 H 0.7309 0.9393 0.5330
C20 C 0.6438(5) 0.9591(4) 0.3920(5)
H25 H 0.6683 1.0315 0.4012
C21 C 0.5676(5) 0.8863(4) 0.3045(5)
C22 C 0.4925(5) 0.8946(4) 0.2040(4)
C23 C 0.3376(5) 0.8820(5) 0.1883(4)
H26 H 0.2887 0.8873 0.1229
H27 H 0.3048 0.8116 0.1907
C24 C 0.3043(6) 0.9624(5) 0.2627(5)
H28 H 0.2081 0.9491 0.2478
H29 H 0.3339 1.0325 0.2598
H30 H 0.3499 0.9566 0.3276
C25 C 0.5563(10) 1.0048(5) 0.1989(5)
H31 H 0.5302 1.0594 0.2407
H32 H 0.6543 1.0141 0.2270
C26 C 0.5213(11) 1.0231(7) 0.1026(7)
H33 H 0.5644 1.0936 0.1093
H34 H 0.4247 1.0150 0.0736
H35 H 0.5518 0.9727 0.0612
C29 C 0.5077(5) 0.8070(4) 0.1276(4)
C30 C 0.4159(5) 0.7243(4) 0.0568(4)
H41 H 0.3232 0.7101 0.0443
C31 C 0.4842(5) 0.6632(4) 0.0053(4)
H42 H 0.4433 0.6025 -0.0474
C32 C 0.6166(5) 0.7057(4) 0.0439(4)
C33 C 0.7357(5) 0.6752(3) 0.0192(4)
C34 C 0.6857(5) 0.5686(4) -0.0635(3)
H43 H 0.6433 0.5163 -0.0403
H44 H 0.6162 0.5782 -0.1199
C35 C 0.7924(5) 0.5242(4) -0.0977(4)
H45 H 0.7514 0.4577 -0.1474
H46 H 0.8618 0.5135 -0.0428
H47 H 0.8319 0.5731 -0.1245
C36 C 0.7992(5) 0.7627(4) -0.0152(4)
H48 H 0.8296 0.8280 0.0380
H49 H 0.8787 0.7432 -0.0274
C37 C 0.7049(6) 0.7840(4) -0.1085(4)
H50 H 0.7524 0.8397 -0.1239
H51 H 0.6264 0.8047 -0.0972
H52 H 0.6769 0.7207 -0.1626
C38 C 0.8421(5) 0.6617(3) 0.1079(4)
C39 C 0.9802(6) 0.6945(4) 0.1489(4)
H53 H 1.0324 0.7377 0.1274
C40 C 1.0305(5) 0.6522(4) 0.2290(4)
H54 H 1.1212 0.6630 0.2689
C41 C 0.9243(5) 0.5930(3) 0.2383(4)
N6 N 1.0404(6) 0.8353(4) 0.5068(4)
C42 C 0.9563(6) 0.9015(5) 0.3526(5)
H55 H 0.9667 0.8535 0.2978
H56 H 1.0081 0.9708 0.3648
H57 H 0.8623 0.9047 0.3375
C43 C 1.0044(6) 0.8646(5) 0.4391(6)
C27? C 0.5563(10) 1.0048(5) 0.1989(5)
H36? H 0.4790 1.0252 0.1567
H37? H 0.5751 1.0502 0.2645
C28? C 0.668(2) 1.049(2) 0.173(2)
H38? H 0.6671 1.1225 0.1770
H39? H 0.6569 1.0110 0.1076
H40? H 0.7523 1.0432 0.2186
loop_
_geom_bond_atom_site_label_1
_geom_bond_atom_site_label_2
_geom_bond_site_symmetry_1
_geom_bond_site_symmetry_2
O1 N5 1_555 1_555
O2 N5 1_555 1_555
N1 H1 1_555 1_555
N2 H2 1_555 1_555
N3 H3 1_555 1_555
N4 H4 1_555 1_555
N5 C4 1_555 1_555
C1 C2 1_555 1_555
C2 H5 1_555 1_555
C3 C2 1_555 1_555
H6 C3 1_555 1_555
C4 C3 1_555 1_555
C5 C4 1_555 1_555
H7 C5 1_555 1_555
C6 C1 1_555 1_555
H8 C6 1_555 1_555
C7 H9 1_555 1_555
H10 C7 1_555 1_555
H11 C7 1_555 1_555
C8 C1 1_555 1_555
C9 N1 1_555 1_555
C10 C9 1_555 1_555
H12 C10 1_555 1_555
C11 C10 1_555 1_555
H13 C11 1_555 1_555
C12 N1 1_555 1_555
C13 C12 1_555 1_555
C14 C13 1_555 1_555
H14 C14 1_555 1_555
H15 C14 1_555 1_555
C15 C14 1_555 1_555
H16 C15 1_555 1_555
H17 C15 1_555 1_555
H18 C15 1_555 1_555
C16 C13 1_555 1_555
H19 C16 1_555 1_555
H20 C16 1_555 1_555
C17 C16 1_555 1_555
H21 C17 1_555 1_555
H22 C17 1_555 1_555
H23 C17 1_555 1_555
C18 N2 1_555 1_555
C19 C18 1_555 1_555
H24 C19 1_555 1_555
C20 C19 1_555 1_555
H25 C20 1_555 1_555
C21 N2 1_555 1_555
C22 C21 1_555 1_555
C23 C22 1_555 1_555
H26 C23 1_555 1_555
H27 C23 1_555 1_555
C24 C23 1_555 1_555
H28 C24 1_555 1_555
H29 C24 1_555 1_555
H30 C24 1_555 1_555
C25 C22 1_555 1_555
H31 C25 1_555 1_555
H32 C25 1_555 1_555
C26 C25 1_555 1_555
H33 C26 1_555 1_555
H34 C26 1_555 1_555
H35 C26 1_555 1_555
C29 N3 1_555 1_555
C30 C29 1_555 1_555
H41 C30 1_555 1_555
C31 C30 1_555 1_555
H42 C31 1_555 1_555
C32 N3 1_555 1_555
C33 C32 1_555 1_555
C34 C33 1_555 1_555
H43 C34 1_555 1_555
H44 C34 1_555 1_555
C35 C34 1_555 1_555
H45 C35 1_555 1_555
H46 C35 1_555 1_555
H47 C35 1_555 1_555
C36 C33 1_555 1_555
H48 C36 1_555 1_555
H49 C36 1_555 1_555
C37 C36 1_555 1_555
H50 C37 1_555 1_555
H51 C37 1_555 1_555
H52 C37 1_555 1_555
C38 N4 1_555 1_555
C39 C38 1_555 1_555
H53 C39 1_555 1_555
C40 C39 1_555 1_555
H54 C40 1_555 1_555
C41 N4 1_555 1_555
N6 C43 1_555 1_555
C42 H55 1_555 1_555
H56 C42 1_555 1_555
H57 C42 1_555 1_555
C43 C42 1_555 1_555
C5 C6 1_555 1_555
C7 C8 1_555 1_555
C8 C9 1_555 1_555
C8 C41 1_555 1_555
C11 C12 1_555 1_555
C13 C18 1_555 1_555
C20 C21 1_555 1_555
C22 C29 1_555 1_555
C31 C32 1_555 1_555
C33 C38 1_555 1_555
C40 C41 1_555 1_555

#END
