
#######################################################################
#
#                 Cambridge Crystallographic Data Centre
#                                CCDC 
#
#######################################################################
#
# If this CIF has been generated from an entry in the Cambridge 
# Structural Database, then it will include bibliographic, chemical, 
# crystal, experimental, refinement or atomic coordinate data resulting 
# from the CCDC's data processing and validation procedures.
#
#######################################################################

data_QOHSUC
_chemical_formula_moiety         'C39 H49 N5 O2,2(C3 H6 O1)'
_chemical_name_systematic        
'5,5,15,15,20,20-hexaethyl-10-methyl-10-(4-nitrophenyl)-5,10,15,20,22,24-hexahydroporphyrin acetone solvate'
_symmetry_cell_setting           triclinic
_symmetry_space_group_name_H-M   'P -1'
_symmetry_Int_Tables_number      2
_space_group_name_Hall           '-P 1'
loop_
_symmetry_equiv_pos_site_id
_symmetry_equiv_pos_as_xyz
1 x,y,z
2 -x,-y,-z
_cell_length_a                   9.5670(15)
_cell_length_b                   14.600(2)
_cell_length_c                   16.960(3)
_cell_angle_alpha                75.150(18)
_cell_angle_beta                 78.31(2)
_cell_angle_gamma                72.980(16)
_cell_volume                     2168.57
_exptl_crystal_colour            colorless
_exptl_crystal_description       prism
_cell_formula_units_Z            2
_exptl_crystal_recrystallization_method acetone
loop_
_atom_site_label
_atom_site_type_symbol
_atom_site_fract_x
_atom_site_fract_y
_atom_site_fract_z
N1 N 0.2776(4) 0.4166(3) 0.3827(2)
H1 H 0.2207 0.4438 0.3438
N2 N 0.5965(4) 0.3602(3) 0.2357(2)
H2 H 0.6225 0.3194 0.2815
N3 N 0.5453(4) 0.1298(3) 0.2325(2)
H3 H 0.4847 0.1495 0.1953
N4 N 0.2632(4) 0.1711(3) 0.4023(2)
H4 H 0.3426 0.1685 0.4223
N5 N -0.0201(5) 0.1373(4) 0.8189(3)
O1 O 0.0029(6) 0.1766(3) 0.8696(3)
O2 O -0.0697(5) 0.0641(3) 0.8367(2)
C1 C 0.0155(6) 0.1801(4) 0.7290(3)
C2 C 0.0236(6) 0.1256(3) 0.6718(3)
H5 H 0.0084 0.0616 0.6887
C3 C 0.0550(5) 0.1672(3) 0.5883(3)
H6 H 0.0613 0.1306 0.5482
C4 C 0.0774(5) 0.2622(3) 0.5622(3)
C5 C 0.0663(5) 0.3151(3) 0.6232(3)
H7 H 0.0790 0.3798 0.6070
C6 C 0.0367(5) 0.2741(4) 0.7077(3)
H8 H 0.0314 0.3094 0.7485
C7 C 0.1054(5) 0.3119(3) 0.4691(3)
C8 C -0.0350(5) 0.3959(3) 0.4493(3)
H9 H -0.0514 0.4434 0.4840
H10 H -0.1207 0.3684 0.4601
H11 H -0.0213 0.4287 0.3911
C9 C 0.2420(5) 0.3505(3) 0.4549(3)
C10 C 0.3606(5) 0.3242(3) 0.4982(3)
H12 H 0.3694 0.2795 0.5498
C11 C 0.4686(6) 0.3760(3) 0.4520(3)
H13 H 0.5606 0.3716 0.4676
C12 C 0.4130(5) 0.4337(3) 0.3803(3)
C13 C 0.4815(5) 0.5016(3) 0.3073(3)
C14 C 0.3718(5) 0.6056(3) 0.2888(3)
H14 H 0.4156 0.6461 0.2392
H15 H 0.2791 0.5985 0.2765
C15 C 0.3351(6) 0.6592(4) 0.3612(3)
H16 H 0.3001 0.6170 0.4117
H17 H 0.2581 0.7201 0.3488
H18 H 0.4240 0.6746 0.3688
C16 C 0.6285(5) 0.5082(3) 0.3293(3)
H19 H 0.6066 0.5314 0.3815
H20 H 0.6956 0.4415 0.3389
C17 C 0.7099(6) 0.5767(4) 0.2629(3)
H21 H 0.7240 0.5584 0.2095
H22 H 0.8063 0.5704 0.2781
H23 H 0.6511 0.6447 0.2588
C18 C 0.5179(5) 0.4570(3) 0.2314(3)
C19 C 0.5014(6) 0.4960(4) 0.1485(3)
H24 H 0.4524 0.5615 0.1260
C20 C 0.5711(6) 0.4201(3) 0.1030(3)
H25 H 0.5764 0.4267 0.0454
C21 C 0.6299(5) 0.3348(3) 0.1585(3)
C22 C 0.7239(6) 0.2325(3) 0.1496(3)
C23 C 0.8882(5) 0.2262(3) 0.1503(3)
H26 H 0.8970 0.2442 0.2012
H27 H 0.9459 0.1574 0.1521
C24 C 0.9569(6) 0.2924(4) 0.0757(3)
H28 H 0.9624 0.2690 0.0256
H29 H 1.0563 0.2903 0.0838
H30 H 0.8955 0.3598 0.0702
C25 C 0.6996(6) 0.2124(3) 0.0676(3)
H31 H 0.5929 0.2201 0.0688
H32 H 0.7304 0.2623 0.0209
C26 C 0.7845(7) 0.1101(4) 0.0522(3)
H33 H 0.8907 0.1028 0.0481
H34 H 0.7624 0.1022 0.0007
H35 H 0.7545 0.0600 0.0980
C27 C 0.6750(5) 0.1586(3) 0.2242(3)
C28 C 0.7352(6) 0.1131(3) 0.2966(3)
H36 H 0.8231 0.1199 0.3097
C29 C 0.6426(5) 0.0546(3) 0.3477(3)
H37 H 0.6590 0.0148 0.4006
C30 C 0.5250(5) 0.0652(3) 0.3080(3)
C31 C 0.3891(6) 0.0246(3) 0.3356(3)
C32 C 0.3601(6) -0.0190(3) 0.2669(3)
H38 H 0.2707 -0.0439 0.2871
H39 H 0.3392 0.0345 0.2181
C33 C 0.4874(6) -0.1020(4) 0.2402(4)
H40 H 0.5768 -0.0783 0.2201
H41 H 0.4615 -0.1235 0.1961
H42 H 0.5054 -0.1571 0.2873
C34 C 0.4129(6) -0.0558(3) 0.4164(3)
H43 H 0.5018 -0.1082 0.4042
H44 H 0.4334 -0.0261 0.4578
C35 C 0.2846(6) -0.1033(4) 0.4551(3)
H45 H 0.1942 -0.0522 0.4651
H46 H 0.3073 -0.1481 0.5074
H47 H 0.2703 -0.1398 0.4176
C36 C 0.2554(5) 0.1081(3) 0.3546(3)
C37 C 0.1129(6) 0.1369(3) 0.3366(3)
H48 H 0.0745 0.1077 0.3046
C38 C 0.0319(5) 0.2180(3) 0.3740(3)
H49 H -0.0690 0.2518 0.3720
C39 C 0.1295(5) 0.2374(3) 0.4136(3)
O3 O 0.3603(4) 0.1711(3) 1.0877(2)
C40 C 0.2911(7) 0.0864(4) 1.0041(4)
H50 H 0.2728 0.0414 1.0566
H51 H 0.3710 0.0516 0.9680
H52 H 0.2012 0.1112 0.9778
C41 C 0.3343(6) 0.1705(4) 1.0193(3)
C42 C 0.3432(8) 0.2564(4) 0.9488(4)
H53 H 0.3430 0.3129 0.9701
H54 H 0.2581 0.2729 0.9193
H55 H 0.4344 0.2395 0.9111
O4 O 0.1053(4) 0.5009(2) 0.2448(2)
C43 C 0.2314(6) 0.3527(4) 0.1981(3)
H56 H 0.2832 0.3346 0.2463
H57 H 0.3035 0.3437 0.1488
H58 H 0.1639 0.3110 0.2059
C44 C 0.1457(6) 0.4575(4) 0.1878(3)
C45 C 0.1067(8) 0.5111(4) 0.1017(3)
H59 H 0.0358 0.4834 0.0874
H60 H 0.1964 0.5033 0.0615
H61 H 0.0631 0.5809 0.1012
loop_
_geom_bond_atom_site_label_1
_geom_bond_atom_site_label_2
_geom_bond_site_symmetry_1
_geom_bond_site_symmetry_2
N1 H1 1_555 1_555
N2 H2 1_555 1_555
N3 H3 1_555 1_555
N4 H4 1_555 1_555
N5 O1 1_555 1_555
O2 N5 1_555 1_555
O3 C41 1_555 1_555
O4 C44 1_555 1_555
C1 N5 1_555 1_555
C2 C1 1_555 1_555
H5 C2 1_555 1_555
C3 C2 1_555 1_555
H6 C3 1_555 1_555
C4 C3 1_555 1_555
C5 C4 1_555 1_555
H7 C5 1_555 1_555
C6 C1 1_555 1_555
H8 C6 1_555 1_555
C7 C4 1_555 1_555
C8 C7 1_555 1_555
H9 C8 1_555 1_555
H10 C8 1_555 1_555
H11 C8 1_555 1_555
C9 N1 1_555 1_555
C10 C9 1_555 1_555
H12 C10 1_555 1_555
C11 C10 1_555 1_555
H13 C11 1_555 1_555
C12 N1 1_555 1_555
C13 C12 1_555 1_555
C14 C13 1_555 1_555
H14 C14 1_555 1_555
H15 C14 1_555 1_555
C15 C14 1_555 1_555
H16 C15 1_555 1_555
H17 C15 1_555 1_555
H18 C15 1_555 1_555
C16 C13 1_555 1_555
H19 C16 1_555 1_555
H20 C16 1_555 1_555
C17 C16 1_555 1_555
H21 C17 1_555 1_555
H22 C17 1_555 1_555
H23 C17 1_555 1_555
C18 N2 1_555 1_555
C19 C18 1_555 1_555
H24 C19 1_555 1_555
C20 C19 1_555 1_555
H25 C20 1_555 1_555
C21 N2 1_555 1_555
C22 C21 1_555 1_555
C23 C22 1_555 1_555
H26 C23 1_555 1_555
H27 C23 1_555 1_555
C24 C23 1_555 1_555
H28 C24 1_555 1_555
H29 C24 1_555 1_555
H30 C24 1_555 1_555
C25 C22 1_555 1_555
H31 C25 1_555 1_555
H32 C25 1_555 1_555
C26 C25 1_555 1_555
H33 C26 1_555 1_555
H34 C26 1_555 1_555
H35 C26 1_555 1_555
C27 N3 1_555 1_555
C28 C27 1_555 1_555
H36 C28 1_555 1_555
C29 C28 1_555 1_555
H37 C29 1_555 1_555
C30 N3 1_555 1_555
C31 C30 1_555 1_555
C32 C31 1_555 1_555
H38 C32 1_555 1_555
H39 C32 1_555 1_555
C33 C32 1_555 1_555
H40 C33 1_555 1_555
H41 C33 1_555 1_555
H42 C33 1_555 1_555
C34 C31 1_555 1_555
H43 C34 1_555 1_555
H44 C34 1_555 1_555
C35 C34 1_555 1_555
H45 C35 1_555 1_555
H46 C35 1_555 1_555
H47 C35 1_555 1_555
C36 N4 1_555 1_555
C37 C36 1_555 1_555
H48 C37 1_555 1_555
C38 C37 1_555 1_555
H49 C38 1_555 1_555
C39 N4 1_555 1_555
C40 H50 1_555 1_555
H51 C40 1_555 1_555
H52 C40 1_555 1_555
C41 C40 1_555 1_555
C42 C41 1_555 1_555
H53 C42 1_555 1_555
H54 C42 1_555 1_555
H55 C42 1_555 1_555
C43 H56 1_555 1_555
H57 C43 1_555 1_555
H58 C43 1_555 1_555
C44 C43 1_555 1_555
C45 C44 1_555 1_555
H59 C45 1_555 1_555
H60 C45 1_555 1_555
H61 C45 1_555 1_555
C5 C6 1_555 1_555
C7 C9 1_555 1_555
C7 C39 1_555 1_555
C11 C12 1_555 1_555
C13 C18 1_555 1_555
C20 C21 1_555 1_555
C22 C27 1_555 1_555
C29 C30 1_555 1_555
C31 C36 1_555 1_555
C38 C39 1_555 1_555

#END
