
#######################################################################
#
#                 Cambridge Crystallographic Data Centre
#                                CCDC 
#
#######################################################################
#
# If this CIF has been generated from an entry in the Cambridge 
# Structural Database, then it will include bibliographic, chemical, 
# crystal, experimental, refinement or atomic coordinate data resulting 
# from the CCDC's data processing and validation procedures.
#
#######################################################################

data_QOHSOW
_chemical_formula_moiety         'C39 H49 N5 O2'
_chemical_name_systematic        
5,5,15,15,20,20-hexaethyl-10-methyl-10-(3-nitrophenyl)-5,10,15,20,22,24-hexahydroporphyrin
_symmetry_cell_setting           monoclinic
_symmetry_space_group_name_H-M   'P 21/c'
_symmetry_Int_Tables_number      14
_space_group_name_Hall           '-P 2ybc'
loop_
_symmetry_equiv_pos_site_id
_symmetry_equiv_pos_as_xyz
1 x,y,z
2 -x,1/2+y,1/2-z
3 -x,-y,-z
4 x,1/2-y,1/2+z
_cell_length_a                   12.525(3)
_cell_length_b                   16.783(3)
_cell_length_c                   19.490(6)
_cell_angle_alpha                90
_cell_angle_beta                 123.14(2)
_cell_angle_gamma                90
_cell_volume                     3430.52
_exptl_crystal_colour            colorless
_exptl_crystal_description       prism
_cell_formula_units_Z            4
_exptl_crystal_recrystallization_method acetonitrile
loop_
_atom_site_label
_atom_site_type_symbol
_atom_site_fract_x
_atom_site_fract_y
_atom_site_fract_z
C1 C 0.24957(17) -0.11531(10) 0.18521(11)
C2 C 0.12180(17) -0.10634(12) 0.15572(12)
H1 H 0.0709 -0.1500 0.1484
C3 C 0.07231(17) -0.02991(12) 0.13740(12)
H2 H -0.0133 -0.0217 0.1176
C4 C 0.14925(16) 0.03423(11) 0.14840(11)
H3 H 0.1143 0.0852 0.1360
C5 C 0.27818(15) 0.02470(10) 0.17767(11)
C6 C 0.32796(16) -0.05188(10) 0.19606(11)
H4 H 0.4133 -0.0605 0.2155
C7 C 0.36176(16) 0.09782(10) 0.19180(11)
C8 C 0.36418(17) 0.15172(11) 0.25693(11)
H5 H 0.4181 0.1969 0.2674
H6 H 0.3967 0.1221 0.3067
H7 H 0.2793 0.1696 0.2371
C9 C 0.30695(15) 0.14342(10) 0.11233(11)
C10 C 0.21078(16) 0.12681(11) 0.03340(11)
H8 H 0.1584 0.0821 0.0159
C11 C 0.20507(16) 0.18985(11) -0.01719(11)
H9 H 0.1484 0.1936 -0.0737
C12 C 0.29750(15) 0.24401(10) 0.03172(10)
C13 C 0.32694(15) 0.32619(10) 0.01508(10)
C14 C 0.27903(16) 0.38813(10) 0.05181(11)
H10 H 0.3253 0.3801 0.1106
H11 H 0.2993 0.4412 0.0424
C15 C 0.13679(18) 0.38419(13) 0.01695(13)
H12 H 0.0898 0.3953 -0.0407
H13 H 0.1156 0.4229 0.0439
H14 H 0.1153 0.3319 0.0257
C16 C 0.25980(16) 0.33807(11) -0.07863(10)
H15 H 0.2900 0.2977 -0.0997
H16 H 0.1689 0.3302 -0.1045
C17 C 0.2820(2) 0.41935(12) -0.10231(12)
H17 H 0.2473 0.4596 -0.0849
H18 H 0.2408 0.4220 -0.1607
H19 H 0.3718 0.4280 -0.0763
C18 C 0.46883(15) 0.33675(10) 0.05582(10)
C19 C 0.54928(16) 0.39664(10) 0.10422(11)
H20 H 0.5263 0.4418 0.1209
C20 C 0.67362(16) 0.37773(10) 0.12447(11)
H21 H 0.7464 0.4084 0.1568
C21 C 0.66806(15) 0.30679(10) 0.08832(10)
C22 C 0.77057(15) 0.26023(10) 0.08685(11)
C23 C 0.77926(18) 0.28830(11) 0.01427(12)
H22 H 0.8387 0.2539 0.0111
H23 H 0.6963 0.2815 -0.0361
C24 C 0.8212(2) 0.37435(13) 0.01896(14)
H24 H 0.7627 0.4092 0.0215
H25 H 0.8223 0.3867 -0.0288
H26 H 0.9051 0.3814 0.0671
C25 C 0.89906(16) 0.27461(11) 0.16995(11)
H27 H 0.9161 0.3314 0.1765
H28 H 0.8896 0.2574 0.2139
C26 C 1.01392(17) 0.23235(13) 0.17950(14)
H29 H 0.9958 0.1765 0.1687
H30 H 1.0865 0.2395 0.2344
H31 H 1.0320 0.2543 0.1414
C27 C 0.74189(15) 0.17202(10) 0.07692(10)
C28 C 0.73418(17) 0.11752(11) 0.02197(11)
H32 H 0.7392 0.1289 -0.0229
C29 C 0.71720(16) 0.04096(11) 0.04520(11)
H33 H 0.7093 -0.0066 0.0183
C30 C 0.71443(15) 0.04921(10) 0.11408(11)
C31 C 0.71201(15) -0.01304(10) 0.16931(11)
C32 C 0.84915(17) -0.04275(12) 0.23124(12)
H34 H 0.8483 -0.0742 0.2727
H35 H 0.8736 -0.0779 0.2026
C33 C 0.95022(18) 0.02048(13) 0.27393(13)
H36 H 0.9605 0.0477 0.2346
H37 H 1.0295 -0.0039 0.3146
H38 H 0.9251 0.0579 0.2998
C34 C 0.62989(18) -0.08455(10) 0.11536(12)
H39 H 0.5456 -0.0650 0.0740
H40 H 0.6679 -0.1058 0.0872
C35 C 0.6156(2) -0.15184(11) 0.16180(14)
H41 H 0.6977 -0.1747 0.1999
H42 H 0.5602 -0.1920 0.1238
H43 H 0.5799 -0.1314 0.1910
C36 C 0.65472(15) 0.02101(10) 0.21381(10)
C37 C 0.70068(17) 0.03181(11) 0.29482(11)
H44 H 0.7827 0.0199 0.3385
C38 C 0.60140(17) 0.06433(11) 0.30069(11)
H45 H 0.6069 0.0774 0.3489
C39 C 0.49677(15) 0.07302(9) 0.22339(10)
N1 N 0.30647(16) -0.19524(10) 0.21057(11)
N2 N 0.35919(12) 0.21475(8) 0.11040(9)
H46 H 0.4219 0.2380 0.1526
N3 N 0.54238(12) 0.28236(8) 0.04599(9)
H47 H 0.5139 0.2394 0.0175
N4 N 0.72888(13) 0.12941(8) 0.13251(9)
H48 H 0.7297 0.1501 0.1732
N5 N 0.52970(13) 0.04642(8) 0.17039(9)
H49 H 0.4795 0.0458 0.1179
O1 O 0.24065(16) -0.25049(8) 0.20876(12)
O2 O 0.41933(13) -0.20319(8) 0.23392(9)
loop_
_geom_bond_atom_site_label_1
_geom_bond_atom_site_label_2
_geom_bond_site_symmetry_1
_geom_bond_site_symmetry_2
C1 C2 1_555 1_555
C2 H1 1_555 1_555
C3 C2 1_555 1_555
H2 C3 1_555 1_555
C4 C3 1_555 1_555
H3 C4 1_555 1_555
C5 C4 1_555 1_555
C6 C1 1_555 1_555
H4 C6 1_555 1_555
C7 C5 1_555 1_555
C8 C7 1_555 1_555
H5 C8 1_555 1_555
H6 C8 1_555 1_555
H7 C8 1_555 1_555
C9 C7 1_555 1_555
C10 C9 1_555 1_555
H8 C10 1_555 1_555
C11 C10 1_555 1_555
H9 C11 1_555 1_555
C12 C11 1_555 1_555
C13 C12 1_555 1_555
C14 C13 1_555 1_555
H10 C14 1_555 1_555
H11 C14 1_555 1_555
C15 C14 1_555 1_555
H12 C15 1_555 1_555
H13 C15 1_555 1_555
H14 C15 1_555 1_555
C16 C13 1_555 1_555
H15 C16 1_555 1_555
H16 C16 1_555 1_555
C17 C16 1_555 1_555
H17 C17 1_555 1_555
H18 C17 1_555 1_555
H19 C17 1_555 1_555
C18 C13 1_555 1_555
C19 C18 1_555 1_555
H20 C19 1_555 1_555
C20 C19 1_555 1_555
H21 C20 1_555 1_555
C21 C20 1_555 1_555
C22 C21 1_555 1_555
C23 C22 1_555 1_555
H22 C23 1_555 1_555
H23 C23 1_555 1_555
C24 C23 1_555 1_555
H24 C24 1_555 1_555
H25 C24 1_555 1_555
H26 C24 1_555 1_555
C25 C22 1_555 1_555
H27 C25 1_555 1_555
H28 C25 1_555 1_555
C26 C25 1_555 1_555
H29 C26 1_555 1_555
H30 C26 1_555 1_555
H31 C26 1_555 1_555
C27 C22 1_555 1_555
C28 C27 1_555 1_555
H32 C28 1_555 1_555
C29 C28 1_555 1_555
H33 C29 1_555 1_555
C30 C29 1_555 1_555
C31 C30 1_555 1_555
C32 C31 1_555 1_555
H34 C32 1_555 1_555
H35 C32 1_555 1_555
C33 C32 1_555 1_555
H36 C33 1_555 1_555
H37 C33 1_555 1_555
H38 C33 1_555 1_555
C34 C31 1_555 1_555
H39 C34 1_555 1_555
H40 C34 1_555 1_555
C35 C34 1_555 1_555
H41 C35 1_555 1_555
H42 C35 1_555 1_555
H43 C35 1_555 1_555
C36 C31 1_555 1_555
C37 C36 1_555 1_555
H44 C37 1_555 1_555
C38 C37 1_555 1_555
H45 C38 1_555 1_555
C39 C7 1_555 1_555
N1 C1 1_555 1_555
N2 C9 1_555 1_555
H46 N2 1_555 1_555
N3 C18 1_555 1_555
H47 N3 1_555 1_555
N4 C27 1_555 1_555
H48 N4 1_555 1_555
N5 C36 1_555 1_555
H49 N5 1_555 1_555
O1 N1 1_555 1_555
O2 N1 1_555 1_555
C5 C6 1_555 1_555
C12 N2 1_555 1_555
C21 N3 1_555 1_555
C30 N4 1_555 1_555
C38 C39 1_555 1_555
C39 N5 1_555 1_555

#END
