
#######################################################################
#
#                 Cambridge Crystallographic Data Centre
#                                CCDC 
#
#######################################################################
#
# If this CIF has been generated from an entry in the Cambridge 
# Structural Database, then it will include bibliographic, chemical, 
# crystal, experimental, refinement or atomic coordinate data resulting 
# from the CCDC's data processing and validation procedures.
#
#######################################################################

data_QOJFEA
_chemical_formula_moiety         'C16 H46 N6 6+,6(Cl1 1-),2(H2 O1)'
_chemical_name_systematic        
'6,6,13,13-Tetramethyl-1,4,8,11,15,18-hexa-azaoctadecane hexahydrochloride dihydrate'
_symmetry_cell_setting           monoclinic
_symmetry_space_group_name_H-M   'P 21/c'
_symmetry_Int_Tables_number      14
_space_group_name_Hall           '-P 2ybc'
loop_
_symmetry_equiv_pos_site_id
_symmetry_equiv_pos_as_xyz
1 x,y,z
2 x,1/2-y,1/2+z
3 -x,-y,-z
4 -x,1/2+y,1/2-z
_cell_length_a                   7.0501(8)
_cell_length_b                   18.946(2)
_cell_length_c                   11.0050(12)
_cell_angle_alpha                90
_cell_angle_beta                 105.3830(10)
_cell_angle_gamma                90
_cell_volume                     1417.29
_exptl_crystal_colour            colorless
_exptl_crystal_description       prism
_cell_formula_units_Z            2
loop_
_atom_site_label
_atom_site_type_symbol
_atom_site_fract_x
_atom_site_fract_y
_atom_site_fract_z
Cl1 Cl 0.14081(4) 0.187209(15) 0.53877(3)
Cl2 Cl -0.30400(4) 0.152099(15) 0.19209(3)
Cl3 Cl -0.38615(4) 0.033366(14) 0.66092(3)
C1 C 0.2536(2) 0.05797(7) 1.01699(12)
C2 C 0.00716(18) 0.13373(7) 0.86679(13)
C3 C 0.19493(16) 0.08961(6) 0.88342(10)
C4 C 0.36571(17) 0.13351(6) 0.86011(11)
N1 N 0.40901(15) 0.19878(5) 0.93910(10)
C5 C 0.57577(17) 0.23977(6) 0.91356(12)
C6 C 0.61051(18) 0.30943(6) 0.98339(12)
N2 N 0.48523(17) 0.36725(5) 0.91271(11)
C7 C 0.16285(18) 0.02706(6) 0.79055(10)
N3 N 0.04916(15) 0.04575(5) 0.65830(9)
C8 C 0.06852(17) -0.00916(6) 0.56441(10)
H1 H 0.370(2) 0.0306(8) 1.0348(14)
H2 H 0.155(3) 0.0290(9) 1.0310(16)
H3 H 0.280(2) 0.0943(8) 1.0853(14)
H4 H 0.024(2) 0.1668(8) 0.9286(15)
H5 H -0.105(2) 0.1032(8) 0.8692(13)
H6 H -0.024(3) 0.1594(9) 0.7873(17)
H7 H 0.335(2) 0.1472(7) 0.7710(14)
H8 H 0.486(2) 0.1061(7) 0.8789(12)
H9 H 0.440(2) 0.1890(8) 1.0154(17)
H10 H 0.314(2) 0.2254(8) 0.9268(14)
H11 H 0.550(2) 0.2468(8) 0.8319(15)
H12 H 0.692(2) 0.2101(7) 0.9429(12)
H13 H 0.743(2) 0.3234(7) 0.9928(14)
H14 H 0.589(2) 0.3037(7) 1.0650(14)
H15 H 0.519(3) 0.3743(9) 0.8422(18)
H16 H 0.488(2) 0.4050(9) 0.9605(14)
H17 H 0.360(3) 0.3542(9) 0.8871(17)
H18 H 0.288(2) 0.0076(7) 0.7849(12)
H19 H 0.088(2) -0.0093(7) 0.8178(12)
H20 H -0.078(3) 0.0505(8) 0.6517(15)
H21 H 0.090(2) 0.0860(8) 0.6371(12)
H22 H 0.202(2) -0.0108(7) 0.5642(12)
H23 H 0.035(2) -0.0519(7) 0.5929(13)
C8B C -0.06852(17) 0.00916(6) 0.43559(10)
N3B N -0.04916(15) -0.04575(5) 0.34170(9)
C7B C -0.16285(18) -0.02706(6) 0.20945(10)
C3B C -0.19493(16) -0.08961(6) 0.11658(10)
C1B C -0.2536(2) -0.05797(7) -0.01699(12)
H1B H -0.370(2) -0.0306(8) -0.0348(14)
H2B H -0.155(3) -0.0290(9) -0.0310(16)
H3B H -0.280(2) -0.0943(8) -0.0853(14)
C2B C -0.00716(18) -0.13373(7) 0.13321(13)
H4B H -0.024(2) -0.1668(8) 0.0714(15)
H5B H 0.105(2) -0.1032(8) 0.1308(13)
H6B H 0.024(3) -0.1594(9) 0.2127(17)
C4B C -0.36571(17) -0.13351(6) 0.13989(11)
N1B N -0.40901(15) -0.19878(5) 0.06090(10)
C5B C -0.57577(17) -0.23977(6) 0.08644(12)
C6B C -0.61051(18) -0.30943(6) 0.01661(12)
N2B N -0.48523(17) -0.36725(5) 0.08729(11)
H15B H -0.519(3) -0.3743(9) 0.1578(18)
H16B H -0.488(2) -0.4050(9) 0.0395(14)
H17B H -0.360(3) -0.3542(9) 0.1129(17)
H13B H -0.743(2) -0.3234(7) 0.0072(14)
H14B H -0.589(2) -0.3037(7) -0.0650(14)
H11B H -0.550(2) -0.2468(8) 0.1681(15)
H12B H -0.692(2) -0.2101(7) 0.0571(12)
H9B H -0.440(2) -0.1890(8) -0.0154(17)
H10B H -0.314(2) -0.2254(8) 0.0732(14)
H7B H -0.335(2) -0.1472(7) 0.2290(14)
H8B H -0.486(2) -0.1061(7) 0.1211(12)
H18B H -0.288(2) -0.0076(7) 0.2151(12)
H19B H -0.088(2) 0.0093(7) 0.1822(12)
H20B H 0.078(3) -0.0505(8) 0.3483(15)
H21B H -0.090(2) -0.0860(8) 0.3629(12)
H22B H -0.202(2) 0.0108(7) 0.4358(12)
H23B H -0.035(2) 0.0519(7) 0.4071(13)
O1 O 0.15140(15) 0.29863(6) 0.75020(10)
H24 H 0.140(3) 0.2749(10) 0.6867(18)
H25 H 0.050(3) 0.3111(11) 0.742(2)
loop_
_geom_bond_atom_site_label_1
_geom_bond_atom_site_label_2
_geom_bond_site_symmetry_1
_geom_bond_site_symmetry_2
C1 C3 1_555 1_555
C2 C3 1_555 1_555
C3 C4 1_555 1_555
C4 N1 1_555 1_555
N1 C5 1_555 1_555
C5 C6 1_555 1_555
C6 N2 1_555 1_555
N2 H15 1_555 1_555
C7 C3 1_555 1_555
N3 C7 1_555 1_555
C8 N3 1_555 1_555
O1 H24 1_555 1_555
H1 C1 1_555 1_555
H2 C1 1_555 1_555
H3 C1 1_555 1_555
H4 C2 1_555 1_555
H5 C2 1_555 1_555
H6 C2 1_555 1_555
H7 C4 1_555 1_555
H8 C4 1_555 1_555
H9 N1 1_555 1_555
H10 N1 1_555 1_555
H11 C5 1_555 1_555
H12 C5 1_555 1_555
H13 C6 1_555 1_555
H14 C6 1_555 1_555
H16 N2 1_555 1_555
H17 N2 1_555 1_555
H18 C7 1_555 1_555
H19 C7 1_555 1_555
H20 N3 1_555 1_555
H21 N3 1_555 1_555
H22 C8 1_555 1_555
H23 C8 1_555 1_555
H25 O1 1_555 1_555
C8B C8 1_555 1_555
N3B C8B 1_555 1_555
C7B N3B 1_555 1_555
C3B C7B 1_555 1_555
C1B C3B 1_555 1_555
H1B C1B 1_555 1_555
H2B C1B 1_555 1_555
H3B C1B 1_555 1_555
C2B C3B 1_555 1_555
H4B C2B 1_555 1_555
H5B C2B 1_555 1_555
H6B C2B 1_555 1_555
C4B C3B 1_555 1_555
N1B C4B 1_555 1_555
C5B N1B 1_555 1_555
C6B C5B 1_555 1_555
N2B C6B 1_555 1_555
H15B N2B 1_555 1_555
H16B N2B 1_555 1_555
H17B N2B 1_555 1_555
H13B C6B 1_555 1_555
H14B C6B 1_555 1_555
H11B C5B 1_555 1_555
H12B C5B 1_555 1_555
H9B N1B 1_555 1_555
H10B N1B 1_555 1_555
H7B C4B 1_555 1_555
H8B C4B 1_555 1_555
H18B C7B 1_555 1_555
H19B C7B 1_555 1_555
H20B N3B 1_555 1_555
H21B N3B 1_555 1_555
H22B C8B 1_555 1_555
H23B C8B 1_555 1_555

#END
