
#######################################################################
#
#                 Cambridge Crystallographic Data Centre
#                                CCDC 
#
#######################################################################
#
# If this CIF has been generated from an entry in the Cambridge 
# Structural Database, then it will include bibliographic, chemical, 
# crystal, experimental, refinement or atomic coordinate data resulting 
# from the CCDC's data processing and validation procedures.
#
#######################################################################

data_QOJFUQ
_chemical_formula_moiety         'C17 H52 N8 8+,8(Cl1 1-),7.5(H2 O1)'
_chemical_name_systematic        
'tetrakis(2,6-Diazahexyl)methane octahydrochloride hydrate'
_symmetry_cell_setting           monoclinic
_symmetry_space_group_name_H-M   'C 2/c'
_symmetry_Int_Tables_number      15
_space_group_name_Hall           '-C 2yn'
loop_
_symmetry_equiv_pos_site_id
_symmetry_equiv_pos_as_xyz
1 x,y,z
2 x,-y,1/2+z
3 1/2+x,1/2+y,z
4 1/2+x,1/2-y,1/2+z
5 -x,-y,-z
6 -x,y,1/2-z
7 1/2-x,1/2-y,-z
8 1/2-x,1/2+y,1/2-z
_cell_length_a                   21.636(6)
_cell_length_b                   17.446(5)
_cell_length_c                   10.360(4)
_cell_angle_alpha                90
_cell_angle_beta                 94.82(3)
_cell_angle_gamma                90
_cell_volume                     3896.67
_exptl_crystal_colour            blue
_exptl_crystal_description       block
_cell_formula_units_Z            4
loop_
_atom_site_label
_atom_site_type_symbol
_atom_site_fract_x
_atom_site_fract_y
_atom_site_fract_z
C1 C 0.50000 0.6751(3) 0.25000
C2 C 0.55659(15) 0.6262(2) 0.2194(4)
N1 N 0.57993(15) 0.5710(2) 0.3201(4)
C3 C 0.63285(16) 0.5242(2) 0.2806(4)
C4 C 0.65396(18) 0.4671(2) 0.3847(4)
C5 C 0.7057(2) 0.4172(2) 0.3417(4)
N2 N 0.7183(2) 0.3532(2) 0.4316(5)
C6 C 0.51231(16) 0.7239(2) 0.3735(4)
N3 N 0.56363(14) 0.7812(2) 0.3761(4)
C7 C 0.5695(2) 0.8239(3) 0.5027(6)
C8 C 0.6148(2) 0.8898(3) 0.5033(7)
C9 C 0.68190(19) 0.8691(3) 0.4961(5)
N4 N 0.70904(18) 0.8292(2) 0.6129(4)
H1 H 0.5893(16) 0.657(2) 0.211(3)
H2 H 0.5503(16) 0.601(2) 0.149(3)
H3 H 0.592(2) 0.596(3) 0.389(4)
H4 H 0.5620(17) 0.546(2) 0.337(4)
H5 H 0.6631(18) 0.561(2) 0.271(4)
H6 H 0.6193(19) 0.499(2) 0.201(4)
H7 H 0.6691(18) 0.494(2) 0.456(4)
H8 H 0.618(2) 0.436(3) 0.404(4)
H9 H 0.697(2) 0.403(3) 0.273(5)
H10 H 0.750(2) 0.431(2) 0.341(4)
H11 H 0.732(3) 0.369(4) 0.503(6)
H12 H 0.684(3) 0.323(4) 0.429(6)
H13 H 0.753(3) 0.322(3) 0.414(5)
H14 H 0.5193(18) 0.692(2) 0.445(4)
H15 H 0.4753(17) 0.752(2) 0.386(3)
H16 H 0.5615(19) 0.814(2) 0.311(4)
H17 H 0.5954(18) 0.760(2) 0.364(4)
H18 H 0.536(2) 0.837(3) 0.509(4)
H19 H 0.5789(19) 0.780(3) 0.577(4)
H20 H 0.703(2) 0.913(3) 0.497(4)
H21 H 0.6866(18) 0.833(2) 0.415(4)
H22 H 0.612(2) 0.913(3) 0.572(5)
H23 H 0.607(2) 0.921(3) 0.438(5)
H24 H 0.759(3) 0.824(3) 0.608(5)
H25 H 0.6894(19) 0.787(3) 0.632(4)
H26 H 0.700(2) 0.852(3) 0.679(4)
C2E C 0.44341(15) 0.6262(2) 0.2806(4)
N1E N 0.42007(15) 0.5710(2) 0.1799(4)
C3E C 0.36715(16) 0.5242(2) 0.2194(4)
C4E C 0.34604(18) 0.4671(2) 0.1153(4)
C5E C 0.2943(2) 0.4172(2) 0.1583(4)
N2E N 0.2817(2) 0.3532(2) 0.0684(5)
H11E H 0.268(3) 0.369(4) -0.003(6)
H12E H 0.316(3) 0.323(4) 0.071(6)
H13E H 0.247(3) 0.322(3) 0.086(5)
H9E H 0.303(2) 0.403(3) 0.227(5)
H10E H 0.250(2) 0.431(2) 0.159(4)
H7E H 0.3309(18) 0.494(2) 0.044(4)
H8E H 0.382(2) 0.436(3) 0.096(4)
H5E H 0.3369(18) 0.561(2) 0.229(4)
H6E H 0.3807(19) 0.499(2) 0.299(4)
H3E H 0.408(2) 0.596(3) 0.111(4)
H4E H 0.4380(17) 0.546(2) 0.163(4)
H1E H 0.4107(16) 0.657(2) 0.289(3)
H2E H 0.4497(16) 0.601(2) 0.351(3)
C6E C 0.48769(16) 0.7239(2) 0.1265(4)
N3E N 0.43637(14) 0.7812(2) 0.1239(4)
C7E C 0.4305(2) 0.8239(3) -0.0027(6)
C8E C 0.3852(2) 0.8898(3) -0.0033(7)
C9E C 0.31810(19) 0.8691(3) 0.0039(5)
N4E N 0.29096(18) 0.8292(2) -0.1129(4)
H24E H 0.241(3) 0.824(3) -0.108(5)
H25E H 0.3106(19) 0.787(3) -0.132(4)
H26E H 0.300(2) 0.852(3) -0.179(4)
H20E H 0.297(2) 0.913(3) 0.003(4)
H21E H 0.3134(18) 0.833(2) 0.085(4)
H22E H 0.388(2) 0.913(3) -0.072(5)
H23E H 0.393(2) 0.921(3) 0.062(5)
H18E H 0.464(2) 0.837(3) -0.009(4)
H19E H 0.4211(19) 0.780(3) -0.077(4)
H16E H 0.4385(19) 0.814(2) 0.189(4)
H17E H 0.4046(18) 0.760(2) 0.136(4)
H14E H 0.4807(18) 0.692(2) 0.055(4)
H15E H 0.5247(17) 0.752(2) 0.114(3)
Cl1 Cl 0.65965(4) 0.66422(5) 0.52103(9)
Cl2 Cl 0.68177(5) 0.75159(6) 0.18749(11)
Cl3 Cl 0.78973(6) 0.55196(7) 0.16073(11)
Cl4 Cl 0.50000 0.96177(18) 0.75000
O1 O 0.5560(2) 0.8898(2) 0.1730(4)
H27 H 0.52992 0.93374 0.18744
H28 H 0.59753 0.91413 0.20317
O2 O 0.4102(2) 0.8814(3) 0.5743(5)
H29 H 0.44319 0.91227 0.61168
H30 H 0.36818 0.90872 0.60360
O3 O 0.6097(3) 0.7353(4) 0.8441(7)
H31 H 0.59278 0.70267 0.91587
H32 H 0.57954 0.70956 0.78450
O4 O 0.50000 0.6753(9) 0.75000
O5 O 0.5107(9) 0.5660(10) 0.6395(14)
Cl5? Cl 0.50977(18) 0.5402(4) 0.5644(6)
O6? O 0.5054(6) 0.5910(8) 0.7006(15)
loop_
_geom_bond_atom_site_label_1
_geom_bond_atom_site_label_2
_geom_bond_site_symmetry_1
_geom_bond_site_symmetry_2
C1 C2 1_555 1_555
C2 N1 1_555 1_555
N1 C3 1_555 1_555
C3 C4 1_555 1_555
C4 C5 1_555 1_555
C5 N2 1_555 1_555
N2 H11 1_555 1_555
C6 C1 1_555 1_555
N3 C6 1_555 1_555
C7 N3 1_555 1_555
C8 C7 1_555 1_555
C9 C8 1_555 1_555
N4 C9 1_555 1_555
O1 H27 1_555 1_555
O2 H29 1_555 1_555
O3 H31 1_555 1_555
H1 C2 1_555 1_555
H2 C2 1_555 1_555
H3 N1 1_555 1_555
H4 N1 1_555 1_555
H5 C3 1_555 1_555
H6 C3 1_555 1_555
H7 C4 1_555 1_555
H8 C4 1_555 1_555
H9 C5 1_555 1_555
H10 C5 1_555 1_555
H12 N2 1_555 1_555
H13 N2 1_555 1_555
H14 C6 1_555 1_555
H15 C6 1_555 1_555
H16 N3 1_555 1_555
H17 N3 1_555 1_555
H18 C7 1_555 1_555
H19 C7 1_555 1_555
H20 C9 1_555 1_555
H21 C9 1_555 1_555
H22 C8 1_555 1_555
H23 C8 1_555 1_555
H24 N4 1_555 1_555
H25 N4 1_555 1_555
H26 N4 1_555 1_555
H28 O1 1_555 1_555
H30 O2 1_555 1_555
H32 O3 1_555 1_555
C2E C1 1_555 1_555
N1E C2E 1_555 1_555
C3E N1E 1_555 1_555
C4E C3E 1_555 1_555
C5E C4E 1_555 1_555
N2E C5E 1_555 1_555
H11E N2E 1_555 1_555
H12E N2E 1_555 1_555
H13E N2E 1_555 1_555
H9E C5E 1_555 1_555
H10E C5E 1_555 1_555
H7E C4E 1_555 1_555
H8E C4E 1_555 1_555
H5E C3E 1_555 1_555
H6E C3E 1_555 1_555
H3E N1E 1_555 1_555
H4E N1E 1_555 1_555
H1E C2E 1_555 1_555
H2E C2E 1_555 1_555
C6E C1 1_555 1_555
N3E C6E 1_555 1_555
C7E N3E 1_555 1_555
C8E C7E 1_555 1_555
C9E C8E 1_555 1_555
N4E C9E 1_555 1_555
H24E N4E 1_555 1_555
H25E N4E 1_555 1_555
H26E N4E 1_555 1_555
H20E C9E 1_555 1_555
H21E C9E 1_555 1_555
H22E C8E 1_555 1_555
H23E C8E 1_555 1_555
H18E C7E 1_555 1_555
H19E C7E 1_555 1_555
H16E N3E 1_555 1_555
H17E N3E 1_555 1_555
H14E C6E 1_555 1_555
H15E C6E 1_555 1_555

#END
