
#######################################################################
#
#                 Cambridge Crystallographic Data Centre
#                                CCDC 
#
#######################################################################
#
# If this CIF has been generated from an entry in the Cambridge 
# Structural Database, then it will include bibliographic, chemical, 
# crystal, experimental, refinement or atomic coordinate data resulting 
# from the CCDC's data processing and validation procedures.
#
#######################################################################

data_QOJJOP
_chemical_formula_moiety         'C24 H21 N5 O1 S1'
_chemical_name_systematic        
1-(2,5-Diphenyl-2,3-dihydro-3-oxo-1H-pyrazol-4-yl(phenyl)methylene)-4-methylthiosemicarbazone
_symmetry_cell_setting           monoclinic
_symmetry_space_group_name_H-M   'P 21/c'
_symmetry_Int_Tables_number      14
_space_group_name_Hall           '-P 2ybc'
loop_
_symmetry_equiv_pos_site_id
_symmetry_equiv_pos_as_xyz
1 x,y,z
2 -x,1/2+y,1/2-z
3 -x,-y,-z
4 x,1/2-y,1/2+z
_cell_length_a                   12.351(3)
_cell_length_b                   14.110(3)
_cell_length_c                   12.924(3)
_cell_angle_alpha                90
_cell_angle_beta                 107.00(3)
_cell_angle_gamma                90
_cell_volume                     2153.88
_exptl_crystal_colour            colorless
_exptl_crystal_description       quadrangular
_chemical_melting_point          '202.9-203.7 deg.C'
_cell_formula_units_Z            4
_chemical_properties_physical    light-sensitive
_exptl_crystal_preparation       photochromic
loop_
_atom_site_label
_atom_site_type_symbol
_atom_site_fract_x
_atom_site_fract_y
_atom_site_fract_z
O1 O 0.52480(9) 0.68524(9) 0.53096(8)
S1 S 0.79769(3) 0.65017(3) 0.41349(4)
N1 N 0.39369(10) 0.58104(10) 0.56430(10)
N2 N 0.29434(11) 0.54032(10) 0.50357(10)
H1 H 0.2486 0.5080 0.5287
N3 N 0.47495(10) 0.67768(9) 0.26801(10)
N4 N 0.57540(10) 0.65508(10) 0.34354(10)
H2 H 0.5766 0.6323 0.4056
N5 N 0.66459(11) 0.69721(11) 0.21741(11)
H3 H 0.5977 0.7055 0.1740
C1 C 0.42121(13) 0.58342(11) 0.67898(12)
C2 C 0.33707(16) 0.57334(13) 0.72886(14)
H4 H 0.2621 0.5646 0.6880
C3 C 0.36604(19) 0.57641(15) 0.84050(16)
H5 H 0.3101 0.5686 0.8748
C4 C 0.4758(2) 0.59082(15) 0.90145(15)
H6 H 0.4939 0.5941 0.9765
C5 C 0.55931(18) 0.60044(14) 0.85084(14)
H7 H 0.6339 0.6101 0.8921
C6 C 0.53304(14) 0.59583(13) 0.73941(13)
H8 H 0.5896 0.6010 0.7055
C7 C 0.43965(12) 0.63379(11) 0.49711(12)
C8 C 0.36711(12) 0.61751(11) 0.38853(11)
C9 C 0.28016(12) 0.55917(11) 0.39830(12)
C10 C 0.17941(13) 0.51920(11) 0.31867(13)
C11 C 0.07672(15) 0.51844(16) 0.34312(17)
H9 H 0.0734 0.5393 0.4104
C12 C -0.02005(17) 0.4867(2) 0.2671(2)
H10 H -0.0888 0.4871 0.2828
C13 C -0.01515(19) 0.4545(2) 0.1686(2)
H11 H -0.0806 0.4331 0.1179
C14 C 0.08576(19) 0.45368(17) 0.14444(18)
H12 H 0.0887 0.4309 0.0778
C15 C 0.18307(15) 0.48664(13) 0.21885(14)
H13 H 0.2512 0.4869 0.2018
C16 C 0.38073(12) 0.66084(10) 0.28889(11)
C17 C 0.27927(13) 0.68916(11) 0.19938(12)
C18 C 0.17855(14) 0.71819(12) 0.21686(14)
H14 H 0.1723 0.7184 0.2868
C19 C 0.08716(16) 0.74690(14) 0.13164(17)
H15 H 0.0204 0.7662 0.1448
C20 C 0.09505(19) 0.74691(17) 0.02812(18)
H16 H 0.0339 0.7659 -0.0292
C21 C 0.19440(19) 0.71847(18) 0.00995(16)
H17 H 0.2000 0.7187 -0.0602
C22 C 0.28562(15) 0.68972(14) 0.09374(14)
H18 H 0.3519 0.6705 0.0796
C23 C 0.67334(13) 0.66985(11) 0.31713(13)
C24 C 0.75999(17) 0.71432(18) 0.17575(17)
H19 H 0.8145 0.7536 0.2256
H20 H 0.7341 0.7457 0.1070
H21 H 0.7944 0.6550 0.1671
loop_
_geom_bond_atom_site_label_1
_geom_bond_atom_site_label_2
_geom_bond_site_symmetry_1
_geom_bond_site_symmetry_2
O1 C7 1_555 1_555
S1 C23 1_555 1_555
N1 N2 1_555 1_555
N2 H1 1_555 1_555
N3 N4 1_555 1_555
N4 H2 1_555 1_555
N5 H3 1_555 1_555
C1 N1 1_555 1_555
C2 C1 1_555 1_555
H4 C2 1_555 1_555
C3 C2 1_555 1_555
H5 C3 1_555 1_555
C4 C3 1_555 1_555
H6 C4 1_555 1_555
C5 C4 1_555 1_555
H7 C5 1_555 1_555
C6 C1 1_555 1_555
H8 C6 1_555 1_555
C7 N1 1_555 1_555
C8 C7 1_555 1_555
C9 N2 1_555 1_555
C10 C9 1_555 1_555
C11 C10 1_555 1_555
H9 C11 1_555 1_555
C12 C11 1_555 1_555
H10 C12 1_555 1_555
C13 C12 1_555 1_555
H11 C13 1_555 1_555
C14 C13 1_555 1_555
H12 C14 1_555 1_555
C15 C10 1_555 1_555
H13 C15 1_555 1_555
C16 N3 1_555 1_555
C17 C16 1_555 1_555
C18 C17 1_555 1_555
H14 C18 1_555 1_555
C19 C18 1_555 1_555
H15 C19 1_555 1_555
C20 C19 1_555 1_555
H16 C20 1_555 1_555
C21 C20 1_555 1_555
H17 C21 1_555 1_555
C22 C17 1_555 1_555
H18 C22 1_555 1_555
C23 N4 1_555 1_555
C24 N5 1_555 1_555
H19 C24 1_555 1_555
H20 C24 1_555 1_555
H21 C24 1_555 1_555
N5 C23 1_555 1_555
C5 C6 1_555 1_555
C8 C9 1_555 1_555
C8 C16 1_555 1_555
C14 C15 1_555 1_555
C21 C22 1_555 1_555

#END
