
#######################################################################
#
#                 Cambridge Crystallographic Data Centre
#                                CCDC 
#
#######################################################################
#
# If this CIF has been generated from an entry in the Cambridge 
# Structural Database, then it will include bibliographic, chemical, 
# crystal, experimental, refinement or atomic coordinate data resulting 
# from the CCDC's data processing and validation procedures.
#
#######################################################################

data_QOJJEG
_chemical_formula_moiety         'C44 H34 N2 O4'
_chemical_name_systematic        
N-(2-(1,3-dibenzoyl-4-(2-oxo-2-phenylethyl)-1,2,3,4-tetrahydroquinolin-2-yl)phenyl)benzamide
_symmetry_cell_setting           monoclinic
_symmetry_space_group_name_H-M   'P 21'
_symmetry_Int_Tables_number      4
_space_group_name_Hall           'P 2yb'
loop_
_symmetry_equiv_pos_site_id
_symmetry_equiv_pos_as_xyz
1 x,y,z
2 -x,1/2+y,-z
_cell_length_a                   12.078(2)
_cell_length_b                   9.250(2)
_cell_length_c                   15.835(3)
_cell_angle_alpha                90
_cell_angle_beta                 98.7980(10)
_cell_angle_gamma                90
_cell_volume                     1748.29
_exptl_crystal_colour            colorless
_exptl_crystal_description       plate
_cell_formula_units_Z            2
loop_
_atom_site_label
_atom_site_type_symbol
_atom_site_fract_x
_atom_site_fract_y
_atom_site_fract_z
O1 O 0.82145(8) 0.84906(15) 0.55957(7)
O2 O 0.52385(11) 0.85474(17) 0.75317(9)
O3 O 0.87951(12) 1.08703(13) 0.81300(8)
O4 O 1.23525(10) 1.13765(15) 0.76559(7)
N1 N 0.96325(9) 0.77962(12) 0.66196(7)
N2 N 0.65757(10) 0.81871(16) 0.67080(8)
H1 H 0.6854 0.8481 0.6270
C1 C 0.89602(10) 0.81365(14) 0.73073(8)
H2 H 0.8480 0.8961 0.7109
C2 C 0.97383(10) 0.86298(14) 0.81267(8)
H3 H 0.9896 0.7811 0.8519
C3 C 1.08529(11) 0.92477(15) 0.79028(8)
H4 H 1.0662 0.9998 0.7468
C4 C 1.14180(11) 0.80313(15) 0.74979(8)
C5 C 1.25348(12) 0.76263(18) 0.76922(11)
H5 H 1.3012 0.8136 0.8104
C6 C 1.29433(14) 0.6469(2) 0.72780(13)
H6 H 1.3693 0.6209 0.7412
C7 C 1.22439(15) 0.56992(19) 0.66681(13)
H7 H 1.2524 0.4919 0.6396
C8 C 1.11349(13) 0.60792(16) 0.64597(10)
H8 H 1.0658 0.5552 0.6056
C9 C 1.07392(11) 0.72614(15) 0.68607(8)
C10 C 0.81909(11) 0.68982(15) 0.74613(8)
C11 C 0.70469(11) 0.69422(17) 0.71491(9)
C12 C 0.63634(14) 0.5769(2) 0.72601(12)
H9 H 0.5607 0.5795 0.7031
C13 C 0.67976(15) 0.4571(2) 0.77062(13)
H10 H 0.6335 0.3794 0.7784
C14 C 0.79181(16) 0.45229(18) 0.80380(12)
H11 H 0.8211 0.3722 0.8351
C15 C 0.86070(13) 0.56627(16) 0.79065(10)
H12 H 0.9367 0.5607 0.8120
C16 C 0.57122(12) 0.89304(19) 0.69437(10)
C17 C 0.53559(13) 1.02589(19) 0.64365(10)
C18 C 0.42953(17) 1.0793(3) 0.64889(15)
H13 H 0.3841 1.0315 0.6823
C19 C 0.3910(2) 1.2014(3) 0.60540(18)
H14 H 0.3196 1.2358 0.6092
C20 C 0.4565(2) 1.2729(3) 0.55675(17)
H15 H 0.4303 1.3572 0.5284
C21 C 0.5602(2) 1.2221(3) 0.54920(18)
H16 H 0.6040 1.2703 0.5147
C22 C 0.60084(16) 1.0982(2) 0.59299(15)
H17 H 0.6720 1.0639 0.5882
C23 C 0.91064(12) 0.98038(15) 0.85415(9)
C24 C 0.88805(12) 0.96438(17) 0.94343(9)
C25 C 0.80291(16) 1.0492(2) 0.96822(13)
H18 H 0.7612 1.1105 0.9290
C26 C 0.78101(19) 1.0416(3) 1.05120(15)
H19 H 0.7232 1.0965 1.0673
C27 C 0.84305(19) 0.9546(3) 1.10985(13)
H20 H 0.8287 0.9525 1.1659
C28 C 0.92651(16) 0.8703(2) 1.08646(11)
H21 H 0.9683 0.8107 1.1266
C29 C 0.94905(13) 0.87339(17) 1.00290(9)
H22 H 1.0048 0.8146 0.9870
C30 C 1.15855(12) 0.99428(17) 0.86648(9)
H23 H 1.1110 1.0438 0.9014
H24 H 1.1990 0.9192 0.9012
C31 C 1.24208(12) 1.10155(17) 0.83953(9)
C32 C 1.32803(12) 1.16569(18) 0.90640(10)
C33 C 1.41138(17) 1.2505(3) 0.88075(14)
H25 H 1.4160 1.2603 0.8229
C34 C 1.4874(2) 1.3202(4) 0.94069(18)
H26 H 1.5447 1.3742 0.9232
C35 C 1.4795(2) 1.3110(3) 1.02577(17)
H27 H 1.5295 1.3615 1.0656
C36 C 1.39784(18) 1.2274(3) 1.05227(13)
H28 H 1.3929 1.2200 1.1101
C37 C 1.32260(15) 1.1539(2) 0.99250(11)
H29 H 1.2679 1.0960 1.0106
C38 C 0.92000(11) 0.81679(16) 0.58002(8)
C39 C 0.99846(12) 0.82275(15) 0.51556(9)
C40 C 0.96675(17) 0.76088(18) 0.43615(10)
H30 H 0.8981 0.7141 0.4232
C41 C 1.0395(2) 0.7696(2) 0.37543(12)
H31 H 1.0202 0.7249 0.3226
C42 C 1.1374(2) 0.8424(3) 0.39282(15)
H32 H 1.1849 0.8471 0.3519
C43 C 1.16711(17) 0.9094(2) 0.47025(14)
H33 H 1.2332 0.9625 0.4809
C44 C 1.09876(14) 0.89797(18) 0.53236(11)
H34 H 1.1200 0.9408 0.5855
loop_
_geom_bond_atom_site_label_1
_geom_bond_atom_site_label_2
_geom_bond_site_symmetry_1
_geom_bond_site_symmetry_2
O1 C38 1_555 1_555
O2 C16 1_555 1_555
O3 C23 1_555 1_555
O4 C31 1_555 1_555
N1 C1 1_555 1_555
N2 H1 1_555 1_555
C1 H2 1_555 1_555
C2 C1 1_555 1_555
H3 C2 1_555 1_555
C3 C2 1_555 1_555
H4 C3 1_555 1_555
C4 C3 1_555 1_555
C5 C4 1_555 1_555
H5 C5 1_555 1_555
C6 C5 1_555 1_555
H6 C6 1_555 1_555
C7 C6 1_555 1_555
H7 C7 1_555 1_555
C8 C7 1_555 1_555
H8 C8 1_555 1_555
C9 N1 1_555 1_555
C10 C1 1_555 1_555
C11 N2 1_555 1_555
C12 C11 1_555 1_555
H9 C12 1_555 1_555
C13 C12 1_555 1_555
H10 C13 1_555 1_555
C14 C13 1_555 1_555
H11 C14 1_555 1_555
C15 C10 1_555 1_555
H12 C15 1_555 1_555
C16 N2 1_555 1_555
C17 C16 1_555 1_555
C18 C17 1_555 1_555
H13 C18 1_555 1_555
C19 C18 1_555 1_555
H14 C19 1_555 1_555
C20 C19 1_555 1_555
H15 C20 1_555 1_555
C21 C20 1_555 1_555
H16 C21 1_555 1_555
C22 C17 1_555 1_555
H17 C22 1_555 1_555
C23 C2 1_555 1_555
C24 C23 1_555 1_555
C25 C24 1_555 1_555
H18 C25 1_555 1_555
C26 C25 1_555 1_555
H19 C26 1_555 1_555
C27 C26 1_555 1_555
H20 C27 1_555 1_555
C28 C27 1_555 1_555
H21 C28 1_555 1_555
C29 C24 1_555 1_555
H22 C29 1_555 1_555
C30 C3 1_555 1_555
H23 C30 1_555 1_555
H24 C30 1_555 1_555
C31 C30 1_555 1_555
C32 C31 1_555 1_555
C33 C32 1_555 1_555
H25 C33 1_555 1_555
C34 C33 1_555 1_555
H26 C34 1_555 1_555
C35 C34 1_555 1_555
H27 C35 1_555 1_555
C36 C35 1_555 1_555
H28 C36 1_555 1_555
C37 C32 1_555 1_555
H29 C37 1_555 1_555
C38 N1 1_555 1_555
C39 C38 1_555 1_555
C40 C39 1_555 1_555
H30 C40 1_555 1_555
C41 C40 1_555 1_555
H31 C41 1_555 1_555
C42 C41 1_555 1_555
H32 C42 1_555 1_555
C43 C42 1_555 1_555
H33 C43 1_555 1_555
C44 C39 1_555 1_555
H34 C44 1_555 1_555
C4 C9 1_555 1_555
C8 C9 1_555 1_555
C10 C11 1_555 1_555
C14 C15 1_555 1_555
C21 C22 1_555 1_555
C28 C29 1_555 1_555
C36 C37 1_555 1_555
C43 C44 1_555 1_555

#END
