
#######################################################################
#
#                 Cambridge Crystallographic Data Centre
#                                CCDC 
#
#######################################################################
#
# If this CIF has been generated from an entry in the Cambridge 
# Structural Database, then it will include bibliographic, chemical, 
# crystal, experimental, refinement or atomic coordinate data resulting 
# from the CCDC's data processing and validation procedures.
#
#######################################################################

data_QOKFOL
_chemical_formula_moiety         'C29 H57 Li2 N5 Si2'
_chemical_name_systematic        
(\m~2~-\h^5^-2,6-bis(2-t-Butylaza-2-t-trimethylsilylallyl)pyridyl-N,N',N'')-(1,2-bis(dimethylamino)ethane-N,N')-di-lithium
_symmetry_cell_setting           orthorhombic
_symmetry_space_group_name_H-M   'P b c a'
_symmetry_Int_Tables_number      61
_space_group_name_Hall           '-P 2ac 2ab'
loop_
_symmetry_equiv_pos_site_id
_symmetry_equiv_pos_as_xyz
1 x,y,z
2 1/2-x,-y,1/2+z
3 1/2+x,1/2-y,-z
4 -x,1/2+y,1/2-z
5 -x,-y,-z
6 1/2+x,y,1/2-z
7 1/2-x,1/2+y,z
8 x,1/2-y,1/2+z
_cell_length_a                   15.8560(6)
_cell_length_b                   18.273(1)
_cell_length_c                   25.252(2)
_cell_angle_alpha                90
_cell_angle_beta                 90
_cell_angle_gamma                90
_cell_volume                     7316.43
_cell_formula_units_Z            8
loop_
_atom_site_label
_atom_site_type_symbol
_atom_site_fract_x
_atom_site_fract_y
_atom_site_fract_z
Si1 Si 0.4235(1) 0.1589(1) 0.4252(1)
Si2 Si 0.3047(1) 0.0359(1) 0.0769(1)
Li1 Li 0.3780(2) 0.0756(2) 0.2501(2)
Li2 Li 0.4814(2) 0.1446(2) 0.1813(2)
N1 N 0.3651(2) 0.1790(1) 0.2350(1)
N2 N 0.3705(1) 0.0766(1) 0.3268(1)
N3 N 0.4132(1) 0.0481(1) 0.1755(1)
N4 N 0.5924(1) 0.1732(1) 0.2258(1)
N5 N 0.5441(1) 0.2041(1) 0.1176(1)
C1 C 0.3357(1) 0.1997(1) 0.1868(1)
C2 C 0.3097(1) 0.2726(1) 0.1776(1)
C3 C 0.3176(1) 0.3223(1) 0.2185(1)
C4 C 0.3441(1) 0.3002(1) 0.2665(1)
C5 C 0.3671(1) 0.2266(1) 0.2763(1)
C6 C 0.3888(1) 0.2062(1) 0.3279(1)
C7 C 0.3903(1) 0.1367(1) 0.3532(1)
C8 C 0.3327(2) 0.2057(2) 0.4593(1)
C9 C 0.4645(2) 0.0878(2) 0.4721(1)
C10 C 0.5154(2) 0.2223(2) 0.4226(1)
C11 C 0.3516(1) 0.0074(1) 0.3554(1)
C12 C 0.3048(2) -0.0406(1) 0.3154(1)
C13 C 0.4337(1) -0.0310(1) 0.3719(1)
C14 C 0.2906(1) 0.0178(1) 0.4022(1)
C15 C 0.3297(1) 0.1485(1) 0.1442(1)
C16 C 0.3604(1) 0.0769(1) 0.1378(1)
C17 C 0.3566(2) -0.0317(2) 0.0319(1)
C18 C 0.2714(2) 0.1087(2) 0.0304(1)
C19 C 0.2045(2) -0.0053(2) 0.1010(1)
C20 C 0.4524(1) -0.0241(1) 0.1685(1)
C21 C 0.5151(1) -0.0249(1) 0.1220(1)
C22 C 0.3884(1) -0.0869(1) 0.1638(1)
C23 C 0.5046(1) -0.0374(1) 0.2188(1)
C24 C 0.6526(2) 0.1849(2) 0.1858(1)
C25 C 0.6239(2) 0.2306(2) 0.1418(1)
C26 C 0.6276(2) 0.1201(2) 0.2624(1)
C27 C 0.5764(2) 0.2390(2) 0.2553(1)
C28 C 0.5613(2) 0.1569(2) 0.0724(1)
C29 C 0.4935(2) 0.2666(1) 0.0981(1)
H1 H 0.2879 0.2867 0.1450
H2 H 0.3044 0.3713 0.2129
H3 H 0.3474 0.3341 0.2939
H4 H 0.4052 0.2449 0.3495
H5 H 0.3481 0.2170 0.4951
H6 H 0.2845 0.1738 0.4593
H7 H 0.3191 0.2500 0.4408
H8 H 0.4772 0.1102 0.5055
H9 H 0.5148 0.0663 0.4577
H10 H 0.4226 0.0505 0.4770
H11 H 0.5330 0.2340 0.4579
H12 H 0.4995 0.2663 0.4044
H13 H 0.5610 0.1992 0.4040
H14 H 0.3402 -0.0490 0.2851
H15 H 0.2540 -0.0164 0.3043
H16 H 0.2908 -0.0867 0.3315
H17 H 0.4697 -0.0363 0.3416
H18 H 0.4209 -0.0784 0.3861
H19 H 0.4619 -0.0022 0.3983
H20 H 0.2404 0.0419 0.3901
H21 H 0.3172 0.0471 0.4290
H22 H 0.2762 -0.0291 0.4168
H23 H 0.2998 0.1659 0.1151
H24 H 0.3182 -0.0452 0.0042
H25 H 0.3720 -0.0744 0.0518
H26 H 0.4062 -0.0101 0.0167
H27 H 0.2438 0.0870 0.0004
H28 H 0.3200 0.1355 0.0187
H29 H 0.2331 0.1413 0.0480
H30 H 0.1745 -0.0265 0.0718
H31 H 0.1704 0.0319 0.1171
H32 H 0.2169 -0.0426 0.1266
H33 H 0.5543 0.0148 0.1259
H34 H 0.4849 -0.0195 0.0893
H35 H 0.5453 -0.0704 0.1218
H36 H 0.3501 -0.0852 0.1932
H37 H 0.4177 -0.1329 0.1639
H38 H 0.3574 -0.0820 0.1313
H39 H 0.4680 -0.0374 0.2491
H40 H 0.5458 0.0007 0.2225
H41 H 0.5326 -0.0838 0.2162
H42 H 0.6698 0.1377 0.1718
H43 H 0.7019 0.2075 0.2015
H44 H 0.6675 0.2318 0.1148
H45 H 0.6157 0.2802 0.1545
H46 H 0.6765 0.1405 0.2792
H47 H 0.6432 0.0767 0.2434
H48 H 0.5863 0.1080 0.2888
H49 H 0.6258 0.2519 0.2752
H50 H 0.5301 0.2311 0.2791
H51 H 0.5627 0.2779 0.2313
H52 H 0.5888 0.1847 0.0452
H53 H 0.5092 0.1375 0.0590
H54 H 0.5972 0.1173 0.0833
H55 H 0.5236 0.2910 0.0702
H56 H 0.4837 0.3003 0.1266
H57 H 0.4405 0.2491 0.0848
loop_
_geom_bond_atom_site_label_1
_geom_bond_atom_site_label_2
_geom_bond_site_symmetry_1
_geom_bond_site_symmetry_2
Si1 C7 1_555 1_555
Si2 C16 1_555 1_555
Li1 N1 1_555 1_555
Li2 N1 1_555 1_555
N1 C1 1_555 1_555
N2 Li1 1_555 1_555
N3 Li1 1_555 1_555
N4 Li2 1_555 1_555
N5 Li2 1_555 1_555
C1 Li2 1_555 1_555
C2 C1 1_555 1_555
C3 C2 1_555 1_555
C4 C3 1_555 1_555
C5 N1 1_555 1_555
C6 C5 1_555 1_555
C7 N2 1_555 1_555
C8 Si1 1_555 1_555
C9 Si1 1_555 1_555
C10 Si1 1_555 1_555
C11 N2 1_555 1_555
C12 C11 1_555 1_555
C13 C11 1_555 1_555
C14 C11 1_555 1_555
C15 Li2 1_555 1_555
C16 Li2 1_555 1_555
C17 Si2 1_555 1_555
C18 Si2 1_555 1_555
C19 Si2 1_555 1_555
C20 N3 1_555 1_555
C21 C20 1_555 1_555
C22 C20 1_555 1_555
C23 C20 1_555 1_555
C24 N4 1_555 1_555
C25 N5 1_555 1_555
C26 N4 1_555 1_555
C27 N4 1_555 1_555
C28 N5 1_555 1_555
C29 N5 1_555 1_555
H1 C2 1_555 1_555
H2 C3 1_555 1_555
H3 C4 1_555 1_555
H4 C6 1_555 1_555
H5 C8 1_555 1_555
H6 C8 1_555 1_555
H7 C8 1_555 1_555
H8 C9 1_555 1_555
H9 C9 1_555 1_555
H10 C9 1_555 1_555
H11 C10 1_555 1_555
H12 C10 1_555 1_555
H13 C10 1_555 1_555
H14 C12 1_555 1_555
H15 C12 1_555 1_555
H16 C12 1_555 1_555
H17 C13 1_555 1_555
H18 C13 1_555 1_555
H19 C13 1_555 1_555
H20 C14 1_555 1_555
H21 C14 1_555 1_555
H22 C14 1_555 1_555
H23 C15 1_555 1_555
H24 C17 1_555 1_555
H25 C17 1_555 1_555
H26 C17 1_555 1_555
H27 C18 1_555 1_555
H28 C18 1_555 1_555
H29 C18 1_555 1_555
H30 C19 1_555 1_555
H31 C19 1_555 1_555
H32 C19 1_555 1_555
H33 C21 1_555 1_555
H34 C21 1_555 1_555
H35 C21 1_555 1_555
H36 C22 1_555 1_555
H37 C22 1_555 1_555
H38 C22 1_555 1_555
H39 C23 1_555 1_555
H40 C23 1_555 1_555
H41 C23 1_555 1_555
H42 C24 1_555 1_555
H43 C24 1_555 1_555
H44 C25 1_555 1_555
H45 C25 1_555 1_555
H46 C26 1_555 1_555
H47 C26 1_555 1_555
H48 C26 1_555 1_555
H49 C27 1_555 1_555
H50 C27 1_555 1_555
H51 C27 1_555 1_555
H52 C28 1_555 1_555
H53 C28 1_555 1_555
H54 C28 1_555 1_555
H55 C29 1_555 1_555
H56 C29 1_555 1_555
H57 C29 1_555 1_555
Li2 N3 1_555 1_555
N3 C16 1_555 1_555
C1 C15 1_555 1_555
C4 C5 1_555 1_555
C6 C7 1_555 1_555
C15 C16 1_555 1_555
C24 C25 1_555 1_555

#END
