
#######################################################################
#
#                 Cambridge Crystallographic Data Centre
#                                CCDC 
#
#######################################################################
#
# If this CIF has been generated from an entry in the Cambridge 
# Structural Database, then it will include bibliographic, chemical, 
# crystal, experimental, refinement or atomic coordinate data resulting 
# from the CCDC's data processing and validation procedures.
#
#######################################################################

data_QOKQIR
_chemical_name_common            
N,N-dibenzyl-4-(9c-methoxy-3,9-diphenyl-9cH,9b,9d-triazaboratricyclopenta[cd,gh,kl]phenalen-6-yl)aniline
_chemical_formula_moiety         'C48 H37 B1 N4 O1'
_chemical_name_systematic        
Methoxo(5-(4(N,N-dibenzylamino)phenyl)-10,15-diphenylsubporphyrinato)boron(iii)
_symmetry_cell_setting           triclinic
_symmetry_space_group_name_H-M   'P -1'
_symmetry_Int_Tables_number      2
_space_group_name_Hall           '-P 1'
loop_
_symmetry_equiv_pos_site_id
_symmetry_equiv_pos_as_xyz
1 x,y,z
2 -x,-y,-z
_cell_length_a                   10.433(4)
_cell_length_b                   11.790(5)
_cell_length_c                   14.866(7)
_cell_angle_alpha                81.444(16)
_cell_angle_beta                 82.486(18)
_cell_angle_gamma                76.746(14)
_cell_volume                     1751.18
_exptl_crystal_colour            orange
_exptl_crystal_description       prism
_cell_formula_units_Z            2
_exptl_crystal_recrystallization_method dichloromethane/methanol
_exptl_crystal_preparation       fluorescent
loop_
_atom_site_label
_atom_site_type_symbol
_atom_site_fract_x
_atom_site_fract_y
_atom_site_fract_z
C1 C 0.15819(17) 0.50225(15) 0.14274(13)
C2 C 0.16126(18) 0.50801(16) 0.04571(13)
H1 H 0.0965 0.5557 0.0089
C3 C 0.27424(18) 0.43246(15) 0.01491(13)
H2 H 0.3010 0.4185 -0.0468
C4 C 0.34465(17) 0.37844(15) 0.09240(13)
C5 C 0.44903(17) 0.27709(15) 0.10626(13)
C6 C 0.45694(17) 0.21689(16) 0.19640(13)
C7 C 0.52401(18) 0.10452(16) 0.23824(13)
H3 H 0.5938 0.0511 0.2091
C8 C 0.47023(18) 0.08750(17) 0.32723(14)
H4 H 0.4963 0.0205 0.3702
C9 C 0.36759(18) 0.18872(16) 0.34415(13)
C10 C 0.26292(19) 0.21728(17) 0.41440(13)
C11 C 0.16452(19) 0.32083(17) 0.39714(13)
C12 C 0.0314(2) 0.35907(19) 0.43619(15)
H5 H -0.0082 0.3250 0.4918
C13 C -0.0290(2) 0.45341(18) 0.37953(14)
H6 H -0.1169 0.4974 0.3900
C14 C 0.06356(19) 0.47424(16) 0.30166(14)
C15 C 0.05418(18) 0.53615(15) 0.21234(13)
N1 N 0.27368(14) 0.42815(12) 0.16589(11)
N2 N 0.37153(14) 0.26486(13) 0.26594(11)
N3 N 0.17959(15) 0.39743(13) 0.31990(11)
B1 B 0.3086(2) 0.39361(18) 0.26245(15)
O1 O 0.38297(13) 0.46355(12) 0.29559(10)
C16 C 0.5176(2) 0.45421(19) 0.26423(16)
H7 H 0.5660 0.3736 0.2804
H8 H 0.5536 0.5083 0.2928
H9 H 0.5270 0.4743 0.1977
C17 C 0.53376(17) 0.23360(15) 0.02626(13)
C18 C 0.57447(17) 0.31216(16) -0.04618(13)
H10 H 0.5484 0.3940 -0.0417
C19 C 0.65093(17) 0.27551(16) -0.12384(14)
H11 H 0.6749 0.3321 -0.1717
C20 C 0.69375(17) 0.15510(17) -0.13283(13)
C21 C 0.65391(17) 0.07554(16) -0.06050(13)
H12 H 0.6815 -0.0064 -0.0642
C22 C 0.57508(17) 0.11419(15) 0.01617(13)
H13 H 0.5483 0.0580 0.0632
N4 N 0.77355(16) 0.11711(15) -0.20879(12)
C23 C 0.81353(19) 0.2005(2) -0.28382(15)
H14 H 0.8961 0.1611 -0.3173
H15 H 0.8338 0.2662 -0.2578
C24 C 0.71199(19) 0.25065(18) -0.35130(14)
C25 C 0.5993(2) 0.20711(18) -0.35036(15)
H16 H 0.5802 0.1480 -0.3029
C26 C 0.5145(2) 0.2481(2) -0.41708(17)
H17 H 0.4380 0.2165 -0.4152
C27 C 0.5384(3) 0.3341(2) -0.48644(17)
H18 H 0.4807 0.3605 -0.5333
C28 C 0.6484(3) 0.3815(2) -0.48654(17)
H19 H 0.6660 0.4418 -0.5334
C29 C 0.7321(2) 0.34150(19) -0.41909(16)
H20 H 0.8053 0.3767 -0.4188
C30 C 0.79968(19) -0.00476(18) -0.22515(15)
H21 H 0.8147 -0.0078 -0.2920
H22 H 0.7197 -0.0363 -0.2022
C31 C 0.91730(18) -0.08450(17) -0.18124(13)
C32 C 0.9512(2) -0.20110(18) -0.19640(16)
H23 H 0.8973 -0.2308 -0.2299
C33 C 1.0632(2) -0.27500(19) -0.16311(18)
H24 H 1.0861 -0.3548 -0.1743
C34 C 1.1417(2) -0.23249(19) -0.11343(16)
H25 H 1.2196 -0.2823 -0.0917
C35 C 1.10576(19) -0.11795(18) -0.09595(14)
H26 H 1.1573 -0.0893 -0.0599
C36 C 0.99501(18) -0.04342(18) -0.13024(14)
H27 H 0.9723 0.0362 -0.1187
C37 C 0.24066(18) 0.13466(18) 0.49736(14)
C38 C 0.2534(2) 0.01566(18) 0.49201(14)
H28 H 0.2813 -0.0136 0.4348
C39 C 0.2261(2) -0.0607(2) 0.56833(16)
H29 H 0.2346 -0.1415 0.5630
C40 C 0.1865(2) -0.0202(2) 0.65241(15)
H30 H 0.1679 -0.0728 0.7049
C41 C 0.1744(2) 0.0971(2) 0.65949(14)
H31 H 0.1482 0.1252 0.7172
C42 C 0.20017(19) 0.17438(19) 0.58290(14)
H32 H 0.1902 0.2552 0.5885
C43 C -0.06500(18) 0.62516(15) 0.18532(13)
C44 C -0.19353(18) 0.61496(17) 0.22013(14)
H33 H -0.2069 0.5490 0.2626
C45 C -0.30177(19) 0.70041(17) 0.19319(15)
H34 H -0.3884 0.6936 0.2188
C46 C -0.2847(2) 0.79525(17) 0.12955(15)
H35 H -0.3592 0.8529 0.1108
C47 C -0.1584(2) 0.80553(17) 0.09333(15)
H36 H -0.1460 0.8698 0.0488
C48 C -0.04942(19) 0.72203(16) 0.12198(14)
H37 H 0.0371 0.7311 0.0980
loop_
_geom_bond_atom_site_label_1
_geom_bond_atom_site_label_2
_geom_bond_site_symmetry_1
_geom_bond_site_symmetry_2
C1 C2 1_555 1_555
C2 H1 1_555 1_555
C3 C2 1_555 1_555
H2 C3 1_555 1_555
C4 C3 1_555 1_555
C5 C4 1_555 1_555
C6 C5 1_555 1_555
C7 C6 1_555 1_555
H3 C7 1_555 1_555
C8 C7 1_555 1_555
H4 C8 1_555 1_555
C9 C8 1_555 1_555
C10 C9 1_555 1_555
C11 C10 1_555 1_555
C12 C11 1_555 1_555
H5 C12 1_555 1_555
C13 C12 1_555 1_555
H6 C13 1_555 1_555
C14 C13 1_555 1_555
C15 C1 1_555 1_555
N1 C1 1_555 1_555
N2 C6 1_555 1_555
N3 C11 1_555 1_555
B1 N1 1_555 1_555
O1 B1 1_555 1_555
C16 O1 1_555 1_555
H7 C16 1_555 1_555
H8 C16 1_555 1_555
H9 C16 1_555 1_555
C17 C5 1_555 1_555
C18 C17 1_555 1_555
H10 C18 1_555 1_555
C19 C18 1_555 1_555
H11 C19 1_555 1_555
C20 C19 1_555 1_555
C21 C20 1_555 1_555
H12 C21 1_555 1_555
C22 C17 1_555 1_555
H13 C22 1_555 1_555
N4 C20 1_555 1_555
C23 N4 1_555 1_555
H14 C23 1_555 1_555
H15 C23 1_555 1_555
C24 C23 1_555 1_555
C25 C24 1_555 1_555
H16 C25 1_555 1_555
C26 C25 1_555 1_555
H17 C26 1_555 1_555
C27 C26 1_555 1_555
H18 C27 1_555 1_555
C28 C27 1_555 1_555
H19 C28 1_555 1_555
C29 C24 1_555 1_555
H20 C29 1_555 1_555
C30 N4 1_555 1_555
H21 C30 1_555 1_555
H22 C30 1_555 1_555
C31 C30 1_555 1_555
C32 C31 1_555 1_555
H23 C32 1_555 1_555
C33 C32 1_555 1_555
H24 C33 1_555 1_555
C34 C33 1_555 1_555
H25 C34 1_555 1_555
C35 C34 1_555 1_555
H26 C35 1_555 1_555
C36 C31 1_555 1_555
H27 C36 1_555 1_555
C37 C10 1_555 1_555
C38 C37 1_555 1_555
H28 C38 1_555 1_555
C39 C38 1_555 1_555
H29 C39 1_555 1_555
C40 C39 1_555 1_555
H30 C40 1_555 1_555
C41 C40 1_555 1_555
H31 C41 1_555 1_555
C42 C37 1_555 1_555
H32 C42 1_555 1_555
C43 C15 1_555 1_555
C44 C43 1_555 1_555
H33 C44 1_555 1_555
C45 C44 1_555 1_555
H34 C45 1_555 1_555
C46 C45 1_555 1_555
H35 C46 1_555 1_555
C47 C46 1_555 1_555
H36 C47 1_555 1_555
C48 C43 1_555 1_555
H37 C48 1_555 1_555
C4 N1 1_555 1_555
C9 N2 1_555 1_555
C14 C15 1_555 1_555
C14 N3 1_555 1_555
N2 B1 1_555 1_555
N3 B1 1_555 1_555
C21 C22 1_555 1_555
C28 C29 1_555 1_555
C35 C36 1_555 1_555
C41 C42 1_555 1_555
C47 C48 1_555 1_555

#END
