
#######################################################################
#
#                 Cambridge Crystallographic Data Centre
#                                CCDC 
#
#######################################################################
#
# If this CIF has been generated from an entry in the Cambridge 
# Structural Database, then it will include bibliographic, chemical, 
# crystal, experimental, refinement or atomic coordinate data resulting 
# from the CCDC's data processing and validation procedures.
#
#######################################################################

data_QOKQOX
_chemical_name_common            
"4,4',4''-(9c-Ethoxy-9cH-8blambda$5!,9b,9d-triazaboratricyclopenta[cd,gh,kl]phenalene-3,6,9-triyl)tris(N,N-dibenzylaniline) dichloromethane solvate"
_chemical_formula_moiety         'C77 H65 B1 N6 O1,2.35(C1 H2 Cl2)'
_chemical_name_systematic        
'Methoxo(5,10,15-tris(4-(N,N-dibenzylamino)phenyl)subporphyrinato)boron(iii) dichloromethane solvate'
_symmetry_cell_setting           orthorhombic
_symmetry_space_group_name_H-M   'P b c a'
_symmetry_Int_Tables_number      61
_space_group_name_Hall           '-P 2ac 2ab'
loop_
_symmetry_equiv_pos_site_id
_symmetry_equiv_pos_as_xyz
1 x,y,z
2 1/2-x,-y,1/2+z
3 1/2+x,1/2-y,-z
4 -x,1/2+y,1/2-z
5 -x,-y,-z
6 1/2+x,y,1/2-z
7 1/2-x,1/2+y,z
8 x,1/2-y,1/2+z
_cell_length_a                   15.615(3)
_cell_length_b                   29.921(4)
_cell_length_c                   29.357(4)
_cell_angle_alpha                90
_cell_angle_beta                 90
_cell_angle_gamma                90
_cell_volume                     13716.1
_exptl_crystal_colour            red
_exptl_crystal_description       prism
_cell_formula_units_Z            8
_exptl_crystal_recrystallization_method dichloromethane/ethanol
_exptl_crystal_preparation       fluorescent
loop_
_atom_site_label
_atom_site_type_symbol
_atom_site_fract_x
_atom_site_fract_y
_atom_site_fract_z
C1 C 0.07570(17) 0.55422(9) 0.87732(8)
C2 C -0.00027(17) 0.52788(9) 0.87219(9)
H1 H -0.0472 0.5272 0.8928
C3 C 0.00622(17) 0.50386(9) 0.83249(9)
H2 H -0.0357 0.4840 0.8207
C4 C 0.08721(17) 0.51389(9) 0.81201(8)
C5 C 0.13809(16) 0.49442(8) 0.77716(8)
C6 C 0.22628(17) 0.50601(8) 0.77508(8)
C7 C 0.30123(17) 0.48326(9) 0.75861(9)
H3 H 0.3018 0.4583 0.7386
C8 C 0.37190(18) 0.50384(9) 0.77689(8)
H4 H 0.4299 0.4956 0.7718
C9 C 0.34288(17) 0.53981(8) 0.80492(8)
C10 C 0.38309(17) 0.56510(9) 0.83998(8)
C11 C 0.33026(17) 0.58461(9) 0.87386(9)
C12 C 0.34380(18) 0.60024(9) 0.91947(9)
H5 H 0.3977 0.6070 0.9328
C13 C 0.26640(18) 0.60369(9) 0.94041(9)
H6 H 0.2572 0.6127 0.9711
C14 C 0.20125(17) 0.59154(9) 0.90860(8)
C15 C 0.11317(17) 0.58000(9) 0.91290(8)
N1 N 0.12284(13) 0.54631(7) 0.83872(7)
N2 N 0.25635(14) 0.54101(7) 0.80038(7)
N3 N 0.24355(14) 0.58327(7) 0.86869(7)
B1 B 0.19910(19) 0.57338(10) 0.82447(9)
C16 C 0.10502(17) 0.45929(8) 0.74671(8)
C17 C 0.05528(17) 0.42344(9) 0.76166(8)
H7 H 0.0416 0.4211 0.7931
C18 C 0.02544(18) 0.39126(9) 0.73198(9)
H8 H -0.0085 0.3674 0.7434
C19 C 0.04430(18) 0.39311(9) 0.68537(9)
C20 C 0.09469(19) 0.42896(9) 0.67017(9)
H9 H 0.1093 0.4310 0.6388
C21 C 0.12328(18) 0.46111(9) 0.69998(9)
H10 H 0.1564 0.4853 0.6886
N4 N 0.01462(17) 0.36091(8) 0.65565(8)
C22 C -0.0287(2) 0.32132(10) 0.67103(11)
H11 H -0.0027 0.3118 0.7002
H12 H -0.0186 0.2972 0.6486
C23 C -0.12388(19) 0.32614(10) 0.67791(9)
C24 C -0.1639(2) 0.36786(10) 0.68315(10)
H13 H -0.1313 0.3944 0.6795
C25 C -0.2497(2) 0.37070(11) 0.69358(11)
H14 H -0.2757 0.3991 0.6978
C26 C -0.2981(2) 0.33231(12) 0.69787(10)
H15 H -0.3570 0.3343 0.7058
C27 C -0.2615(2) 0.29131(12) 0.69074(11)
H16 H -0.2954 0.2650 0.6925
C28 C -0.1747(2) 0.28813(10) 0.68089(11)
H17 H -0.1498 0.2596 0.6761
C29 C 0.0161(2) 0.36742(11) 0.60682(10)
H18 H 0.0177 0.3999 0.6005
H19 H -0.0379 0.3556 0.5939
C30 C 0.0903(2) 0.34551(10) 0.58270(10)
C31 C 0.0832(2) 0.33581(11) 0.53659(10)
H20 H 0.0316 0.3427 0.5209
C32 C 0.1505(3) 0.31619(12) 0.51314(12)
H21 H 0.1446 0.3092 0.4817
C33 C 0.2254(3) 0.30691(11) 0.53545(12)
H22 H 0.2716 0.2936 0.5194
C34 C 0.2342(2) 0.31674(11) 0.58103(12)
H23 H 0.2866 0.3106 0.5962
C35 C 0.1662(2) 0.33570(10) 0.60471(11)
H24 H 0.1720 0.3420 0.6363
C36 C 0.47702(17) 0.56687(9) 0.84299(8)
C37 C 0.52640(17) 0.57791(9) 0.80467(8)
H25 H 0.4984 0.5823 0.7763
C38 C 0.61428(17) 0.58258(9) 0.80670(9)
H26 H 0.6453 0.5904 0.7800
C39 C 0.65821(17) 0.57591(9) 0.84793(9)
C40 C 0.60952(18) 0.56373(9) 0.88621(9)
H27 H 0.6374 0.5584 0.9145
C41 C 0.52169(17) 0.55932(9) 0.88329(9)
H28 H 0.4906 0.5508 0.9097
N5 N 0.74597(15) 0.58030(8) 0.85058(8)
C42 C 0.78780(19) 0.57645(10) 0.89458(10)
H29 H 0.7575 0.5956 0.9168
H30 H 0.8473 0.5876 0.8919
C43 C 0.78960(17) 0.52897(10) 0.91240(9)
C44 C 0.78749(19) 0.49251(11) 0.88319(10)
H31 H 0.7858 0.4973 0.8512
C45 C 0.7878(2) 0.44993(12) 0.89976(12)
H32 H 0.7855 0.4255 0.8792
C46 C 0.7916(3) 0.44190(13) 0.94575(12)
H33 H 0.7925 0.4121 0.9570
C47 C 0.7938(3) 0.47750(14) 0.97528(12)
H34 H 0.7959 0.4723 1.0072
C48 C 0.7931(2) 0.52107(12) 0.95879(11)
H35 H 0.7951 0.5455 0.9794
C49 C 0.79726(18) 0.59515(10) 0.81201(10)
H36 H 0.7718 0.5829 0.7838
H37 H 0.8555 0.5824 0.8150
C50 C 0.80494(19) 0.64542(10) 0.80702(10)
C51 C 0.7634(2) 0.67488(11) 0.83624(12)
H38 H 0.7281 0.6635 0.8599
C52 C 0.7727(3) 0.72043(12) 0.83134(13)
H39 H 0.7437 0.7402 0.8514
C53 C 0.8240(3) 0.73730(13) 0.79733(16)
H40 H 0.8306 0.7687 0.7941
C54 C 0.8656(3) 0.70877(14) 0.76805(15)
H41 H 0.9015 0.7205 0.7448
C55 C 0.8555(2) 0.66274(12) 0.77230(12)
H42 H 0.8830 0.6432 0.7515
C56 C 0.06755(17) 0.59059(9) 0.95543(8)
C57 C 0.07958(18) 0.63148(10) 0.97739(9)
H43 H 0.1168 0.6529 0.9641
C58 C 0.03910(19) 0.64168(10) 1.01786(9)
H44 H 0.0504 0.6695 1.0322
C59 C -0.01821(19) 0.61177(10) 1.03819(9)
C60 C -0.03007(19) 0.57038(10) 1.01663(9)
H45 H -0.0676 0.5490 1.0298
C61 C 0.01175(18) 0.56016(10) 0.97666(8)
H46 H 0.0026 0.5318 0.9630
N6 N -0.06228(17) 0.62158(9) 1.07780(8)
C62 C -0.0562(2) 0.66462(11) 1.09980(10)
H47 H -0.1120 0.6716 1.1140
H48 H -0.0450 0.6876 1.0763
C63 C 0.0134(2) 0.66768(11) 1.13612(9)
C64 C 0.0719(2) 0.63412(13) 1.14339(11)
H49 H 0.0697 0.6076 1.1256
C65 C 0.1349(3) 0.63894(16) 1.17701(11)
H50 H 0.1751 0.6157 1.1820
C66 C 0.1385(3) 0.67738(16) 1.20285(12)
H51 H 0.1820 0.6810 1.2252
C67 C 0.0796(3) 0.70999(15) 1.19613(13)
H52 H 0.0815 0.7363 1.2142
C68 C 0.0171(3) 0.70526(12) 1.16348(12)
H53 H -0.0243 0.7282 1.1596
C69 C -0.1123(2) 0.58725(12) 1.10087(10)
H54 H -0.1182 0.5958 1.1333
H55 H -0.0798 0.5589 1.0998
C70 C -0.2001(2) 0.57897(11) 1.08186(11)
C71 C -0.2457(3) 0.54124(13) 1.09600(15)
H56 H -0.2206 0.5210 1.1170
C72 C -0.3273(3) 0.53334(15) 1.0795(2)
H57 H -0.3583 0.5081 1.0900
C73 C -0.3644(3) 0.56152(15) 1.04799(18)
H58 H -0.4195 0.5552 1.0359
C74 C -0.3206(3) 0.59878(14) 1.03448(15)
H59 H -0.3463 0.6189 1.0135
C75 C -0.2383(2) 0.60761(11) 1.05108(11)
H60 H -0.2086 0.6335 1.0411
O1 O 0.18205(12) 0.61085(6) 0.79550(6)
C76 C 0.1240(2) 0.64392(11) 0.80991(10)
H61 H 0.1466 0.6589 0.8375
H62 H 0.0686 0.6298 0.8179
C77 C 0.1101(2) 0.67778(11) 0.77322(11)
H63 H 0.1647 0.6923 0.7658
H64 H 0.0691 0.7003 0.7838
H65 H 0.0875 0.6630 0.7460
C78 C 0.0802(3) 0.21677(14) 0.56980(14)
H66 H 0.1091 0.2433 0.5829
H67 H 0.0386 0.2275 0.5468
Cl1 Cl 0.02497(8) 0.18936(4) 0.61268(4)
Cl2 Cl 0.15621(9) 0.18348(4) 0.54288(4)
C79 C 0.4610(3) 0.18101(16) 0.62920(16)
H68 H 0.4458 0.1490 0.6322
H69 H 0.4267 0.1978 0.6519
Cl3 Cl 0.4320(2) 0.19872(8) 0.57574(6)
Cl4 Cl 0.56779(12) 0.18727(6) 0.64242(12)
C80 C 0.7777(3) 0.27142(14) 0.56675(14)
H70 H 0.7321 0.2773 0.5441
H71 H 0.7725 0.2939 0.5913
Cl5 Cl 0.76359(10) 0.21814(4) 0.58958(4)
Cl6 Cl 0.87669(10) 0.27695(5) 0.54080(5)
loop_
_geom_bond_atom_site_label_1
_geom_bond_atom_site_label_2
_geom_bond_site_symmetry_1
_geom_bond_site_symmetry_2
C1 C2 1_555 1_555
C2 H1 1_555 1_555
C3 C2 1_555 1_555
H2 C3 1_555 1_555
C4 C3 1_555 1_555
C5 C4 1_555 1_555
C6 C5 1_555 1_555
C7 C6 1_555 1_555
H3 C7 1_555 1_555
C8 C7 1_555 1_555
H4 C8 1_555 1_555
C9 C8 1_555 1_555
C10 C9 1_555 1_555
C11 C10 1_555 1_555
C12 C11 1_555 1_555
H5 C12 1_555 1_555
C13 C12 1_555 1_555
H6 C13 1_555 1_555
C14 C13 1_555 1_555
C15 C1 1_555 1_555
N1 C1 1_555 1_555
N2 C6 1_555 1_555
N3 C11 1_555 1_555
B1 N1 1_555 1_555
C16 C5 1_555 1_555
C17 C16 1_555 1_555
H7 C17 1_555 1_555
C18 C17 1_555 1_555
H8 C18 1_555 1_555
C19 C18 1_555 1_555
C20 C19 1_555 1_555
H9 C20 1_555 1_555
C21 C16 1_555 1_555
H10 C21 1_555 1_555
N4 C19 1_555 1_555
C22 N4 1_555 1_555
H11 C22 1_555 1_555
H12 C22 1_555 1_555
C23 C22 1_555 1_555
C24 C23 1_555 1_555
H13 C24 1_555 1_555
C25 C24 1_555 1_555
H14 C25 1_555 1_555
C26 C25 1_555 1_555
H15 C26 1_555 1_555
C27 C26 1_555 1_555
H16 C27 1_555 1_555
C28 C23 1_555 1_555
H17 C28 1_555 1_555
C29 N4 1_555 1_555
H18 C29 1_555 1_555
H19 C29 1_555 1_555
C30 C29 1_555 1_555
C31 C30 1_555 1_555
H20 C31 1_555 1_555
C32 C31 1_555 1_555
H21 C32 1_555 1_555
C33 C32 1_555 1_555
H22 C33 1_555 1_555
C34 C33 1_555 1_555
H23 C34 1_555 1_555
C35 C30 1_555 1_555
H24 C35 1_555 1_555
C36 C10 1_555 1_555
C37 C36 1_555 1_555
H25 C37 1_555 1_555
C38 C37 1_555 1_555
H26 C38 1_555 1_555
C39 C38 1_555 1_555
C40 C39 1_555 1_555
H27 C40 1_555 1_555
C41 C36 1_555 1_555
H28 C41 1_555 1_555
N5 C39 1_555 1_555
C42 N5 1_555 1_555
H29 C42 1_555 1_555
H30 C42 1_555 1_555
C43 C42 1_555 1_555
C44 C43 1_555 1_555
H31 C44 1_555 1_555
C45 C44 1_555 1_555
H32 C45 1_555 1_555
C46 C45 1_555 1_555
H33 C46 1_555 1_555
C47 C46 1_555 1_555
H34 C47 1_555 1_555
C48 C43 1_555 1_555
H35 C48 1_555 1_555
C49 N5 1_555 1_555
H36 C49 1_555 1_555
H37 C49 1_555 1_555
C50 C49 1_555 1_555
C51 C50 1_555 1_555
H38 C51 1_555 1_555
C52 C51 1_555 1_555
H39 C52 1_555 1_555
C53 C52 1_555 1_555
H40 C53 1_555 1_555
C54 C53 1_555 1_555
H41 C54 1_555 1_555
C55 C50 1_555 1_555
H42 C55 1_555 1_555
C56 C15 1_555 1_555
C57 C56 1_555 1_555
H43 C57 1_555 1_555
C58 C57 1_555 1_555
H44 C58 1_555 1_555
C59 C58 1_555 1_555
C60 C59 1_555 1_555
H45 C60 1_555 1_555
C61 C56 1_555 1_555
H46 C61 1_555 1_555
N6 C59 1_555 1_555
C62 N6 1_555 1_555
H47 C62 1_555 1_555
H48 C62 1_555 1_555
C63 C62 1_555 1_555
C64 C63 1_555 1_555
H49 C64 1_555 1_555
C65 C64 1_555 1_555
H50 C65 1_555 1_555
C66 C65 1_555 1_555
H51 C66 1_555 1_555
C67 C66 1_555 1_555
H52 C67 1_555 1_555
C68 C63 1_555 1_555
H53 C68 1_555 1_555
C69 N6 1_555 1_555
H54 C69 1_555 1_555
H55 C69 1_555 1_555
C70 C69 1_555 1_555
C71 C70 1_555 1_555
H56 C71 1_555 1_555
C72 C71 1_555 1_555
H57 C72 1_555 1_555
C73 C72 1_555 1_555
H58 C73 1_555 1_555
C74 C73 1_555 1_555
H59 C74 1_555 1_555
C75 C70 1_555 1_555
H60 C75 1_555 1_555
O1 B1 1_555 1_555
C76 O1 1_555 1_555
H61 C76 1_555 1_555
H62 C76 1_555 1_555
C77 C76 1_555 1_555
H63 C77 1_555 1_555
H64 C77 1_555 1_555
H65 C77 1_555 1_555
C78 H66 1_555 1_555
H67 C78 1_555 1_555
Cl1 C78 1_555 1_555
Cl2 C78 1_555 1_555
C79 H68 1_555 1_555
H69 C79 1_555 1_555
Cl3 C79 1_555 1_555
Cl4 C79 1_555 1_555
C80 H70 1_555 1_555
H71 C80 1_555 1_555
Cl5 C80 1_555 1_555
Cl6 C80 1_555 1_555
C4 N1 1_555 1_555
C9 N2 1_555 1_555
C14 C15 1_555 1_555
C14 N3 1_555 1_555
N2 B1 1_555 1_555
N3 B1 1_555 1_555
C20 C21 1_555 1_555
C27 C28 1_555 1_555
C34 C35 1_555 1_555
C40 C41 1_555 1_555
C47 C48 1_555 1_555
C54 C55 1_555 1_555
C60 C61 1_555 1_555
C67 C68 1_555 1_555
C74 C75 1_555 1_555

#END
