
#######################################################################
#
#                 Cambridge Crystallographic Data Centre
#                                CCDC 
#
#######################################################################
#
# If this CIF has been generated from an entry in the Cambridge 
# Structural Database, then it will include bibliographic, chemical, 
# crystal, experimental, refinement or atomic coordinate data resulting 
# from the CCDC's data processing and validation procedures.
#
#######################################################################

data_QOLNOV
_chemical_formula_moiety         'C20 H11 Cl1 N2 O3'
_chemical_name_systematic        
2-Amino-4-(2-chlorophenyl)-5,10-dioxo-5,10-dihydro-4H-benzo(g)chromene-3-carbonitrile
_symmetry_cell_setting           triclinic
_symmetry_space_group_name_H-M   'P -1'
_symmetry_Int_Tables_number      2
_space_group_name_Hall           '-P 1'
loop_
_symmetry_equiv_pos_site_id
_symmetry_equiv_pos_as_xyz
1 x,y,z
2 -x,-y,-z
_cell_length_a                   8.3201(10)
_cell_length_b                   9.3729(12)
_cell_length_c                   11.0081(16)
_cell_angle_alpha                93.0150(10)
_cell_angle_beta                 96.3930(10)
_cell_angle_gamma                110.732(2)
_cell_volume                     793.95
_exptl_crystal_colour            orange
_exptl_crystal_description       block
_chemical_melting_point          'above 573 K'
_cell_formula_units_Z            2
_exptl_crystal_recrystallization_method 'aqueous ethanol'
loop_
_atom_site_label
_atom_site_type_symbol
_atom_site_fract_x
_atom_site_fract_y
_atom_site_fract_z
Cl1 Cl -0.01619(12) 0.04001(10) 0.69113(9)
O1 O 0.1440(3) 0.3890(2) 0.6133(2)
O2 O 0.5886(3) 0.2063(3) 0.7464(2)
O3 O 0.2251(3) 0.3753(3) 0.3898(2)
N1 N -0.0034(3) 0.4822(3) 0.7313(2)
H1 H -0.0304 0.5099 0.7994
H2 H -0.0556 0.4936 0.6626
N2 N 0.1921(4) 0.4871(4) 1.0491(3)
C1 C 0.1196(4) 0.4216(3) 0.7320(3)
C2 C 0.2135(4) 0.3957(3) 0.8299(3)
C3 C 0.3297(4) 0.3028(3) 0.8197(3)
H3 H 0.4412 0.3622 0.8696
C4 C 0.3646(4) 0.2940(3) 0.6883(3)
C5 C 0.5061(4) 0.2424(3) 0.6626(3)
C6 C 0.5448(4) 0.2361(3) 0.5342(3)
C7 C 0.6774(4) 0.1889(4) 0.5076(3)
H4 H 0.7416 0.1604 0.5699
C8 C 0.7152(5) 0.1837(4) 0.3890(3)
H5 H 0.8064 0.1540 0.3718
C9 C 0.6180(4) 0.2225(4) 0.2961(3)
H6 H 0.6426 0.2170 0.2160
C10 C 0.4851(4) 0.2690(4) 0.3207(3)
H7 H 0.4202 0.2951 0.2574
C11 C 0.4476(4) 0.2770(3) 0.4401(3)
C12 C 0.3083(4) 0.3326(3) 0.4679(3)
C13 C 0.2762(4) 0.3374(3) 0.5983(3)
C14 C 0.1989(4) 0.4470(4) 0.9505(3)
C15 C 0.2617(4) 0.1487(3) 0.8721(3)
C16 C 0.1126(4) 0.0269(4) 0.8235(3)
C17 C 0.0573(4) -0.1101(4) 0.8767(3)
H8 H -0.0427 -0.1903 0.8412
C18 C 0.1515(5) -0.1260(4) 0.9819(3)
H9 H 0.1157 -0.2177 1.0179
C19 C 0.2985(5) -0.0068(4) 1.0343(3)
H10 H 0.3613 -0.0172 1.1065
C20 C 0.3530(4) 0.1287(4) 0.9798(3)
H11 H 0.4532 0.2084 1.0158
loop_
_geom_bond_atom_site_label_1
_geom_bond_atom_site_label_2
_geom_bond_site_symmetry_1
_geom_bond_site_symmetry_2
Cl1 C16 1_555 1_555
O1 C1 1_555 1_555
O2 C5 1_555 1_555
O3 C12 1_555 1_555
N1 H1 1_555 1_555
H2 N1 1_555 1_555
N2 C14 1_555 1_555
C1 N1 1_555 1_555
C2 C1 1_555 1_555
C3 C2 1_555 1_555
H3 C3 1_555 1_555
C4 C3 1_555 1_555
C5 C4 1_555 1_555
C6 C5 1_555 1_555
C7 C6 1_555 1_555
H4 C7 1_555 1_555
C8 C7 1_555 1_555
H5 C8 1_555 1_555
C9 C8 1_555 1_555
H6 C9 1_555 1_555
C10 C9 1_555 1_555
H7 C10 1_555 1_555
C11 C6 1_555 1_555
C12 C11 1_555 1_555
C13 O1 1_555 1_555
C14 C2 1_555 1_555
C15 C3 1_555 1_555
C16 C15 1_555 1_555
C17 C16 1_555 1_555
H8 C17 1_555 1_555
C18 C17 1_555 1_555
H9 C18 1_555 1_555
C19 C18 1_555 1_555
H10 C19 1_555 1_555
C20 C15 1_555 1_555
H11 C20 1_555 1_555
C4 C13 1_555 1_555
C10 C11 1_555 1_555
C12 C13 1_555 1_555
C19 C20 1_555 1_555

#END
