
#######################################################################
#
#                 Cambridge Crystallographic Data Centre
#                                CCDC 
#
#######################################################################
#
# If this CIF has been generated from an entry in the Cambridge 
# Structural Database, then it will include bibliographic, chemical, 
# crystal, experimental, refinement or atomic coordinate data resulting 
# from the CCDC's data processing and validation procedures.
#
#######################################################################

data_QOLPAJ
_chemical_formula_moiety         'C13 H9 F1 N2 O1'
_chemical_name_systematic        
(Z)-5-Fluoro-3-((1H-pyrrol-2-yl)methylene)indolin-2-one
_chemical_properties_biological  'potential neuroprotective agent'
_symmetry_cell_setting           monoclinic
_symmetry_space_group_name_H-M   'P 21/c'
_symmetry_Int_Tables_number      14
_space_group_name_Hall           '-P 2ybc'
loop_
_symmetry_equiv_pos_site_id
_symmetry_equiv_pos_as_xyz
1 x,y,z
2 -x,1/2+y,1/2-z
3 -x,-y,-z
4 x,1/2-y,1/2+z
_cell_length_a                   7.6093(5)
_cell_length_b                   6.1270(4)
_cell_length_c                   22.8912(16)
_cell_angle_alpha                90
_cell_angle_beta                 91.3900(10)
_cell_angle_gamma                90
_cell_volume                     1066.92
_exptl_crystal_colour            orange
_exptl_crystal_description       plates
_cell_formula_units_Z            4
_exptl_crystal_recrystallization_method ethanol
loop_
_atom_site_label
_atom_site_type_symbol
_atom_site_fract_x
_atom_site_fract_y
_atom_site_fract_z
N1 N 0.36941(18) 0.7704(2) -0.02026(6)
H1 H 0.4156 0.8783 -0.0384
C1 C 0.3608(2) 0.7558(3) 0.03865(7)
O1 O 0.41973(16) 0.89761(19) 0.07266(5)
C2 C 0.27094(19) 0.5468(2) 0.05187(7)
C3 C 0.1488(2) 0.2559(3) -0.02156(7)
H2 H 0.1059 0.1591 0.0060
C4 C 0.1325(2) 0.2144(3) -0.08055(8)
F1 F 0.04936(17) 0.0275(2) -0.09798(5)
C5 C 0.1934(2) 0.3515(3) -0.12313(7)
H3 H 0.1788 0.3157 -0.1624
C6 C 0.2772(2) 0.5443(3) -0.10659(7)
H4 H 0.3204 0.6399 -0.1343
C7 C 0.2942(2) 0.5888(3) -0.04789(7)
C8 C 0.23179(19) 0.4481(2) -0.00504(6)
C9 C 0.2305(2) 0.4604(3) 0.10429(7)
H5 H 0.1771 0.3241 0.1019
N2 N 0.3347(2) 0.7320(3) 0.17745(6)
H6 H 0.3819 0.8215 0.1535
C10 C 0.2548(2) 0.5398(3) 0.16222(7)
C11 C 0.1974(3) 0.4470(4) 0.21346(8)
H7 H 0.1390 0.3144 0.2167
C12 C 0.2423(4) 0.5862(4) 0.25906(9)
H8 H 0.2184 0.5654 0.2983
C13 C 0.3282(4) 0.7598(4) 0.23562(9)
H9 H 0.3746 0.8777 0.2564
loop_
_geom_bond_atom_site_label_1
_geom_bond_atom_site_label_2
_geom_bond_site_symmetry_1
_geom_bond_site_symmetry_2
N1 H1 1_555 1_555
C1 N1 1_555 1_555
O1 C1 1_555 1_555
C2 C1 1_555 1_555
C3 H2 1_555 1_555
C4 C3 1_555 1_555
F1 C4 1_555 1_555
C5 C4 1_555 1_555
H3 C5 1_555 1_555
C6 C5 1_555 1_555
H4 C6 1_555 1_555
C7 N1 1_555 1_555
C8 C2 1_555 1_555
C9 C2 1_555 1_555
H5 C9 1_555 1_555
N2 H6 1_555 1_555
C10 C9 1_555 1_555
C11 C10 1_555 1_555
H7 C11 1_555 1_555
C12 C11 1_555 1_555
H8 C12 1_555 1_555
C13 N2 1_555 1_555
H9 C13 1_555 1_555
C3 C8 1_555 1_555
C6 C7 1_555 1_555
C7 C8 1_555 1_555
N2 C10 1_555 1_555
C12 C13 1_555 1_555

#END
