
#######################################################################
#
#                 Cambridge Crystallographic Data Centre
#                                CCDC 
#
#######################################################################
#
# If this CIF has been generated from an entry in the Cambridge 
# Structural Database, then it will include bibliographic, chemical, 
# crystal, experimental, refinement or atomic coordinate data resulting 
# from the CCDC's data processing and validation procedures.
#
#######################################################################

data_QOLQAL
_chemical_formula_moiety         'C21 H22 Br1 N3 O5'
_chemical_name_systematic        
't-Butyl (1-(4-bromobenzyl)-3-(nitromethyl)-2-oxo-2,3-dihydro-1H-indol-3-yl)carbamate'
_symmetry_cell_setting           monoclinic
_symmetry_space_group_name_H-M   'P 21'
_symmetry_Int_Tables_number      4
_space_group_name_Hall           'P 2yb'
loop_
_symmetry_equiv_pos_site_id
_symmetry_equiv_pos_as_xyz
1 x,y,z
2 -x,1/2+y,-z
_cell_length_a                   9.4842(4)
_cell_length_b                   9.3371(4)
_cell_length_c                   12.3123(5)
_cell_angle_alpha                90
_cell_angle_beta                 101.056(2)
_cell_angle_gamma                90
_cell_volume                     1070.08
_exptl_crystal_colour            colorless
_exptl_crystal_description       block
_cell_formula_units_Z            2
loop_
_atom_site_label
_atom_site_type_symbol
_atom_site_fract_x
_atom_site_fract_y
_atom_site_fract_z
Br1 Br 0.35084(4) 0.09500(4) 0.75135(3)
O1 O 0.2681(2) 0.0198(2) 1.40548(18)
O2 O 0.1746(2) 0.1053(3) 1.23301(16)
O3 O 0.1743(3) 0.4152(3) 1.5590(2)
O4 O 0.1247(3) 0.6181(3) 1.4758(2)
O5 O 0.2625(3) 0.4382(2) 1.3019(2)
N1 N 0.1127(3) 0.1975(3) 1.3877(2)
H1 H 0.1094 0.1837 1.4579
N2 N 0.1041(3) 0.4907(4) 1.4865(2)
N3 N 0.0642(3) 0.4304(3) 1.1608(2)
C1 C 0.1409(4) 0.4030(3) 1.2642(3)
C2 C 0.0395(3) 0.3181(3) 1.3272(3)
C3 C -0.0865(3) 0.2853(3) 1.2359(3)
C4 C -0.2100(3) 0.2075(4) 1.2372(3)
H2 H -0.2230 0.1573 1.3016
C5 C -0.3148(4) 0.2050(4) 1.1411(3)
H3 H -0.4004 0.1516 1.1398
C6 C -0.2963(4) 0.2786(4) 1.0478(3)
H4 H -0.3700 0.2760 0.9836
C7 C -0.1719(4) 0.3566(4) 1.0461(3)
H5 H -0.1586 0.4062 0.9814
C8 C -0.0695(4) 0.3592(4) 1.1407(3)
C9 C 0.1717(4) 0.3967(4) 0.9958(3)
C10 C 0.1143(4) 0.3981(4) 0.8835(3)
H6 H 0.0387 0.4632 0.8562
C11 C 0.1633(4) 0.3082(4) 0.8101(3)
H7 H 0.1233 0.3119 0.7332
C12 C 0.2711(4) 0.2132(4) 0.8505(3)
C13 C 0.3279(4) 0.2037(4) 0.9621(3)
H8 H 0.3999 0.1349 0.9891
C14 C 0.2781(4) 0.2964(4) 1.0337(3)
H9 H 0.3173 0.2914 1.1106
C15 C -0.0154(3) 0.4210(4) 1.4077(3)
H10 H -0.0756 0.4959 1.3646
H11 H -0.0766 0.3671 1.4502
C16 C 0.1868(3) 0.1060(4) 1.3325(3)
C17 C 0.3676(3) -0.0845(4) 1.3669(3)
C18 C 0.4418(4) -0.1515(5) 1.4751(3)
H12 H 0.3712 -0.2035 1.5085
H13 H 0.4862 -0.0761 1.5257
H14 H 0.5161 -0.2181 1.4609
C19 C 0.4729(4) -0.0045(4) 1.3115(3)
H15 H 0.4219 0.0375 1.2420
H16 H 0.5466 -0.0709 1.2958
H17 H 0.5187 0.0718 1.3606
C20 C 0.2828(4) -0.1939(4) 1.2923(4)
H18 H 0.2172 -0.2437 1.3322
H19 H 0.3485 -0.2634 1.2689
H20 H 0.2271 -0.1462 1.2270
C21 C 0.1248(4) 0.5011(4) 1.0747(3)
H21 H 0.2084 0.5595 1.1097
H22 H 0.0521 0.5667 1.0327
loop_
_geom_bond_atom_site_label_1
_geom_bond_atom_site_label_2
_geom_bond_site_symmetry_1
_geom_bond_site_symmetry_2
Br1 C12 1_555 1_555
O1 C16 1_555 1_555
O2 C16 1_555 1_555
O3 N2 1_555 1_555
O4 N2 1_555 1_555
O5 C1 1_555 1_555
N1 H1 1_555 1_555
N2 C15 1_555 1_555
N3 C1 1_555 1_555
C1 C2 1_555 1_555
C2 N1 1_555 1_555
C3 C2 1_555 1_555
C4 C3 1_555 1_555
H2 C4 1_555 1_555
C5 C4 1_555 1_555
H3 C5 1_555 1_555
C6 C5 1_555 1_555
H4 C6 1_555 1_555
C7 C6 1_555 1_555
H5 C7 1_555 1_555
C8 N3 1_555 1_555
C9 C10 1_555 1_555
C10 H6 1_555 1_555
C11 C10 1_555 1_555
H7 C11 1_555 1_555
C12 C11 1_555 1_555
C13 C12 1_555 1_555
H8 C13 1_555 1_555
C14 C9 1_555 1_555
H9 C14 1_555 1_555
C15 C2 1_555 1_555
H10 C15 1_555 1_555
H11 C15 1_555 1_555
C16 N1 1_555 1_555
C17 O1 1_555 1_555
C18 C17 1_555 1_555
H12 C18 1_555 1_555
H13 C18 1_555 1_555
H14 C18 1_555 1_555
C19 C17 1_555 1_555
H15 C19 1_555 1_555
H16 C19 1_555 1_555
H17 C19 1_555 1_555
C20 C17 1_555 1_555
H18 C20 1_555 1_555
H19 C20 1_555 1_555
H20 C20 1_555 1_555
C21 N3 1_555 1_555
H21 C21 1_555 1_555
H22 C21 1_555 1_555
C3 C8 1_555 1_555
C7 C8 1_555 1_555
C9 C21 1_555 1_555
C13 C14 1_555 1_555

#END
