
#######################################################################
#
#                 Cambridge Crystallographic Data Centre
#                                CCDC 
#
#######################################################################
#
# If this CIF has been generated from an entry in the Cambridge 
# Structural Database, then it will include bibliographic, chemical, 
# crystal, experimental, refinement or atomic coordinate data resulting 
# from the CCDC's data processing and validation procedures.
#
#######################################################################

data_QOLSAM02
_chemical_formula_moiety         'C12 H10 N4,C8 H6 O4'
_chemical_name_systematic        
"terephthalic acid 1,1'-(1,4-phenylene)bis-1H-imidazole"
_symmetry_cell_setting           monoclinic
_symmetry_space_group_name_H-M   'P 21/n'
_symmetry_Int_Tables_number      14
_space_group_name_Hall           '-P 2yn'
loop_
_symmetry_equiv_pos_site_id
_symmetry_equiv_pos_as_xyz
1 x,y,z
2 1/2-x,1/2+y,1/2-z
3 -x,-y,-z
4 1/2+x,1/2-y,1/2+z
_cell_length_a                   5.2158(10)
_cell_length_b                   10.587(2)
_cell_length_c                   15.435(3)
_cell_angle_alpha                90
_cell_angle_beta                 90.22(3)
_cell_angle_gamma                90
_cell_volume                     852.309
_exptl_crystal_colour            colorless
_exptl_crystal_description       block
_cell_formula_units_Z            2
_exptl_crystal_recrystallization_method Methanol
loop_
_atom_site_label
_atom_site_type_symbol
_atom_site_fract_x
_atom_site_fract_y
_atom_site_fract_z
C1 C 0.8732(4) 0.42236(19) 0.12888(15)
C2 C 0.6774(4) 0.46300(18) 0.06289(14)
C3 C 0.6936(4) 0.41529(19) -0.02049(15)
H1 H 0.8256 0.3570 -0.0345
C4 C 0.5182(4) 0.45192(19) -0.08399(15)
H2 H 0.5312 0.4194 -0.1412
O1 O 0.9946(3) 0.32448(14) 0.12165(12)
O2 O 0.9020(3) 0.50430(14) 0.19211(11)
H3 H 1.0158 0.4785 0.2265
C1B C 0.1268(4) 0.57764(19) -0.12888(15)
C2B C 0.3226(4) 0.53700(18) -0.06289(14)
C3B C 0.3064(4) 0.58471(19) 0.02049(15)
H1B H 0.1744 0.6430 0.0345
C4B C 0.4818(4) 0.54808(19) 0.08399(15)
H2B H 0.4688 0.5806 0.1412
O1B O 0.0054(3) 0.67552(14) -0.12165(12)
O2B O 0.0980(3) 0.49570(14) -0.19211(11)
H3B H -0.0158 0.5215 -0.2265
C5 C 1.0595(4) 1.0053(2) 0.15711(15)
H4 H 1.0809 1.0921 0.1433
C6 C 0.9048(4) 0.8119(2) 0.15889(16)
H5 H 0.8041 0.7389 0.1475
C7 C 1.1079(5) 0.8209(2) 0.21358(15)
H6 H 1.1736 0.7540 0.2481
C8 C 0.6853(4) 0.96601(19) 0.06003(13)
C9 C 0.6050(4) 1.09109(19) 0.05491(15)
H7 H 0.6771 1.1531 0.0923
C10 C 0.5814(4) 0.8755(2) 0.00526(15)
H8 H 0.6379 0.7903 0.0089
N1 N 1.2051(4) 0.94269(17) 0.21142(12)
N2 N 0.8742(3) 0.93035(16) 0.12317(12)
C5B C -0.0595(4) 0.9947(2) -0.15711(15)
H4B H -0.0809 0.9079 -0.1433
C6B C 0.0952(4) 1.1881(2) -0.15889(16)
H5B H 0.1959 1.2611 -0.1475
C7B C -0.1079(5) 1.1791(2) -0.21358(15)
H6B H -0.1736 1.2460 -0.2481
C8B C 0.3147(4) 1.03399(19) -0.06003(13)
C9B C 0.3950(4) 0.90891(19) -0.05491(15)
H7B H 0.3229 0.8469 -0.0923
C10B C 0.4186(4) 1.1245(2) -0.00526(15)
H8B H 0.3621 1.2097 -0.0089
N1B N -0.2051(4) 1.05731(17) -0.21142(12)
N2B N 0.1258(3) 1.06965(16) -0.12317(12)
loop_
_geom_bond_atom_site_label_1
_geom_bond_atom_site_label_2
_geom_bond_site_symmetry_1
_geom_bond_site_symmetry_2
C1 C2 1_555 1_555
C2 C3 1_555 1_555
C3 H1 1_555 1_555
C4 C3 1_555 1_555
H2 C4 1_555 1_555
O1 C1 1_555 1_555
O2 C1 1_555 1_555
H3 O2 1_555 1_555
C5 H4 1_555 1_555
C6 H5 1_555 1_555
C7 C6 1_555 1_555
H6 C7 1_555 1_555
C8 C9 1_555 1_555
C9 H7 1_555 1_555
C10 C8 1_555 1_555
H8 C10 1_555 1_555
N1 C5 1_555 1_555
N2 C5 1_555 1_555
C1B C2B 1_555 1_555
C2B C4 1_555 1_555
C3B C2B 1_555 1_555
H1B C3B 1_555 1_555
C4B C2 1_555 1_555
H2B C4B 1_555 1_555
O1B C1B 1_555 1_555
O2B C1B 1_555 1_555
H3B O2B 1_555 1_555
C5B H4B 1_555 1_555
C6B H5B 1_555 1_555
C7B C6B 1_555 1_555
H6B C7B 1_555 1_555
C8B C9B 1_555 1_555
C9B C10 1_555 1_555
H7B C9B 1_555 1_555
C10B C9 1_555 1_555
H8B C10B 1_555 1_555
N1B C5B 1_555 1_555
N2B C5B 1_555 1_555
C6 N2 1_555 1_555
C7 N1 1_555 1_555
C8 N2 1_555 1_555
C3B C4B 1_555 1_555
C6B N2B 1_555 1_555
C7B N1B 1_555 1_555
C8B C10B 1_555 1_555
C8B N2B 1_555 1_555

#END
