
#######################################################################
#
#                 Cambridge Crystallographic Data Centre
#                                CCDC 
#
#######################################################################
#
# If this CIF has been generated from an entry in the Cambridge 
# Structural Database, then it will include bibliographic, chemical, 
# crystal, experimental, refinement or atomic coordinate data resulting 
# from the CCDC's data processing and validation procedures.
#
#######################################################################

data_QOLSAM01
_chemical_formula_moiety         'C12 H10 N4,C8 H6 O4'
_chemical_name_systematic        
"1,1'-(1,4-phenylene)bis-1H-imidazole terephthalic acid"
_symmetry_cell_setting           triclinic
_symmetry_space_group_name_H-M   'P -1'
_symmetry_Int_Tables_number      2
_space_group_name_Hall           '-P 1'
loop_
_symmetry_equiv_pos_site_id
_symmetry_equiv_pos_as_xyz
1 x,y,z
2 -x,-y,-z
_cell_length_a                   7.1054(14)
_cell_length_b                   9.834(2)
_cell_length_c                   12.691(3)
_cell_angle_alpha                85.70(3)
_cell_angle_beta                 88.25(3)
_cell_angle_gamma                77.93(3)
_cell_volume                     864.632
_exptl_crystal_colour            yellow
_exptl_crystal_description       block
_cell_formula_units_Z            2
_exptl_crystal_recrystallization_method acetone
loop_
_atom_site_label
_atom_site_type_symbol
_atom_site_fract_x
_atom_site_fract_y
_atom_site_fract_z
C1 C 0.1912(3) 0.1982(2) 0.38441(17)
C2 C 0.0946(3) 0.0946(2) 0.44549(16)
C3 C 0.1983(3) -0.0203(2) 0.50268(17)
H1 H 0.3316 -0.0339 0.5050
C4 C 0.1052(3) -0.1152(2) 0.55656(17)
H2 H 0.1762 -0.1929 0.5942
O1 O 0.3791(2) 0.15615(18) 0.37618(14)
H3 H 0.4240 0.2144 0.3397
O2 O 0.1026(2) 0.30949(17) 0.34728(15)
C1A C -0.1912(3) -0.1982(2) 0.61559(17)
C2A C -0.0946(3) -0.0946(2) 0.55451(16)
C3A C -0.1983(3) 0.0203(2) 0.49732(17)
H1A H -0.3316 0.0339 0.4950
C4A C -0.1052(3) 0.1152(2) 0.44344(17)
H2A H -0.1762 0.1929 0.4058
O1A O -0.3791(2) -0.15615(18) 0.62382(14)
H3A H -0.4240 -0.2144 0.6603
O2A O -0.1026(2) -0.30949(17) 0.65272(15)
C5 C 0.1863(4) 0.9387(2) 0.1331(2)
C6 C 0.3485(3) 0.9699(2) 0.06340(17)
C7 C 0.4279(3) 0.8838(2) -0.01568(18)
H4 H 0.3786 0.8055 -0.0265
C8 C 0.5791(4) 0.9129(2) -0.07847(19)
H5 H 0.6319 0.8540 -0.1306
O3 O 0.1824(3) 0.80618(17) 0.14235(16)
H6 H 0.0961 0.7933 0.1838
O4 O 0.0733(3) 1.0283(2) 0.1753(2)
C5A C 0.8137(4) 1.0613(2) -0.1331(2)
C6A C 0.6515(3) 1.0301(2) -0.06340(17)
C7A C 0.5721(3) 1.1162(2) 0.01568(18)
H4A H 0.6214 1.1945 0.0265
C8A C 0.4209(4) 1.0871(2) 0.07847(19)
H5A H 0.3681 1.1460 0.1306
O3A O 0.8176(3) 1.19382(17) -0.14235(16)
H6A H 0.9039 1.2067 -0.1838
O4A O 0.9267(3) 0.9717(2) -0.1753(2)
C9 C 0.7064(3) 0.3264(2) 0.20331(18)
H7 H 0.8151 0.2565 0.2165
C10 C 0.4187(3) 0.4469(3) 0.20799(19)
H8 H 0.2891 0.4749 0.2257
C11 C 0.5173(3) 0.5180(3) 0.1383(2)
H9 H 0.4698 0.6024 0.1005
C12 C 0.8556(3) 0.4697(2) 0.06746(16)
C13 C 0.9966(3) 0.3634(2) 0.03284(19)
H10 H 0.9950 0.2714 0.0551
C14 C 1.1410(3) 0.3935(2) -0.03523(19)
H11 H 1.2356 0.3216 -0.0592
N1 N 0.5376(3) 0.3280(2) 0.24860(15)
N2 N 0.7022(3) 0.43984(19) 0.13474(14)
C9A C 1.2936(3) 0.6736(2) -0.20331(18)
H7A H 1.1849 0.7435 -0.2165
C10A C 1.5813(3) 0.5531(3) -0.20799(19)
H8A H 1.7109 0.5251 -0.2257
C11A C 1.4827(3) 0.4820(3) -0.1383(2)
H9A H 1.5302 0.3976 -0.1005
C12A C 1.1444(3) 0.5303(2) -0.06746(16)
C13A C 1.0034(3) 0.6366(2) -0.03284(19)
H10A H 1.0050 0.7286 -0.0551
C14A C 0.8590(3) 0.6065(2) 0.03523(19)
H11A H 0.7644 0.6784 0.0592
N1A N 1.4624(3) 0.6720(2) -0.24860(15)
N2A N 1.2978(3) 0.56016(19) -0.13474(14)
C15 C 0.1410(3) 0.3553(2) 0.67841(19)
H12 H 0.0567 0.4411 0.6679
C16 C 0.2604(4) 0.1445(3) 0.7304(2)
H13 H 0.2723 0.0555 0.7636
C17 C 0.3996(4) 0.1889(3) 0.6708(2)
H14 H 0.5222 0.1384 0.6558
C18 C 0.4116(3) 0.4148(2) 0.56749(16)
C19 C 0.3024(3) 0.5211(2) 0.50583(18)
H15 H 0.1688 0.5355 0.5098
C20 C 0.6105(3) 0.3927(2) 0.56244(18)
H16 H 0.6850 0.3210 0.6043
N3 N 0.1004(3) 0.2480(2) 0.73522(16)
N4 N 0.3212(3) 0.32518(18) 0.63704(14)
C15A C 0.8590(3) 0.6447(2) 0.32159(19)
H12A H 0.9433 0.5589 0.3321
C16A C 0.7396(4) 0.8555(3) 0.2696(2)
H13A H 0.7277 0.9445 0.2364
C17A C 0.6004(4) 0.8111(3) 0.3292(2)
H14A H 0.4778 0.8616 0.3442
C18A C 0.5884(3) 0.5852(2) 0.43251(16)
C19A C 0.6976(3) 0.4789(2) 0.49417(18)
H15A H 0.8312 0.4645 0.4902
C20A C 0.3895(3) 0.6073(2) 0.43756(18)
H16A H 0.3150 0.6790 0.3957
N3A N 0.8996(3) 0.7520(2) 0.26478(16)
N4A N 0.6788(3) 0.67482(18) 0.36296(14)
loop_
_geom_bond_atom_site_label_1
_geom_bond_atom_site_label_2
_geom_bond_site_symmetry_1
_geom_bond_site_symmetry_2
C1 C2 1_555 1_555
C2 C3 1_555 1_555
C3 H1 1_555 1_555
C4 C3 1_555 1_555
H2 C4 1_555 1_555
O1 C1 1_555 1_555
H3 O1 1_555 1_555
O2 C1 1_555 1_555
C5 C6 1_555 1_555
C6 C7 1_555 1_555
C7 H4 1_555 1_555
C8 C7 1_555 1_555
H5 C8 1_555 1_555
O3 C5 1_555 1_555
H6 O3 1_555 1_555
O4 C5 1_555 1_555
C9 H7 1_555 1_555
C10 H8 1_555 1_555
C11 C10 1_555 1_555
H9 C11 1_555 1_555
C12 C13 1_555 1_555
C13 H10 1_555 1_555
C14 C13 1_555 1_555
H11 C14 1_555 1_555
N1 C9 1_555 1_555
N2 C9 1_555 1_555
C15 H12 1_555 1_555
C16 H13 1_555 1_555
C17 C16 1_555 1_555
H14 C17 1_555 1_555
C18 C19 1_555 1_555
C19 H15 1_555 1_555
C20 C18 1_555 1_555
H16 C20 1_555 1_555
N3 C15 1_555 1_555
N4 C15 1_555 1_555
C1A C2A 1_555 1_555
C2A C4 1_555 1_555
C3A C2A 1_555 1_555
H1A C3A 1_555 1_555
C4A C2 1_555 1_555
H2A C4A 1_555 1_555
O1A C1A 1_555 1_555
H3A O1A 1_555 1_555
O2A C1A 1_555 1_555
C5A C6A 1_555 1_555
C6A C8 1_555 1_555
C7A C6A 1_555 1_555
H4A C7A 1_555 1_555
C8A C6 1_555 1_555
H5A C8A 1_555 1_555
O3A C5A 1_555 1_555
H6A O3A 1_555 1_555
O4A C5A 1_555 1_555
C9A H7A 1_555 1_555
C10A H8A 1_555 1_555
C11A C10A 1_555 1_555
H9A C11A 1_555 1_555
C12A C14 1_555 1_555
C13A C12A 1_555 1_555
H10A C13A 1_555 1_555
C14A C12 1_555 1_555
H11A C14A 1_555 1_555
N1A C9A 1_555 1_555
N2A C9A 1_555 1_555
C15A H12A 1_555 1_555
C16A H13A 1_555 1_555
C17A C16A 1_555 1_555
H14A C17A 1_555 1_555
C18A C19A 1_555 1_555
C19A C20 1_555 1_555
H15A C19A 1_555 1_555
C20A C19 1_555 1_555
H16A C20A 1_555 1_555
N3A C15A 1_555 1_555
N4A C15A 1_555 1_555
C10 N1 1_555 1_555
C11 N2 1_555 1_555
C12 N2 1_555 1_555
C16 N3 1_555 1_555
C17 N4 1_555 1_555
C18 N4 1_555 1_555
C3A C4A 1_555 1_555
C7A C8A 1_555 1_555
C10A N1A 1_555 1_555
C11A N2A 1_555 1_555
C12A N2A 1_555 1_555
C13A C14A 1_555 1_555
C16A N3A 1_555 1_555
C17A N4A 1_555 1_555
C18A C20A 1_555 1_555
C18A N4A 1_555 1_555

#END
