
#######################################################################
#
#                 Cambridge Crystallographic Data Centre
#                                CCDC 
#
#######################################################################
#
# If this CIF has been generated from an entry in the Cambridge 
# Structural Database, then it will include bibliographic, chemical, 
# crystal, experimental, refinement or atomic coordinate data resulting 
# from the CCDC's data processing and validation procedures.
#
#######################################################################

data_QOLSER
_chemical_formula_moiety         'C31 H34 N2'
_chemical_name_systematic        N,N,N',N'-Tetrabenzylpropane-1,3-diamine
_symmetry_cell_setting           monoclinic
_symmetry_space_group_name_H-M   'P 21/c'
_symmetry_Int_Tables_number      14
_space_group_name_Hall           '-P 2ybc'
loop_
_symmetry_equiv_pos_site_id
_symmetry_equiv_pos_as_xyz
1 x,y,z
2 -x,1/2+y,1/2-z
3 -x,-y,-z
4 x,1/2-y,1/2+z
_cell_length_a                   19.043(2)
_cell_length_b                   5.7815(7)
_cell_length_c                   23.610(2)
_cell_angle_alpha                90
_cell_angle_beta                 109.678(6)
_cell_angle_gamma                90
_cell_volume                     2447.59
_cell_formula_units_Z            4
loop_
_atom_site_label
_atom_site_type_symbol
_atom_site_fract_x
_atom_site_fract_y
_atom_site_fract_z
N1 N 0.32506(8) 0.2378(3) 0.23615(6)
N2 N 0.17922(8) 0.3625(3) 0.01298(6)
C1 C 0.54996(11) -0.0646(4) 0.39959(8)
H1 H 0.5867 -0.0953 0.4376
C2 C 0.54955(11) 0.1450(4) 0.37126(8)
H2 H 0.5865 0.2580 0.3895
C3 C 0.49540(11) 0.1896(4) 0.31644(8)
H3 H 0.4951 0.3348 0.2975
C4 C 0.44129(10) 0.0265(4) 0.28843(7)
C5 C 0.38276(10) 0.0846(4) 0.22889(7)
H4 H 0.4069 0.1606 0.2026
H5 H 0.3592 -0.0600 0.2089
C6 C 0.29008(10) 0.3816(4) 0.18285(7)
H6 H 0.3298 0.4753 0.1756
H7 H 0.2557 0.4905 0.1926
C7 C 0.24658(11) 0.2605(4) 0.12394(7)
H8 H 0.1988 0.2012 0.1261
H9 H 0.2757 0.1277 0.1173
C8 C 0.23145(11) 0.4320(4) 0.07169(7)
H10 H 0.2126 0.5770 0.0836
H11 H 0.2797 0.4687 0.0666
C9 C 0.10334(10) 0.3362(4) 0.01384(7)
H12 H 0.0939 0.4566 0.0402
H13 H 0.0986 0.1835 0.0312
C10 C 0.04513(10) 0.3556(4) -0.04804(7)
C11 C -0.00558(11) 0.1789(4) -0.07141(8)
H14 H -0.0013 0.0388 -0.0495
C12 C -0.06241(12) 0.2031(4) -0.12628(8)
H15 H -0.0970 0.0808 -0.1413
C13 C -0.06872(11) 0.4043(4) -0.15897(7)
H16 H -0.1080 0.4224 -0.1963
C14 C 0.13099(13) 0.5114(5) 0.32745(8)
H17 H 0.1001 0.5994 0.3436
C15 C 0.10667(12) 0.3015(5) 0.30034(9)
H18 H 0.0591 0.2437 0.2982
C16 C 0.15182(11) 0.1739(4) 0.27605(8)
H19 H 0.1346 0.0299 0.2571
C17 C 0.22172(10) 0.2549(4) 0.27934(7)
C18 C 0.24595(11) 0.4651(4) 0.30748(7)
H20 H 0.2940 0.5217 0.3107
C19 C 0.20063(12) 0.5937(4) 0.33106(8)
H21 H 0.2175 0.7385 0.3497
C20 C 0.27176(10) 0.1072(4) 0.25614(7)
H22 H 0.2998 -0.0006 0.2884
H23 H 0.2401 0.0130 0.2221
C21 C 0.20219(11) 0.1551(4) -0.01146(7)
H24 H 0.1616 0.1091 -0.0486
H25 H 0.2093 0.0278 0.0180
C22 C 0.27307(10) 0.1854(4) -0.02586(7)
C23 C 0.32615(11) 0.0119(4) -0.01370(8)
H26 H 0.3193 -0.1250 0.0061
C24 C 0.38935(12) 0.0358(4) -0.03007(9)
H27 H 0.4252 -0.0852 -0.0217
C25 C 0.40022(13) 0.2335(5) -0.05828(9)
H28 H 0.4434 0.2495 -0.0695
C26 C 0.34790(12) 0.4094(4) -0.07031(8)
H29 H 0.3555 0.5466 -0.0896
C27 C 0.28442(11) 0.3865(4) -0.05434(7)
H30 H 0.2487 0.5077 -0.0628
C28 C -0.01724(11) 0.5797(4) -0.13683(8)
H31 H -0.0208 0.7179 -0.1594
C29 C 0.03934(11) 0.5548(4) -0.08199(8)
H32 H 0.0746 0.6758 -0.0675
C30 C 0.49664(12) -0.2290(4) 0.37237(8)
H33 H 0.4966 -0.3730 0.3918
C31 C 0.44290(11) -0.1845(4) 0.31662(8)
H34 H 0.4071 -0.2997 0.2978
loop_
_geom_bond_atom_site_label_1
_geom_bond_atom_site_label_2
_geom_bond_site_symmetry_1
_geom_bond_site_symmetry_2
N1 C5 1_555 1_555
N2 C8 1_555 1_555
C1 H1 1_555 1_555
C2 C1 1_555 1_555
H2 C2 1_555 1_555
C3 C2 1_555 1_555
H3 C3 1_555 1_555
C4 C3 1_555 1_555
C5 C4 1_555 1_555
H4 C5 1_555 1_555
H5 C5 1_555 1_555
C6 N1 1_555 1_555
H6 C6 1_555 1_555
H7 C6 1_555 1_555
C7 C6 1_555 1_555
H8 C7 1_555 1_555
H9 C7 1_555 1_555
C8 C7 1_555 1_555
H10 C8 1_555 1_555
H11 C8 1_555 1_555
C9 N2 1_555 1_555
H12 C9 1_555 1_555
H13 C9 1_555 1_555
C10 C9 1_555 1_555
C11 C10 1_555 1_555
H14 C11 1_555 1_555
C12 C11 1_555 1_555
H15 C12 1_555 1_555
C13 C12 1_555 1_555
H16 C13 1_555 1_555
C14 H17 1_555 1_555
C15 C14 1_555 1_555
H18 C15 1_555 1_555
C16 C15 1_555 1_555
H19 C16 1_555 1_555
C17 C16 1_555 1_555
C18 C17 1_555 1_555
H20 C18 1_555 1_555
C19 C14 1_555 1_555
H21 C19 1_555 1_555
C20 N1 1_555 1_555
H22 C20 1_555 1_555
H23 C20 1_555 1_555
C21 N2 1_555 1_555
H24 C21 1_555 1_555
H25 C21 1_555 1_555
C22 C21 1_555 1_555
C23 C22 1_555 1_555
H26 C23 1_555 1_555
C24 C23 1_555 1_555
H27 C24 1_555 1_555
C25 C24 1_555 1_555
H28 C25 1_555 1_555
C26 C25 1_555 1_555
H29 C26 1_555 1_555
C27 C22 1_555 1_555
H30 C27 1_555 1_555
C28 C13 1_555 1_555
H31 C28 1_555 1_555
C29 C10 1_555 1_555
H32 C29 1_555 1_555
C30 C1 1_555 1_555
H33 C30 1_555 1_555
C31 C4 1_555 1_555
H34 C31 1_555 1_555
C17 C20 1_555 1_555
C18 C19 1_555 1_555
C26 C27 1_555 1_555
C28 C29 1_555 1_555
C30 C31 1_555 1_555

#END
