
#######################################################################
#
#                 Cambridge Crystallographic Data Centre
#                                CCDC 
#
#######################################################################
#
# If this CIF has been generated from an entry in the Cambridge 
# Structural Database, then it will include bibliographic, chemical, 
# crystal, experimental, refinement or atomic coordinate data resulting 
# from the CCDC's data processing and validation procedures.
#
#######################################################################

data_QOLVAQ
_chemical_formula_moiety         'C42 H28'
_chemical_name_systematic        
9,9'-(2,2-Diphenylethene-1,1-diyl)dianthracene
_symmetry_cell_setting           triclinic
_symmetry_space_group_name_H-M   'P -1'
_symmetry_Int_Tables_number      2
_space_group_name_Hall           '-P 1'
loop_
_symmetry_equiv_pos_site_id
_symmetry_equiv_pos_as_xyz
1 x,y,z
2 -x,-y,-z
_cell_length_a                   9.7985(14)
_cell_length_b                   11.7195(17)
_cell_length_c                   13.649(2)
_cell_angle_alpha                87.418(2)
_cell_angle_beta                 69.712(2)
_cell_angle_gamma                79.112(2)
_cell_volume                     1443.31
_exptl_crystal_colour            yellow
_exptl_crystal_description       block
_cell_formula_units_Z            2
loop_
_atom_site_label
_atom_site_type_symbol
_atom_site_fract_x
_atom_site_fract_y
_atom_site_fract_z
C1 C 0.49512(14) 0.80823(11) 0.18610(10)
C2 C 0.56588(14) 0.77831(12) 0.07801(10)
C3 C 0.56199(16) 0.67205(13) 0.03241(11)
H1 H 0.5096 0.6191 0.0747
C4 C 0.63281(18) 0.64638(16) -0.07117(12)
H2 H 0.6287 0.5761 -0.0981
C5 C 0.7123(2) 0.72451(18) -0.13819(13)
H3 H 0.7616 0.7053 -0.2086
C6 C 0.71677(18) 0.82699(17) -0.10000(12)
H4 H 0.7683 0.8787 -0.1449
C7 C 0.64400(15) 0.85804(13) 0.00811(11)
C8 C 0.64549(16) 0.96527(14) 0.04538(12)
H5 H 0.6922 1.0179 -0.0013
C9 C 0.57923(15) 0.99668(12) 0.15044(13)
C10 C 0.58464(19) 1.10627(14) 0.18772(16)
H6 H 0.6288 1.1594 0.1403
C11 C 0.5272(2) 1.13487(15) 0.29024(17)
H7 H 0.5303 1.2076 0.3132
C12 C 0.46226(18) 1.05381(16) 0.36276(15)
H8 H 0.4261 1.0727 0.4337
C13 C 0.45161(16) 0.94878(14) 0.33075(13)
H9 H 0.4081 0.8972 0.3803
C14 C 0.50580(14) 0.91591(12) 0.22257(11)
C15 C 0.24472(14) 0.77750(11) 0.31727(10)
C16 C 0.14924(14) 0.81803(12) 0.26105(11)
C17 C 0.19095(17) 0.80138(15) 0.15099(12)
H10 H 0.2863 0.7631 0.1137
C18 C 0.0962(2) 0.83945(18) 0.09903(15)
H11 H 0.1267 0.8255 0.0274
C19 C -0.0476(2) 0.8997(2) 0.15211(18)
H12 H -0.1101 0.9287 0.1152
C20 C -0.0947(2) 0.91550(18) 0.25623(18)
H13 H -0.1908 0.9544 0.2907
C21 C -0.00116(16) 0.87409(13) 0.31532(13)
C22 C -0.05130(16) 0.88409(13) 0.42315(14)
H14 H -0.1477 0.9220 0.4579
C23 C 0.03748(16) 0.83943(12) 0.48112(12)
C24 C -0.01895(19) 0.84531(15) 0.59247(13)
H15 H -0.1165 0.8813 0.6267
C25 C 0.0655(2) 0.80001(17) 0.64922(13)
H16 H 0.0258 0.8033 0.7218
C26 C 0.2150(2) 0.74725(15) 0.59806(12)
H17 H 0.2733 0.7160 0.6374
C27 C 0.27397(17) 0.74192(13) 0.49219(11)
H18 H 0.3733 0.7090 0.4605
C28 C 0.18865(14) 0.78505(11) 0.42798(10)
C29 C 0.40577(14) 0.72774(12) 0.25972(10)
C30 C 0.46606(14) 0.61661(11) 0.27233(10)
C31 C 0.62890(15) 0.57129(13) 0.23061(11)
C32 C 0.72920(17) 0.63422(15) 0.24203(14)
H19 H 0.6947 0.7062 0.2764
C33 C 0.8801(2) 0.5912(2) 0.20280(19)
H20 H 0.9459 0.6344 0.2111
C34 C 0.9328(2) 0.4854(2) 0.15191(19)
H21 H 1.0342 0.4570 0.1252
C35 C 0.8354(2) 0.4216(2) 0.14057(17)
H22 H 0.8710 0.3497 0.1059
C36 C 0.68425(19) 0.46320(15) 0.18032(13)
H23 H 0.6192 0.4184 0.1733
C37 C 0.37390(15) 0.53214(12) 0.33288(10)
C38 C 0.41862(19) 0.46232(13) 0.40543(12)
H24 H 0.5094 0.4647 0.4120
C39 C 0.3302(2) 0.38936(15) 0.46800(14)
H25 H 0.3608 0.3445 0.5171
C40 C 0.1976(2) 0.38307(17) 0.45776(15)
H26 H 0.1378 0.3346 0.5005
C41 C 0.1528(2) 0.44869(16) 0.38396(16)
H27 H 0.0635 0.4435 0.3763
C42 C 0.24080(16) 0.52234(13) 0.32125(12)
H28 H 0.2107 0.5655 0.2711
loop_
_geom_bond_atom_site_label_1
_geom_bond_atom_site_label_2
_geom_bond_site_symmetry_1
_geom_bond_site_symmetry_2
C1 C2 1_555 1_555
C2 C3 1_555 1_555
C3 H1 1_555 1_555
C4 C3 1_555 1_555
H2 C4 1_555 1_555
C5 C4 1_555 1_555
H3 C5 1_555 1_555
C6 C5 1_555 1_555
H4 C6 1_555 1_555
C7 C2 1_555 1_555
C8 C7 1_555 1_555
H5 C8 1_555 1_555
C9 C8 1_555 1_555
C10 C9 1_555 1_555
H6 C10 1_555 1_555
C11 C10 1_555 1_555
H7 C11 1_555 1_555
C12 C11 1_555 1_555
H8 C12 1_555 1_555
C13 C12 1_555 1_555
H9 C13 1_555 1_555
C14 C1 1_555 1_555
C15 C16 1_555 1_555
C16 C17 1_555 1_555
C17 H10 1_555 1_555
C18 C17 1_555 1_555
H11 C18 1_555 1_555
C19 C18 1_555 1_555
H12 C19 1_555 1_555
C20 C19 1_555 1_555
H13 C20 1_555 1_555
C21 C16 1_555 1_555
C22 C21 1_555 1_555
H14 C22 1_555 1_555
C23 C22 1_555 1_555
C24 C23 1_555 1_555
H15 C24 1_555 1_555
C25 C24 1_555 1_555
H16 C25 1_555 1_555
C26 C25 1_555 1_555
H17 C26 1_555 1_555
C27 C26 1_555 1_555
H18 C27 1_555 1_555
C28 C15 1_555 1_555
C29 C1 1_555 1_555
C30 C29 1_555 1_555
C31 C30 1_555 1_555
C32 C31 1_555 1_555
H19 C32 1_555 1_555
C33 C32 1_555 1_555
H20 C33 1_555 1_555
C34 C33 1_555 1_555
H21 C34 1_555 1_555
C35 C34 1_555 1_555
H22 C35 1_555 1_555
C36 C31 1_555 1_555
H23 C36 1_555 1_555
C37 C30 1_555 1_555
C38 C37 1_555 1_555
H24 C38 1_555 1_555
C39 C38 1_555 1_555
H25 C39 1_555 1_555
C40 C39 1_555 1_555
H26 C40 1_555 1_555
C41 C40 1_555 1_555
H27 C41 1_555 1_555
C42 C37 1_555 1_555
H28 C42 1_555 1_555
C6 C7 1_555 1_555
C9 C14 1_555 1_555
C13 C14 1_555 1_555
C15 C29 1_555 1_555
C20 C21 1_555 1_555
C23 C28 1_555 1_555
C27 C28 1_555 1_555
C35 C36 1_555 1_555
C41 C42 1_555 1_555

#END
