
#######################################################################
#
#                 Cambridge Crystallographic Data Centre
#                                CCDC 
#
#######################################################################
#
# If this CIF has been generated from an entry in the Cambridge 
# Structural Database, then it will include bibliographic, chemical, 
# crystal, experimental, refinement or atomic coordinate data resulting 
# from the CCDC's data processing and validation procedures.
#
#######################################################################

data_QOMXUL
_chemical_formula_moiety         'C26 H28 N4 O2'
_chemical_name_systematic        
(E)-1,2-bis(2-(4-t-Butylphenyl)-1,3,4-oxadiazol-5-yl)ethene
_symmetry_cell_setting           monoclinic
_symmetry_space_group_name_H-M   'C 2/c'
_symmetry_Int_Tables_number      15
_space_group_name_Hall           '-C 2yn'
loop_
_symmetry_equiv_pos_site_id
_symmetry_equiv_pos_as_xyz
1 x,y,z
2 1/2+x,1/2+y,z
3 x,-y,1/2+z
4 1/2+x,1/2-y,1/2+z
5 -x,-y,-z
6 1/2-x,1/2-y,-z
7 -x,y,1/2-z
8 1/2-x,1/2+y,1/2-z
_cell_length_a                   23.987(3)
_cell_length_b                   10.493(1)
_cell_length_c                   10.363(1)
_cell_angle_alpha                90
_cell_angle_beta                 111.453(3)
_cell_angle_gamma                90
_cell_volume                     2427.61
_exptl_crystal_colour            colorless
_exptl_crystal_description       'irregular shape'
_chemical_melting_point          584.3-586.4K
_cell_formula_units_Z            4
_exptl_crystal_recrystallization_method chloroform
loop_
_atom_site_label
_atom_site_type_symbol
_atom_site_fract_x
_atom_site_fract_y
_atom_site_fract_z
O1 O 0.11121(5) 0.05960(11) 0.60470(11)
N1 N 0.08608(7) 0.13577(17) 0.39290(15)
N2 N 0.14715(7) 0.16001(16) 0.46592(15)
C1 C 0.06684(8) 0.07780(17) 0.47798(16)
C2 C 0.15974(7) 0.11471(16) 0.58855(16)
C3 C 0.00743(8) 0.03198(17) 0.45359(18)
H1 H -0.0200(8) 0.0555(15) 0.3651(19)
C4 C 0.38724(9) 0.1210(2) 1.0497(2)
C5 C 0.3765(3) 0.1671(10) 1.1770(6)
H2 H 0.3450 0.1177 1.1889
H3 H 0.3651 0.2553 1.1657
H4 H 0.4125 0.1574 1.2571
C6 C 0.4106(2) -0.0181(5) 1.0790(7)
H5 H 0.3805 -0.0708 1.0929
H6 H 0.4463 -0.0200 1.1608
H7 H 0.4193 -0.0496 1.0015
C7 C 0.4353(3) 0.1927(9) 1.0203(9)
H8 H 0.4400 0.1581 0.9390
H9 H 0.4724 0.1849 1.0978
H10 H 0.4244 0.2810 1.0051
C11 C 0.32741(8) 0.11926(17) 0.92764(18)
C12 C 0.28014(9) 0.0455(2) 0.9300(2)
H20 H 0.2847(10) -0.005(2) 1.005(2)
C13 C 0.22571(9) 0.0428(2) 0.8214(2)
H21 H 0.1933(10) -0.007(2) 0.825(2)
C14 C 0.21654(7) 0.11588(16) 0.70481(16)
C15 C 0.26324(9) 0.19015(19) 0.7001(2)
H22 H 0.2577(9) 0.239(2) 0.619(2)
C16 C 0.31751(9) 0.1912(2) 0.8099(2)
H23 H 0.3495(9) 0.241(2) 0.8031(18)
C3D C -0.00743(8) -0.03198(17) 0.54641(18)
C1D C -0.06684(8) -0.07780(17) 0.52202(16)
O1D O -0.11121(5) -0.05960(11) 0.39530(11)
C2D C -0.15974(7) -0.11471(16) 0.41145(16)
N2D N -0.14715(7) -0.16001(16) 0.53408(15)
N1D N -0.08608(7) -0.13577(17) 0.60710(15)
C14D C -0.21654(7) -0.11588(16) 0.29519(16)
C13D C -0.22571(9) -0.0428(2) 0.1786(2)
C12D C -0.28014(9) -0.0455(2) 0.0700(2)
C11D C -0.32741(8) -0.11926(17) 0.07236(18)
C4D C -0.38724(9) -0.1210(2) -0.0497(2)
C5D C -0.3765(3) -0.1671(10) -0.1770(6)
H2D H -0.3450 -0.1177 -0.1889
H3D H -0.3651 -0.2553 -0.1657
H4D H -0.4125 -0.1574 -0.2571
C6D C -0.4106(2) 0.0181(5) -0.0790(7)
H5D H -0.3805 0.0708 -0.0929
H6D H -0.4463 0.0200 -0.1608
H7D H -0.4193 0.0496 -0.0015
C7D C -0.4353(3) -0.1927(9) -0.0203(9)
H8D H -0.4400 -0.1581 0.0610
H9D H -0.4724 -0.1849 -0.0978
H10D H -0.4244 -0.2810 -0.0051
C16D C -0.31751(9) -0.1912(2) 0.1901(2)
C15D C -0.26324(9) -0.19015(19) 0.2999(2)
H22D H -0.2577(9) -0.239(2) 0.381(2)
H23D H -0.3495(9) -0.241(2) 0.1969(18)
H20D H -0.2847(10) 0.005(2) -0.005(2)
H21D H -0.1933(10) 0.007(2) 0.175(2)
H1D H 0.0200(8) -0.0555(15) 0.6349(19)
C8? C 0.3975(5) 0.2685(10) 1.0981(11)
H11? H 0.3969 0.3206 1.0214
H12? H 0.4356 0.2773 1.1725
H13? H 0.3662 0.2952 1.1291
C9? C 0.3878(6) 0.050(2) 1.1701(14)
H14? H 0.3522 -0.0004 1.1460
H15? H 0.3893 0.1089 1.2426
H16? H 0.4224 -0.0040 1.2017
C10? C 0.4353(5) 0.093(2) 1.0034(15)
H17? H 0.4357 0.0036 0.9853
H18? H 0.4726 0.1174 1.0739
H19? H 0.4297 0.1401 0.9201
loop_
_geom_bond_atom_site_label_1
_geom_bond_atom_site_label_2
_geom_bond_site_symmetry_1
_geom_bond_site_symmetry_2
O1 C1 1_555 1_555
N1 N2 1_555 1_555
N2 C2 1_555 1_555
C1 N1 1_555 1_555
C2 O1 1_555 1_555
C3 C1 1_555 1_555
H1 C3 1_555 1_555
C4 C5 1_555 1_555
C5 H2 1_555 1_555
H3 C5 1_555 1_555
H4 C5 1_555 1_555
C6 C4 1_555 1_555
H5 C6 1_555 1_555
H6 C6 1_555 1_555
H7 C6 1_555 1_555
C7 C4 1_555 1_555
H8 C7 1_555 1_555
H9 C7 1_555 1_555
H10 C7 1_555 1_555
C11 C4 1_555 1_555
C12 C11 1_555 1_555
H20 C12 1_555 1_555
C13 C12 1_555 1_555
H21 C13 1_555 1_555
C14 C2 1_555 1_555
C15 C14 1_555 1_555
H22 C15 1_555 1_555
C16 C11 1_555 1_555
H23 C16 1_555 1_555
C3D C3 1_555 1_555
C1D C3D 1_555 1_555
O1D C1D 1_555 1_555
C2D O1D 1_555 1_555
N2D C2D 1_555 1_555
N1D C1D 1_555 1_555
C14D C2D 1_555 1_555
C13D C14D 1_555 1_555
C12D C13D 1_555 1_555
C11D C12D 1_555 1_555
C4D C11D 1_555 1_555
C5D C4D 1_555 1_555
H2D C5D 1_555 1_555
H3D C5D 1_555 1_555
H4D C5D 1_555 1_555
C6D C4D 1_555 1_555
H5D C6D 1_555 1_555
H6D C6D 1_555 1_555
H7D C6D 1_555 1_555
C7D C4D 1_555 1_555
H8D C7D 1_555 1_555
H9D C7D 1_555 1_555
H10D C7D 1_555 1_555
C16D C11D 1_555 1_555
C15D C14D 1_555 1_555
H22D C15D 1_555 1_555
H23D C16D 1_555 1_555
H20D C12D 1_555 1_555
H21D C13D 1_555 1_555
H1D C3D 1_555 1_555
C13 C14 1_555 1_555
C15 C16 1_555 1_555
N2D N1D 1_555 1_555
C16D C15D 1_555 1_555

#END
