
#######################################################################
#
#                 Cambridge Crystallographic Data Centre
#                                CCDC 
#
#######################################################################
#
# If this CIF has been generated from an entry in the Cambridge 
# Structural Database, then it will include bibliographic, chemical, 
# crystal, experimental, refinement or atomic coordinate data resulting 
# from the CCDC's data processing and validation procedures.
#
#######################################################################

data_QONBEC
_chemical_formula_moiety         'C25 H41 N3 O5 Si2'
_chemical_name_systematic        
'di-t-butyl (5-(2,4-bis(trimethylsilyl)but-1-en-3-yn-1-yl)-2-methyl-6-oxo-1,6-dihydropyrimidin-4-yl)imidodicarbonate'
_symmetry_cell_setting           monoclinic
_symmetry_space_group_name_H-M   'P 21/c'
_symmetry_Int_Tables_number      14
_space_group_name_Hall           '-P 2ybc'
loop_
_symmetry_equiv_pos_site_id
_symmetry_equiv_pos_as_xyz
1 x,y,z
2 -x,1/2+y,1/2-z
3 -x,-y,-z
4 x,1/2-y,1/2+z
_cell_length_a                   10.7784(9)
_cell_length_b                   30.335(3)
_cell_length_c                   10.6785(9)
_cell_angle_alpha                90
_cell_angle_beta                 115.168(2)
_cell_angle_gamma                90
_cell_volume                     3160.01
_exptl_crystal_colour            colorless
_exptl_crystal_description       prismatic
_cell_formula_units_Z            4
loop_
_atom_site_label
_atom_site_type_symbol
_atom_site_fract_x
_atom_site_fract_y
_atom_site_fract_z
Si1 Si 0.35224(7) 0.15582(2) 0.36331(7)
Si2 Si 0.27975(8) 0.13584(3) 0.82445(7)
N1 N -0.12025(17) 0.02832(5) 0.34924(19)
N2 N -0.25614(17) 0.06970(5) 0.15698(18)
N3 N -0.15880(17) 0.12637(5) 0.07803(16)
O1 O 0.11121(14) 0.03255(4) 0.45695(15)
O2 O -0.2429(2) 0.14381(6) -0.15261(17)
O3 O -0.16866(16) 0.07542(5) -0.07409(15)
O4 O -0.1504(2) 0.20176(5) 0.06569(19)
O5 O -0.16994(15) 0.16756(4) 0.24363(15)
C1 C 0.0026(2) 0.04701(6) 0.3668(2)
C2 C -0.2423(2) 0.03965(6) 0.2474(2)
C3 C -0.1391(2) 0.09078(6) 0.1726(2)
C4 C -0.01066(19) 0.08230(6) 0.27234(19)
C5 C 0.1078(2) 0.10705(6) 0.2774(2)
H1 H 0.1106 0.1118 0.1926
C6 C 0.2133(2) 0.12389(6) 0.3881(2)
C7 C 0.2256(2) 0.12143(7) 0.5261(2)
C8 C 0.2483(3) 0.12426(8) 0.6456(3)
C9 C -0.3651(2) 0.01548(8) 0.2455(3)
H2 H -0.3962 0.0297 0.3072
H3 H -0.3402 -0.0144 0.2747
H4 H -0.4371 0.0157 0.1533
C10 C 0.2708(4) 0.19120(11) 0.2099(3)
H5 H 0.2088 0.2113 0.2237
H6 H 0.2210 0.1732 0.1302
H7 H 0.3400 0.2076 0.1958
C11 C 0.4506(4) 0.18932(12) 0.5168(3)
H8 H 0.5235 0.2041 0.5047
H9 H 0.4884 0.1706 0.5968
H10 H 0.3913 0.2108 0.5292
C12 C 0.4644(3) 0.11444(13) 0.3332(4)
H11 H 0.5313 0.1294 0.3114
H12 H 0.4096 0.0956 0.2575
H13 H 0.5102 0.0970 0.4151
C13 C 0.1442(5) 0.17404(16) 0.8160(4)
H14 H 0.1636 0.1845 0.9073
H15 H 0.0576 0.1590 0.7784
H16 H 0.1407 0.1986 0.7579
C14 C 0.4479(4) 0.1595(2) 0.9160(4)
H17 H 0.5160 0.1369 0.9359
H18 H 0.4552 0.1723 1.0010
H19 H 0.4621 0.1819 0.8598
C15 C 0.2692(6) 0.08393(14) 0.9115(4)
H20 H 0.3520 0.0673 0.9358
H21 H 0.1924 0.0669 0.8499
H22 H 0.2576 0.0908 0.9936
C16 C -0.1955(2) 0.11774(7) -0.0613(2)
C17 C -0.2267(3) 0.05342(8) -0.2098(2)
C18 C -0.1853(5) 0.00610(11) -0.1720(3)
H23 H -0.0873 0.0042 -0.1239
H24 H -0.2164 -0.0114 -0.2546
H25 H -0.2258 -0.0047 -0.1133
C19 C -0.3818(3) 0.05862(13) -0.2718(4)
H26 H -0.4144 0.0510 -0.2037
H27 H -0.4232 0.0395 -0.3504
H28 H -0.4057 0.0886 -0.3003
C20 C -0.1696(4) 0.07232(13) -0.3036(3)
H29 H -0.2044 0.1017 -0.3301
H30 H -0.1965 0.0542 -0.3847
H31 H -0.0714 0.0732 -0.2562
C21 C -0.1600(2) 0.16977(6) 0.1258(2)
C22 C -0.1608(2) 0.20704(7) 0.3296(2)
C23 C -0.2813(3) 0.23643(10) 0.2530(3)
H32 H -0.2751 0.2481 0.1723
H33 H -0.2815 0.2603 0.3121
H34 H -0.3645 0.2198 0.2258
C24 C -0.0263(3) 0.22951(10) 0.3674(3)
H35 H 0.0468 0.2091 0.4147
H36 H -0.0188 0.2541 0.4269
H37 H -0.0206 0.2398 0.2850
C25 C -0.1669(3) 0.18729(9) 0.4542(3)
H38 H -0.2515 0.1715 0.4275
H39 H -0.1618 0.2102 0.5181
H40 H -0.0913 0.1674 0.4976
H41 H -0.1166(19) 0.0086(7) 0.408(2)
loop_
_geom_bond_atom_site_label_1
_geom_bond_atom_site_label_2
_geom_bond_site_symmetry_1
_geom_bond_site_symmetry_2
Si1 C6 1_555 1_555
Si2 C8 1_555 1_555
N1 C1 1_555 1_555
N2 C2 1_555 1_555
N3 C3 1_555 1_555
O1 C1 1_555 1_555
O2 C16 1_555 1_555
O3 C16 1_555 1_555
O4 C21 1_555 1_555
O5 C21 1_555 1_555
C1 C4 1_555 1_555
C2 N1 1_555 1_555
C3 N2 1_555 1_555
C4 C3 1_555 1_555
C5 C4 1_555 1_555
H1 C5 1_555 1_555
C6 C5 1_555 1_555
C7 C6 1_555 1_555
C8 C7 1_555 1_555
C9 C2 1_555 1_555
H2 C9 1_555 1_555
H3 C9 1_555 1_555
H4 C9 1_555 1_555
C10 Si1 1_555 1_555
H5 C10 1_555 1_555
H6 C10 1_555 1_555
H7 C10 1_555 1_555
C11 Si1 1_555 1_555
H8 C11 1_555 1_555
H9 C11 1_555 1_555
H10 C11 1_555 1_555
C12 Si1 1_555 1_555
H11 C12 1_555 1_555
H12 C12 1_555 1_555
H13 C12 1_555 1_555
C13 Si2 1_555 1_555
H14 C13 1_555 1_555
H15 C13 1_555 1_555
H16 C13 1_555 1_555
C14 Si2 1_555 1_555
H17 C14 1_555 1_555
H18 C14 1_555 1_555
H19 C14 1_555 1_555
C15 Si2 1_555 1_555
H20 C15 1_555 1_555
H21 C15 1_555 1_555
H22 C15 1_555 1_555
C16 N3 1_555 1_555
C17 O3 1_555 1_555
C18 C17 1_555 1_555
H23 C18 1_555 1_555
H24 C18 1_555 1_555
H25 C18 1_555 1_555
C19 C17 1_555 1_555
H26 C19 1_555 1_555
H27 C19 1_555 1_555
H28 C19 1_555 1_555
C20 C17 1_555 1_555
H29 C20 1_555 1_555
H30 C20 1_555 1_555
H31 C20 1_555 1_555
C21 N3 1_555 1_555
C22 O5 1_555 1_555
C23 C22 1_555 1_555
H32 C23 1_555 1_555
H33 C23 1_555 1_555
H34 C23 1_555 1_555
C24 C22 1_555 1_555
H35 C24 1_555 1_555
H36 C24 1_555 1_555
H37 C24 1_555 1_555
C25 C22 1_555 1_555
H38 C25 1_555 1_555
H39 C25 1_555 1_555
H40 C25 1_555 1_555
H41 N1 1_555 1_555

#END
