
#######################################################################
#
#                 Cambridge Crystallographic Data Centre
#                                CCDC 
#
#######################################################################
#
# If this CIF has been generated from an entry in the Cambridge 
# Structural Database, then it will include bibliographic, chemical, 
# crystal, experimental, refinement or atomic coordinate data resulting 
# from the CCDC's data processing and validation procedures.
#
#######################################################################

data_QONBIF
_chemical_formula_moiety         'C58 H66 B1 Br6 N3 O1,2(C1 H4 O1)'
_chemical_name_systematic        
'Methoxy-(2,3,7,8,12,13-hexabromo-5,10,15-tris(3,5-di-t-butylphenyl)subporphyrinato)-boron(ii) methanol solvate'
_symmetry_cell_setting           monoclinic
_symmetry_space_group_name_H-M   'P 21/n'
_symmetry_Int_Tables_number      14
_space_group_name_Hall           '-P 2yn'
loop_
_symmetry_equiv_pos_site_id
_symmetry_equiv_pos_as_xyz
1 x,y,z
2 1/2-x,1/2+y,1/2-z
3 -x,-y,-z
4 1/2+x,1/2-y,1/2+z
_cell_length_a                   16.722(2)
_cell_length_b                   9.1399(10)
_cell_length_c                   39.858(5)
_cell_angle_alpha                90
_cell_angle_beta                 95.456(6)
_cell_angle_gamma                90
_cell_volume                     6064.19
_exptl_crystal_colour            yellow
_exptl_crystal_description       prism
_cell_formula_units_Z            4
_exptl_crystal_recrystallization_method dichloromethane/methanol
loop_
_atom_site_label
_atom_site_type_symbol
_atom_site_fract_x
_atom_site_fract_y
_atom_site_fract_z
C1 C 0.9474(3) 0.1168(5) 0.17506(12)
C2 C 0.8900(3) 0.0815(5) 0.19876(12)
C3 C 0.8324(3) -0.0077(5) 0.18276(12)
C4 C 0.8513(3) -0.0326(5) 0.14865(11)
C5 C 0.8256(3) -0.1346(5) 0.12284(12)
C6 C 0.8761(3) -0.1599(5) 0.09716(12)
C7 C 0.8828(3) -0.2701(5) 0.07152(12)
C8 C 0.9557(3) -0.2518(5) 0.05845(12)
C9 C 0.9976(3) -0.1329(5) 0.07564(11)
C10 C 1.0782(3) -0.0816(5) 0.07857(12)
C11 C 1.1016(3) 0.0194(5) 0.10468(12)
C12 C 1.1767(3) 0.0695(5) 0.12092(12)
C13 C 1.1618(3) 0.1476(5) 0.14928(12)
C14 C 1.0762(3) 0.1444(5) 0.15206(12)
C15 C 1.0259(3) 0.1769(5) 0.17782(12)
C16 C 0.7504(3) -0.2178(5) 0.12535(12)
C17 C 0.6771(3) -0.1478(5) 0.11794(12)
H1 H 0.6761 -0.0525 0.1097
C18 C 0.6053(3) -0.2180(5) 0.12264(11)
C19 C 0.6099(3) -0.3616(5) 0.13533(12)
H2 H 0.5625 -0.4094 0.1391
C20 C 0.6823(3) -0.4353(5) 0.14254(12)
C21 C 0.7531(3) -0.3607(5) 0.13732(11)
H3 H 0.8025 -0.4071 0.1419
C22 C 0.5245(3) -0.1398(6) 0.11650(14)
C23 C 0.5264(4) -0.0140(7) 0.09108(17)
H4 H 0.5425 -0.0510 0.0702
H5 H 0.5641 0.0590 0.0999
H6 H 0.4739 0.0287 0.0873
C24 C 0.4567(3) -0.2426(7) 0.10351(17)
H7 H 0.4704 -0.2898 0.0833
H8 H 0.4081 -0.1875 0.0987
H9 H 0.4490 -0.3151 0.1203
C25 C 0.5052(4) -0.0742(7) 0.15036(15)
H10 H 0.4549 -0.0232 0.1473
H11 H 0.5470 -0.0072 0.1584
H12 H 0.5018 -0.1513 0.1665
C26 C 0.6871(3) -0.5931(5) 0.15600(13)
C27 C 0.7206(4) -0.6915(6) 0.12952(14)
H13 H 0.6859 -0.6871 0.1089
H14 H 0.7236 -0.7905 0.1376
H15 H 0.7734 -0.6585 0.1255
C28 C 0.7440(4) -0.5990(6) 0.18857(14)
H16 H 0.7975 -0.5743 0.1837
H17 H 0.7438 -0.6960 0.1978
H18 H 0.7263 -0.5306 0.2046
C29 C 0.6053(4) -0.6507(6) 0.16368(17)
H19 H 0.5839 -0.5888 0.1801
H20 H 0.6111 -0.7485 0.1724
H21 H 0.5694 -0.6513 0.1434
C30 C 1.1402(3) -0.1535(5) 0.06000(12)
C31 C 1.1758(3) -0.0824(5) 0.03409(12)
H22 H 1.1583 0.0104 0.0272
C32 C 1.2370(3) -0.1498(5) 0.01865(12)
C33 C 1.2599(3) -0.2905(6) 0.02889(13)
H23 H 1.3004 -0.3363 0.0183
C34 C 1.2255(3) -0.3654(5) 0.05400(12)
C35 C 1.1656(3) -0.2938(5) 0.06956(12)
H24 H 1.1418 -0.3408 0.0868
C36 C 1.2819(3) -0.0715(6) -0.00818(13)
C37 C 1.2472(4) 0.0774(7) -0.01798(16)
H25 H 1.2762 0.1190 -0.0353
H26 H 1.2518 0.1406 0.0014
H27 H 1.1916 0.0670 -0.0262
C38 C 1.3688(4) -0.0494(7) 0.00639(16)
H28 H 1.3983 -0.0018 -0.0100
H29 H 1.3928 -0.1426 0.0121
H30 H 1.3700 0.0103 0.0263
C39 C 1.2794(4) -0.1658(7) -0.04015(14)
H31 H 1.2246 -0.1788 -0.0493
H32 H 1.3030 -0.2596 -0.0346
H33 H 1.3090 -0.1181 -0.0565
C40 C 1.2485(3) -0.5222(6) 0.06490(13)
C41 C 1.3198(4) -0.5779(6) 0.04733(16)
H34 H 1.3343 -0.6741 0.0554
H35 H 1.3647 -0.5130 0.0521
H36 H 1.3055 -0.5815 0.0234
C42 C 1.1773(4) -0.6235(6) 0.05557(15)
H37 H 1.1640 -0.6217 0.0316
H38 H 1.1319 -0.5911 0.0666
H39 H 1.1911 -0.7214 0.0626
C43 C 1.2720(4) -0.5259(6) 0.10283(14)
H40 H 1.2899 -0.6225 0.1094
H41 H 1.2263 -0.5005 0.1145
H42 H 1.3145 -0.4571 0.1085
C44 C 1.0541(3) 0.2600(5) 0.20901(12)
C45 C 1.0224(3) 0.3979(5) 0.21292(12)
H43 H 0.9860 0.4360 0.1961
C46 C 1.0444(3) 0.4816(5) 0.24187(12)
C47 C 1.0992(3) 0.4190(5) 0.26616(12)
H44 H 1.1152 0.4729 0.2854
C48 C 1.1314(3) 0.2790(5) 0.26294(12)
C49 C 1.1072(3) 0.2004(5) 0.23352(12)
H45 H 1.1275 0.1069 0.2306
C50 C 1.0056(3) 0.6316(6) 0.24597(13)
C51 C 1.0048(5) 0.7216(7) 0.21335(16)
H46 H 1.0586 0.7305 0.2071
H47 H 0.9834 0.8172 0.2170
H48 H 0.9719 0.6733 0.1957
C52 C 0.9177(4) 0.6062(7) 0.25337(17)
H49 H 0.8899 0.5524 0.2351
H50 H 0.8917 0.6988 0.2557
H51 H 0.9168 0.5516 0.2739
C53 C 1.0479(4) 0.7198(6) 0.27475(15)
H52 H 1.0422 0.6710 0.2957
H53 H 1.0244 0.8155 0.2752
H54 H 1.1039 0.7285 0.2715
C54 C 1.1886(4) 0.2077(6) 0.29071(13)
C55 C 1.2191(7) 0.3111(9) 0.3171(2)
H55 H 1.2477 0.2584 0.3353
H56 H 1.1749 0.3627 0.3253
H57 H 1.2547 0.3796 0.3079
C56 C 1.2518(4) 0.1191(10) 0.27676(18)
H58 H 1.2868 0.1821 0.2656
H59 H 1.2272 0.0496 0.2609
H60 H 1.2823 0.0680 0.2947
C57 C 1.1372(5) 0.0935(9) 0.3086(2)
H61 H 1.1693 0.0508 0.3273
H62 H 1.1191 0.0182 0.2929
H63 H 1.0916 0.1416 0.3165
C58 C 0.9489(4) 0.2222(6) 0.06246(13)
H64 H 1.0063 0.2319 0.0643
H65 H 0.9247 0.3108 0.0535
H66 H 0.9330 0.1420 0.0477
Br1 Br 0.89572(3) 0.13278(6) 0.244051(12)
Br2 Br 0.74869(3) -0.09245(6) 0.203803(13)
Br3 Br 0.80886(3) -0.41641(6) 0.058287(13)
Br4 Br 0.99030(3) -0.35914(6) 0.023036(14)
Br5 Br 1.27876(3) 0.03217(6) 0.107773(14)
Br6 Br 1.24136(3) 0.23624(6) 0.178335(13)
N1 N 0.9176(2) 0.0518(4) 0.14568(9)
N2 N 0.9442(2) -0.0760(4) 0.09612(9)
N3 N 1.0446(2) 0.0763(4) 0.12349(10)
B1 B 0.9555(3) 0.0679(6) 0.11356(13)
O1 O 0.9230(2) 0.1949(4) 0.09516(8)
C59 C 1.0132(4) 0.5139(7) 0.12609(16)
H67 H 1.0162 0.6168 0.1309
H68 H 1.0211 0.4980 0.1028
H69 H 1.0541 0.4634 0.1401
O2 O 0.9365(2) 0.4601(4) 0.13258(10)
O3 O 0.5117(12) 0.390(2) 0.0214(5)
C60 C 0.5584(9) 0.4480(17) 0.0488(4)
C61? C 0.5662(11) 0.586(2) 0.0344(4)
O4? O 0.5259(6) 0.6209(11) 0.0035(3)
loop_
_geom_bond_atom_site_label_1
_geom_bond_atom_site_label_2
_geom_bond_site_symmetry_1
_geom_bond_site_symmetry_2
C1 C2 1_555 1_555
C2 C3 1_555 1_555
C3 C4 1_555 1_555
C4 C5 1_555 1_555
C5 C6 1_555 1_555
C6 C7 1_555 1_555
C7 C8 1_555 1_555
C8 C9 1_555 1_555
C9 C10 1_555 1_555
C10 C11 1_555 1_555
C11 C12 1_555 1_555
C12 C13 1_555 1_555
C13 C14 1_555 1_555
C14 C15 1_555 1_555
C15 C1 1_555 1_555
C16 C5 1_555 1_555
C17 C16 1_555 1_555
H1 C17 1_555 1_555
C18 C17 1_555 1_555
C19 C18 1_555 1_555
H2 C19 1_555 1_555
C20 C19 1_555 1_555
C21 C16 1_555 1_555
H3 C21 1_555 1_555
C22 C18 1_555 1_555
C23 C22 1_555 1_555
H4 C23 1_555 1_555
H5 C23 1_555 1_555
H6 C23 1_555 1_555
C24 C22 1_555 1_555
H7 C24 1_555 1_555
H8 C24 1_555 1_555
H9 C24 1_555 1_555
C25 C22 1_555 1_555
H10 C25 1_555 1_555
H11 C25 1_555 1_555
H12 C25 1_555 1_555
C26 C20 1_555 1_555
C27 C26 1_555 1_555
H13 C27 1_555 1_555
H14 C27 1_555 1_555
H15 C27 1_555 1_555
C28 C26 1_555 1_555
H16 C28 1_555 1_555
H17 C28 1_555 1_555
H18 C28 1_555 1_555
C29 C26 1_555 1_555
H19 C29 1_555 1_555
H20 C29 1_555 1_555
H21 C29 1_555 1_555
C30 C10 1_555 1_555
C31 C30 1_555 1_555
H22 C31 1_555 1_555
C32 C31 1_555 1_555
C33 C32 1_555 1_555
H23 C33 1_555 1_555
C34 C33 1_555 1_555
C35 C30 1_555 1_555
H24 C35 1_555 1_555
C36 C32 1_555 1_555
C37 C36 1_555 1_555
H25 C37 1_555 1_555
H26 C37 1_555 1_555
H27 C37 1_555 1_555
C38 C36 1_555 1_555
H28 C38 1_555 1_555
H29 C38 1_555 1_555
H30 C38 1_555 1_555
C39 C36 1_555 1_555
H31 C39 1_555 1_555
H32 C39 1_555 1_555
H33 C39 1_555 1_555
C40 C34 1_555 1_555
C41 C40 1_555 1_555
H34 C41 1_555 1_555
H35 C41 1_555 1_555
H36 C41 1_555 1_555
C42 C40 1_555 1_555
H37 C42 1_555 1_555
H38 C42 1_555 1_555
H39 C42 1_555 1_555
C43 C40 1_555 1_555
H40 C43 1_555 1_555
H41 C43 1_555 1_555
H42 C43 1_555 1_555
C44 C15 1_555 1_555
C45 C44 1_555 1_555
H43 C45 1_555 1_555
C46 C45 1_555 1_555
C47 C46 1_555 1_555
H44 C47 1_555 1_555
C48 C47 1_555 1_555
C49 C44 1_555 1_555
H45 C49 1_555 1_555
C50 C46 1_555 1_555
C51 C50 1_555 1_555
H46 C51 1_555 1_555
H47 C51 1_555 1_555
H48 C51 1_555 1_555
C52 C50 1_555 1_555
H49 C52 1_555 1_555
H50 C52 1_555 1_555
H51 C52 1_555 1_555
C53 C50 1_555 1_555
H52 C53 1_555 1_555
H53 C53 1_555 1_555
H54 C53 1_555 1_555
C54 C48 1_555 1_555
C55 C54 1_555 1_555
H55 C55 1_555 1_555
H56 C55 1_555 1_555
H57 C55 1_555 1_555
C56 C54 1_555 1_555
H58 C56 1_555 1_555
H59 C56 1_555 1_555
H60 C56 1_555 1_555
C57 C54 1_555 1_555
H61 C57 1_555 1_555
H62 C57 1_555 1_555
H63 C57 1_555 1_555
C58 H64 1_555 1_555
H65 C58 1_555 1_555
H66 C58 1_555 1_555
C59 H67 1_555 1_555
H68 C59 1_555 1_555
H69 C59 1_555 1_555
Br1 C2 1_555 1_555
Br2 C3 1_555 1_555
Br3 C7 1_555 1_555
Br4 C8 1_555 1_555
Br5 C12 1_555 1_555
Br6 C13 1_555 1_555
N1 C1 1_555 1_555
N2 C6 1_555 1_555
N3 C11 1_555 1_555
B1 N1 1_555 1_555
O1 C58 1_555 1_555
O2 C59 1_555 1_555
O3 C60 1_555 1_555
C4 N1 1_555 1_555
C9 N2 1_555 1_555
C14 N3 1_555 1_555
C20 C21 1_555 1_555
C34 C35 1_555 1_555
C48 C49 1_555 1_555
N2 B1 1_555 1_555
N3 B1 1_555 1_555
B1 O1 1_555 1_555

#END
