
#######################################################################
#
#                 Cambridge Crystallographic Data Centre
#                                CCDC 
#
#######################################################################
#
# If this CIF has been generated from an entry in the Cambridge 
# Structural Database, then it will include bibliographic, chemical, 
# crystal, experimental, refinement or atomic coordinate data resulting 
# from the CCDC's data processing and validation procedures.
#
#######################################################################

data_QONFAB
_chemical_name_common            
'36,37,38,39,40-Pentamethoxy-2,9,16,23,30-pentaazahexacyclo[30.3.1.1$4,8!.1$11,15!.1$18,22!.1$25,29!]tetraconta-1(36),4(40),5,7,11(39),12,14,18(38),19,21,25(37),26,28,32,34-pentadecaene-3,10,17,24,31-pentone monohydrate'
_chemical_formula_moiety         'C40 H35 N5 O10,H2 O1'
_chemical_name_systematic        
'1^2^,4^2^,7^2^,10^2^,13^2^-Pentamethoxy-3,6,9,12,15-pentaoxo-2,5,8,11,14-pentaaza-1,4,7,10,13(1,3)-pentabenzenacyclopentadecaphane monohydrate'
_symmetry_cell_setting           triclinic
_symmetry_space_group_name_H-M   'P -1'
_symmetry_Int_Tables_number      2
_space_group_name_Hall           '-P 1'
loop_
_symmetry_equiv_pos_site_id
_symmetry_equiv_pos_as_xyz
1 x,y,z
2 -x,-y,-z
_cell_length_a                   7.6615(4)
_cell_length_b                   11.4272(7)
_cell_length_c                   21.1873(12)
_cell_angle_alpha                88.7930(10)
_cell_angle_beta                 80.1470(10)
_cell_angle_gamma                76.2910(10)
_cell_volume                     1775.14
_exptl_crystal_colour            colorless
_exptl_crystal_description       rod
_chemical_melting_point          'decomposes between 340-345 deg.C'
_cell_formula_units_Z            2
_exptl_crystal_recrystallization_method methanol/dichloromethane
loop_
_atom_site_label
_atom_site_type_symbol
_atom_site_fract_x
_atom_site_fract_y
_atom_site_fract_z
C1 C 0.3889(8) 0.4246(6) 0.4394(3)
C2 C 1.2123(10) 0.1548(5) 0.3679(3)
C3 C 1.5527(7) 0.3947(6) 0.1228(3)
C4 C 0.9925(9) 0.8807(5) 0.0918(3)
C5 C 0.2538(8) 0.8839(5) 0.2723(3)
N1 N 0.4102(7) 0.5191(5) 0.4031(3)
N2 N 1.0462(7) 0.2300(5) 0.3686(3)
N3 N 1.4367(6) 0.3574(4) 0.1699(2)
N4 N 1.0716(7) 0.7642(5) 0.1040(2)
N5 N 0.4240(7) 0.8511(4) 0.2380(2)
O1 O 0.2442(10) 0.4146(8) 0.4691(4)
O2 O 1.2509(11) 0.0740(7) 0.4036(4)
O3 O 1.7107(8) 0.3414(7) 0.1035(4)
O4 O 1.0694(12) 0.9527(7) 0.0638(4)
O5 O 0.1339(8) 0.9707(7) 0.2602(4)
C6 C 0.7475(7) 0.3186(4) 0.4048(2)
C7 C 0.8901(6) 0.2191(4) 0.4106(2)
C8 C 0.8539(6) 0.1286(4) 0.4518(2)
H1 H 0.9474 0.0606 0.4563
C9 C 0.6819(7) 0.1383(4) 0.4859(2)
H2 H 0.6585 0.0773 0.5143
C10 C 0.5437(6) 0.2362(4) 0.4789(2)
H3 H 0.4264 0.2411 0.5025
C11 C 0.5736(7) 0.3281(4) 0.4379(2)
C12 C 0.8711(8) 0.4926(4) 0.3824(2)
H4 H 0.8899 0.5497 0.3488
H5 H 0.9879 0.4508 0.3930
H6 H 0.7948 0.5354 0.4201
C13 C 1.3411(6) 0.2595(4) 0.2583(3)
C14 C 1.4914(7) 0.2683(4) 0.2120(2)
C15 C 1.6610(6) 0.1953(4) 0.2178(2)
H7 H 1.7637 0.1963 0.1864
C16 C 1.6770(6) 0.1222(4) 0.2694(2)
H8 H 1.7922 0.0745 0.2738
C17 C 1.5292(7) 0.1169(4) 0.3147(2)
H9 H 1.5448 0.0665 0.3499
C18 C 1.3581(6) 0.1842(4) 0.3096(3)
C19 C 1.0706(6) 0.2799(5) 0.2140(3)
H10 H 0.9553 0.3358 0.2112
H11 H 1.0480 0.2067 0.2341
H12 H 1.1407 0.2608 0.1713
C20 C 1.2937(7) 0.5945(5) 0.1061(2)
C21 C 1.2552(5) 0.7134(5) 0.0852(2)
C22 C 1.3977(6) 0.7586(4) 0.0508(2)
H13 H 1.3762 0.8385 0.0367
C23 C 1.5699(5) 0.6836(4) 0.0381(2)
H14 H 1.6657 0.7120 0.0139
C24 C 1.6034(5) 0.5690(4) 0.0600(2)
H15 H 1.7220 0.5196 0.0503
C25 C 1.4676(7) 0.5234(4) 0.0960(2)
C26 C 1.0544(7) 0.5011(6) 0.0990(3)
H16 H 0.9566 0.4719 0.1247
H17 H 1.1388 0.4347 0.0740
H18 H 1.0038 0.5624 0.0704
C27 C 0.6764(7) 0.8669(4) 0.1681(2)
C28 C 0.7783(6) 0.9124(4) 0.1181(2)
C29 C 0.6905(6) 1.0053(4) 0.0838(2)
H19 H 0.7582 1.0382 0.0498
C30 C 0.5051(6) 1.0505(4) 0.0988(2)
H20 H 0.4474 1.1122 0.0741
C31 C 0.4028(6) 1.0067(4) 0.1495(2)
H21 H 0.2762 1.0384 0.1593
C32 C 0.4884(7) 0.9152(4) 0.1861(2)
C33 C 0.8366(8) 0.7927(5) 0.2539(2)
H22 H 0.8896 0.7180 0.2733
H23 H 0.7429 0.8424 0.2853
H24 H 0.9308 0.8353 0.2389
C34 C 0.3284(5) 0.6866(4) 0.3450(2)
C35 C 0.2244(6) 0.7954(4) 0.32984(19)
C36 C 0.0568(6) 0.8398(4) 0.3685(2)
H25 H -0.0159 0.9146 0.3594
C37 C -0.0042(5) 0.7767(4) 0.4194(2)
H26 H -0.1188 0.8084 0.4446
C38 C 0.0998(6) 0.6666(4) 0.4348(2)
H27 H 0.0567 0.6233 0.4698
C39 C 0.2696(6) 0.6214(4) 0.3970(2)
C40 C 0.5017(7) 0.5570(5) 0.2594(2)
H28 H 0.6249 0.5280 0.2363
H29 H 0.4237 0.5974 0.2300
H30 H 0.4563 0.4894 0.2781
O6 O 0.7822(6) 0.4057(3) 0.36020(15)
O7 O 1.1727(4) 0.3349(3) 0.2522(2)
O8 O 1.1497(5) 0.5522(4) 0.14055(15)
O9 O 0.7571(5) 0.7663(3) 0.20049(17)
O10 O 0.5019(4) 0.6402(3) 0.30936(16)
H33 H 0.528(3) 0.497(3) 0.3854(18)
H34 H 1.067(4) 0.273(3) 0.3340(15)
H35 H 1.339(3) 0.416(3) 0.1661(17)
H36 H 0.973(4) 0.748(3) 0.1288(19)
H37 H 0.472(4) 0.792(3) 0.2620(16)
O11 O 0.0688(5) 0.2037(3) 0.0522(2)
H31 H 0.067(8) 0.130(2) 0.049(3)
H32 H -0.038(4) 0.245(5) 0.068(3)
C41? C 0.319(2) 0.4929(13) 0.4300(7)
C42? C 1.102(2) 0.1648(17) 0.3875(9)
C43? C 1.558(2) 0.3390(16) 0.1489(7)
C44? C 1.097(3) 0.8358(15) 0.0845(9)
C45? C 0.313(2) 0.9133(16) 0.2400(7)
N6? N 0.501(2) 0.4403(12) 0.4150(6)
N7? N 1.1776(18) 0.2195(12) 0.3347(6)
N8? N 1.4251(18) 0.4340(10) 0.1338(5)
N9? N 0.9310(18) 0.8270(13) 0.1176(6)
N10? N 0.349(2) 0.8221(13) 0.2805(6)
O12? O 0.163(2) 0.980(3) 0.2490(13)
O13? O 0.216(3) 0.4419(18) 0.4652(12)
O14? O 1.206(2) 0.086(2) 0.4135(12)
O15? O 1.715(3) 0.334(2) 0.1218(8)
O16? O 1.105(3) 0.9304(15) 0.0590(12)
loop_
_geom_bond_atom_site_label_1
_geom_bond_atom_site_label_2
_geom_bond_site_symmetry_1
_geom_bond_site_symmetry_2
C1 N1 1_555 1_555
C2 N2 1_555 1_555
C3 N3 1_555 1_555
C4 N4 1_555 1_555
C5 N5 1_555 1_555
N1 C39 1_555 1_555
N2 C7 1_555 1_555
N3 C14 1_555 1_555
N4 C21 1_555 1_555
N5 C32 1_555 1_555
O1 C1 1_555 1_555
O2 C2 1_555 1_555
O3 C3 1_555 1_555
O4 C4 1_555 1_555
O5 C5 1_555 1_555
C6 C7 1_555 1_555
C7 C8 1_555 1_555
C8 H1 1_555 1_555
C9 C8 1_555 1_555
H2 C9 1_555 1_555
C10 C9 1_555 1_555
H3 C10 1_555 1_555
C11 C1 1_555 1_555
C12 H4 1_555 1_555
H5 C12 1_555 1_555
H6 C12 1_555 1_555
C13 C14 1_555 1_555
C14 C15 1_555 1_555
C15 H7 1_555 1_555
C16 C15 1_555 1_555
H8 C16 1_555 1_555
C17 C16 1_555 1_555
H9 C17 1_555 1_555
C18 C2 1_555 1_555
C19 H10 1_555 1_555
H11 C19 1_555 1_555
H12 C19 1_555 1_555
C20 C21 1_555 1_555
C21 C22 1_555 1_555
C22 H13 1_555 1_555
C23 C22 1_555 1_555
H14 C23 1_555 1_555
C24 C23 1_555 1_555
H15 C24 1_555 1_555
C25 C3 1_555 1_555
C26 H16 1_555 1_555
H17 C26 1_555 1_555
H18 C26 1_555 1_555
C27 C28 1_555 1_555
C28 C4 1_555 1_555
C29 C28 1_555 1_555
H19 C29 1_555 1_555
C30 C29 1_555 1_555
H20 C30 1_555 1_555
C31 C30 1_555 1_555
H21 C31 1_555 1_555
C32 C27 1_555 1_555
C33 H22 1_555 1_555
H23 C33 1_555 1_555
H24 C33 1_555 1_555
C34 C35 1_555 1_555
C35 C5 1_555 1_555
C36 C35 1_555 1_555
H25 C36 1_555 1_555
C37 C36 1_555 1_555
H26 C37 1_555 1_555
C38 C37 1_555 1_555
H27 C38 1_555 1_555
C39 C34 1_555 1_555
C40 H28 1_555 1_555
H29 C40 1_555 1_555
H30 C40 1_555 1_555
O6 C6 1_555 1_555
O7 C13 1_555 1_555
O8 C20 1_555 1_555
O9 C27 1_555 1_555
O10 C34 1_555 1_555
O11 H31 1_555 1_555
H32 O11 1_555 1_555
H33 N1 1_555 1_555
H34 N2 1_555 1_555
H35 N3 1_555 1_555
H36 N4 1_555 1_555
H37 N5 1_555 1_555
C6 C11 1_555 1_555
C10 C11 1_555 1_555
C12 O6 1_555 1_555
C13 C18 1_555 1_555
C17 C18 1_555 1_555
C19 O7 1_555 1_555
C20 C25 1_555 1_555
C24 C25 1_555 1_555
C26 O8 1_555 1_555
C31 C32 1_555 1_555
C33 O9 1_555 1_555
C38 C39 1_555 1_555
C40 O10 1_555 1_555

#END
