
#######################################################################
#
#                 Cambridge Crystallographic Data Centre
#                                CCDC 
#
#######################################################################
#
# If this CIF has been generated from an entry in the Cambridge 
# Structural Database, then it will include bibliographic, chemical, 
# crystal, experimental, refinement or atomic coordinate data resulting 
# from the CCDC's data processing and validation procedures.
#
#######################################################################

data_QONHEI
_chemical_formula_moiety         'C16 H22 O5'
_chemical_name_systematic        
'7-acetyl-3,6-dihydroxy-1,8a-dimethyl-1,2,3,4,8,8a-hexahydronaphthalen-2-yl acetate'
_symmetry_cell_setting           monoclinic
_symmetry_space_group_name_H-M   'P 21'
_symmetry_Int_Tables_number      4
_space_group_name_Hall           'P 2yb'
loop_
_symmetry_equiv_pos_site_id
_symmetry_equiv_pos_as_xyz
1 x,y,z
2 -x,1/2+y,-z
_cell_length_a                   7.3971(8)
_cell_length_b                   9.8278(11)
_cell_length_c                   10.5319(12)
_cell_angle_alpha                90
_cell_angle_beta                 100.971(4)
_cell_angle_gamma                90
_cell_volume                     751.647
_cell_formula_units_Z            2
loop_
_atom_site_label
_atom_site_type_symbol
_atom_site_fract_x
_atom_site_fract_y
_atom_site_fract_z
O1 O -0.29271(18) -0.65832(14) -0.69213(12)
O2 O -0.2161(2) -0.85007(15) -0.58039(15)
O3 O -0.0548(2) -0.55681(18) -0.47911(18)
O4 O -0.8724(2) -0.01488(17) -0.93369(18)
C1 C -0.7280(3) -0.1949(2) -0.8084(2)
C2 C -0.3630(3) -0.59516(19) -0.58691(19)
H1 H -0.3780 -0.6646 -0.5230
O5 O -0.5517(3) 0.00587(15) -0.80963(19)
H2 H -0.6516 0.0325 -0.8494
C3 C -0.2068(3) -0.3764(2) -0.6186(2)
H3 H -0.1272 -0.3063 -0.5734
H4 H -0.1483 -0.4122 -0.6866
C4 C -0.5500(3) -0.53159(19) -0.64154(19)
H5 H -0.5935 -0.4932 -0.5669
C5 C -0.2205(3) -0.78277(19) -0.6768(2)
C6 C -0.5437(3) -0.40979(18) -0.73540(18)
C7 C -0.4051(3) -0.1797(2) -0.6945(2)
H6 H -0.3104 -0.1235 -0.6540
C8 C -0.8809(3) -0.1366(2) -0.8876(2)
C9 C -0.5668(3) -0.1184(2) -0.7729(2)
C10 C -0.3876(3) -0.31390(19) -0.67857(18)
C11 C -0.2258(3) -0.4902(2) -0.5243(2)
H7 H -0.2695 -0.4512 -0.4500
C12 C -0.7289(3) -0.3354(2) -0.7499(2)
H8 H -0.8229 -0.3897 -0.8038
H9 H -0.7618 -0.3275 -0.6653
C13 C -1.0612(3) -0.2055(3) -0.9214(3)
H10 H -1.1464 -0.1476 -0.9769
H11 H -1.1072 -0.2244 -0.8440
H12 H -1.0471 -0.2892 -0.9655
C14 C -0.6887(3) -0.6413(2) -0.6946(2)
H13 H -0.6853 -0.7122 -0.6315
H14 H -0.6586 -0.6785 -0.7723
H15 H -0.8100 -0.6025 -0.7136
C15 C -0.5112(3) -0.4537(2) -0.8702(2)
H16 H -0.5094 -0.3746 -0.9235
H17 H -0.6086 -0.5133 -0.9097
H18 H -0.3954 -0.5003 -0.8611
C16 C -0.1511(3) -0.8276(3) -0.7927(2)
H19 H -0.0998 -0.9173 -0.7784
H20 H -0.0578 -0.7657 -0.8090
H21 H -0.2507 -0.8290 -0.8659
H22 H 0.028(4) -0.499(3) -0.455(3)
loop_
_geom_bond_atom_site_label_1
_geom_bond_atom_site_label_2
_geom_bond_site_symmetry_1
_geom_bond_site_symmetry_2
O1 C2 1_555 1_555
O2 C5 1_555 1_555
O3 C11 1_555 1_555
O4 C8 1_555 1_555
C1 C8 1_555 1_555
C2 H1 1_555 1_555
O5 H2 1_555 1_555
C3 H3 1_555 1_555
H4 C3 1_555 1_555
C4 C2 1_555 1_555
H5 C4 1_555 1_555
C5 O1 1_555 1_555
C6 C4 1_555 1_555
C7 H6 1_555 1_555
C8 C13 1_555 1_555
C9 C1 1_555 1_555
C10 C3 1_555 1_555
C11 C2 1_555 1_555
H7 C11 1_555 1_555
C12 C1 1_555 1_555
H8 C12 1_555 1_555
H9 C12 1_555 1_555
C13 H10 1_555 1_555
H11 C13 1_555 1_555
H12 C13 1_555 1_555
C14 C4 1_555 1_555
H13 C14 1_555 1_555
H14 C14 1_555 1_555
H15 C14 1_555 1_555
C15 C6 1_555 1_555
H16 C15 1_555 1_555
H17 C15 1_555 1_555
H18 C15 1_555 1_555
C16 C5 1_555 1_555
H19 C16 1_555 1_555
H20 C16 1_555 1_555
H21 C16 1_555 1_555
H22 O3 1_555 1_555
O5 C9 1_555 1_555
C3 C11 1_555 1_555
C6 C10 1_555 1_555
C6 C12 1_555 1_555
C7 C9 1_555 1_555
C7 C10 1_555 1_555

#END
