
#######################################################################
#
#                 Cambridge Crystallographic Data Centre
#                                CCDC 
#
#######################################################################
#
# If this CIF has been generated from an entry in the Cambridge 
# Structural Database, then it will include bibliographic, chemical, 
# crystal, experimental, refinement or atomic coordinate data resulting 
# from the CCDC's data processing and validation procedures.
#
#######################################################################

data_QONNUE
_chemical_formula_moiety         'C15 H16 O6'
_chemical_name_systematic        
'4-(5,7-Dimethoxy-4-oxo-4H-chromen-2-yl)butanoic acid'
_symmetry_cell_setting           monoclinic
_symmetry_space_group_name_H-M   'P 21/c'
_symmetry_Int_Tables_number      14
_space_group_name_Hall           '-P 2ybc'
loop_
_symmetry_equiv_pos_site_id
_symmetry_equiv_pos_as_xyz
1 x,y,z
2 -x,1/2+y,1/2-z
3 -x,-y,-z
4 x,1/2-y,1/2+z
_cell_length_a                   10.9419(5)
_cell_length_b                   7.3684(3)
_cell_length_c                   17.3372(8)
_cell_angle_alpha                90
_cell_angle_beta                 90.894(2)
_cell_angle_gamma                90
_cell_volume                     1397.63
_exptl_crystal_colour            colorless
_exptl_crystal_description       block
_cell_formula_units_Z            4
loop_
_atom_site_label
_atom_site_type_symbol
_atom_site_fract_x
_atom_site_fract_y
_atom_site_fract_z
O1 O 0.45817(8) 0.70067(13) 0.08423(5)
O2 O 0.83969(8) 0.92490(16) 0.00194(6)
C1 C 0.48519(11) 0.76030(17) -0.05172(7)
O3 O 0.31423(9) 0.69061(17) -0.13348(6)
O4 O 0.52290(9) 0.83235(16) -0.18123(5)
C2 C 0.64633(12) 0.81038(18) 0.04632(8)
H1 H 0.6722 0.8052 0.0976
C3 C 0.52915(11) 0.75759(17) 0.02426(7)
C4 C 0.34019(11) 0.64910(18) 0.07043(8)
C5 C 0.56706(12) 0.82671(18) -0.10818(8)
C6 C 0.72284(11) 0.87074(18) -0.01054(8)
C7 C 0.29218(12) 0.64770(19) -0.00063(8)
H2 H 0.2112 0.6120 -0.0073
C8 C 0.68342(12) 0.88039(18) -0.08753(8)
H3 H 0.7361 0.9233 -0.1249
O5 O -0.08694(11) 0.4078(2) 0.14444(7)
C9 C 0.27991(12) 0.5978(2) 0.14386(8)
H4 H 0.2858 0.6993 0.1793
H5 H 0.3242 0.4969 0.1669
C10 C 0.36024(12) 0.69904(19) -0.06760(8)
C11 C 0.14631(12) 0.5447(2) 0.13459(8)
H6 H 0.1390 0.4455 0.0980
H7 H 0.1002 0.6469 0.1142
C12 C -0.04167(13) 0.4550(2) 0.21136(8)
C13 C 0.09365(12) 0.4871(2) 0.21137(8)
H8 H 0.1343 0.3764 0.2279
H9 H 0.1129 0.5800 0.2493
O6 O -0.10188(11) 0.4662(2) 0.26807(7)
C14 C 0.59616(15) 0.9131(3) -0.23904(9)
H10 H 0.5541 0.9063 -0.2880
H11 H 0.6725 0.8494 -0.2420
H12 H 0.6113 1.0379 -0.2262
C15 C 0.88575(14) 0.9252(3) 0.07934(10)
H13 H 0.9691 0.9660 0.0800
H14 H 0.8818 0.8046 0.1001
H15 H 0.8373 1.0053 0.1101
H16 H -0.166(2) 0.379(3) 0.1477(13)
loop_
_geom_bond_atom_site_label_1
_geom_bond_atom_site_label_2
_geom_bond_site_symmetry_1
_geom_bond_site_symmetry_2
O1 C3 1_555 1_555
O2 C6 1_555 1_555
C1 C3 1_555 1_555
O3 C10 1_555 1_555
O4 C5 1_555 1_555
C2 H1 1_555 1_555
C3 C2 1_555 1_555
C4 O1 1_555 1_555
C5 C1 1_555 1_555
C6 C2 1_555 1_555
C7 C4 1_555 1_555
H2 C7 1_555 1_555
C8 C5 1_555 1_555
H3 C8 1_555 1_555
O5 C12 1_555 1_555
C9 C4 1_555 1_555
H4 C9 1_555 1_555
H5 C9 1_555 1_555
C10 C1 1_555 1_555
C11 C9 1_555 1_555
H6 C11 1_555 1_555
H7 C11 1_555 1_555
C12 C13 1_555 1_555
C13 C11 1_555 1_555
H8 C13 1_555 1_555
H9 C13 1_555 1_555
O6 C12 1_555 1_555
C14 O4 1_555 1_555
H10 C14 1_555 1_555
H11 C14 1_555 1_555
H12 C14 1_555 1_555
C15 O2 1_555 1_555
H13 C15 1_555 1_555
H14 C15 1_555 1_555
H15 C15 1_555 1_555
H16 O5 1_555 1_555
C6 C8 1_555 1_555
C7 C10 1_555 1_555

#END
