
#######################################################################
#
#                 Cambridge Crystallographic Data Centre
#                                CCDC 
#
#######################################################################
#
# If this CIF has been generated from an entry in the Cambridge 
# Structural Database, then it will include bibliographic, chemical, 
# crystal, experimental, refinement or atomic coordinate data resulting 
# from the CCDC's data processing and validation procedures.
#
#######################################################################

data_QONNEN
_chemical_formula_moiety         'C25 H18 F6 N4 O2 S2'
_chemical_name_systematic        
1,2-bis(5-Ethoxy-2-(2-pyridyl)-1,3-thiazol-4-yl)-3,3,4,4,5,5-hexafluoro-1-cyclopentene
_symmetry_cell_setting           monoclinic
_symmetry_space_group_name_H-M   'P 21/c'
_symmetry_Int_Tables_number      14
_space_group_name_Hall           '-P 2ybc'
loop_
_symmetry_equiv_pos_site_id
_symmetry_equiv_pos_as_xyz
1 x,y,z
2 -x,1/2+y,1/2-z
3 -x,-y,-z
4 x,1/2-y,1/2+z
_cell_length_a                   8.7756(11)
_cell_length_b                   17.758(2)
_cell_length_c                   15.839(2)
_cell_angle_alpha                90
_cell_angle_beta                 100.642(3)
_cell_angle_gamma                90
_cell_volume                     2425.85
_exptl_crystal_colour            colorless
_exptl_crystal_description       plate
_cell_formula_units_Z            4
_chemical_properties_physical    light-sensitive
_exptl_crystal_recrystallization_method dichloromethane
_exptl_crystal_preparation       photochromic
loop_
_atom_site_label
_atom_site_type_symbol
_atom_site_fract_x
_atom_site_fract_y
_atom_site_fract_z
S1 S 0.45344(7) 0.60821(3) 0.39053(3)
S2 S -0.11880(7) 0.60752(3) 0.52099(3)
F1 F 0.40912(16) 0.89033(8) 0.42397(10)
F2 F 0.20170(18) 0.88563(8) 0.32590(8)
F3 F 0.17011(19) 0.87919(8) 0.60621(9)
F4 F -0.05262(17) 0.88556(8) 0.52068(10)
F5 F 0.05748(18) 0.96327(8) 0.41462(9)
F6 F 0.26609(19) 0.97383(8) 0.51087(10)
N1 N -0.0101(2) 0.73085(10) 0.59619(12)
N2 N 0.3604(2) 0.73871(11) 0.32792(12)
C1 C 0.0374(2) 0.72972(12) 0.51767(14)
C2 C 0.3522(3) 0.66579(12) 0.44837(14)
C3 C -0.0122(3) 0.66743(12) 0.46824(13)
C4 C 0.1245(2) 0.79232(12) 0.49149(13)
C5 C 0.3097(3) 0.73227(12) 0.40515(13)
C6 C 0.2267(3) 0.79354(12) 0.43630(13)
C7 C 0.1694(3) 0.92430(13) 0.46525(13)
C8 C 0.0985(3) 0.86972(12) 0.52338(14)
C9 C 0.2565(3) 0.87266(12) 0.41042(14)
C10 C 0.4340(3) 0.67838(12) 0.31181(13)
C11 C -0.0896(3) 0.67108(12) 0.60687(13)
N3 N -0.2354(2) 0.58807(11) 0.67828(13)
C12 C -0.1555(3) 0.65296(13) 0.68318(14)
C13 C -0.0350(3) 0.58480(14) 0.34796(15)
H1 H -0.1471 0.5809 0.3395
H2 H 0.0098 0.5430 0.3836
C14 C 0.5012(3) 0.66461(13) 0.23530(14)
C15 C 0.5668(3) 0.70217(15) 0.10238(15)
H3 H 0.5691 0.7377 0.0595
C16 C 0.3712(3) 0.57691(13) 0.56280(14)
H4 H 0.4834 0.5736 0.5733
H5 H 0.3291 0.5366 0.5241
N4 N 0.5638(2) 0.59622(12) 0.23134(13)
C17 C -0.1353(3) 0.70030(14) 0.75380(14)
H6 H -0.0771 0.7442 0.7551
C18 C 0.0171(3) 0.58276(15) 0.26337(15)
H7 H -0.0281 0.6242 0.2286
H8 H -0.0152 0.5363 0.2346
H9 H 0.1281 0.5865 0.2725
C19 C 0.3120(3) 0.57085(14) 0.64595(15)
H10 H 0.3536 0.6114 0.6833
H11 H 0.3440 0.5236 0.6730
H12 H 0.2009 0.5737 0.6345
C20 C -0.2043(3) 0.68039(15) 0.82231(15)
H13 H -0.1953 0.7115 0.8702
C21 C 0.6313(3) 0.63184(15) 0.09741(15)
H14 H 0.6772 0.6191 0.0509
C22 C -0.2867(3) 0.61377(15) 0.81890(15)
H15 H -0.3337 0.5992 0.8643
C23 C -0.2974(3) 0.56955(15) 0.74664(15)
H16 H -0.3509 0.5242 0.7452
C24 C 0.4984(3) 0.71890(14) 0.17234(14)
H17 H 0.4518 0.7654 0.1769
C25 C 0.6266(3) 0.58082(15) 0.16252(16)
H18 H 0.6692 0.5333 0.1584
O1 O 0.32087(19) 0.64931(9) 0.52583(10)
O2 O 0.01581(19) 0.65575(9) 0.38915(10)
loop_
_geom_bond_atom_site_label_1
_geom_bond_atom_site_label_2
_geom_bond_site_symmetry_1
_geom_bond_site_symmetry_2
S1 C2 1_555 1_555
S2 C3 1_555 1_555
F1 C9 1_555 1_555
F2 C9 1_555 1_555
F3 C8 1_555 1_555
F4 C8 1_555 1_555
F5 C7 1_555 1_555
F6 C7 1_555 1_555
N1 C1 1_555 1_555
N2 C5 1_555 1_555
C1 C3 1_555 1_555
C2 C5 1_555 1_555
C3 O2 1_555 1_555
C4 C1 1_555 1_555
C5 C6 1_555 1_555
C6 C4 1_555 1_555
C7 C8 1_555 1_555
C8 C4 1_555 1_555
C9 C6 1_555 1_555
C10 S1 1_555 1_555
C11 S2 1_555 1_555
N3 C12 1_555 1_555
C12 C11 1_555 1_555
C13 H1 1_555 1_555
H2 C13 1_555 1_555
C14 C10 1_555 1_555
C15 H3 1_555 1_555
C16 H4 1_555 1_555
H5 C16 1_555 1_555
N4 C14 1_555 1_555
C17 C12 1_555 1_555
H6 C17 1_555 1_555
C18 C13 1_555 1_555
H7 C18 1_555 1_555
H8 C18 1_555 1_555
H9 C18 1_555 1_555
C19 C16 1_555 1_555
H10 C19 1_555 1_555
H11 C19 1_555 1_555
H12 C19 1_555 1_555
C20 C17 1_555 1_555
H13 C20 1_555 1_555
C21 C15 1_555 1_555
H14 C21 1_555 1_555
C22 C20 1_555 1_555
H15 C22 1_555 1_555
C23 N3 1_555 1_555
H16 C23 1_555 1_555
C24 C14 1_555 1_555
H17 C24 1_555 1_555
C25 N4 1_555 1_555
H18 C25 1_555 1_555
O1 C2 1_555 1_555
O2 C13 1_555 1_555
N1 C11 1_555 1_555
N2 C10 1_555 1_555
C7 C9 1_555 1_555
C15 C24 1_555 1_555
C16 O1 1_555 1_555
C21 C25 1_555 1_555
C22 C23 1_555 1_555

#END
