
#######################################################################
#
#                 Cambridge Crystallographic Data Centre
#                                CCDC 
#
#######################################################################
#
# If this CIF has been generated from an entry in the Cambridge 
# Structural Database, then it will include bibliographic, chemical, 
# crystal, experimental, refinement or atomic coordinate data resulting 
# from the CCDC's data processing and validation procedures.
#
#######################################################################

data_QONNIR
_chemical_formula_moiety         'C38 H33 N3'
_chemical_name_systematic        
2,2,17,17-Tetramethyl-7,12-diphenyl-23,24,25-triazapentacyclo[16.3.1.1^3,6^.1^8,11^.1^13,16^]pentacosa-1(22),3(25),4,6,8,10,12,14,16(23),18,20-undecaene
_symmetry_cell_setting           monoclinic
_symmetry_space_group_name_H-M   'P 21/n'
_symmetry_Int_Tables_number      14
_space_group_name_Hall           '-P 2yn'
loop_
_symmetry_equiv_pos_site_id
_symmetry_equiv_pos_as_xyz
1 x,y,z
2 1/2-x,1/2+y,1/2-z
3 -x,-y,-z
4 1/2+x,1/2-y,1/2+z
_cell_length_a                   11.8682(4)
_cell_length_b                   14.8331(4)
_cell_length_c                   16.0432(5)
_cell_angle_alpha                90
_cell_angle_beta                 101.750(2)
_cell_angle_gamma                90
_cell_volume                     2765.1
_exptl_crystal_colour            red
_exptl_crystal_description       prism
_cell_formula_units_Z            4
loop_
_atom_site_label
_atom_site_type_symbol
_atom_site_fract_x
_atom_site_fract_y
_atom_site_fract_z
N1 N 0.61196(12) 0.29901(9) 0.18921(9)
H1 H 0.6179 0.2698 0.2362
N2 N 0.63316(12) 0.34339(9) 0.36526(9)
N3 N 0.56698(12) 0.11644(9) 0.22062(9)
C1 C 0.58819(15) 0.38892(11) 0.17923(11)
C2 C 0.58493(15) 0.40960(11) 0.09423(11)
H2 H 0.5693 0.4659 0.0690
C3 C 0.60901(15) 0.33189(11) 0.05378(11)
H3 H 0.6138 0.3268 -0.0032
C4 C 0.62488(15) 0.26242(11) 0.11370(11)
C5 C 0.58836(14) 0.42679(11) 0.33027(11)
C6 C 0.57576(15) 0.48717(11) 0.39844(11)
H4 H 0.5480 0.5460 0.3928
C7 C 0.61188(15) 0.44189(11) 0.47150(11)
H5 H 0.6133 0.4632 0.5262
C8 C 0.64844(15) 0.35302(11) 0.44884(11)
C9 C 0.62076(14) 0.10064(11) 0.15146(11)
C10 C 0.64742(15) 0.00559(11) 0.14844(11)
H6 H 0.6823 -0.0230 0.1087
C11 C 0.61184(15) -0.03338(12) 0.21431(11)
H7 H 0.6185 -0.0939 0.2296
C12 C 0.56094(14) 0.03782(11) 0.25687(10)
C13 C 0.57228(14) 0.44865(11) 0.24608(11)
C14 C 0.54157(15) 0.54415(11) 0.22027(10)
C15 C 0.43321(15) 0.57853(12) 0.22148(11)
H8 H 0.3773 0.5414 0.2363
C16 C 0.40791(16) 0.66803(12) 0.20062(11)
H9 H 0.3350 0.6906 0.2011
C17 C 0.62400(16) 0.60048(11) 0.19659(11)
H10 H 0.6962 0.5777 0.1939
C18 C 0.59869(16) 0.68963(12) 0.17715(11)
H11 H 0.6543 0.7273 0.1626
C19 C 0.49017(17) 0.72328(12) 0.17926(11)
H12 H 0.4732 0.7835 0.1661
C20 C 0.64490(14) 0.16821(11) 0.09971(11)
C21 C 0.69128(15) 0.14800(11) 0.02245(11)
C22 C 0.63805(15) 0.08609(11) -0.03778(11)
H13 H 0.5728 0.0556 -0.0293
C23 C 0.68104(16) 0.06922(12) -0.11031(11)
H14 H 0.6449 0.0273 -0.1500
C24 C 0.77763(17) 0.11457(12) -0.12389(12)
H15 H 0.8059 0.1036 -0.1729
C25 C 0.83207(16) 0.17619(12) -0.06436(12)
H16 H 0.8976 0.2061 -0.0730
C26 C 0.78902(15) 0.19320(11) 0.00783(11)
H17 H 0.8254 0.2352 0.0473
C27 C 0.50893(15) 0.02837(11) 0.33571(11)
C28 C 0.71196(15) 0.28782(11) 0.51486(11)
C29 C 0.39969(15) 0.08577(12) 0.32497(11)
H18 H 0.3667 0.0796 0.3746
H19 H 0.3453 0.0658 0.2757
H20 H 0.4186 0.1478 0.3179
C30 C 0.47509(16) -0.07029(11) 0.34810(11)
H21 H 0.4427 -0.0748 0.3981
H22 H 0.5422 -0.1079 0.3546
H23 H 0.4193 -0.0896 0.2994
C31 C 0.83875(15) 0.31889(12) 0.53186(12)
H24 H 0.8843 0.2799 0.5733
H25 H 0.8440 0.3796 0.5530
H26 H 0.8668 0.3165 0.4798
C32 C 0.66711(18) 0.29841(12) 0.59820(11)
H27 H 0.7072 0.2573 0.6402
H28 H 0.5862 0.2855 0.5875
H29 H 0.6801 0.3591 0.6188
C33 C 0.60151(15) 0.06142(11) 0.41078(11)
C34 C 0.61521(15) 0.15403(11) 0.42737(11)
H30 H 0.5643 0.1941 0.3946
C35 C 0.70183(15) 0.18810(11) 0.49083(11)
C36 C 0.77757(15) 0.12676(11) 0.53882(11)
H31 H 0.8370 0.1477 0.5814
C37 C 0.76523(16) 0.03546(12) 0.52384(11)
H32 H 0.8160 -0.0046 0.5567
C38 C 0.67779(16) 0.00291(11) 0.46019(11)
H33 H 0.6704 -0.0589 0.4507
loop_
_geom_bond_atom_site_label_1
_geom_bond_atom_site_label_2
_geom_bond_site_symmetry_1
_geom_bond_site_symmetry_2
N1 H1 1_555 1_555
N2 C5 1_555 1_555
N3 C9 1_555 1_555
C1 N1 1_555 1_555
C2 C1 1_555 1_555
H2 C2 1_555 1_555
C3 C2 1_555 1_555
H3 C3 1_555 1_555
C4 N1 1_555 1_555
C5 C6 1_555 1_555
C6 H4 1_555 1_555
C7 C6 1_555 1_555
H5 C7 1_555 1_555
C8 N2 1_555 1_555
C9 C10 1_555 1_555
C10 H6 1_555 1_555
C11 C10 1_555 1_555
H7 C11 1_555 1_555
C12 N3 1_555 1_555
C13 C1 1_555 1_555
C14 C13 1_555 1_555
C15 C14 1_555 1_555
H8 C15 1_555 1_555
C16 C15 1_555 1_555
H9 C16 1_555 1_555
C17 C14 1_555 1_555
H10 C17 1_555 1_555
C18 C17 1_555 1_555
H11 C18 1_555 1_555
C19 C16 1_555 1_555
H12 C19 1_555 1_555
C20 C4 1_555 1_555
C21 C20 1_555 1_555
C22 C21 1_555 1_555
H13 C22 1_555 1_555
C23 C22 1_555 1_555
H14 C23 1_555 1_555
C24 C23 1_555 1_555
H15 C24 1_555 1_555
C25 C24 1_555 1_555
H16 C25 1_555 1_555
C26 C21 1_555 1_555
H17 C26 1_555 1_555
C27 C12 1_555 1_555
C28 C8 1_555 1_555
C29 C27 1_555 1_555
H18 C29 1_555 1_555
H19 C29 1_555 1_555
H20 C29 1_555 1_555
C30 C27 1_555 1_555
H21 C30 1_555 1_555
H22 C30 1_555 1_555
H23 C30 1_555 1_555
C31 C28 1_555 1_555
H24 C31 1_555 1_555
H25 C31 1_555 1_555
H26 C31 1_555 1_555
C32 C28 1_555 1_555
H27 C32 1_555 1_555
H28 C32 1_555 1_555
H29 C32 1_555 1_555
C33 C27 1_555 1_555
C34 C33 1_555 1_555
H30 C34 1_555 1_555
C35 C28 1_555 1_555
C36 C35 1_555 1_555
H31 C36 1_555 1_555
C37 C36 1_555 1_555
H32 C37 1_555 1_555
C38 C33 1_555 1_555
H33 C38 1_555 1_555
C3 C4 1_555 1_555
C5 C13 1_555 1_555
C7 C8 1_555 1_555
C9 C20 1_555 1_555
C11 C12 1_555 1_555
C18 C19 1_555 1_555
C25 C26 1_555 1_555
C34 C35 1_555 1_555
C37 C38 1_555 1_555

#END
