
#######################################################################
#
#                 Cambridge Crystallographic Data Centre
#                                CCDC 
#
#######################################################################
#
# If this CIF has been generated from an entry in the Cambridge 
# Structural Database, then it will include bibliographic, chemical, 
# crystal, experimental, refinement or atomic coordinate data resulting 
# from the CCDC's data processing and validation procedures.
#
#######################################################################

data_QONWOH
_chemical_formula_moiety         'C30 H21 N1 O4'
_chemical_name_systematic        
3-(4-Methoxyphenyl)-4-(3-nitrophenyl)-2,5-diphenylcyclopenta-2,4-dien-1-one
_symmetry_cell_setting           monoclinic
_symmetry_space_group_name_H-M   'P 21/c'
_symmetry_Int_Tables_number      14
_space_group_name_Hall           '-P 2ybc'
loop_
_symmetry_equiv_pos_site_id
_symmetry_equiv_pos_as_xyz
1 x,y,z
2 -x,1/2+y,1/2-z
3 -x,-y,-z
4 x,1/2-y,1/2+z
_cell_length_a                   10.6891(4)
_cell_length_b                   9.8020(3)
_cell_length_c                   21.9169(9)
_cell_angle_alpha                90
_cell_angle_beta                 103.599(4)
_cell_angle_gamma                90
_cell_volume                     2231.96
_exptl_crystal_colour            'dark red'
_exptl_crystal_description       plate
_cell_formula_units_Z            4
_exptl_crystal_recrystallization_method dichloromethane/hexane
loop_
_atom_site_label
_atom_site_type_symbol
_atom_site_fract_x
_atom_site_fract_y
_atom_site_fract_z
O1 O 0.28844(13) 0.26006(15) -0.00382(6)
O2 O 0.90907(14) 0.63622(15) 0.28477(7)
O3 O 1.12544(14) -0.04781(17) 0.10145(7)
N1 N 1.01244(17) -0.02657(19) 0.10193(8)
C1 C 0.62283(18) 0.2603(2) 0.03409(9)
O4 O 0.94928(16) -0.10014(17) 0.12892(8)
C2 C 0.46095(19) 0.3574(2) 0.07646(9)
C3 C 0.78025(19) 0.5009(2) 0.12523(9)
H1 H 0.7914 0.5095 0.0846
C4 C 0.38386(18) 0.4424(2) 0.10955(9)
C5 C 0.75875(18) 0.2292(2) 0.03354(9)
C6 C 0.40361(19) 0.2758(2) 0.01869(9)
C7 C 0.94796(19) 0.0931(2) 0.06730(9)
C8 C 0.82083(19) 0.1191(2) 0.06795(9)
H2 H 0.7778 0.0641 0.0909
C9 C 0.59021(19) 0.34768(19) 0.08505(9)
C10 C 0.68668(18) 0.4125(2) 0.13645(9)
C11 C 0.85814(18) 0.5772(2) 0.17328(9)
H3 H 0.9196 0.6367 0.1647
C12 C 0.67571(19) 0.3973(2) 0.19883(9)
H4 H 0.6154 0.3368 0.2077
C13 C 0.8276(2) 0.3106(2) 0.00038(9)
H5 H 0.7873 0.3847 -0.0226
C14 C 0.9553(2) 0.2823(2) 0.00129(10)
H6 H 0.9998 0.3380 -0.0207
C15 C 0.49446(19) 0.13297(19) -0.06303(9)
C16 C 0.84255(19) 0.5630(2) 0.23418(9)
C17 C 0.2309(2) 0.6149(2) 0.16360(10)
H7 H 0.1792 0.6727 0.1807
C18 C 0.58601(19) 0.0383(2) -0.07268(9)
H8 H 0.6597 0.0234 -0.0411
C19 C 0.2650(2) 0.3988(2) 0.11852(10)
H9 H 0.2362 0.3112 0.1064
C20 C 0.3681(2) 0.0788(2) -0.16760(10)
H10 H 0.2945 0.0922 -0.1994
C21 C 0.38337(19) 0.1504(2) -0.11183(9)
H11 H 0.3196 0.2107 -0.1066
C22 C 0.51332(19) 0.2163(2) -0.00602(9)
C23 C 0.3501(2) 0.6593(2) 0.15645(9)
H12 H 0.3791 0.7464 0.1694
C24 C 0.42582(19) 0.5732(2) 0.12984(9)
H13 H 0.5058 0.6032 0.1255
C25 C 1.01656(19) 0.1725(2) 0.03455(9)
H14 H 1.1018 0.1523 0.0349
C26 C 0.5689(2) -0.0334(2) -0.12840(9)
H15 H 0.6306 -0.0964 -0.1336
C27 C 0.7527(2) 0.4705(2) 0.24685(9)
H16 H 0.7448 0.4582 0.2879
C28 C 0.1898(2) 0.4844(2) 0.14520(10)
H17 H 0.1109 0.4538 0.1508
C29 C 0.4607(2) -0.0122(2) -0.17650(10)
H18 H 0.4506 -0.0587 -0.2143
C30 C 1.0093(2) 0.7246(2) 0.27506(10)
H19 H 1.0742 0.6715 0.2622
H20 H 1.0469 0.7715 0.3134
H21 H 0.9740 0.7899 0.2430
loop_
_geom_bond_atom_site_label_1
_geom_bond_atom_site_label_2
_geom_bond_site_symmetry_1
_geom_bond_site_symmetry_2
O1 C6 1_555 1_555
O2 C16 1_555 1_555
O3 N1 1_555 1_555
N1 O4 1_555 1_555
C1 C5 1_555 1_555
C2 C4 1_555 1_555
C3 H1 1_555 1_555
C4 C19 1_555 1_555
C5 C8 1_555 1_555
C6 C2 1_555 1_555
C7 N1 1_555 1_555
C8 C7 1_555 1_555
H2 C8 1_555 1_555
C9 C1 1_555 1_555
C10 C3 1_555 1_555
C11 C3 1_555 1_555
H3 C11 1_555 1_555
C12 C10 1_555 1_555
H4 C12 1_555 1_555
C13 C5 1_555 1_555
H5 C13 1_555 1_555
C14 C13 1_555 1_555
H6 C14 1_555 1_555
C15 C18 1_555 1_555
C16 C11 1_555 1_555
C17 H7 1_555 1_555
C18 H8 1_555 1_555
C19 H9 1_555 1_555
C20 H10 1_555 1_555
C21 C15 1_555 1_555
H11 C21 1_555 1_555
C22 C1 1_555 1_555
C23 C17 1_555 1_555
H12 C23 1_555 1_555
C24 C4 1_555 1_555
H13 C24 1_555 1_555
C25 C7 1_555 1_555
H14 C25 1_555 1_555
C26 C18 1_555 1_555
H15 C26 1_555 1_555
C27 C12 1_555 1_555
H16 C27 1_555 1_555
C28 C17 1_555 1_555
H17 C28 1_555 1_555
C29 C20 1_555 1_555
H18 C29 1_555 1_555
C30 O2 1_555 1_555
H19 C30 1_555 1_555
H20 C30 1_555 1_555
H21 C30 1_555 1_555
C2 C9 1_555 1_555
C6 C22 1_555 1_555
C9 C10 1_555 1_555
C14 C25 1_555 1_555
C15 C22 1_555 1_555
C16 C27 1_555 1_555
C19 C28 1_555 1_555
C20 C21 1_555 1_555
C23 C24 1_555 1_555
C26 C29 1_555 1_555

#END
