
#######################################################################
#
#                 Cambridge Crystallographic Data Centre
#                                CCDC 
#
#######################################################################
#
# If this CIF has been generated from an entry in the Cambridge 
# Structural Database, then it will include bibliographic, chemical, 
# crystal, experimental, refinement or atomic coordinate data resulting 
# from the CCDC's data processing and validation procedures.
#
#######################################################################

data_QONWEX
_chemical_formula_moiety         'C31 H24 O3'
_chemical_name_systematic        
2,5-bis(4-Methoxyphenyl)-3,4-diphenylcyclopenta-2,4-dien-1-one
_symmetry_cell_setting           monoclinic
_symmetry_space_group_name_H-M   'P 21/c'
_symmetry_Int_Tables_number      14
_space_group_name_Hall           '-P 2ybc'
loop_
_symmetry_equiv_pos_site_id
_symmetry_equiv_pos_as_xyz
1 x,y,z
2 -x,1/2+y,1/2-z
3 -x,-y,-z
4 x,1/2-y,1/2+z
_cell_length_a                   28.369(2)
_cell_length_b                   8.0546(5)
_cell_length_c                   21.692(2)
_cell_angle_alpha                90
_cell_angle_beta                 110.523(10)
_cell_angle_gamma                90
_cell_volume                     4642.05
_exptl_crystal_colour            'dark violet'
_exptl_crystal_description       plate
_cell_formula_units_Z            8
_exptl_crystal_recrystallization_method dichloromethane/hexane
loop_
_atom_site_label
_atom_site_type_symbol
_atom_site_fract_x
_atom_site_fract_y
_atom_site_fract_z
C1 C 0.48044(11) 0.2637(3) 0.02161(14)
C2 C 0.44795(10) 0.2780(3) -0.04977(13)
C3 C 0.47936(10) 0.2708(3) -0.08482(13)
C4 C 0.53323(10) 0.2406(3) -0.03731(14)
C5 C 0.53392(10) 0.2357(3) 0.02528(14)
C6 C 0.57567(10) 0.2209(3) 0.08901(13)
C7 C 0.56690(10) 0.1552(3) 0.14380(13)
H1 H 0.5349 0.1168 0.1391
C8 C 0.60482(11) 0.1463(3) 0.20479(13)
H2 H 0.5982 0.1011 0.2404
C9 C 0.65291(10) 0.2046(3) 0.21322(13)
C10 C 0.66241(11) 0.2713(3) 0.15970(13)
H3 H 0.6943 0.3114 0.1648
C11 C 0.62431(10) 0.2779(3) 0.09864(13)
H4 H 0.6313 0.3216 0.0631
C12 C 0.57728(10) 0.2203(3) -0.05851(13)
C13 C 0.58980(10) 0.3418(3) -0.09631(13)
H5 H 0.5695 0.4351 -0.1102
C14 C 0.63228(11) 0.3235(4) -0.11300(13)
H6 H 0.6410 0.4062 -0.1370
C15 C 0.66203(11) 0.1825(4) -0.09425(14)
H7 H 0.6903 0.1701 -0.1062
C16 C 0.64950(11) 0.0599(4) -0.05768(14)
H8 H 0.6691 -0.0354 -0.0455
C17 C 0.60771(10) 0.0804(3) -0.03949(13)
H9 H 0.5998 -0.0007 -0.0141
C18 C 0.46668(10) 0.2898(3) -0.15685(13)
C19 C 0.48710(10) 0.1867(3) -0.19270(13)
H10 H 0.5101 0.1051 -0.1710
C20 C 0.47340(10) 0.2045(3) -0.26037(13)
H11 H 0.4869 0.1341 -0.2838
C21 C 0.43962(10) 0.3268(3) -0.29301(14)
H12 H 0.4301 0.3377 -0.3384
C22 C 0.42003(10) 0.4332(3) -0.25771(13)
H13 H 0.3980 0.5173 -0.2794
C23 C 0.43308(10) 0.4145(3) -0.19023(13)
H14 H 0.4194 0.4853 -0.1670
C24 C 0.39253(10) 0.2812(3) -0.07129(13)
C25 C 0.36149(11) 0.2060(3) -0.12932(14)
H15 H 0.3761 0.1582 -0.1573
C26 C 0.30959(11) 0.2001(3) -0.14671(15)
H16 H 0.2900 0.1491 -0.1858
C27 C 0.28690(11) 0.2704(3) -0.10577(15)
C28 C 0.31677(11) 0.3450(3) -0.04732(14)
H17 H 0.3019 0.3919 -0.0195
C29 C 0.36845(11) 0.3499(3) -0.03030(14)
H18 H 0.3878 0.3997 0.0091
C30 C 0.73746(11) 0.2479(4) 0.28580(16)
H19 H 0.7511 0.1868 0.2579
H20 H 0.7583 0.2314 0.3310
H21 H 0.7365 0.3639 0.2753
C31 C 0.20410(12) 0.1843(4) -0.17337(17)
H22 H 0.2057 0.2336 -0.2129
H23 H 0.1701 0.1884 -0.1741
H24 H 0.2150 0.0708 -0.1707
O1 O 0.46622(7) 0.2755(2) 0.06843(9)
O2 O 0.23587(8) 0.2731(3) -0.11791(11)
O3 O 0.68777(7) 0.1906(3) 0.27568(9)
C32 C 0.02596(10) 0.2646(3) 0.04158(14)
C33 C 0.05782(10) 0.2714(3) -0.00141(13)
C34 C 0.02515(10) 0.2687(3) -0.06449(13)
C35 C -0.02866(10) 0.2512(3) -0.06536(13)
C36 C -0.02859(10) 0.2466(3) -0.00298(13)
C37 C 0.11334(10) 0.2640(3) 0.02583(13)
C38 C 0.14073(10) 0.3248(3) 0.08882(13)
H25 H 0.1235 0.3729 0.1137
C39 C 0.19305(11) 0.3151(3) 0.11496(14)
H26 H 0.2104 0.3570 0.1567
C40 C 0.21926(11) 0.2426(3) 0.07852(15)
C41 C 0.19287(11) 0.1813(3) 0.01613(15)
H27 H 0.2102 0.1338 -0.0087
C42 C 0.14089(11) 0.1904(3) -0.00925(14)
H28 H 0.1238 0.1465 -0.0508
C43 C 0.03671(10) 0.2847(3) -0.12594(13)
C44 C 0.01427(10) 0.1823(3) -0.18073(13)
H29 H -0.0094 0.1038 -0.1795
C45 C 0.02691(10) 0.1968(3) -0.23663(14)
H30 H 0.0121 0.1272 -0.2724
C46 C 0.06175(11) 0.3153(3) -0.23924(14)
H31 H 0.0707 0.3240 -0.2765
C47 C 0.08320(11) 0.4205(3) -0.18615(14)
H32 H 0.1058 0.5019 -0.1883
C48 C 0.07109(10) 0.4047(3) -0.12989(14)
H33 H 0.0860 0.4749 -0.0943
C49 C -0.07286(10) 0.2355(3) -0.12636(13)
C50 C -0.08415(11) 0.3548(3) -0.17559(13)
H34 H -0.0639 0.4483 -0.1701
C51 C -0.12550(11) 0.3355(4) -0.23296(14)
H35 H -0.1332 0.4175 -0.2651
C52 C -0.15549(11) 0.1947(4) -0.24273(15)
H36 H -0.1825 0.1808 -0.2819
C53 C -0.14487(11) 0.0749(4) -0.19375(15)
H37 H -0.1650 -0.0191 -0.1997
C54 C -0.10422(10) 0.0958(3) -0.13596(14)
H38 H -0.0976 0.0161 -0.1030
C55 C -0.07022(10) 0.2374(3) 0.02233(13)
C56 C -0.11848(11) 0.2971(3) -0.01347(13)
H39 H -0.1244 0.3440 -0.0547
C57 C -0.15768(11) 0.2884(3) 0.01066(14)
H40 H -0.1894 0.3290 -0.0142
C58 C -0.14931(11) 0.2187(3) 0.07210(14)
C59 C -0.10144(11) 0.1605(3) 0.10929(13)
H41 H -0.0956 0.1150 0.1507
C60 C -0.06271(11) 0.1703(3) 0.08466(13)
H42 H -0.0309 0.1316 0.1100
C61 C -0.23434(13) 0.2659(6) 0.06490(19)
H43 H -0.2476 0.2155 0.0222
H44 H -0.2317 0.3837 0.0601
H45 H -0.2564 0.2435 0.0888
C62 C 0.29903(12) 0.2763(4) 0.16445(16)
H46 H 0.2949 0.3936 0.1685
H47 H 0.3340 0.2519 0.1737
H48 H 0.2875 0.2182 0.1951
O4 O 0.04120(7) 0.2742(2) 0.10141(9)
O5 O -0.18577(8) 0.1992(3) 0.09990(10)
O6 O 0.27058(8) 0.2249(3) 0.09936(11)
loop_
_geom_bond_atom_site_label_1
_geom_bond_atom_site_label_2
_geom_bond_site_symmetry_1
_geom_bond_site_symmetry_2
C1 C2 1_555 1_555
C2 C3 1_555 1_555
C3 C4 1_555 1_555
C4 C5 1_555 1_555
C5 C1 1_555 1_555
C6 C5 1_555 1_555
C7 C6 1_555 1_555
H1 C7 1_555 1_555
C8 C7 1_555 1_555
H2 C8 1_555 1_555
C9 C8 1_555 1_555
C10 C9 1_555 1_555
H3 C10 1_555 1_555
C11 C6 1_555 1_555
H4 C11 1_555 1_555
C12 C4 1_555 1_555
C13 C12 1_555 1_555
H5 C13 1_555 1_555
C14 C13 1_555 1_555
H6 C14 1_555 1_555
C15 C14 1_555 1_555
H7 C15 1_555 1_555
C16 C15 1_555 1_555
H8 C16 1_555 1_555
C17 C12 1_555 1_555
H9 C17 1_555 1_555
C18 C3 1_555 1_555
C19 C18 1_555 1_555
H10 C19 1_555 1_555
C20 C19 1_555 1_555
H11 C20 1_555 1_555
C21 C20 1_555 1_555
H12 C21 1_555 1_555
C22 C21 1_555 1_555
H13 C22 1_555 1_555
C23 C18 1_555 1_555
H14 C23 1_555 1_555
C24 C2 1_555 1_555
C25 C24 1_555 1_555
H15 C25 1_555 1_555
C26 C25 1_555 1_555
H16 C26 1_555 1_555
C27 C26 1_555 1_555
C28 C27 1_555 1_555
H17 C28 1_555 1_555
C29 C24 1_555 1_555
H18 C29 1_555 1_555
C30 H19 1_555 1_555
H20 C30 1_555 1_555
H21 C30 1_555 1_555
C31 H22 1_555 1_555
H23 C31 1_555 1_555
H24 C31 1_555 1_555
O1 C1 1_555 1_555
O2 C27 1_555 1_555
O3 C9 1_555 1_555
C32 C33 1_555 1_555
C33 C34 1_555 1_555
C34 C35 1_555 1_555
C35 C36 1_555 1_555
C36 C32 1_555 1_555
C37 C33 1_555 1_555
C38 C37 1_555 1_555
H25 C38 1_555 1_555
C39 C38 1_555 1_555
H26 C39 1_555 1_555
C40 C39 1_555 1_555
C41 C40 1_555 1_555
H27 C41 1_555 1_555
C42 C37 1_555 1_555
H28 C42 1_555 1_555
C43 C34 1_555 1_555
C44 C43 1_555 1_555
H29 C44 1_555 1_555
C45 C44 1_555 1_555
H30 C45 1_555 1_555
C46 C45 1_555 1_555
H31 C46 1_555 1_555
C47 C46 1_555 1_555
H32 C47 1_555 1_555
C48 C43 1_555 1_555
H33 C48 1_555 1_555
C49 C35 1_555 1_555
C50 C49 1_555 1_555
H34 C50 1_555 1_555
C51 C50 1_555 1_555
H35 C51 1_555 1_555
C52 C51 1_555 1_555
H36 C52 1_555 1_555
C53 C52 1_555 1_555
H37 C53 1_555 1_555
C54 C49 1_555 1_555
H38 C54 1_555 1_555
C55 C36 1_555 1_555
C56 C55 1_555 1_555
H39 C56 1_555 1_555
C57 C56 1_555 1_555
H40 C57 1_555 1_555
C58 C57 1_555 1_555
C59 C58 1_555 1_555
H41 C59 1_555 1_555
C60 C55 1_555 1_555
H42 C60 1_555 1_555
C61 H43 1_555 1_555
H44 C61 1_555 1_555
H45 C61 1_555 1_555
C62 H46 1_555 1_555
H47 C62 1_555 1_555
H48 C62 1_555 1_555
O4 C32 1_555 1_555
O5 C58 1_555 1_555
O6 C40 1_555 1_555
C10 C11 1_555 1_555
C16 C17 1_555 1_555
C22 C23 1_555 1_555
C28 C29 1_555 1_555
C30 O3 1_555 1_555
C31 O2 1_555 1_555
C41 C42 1_555 1_555
C47 C48 1_555 1_555
C53 C54 1_555 1_555
C59 C60 1_555 1_555
C61 O5 1_555 1_555
C62 O6 1_555 1_555

#END
