
#######################################################################
#
#                 Cambridge Crystallographic Data Centre
#                                CCDC 
#
#######################################################################
#
# If this CIF has been generated from an entry in the Cambridge 
# Structural Database, then it will include bibliographic, chemical, 
# crystal, experimental, refinement or atomic coordinate data resulting 
# from the CCDC's data processing and validation procedures.
#
#######################################################################

data_QONWIB
_chemical_formula_moiety         'C29 H18 N2 O5'
_chemical_name_systematic        
2,5-bis(4-Nitrophenyl)-3,4-diphenylcyclopenta-2,4-dien-1-one
_symmetry_cell_setting           monoclinic
_symmetry_space_group_name_H-M   'C 2/c'
_symmetry_Int_Tables_number      15
_space_group_name_Hall           '-C 2yn'
loop_
_symmetry_equiv_pos_site_id
_symmetry_equiv_pos_as_xyz
1 x,y,z
2 -x,y,1/2-z
3 1/2+x,1/2+y,z
4 1/2-x,1/2+y,1/2-z
5 -x,-y,-z
6 x,-y,1/2+z
7 1/2-x,1/2-y,-z
8 1/2+x,1/2-y,1/2+z
_cell_length_a                   28.491(2)
_cell_length_b                   9.4151(6)
_cell_length_c                   18.4113(13)
_cell_angle_alpha                90
_cell_angle_beta                 108.531(8)
_cell_angle_gamma                90
_cell_volume                     4682.69
_exptl_crystal_colour            'dark red'
_exptl_crystal_description       block
_cell_formula_units_Z            8
_exptl_crystal_recrystallization_method dichloromethane/hexane
loop_
_atom_site_label
_atom_site_type_symbol
_atom_site_fract_x
_atom_site_fract_y
_atom_site_fract_z
C1 C 0.06670(10) 0.7027(3) 0.11792(15)
C2 C 0.11294(10) 0.7110(3) 0.18584(14)
C3 C 0.14694(10) 0.7796(2) 0.16187(13)
C4 C 0.12351(10) 0.8262(2) 0.07962(13)
C5 C 0.07657(10) 0.7796(3) 0.05297(14)
C6 C 0.03849(10) 0.8041(3) -0.02196(15)
C7 C 0.00681(11) 0.6952(3) -0.05858(16)
H1 H 0.0095 0.6066 -0.0352
C8 C -0.02877(11) 0.7162(3) -0.12932(17)
H2 H -0.0494 0.6425 -0.1541
C9 C -0.03271(10) 0.8488(3) -0.16172(16)
C10 C -0.00217(11) 0.9601(3) -0.12726(16)
H3 H -0.0056 1.0488 -0.1506
C11 C 0.03367(11) 0.9369(3) -0.05727(15)
H4 H 0.0547 1.0105 -0.0335
C12 C 0.15025(9) 0.9156(2) 0.03999(13)
C13 C 0.15226(10) 0.8791(3) -0.03243(13)
H5 H 0.1380 0.7948 -0.0554
C14 C 0.17542(11) 0.9681(3) -0.06987(15)
H6 H 0.1770 0.9426 -0.1178
C15 C 0.19625(10) 1.0942(3) -0.03720(14)
H7 H 0.2115 1.1540 -0.0631
C16 C 0.19431(10) 1.1311(3) 0.03447(14)
H8 H 0.2082 1.2164 0.0567
C17 C 0.17194(10) 1.0421(3) 0.07306(14)
H9 H 0.1714 1.0669 0.1217
C18 C 0.19908(10) 0.8084(2) 0.20468(13)
C19 C 0.23693(10) 0.7658(2) 0.17680(14)
H10 H 0.2292 0.7236 0.1288
C20 C 0.28575(10) 0.7857(3) 0.21982(15)
H11 H 0.3108 0.7544 0.2015
C21 C 0.29747(11) 0.8528(3) 0.29065(15)
H12 H 0.3304 0.8655 0.3200
C22 C 0.26019(11) 0.9004(3) 0.31732(15)
H13 H 0.2680 0.9481 0.3639
C23 C 0.21141(11) 0.8775(3) 0.27509(14)
H14 H 0.1864 0.9084 0.2938
C24 C 0.11720(10) 0.6537(3) 0.26246(14)
C25 C 0.07703(11) 0.6626(3) 0.29043(15)
H15 H 0.0471 0.6989 0.2590
C26 C 0.08079(11) 0.6187(3) 0.36396(16)
H16 H 0.0542 0.6271 0.3826
C27 C 0.12536(10) 0.5619(3) 0.40878(14)
C28 C 0.16538(10) 0.5473(3) 0.38279(14)
H17 H 0.1947 0.5068 0.4137
C29 C 0.16106(10) 0.5942(2) 0.30976(14)
H18 H 0.1880 0.5858 0.2918
N1 N -0.07124(10) 0.8745(3) -0.23594(16)
N2 N 0.13042(9) 0.5192(2) 0.48801(12)
O1 O 0.02819(7) 0.6447(2) 0.11630(11)
O2 O -0.09493(9) 0.7712(3) -0.27057(14)
O3 O -0.07704(9) 0.9962(3) -0.26081(13)
O4 O 0.09670(8) 0.5470(2) 0.51383(11)
O5 O 0.16859(7) 0.4581(2) 0.52504(10)
loop_
_geom_bond_atom_site_label_1
_geom_bond_atom_site_label_2
_geom_bond_site_symmetry_1
_geom_bond_site_symmetry_2
C1 C2 1_555 1_555
C2 C3 1_555 1_555
C3 C4 1_555 1_555
C4 C5 1_555 1_555
C5 C1 1_555 1_555
C6 C5 1_555 1_555
C7 C6 1_555 1_555
H1 C7 1_555 1_555
C8 C7 1_555 1_555
H2 C8 1_555 1_555
C9 C8 1_555 1_555
C10 C9 1_555 1_555
H3 C10 1_555 1_555
C11 C6 1_555 1_555
H4 C11 1_555 1_555
C12 C4 1_555 1_555
C13 C12 1_555 1_555
H5 C13 1_555 1_555
C14 C13 1_555 1_555
H6 C14 1_555 1_555
C15 C14 1_555 1_555
H7 C15 1_555 1_555
C16 C15 1_555 1_555
H8 C16 1_555 1_555
C17 C12 1_555 1_555
H9 C17 1_555 1_555
C18 C3 1_555 1_555
C19 C18 1_555 1_555
H10 C19 1_555 1_555
C20 C19 1_555 1_555
H11 C20 1_555 1_555
C21 C20 1_555 1_555
H12 C21 1_555 1_555
C22 C21 1_555 1_555
H13 C22 1_555 1_555
C23 C18 1_555 1_555
H14 C23 1_555 1_555
C24 C2 1_555 1_555
C25 C24 1_555 1_555
H15 C25 1_555 1_555
C26 C25 1_555 1_555
H16 C26 1_555 1_555
C27 C26 1_555 1_555
C28 C27 1_555 1_555
H17 C28 1_555 1_555
C29 C24 1_555 1_555
H18 C29 1_555 1_555
N1 C9 1_555 1_555
N2 C27 1_555 1_555
O1 C1 1_555 1_555
O2 N1 1_555 1_555
O3 N1 1_555 1_555
O4 N2 1_555 1_555
O5 N2 1_555 1_555
C10 C11 1_555 1_555
C16 C17 1_555 1_555
C22 C23 1_555 1_555
C28 C29 1_555 1_555

#END
