
#######################################################################
#
#                 Cambridge Crystallographic Data Centre
#                                CCDC 
#
#######################################################################
#
# If this CIF has been generated from an entry in the Cambridge 
# Structural Database, then it will include bibliographic, chemical, 
# crystal, experimental, refinement or atomic coordinate data resulting 
# from the CCDC's data processing and validation procedures.
#
#######################################################################

data_QONYIC
_chemical_formula_moiety         'C18 H16 N2 S4'
_chemical_name_systematic        
5-(4,5-bis(Ethylsulfanyl)-1,3-dithiol-2-ylidene)-5H-pyrido[3',2':4,5]cyclopenta[1,2-b]pyridine
_symmetry_cell_setting           triclinic
_symmetry_space_group_name_H-M   'P -1'
_symmetry_Int_Tables_number      2
_space_group_name_Hall           '-P 1'
loop_
_symmetry_equiv_pos_site_id
_symmetry_equiv_pos_as_xyz
1 x,y,z
2 -x,-y,-z
_cell_length_a                   9.894(3)
_cell_length_b                   13.952(4)
_cell_length_c                   14.722(4)
_cell_angle_alpha                106.546(3)
_cell_angle_beta                 106.556(3)
_cell_angle_gamma                103.482(3)
_cell_volume                     1754.69
_exptl_crystal_colour            yellow
_exptl_crystal_description       block
_cell_formula_units_Z            4
loop_
_atom_site_label
_atom_site_type_symbol
_atom_site_fract_x
_atom_site_fract_y
_atom_site_fract_z
S1 S 0.42630(10) 0.40832(8) 0.31754(7)
S2 S 0.72306(10) 0.40803(8) 0.42400(8)
S3 S 0.52526(11) 0.49525(9) 0.17169(8)
S4 S 0.86439(11) 0.50159(8) 0.29962(8)
N1 N 0.1992(4) 0.2493(2) 0.5747(2)
N2 N 0.5047(4) 0.2413(3) 0.6820(2)
C1 C 0.0789(4) 0.2628(3) 0.5183(3)
H1 H -0.0103 0.2437 0.5313
C2 C 0.0746(4) 0.3026(3) 0.4419(3)
H2 H -0.0154 0.3102 0.4047
C3 C 0.2014(4) 0.3316(3) 0.4197(3)
H3 H 0.2004 0.3582 0.3669
C4 C 0.3304(4) 0.3201(3) 0.4777(3)
C5 C 0.3223(4) 0.2800(3) 0.5546(3)
C6 C 0.6491(5) 0.2463(3) 0.7173(3)
H4 H 0.6792 0.2204 0.7702
C7 C 0.7555(5) 0.2865(3) 0.6819(3)
H5 H 0.8556 0.2890 0.7115
C8 C 0.7174(4) 0.3232(3) 0.6034(3)
H6 H 0.7892 0.3509 0.5779
C9 C 0.5687(4) 0.3176(3) 0.5638(3)
C10 C 0.4697(4) 0.2768(3) 0.6063(3)
C11 C 0.4847(4) 0.3442(3) 0.4796(3)
C12 C 0.5386(4) 0.3824(3) 0.4166(3)
C13 C 0.5665(4) 0.4558(3) 0.2757(3)
C14 C 0.7039(4) 0.4559(3) 0.3258(3)
C15 C 0.3289(4) 0.4816(3) 0.1415(3)
H7 H 0.2680 0.4068 0.1238
H8 H 0.3160 0.5274 0.2012
C16 C 0.2785(5) 0.5149(4) 0.0512(3)
H9 H 0.3353 0.5901 0.0708
H10 H 0.1712 0.5044 0.0308
H11 H 0.2966 0.4715 -0.0064
C17 C 0.8416(4) 0.3866(3) 0.1932(3)
H12 H 0.8364 0.3243 0.2133
H13 H 0.7480 0.3690 0.1347
C18 C 0.9768(5) 0.4146(4) 0.1638(4)
H14 H 0.9849 0.4794 0.1488
H15 H 0.9647 0.3559 0.1030
H16 H 1.0680 0.4267 0.2205
S5 S 0.21691(10) 0.09480(8) 0.20890(7)
S6 S 0.46158(10) 0.16524(8) 0.14466(8)
S7 S 0.41029(10) 0.05118(8) 0.38141(8)
S8 S 0.68978(10) 0.13657(8) 0.30874(8)
N3 N -0.1802(3) 0.1779(2) -0.0903(2)
N4 N 0.0667(4) 0.2437(2) -0.1664(2)
C19 C -0.2702(4) 0.1442(3) -0.0444(3)
H17 H -0.3712 0.1417 -0.0698
C20 C -0.2265(4) 0.1130(3) 0.0369(3)
H18 H -0.2962 0.0904 0.0660
C21 C -0.0799(4) 0.1146(3) 0.0762(3)
H19 H -0.0479 0.0927 0.1319
C22 C 0.0178(4) 0.1490(3) 0.0318(3)
C23 C -0.0395(4) 0.1796(3) -0.0517(3)
C24 C 0.1918(5) 0.2671(3) -0.1868(3)
H20 H 0.1880 0.2892 -0.2426
C25 C 0.3263(5) 0.2609(3) -0.1309(3)
H21 H 0.4110 0.2786 -0.1491
C26 C 0.3381(4) 0.2290(3) -0.0487(3)
H22 H 0.4301 0.2259 -0.0090
C27 C 0.2096(4) 0.2019(3) -0.0270(3)
C28 C 0.0792(4) 0.2114(3) -0.0887(3)
C29 C 0.1760(4) 0.1628(3) 0.0497(3)
C30 C 0.2726(4) 0.1441(3) 0.1241(3)
C31 C 0.3904(4) 0.0919(3) 0.2786(3)
C32 C 0.5032(4) 0.1248(3) 0.2483(3)
C33 C 0.2189(4) 0.0011(3) 0.3714(3)
H23 H 0.1715 0.0559 0.3687
H24 H 0.1610 -0.0626 0.3077
C34 C 0.2168(5) -0.0274(3) 0.4629(3)
H25 H 0.2645 -0.0813 0.4656
H26 H 0.1128 -0.0558 0.4567
H27 H 0.2718 0.0363 0.5257
C35 C 0.6912(4) 0.0036(3) 0.2534(3)
H28 H 0.6264 -0.0464 0.2723
H29 H 0.6530 -0.0207 0.1778
C36 C 0.8522(4) 0.0072(3) 0.2946(3)
H30 H 0.9157 0.0583 0.2769
H31 H 0.8572 -0.0636 0.2643
H32 H 0.8878 0.0291 0.3691
loop_
_geom_bond_atom_site_label_1
_geom_bond_atom_site_label_2
_geom_bond_site_symmetry_1
_geom_bond_site_symmetry_2
S1 C12 1_555 1_555
S2 C12 1_555 1_555
S3 C13 1_555 1_555
S4 C14 1_555 1_555
S5 C30 1_555 1_555
S6 C30 1_555 1_555
S7 C31 1_555 1_555
S8 C32 1_555 1_555
N1 C1 1_555 1_555
N2 C6 1_555 1_555
N3 C19 1_555 1_555
N4 C24 1_555 1_555
C1 H1 1_555 1_555
C2 C1 1_555 1_555
H2 C2 1_555 1_555
C3 C2 1_555 1_555
H3 C3 1_555 1_555
C4 C3 1_555 1_555
C5 N1 1_555 1_555
C6 H4 1_555 1_555
C7 C6 1_555 1_555
H5 C7 1_555 1_555
C8 C7 1_555 1_555
H6 C8 1_555 1_555
C9 C8 1_555 1_555
C10 N2 1_555 1_555
C11 C4 1_555 1_555
C12 C11 1_555 1_555
C13 S1 1_555 1_555
C14 S2 1_555 1_555
C15 S3 1_555 1_555
H7 C15 1_555 1_555
H8 C15 1_555 1_555
C16 C15 1_555 1_555
H9 C16 1_555 1_555
H10 C16 1_555 1_555
H11 C16 1_555 1_555
C17 S4 1_555 1_555
H12 C17 1_555 1_555
H13 C17 1_555 1_555
C18 C17 1_555 1_555
H14 C18 1_555 1_555
H15 C18 1_555 1_555
H16 C18 1_555 1_555
C19 H17 1_555 1_555
C20 C19 1_555 1_555
H18 C20 1_555 1_555
C21 C20 1_555 1_555
H19 C21 1_555 1_555
C22 C21 1_555 1_555
C23 N3 1_555 1_555
C24 H20 1_555 1_555
C25 C24 1_555 1_555
H21 C25 1_555 1_555
C26 C25 1_555 1_555
H22 C26 1_555 1_555
C27 C26 1_555 1_555
C28 N4 1_555 1_555
C29 C22 1_555 1_555
C30 C29 1_555 1_555
C31 S5 1_555 1_555
C32 S6 1_555 1_555
C33 S7 1_555 1_555
H23 C33 1_555 1_555
H24 C33 1_555 1_555
C34 C33 1_555 1_555
H25 C34 1_555 1_555
H26 C34 1_555 1_555
H27 C34 1_555 1_555
C35 S8 1_555 1_555
H28 C35 1_555 1_555
H29 C35 1_555 1_555
C36 C35 1_555 1_555
H30 C36 1_555 1_555
H31 C36 1_555 1_555
H32 C36 1_555 1_555
C4 C5 1_555 1_555
C5 C10 1_555 1_555
C9 C10 1_555 1_555
C9 C11 1_555 1_555
C13 C14 1_555 1_555
C22 C23 1_555 1_555
C23 C28 1_555 1_555
C27 C28 1_555 1_555
C27 C29 1_555 1_555
C31 C32 1_555 1_555

#END
