
#######################################################################
#
#                 Cambridge Crystallographic Data Centre
#                                CCDC 
#
#######################################################################
#
# If this CIF has been generated from an entry in the Cambridge 
# Structural Database, then it will include bibliographic, chemical, 
# crystal, experimental, refinement or atomic coordinate data resulting 
# from the CCDC's data processing and validation procedures.
#
#######################################################################

data_QONYOI
_chemical_formula_moiety         'C18 H17 N2 S4 1+,C1 F3 O3 S1 1-'
_chemical_name_systematic        
"5-(4,5-bis(Ethylsulfanyl)-1,3-dithiol-2-ylidene)-5H-pyrido[3',2':4,5]cyclopenta[1,2-b]pyridinium trifluoromethanesulfonate"
_symmetry_cell_setting           triclinic
_symmetry_space_group_name_H-M   'P -1'
_symmetry_Int_Tables_number      2
_space_group_name_Hall           '-P 1'
loop_
_symmetry_equiv_pos_site_id
_symmetry_equiv_pos_as_xyz
1 x,y,z
2 -x,-y,-z
_cell_length_a                   9.1270(15)
_cell_length_b                   11.4047(15)
_cell_length_c                   11.9020(18)
_cell_angle_alpha                71.207(11)
_cell_angle_beta                 82.276(12)
_cell_angle_gamma                79.411(12)
_cell_volume                     1149.1
_exptl_crystal_colour            red
_exptl_crystal_description       block
_cell_formula_units_Z            2
loop_
_atom_site_label
_atom_site_type_symbol
_atom_site_fract_x
_atom_site_fract_y
_atom_site_fract_z
S1 S 0.65506(8) 0.58591(7) 0.82781(6)
S2 S 0.46764(8) 0.71933(7) 0.97775(6)
S3 S 0.51229(10) 0.74426(8) 0.60525(7)
S4 S 0.28837(10) 0.89252(8) 0.77712(8)
N1 N 0.8006(3) 0.4550(2) 1.3618(2)
H1 H 0.871(4) 0.409(3) 1.402(3)
N2 N 0.9996(3) 0.3043(2) 1.2123(2)
C1 C 0.7016(4) 0.5242(3) 1.4174(3)
H2 H 0.7121 0.5191 1.4956
C2 C 0.5851(4) 0.6026(3) 1.3587(3)
H3 H 0.5158 0.6499 1.3977
C3 C 0.5686(3) 0.6126(3) 1.2421(3)
H4 H 0.4876 0.6645 1.2034
C4 C 0.6746(3) 0.5441(2) 1.1836(2)
C5 C 0.7890(3) 0.4618(3) 1.2492(2)
C6 C 1.0655(3) 0.2518(3) 1.1291(3)
H5 H 1.1474 0.1893 1.1488
C7 C 1.0192(3) 0.2849(3) 1.0150(3)
H6 H 1.0702 0.2445 0.9615
C8 C 0.8990(3) 0.3766(3) 0.9802(3)
H7 H 0.8677 0.3997 0.9038
C9 C 0.8259(3) 0.4336(2) 1.0643(2)
C10 C 0.8827(3) 0.3921(3) 1.1769(2)
C11 C 0.6969(3) 0.5314(2) 1.0637(2)
C12 C 0.6170(3) 0.6026(2) 0.9686(2)
C13 C 0.5250(3) 0.7120(3) 0.7573(2)
C14 C 0.4368(3) 0.7747(3) 0.8268(2)
C15 C 0.6956(4) 0.7881(4) 0.5471(3)
H8 H 0.7714 0.7191 0.5827
H9 H 0.7066 0.8015 0.4619
C16 C 0.7233(5) 0.9037(4) 0.5700(4)
H10 H 0.6519 0.9736 0.5319
H11 H 0.8225 0.9201 0.5387
H12 H 0.7131 0.8914 0.6542
C17 C 0.255(3) 0.979(3) 0.883(3)
H13 H 0.1572 1.0304 0.8723
H14 H 0.2505 0.9198 0.9624
C18 C 0.3655(15) 1.0608(15) 0.876(2)
H15 H 0.3368 1.1035 0.9349
H16 H 0.3700 1.1212 0.7982
H17 H 0.4620 1.0110 0.8902
S5 S 0.93856(10) 0.29903(8) 0.66511(7)
F1 F 0.9590(4) 0.0647(3) 0.6821(4)
F2 F 0.8139(5) 0.1199(4) 0.8139(4)
F3 F 0.7470(4) 0.1725(4) 0.6384(5)
O1 O 0.9808(3) 0.3255(3) 0.5408(2)
O2 O 1.0626(3) 0.2664(3) 0.7362(2)
O3 O 0.8146(3) 0.3849(3) 0.6933(2)
C19 C 0.8624(6) 0.1561(5) 0.7024(6)
C20? C 0.306(3) 0.998(3) 0.857(3)
C21? C 0.4495(14) 1.0478(15) 0.827(2)
H18? H 0.2245 1.0681 0.8400
H19? H 0.2958 0.9551 0.9421
H20? H 0.4537 1.1019 0.8733
H21? H 0.4580 1.0941 0.7437
H22? H 0.5304 0.9794 0.8437
loop_
_geom_bond_atom_site_label_1
_geom_bond_atom_site_label_2
_geom_bond_site_symmetry_1
_geom_bond_site_symmetry_2
S1 C12 1_555 1_555
S2 C12 1_555 1_555
S3 C13 1_555 1_555
S4 C14 1_555 1_555
S5 O1 1_555 1_555
F1 C19 1_555 1_555
F2 C19 1_555 1_555
F3 C19 1_555 1_555
O2 S5 1_555 1_555
O3 S5 1_555 1_555
N1 H1 1_555 1_555
N2 C6 1_555 1_555
C1 N1 1_555 1_555
H2 C1 1_555 1_555
C2 C1 1_555 1_555
H3 C2 1_555 1_555
C3 C2 1_555 1_555
H4 C3 1_555 1_555
C4 C3 1_555 1_555
C5 N1 1_555 1_555
C6 H5 1_555 1_555
C7 C6 1_555 1_555
H6 C7 1_555 1_555
C8 C7 1_555 1_555
H7 C8 1_555 1_555
C9 C8 1_555 1_555
C10 N2 1_555 1_555
C11 C4 1_555 1_555
C12 C11 1_555 1_555
C13 S1 1_555 1_555
C14 S2 1_555 1_555
C15 S3 1_555 1_555
H8 C15 1_555 1_555
H9 C15 1_555 1_555
C16 C15 1_555 1_555
H10 C16 1_555 1_555
H11 C16 1_555 1_555
H12 C16 1_555 1_555
C17 S4 1_555 1_555
H13 C17 1_555 1_555
H14 C17 1_555 1_555
C18 C17 1_555 1_555
H15 C18 1_555 1_555
H16 C18 1_555 1_555
H17 C18 1_555 1_555
C19 S5 1_555 1_555
C4 C5 1_555 1_555
C5 C10 1_555 1_555
C9 C10 1_555 1_555
C9 C11 1_555 1_555
C13 C14 1_555 1_555

#END
