
#######################################################################
#
#                 Cambridge Crystallographic Data Centre
#                                CCDC 
#
#######################################################################
#
# If this CIF has been generated from an entry in the Cambridge 
# Structural Database, then it will include bibliographic, chemical, 
# crystal, experimental, refinement or atomic coordinate data resulting 
# from the CCDC's data processing and validation procedures.
#
#######################################################################

data_QONZAV
_chemical_formula_moiety         '2(C16 H13 N2 S4 1+),C1 H4 O1,2(Cl1 O4 1-)'
_chemical_name_systematic        
"5-(4,5-bis(Methylsulfanyl)-1,3-dithiol-2-ylidene)-5H-pyrido[3',2':4,5]cyclopenta[1,2-b]pyridinium perchlorate methanol solvate"
_symmetry_cell_setting           triclinic
_symmetry_space_group_name_H-M   'P -1'
_symmetry_Int_Tables_number      2
_space_group_name_Hall           '-P 1'
loop_
_symmetry_equiv_pos_site_id
_symmetry_equiv_pos_as_xyz
1 x,y,z
2 -x,-y,-z
_cell_length_a                   12.3485(8)
_cell_length_b                   13.1326(10)
_cell_length_c                   15.2098(13)
_cell_angle_alpha                69.981(13)
_cell_angle_beta                 67.801(13)
_cell_angle_gamma                62.584(12)
_cell_volume                     1984.23
_exptl_crystal_colour            red
_exptl_crystal_description       block
_cell_formula_units_Z            2
loop_
_atom_site_label
_atom_site_type_symbol
_atom_site_fract_x
_atom_site_fract_y
_atom_site_fract_z
Cl1 Cl 0.75352(11) 0.69105(10) 0.15029(9)
O2 O 0.6587(4) 0.6897(4) 0.1208(4)
O3 O 0.7172(4) 0.8054(3) 0.1617(3)
O4 O 0.7667(5) 0.6091(3) 0.2373(3)
O5 O 0.8686(4) 0.6601(4) 0.0784(3)
Cl2 Cl 0.27916(9) 0.26353(8) 0.42074(8)
O6 O 0.1959(4) 0.3313(4) 0.3605(3)
O7 O 0.2100(3) 0.2644(3) 0.5205(2)
O8 O 0.3716(4) 0.3105(4) 0.3939(3)
O9 O 0.3386(4) 0.1486(3) 0.4067(3)
S1 S -0.07199(8) 0.96556(7) 0.39703(7)
S2 S 0.08791(9) 1.09615(7) 0.33928(7)
S3 S -0.28989(10) 1.17699(8) 0.33294(8)
S4 S -0.11387(10) 1.32534(8) 0.27222(8)
N1 N 0.4876(3) 0.6871(3) 0.4379(2)
H2 H 0.531(4) 0.611(4) 0.454(3)
N2 N 0.3142(3) 0.5476(2) 0.5110(2)
C1 C 0.5471(4) 0.7617(3) 0.4035(4)
H4 H 0.6322 0.7335 0.4010
C2 C 0.4842(4) 0.8790(3) 0.3717(4)
H5 H 0.5267 0.9297 0.3491
C3 C 0.3586(3) 0.9224(3) 0.3730(3)
H6 H 0.3161 1.0018 0.3509
C4 C 0.2969(3) 0.8457(3) 0.4076(2)
C5 C 0.3655(3) 0.7266(3) 0.4403(2)
C6 C 0.2195(4) 0.5110(3) 0.5356(3)
H7 H 0.2357 0.4319 0.5621
C7 C 0.0998(4) 0.5831(3) 0.5241(3)
H8 H 0.0387 0.5517 0.5427
C8 C 0.0703(3) 0.7007(3) 0.4855(3)
H9 H -0.0100 0.7499 0.4771
C9 C 0.1642(3) 0.7432(3) 0.4596(2)
C10 C 0.2846(3) 0.6627(3) 0.4733(2)
C11 C 0.1694(3) 0.8592(3) 0.4172(2)
C12 C 0.0744(3) 0.9607(3) 0.3881(2)
C13 C -0.1343(3) 1.1135(3) 0.3420(2)
C14 C -0.0599(3) 1.1738(3) 0.3148(2)
C15 C -0.3376(4) 1.0553(3) 0.3756(3)
H10 H -0.2839 0.9993 0.3346
H11 H -0.4237 1.0820 0.3743
H12 H -0.3307 1.0191 0.4409
C16 C 0.0256(5) 1.3492(4) 0.1950(4)
H13 H 0.0815 1.3307 0.2330
H14 H 0.0037 1.4298 0.1619
H15 H 0.0671 1.2999 0.1482
S5 S 0.79974(10) 0.02904(10) 0.11592(8)
S6 S 0.91963(11) 0.19542(9) 0.05575(8)
S7 S 0.56316(12) 0.20689(14) 0.05720(10)
S8 S 0.69611(13) 0.39837(11) -0.00778(10)
N3 N 1.2189(5) -0.3232(4) 0.2442(3)
H3 H 1.295(3) -0.355(5) 0.253(4)
N4 N 1.3503(4) -0.1504(3) 0.1726(3)
C17 C 1.1509(6) -0.3877(4) 0.2699(4)
H16 H 1.1835 -0.4665 0.2989
C18 C 1.0325(6) -0.3399(4) 0.2544(3)
H17 H 0.9855 -0.3861 0.2736
C19 C 0.9831(5) -0.2220(4) 0.2099(3)
H18 H 0.9035 -0.1891 0.1988
C20 C 1.0549(4) -0.1552(4) 0.1826(3)
C21 C 1.1744(4) -0.2099(4) 0.2020(3)
C22 C 1.3886(5) -0.0606(5) 0.1310(3)
H19 H 1.4677 -0.0715 0.1327
C23 C 1.3174(4) 0.0466(4) 0.0858(3)
H20 H 1.3497 0.1053 0.0577
C24 C 1.1992(4) 0.0686(4) 0.0814(3)
H21 H 1.1514 0.1411 0.0502
C25 C 1.1533(4) -0.0208(4) 0.1250(3)
C26 C 1.2360(4) -0.1283(4) 0.1671(3)
C27 C 1.0368(4) -0.0334(3) 0.1353(3)
C28 C 0.9313(4) 0.0515(3) 0.1069(3)
C29 C 0.7119(4) 0.1737(4) 0.0702(3)
C30 C 0.7666(4) 0.2506(4) 0.0428(3)
C31 C 0.4633(6) 0.2448(10) 0.1675(5)
H22 H 0.4771 0.1764 0.2186
H23 H 0.3769 0.2769 0.1652
H24 H 0.4806 0.3022 0.1797
C32 C 0.7939(6) 0.4621(4) -0.0019(5)
H25 H 0.7985 0.4436 0.0637
H26 H 0.7582 0.5456 -0.0231
H27 H 0.8774 0.4312 -0.0432
O1 O 0.4514(3) 0.6000(3) 0.2636(3)
H1 H 0.4850 0.6441 0.2229
C33 C 0.5396(5) 0.4859(4) 0.2709(5)
H28 H 0.6124 0.4824 0.2826
H29 H 0.5643 0.4608 0.2115
H30 H 0.5031 0.4356 0.3236
loop_
_geom_bond_atom_site_label_1
_geom_bond_atom_site_label_2
_geom_bond_site_symmetry_1
_geom_bond_site_symmetry_2
Cl1 O2 1_555 1_555
Cl2 O6 1_555 1_555
S1 C12 1_555 1_555
S2 C12 1_555 1_555
S3 C13 1_555 1_555
S4 C14 1_555 1_555
S5 C28 1_555 1_555
S6 C28 1_555 1_555
S7 C29 1_555 1_555
S8 C30 1_555 1_555
O1 H1 1_555 1_555
O3 Cl1 1_555 1_555
O4 Cl1 1_555 1_555
O5 Cl1 1_555 1_555
O7 Cl2 1_555 1_555
O8 Cl2 1_555 1_555
O9 Cl2 1_555 1_555
N1 H2 1_555 1_555
N2 C6 1_555 1_555
N3 H3 1_555 1_555
N4 C22 1_555 1_555
C1 N1 1_555 1_555
H4 C1 1_555 1_555
C2 C1 1_555 1_555
H5 C2 1_555 1_555
C3 C2 1_555 1_555
H6 C3 1_555 1_555
C4 C3 1_555 1_555
C5 N1 1_555 1_555
C6 H7 1_555 1_555
C7 C6 1_555 1_555
H8 C7 1_555 1_555
C8 C7 1_555 1_555
H9 C8 1_555 1_555
C9 C8 1_555 1_555
C10 N2 1_555 1_555
C11 C4 1_555 1_555
C12 C11 1_555 1_555
C13 S1 1_555 1_555
C14 S2 1_555 1_555
C15 S3 1_555 1_555
H10 C15 1_555 1_555
H11 C15 1_555 1_555
H12 C15 1_555 1_555
C16 S4 1_555 1_555
H13 C16 1_555 1_555
H14 C16 1_555 1_555
H15 C16 1_555 1_555
C17 N3 1_555 1_555
H16 C17 1_555 1_555
C18 C17 1_555 1_555
H17 C18 1_555 1_555
C19 C18 1_555 1_555
H18 C19 1_555 1_555
C20 C19 1_555 1_555
C21 N3 1_555 1_555
C22 H19 1_555 1_555
C23 C22 1_555 1_555
H20 C23 1_555 1_555
C24 C23 1_555 1_555
H21 C24 1_555 1_555
C25 C24 1_555 1_555
C26 N4 1_555 1_555
C27 C20 1_555 1_555
C28 C27 1_555 1_555
C29 S5 1_555 1_555
C30 S6 1_555 1_555
C31 S7 1_555 1_555
H22 C31 1_555 1_555
H23 C31 1_555 1_555
H24 C31 1_555 1_555
C32 S8 1_555 1_555
H25 C32 1_555 1_555
H26 C32 1_555 1_555
H27 C32 1_555 1_555
C33 O1 1_555 1_555
H28 C33 1_555 1_555
H29 C33 1_555 1_555
H30 C33 1_555 1_555
C4 C5 1_555 1_555
C5 C10 1_555 1_555
C9 C10 1_555 1_555
C9 C11 1_555 1_555
C13 C14 1_555 1_555
C20 C21 1_555 1_555
C21 C26 1_555 1_555
C25 C26 1_555 1_555
C25 C27 1_555 1_555
C29 C30 1_555 1_555

#END
