
#######################################################################
#
#                 Cambridge Crystallographic Data Centre
#                                CCDC 
#
#######################################################################
#
# If this CIF has been generated from an entry in the Cambridge 
# Structural Database, then it will include bibliographic, chemical, 
# crystal, experimental, refinement or atomic coordinate data resulting 
# from the CCDC's data processing and validation procedures.
#
#######################################################################

data_QOPCIH
_chemical_formula_moiety         'C14 H20 O2 Se2'
_chemical_name_systematic        
2,3-Benzo-7,12-diselena-1,4-dioxacyclotetradecan-2-ene
_symmetry_cell_setting           monoclinic
_symmetry_space_group_name_H-M   'P 21/c'
_symmetry_Int_Tables_number      14
_space_group_name_Hall           '-P 2ybc'
loop_
_symmetry_equiv_pos_site_id
_symmetry_equiv_pos_as_xyz
1 x,y,z
2 -x,1/2+y,1/2-z
3 -x,-y,-z
4 x,1/2-y,1/2+z
_cell_length_a                   30.764(3)
_cell_length_b                   11.2260(12)
_cell_length_c                   8.6989(10)
_cell_angle_alpha                90
_cell_angle_beta                 96.990(2)
_cell_angle_gamma                90
_cell_volume                     2981.89
_cell_formula_units_Z            8
loop_
_atom_site_label
_atom_site_type_symbol
_atom_site_fract_x
_atom_site_fract_y
_atom_site_fract_z
C1 C 0.33610(16) 0.2695(4) 0.0473(5)
C2 C 0.30499(17) 0.1972(4) -0.0349(6)
H1 H 0.2816 0.2306 -0.0982
C3 C 0.30911(19) 0.0743(5) -0.0218(6)
H2 H 0.2883 0.0255 -0.0768
C4 C 0.34296(19) 0.0244(4) 0.0699(6)
H3 H 0.3455 -0.0580 0.0758
C5 C 0.37369(18) 0.0950(4) 0.1543(6)
H4 H 0.3964 0.0603 0.2194
C6 C 0.37082(16) 0.2167(4) 0.1423(5)
O1 O 0.39989(11) 0.2957(3) 0.2193(4)
C7 C 0.43555(16) 0.2470(4) 0.3205(5)
H5 H 0.4527 0.1940 0.2636
H6 H 0.4246 0.2020 0.4030
C8 C 0.46311(17) 0.3490(5) 0.3864(6)
H7 H 0.4846 0.3190 0.4682
H8 H 0.4445 0.4048 0.4329
Se1 Se 0.493818(18) 0.43460(5) 0.23690(7)
C9 C 0.44616(18) 0.5403(5) 0.1495(6)
H9 H 0.4533 0.5724 0.0522
H10 H 0.4195 0.4939 0.1276
C10 C 0.43775(18) 0.6427(5) 0.2560(7)
H11 H 0.4622 0.6978 0.2639
H12 H 0.4350 0.6124 0.3588
C11 C 0.39561(18) 0.7075(5) 0.1916(7)
H13 H 0.3960 0.7879 0.2326
H14 H 0.3938 0.7125 0.0797
C12 C 0.35589(17) 0.6412(5) 0.2362(6)
H15 H 0.3519 0.6628 0.3415
H16 H 0.3619 0.5564 0.2350
Se2 Se 0.301217(18) 0.67195(5) 0.10272(7)
C13 C 0.31360(17) 0.5764(4) -0.0742(5)
H17 H 0.2970 0.6090 -0.1667
H18 H 0.3444 0.5850 -0.0857
C14 C 0.30342(16) 0.4464(4) -0.0665(5)
H19 H 0.2748 0.4353 -0.0327
H20 H 0.3031 0.4106 -0.1681
O2 O 0.33624(11) 0.3912(3) 0.0406(4)
C15 C 0.16673(16) 1.2278(4) 0.2037(5)
C16 C 0.19866(18) 1.2996(5) 0.1578(6)
H21 H 0.2226 1.2660 0.1185
C17 C 0.1954(2) 1.4225(5) 0.1697(6)
H22 H 0.2173 1.4707 0.1384
C18 C 0.1607(2) 1.4729(5) 0.2263(6)
H23 H 0.1587 1.5554 0.2334
C19 C 0.12810(19) 1.4012(4) 0.2737(6)
H24 H 0.1041 1.4356 0.3122
C20 C 0.13113(16) 1.2782(4) 0.2640(5)
O3 O 0.10078(11) 1.2000(3) 0.3078(4)
C21 C 0.06529(17) 1.2486(5) 0.3781(6)
H25 H 0.0485 1.3029 0.3071
H26 H 0.0763 1.2924 0.4708
C22 C 0.03691(18) 1.1479(5) 0.4182(6)
H27 H 0.0155 1.1788 0.4810
H28 H 0.0550 1.0911 0.4810
Se3 Se 0.00621(2) 1.06457(6) 0.24254(8)
C23 C 0.0529(2) 0.9604(5) 0.1956(7)
H29 H 0.0455 0.9283 0.0922
H30 H 0.0795 1.0068 0.1958
C24 C 0.06146(19) 0.8586(5) 0.3086(8)
H31 H 0.0630 0.8889 0.4136
H32 H 0.0374 0.8023 0.2929
C25 C 0.1037(2) 0.7957(5) 0.2882(8)
H33 H 0.1062 0.7882 0.1785
H34 H 0.1030 0.7160 0.3311
C26 C 0.14326(18) 0.8614(5) 0.3664(6)
H35 H 0.1463 0.8436 0.4763
H36 H 0.1381 0.9463 0.3546
Se4 Se 0.198045(19) 0.82339(5) 0.28796(8)
C27 C 0.19120(18) 0.9209(4) 0.1017(6)
H37 H 0.2102 0.8891 0.0306
H38 H 0.1613 0.9125 0.0528
C28 C 0.20088(16) 1.0516(4) 0.1230(6)
H39 H 0.2284 1.0625 0.1886
H40 H 0.2033 1.0884 0.0235
O4 O 0.16627(11) 1.1060(3) 0.1926(4)
loop_
_geom_bond_atom_site_label_1
_geom_bond_atom_site_label_2
_geom_bond_site_symmetry_1
_geom_bond_site_symmetry_2
C1 C2 1_555 1_555
C2 H1 1_555 1_555
C3 C2 1_555 1_555
H2 C3 1_555 1_555
C4 C3 1_555 1_555
H3 C4 1_555 1_555
C5 C4 1_555 1_555
H4 C5 1_555 1_555
C6 C1 1_555 1_555
O1 C6 1_555 1_555
C7 O1 1_555 1_555
H5 C7 1_555 1_555
H6 C7 1_555 1_555
C8 C7 1_555 1_555
H7 C8 1_555 1_555
H8 C8 1_555 1_555
Se1 C8 1_555 1_555
C9 Se1 1_555 1_555
H9 C9 1_555 1_555
H10 C9 1_555 1_555
C10 C9 1_555 1_555
H11 C10 1_555 1_555
H12 C10 1_555 1_555
C11 C10 1_555 1_555
H13 C11 1_555 1_555
H14 C11 1_555 1_555
C12 C11 1_555 1_555
H15 C12 1_555 1_555
H16 C12 1_555 1_555
Se2 C12 1_555 1_555
C13 Se2 1_555 1_555
H17 C13 1_555 1_555
H18 C13 1_555 1_555
C14 C13 1_555 1_555
H19 C14 1_555 1_555
H20 C14 1_555 1_555
O2 C1 1_555 1_555
C15 C16 1_555 1_555
C16 H21 1_555 1_555
C17 C16 1_555 1_555
H22 C17 1_555 1_555
C18 C17 1_555 1_555
H23 C18 1_555 1_555
C19 C18 1_555 1_555
H24 C19 1_555 1_555
C20 C15 1_555 1_555
O3 C20 1_555 1_555
C21 O3 1_555 1_555
H25 C21 1_555 1_555
H26 C21 1_555 1_555
C22 C21 1_555 1_555
H27 C22 1_555 1_555
H28 C22 1_555 1_555
Se3 C22 1_555 1_555
C23 Se3 1_555 1_555
H29 C23 1_555 1_555
H30 C23 1_555 1_555
C24 C23 1_555 1_555
H31 C24 1_555 1_555
H32 C24 1_555 1_555
C25 C24 1_555 1_555
H33 C25 1_555 1_555
H34 C25 1_555 1_555
C26 C25 1_555 1_555
H35 C26 1_555 1_555
H36 C26 1_555 1_555
Se4 C26 1_555 1_555
C27 Se4 1_555 1_555
H37 C27 1_555 1_555
H38 C27 1_555 1_555
C28 C27 1_555 1_555
H39 C28 1_555 1_555
H40 C28 1_555 1_555
O4 C15 1_555 1_555
C5 C6 1_555 1_555
C14 O2 1_555 1_555
C19 C20 1_555 1_555
C28 O4 1_555 1_555

#END
