
#######################################################################
#
#                 Cambridge Crystallographic Data Centre
#                                CCDC 
#
#######################################################################
#
# If this CIF has been generated from an entry in the Cambridge 
# Structural Database, then it will include bibliographic, chemical, 
# crystal, experimental, refinement or atomic coordinate data resulting 
# from the CCDC's data processing and validation procedures.
#
#######################################################################

data_QOPCEF
_chemical_formula_moiety         'C36 H40 O22 S4 4-,2(C14 H12 N2 2+),12(H2 O1)'
_chemical_name_systematic        
'(2)-(bis(5,6-Dihydropyrazino[1,2,3,4-lmn][1,10]phenanthrolinediium)-(6,9,12,15,18,29,32,35,38,41-decaoxapentacyclo[40.4.0.0^5,46^.0^19,24^.0^23,28^]hexatetraconta-1(46),2,4,19,21,23,25,27,42,44-decaene-2,22,25,45-tetrasulfonate)) pseudorotaxane dodecahydrate'
_symmetry_cell_setting           orthorhombic
_symmetry_space_group_name_H-M   'P n a 21'
_symmetry_Int_Tables_number      33
_space_group_name_Hall           'P 2c -2n'
loop_
_symmetry_equiv_pos_site_id
_symmetry_equiv_pos_as_xyz
1 x,y,z
2 -x,-y,1/2+z
3 1/2+x,1/2-y,z
4 1/2-x,1/2+y,1/2+z
_cell_length_a                   31.150(6)
_cell_length_b                   16.287(3)
_cell_length_c                   14.681(3)
_cell_angle_alpha                90
_cell_angle_beta                 90
_cell_angle_gamma                90
_cell_volume                     7448.26
_exptl_crystal_colour            orange
_exptl_crystal_description       prism
_cell_formula_units_Z            4
_chemical_properties_physical    Air-sensitive
loop_
_atom_site_label
_atom_site_type_symbol
_atom_site_fract_x
_atom_site_fract_y
_atom_site_fract_z
N1 N 0.96726(11) 0.2125(2) 0.8288(3)
N2 N 1.00471(11) 0.1514(2) 0.9906(3)
C37 C 0.94678(14) 0.2384(3) 0.7544(3)
H41 H 0.9425 0.2018 0.7048
C38 C 0.93150(15) 0.3191(3) 0.7488(4)
H42 H 0.9173 0.3373 0.6952
C39 C 0.93703(15) 0.3722(3) 0.8213(4)
H43 H 0.9269 0.4271 0.8178
C40 C 0.95800(14) 0.3439(3) 0.9006(3)
C41 C 0.96632(16) 0.3976(3) 0.9768(4)
H44 H 0.9565 0.4528 0.9753
C42 C 0.98798(15) 0.3696(3) 1.0502(4)
H45 H 0.9936 0.4060 1.0993
C43 C 1.00257(15) 0.2868(3) 1.0556(3)
C44 C 1.02447(15) 0.2552(3) 1.1316(3)
H46 H 1.0315 0.2906 1.1808
C45 C 1.03575(15) 0.1750(4) 1.1358(4)
H47 H 1.0509 0.1547 1.1872
C46 C 1.02526(14) 0.1227(3) 1.0650(3)
H48 H 1.0326 0.0662 1.0687
C47 C 0.99381(13) 0.2322(3) 0.9833(3)
C48 C 0.97270(13) 0.2623(3) 0.9034(3)
C49 C 0.98855(14) 0.1309(3) 0.8279(3)
H49 H 1.0186 0.1372 0.8071
H50 H 0.9735 0.0944 0.7844
C50 C 0.98802(13) 0.0926(3) 0.9217(3)
H51 H 0.9583 0.0766 0.9377
H52 H 1.0059 0.0424 0.9217
N3 N 0.72771(13) 0.0184(3) -0.0471(3)
N4 N 0.78315(15) 0.0286(4) 0.1043(4)
C51 C 0.70486(17) 0.0137(4) -0.1226(5)
H53 H 0.6969 -0.0386 -0.1456
C52 C 0.69239(19) 0.0833(5) -0.1686(5)
H54 H 0.6766 0.0785 -0.2237
C53 C 0.70236(16) 0.1576(4) -0.1362(4)
H55 H 0.6936 0.2055 -0.1682
C54 C 0.72566(15) 0.1648(3) -0.0554(4)
C55 C 0.73560(18) 0.2423(3) -0.0133(5)
H56 H 0.7267 0.2917 -0.0421
C56 C 0.7573(2) 0.2465(4) 0.0664(5)
H57 H 0.7620 0.2985 0.0940
C57 C 0.77316(18) 0.1755(4) 0.1092(4)
C58 C 0.7970(2) 0.1772(7) 0.1895(5)
H58 H 0.8023 0.2279 0.2193
C59 C 0.8124(3) 0.1074(8) 0.2248(6)
H59 H 0.8004 0.1025 0.2870
H60 H 0.8438 0.1150 0.2319
C60 C 0.8065(2) 0.0323(7) 0.1827(6)
H61 H 0.8352 0.0092 0.1695
H62 H 0.7926 -0.0047 0.2274
C61 C 0.76513(17) 0.0966(4) 0.0677(4)
C62 C 0.73999(14) 0.0925(3) -0.0124(3)
C63 C 0.7369(2) -0.0551(4) 0.0091(6)
H63 H 0.7367 -0.1046 -0.0299
H64 H 0.7142 -0.0615 0.0559
C64 C 0.7804(2) -0.0469(5) 0.0554(7)
H65 H 0.7846 -0.0934 0.0979
H66 H 0.8034 -0.0491 0.0089
O23 O 0.77892(14) 0.4645(3) 0.7787(4)
O24 O 0.02259(13) 0.4626(2) 0.7458(3)
O25 O 0.04738(11) 0.0669(2) 0.3246(3)
O26 O 0.96845(13) 0.0347(2) 0.2508(3)
O27 O 0.03815(13) 0.4157(2) 0.2825(3)
O28 O 0.05129(12) 0.2320(2) 0.3675(3)
O29 O 0.77386(13) 0.8309(3) 0.2502(4)
O30 O 0.2109(2) 0.0703(5) 0.2858(6)
O33 O 0.2364(3) -0.0322(7) 0.9322(7)
O36 O 0.1521(3) 0.1865(4) 0.4938(5)
O37 O 0.1374(3) 0.6967(4) 0.0253(5)
O38 O 0.8340(3) 0.2683(5) 0.3661(6)
O39 O 0.6960(3) 0.2267(5) 0.6291(7)
O40 O 0.7639(5) 0.3314(9) 0.2914(12)
O42 O 0.7486(5) 0.6682(10) 0.0050(11)
S1 S 0.86248(4) 0.42781(8) 0.16402(9)
S2 S 0.86571(3) 0.05666(7) -0.08569(9)
S3 S 1.13615(4) 0.46302(9) 0.11762(11)
S4 S 1.12698(3) 0.08724(8) -0.11507(9)
O1 O 0.84436(13) 0.3859(3) 0.2429(3)
O2 O 0.90599(11) 0.4550(2) 0.1753(3)
O3 O 0.83490(12) 0.4954(2) 0.1344(3)
O4 O 0.87438(11) -0.0200(2) -0.0372(3)
O5 O 0.81995(10) 0.0648(2) -0.1059(3)
O6 O 0.89376(10) 0.0657(2) -0.1646(3)
O7 O 0.91501(11) 0.2929(2) 0.2065(2)
O8 O 0.96989(11) 0.3175(2) 0.4183(2)
O9 O 1.04714(14) 0.3946(2) 0.4830(3)
O10 O 1.12414(14) 0.3379(3) 0.4025(3)
O11 O 1.13516(11) 0.3063(3) 0.2074(3)
O12 O 1.10727(12) 0.4727(3) 0.1939(3)
O13 O 1.17987(11) 0.4390(2) 0.1433(3)
O14 O 1.13671(14) 0.5353(3) 0.0618(4)
O15 O 1.15290(11) 0.0185(2) -0.0836(3)
O16 O 1.08241(10) 0.0627(2) -0.1284(3)
O17 O 1.14621(11) 0.1272(2) -0.1933(3)
O18 O 1.07699(10) 0.2296(2) -0.1694(2)
O19 O 1.03240(11) 0.1847(2) -0.3580(2)
O20 O 0.95015(11) 0.1088(2) -0.4140(2)
O21 O 0.86585(11) 0.1739(2) -0.3549(2)
O22 O 0.85212(11) 0.2143(2) -0.1643(2)
C1 C 0.86122(14) 0.3565(3) 0.0700(4)
C2 C 0.83948(15) 0.3853(3) -0.0055(3)
H1 H 0.8262 0.4377 -0.0029
C3 C 0.83654(14) 0.3390(3) -0.0860(3)
H2 H 0.8241 0.3623 -0.1391
C4 C 0.85156(13) 0.2608(3) -0.0876(3)
C5 C 0.86905(13) 0.2217(3) -0.0096(3)
C6 C 0.87953(14) 0.1351(3) -0.0044(3)
C7 C 0.89993(14) 0.1065(3) 0.0724(3)
H3 H 0.9049 0.0492 0.0778
C8 C 0.91356(14) 0.1574(3) 0.1424(3)
H4 H 0.9304 0.1360 0.1909
C9 C 0.90255(14) 0.2388(3) 0.1408(3)
C10 C 0.87787(14) 0.2745(3) 0.0692(3)
C11 C 0.93466(16) 0.2619(3) 0.2873(3)
H5 H 0.9628 0.2364 0.2733
H6 H 0.9161 0.2204 0.3168
C12 C 0.94022(18) 0.3350(3) 0.3472(4)
H7 H 0.9508 0.3818 0.3106
H8 H 0.9122 0.3505 0.3738
C13 C 0.9722(2) 0.3847(5) 0.4828(4)
H9 H 0.9464 0.3840 0.5224
H10 H 0.9727 0.4375 0.4496
C14 C 1.01129(19) 0.3771(4) 0.5396(4)
H11 H 1.0101 0.4164 0.5911
H12 H 1.0136 0.3209 0.5647
C15 C 1.0863(2) 0.3777(4) 0.5335(5)
H13 H 1.0874 0.4122 0.5890
H14 H 1.0870 0.3194 0.5523
C16 C 1.1228(2) 0.3958(4) 0.4753(4)
H15 H 1.1201 0.4521 0.4505
H16 H 1.1496 0.3928 0.5111
C17 C 1.1625(2) 0.3512(5) 0.3494(5)
H17 H 1.1881 0.3482 0.3892
H18 H 1.1617 0.4063 0.3211
C18 C 1.1652(2) 0.2888(5) 0.2792(5)
H19 H 1.1947 0.2872 0.2542
H20 H 1.1588 0.2343 0.3059
C19 C 1.13664(14) 0.2596(3) 0.1323(3)
C20 C 1.12180(14) 0.2971(3) 0.0507(4)
C21 C 1.11568(15) 0.3841(3) 0.0413(4)
C22 C 1.09684(16) 0.4139(3) -0.0353(4)
H21 H 1.0931 0.4715 -0.0412
C23 C 1.08276(15) 0.3630(3) -0.1055(4)
H22 H 1.0674 0.3854 -0.1556
C24 C 1.09115(13) 0.2799(3) -0.1019(3)
C25 C 1.11351(13) 0.2446(3) -0.0272(3)
C26 C 1.12795(13) 0.1610(3) -0.0230(4)
C27 C 1.14601(16) 0.1316(3) 0.0552(4)
H23 H 1.1569 0.0771 0.0556
C28 C 1.14909(16) 0.1775(4) 0.1335(4)
H24 H 1.1596 0.1534 0.1880
C29 C 1.08176(19) 0.2596(4) -0.2617(4)
H25 H 1.1105 0.2844 -0.2698
H26 H 1.0599 0.3022 -0.2744
C30 C 1.07617(17) 0.1874(4) -0.3272(4)
H27 H 1.0957 0.1939 -0.3799
H28 H 1.0835 0.1355 -0.2958
C31 C 1.02681(16) 0.1183(3) -0.4213(4)
H29 H 1.0269 0.0655 -0.3880
H30 H 1.0510 0.1178 -0.4651
C32 C 0.98613(17) 0.1275(3) -0.4710(4)
H31 H 0.9835 0.1845 -0.4937
H32 H 0.9861 0.0902 -0.5244
C33 C 0.91103(18) 0.1123(4) -0.4668(4)
H33 H 0.9113 0.0686 -0.5137
H34 H 0.9091 0.1660 -0.4981
C34 C 0.87346(19) 0.1013(4) -0.4066(5)
H35 H 0.8478 0.0884 -0.4438
H36 H 0.8786 0.0546 -0.3648
C35 C 0.82596(17) 0.1675(4) -0.3065(4)
H37 H 0.8243 0.1139 -0.2749
H38 H 0.8016 0.1713 -0.3497
C36 C 0.82355(16) 0.2367(4) -0.2379(4)
H39 H 0.8328 0.2890 -0.2660
H40 H 0.7938 0.2431 -0.2152
O31? O 0.2121(5) 0.0307(9) 0.2454(11)
O32? O 0.2421(7) 0.0049(13) 0.9230(18)
O34? O 0.7470(2) 0.4615(5) 0.1219(6)
O35? O 0.7572(4) 0.5567(9) 0.1111(9)
O41? O 0.7471(4) 0.2889(8) 0.3747(10)
loop_
_geom_bond_atom_site_label_1
_geom_bond_atom_site_label_2
_geom_bond_site_symmetry_1
_geom_bond_site_symmetry_2
S1 O1 1_555 1_555
S2 O4 1_555 1_555
S3 O12 1_555 1_555
S4 O15 1_555 1_555
O2 S1 1_555 1_555
O3 S1 1_555 1_555
O5 S2 1_555 1_555
O6 S2 1_555 1_555
O7 C9 1_555 1_555
O8 C12 1_555 1_555
O9 C14 1_555 1_555
O10 C16 1_555 1_555
O11 C18 1_555 1_555
O13 S3 1_555 1_555
O14 S3 1_555 1_555
O16 S4 1_555 1_555
O17 S4 1_555 1_555
O18 C24 1_555 1_555
O19 C30 1_555 1_555
O20 C32 1_555 1_555
O21 C34 1_555 1_555
O22 C4 1_555 1_555
C1 S1 1_555 1_555
C2 C1 1_555 1_555
H1 C2 1_555 1_555
C3 C2 1_555 1_555
H2 C3 1_555 1_555
C4 C3 1_555 1_555
C5 C4 1_555 1_555
C6 S2 1_555 1_555
C7 C6 1_555 1_555
H3 C7 1_555 1_555
C8 C7 1_555 1_555
H4 C8 1_555 1_555
C9 C8 1_555 1_555
C10 C1 1_555 1_555
C11 O7 1_555 1_555
H5 C11 1_555 1_555
H6 C11 1_555 1_555
C12 C11 1_555 1_555
H7 C12 1_555 1_555
H8 C12 1_555 1_555
C13 O8 1_555 1_555
H9 C13 1_555 1_555
H10 C13 1_555 1_555
C14 C13 1_555 1_555
H11 C14 1_555 1_555
H12 C14 1_555 1_555
C15 O9 1_555 1_555
H13 C15 1_555 1_555
H14 C15 1_555 1_555
C16 C15 1_555 1_555
H15 C16 1_555 1_555
H16 C16 1_555 1_555
C17 O10 1_555 1_555
H17 C17 1_555 1_555
H18 C17 1_555 1_555
C18 C17 1_555 1_555
H19 C18 1_555 1_555
H20 C18 1_555 1_555
C19 O11 1_555 1_555
C20 C19 1_555 1_555
C21 S3 1_555 1_555
C22 C21 1_555 1_555
H21 C22 1_555 1_555
C23 C22 1_555 1_555
H22 C23 1_555 1_555
C24 C23 1_555 1_555
C25 C20 1_555 1_555
C26 S4 1_555 1_555
C27 C26 1_555 1_555
H23 C27 1_555 1_555
C28 C19 1_555 1_555
H24 C28 1_555 1_555
C29 O18 1_555 1_555
H25 C29 1_555 1_555
H26 C29 1_555 1_555
C30 C29 1_555 1_555
H27 C30 1_555 1_555
H28 C30 1_555 1_555
C31 O19 1_555 1_555
H29 C31 1_555 1_555
H30 C31 1_555 1_555
C32 C31 1_555 1_555
H31 C32 1_555 1_555
H32 C32 1_555 1_555
C33 O20 1_555 1_555
H33 C33 1_555 1_555
H34 C33 1_555 1_555
C34 C33 1_555 1_555
H35 C34 1_555 1_555
H36 C34 1_555 1_555
C35 O21 1_555 1_555
H37 C35 1_555 1_555
H38 C35 1_555 1_555
C36 O22 1_555 1_555
H39 C36 1_555 1_555
H40 C36 1_555 1_555
N1 C37 1_555 1_555
N2 C46 1_555 1_555
C37 H41 1_555 1_555
C38 C37 1_555 1_555
H42 C38 1_555 1_555
C39 C38 1_555 1_555
H43 C39 1_555 1_555
C40 C39 1_555 1_555
C41 C40 1_555 1_555
H44 C41 1_555 1_555
C42 C41 1_555 1_555
H45 C42 1_555 1_555
C43 C42 1_555 1_555
C44 C43 1_555 1_555
H46 C44 1_555 1_555
C45 C44 1_555 1_555
H47 C45 1_555 1_555
C46 C45 1_555 1_555
H48 C46 1_555 1_555
C47 N2 1_555 1_555
C48 N1 1_555 1_555
C49 N1 1_555 1_555
H49 C49 1_555 1_555
H50 C49 1_555 1_555
C50 N2 1_555 1_555
H51 C50 1_555 1_555
H52 C50 1_555 1_555
N3 C51 1_555 1_555
N4 C60 1_555 1_555
C51 H53 1_555 1_555
C52 C51 1_555 1_555
H54 C52 1_555 1_555
C53 C52 1_555 1_555
H55 C53 1_555 1_555
C54 C53 1_555 1_555
C55 C54 1_555 1_555
H56 C55 1_555 1_555
C56 C55 1_555 1_555
H57 C56 1_555 1_555
C57 C56 1_555 1_555
C58 C57 1_555 1_555
H58 C58 1_555 1_555
C59 C58 1_555 1_555
H59 C59 1_555 1_555
H60 C59 1_555 1_555
C60 C59 1_555 1_555
H61 C60 1_555 1_555
H62 C60 1_555 1_555
C61 N4 1_555 1_555
C62 N3 1_555 1_555
C63 N3 1_555 1_555
H63 C63 1_555 1_555
H64 C63 1_555 1_555
C64 N4 1_555 1_555
H65 C64 1_555 1_555
H66 C64 1_555 1_555
C5 C6 1_555 1_555
C5 C10 1_555 1_555
C9 C10 1_555 1_555
C20 C21 1_555 1_555
C24 C25 1_555 1_555
C25 C26 1_555 1_555
C27 C28 1_555 1_555
C35 C36 1_555 1_555
C40 C48 1_555 1_555
C43 C47 1_555 1_555
C47 C48 1_555 1_555
C49 C50 1_555 1_555
C54 C62 1_555 1_555
C57 C61 1_555 1_555
C61 C62 1_555 1_555
C63 C64 1_555 1_555

#END
