
#######################################################################
#
#                 Cambridge Crystallographic Data Centre
#                                CCDC 
#
#######################################################################
#
# If this CIF has been generated from an entry in the Cambridge 
# Structural Database, then it will include bibliographic, chemical, 
# crystal, experimental, refinement or atomic coordinate data resulting 
# from the CCDC's data processing and validation procedures.
#
#######################################################################

data_QOPGIN
_chemical_formula_moiety         
'C36 H40 O22 S4 4-,2(C16 H14 N2 2+),8.25(H2 O1)'
_chemical_name_systematic        
"(2)-(bis(N,N'-Dimethyl-2,7-diazapyrenium)-(6,9,12,15,18,29,32,35,38,41-decaoxapentacyclo[40.4.0.0^5,46^.0^19,24^.0^23,28^]hexatetraconta-1(46),2,4,19,21,23,25,27,42,44-decaene-2,22,25,45-tetrasulfonate)) pseudorotaxane hydrate"
_symmetry_cell_setting           triclinic
_symmetry_space_group_name_H-M   'P -1'
_symmetry_Int_Tables_number      2
_space_group_name_Hall           '-P 1'
loop_
_symmetry_equiv_pos_site_id
_symmetry_equiv_pos_as_xyz
1 x,y,z
2 -x,-y,-z
_cell_length_a                   8.3143(17)
_cell_length_b                   14.653(3)
_cell_length_c                   30.316(6)
_cell_angle_alpha                77.39(3)
_cell_angle_beta                 89.28(3)
_cell_angle_gamma                87.12(3)
_cell_volume                     3599.73
_exptl_crystal_colour            orange
_exptl_crystal_description       prism
_cell_formula_units_Z            2
_chemical_properties_physical    Air-sensitive
loop_
_atom_site_label
_atom_site_type_symbol
_atom_site_fract_x
_atom_site_fract_y
_atom_site_fract_z
S1 S 0.27776(19) 0.11935(8) 0.33942(4)
S2 S 0.63048(13) 0.27236(8) 0.12746(4)
S3 S 0.33526(11) 0.65100(7) 0.37669(3)
S4 S 0.75545(11) 0.79956(7) 0.17150(3)
O1 O 0.2958(3) 0.3023(2) 0.14376(10)
O2 O 0.1970(4) 0.4244(2) 0.05551(10)
O3 O 0.2940(4) 0.6175(2) 0.01851(10)
O4 O 0.2717(4) 0.7531(3) 0.07197(10)
O5 O 0.4380(3) 0.7334(2) 0.17783(10)
O6 O 0.6749(3) 0.6407(2) 0.36858(9)
O7 O 0.8025(3) 0.5339(2) 0.45479(9)
O8 O 0.8186(4) 0.3406(3) 0.46569(12)
O9 O 0.7329(5) 0.2001(3) 0.42139(12)
O10 O 0.5902(5) 0.2066(2) 0.32744(12)
O11 O 0.2931(6) 0.1867(3) 0.36768(12)
O12 O 0.4045(5) 0.0436(2) 0.34647(13)
O13 O 0.1165(5) 0.0837(2) 0.34212(11)
O14 O 0.8051(4) 0.2563(2) 0.12532(13)
O15 O 0.5477(3) 0.1916(2) 0.11909(10)
O16 O 0.5745(4) 0.3620(2) 0.09999(12)
O17 O 0.1589(3) 0.6585(2) 0.37560(10)
O18 O 0.3939(3) 0.5607(2) 0.40221(9)
O19 O 0.3984(3) 0.7314(2) 0.39096(9)
O20 O 0.7421(3) 0.7265(2) 0.14596(9)
O21 O 0.6407(3) 0.8791(2) 0.15751(9)
O22 O 0.9206(3) 0.8281(2) 0.17139(10)
C1 C 0.2999(6) 0.1781(3) 0.28060(15)
C2 C 0.1662(5) 0.1766(3) 0.25537(15)
H1 H 0.0737 0.1479 0.2698
C3 C 0.1596(5) 0.2156(3) 0.20884(14)
H2 H 0.0626 0.2163 0.1925
C4 C 0.2949(5) 0.2529(3) 0.18718(14)
C5 C 0.4453(5) 0.2469(3) 0.21024(15)
C6 C 0.5940(5) 0.2705(3) 0.18644(16)
C7 C 0.7287(5) 0.2787(3) 0.21053(18)
H3 H 0.8256 0.2970 0.1949
C8 C 0.7255(5) 0.2604(3) 0.25800(19)
H4 H 0.8176 0.2714 0.2740
C9 C 0.5905(6) 0.2267(3) 0.28161(16)
C10 C 0.4451(5) 0.2163(3) 0.25895(15)
C11 C 0.1704(5) 0.2863(3) 0.11463(15)
H5 H 0.0682 0.3183 0.1213
H6 H 0.1536 0.2185 0.1194
C12 C 0.2205(6) 0.3243(3) 0.06664(16)
H7 H 0.3354 0.3066 0.0627
H8 H 0.1561 0.2969 0.0460
C13 C 0.2576(6) 0.4605(3) 0.01098(15)
H9 H 0.2166 0.4242 -0.0101
H10 H 0.3766 0.4532 0.0112
C14 C 0.2076(6) 0.5611(3) -0.00515(15)
H11 H 0.2291 0.5806 -0.0380
H12 H 0.0905 0.5703 -0.0002
C15 C 0.2561(6) 0.7142(3) 0.00023(14)
H13 H 0.1381 0.7268 0.0009
H14 H 0.2923 0.7308 -0.0316
C16 C 0.3375(6) 0.7719(3) 0.02720(14)
H15 H 0.4548 0.7561 0.0284
H16 H 0.3203 0.8392 0.0130
C17 C 0.3584(5) 0.7911(3) 0.10277(14)
H17 H 0.3402 0.8600 0.0964
H18 H 0.4752 0.7762 0.1002
C18 C 0.2985(5) 0.7478(3) 0.14963(14)
H19 H 0.2176 0.7905 0.1600
H20 H 0.2490 0.6876 0.1499
C19 C 0.4188(5) 0.7094(3) 0.22318(13)
C20 C 0.2778(5) 0.6782(3) 0.24308(14)
H21 H 0.1896 0.6701 0.2249
C21 C 0.2626(5) 0.6579(3) 0.29022(14)
H22 H 0.1615 0.6404 0.3035
C22 C 0.3895(5) 0.6629(3) 0.31753(13)
C23 C 0.5446(5) 0.6873(3) 0.29792(13)
C24 C 0.6875(5) 0.6835(3) 0.32455(13)
C25 C 0.8293(5) 0.7169(3) 0.30526(14)
H23 H 0.9210 0.7170 0.3236
C26 C 0.8382(5) 0.7509(3) 0.25832(13)
H24 H 0.9361 0.7754 0.2456
C27 C 0.7108(5) 0.7499(3) 0.23022(13)
C28 C 0.5592(5) 0.7165(3) 0.24913(13)
C29 C 0.7674(5) 0.6772(3) 0.40038(13)
H25 H 0.7412 0.7450 0.3972
H26 H 0.8841 0.6681 0.3948
C30 C 0.7243(5) 0.6246(3) 0.44687(14)
H27 H 0.7591 0.6587 0.4697
H28 H 0.6062 0.6192 0.4494
C31 C 0.7487(7) 0.4749(3) 0.49476(16)
H29 H 0.6329 0.4643 0.4922
H30 H 0.7629 0.5045 0.5208
C32 C 0.8442(8) 0.3841(4) 0.50193(16)
H31 H 0.9601 0.3951 0.5040
H32 H 0.8112 0.3427 0.5306
C33 C 0.9104(8) 0.2572(4) 0.4686(2)
H33 H 0.8757 0.2105 0.4953
H34 H 1.0251 0.2684 0.4727
C34 C 0.8932(10) 0.2197(6) 0.4277(3)
H35 H 0.9299 0.2659 0.4010
H36 H 0.9623 0.1617 0.4304
C35 C 0.7033(10) 0.1303(4) 0.3985(2)
H37 H 0.5899 0.1128 0.4034
H38 H 0.7735 0.0741 0.4107
C36 C 0.7348(11) 0.1634(6) 0.3482(2)
H39 H 0.8212 0.2087 0.3432
H40 H 0.7696 0.1096 0.3350
N1 N 0.0331(5) 0.8921(3) 0.35605(13)
N2 N -0.0179(4) 1.0475(3) 0.12545(12)
C37 C -0.1096(6) 0.9261(3) 0.33791(16)
H41 H -0.2008 0.9275 0.3570
C38 C -0.1257(5) 0.9593(3) 0.29146(15)
C39 C -0.2765(5) 0.9965(3) 0.27048(16)
H42 H -0.3698 0.9995 0.2886
C40 C -0.2859(5) 1.0272(3) 0.22497(15)
H43 H -0.3858 1.0519 0.2114
C41 C -0.1457(5) 1.0227(3) 0.19712(15)
C42 C -0.1524(5) 1.0514(3) 0.15052(15)
H44 H -0.2519 1.0740 0.1361
C43 C 0.1256(5) 1.0142(3) 0.14390(15)
H45 H 0.2168 1.0122 0.1249
C44 C 0.1420(5) 0.9830(3) 0.19001(15)
C45 C 0.2927(5) 0.9456(3) 0.21117(15)
H46 H 0.3863 0.9428 0.1931
C46 C 0.3019(5) 0.9146(3) 0.25627(16)
H47 H 0.4019 0.8899 0.2697
C47 C 0.1616(5) 0.9183(3) 0.28441(15)
C48 C 0.1671(6) 0.8863(3) 0.33105(16)
H48 H 0.2652 0.8604 0.3453
C49 C 0.0127(5) 0.9556(3) 0.26446(15)
C50 C 0.0022(5) 0.9873(3) 0.21734(14)
C51 C 0.0516(7) 0.8650(4) 0.40576(16)
H49 H 0.1092 0.9129 0.4163
H50 H 0.1127 0.8048 0.4139
H51 H -0.0550 0.8593 0.4200
C52 C -0.0317(6) 1.0821(4) 0.07578(15)
H52 H -0.1169 1.0498 0.0642
H53 H 0.0709 1.0698 0.0614
H54 H -0.0584 1.1496 0.0689
N3 N 0.4461(5) 0.3823(3) 0.37595(14)
N4 N 0.5719(5) 0.5301(2) 0.14701(13)
C53 C 0.5907(6) 0.4128(3) 0.36149(16)
H55 H 0.6740 0.4123 0.3827
C54 C 0.6196(5) 0.4451(3) 0.31594(15)
C55 C 0.7744(5) 0.4775(3) 0.29891(15)
H56 H 0.8591 0.4794 0.3194
C56 C 0.7988(5) 0.5053(3) 0.25396(15)
H57 H 0.9011 0.5265 0.2431
C57 C 0.6723(5) 0.5033(3) 0.22202(15)
C58 C 0.6937(5) 0.5302(3) 0.17542(15)
H58 H 0.7963 0.5488 0.1636
C59 C 0.4238(5) 0.5029(3) 0.16151(16)
H59 H 0.3406 0.5040 0.1402
C60 C 0.3926(5) 0.4735(3) 0.20727(16)
C61 C 0.2369(5) 0.4433(3) 0.22424(17)
H60 H 0.1508 0.4439 0.2039
C62 C 0.2136(5) 0.4138(3) 0.26957(18)
H61 H 0.1112 0.3929 0.2804
C63 C 0.3409(5) 0.4137(3) 0.30138(16)
C64 C 0.3221(6) 0.3834(3) 0.34759(18)
H62 H 0.2205 0.3630 0.3595
C65 C 0.4939(5) 0.4449(3) 0.28526(15)
C66 C 0.5185(5) 0.4743(3) 0.23800(15)
C67 C 0.4190(7) 0.3463(4) 0.42491(17)
H63 H 0.3929 0.2803 0.4303
H64 H 0.3294 0.3826 0.4352
H65 H 0.5167 0.3522 0.4416
C68 C 0.6014(7) 0.5632(3) 0.09797(16)
H66 H 0.6338 0.6281 0.0919
H67 H 0.5026 0.5597 0.0812
H68 H 0.6873 0.5235 0.0883
O23 O 0.3902(4) 0.0936(2) 0.06740(11)
O24 O 0.9476(4) 0.7094(2) 0.07719(10)
O25 O 0.6466(4) 0.9656(2) 0.06622(11)
O26 O 0.0467(4) 0.5212(2) 0.11887(11)
O27 O 0.0240(4) 0.4732(3) 0.38860(12)
O28 O 0.2412(5) 0.1571(3) 0.98647(12)
O29 O 0.5563(5) 0.8928(3) 0.40007(14)
O30 O 0.7432(7) 0.8477(5) 0.4777(2)
O33 O 0.983(2) 0.2819(14) 0.3484(6)
O31? O 0.7428(17) 0.9714(12) 0.5242(6)
O32? O 0.6977(13) 0.8893(8) 0.5199(4)
loop_
_geom_bond_atom_site_label_1
_geom_bond_atom_site_label_2
_geom_bond_site_symmetry_1
_geom_bond_site_symmetry_2
S1 O11 1_555 1_555
S2 O14 1_555 1_555
S3 O17 1_555 1_555
S4 O20 1_555 1_555
O1 C4 1_555 1_555
O2 C12 1_555 1_555
O3 C14 1_555 1_555
O4 C16 1_555 1_555
O5 C18 1_555 1_555
O6 C24 1_555 1_555
O7 C30 1_555 1_555
O8 C32 1_555 1_555
O9 C34 1_555 1_555
O10 C9 1_555 1_555
O12 S1 1_555 1_555
O13 S1 1_555 1_555
O15 S2 1_555 1_555
O16 S2 1_555 1_555
O18 S3 1_555 1_555
O19 S3 1_555 1_555
O21 S4 1_555 1_555
O22 S4 1_555 1_555
C1 S1 1_555 1_555
C2 C1 1_555 1_555
H1 C2 1_555 1_555
C3 C2 1_555 1_555
H2 C3 1_555 1_555
C4 C3 1_555 1_555
C5 C4 1_555 1_555
C6 S2 1_555 1_555
C7 C6 1_555 1_555
H3 C7 1_555 1_555
C8 C7 1_555 1_555
H4 C8 1_555 1_555
C9 C8 1_555 1_555
C10 C1 1_555 1_555
C11 O1 1_555 1_555
H5 C11 1_555 1_555
H6 C11 1_555 1_555
C12 C11 1_555 1_555
H7 C12 1_555 1_555
H8 C12 1_555 1_555
C13 O2 1_555 1_555
H9 C13 1_555 1_555
H10 C13 1_555 1_555
C14 C13 1_555 1_555
H11 C14 1_555 1_555
H12 C14 1_555 1_555
C15 O3 1_555 1_555
H13 C15 1_555 1_555
H14 C15 1_555 1_555
C16 C15 1_555 1_555
H15 C16 1_555 1_555
H16 C16 1_555 1_555
C17 O4 1_555 1_555
H17 C17 1_555 1_555
H18 C17 1_555 1_555
C18 C17 1_555 1_555
H19 C18 1_555 1_555
H20 C18 1_555 1_555
C19 O5 1_555 1_555
C20 C19 1_555 1_555
H21 C20 1_555 1_555
C21 C20 1_555 1_555
H22 C21 1_555 1_555
C22 S3 1_555 1_555
C23 C22 1_555 1_555
C24 C23 1_555 1_555
C25 C24 1_555 1_555
H23 C25 1_555 1_555
C26 C25 1_555 1_555
H24 C26 1_555 1_555
C27 S4 1_555 1_555
C28 C19 1_555 1_555
C29 O6 1_555 1_555
H25 C29 1_555 1_555
H26 C29 1_555 1_555
C30 C29 1_555 1_555
H27 C30 1_555 1_555
H28 C30 1_555 1_555
C31 O7 1_555 1_555
H29 C31 1_555 1_555
H30 C31 1_555 1_555
C32 C31 1_555 1_555
H31 C32 1_555 1_555
H32 C32 1_555 1_555
C33 O8 1_555 1_555
H33 C33 1_555 1_555
H34 C33 1_555 1_555
C34 C33 1_555 1_555
H35 C34 1_555 1_555
H36 C34 1_555 1_555
C35 O9 1_555 1_555
H37 C35 1_555 1_555
H38 C35 1_555 1_555
C36 O10 1_555 1_555
H39 C36 1_555 1_555
H40 C36 1_555 1_555
N1 C37 1_555 1_555
N2 C42 1_555 1_555
C37 H41 1_555 1_555
C38 C37 1_555 1_555
C39 C38 1_555 1_555
H42 C39 1_555 1_555
C40 C39 1_555 1_555
H43 C40 1_555 1_555
C41 C40 1_555 1_555
C42 C41 1_555 1_555
H44 C42 1_555 1_555
C43 N2 1_555 1_555
H45 C43 1_555 1_555
C44 C43 1_555 1_555
C45 C44 1_555 1_555
H46 C45 1_555 1_555
C46 C45 1_555 1_555
H47 C46 1_555 1_555
C47 C46 1_555 1_555
C48 N1 1_555 1_555
H48 C48 1_555 1_555
C49 C38 1_555 1_555
C50 C41 1_555 1_555
C51 N1 1_555 1_555
H49 C51 1_555 1_555
H50 C51 1_555 1_555
H51 C51 1_555 1_555
C52 N2 1_555 1_555
H52 C52 1_555 1_555
H53 C52 1_555 1_555
H54 C52 1_555 1_555
N3 C53 1_555 1_555
N4 C58 1_555 1_555
C53 H55 1_555 1_555
C54 C53 1_555 1_555
C55 C54 1_555 1_555
H56 C55 1_555 1_555
C56 C55 1_555 1_555
H57 C56 1_555 1_555
C57 C56 1_555 1_555
C58 C57 1_555 1_555
H58 C58 1_555 1_555
C59 N4 1_555 1_555
H59 C59 1_555 1_555
C60 C59 1_555 1_555
C61 C60 1_555 1_555
H60 C61 1_555 1_555
C62 C61 1_555 1_555
H61 C62 1_555 1_555
C63 C62 1_555 1_555
C64 N3 1_555 1_555
H62 C64 1_555 1_555
C65 C54 1_555 1_555
C66 C57 1_555 1_555
C67 N3 1_555 1_555
H63 C67 1_555 1_555
H64 C67 1_555 1_555
H65 C67 1_555 1_555
C68 N4 1_555 1_555
H66 C68 1_555 1_555
H67 C68 1_555 1_555
H68 C68 1_555 1_555
C5 C6 1_555 1_555
C5 C10 1_555 1_555
C9 C10 1_555 1_555
C21 C22 1_555 1_555
C23 C28 1_555 1_555
C26 C27 1_555 1_555
C27 C28 1_555 1_555
C35 C36 1_555 1_555
C44 C50 1_555 1_555
C47 C48 1_555 1_555
C47 C49 1_555 1_555
C49 C50 1_555 1_555
C60 C66 1_555 1_555
C63 C64 1_555 1_555
C63 C65 1_555 1_555
C65 C66 1_555 1_555

#END
