
#######################################################################
#
#                 Cambridge Crystallographic Data Centre
#                                CCDC 
#
#######################################################################
#
# If this CIF has been generated from an entry in the Cambridge 
# Structural Database, then it will include bibliographic, chemical, 
# crystal, experimental, refinement or atomic coordinate data resulting 
# from the CCDC's data processing and validation procedures.
#
#######################################################################

data_QOPGOT
_chemical_formula_moiety         
'C36 H40 O22 S4 4-,C16 H14 N2 2+,C12 H14 N2 2+,15.63(H2 O1)'
_chemical_name_systematic        
"(2)-((N,N'-Dimethyl-2,7-diazapyrenium)-(N,N'-dimethyl-4,4'-bipyridinium)-(6,9,12,15,18,29,32,35,38,41-decaoxapentacyclo[40.4.0.0^5,46^.0^19,24^.0^23,28^]hexatetraconta-1(46),2,4,19,21,23,25,27,42,44-decaene-2,22,25,45-tetrasulfonate)) pseudorotaxane hydrate"
_symmetry_cell_setting           monoclinic
_symmetry_space_group_name_H-M   'P 21'
_symmetry_Int_Tables_number      4
_space_group_name_Hall           'P 2yb'
loop_
_symmetry_equiv_pos_site_id
_symmetry_equiv_pos_as_xyz
1 x,y,z
2 -x,1/2+y,-z
_cell_length_a                   14.115(12)
_cell_length_b                   18.546(16)
_cell_length_c                   28.97(3)
_cell_angle_alpha                90
_cell_angle_beta                 102.032(9)
_cell_angle_gamma                90
_cell_volume                     7417.07
_exptl_crystal_colour            orange
_exptl_crystal_description       prism
_cell_formula_units_Z            4
_chemical_properties_physical    Air-sensitive
loop_
_atom_site_label
_atom_site_type_symbol
_atom_site_fract_x
_atom_site_fract_y
_atom_site_fract_z
S1 S 0.84898(18) 0.07200(13) 0.50737(8)
S2 S 0.9947(2) 0.23781(19) 0.72341(9)
S3 S 0.40978(16) 0.18800(15) 0.73604(8)
S4 S 0.27142(18) 0.01733(13) 0.52092(8)
O1 O 0.8604(4) -0.0060(3) 0.5072(2)
O2 O 0.7581(4) 0.0928(4) 0.4787(2)
O3 O 0.9341(4) 0.1091(3) 0.49778(19)
O4 O 1.0458(6) 0.3064(5) 0.7249(3)
O5 O 0.9193(5) 0.2414(5) 0.7500(2)
O6 O 1.0597(5) 0.1782(4) 0.7351(2)
O7 O 0.5018(4) 0.1708(4) 0.76604(19)
O8 O 0.3908(4) 0.2659(4) 0.7354(2)
O9 O 0.3302(4) 0.1470(4) 0.7467(2)
O10 O 0.3460(4) 0.0149(3) 0.49345(19)
O11 O 0.2027(4) 0.0775(3) 0.5088(2)
O12 O 0.2190(5) -0.0519(3) 0.5207(2)
O13 O 0.8902(5) 0.1059(4) 0.7125(2)
O14 O 0.8868(5) 0.0513(6) 0.8139(3)
O15 O 0.7371(6) 0.0227(6) 0.8536(3)
O16 O 0.5470(5) -0.0044(4) 0.8220(2)
O17 O 0.4419(4) 0.0383(4) 0.72497(19)
O18 O 0.3713(4) 0.1526(3) 0.52929(19)
O19 O 0.3782(4) 0.2011(3) 0.4268(2)
O20 O 0.5387(5) 0.2600(4) 0.3983(2)
O21 O 0.7382(5) 0.2751(4) 0.4233(2)
O22 O 0.8308(4) 0.2244(3) 0.5202(2)
C1 C 0.8472(6) 0.0923(5) 0.5668(3)
C2 C 0.8404(7) 0.0309(6) 0.5940(4)
H1 H 0.8259 -0.0145 0.5790
C3 C 0.8546(6) 0.0360(6) 0.6421(4)
H2 H 0.8460 -0.0057 0.6599
C4 C 0.8807(6) 0.0994(7) 0.6653(3)
C5 C 0.8953(7) 0.1622(5) 0.6395(3)
C6 C 0.8711(6) 0.1590(5) 0.5883(3)
C7 C 0.8703(6) 0.2269(5) 0.5652(3)
C8 C 0.9026(6) 0.2884(5) 0.5879(3)
H3 H 0.9001 0.3328 0.5712
C9 C 0.9385(6) 0.2855(5) 0.6350(3)
H4 H 0.9670 0.3281 0.6500
C10 C 0.9371(7) 0.2263(6) 0.6625(3)
C11 C 0.9345(8) 0.0427(8) 0.7388(4)
H5 H 0.9928 0.0275 0.7274
H6 H 0.8881 0.0020 0.7349
C12 C 0.9607(7) 0.0649(9) 0.7888(4)
H7 H 1.0200 0.0387 0.8043
H8 H 0.9758 0.1171 0.7903
C13 C 0.8856(12) -0.0005(9) 0.8327(6)
H9 H 0.9537 -0.0147 0.8452
H10 H 0.8574 -0.0371 0.8089
C14 C 0.8323(9) -0.0066(9) 0.8734(5)
H11 H 0.8278 -0.0575 0.8831
H12 H 0.8653 0.0219 0.9010
C15 C 0.6748(7) 0.0107(6) 0.8881(4)
H13 H 0.6752 -0.0408 0.8972
H14 H 0.6976 0.0399 0.9169
C16 C 0.5774(7) 0.0332(6) 0.8641(3)
H15 H 0.5314 0.0243 0.8850
H16 H 0.5775 0.0855 0.8574
C17 C 0.4466(9) 0.0116(9) 0.8041(3)
H17 H 0.4364 0.0645 0.8036
H18 H 0.4068 -0.0102 0.8248
C18 C 0.4166(8) -0.0179(7) 0.7552(4)
H19 H 0.4517 -0.0631 0.7518
H20 H 0.3461 -0.0276 0.7475
C19 C 0.3998(6) 0.0336(6) 0.6781(3)
C20 C 0.3650(7) -0.0269(6) 0.6576(3)
H21 H 0.3644 -0.0689 0.6764
C21 C 0.3283(7) -0.0308(5) 0.6083(3)
H22 H 0.3035 -0.0750 0.5942
C22 C 0.3288(5) 0.0298(4) 0.5808(3)
C23 C 0.3688(6) 0.0961(5) 0.6024(3)
C24 C 0.3944(6) 0.0997(5) 0.6524(3)
C25 C 0.4119(6) 0.1683(5) 0.6741(3)
C26 C 0.4151(6) 0.2268(5) 0.6473(3)
H23 H 0.4246 0.2725 0.6624
C27 C 0.4052(6) 0.2241(5) 0.5977(3)
H24 H 0.4152 0.2653 0.5797
C28 C 0.3805(6) 0.1590(5) 0.5775(3)
C29 C 0.3230(7) 0.2097(5) 0.5011(3)
H25 H 0.3644 0.2533 0.5057
H26 H 0.2619 0.2212 0.5112
C30 C 0.3013(7) 0.1896(6) 0.4503(3)
H27 H 0.2833 0.1379 0.4475
H28 H 0.2445 0.2176 0.4340
C31 C 0.3885(7) 0.2777(5) 0.4156(3)
H29 H 0.3241 0.2998 0.4041
H30 H 0.4220 0.3042 0.4440
C32 C 0.4452(7) 0.2801(5) 0.3792(3)
H31 H 0.4170 0.2470 0.3531
H32 H 0.4444 0.3296 0.3662
C33 C 0.5930(8) 0.2660(7) 0.3635(3)
H33 H 0.5991 0.3172 0.3550
H34 H 0.5613 0.2393 0.3348
C34 C 0.6940(8) 0.2336(6) 0.3839(3)
H35 H 0.6874 0.1830 0.3936
H36 H 0.7342 0.2344 0.3597
C35 C 0.8363(7) 0.2546(6) 0.4419(3)
H37 H 0.8795 0.2773 0.4232
H38 H 0.8430 0.2016 0.4399
C36 C 0.8641(7) 0.2777(5) 0.4912(3)
H39 H 0.9354 0.2826 0.5004
H40 H 0.8346 0.3251 0.4952
S5 S 0.35211(18) 0.09646(17) 0.00448(8)
S6 S 0.47510(17) 0.23943(15) 0.22907(8)
S7 S -0.10579(16) 0.18294(14) 0.24924(7)
S8 S -0.23046(17) 0.04311(15) 0.02341(8)
O23 O 0.4351(4) 0.1396(4) -0.0016(2)
O24 O 0.2610(4) 0.1148(4) -0.0255(2)
O25 O 0.3745(5) 0.0192(4) 0.0018(2)
O26 O 0.4019(4) 0.2404(4) 0.2570(2)
O27 O 0.5411(4) 0.1795(4) 0.2382(2)
O28 O 0.5229(5) 0.3069(4) 0.2330(2)
O29 O -0.1227(4) 0.2612(3) 0.25333(19)
O30 O -0.0143(4) 0.1615(4) 0.28014(18)
O31 O -0.1884(4) 0.1434(4) 0.25545(18)
O32 O -0.2968(4) 0.1035(3) 0.01474(19)
O33 O -0.1535(4) 0.0438(4) -0.0039(2)
O34 O -0.2840(5) -0.0262(4) 0.0171(2)
O35 O 0.3703(4) 0.1068(3) 0.2113(2)
O36 O 0.3549(4) 0.0414(4) 0.3083(2)
O37 O 0.2137(5) 0.0149(4) 0.3615(2)
O38 O 0.0205(4) -0.0213(4) 0.3234(2)
O39 O -0.0781(4) 0.0341(4) 0.23126(19)
O40 O -0.1234(4) 0.1739(3) 0.04314(17)
O41 O -0.1124(5) 0.2417(4) -0.05691(19)
O42 O 0.0207(5) 0.2346(4) -0.1144(2)
O43 O 0.2133(6) 0.2877(5) -0.0708(2)
O44 O 0.3148(4) 0.2426(4) 0.02385(19)
C37 C 0.3440(6) 0.1053(6) 0.0655(3)
C38 C 0.3362(6) 0.0432(6) 0.0883(3)
H41 H 0.3251 -0.0006 0.0711
C39 C 0.3445(6) 0.0427(5) 0.1378(3)
H42 H 0.3340 -0.0012 0.1529
C40 C 0.3663(6) 0.1014(6) 0.1638(3)
C41 C 0.3816(6) 0.1690(6) 0.1414(3)
C42 C 0.3590(6) 0.1700(6) 0.0908(3)
C43 C 0.3537(7) 0.2385(6) 0.0695(3)
C44 C 0.3824(6) 0.3019(5) 0.0954(3)
H43 H 0.3771 0.3472 0.0797
C45 C 0.4179(7) 0.2986(6) 0.1430(3)
H44 H 0.4433 0.3406 0.1599
C46 C 0.4167(6) 0.2322(6) 0.1670(3)
C47 C 0.4114(8) 0.0443(6) 0.2370(4)
H45 H 0.4714 0.0298 0.2268
H46 H 0.3650 0.0036 0.2310
C48 C 0.4343(6) 0.0629(6) 0.2898(3)
H47 H 0.4935 0.0372 0.3060
H48 H 0.4453 0.1154 0.2942
C49 C 0.3767(7) 0.0398(8) 0.3541(4)
H49 H 0.3707 0.0890 0.3665
H50 H 0.4450 0.0243 0.3646
C50 C 0.3115(7) -0.0113(6) 0.3744(3)
H51 H 0.3157 -0.0605 0.3618
H52 H 0.3323 -0.0133 0.4092
C51 C 0.1494(6) -0.0135(5) 0.3886(3)
H53 H 0.1692 0.0033 0.4217
H54 H 0.1525 -0.0668 0.3886
C52 C 0.0488(5) 0.0104(6) 0.3687(3)
H55 H 0.0049 -0.0053 0.3893
H56 H 0.0460 0.0636 0.3662
C53 C -0.0793(7) -0.0065(7) 0.3074(3)
H57 H -0.0922 0.0452 0.3118
H58 H -0.1179 -0.0352 0.3256
C54 C -0.1077(7) -0.0261(6) 0.2550(3)
H59 H -0.0739 -0.0705 0.2483
H60 H -0.1784 -0.0338 0.2453
C55 C -0.1172(6) 0.0325(6) 0.1832(3)
C56 C -0.1515(7) -0.0231(6) 0.1563(3)
H61 H -0.1555 -0.0682 0.1713
C57 C -0.1828(6) -0.0201(6) 0.1066(3)
H62 H -0.2082 -0.0618 0.0893
C58 C -0.1761(6) 0.0419(6) 0.0845(3)
C59 C -0.1392(6) 0.1055(6) 0.1101(3)
C60 C -0.1164(6) 0.1015(6) 0.1620(3)
C61 C -0.0972(6) 0.1679(5) 0.1891(3)
C62 C -0.0889(6) 0.2332(6) 0.1658(3)
H63 H -0.0783 0.2767 0.1834
C63 C -0.0960(6) 0.2350(5) 0.1167(3)
H64 H -0.0849 0.2783 0.1011
C64 C -0.1193(6) 0.1728(5) 0.0923(3)
C65 C -0.1606(7) 0.2390(6) 0.0181(3)
H65 H -0.1099 0.2768 0.0225
H66 H -0.2168 0.2576 0.0301
C66 C -0.1907(6) 0.2192(6) -0.0330(3)
H67 H -0.2011 0.1665 -0.0364
H68 H -0.2519 0.2439 -0.0474
C67 C -0.1403(7) 0.2191(5) -0.1065(2)
H69 H -0.2079 0.2334 -0.1202
H70 H -0.1344 0.1661 -0.1093
C68 C -0.0694(7) 0.2580(7) -0.1317(3)
H71 H -0.0871 0.2484 -0.1660
H72 H -0.0729 0.3107 -0.1267
C69 C 0.0861(8) 0.2778(10) -0.1378(3)
H73 H 0.0765 0.3299 -0.1329
H74 H 0.0719 0.2681 -0.1722
C70 C 0.1937(9) 0.2557(9) -0.1153(4)
H75 H 0.2000 0.2027 -0.1127
H76 H 0.2387 0.2738 -0.1347
C71 C 0.3170(7) 0.2866(6) -0.0532(3)
H77 H 0.3493 0.3205 -0.0714
H78 H 0.3430 0.2376 -0.0560
C72 C 0.3337(7) 0.3089(6) -0.0029(3)
H79 H 0.2891 0.3483 0.0013
H80 H 0.4012 0.3257 0.0082
N1 N 0.6930(6) 0.1611(5) 0.7372(3)
N2 N 0.5651(6) 0.0994(5) 0.5030(3)
C73 C 0.6985(6) 0.2163(6) 0.7073(3)
H81 H 0.7210 0.2623 0.7193
C74 C 0.6715(7) 0.2055(5) 0.6596(4)
C75 C 0.6781(7) 0.2613(6) 0.6283(3)
H82 H 0.7018 0.3073 0.6398
C76 C 0.6505(7) 0.2495(5) 0.5811(4)
H83 H 0.6511 0.2879 0.5595
C77 C 0.6211(7) 0.1805(6) 0.5643(3)
C78 C 0.5945(7) 0.1664(5) 0.5166(4)
H84 H 0.5969 0.2031 0.4939
C79 C 0.5619(7) 0.0474(6) 0.5308(5)
H85 H 0.5421 0.0014 0.5180
C80 C 0.5868(7) 0.0556(6) 0.5799(4)
C81 C 0.5854(7) -0.0018(5) 0.6132(5)
H86 H 0.5672 -0.0488 0.6015
C82 C 0.6087(7) 0.0082(8) 0.6596(4)
H87 H 0.6058 -0.0302 0.6810
C83 C 0.6392(7) 0.0810(6) 0.6766(5)
C84 C 0.6653(7) 0.0941(7) 0.7234(4)
H88 H 0.6641 0.0569 0.7459
C85 C 0.6420(7) 0.1367(6) 0.6446(4)
C86 C 0.6148(7) 0.1239(5) 0.5957(4)
C87 C 0.7234(7) 0.1728(7) 0.7881(3)
H89 H 0.6929 0.1366 0.8049
H90 H 0.7035 0.2211 0.7960
H91 H 0.7940 0.1685 0.7974
C88 C 0.5308(8) 0.0859(6) 0.4526(4)
H92 H 0.5678 0.0462 0.4428
H93 H 0.5395 0.1295 0.4348
H94 H 0.4619 0.0730 0.4465
N3 N 0.1009(5) -0.0492(5) 0.6399(3)
N4 N 0.1751(5) 0.3167(4) 0.6039(2)
C89 C 0.1447(7) -0.0067(6) 0.6765(3)
H95 H 0.1666 -0.0274 0.7068
C90 C 0.1579(7) 0.0656(6) 0.6703(3)
H96 H 0.1876 0.0943 0.6965
C91 C 0.1288(6) 0.0973(6) 0.6268(3)
C92 C 0.0820(6) 0.0513(6) 0.5902(3)
H97 H 0.0593 0.0712 0.5597
C93 C 0.0682(7) -0.0199(7) 0.5968(3)
H98 H 0.0358 -0.0490 0.5713
C94 C 0.0851(7) -0.1255(6) 0.6456(3)
H99 H 0.0452 -0.1449 0.6165
H100 H 0.0518 -0.1328 0.6717
H101 H 0.1476 -0.1506 0.6525
C95 C 0.1933(7) 0.2916(5) 0.6471(3)
H102 H 0.2162 0.3228 0.6730
C96 C 0.1789(7) 0.2207(6) 0.6544(3)
H103 H 0.1950 0.2026 0.6857
C97 C 0.1432(6) 0.1748(6) 0.6194(3)
C98 C 0.1210(7) 0.2039(5) 0.5736(3)
H104 H 0.0939 0.1743 0.5474
C99 C 0.1385(7) 0.2739(5) 0.5675(3)
H105 H 0.1245 0.2934 0.5365
C100 C 0.1911(7) 0.3948(5) 0.5943(3)
H106 H 0.2302 0.3987 0.5701
H107 H 0.2250 0.4182 0.6234
H108 H 0.1284 0.4184 0.5830
N5 N 0.1841(5) 0.1624(4) 0.2630(3)
N6 N 0.0748(5) 0.1101(5) 0.0238(3)
C101 C 0.1899(6) 0.2212(5) 0.2349(3)
H109 H 0.2078 0.2671 0.2485
C102 C 0.1689(6) 0.2124(5) 0.1860(3)
C103 C 0.1729(6) 0.2703(6) 0.1537(3)
H110 H 0.1912 0.3174 0.1651
C104 C 0.1515(6) 0.2576(5) 0.1091(3)
H111 H 0.1547 0.2968 0.0883
C105 C 0.1239(6) 0.1903(6) 0.0888(3)
C106 C 0.1025(6) 0.1755(6) 0.0416(3)
H112 H 0.1075 0.2134 0.0202
C107 C 0.0719(6) 0.0568(6) 0.0531(4)
H113 H 0.0546 0.0105 0.0400
C108 C 0.0916(6) 0.0627(6) 0.1008(3)
C109 C 0.0879(6) 0.0049(5) 0.1329(3)
H114 H 0.0702 -0.0420 0.1208
C110 C 0.1081(6) 0.0149(5) 0.1780(3)
H115 H 0.1058 -0.0250 0.1983
C111 C 0.1333(6) 0.0833(5) 0.1980(3)
C112 C 0.1586(6) 0.0960(5) 0.2442(4)
H116 H 0.1589 0.0566 0.2652
C113 C 0.1392(6) 0.1413(6) 0.1666(3)
C114 C 0.1167(6) 0.1304(6) 0.1186(3)
C115 C 0.2123(6) 0.1775(6) 0.3147(3)
H117 H 0.2829 0.1820 0.3239
H118 H 0.1906 0.1377 0.3323
H119 H 0.1820 0.2225 0.3218
C116 C 0.0494(7) 0.0999(6) -0.0257(3)
H120 H 0.0912 0.0628 -0.0350
H121 H 0.0579 0.1453 -0.0416
H122 H -0.0184 0.0846 -0.0346
N7 N 0.5823(5) -0.0492(5) 0.1412(3)
N8 N 0.6522(5) 0.3196(5) 0.1144(2)
C117 C 0.6223(6) -0.0091(6) 0.1785(3)
H123 H 0.6408 -0.0305 0.2088
C118 C 0.6359(7) 0.0607(7) 0.1729(3)
H124 H 0.6632 0.0883 0.2001
C119 C 0.6126(6) 0.0963(6) 0.1294(3)
C120 C 0.5747(6) 0.0499(7) 0.0902(3)
H125 H 0.5620 0.0696 0.0592
C121 C 0.5567(7) -0.0199(6) 0.0957(4)
H126 H 0.5274 -0.0489 0.0696
C122 C 0.5631(6) -0.1236(6) 0.1489(3)
H127 H 0.6230 -0.1474 0.1649
H128 H 0.5384 -0.1472 0.1185
H129 H 0.5147 -0.1272 0.1686
C123 C 0.6794(6) 0.2876(6) 0.1554(3)
H130 H 0.7086 0.3152 0.1822
C124 C 0.6662(6) 0.2141(6) 0.1600(3)
H131 H 0.6863 0.1925 0.1902
C125 C 0.6265(5) 0.1731(6) 0.1239(3)
C126 C 0.5982(7) 0.2059(6) 0.0804(3)
H132 H 0.5701 0.1784 0.0533
C127 C 0.6112(7) 0.2778(7) 0.0769(3)
H133 H 0.5907 0.3001 0.0469
C128 C 0.6608(8) 0.3993(6) 0.1078(3)
H134 H 0.7049 0.4198 0.1353
H135 H 0.5969 0.4218 0.1044
H136 H 0.6864 0.4086 0.0794
O45 O 0.6741(4) 0.1020(4) 0.3028(2)
O46 O 0.5741(4) 0.2367(3) 0.85508(19)
O47 O 0.5699(4) 0.1755(4) 0.94530(19)
O48 O 0.6878(5) 0.0313(4) 0.3896(2)
O49 O 0.0664(5) 0.1581(4) 0.4508(2)
O50 O 0.5296(4) 0.9568(4) 0.96329(19)
O51 O 0.2016(5) 0.1065(5) 0.8015(2)
O52 O 0.2371(5) 0.3220(4) 0.7786(2)
O53 O 0.0402(5) 0.2370(4) 0.3697(2)
O54 O 0.5660(4) 0.3266(4) 0.96186(18)
O55 O 0.0205(5) 0.9304(4) 0.4786(2)
O56 O 0.1914(7) 0.0410(4) 0.8885(3)
O57 O 0.7174(5) 0.3327(5) 0.2790(3)
O58 O 0.3918(5) 0.8509(4) 0.5156(2)
O59 O 0.4330(5) 0.4106(4) 0.6145(2)
O60 O 0.9854(5) 0.3805(4) 0.2483(2)
O61 O 0.6756(5) 0.9488(4) 0.2891(2)
O62 O 0.1360(5) 0.8950(4) 0.2689(2)
O63 O 0.7534(5) 0.8765(4) 0.5220(3)
O64 O 0.6932(4) 0.3701(4) 0.7579(2)
O65 O 0.4446(5) 0.3837(4) 0.5237(2)
O66 O 0.4976(5) 0.8814(4) 0.2861(2)
O67 O 0.0951(5) 0.9149(4) 0.9256(2)
O68 O 0.8151(6) 0.8763(5) 0.7099(4)
O69 O 0.6833(5) 0.3637(5) 0.8490(3)
O70 O 0.9346(6) 0.8162(4) 0.0270(2)
O71 O 0.7417(5) 0.4081(4) 0.0029(2)
O72 O 0.6611(7) 0.9110(6) 0.7625(4)
O74 O 0.8397(6) 0.8572(5) 0.6205(3)
O75 O 0.8220(6) 0.3912(4) 0.9274(3)
O76 O 0.9449(6) 0.9285(5) 0.9709(3)
O77 O 0.8101(7) 0.4484(6) 0.2133(3)
O78 O 0.8763(14) 0.4189(11) 0.1541(6)
O73? O 0.6619(17) 0.8609(14) 0.7101(8)
loop_
_geom_bond_atom_site_label_1
_geom_bond_atom_site_label_2
_geom_bond_site_symmetry_1
_geom_bond_site_symmetry_2
S1 O1 1_555 1_555
S2 O4 1_555 1_555
S3 O7 1_555 1_555
S4 O10 1_555 1_555
O2 S1 1_555 1_555
O3 S1 1_555 1_555
O5 S2 1_555 1_555
O6 S2 1_555 1_555
O8 S3 1_555 1_555
O9 S3 1_555 1_555
O11 S4 1_555 1_555
O12 S4 1_555 1_555
O13 C4 1_555 1_555
O14 C12 1_555 1_555
O15 C14 1_555 1_555
O16 C16 1_555 1_555
O17 C18 1_555 1_555
O18 C28 1_555 1_555
O19 C30 1_555 1_555
O20 C32 1_555 1_555
O21 C34 1_555 1_555
O22 C7 1_555 1_555
C1 S1 1_555 1_555
C2 C1 1_555 1_555
H1 C2 1_555 1_555
C3 C2 1_555 1_555
H2 C3 1_555 1_555
C4 C3 1_555 1_555
C5 C4 1_555 1_555
C6 C1 1_555 1_555
C7 C6 1_555 1_555
C8 C7 1_555 1_555
H3 C8 1_555 1_555
C9 C8 1_555 1_555
H4 C9 1_555 1_555
C10 S2 1_555 1_555
C11 O13 1_555 1_555
H5 C11 1_555 1_555
H6 C11 1_555 1_555
C12 C11 1_555 1_555
H7 C12 1_555 1_555
H8 C12 1_555 1_555
C13 O14 1_555 1_555
H9 C13 1_555 1_555
H10 C13 1_555 1_555
C14 C13 1_555 1_555
H11 C14 1_555 1_555
H12 C14 1_555 1_555
C15 O15 1_555 1_555
H13 C15 1_555 1_555
H14 C15 1_555 1_555
C16 C15 1_555 1_555
H15 C16 1_555 1_555
H16 C16 1_555 1_555
C17 O16 1_555 1_555
H17 C17 1_555 1_555
H18 C17 1_555 1_555
C18 C17 1_555 1_555
H19 C18 1_555 1_555
H20 C18 1_555 1_555
C19 O17 1_555 1_555
C20 C19 1_555 1_555
H21 C20 1_555 1_555
C21 C20 1_555 1_555
H22 C21 1_555 1_555
C22 S4 1_555 1_555
C23 C22 1_555 1_555
C24 C19 1_555 1_555
C25 S3 1_555 1_555
C26 C25 1_555 1_555
H23 C26 1_555 1_555
C27 C26 1_555 1_555
H24 C27 1_555 1_555
C28 C23 1_555 1_555
C29 O18 1_555 1_555
H25 C29 1_555 1_555
H26 C29 1_555 1_555
C30 C29 1_555 1_555
H27 C30 1_555 1_555
H28 C30 1_555 1_555
C31 O19 1_555 1_555
H29 C31 1_555 1_555
H30 C31 1_555 1_555
C32 C31 1_555 1_555
H31 C32 1_555 1_555
H32 C32 1_555 1_555
C33 O20 1_555 1_555
H33 C33 1_555 1_555
H34 C33 1_555 1_555
C34 C33 1_555 1_555
H35 C34 1_555 1_555
H36 C34 1_555 1_555
C35 O21 1_555 1_555
H37 C35 1_555 1_555
H38 C35 1_555 1_555
C36 O22 1_555 1_555
H39 C36 1_555 1_555
H40 C36 1_555 1_555
S5 O23 1_555 1_555
S6 O26 1_555 1_555
S7 O29 1_555 1_555
S8 O32 1_555 1_555
O24 S5 1_555 1_555
O25 S5 1_555 1_555
O27 S6 1_555 1_555
O28 S6 1_555 1_555
O30 S7 1_555 1_555
O31 S7 1_555 1_555
O33 S8 1_555 1_555
O34 S8 1_555 1_555
O35 C40 1_555 1_555
O36 C48 1_555 1_555
O37 C50 1_555 1_555
O38 C52 1_555 1_555
O39 C54 1_555 1_555
O40 C64 1_555 1_555
O41 C66 1_555 1_555
O42 C68 1_555 1_555
O43 C70 1_555 1_555
O44 C43 1_555 1_555
C37 S5 1_555 1_555
C38 C37 1_555 1_555
H41 C38 1_555 1_555
C39 C38 1_555 1_555
H42 C39 1_555 1_555
C40 C39 1_555 1_555
C41 C40 1_555 1_555
C42 C37 1_555 1_555
C43 C42 1_555 1_555
C44 C43 1_555 1_555
H43 C44 1_555 1_555
C45 C44 1_555 1_555
H44 C45 1_555 1_555
C46 S6 1_555 1_555
C47 O35 1_555 1_555
H45 C47 1_555 1_555
H46 C47 1_555 1_555
C48 C47 1_555 1_555
H47 C48 1_555 1_555
H48 C48 1_555 1_555
C49 O36 1_555 1_555
H49 C49 1_555 1_555
H50 C49 1_555 1_555
C50 C49 1_555 1_555
H51 C50 1_555 1_555
H52 C50 1_555 1_555
C51 O37 1_555 1_555
H53 C51 1_555 1_555
H54 C51 1_555 1_555
C52 C51 1_555 1_555
H55 C52 1_555 1_555
H56 C52 1_555 1_555
C53 O38 1_555 1_555
H57 C53 1_555 1_555
H58 C53 1_555 1_555
C54 C53 1_555 1_555
H59 C54 1_555 1_555
H60 C54 1_555 1_555
C55 O39 1_555 1_555
C56 C55 1_555 1_555
H61 C56 1_555 1_555
C57 C56 1_555 1_555
H62 C57 1_555 1_555
C58 S8 1_555 1_555
C59 C58 1_555 1_555
C60 C55 1_555 1_555
C61 S7 1_555 1_555
C62 C61 1_555 1_555
H63 C62 1_555 1_555
C63 C62 1_555 1_555
H64 C63 1_555 1_555
C64 C59 1_555 1_555
C65 O40 1_555 1_555
H65 C65 1_555 1_555
H66 C65 1_555 1_555
C66 C65 1_555 1_555
H67 C66 1_555 1_555
H68 C66 1_555 1_555
C67 O41 1_555 1_555
H69 C67 1_555 1_555
H70 C67 1_555 1_555
C68 C67 1_555 1_555
H71 C68 1_555 1_555
H72 C68 1_555 1_555
C69 O42 1_555 1_555
H73 C69 1_555 1_555
H74 C69 1_555 1_555
C70 C69 1_555 1_555
H75 C70 1_555 1_555
H76 C70 1_555 1_555
C71 O43 1_555 1_555
H77 C71 1_555 1_555
H78 C71 1_555 1_555
C72 O44 1_555 1_555
H79 C72 1_555 1_555
H80 C72 1_555 1_555
N1 C73 1_555 1_555
N2 C78 1_555 1_555
C73 H81 1_555 1_555
C74 C73 1_555 1_555
C75 C74 1_555 1_555
H82 C75 1_555 1_555
C76 C75 1_555 1_555
H83 C76 1_555 1_555
C77 C76 1_555 1_555
C78 C77 1_555 1_555
H84 C78 1_555 1_555
C79 N2 1_555 1_555
H85 C79 1_555 1_555
C80 C79 1_555 1_555
C81 C80 1_555 1_555
H86 C81 1_555 1_555
C82 C81 1_555 1_555
H87 C82 1_555 1_555
C83 C82 1_555 1_555
C84 N1 1_555 1_555
H88 C84 1_555 1_555
C85 C74 1_555 1_555
C86 C77 1_555 1_555
C87 N1 1_555 1_555
H89 C87 1_555 1_555
H90 C87 1_555 1_555
H91 C87 1_555 1_555
C88 N2 1_555 1_555
H92 C88 1_555 1_555
H93 C88 1_555 1_555
H94 C88 1_555 1_555
N3 C89 1_555 1_555
N4 C95 1_555 1_555
C89 H95 1_555 1_555
C90 C89 1_555 1_555
H96 C90 1_555 1_555
C91 C90 1_555 1_555
C92 C91 1_555 1_555
H97 C92 1_555 1_555
C93 N3 1_555 1_555
H98 C93 1_555 1_555
C94 N3 1_555 1_555
H99 C94 1_555 1_555
H100 C94 1_555 1_555
H101 C94 1_555 1_555
C95 H102 1_555 1_555
C96 C95 1_555 1_555
H103 C96 1_555 1_555
C97 C91 1_555 1_555
C98 C97 1_555 1_555
H104 C98 1_555 1_555
C99 N4 1_555 1_555
H105 C99 1_555 1_555
C100 N4 1_555 1_555
H106 C100 1_555 1_555
H107 C100 1_555 1_555
H108 C100 1_555 1_555
N5 C101 1_555 1_555
N6 C106 1_555 1_555
C101 H109 1_555 1_555
C102 C101 1_555 1_555
C103 C102 1_555 1_555
H110 C103 1_555 1_555
C104 C103 1_555 1_555
H111 C104 1_555 1_555
C105 C104 1_555 1_555
C106 C105 1_555 1_555
H112 C106 1_555 1_555
C107 N6 1_555 1_555
H113 C107 1_555 1_555
C108 C107 1_555 1_555
C109 C108 1_555 1_555
H114 C109 1_555 1_555
C110 C109 1_555 1_555
H115 C110 1_555 1_555
C111 C110 1_555 1_555
C112 N5 1_555 1_555
H116 C112 1_555 1_555
C113 C102 1_555 1_555
C114 C105 1_555 1_555
C115 N5 1_555 1_555
H117 C115 1_555 1_555
H118 C115 1_555 1_555
H119 C115 1_555 1_555
C116 N6 1_555 1_555
H120 C116 1_555 1_555
H121 C116 1_555 1_555
H122 C116 1_555 1_555
N7 C117 1_555 1_555
N8 C123 1_555 1_555
C117 H123 1_555 1_555
C118 C117 1_555 1_555
H124 C118 1_555 1_555
C119 C118 1_555 1_555
C120 C119 1_555 1_555
H125 C120 1_555 1_555
C121 N7 1_555 1_555
H126 C121 1_555 1_555
C122 N7 1_555 1_555
H127 C122 1_555 1_555
H128 C122 1_555 1_555
H129 C122 1_555 1_555
C123 H130 1_555 1_555
C124 C123 1_555 1_555
H131 C124 1_555 1_555
C125 C119 1_555 1_555
C126 C125 1_555 1_555
H132 C126 1_555 1_555
C127 N8 1_555 1_555
H133 C127 1_555 1_555
C128 N8 1_555 1_555
H134 C128 1_555 1_555
H135 C128 1_555 1_555
H136 C128 1_555 1_555
C5 C6 1_555 1_555
C5 C10 1_555 1_555
C9 C10 1_555 1_555
C21 C22 1_555 1_555
C23 C24 1_555 1_555
C24 C25 1_555 1_555
C27 C28 1_555 1_555
C35 C36 1_555 1_555
C41 C42 1_555 1_555
C41 C46 1_555 1_555
C45 C46 1_555 1_555
C57 C58 1_555 1_555
C59 C60 1_555 1_555
C60 C61 1_555 1_555
C63 C64 1_555 1_555
C71 C72 1_555 1_555
C80 C86 1_555 1_555
C83 C84 1_555 1_555
C83 C85 1_555 1_555
C85 C86 1_555 1_555
C92 C93 1_555 1_555
C96 C97 1_555 1_555
C98 C99 1_555 1_555
C108 C114 1_555 1_555
C111 C112 1_555 1_555
C111 C113 1_555 1_555
C113 C114 1_555 1_555
C120 C121 1_555 1_555
C124 C125 1_555 1_555
C126 C127 1_555 1_555

#END
