
#######################################################################
#
#                 Cambridge Crystallographic Data Centre
#                                CCDC 
#
#######################################################################
#
# If this CIF has been generated from an entry in the Cambridge 
# Structural Database, then it will include bibliographic, chemical, 
# crystal, experimental, refinement or atomic coordinate data resulting 
# from the CCDC's data processing and validation procedures.
#
#######################################################################

data_QOPQUI
_chemical_formula_moiety         
'C14 H18 N2 O2 2+,C33 H37 N1 O12,2(F6 P1 1-),3(C2 H3 N1),H2 O1'
_chemical_name_systematic        
"[2]-(1,1'-bis(2-Hydroxyethyl)-4,4'-bipyridinium)-(2,5,8,11,13,16,19,22,24,28-deca-oxa-1,12(1,3,5)-dibenzena-26(2,6)-pyridinabicyclo[10.10.7]nonacosaphane-25,27-dione cryptand)-pseudorotaxane bis(hexafluorophosphate) acetonitrile solvate monohydrate"
_symmetry_cell_setting           monoclinic
_symmetry_space_group_name_H-M   'P 21/c'
_symmetry_Int_Tables_number      14
_space_group_name_Hall           '-P 2ybc'
loop_
_symmetry_equiv_pos_site_id
_symmetry_equiv_pos_as_xyz
1 x,y,z
2 -x,1/2+y,1/2-z
3 -x,-y,-z
4 x,1/2-y,1/2+z
_cell_length_a                   11.8411(13)
_cell_length_b                   19.093(2)
_cell_length_c                   25.949(3)
_cell_angle_alpha                90
_cell_angle_beta                 93.804(7)
_cell_angle_gamma                90
_cell_volume                     5853.68
_exptl_crystal_colour            yellow
_exptl_crystal_description       prism
_cell_formula_units_Z            4
_exptl_crystal_recrystallization_method 'acetonitrile/di-isopropyl ether'
loop_
_atom_site_label
_atom_site_type_symbol
_atom_site_fract_x
_atom_site_fract_y
_atom_site_fract_z
C1 C 0.4654(3) 0.89795(19) 0.14759(13)
C2 C 0.4337(3) 0.83928(18) 0.11028(13)
C3 C 0.4854(3) 0.72893(18) 0.15427(12)
C4 C 0.5583(3) 0.67488(18) 0.16634(12)
C5 C 0.6628(3) 0.67165(18) 0.14388(12)
C6 C 0.6872(3) 0.72482(18) 0.10893(12)
C7 C 0.6113(3) 0.77752(18) 0.09801(12)
C8 C 0.7453(3) 0.61482(17) 0.15699(12)
C9 C 0.7397(3) 0.57465(18) 0.20205(13)
C10 C 0.8321(3) 0.60075(18) 0.12491(12)
C11 C 0.8190(3) 0.52389(18) 0.21317(13)
C12 C 0.9095(3) 0.54969(19) 0.13776(13)
C13 C 0.9937(3) 0.4606(2) 0.19579(15)
C14 C 1.0787(4) 0.4938(2) 0.23373(14)
N1 N 0.5116(2) 0.77912(15) 0.1203(1)
N2 N 0.9031(3) 0.51161(15) 0.18122(11)
O3 O 1.1164(3) 0.55897(14) 0.21713(11)
O4 O 0.4634(2) 0.87467(15) 0.1998(1)
H1 H 0.5435(3) 0.91450(19) 0.14152(13)
H2 H 0.4107(3) 0.93752(19) 0.14166(13)
H3 H 0.4392(3) 0.85604(18) 0.07402(13)
H4 H 0.3544(3) 0.82408(18) 0.11521(13)
H5 H 0.4116(3) 0.73144(18) 0.17082(12)
H6 H 0.5376(3) 0.63759(18) 0.19106(12)
H7 H 0.7606(3) 0.72391(18) 0.09198(12)
H8 H 0.6301(3) 0.81538(18) 0.07337(12)
H9 H 0.6777(3) 0.58302(18) 0.22565(13)
H10 H 0.8374(3) 0.62848(18) 0.09247(12)
H11 H 0.8154(3) 0.49542(18) 0.24537(13)
H12 H 0.9720(3) 0.54021(19) 0.11460(13)
H13 H 1.0320(3) 0.4462(2) 0.16426(15)
H14 H 0.9600(3) 0.4185(2) 0.21178(15)
H15 H 1.1453(4) 0.4619(2) 0.23932(14)
H16 H 1.0428(4) 0.5010(2) 0.26716(14)
H52 H 1.1567(3) 0.56128(14) 0.19465(11)
H55 H 0.3939(2) 0.88018(15) 0.2115(1)
C15 C 1.0170(3) 0.61815(17) -0.00809(12)
C16 C 1.0911(3) 0.63565(18) -0.04577(13)
C17 C 1.1777(3) 0.68251(19) -0.03275(13)
C18 C 1.1897(3) 0.70733(18) 0.01727(13)
C19 C 1.1132(2) 0.68526(17) 0.05244(12)
C20 C 1.1337(3) 0.70980(17) 0.10722(12)
C21 C 0.9232(3) 0.56789(16) -0.02328(12)
C22 C 0.7385(3) 0.52890(19) -0.00864(13)
C23 C 0.6380(3) 0.56140(18) 0.01408(12)
C24 C 0.5990(3) 0.62566(19) -0.00552(12)
C25 C 0.5046(3) 0.65658(18) 0.01467(12)
C26 C 0.4489(3) 0.62218(19) 0.05313(12)
C27 C 0.4897(3) 0.55898(19) 0.07261(12)
C28 C 0.5853(3) 0.52740(19) 0.05368(12)
C29 C 1.0592(3) 0.72957(19) 0.18908(13)
C30 C 0.9482(3) 0.76097(17) 0.20201(12)
C31 C 0.8796(3) 0.72657(17) 0.23516(12)
C32 C 0.7744(3) 0.75592(17) 0.24510(12)
C33 C 0.7383(3) 0.81787(17) 0.22180(11)
C34 C 0.8079(3) 0.85077(17) 0.18768(12)
C35 C 0.9132(3) 0.82376(18) 0.17858(12)
C36 C 0.8262(3) 0.9447(2) 0.12700(14)
C37 C 0.7486(3) 0.98236(19) 0.08862(13)
C38 C 0.6501(3) 0.9633(2) 0.00841(14)
C39 C 0.6045(3) 0.9080(2) -0.02836(14)
C40 C 0.4532(3) 0.8281(2) -0.04533(14)
C41 C 0.5061(3) 0.7561(2) -0.04273(13)
C42 C 0.6051(3) 0.74400(18) 0.29100(12)
C43 C 0.5477(3) 0.68518(19) 0.31735(13)
C44 C 0.4597(3) 0.57584(19) 0.30140(14)
O1 O 0.4312(2) 0.53137(14) 0.11163(9)
C51 C 0.4149(6) 0.4645(2) 0.18795(19)
O2 O 0.4716(3) 0.51868(17) 0.22380(12)
N3 N 1.0257(2) 0.64227(14) 0.0403(1)
O5 O 0.92734(19) 0.52758(12) -0.05907(9)
O6 O 1.22542(19) 0.73190(13) 0.12319(9)
O7 O 0.83679(18) 0.57264(12) 0.00644(8)
O8 O 1.04345(18) 0.70563(12) 0.13469(8)
O9 O 0.46206(19) 0.72100(13) 0.00095(9)
O10 O 0.5063(2) 0.87657(13) -0.00920(9)
O11 O 0.6963(2) 0.93186(12) 0.05446(9)
O12 O 0.76063(19) 0.90917(12) 0.16361(9)
O13 O 0.71241(18) 0.71666(12) 0.27695(8)
O14 O 0.5086(2) 0.63546(13) 0.27963(9)
C52 C 0.4084(5) 0.5293(3) 0.26288(15)
C53 C 0.4762(4) 0.4708(2) 0.13962(14)
H17 H 1.0814(3) 0.61504(18) -0.08122(13)
H18 H 1.2300(3) 0.69815(19) -0.05918(13)
H19 H 1.2526(3) 0.74011(18) 0.02834(13)
H20 H 0.7261(3) 0.52740(19) -0.04712(13)
H21 H 0.7505(3) 0.48027(19) 0.00494(13)
H22 H 0.6381(3) 0.64946(19) -0.03370(12)
H23 H 0.3794(3) 0.64332(19) 0.06662(12)
H24 H 0.6151(3) 0.48208(19) 0.06830(12)
H25 H 1.1206(3) 0.76553(19) 0.19275(13)
H26 H 1.0790(3) 0.68903(19) 0.21234(13)
H27 H 0.9045(3) 0.68151(17) 0.25195(12)
H28 H 0.6637(3) 0.83882(17) 0.22925(11)
H29 H 0.9636(3) 0.84919(18) 0.15543(12)
H30 H 0.8791(3) 0.9786(2) 0.14540(14)
H31 H 0.8708(3) 0.9094(2) 0.10832(14)
H32 H 0.7922(3) 1.01681(19) 0.06873(13)
H33 H 0.6895(3) 1.00762(19) 0.10720(13)
H34 H 0.7102(3) 0.9910(2) -0.00767(14)
H35 H 0.5867(3) 0.9951(2) 0.01662(14)
H36 H 0.5846(3) 0.9291(2) -0.06307(14)
H37 H 0.6640(3) 0.8714(2) -0.03150(14)
H38 H 0.4585(3) 0.8471(2) -0.08100(14)
H39 H 0.3719(3) 0.8234(2) -0.03779(14)
H40 H 0.5903(3) 0.7604(2) -0.03752(13)
H41 H 0.4862(3) 0.7293(2) -0.07519(13)
H42 H 0.6178(3) 0.78465(18) 0.31500(12)
H43 H 0.5583(3) 0.75932(18) 0.25954(12)
H44 H 0.4822(3) 0.70376(19) 0.33561(13)
H45 H 0.6028(3) 0.66227(19) 0.34291(13)
H46 H 0.4020(3) 0.59155(19) 0.32537(14)
H47 H 0.5205(3) 0.54885(19) 0.32121(14)
H48 H 0.3333(6) 0.4763(2) 0.18000(19)
H49 H 0.4210(6) 0.4163(2) 0.20308(19)
H50 H 0.5585(4) 0.4778(2) 0.14950(14)
H51 H 0.4660(4) 0.4277(2) 0.11794(14)
C45 C 0.1686(3) 0.3029(2) 0.11929(15)
C46 C 0.0885(3) 0.2455(2) 0.12533(15)
N4 N 0.2301(3) 0.3481(2) 0.11450(15)
H53 H 0.1264(3) 0.2057(2) 0.14191(15)
H54 H 0.0326(3) 0.2606(2) 0.14882(15)
H56 H 0.0462(3) 0.2424(2) 0.09251(15)
C47 C 0.0998(4) 0.3201(3) 0.48981(16)
C48 C 0.0191(5) 0.3776(3) 0.4899(2)
N5 N 0.1620(4) 0.2758(2) 0.48995(16)
H60 H -0.0509(5) 0.3655(3) 0.4680(2)
H61 H -0.0011(5) 0.3868(3) 0.5261(2)
H62 H 0.0545(5) 0.4205(3) 0.4757(2)
C49 C 0.1580(5) 0.6478(3) 0.3794(2)
C50 C 0.1493(6) 0.6369(4) 0.3242(2)
N6 N 0.1659(4) 0.6557(3) 0.42401(19)
H57 H 0.1712(6) 0.6808(4) 0.3063(2)
H58 H 0.0694(6) 0.6245(4) 0.3129(2)
H59 H 0.2007(6) 0.5979(4) 0.3150(2)
F1 F 0.1094(2) -0.04874(13) 0.16279(9)
F2 F 0.2005(2) 0.08252(13) 0.1013(1)
F3 F 0.26494(19) 0.01921(15) 0.17121(9)
F4 F 0.0468(2) 0.01296(16) 0.0922(1)
F5 F 0.0907(2) 0.06760(15) 0.1685(1)
F6 F 0.2218(2) -0.03509(13) 0.09507(9)
P1 P 0.15614(8) 0.01586(6) 0.13165(4)
F7 F 0.30434(19) 0.76062(13) 0.27217(8)
F8 F 0.2485(2) 0.88474(14) 0.35002(9)
F9 F 0.2642(2) 0.87645(13) 0.26391(9)
F10 F 0.2904(2) 0.76836(15) 0.35847(9)
F11 F 0.4082(2) 0.84044(15) 0.31887(11)
F12 F 0.1448(2) 0.80428(15) 0.30333(11)
P2 P 0.27654(9) 0.82217(6) 0.31112(4)
O15 O 0.2058(3) 0.55980(19) 0.12592(13)
O16? O 0.3738(6) 0.5265(4) 0.2130(3)
loop_
_geom_bond_atom_site_label_1
_geom_bond_atom_site_label_2
_geom_bond_site_symmetry_1
_geom_bond_site_symmetry_2
C1 C2 1_555 1_555
C2 N1 1_555 1_555
C3 C4 1_555 1_555
C4 C5 1_555 1_555
C5 C6 1_555 1_555
C6 C7 1_555 1_555
C7 N1 1_555 1_555
C8 C5 1_555 1_555
C9 C8 1_555 1_555
C10 C8 1_555 1_555
C11 C9 1_555 1_555
C12 C10 1_555 1_555
C13 C14 1_555 1_555
C14 O3 1_555 1_555
C15 C16 1_555 1_555
C16 C17 1_555 1_555
C17 C18 1_555 1_555
C18 C19 1_555 1_555
C19 C20 1_555 1_555
C20 O6 1_555 1_555
C21 C15 1_555 1_555
C22 C23 1_555 1_555
C23 C24 1_555 1_555
C24 C25 1_555 1_555
C25 C26 1_555 1_555
C26 C27 1_555 1_555
C27 C28 1_555 1_555
C28 C23 1_555 1_555
C29 C30 1_555 1_555
C30 C31 1_555 1_555
C31 C32 1_555 1_555
C32 C33 1_555 1_555
C33 C34 1_555 1_555
C34 C35 1_555 1_555
C35 C30 1_555 1_555
C36 C37 1_555 1_555
C37 O11 1_555 1_555
C38 C39 1_555 1_555
C39 O10 1_555 1_555
C40 C41 1_555 1_555
C41 O9 1_555 1_555
C42 C43 1_555 1_555
C43 O14 1_555 1_555
C44 O14 1_555 1_555
O1 C27 1_555 1_555
C45 C46 1_555 1_555
C46 H53 1_555 1_555
C47 C48 1_555 1_555
C48 H60 1_555 1_555
C49 C50 1_555 1_555
C50 H57 1_555 1_555
C51 O2 1_555 1_555
O2 C52 1_555 1_555
F1 P1 1_555 1_555
F2 P1 1_555 1_555
F3 P1 1_555 1_555
F4 P1 1_555 1_555
F5 P1 1_555 1_555
F6 P1 1_555 1_555
F7 P2 1_555 1_555
F8 P2 1_555 1_555
F9 P2 1_555 1_555
F10 P2 1_555 1_555
F11 P2 1_555 1_555
F12 P2 1_555 1_555
N1 C3 1_555 1_555
N2 C11 1_555 1_555
N3 C15 1_555 1_555
N4 C45 1_555 1_555
N5 C47 1_555 1_555
N6 C49 1_555 1_555
O3 H52 1_555 1_555
O4 C1 1_555 1_555
O5 C21 1_555 1_555
O7 C21 1_555 1_555
O8 C20 1_555 1_555
O9 C25 1_555 1_555
O10 C40 1_555 1_555
O11 C38 1_555 1_555
O12 C34 1_555 1_555
O13 C32 1_555 1_555
C52 C44 1_555 1_555
C53 O1 1_555 1_555
H1 C1 1_555 1_555
H2 C1 1_555 1_555
H3 C2 1_555 1_555
H4 C2 1_555 1_555
H5 C3 1_555 1_555
H6 C4 1_555 1_555
H7 C6 1_555 1_555
H8 C7 1_555 1_555
H9 C9 1_555 1_555
H10 C10 1_555 1_555
H11 C11 1_555 1_555
H12 C12 1_555 1_555
H13 C13 1_555 1_555
H14 C13 1_555 1_555
H15 C14 1_555 1_555
H16 C14 1_555 1_555
H17 C16 1_555 1_555
H18 C17 1_555 1_555
H19 C18 1_555 1_555
H20 C22 1_555 1_555
H21 C22 1_555 1_555
H22 C24 1_555 1_555
H23 C26 1_555 1_555
H24 C28 1_555 1_555
H25 C29 1_555 1_555
H26 C29 1_555 1_555
H27 C31 1_555 1_555
H28 C33 1_555 1_555
H29 C35 1_555 1_555
H30 C36 1_555 1_555
H31 C36 1_555 1_555
H32 C37 1_555 1_555
H33 C37 1_555 1_555
H34 C38 1_555 1_555
H35 C38 1_555 1_555
H36 C39 1_555 1_555
H37 C39 1_555 1_555
H38 C40 1_555 1_555
H39 C40 1_555 1_555
H40 C41 1_555 1_555
H41 C41 1_555 1_555
H42 C42 1_555 1_555
H43 C42 1_555 1_555
H44 C43 1_555 1_555
H45 C43 1_555 1_555
H46 C44 1_555 1_555
H47 C44 1_555 1_555
H48 C51 1_555 1_555
H49 C51 1_555 1_555
H50 C53 1_555 1_555
H51 C53 1_555 1_555
H54 C46 1_555 1_555
H55 O4 1_555 1_555
H56 C46 1_555 1_555
H58 C50 1_555 1_555
H59 C50 1_555 1_555
H61 C48 1_555 1_555
H62 C48 1_555 1_555
C12 N2 1_555 1_555
C13 N2 1_555 1_555
C19 N3 1_555 1_555
C22 O7 1_555 1_555
C29 O8 1_555 1_555
C36 O12 1_555 1_555
C42 O13 1_555 1_555
C51 C53 1_555 1_555

#END
