
#######################################################################
#
#                 Cambridge Crystallographic Data Centre
#                                CCDC 
#
#######################################################################
#
# If this CIF has been generated from an entry in the Cambridge 
# Structural Database, then it will include bibliographic, chemical, 
# crystal, experimental, refinement or atomic coordinate data resulting 
# from the CCDC's data processing and validation procedures.
#
#######################################################################

data_QOPWEZ
_chemical_formula_moiety         'C22 H20 N2 O2'
_chemical_name_systematic        
'6-methyl-2-(3-nitrophenyl)-4-phenyl-1,2,3,4-tetrahydroquinoline unknown solvate'
_symmetry_cell_setting           monoclinic
_symmetry_space_group_name_H-M   'P 21/n'
_symmetry_Int_Tables_number      14
_space_group_name_Hall           '-P 2yn'
loop_
_symmetry_equiv_pos_site_id
_symmetry_equiv_pos_as_xyz
1 x,y,z
2 1/2-x,1/2+y,1/2-z
3 -x,-y,-z
4 1/2+x,1/2-y,1/2+z
_cell_length_a                   15.3627(13)
_cell_length_b                   9.0461(8)
_cell_length_c                   15.4985(13)
_cell_angle_alpha                90
_cell_angle_beta                 107.3850(10)
_cell_angle_gamma                90
_cell_volume                     2055.47
_exptl_crystal_colour            yellow
_exptl_crystal_description       block
_cell_formula_units_Z            4
loop_
_atom_site_label
_atom_site_type_symbol
_atom_site_fract_x
_atom_site_fract_y
_atom_site_fract_z
C1 C 0.66163(8) 0.83021(13) 0.23651(8)
C2 C 0.57388(9) 0.79234(16) 0.18406(10)
H1 H 0.5310 0.7633 0.2122
C3 C 0.54977(9) 0.79736(16) 0.09095(9)
H2 H 0.4907 0.7717 0.0573
C4 C 0.61176(10) 0.83982(15) 0.04647(9)
C5 C 0.70026(9) 0.87202(14) 0.09953(8)
H3 H 0.7434 0.8974 0.0709
C6 C 0.72682(8) 0.86788(12) 0.19360(8)
C7 C 0.82305(8) 0.91231(14) 0.24873(8)
H4 H 0.8259 1.0204 0.2462
C8 C 0.84202(8) 0.87060(15) 0.34816(8)
H5 H 0.8538 0.7653 0.3553
H6 H 0.8962 0.9221 0.3839
C9 C 0.76208(8) 0.90970(14) 0.38292(8)
H7 H 0.7487 1.0154 0.3731
C10 C 0.78492(8) 0.87669(14) 0.48270(8)
C11 C 0.83709(10) 0.97866(17) 0.54355(9)
H8 H 0.8556 1.0651 0.5217
C12 C 0.86204(12) 0.9545(2) 0.63578(10)
H9 H 0.8963 1.0250 0.6752
C13 C 0.83659(11) 0.8280(2) 0.66900(10)
H10 H 0.8534 0.8105 0.7309
C14 C 0.78539(10) 0.72626(18) 0.60887(10)
C15 C 0.75882(9) 0.74838(16) 0.51565(9)
H11 H 0.7242 0.6779 0.4765
C16 C 0.89678(8) 0.85312(14) 0.21109(8)
C17 C 0.92598(9) 0.70805(16) 0.22439(9)
H12 H 0.8971 0.6428 0.2533
C18 C 0.99804(11) 0.6585(2) 0.19501(11)
H13 H 1.0180 0.5612 0.2056
C19 C 1.03954(11) 0.7531(2) 0.15046(12)
H14 H 1.0882 0.7202 0.1315
C20 C 1.00962(11) 0.8954(2) 0.13388(11)
H15 H 1.0368 0.9584 0.1020
C21 C 0.93877(9) 0.94641(17) 0.16445(9)
H16 H 0.9193 1.0439 0.1536
C22 C 0.58479(12) 0.85413(19) -0.05528(10)
H17 H 0.5588 0.9501 -0.0728
H18 H 0.5407 0.7794 -0.0823
H19 H 0.6377 0.8420 -0.0753
N1 N 0.68336(7) 0.82504(13) 0.33101(7)
N2 N 0.75813(11) 0.5884(2) 0.64290(11)
O1 O 0.70921(11) 0.50308(16) 0.58992(10)
O2 O 0.78606(14) 0.5632(2) 0.72387(10)
H20 H 0.6340(12) 0.8280(18) 0.3489(11)
loop_
_geom_bond_atom_site_label_1
_geom_bond_atom_site_label_2
_geom_bond_site_symmetry_1
_geom_bond_site_symmetry_2
C1 C2 1_555 1_555
C2 H1 1_555 1_555
C3 C2 1_555 1_555
H2 C3 1_555 1_555
C4 C3 1_555 1_555
C5 C4 1_555 1_555
H3 C5 1_555 1_555
C6 C1 1_555 1_555
C7 C6 1_555 1_555
H4 C7 1_555 1_555
C8 C7 1_555 1_555
H5 C8 1_555 1_555
H6 C8 1_555 1_555
C9 C8 1_555 1_555
H7 C9 1_555 1_555
C10 C9 1_555 1_555
C11 C10 1_555 1_555
H8 C11 1_555 1_555
C12 C11 1_555 1_555
H9 C12 1_555 1_555
C13 C12 1_555 1_555
H10 C13 1_555 1_555
C14 C13 1_555 1_555
C15 C10 1_555 1_555
H11 C15 1_555 1_555
C16 C7 1_555 1_555
C17 C16 1_555 1_555
H12 C17 1_555 1_555
C18 C17 1_555 1_555
H13 C18 1_555 1_555
C19 C18 1_555 1_555
H14 C19 1_555 1_555
C20 C19 1_555 1_555
H15 C20 1_555 1_555
C21 C16 1_555 1_555
H16 C21 1_555 1_555
C22 C4 1_555 1_555
H17 C22 1_555 1_555
H18 C22 1_555 1_555
H19 C22 1_555 1_555
N1 C1 1_555 1_555
N2 C14 1_555 1_555
O1 N2 1_555 1_555
O2 N2 1_555 1_555
H20 N1 1_555 1_555
C5 C6 1_555 1_555
C9 N1 1_555 1_555
C14 C15 1_555 1_555
C20 C21 1_555 1_555

#END
