
#######################################################################
#
#                 Cambridge Crystallographic Data Centre
#                                CCDC 
#
#######################################################################
#
# If this CIF has been generated from an entry in the Cambridge 
# Structural Database, then it will include bibliographic, chemical, 
# crystal, experimental, refinement or atomic coordinate data resulting 
# from the CCDC's data processing and validation procedures.
#
#######################################################################

data_QOPWIC
_chemical_formula_moiety         'C15 H15 F3 O2,0.25(C4 H10 O1)'
_chemical_name_systematic        
'2-Hydroxy-4-phenyl-2-(trifluoromethyl)bicyclo[3.2.1]octan-8-one diethyl ether solvate'
_symmetry_cell_setting           triclinic
_symmetry_space_group_name_H-M   'P -1'
_symmetry_Int_Tables_number      2
_space_group_name_Hall           '-P 1'
loop_
_symmetry_equiv_pos_site_id
_symmetry_equiv_pos_as_xyz
1 x,y,z
2 -x,-y,-z
_cell_length_a                   10.835(6)
_cell_length_b                   11.905(7)
_cell_length_c                   12.902(7)
_cell_angle_alpha                74.448(10)
_cell_angle_beta                 88.093(11)
_cell_angle_gamma                66.670(10)
_cell_volume                     1467.21
_exptl_crystal_colour            colorless
_exptl_crystal_description       prismatic
_chemical_melting_point          114-115deg.C
_cell_formula_units_Z            4
loop_
_atom_site_label
_atom_site_type_symbol
_atom_site_fract_x
_atom_site_fract_y
_atom_site_fract_z
F1 F 0.3767(2) -0.1936(2) 0.2721(2)
F2 F 0.2364(2) -0.25167(19) 0.2142(2)
F3 F 0.2013(2) -0.1853(2) 0.35462(18)
O1 O 0.0321(2) 0.1469(2) -0.05580(18)
O2 O 0.0309(2) -0.0138(2) 0.18181(18)
C1 C 0.1186(3) 0.1202(3) 0.0132(2)
C2 C 0.1558(3) 0.2106(3) 0.0551(2)
C3 C 0.3095(3) 0.1528(3) 0.0551(3)
H1 H 0.3510 0.1637 0.1151
H2 H 0.3377 0.1930 -0.0116
C4 C 0.3498(3) 0.0094(3) 0.0664(3)
H3 H 0.3950 -0.0133 0.0042
H4 H 0.4098 -0.0428 0.1309
C5 C 0.2172(3) -0.0100(3) 0.0736(2)
C6 C 0.1681(3) -0.0316(3) 0.1881(2)
C7 C 0.1759(3) 0.0652(3) 0.2415(2)
H5 H 0.1339 0.0572 0.3091
H6 H 0.2698 0.0470 0.2577
C8 C 0.1070(3) 0.2002(3) 0.1706(2)
C9 C 0.1197(3) 0.3006(3) 0.2161(2)
C10 C 0.0212(4) 0.4218(4) 0.1858(3)
H7 H -0.0533 0.4394 0.1407
C11 C 0.0303(6) 0.5186(4) 0.2211(4)
H8 H -0.0370 0.6005 0.1986
C12 C 0.1384(5) 0.4943(4) 0.2892(4)
H9 H 0.1443 0.5585 0.3143
C13 C 0.2354(4) 0.3756(4) 0.3189(3)
H10 H 0.3092 0.3582 0.3646
C14 C 0.2279(3) 0.2787(3) 0.2828(3)
H11 H 0.2970 0.1977 0.3040
C15 C 0.2462(4) -0.1662(3) 0.2575(3)
H12 H 0.115(3) 0.300(3) 0.013(2)
H13 H 0.221(2) -0.074(2) 0.042(2)
H14 H 0.013(3) 0.216(2) 0.161(2)
H15 H 0.023(3) -0.057(3) 0.144(2)
F4 F 0.8680(2) -0.1824(2) 0.29171(19)
F5 F 0.7189(2) -0.23727(19) 0.37592(19)
F6 F 0.6884(2) -0.1541(2) 0.20671(18)
O3 O 0.5380(2) 0.1382(2) 0.49786(19)
O4 O 0.5266(2) 0.0065(2) 0.31736(19)
C16 C 0.6253(3) 0.1140(3) 0.4373(2)
C17 C 0.6694(3) 0.2059(3) 0.3596(3)
C18 C 0.8209(3) 0.1410(4) 0.3802(3)
H16 H 0.8523 0.1704 0.4331
H17 H 0.8637 0.1582 0.3141
C19 C 0.8532(3) -0.0028(4) 0.4235(3)
H18 H 0.9106 -0.0493 0.3766
H19 H 0.8986 -0.0369 0.4955
C20 C 0.7166(3) -0.0135(3) 0.4252(3)
C21 C 0.6642(3) -0.0173(3) 0.3169(2)
C22 C 0.6801(3) 0.0838(3) 0.2250(2)
H20 H 0.6357 0.0877 0.1593
H21 H 0.7752 0.0604 0.2146
C23 C 0.6209(3) 0.2152(3) 0.2449(2)
C24 C 0.6476(3) 0.3170(3) 0.1610(3)
C25 C 0.5786(4) 0.4435(3) 0.1599(3)
H22 H 0.5168 0.4638 0.2107
C26 C 0.5998(4) 0.5394(4) 0.0852(4)
H23 H 0.5532 0.6235 0.0863
C27 C 0.6889(4) 0.5115(4) 0.0094(3)
H24 H 0.7031 0.5766 -0.0409
C28 C 0.7562(3) 0.3906(3) 0.0071(3)
H25 H 0.8154 0.3721 -0.0458
C29 C 0.7374(3) 0.2930(3) 0.0836(3)
H26 H 0.7867 0.2092 0.0825
C30 C 0.7348(3) -0.1477(3) 0.2982(3)
H27 H 0.521(3) -0.041(3) 0.3764(19)
H28 H 0.649(3) 0.283(3) 0.374(3)
H29 H 0.704(3) -0.071(3) 0.480(3)
H30 H 0.531(3) 0.240(2) 0.246(2)
O5 O 0.5000 0.5000 0.5000
C31 C 0.3723(10) 0.5123(11) 0.5363(11)
H31 H 0.4054 0.4837 0.6117
H32 H 0.3789 0.4346 0.5213
C32 C 0.2202(13) 0.5499(15) 0.5634(16)
H33 H 0.2111 0.5627 0.6341
H34 H 0.1931 0.4828 0.5614
H35 H 0.1640 0.6271 0.5111
C31A C 0.6277(10) 0.4877(11) 0.4637(11)
H31A H 0.5946 0.5163 0.3883
H32A H 0.6211 0.5654 0.4787
C32A C 0.7798(13) 0.4501(15) 0.4366(16)
H33A H 0.7889 0.4373 0.3659
H34A H 0.8069 0.5172 0.4386
H35A H 0.8360 0.3729 0.4889
loop_
_geom_bond_atom_site_label_1
_geom_bond_atom_site_label_2
_geom_bond_site_symmetry_1
_geom_bond_site_symmetry_2
F1 C15 1_555 1_555
F2 C15 1_555 1_555
F3 C15 1_555 1_555
O1 C1 1_555 1_555
O2 C6 1_555 1_555
C1 C2 1_555 1_555
C2 C3 1_555 1_555
C3 H1 1_555 1_555
H2 C3 1_555 1_555
C4 C3 1_555 1_555
H3 C4 1_555 1_555
H4 C4 1_555 1_555
C5 C1 1_555 1_555
C6 C5 1_555 1_555
C7 C6 1_555 1_555
H5 C7 1_555 1_555
H6 C7 1_555 1_555
C8 C2 1_555 1_555
C9 C8 1_555 1_555
C10 C9 1_555 1_555
H7 C10 1_555 1_555
C11 C10 1_555 1_555
H8 C11 1_555 1_555
C12 C11 1_555 1_555
H9 C12 1_555 1_555
C13 C12 1_555 1_555
H10 C13 1_555 1_555
C14 C9 1_555 1_555
H11 C14 1_555 1_555
C15 C6 1_555 1_555
H12 C2 1_555 1_555
H13 C5 1_555 1_555
H14 C8 1_555 1_555
H15 O2 1_555 1_555
F4 C30 1_555 1_555
F5 C30 1_555 1_555
F6 C30 1_555 1_555
O3 C16 1_555 1_555
O4 C21 1_555 1_555
C16 C17 1_555 1_555
C17 C18 1_555 1_555
C18 H16 1_555 1_555
H17 C18 1_555 1_555
C19 C18 1_555 1_555
H18 C19 1_555 1_555
H19 C19 1_555 1_555
C20 C16 1_555 1_555
C21 C20 1_555 1_555
C22 C21 1_555 1_555
H20 C22 1_555 1_555
H21 C22 1_555 1_555
C23 C17 1_555 1_555
C24 C23 1_555 1_555
C25 C24 1_555 1_555
H22 C25 1_555 1_555
C26 C25 1_555 1_555
H23 C26 1_555 1_555
C27 C26 1_555 1_555
H24 C27 1_555 1_555
C28 C27 1_555 1_555
H25 C28 1_555 1_555
C29 C24 1_555 1_555
H26 C29 1_555 1_555
C30 C21 1_555 1_555
H27 O4 1_555 1_555
H28 C17 1_555 1_555
H29 C20 1_555 1_555
H30 C23 1_555 1_555
O5 C31 1_555 1_555
C31 H31 1_555 1_555
H32 C31 1_555 1_555
C32 C31 1_555 1_555
H33 C32 1_555 1_555
H34 C32 1_555 1_555
H35 C32 1_555 1_555
C31A O5 1_555 1_555
H31A C31A 1_555 1_555
H32A C31A 1_555 1_555
C32A C31A 1_555 1_555
H33A C32A 1_555 1_555
H34A C32A 1_555 1_555
H35A C32A 1_555 1_555
C4 C5 1_555 1_555
C7 C8 1_555 1_555
C13 C14 1_555 1_555
C19 C20 1_555 1_555
C22 C23 1_555 1_555
C28 C29 1_555 1_555

#END
