
#######################################################################
#
#                 Cambridge Crystallographic Data Centre
#                                CCDC 
#
#######################################################################
#
# If this CIF has been generated from an entry in the Cambridge 
# Structural Database, then it will include bibliographic, chemical, 
# crystal, experimental, refinement or atomic coordinate data resulting 
# from the CCDC's data processing and validation procedures.
#
#######################################################################

data_QOPZOM
_chemical_formula_moiety         'C72 H60 O4,C1 H2 Cl2'
_chemical_name_systematic        
'2,17-bis(diphenylmethylene)-9,24,33,39-tetramethoxyheptacyclo[26.2.2.2^3,6^.2^8,11^.2^13,16^.2^18,21^.2^23,26^]dotetraconta-1(30),3,5,8,10,13,15,18,20,23,25,28,31,33,35,37,39,41-octadecaene dichloromethane solvate'
_symmetry_cell_setting           triclinic
_symmetry_space_group_name_H-M   'P -1'
_symmetry_Int_Tables_number      2
_space_group_name_Hall           '-P 1'
loop_
_symmetry_equiv_pos_site_id
_symmetry_equiv_pos_as_xyz
1 x,y,z
2 -x,-y,-z
_cell_length_a                   9.1923(18)
_cell_length_b                   9.5033(19)
_cell_length_c                   17.017(3)
_cell_angle_alpha                75.35(3)
_cell_angle_beta                 77.27(3)
_cell_angle_gamma                84.99(3)
_cell_volume                     1402.09
_cell_formula_units_Z            1
loop_
_atom_site_label
_atom_site_type_symbol
_atom_site_fract_x
_atom_site_fract_y
_atom_site_fract_z
O1 O 0.86265(17) 0.8379(2) 0.36598(11)
O2 O 0.27688(17) 0.67652(19) 0.48300(10)
C1 C 0.4092(2) 0.7699(3) 0.59232(14)
H1 H 0.3455 0.8599 0.5872
H2 H 0.3432 0.6862 0.6166
C2 C 0.4945(2) 0.7591(2) 0.50590(13)
C3 C 0.6419(2) 0.8011(2) 0.47620(14)
H3 H 0.6922 0.8331 0.5114
C4 C 0.7171(2) 0.7972(2) 0.39642(14)
C5 C 0.6479(2) 0.7500(2) 0.34334(13)
C6 C 0.5001(2) 0.7076(2) 0.37304(13)
H4 H 0.4502 0.6749 0.3380
C7 C 0.4244(2) 0.7121(2) 0.45284(13)
C8 C 0.9321(3) 0.8990(4) 0.41624(19)
H5 H 0.8744 0.9857 0.4280
H6 H 1.0337 0.9261 0.3867
H7 H 0.9360 0.8272 0.4685
C9 C 0.2109(3) 0.6014(3) 0.43741(17)
H8 H 0.2061 0.6651 0.3828
H9 H 0.1098 0.5740 0.4678
H10 H 0.2714 0.5136 0.4304
C10 C 0.7273(3) 0.7469(2) 0.25622(13)
H11 H 0.7838 0.8371 0.2317
H12 H 0.6512 0.7481 0.2229
C11 C 0.8349(2) 0.6171(2) 0.24801(13)
C12 C 0.8777(2) 0.5197(2) 0.31532(13)
H13 H 0.8398 0.5333 0.3696
C13 C 0.9748(2) 0.4027(2) 0.30475(13)
H14 H 1.0030 0.3383 0.3519
C14 C 1.0320(2) 0.3775(2) 0.22615(13)
C15 C 0.9909(2) 0.4773(2) 0.15839(14)
H15 H 1.0299 0.4649 0.1039
C16 C 0.8945(3) 0.5939(2) 0.16936(13)
H16 H 0.8681 0.6600 0.1221
C17 C 1.1330(2) 0.2470(2) 0.21819(13)
C18 C 1.2627(2) 0.2340(2) 0.25926(13)
C19 C 1.3373(2) 0.3590(2) 0.25418(14)
H17 H 1.3110 0.4484 0.2195
C20 C 1.4477(2) 0.3572(2) 0.29774(14)
H18 H 1.4964 0.4444 0.2921
C21 C 1.4883(2) 0.2284(2) 0.35010(13)
C22 C 1.4218(2) 0.1016(2) 0.35176(13)
H19 H 1.4529 0.0114 0.3838
C23 C 1.3112(2) 0.1037(2) 0.30779(13)
H20 H 1.2674 0.0152 0.3106
C24 C 1.1037(2) 0.1500(2) 0.17805(13)
C25 C 1.2039(2) 0.0194(2) 0.16725(13)
C26 C 1.1451(2) -0.1180(2) 0.20051(14)
H21 H 1.0436 -0.1268 0.2285
C27 C 1.2323(3) -0.2418(2) 0.19339(15)
H22 H 1.1913 -0.3351 0.2175
C28 C 1.3782(3) -0.2301(2) 0.15140(15)
H23 H 1.4384 -0.3153 0.1465
C29 C 1.4373(3) -0.0943(3) 0.11630(15)
H24 H 1.5377 -0.0861 0.0863
C30 C 1.3506(2) 0.0301(2) 0.12469(14)
H25 H 1.3923 0.1232 0.1011
C31 C 0.9700(2) 0.1600(2) 0.14071(13)
C32 C 0.8257(2) 0.1673(2) 0.18693(14)
H26 H 0.8097 0.1685 0.2438
C33 C 0.7039(3) 0.1729(3) 0.14895(16)
H27 H 0.6050 0.1781 0.1801
C34 C 0.7281(3) 0.1707(3) 0.06505(15)
H28 H 0.6456 0.1747 0.0393
C35 C 0.8687(3) 0.1628(3) 0.02076(15)
H29 H 0.8844 0.1629 -0.0363
C36 C 0.9898(3) 0.1546(3) 0.05770(14)
H30 H 1.0877 0.1453 0.0263
O1A O 1.13735(17) 0.1621(2) 0.63402(11)
O2A O 1.72312(17) 0.32348(19) 0.51700(10)
C1A C 1.5908(2) 0.2301(3) 0.40768(14)
H1A H 1.6545 0.1401 0.4128
H2A H 1.6568 0.3138 0.3834
C2A C 1.5055(2) 0.2409(2) 0.49410(13)
C3A C 1.3581(2) 0.1989(2) 0.52380(14)
H3A H 1.3078 0.1669 0.4886
C4A C 1.2829(2) 0.2028(2) 0.60358(14)
C5A C 1.3521(2) 0.2500(2) 0.65666(13)
C6A C 1.4999(2) 0.2924(2) 0.62696(13)
H4A H 1.5498 0.3251 0.6620
C7A C 1.5756(2) 0.2879(2) 0.54716(13)
C8A C 1.0679(3) 0.1010(4) 0.58376(19)
H5A H 1.1256 0.0143 0.5720
H6A H 0.9663 0.0739 0.6133
H7A H 1.0640 0.1728 0.5315
C9A C 1.7891(3) 0.3986(3) 0.56259(17)
H8A H 1.7939 0.3349 0.6172
H9A H 1.8902 0.4260 0.5322
H10A H 1.7286 0.4864 0.5696
C10A C 1.2727(3) 0.2531(2) 0.74378(13)
H11A H 1.2162 0.1629 0.7683
H12A H 1.3488 0.2519 0.7771
C11A C 1.1651(2) 0.3829(2) 0.75199(13)
C12A C 1.1223(2) 0.4803(2) 0.68468(13)
H13A H 1.1602 0.4667 0.6304
C13A C 1.0252(2) 0.5973(2) 0.69525(13)
H14A H 0.9970 0.6617 0.6481
C14A C 0.9680(2) 0.6225(2) 0.77385(13)
C15A C 1.0091(2) 0.5227(2) 0.84161(14)
H15A H 0.9701 0.5351 0.8961
C16A C 1.1055(3) 0.4061(2) 0.83064(13)
H16A H 1.1319 0.3400 0.8779
C17A C 0.8670(2) 0.7530(2) 0.78181(13)
C18A C 0.7373(2) 0.7660(2) 0.74074(13)
C19A C 0.6627(2) 0.6410(2) 0.74582(14)
H17A H 0.6890 0.5516 0.7805
C20A C 0.5523(2) 0.6428(2) 0.70226(14)
H18A H 0.5036 0.5556 0.7079
C21A C 0.5117(2) 0.7716(2) 0.64990(13)
C22A C 0.5782(2) 0.8984(2) 0.64824(13)
H19A H 0.5471 0.9886 0.6162
C23A C 0.6888(2) 0.8963(2) 0.69221(13)
H20A H 0.7326 0.9848 0.6894
C24A C 0.8963(2) 0.8500(2) 0.82195(13)
C25A C 0.7961(2) 0.9806(2) 0.83275(13)
C26A C 0.8549(2) 1.1180(2) 0.79949(14)
H21A H 0.9564 1.1268 0.7715
C27A C 0.7677(3) 1.2418(2) 0.80661(15)
H22A H 0.8087 1.3351 0.7825
C28A C 0.6218(3) 1.2301(2) 0.84860(15)
H23A H 0.5616 1.3153 0.8535
C29A C 0.5627(3) 1.0943(3) 0.88370(15)
H24A H 0.4623 1.0861 0.9137
C30A C 0.6494(2) 0.9699(2) 0.87531(14)
H25A H 0.6077 0.8768 0.8989
C31A C 1.0300(2) 0.8400(2) 0.85929(13)
C32A C 1.1743(2) 0.8327(2) 0.81307(14)
H26A H 1.1903 0.8315 0.7562
C33A C 1.2961(3) 0.8271(3) 0.85105(16)
H27A H 1.3950 0.8219 0.8199
C34A C 1.2719(3) 0.8293(3) 0.93495(15)
H28A H 1.3544 0.8253 0.9607
C35A C 1.1313(3) 0.8372(3) 0.97924(15)
H29A H 1.1156 0.8371 1.0363
C36A C 1.0102(3) 0.8454(3) 0.94230(14)
H30A H 0.9123 0.8547 0.9737
Cl1 Cl 0.3162(7) 0.4405(9) -0.0400(5)
Cl2 Cl 0.5882(12) 0.5456(14) -0.0249(7)
C37 C 0.3982(14) 0.509(2) 0.0285(9)
H31 H 0.3950 0.4365 0.0819
H32 H 0.3447 0.5995 0.0396
Cl3? Cl 0.3334(7) 0.4116(8) -0.0221(5)
Cl4? Cl 0.5862(11) 0.5627(13) -0.0117(7)
C38? C 0.4247(17) 0.470(2) 0.0452(9)
H33? H 0.3564 0.5356 0.0746
H34? H 0.4518 0.3851 0.0873
loop_
_geom_bond_atom_site_label_1
_geom_bond_atom_site_label_2
_geom_bond_site_symmetry_1
_geom_bond_site_symmetry_2
O1 C4 1_555 1_555
O2 C7 1_555 1_555
C1 H1 1_555 1_555
H2 C1 1_555 1_555
C2 C1 1_555 1_555
C3 C2 1_555 1_555
H3 C3 1_555 1_555
C4 C3 1_555 1_555
C5 C4 1_555 1_555
C6 C5 1_555 1_555
H4 C6 1_555 1_555
C7 C2 1_555 1_555
C8 O1 1_555 1_555
H5 C8 1_555 1_555
H6 C8 1_555 1_555
H7 C8 1_555 1_555
C9 O2 1_555 1_555
H8 C9 1_555 1_555
H9 C9 1_555 1_555
H10 C9 1_555 1_555
C10 C5 1_555 1_555
H11 C10 1_555 1_555
H12 C10 1_555 1_555
C11 C10 1_555 1_555
C12 C11 1_555 1_555
H13 C12 1_555 1_555
C13 C12 1_555 1_555
H14 C13 1_555 1_555
C14 C13 1_555 1_555
C15 C14 1_555 1_555
H15 C15 1_555 1_555
C16 C11 1_555 1_555
H16 C16 1_555 1_555
C17 C14 1_555 1_555
C18 C17 1_555 1_555
C19 C18 1_555 1_555
H17 C19 1_555 1_555
C20 C19 1_555 1_555
H18 C20 1_555 1_555
C21 C20 1_555 1_555
C22 C21 1_555 1_555
H19 C22 1_555 1_555
C23 C18 1_555 1_555
H20 C23 1_555 1_555
C24 C17 1_555 1_555
C25 C24 1_555 1_555
C26 C25 1_555 1_555
H21 C26 1_555 1_555
C27 C26 1_555 1_555
H22 C27 1_555 1_555
C28 C27 1_555 1_555
H23 C28 1_555 1_555
C29 C28 1_555 1_555
H24 C29 1_555 1_555
C30 C25 1_555 1_555
H25 C30 1_555 1_555
C31 C24 1_555 1_555
C32 C31 1_555 1_555
H26 C32 1_555 1_555
C33 C32 1_555 1_555
H27 C33 1_555 1_555
C34 C33 1_555 1_555
H28 C34 1_555 1_555
C35 C34 1_555 1_555
H29 C35 1_555 1_555
C36 C31 1_555 1_555
H30 C36 1_555 1_555
Cl1 C37 1_555 1_555
Cl2 C37 1_555 1_555
C37 H31 1_555 1_555
H32 C37 1_555 1_555
O1A C4A 1_555 1_555
O2A C7A 1_555 1_555
C1A C21 1_555 1_555
H1A C1A 1_555 1_555
H2A C1A 1_555 1_555
C2A C1A 1_555 1_555
C3A C2A 1_555 1_555
H3A C3A 1_555 1_555
C4A C3A 1_555 1_555
C5A C4A 1_555 1_555
C6A C5A 1_555 1_555
H4A C6A 1_555 1_555
C7A C2A 1_555 1_555
C8A O1A 1_555 1_555
H5A C8A 1_555 1_555
H6A C8A 1_555 1_555
H7A C8A 1_555 1_555
C9A O2A 1_555 1_555
H8A C9A 1_555 1_555
H9A C9A 1_555 1_555
H10A C9A 1_555 1_555
C10A C5A 1_555 1_555
H11A C10A 1_555 1_555
H12A C10A 1_555 1_555
C11A C10A 1_555 1_555
C12A C11A 1_555 1_555
H13A C12A 1_555 1_555
C13A C12A 1_555 1_555
H14A C13A 1_555 1_555
C14A C13A 1_555 1_555
C15A C14A 1_555 1_555
H15A C15A 1_555 1_555
C16A C11A 1_555 1_555
H16A C16A 1_555 1_555
C17A C14A 1_555 1_555
C18A C17A 1_555 1_555
C19A C18A 1_555 1_555
H17A C19A 1_555 1_555
C20A C19A 1_555 1_555
H18A C20A 1_555 1_555
C21A C1 1_555 1_555
C22A C21A 1_555 1_555
H19A C22A 1_555 1_555
C23A C18A 1_555 1_555
H20A C23A 1_555 1_555
C24A C17A 1_555 1_555
C25A C24A 1_555 1_555
C26A C25A 1_555 1_555
H21A C26A 1_555 1_555
C27A C26A 1_555 1_555
H22A C27A 1_555 1_555
C28A C27A 1_555 1_555
H23A C28A 1_555 1_555
C29A C28A 1_555 1_555
H24A C29A 1_555 1_555
C30A C25A 1_555 1_555
H25A C30A 1_555 1_555
C31A C24A 1_555 1_555
C32A C31A 1_555 1_555
H26A C32A 1_555 1_555
C33A C32A 1_555 1_555
H27A C33A 1_555 1_555
C34A C33A 1_555 1_555
H28A C34A 1_555 1_555
C35A C34A 1_555 1_555
H29A C35A 1_555 1_555
C36A C31A 1_555 1_555
H30A C36A 1_555 1_555
C6 C7 1_555 1_555
C15 C16 1_555 1_555
C22 C23 1_555 1_555
C29 C30 1_555 1_555
C35 C36 1_555 1_555
C6A C7A 1_555 1_555
C15A C16A 1_555 1_555
C20A C21A 1_555 1_555
C22A C23A 1_555 1_555
C29A C30A 1_555 1_555
C35A C36A 1_555 1_555

#END
