
#######################################################################
#
#                 Cambridge Crystallographic Data Centre
#                                CCDC 
#
#######################################################################
#
# If this CIF has been generated from an entry in the Cambridge 
# Structural Database, then it will include bibliographic, chemical, 
# crystal, experimental, refinement or atomic coordinate data resulting 
# from the CCDC's data processing and validation procedures.
#
#######################################################################

data_QOPZUS
_chemical_formula_moiety         'C88 H92 O4'
_chemical_name_systematic        
2,17-bis(diphenylmethylene)-9,24,33,39-tetrakis(pentoxy)heptacyclo[26.2.2.2^3,6^.2^8,11^.2^13,16^.2^18,21^.2^23,26^]dotetraconta-1(30),3,5,8,10,13,15,18,20,23,25,28,31,33,35,37,39,41-octadecaene
_symmetry_cell_setting           triclinic
_symmetry_space_group_name_H-M   'P -1'
_symmetry_Int_Tables_number      2
_space_group_name_Hall           '-P 1'
loop_
_symmetry_equiv_pos_site_id
_symmetry_equiv_pos_as_xyz
1 x,y,z
2 -x,-y,-z
_cell_length_a                   10.871(5)
_cell_length_b                   11.053(5)
_cell_length_c                   15.840(7)
_cell_angle_alpha                81.772(8)
_cell_angle_beta                 77.584(8)
_cell_angle_gamma                68.140(8)
_cell_volume                     1720.94
_exptl_crystal_colour            colorless
_exptl_crystal_description       block
_cell_formula_units_Z            1
loop_
_atom_site_label
_atom_site_type_symbol
_atom_site_fract_x
_atom_site_fract_y
_atom_site_fract_z
O1 O 0.6109(3) 0.1769(3) 0.59602(18)
O2 O 1.0919(3) 0.1755(4) 0.6577(2)
C1 C 0.6351(4) 0.4896(4) 0.2501(2)
H1 H 0.6502 0.4132 0.2885
C2 C 0.5155(4) 0.5968(4) 0.2684(2)
H2 H 0.4496 0.5911 0.3175
C3 C 0.4933(4) 0.7109(4) 0.2150(2)
C4 C 0.5921(4) 0.7138(4) 0.1428(2)
H3 H 0.5791 0.7915 0.1057
C5 C 0.7074(4) 0.6077(4) 0.1239(2)
H4 H 0.7717 0.6129 0.0737
C6 C 0.7321(4) 0.4920(4) 0.1772(2)
C7 C 0.8631(4) 0.3792(4) 0.1621(3)
C8 C 0.9162(4) 0.3281(4) 0.0845(3)
C9 C 0.8387(4) 0.3671(4) 0.0116(3)
C10 C 0.7121(4) 0.3551(4) 0.0209(3)
H5 H 0.6727 0.3251 0.0754
C11 C 0.6449(5) 0.3862(5) -0.0479(3)
H6 H 0.5606 0.3750 -0.0410
C12 C 0.6985(5) 0.4335(4) -0.1269(3)
H7 H 0.6504 0.4574 -0.1738
C13 C 0.8219(5) 0.4457(4) -0.1371(3)
H8 H 0.8590 0.4781 -0.1914
C14 C 0.8933(4) 0.4116(4) -0.0694(3)
H9 H 0.9797 0.4184 -0.0781
C15 C 1.0533(4) 0.2252(4) 0.0658(2)
C16 C 1.1662(4) 0.2329(4) 0.0899(2)
H10 H 1.1569 0.3053 0.1198
C17 C 1.2912(4) 0.1368(4) 0.0710(2)
H11 H 1.3668 0.1442 0.0878
C18 C 1.3074(4) 0.0317(4) 0.0285(3)
H12 H 1.3935 -0.0348 0.0164
C19 C 1.1972(5) 0.0229(4) 0.0030(3)
H13 H 1.2074 -0.0499 -0.0268
C20 C 1.0715(4) 0.1204(4) 0.0211(3)
H14 H 0.9968 0.1144 0.0022
C21 C 0.9261(4) 0.3267(4) 0.2414(2)
C22 C 0.9297(4) 0.4137(4) 0.2962(2)
H15 H 0.8967 0.5049 0.2808
C23 C 0.9802(4) 0.3695(4) 0.3722(3)
H16 H 0.9818 0.4310 0.4078
C24 C 1.0287(4) 0.2373(4) 0.3976(3)
C25 C 1.0262(4) 0.1516(4) 0.3436(3)
H17 H 1.0600 0.0604 0.3591
C26 C 0.9756(4) 0.1945(4) 0.2671(3)
H18 H 0.9748 0.1324 0.2317
C27 C 1.0723(4) 0.1903(5) 0.4847(3)
H19 H 1.1141 0.2488 0.4990
H20 H 1.1416 0.1016 0.4806
C28 C 0.9557(4) 0.1863(4) 0.5584(3)
C29 C 0.8357(4) 0.1853(4) 0.5416(2)
H21 H 0.8252 0.1873 0.4834
C30 C 0.7306(4) 0.1815(4) 0.6087(2)
C31 C 0.7435(4) 0.1787(4) 0.6950(3)
C32 C 0.8621(5) 0.1808(4) 0.7110(3)
H22 H 0.8719 0.1814 0.7691
C33 C 0.9688(4) 0.1822(5) 0.6435(3)
C34 C 0.6320(5) 0.1678(5) 0.7689(3)
H23 H 0.6041 0.0968 0.7577
H24 H 0.6703 0.1407 0.8229
C35 C 1.1189(9) 0.1990(11) 0.7348(7)
H25 H 1.0579 0.1739 0.7842
H26 H 1.0999 0.2937 0.7356
C36 C 1.2588(9) 0.1266(8) 0.7458(7)
H27 H 1.2705 0.1507 0.8006
H28 H 1.3175 0.1581 0.6982
C37 C 1.3105(10) -0.0204(8) 0.7476(8)
H29 H 1.2272 -0.0387 0.7505
H30 H 1.3594 -0.0367 0.6876
C38 C 1.3757(11) -0.1141(10) 0.7885(7)
H31 H 1.3154 -0.1651 0.8077
H32 H 1.3774 -0.0772 0.8415
C39 C 1.5158(14) -0.2193(16) 0.7698(13)
H33 H 1.5311 -0.2814 0.8206
H34 H 1.5842 -0.1781 0.7571
H35 H 1.5219 -0.2655 0.7199
C40 C 0.5894(4) 0.1857(4) 0.5093(3)
H36 H 0.6478 0.1045 0.4808
H37 H 0.6106 0.2601 0.4754
C41 C 0.4422(4) 0.2056(4) 0.5147(3)
H38 H 0.4221 0.1333 0.5524
H39 H 0.4267 0.2008 0.4561
C42 C 0.3452(4) 0.3343(5) 0.5495(3)
H40 H 0.3728 0.3477 0.6021
H41 H 0.2542 0.3290 0.5670
C43 C 0.3376(5) 0.4524(5) 0.4852(3)
H42 H 0.2993 0.5323 0.5176
H43 H 0.4301 0.4450 0.4561
C44 C 0.2542(5) 0.4675(5) 0.4171(4)
H44 H 0.2925 0.3897 0.3837
H45 H 0.2543 0.5448 0.3782
H46 H 0.1616 0.4777 0.4451
O1A O 0.3891(3) 0.8231(3) 0.40398(18)
O2A O -0.0919(3) 0.8245(4) 0.3423(2)
C1A C 0.3649(4) 0.5104(4) 0.7499(2)
H1A H 0.3498 0.5868 0.7115
C2A C 0.4845(4) 0.4032(4) 0.7316(2)
H2A H 0.5504 0.4089 0.6825
C3A C 0.5067(4) 0.2891(4) 0.7850(2)
C4A C 0.4079(4) 0.2862(4) 0.8572(2)
H3A H 0.4209 0.2085 0.8943
C5A C 0.2926(4) 0.3923(4) 0.8761(2)
H4A H 0.2283 0.3871 0.9263
C6A C 0.2679(4) 0.5080(4) 0.8228(2)
C7A C 0.1369(4) 0.6208(4) 0.8379(3)
C8A C 0.0838(4) 0.6719(4) 0.9155(3)
C9A C 0.1613(4) 0.6329(4) 0.9884(3)
C10A C 0.2879(4) 0.6449(4) 0.9791(3)
H5A H 0.3273 0.6749 0.9246
C11A C 0.3551(5) 0.6138(5) 1.0479(3)
H6A H 0.4394 0.6250 1.0410
C12A C 0.3015(5) 0.5665(4) 1.1269(3)
H7A H 0.3496 0.5426 1.1738
C13A C 0.1781(5) 0.5543(4) 1.1371(3)
H8A H 0.1410 0.5219 1.1914
C14A C 0.1067(4) 0.5884(4) 1.0694(3)
H9A H 0.0203 0.5816 1.0781
C15A C -0.0533(4) 0.7748(4) 0.9342(2)
C16A C -0.1662(4) 0.7671(4) 0.9101(2)
H10A H -0.1569 0.6947 0.8802
C17A C -0.2912(4) 0.8632(4) 0.9290(2)
H11A H -0.3668 0.8558 0.9122
C18A C -0.3074(4) 0.9683(4) 0.9715(3)
H12A H -0.3935 1.0348 0.9836
C19A C -0.1972(5) 0.9771(4) 0.9970(3)
H13A H -0.2074 1.0499 1.0268
C20A C -0.0715(4) 0.8796(4) 0.9789(3)
H14A H 0.0032 0.8856 0.9978
C21A C 0.0739(4) 0.6733(4) 0.7586(2)
C22A C 0.0703(4) 0.5863(4) 0.7038(2)
H15A H 0.1033 0.4951 0.7192
C23A C 0.0198(4) 0.6305(4) 0.6278(3)
H16A H 0.0182 0.5690 0.5922
C24A C -0.0287(4) 0.7627(4) 0.6024(3)
C25A C -0.0262(4) 0.8484(4) 0.6564(3)
H17A H -0.0600 0.9396 0.6409
C26A C 0.0244(4) 0.8055(4) 0.7329(3)
H18A H 0.0252 0.8676 0.7683
C27A C -0.0723(4) 0.8097(5) 0.5153(3)
H19A H -0.1141 0.7512 0.5010
H20A H -0.1416 0.8984 0.5194
C28A C 0.0443(4) 0.8137(4) 0.4416(3)
C29A C 0.1643(4) 0.8147(4) 0.4584(2)
H21A H 0.1748 0.8127 0.5166
C30A C 0.2694(4) 0.8185(4) 0.3913(2)
C31A C 0.2565(4) 0.8213(4) 0.3050(3)
C32A C 0.1379(5) 0.8192(4) 0.2890(3)
H22A H 0.1281 0.8186 0.2309
C33A C 0.0312(4) 0.8178(5) 0.3565(3)
C34A C 0.3680(5) 0.8322(5) 0.2311(3)
H23A H 0.3959 0.9032 0.2423
H24A H 0.3297 0.8593 0.1771
C35A C -0.1189(9) 0.8010(11) 0.2652(7)
H25A H -0.0579 0.8261 0.2158
H26A H -0.0999 0.7063 0.2644
C36A C -0.2588(9) 0.8734(8) 0.2542(7)
H27A H -0.2705 0.8493 0.1994
H28A H -0.3175 0.8419 0.3018
C37A C -0.3105(10) 1.0204(8) 0.2524(8)
H29A H -0.2272 1.0387 0.2495
H30A H -0.3594 1.0367 0.3124
C38A C -0.3757(11) 1.1141(10) 0.2115(7)
H31A H -0.3154 1.1651 0.1923
H32A H -0.3774 1.0772 0.1585
C39A C -0.5158(14) 1.2193(16) 0.2302(13)
H33A H -0.5311 1.2814 0.1794
H34A H -0.5842 1.1781 0.2429
H35A H -0.5219 1.2655 0.2801
C40A C 0.4106(4) 0.8143(4) 0.4907(3)
H36A H 0.3522 0.8955 0.5192
H37A H 0.3894 0.7399 0.5246
C41A C 0.5578(4) 0.7944(4) 0.4853(3)
H38A H 0.5779 0.8667 0.4476
H39A H 0.5733 0.7992 0.5439
C42A C 0.6548(4) 0.6657(5) 0.4505(3)
H40A H 0.6272 0.6523 0.3979
H41A H 0.7458 0.6710 0.4330
C43A C 0.6624(5) 0.5476(5) 0.5148(3)
H42A H 0.7007 0.4677 0.4824
H43A H 0.5699 0.5550 0.5439
C44A C 0.7458(5) 0.5325(5) 0.5829(4)
H44A H 0.7075 0.6103 0.6163
H45A H 0.7457 0.4552 0.6218
H46A H 0.8384 0.5223 0.5549
C45? C 1.0957(8) 0.1464(10) 0.7560(6)
H47? H 1.0414 0.2268 0.7864
H48? H 1.0547 0.0793 0.7792
C46? C 1.2270(9) 0.1022(12) 0.7725(7)
H49? H 1.2212 0.0732 0.8349
H50? H 1.2534 0.1802 0.7650
C47? C 1.3428(10) -0.0018(12) 0.7263(9)
H51? H 1.3082 -0.0709 0.7207
H52? H 1.3626 0.0367 0.6669
C48? C 1.4672(9) -0.0667(9) 0.7522(7)
H53? H 1.4556 -0.0491 0.8135
H54? H 1.5297 -0.0241 0.7183
C49? C 1.5388(17) -0.2127(12) 0.7460(10)
H55? H 1.6239 -0.2402 0.7674
H56? H 1.5571 -0.2336 0.6854
H57? H 1.4817 -0.2588 0.7811
loop_
_geom_bond_atom_site_label_1
_geom_bond_atom_site_label_2
_geom_bond_site_symmetry_1
_geom_bond_site_symmetry_2
O1 C30 1_555 1_555
O2 C33 1_555 1_555
C1 H1 1_555 1_555
C2 C1 1_555 1_555
H2 C2 1_555 1_555
C3 C2 1_555 1_555
C4 C3 1_555 1_555
H3 C4 1_555 1_555
C5 C4 1_555 1_555
H4 C5 1_555 1_555
C6 C1 1_555 1_555
C7 C6 1_555 1_555
C8 C7 1_555 1_555
C9 C8 1_555 1_555
C10 C9 1_555 1_555
H5 C10 1_555 1_555
C11 C10 1_555 1_555
H6 C11 1_555 1_555
C12 C11 1_555 1_555
H7 C12 1_555 1_555
C13 C12 1_555 1_555
H8 C13 1_555 1_555
C14 C9 1_555 1_555
H9 C14 1_555 1_555
C15 C8 1_555 1_555
C16 C15 1_555 1_555
H10 C16 1_555 1_555
C17 C16 1_555 1_555
H11 C17 1_555 1_555
C18 C17 1_555 1_555
H12 C18 1_555 1_555
C19 C18 1_555 1_555
H13 C19 1_555 1_555
C20 C15 1_555 1_555
H14 C20 1_555 1_555
C21 C7 1_555 1_555
C22 C21 1_555 1_555
H15 C22 1_555 1_555
C23 C22 1_555 1_555
H16 C23 1_555 1_555
C24 C23 1_555 1_555
C25 C24 1_555 1_555
H17 C25 1_555 1_555
C26 C21 1_555 1_555
H18 C26 1_555 1_555
C27 C24 1_555 1_555
H19 C27 1_555 1_555
H20 C27 1_555 1_555
C28 C27 1_555 1_555
C29 C28 1_555 1_555
H21 C29 1_555 1_555
C30 C29 1_555 1_555
C31 C30 1_555 1_555
C32 C31 1_555 1_555
H22 C32 1_555 1_555
C33 C28 1_555 1_555
C34 C31 1_555 1_555
H23 C34 1_555 1_555
H24 C34 1_555 1_555
C35 O2 1_555 1_555
H25 C35 1_555 1_555
H26 C35 1_555 1_555
C36 C35 1_555 1_555
H27 C36 1_555 1_555
H28 C36 1_555 1_555
C37 C36 1_555 1_555
H29 C37 1_555 1_555
H30 C37 1_555 1_555
C38 C37 1_555 1_555
H31 C38 1_555 1_555
H32 C38 1_555 1_555
C39 C38 1_555 1_555
H33 C39 1_555 1_555
H34 C39 1_555 1_555
H35 C39 1_555 1_555
C40 O1 1_555 1_555
H36 C40 1_555 1_555
H37 C40 1_555 1_555
C41 C40 1_555 1_555
H38 C41 1_555 1_555
H39 C41 1_555 1_555
C42 C41 1_555 1_555
H40 C42 1_555 1_555
H41 C42 1_555 1_555
C43 C42 1_555 1_555
H42 C43 1_555 1_555
H43 C43 1_555 1_555
C44 C43 1_555 1_555
H44 C44 1_555 1_555
H45 C44 1_555 1_555
H46 C44 1_555 1_555
O1A C30A 1_555 1_555
O2A C33A 1_555 1_555
C1A H1A 1_555 1_555
C2A C1A 1_555 1_555
H2A C2A 1_555 1_555
C3A C34 1_555 1_555
C4A C3A 1_555 1_555
H3A C4A 1_555 1_555
C5A C4A 1_555 1_555
H4A C5A 1_555 1_555
C6A C1A 1_555 1_555
C7A C6A 1_555 1_555
C8A C7A 1_555 1_555
C9A C8A 1_555 1_555
C10A C9A 1_555 1_555
H5A C10A 1_555 1_555
C11A C10A 1_555 1_555
H6A C11A 1_555 1_555
C12A C11A 1_555 1_555
H7A C12A 1_555 1_555
C13A C12A 1_555 1_555
H8A C13A 1_555 1_555
C14A C9A 1_555 1_555
H9A C14A 1_555 1_555
C15A C8A 1_555 1_555
C16A C15A 1_555 1_555
H10A C16A 1_555 1_555
C17A C16A 1_555 1_555
H11A C17A 1_555 1_555
C18A C17A 1_555 1_555
H12A C18A 1_555 1_555
C19A C18A 1_555 1_555
H13A C19A 1_555 1_555
C20A C15A 1_555 1_555
H14A C20A 1_555 1_555
C21A C7A 1_555 1_555
C22A C21A 1_555 1_555
H15A C22A 1_555 1_555
C23A C22A 1_555 1_555
H16A C23A 1_555 1_555
C24A C23A 1_555 1_555
C25A C24A 1_555 1_555
H17A C25A 1_555 1_555
C26A C21A 1_555 1_555
H18A C26A 1_555 1_555
C27A C24A 1_555 1_555
H19A C27A 1_555 1_555
H20A C27A 1_555 1_555
C28A C27A 1_555 1_555
C29A C28A 1_555 1_555
H21A C29A 1_555 1_555
C30A C29A 1_555 1_555
C31A C30A 1_555 1_555
C32A C31A 1_555 1_555
H22A C32A 1_555 1_555
C33A C28A 1_555 1_555
C34A C3 1_555 1_555
H23A C34A 1_555 1_555
H24A C34A 1_555 1_555
C35A O2A 1_555 1_555
H25A C35A 1_555 1_555
H26A C35A 1_555 1_555
C36A C35A 1_555 1_555
H27A C36A 1_555 1_555
H28A C36A 1_555 1_555
C37A C36A 1_555 1_555
H29A C37A 1_555 1_555
H30A C37A 1_555 1_555
C38A C37A 1_555 1_555
H31A C38A 1_555 1_555
H32A C38A 1_555 1_555
C39A C38A 1_555 1_555
H33A C39A 1_555 1_555
H34A C39A 1_555 1_555
H35A C39A 1_555 1_555
C40A O1A 1_555 1_555
H36A C40A 1_555 1_555
H37A C40A 1_555 1_555
C41A C40A 1_555 1_555
H38A C41A 1_555 1_555
H39A C41A 1_555 1_555
C42A C41A 1_555 1_555
H40A C42A 1_555 1_555
H41A C42A 1_555 1_555
C43A C42A 1_555 1_555
H42A C43A 1_555 1_555
H43A C43A 1_555 1_555
C44A C43A 1_555 1_555
H44A C44A 1_555 1_555
H45A C44A 1_555 1_555
H46A C44A 1_555 1_555
C5 C6 1_555 1_555
C13 C14 1_555 1_555
C19 C20 1_555 1_555
C25 C26 1_555 1_555
C32 C33 1_555 1_555
C2A C3A 1_555 1_555
C5A C6A 1_555 1_555
C13A C14A 1_555 1_555
C19A C20A 1_555 1_555
C25A C26A 1_555 1_555
C31A C34A 1_555 1_555
C32A C33A 1_555 1_555

#END
