
#######################################################################
#
#                 Cambridge Crystallographic Data Centre
#                                CCDC 
#
#######################################################################
#
# If this CIF has been generated from an entry in the Cambridge 
# Structural Database, then it will include bibliographic, chemical, 
# crystal, experimental, refinement or atomic coordinate data resulting 
# from the CCDC's data processing and validation procedures.
#
#######################################################################

data_QOQBEF
_chemical_formula_moiety         'C28 H24,0.5(C4 H8 O1)'
_chemical_name_systematic        
"1,1'-(2,2-diphenylethene-1,1-diyl)bis(4-methylbenzene) tetrahydrofuran solvate"
_symmetry_cell_setting           triclinic
_symmetry_space_group_name_H-M   'P -1'
_symmetry_Int_Tables_number      2
_space_group_name_Hall           '-P 1'
loop_
_symmetry_equiv_pos_site_id
_symmetry_equiv_pos_as_xyz
1 x,y,z
2 -x,-y,-z
_cell_length_a                   9.6111(13)
_cell_length_b                   9.8047(14)
_cell_length_c                   12.6063(15)
_cell_angle_alpha                75.516(8)
_cell_angle_beta                 79.934(9)
_cell_angle_gamma                88.667(10)
_cell_volume                     1132.22
_exptl_crystal_colour            colorless
_exptl_crystal_description       prism
_cell_formula_units_Z            2
loop_
_atom_site_label
_atom_site_type_symbol
_atom_site_fract_x
_atom_site_fract_y
_atom_site_fract_z
O1 O 0.4240(3) 0.5683(2) 0.57890(18)
C29 C 0.3541(6) 0.4848(7) 0.5224(4)
H25 H 0.2773 0.5389 0.4892
H26 H 0.3128 0.3972 0.5756
C30 C 0.4645(6) 0.4502(7) 0.4326(5)
H27 H 0.4676 0.3473 0.4401
C31 C 0.6052(6) 0.5061(7) 0.4512(5)
H28 H 0.6821 0.4383 0.4440
H29 H 0.6340 0.5981 0.3984
C32 C 0.5660(7) 0.5204(9) 0.5705(6)
H30 H 0.5718 0.4286 0.6245
H31 H 0.6294 0.5895 0.5846
H32 H 0.4447 0.4975 0.3579
O1A O 0.5760(3) 0.4317(2) 0.42110(18)
C29A C 0.6459(6) 0.5152(7) 0.4776(4)
H25A H 0.7227 0.4611 0.5108
H26A H 0.6872 0.6028 0.4244
C30A C 0.5355(6) 0.5498(7) 0.5674(5)
H27A H 0.5324 0.6527 0.5599
C31A C 0.3948(6) 0.4939(7) 0.5488(5)
H28A H 0.3179 0.5617 0.5560
H29A H 0.3660 0.4019 0.6016
C32A C 0.4340(7) 0.4796(9) 0.4295(6)
H30A H 0.4282 0.5714 0.3755
H31A H 0.3706 0.4105 0.4154
H32A H 0.5553 0.5025 0.6421
C1 C 0.91688(11) 0.74945(11) 0.20192(9)
C2 C 0.94577(11) 0.85611(10) 0.24603(9)
C3 C 0.79621(11) 0.75056(11) 0.14173(9)
C4 C 0.76554(12) 0.86701(12) 0.06045(9)
H1 H 0.8248 0.9489 0.0401
C5 C 0.64947(12) 0.86487(12) 0.00881(9)
H2 H 0.6312 0.9454 -0.0465
C6 C 0.55931(12) 0.74751(12) 0.03623(9)
C7 C 0.59123(12) 0.63089(12) 0.11587(10)
H3 H 0.5318 0.5491 0.1362
C8 C 0.70823(12) 0.63149(11) 0.16636(9)
H4 H 0.7290 0.5490 0.2189
C9 C 0.43402(13) 0.74578(14) -0.02037(11)
H5 H 0.4541 0.6866 -0.0732
H6 H 0.4155 0.8420 -0.0602
H7 H 0.3509 0.7076 0.0355
C10 C 1.00154(11) 0.61802(10) 0.21683(9)
C11 C 1.06574(12) 0.56789(11) 0.12653(9)
H8 H 1.0535 0.6166 0.0536
C12 C 1.14726(12) 0.44807(12) 0.14098(10)
H9 H 1.1916 0.4175 0.0777
C13 C 1.16510(12) 0.37221(11) 0.24650(10)
C14 C 1.09713(12) 0.41958(11) 0.33688(10)
H10 H 1.1057 0.3681 0.4100
C15 C 1.01727(12) 0.54008(11) 0.32291(9)
H11 H 0.9726 0.5701 0.3863
C16 C 1.25354(14) 0.24155(13) 0.26407(12)
H12 H 1.3455 0.2648 0.2794
H13 H 1.2676 0.2061 0.1969
H14 H 1.2048 0.1691 0.3273
C17 C 0.85218(11) 0.97933(11) 0.25093(9)
C18 C 0.71136(12) 0.96164(11) 0.30397(10)
H15 H 0.6712 0.8694 0.3332
C19 C 0.62938(12) 1.07720(12) 0.31446(10)
H16 H 0.5337 1.0635 0.3510
C20 C 0.68590(12) 1.21245(12) 0.27213(10)
H17 H 0.6295 1.2914 0.2798
C21 C 0.82470(12) 1.23167(12) 0.21879(10)
H18 H 0.8636 1.3243 0.1888
C22 C 0.90770(12) 1.11651(11) 0.20870(9)
H19 H 1.0035 1.1310 0.1726
C23 C 1.07260(11) 0.85661(10) 0.29960(9)
C24 C 1.20846(12) 0.84119(12) 0.24432(9)
H20 H 1.2217 0.8316 0.1701
C25 C 1.32485(12) 0.83968(13) 0.29616(11)
H21 H 1.4171 0.8310 0.2569
C26 C 1.30662(13) 0.85078(13) 0.40472(11)
H22 H 1.3860 0.8472 0.4408
C27 C 1.17255(13) 0.86715(12) 0.46101(10)
H23 H 1.1598 0.8747 0.5357
C28 C 1.05668(12) 0.87244(11) 0.40798(9)
H24 H 0.9654 0.8870 0.4460
loop_
_geom_bond_atom_site_label_1
_geom_bond_atom_site_label_2
_geom_bond_site_symmetry_1
_geom_bond_site_symmetry_2
C1 C2 1_555 1_555
C2 C17 1_555 1_555
C3 C1 1_555 1_555
C4 C3 1_555 1_555
H1 C4 1_555 1_555
C5 C4 1_555 1_555
H2 C5 1_555 1_555
C6 C5 1_555 1_555
C7 C6 1_555 1_555
H3 C7 1_555 1_555
C8 C3 1_555 1_555
H4 C8 1_555 1_555
C9 C6 1_555 1_555
H5 C9 1_555 1_555
H6 C9 1_555 1_555
H7 C9 1_555 1_555
C10 C1 1_555 1_555
C11 C10 1_555 1_555
H8 C11 1_555 1_555
C12 C11 1_555 1_555
H9 C12 1_555 1_555
C13 C12 1_555 1_555
C14 C13 1_555 1_555
H10 C14 1_555 1_555
C15 C10 1_555 1_555
H11 C15 1_555 1_555
C16 C13 1_555 1_555
H12 C16 1_555 1_555
H13 C16 1_555 1_555
H14 C16 1_555 1_555
C17 C18 1_555 1_555
C18 H15 1_555 1_555
C19 C18 1_555 1_555
H16 C19 1_555 1_555
C20 C19 1_555 1_555
H17 C20 1_555 1_555
C21 C20 1_555 1_555
H18 C21 1_555 1_555
C22 C17 1_555 1_555
H19 C22 1_555 1_555
C23 C2 1_555 1_555
C24 C23 1_555 1_555
H20 C24 1_555 1_555
C25 C24 1_555 1_555
H21 C25 1_555 1_555
C26 C25 1_555 1_555
H22 C26 1_555 1_555
C27 C26 1_555 1_555
H23 C27 1_555 1_555
C28 C23 1_555 1_555
H24 C28 1_555 1_555
O1 C29 1_555 1_555
C29 H25 1_555 1_555
H26 C29 1_555 1_555
C30 C29 1_555 1_555
H27 C30 1_555 1_555
C31 C30 1_555 1_555
H28 C31 1_555 1_555
H29 C31 1_555 1_555
C32 O1 1_555 1_555
H30 C32 1_555 1_555
H31 C32 1_555 1_555
H32 C30 1_555 1_555
O1A C29A 1_555 1_555
C29A C31 1_555 1_555
H25A C29A 1_555 1_555
H26A C29A 1_555 1_555
C30A C29A 1_555 1_555
H27A C30A 1_555 1_555
C31A C29 1_555 1_555
H28A C31A 1_555 1_555
H29A C31A 1_555 1_555
C32A C29 1_555 1_555
H30A C32A 1_555 1_555
H31A C32A 1_555 1_555
H32A C30A 1_555 1_555
C7 C8 1_555 1_555
C14 C15 1_555 1_555
C21 C22 1_555 1_555
C27 C28 1_555 1_555
C31 C32 1_555 1_555
C31 C32A 1_555 1_555
C32 C29A 1_555 1_555
C32 C31A 1_555 1_555
O1A C32A 1_555 1_555
C30A C31A 1_555 1_555
C31A C32A 1_555 1_555

#END
