
#######################################################################
#
#                 Cambridge Crystallographic Data Centre
#                                CCDC 
#
#######################################################################
#
# If this CIF has been generated from an entry in the Cambridge 
# Structural Database, then it will include bibliographic, chemical, 
# crystal, experimental, refinement or atomic coordinate data resulting 
# from the CCDC's data processing and validation procedures.
#
#######################################################################

data_QOQBOP
_chemical_formula_moiety         'C8 H4 N1 O6 1-,C5 H9 N2 1+'
_chemical_name_systematic        
'3,5-dimethyl-1H-pyrazol-2-ium 2-carboxy-5-nitrobenzoate'
_symmetry_cell_setting           monoclinic
_symmetry_space_group_name_H-M   'P 21'
_symmetry_Int_Tables_number      4
_space_group_name_Hall           'P 2yb'
loop_
_symmetry_equiv_pos_site_id
_symmetry_equiv_pos_as_xyz
1 x,y,z
2 -x,1/2+y,-z
_cell_length_a                   7.843(3)
_cell_length_b                   6.8506(12)
_cell_length_c                   12.816(2)
_cell_angle_alpha                90
_cell_angle_beta                 92.0710(10)
_cell_angle_gamma                90
_cell_volume                     688.144
_exptl_crystal_colour            colorless
_exptl_crystal_description       block
_cell_formula_units_Z            2
loop_
_atom_site_label
_atom_site_type_symbol
_atom_site_fract_x
_atom_site_fract_y
_atom_site_fract_z
N1 N 0.7205(7) 0.2067(9) 0.8301(4)
H1 H 0.7564 0.2551 0.8888
N2 N 0.7243(8) 0.2970(8) 0.7365(4)
H2 H 0.7631 0.4127 0.7265
C1 C 0.6280(9) -0.1027(12) 0.9070(5)
H3 H 0.7231 -0.0893 0.9558
H4 H 0.6210 -0.2353 0.8830
H5 H 0.5247 -0.0687 0.9406
C2 C 0.6518(9) 0.0295(11) 0.8164(5)
C3 C 0.6112(9) 0.0076(11) 0.7102(5)
H6 H 0.5619 -0.1010 0.6778
C4 C 0.6592(9) 0.1807(11) 0.6622(5)
C5 C 0.6545(10) 0.2440(12) 0.5505(5)
H7 H 0.6772 0.3815 0.5468
H8 H 0.5438 0.2173 0.5193
H9 H 0.7395 0.1739 0.5135
N3 N 0.6791(8) 0.9571(9) 0.2466(5)
O1 O 1.0723(7) 0.1895(8) 0.3962(4)
O2 O 1.0856(7) 0.1164(7) 0.2293(4)
H10 H 1.0549 0.1649 0.1733
O3 O 0.9590(6) 0.2088(7) 0.0631(3)
O4 O 0.7698(6) 0.4233(7) 0.0029(3)
O5 O 0.6279(8) 1.0070(8) 0.1595(4)
O6 O 0.6571(7) 1.0513(7) 0.3257(4)
C6 C 1.0371(9) 0.2260(10) 0.3045(5)
C7 C 0.8654(9) 0.3614(10) 0.0751(5)
C8 C 0.9373(9) 0.4166(10) 0.2779(5)
C9 C 0.8673(9) 0.4724(9) 0.1786(5)
C10 C 0.7856(9) 0.6529(9) 0.1713(5)
H11 H 0.7398 0.6951 0.1072
C11 C 0.7723(9) 0.7693(9) 0.2583(5)
C12 C 0.8374(9) 0.7145(11) 0.3552(5)
H12 H 0.8260 0.7942 0.4133
C13 C 0.9201(9) 0.5370(10) 0.3629(5)
H13 H 0.9657 0.4974 0.4275
loop_
_geom_bond_atom_site_label_1
_geom_bond_atom_site_label_2
_geom_bond_site_symmetry_1
_geom_bond_site_symmetry_2
N1 H1 1_555 1_555
N2 N1 1_555 1_555
H2 N2 1_555 1_555
C1 H3 1_555 1_555
H4 C1 1_555 1_555
H5 C1 1_555 1_555
C2 N1 1_555 1_555
C3 C2 1_555 1_555
H6 C3 1_555 1_555
C4 N2 1_555 1_555
C5 C4 1_555 1_555
H7 C5 1_555 1_555
H8 C5 1_555 1_555
H9 C5 1_555 1_555
N3 O5 1_555 1_555
O1 C6 1_555 1_555
O2 H10 1_555 1_555
O3 C7 1_555 1_555
O4 C7 1_555 1_555
O6 N3 1_555 1_555
C6 O2 1_555 1_555
C7 C9 1_555 1_555
C8 C6 1_555 1_555
C9 C8 1_555 1_555
C10 C9 1_555 1_555
H11 C10 1_555 1_555
C11 N3 1_555 1_555
C12 C11 1_555 1_555
H12 C12 1_555 1_555
C13 C8 1_555 1_555
H13 C13 1_555 1_555
C1 C2 1_555 1_555
C3 C4 1_555 1_555
C10 C11 1_555 1_555
C12 C13 1_555 1_555

#END
