
#######################################################################
#
#                 Cambridge Crystallographic Data Centre
#                                CCDC 
#
#######################################################################
#
# If this CIF has been generated from an entry in the Cambridge 
# Structural Database, then it will include bibliographic, chemical, 
# crystal, experimental, refinement or atomic coordinate data resulting 
# from the CCDC's data processing and validation procedures.
#
#######################################################################

data_QOQCIK
_chemical_formula_moiety         'C10 H6 O6 S2 2-,2(C9 H8 N1 O1 1+),2(H2 O1)'
_chemical_name_systematic        
'bis(8-hydroxyquinolinium) naphthalene-1,5-disulfonate dihydrate'
_symmetry_cell_setting           orthorhombic
_symmetry_space_group_name_H-M   'P b c a'
_symmetry_Int_Tables_number      61
_space_group_name_Hall           '-P 2ac 2ab'
loop_
_symmetry_equiv_pos_site_id
_symmetry_equiv_pos_as_xyz
1 x,y,z
2 1/2-x,-y,1/2+z
3 -x,1/2+y,1/2-z
4 1/2+x,1/2-y,-z
5 -x,-y,-z
6 1/2+x,y,1/2-z
7 x,1/2-y,1/2+z
8 1/2-x,1/2+y,z
_cell_length_a                   14.7954(13)
_cell_length_b                   11.0924(11)
_cell_length_c                   16.2422(14)
_cell_angle_alpha                90
_cell_angle_beta                 90
_cell_angle_gamma                90
_cell_volume                     2665.61
_exptl_crystal_colour            colorless
_exptl_crystal_description       block
_cell_formula_units_Z            4
loop_
_atom_site_label
_atom_site_type_symbol
_atom_site_fract_x
_atom_site_fract_y
_atom_site_fract_z
N1 N 0.3909(2) 0.1998(3) 0.44525(19)
H1 H 0.3329 0.2002 0.4488
O1 O 0.30421(17) 0.1452(3) 0.58485(17)
H2 H 0.2834 0.1248 0.6295
C1 C 0.4281(3) 0.2332(3) 0.3754(2)
H3 H 0.3916 0.2559 0.3314
C2 C 0.5208(3) 0.2350(4) 0.3670(3)
H4 H 0.5472 0.2613 0.3183
C3 C 0.5729(3) 0.1977(4) 0.4308(3)
H5 H 0.6354 0.1976 0.4250
C4 C 0.5348(2) 0.1593(3) 0.5057(2)
C5 C 0.4394(2) 0.1643(3) 0.5125(2)
C6 C 0.3955(3) 0.1338(4) 0.5862(2)
C7 C 0.4462(3) 0.0953(4) 0.6506(3)
H6 H 0.4183 0.0740 0.6998
C8 C 0.5403(3) 0.0873(4) 0.6437(3)
H7 H 0.5737 0.0596 0.6884
C9 C 0.5840(3) 0.1187(4) 0.5741(3)
H8 H 0.6467 0.1134 0.5714
O2 O 0.71135(16) 0.3381(2) 0.58832(16)
O3 O 0.65318(18) 0.3858(3) 0.72291(15)
O4 O 0.71007(17) 0.5439(2) 0.63503(17)
S1 S 0.66665(6) 0.42695(9) 0.63918(6)
C10 C 0.6181(2) 0.5140(3) 0.4607(2)
H9 H 0.6769 0.5012 0.4791
C11 C 0.5450(2) 0.4911(3) 0.5143(2)
C12 C 0.5568(2) 0.4484(3) 0.5969(2)
C13 C 0.4837(2) 0.4262(3) 0.6458(2)
H10 H 0.4925 0.3978 0.6991
C14 C 0.3959(2) 0.4457(4) 0.6170(2)
H11 H 0.3468 0.4309 0.6513
O2D O 0.28865(16) 0.6619(2) 0.41168(16)
O3D O 0.34682(18) 0.6142(3) 0.27709(15)
O4D O 0.28993(17) 0.4561(2) 0.36497(17)
S1D S 0.33335(6) 0.57305(9) 0.36082(6)
C10D C 0.3819(2) 0.4860(3) 0.5393(2)
H9D H 0.3231 0.4988 0.5209
C11D C 0.4550(2) 0.5089(3) 0.4857(2)
C12D C 0.4432(2) 0.5516(3) 0.4031(2)
C13D C 0.5163(2) 0.5738(3) 0.3542(2)
H10D H 0.5075 0.6022 0.3009
C14D C 0.6041(2) 0.5543(4) 0.3830(2)
H11D H 0.6532 0.5691 0.3487
O5 O 0.2370(2) 0.1740(3) 0.72988(17)
H12 H 0.2114 0.2387 0.7454
H13 H 0.2530 0.1347 0.7724
loop_
_geom_bond_atom_site_label_1
_geom_bond_atom_site_label_2
_geom_bond_site_symmetry_1
_geom_bond_site_symmetry_2
N1 H1 1_555 1_555
O1 H2 1_555 1_555
C1 N1 1_555 1_555
H3 C1 1_555 1_555
C2 C1 1_555 1_555
H4 C2 1_555 1_555
C3 C2 1_555 1_555
H5 C3 1_555 1_555
C4 C3 1_555 1_555
C5 N1 1_555 1_555
C6 O1 1_555 1_555
C7 C6 1_555 1_555
H6 C7 1_555 1_555
C8 C7 1_555 1_555
H7 C8 1_555 1_555
C9 C4 1_555 1_555
H8 C9 1_555 1_555
O2 S1 1_555 1_555
O3 S1 1_555 1_555
O4 S1 1_555 1_555
S1 C12 1_555 1_555
C10 H9 1_555 1_555
C11 C10 1_555 1_555
C12 C11 1_555 1_555
C13 C12 1_555 1_555
H10 C13 1_555 1_555
C14 C13 1_555 1_555
H11 C14 1_555 1_555
O5 H12 1_555 1_555
H13 O5 1_555 1_555
O2D S1D 1_555 1_555
O3D S1D 1_555 1_555
O4D S1D 1_555 1_555
S1D C12D 1_555 1_555
C10D C14 1_555 1_555
H9D C10D 1_555 1_555
C11D C11 1_555 1_555
C12D C11D 1_555 1_555
C13D C12D 1_555 1_555
H10D C13D 1_555 1_555
C14D C10 1_555 1_555
H11D C14D 1_555 1_555
C4 C5 1_555 1_555
C5 C6 1_555 1_555
C8 C9 1_555 1_555
C10D C11D 1_555 1_555
C13D C14D 1_555 1_555

#END
