
#######################################################################
#
#                 Cambridge Crystallographic Data Centre
#                                CCDC 
#
#######################################################################
#
# If this CIF has been generated from an entry in the Cambridge 
# Structural Database, then it will include bibliographic, chemical, 
# crystal, experimental, refinement or atomic coordinate data resulting 
# from the CCDC's data processing and validation procedures.
#
#######################################################################

data_QOQCOQ
_chemical_formula_moiety         'C9 H8 N1 O1 1+,C8 H4 N1 O6 1-'
_chemical_name_systematic        
'8-hydroxyquinolinium 2-carboxy-4-nitrobenzoate'
_symmetry_cell_setting           monoclinic
_symmetry_space_group_name_H-M   'P 21/c'
_symmetry_Int_Tables_number      14
_space_group_name_Hall           '-P 2ybc'
loop_
_symmetry_equiv_pos_site_id
_symmetry_equiv_pos_as_xyz
1 x,y,z
2 -x,1/2+y,1/2-z
3 -x,-y,-z
4 x,1/2-y,1/2+z
_cell_length_a                   6.9540(8)
_cell_length_b                   7.4425(10)
_cell_length_c                   30.2082(18)
_cell_angle_alpha                90
_cell_angle_beta                 103.309(2)
_cell_angle_gamma                90
_cell_volume                     1521.44
_exptl_crystal_colour            colorless
_exptl_crystal_description       block
_cell_formula_units_Z            4
loop_
_atom_site_label
_atom_site_type_symbol
_atom_site_fract_x
_atom_site_fract_y
_atom_site_fract_z
N1 N 0.7013(3) 0.0844(3) 0.79851(7)
H1 H 0.5924 0.1159 0.7803
O1 O 0.4073(2) 0.2419(3) 0.82779(6)
H2 H 0.3240 0.2860 0.8398
C1 C 0.8419(4) 0.0142(4) 0.78083(9)
H3 H 0.8208 -0.0012 0.7495
C2 C 1.0202(4) -0.0361(4) 0.80893(10)
H4 H 1.1206 -0.0834 0.7968
C3 C 1.0463(4) -0.0151(4) 0.85490(10)
H5 H 1.1659 -0.0487 0.8739
C4 C 0.8965(4) 0.0562(4) 0.87412(9)
C5 C 0.7197(3) 0.1093(3) 0.84398(8)
C6 C 0.5635(4) 0.1878(4) 0.86007(9)
C7 C 0.5839(4) 0.2025(4) 0.90589(9)
H6 H 0.4808 0.2495 0.9172
C8 C 0.7576(4) 0.1477(4) 0.93614(9)
H7 H 0.7675 0.1583 0.9673
C9 C 0.9125(4) 0.0794(4) 0.92113(9)
H8 H 1.0286 0.0480 0.9418
N2 N 0.5494(4) 0.7422(4) 0.96807(8)
O2 O 1.1801(3) 0.4351(3) 0.86746(7)
O3 O 0.9527(3) 0.4603(3) 0.80383(7)
O4 O 0.6324(3) 0.5852(3) 0.77663(6)
H9 H 0.7384 0.5353 0.7869
O5 O 0.4106(3) 0.7313(3) 0.80271(7)
O6 O 0.3852(3) 0.8025(4) 0.95381(8)
O7 O 0.6258(4) 0.7276(5) 1.00815(8)
C10 C 1.0145(4) 0.4831(4) 0.84628(10)
C11 C 0.5658(4) 0.6515(4) 0.80965(9)
C12 C 0.8786(3) 0.5630(3) 0.87460(8)
C13 C 0.6850(3) 0.6288(3) 0.85866(8)
C14 C 0.5804(4) 0.6871(4) 0.89001(8)
H10 H 0.4518 0.7293 0.8800
C15 C 0.6660(4) 0.6826(4) 0.93577(8)
C16 C 0.8570(4) 0.6272(4) 0.95181(9)
H11 H 0.9155 0.6306 0.9828
C17 C 0.9603(4) 0.5664(4) 0.92108(9)
H12 H 1.0892 0.5261 0.9318
loop_
_geom_bond_atom_site_label_1
_geom_bond_atom_site_label_2
_geom_bond_site_symmetry_1
_geom_bond_site_symmetry_2
N1 H1 1_555 1_555
O1 H2 1_555 1_555
C1 N1 1_555 1_555
H3 C1 1_555 1_555
C2 C1 1_555 1_555
H4 C2 1_555 1_555
C3 C2 1_555 1_555
H5 C3 1_555 1_555
C4 C3 1_555 1_555
C5 N1 1_555 1_555
C6 O1 1_555 1_555
C7 C6 1_555 1_555
H6 C7 1_555 1_555
C8 C7 1_555 1_555
H7 C8 1_555 1_555
C9 C4 1_555 1_555
H8 C9 1_555 1_555
N2 O6 1_555 1_555
O2 C10 1_555 1_555
O3 C10 1_555 1_555
O4 H9 1_555 1_555
O5 C11 1_555 1_555
O7 N2 1_555 1_555
C10 C12 1_555 1_555
C11 O4 1_555 1_555
C12 C13 1_555 1_555
C13 C11 1_555 1_555
C14 C13 1_555 1_555
H10 C14 1_555 1_555
C15 N2 1_555 1_555
C16 C15 1_555 1_555
H11 C16 1_555 1_555
C17 C12 1_555 1_555
H12 C17 1_555 1_555
C4 C5 1_555 1_555
C5 C6 1_555 1_555
C8 C9 1_555 1_555
C14 C15 1_555 1_555
C16 C17 1_555 1_555

#END
