
#######################################################################
#
#                 Cambridge Crystallographic Data Centre
#                                CCDC 
#
#######################################################################
#
# If this CIF has been generated from an entry in the Cambridge 
# Structural Database, then it will include bibliographic, chemical, 
# crystal, experimental, refinement or atomic coordinate data resulting 
# from the CCDC's data processing and validation procedures.
#
#######################################################################

data_QOQDOP
_chemical_name_common            
"C-Methylcalix[4]resorcinarene tris(4,4'-bipyridine) benzophenone clathrate dihydrate"
_chemical_formula_moiety         'C32 H32 O8,3(C10 H8 N2),C13 H10 O1,2(H2 O1)'
_chemical_name_systematic        
"4,6,10,12,16,18,22,24-octahydroxy-2,8,14,20-tetramethylcalix[4]arene tris(4,4'-bipyridine) benzophenone clathrate dihydrate"
_symmetry_cell_setting           triclinic
_symmetry_space_group_name_H-M   'P 1'
_symmetry_Int_Tables_number      1
_space_group_name_Hall           'P 1'
loop_
_symmetry_equiv_pos_site_id
_symmetry_equiv_pos_as_xyz
1 x,y,z
_cell_length_a                   9.9541(14)
_cell_length_b                   11.5239(16)
_cell_length_c                   14.3145(14)
_cell_angle_alpha                82.333(5)
_cell_angle_beta                 74.456(4)
_cell_angle_gamma                80.836(3)
_cell_volume                     1554.65
_exptl_crystal_colour            'light yellow'
_exptl_crystal_description       plate
_cell_formula_units_Z            1
loop_
_atom_site_label
_atom_site_type_symbol
_atom_site_fract_x
_atom_site_fract_y
_atom_site_fract_z
O1 O -0.2016(4) 1.1492(3) -0.2162(3)
O2 O 0.0655(4) 0.7678(3) -0.2799(3)
O3 O 0.4406(4) 0.5895(3) -0.2128(3)
O4 O 0.2187(4) 0.4237(3) 0.1077(3)
O5 O 0.2080(4) 0.6938(3) 0.2394(3)
O6 O -0.0711(4) 1.0661(3) 0.3085(3)
O7 O -0.4360(4) 1.2444(3) 0.2448(3)
O8 O -0.1991(4) 1.4117(3) -0.0686(3)
C1 C -0.0913(5) 1.0634(5) -0.2065(4)
C2 C -0.0710(6) 0.9558(5) -0.2467(4)
C3 C 0.0428(6) 0.8722(5) -0.2398(4)
C4 C 0.1415(6) 0.8947(5) -0.1932(4)
C5 C 0.1162(6) 1.0015(5) -0.1499(4)
C6 C 0.0024(5) 1.0871(5) -0.1555(4)
C7 C 0.2693(6) 0.8067(5) -0.1913(5)
C8 C 0.3992(6) 0.8652(5) -0.1913(5)
C9 C 0.2503(6) 0.7047(4) -0.1125(4)
C10 C 0.3364(6) 0.5962(5) -0.1266(4)
C11 C 0.3300(6) 0.5046(5) -0.0556(4)
C12 C 0.2269(6) 0.5149(5) 0.0334(4)
C13 C 0.1356(6) 0.6199(5) 0.0519(4)
C14 C 0.1517(6) 0.7110(5) -0.0230(4)
C15 C 0.0264(6) 0.6276(5) 0.1462(5)
C16 C -0.1044(8) 0.5837(7) 0.1383(6)
C17 C 0.0014(6) 0.7462(5) 0.1863(4)
C18 C 0.0948(6) 0.7755(5) 0.2334(4)
C19 C 0.0719(6) 0.8820(5) 0.2736(4)
C20 C -0.0459(6) 0.9614(5) 0.2692(4)
C21 C -0.1414(5) 0.9374(5) 0.2223(4)
C22 C -0.1153(6) 0.8312(5) 0.1839(4)
C23 C -0.2745(6) 1.0251(5) 0.2248(4)
C24 C -0.3996(6) 0.9690(6) 0.2216(5)
C25 C -0.2522(6) 1.1276(5) 0.1437(4)
C26 C -0.3369(6) 1.2339(5) 0.1580(4)
C27 C -0.3158(6) 1.3322(5) 0.0887(4)
C28 C -0.2175(6) 1.3188(5) 0.0016(4)
C29 C -0.1377(5) 1.2121(4) -0.0182(4)
C30 C -0.1515(6) 1.1180(5) 0.0539(4)
C31 C -0.0202(6) 1.2043(5) -0.1151(4)
C32 C 0.1125(6) 1.2396(6) -0.0983(5)
H11 H -0.097(5) 1.042(4) 0.042(3)
H12 H 0.086(5) 0.778(4) -0.009(3)
H13 H 0.186(5) 1.017(4) -0.116(4)
H14 H 0.123(4) 0.902(4) 0.310(3)
H15 H -0.169(5) 0.811(4) 0.149(4)
H16 H 0.411(4) 0.425(4) -0.066(3)
H19 H -0.286(4) 1.077(3) 0.285(3)
H22 H 0.358(4) 0.892(4) -0.120(3)
H23 H -0.004(4) 0.534(3) 0.210(3)
H24 H -0.151(4) 0.957(4) -0.283(3)
H25 H 0.337(4) 0.797(3) -0.267(3)
H31 H -0.232(5) 1.465(4) -0.044(4)
H32 H -0.384(4) 0.921(4) 0.165(3)
H33 H -0.064(4) 1.277(3) -0.167(3)
H35 H -0.474(4) 1.037(4) 0.247(3)
H36 H 0.085(4) 1.326(3) -0.062(3)
H37 H 0.262(4) 0.339(4) 0.082(3)
H38 H 0.000(4) 0.749(3) -0.321(3)
H39 H 0.496(4) 0.805(3) -0.179(3)
H41 H -0.366(4) 1.401(4) 0.105(3)
H42 H 0.494(4) 0.510(3) -0.219(3)
H47 H -0.069(4) 0.479(3) 0.136(3)
H48 H 0.410(4) 0.917(3) -0.263(3)
H49 H 0.203(4) 1.234(3) -0.159(3)
H50 H -0.250(5) 1.140(4) -0.233(3)
H54 H -0.005(5) 1.050(4) 0.338(3)
H59 H -0.434(4) 0.900(3) 0.278(3)
H60 H 0.247(4) 0.733(3) 0.304(3)
H61 H -0.168(4) 0.566(3) 0.211(3)
H63 H 0.166(4) 1.173(3) -0.056(3)
H69 H -0.493(5) 1.286(4) 0.234(3)
H70 H -0.099(4) 0.633(3) 0.059(3)
O9 O -0.3536(4) 1.3984(4) -0.2032(3)
H65 H -0.300(4) 1.323(3) -0.221(3)
H66 H -0.301(4) 1.410(3) -0.150(3)
O10 O -0.6278(4) 1.4328(4) 0.2459(4)
H67 H -0.680(4) 1.416(3) 0.315(3)
H68 H -0.688(5) 1.436(5) 0.225(4)
O11 O 0.1208(4) 1.3895(4) -0.6166(3)
C63 C -0.1438(6) 1.3341(4) -0.5980(4)
H1 H -0.0704 1.3029 -0.6470
C64 C -0.2762(7) 1.3211(5) -0.5968(5)
H2 H -0.2936 1.2807 -0.6436
C65 C -0.3885(6) 1.3699(4) -0.5233(4)
H3 H -0.4807 1.3623 -0.5216
C66 C -0.3610(5) 1.4285(4) -0.4544(4)
H4 H -0.4347 1.4610 -0.4062
C67 C -0.2221(5) 1.4392(4) -0.4566(3)
H5 H -0.2042 1.4780 -0.4090
C68 C -0.1117(7) 1.3934(5) -0.5279(5)
C69 C 0.0343(5) 1.4044(4) -0.5377(3)
C70 C 0.0859(7) 1.4417(5) -0.4572(5)
C71 C 0.0233(5) 1.4134(4) -0.3596(3)
H6 H -0.0523 1.3700 -0.3420
C72 C 0.0736(5) 1.4502(4) -0.2881(3)
H7 H 0.0302 1.4330 -0.2226
C73 C 0.1868(6) 1.5115(4) -0.3141(4)
H8 H 0.2210 1.5358 -0.2664
C74 C 0.2515(6) 1.5377(5) -0.4131(4)
H9 H 0.3295 1.5783 -0.4316
C75 C 0.1979(5) 1.5025(4) -0.4826(4)
H10 H 0.2395 1.5209 -0.5483
C33 C 0.3445(6) 0.7954(5) 0.4350(5)
C34 C 0.4404(6) 0.7982(5) 0.4875(4)
C35 C 0.5728(6) 0.7353(5) 0.4594(4)
C36 C 0.5991(6) 0.6696(6) 0.3795(5)
C37 C 0.4949(7) 0.6694(5) 0.3329(5)
C38 C 0.6825(6) 0.7396(5) 0.5109(4)
C39 C 0.6485(6) 0.7306(5) 0.6123(4)
C40 C 0.7552(6) 0.7361(5) 0.6578(5)
C41 C 0.9180(6) 0.7533(5) 0.5121(4)
C42 C 0.8212(6) 0.7503(5) 0.4612(4)
N1 N 0.3694(5) 0.7316(4) 0.3579(4)
N2 N 0.8854(5) 0.7489(4) 0.6113(4)
H18 H 0.729(4) 0.748(3) 0.735(3)
H20 H 1.021(5) 0.774(4) 0.491(3)
H26 H 0.853(5) 0.758(4) 0.385(4)
H34 H 0.502(4) 0.609(4) 0.291(3)
H40 H 0.681(5) 0.641(4) 0.358(4)
H45 H 0.257(4) 0.848(3) 0.441(3)
H53 H 0.556(4) 0.729(3) 0.649(3)
H56 H 0.413(4) 0.853(3) 0.547(3)
C43 C -0.3426(6) 1.0643(5) 0.5896(5)
C44 C -0.4390(6) 1.0643(5) 0.5369(4)
C45 C -0.5772(6) 1.1158(5) 0.5704(4)
C46 C -0.6063(6) 1.1709(5) 0.6535(4)
C47 C -0.5045(6) 1.1705(6) 0.7032(5)
C48 C -0.6842(6) 1.1122(5) 0.5177(4)
C49 C -0.6554(6) 1.1238(6) 0.4183(5)
C50 C -0.7548(6) 1.1157(5) 0.3711(4)
C51 C -0.9155(6) 1.0819(5) 0.5149(5)
C52 C -0.8206(6) 1.0932(6) 0.5690(5)
N3 N -0.3695(5) 1.1166(4) 0.6701(4)
N4 N -0.8870(5) 1.0932(4) 0.4198(4)
H17 H -0.835(5) 1.079(4) 0.637(4)
H21 H -1.014(5) 1.081(4) 0.556(3)
H27 H -0.737(4) 1.141(3) 0.304(3)
H28 H -0.543(4) 1.207(3) 0.768(3)
H29 H -0.571(5) 1.145(3) 0.376(3)
H43 H -0.224(4) 1.028(3) 0.555(3)
H44 H -0.687(5) 1.214(4) 0.674(4)
H51 H -0.407(4) 1.036(3) 0.476(3)
C53 C 0.5403(7) -0.3531(6) 0.0291(5)
C54 C 0.4745(6) -0.2416(5) 0.0459(5)
C55 C 0.5419(6) -0.1430(5) 0.0080(4)
C56 C 0.6821(7) -0.1676(5) -0.0467(5)
C57 C 0.7396(8) -0.2798(6) -0.0589(5)
C58 C 0.4721(6) -0.0211(5) 0.0226(4)
C59 C 0.3371(7) -0.0007(5) 0.0779(4)
C60 C 0.2728(7) 0.1159(5) 0.0955(5)
C61 C 0.4733(7) 0.1870(5) -0.0013(5)
C62 C 0.5402(6) 0.0749(5) -0.0183(4)
N5 N 0.6725(5) -0.3750(4) -0.0225(4)
N6 N 0.3416(5) 0.2088(4) 0.0559(4)
H30 H 0.856(4) -0.288(3) -0.082(3)
H46 H 0.163(4) 0.138(3) 0.155(3)
H52 H 0.396(4) -0.237(4) 0.072(3)
H55 H 0.479(4) -0.413(4) 0.047(3)
H57 H 0.311(4) -0.058(4) 0.116(3)
H58 H 0.635(4) 0.063(4) -0.068(3)
H62 H 0.506(4) 0.262(4) -0.045(3)
H64 H 0.756(4) -0.101(3) -0.072(3)
loop_
_geom_bond_atom_site_label_1
_geom_bond_atom_site_label_2
_geom_bond_site_symmetry_1
_geom_bond_site_symmetry_2
O1 C1 1_555 1_555
O2 C3 1_555 1_555
O3 C10 1_555 1_555
O4 C12 1_555 1_555
O5 C18 1_555 1_555
O6 C20 1_555 1_555
O7 C26 1_555 1_555
O8 C28 1_555 1_555
O9 H65 1_555 1_555
O10 H67 1_555 1_555
O11 C69 1_555 1_555
C1 C2 1_555 1_555
C2 C3 1_555 1_555
C3 C4 1_555 1_555
C4 C5 1_555 1_555
C5 C6 1_555 1_555
C6 C1 1_555 1_555
C7 C4 1_555 1_555
C8 C7 1_555 1_555
C9 C7 1_555 1_555
C10 C9 1_555 1_555
C11 C10 1_555 1_555
C12 C11 1_555 1_555
C13 C12 1_555 1_555
C14 C9 1_555 1_555
C15 C13 1_555 1_555
C16 C15 1_555 1_555
C17 C15 1_555 1_555
C18 C17 1_555 1_555
C19 C18 1_555 1_555
C20 C19 1_555 1_555
C21 C20 1_555 1_555
C22 C17 1_555 1_555
C23 C21 1_555 1_555
C24 C23 1_555 1_555
C25 C23 1_555 1_555
C26 C25 1_555 1_555
C27 C26 1_555 1_555
C28 C27 1_555 1_555
C29 C28 1_555 1_555
C30 C25 1_555 1_555
C31 C6 1_555 1_555
C32 C31 1_555 1_555
C33 C34 1_555 1_555
C34 C35 1_555 1_555
C35 C36 1_555 1_555
C36 C37 1_555 1_555
C37 N1 1_555 1_555
C38 C35 1_555 1_555
C39 C38 1_555 1_555
C40 C39 1_555 1_555
C41 C42 1_555 1_555
C42 C38 1_555 1_555
C43 C44 1_555 1_555
C44 C45 1_555 1_555
C45 C46 1_555 1_555
C46 C47 1_555 1_555
C47 N3 1_555 1_555
C48 C45 1_555 1_555
C49 C48 1_555 1_555
C50 C49 1_555 1_555
C51 C52 1_555 1_555
C52 C48 1_555 1_555
C53 C54 1_555 1_555
C54 C55 1_555 1_555
C55 C56 1_555 1_555
C56 C57 1_555 1_555
C57 N5 1_555 1_555
C58 C55 1_555 1_555
C59 C58 1_555 1_555
C60 C59 1_555 1_555
C61 C62 1_555 1_555
C62 C58 1_555 1_555
C63 H1 1_555 1_555
C64 C63 1_555 1_555
H2 C64 1_555 1_555
C65 C64 1_555 1_555
H3 C65 1_555 1_555
C66 C65 1_555 1_555
H4 C66 1_555 1_555
C67 C66 1_555 1_555
H5 C67 1_555 1_555
C68 C63 1_555 1_555
C69 C68 1_555 1_555
C70 C69 1_555 1_555
C71 C70 1_555 1_555
H6 C71 1_555 1_555
C72 C71 1_555 1_555
H7 C72 1_555 1_555
C73 C72 1_555 1_555
H8 C73 1_555 1_555
C74 C73 1_555 1_555
H9 C74 1_555 1_555
C75 C70 1_555 1_555
H10 C75 1_555 1_555
N1 C33 1_555 1_555
N2 C40 1_555 1_555
N3 C43 1_555 1_555
N4 C50 1_555 1_555
N5 C53 1_555 1_555
N6 C60 1_555 1_555
H11 C30 1_555 1_555
H12 C14 1_555 1_555
H13 C5 1_555 1_555
H14 C19 1_555 1_555
H15 C22 1_555 1_555
H16 C11 1_555 1_555
H17 C52 1_555 1_555
H18 C40 1_555 1_555
H19 C23 1_555 1_555
H20 C41 1_555 1_555
H21 C51 1_555 1_555
H22 C8 1_555 1_555
H23 C15 1_555 1_555
H24 C2 1_555 1_555
H25 C7 1_555 1_555
H26 C42 1_555 1_555
H27 C50 1_555 1_555
H28 C47 1_555 1_555
H29 C49 1_555 1_555
H30 C57 1_555 1_555
H31 O8 1_555 1_555
H32 C24 1_555 1_555
H33 C31 1_555 1_555
H34 C37 1_555 1_555
H35 C24 1_555 1_555
H36 C32 1_555 1_555
H37 O4 1_555 1_555
H38 O2 1_555 1_555
H39 C8 1_555 1_555
H40 C36 1_555 1_555
H41 C27 1_555 1_555
H42 O3 1_555 1_555
H43 C43 1_555 1_555
H44 C46 1_555 1_555
H45 C33 1_555 1_555
H46 C60 1_555 1_555
H47 C16 1_555 1_555
H48 C8 1_555 1_555
H49 C32 1_555 1_555
H50 O1 1_555 1_555
H51 C44 1_555 1_555
H52 C54 1_555 1_555
H53 C39 1_555 1_555
H54 O6 1_555 1_555
H55 C53 1_555 1_555
H56 C34 1_555 1_555
H57 C59 1_555 1_555
H58 C62 1_555 1_555
H59 C24 1_555 1_555
H60 O5 1_555 1_555
H61 C16 1_555 1_555
H62 C61 1_555 1_555
H63 C32 1_555 1_555
H64 C56 1_555 1_555
H66 O9 1_555 1_555
H68 O10 1_555 1_555
H69 O7 1_555 1_555
H70 C16 1_555 1_555
C13 C14 1_555 1_555
C21 C22 1_555 1_555
C29 C31 1_555 1_555
C29 C30 1_555 1_555
C41 N2 1_555 1_555
C51 N4 1_555 1_555
C61 N6 1_555 1_555
C67 C68 1_555 1_555
C74 C75 1_555 1_555

#END
