
#######################################################################
#
#                 Cambridge Crystallographic Data Centre
#                                CCDC 
#
#######################################################################
#
# If this CIF has been generated from an entry in the Cambridge 
# Structural Database, then it will include bibliographic, chemical, 
# crystal, experimental, refinement or atomic coordinate data resulting 
# from the CCDC's data processing and validation procedures.
#
#######################################################################

data_QOQGAE
_chemical_formula_moiety         'C34 H49 N1 O5 Si1'
_chemical_name_systematic        
6-(Benzyloxy)-2-(t-butoxycarbonyl)-8-isopropyl-8-methyl-3-(t-butyldimethylsilyloxymethyl)-1,3,3a,8a-tetrahydropyrrolo(3,4-a)indane
_symmetry_cell_setting           triclinic
_symmetry_space_group_name_H-M   'P -1'
_symmetry_Int_Tables_number      2
_space_group_name_Hall           '-P 1'
loop_
_symmetry_equiv_pos_site_id
_symmetry_equiv_pos_as_xyz
1 x,y,z
2 -x,-y,-z
_cell_length_a                   7.5370(6)
_cell_length_b                   11.4872(6)
_cell_length_c                   21.4309(13)
_cell_angle_alpha                101.020(6)
_cell_angle_beta                 96.554(8)
_cell_angle_gamma                106.022(7)
_cell_volume                     1722.9
_cell_formula_units_Z            2
loop_
_atom_site_label
_atom_site_type_symbol
_atom_site_fract_x
_atom_site_fract_y
_atom_site_fract_z
O1 O 0.7718(4) 0.6211(2) 0.05983(10)
O2 O 0.6051(3) 0.0513(2) 0.20126(12)
N1 N 0.5033(4) 0.2170(2) 0.23203(12)
C1 C 0.6740(5) 0.2941(3) 0.26866(16)
O3 O 0.8127(4) 0.2648(2) 0.27846(16)
C2 C 0.7178(5) 0.5323(3) 0.21427(14)
C3 C 0.4219(5) 0.4593(3) 0.14128(15)
H1 H 0.2938 0.4180 0.1325
C4 C 0.5273(5) 0.4684(3) 0.20022(14)
O4 O 0.2987(4) 0.0333(2) 0.17267(14)
C5 C 0.6991(5) 0.5740(3) 0.10892(15)
C6 C 0.4627(5) 0.4134(3) 0.25589(15)
H2 H 0.3949 0.4618 0.2807
C7 C 0.4564(5) 0.0909(3) 0.19887(17)
O5 O 0.3337(4) 0.2593(2) 0.34515(12)
C8 C 0.6507(5) 0.4225(3) 0.29516(14)
H3 H 0.6423 0.4333 0.3411
C9 C 0.8046(5) 0.5868(3) 0.16874(14)
H4 H 0.9316 0.6312 0.1781
C10 C 0.3519(4) 0.2740(3) 0.23531(16)
H5 H 0.2763 0.2554 0.1922
C11 C 1.0123(5) 0.7212(3) 0.00818(15)
C12 C 0.9783(6) 0.8429(3) -0.06920(18)
H6 H 0.9274 0.9004 -0.0833
C13 C 0.5899(6) -0.0798(3) 0.1713(2)
C14 C 0.5083(5) 0.5120(3) 0.09567(16)
H7 H 0.4383 0.5059 0.0559
C15 C 0.7975(5) 0.5379(3) 0.28428(14)
C16 C 1.0035(5) 0.5379(3) 0.29853(17)
H8 H 1.0171 0.4690 0.2665
C17 C 0.9381(6) 0.8065(3) -0.01269(17)
H9 H 0.8606 0.8402 0.0110
C18 C 1.1675(7) 0.7103(4) -0.08330(19)
H10 H 1.2455 0.6773 -0.1070
C19 C 1.1281(6) 0.6738(3) -0.02700(18)
H11 H 1.1805 0.6169 -0.0130
C20 C 0.7714(6) 0.6550(3) 0.32768(17)
H12 H 0.6433 0.6540 0.3183
H13 H 0.8521 0.7288 0.3192
H14 H 0.8027 0.6544 0.3723
C21 C 0.9693(5) 0.6826(3) 0.06962(16)
H15 H 1.0387 0.6268 0.0794
H16 H 1.0047 0.7552 0.1054
C22 C 0.2281(5) 0.2292(4) 0.28167(18)
H17 H 0.1285 0.2676 0.2819
H18 H 0.1710 0.1397 0.2676
C23 C 0.7897(7) -0.0798(4) 0.1876(3)
H19 H 0.8689 -0.0226 0.1676
H20 H 0.7975 -0.1620 0.1720
H21 H 0.8301 -0.0547 0.2336
C24 C 1.0926(6) 0.7939(3) -0.10374(18)
H22 H 1.1193 0.8181 -0.1415
C25 C 1.0559(6) 0.5155(4) 0.36551(17)
H23 H 1.1841 0.5154 0.3719
H24 H 0.9756 0.4365 0.3685
H25 H 1.0410 0.5805 0.3980
C26 C 0.5275(8) -0.1041(4) 0.0988(2)
H26 H 0.6161 -0.0468 0.0816
H27 H 0.4062 -0.0929 0.0901
H28 H 0.5207 -0.1878 0.0789
C27 C 0.4574(8) -0.1676(4) 0.2018(3)
H29 H 0.3322 -0.1643 0.1905
H30 H 0.4951 -0.1434 0.2479
H31 H 0.4608 -0.2510 0.1864
C28 C 1.1496(7) 0.6571(5) 0.2937(3)
H32 H 1.2729 0.6493 0.3029
H33 H 1.1396 0.7267 0.3244
H34 H 1.1280 0.6700 0.2509
Si1 Si 0.2584(9) 0.1661(4) 0.39254(18)
C29 C 0.003(2) 0.115(3) 0.3919(10)
H35 H -0.0370 0.1868 0.4064
H36 H -0.0245 0.0599 0.4203
H37 H -0.0617 0.0731 0.3489
C30 C 0.342(7) 0.014(3) 0.3683(13)
H38 H 0.4750 0.0397 0.3684
H39 H 0.2773 -0.0327 0.3260
H40 H 0.3150 -0.0361 0.3989
C31 C 0.4197(18) 0.2395(9) 0.4678(3)
C32 C 0.396(2) 0.1645(12) 0.5194(5)
H41 H 0.4886 0.2087 0.5574
H42 H 0.4128 0.0849 0.5035
H43 H 0.2732 0.1528 0.5299
C33 C 0.372(4) 0.3591(12) 0.4909(6)
H44 H 0.4555 0.4072 0.5302
H45 H 0.2449 0.3389 0.4987
H46 H 0.3838 0.4066 0.4584
C34 C 0.614(2) 0.269(2) 0.4504(9)
H47 H 0.7061 0.3108 0.4887
H48 H 0.6228 0.3226 0.4206
H49 H 0.6365 0.1935 0.4307
Si2? Si 0.3687(12) 0.1801(5) 0.3995(2)
C35? C 0.401(4) 0.035(2) 0.3539(11)
H50? H 0.2942 -0.0078 0.3204
H51? H 0.4142 -0.0178 0.3828
H52? H 0.5120 0.0554 0.3350
C36? C 0.605(3) 0.277(3) 0.4710(11)
H53? H 0.7144 0.2949 0.4514
H54? H 0.6187 0.2263 0.5011
H55? H 0.5892 0.3530 0.4934
C37? C 0.1709(15) 0.1505(10) 0.4434(4)
C38? C 0.017(3) 0.0676(16) 0.3879(8)
H56? H -0.0989 0.0436 0.4035
H57? H 0.0498 -0.0055 0.3702
H58? H 0.0037 0.1122 0.3550
C39? C 0.141(2) 0.2751(12) 0.4699(7)
H59? H 0.0354 0.2621 0.4915
H60? H 0.1189 0.3135 0.4350
H61? H 0.2514 0.3283 0.4998
C40? C 0.212(3) 0.0886(16) 0.4977(7)
H62? H 0.1063 0.0708 0.5191
H63? H 0.3202 0.1435 0.5281
H64? H 0.2371 0.0125 0.4801
loop_
_geom_bond_atom_site_label_1
_geom_bond_atom_site_label_2
_geom_bond_site_symmetry_1
_geom_bond_site_symmetry_2
O1 C5 1_555 1_555
O2 C7 1_555 1_555
N1 C1 1_555 1_555
C1 O3 1_555 1_555
C2 C4 1_555 1_555
C3 H1 1_555 1_555
C4 C3 1_555 1_555
O4 C7 1_555 1_555
C5 C9 1_555 1_555
C6 C4 1_555 1_555
H2 C6 1_555 1_555
C7 N1 1_555 1_555
O5 C22 1_555 1_555
C8 C1 1_555 1_555
H3 C8 1_555 1_555
C9 C2 1_555 1_555
H4 C9 1_555 1_555
C10 N1 1_555 1_555
H5 C10 1_555 1_555
C11 C17 1_555 1_555
C12 H6 1_555 1_555
C13 O2 1_555 1_555
C14 C3 1_555 1_555
H7 C14 1_555 1_555
C15 C2 1_555 1_555
C16 C15 1_555 1_555
H8 C16 1_555 1_555
C17 C12 1_555 1_555
H9 C17 1_555 1_555
C18 H10 1_555 1_555
C19 C11 1_555 1_555
H11 C19 1_555 1_555
C20 C15 1_555 1_555
H12 C20 1_555 1_555
H13 C20 1_555 1_555
H14 C20 1_555 1_555
C21 O1 1_555 1_555
H15 C21 1_555 1_555
H16 C21 1_555 1_555
C22 C10 1_555 1_555
H17 C22 1_555 1_555
H18 C22 1_555 1_555
C23 C13 1_555 1_555
H19 C23 1_555 1_555
H20 C23 1_555 1_555
H21 C23 1_555 1_555
C24 C12 1_555 1_555
H22 C24 1_555 1_555
C25 C16 1_555 1_555
H23 C25 1_555 1_555
H24 C25 1_555 1_555
H25 C25 1_555 1_555
C26 C13 1_555 1_555
H26 C26 1_555 1_555
H27 C26 1_555 1_555
H28 C26 1_555 1_555
C27 C13 1_555 1_555
H29 C27 1_555 1_555
H30 C27 1_555 1_555
H31 C27 1_555 1_555
C28 C16 1_555 1_555
H32 C28 1_555 1_555
H33 C28 1_555 1_555
H34 C28 1_555 1_555
Si1 O5 1_555 1_555
C29 Si1 1_555 1_555
H35 C29 1_555 1_555
H36 C29 1_555 1_555
H37 C29 1_555 1_555
C30 Si1 1_555 1_555
H38 C30 1_555 1_555
H39 C30 1_555 1_555
H40 C30 1_555 1_555
C31 Si1 1_555 1_555
C32 C31 1_555 1_555
H41 C32 1_555 1_555
H42 C32 1_555 1_555
H43 C32 1_555 1_555
C33 C31 1_555 1_555
H44 C33 1_555 1_555
H45 C33 1_555 1_555
H46 C33 1_555 1_555
C34 C31 1_555 1_555
H47 C34 1_555 1_555
H48 C34 1_555 1_555
H49 C34 1_555 1_555
C5 C14 1_555 1_555
C6 C8 1_555 1_555
C6 C10 1_555 1_555
C8 C15 1_555 1_555
C11 C21 1_555 1_555
C18 C24 1_555 1_555
C18 C19 1_555 1_555

#END
