
#######################################################################
#
#                 Cambridge Crystallographic Data Centre
#                                CCDC 
#
#######################################################################
#
# If this CIF has been generated from an entry in the Cambridge 
# Structural Database, then it will include bibliographic, chemical, 
# crystal, experimental, refinement or atomic coordinate data resulting 
# from the CCDC's data processing and validation procedures.
#
#######################################################################

data_QOQJUD
_chemical_formula_moiety         
'C13 H16 N2 2+,C9 H9 O5 1-,0.5(C9 H8 O5 2-),2(H2 O1)'
_chemical_name_systematic        
"4,4'-methylenedianilinium hemikis(3,5-dimethoxy-4-oxidobenzoate) 4-hydroxy-3,5-dimethoxybenzoate dihydrate"
_symmetry_cell_setting           orthorhombic
_symmetry_space_group_name_H-M   'P b c n'
_symmetry_Int_Tables_number      60
_space_group_name_Hall           '-P 2n 2ab'
loop_
_symmetry_equiv_pos_site_id
_symmetry_equiv_pos_as_xyz
1 x,y,z
2 1/2-x,1/2-y,1/2+z
3 -x,y,1/2-z
4 1/2+x,1/2-y,-z
5 -x,-y,-z
6 1/2+x,1/2+y,1/2-z
7 x,-y,1/2+z
8 1/2-x,1/2+y,z
_cell_length_a                   18.8208(17)
_cell_length_b                   10.1917(9)
_cell_length_c                   27.211(2)
_cell_angle_alpha                90
_cell_angle_beta                 90
_cell_angle_gamma                90
_cell_volume                     5219.5
_exptl_crystal_colour            colorless
_exptl_crystal_description       block
_cell_formula_units_Z            8
loop_
_atom_site_label
_atom_site_type_symbol
_atom_site_fract_x
_atom_site_fract_y
_atom_site_fract_z
O4 O 0.07431(7) 0.42249(14) 0.47796(5)
O5 O 0.36334(7) 0.62775(14) 0.42017(5)
O6 O 0.41175(6) 0.45651(14) 0.48238(5)
H5 H 0.4217 0.4000 0.5027
O7 O 0.32590(7) 0.29426(14) 0.53359(5)
O8 O 0.09548(7) 0.54658(16) 0.41249(6)
C7 C 0.24051(9) 0.55863(18) 0.43394(6)
H6 H 0.2228 0.6184 0.4112
C8 C 0.29321(9) 0.37848(18) 0.50163(6)
C9 C 0.34004(9) 0.46049(18) 0.47605(6)
C10 C 0.11589(9) 0.48257(18) 0.44952(7)
C11 C 0.19443(9) 0.47644(17) 0.45954(6)
C12 C 0.31284(9) 0.55076(17) 0.44255(6)
C13 C 0.22083(9) 0.38674(18) 0.49360(6)
H7 H 0.1899 0.3326 0.5109
C14 C 0.28114(11) 0.2103(2) 0.56163(8)
H8 H 0.3098 0.1554 0.5824
H9 H 0.2536 0.1564 0.5399
H10 H 0.2499 0.2623 0.5816
C15 C 0.34199(11) 0.7083(2) 0.38054(7)
H11 H 0.3823 0.7558 0.3683
H12 H 0.3065 0.7691 0.3916
H13 H 0.3227 0.6546 0.3548
N1 N -0.41081(8) 0.99256(14) 0.19615(5)
H14 H -0.4050 1.0471 0.1709
H15 H -0.4469 1.0199 0.2146
H16 H -0.4200 0.9123 0.1850
N2 N -0.04705(8) 0.56955(17) 0.42163(6)
H17 H -0.0314 0.5934 0.4512
H18 H -0.0108 0.5402 0.4037
H19 H -0.0793 0.5063 0.4249
C16 C -0.13856(9) 0.8968(2) 0.34861(7)
C17 C -0.28440(11) 0.9170(2) 0.29702(7)
H20 H -0.2830 0.8639 0.3248
C18 C -0.07927(9) 0.6824(2) 0.39721(6)
C19 C -0.22749(10) 0.99918(19) 0.28709(7)
C20 C -0.34686(9) 0.99001(17) 0.22523(6)
C21 C -0.10745(11) 0.6674(2) 0.35081(7)
H21 H -0.1069 0.5856 0.3357
C22 C -0.11002(11) 0.9095(2) 0.39562(7)
H22 H -0.1110 0.9908 0.4111
C23 C -0.34339(10) 0.91189(19) 0.26653(7)
H23 H -0.3807 0.8556 0.2740
C24 C -0.23138(11) 1.0750(2) 0.24463(7)
H24 H -0.1934 1.1291 0.2365
C25 C -0.13655(11) 0.7741(2) 0.32680(7)
H25 H -0.1552 0.7633 0.2954
C26 C -0.08026(11) 0.8035(2) 0.41968(7)
H26 H -0.0610 0.8139 0.4509
C27 C -0.29039(11) 1.0718(2) 0.21420(7)
H27 H -0.2920 1.1247 0.1864
C28 C -0.16594(11) 1.0172(2) 0.32220(8)
H28 H -0.1801 1.0809 0.3468
H29 H -0.1267 1.0552 0.3040
O9 O -0.06678(9) 0.31772(18) 0.37497(7)
H30 H -0.0463(16) 0.295(3) 0.3496(12)
H31 H -0.0528(16) 0.256(3) 0.3988(12)
O10 O -0.00437(7) 0.19511(16) 0.45787(6)
H32 H 0.0186(14) 0.2700(18) 0.4667(10)
H33 H 0.0318(12) 0.139(2) 0.4520(10)
O1 O 0.0000 0.65290(16) 0.2500
O2 O 0.06628(8) 0.77794(13) 0.32203(5)
O3 O 0.01194(10) 1.26300(13) 0.29015(6)
C1 C 0.0000 0.7863(2) 0.2500
C2 C 0.0000 1.0587(2) 0.2500
C3 C 0.03407(10) 0.85507(17) 0.28745(7)
C4 C 0.03280(10) 0.99128(18) 0.28814(7)
H1 H 0.0538 1.0370 0.3139
C5 C 0.0000 1.2052(2) 0.2500
C6 C 0.10261(15) 0.8425(2) 0.36078(9)
H2 H 0.1223 0.7784 0.3828
H3 H 0.0700 0.8975 0.3784
H4 H 0.1402 0.8953 0.3474
O2B O -0.06628(8) 0.77794(13) 0.17797(5)
O3B O -0.01194(10) 1.26300(13) 0.20985(6)
C3B C -0.03407(10) 0.85507(17) 0.21255(7)
C4B C -0.03280(10) 0.99128(18) 0.21186(7)
H1B H -0.0538 1.0370 0.1861
C6B C -0.10261(15) 0.8425(2) 0.13922(9)
H2B H -0.1223 0.7784 0.1172
H3B H -0.0700 0.8975 0.1216
H4B H -0.1402 0.8953 0.1526
loop_
_geom_bond_atom_site_label_1
_geom_bond_atom_site_label_2
_geom_bond_site_symmetry_1
_geom_bond_site_symmetry_2
O1 C1 1_555 1_555
O2 C3 1_555 1_555
O3 C5 1_555 1_555
C1 C3 1_555 1_555
C2 C4 1_555 1_555
C3 C4 1_555 1_555
C4 H1 1_555 1_555
C5 C2 1_555 1_555
C6 O2 1_555 1_555
H2 C6 1_555 1_555
H3 C6 1_555 1_555
H4 C6 1_555 1_555
O4 C10 1_555 1_555
O5 C12 1_555 1_555
O6 H5 1_555 1_555
O7 C8 1_555 1_555
O8 C10 1_555 1_555
C7 H6 1_555 1_555
C8 C9 1_555 1_555
C9 O6 1_555 1_555
C10 C11 1_555 1_555
C11 C7 1_555 1_555
C12 C7 1_555 1_555
C13 C8 1_555 1_555
H7 C13 1_555 1_555
C14 O7 1_555 1_555
H8 C14 1_555 1_555
H9 C14 1_555 1_555
H10 C14 1_555 1_555
C15 O5 1_555 1_555
H11 C15 1_555 1_555
H12 C15 1_555 1_555
H13 C15 1_555 1_555
N1 H14 1_555 1_555
H15 N1 1_555 1_555
H16 N1 1_555 1_555
N2 H17 1_555 1_555
H18 N2 1_555 1_555
H19 N2 1_555 1_555
C16 C22 1_555 1_555
C17 H20 1_555 1_555
C18 N2 1_555 1_555
C19 C17 1_555 1_555
C20 N1 1_555 1_555
C21 C18 1_555 1_555
H21 C21 1_555 1_555
C22 H22 1_555 1_555
C23 C17 1_555 1_555
H23 C23 1_555 1_555
C24 C19 1_555 1_555
H24 C24 1_555 1_555
C25 C16 1_555 1_555
H25 C25 1_555 1_555
C26 C18 1_555 1_555
H26 C26 1_555 1_555
C27 C20 1_555 1_555
H27 C27 1_555 1_555
C28 C16 1_555 1_555
H28 C28 1_555 1_555
H29 C28 1_555 1_555
O9 H30 1_555 1_555
H31 O9 1_555 1_555
O10 H32 1_555 1_555
H33 O10 1_555 1_555
O2B C3B 1_555 1_555
O3B C5 1_555 1_555
C3B C1 1_555 1_555
C4B C2 1_555 1_555
H1B C4B 1_555 1_555
C6B O2B 1_555 1_555
H2B C6B 1_555 1_555
H3B C6B 1_555 1_555
H4B C6B 1_555 1_555
C9 C12 1_555 1_555
C11 C13 1_555 1_555
C19 C28 1_555 1_555
C20 C23 1_555 1_555
C21 C25 1_555 1_555
C22 C26 1_555 1_555
C24 C27 1_555 1_555
C3B C4B 1_555 1_555

#END
