
#######################################################################
#
#                 Cambridge Crystallographic Data Centre
#                                CCDC 
#
#######################################################################
#
# If this CIF has been generated from an entry in the Cambridge 
# Structural Database, then it will include bibliographic, chemical, 
# crystal, experimental, refinement or atomic coordinate data resulting 
# from the CCDC's data processing and validation procedures.
#
#######################################################################

data_QOQJIQ
_chemical_formula_moiety         'C25 H23 N1 O1'
_chemical_name_systematic        
1-((S*)-Phenyl-(((1'S*)-1'-phenylethyl)amino)methyl)-2-naphthol
_symmetry_cell_setting           monoclinic
_symmetry_space_group_name_H-M   'P 21/n'
_symmetry_Int_Tables_number      14
_space_group_name_Hall           '-P 2yn'
loop_
_symmetry_equiv_pos_site_id
_symmetry_equiv_pos_as_xyz
1 x,y,z
2 1/2-x,1/2+y,1/2-z
3 -x,-y,-z
4 1/2+x,1/2-y,1/2+z
_cell_length_a                   14.494(3)
_cell_length_b                   17.802(3)
_cell_length_c                   16.530(3)
_cell_angle_alpha                90
_cell_angle_beta                 113.136(4)
_cell_angle_gamma                90
_cell_volume                     3922.08
_exptl_crystal_description       prism
_chemical_melting_point          '147-148 deg.C'
_cell_formula_units_Z            8
_exptl_crystal_recrystallization_method methanol/acetone
loop_
_atom_site_label
_atom_site_type_symbol
_atom_site_fract_x
_atom_site_fract_y
_atom_site_fract_z
O1 O 0.7419(1) 0.2056(1) 0.3651(1)
N1 N 0.9030(1) 0.2213(1) 0.5008(1)
C1 C 1.0978(1) 0.1702(1) 0.6498(1)
C2 C 1.1678(2) 0.1422(1) 0.7274(2)
C3 C 1.1691(2) 0.0673(2) 0.7481(2)
C4 C 1.0984(2) 0.0209(1) 0.6911(2)
C5 C 1.0278(2) 0.0485(1) 0.6135(1)
C6 C 1.0265(1) 0.1235(1) 0.5911(1)
C7 C 0.9544(1) 0.1504(1) 0.5019(1)
C8 C 1.0066(2) 0.1592(1) 0.4384(1)
C9 C 0.8426(1) 0.2243(1) 0.5552(1)
C10 C 0.8294(1) 0.3068(1) 0.5734(1)
C11 C 0.8748(2) 0.3359(1) 0.6553(2)
C12 C 0.8676(2) 0.4122(1) 0.6713(2)
C13 C 0.8148(2) 0.4589(1) 0.6047(2)
C14 C 0.7677(2) 0.4303(1) 0.5222(2)
C15 C 0.7748(2) 0.3548(1) 0.5069(1)
C16 C 0.7431(1) 0.1840(1) 0.5093(1)
C17 C 0.6992(1) 0.1772(1) 0.4186(1)
C18 C 0.6063(2) 0.1405(1) 0.3769(1)
C19 C 0.5560(2) 0.1123(1) 0.4234(2)
C20 C 0.5960(1) 0.1181(1) 0.5155(1)
C21 C 0.5447(2) 0.0876(1) 0.5651(2)
C22 C 0.5849(2) 0.0904(1) 0.6538(2)
C23 C 0.6775(2) 0.1241(1) 0.6973(1)
C24 C 0.7289(2) 0.1555(1) 0.6517(1)
C25 C 0.6914(1) 0.1533(1) 0.5594(1)
H1 H 0.9446(14) 0.2573(10) 0.5163(12)
H2 H 1.1007(14) 0.2229(11) 0.6389(12)
H3 H 1.2135(15) 0.1733(11) 0.7640(13)
H4 H 1.2207(17) 0.0466(13) 0.8075(14)
H5 H 1.0869(19) -0.0313(15) 0.7143(16)
H6 H 0.9801(12) 0.0190(9) 0.5760(10)
H7 H 0.8984(11) 0.1156(8) 0.4771(10)
H8 H 1.0557(13) 0.2000(10) 0.4625(11)
H9 H 0.9573(14) 0.1778(10) 0.3746(12)
H10 H 1.0399(14) 0.1163(11) 0.4319(12)
H11 H 0.8783(10) 0.1989(8) 0.6142(9)
H12 H 0.9113 0.3044 0.7018
H13 H 0.8889(18) 0.4314(13) 0.7294(15)
H14 H 0.8070(16) 0.5146(13) 0.6199(13)
H15 H 0.7306 0.4618 0.4760
H16 H 0.7415(12) 0.3362(9) 0.4468(11)
H17 H 0.5792 0.1357 0.3160
H18 H 0.4891(14) 0.0843(10) 0.3978(12)
H19 H 0.4805(15) 0.0642(11) 0.5310(12)
H20 H 0.5528(17) 0.0678(12) 0.6930(13)
H21 H 0.7051 0.1255 0.7585
H22 H 0.7929(12) 0.1779(9) 0.6873(10)
O2 O 1.3651(1) 0.3037(1) 0.7012(1)
N2 N 1.4284(1) 0.2749(1) 0.5781(1)
C26 C 1.4251(2) 0.4268(1) 0.4397(2)
C27 C 1.4193(2) 0.4430(1) 0.3562(2)
C28 C 1.4634(2) 0.3967(2) 0.3160(2)
C29 C 1.5093(2) 0.3338(2) 0.3576(2)
C30 C 1.5145(2) 0.3171(1) 0.4395(2)
C31 C 1.4730(1) 0.3635(1) 0.4830(1)
C32 C 1.4795(2) 0.3452(1) 0.5739(2)
C33 C 1.5872(2) 0.3396(2) 0.6409(2)
C34 C 1.3222(1) 0.2693(1) 0.5169(1)
C35 C 1.2946(1) 0.1872(1) 0.5003(2)
C36 C 1.2875(2) 0.1430(1) 0.5662(2)
C37 C 1.2652(2) 0.0672(1) 0.5521(2)
C38 C 1.2491(2) 0.0362(2) 0.4721(3)
C39 C 1.2563(2) 0.0786(2) 0.4065(2)
C40 C 1.2795(2) 0.1547(2) 0.4207(2)
C41 C 1.2537(1) 0.3134(1) 0.5491(1)
C42 C 1.2780(2) 0.3277(1) 0.6370(1)
C43 C 1.2135(2) 0.3678(1) 0.6678(2)
C44 C 1.1246(2) 0.3924(1) 0.6078(2)
C45 C 1.0928(2) 0.3788(1) 0.5165(2)
C46 C 0.9983(2) 0.4020(1) 0.4552(2)
C47 C 0.9687(2) 0.3865(2) 0.3682(2)
C48 C 1.0313(2) 0.3466(1) 0.3384(2)
C49 C 1.1239(2) 0.3238(1) 0.3958(1)
C50 C 1.1587(1) 0.3387(1) 0.4866(1)
H23 H 1.4585 0.2393 0.6139
H24 H 1.3961 0.4594 0.4669
H25 H 1.3851 0.4856 0.3271
H26 H 1.4618 0.4085 0.2606
H27 H 1.5379 0.3013 0.3299
H28 H 1.5467 0.2732 0.4668
H29 H 1.4438(13) 0.3867(10) 0.5931(11)
H30 H 1.5888(16) 0.3304(12) 0.6968(13)
H31 H 1.6275(15) 0.3865(12) 0.6400(13)
H32 H 1.6280(20) 0.2966(16) 0.6245(17)
H33 H 1.3152(10) 0.2914(8) 0.4614(9)
H34 H 1.2978 0.1642 0.6204
H35 H 1.2612 0.0376 0.5970
H36 H 1.2331 -0.0145 0.4625
H37 H 1.2457 0.0570 0.3524
H38 H 1.2866(14) 0.1870(10) 0.3699(12)
H39 H 1.0801(12) 0.4214(9) 0.6248(11)
H40 H 0.9519(15) 0.4317(11) 0.4779(12)
H41 H 0.9074(18) 0.4013(14) 0.3299(15)
H42 H 1.0160(17) 0.3344(13) 0.2755(15)
H43 H 1.1640(13) 0.2958(10) 0.3718(11)
loop_
_geom_bond_atom_site_label_1
_geom_bond_atom_site_label_2
_geom_bond_site_symmetry_1
_geom_bond_site_symmetry_2
O1 C17 1_555 1_555
N1 C7 1_555 1_555
C1 C2 1_555 1_555
C2 C3 1_555 1_555
C3 C4 1_555 1_555
C4 C5 1_555 1_555
C5 C6 1_555 1_555
C6 C1 1_555 1_555
C7 C6 1_555 1_555
C8 C7 1_555 1_555
C9 N1 1_555 1_555
C10 C9 1_555 1_555
C11 C10 1_555 1_555
C12 C11 1_555 1_555
C13 C12 1_555 1_555
C14 C13 1_555 1_555
C15 C10 1_555 1_555
C16 C9 1_555 1_555
C17 C16 1_555 1_555
C18 C17 1_555 1_555
C19 C18 1_555 1_555
C20 C19 1_555 1_555
C21 C20 1_555 1_555
C22 C21 1_555 1_555
C23 C22 1_555 1_555
C24 C23 1_555 1_555
C25 C16 1_555 1_555
O2 C42 1_555 1_555
N2 C32 1_555 1_555
C26 C27 1_555 1_555
C27 C28 1_555 1_555
C28 C29 1_555 1_555
C29 C30 1_555 1_555
C30 C31 1_555 1_555
C31 C26 1_555 1_555
C32 C31 1_555 1_555
C33 C32 1_555 1_555
C34 N2 1_555 1_555
C35 C34 1_555 1_555
C36 C35 1_555 1_555
C37 C36 1_555 1_555
C38 C37 1_555 1_555
C39 C38 1_555 1_555
C40 C35 1_555 1_555
C41 C34 1_555 1_555
C42 C41 1_555 1_555
C43 C42 1_555 1_555
C44 C43 1_555 1_555
C45 C44 1_555 1_555
C46 C45 1_555 1_555
C47 C46 1_555 1_555
C48 C47 1_555 1_555
C49 C48 1_555 1_555
C50 C41 1_555 1_555
H1 N1 1_555 1_555
H2 C1 1_555 1_555
H3 C2 1_555 1_555
H4 C3 1_555 1_555
H5 C4 1_555 1_555
H6 C5 1_555 1_555
H7 C7 1_555 1_555
H8 C8 1_555 1_555
H9 C8 1_555 1_555
H10 C8 1_555 1_555
H11 C9 1_555 1_555
H12 C11 1_555 1_555
H13 C12 1_555 1_555
H14 C13 1_555 1_555
H15 C14 1_555 1_555
H16 C15 1_555 1_555
H17 C18 1_555 1_555
H18 C19 1_555 1_555
H19 C21 1_555 1_555
H20 C22 1_555 1_555
H21 C23 1_555 1_555
H22 C24 1_555 1_555
H23 N2 1_555 1_555
H24 C26 1_555 1_555
H25 C27 1_555 1_555
H26 C28 1_555 1_555
H27 C29 1_555 1_555
H28 C30 1_555 1_555
H29 C32 1_555 1_555
H30 C33 1_555 1_555
H31 C33 1_555 1_555
H32 C33 1_555 1_555
H33 C34 1_555 1_555
H34 C36 1_555 1_555
H35 C37 1_555 1_555
H36 C38 1_555 1_555
H37 C39 1_555 1_555
H38 C40 1_555 1_555
H39 C44 1_555 1_555
H40 C46 1_555 1_555
H41 C47 1_555 1_555
H42 C48 1_555 1_555
H43 C49 1_555 1_555
C14 C15 1_555 1_555
C20 C25 1_555 1_555
C24 C25 1_555 1_555
C39 C40 1_555 1_555
C45 C50 1_555 1_555
C49 C50 1_555 1_555

#END
