
#######################################################################
#
#                 Cambridge Crystallographic Data Centre
#                                CCDC 
#
#######################################################################
#
# If this CIF has been generated from an entry in the Cambridge 
# Structural Database, then it will include bibliographic, chemical, 
# crystal, experimental, refinement or atomic coordinate data resulting 
# from the CCDC's data processing and validation procedures.
#
#######################################################################

data_QOQNUG
_chemical_formula_moiety         'C4 H12 N1 1+,C32 H30 N5 O4 1-,H2 O1'
_chemical_name_systematic        
'tetramethylammonium 2-(((2-hydroxy-5-(p-tolyldiazenyl)phenyl)(5-(p-tolyldiazenyl)-2-oxidophenyl)methylidene)ammonio)-3-methylbutanoate monohydrate'
_symmetry_cell_setting           orthorhombic
_symmetry_space_group_name_H-M   'P 21 21 21'
_symmetry_Int_Tables_number      19
_space_group_name_Hall           'P 2ac 2ab'
loop_
_symmetry_equiv_pos_site_id
_symmetry_equiv_pos_as_xyz
1 x,y,z
2 1/2-x,-y,1/2+z
3 1/2+x,1/2-y,-z
4 -x,1/2+y,1/2-z
_cell_length_a                   9.1543(3)
_cell_length_b                   10.6637(5)
_cell_length_c                   39.7562(17)
_cell_angle_alpha                90
_cell_angle_beta                 90
_cell_angle_gamma                90
_cell_volume                     3880.95
_exptl_crystal_colour            red
_exptl_crystal_description       plate
_cell_formula_units_Z            4
loop_
_atom_site_label
_atom_site_type_symbol
_atom_site_fract_x
_atom_site_fract_y
_atom_site_fract_z
O1 O 0.3138(3) 1.0748(2) 0.98188(6)
O2 O 0.3283(4) 1.2842(2) 0.97836(6)
O3 O 0.7095(3) 1.1583(2) 0.96686(6)
H1 H 0.7751 1.1663 0.9815
O4 O 0.4496(4) 0.8108(2) 0.93318(7)
N1 N 0.4712(4) 1.0480(3) 0.92459(8)
H2 H 0.431(5) 0.982(4) 0.9305(10)
N2 N 0.8925(5) 1.3359(3) 0.84297(9)
N3 N 0.8266(6) 1.2960(4) 0.81789(10)
N4 N 1.0019(4) 0.7674(3) 0.87688(8)
N5 N 1.0520(5) 0.6583(3) 0.87252(9)
C1 C 0.6039(5) 1.0327(3) 0.91398(8)
C2 C 0.3976(5) 1.1674(3) 0.93081(9)
H3 H 0.4691 1.2369 0.9271
C3 C 0.3439(5) 1.1739(4) 0.96678(9)
C4 C 0.2677(5) 1.1851(4) 0.90621(10)
H4 H 0.2216 1.2677 0.9115
C5 C 0.3230(6) 1.1919(4) 0.86997(10)
H5 H 0.2399 1.2025 0.8547
H6 H 0.3749 1.1143 0.8644
H7 H 0.3896 1.2633 0.8676
C6 C 0.1511(5) 1.0856(4) 0.91021(12)
H8 H 0.0713 1.1020 0.8944
H9 H 0.1132 1.0875 0.9333
H10 H 0.1932 1.0029 0.9056
C7 C 0.7006(5) 1.1440(3) 0.90835(9)
C8 C 0.7582(5) 1.2019(3) 0.93735(9)
C9 C 0.8579(5) 1.2993(3) 0.93390(10)
H11 H 0.8973 1.3386 0.9533
C10 C 0.8998(5) 1.3391(3) 0.90224(10)
H12 H 0.9695 1.4047 0.9001
C11 C 0.8411(5) 1.2842(3) 0.87350(9)
C12 C 0.7417(5) 1.1863(4) 0.87666(9)
H13 H 0.7018 1.1483 0.8571
C13 C 0.8815(7) 1.3448(5) 0.78634(10)
C14 C 0.9678(10) 1.4373(6) 0.72406(10)
C15 C 1.0087(14) 1.4913(9) 0.69001(15)
C17 C 0.9526(13) 1.4613(8) 0.78551(18)
H14 H 0.9798 1.5036 0.8056
C18 C 0.9821(14) 1.5132(9) 0.75332(17)
H15 H 1.0113 1.5984 0.7513
C20 C 0.8704(13) 1.3442(9) 0.72729(19)
H16 H 0.8320 1.3069 0.7075
C21 C 0.8238(14) 1.3006(9) 0.75766(18)
H17 H 0.7498 1.2382 0.7585
H18 H 0.9270 1.5408 0.6812
H19 H 1.0307 1.4228 0.6744
H20 H 1.0949 1.5451 0.6924
C23 C 0.6611(5) 0.9075(3) 0.90955(9)
C24 C 0.5788(5) 0.8008(3) 0.92031(10)
C25 C 0.6449(6) 0.6794(4) 0.91639(11)
H21 H 0.5934 0.6071 0.9237
C26 C 0.7785(6) 0.6660(4) 0.90253(10)
H22 H 0.8188 0.5844 0.9001
C27 C 0.8606(5) 0.7721(4) 0.89142(10)
C28 C 0.8014(5) 0.8892(3) 0.89599(9)
H23 H 0.8573 0.9606 0.8897
C29 C 1.1983(5) 0.6580(4) 0.85905(10)
C30 C 1.2865(6) 0.7602(4) 0.85586(12)
H24 H 1.2510 0.8404 0.8622
C31 C 1.4268(6) 0.7488(5) 0.84348(12)
H25 H 1.4869 0.8211 0.8418
C32 C 1.4817(7) 0.6315(6) 0.83340(12)
C33 C 1.3895(7) 0.5302(5) 0.83643(14)
H26 H 1.4230 0.4501 0.8294
C34 C 1.2504(7) 0.5407(5) 0.84924(14)
H27 H 1.1903 0.4685 0.8514
C35 C 1.6351(7) 0.6202(6) 0.82003(14)
H28 H 1.6553 0.5325 0.8143
H29 H 1.7045 0.6485 0.8372
H30 H 1.6455 0.6723 0.7999
N6 N 0.6668(4) 0.8579(3) 1.02620(8)
C36 C 0.5389(5) 0.9237(4) 1.01129(10)
H31 H 0.5669 1.0095 1.0052
H32 H 0.4592 0.9263 1.0277
H33 H 0.5064 0.8787 0.9911
C37 C 0.7868(5) 0.8523(4) 1.00100(11)
H34 H 0.8715 0.8098 1.0109
H35 H 0.8143 0.9377 0.9944
H36 H 0.7536 0.8058 0.9812
C38 C 0.6262(6) 0.7269(4) 1.03657(11)
H37 H 0.7113 0.6856 1.0466
H38 H 0.5943 0.6794 1.0168
H39 H 0.5467 0.7302 1.0530
C39 C 0.7198(6) 0.9290(4) 1.05652(10)
H40 H 0.8039 0.8854 1.0663
H41 H 0.6412 0.9341 1.0732
H42 H 0.7490 1.0138 1.0498
O5 O 1.0613(4) 1.0290(3) 1.02056(8)
H43 H 0.9933 1.0818 1.0209
H44 H 1.1367 1.0415 1.0090
C16? C 0.8815(7) 1.3448(5) 0.78634(10)
C19? C 0.9678(10) 1.4373(6) 0.72406(10)
C22? C 1.0087(14) 1.4913(9) 0.69001(15)
C40? C 1.0251(8) 1.3827(15) 0.78132(18)
C41? C 1.0683(8) 1.4290(16) 0.7502(2)
C42? C 0.8242(10) 1.3994(15) 0.72908(17)
C43? C 0.7810(7) 1.3532(15) 0.7602(2)
H45? H 1.0938 1.3770 0.7992
H46? H 1.1665 1.4549 0.7468
H47? H 0.7555 1.4051 0.7112
H48? H 0.6829 1.3273 0.7637
H49? H 0.9296 1.5454 0.6819
H50? H 1.0243 1.4228 0.6740
H51? H 1.0986 1.5405 0.6921
loop_
_geom_bond_atom_site_label_1
_geom_bond_atom_site_label_2
_geom_bond_site_symmetry_1
_geom_bond_site_symmetry_2
O1 C3 1_555 1_555
O2 C3 1_555 1_555
O3 H1 1_555 1_555
O4 C24 1_555 1_555
N1 H2 1_555 1_555
N2 N3 1_555 1_555
N3 C13 1_555 1_555
N4 N5 1_555 1_555
N5 C29 1_555 1_555
C1 N1 1_555 1_555
C2 N1 1_555 1_555
H3 C2 1_555 1_555
C3 C2 1_555 1_555
C4 C2 1_555 1_555
H4 C4 1_555 1_555
C5 C4 1_555 1_555
H5 C5 1_555 1_555
H6 C5 1_555 1_555
H7 C5 1_555 1_555
C6 C4 1_555 1_555
H8 C6 1_555 1_555
H9 C6 1_555 1_555
H10 C6 1_555 1_555
C7 C1 1_555 1_555
C8 O3 1_555 1_555
C9 C8 1_555 1_555
H11 C9 1_555 1_555
C10 C9 1_555 1_555
H12 C10 1_555 1_555
C11 N2 1_555 1_555
C12 C7 1_555 1_555
H13 C12 1_555 1_555
C13 C17 1_555 1_555
C14 C15 1_555 1_555
C15 H18 1_555 1_555
C17 H14 1_555 1_555
C18 C14 1_555 1_555
H15 C18 1_555 1_555
C20 C14 1_555 1_555
H16 C20 1_555 1_555
C21 C13 1_555 1_555
H17 C21 1_555 1_555
H19 C15 1_555 1_555
H20 C15 1_555 1_555
C23 C1 1_555 1_555
C24 C23 1_555 1_555
C25 C24 1_555 1_555
H21 C25 1_555 1_555
C26 C25 1_555 1_555
H22 C26 1_555 1_555
C27 N4 1_555 1_555
C28 C23 1_555 1_555
H23 C28 1_555 1_555
C29 C30 1_555 1_555
C30 H24 1_555 1_555
C31 C30 1_555 1_555
H25 C31 1_555 1_555
C32 C31 1_555 1_555
C33 C32 1_555 1_555
H26 C33 1_555 1_555
C34 C29 1_555 1_555
H27 C34 1_555 1_555
C35 C32 1_555 1_555
H28 C35 1_555 1_555
H29 C35 1_555 1_555
H30 C35 1_555 1_555
N6 C36 1_555 1_555
C36 H31 1_555 1_555
H32 C36 1_555 1_555
H33 C36 1_555 1_555
C37 N6 1_555 1_555
H34 C37 1_555 1_555
H35 C37 1_555 1_555
H36 C37 1_555 1_555
C38 N6 1_555 1_555
H37 C38 1_555 1_555
H38 C38 1_555 1_555
H39 C38 1_555 1_555
C39 N6 1_555 1_555
H40 C39 1_555 1_555
H41 C39 1_555 1_555
H42 C39 1_555 1_555
O5 H43 1_555 1_555
H44 O5 1_555 1_555
C7 C8 1_555 1_555
C10 C11 1_555 1_555
C11 C12 1_555 1_555
C17 C18 1_555 1_555
C20 C21 1_555 1_555
C26 C27 1_555 1_555
C27 C28 1_555 1_555
C33 C34 1_555 1_555

#END
