
#######################################################################
#
#                 Cambridge Crystallographic Data Centre
#                                CCDC 
#
#######################################################################
#
# If this CIF has been generated from an entry in the Cambridge 
# Structural Database, then it will include bibliographic, chemical, 
# crystal, experimental, refinement or atomic coordinate data resulting 
# from the CCDC's data processing and validation procedures.
#
#######################################################################

data_QOQROF
_chemical_formula_moiety         'C10 H6 N2 O1 S1'
_chemical_name_systematic        5-(2-thienyl)-2,1,3-benzoxadiazole
_symmetry_cell_setting           monoclinic
_symmetry_space_group_name_H-M   'P 21/n'
_symmetry_Int_Tables_number      14
_space_group_name_Hall           '-P 2yn'
loop_
_symmetry_equiv_pos_site_id
_symmetry_equiv_pos_as_xyz
1 x,y,z
2 1/2-x,1/2+y,1/2-z
3 -x,-y,-z
4 1/2+x,1/2-y,1/2+z
_cell_length_a                   11.3001(8)
_cell_length_b                   3.9310(2)
_cell_length_c                   20.1304(16)
_cell_angle_alpha                90
_cell_angle_beta                 95.043(8)
_cell_angle_gamma                90
_cell_volume                     890.745
_cell_formula_units_Z            4
loop_
_atom_site_label
_atom_site_type_symbol
_atom_site_fract_x
_atom_site_fract_y
_atom_site_fract_z
S1 S 0.09756(14) 0.2156(4) 0.24581(6)
O1 O 0.2723(2) -0.3260(7) 0.58147(11)
N1 N 0.1631(2) -0.3592(8) 0.54479(12)
N2 N 0.3528(2) -0.1563(9) 0.54663(13)
C1 C 0.0946(2) -0.1670(7) 0.43156(13)
H1 H 0.0175 -0.2506 0.4311
C2 C 0.1761(3) -0.2071(8) 0.48802(13)
C3 C 0.2957(3) -0.0811(8) 0.48950(14)
C4 C 0.3336(2) 0.0930(8) 0.43241(15)
H2 H 0.4104 0.1772 0.4319
C5 C 0.2527(2) 0.1290(7) 0.37945(13)
H3 H 0.2755 0.2436 0.3422
C6 C 0.1320(2) -0.0013(6) 0.37730(12)
C7 C 0.0538(2) 0.0416(7) 0.31646(12)
C8 C -0.0742(10) -0.072(4) 0.3073(6)
H4 H -0.1176 -0.1681 0.3397
C9 C -0.0344(5) 0.1480(15) 0.2016(3)
H5 H -0.0501 0.2074 0.1570
C10 C -0.1166(8) -0.0046(18) 0.2388(4)
H6 H -0.1930 -0.0595 0.2212
S2? S -0.0818(4) -0.0768(12) 0.3074(2)
C11? C 0.1013(16) 0.212(5) 0.2610(7)
H7? H 0.1767 0.3041 0.2592
C12? C -0.0997(19) 0.058(4) 0.2281(7)
H8? H -0.1706 0.0351 0.2013
C13? C 0.0000(12) 0.204(4) 0.2068(9)
H9? H 0.0049 0.2883 0.1639
loop_
_geom_bond_atom_site_label_1
_geom_bond_atom_site_label_2
_geom_bond_site_symmetry_1
_geom_bond_site_symmetry_2
S1 C7 1_555 1_555
O1 N1 1_555 1_555
N1 C2 1_555 1_555
N2 O1 1_555 1_555
C1 H1 1_555 1_555
C2 C1 1_555 1_555
C3 N2 1_555 1_555
C4 C3 1_555 1_555
H2 C4 1_555 1_555
C5 C4 1_555 1_555
H3 C5 1_555 1_555
C6 C1 1_555 1_555
C7 C6 1_555 1_555
C8 C7 1_555 1_555
H4 C8 1_555 1_555
C9 S1 1_555 1_555
H5 C9 1_555 1_555
C10 C8 1_555 1_555
H6 C10 1_555 1_555
C2 C3 1_555 1_555
C5 C6 1_555 1_555
C9 C10 1_555 1_555

#END
