
#######################################################################
#
#                 Cambridge Crystallographic Data Centre
#                                CCDC 
#
#######################################################################
#
# If this CIF has been generated from an entry in the Cambridge 
# Structural Database, then it will include bibliographic, chemical, 
# crystal, experimental, refinement or atomic coordinate data resulting 
# from the CCDC's data processing and validation procedures.
#
#######################################################################

data_QOQROE
_chemical_formula_moiety         'C24 H14 Cl3 N1 O2 S1'
_chemical_name_systematic        
8-Chloro-4-(2,5-dichlorophenyl)-1-phenyl-3,4-dihydro-thiochromeno[2,3-b]pyridine-2,5(1H)-dione
_symmetry_cell_setting           monoclinic
_symmetry_space_group_name_H-M   'P 21/c'
_symmetry_Int_Tables_number      14
_space_group_name_Hall           '-P 2ybc'
loop_
_symmetry_equiv_pos_site_id
_symmetry_equiv_pos_as_xyz
1 x,y,z
2 -x,1/2+y,1/2-z
3 -x,-y,-z
4 x,1/2-y,1/2+z
_cell_length_a                   14.422(9)
_cell_length_b                   13.245(8)
_cell_length_c                   11.782(7)
_cell_angle_alpha                90
_cell_angle_beta                 107.160(11)
_cell_angle_gamma                90
_cell_volume                     2150.4
_exptl_crystal_colour            'primrose yellow'
_chemical_melting_point          '247-248 deg.C'
_cell_formula_units_Z            4
_exptl_crystal_recrystallization_method THF
loop_
_atom_site_label
_atom_site_type_symbol
_atom_site_fract_x
_atom_site_fract_y
_atom_site_fract_z
S1 S 0.61193(5) 0.15894(5) 0.77728(6)
Cl1 Cl 0.37337(6) 0.10429(6) 0.33809(7)
Cl2 Cl 0.74761(6) 0.67317(6) 0.90661(9)
Cl3 Cl 1.03613(6) 0.35773(8) 0.81176(8)
O1 O 0.57020(14) 0.48621(14) 0.69839(18)
O2 O 0.84493(15) 0.27486(15) 1.14359(17)
N1 N 0.74439(15) 0.23290(15) 0.96175(18)
C1 C 0.53874(16) 0.21604(19) 0.6480(2)
C2 C 0.48858(17) 0.1492(2) 0.5583(2)
H1 H 0.4930 0.0799 0.5715
C3 C 0.43282(18) 0.1867(2) 0.4510(2)
C4 C 0.42326(19) 0.2895(2) 0.4301(3)
H2 H 0.3857 0.3142 0.3571
C5 C 0.47062(19) 0.3545(2) 0.5199(3)
H3 H 0.4627 0.4236 0.5072
C6 C 0.53013(17) 0.32027(19) 0.6294(2)
C7 C 0.58349(18) 0.39521(19) 0.7183(2)
C8 C 0.65630(17) 0.36111(18) 0.8257(2)
C9 C 0.71276(18) 0.44216(19) 0.9081(2)
H4 H 0.6692 0.5001 0.9016
C10 C 0.73852(19) 0.4044(2) 1.0368(2)
H5 H 0.7837 0.4515 1.0874
H6 H 0.6801 0.4042 1.0617
C11 C 0.7824(2) 0.3009(2) 1.0554(3)
C12 C 0.67334(16) 0.26233(19) 0.8566(2)
C13 C 0.78138(18) 0.13022(19) 0.9728(2)
C14 C 0.8458(2) 0.1027(2) 0.9127(3)
H7 H 0.8673 0.1500 0.8677
C15 C 0.8785(3) 0.0044(3) 0.9199(3)
H8 H 0.9217 -0.0150 0.8788
C16 C 0.8477(3) -0.0648(3) 0.9870(3)
H9 H 0.8706 -0.1308 0.9922
C17 C 0.7835(3) -0.0372(2) 1.0464(3)
H10 H 0.7622 -0.0846 1.0912
C18 C 0.7501(2) 0.0611(2) 1.0402(3)
H11 H 0.7069 0.0801 1.0812
C19 C 0.80205(18) 0.4797(2) 0.8769(2)
C20 C 0.8251(2) 0.5823(2) 0.8778(2)
C21 C 0.9097(2) 0.6151(2) 0.8560(3)
H12 H 0.9230 0.6838 0.8564
C22 C 0.9738(2) 0.5471(3) 0.8341(3)
H13 H 1.0303 0.5692 0.8192
C23 C 0.95340(19) 0.4457(2) 0.8344(2)
C24 C 0.86787(18) 0.4124(2) 0.8527(2)
H14 H 0.8541 0.3437 0.8487
loop_
_geom_bond_atom_site_label_1
_geom_bond_atom_site_label_2
_geom_bond_site_symmetry_1
_geom_bond_site_symmetry_2
S1 C1 1_555 1_555
Cl1 C3 1_555 1_555
Cl2 C20 1_555 1_555
Cl3 C23 1_555 1_555
O1 C7 1_555 1_555
O2 C11 1_555 1_555
N1 C11 1_555 1_555
C1 C2 1_555 1_555
C2 H1 1_555 1_555
C3 C2 1_555 1_555
C4 C3 1_555 1_555
H2 C4 1_555 1_555
C5 C4 1_555 1_555
H3 C5 1_555 1_555
C6 C1 1_555 1_555
C7 C6 1_555 1_555
C8 C7 1_555 1_555
C9 C8 1_555 1_555
H4 C9 1_555 1_555
C10 C9 1_555 1_555
H5 C10 1_555 1_555
H6 C10 1_555 1_555
C11 C10 1_555 1_555
C12 S1 1_555 1_555
C13 N1 1_555 1_555
C14 C13 1_555 1_555
H7 C14 1_555 1_555
C15 C14 1_555 1_555
H8 C15 1_555 1_555
C16 C15 1_555 1_555
H9 C16 1_555 1_555
C17 C16 1_555 1_555
H10 C17 1_555 1_555
C18 C13 1_555 1_555
H11 C18 1_555 1_555
C19 C9 1_555 1_555
C20 C19 1_555 1_555
C21 C20 1_555 1_555
H12 C21 1_555 1_555
C22 C21 1_555 1_555
H13 C22 1_555 1_555
C23 C22 1_555 1_555
C24 C19 1_555 1_555
H14 C24 1_555 1_555
N1 C12 1_555 1_555
C5 C6 1_555 1_555
C8 C12 1_555 1_555
C17 C18 1_555 1_555
C23 C24 1_555 1_555

#END
