
#######################################################################
#
#                 Cambridge Crystallographic Data Centre
#                                CCDC 
#
#######################################################################
#
# If this CIF has been generated from an entry in the Cambridge 
# Structural Database, then it will include bibliographic, chemical, 
# crystal, experimental, refinement or atomic coordinate data resulting 
# from the CCDC's data processing and validation procedures.
#
#######################################################################

data_QOQVIB
_chemical_name_common            
'alpha,alpha-Trehalose octa-acetate ethyl acetate solvate'
_chemical_formula_moiety         'C28 H38 O19,C4 H8 O2'
_chemical_name_systematic        
'2,3,4,6-Tetra-O-acetyl-1-O-(2,3,4,6-tetra-O-acetyl-\a-D-glucopyranosyl)-\a-D-glucopyranose ethyl acetate solvate'
_symmetry_cell_setting           orthorhombic
_symmetry_space_group_name_H-M   'P 21 21 21'
_symmetry_Int_Tables_number      19
_space_group_name_Hall           'P 2ac 2ab'
loop_
_symmetry_equiv_pos_site_id
_symmetry_equiv_pos_as_xyz
1 x,y,z
2 1/2-x,-y,1/2+z
3 1/2+x,1/2-y,-z
4 -x,1/2+y,1/2-z
_cell_length_a                   14.14060(10)
_cell_length_b                   15.22150(10)
_cell_length_c                   17.8879(2)
_cell_angle_alpha                90
_cell_angle_beta                 90
_cell_angle_gamma                90
_cell_volume                     3850.21
_exptl_crystal_colour            colorless
_exptl_crystal_description       prism
_cell_formula_units_Z            4
loop_
_atom_site_label
_atom_site_type_symbol
_atom_site_fract_x
_atom_site_fract_y
_atom_site_fract_z
O1 O 0.24761(12) 0.50657(11) 0.69258(8)
O2 O 0.35494(11) 0.49212(12) 0.82096(9)
O3 O 0.37678(14) 0.62401(14) 0.87406(12)
O4 O 0.23379(13) 0.37729(11) 0.89904(9)
O5 O 0.12059(11) 0.56622(12) 0.75952(9)
O6 O 0.29369(16) 0.25888(13) 0.84058(11)
O7 O 0.05778(13) 0.34412(11) 0.81954(9)
O8 O -0.00552(17) 0.34988(14) 0.93443(11)
O9 O -0.07106(13) 0.54943(13) 0.70486(11)
O10 O -0.1617(2) 0.43297(16) 0.67996(14)
C1 C 0.21990(16) 0.55554(16) 0.75623(13)
H1 H 0.2501 0.6134 0.7547
C2 C 0.25432(17) 0.50563(17) 0.82486(13)
H2 H 0.2391 0.5393 0.8700
C3 C 0.20747(17) 0.41666(16) 0.82907(13)
H3 H 0.2274 0.3796 0.7871
C4 C 0.10119(17) 0.42917(17) 0.82853(13)
H4 H 0.0804 0.4561 0.8755
C5 C 0.06921(17) 0.48476(16) 0.76238(14)
H5 H 0.0784 0.4521 0.7157
C6 C -0.03384(18) 0.5084(2) 0.77136(16)
H6 H -0.0699 0.4556 0.7821
H7 H -0.0409 0.5482 0.8134
C7 C 0.40958(19) 0.55695(19) 0.84991(14)
C8 C 0.5118(2) 0.5332(2) 0.84639(17)
H8 H 0.5475 0.5729 0.8771
H9 H 0.5334 0.5373 0.7956
H10 H 0.5202 0.4742 0.8642
C9 C 0.27802(19) 0.29815(18) 0.89714(15)
C10 C 0.3050(2) 0.27072(19) 0.97357(15)
H11 H 0.3269 0.2111 0.9726
H12 H 0.2511 0.2751 1.0060
H13 H 0.3545 0.3082 0.9918
C11 C 0.00421(19) 0.31286(18) 0.87611(15)
C12 C -0.0418(2) 0.2294(2) 0.85412(19)
H14 H -0.1057 0.2409 0.8389
H15 H -0.0419 0.1898 0.8959
H16 H -0.0076 0.2035 0.8133
C13 C -0.1377(2) 0.5059(2) 0.66567(17)
C14 C -0.1751(3) 0.5612(2) 0.60460(19)
H17 H -0.2152 0.6061 0.6251
H18 H -0.2110 0.5255 0.5707
H19 H -0.1235 0.5881 0.5783
O11 O 0.17063(12) 0.43271(11) 0.56594(9)
O12 O 0.07217(15) 0.53484(14) 0.51939(13)
O13 O 0.33362(13) 0.39523(11) 0.48537(9)
O14 O 0.33080(12) 0.61010(11) 0.62208(9)
O15 O 0.38886(16) 0.26963(13) 0.53495(11)
O16 O 0.50650(12) 0.44301(12) 0.57832(9)
O17 O 0.54067(14) 0.42584(15) 0.45635(10)
O18 O 0.4719(2) 0.80295(16) 0.63503(14)
O19 O 0.49899(14) 0.67524(12) 0.69349(9)
C15 C 0.24934(18) 0.55685(16) 0.62600(13)
H20 H 0.1929 0.5941 0.6240
C16 C 0.24842(17) 0.49390(17) 0.56036(13)
H21 H 0.2422 0.5276 0.5139
C17 C 0.33764(17) 0.43937(16) 0.55684(13)
H22 H 0.3381 0.3961 0.5974
C18 C 0.42535(17) 0.49699(16) 0.56123(13)
H23 H 0.4350 0.5285 0.5141
C19 C 0.41790(17) 0.56145(17) 0.62628(14)
H24 H 0.4206 0.5293 0.6737
C20 C 0.4969(2) 0.62841(19) 0.62355(15)
H25 H 0.5569 0.5991 0.6153
H26 H 0.4863 0.6692 0.5827
C21 C 0.08524(19) 0.4614(2) 0.54100(14)
C22 C 0.0144(2) 0.3895(2) 0.54421(16)
H27 H -0.0462 0.4115 0.5288
H28 H 0.0101 0.3677 0.5945
H29 H 0.0334 0.3427 0.5115
C23 C 0.35853(18) 0.30908(17) 0.48195(15)
C24 C 0.3451(2) 0.27493(19) 0.40502(15)
H30 H 0.3494 0.2120 0.4055
H31 H 0.3932 0.2985 0.3729
H32 H 0.2840 0.2922 0.3869
C25 C 0.55735(19) 0.40935(18) 0.52039(16)
C26 C 0.6326(2) 0.3503(2) 0.54965(16)
H33 H 0.6811 0.3435 0.5126
H34 H 0.6058 0.2939 0.5612
H35 H 0.6594 0.3754 0.5941
C27 C 0.4874(2) 0.7633(2) 0.69125(18)
C28 C 0.4987(3) 0.8022(2) 0.76725(19)
H36 H 0.4592 0.8532 0.7716
H37 H 0.5635 0.8186 0.7748
H38 H 0.4806 0.7597 0.8043
O20 O 0.74712(16) 0.56486(15) 0.82116(12)
O21 O 0.71925(17) 0.55070(17) 0.94391(12)
C29 C 0.8210(3) 0.7094(2) 0.8284(2)
H39 H 0.8571 0.6980 0.7840
H40 H 0.8570 0.6919 0.8715
H41 H 0.8070 0.7710 0.8315
C30 C 0.7312(2) 0.6585(2) 0.82579(19)
H42 H 0.6945 0.6712 0.8703
H43 H 0.6947 0.6772 0.7828
C31 C 0.7390(2) 0.5199(2) 0.8839(2)
C32 C 0.7531(3) 0.4221(3) 0.8711(2)
H44 H 0.6982 0.3907 0.8880
H45 H 0.8075 0.4024 0.8984
H46 H 0.7623 0.4112 0.8187
loop_
_geom_bond_atom_site_label_1
_geom_bond_atom_site_label_2
_geom_bond_site_symmetry_1
_geom_bond_site_symmetry_2
O1 C1 1_555 1_555
O2 C2 1_555 1_555
O3 C7 1_555 1_555
O4 C3 1_555 1_555
O5 C1 1_555 1_555
O6 C9 1_555 1_555
O7 C4 1_555 1_555
O8 C11 1_555 1_555
O9 C6 1_555 1_555
O10 C13 1_555 1_555
C1 H1 1_555 1_555
C2 C1 1_555 1_555
H2 C2 1_555 1_555
C3 C2 1_555 1_555
H3 C3 1_555 1_555
C4 C3 1_555 1_555
H4 C4 1_555 1_555
C5 O5 1_555 1_555
H5 C5 1_555 1_555
C6 C5 1_555 1_555
H6 C6 1_555 1_555
H7 C6 1_555 1_555
C7 O2 1_555 1_555
C8 C7 1_555 1_555
H8 C8 1_555 1_555
H9 C8 1_555 1_555
H10 C8 1_555 1_555
C9 O4 1_555 1_555
C10 C9 1_555 1_555
H11 C10 1_555 1_555
H12 C10 1_555 1_555
H13 C10 1_555 1_555
C11 O7 1_555 1_555
C12 C11 1_555 1_555
H14 C12 1_555 1_555
H15 C12 1_555 1_555
H16 C12 1_555 1_555
C13 O9 1_555 1_555
C14 C13 1_555 1_555
H17 C14 1_555 1_555
H18 C14 1_555 1_555
H19 C14 1_555 1_555
O11 C16 1_555 1_555
O12 C21 1_555 1_555
O13 C17 1_555 1_555
O14 C15 1_555 1_555
O15 C23 1_555 1_555
O16 C18 1_555 1_555
O17 C25 1_555 1_555
O18 C27 1_555 1_555
O19 C20 1_555 1_555
C15 O1 1_555 1_555
H20 C15 1_555 1_555
C16 C15 1_555 1_555
H21 C16 1_555 1_555
C17 C16 1_555 1_555
H22 C17 1_555 1_555
C18 C17 1_555 1_555
H23 C18 1_555 1_555
C19 O14 1_555 1_555
H24 C19 1_555 1_555
C20 C19 1_555 1_555
H25 C20 1_555 1_555
H26 C20 1_555 1_555
C21 O11 1_555 1_555
C22 C21 1_555 1_555
H27 C22 1_555 1_555
H28 C22 1_555 1_555
H29 C22 1_555 1_555
C23 O13 1_555 1_555
C24 C23 1_555 1_555
H30 C24 1_555 1_555
H31 C24 1_555 1_555
H32 C24 1_555 1_555
C25 O16 1_555 1_555
C26 C25 1_555 1_555
H33 C26 1_555 1_555
H34 C26 1_555 1_555
H35 C26 1_555 1_555
C27 O19 1_555 1_555
C28 C27 1_555 1_555
H36 C28 1_555 1_555
H37 C28 1_555 1_555
H38 C28 1_555 1_555
O20 C30 1_555 1_555
O21 C31 1_555 1_555
C29 H39 1_555 1_555
H40 C29 1_555 1_555
H41 C29 1_555 1_555
C30 C29 1_555 1_555
H42 C30 1_555 1_555
H43 C30 1_555 1_555
C31 O20 1_555 1_555
C32 C31 1_555 1_555
H44 C32 1_555 1_555
H45 C32 1_555 1_555
H46 C32 1_555 1_555
C4 C5 1_555 1_555
C18 C19 1_555 1_555

#END
