
#######################################################################
#
#                 Cambridge Crystallographic Data Centre
#                                CCDC 
#
#######################################################################
#
# If this CIF has been generated from an entry in the Cambridge 
# Structural Database, then it will include bibliographic, chemical, 
# crystal, experimental, refinement or atomic coordinate data resulting 
# from the CCDC's data processing and validation procedures.
#
#######################################################################

data_QOQWIE
_chemical_formula_moiety         'C20 H22 Br1 N1 O5'
_chemical_name_systematic        
"Dimethyl 1'-acetyl-5'-bromo-3-methylene-1',2'-dihydro-4H-spiro[cyclohexane-1,3'-indole]-4,4-dicarboxylate"
_symmetry_cell_setting           monoclinic
_symmetry_space_group_name_H-M   'P 21'
_symmetry_Int_Tables_number      4
_space_group_name_Hall           'P 2yb'
loop_
_symmetry_equiv_pos_site_id
_symmetry_equiv_pos_as_xyz
1 x,y,z
2 -x,1/2+y,-z
_cell_length_a                   6.9109(11)
_cell_length_b                   13.975(2)
_cell_length_c                   10.4052(16)
_cell_angle_alpha                90
_cell_angle_beta                 106.962(3)
_cell_angle_gamma                90
_cell_volume                     961.216
_exptl_crystal_colour            colorless
_exptl_crystal_description       prismatic
_cell_formula_units_Z            2
loop_
_atom_site_label
_atom_site_type_symbol
_atom_site_fract_x
_atom_site_fract_y
_atom_site_fract_z
Br1 Br 1.45457(12) 0.06309(8) -0.14293(8)
N1 N 0.8164(11) -0.0843(4) 0.0929(7)
O1 O 0.6719(11) -0.2094(5) -0.0337(7)
O2 O 0.9171(11) 0.1346(5) 0.6296(7)
O3 O 1.0111(15) 0.2849(7) 0.6177(9)
O4 O 1.4139(9) 0.2217(6) 0.5300(6)
O5 O 1.1877(9) 0.3201(5) 0.3958(6)
C1 C 0.9587(12) -0.0594(5) 0.0276(7)
C2 C 0.9958(15) -0.1008(6) -0.0838(9)
H1 H 0.9212 -0.1536 -0.1248
C3 C 1.1424(15) -0.0635(7) -0.1332(8)
H2 H 1.1677 -0.0908 -0.2083
C4 C 1.2506(14) 0.0129(7) -0.0730(8)
C5 C 1.2219(11) 0.0561(8) 0.0408(6)
H3 H 1.2983 0.1087 0.0812
C6 C 1.0739(13) 0.0171(5) 0.0911(7)
C7 C 0.8355(14) -0.0181(6) 0.2095(9)
H4 H 0.8626 -0.0539 0.2927
H5 H 0.7120 0.0184 0.1973
C8 C 1.0140(11) 0.0489(6) 0.2123(6)
C9 C 1.1870(12) 0.0358(5) 0.3408(7)
H6 H 1.3036 0.0714 0.3331
H7 H 1.2240 -0.0313 0.3506
C10 C 1.1351(11) 0.0689(8) 0.4667(6)
H8 H 1.2539 0.0629 0.5439
H9 H 1.0304 0.0279 0.4815
C11 C 1.0611(11) 0.1740(5) 0.4540(7)
C12 C 0.8969(12) 0.1864(5) 0.3248(7)
C13 C 0.9507(13) 0.1532(5) 0.2017(7)
H10 H 1.0604 0.1922 0.1899
H11 H 0.8348 0.1618 0.1232
C14 C 0.7128(13) 0.2172(8) 0.3173(9)
H12 H 0.6796 0.2324 0.3953
H13 H 0.6165 0.2235 0.2340
C15 C 0.6779(13) -0.1568(6) 0.0576(8)
C16 C 0.5337(13) -0.1669(7) 0.1406(9)
H14 H 0.4466 -0.2208 0.1093
H15 H 0.4536 -0.1098 0.1325
H16 H 0.6088 -0.1765 0.2331
C17 C 0.9946(12) 0.2053(7) 0.5759(8)
C18 C 0.8531(17) 0.1629(9) 0.7459(11)
H17 H 0.9319 0.2167 0.7891
H18 H 0.8726 0.1104 0.8079
H19 H 0.7125 0.1802 0.7170
C19 C 1.2434(12) 0.2394(7) 0.4638(8)
C20 C 1.3397(18) 0.3922(9) 0.4073(14)
H20 H 1.4256 0.3946 0.4983
H21 H 1.2758 0.4533 0.3830
H22 H 1.4193 0.3770 0.3483
loop_
_geom_bond_atom_site_label_1
_geom_bond_atom_site_label_2
_geom_bond_site_symmetry_1
_geom_bond_site_symmetry_2
Br1 C4 1_555 1_555
N1 C1 1_555 1_555
O1 C15 1_555 1_555
O2 C17 1_555 1_555
O3 C17 1_555 1_555
O4 C19 1_555 1_555
O5 C19 1_555 1_555
C1 C2 1_555 1_555
C2 H1 1_555 1_555
C3 C2 1_555 1_555
H2 C3 1_555 1_555
C4 C3 1_555 1_555
C5 C4 1_555 1_555
H3 C5 1_555 1_555
C6 C1 1_555 1_555
C7 N1 1_555 1_555
H4 C7 1_555 1_555
H5 C7 1_555 1_555
C8 C6 1_555 1_555
C9 C8 1_555 1_555
H6 C9 1_555 1_555
H7 C9 1_555 1_555
C10 C9 1_555 1_555
H8 C10 1_555 1_555
H9 C10 1_555 1_555
C11 C10 1_555 1_555
C12 C11 1_555 1_555
C13 C8 1_555 1_555
H10 C13 1_555 1_555
H11 C13 1_555 1_555
C14 C12 1_555 1_555
H12 C14 1_555 1_555
H13 C14 1_555 1_555
C15 N1 1_555 1_555
C16 C15 1_555 1_555
H14 C16 1_555 1_555
H15 C16 1_555 1_555
H16 C16 1_555 1_555
C17 C11 1_555 1_555
C18 O2 1_555 1_555
H17 C18 1_555 1_555
H18 C18 1_555 1_555
H19 C18 1_555 1_555
C19 C11 1_555 1_555
C20 O5 1_555 1_555
H20 C20 1_555 1_555
H21 C20 1_555 1_555
H22 C20 1_555 1_555
C5 C6 1_555 1_555
C7 C8 1_555 1_555
C12 C13 1_555 1_555

#END
