
#######################################################################
#
#                 Cambridge Crystallographic Data Centre
#                                CCDC 
#
#######################################################################
#
# If this CIF has been generated from an entry in the Cambridge 
# Structural Database, then it will include bibliographic, chemical, 
# crystal, experimental, refinement or atomic coordinate data resulting 
# from the CCDC's data processing and validation procedures.
#
#######################################################################

data_QOQWEA
_chemical_formula_moiety         'C22 H20 Br1 F3 N2 O2 S1'
_chemical_name_systematic        
(4-Bromophenyl)(4-methyl-1-((4-methylphenyl)sulfonyl)-4-(2,2,2-trifluoroethyl)pyrrolidin-3-ylidene)acetonitrile
_symmetry_cell_setting           monoclinic
_symmetry_space_group_name_H-M   'P 21/c'
_symmetry_Int_Tables_number      14
_space_group_name_Hall           '-P 2ybc'
loop_
_symmetry_equiv_pos_site_id
_symmetry_equiv_pos_as_xyz
1 x,y,z
2 -x,1/2+y,1/2-z
3 -x,-y,-z
4 x,1/2-y,1/2+z
_cell_length_a                   12.3141(9)
_cell_length_b                   25.4743(19)
_cell_length_c                   14.8041(9)
_cell_angle_alpha                90
_cell_angle_beta                 94.832(5)
_cell_angle_gamma                90
_cell_volume                     4627.44
_exptl_crystal_colour            colorless
_exptl_crystal_description       plate
_cell_formula_units_Z            8
loop_
_atom_site_label
_atom_site_type_symbol
_atom_site_fract_x
_atom_site_fract_y
_atom_site_fract_z
Br1 Br 1.63580(14) 0.12407(7) 1.17785(10)
S1 S 1.0465(2) 0.11786(14) 0.58651(19)
F1 F 1.2248(7) -0.0105(3) 0.9389(5)
F2 F 1.0661(7) 0.0195(3) 0.8942(6)
F3 F 1.1361(6) 0.0371(3) 1.0270(5)
O1 O 1.0871(6) 0.1529(4) 0.5218(4)
O2 O 1.0121(7) 0.0660(4) 0.5598(6)
N1 N 1.1427(7) 0.1119(3) 0.6689(5)
N2 N 1.3887(7) 0.2589(4) 0.7536(6)
C1 C 1.2043(8) 0.1571(4) 0.6996(6)
H1 H 1.1565 0.1856 0.7138
H2 H 1.2508 0.1689 0.6539
C2 C 1.2712(8) 0.1387(3) 0.7832(6)
C3 C 1.2298(8) 0.0854(3) 0.8075(6)
C4 C 1.1206(8) 0.0810(4) 0.7484(6)
H3 H 1.1038 0.0448 0.7322
H4 H 1.0611 0.0958 0.7789
C5 C 1.2142(8) 0.0816(4) 0.9099(5)
H5 H 1.2850 0.0857 0.9432
H6 H 1.1695 0.1109 0.9259
C6 C 1.1639(13) 0.0325(7) 0.9416(9)
C7 C 1.3083(8) 0.0427(4) 0.7746(7)
H7 H 1.3201 0.0489 0.7122
H8 H 1.2764 0.0086 0.7805
H9 H 1.3766 0.0443 0.8108
C8 C 1.3519(8) 0.1675(3) 0.8232(6)
C9 C 1.4208(7) 0.1562(3) 0.9073(6)
C10 C 1.4042(8) 0.1829(4) 0.9873(7)
H10 H 1.3484 0.2076 0.9870
C11 C 1.4679(9) 0.1740(4) 1.0665(6)
H11 H 1.4545 0.1919 1.1192
C12 C 1.5526(9) 0.1378(4) 1.0671(7)
C13 C 1.5717(9) 0.1116(5) 0.9886(8)
H12 H 1.6277 0.0871 0.9887
C14 C 1.5071(9) 0.1218(4) 0.9099(7)
H13 H 1.5224 0.1049 0.8567
C15 C 1.3721(7) 0.2190(4) 0.7832(6)
C16 C 0.9353(7) 0.1483(5) 0.6319(6)
C17 C 0.8552(11) 0.1178(4) 0.6683(7)
H14 H 0.8605 0.0814 0.6698
C18 C 0.7683(10) 0.1430(6) 0.7018(7)
H15 H 0.7139 0.1223 0.7235
C19 C 0.8384(11) 0.2233(4) 0.6710(8)
H16 H 0.8328 0.2597 0.6727
C20 C 0.7569(9) 0.1939(6) 0.7053(7)
C21 C 0.9281(9) 0.2016(5) 0.6341(6)
H17 H 0.9814 0.2227 0.6117
C22 C 0.6561(10) 0.2182(5) 0.7385(8)
H18 H 0.5933 0.1983 0.7162
H19 H 0.6489 0.2537 0.7168
H20 H 0.6619 0.2182 0.8035
Br2 Br 0.89105(12) 0.14083(6) 0.94079(9)
S2 S 1.4645(2) 0.10249(12) 1.54514(16)
F4 F 1.2696(10) -0.0183(3) 1.1830(6)
F5 F 1.4278(9) 0.0009(4) 1.2372(6)
F6 F 1.3751(6) 0.0230(3) 1.1040(5)
O3 O 1.4865(7) 0.0505(3) 1.5744(4)
O4 O 1.4284(6) 0.1398(3) 1.6082(4)
N3 N 1.3692(6) 0.0986(3) 1.4623(5)
N4 N 1.1433(7) 0.2524(3) 1.3724(5)
C23 C 1.3150(8) 0.1469(4) 1.4300(6)
H21 H 1.3679 0.1738 1.4185
H22 H 1.2676 0.1601 1.4740
C24 C 1.2503(8) 0.1312(3) 1.3441(6)
C25 C 1.2867(8) 0.0753(4) 1.3178(6)
C26 C 1.3878(9) 0.0677(4) 1.3814(6)
H23 H 1.3980 0.0309 1.3967
H24 H 1.4518 0.0802 1.3540
C27 C 1.3047(9) 0.0709(4) 1.2194(6)
H25 H 1.3555 0.0983 1.2055
H26 H 1.2360 0.0786 1.1849
C28 C 1.3469(14) 0.0193(6) 1.1844(9)
C29 C 1.1996(10) 0.0370(4) 1.3494(7)
H27 H 1.1673 0.0518 1.4004
H28 H 1.2334 0.0041 1.3666
H29 H 1.1442 0.0313 1.3008
C30 C 1.1757(7) 0.1622(3) 1.3003(5)
C31 C 1.1569(7) 0.2118(4) 1.3421(6)
C32 C 1.1074(7) 0.1539(3) 1.2132(5)
C33 C 1.1307(7) 0.1824(3) 1.1382(6)
H30 H 1.1905 0.2048 1.1426
C34 C 1.0682(8) 0.1786(4) 1.0565(6)
H31 H 1.0858 0.1977 1.0062
C35 C 0.9797(9) 0.1461(4) 1.0518(6)
C36 C 0.9516(8) 0.1172(4) 1.1263(8)
H32 H 0.8913 0.0951 1.1222
C37 C 1.0154(8) 0.1225(4) 1.2054(7)
H33 H 0.9964 0.1042 1.2562
C38 C 1.5805(9) 0.1283(6) 1.4984(6)
C39 C 1.5958(10) 0.1823(6) 1.4959(7)
H34 H 1.5452 0.2049 1.5185
C40 C 1.6871(12) 0.2022(6) 1.4595(8)
H35 H 1.7000 0.2382 1.4589
C41 C 1.7585(11) 0.1678(10) 1.4242(8)
C42 C 1.7427(14) 0.1168(8) 1.4255(9)
H36 H 1.7929 0.0945 1.4017
C43 C 1.6521(11) 0.0955(6) 1.4620(7)
H37 H 1.6406 0.0594 1.4615
C44 C 1.8604(11) 0.1930(7) 1.3852(9)
H38 H 1.8552 0.2306 1.3883
H39 H 1.8633 0.1824 1.3232
H40 H 1.9253 0.1815 1.4201
loop_
_geom_bond_atom_site_label_1
_geom_bond_atom_site_label_2
_geom_bond_site_symmetry_1
_geom_bond_site_symmetry_2
Br1 C12 1_555 1_555
S1 O1 1_555 1_555
F1 C6 1_555 1_555
F2 C6 1_555 1_555
F3 C6 1_555 1_555
O2 S1 1_555 1_555
N1 S1 1_555 1_555
N2 C15 1_555 1_555
C1 N1 1_555 1_555
H1 C1 1_555 1_555
H2 C1 1_555 1_555
C2 C1 1_555 1_555
C3 C2 1_555 1_555
C4 N1 1_555 1_555
H3 C4 1_555 1_555
H4 C4 1_555 1_555
C5 C3 1_555 1_555
H5 C5 1_555 1_555
H6 C5 1_555 1_555
C6 C5 1_555 1_555
C7 C3 1_555 1_555
H7 C7 1_555 1_555
H8 C7 1_555 1_555
H9 C7 1_555 1_555
C8 C2 1_555 1_555
C9 C8 1_555 1_555
C10 C9 1_555 1_555
H10 C10 1_555 1_555
C11 C10 1_555 1_555
H11 C11 1_555 1_555
C12 C11 1_555 1_555
C13 C12 1_555 1_555
H12 C13 1_555 1_555
C14 C9 1_555 1_555
H13 C14 1_555 1_555
C15 C8 1_555 1_555
C16 S1 1_555 1_555
C17 C16 1_555 1_555
H14 C17 1_555 1_555
C18 C17 1_555 1_555
H15 C18 1_555 1_555
C19 H16 1_555 1_555
C20 C18 1_555 1_555
C21 C16 1_555 1_555
H17 C21 1_555 1_555
C22 C20 1_555 1_555
H18 C22 1_555 1_555
H19 C22 1_555 1_555
H20 C22 1_555 1_555
Br2 C35 1_555 1_555
S2 O3 1_555 1_555
F4 C28 1_555 1_555
F5 C28 1_555 1_555
F6 C28 1_555 1_555
O4 S2 1_555 1_555
N3 S2 1_555 1_555
N4 C31 1_555 1_555
C23 N3 1_555 1_555
H21 C23 1_555 1_555
H22 C23 1_555 1_555
C24 C23 1_555 1_555
C25 C24 1_555 1_555
C26 N3 1_555 1_555
H23 C26 1_555 1_555
H24 C26 1_555 1_555
C27 C25 1_555 1_555
H25 C27 1_555 1_555
H26 C27 1_555 1_555
C28 C27 1_555 1_555
C29 C25 1_555 1_555
H27 C29 1_555 1_555
H28 C29 1_555 1_555
H29 C29 1_555 1_555
C30 C24 1_555 1_555
C31 C30 1_555 1_555
C32 C30 1_555 1_555
C33 C32 1_555 1_555
H30 C33 1_555 1_555
C34 C33 1_555 1_555
H31 C34 1_555 1_555
C35 C34 1_555 1_555
C36 C35 1_555 1_555
H32 C36 1_555 1_555
C37 C32 1_555 1_555
H33 C37 1_555 1_555
C38 S2 1_555 1_555
C39 C38 1_555 1_555
H34 C39 1_555 1_555
C40 C39 1_555 1_555
H35 C40 1_555 1_555
C41 C40 1_555 1_555
C42 C41 1_555 1_555
H36 C42 1_555 1_555
C43 C38 1_555 1_555
H37 C43 1_555 1_555
C44 C41 1_555 1_555
H38 C44 1_555 1_555
H39 C44 1_555 1_555
H40 C44 1_555 1_555
C3 C4 1_555 1_555
C13 C14 1_555 1_555
C19 C20 1_555 1_555
C19 C21 1_555 1_555
C25 C26 1_555 1_555
C36 C37 1_555 1_555
C42 C43 1_555 1_555

#END
