
#######################################################################
#
#                 Cambridge Crystallographic Data Centre
#                                CCDC 
#
#######################################################################
#
# If this CIF has been generated from an entry in the Cambridge 
# Structural Database, then it will include bibliographic, chemical, 
# crystal, experimental, refinement or atomic coordinate data resulting 
# from the CCDC's data processing and validation procedures.
#
#######################################################################

data_QOQXUQ
_chemical_compound_source        'stem bark of Daphne feddei'
_chemical_name_common            
"hemikis(2''-Methoxydaphnodorin C) hemikis(2''-methoxy-2-epi-daphnodorin C) methanol solvate pentahydrate"
_chemical_formula_moiety         'C31 H24 O10,0.5(C1 H4 O1),5(H2 O1)'
_chemical_name_systematic        
"4,5',6-Trihydroxy-2',8'-bis(4-hydroxyphenyl)-8'-methoxy-3',4'-dihydro-2'H,3H-spiro[1-benzofuran-2,9'-furo[2,3-h]chromen]-3-one methanol solvate pentahydrate"
_chemical_properties_biological  
'inhibits LPS-induced NO production; source plant used to treat injuries from falls and bruises'
_symmetry_cell_setting           monoclinic
_symmetry_space_group_name_H-M   'C 2'
_symmetry_Int_Tables_number      5
_space_group_name_Hall           'C 2y'
loop_
_symmetry_equiv_pos_site_id
_symmetry_equiv_pos_as_xyz
1 x,y,z
2 -x,y,-z
3 1/2+x,1/2+y,z
4 1/2-x,1/2+y,-z
_cell_length_a                   28.735(8)
_cell_length_b                   15.081(4)
_cell_length_c                   16.185(4)
_cell_angle_alpha                90
_cell_angle_beta                 97.241(4)
_cell_angle_gamma                90
_cell_volume                     6957.87
_exptl_crystal_colour            colorless
_exptl_crystal_description       block
_cell_formula_units_Z            8
loop_
_atom_site_label
_atom_site_type_symbol
_atom_site_fract_x
_atom_site_fract_y
_atom_site_fract_z
O1 O 0.69368(4) 0.03844(8) 0.74224(6)
C1 C 0.71620(7) 0.04631(15) 0.66688(11)
H1 H 0.7021 0.0973 0.6356
C2 C 0.70644(7) -0.03502(16) 0.61186(11)
H2 H 0.7201 -0.0266 0.5606
H3 H 0.7212 -0.0864 0.6402
C3 C 0.65505(8) -0.05166(18) 0.59155(11)
H4 H 0.6506 -0.1137 0.5770
H5 H 0.6436 -0.0171 0.5426
C4 C 0.58130(8) -0.05673(17) 0.65782(13)
C5 C 0.55467(7) -0.03850(16) 0.72800(12)
H6 H 0.5234 -0.0551 0.7266
C6 C 0.57745(6) 0.00263(13) 0.79295(11)
C7 C 0.62294(6) 0.03082(11) 0.79805(10)
C8 C 0.64876(6) 0.01112(12) 0.73477(10)
C9 C 0.62436(7) -0.02957(13) 0.66124(11)
C10 C 0.76640(7) 0.06969(14) 0.69619(11)
C11 C 0.77663(7) 0.14316(16) 0.74734(11)
H7 H 0.7520 0.1752 0.7649
C12 C 0.82055(9) 0.1690(2) 0.77196(19)
H8 H 0.8268 0.2201 0.8036
C13 C 0.85863(8) 0.11410(19) 0.74742(14)
C14 C 0.85015(8) 0.04614(17) 0.70191(15)
H9 H 0.8751 0.0111 0.6900
C15 C 0.80532(7) 0.02252(15) 0.66955(12)
H10 H 0.8003 -0.0233 0.6310
O2 O 0.55605(4) 0.02388(10) 0.86200(7)
C16 C 0.58705(6) 0.08986(12) 0.90930(10)
C17 C 0.63712(5) 0.07330(11) 0.88503(10)
C18 C 0.66947(6) 0.15423(11) 0.88247(10)
C19 C 0.75301(5) 0.18282(12) 0.95908(9)
C20 C 0.78759(6) 0.14366(13) 1.00885(12)
H11 H 0.8161 0.1729 1.0218
C21 C 0.78169(6) 0.06068(13) 1.04113(11)
C22 C 0.74160(6) 0.01183(13) 1.02055(11)
H12 H 0.7388 -0.0454 1.0408
O3 O 0.66475(4) 0.01291(7) 0.93989(6)
C23 C 0.70501(6) 0.05153(11) 0.96788(9)
C24 C 0.71001(5) 0.13852(12) 0.93528(10)
C25 C 0.52582(6) 0.1993(2) 0.89418(13)
H13 H 0.5127 0.1554 0.9275
H14 H 0.5069 0.2037 0.8410
H15 H 0.5265 0.2556 0.9219
C26 C 0.58432(6) 0.07281(12) 1.00126(10)
C27 C 0.60188(6) 0.13482(13) 1.05601(11)
H16 H 0.6151 0.1858 1.0365
C28 C 0.60074(6) 0.12470(14) 1.14149(11)
H17 H 0.6120 0.1691 1.1786
C29 C 0.58177(6) 0.04409(13) 1.17100(11)
C30 C 0.56225(6) -0.01359(13) 1.11488(11)
H18 H 0.5467 -0.0627 1.1329
C31 C 0.56425(7) -0.00307(13) 1.03343(12)
H19 H 0.5520 -0.0472 0.9968
O4 O 0.56094(6) -0.09734(16) 0.59187(9)
H20 H 0.5409 -0.0649 0.5672
O5 O 0.90314(6) 0.1400(2) 0.77858(14)
H21 H 0.9020 0.1879 0.8023
O6 O 0.57306(4) 0.17390(9) 0.88226(8)
O7 O 0.65918(4) 0.21950(8) 0.83748(7)
O8 O 0.75615(4) 0.26622(8) 0.92492(8)
H22 H 0.7833 0.2837 0.9336
O9 O 0.81788(4) 0.02395(10) 1.09357(9)
H23 H 0.8154 -0.0302 1.0926
O10 O 0.58107(5) 0.03103(12) 1.25421(8)
H24 H 0.5940 0.0728 1.2802
O11 O 0.80429(4) 0.80453(9) 0.74932(7)
C32 C 0.77608(6) 0.83713(14) 0.81026(11)
H25 H 0.7698 0.9002 0.7991
C33 C 0.80134(7) 0.82882(17) 0.89574(11)
H26 H 0.8093 0.7670 0.9066
H27 H 0.7807 0.8474 0.9355
C34 C 0.84510(7) 0.88295(15) 0.90842(11)
H28 H 0.8639 0.8663 0.9602
H29 H 0.8374 0.9454 0.9111
C35 C 0.92224(7) 0.88527(14) 0.83860(11)
C36 C 0.94899(7) 0.86619(15) 0.78040(11)
H30 H 0.9811 0.8773 0.7862
C37 C 0.92357(6) 0.82614(15) 0.70649(10)
C38 C 0.87723(6) 0.80552(14) 0.69941(10)
C39 C 0.85200(6) 0.82472(12) 0.76439(10)
C40 C 0.87190(7) 0.86570(13) 0.83591(10)
C41 C 0.73094(6) 0.78874(13) 0.79510(11)
C42 C 0.69303(6) 0.82437(13) 0.82318(13)
H31 H 0.6962 0.8783 0.8512
C43 C 0.65036(7) 0.78471(17) 0.81222(14)
H32 H 0.6250 0.8109 0.8332
C44 C 0.64444(7) 0.70172(19) 0.76781(15)
C45 C 0.68337(7) 0.6683(2) 0.74154(15)
H33 H 0.6813 0.6143 0.7135
C46 C 0.72617(7) 0.71057(15) 0.75449(14)
H34 H 0.7521 0.6849 0.7350
O12 O 0.94493(4) 0.80403(11) 0.63811(7)
C47 C 0.91290(6) 0.74734(13) 0.58512(10)
C48 C 0.86306(5) 0.76442(12) 0.61794(10)
C49 C 0.83120(5) 0.68214(12) 0.61760(9)
C50 C 0.74828(7) 0.65581(15) 0.53426(12)
C51 C 0.71387(6) 0.69864(17) 0.47840(11)
H35 H 0.6855 0.6702 0.4621
C52 C 0.72175(6) 0.78569(17) 0.44609(14)
C53 C 0.76315(6) 0.83159(14) 0.46842(10)
H36 H 0.7689 0.8873 0.4473
O13 O 0.83808(4) 0.82765(9) 0.55967(7)
C54 C 0.79512(5) 0.78753(13) 0.52461(9)
C55 C 0.79157(6) 0.70583(13) 0.55656(10)
C56 C 0.97253(7) 0.6341(2) 0.60849(15)
H37 H 0.9920 0.6677 0.6497
H38 H 0.9814 0.6464 0.5544
H39 H 0.9764 0.5719 0.6204
C57 C 0.91651(5) 0.76377(12) 0.49567(10)
C58 C 0.89825(7) 0.70102(12) 0.43641(11)
H40 H 0.8856 0.6482 0.4531
C59 C 0.89928(7) 0.71816(14) 0.35543(12)
H41 H 0.8847 0.6791 0.3159
C60 C 0.92019(6) 0.78807(13) 0.33074(10)
C61 C 0.93732(7) 0.85252(14) 0.38385(11)
H42 H 0.9494 0.9049 0.3649
C62 C 0.93600(5) 0.83632(12) 0.47199(10)
H43 H 0.9489 0.8772 0.5113
O14 O 0.94186(6) 0.92707(13) 0.91305(9)
H44 H 0.9559 0.9719 0.9018
O15 O 0.60244(6) 0.65949(16) 0.75403(16)
H45 H 0.6039 0.6126 0.7798
O16 O 0.92344(4) 0.65869(9) 0.61005(7)
O17 O 0.83872(4) 0.61921(9) 0.66268(8)
O18 O 0.74274(4) 0.57874(10) 0.56315(9)
H46 H 0.7270 0.5820 0.6020
O19 O 0.68506(5) 0.81813(13) 0.39929(9)
H47 H 0.6919 0.8659 0.3799
O20 O 0.92110(4) 0.80723(9) 0.24509(7)
H48 H 0.8950 0.8237 0.2243
O21 O 0.65619(4) 0.50786(14) 0.53299(11)
H49 H 0.62762(7) 0.5042(3) 0.5324(4)
H50 H 0.67376(9) 0.5324(3) 0.50377(19)
O22 O 0.98178(9) 0.07079(14) 0.67204(15)
H51 H 0.9740(2) 0.1006(2) 0.71052(17)
H52 H 0.96848(19) 0.02968(19) 0.6450(2)
O23 O 0.84227(5) 0.34015(11) 0.95968(11)
O24 O 0.91697(6) 0.22819(12) 0.92989(18)
H53 H 0.9137(3) 0.27636(16) 0.9519(3)
H54 H 0.93883(10) 0.1930(2) 0.9298(3)
O25 O 0.90521(6) 0.0573(2) 1.02751(12)
H55 H 0.89336(12) 0.0678(7) 1.06996(16)
H56 H 0.93094(7) 0.0422(4) 1.0155(2)
O26 O 0.57630(7) 0.4876(2) 0.79450(14)
H57 H 0.59552(10) 0.4682(2) 0.7657(2)
H58 H 0.55535(9) 0.4660(4) 0.8181(2)
O27 O 0.96937(13) -0.0584(8) 1.06799(13)
H59 H 0.95875(17) -0.061(4) 1.11268(17)
O28 O 0.46816(10) -0.12813(16) 0.58187(13)
H60 H 0.45647(16) -0.1028(3) 0.61913(18)
H61 H 0.4604(4) -0.16984(19) 0.5505(2)
O29 O 0.80143(7) 0.45634(14) 0.70938(12)
H62 H 0.7961(2) 0.4415(4) 0.75601(15)
H63 H 0.81902(11) 0.4911(2) 0.6898(2)
C63 C 0.80755(12) -0.1110(3) 1.27130(14)
H64 H 0.8026 -0.1699 1.2910
H65 H 0.7856 -0.0712 1.2918
H66 H 0.8389 -0.0924 1.2909
O30 O 0.80080(7) -0.11044(11) 1.18139(9)
H67 H 0.7727 -0.1144 1.1647
O31 O 0.58834(12) 0.6344(2) 0.54764(10)
H68 H 0.5864(3) 0.6242(3) 0.49757(13)
H69 H 0.5875(3) 0.6057(2) 0.59038(15)
O32 O 0.51944(9) 0.7528(2) 0.79684(13)
H70 H 0.5311(2) 0.7195(3) 0.83394(19)
H71 H 0.50028(13) 0.7486(9) 0.75509(18)
O34 O 0.42794(7) -0.15026(16) 0.7006(3)
H72 H 0.44424(12) -0.1913(2) 0.7211(4)
H73 H 0.40033(8) -0.1361(4) 0.6977(9)
O33? O 0.9982(2) 0.2888(4) 1.0464(3)
H74? H 0.50300(15) 0.5824(2) 0.91092(18)
H75? H 0.52609(11) 0.50745(19) 0.8668(3)
O35? O 0.50781(9) 0.54724(15) 0.87453(17)
loop_
_geom_bond_atom_site_label_1
_geom_bond_atom_site_label_2
_geom_bond_site_symmetry_1
_geom_bond_site_symmetry_2
O1 C1 1_555 1_555
C1 H1 1_555 1_555
C2 C1 1_555 1_555
H2 C2 1_555 1_555
H3 C2 1_555 1_555
C3 C2 1_555 1_555
H4 C3 1_555 1_555
H5 C3 1_555 1_555
C4 C5 1_555 1_555
C5 H6 1_555 1_555
C6 C5 1_555 1_555
C7 C6 1_555 1_555
C8 O1 1_555 1_555
C9 C3 1_555 1_555
C10 C1 1_555 1_555
C11 C10 1_555 1_555
H7 C11 1_555 1_555
C12 C11 1_555 1_555
H8 C12 1_555 1_555
C13 C12 1_555 1_555
C14 C13 1_555 1_555
H9 C14 1_555 1_555
C15 C10 1_555 1_555
H10 C15 1_555 1_555
O2 C6 1_555 1_555
C16 O2 1_555 1_555
C17 C7 1_555 1_555
C18 C17 1_555 1_555
C19 C20 1_555 1_555
C20 H11 1_555 1_555
C21 C20 1_555 1_555
C22 C21 1_555 1_555
H12 C22 1_555 1_555
O3 C17 1_555 1_555
C23 C22 1_555 1_555
C24 C18 1_555 1_555
C25 H13 1_555 1_555
H14 C25 1_555 1_555
H15 C25 1_555 1_555
C26 C16 1_555 1_555
C27 C26 1_555 1_555
H16 C27 1_555 1_555
C28 C27 1_555 1_555
H17 C28 1_555 1_555
C29 C28 1_555 1_555
C30 C29 1_555 1_555
H18 C30 1_555 1_555
C31 C26 1_555 1_555
H19 C31 1_555 1_555
O4 C4 1_555 1_555
H20 O4 1_555 1_555
O5 C13 1_555 1_555
H21 O5 1_555 1_555
O6 C16 1_555 1_555
O7 C18 1_555 1_555
O8 C19 1_555 1_555
H22 O8 1_555 1_555
O9 C21 1_555 1_555
H23 O9 1_555 1_555
O10 C29 1_555 1_555
H24 O10 1_555 1_555
O11 C32 1_555 1_555
C32 H25 1_555 1_555
C33 C32 1_555 1_555
H26 C33 1_555 1_555
H27 C33 1_555 1_555
C34 C33 1_555 1_555
H28 C34 1_555 1_555
H29 C34 1_555 1_555
C35 C36 1_555 1_555
C36 H30 1_555 1_555
C37 C36 1_555 1_555
C38 C37 1_555 1_555
C39 O11 1_555 1_555
C40 C34 1_555 1_555
C41 C32 1_555 1_555
C42 C41 1_555 1_555
H31 C42 1_555 1_555
C43 C42 1_555 1_555
H32 C43 1_555 1_555
C44 C43 1_555 1_555
C45 C44 1_555 1_555
H33 C45 1_555 1_555
C46 C41 1_555 1_555
H34 C46 1_555 1_555
O12 C37 1_555 1_555
C47 O12 1_555 1_555
C48 C38 1_555 1_555
C49 C48 1_555 1_555
C50 C51 1_555 1_555
C51 H35 1_555 1_555
C52 C51 1_555 1_555
C53 C52 1_555 1_555
H36 C53 1_555 1_555
O13 C48 1_555 1_555
C54 C53 1_555 1_555
C55 C49 1_555 1_555
C56 H37 1_555 1_555
H38 C56 1_555 1_555
H39 C56 1_555 1_555
C57 C47 1_555 1_555
C58 C57 1_555 1_555
H40 C58 1_555 1_555
C59 C58 1_555 1_555
H41 C59 1_555 1_555
C60 C59 1_555 1_555
C61 C60 1_555 1_555
H42 C61 1_555 1_555
C62 C57 1_555 1_555
H43 C62 1_555 1_555
O14 C35 1_555 1_555
H44 O14 1_555 1_555
O15 C44 1_555 1_555
H45 O15 1_555 1_555
O16 C47 1_555 1_555
O17 C49 1_555 1_555
O18 C50 1_555 1_555
H46 O18 1_555 1_555
O19 C52 1_555 1_555
H47 O19 1_555 1_555
O20 C60 1_555 1_555
H48 O20 1_555 1_555
O21 H49 1_555 1_555
H50 O21 1_555 1_555
O22 H51 1_555 1_555
H52 O22 1_555 1_555
O24 H53 1_555 1_555
H54 O24 1_555 1_555
O25 H55 1_555 1_555
H56 O25 1_555 1_555
O26 H57 1_555 1_555
H58 O26 1_555 1_555
O27 H59 1_555 1_555
O28 H60 1_555 1_555
H61 O28 1_555 1_555
O29 H62 1_555 1_555
H63 O29 1_555 1_555
C63 H64 1_555 1_555
H65 C63 1_555 1_555
H66 C63 1_555 1_555
O30 C63 1_555 1_555
H67 O30 1_555 1_555
O31 H68 1_555 1_555
H69 O31 1_555 1_555
O32 H70 1_555 1_555
H71 O32 1_555 1_555
O34 H72 1_555 1_555
H73 O34 1_555 1_555
C4 C9 1_555 1_555
C7 C8 1_555 1_555
C8 C9 1_555 1_555
C14 C15 1_555 1_555
C16 C17 1_555 1_555
C19 C24 1_555 1_555
O3 C23 1_555 1_555
C23 C24 1_555 1_555
C25 O6 1_555 1_555
C30 C31 1_555 1_555
C35 C40 1_555 1_555
C38 C39 1_555 1_555
C39 C40 1_555 1_555
C45 C46 1_555 1_555
C47 C48 1_555 1_555
C50 C55 1_555 1_555
O13 C54 1_555 1_555
C54 C55 1_555 1_555
C56 O16 1_555 1_555
C61 C62 1_555 1_555

#END
