
#######################################################################
#
#                 Cambridge Crystallographic Data Centre
#                                CCDC 
#
#######################################################################
#
# If this CIF has been generated from an entry in the Cambridge 
# Structural Database, then it will include bibliographic, chemical, 
# crystal, experimental, refinement or atomic coordinate data resulting 
# from the CCDC's data processing and validation procedures.
#
#######################################################################

data_QOQXAX
_chemical_formula_moiety         'C22 H19 Cl1 N2 O2 S1'
_chemical_name_systematic        
'3-(4-Chlorophenyl)-3,4-bis(4-methylphenyl)-2,3-dihydro-1,2,5-thiadiazole 1,1-dioxide'
_symmetry_cell_setting           triclinic
_symmetry_space_group_name_H-M   'P 1'
_symmetry_Int_Tables_number      1
_space_group_name_Hall           'P 1'
loop_
_symmetry_equiv_pos_site_id
_symmetry_equiv_pos_as_xyz
1 x,y,z
_cell_length_a                   10.0479(8)
_cell_length_b                   10.4624(8)
_cell_length_c                   10.6624(8)
_cell_angle_alpha                93.078(4)
_cell_angle_beta                 90.520(4)
_cell_angle_gamma                118.662(4)
_cell_volume                     981.343
_cell_formula_units_Z            2
loop_
_atom_site_label
_atom_site_type_symbol
_atom_site_fract_x
_atom_site_fract_y
_atom_site_fract_z
Cl1 Cl 0.35432(18) 0.98260(14) 0.91310(11)
S1 S -0.06217(11) 0.32729(13) 0.40885(10)
O1 O -0.1888(4) 0.3503(5) 0.4116(4)
O2 O -0.0858(4) 0.1862(3) 0.3685(3)
N1 N 0.0697(3) 0.4485(3) 0.3218(3)
N2 N 0.0310(3) 0.3834(3) 0.5437(3)
H1 H -0.0085 0.3577 0.6154
C1 C 0.5347(5) 0.1708(5) 0.6154(4)
H2 H 0.4695 0.0683 0.5963
H3 H 0.5676 0.1876 0.7024
H4 H 0.6215 0.2045 0.5639
C2 C 0.4488(4) 0.2530(4) 0.5897(4)
C3 C 0.4838(4) 0.3445(4) 0.4933(4)
H5 H 0.5631 0.3570 0.4421
C4 C 0.4044(4) 0.4183(4) 0.4703(3)
H6 H 0.4319 0.4800 0.4046
C5 C 0.2858(4) 0.4028(4) 0.5420(3)
C6 C 0.1943(4) 0.4855(4) 0.5254(3)
C7 C 0.1942(4) 0.5234(4) 0.3865(3)
C8 C 0.3268(4) 0.6356(4) 0.3244(3)
C9 C 0.4304(4) 0.7677(4) 0.3836(4)
H7 H 0.4226 0.7868 0.4686
C10 C 0.5462(5) 0.8722(5) 0.3173(4)
H8 H 0.6130 0.9614 0.3586
C11 C 0.5649(4) 0.8473(4) 0.1915(3)
C12 C 0.6878(5) 0.9586(5) 0.1208(4)
H9 H 0.7472 1.0441 0.1756
H10 H 0.6447 0.9839 0.0520
H11 H 0.7516 0.9203 0.0890
C13 C 0.2437(4) 0.6166(4) 0.6200(3)
C14 C 0.3650(5) 0.6615(4) 0.7042(4)
H12 H 0.4233 0.6143 0.7017
C15 C 0.4006(6) 0.7756(5) 0.7919(4)
H13 H 0.4831 0.8054 0.8480
C16 C 0.3159(6) 0.8448(4) 0.7968(4)
C17 C 0.1990(5) 0.8075(5) 0.7108(4)
H14 H 0.1438 0.8579 0.7120
C18 C 0.1644(4) 0.6936(4) 0.6219(4)
H15 H 0.0862 0.6684 0.5624
C19 C 0.3292(5) 0.2363(5) 0.6624(4)
H16 H 0.3027 0.1747 0.7281
C20 C 0.2474(5) 0.3091(4) 0.6399(4)
H17 H 0.1669 0.2955 0.6900
C21 C 0.3427(4) 0.6090(4) 0.1978(3)
H18 H 0.2727 0.5217 0.1558
C22 C 0.4616(5) 0.7115(4) 0.1343(4)
H19 H 0.4734 0.6894 0.0508
Cl2 Cl 0.14477(12) 0.16526(14) 1.11644(12)
S2 S 0.92499(14) 0.33986(12) 0.91108(10)
O3 O 1.0759(5) 0.3687(5) 0.9167(3)
O4 O 0.8128(5) 0.1980(4) 0.8677(3)
N3 N 0.8819(3) 0.3900(3) 1.0450(3)
H20 H 0.8950 0.3626 1.1166
N4 N 0.9073(4) 0.4581(4) 0.8234(3)
C23 C 0.7889(6) 0.9668(5) 0.6260(4)
H21 H 0.8658 1.0047 0.5649
H22 H 0.8001 1.0447 0.6843
H23 H 0.6905 0.9232 0.5842
C24 C 0.8051(5) 0.8538(4) 0.6954(4)
C25 C 0.8563(5) 0.8812(5) 0.8203(4)
H24 H 0.8829 0.9719 0.8604
C26 C 0.8689(5) 0.7786(4) 0.8861(4)
H25 H 0.9003 0.7991 0.9705
C27 C 0.8348(4) 0.6432(4) 0.8274(3)
C28 C 0.8567(4) 0.5310(4) 0.8893(3)
C29 C 0.8173(4) 0.4888(4) 1.0274(3)
C30 C 0.8957(4) 0.6203(4) 1.1233(3)
C31 C 1.0537(4) 0.7003(4) 1.1284(4)
H26 H 1.1087 0.6762 1.0712
C32 C 1.1295(5) 0.8148(4) 1.2174(4)
H27 H 1.2350 0.8670 1.2193
C33 C 1.0505(5) 0.8529(4) 1.3037(4)
C34 C 1.1327(6) 0.9752(5) 1.4054(4)
H28 H 1.1585 1.0673 1.3718
H29 H 1.2237 0.9751 1.4336
H30 H 1.0679 0.9605 1.4748
C35 C 0.7683(5) 0.7187(4) 0.6388(4)
H31 H 0.7318 0.6970 0.5556
C36 C 0.7840(4) 0.6155(4) 0.7017(3)
H32 H 0.7606 0.5263 0.6602
C37 C 0.6453(4) 0.4047(4) 1.0414(3)
C38 C 0.5411(4) 0.4228(4) 0.9693(4)
H33 H 0.5749 0.4860 0.9047
C39 C 0.3873(4) 0.3486(4) 0.9916(4)
H34 H 0.3185 0.3619 0.9424
C40 C 0.3379(4) 0.2558(4) 1.0867(4)
C41 C 0.4368(5) 0.2356(5) 1.1590(4)
H35 H 0.4022 0.1731 1.2240
C42 C 0.5904(5) 0.3091(5) 1.1352(4)
H36 H 0.6578 0.2934 1.1839
C43 C 0.8177(5) 0.6612(4) 1.2062(3)
H37 H 0.7122 0.6107 1.2032
C44 C 0.8942(5) 0.7771(5) 1.2948(4)
H38 H 0.8390 0.8041 1.3493
loop_
_geom_bond_atom_site_label_1
_geom_bond_atom_site_label_2
_geom_bond_site_symmetry_1
_geom_bond_site_symmetry_2
Cl1 C16 1_555 1_555
S1 O1 1_555 1_555
O2 S1 1_555 1_555
N1 S1 1_555 1_555
N2 S1 1_555 1_555
H1 N2 1_555 1_555
C1 H2 1_555 1_555
H3 C1 1_555 1_555
H4 C1 1_555 1_555
C2 C1 1_555 1_555
C3 C2 1_555 1_555
H5 C3 1_555 1_555
C4 C3 1_555 1_555
H6 C4 1_555 1_555
C5 C4 1_555 1_555
C6 N2 1_555 1_555
C7 N1 1_555 1_555
C8 C7 1_555 1_555
C9 C8 1_555 1_555
H7 C9 1_555 1_555
C10 C9 1_555 1_555
H8 C10 1_555 1_555
C11 C10 1_555 1_555
C12 C11 1_555 1_555
H9 C12 1_555 1_555
H10 C12 1_555 1_555
H11 C12 1_555 1_555
C13 C6 1_555 1_555
C14 C13 1_555 1_555
H12 C14 1_555 1_555
C15 C14 1_555 1_555
H13 C15 1_555 1_555
C16 C15 1_555 1_555
C17 C16 1_555 1_555
H14 C17 1_555 1_555
C18 C13 1_555 1_555
H15 C18 1_555 1_555
C19 C2 1_555 1_555
H16 C19 1_555 1_555
C20 C5 1_555 1_555
H17 C20 1_555 1_555
C21 C8 1_555 1_555
H18 C21 1_555 1_555
C22 C11 1_555 1_555
H19 C22 1_555 1_555
Cl2 C40 1_555 1_555
S2 O3 1_555 1_555
O4 S2 1_555 1_555
N3 S2 1_555 1_555
H20 N3 1_555 1_555
N4 S2 1_555 1_555
C23 H21 1_555 1_555
H22 C23 1_555 1_555
H23 C23 1_555 1_555
C24 C23 1_555 1_555
C25 C24 1_555 1_555
H24 C25 1_555 1_555
C26 C25 1_555 1_555
H25 C26 1_555 1_555
C27 C26 1_555 1_555
C28 N4 1_555 1_555
C29 N3 1_555 1_555
C30 C29 1_555 1_555
C31 C30 1_555 1_555
H26 C31 1_555 1_555
C32 C31 1_555 1_555
H27 C32 1_555 1_555
C33 C32 1_555 1_555
C34 C33 1_555 1_555
H28 C34 1_555 1_555
H29 C34 1_555 1_555
H30 C34 1_555 1_555
C35 C24 1_555 1_555
H31 C35 1_555 1_555
C36 C27 1_555 1_555
H32 C36 1_555 1_555
C37 C29 1_555 1_555
C38 C37 1_555 1_555
H33 C38 1_555 1_555
C39 C38 1_555 1_555
H34 C39 1_555 1_555
C40 C39 1_555 1_555
C41 C40 1_555 1_555
H35 C41 1_555 1_555
C42 C37 1_555 1_555
H36 C42 1_555 1_555
C43 C30 1_555 1_555
H37 C43 1_555 1_555
C44 C33 1_555 1_555
H38 C44 1_555 1_555
C5 C6 1_555 1_555
C6 C7 1_555 1_555
C17 C18 1_555 1_555
C19 C20 1_555 1_555
C21 C22 1_555 1_555
C27 C28 1_555 1_555
C28 C29 1_555 1_555
C35 C36 1_555 1_555
C41 C42 1_555 1_555
C43 C44 1_555 1_555

#END
