
#######################################################################
#
#                 Cambridge Crystallographic Data Centre
#                                CCDC 
#
#######################################################################
#
# If this CIF has been generated from an entry in the Cambridge 
# Structural Database, then it will include bibliographic, chemical, 
# crystal, experimental, refinement or atomic coordinate data resulting 
# from the CCDC's data processing and validation procedures.
#
#######################################################################

data_QOQZEC
_chemical_formula_moiety         'C15 H11 Cl1 O2'
_chemical_name_systematic        
(4-Chlorophenyl)(1,3-dihydro-2-benzofuran-5-yl)methanone
_symmetry_cell_setting           triclinic
_symmetry_space_group_name_H-M   'P -1'
_symmetry_Int_Tables_number      2
_space_group_name_Hall           '-P 1'
loop_
_symmetry_equiv_pos_site_id
_symmetry_equiv_pos_as_xyz
1 x,y,z
2 -x,-y,-z
_cell_length_a                   6.212(3)
_cell_length_b                   7.420(4)
_cell_length_c                   13.040(6)
_cell_angle_alpha                90.105(7)
_cell_angle_beta                 94.926(8)
_cell_angle_gamma                90.416(7)
_cell_volume                     598.816
_exptl_crystal_colour            colorless
_exptl_crystal_description       block
_cell_formula_units_Z            2
loop_
_atom_site_label
_atom_site_type_symbol
_atom_site_fract_x
_atom_site_fract_y
_atom_site_fract_z
Cl1 Cl 1.08162(11) 0.11639(9) 0.88457(4)
C1 C 0.5216(3) 0.2583(2) 0.49598(14)
C2 C 0.7188(3) 0.2370(3) 0.77711(14)
H1 H 0.6690 0.2654 0.8404
C3 C 0.6083(3) 0.2806(2) 0.39319(13)
C4 C 0.9987(3) 0.1176(2) 0.67900(14)
H2 H 1.1338 0.0651 0.6770
C5 C 0.8085(3) 0.3618(2) 0.38109(14)
H3 H 0.8978 0.3955 0.4389
C6 C 0.6688(3) 0.2301(2) 0.59125(13)
C7 C 0.9204(3) 0.1600(2) 0.77159(14)
C8 C 0.7412(3) 0.3406(2) 0.19886(14)
C9 C 0.8729(3) 0.1546(2) 0.58925(14)
H4 H 0.9254 0.1285 0.5262
C10 C 0.5936(3) 0.2703(2) 0.68653(14)
H5 H 0.4573 0.3202 0.6890
O1 O 0.3268(2) 0.2605(3) 0.50168(11)
C11 C 0.4758(3) 0.2279(2) 0.30637(14)
H6 H 0.3423 0.1740 0.3134
C12 C 0.5446(3) 0.2565(3) 0.21024(14)
C13 C 0.8749(3) 0.3924(3) 0.28399(15)
H7 H 1.0077 0.4470 0.2762
O2 O 0.5846(3) 0.2715(3) 0.03480(11)
C14 C 0.7671(4) 0.3601(3) 0.08554(17)
H8 H 0.7702 0.4862 0.0663
H9 H 0.8998 0.3041 0.0680
C15 C 0.4384(4) 0.2143(4) 0.10535(16)
H10 H 0.4100 0.0860 0.0982
H11 H 0.3027 0.2780 0.0937
loop_
_geom_bond_atom_site_label_1
_geom_bond_atom_site_label_2
_geom_bond_site_symmetry_1
_geom_bond_site_symmetry_2
Cl1 C7 1_555 1_555
C1 C3 1_555 1_555
C2 H1 1_555 1_555
C3 C5 1_555 1_555
C4 H2 1_555 1_555
C5 H3 1_555 1_555
C6 C1 1_555 1_555
C7 C2 1_555 1_555
C8 C12 1_555 1_555
C9 C4 1_555 1_555
H4 C9 1_555 1_555
C10 C2 1_555 1_555
H5 C10 1_555 1_555
O1 C1 1_555 1_555
C11 C3 1_555 1_555
H6 C11 1_555 1_555
C12 C11 1_555 1_555
C13 C5 1_555 1_555
H7 C13 1_555 1_555
O2 C14 1_555 1_555
C14 C8 1_555 1_555
H8 C14 1_555 1_555
H9 C14 1_555 1_555
C15 C12 1_555 1_555
H10 C15 1_555 1_555
H11 C15 1_555 1_555
C4 C7 1_555 1_555
C6 C9 1_555 1_555
C6 C10 1_555 1_555
C8 C13 1_555 1_555
O2 C15 1_555 1_555

#END
