
#######################################################################
#
#                 Cambridge Crystallographic Data Centre
#                                CCDC 
#
#######################################################################
#
# If this CIF has been generated from an entry in the Cambridge 
# Structural Database, then it will include bibliographic, chemical, 
# crystal, experimental, refinement or atomic coordinate data resulting 
# from the CCDC's data processing and validation procedures.
#
#######################################################################

data_QORBOP01
_chemical_formula_moiety         'C19 H15 Cl1 N4'
_chemical_name_systematic        
2-Amino-4-(2-chlorophenyl)-4a,5,6,7-tetrahydronaphthalene-1,3,3(4H)-tricarbonitrile
_symmetry_cell_setting           monoclinic
_symmetry_space_group_name_H-M   'P 21/c'
_symmetry_Int_Tables_number      14
_space_group_name_Hall           '-P 2ybc'
loop_
_symmetry_equiv_pos_site_id
_symmetry_equiv_pos_as_xyz
1 x,y,z
2 -x,1/2+y,1/2-z
3 -x,-y,-z
4 x,1/2-y,1/2+z
_cell_length_a                   13.0672(13)
_cell_length_b                   9.1295(9)
_cell_length_c                   14.0098(16)
_cell_angle_alpha                90
_cell_angle_beta                 90.2200(10)
_cell_angle_gamma                90
_cell_volume                     1671.31
_cell_formula_units_Z            4
loop_
_atom_site_label
_atom_site_type_symbol
_atom_site_fract_x
_atom_site_fract_y
_atom_site_fract_z
Cl1 Cl 0.48685(6) 0.23350(13) 0.50884(7)
N1 N 0.07259(16) 0.2285(2) 0.35567(14)
H1 H 0.0413 0.2779 0.3122
H2 H 0.0747 0.1345 0.3523
N2 N 0.26614(19) -0.0152(3) 0.41213(17)
N3 N 0.02983(18) 0.0865(3) 0.60714(17)
N4 N 0.03983(18) 0.5985(3) 0.30772(16)
C1 C 0.25902(16) 0.2880(3) 0.55591(16)
H3 H 0.3068 0.3233 0.5073
C2 C 0.17449(17) 0.1996(3) 0.50122(16)
C3 C 0.11859(16) 0.2987(3) 0.42930(16)
C4 C 0.12077(17) 0.4455(3) 0.44258(16)
C5 C 0.16796(17) 0.5209(3) 0.52383(16)
C6 C 0.21196(17) 0.4246(3) 0.60148(16)
H4 H 0.1558 0.3933 0.6429
C7 C 0.2890(2) 0.5095(3) 0.66203(18)
H5 H 0.3080 0.4516 0.7174
H6 H 0.3503 0.5277 0.6250
C8 C 0.2437(2) 0.6543(3) 0.69443(19)
H7 H 0.1815 0.6363 0.7301
H8 H 0.2918 0.7039 0.7362
C9 C 0.2199(2) 0.7508(3) 0.60930(19)
H9 H 0.1739 0.8285 0.6289
H10 H 0.2827 0.7957 0.5870
C10 C 0.1718(2) 0.6669(3) 0.52928(18)
H11 H 0.1424 0.7201 0.4797
C11 C 0.32115(17) 0.1930(3) 0.62352(16)
C12 C 0.42366(19) 0.1624(3) 0.60787(19)
C13 C 0.4798(2) 0.0752(4) 0.6699(2)
H12 H 0.5484 0.0558 0.6576
C14 C 0.4343(2) 0.0177(4) 0.7491(2)
H13 H 0.4716 -0.0418 0.7904
C15 C 0.3340(2) 0.0477(3) 0.76770(19)
H14 H 0.3031 0.0097 0.8220
C16 C 0.27856(19) 0.1346(3) 0.70583(17)
H15 H 0.2105 0.1548 0.7197
C17 C 0.22486(19) 0.0769(3) 0.45025(17)
C18 C 0.09493(19) 0.1352(3) 0.56409(17)
C19 C 0.07478(18) 0.5325(3) 0.36892(18)
loop_
_geom_bond_atom_site_label_1
_geom_bond_atom_site_label_2
_geom_bond_site_symmetry_1
_geom_bond_site_symmetry_2
Cl1 C12 1_555 1_555
N1 H1 1_555 1_555
H2 N1 1_555 1_555
N2 C17 1_555 1_555
N3 C18 1_555 1_555
N4 C19 1_555 1_555
C1 H3 1_555 1_555
C2 C1 1_555 1_555
C3 N1 1_555 1_555
C4 C3 1_555 1_555
C5 C4 1_555 1_555
C6 C1 1_555 1_555
H4 C6 1_555 1_555
C7 C6 1_555 1_555
H5 C7 1_555 1_555
H6 C7 1_555 1_555
C8 C7 1_555 1_555
H7 C8 1_555 1_555
H8 C8 1_555 1_555
C9 C8 1_555 1_555
H9 C9 1_555 1_555
H10 C9 1_555 1_555
C10 C5 1_555 1_555
H11 C10 1_555 1_555
C11 C1 1_555 1_555
C12 C11 1_555 1_555
C13 C12 1_555 1_555
H12 C13 1_555 1_555
C14 C13 1_555 1_555
H13 C14 1_555 1_555
C15 C14 1_555 1_555
H14 C15 1_555 1_555
C16 C11 1_555 1_555
H15 C16 1_555 1_555
C17 C2 1_555 1_555
C18 C2 1_555 1_555
C19 C4 1_555 1_555
C2 C3 1_555 1_555
C5 C6 1_555 1_555
C9 C10 1_555 1_555
C15 C16 1_555 1_555

#END
