
#######################################################################
#
#                 Cambridge Crystallographic Data Centre
#                                CCDC 
#
#######################################################################
#
# If this CIF has been generated from an entry in the Cambridge 
# Structural Database, then it will include bibliographic, chemical, 
# crystal, experimental, refinement or atomic coordinate data resulting 
# from the CCDC's data processing and validation procedures.
#
#######################################################################

data_QORVOJ
_chemical_name_common            
5-(2-Biphenylyl)-5H-pyrido[3',2':4,5]cyclopenta[1,2-b]pyridin-5-ol
_chemical_formula_moiety         'C23 H16 N2 O1'
_chemical_name_systematic        9-(Biphenyl-2-yl)-4,5-diazafluoren-9-ol
_symmetry_cell_setting           orthorhombic
_symmetry_space_group_name_H-M   'P 21 21 21'
_symmetry_Int_Tables_number      19
_space_group_name_Hall           'P 2ac 2ab'
loop_
_symmetry_equiv_pos_site_id
_symmetry_equiv_pos_as_xyz
1 x,y,z
2 1/2-x,-y,1/2+z
3 -x,1/2+y,1/2-z
4 1/2+x,1/2-y,-z
_cell_length_a                   8.0633(6)
_cell_length_b                   15.4115(11)
_cell_length_c                   27.940(2)
_cell_angle_alpha                90
_cell_angle_beta                 90
_cell_angle_gamma                90
_cell_volume                     3472.04
_exptl_crystal_colour            colorless
_exptl_crystal_description       block
_cell_formula_units_Z            8
loop_
_atom_site_label
_atom_site_type_symbol
_atom_site_fract_x
_atom_site_fract_y
_atom_site_fract_z
C1 C 0.6055(5) 1.03930(18) 0.20650(10)
H1 H 0.6145 1.0982 0.2132
C2 C 0.4546(4) 1.00954(18) 0.19016(10)
H2 H 0.3665 1.0477 0.1858
C3 C 0.4360(3) 0.92190(16) 0.18025(9)
H3 H 0.3358 0.8995 0.1693
C4 C 0.5710(3) 0.86980(14) 0.18721(8)
C5 C 0.7183(3) 0.90651(15) 0.20356(8)
C6 C 0.8423(3) 0.83745(15) 0.20834(7)
C7 C 1.0844(3) 0.7717(2) 0.22622(9)
H4 H 1.1942 0.7747 0.2363
C8 C 1.0238(3) 0.6909(2) 0.21368(9)
H5 H 1.0906 0.6419 0.2159
C9 C 0.8622(3) 0.68427(16) 0.19775(8)
H6 H 0.8165 0.6308 0.1897
C10 C 0.7714(3) 0.75923(14) 0.19420(7)
C11 C 0.5899(3) 0.77205(14) 0.18100(8)
C12 C 0.5426(3) 0.74125(13) 0.13092(8)
C13 C 0.4046(3) 0.68858(15) 0.12567(8)
H7 H 0.3446 0.6728 0.1527
C14 C 0.3532(3) 0.65877(16) 0.08125(9)
H8 H 0.2608 0.6229 0.0788
C15 C 0.4381(3) 0.68207(17) 0.04128(9)
H9 H 0.4051 0.6618 0.0114
C16 C 0.5730(3) 0.73577(17) 0.04548(8)
H10 H 0.6296 0.7523 0.0179
C17 C 0.6284(3) 0.76651(15) 0.08965(8)
C18 C 0.7772(3) 0.82528(16) 0.08934(7)
C19 C 0.7568(3) 0.91369(17) 0.08392(8)
H11 H 0.6505 0.9370 0.0829
C20 C 0.8931(4) 0.96816(18) 0.08003(10)
H12 H 0.8777 1.0276 0.0766
C21 C 1.0494(4) 0.9348(2) 0.08121(10)
H13 H 1.1405 0.9715 0.0784
C22 C 1.0725(4) 0.8477(2) 0.08654(10)
H14 H 1.1793 0.8251 0.0879
C23 C 0.9369(3) 0.79293(17) 0.08997(8)
H15 H 0.9536 0.7334 0.0927
N1 N 0.7396(3) 0.99030(14) 0.21348(7)
N2 N 0.9978(3) 0.84597(15) 0.22507(7)
O1 O 0.48861(18) 0.72499(10) 0.21430(5)
H31 H 0.5114 0.7401 0.2417
C24 C 0.4542(3) 0.8803(2) 0.30328(9)
H16 H 0.3454 0.8722 0.2931
C25 C 0.5022(3) 0.9633(2) 0.31489(10)
H17 H 0.4275 1.0091 0.3128
C26 C 0.6639(3) 0.97743(17) 0.32986(9)
H18 H 0.7020 1.0330 0.3367
C27 C 0.7651(3) 0.90693(15) 0.33411(8)
C28 C 0.7052(3) 0.82585(16) 0.32173(8)
C29 C 0.8391(3) 0.76190(15) 0.32908(8)
C30 C 0.9688(4) 0.63307(18) 0.33302(11)
H19 H 0.9689 0.5732 0.3287
C31 C 1.1117(4) 0.67121(19) 0.34974(10)
H20 H 1.2037 0.6371 0.3567
C32 C 1.1193(3) 0.76009(17) 0.35627(8)
H21 H 1.2148 0.7872 0.3675
C33 C 0.9786(3) 0.80638(14) 0.34537(8)
C34 C 0.9467(3) 0.90348(14) 0.34782(8)
C35 C 0.9855(3) 0.94376(15) 0.39664(8)
C36 C 1.1179(3) 1.00020(18) 0.40027(10)
H22 H 1.1829 1.0109 0.3734
C37 C 1.1561(4) 1.04122(19) 0.44294(12)
H23 H 1.2464 1.0787 0.4446
C38 C 1.0612(4) 1.0265(2) 0.48243(11)
H24 H 1.0845 1.0551 0.5110
C39 C 0.9311(4) 0.96947(19) 0.47991(10)
H25 H 0.8679 0.9594 0.5072
C40 C 0.8906(3) 0.92616(17) 0.43777(9)
C41 C 0.7470(4) 0.86460(18) 0.43990(8)
C42 C 0.5851(4) 0.8956(2) 0.44389(10)
H26 H 0.5657 0.9551 0.4437
C43 C 0.4543(4) 0.8395(3) 0.44812(11)
H27 H 0.3470 0.8611 0.4506
C44 C 0.4804(5) 0.7522(3) 0.44869(11)
H28 H 0.3906 0.7146 0.4511
C45 C 0.6385(5) 0.7194(2) 0.44572(10)
H29 H 0.6562 0.6598 0.4466
C46 C 0.7712(4) 0.77584(19) 0.44140(9)
H30 H 0.8783 0.7537 0.4395
N3 N 0.5521(2) 0.81021(14) 0.30551(7)
N4 N 0.8293(3) 0.67651(14) 0.32255(7)
O2 O 1.0449(2) 0.94943(11) 0.31328(6)
H32 H 1.0226 0.9318 0.2863
loop_
_geom_bond_atom_site_label_1
_geom_bond_atom_site_label_2
_geom_bond_site_symmetry_1
_geom_bond_site_symmetry_2
C1 H1 1_555 1_555
C2 C1 1_555 1_555
H2 C2 1_555 1_555
C3 C2 1_555 1_555
H3 C3 1_555 1_555
C4 C3 1_555 1_555
C5 C4 1_555 1_555
C6 C5 1_555 1_555
C7 H4 1_555 1_555
C8 C7 1_555 1_555
H5 C8 1_555 1_555
C9 C8 1_555 1_555
H6 C9 1_555 1_555
C10 C6 1_555 1_555
C11 C4 1_555 1_555
C12 C11 1_555 1_555
C13 C12 1_555 1_555
H7 C13 1_555 1_555
C14 C13 1_555 1_555
H8 C14 1_555 1_555
C15 C14 1_555 1_555
H9 C15 1_555 1_555
C16 C15 1_555 1_555
H10 C16 1_555 1_555
C17 C12 1_555 1_555
C18 C17 1_555 1_555
C19 C18 1_555 1_555
H11 C19 1_555 1_555
C20 C19 1_555 1_555
H12 C20 1_555 1_555
C21 C20 1_555 1_555
H13 C21 1_555 1_555
C22 C21 1_555 1_555
H14 C22 1_555 1_555
C23 C18 1_555 1_555
H15 C23 1_555 1_555
C24 H16 1_555 1_555
C25 C24 1_555 1_555
H17 C25 1_555 1_555
C26 C25 1_555 1_555
H18 C26 1_555 1_555
C27 C26 1_555 1_555
C28 C27 1_555 1_555
C29 C28 1_555 1_555
C30 H19 1_555 1_555
C31 C30 1_555 1_555
H20 C31 1_555 1_555
C32 C31 1_555 1_555
H21 C32 1_555 1_555
C33 C29 1_555 1_555
C34 C27 1_555 1_555
C35 C34 1_555 1_555
C36 C35 1_555 1_555
H22 C36 1_555 1_555
C37 C36 1_555 1_555
H23 C37 1_555 1_555
C38 C37 1_555 1_555
H24 C38 1_555 1_555
C39 C38 1_555 1_555
H25 C39 1_555 1_555
C40 C35 1_555 1_555
C41 C40 1_555 1_555
C42 C41 1_555 1_555
H26 C42 1_555 1_555
C43 C42 1_555 1_555
H27 C43 1_555 1_555
C44 C43 1_555 1_555
H28 C44 1_555 1_555
C45 C44 1_555 1_555
H29 C45 1_555 1_555
C46 C41 1_555 1_555
H30 C46 1_555 1_555
N1 C1 1_555 1_555
N2 C6 1_555 1_555
N3 C24 1_555 1_555
N4 C29 1_555 1_555
O1 C11 1_555 1_555
H31 O1 1_555 1_555
O2 C34 1_555 1_555
H32 O2 1_555 1_555
C5 N1 1_555 1_555
C7 N2 1_555 1_555
C9 C10 1_555 1_555
C10 C11 1_555 1_555
C16 C17 1_555 1_555
C22 C23 1_555 1_555
C28 N3 1_555 1_555
C30 N4 1_555 1_555
C32 C33 1_555 1_555
C33 C34 1_555 1_555
C39 C40 1_555 1_555
C45 C46 1_555 1_555

#END
