
#######################################################################
#
#                 Cambridge Crystallographic Data Centre
#                                CCDC 
#
#######################################################################
#
# If this CIF has been generated from an entry in the Cambridge 
# Structural Database, then it will include bibliographic, chemical, 
# crystal, experimental, refinement or atomic coordinate data resulting 
# from the CCDC's data processing and validation procedures.
#
#######################################################################

data_QOSBAD
_chemical_formula_moiety         'C15 H12 N2 O2,C1 H4 O1'
_chemical_name_systematic        
'3-((2-hydroxy-4-methylphenyl)imino)-1,3-dihydro-2H-indol-2-one methanol solvate'
_symmetry_cell_setting           monoclinic
_symmetry_space_group_name_H-M   'P 21/c'
_symmetry_Int_Tables_number      14
_space_group_name_Hall           '-P 2ybc'
loop_
_symmetry_equiv_pos_site_id
_symmetry_equiv_pos_as_xyz
1 x,y,z
2 -x,1/2+y,1/2-z
3 -x,-y,-z
4 x,1/2-y,1/2+z
_cell_length_a                   15.6637(12)
_cell_length_b                   12.3527(9)
_cell_length_c                   7.4461(6)
_cell_angle_alpha                90
_cell_angle_beta                 100.9460(10)
_cell_angle_gamma                90
_cell_volume                     1414.53
_exptl_crystal_colour            crimson
_exptl_crystal_description       block
_cell_formula_units_Z            4
loop_
_atom_site_label
_atom_site_type_symbol
_atom_site_fract_x
_atom_site_fract_y
_atom_site_fract_z
N1 N 0.05401(10) 0.36552(12) 0.4500(2)
H1 H 0.0026 0.3771 0.4705
N2 N 0.25544(10) 0.45080(12) 0.3714(2)
O1 O 0.09839(9) 0.54176(11) 0.4349(2)
O2 O 0.34173(10) 0.57706(11) 0.1619(2)
H2 H 0.2944 0.5860 0.1914
C1 C 0.11092(12) 0.44369(15) 0.4289(3)
C2 C 0.19363(11) 0.38853(15) 0.3993(2)
C3 C 0.17533(12) 0.27131(14) 0.4043(2)
C4 C 0.08976(12) 0.26224(15) 0.4344(2)
C5 C 0.04914(14) 0.16404(16) 0.4415(3)
H3 H -0.0075 0.1598 0.4620
C6 C 0.09561(15) 0.07189(17) 0.4169(3)
H4 H 0.0700 0.0043 0.4225
C7 C 0.17954(15) 0.07837(16) 0.3843(3)
H5 H 0.2093 0.0152 0.3672
C8 C 0.21977(13) 0.17727(15) 0.3766(3)
H6 H 0.2760 0.1809 0.3532
C9 C 0.33950(11) 0.42029(15) 0.3543(2)
C10 C 0.38156(12) 0.48966(15) 0.2504(3)
C11 C 0.46704(13) 0.46953(17) 0.2346(3)
H7 H 0.4937 0.5149 0.1621
C12 C 0.51353(12) 0.38382(18) 0.3238(3)
C13 C 0.47261(13) 0.31808(17) 0.4328(3)
H8 H 0.5032 0.2609 0.4961
C14 C 0.38773(13) 0.33568(16) 0.4491(3)
H9 H 0.3621 0.2908 0.5241
C15 C 0.60696(14) 0.3646(2) 0.3081(4)
H10 H 0.6191 0.4018 0.2025
H11 H 0.6166 0.2884 0.2960
H12 H 0.6447 0.3913 0.4158
O3 O 0.18332(11) 0.66335(12) 0.2031(2)
H13 H 0.1650 0.6227 0.2743
C16 C 0.18332(17) 0.77054(18) 0.2675(4)
H14 H 0.2302 0.7798 0.3701
H15 H 0.1290 0.7853 0.3047
H16 H 0.1908 0.8196 0.1717
loop_
_geom_bond_atom_site_label_1
_geom_bond_atom_site_label_2
_geom_bond_site_symmetry_1
_geom_bond_site_symmetry_2
N1 H1 1_555 1_555
N2 C2 1_555 1_555
O1 C1 1_555 1_555
O2 H2 1_555 1_555
C1 N1 1_555 1_555
C2 C1 1_555 1_555
C3 C2 1_555 1_555
C4 N1 1_555 1_555
C5 C4 1_555 1_555
H3 C5 1_555 1_555
C6 C5 1_555 1_555
H4 C6 1_555 1_555
C7 C6 1_555 1_555
H5 C7 1_555 1_555
C8 C3 1_555 1_555
H6 C8 1_555 1_555
C9 N2 1_555 1_555
C10 O2 1_555 1_555
C11 C10 1_555 1_555
H7 C11 1_555 1_555
C12 C11 1_555 1_555
C13 C12 1_555 1_555
H8 C13 1_555 1_555
C14 C9 1_555 1_555
H9 C14 1_555 1_555
C15 C12 1_555 1_555
H10 C15 1_555 1_555
H11 C15 1_555 1_555
H12 C15 1_555 1_555
O3 H13 1_555 1_555
C16 O3 1_555 1_555
H14 C16 1_555 1_555
H15 C16 1_555 1_555
H16 C16 1_555 1_555
C3 C4 1_555 1_555
C7 C8 1_555 1_555
C9 C10 1_555 1_555
C13 C14 1_555 1_555

#END
