
#######################################################################
#
#                 Cambridge Crystallographic Data Centre
#                                CCDC 
#
#######################################################################
#
# If this CIF has been generated from an entry in the Cambridge 
# Structural Database, then it will include bibliographic, chemical, 
# crystal, experimental, refinement or atomic coordinate data resulting 
# from the CCDC's data processing and validation procedures.
#
#######################################################################

data_QOSCIK
_chemical_formula_moiety         'C28 H28 O4 S8,1.5(C1 H2 Cl2),0.25(C6 H14)'
_chemical_name_systematic        
'2,6-bis(2-Hydroxyethoxy)-9,10-bis(4,5-bis(methylthio)-1,3-dithiol-2-ylidene)-9,10-dihydroanthracene dichloromethane hexane solvate'
_symmetry_cell_setting           monoclinic
_symmetry_space_group_name_H-M   'P 21/n'
_symmetry_Int_Tables_number      14
_space_group_name_Hall           '-P 2yn'
loop_
_symmetry_equiv_pos_site_id
_symmetry_equiv_pos_as_xyz
1 x,y,z
2 1/2+x,1/2-y,1/2+z
3 -x,-y,-z
4 1/2-x,1/2+y,1/2-z
_cell_length_a                   16.179(5)
_cell_length_b                   26.971(5)
_cell_length_c                   17.231(5)
_cell_angle_alpha                90
_cell_angle_beta                 102.14(1)
_cell_angle_gamma                90
_cell_volume                     7350.84
_exptl_crystal_colour            amber
_exptl_crystal_description       block
_chemical_melting_point          147-150deg.C
_cell_formula_units_Z            8
loop_
_atom_site_label
_atom_site_type_symbol
_atom_site_fract_x
_atom_site_fract_y
_atom_site_fract_z
S1 S 0.29388(4) 0.16903(3) 0.41528(4)
S2 S 0.34375(4) 0.17919(3) 0.58848(4)
S3 S 0.46125(5) 0.20743(3) 0.38838(5)
S4 S 0.51546(4) 0.22149(3) 0.58329(5)
S5 S -0.08198(5) 0.26360(3) 0.44063(4)
S6 S -0.02675(5) 0.26742(3) 0.61356(4)
S7 S -0.14027(6) 0.36982(4) 0.42660(6)
S8 S -0.07895(6) 0.37406(3) 0.62419(6)
O1 O 0.06436(13) 0.09958(8) 0.24007(12)
O2 O -0.04714(15) 0.05553(9) 0.04838(13)
H1 H -0.041(3) 0.0681(16) 0.010(3)
O3 O 0.07625(13) 0.13680(8) 0.80541(12)
O4 O -0.01979(17) 0.09853(10) 0.91468(15)
H2 H 0.020(3) 0.0843(16) 0.913(3)
C1 C 0.11821(18) 0.12510(10) 0.37141(16)
H3 H 0.1704 0.1102 0.3675
C2 C 0.04970(18) 0.12313(10) 0.30644(16)
C3 C -0.02829(18) 0.14255(11) 0.31274(17)
H4 H -0.0750 0.1409 0.2690
C4 C -0.03726(18) 0.16397(10) 0.38386(17)
H5 H -0.0911 0.1761 0.3886
C5 C 0.04756(17) 0.16512(10) 0.66734(16)
H6 H -0.0063 0.1778 0.6709
C6 C 0.09873(18) 0.14269(10) 0.73338(16)
C7 C 0.17788(18) 0.12338(11) 0.72795(17)
H7 H 0.2125 0.1077 0.7726
C8 C 0.20487(18) 0.12682(11) 0.65722(17)
H8 H 0.2583 0.1134 0.6539
C9 C 0.18101(17) 0.15312(10) 0.51256(16)
C10 C 0.02351(17) 0.19210(10) 0.52395(16)
C11 C 0.11044(17) 0.14821(10) 0.44220(16)
C12 C 0.03094(17) 0.16829(10) 0.44838(16)
C13 C 0.07577(17) 0.16922(10) 0.59586(16)
C14 C 0.15542(17) 0.14983(10) 0.59013(16)
C15 C 0.26158(17) 0.16422(10) 0.50673(16)
C16 C 0.39356(17) 0.19519(10) 0.45329(17)
C17 C 0.41586(17) 0.20037(10) 0.53238(17)
C18 C 0.3882(2) 0.2178(2) 0.2961(2)
H9 H 0.3556 0.1874 0.2806
H10 H 0.4193 0.2266 0.2550
H11 H 0.3496 0.2449 0.3021
C19 C 0.4869(2) 0.28151(12) 0.6171(2)
H12 H 0.4589 0.3012 0.5713
H13 H 0.5379 0.2988 0.6448
H14 H 0.4483 0.2770 0.6534
C20 C -0.02284(17) 0.23391(11) 0.52625(16)
C21 C -0.0897(2) 0.32129(12) 0.48611(19)
C22 C -0.06419(19) 0.32318(11) 0.56542(19)
C23 C -0.0931(3) 0.36567(15) 0.3406(2)
H15 H -0.0316 0.3688 0.3571
H16 H -0.1151 0.3924 0.3034
H17 H -0.1072 0.3335 0.3146
C24 C 0.0255(3) 0.38375(19) 0.6834(3)
H18 H 0.0441 0.3539 0.7147
H19 H 0.0246 0.4119 0.7193
H20 H 0.0648 0.3908 0.6486
C25 C -0.00738(19) 0.09240(11) 0.17607(17)
H21 H -0.0331 0.1247 0.1571
H22 H -0.0506 0.0719 0.1940
C26 C 0.0246(2) 0.06632(13) 0.11033(18)
H23 H 0.0652 0.0877 0.0903
H24 H 0.0536 0.0352 0.1305
C27 C -0.0030(2) 0.15788(12) 0.81321(18)
H25 H -0.0500 0.1413 0.7763
H26 H -0.0046 0.1937 0.8006
C28 C -0.0114(2) 0.14955(13) 0.89789(19)
H27 H 0.0392 0.1631 0.9342
H28 H -0.0615 0.1676 0.9075
S9 S 0.13326(5) 0.54460(3) -0.07035(4)
S10 S 0.06299(4) 0.56265(3) 0.07092(4)
S11 S -0.01576(6) 0.59057(3) -0.18133(5)
S12 S -0.09885(5) 0.60763(3) -0.02578(5)
S13 S 0.29963(4) 0.33256(3) 0.10959(4)
S14 S 0.24695(5) 0.35998(3) 0.25657(4)
S15 S 0.22866(5) 0.22851(3) 0.10797(5)
S16 S 0.17024(5) 0.25950(3) 0.27455(5)
O5 O 0.40589(13) 0.51248(7) -0.10575(12)
O6 O 0.40355(15) 0.51417(9) -0.27019(13)
H29 H 0.409(2) 0.5272(15) -0.311(2)
O7 O 0.29201(14) 0.50313(8) 0.41598(12)
O8 O 0.39084(15) 0.53245(9) 0.56861(13)
H30 H 0.406(2) 0.5062(15) 0.554(2)
C29 C 0.31674(18) 0.51285(10) -0.01528(16)
H31 H 0.2953 0.5436 -0.0378
C30 C 0.37982(18) 0.48827(10) -0.04523(16)
C31 C 0.41256(18) 0.44360(10) -0.01212(16)
H32 H 0.4541 0.4263 -0.0332
C32 C 0.38354(17) 0.42440(10) 0.05268(16)
H33 H 0.4070 0.3943 0.0761
C33 C 0.29151(18) 0.46936(11) 0.28987(17)
H34 H 0.3195 0.4410 0.3157
C34 C 0.26988(18) 0.50888(11) 0.33503(17)
C35 C 0.23077(18) 0.55091(11) 0.29722(17)
H35 H 0.2160 0.5778 0.3273
C36 C 0.21378(17) 0.55336(11) 0.21477(17)
H36 H 0.1879 0.5824 0.1893
C37 C 0.21915(17) 0.51754(10) 0.08068(16)
C38 C 0.29317(17) 0.43071(10) 0.15618(16)
C39 C 0.23306(17) 0.51438(10) 0.16825(16)
C40 C 0.27251(17) 0.47147(11) 0.20701(16)
C41 C 0.32100(17) 0.44807(10) 0.08412(16)
C42 C 0.28581(17) 0.49294(10) 0.04767(16)
C43 C 0.14986(17) 0.53906(10) 0.03389(16)
C44 C 0.03058(19) 0.56981(11) -0.08599(18)
C45 C -0.00147(18) 0.57811(11) -0.02102(18)
C46 C -0.0463(2) 0.53336(16) -0.2342(2)
H37 H 0.0040 0.5129 -0.2334
H38 H -0.0736 0.5408 -0.2894
H39 H -0.0860 0.5152 -0.2087
C47 C -0.1198(2) 0.59831(14) 0.0715(2)
H40 H -0.1161 0.5629 0.0844
H41 H -0.1766 0.6104 0.0728
H42 H -0.0781 0.6165 0.1106
C48 C 0.28287(17) 0.38203(11) 0.17257(16)
C49 C 0.23993(18) 0.28803(11) 0.14946(18)
C50 C 0.21545(18) 0.30097(11) 0.21669(18)
C51 C 0.2019(2) 0.24150(14) 0.0026(2)
H43 H 0.1488 0.2602 -0.0098
H44 H 0.1952 0.2103 -0.0274
H45 H 0.2471 0.2612 -0.0122
C52 C 0.0844(2) 0.29516(14) 0.2996(2)
H46 H 0.1077 0.3232 0.3334
H47 H 0.0514 0.2741 0.3280
H48 H 0.0479 0.3076 0.2508
C53 C 0.46864(18) 0.48809(11) -0.14070(17)
H49 H 0.4496 0.4542 -0.1580
H50 H 0.5228 0.4856 -0.1015
C54 C 0.47928(19) 0.51864(11) -0.21098(17)
H51 H 0.4892 0.5538 -0.1952
H52 H 0.5284 0.5066 -0.2314
C55 C 0.2663(2) 0.54170(13) 0.46285(18)
H53 H 0.2039 0.5438 0.4524
H54 H 0.2887 0.5741 0.4498
C56 C 0.3007(2) 0.52912(14) 0.54910(18)
H55 H 0.2768 0.5522 0.5832
H56 H 0.2831 0.4951 0.5598
Cl1 Cl 0.14972(7) 0.27384(4) 0.80491(6)
Cl2 Cl 0.30051(7) 0.28087(5) 0.73777(7)
C57 C 0.1963(3) 0.26199(19) 0.7230(3)
H57 H 0.1632 0.2789 0.6756
H58 H 0.1937 0.2259 0.7122
Cl3 Cl 0.15830(7) 0.50128(5) 0.69961(9)
Cl4 Cl 0.24980(8) 0.41296(5) 0.76565(12)
C58 C 0.2363(3) 0.47697(18) 0.7752(3)
H59 H 0.2212 0.4838 0.8269
H60 H 0.2906 0.4938 0.7750
Cl7 Cl 0.29501(13) 0.36049(8) 0.49759(16)
Cl10 Cl 0.15380(17) 0.29591(11) 0.51487(15)
C60 C 0.2513(4) 0.3007(2) 0.4985(4)
C62 C -0.0250(10) 0.5060(7) 0.5282(9)
C63 C -0.0855(7) 0.5549(4) 0.5179(6)
C70 C -0.118(2) 0.5658(13) 0.560(2)
C62B C 0.0250(10) 0.4940(7) 0.4718(9)
C63B C 0.0855(7) 0.4451(4) 0.4821(6)
C70B C 0.118(2) 0.4342(13) 0.440(2)
Cl5? Cl 0.243(2) 0.4169(14) 0.816(2)
Cl6? Cl 0.2459(10) 0.4169(6) 0.6528(9)
C59? C 0.248(3) 0.4541(18) 0.736(3)
Cl8? Cl 0.2728(6) 0.3126(4) 0.4733(6)
Cl9? Cl 0.1387(2) 0.31984(16) 0.5200(2)
C61? C 0.230(3) 0.3559(16) 0.528(2)
C64? C -0.0663(9) 0.5350(6) 0.5267(8)
C65? C -0.0381(6) 0.5142(3) 0.5592(5)
C66? C 0.2451(11) 0.3988(7) 0.4711(11)
C67? C 0.1456(15) 0.3965(9) 0.4755(14)
C68? C 0.1251(13) 0.3572(8) 0.5257(12)
C69? C -0.0141(19) 0.4816(11) 0.4998(18)
loop_
_geom_bond_atom_site_label_1
_geom_bond_atom_site_label_2
_geom_bond_site_symmetry_1
_geom_bond_site_symmetry_2
S1 C15 1_555 1_555
S2 C15 1_555 1_555
S3 C16 1_555 1_555
S4 C17 1_555 1_555
S5 C20 1_555 1_555
S6 C20 1_555 1_555
S7 C21 1_555 1_555
S8 C22 1_555 1_555
O1 C2 1_555 1_555
O2 H1 1_555 1_555
O3 C6 1_555 1_555
O4 H2 1_555 1_555
C1 H3 1_555 1_555
C2 C1 1_555 1_555
C3 C2 1_555 1_555
H4 C3 1_555 1_555
C4 C3 1_555 1_555
H5 C4 1_555 1_555
C5 H6 1_555 1_555
C6 C5 1_555 1_555
C7 C6 1_555 1_555
H7 C7 1_555 1_555
C8 C7 1_555 1_555
H8 C8 1_555 1_555
C9 C11 1_555 1_555
C10 C12 1_555 1_555
C11 C1 1_555 1_555
C12 C4 1_555 1_555
C13 C5 1_555 1_555
C14 C8 1_555 1_555
C15 C9 1_555 1_555
C16 S1 1_555 1_555
C17 S2 1_555 1_555
C18 S3 1_555 1_555
H9 C18 1_555 1_555
H10 C18 1_555 1_555
H11 C18 1_555 1_555
C19 S4 1_555 1_555
H12 C19 1_555 1_555
H13 C19 1_555 1_555
H14 C19 1_555 1_555
C20 C10 1_555 1_555
C21 S5 1_555 1_555
C22 S6 1_555 1_555
C23 S7 1_555 1_555
H15 C23 1_555 1_555
H16 C23 1_555 1_555
H17 C23 1_555 1_555
C24 S8 1_555 1_555
H18 C24 1_555 1_555
H19 C24 1_555 1_555
H20 C24 1_555 1_555
C25 O1 1_555 1_555
H21 C25 1_555 1_555
H22 C25 1_555 1_555
C26 O2 1_555 1_555
H23 C26 1_555 1_555
H24 C26 1_555 1_555
C27 O3 1_555 1_555
H25 C27 1_555 1_555
H26 C27 1_555 1_555
C28 O4 1_555 1_555
H27 C28 1_555 1_555
H28 C28 1_555 1_555
S9 C43 1_555 1_555
S10 C43 1_555 1_555
S11 C44 1_555 1_555
S12 C45 1_555 1_555
S13 C48 1_555 1_555
S14 C48 1_555 1_555
S15 C49 1_555 1_555
S16 C50 1_555 1_555
O5 C30 1_555 1_555
O6 H29 1_555 1_555
O7 C34 1_555 1_555
O8 H30 1_555 1_555
C29 H31 1_555 1_555
C30 C29 1_555 1_555
C31 C30 1_555 1_555
H32 C31 1_555 1_555
C32 C31 1_555 1_555
H33 C32 1_555 1_555
C33 H34 1_555 1_555
C34 C33 1_555 1_555
C35 C34 1_555 1_555
H35 C35 1_555 1_555
C36 C35 1_555 1_555
H36 C36 1_555 1_555
C37 C39 1_555 1_555
C38 C40 1_555 1_555
C39 C36 1_555 1_555
C40 C33 1_555 1_555
C41 C32 1_555 1_555
C42 C29 1_555 1_555
C43 C37 1_555 1_555
C44 S9 1_555 1_555
C45 S10 1_555 1_555
C46 S11 1_555 1_555
H37 C46 1_555 1_555
H38 C46 1_555 1_555
H39 C46 1_555 1_555
C47 S12 1_555 1_555
H40 C47 1_555 1_555
H41 C47 1_555 1_555
H42 C47 1_555 1_555
C48 C38 1_555 1_555
C49 S13 1_555 1_555
C50 S14 1_555 1_555
C51 S15 1_555 1_555
H43 C51 1_555 1_555
H44 C51 1_555 1_555
H45 C51 1_555 1_555
C52 S16 1_555 1_555
H46 C52 1_555 1_555
H47 C52 1_555 1_555
H48 C52 1_555 1_555
C53 O5 1_555 1_555
H49 C53 1_555 1_555
H50 C53 1_555 1_555
C54 O6 1_555 1_555
H51 C54 1_555 1_555
H52 C54 1_555 1_555
C55 O7 1_555 1_555
H53 C55 1_555 1_555
H54 C55 1_555 1_555
C56 O8 1_555 1_555
H55 C56 1_555 1_555
H56 C56 1_555 1_555
Cl1 C57 1_555 1_555
Cl2 C57 1_555 1_555
C57 H57 1_555 1_555
H58 C57 1_555 1_555
Cl3 C58 1_555 1_555
Cl4 C58 1_555 1_555
C58 H59 1_555 1_555
H60 C58 1_555 1_555
Cl7 C60 1_555 1_555
Cl10 C60 1_555 1_555
C62 C63 1_555 1_555
C63 C70 1_555 1_555
C62B C62 1_555 1_555
C63B C62B 1_555 1_555
C70B C63B 1_555 1_555
C9 C14 1_555 1_555
C10 C13 1_555 1_555
C11 C12 1_555 1_555
C13 C14 1_555 1_555
C16 C17 1_555 1_555
C21 C22 1_555 1_555
C25 C26 1_555 1_555
C27 C28 1_555 1_555
C37 C42 1_555 1_555
C38 C41 1_555 1_555
C39 C40 1_555 1_555
C41 C42 1_555 1_555
C44 C45 1_555 1_555
C49 C50 1_555 1_555
C53 C54 1_555 1_555
C55 C56 1_555 1_555

#END
