
#######################################################################
#
#                 Cambridge Crystallographic Data Centre
#                                CCDC 
#
#######################################################################
#
# If this CIF has been generated from an entry in the Cambridge 
# Structural Database, then it will include bibliographic, chemical, 
# crystal, experimental, refinement or atomic coordinate data resulting 
# from the CCDC's data processing and validation procedures.
#
#######################################################################

data_QOSCUW
_chemical_formula_moiety         'C28 H28 O4 S8 2+,2(Cl1 O4 1-),C1 H2 Cl2'
_chemical_name_systematic        
'2,6-bis(2-Hydroxyethoxy)-9,10-bis(4,5-bis(methylthio)-1,3-dithiol-2-ylidene)-9,10-dihydroanthracene diperchlorate dichloromethane solvate'
_symmetry_cell_setting           triclinic
_symmetry_space_group_name_H-M   'P -1'
_symmetry_Int_Tables_number      2
_space_group_name_Hall           '-P 1'
loop_
_symmetry_equiv_pos_site_id
_symmetry_equiv_pos_as_xyz
1 x,y,z
2 -x,-y,-z
_cell_length_a                   8.471(1)
_cell_length_b                   14.883(2)
_cell_length_c                   16.270(4)
_cell_angle_alpha                93.63(1)
_cell_angle_beta                 104.45(1)
_cell_angle_gamma                105.67(1)
_cell_volume                     1893.62
_exptl_crystal_colour            orange
_exptl_crystal_description       needle
_cell_formula_units_Z            2
loop_
_atom_site_label
_atom_site_type_symbol
_atom_site_fract_x
_atom_site_fract_y
_atom_site_fract_z
S1 S 0.63678(14) 0.69349(8) 0.23130(7)
S2 S 0.31132(14) 0.68212(8) 0.25537(7)
S3 S 0.49482(16) 0.63388(10) 0.03877(8)
S4 S 0.12253(14) 0.62435(8) 0.06770(7)
S5 S 1.11444(14) 0.87739(8) 0.68531(7)
S6 S 0.80646(14) 0.85740(8) 0.73144(7)
S7 S 1.34411(16) 0.92796(9) 0.86467(8)
S8 S 0.98614(16) 0.90553(9) 0.92175(7)
O1 O 0.6925(4) 0.4323(2) 0.45340(19)
O2 O 0.5184(4) 0.2245(2) 0.3908(2)
H1 H 0.565(7) 0.223(4) 0.440(4)
O3 O 0.7543(4) 1.1253(2) 0.49416(19)
O4 O 0.7343(4) 1.2969(2) 0.5662(2)
H2 H 0.746(6) 1.342(4) 0.541(3)
C1 C 0.6466(6) 0.5817(3) 0.4180(3)
H3 H 0.5840 0.5554 0.3605
C2 C 0.7088(6) 0.5264(3) 0.4734(3)
C3 C 0.7969(6) 0.5633(3) 0.5602(3)
H4 H 0.8358 0.5231 0.5984
C4 C 0.8263(6) 0.6551(3) 0.5894(3)
H5 H 0.8847 0.6783 0.6480
C5 C 0.7830(6) 0.9744(3) 0.5345(3)
H6 H 0.8538 1.0016 0.5905
C6 C 0.7173(6) 1.0299(3) 0.4788(3)
C7 C 0.6012(6) 0.9892(3) 0.3970(3)
H7 H 0.5479 1.0273 0.3618
C8 C 0.5665(5) 0.8967(3) 0.3691(3)
H8 H 0.4918 0.8712 0.3135
C9 C 0.6127(5) 0.7399(3) 0.3926(3)
C10 C 0.8041(5) 0.8150(3) 0.5609(3)
C11 C 0.6398(5) 0.8354(3) 0.4214(3)
C12 C 0.7433(5) 0.8750(3) 0.5069(3)
C13 C 0.7708(5) 0.7183(3) 0.5333(3)
C14 C 0.6759(5) 0.6798(3) 0.4464(3)
C15 C 0.5220(5) 0.7047(3) 0.3010(3)
C16 C 0.4681(5) 0.6599(3) 0.1388(3)
C17 C 0.3128(6) 0.6568(3) 0.1514(3)
C18 C 0.7112(6) 0.6307(4) 0.0663(3)
H9 H 0.7880 0.6942 0.0897
H10 H 0.7373 0.6078 0.0149
H11 H 0.7268 0.5883 0.1093
C19 C 0.1391(6) 0.7366(3) 0.0276(3)
H12 H 0.1398 0.7838 0.0727
H13 H 0.0413 0.7297 -0.0222
H14 H 0.2450 0.7570 0.0106
C20 C 0.9013(5) 0.8508(3) 0.6523(3)
C21 C 1.1383(6) 0.8999(3) 0.7928(3)
C22 C 0.9889(6) 0.8895(3) 0.8157(3)
C23 C 1.4177(7) 1.0549(4) 0.8693(4)
H15 H 1.4121 1.0710 0.8114
H16 H 1.5358 1.0790 0.9054
H17 H 1.3449 1.0834 0.8938
C24 C 0.7623(6) 0.8874(4) 0.9116(3)
H18 H 0.7227 0.9331 0.8775
H19 H 0.7452 0.8958 0.9687
H20 H 0.6973 0.8233 0.8830
C25 C 0.6026(6) 0.3892(3) 0.3654(3)
H21 H 0.6510 0.4280 0.3253
H22 H 0.4805 0.3856 0.3537
C26 C 0.6205(6) 0.2914(3) 0.3525(3)
H23 H 0.5890 0.2695 0.2902
H24 H 0.7417 0.2945 0.3766
C27 C 0.8632(6) 1.1726(3) 0.5766(3)
H25 H 0.9731 1.1578 0.5883
H26 H 0.8083 1.1519 0.6220
C28 C 0.8931(6) 1.2770(3) 0.5756(3)
H27 H 0.9764 1.3123 0.6298
H28 H 0.9398 1.2966 0.5274
Cl1 Cl 0.30972(14) 0.41636(8) 0.17618(7)
O5 O 0.4720(5) 0.4471(3) 0.1598(3)
O6 O 0.1804(4) 0.4293(2) 0.1051(2)
O7 O 0.3125(5) 0.4720(3) 0.2516(2)
O8 O 0.2728(5) 0.3199(3) 0.1881(3)
Cl2 Cl 0.02801(15) 0.87440(8) 0.20443(7)
O9 O 0.0304(4) 0.7815(2) 0.2229(2)
O10 O -0.0413(4) 0.9165(2) 0.2636(2)
O11 O -0.0761(5) 0.8680(3) 0.1179(2)
O12 O 0.1991(5) 0.9311(3) 0.2128(3)
C29 C -0.1537(7) 0.4335(4) 0.1651(3)
H29 H -0.0795 0.4498 0.1265
H30 H -0.2704 0.4326 0.1335
Cl3 Cl -0.15743(19) 0.32002(10) 0.19292(9)
Cl4 Cl -0.07788(16) 0.52037(9) 0.25595(8)
loop_
_geom_bond_atom_site_label_1
_geom_bond_atom_site_label_2
_geom_bond_site_symmetry_1
_geom_bond_site_symmetry_2
S1 C15 1_555 1_555
S2 C15 1_555 1_555
S3 C16 1_555 1_555
S4 C17 1_555 1_555
S5 C20 1_555 1_555
S6 C20 1_555 1_555
S7 C21 1_555 1_555
S8 C22 1_555 1_555
O1 C2 1_555 1_555
O2 H1 1_555 1_555
O3 C6 1_555 1_555
O4 H2 1_555 1_555
C1 H3 1_555 1_555
C2 C1 1_555 1_555
C3 C2 1_555 1_555
H4 C3 1_555 1_555
C4 C3 1_555 1_555
H5 C4 1_555 1_555
C5 H6 1_555 1_555
C6 C5 1_555 1_555
C7 C6 1_555 1_555
H7 C7 1_555 1_555
C8 C7 1_555 1_555
H8 C8 1_555 1_555
C9 C11 1_555 1_555
C10 C12 1_555 1_555
C11 C8 1_555 1_555
C12 C5 1_555 1_555
C13 C4 1_555 1_555
C14 C1 1_555 1_555
C15 C9 1_555 1_555
C16 S1 1_555 1_555
C17 S2 1_555 1_555
C18 S3 1_555 1_555
H9 C18 1_555 1_555
H10 C18 1_555 1_555
H11 C18 1_555 1_555
C19 S4 1_555 1_555
H12 C19 1_555 1_555
H13 C19 1_555 1_555
H14 C19 1_555 1_555
C20 C10 1_555 1_555
C21 S5 1_555 1_555
C22 S6 1_555 1_555
C23 S7 1_555 1_555
H15 C23 1_555 1_555
H16 C23 1_555 1_555
H17 C23 1_555 1_555
C24 S8 1_555 1_555
H18 C24 1_555 1_555
H19 C24 1_555 1_555
H20 C24 1_555 1_555
C25 O1 1_555 1_555
H21 C25 1_555 1_555
H22 C25 1_555 1_555
C26 O2 1_555 1_555
H23 C26 1_555 1_555
H24 C26 1_555 1_555
C27 O3 1_555 1_555
H25 C27 1_555 1_555
H26 C27 1_555 1_555
C28 O4 1_555 1_555
H27 C28 1_555 1_555
H28 C28 1_555 1_555
Cl1 O5 1_555 1_555
O6 Cl1 1_555 1_555
O7 Cl1 1_555 1_555
O8 Cl1 1_555 1_555
Cl2 O9 1_555 1_555
O10 Cl2 1_555 1_555
O11 Cl2 1_555 1_555
O12 Cl2 1_555 1_555
C29 H29 1_555 1_555
H30 C29 1_555 1_555
Cl3 C29 1_555 1_555
Cl4 C29 1_555 1_555
C9 C14 1_555 1_555
C10 C13 1_555 1_555
C11 C12 1_555 1_555
C13 C14 1_555 1_555
C16 C17 1_555 1_555
C21 C22 1_555 1_555
C25 C26 1_555 1_555
C27 C28 1_555 1_555

#END
