
#######################################################################
#
#                 Cambridge Crystallographic Data Centre
#                                CCDC 
#
#######################################################################
#
# If this CIF has been generated from an entry in the Cambridge 
# Structural Database, then it will include bibliographic, chemical, 
# crystal, experimental, refinement or atomic coordinate data resulting 
# from the CCDC's data processing and validation procedures.
#
#######################################################################

data_QOSDEH
_chemical_formula_moiety         'C40 H38 O8 S8'
_chemical_name_systematic        
1(1,4)-Benzena-10(2,6)-(9,10-bis(4,5-bis(methylthio)-1,3-dithiol-2-ylidene)-9,10-dihydroanthracena)-3,6,9,11,14,17-hexaoxa-2,18-dioxocyclo-octadecaphane
_symmetry_cell_setting           triclinic
_symmetry_space_group_name_H-M   'P -1'
_symmetry_Int_Tables_number      2
_space_group_name_Hall           '-P 1'
loop_
_symmetry_equiv_pos_site_id
_symmetry_equiv_pos_as_xyz
1 x,y,z
2 -x,-y,-z
_cell_length_a                   12.355(1)
_cell_length_b                   12.645(2)
_cell_length_c                   15.198(1)
_cell_angle_alpha                66.71(1)
_cell_angle_beta                 76.94(1)
_cell_angle_gamma                76.86(1)
_cell_volume                     2099.07
_exptl_crystal_colour            yellow
_cell_formula_units_Z            2
loop_
_atom_site_label
_atom_site_type_symbol
_atom_site_fract_x
_atom_site_fract_y
_atom_site_fract_z
S1 S 0.59650(3) 0.15869(3) 0.44281(2)
S2 S 0.44352(3) 0.26973(3) 0.57144(2)
S3 S 0.65670(3) -0.06553(3) 0.61237(3)
S4 S 0.47612(4) 0.05712(4) 0.75261(3)
S5 S 0.19046(3) 0.25814(3) 0.19357(3)
S6 S 0.04152(3) 0.34483(3) 0.33860(3)
S7 S 0.05495(4) 0.06857(4) 0.23217(3)
S8 S -0.12079(3) 0.17776(4) 0.38860(3)
O1 O 0.70520(9) 0.30076(11) 0.08884(8)
O2 O 0.80611(9) 0.42581(10) 0.17391(9)
O3 O 0.66529(10) 0.62299(10) 0.20503(8)
O4 O 0.72056(10) 0.78090(11) 0.07938(10)
O5 O 0.12971(9) 0.76490(10) 0.08641(8)
O6 O 0.16326(11) 0.94373(11) -0.01526(10)
O7 O -0.03833(8) 0.73820(9) 0.24356(7)
O8 O 0.04713(9) 0.67097(10) 0.42770(8)
C1 C 0.57857(12) 0.32871(12) 0.23152(10)
H1 H 0.6388 0.3161 0.2656
C2 C 0.60041(12) 0.32640(13) 0.13774(10)
C3 C 0.51292(12) 0.35226(13) 0.08512(10)
H2 H 0.5288 0.3538 0.0205
C4 C 0.40249(12) 0.37574(12) 0.12708(10)
H3 H 0.3433 0.3946 0.0903
C5 C 0.14935(12) 0.53485(12) 0.34813(10)
H4 H 0.0899 0.5478 0.3131
C6 C 0.14005(12) 0.59447(12) 0.41021(10)
C7 C 0.22997(13) 0.58055(13) 0.45756(11)
H5 H 0.2243 0.6230 0.4983
C8 C 0.32749(12) 0.50446(13) 0.44492(10)
H6 H 0.3890 0.4970 0.4759
C9 C 0.43638(11) 0.35195(12) 0.37422(10)
C10 C 0.26104(11) 0.38901(12) 0.27338(9)
C11 C 0.33678(11) 0.43847(12) 0.38717(10)
C12 C 0.24652(11) 0.45534(12) 0.33797(9)
C13 C 0.37741(11) 0.37170(12) 0.22269(10)
C14 C 0.46652(11) 0.34970(12) 0.27470(10)
C15 C 0.48700(11) 0.27442(12) 0.45073(10)
C16 C 0.58009(12) 0.07516(12) 0.56748(10)
C17 C 0.50924(13) 0.12534(13) 0.62632(10)
C18 C 0.71987(14) -0.09628(14) 0.50404(12)
H7 H 0.6634(7) -0.0894(12) 0.4690(7)
H8 H 0.7599(11) -0.1724(11) 0.5212(2)
H9 H 0.7693(11) -0.0430(10) 0.4655(7)
C19 C 0.36451(16) -0.01754(16) 0.75666(12)
H10 H 0.3046(9) 0.0387(7) 0.7259(10)
H11 H 0.3361(9) -0.0597(11) 0.8231(8)
H12 H 0.3937(5) -0.0711(11) 0.7232(9)
C20 C 0.17667(11) 0.34090(12) 0.26741(10)
C21 C 0.07871(12) 0.18095(13) 0.26245(11)
C22 C 0.00970(12) 0.22132(13) 0.32825(11)
C23 C 0.19633(18) 0.0000(2) 0.20208(19)
H13 H 0.2274(7) 0.0455(10) 0.1393(10)
H14 H 0.1944(2) -0.0751(12) 0.2041(12)
H15 H 0.2410(8) -0.0060(13) 0.2472(10)
C24 C -0.10610(15) 0.12580(15) 0.51535(12)
H16 H -0.0561(12) 0.0541(12) 0.5314(4)
H17 H -0.1775(10) 0.1145(13) 0.5542(6)
H18 H -0.0769(13) 0.1816(10) 0.5270(3)
C25 C 0.80346(12) 0.26266(14) 0.13556(11)
H19 H 0.8545 0.2025 0.1133
H20 H 0.7808 0.2269 0.2065
C26 C 0.86474(13) 0.36197(15) 0.11401(12)
H21 H 0.9429 0.3318 0.1276
H22 H 0.8674 0.4130 0.0449
C27 C 0.85121(14) 0.52753(15) 0.15583(13)
H23 H 0.8488 0.5811 0.0878
H24 H 0.9304 0.5065 0.1673
C28 C 0.78059(15) 0.58463(15) 0.22431(14)
H25 H 0.7813 0.5289 0.2919
H26 H 0.8133 0.6527 0.2173
C29 C 0.64830(14) 0.72159(14) 0.12781(12)
C30 C 0.52970(13) 0.74930(13) 0.10871(11)
C31 C 0.44964(13) 0.67617(14) 0.16319(11)
H27 H 0.4696 0.6062 0.2151
C32 C 0.34087(13) 0.70617(13) 0.14132(11)
H28 H 0.2868 0.6558 0.1772
C33 C 0.31076(12) 0.81073(13) 0.06658(10)
C34 C 0.39013(13) 0.88447(13) 0.01376(11)
H29 H 0.3691 0.9566 -0.0357
C35 C 0.49962(14) 0.85285(13) 0.03338(11)
H30 H 0.5542 0.9018 -0.0044
C36 C 0.19474(13) 0.84854(13) 0.04077(11)
C37 C 0.01198(13) 0.79752(15) 0.07390(11)
H31 H -0.0161 0.7306 0.0731
H32 H 0.0039 0.8626 0.0113
C38 C -0.05601(12) 0.83414(13) 0.15565(10)
H33 H -0.0310 0.9035 0.1550
H34 H -0.1368 0.8538 0.1491
C39 C -0.10035(12) 0.76008(13) 0.32691(10)
H35 H -0.1817 0.7643 0.3285
H36 H -0.0876 0.8352 0.3257
C40 C -0.06158(12) 0.66180(13) 0.41505(10)
H37 H -0.1166 0.6631 0.4733
H38 H -0.0580 0.5865 0.4079
loop_
_geom_bond_atom_site_label_1
_geom_bond_atom_site_label_2
_geom_bond_site_symmetry_1
_geom_bond_site_symmetry_2
S1 C15 1_555 1_555
S2 C15 1_555 1_555
S3 C16 1_555 1_555
S4 C17 1_555 1_555
S5 C20 1_555 1_555
S6 C20 1_555 1_555
S7 C21 1_555 1_555
S8 C22 1_555 1_555
O1 C2 1_555 1_555
O2 C26 1_555 1_555
O3 C28 1_555 1_555
O4 C29 1_555 1_555
O5 C36 1_555 1_555
O6 C36 1_555 1_555
O7 C38 1_555 1_555
O8 C6 1_555 1_555
C1 H1 1_555 1_555
C2 C1 1_555 1_555
C3 C2 1_555 1_555
H2 C3 1_555 1_555
C4 C3 1_555 1_555
H3 C4 1_555 1_555
C5 H4 1_555 1_555
C6 C5 1_555 1_555
C7 C6 1_555 1_555
H5 C7 1_555 1_555
C8 C7 1_555 1_555
H6 C8 1_555 1_555
C9 C11 1_555 1_555
C10 C12 1_555 1_555
C11 C8 1_555 1_555
C12 C5 1_555 1_555
C13 C4 1_555 1_555
C14 C1 1_555 1_555
C15 C9 1_555 1_555
C16 S1 1_555 1_555
C17 S2 1_555 1_555
C18 S3 1_555 1_555
H7 C18 1_555 1_555
H8 C18 1_555 1_555
H9 C18 1_555 1_555
C19 S4 1_555 1_555
H10 C19 1_555 1_555
H11 C19 1_555 1_555
H12 C19 1_555 1_555
C20 C10 1_555 1_555
C21 S5 1_555 1_555
C22 S6 1_555 1_555
C23 S7 1_555 1_555
H13 C23 1_555 1_555
H14 C23 1_555 1_555
H15 C23 1_555 1_555
C24 S8 1_555 1_555
H16 C24 1_555 1_555
H17 C24 1_555 1_555
H18 C24 1_555 1_555
C25 O1 1_555 1_555
H19 C25 1_555 1_555
H20 C25 1_555 1_555
C26 C25 1_555 1_555
H21 C26 1_555 1_555
H22 C26 1_555 1_555
C27 O2 1_555 1_555
H23 C27 1_555 1_555
H24 C27 1_555 1_555
C28 C27 1_555 1_555
H25 C28 1_555 1_555
H26 C28 1_555 1_555
C29 O3 1_555 1_555
C30 C29 1_555 1_555
C31 C30 1_555 1_555
H27 C31 1_555 1_555
C32 C31 1_555 1_555
H28 C32 1_555 1_555
C33 C32 1_555 1_555
C34 C33 1_555 1_555
H29 C34 1_555 1_555
C35 C30 1_555 1_555
H30 C35 1_555 1_555
C36 C33 1_555 1_555
C37 O5 1_555 1_555
H31 C37 1_555 1_555
H32 C37 1_555 1_555
C38 C37 1_555 1_555
H33 C38 1_555 1_555
H34 C38 1_555 1_555
C39 O7 1_555 1_555
H35 C39 1_555 1_555
H36 C39 1_555 1_555
C40 O8 1_555 1_555
H37 C40 1_555 1_555
H38 C40 1_555 1_555
C9 C14 1_555 1_555
C10 C13 1_555 1_555
C11 C12 1_555 1_555
C13 C14 1_555 1_555
C16 C17 1_555 1_555
C21 C22 1_555 1_555
C34 C35 1_555 1_555
C39 C40 1_555 1_555

#END
