
#######################################################################
#
#                 Cambridge Crystallographic Data Centre
#                                CCDC 
#
#######################################################################
#
# If this CIF has been generated from an entry in the Cambridge 
# Structural Database, then it will include bibliographic, chemical, 
# crystal, experimental, refinement or atomic coordinate data resulting 
# from the CCDC's data processing and validation procedures.
#
#######################################################################

data_QOSPUJ
_chemical_formula_moiety         'C21 H28 N3 O2 1+,B1 F4 1-,0.5(C1 H1 Cl3)'
_chemical_name_systematic        
"1,3,3'',4,4'',5,5'',6,6',6'',6a',10b'-Dodecahydro-3'H-dispiro(pyran-2,2'-(4-azonia-3,10c)diazafluoranthene-5',2''-pyran) tetrafluoroborate chloroform solvate"
_symmetry_cell_setting           monoclinic
_symmetry_space_group_name_H-M   'C 2/c'
_symmetry_Int_Tables_number      15
_space_group_name_Hall           '-C 2yn'
loop_
_symmetry_equiv_pos_site_id
_symmetry_equiv_pos_as_xyz
1 x,y,z
2 1/2+x,1/2+y,z
3 x,-y,1/2+z
4 1/2+x,1/2-y,1/2+z
5 -x,-y,-z
6 1/2-x,1/2-y,-z
7 -x,y,1/2-z
8 1/2-x,1/2+y,1/2-z
_cell_length_a                   18.3030(13)
_cell_length_b                   16.4210(9)
_cell_length_c                   17.961(4)
_cell_angle_alpha                90
_cell_angle_beta                 119.300(13)
_cell_angle_gamma                90
_cell_volume                     4707.64
_exptl_crystal_description       prism
_cell_formula_units_Z            8
loop_
_atom_site_label
_atom_site_type_symbol
_atom_site_fract_x
_atom_site_fract_y
_atom_site_fract_z
C1 C 0.0000 0.1244(6) 0.2500
Cl4 Cl -0.0731(4) 0.1349(3) 0.1394(3)
Cl5 Cl 0.0000 0.0199(4) 0.2500
Cl4F Cl 0.0731(4) 0.1349(3) 0.3606(3)
B1 B 0.1886(4) 0.7043(4) 0.2983(4)
F2 F 0.2386(9) 0.6874(12) 0.3774(10)
F4 F 0.1817(7) 0.7867(7) 0.2928(8)
F5 F 0.2278(7) 0.6802(8) 0.2525(7)
F7 F 0.11509(18) 0.6644(2) 0.27229(18)
N1 N 0.0171(2) 0.3545(2) 0.0933(2)
N2 N 0.1008(2) 0.2803(2) 0.0546(2)
H1 H 0.1502 0.2651 0.0661
N3 N 0.1605(2) 0.3559(2) 0.1802(2)
H2 H 0.2088 0.3376 0.1911
O1 O -0.00608(18) 0.18119(19) -0.00574(19)
O2 O 0.13795(19) 0.3725(2) 0.29818(18)
C2 C -0.0748(3) 0.4596(3) 0.0742(3)
C3 C -0.1107(3) 0.5316(3) 0.0787(3)
H3 H -0.0861 0.5634 0.1278
C4 C -0.1844(3) 0.5550(3) 0.0084(3)
H4 H -0.2091 0.6040 0.0099
C5 C -0.2221(3) 0.5079(3) -0.0639(3)
H5 H -0.2721 0.5252 -0.1103
C6 C -0.1863(3) 0.4346(3) -0.0684(3)
H6 H -0.2121 0.4021 -0.1170
C7 C -0.1115(3) 0.4114(3) 0.0011(3)
C8 C -0.0599(3) 0.3362(3) 0.0134(3)
H7 H -0.0879 0.2896 0.0228
C9 C -0.0393(3) 0.3152(3) -0.0558(3)
H8 H -0.0204 0.3636 -0.0722
H9 H -0.0892 0.2953 -0.1055
C10 C 0.0286(3) 0.2506(3) -0.0247(3)
C11 C 0.0930(3) 0.3301(3) 0.1096(3)
C12 C 0.0042(3) 0.4186(3) 0.1434(3)
H10 H -0.0084 0.3930 0.1851
C13 C 0.0822(3) 0.4687(3) 0.1896(3)
H11 H 0.0762 0.5066 0.2277
H12 H 0.0910 0.4999 0.1488
C14 C 0.1566(3) 0.4139(3) 0.2404(3)
C15 C 0.2383(3) 0.4624(3) 0.2871(3)
H13 H 0.2537 0.4819 0.2457
H14 H 0.2289 0.5096 0.3138
C16 C 0.3104(3) 0.4136(3) 0.3547(3)
H15 H 0.3573 0.4494 0.3884
H16 H 0.3286 0.3734 0.3276
C17 C 0.2828(3) 0.3708(3) 0.4129(3)
H17 H 0.3271 0.3351 0.4524
H18 H 0.2719 0.4110 0.4458
C18 C 0.2047(3) 0.3220(3) 0.3590(3)
H19 H 0.2170 0.2798 0.3290
H20 H 0.1868 0.2956 0.3958
C19 C 0.0469(3) 0.1101(3) 0.0191(3)
H21 H 0.0190 0.0656 0.0305
H22 H 0.0986 0.1216 0.0712
C20 C 0.0665(3) 0.0854(3) -0.0491(3)
H23 H 0.0152 0.0694 -0.0998
H24 H 0.1037 0.0387 -0.0299
C21 C 0.1072(3) 0.1536(3) -0.0711(3)
H25 H 0.1127 0.1385 -0.1203
H26 H 0.1628 0.1635 -0.0235
C22 C 0.0547(3) 0.2310(3) -0.0909(3)
H27 H 0.0867 0.2764 -0.0946
H28 H 0.0048 0.2251 -0.1461
Cl1? Cl 0.0993(3) 0.1414(4) 0.2339(3)
Cl2? Cl -0.0055(6) 0.1715(10) 0.1761(7)
Cl3? Cl 0.0217(8) 0.2088(7) 0.2067(8)
Cl6? Cl -0.0849(6) 0.0649(9) 0.2203(12)
F1? F 0.2372(9) 0.7023(12) 0.3911(14)
F3? F 0.1706(10) 0.7836(10) 0.2727(8)
F6? F 0.2302(19) 0.6686(19) 0.267(2)
loop_
_geom_bond_atom_site_label_1
_geom_bond_atom_site_label_2
_geom_bond_site_symmetry_1
_geom_bond_site_symmetry_2
C1 Cl4 1_555 1_555
Cl5 C1 1_555 1_555
B1 F2 1_555 1_555
F4 B1 1_555 1_555
F5 B1 1_555 1_555
F7 B1 1_555 1_555
N1 C8 1_555 1_555
N2 H1 1_555 1_555
N3 H2 1_555 1_555
O1 C10 1_555 1_555
O2 C14 1_555 1_555
C2 C3 1_555 1_555
C3 H3 1_555 1_555
C4 C3 1_555 1_555
H4 C4 1_555 1_555
C5 C4 1_555 1_555
H5 C5 1_555 1_555
C6 C5 1_555 1_555
H6 C6 1_555 1_555
C7 C2 1_555 1_555
C8 C7 1_555 1_555
H7 C8 1_555 1_555
C9 C8 1_555 1_555
H8 C9 1_555 1_555
H9 C9 1_555 1_555
C10 N2 1_555 1_555
C11 N1 1_555 1_555
C12 N1 1_555 1_555
H10 C12 1_555 1_555
C13 C12 1_555 1_555
H11 C13 1_555 1_555
H12 C13 1_555 1_555
C14 N3 1_555 1_555
C15 C14 1_555 1_555
H13 C15 1_555 1_555
H14 C15 1_555 1_555
C16 C15 1_555 1_555
H15 C16 1_555 1_555
H16 C16 1_555 1_555
C17 C16 1_555 1_555
H17 C17 1_555 1_555
H18 C17 1_555 1_555
C18 O2 1_555 1_555
H19 C18 1_555 1_555
H20 C18 1_555 1_555
C19 O1 1_555 1_555
H21 C19 1_555 1_555
H22 C19 1_555 1_555
C20 C19 1_555 1_555
H23 C20 1_555 1_555
H24 C20 1_555 1_555
C21 C20 1_555 1_555
H25 C21 1_555 1_555
H26 C21 1_555 1_555
C22 C10 1_555 1_555
H27 C22 1_555 1_555
H28 C22 1_555 1_555
Cl4F C1 1_555 1_555
N2 C11 1_555 1_555
N3 C11 1_555 1_555
C2 C12 1_555 1_555
C6 C7 1_555 1_555
C9 C10 1_555 1_555
C13 C14 1_555 1_555
C17 C18 1_555 1_555
C21 C22 1_555 1_555

#END
