
#######################################################################
#
#                 Cambridge Crystallographic Data Centre
#                                CCDC 
#
#######################################################################
#
# If this CIF has been generated from an entry in the Cambridge 
# Structural Database, then it will include bibliographic, chemical, 
# crystal, experimental, refinement or atomic coordinate data resulting 
# from the CCDC's data processing and validation procedures.
#
#######################################################################

data_QOSROH
_chemical_formula_moiety         'C27 H31 Cl1 O8'
_chemical_name_systematic        
'2-(4-chloro-3-(4-ethoxybenzyl)phenyl)-6-methyltetrahydro-2H-pyran-3,4,5-triyl triacetate'
_symmetry_cell_setting           monoclinic
_symmetry_space_group_name_H-M   'P 21'
_symmetry_Int_Tables_number      4
_space_group_name_Hall           'P 2yb'
loop_
_symmetry_equiv_pos_site_id
_symmetry_equiv_pos_as_xyz
1 x,y,z
2 -x,1/2+y,-z
_cell_length_a                   5.3913(11)
_cell_length_b                   16.137(3)
_cell_length_c                   15.411(3)
_cell_angle_alpha                90
_cell_angle_beta                 94.15(3)
_cell_angle_gamma                90
_cell_volume                     1337.23
_cell_formula_units_Z            2
loop_
_atom_site_label
_atom_site_type_symbol
_atom_site_fract_x
_atom_site_fract_y
_atom_site_fract_z
Cl1 Cl 0.49249(11) 0.42790(4) 0.10379(4)
O1 O 1.2165(3) 0.64035(10) 0.39367(10)
O2 O 1.0422(2) 0.78409(9) 0.21579(9)
O3 O 0.6302(3) 0.75969(10) 0.20460(10)
O4 O 1.1013(2) 0.88723(9) 0.36088(9)
O5 O 1.4316(3) 0.96531(11) 0.33466(13)
O6 O 1.5425(2) 0.82431(9) 0.47585(9)
O7 O 1.3214(6) 0.9176(3) 0.5472(3)
O8 O 0.1588(3) 0.69083(12) -0.20340(11)
C1 C 1.4553(6) 0.65161(17) 0.52904(17)
H1 H 1.3039 0.6554 0.5604
H2 H 1.5897 0.6823 0.5609
H3 H 1.5035 0.5933 0.5241
C2 C 1.4070(4) 0.68827(14) 0.43906(15)
H4 H 1.5623 0.6848 0.4075
C3 C 1.3241(4) 0.77855(13) 0.44292(13)
H5 H 1.1876 0.7847 0.4830
C4 C 1.2419(4) 0.81155(13) 0.35333(13)
H6 H 1.3908 0.8224 0.3199
C5 C 1.0689(4) 0.75181(13) 0.30347(12)
H7 H 0.9036 0.7511 0.3290
C6 C 1.1794(4) 0.66437(13) 0.30466(13)
H8 H 1.3435 0.6658 0.2784
C7 C 1.0122(4) 0.60220(13) 0.25628(14)
C8 C 0.8375(4) 0.55658(13) 0.29809(14)
H9 H 0.8261 0.5623 0.3590
C9 C 0.6797(4) 0.50271(14) 0.25054(14)
H10 H 0.5607 0.4710 0.2787
C10 C 0.6971(4) 0.49565(13) 0.16195(14)
C11 C 0.8706(4) 0.53907(14) 0.11768(14)
C12 C 1.0289(4) 0.59194(14) 0.16766(14)
H11 H 1.1524 0.6219 0.1398
C13 C 0.8128(4) 0.78765(14) 0.17583(14)
C14 C 0.8163(5) 0.83265(17) 0.08984(17)
H12 H 0.6847 0.8106 0.0490
H13 H 0.9781 0.8246 0.0660
H14 H 0.7882 0.8919 0.0988
C15 C 1.2155(4) 0.95999(14) 0.34755(15)
C16 C 1.0411(5) 1.03036(16) 0.3539(2)
H15 H 1.0621 1.0544 0.4124
H16 H 0.8699 1.0106 0.3429
H17 H 1.0761 1.0726 0.3108
C17 C 1.5182(4) 0.88514(18) 0.53269(17)
C18 C 1.7550(4) 0.92857(16) 0.55416(16)
H18 H 1.7226 0.9810 0.5833
H19 H 1.8366 0.9398 0.5006
H20 H 1.8634 0.8938 0.5928
C19 C 0.8921(4) 0.53027(15) 0.02138(14)
H21 H 0.8866 0.4706 0.0062
H22 H 1.0560 0.5520 0.0070
C20 C 0.6900(4) 0.57506(14) -0.03413(14)
C21 C 0.6461(5) 0.55238(17) -0.12148(16)
H23 H 0.7407 0.5088 -0.1442
C22 C 0.4683(5) 0.59195(18) -0.17531(16)
H24 H 0.4416 0.5752 -0.2344
C23 C 0.3278(4) 0.65607(15) -0.14400(15)
C24 C 0.3696(4) 0.67974(15) -0.05778(14)
H25 H 0.2761 0.7237 -0.0353
C25 C 0.5490(4) 0.63891(15) -0.00439(14)
H26 H 0.5754 0.6556 0.0547
C26 C 0.0002(5) 0.75431(16) -0.17516(16)
H27 H 0.0994 0.8015 -0.1506
H28 H -0.1047 0.7329 -0.1300
C27 C -0.1589(7) 0.7810(2) -0.2546(2)
H29 H -0.0520 0.7984 -0.3001
H30 H -0.2649 0.8274 -0.2396
H31 H -0.2633 0.7345 -0.2759
O9? O 1.3434(12) 0.8720(8) 0.5851(7)
loop_
_geom_bond_atom_site_label_1
_geom_bond_atom_site_label_2
_geom_bond_site_symmetry_1
_geom_bond_site_symmetry_2
Cl1 C10 1_555 1_555
O1 C2 1_555 1_555
O2 C5 1_555 1_555
O3 C13 1_555 1_555
O4 C4 1_555 1_555
O5 C15 1_555 1_555
O6 C3 1_555 1_555
O7 C17 1_555 1_555
O8 C23 1_555 1_555
C1 H1 1_555 1_555
H2 C1 1_555 1_555
H3 C1 1_555 1_555
C2 C1 1_555 1_555
H4 C2 1_555 1_555
C3 C2 1_555 1_555
H5 C3 1_555 1_555
C4 C3 1_555 1_555
H6 C4 1_555 1_555
C5 C4 1_555 1_555
H7 C5 1_555 1_555
C6 O1 1_555 1_555
H8 C6 1_555 1_555
C7 C6 1_555 1_555
C8 C7 1_555 1_555
H9 C8 1_555 1_555
C9 C8 1_555 1_555
H10 C9 1_555 1_555
C10 C9 1_555 1_555
C11 C10 1_555 1_555
C12 C7 1_555 1_555
H11 C12 1_555 1_555
C13 O2 1_555 1_555
C14 C13 1_555 1_555
H12 C14 1_555 1_555
H13 C14 1_555 1_555
H14 C14 1_555 1_555
C15 O4 1_555 1_555
C16 C15 1_555 1_555
H15 C16 1_555 1_555
H16 C16 1_555 1_555
H17 C16 1_555 1_555
C17 O6 1_555 1_555
C18 C17 1_555 1_555
H18 C18 1_555 1_555
H19 C18 1_555 1_555
H20 C18 1_555 1_555
C19 C11 1_555 1_555
H21 C19 1_555 1_555
H22 C19 1_555 1_555
C20 C19 1_555 1_555
C21 C20 1_555 1_555
H23 C21 1_555 1_555
C22 C21 1_555 1_555
H24 C22 1_555 1_555
C23 C22 1_555 1_555
C24 C23 1_555 1_555
H25 C24 1_555 1_555
C25 C20 1_555 1_555
H26 C25 1_555 1_555
C26 O8 1_555 1_555
H27 C26 1_555 1_555
H28 C26 1_555 1_555
C27 C26 1_555 1_555
H29 C27 1_555 1_555
H30 C27 1_555 1_555
H31 C27 1_555 1_555
C5 C6 1_555 1_555
C11 C12 1_555 1_555
C24 C25 1_555 1_555

#END
