
#######################################################################
#
#                 Cambridge Crystallographic Data Centre
#                                CCDC 
#
#######################################################################
#
# If this CIF has been generated from an entry in the Cambridge 
# Structural Database, then it will include bibliographic, chemical, 
# crystal, experimental, refinement or atomic coordinate data resulting 
# from the CCDC's data processing and validation procedures.
#
#######################################################################

data_QOSXEC
_chemical_formula_moiety         'C24 H26 O2,C24 H26 O2'
_chemical_name_systematic        
'14-(Benzyloxy)-13,13-dimethyl-10-oxapentacyclo[7.6.1.0^1,11^.0^2,11^.0^3,8^]hexadeca-3,5,7-triene 13-(benzyloxy)-14,14-dimethyl-10-oxapentacyclo[7.6.1.0^1,11^.0^2,11^.0^3,8^]hexadeca-3,5,7-triene'
_symmetry_cell_setting           triclinic
_symmetry_space_group_name_H-M   'P -1'
_symmetry_Int_Tables_number      2
_space_group_name_Hall           '-P 1'
loop_
_symmetry_equiv_pos_site_id
_symmetry_equiv_pos_as_xyz
1 x,y,z
2 -x,-y,-z
_cell_length_a                   9.9981(7)
_cell_length_b                   13.0867(9)
_cell_length_c                   15.7675(11)
_cell_angle_alpha                71.920(2)
_cell_angle_beta                 89.059(2)
_cell_angle_gamma                72.777(2)
_cell_volume                     1866.77
_exptl_crystal_colour            white
_exptl_crystal_description       block
_cell_formula_units_Z            2
loop_
_atom_site_label
_atom_site_type_symbol
_atom_site_fract_x
_atom_site_fract_y
_atom_site_fract_z
C1 C 0.6482(4) -0.0439(3) 0.1802(2)
C2 C 0.7288(4) -0.1492(3) 0.2355(3)
H1 H 0.8263 -0.1701 0.2368
C3 C 0.6630(4) -0.2229(3) 0.2890(3)
H2 H 0.7166 -0.2937 0.3259
C4 C 0.5171(4) -0.1912(3) 0.2876(3)
H3 H 0.4737 -0.2410 0.3236
C5 C 0.4349(4) -0.0847(3) 0.2324(3)
H4 H 0.3374 -0.0638 0.2316
C6 C 0.5006(4) -0.0109(3) 0.1788(2)
C7 C 0.4271(4) 0.1036(3) 0.1186(3)
H5 H 0.3247 0.1300 0.1192
C8 C 0.4894(4) 0.1497(3) 0.0292(2)
C9 C 0.7034(4) 0.0447(3) 0.1186(2)
H6 H 0.8063 0.0211 0.1220
C10 C 0.6450(3) 0.1472(2) 0.14278(19)
H7 H 0.6488 0.1296 0.2073
H8 H 0.6965 0.2005 0.1184
C11 C 0.5040(4) 0.1920(3) 0.1052(2)
C12 C 0.3906(4) 0.2271(3) -0.0525(2)
H9 H 0.3024 0.2097 -0.0480
H10 H 0.4313 0.2130 -0.1056
C13 C 0.3610(4) 0.3532(3) -0.0629(3)
C14 C 0.4929(5) 0.3882(3) -0.0897(3)
H11 H 0.4763 0.4650 -0.0917
H12 H 0.5147 0.3815 -0.1477
H13 H 0.5702 0.3399 -0.0465
C15 C 0.2409(5) 0.4233(3) -0.1374(3)
H14 H 0.2247 0.5022 -0.1469
H15 H 0.1568 0.4041 -0.1196
H16 H 0.2666 0.4070 -0.1918
C16 C 0.4334(4) 0.3106(3) 0.1026(3)
H17 H 0.5019 0.3515 0.0936
H18 H 0.3948 0.3108 0.1594
C17 C 0.3145(4) 0.3704(3) 0.0262(3)
H19 H 0.2357 0.3402 0.0432
C18 C 0.1945(5) 0.5176(3) 0.0848(3)
H20 H 0.2605 0.4975 0.1360
H21 H 0.1276 0.4757 0.1023
C19 C 0.1188(4) 0.6416(3) 0.0559(3)
C20 C 0.0555(4) 0.6988(3) -0.0303(3)
H22 H 0.0623 0.6602 -0.0715
C21 C -0.0178(4) 0.8133(3) -0.0556(3)
H23 H -0.0602 0.8509 -0.1135
C22 C -0.0279(4) 0.8714(3) 0.0052(3)
H24 H -0.0781 0.9478 -0.0116
C23 C 0.0364(4) 0.8162(4) 0.0909(3)
H25 H 0.0307 0.8554 0.1316
C24 C 0.1094(4) 0.7020(3) 0.1157(3)
H26 H 0.1530 0.6650 0.1734
O1 O 0.6375(4) 0.0773(3) 0.0220(3)
O2 O 0.2674(3) 0.4892(2) 0.01324(17)
C25 C 0.0042(4) 1.1085(3) 0.3027(2)
C26 C -0.0392(4) 1.2252(3) 0.2624(2)
H27 H -0.1292 1.2625 0.2341
C27 C 0.0539(5) 1.2853(3) 0.2651(3)
H28 H 0.0259 1.3633 0.2385
C28 C 0.1882(5) 1.2292(3) 0.3072(3)
H29 H 0.2499 1.2697 0.3086
C29 C 0.2309(4) 1.1126(3) 0.3472(3)
H30 H 0.3213 1.0754 0.3749
C30 C 0.1389(4) 1.0517(3) 0.3460(2)
C31 C 0.1717(4) 0.9279(3) 0.3869(2)
H31 H 0.2670 0.8860 0.4152
C32 C 0.0514(4) 0.8808(3) 0.4285(2)
C33 C -0.0931(4) 0.9673(3) 0.4047(3)
H32 H -0.1099 1.0165 0.4413
H33 H -0.1665 0.9315 0.4108
C34 C -0.0831(4) 1.0316(3) 0.3063(2)
H34 H -0.1758 1.0724 0.2738
C35 C 0.1004(4) 0.8679(3) 0.3414(2)
C36 C 0.0880(4) 0.7780(3) 0.5121(2)
H35 H 0.0108 0.7848 0.5501
H36 H 0.1702 0.7764 0.5449
C37 C 0.1179(4) 0.6658(3) 0.4918(2)
C38 C 0.1697(4) 0.7546(3) 0.3305(2)
H37 H 0.2465 0.7592 0.2926
H38 H 0.1023 0.7335 0.3013
C39 C 0.1793(4) 0.5679(3) 0.5788(3)
H39 H 0.1930 0.4973 0.5682
H40 H 0.1154 0.5737 0.6244
H41 H 0.2678 0.5717 0.5981
C40 C -0.0189(4) 0.6567(3) 0.4573(3)
H42 H -0.0667 0.7256 0.4110
H43 H -0.0780 0.6439 0.5056
H44 H 0.0020 0.5949 0.4336
C41 C 0.2265(4) 0.6634(3) 0.4217(3)
H45 H 0.3098 0.6751 0.4441
C42 C 0.3950(4) 0.5232(3) 0.3724(3)
H46 H 0.4661 0.5424 0.4000
H47 H 0.3832 0.5648 0.3089
C43 C 0.4410(4) 0.3982(3) 0.3865(3)
C44 C 0.4159(4) 0.3226(3) 0.4636(3)
H48 H 0.3657 0.3492 0.5066
C45 C 0.4653(4) 0.2066(3) 0.4774(3)
H49 H 0.4477 0.1563 0.5294
C46 C 0.5404(4) 0.1664(3) 0.4138(3)
H50 H 0.5743 0.0891 0.4233
C47 C 0.5649(4) 0.2419(3) 0.3355(3)
H51 H 0.6143 0.2153 0.2923
C48 C 0.5152(4) 0.3574(3) 0.3221(3)
H52 H 0.5316 0.4078 0.2698
O3 O -0.0020(3) 0.9431(2) 0.27055(17)
O4 O 0.2655(3) 0.5533(2) 0.41136(18)
loop_
_geom_bond_atom_site_label_1
_geom_bond_atom_site_label_2
_geom_bond_site_symmetry_1
_geom_bond_site_symmetry_2
C1 C2 1_555 1_555
C2 H1 1_555 1_555
C3 C2 1_555 1_555
H2 C3 1_555 1_555
C4 C3 1_555 1_555
H3 C4 1_555 1_555
C5 C4 1_555 1_555
H4 C5 1_555 1_555
C6 C1 1_555 1_555
C7 C6 1_555 1_555
H5 C7 1_555 1_555
C8 C7 1_555 1_555
C9 C1 1_555 1_555
H6 C9 1_555 1_555
C10 C9 1_555 1_555
H7 C10 1_555 1_555
H8 C10 1_555 1_555
C11 C7 1_555 1_555
C12 C8 1_555 1_555
H9 C12 1_555 1_555
H10 C12 1_555 1_555
C13 C12 1_555 1_555
C14 C13 1_555 1_555
H11 C14 1_555 1_555
H12 C14 1_555 1_555
H13 C14 1_555 1_555
C15 C13 1_555 1_555
H14 C15 1_555 1_555
H15 C15 1_555 1_555
H16 C15 1_555 1_555
C16 C11 1_555 1_555
H17 C16 1_555 1_555
H18 C16 1_555 1_555
C17 C13 1_555 1_555
H19 C17 1_555 1_555
C18 H20 1_555 1_555
H21 C18 1_555 1_555
C19 C18 1_555 1_555
C20 C19 1_555 1_555
H22 C20 1_555 1_555
C21 C20 1_555 1_555
H23 C21 1_555 1_555
C22 C21 1_555 1_555
H24 C22 1_555 1_555
C23 C22 1_555 1_555
H25 C23 1_555 1_555
C24 C19 1_555 1_555
H26 C24 1_555 1_555
O1 C8 1_555 1_555
O2 C17 1_555 1_555
C25 C26 1_555 1_555
C26 H27 1_555 1_555
C27 C26 1_555 1_555
H28 C27 1_555 1_555
C28 C27 1_555 1_555
H29 C28 1_555 1_555
C29 C28 1_555 1_555
H30 C29 1_555 1_555
C30 C25 1_555 1_555
C31 C30 1_555 1_555
H31 C31 1_555 1_555
C32 C31 1_555 1_555
C33 C32 1_555 1_555
H32 C33 1_555 1_555
H33 C33 1_555 1_555
C34 C25 1_555 1_555
H34 C34 1_555 1_555
C35 C31 1_555 1_555
C36 C32 1_555 1_555
H35 C36 1_555 1_555
H36 C36 1_555 1_555
C37 C36 1_555 1_555
C38 C35 1_555 1_555
H37 C38 1_555 1_555
H38 C38 1_555 1_555
C39 C37 1_555 1_555
H39 C39 1_555 1_555
H40 C39 1_555 1_555
H41 C39 1_555 1_555
C40 C37 1_555 1_555
H42 C40 1_555 1_555
H43 C40 1_555 1_555
H44 C40 1_555 1_555
C41 C37 1_555 1_555
H45 C41 1_555 1_555
C42 H46 1_555 1_555
H47 C42 1_555 1_555
C43 C42 1_555 1_555
C44 C43 1_555 1_555
H48 C44 1_555 1_555
C45 C44 1_555 1_555
H49 C45 1_555 1_555
C46 C45 1_555 1_555
H50 C46 1_555 1_555
C47 C46 1_555 1_555
H51 C47 1_555 1_555
C48 C43 1_555 1_555
H52 C48 1_555 1_555
O3 C34 1_555 1_555
O4 C41 1_555 1_555
C5 C6 1_555 1_555
C8 C11 1_555 1_555
C9 O1 1_555 1_555
C10 C11 1_555 1_555
C16 C17 1_555 1_555
C18 O2 1_555 1_555
C23 C24 1_555 1_555
C29 C30 1_555 1_555
C32 C35 1_555 1_555
C33 C34 1_555 1_555
C35 O3 1_555 1_555
C38 C41 1_555 1_555
C42 O4 1_555 1_555
C47 C48 1_555 1_555

#END
