
#######################################################################
#
#                 Cambridge Crystallographic Data Centre
#                                CCDC 
#
#######################################################################
#
# If this CIF has been generated from an entry in the Cambridge 
# Structural Database, then it will include bibliographic, chemical, 
# crystal, experimental, refinement or atomic coordinate data resulting 
# from the CCDC's data processing and validation procedures.
#
#######################################################################

data_QOSZAA
_chemical_formula_moiety         'C21 H15 Br1 O2'
_chemical_name_systematic        
'Methyl 1-(4-bromophenyl)-1H-cyclopenta[a]naphthalene-3-carboxylate'
_symmetry_cell_setting           monoclinic
_symmetry_space_group_name_H-M   'P 21/c'
_symmetry_Int_Tables_number      14
_space_group_name_Hall           '-P 2ybc'
loop_
_symmetry_equiv_pos_site_id
_symmetry_equiv_pos_as_xyz
1 x,y,z
2 -x,1/2+y,1/2-z
3 -x,-y,-z
4 x,1/2-y,1/2+z
_cell_length_a                   13.181(2)
_cell_length_b                   5.5982(10)
_cell_length_c                   23.583(4)
_cell_angle_alpha                90
_cell_angle_beta                 104.200(12)
_cell_angle_gamma                90
_cell_volume                     1687.02
_cell_formula_units_Z            4
loop_
_atom_site_label
_atom_site_type_symbol
_atom_site_fract_x
_atom_site_fract_y
_atom_site_fract_z
Br1 Br 0.01951(7) 0.6972(2) 0.12088(4)
C1 C 0.1013(5) 0.7068(13) 0.1987(3)
C2 C 0.5502(5) 1.0495(13) 0.3820(3)
C3 C 0.2245(5) 0.7143(11) 0.3135(3)
C4 C 0.4862(5) 0.6996(12) 0.3227(3)
H1 H 0.4366 0.5799 0.3111
C5 C 0.2898(5) 0.7186(13) 0.3758(3)
H2 H 0.3113 0.5554 0.3882
C6 C 0.2284(5) 0.8950(12) 0.2746(3)
H3 H 0.2730 1.0236 0.2870
C7 C 0.1684(5) 0.8922(13) 0.2175(3)
H4 H 0.1737 1.0160 0.1921
C8 C 0.3851(5) 0.8794(12) 0.3885(3)
C9 C 0.3795(6) 1.0544(16) 0.4297(3)
C10 C 0.4720(5) 0.8707(11) 0.3643(3)
C11 C 0.5701(6) 0.7062(14) 0.2995(4)
H5 H 0.5773 0.5917 0.2722
C12 C 0.1565(6) 0.5262(12) 0.2938(4)
H6 H 0.1520 0.4006 0.3188
C13 C 0.6457(6) 0.8816(18) 0.3160(4)
H7 H 0.7029 0.8846 0.2995
C14 C 0.6366(6) 1.0504(16) 0.3562(4)
H8 H 0.6878 1.1674 0.3668
C15 C 0.0954(6) 0.5245(15) 0.2369(4)
H9 H 0.0496 0.3980 0.2243
C16 C 0.2305(7) 0.828(2) 0.4183(4)
H10 H 0.1674 0.7693 0.4236
C17 C 0.4603(10) 1.2264(15) 0.4468(4)
H11 H 0.4558 1.3423 0.4743
C18 C 0.5418(8) 1.2217(16) 0.4236(4)
H12 H 0.5945 1.3347 0.4352
C19 C 0.2461(7) 1.203(2) 0.4905(4)
C20 C 0.2804(8) 1.016(2) 0.4466(3)
O1 O 0.1611(7) 1.102(2) 0.4988(3)
O2 O 0.2931(9) 1.3658(18) 0.5076(4)
C21 C 0.1334(12) 1.313(3) 0.5378(5)
H13 H 0.1476 1.2631 0.5779
H14 H 0.0606 1.3533 0.5244
H15 H 0.1752 1.4508 0.5347
loop_
_geom_bond_atom_site_label_1
_geom_bond_atom_site_label_2
_geom_bond_site_symmetry_1
_geom_bond_site_symmetry_2
Br1 C1 1_555 1_555
C1 C7 1_555 1_555
C2 C10 1_555 1_555
C3 C5 1_555 1_555
C4 H1 1_555 1_555
C5 H2 1_555 1_555
C6 C3 1_555 1_555
H3 C6 1_555 1_555
C7 C6 1_555 1_555
H4 C7 1_555 1_555
C8 C5 1_555 1_555
C9 C8 1_555 1_555
C10 C4 1_555 1_555
C11 C4 1_555 1_555
H5 C11 1_555 1_555
C12 C3 1_555 1_555
H6 C12 1_555 1_555
C13 C11 1_555 1_555
H7 C13 1_555 1_555
C14 C2 1_555 1_555
H8 C14 1_555 1_555
C15 C1 1_555 1_555
H9 C15 1_555 1_555
C16 C5 1_555 1_555
H10 C16 1_555 1_555
C17 C9 1_555 1_555
H11 C17 1_555 1_555
C18 C2 1_555 1_555
H12 C18 1_555 1_555
C19 C20 1_555 1_555
C20 C9 1_555 1_555
O1 C19 1_555 1_555
O2 C19 1_555 1_555
C21 O1 1_555 1_555
H13 C21 1_555 1_555
H14 C21 1_555 1_555
H15 C21 1_555 1_555
C8 C10 1_555 1_555
C12 C15 1_555 1_555
C13 C14 1_555 1_555
C16 C20 1_555 1_555
C17 C18 1_555 1_555

#END
