
#######################################################################
#
#                 Cambridge Crystallographic Data Centre
#                                CCDC 
#
#######################################################################
#
# If this CIF has been generated from an entry in the Cambridge 
# Structural Database, then it will include bibliographic, chemical, 
# crystal, experimental, refinement or atomic coordinate data resulting 
# from the CCDC's data processing and validation procedures.
#
#######################################################################

data_QOTCOR
_chemical_formula_moiety         
'0.65(C10 H6 N2 O4 S2),0.65(C14 H10),0.35(C24 H16 N2 O4 S2)'
_chemical_name_systematic        
"1,4-Dithiine-tetracarboxylic N,N'-dimethyldiimide anthracene 5,15-dimethyl-2,8-dithia-5,15-diaza-11,12:17,18-dibenzopentacyclo(7.4.3.2^10,13^.0.0^3,7^)octadeca-3(7),11,17-triene-4,6,14,16-tetraone"
_symmetry_cell_setting           monoclinic
_symmetry_space_group_name_H-M   'P 21/n'
_symmetry_Int_Tables_number      14
_space_group_name_Hall           '-P 2yn'
loop_
_symmetry_equiv_pos_site_id
_symmetry_equiv_pos_as_xyz
1 x,y,z
2 1/2+x,1/2-y,1/2+z
3 -x,-y,-z
4 1/2-x,1/2+y,1/2-z
_cell_length_a                   7.1857(8)
_cell_length_b                   10.2072(12)
_cell_length_c                   13.784(2)
_cell_angle_alpha                90
_cell_angle_beta                 92.279(2)
_cell_angle_gamma                90
_cell_volume                     1010.2
_cell_formula_units_Z            2
loop_
_atom_site_label
_atom_site_type_symbol
_atom_site_fract_x
_atom_site_fract_y
_atom_site_fract_z
C6 C 1.0602(3) -0.0688(2) 0.0852(2)
C7 C 1.1231(5) -0.1378(5) 0.1685(4)
H4 H 1.1248(5) -0.0959(5) 0.2301(4)
C8 C 1.1829(5) -0.2669(3) 0.1612(2)
H5 H 1.2249(5) -0.3128(3) 0.2179(2)
C9 C 1.1815(6) -0.3300(3) 0.0696(3)
H6 H 1.2225(6) -0.4182(3) 0.0653(3)
C10 C 1.1216(6) -0.2650(5) -0.0126(4)
H7 H 1.1226(6) -0.3082(5) -0.0736(4)
C11 C 1.0574(4) -0.1323(3) -0.0075(2)
C12 C 1.0023(3) 0.0625(2) 0.0903(2)
H8 H 1.0039(3) 0.1050(2) 0.1517(2)
C11B C 0.9426(4) 0.1323(3) 0.0075(2)
C6B C 0.9398(3) 0.0688(2) -0.0852(2)
C7B C 0.8769(5) 0.1378(5) -0.1685(4)
H4B H 0.8752(5) 0.0959(5) -0.2301(4)
C8B C 0.8171(5) 0.2669(3) -0.1612(2)
H5B H 0.7751(5) 0.3128(3) -0.2179(2)
C9B C 0.8185(6) 0.3300(3) -0.0696(3)
H6B H 0.7775(6) 0.4182(3) -0.0653(3)
C10B C 0.8784(6) 0.2650(5) 0.0126(4)
H7B H 0.8774(6) 0.3082(5) 0.0736(4)
C12B C 0.9977(3) -0.0625(2) -0.0903(2)
H8B H 0.9961(3) -0.1050(2) -0.1517(2)
S1 S 0.5040(2) 0.07419(13) 0.12044(8)
N1 N 0.3525(4) 0.2986(3) -0.0995(3)
C1 C 0.3848(5) 0.2752(3) -0.0013(2)
C2 C 0.4456(4) 0.1352(3) 0.0080(2)
C3 C 0.5579(4) -0.0820(3) 0.0816(2)
C4 C 0.3798(4) 0.1855(3) -0.1528(2)
O1 O 0.3751(4) 0.3556(2) 0.0627(2)
O2 O 0.3654(4) 0.1774(3) -0.2403(2)
C5 C 0.2918(6) 0.4237(3) -0.1383(3)
H1 H 0.2633(35) 0.4152(7) -0.2081(4)
H2 H 0.1799(22) 0.4522(13) -0.1057(14)
H3 H 0.3909(15) 0.4886(7) -0.1273(17)
C3B C 0.4421(4) 0.0820(3) -0.0816(2)
S1B S 0.4960(2) -0.07419(13) -0.12044(8)
C2B C 0.5544(4) -0.1352(3) -0.0080(2)
C1B C 0.6152(5) -0.2752(3) 0.0013(2)
N1B N 0.6475(4) -0.2986(3) 0.0995(3)
C4B C 0.6202(4) -0.1855(3) 0.1528(2)
O2B O 0.6346(4) -0.1774(3) 0.2403(2)
C5B C 0.7082(6) -0.4237(3) 0.1383(3)
H1B H 0.7367(35) -0.4152(7) 0.2081(4)
H2B H 0.8201(22) -0.4522(13) 0.1057(14)
H3B H 0.6091(15) -0.4886(7) 0.1273(17)
O1B O 0.6249(4) -0.3556(2) -0.0627(2)
S2? S 0.4928(4) 0.0494(3) 0.1222(2)
N2? N 0.6661(11) -0.2860(18) 0.0938(14)
C13? C 0.6608(15) -0.2746(13) -0.0069(10)
C14? C 0.6776(8) -0.1228(6) -0.0223(5)
C15? C 0.6780(8) -0.0607(6) 0.0819(5)
C16? C 0.6621(15) -0.1731(16) 0.1477(11)
O3? O 0.6684(10) -0.3534(7) -0.0697(6)
O4? O 0.6651(11) -0.1601(8) 0.2357(5)
C17? C 0.6583(14) -0.4252(9) 0.1453(7)
H9? H 0.592(11) -0.4873(23) 0.1023(26)
H10? H 0.593(11) -0.4171(19) 0.2061(31)
H11? H 0.7853(14) -0.4569(39) 0.1592(57)
S3? S 0.4659(4) -0.0762(3) -0.1159(2)
N3? N 0.3184(7) 0.2976(8) -0.0889(6)
C18? C 0.3629(9) 0.2682(11) 0.0075(8)
C19? C 0.4226(8) 0.1305(9) 0.0143(7)
C20? C 0.4142(7) 0.0809(8) -0.0760(7)
C21? C 0.3462(8) 0.1879(10) -0.1448(7)
O5? O 0.3561(10) 0.3406(8) 0.0784(6)
O6? O 0.3194(8) 0.1839(8) -0.2328(4)
C22? C 0.2535(10) 0.4228(8) -0.1255(7)
H12? H 0.286(12) 0.4913(15) -0.0781(31)
H13? H 0.1179(18) 0.4200(30) -0.1363(64)
H14? H 0.312(10) 0.4419(43) -0.1869(36)
C23? C 1.0068(9) -0.1057(7) 0.0963(6)
C24? C 1.1177(12) -0.1642(10) 0.1702(7)
H15? H 1.1227(12) -0.1270(10) 0.2334(7)
C25? C 1.2181(14) -0.2735(10) 0.1520(9)
H16? H 1.2939(14) -0.3112(10) 0.2027(9)
C26? C 1.2120(16) -0.3316(11) 0.0601(9)
H17? H 1.2809(16) -0.4090(11) 0.0485(9)
C27? C 1.1057(16) -0.2755(13) -0.0123(10)
H18? H 1.0981(16) -0.3150(13) -0.0747(10)
C28? C 1.0089(11) -0.1616(8) 0.0043(6)
C29? C 0.8803(9) 0.0101(7) 0.1015(5)
H19? H 0.8900(9) 0.0538(7) 0.1664(5)
C30? C 0.8842(8) 0.0471(7) -0.0725(5)
C31? C 0.8831(16) 0.1270(15) -0.1566(11)
H20? H 0.8818(16) 0.0886(15) -0.2194(11)
C32? C 0.8839(12) 0.2613(10) -0.1458(8)
H21? H 0.8859(12) 0.3155(10) -0.2018(8)
C33? C 0.8816(13) 0.3202(9) -0.0516(7)
H22? H 0.8780(13) 0.4129(9) -0.0458(7)
C34? C 0.8847(11) 0.2449(10) 0.0290(8)
H23? H 0.8826(11) 0.2846(10) 0.0913(8)
C35? C 0.8909(9) 0.1060(7) 0.0207(5)
C36? C 0.8776(9) -0.0985(7) -0.0684(6)
H24? H 0.8852(9) -0.1389(7) -0.1342(6)
loop_
_geom_bond_atom_site_label_1
_geom_bond_atom_site_label_2
_geom_bond_site_symmetry_1
_geom_bond_site_symmetry_2
S1 C2 1_555 1_555
N1 C1 1_555 1_555
C1 C2 1_555 1_555
C2 C3B 1_555 1_555
C3 S1 1_555 1_555
C4 N1 1_555 1_555
O1 C1 1_555 1_555
O2 C4 1_555 1_555
C5 N1 1_555 1_555
H1 C5 1_555 1_555
H2 C5 1_555 1_555
H3 C5 1_555 1_555
C6 C7 1_555 1_555
C7 H4 1_555 1_555
C8 C7 1_555 1_555
H5 C8 1_555 1_555
C9 C8 1_555 1_555
H6 C9 1_555 1_555
C10 C9 1_555 1_555
H7 C10 1_555 1_555
C11 C6 1_555 1_555
C12 C6 1_555 1_555
H8 C12 1_555 1_555
C3B C4 1_555 1_555
S1B C3B 1_555 1_555
C2B C3 1_555 1_555
C1B C2B 1_555 1_555
N1B C1B 1_555 1_555
C4B C3 1_555 1_555
O2B C4B 1_555 1_555
C5B N1B 1_555 1_555
H1B C5B 1_555 1_555
H2B C5B 1_555 1_555
H3B C5B 1_555 1_555
O1B C1B 1_555 1_555
C11B C12 1_555 1_555
C6B C11B 1_555 1_555
C7B C6B 1_555 1_555
H4B C7B 1_555 1_555
C8B C7B 1_555 1_555
H5B C8B 1_555 1_555
C9B C8B 1_555 1_555
H6B C9B 1_555 1_555
C10B C11B 1_555 1_555
H7B C10B 1_555 1_555
C12B C11 1_555 1_555
H8B C12B 1_555 1_555
C10 C11 1_555 1_555
S1B C2B 1_555 1_555
N1B C4B 1_555 1_555
C6B C12B 1_555 1_555
C9B C10B 1_555 1_555

#END
