
#######################################################################
#
#                 Cambridge Crystallographic Data Centre
#                                CCDC 
#
#######################################################################
#
# If this CIF has been generated from an entry in the Cambridge 
# Structural Database, then it will include bibliographic, chemical, 
# crystal, experimental, refinement or atomic coordinate data resulting 
# from the CCDC's data processing and validation procedures.
#
#######################################################################

data_QOTDAE01
_chemical_formula_moiety         
'0.2(C10 H6 N2 O4 S2),0.2(C14 H10),0.8(C24 H16 N2 O4 S2)'
_chemical_name_systematic        
"5,15-Dimethyl-2,8-dithia-5,15-diaza-11,12:17,18-dibenzopentacyclo(7.4.3.2^10,13^.0.0^3,7^)octadeca-3(7),11,17-triene-4,6,14,16-tetraone 1,4-dithiine-tetracarboxylic N,N'-dimethyldiimide anthracene"
_symmetry_cell_setting           monoclinic
_symmetry_space_group_name_H-M   'P 21/n'
_symmetry_Int_Tables_number      14
_space_group_name_Hall           '-P 2yn'
loop_
_symmetry_equiv_pos_site_id
_symmetry_equiv_pos_as_xyz
1 x,y,z
2 1/2+x,1/2-y,1/2+z
3 -x,-y,-z
4 1/2-x,1/2+y,1/2-z
_cell_length_a                   7.2933(4)
_cell_length_b                   10.1098(5)
_cell_length_c                   13.8243(7)
_cell_angle_alpha                90
_cell_angle_beta                 94.179(11)
_cell_angle_gamma                90
_cell_volume                     1016.61
_cell_formula_units_Z            2
loop_
_atom_site_label
_atom_site_type_symbol
_atom_site_fract_x
_atom_site_fract_y
_atom_site_fract_z
S2 S 0.4918(2) 0.0474(2) 0.11339(12)
N3 N 0.3448(6) 0.2944(8) -0.0987(6)
C18 C 0.3789(7) 0.2732(7) -0.0001(6)
C19 C 0.4331(6) 0.1298(7) 0.0096(5)
C20 C 0.5723(6) -0.0787(6) 0.0803(5)
C21 C 0.3702(7) 0.1834(6) -0.1517(5)
O5 O 0.3713(7) 0.3511(6) 0.0668(5)
O6 O 0.3519(8) 0.1710(7) -0.2381(4)
C22 C 0.2873(8) 0.4256(5) -0.1317(5)
H12 H 0.2069(55) 0.4644(20) -0.0855(19)
H13 H 0.2205(59) 0.4189(8) -0.1956(16)
H14 H 0.3958(9) 0.4818(15) -0.1362(35)
C20B C 0.4277(6) 0.0787(6) -0.0803(5)
S2B S 0.5082(2) -0.0474(2) -0.11339(12)
C19B C 0.5669(6) -0.1298(7) -0.0096(5)
C18B C 0.6211(7) -0.2732(7) 0.0001(6)
N3B N 0.6552(6) -0.2944(8) 0.0987(6)
C21B C 0.6298(7) -0.1834(6) 0.1517(5)
O6B O 0.6481(8) -0.1710(7) 0.2381(4)
C22B C 0.7127(8) -0.4256(5) 0.1317(5)
H12B H 0.7931(55) -0.4644(20) 0.0855(19)
H13B H 0.7795(59) -0.4189(8) 0.1956(16)
H14B H 0.6042(9) -0.4818(15) 0.1362(35)
O5B O 0.6287(7) -0.3511(6) -0.0668(5)
C6 C 1.0535(14) -0.0720(10) 0.0855(8)
C7 C 1.1161(22) -0.1440(18) 0.1666(13)
H4 H 1.1140(22) -0.1047(18) 0.2289(13)
C8 C 1.1811(18) -0.2705(10) 0.1590(7)
H5 H 1.2235(18) -0.3178(10) 0.2156(7)
C9 C 1.1851(18) -0.3309(12) 0.0668(9)
H6 H 1.2287(18) -0.4189(12) 0.0609(9)
C10 C 1.1247(20) -0.2597(15) -0.0139(11)
H7 H 1.1288(20) -0.2989(15) -0.0761(11)
C11 C 1.0580(19) -0.1319(14) -0.0068(10)
C12 C 0.9874(27) 0.0570(26) 0.0893(21)
H8 H 0.9729(27) 0.0954(26) 0.1510(21)
C11B C 0.9420(19) 0.1319(14) 0.0068(10)
C6B C 0.9465(14) 0.0720(10) -0.0855(8)
C7B C 0.8839(22) 0.1440(18) -0.1666(13)
H4B H 0.8860(22) 0.1047(18) -0.2289(13)
C8B C 0.8189(18) 0.2705(10) -0.1590(7)
H5B H 0.7765(18) 0.3178(10) -0.2156(7)
C9B C 0.8149(18) 0.3309(12) -0.0668(9)
H6B H 0.7713(18) 0.4189(12) -0.0609(9)
C10B C 0.8753(20) 0.2597(15) 0.0139(11)
H7B H 0.8712(20) 0.2989(15) 0.0761(11)
C12B C 1.0126(27) -0.0570(26) -0.0893(21)
H8B H 1.0271(27) -0.0954(26) -0.1510(21)
S1? S 0.4953(5) 0.0756(4) 0.1205(2)
N1? N 0.6193(11) -0.3001(8) 0.1092(6)
C1? C 0.6031(16) -0.2760(11) 0.0108(8)
C2? C 0.5502(12) -0.1335(9) -0.0012(7)
C3? C 0.5461(10) -0.0830(9) 0.0890(7)
C4? C 0.5930(15) -0.1887(9) 0.1625(7)
O1? O 0.6137(11) -0.3627(8) -0.0482(6)
O2? O 0.5993(12) -0.1840(8) 0.2480(5)
C5? C 0.6664(19) -0.4325(12) 0.1318(12)
H1? H 0.606(11) -0.4600(32) 0.1895(42)
H2? H 0.8000(22) -0.4397(22) 0.1444(69)
H3? H 0.626(12) -0.4896(17) 0.0771(29)
N2? N 0.6711(7) -0.2952(7) 0.0891(5)
C13? C 0.6623(8) -0.2699(5) -0.0086(4)
C14? C 0.6753(5) -0.1218(4) -0.0240(3)
C15? C 0.6803(5) -0.0594(3) 0.0790(3)
C16? C 0.6720(8) -0.1790(5) 0.1456(4)
O3? O 0.6607(8) -0.3519(6) -0.0706(5)
O4? O 0.6754(8) -0.1792(6) 0.2331(5)
C17? C 0.6724(10) -0.4227(7) 0.1512(5)
H9? H 0.5793(42) -0.4843(19) 0.1231(19)
H10? H 0.6448(60) -0.4004(9) 0.2175(10)
H11? H 0.7939(20) -0.4642(24) 0.1521(26)
S3? S 0.4766(3) -0.0811(2) -0.11322(14)
C23? C 1.0067(5) -0.0999(4) 0.0964(3)
C24? C 1.1170(7) -0.1511(6) 0.1723(4)
H15? H 1.1204(7) -0.1103(6) 0.2343(4)
C25? C 1.2224(9) -0.2617(6) 0.1584(5)
H16? H 1.2992(9) -0.2966(6) 0.2107(5)
C26? C 1.2168(10) -0.3220(7) 0.0685(5)
H17? H 1.2889(10) -0.3988(7) 0.0599(5)
C27? C 1.1072(10) -0.2718(7) -0.0098(6)
H18? H 1.1011(10) -0.3150(7) -0.0710(6)
C28? C 1.0062(6) -0.1564(4) 0.0037(3)
C29? C 0.8724(5) 0.0130(3) 0.1005(3)
H19? H 0.8812(5) 0.0573(3) 0.1653(3)
C30? C 0.8786(5) 0.0512(4) -0.0724(3)
C31? C 0.8785(7) 0.1280(7) -0.1573(5)
H20? H 0.8749(7) 0.0888(7) -0.2199(5)
C32? C 0.8840(7) 0.2666(6) -0.1442(4)
H21? H 0.8880(7) 0.3216(6) -0.1998(4)
C33? C 0.8838(8) 0.3254(5) -0.0538(4)
H22? H 0.8825(8) 0.4191(5) -0.0486(4)
C34? C 0.8856(7) 0.2475(6) 0.0296(5)
H23? H 0.8882(7) 0.2871(6) 0.0920(5)
C35? C 0.8836(6) 0.1103(4) 0.0194(3)
C36? C 0.8669(5) -0.0963(4) -0.0686(3)
H24? H 0.8714(5) -0.1370(4) -0.1343(3)
loop_
_geom_bond_atom_site_label_1
_geom_bond_atom_site_label_2
_geom_bond_site_symmetry_1
_geom_bond_site_symmetry_2
C6 C7 1_555 1_555
C7 H4 1_555 1_555
C8 C7 1_555 1_555
H5 C8 1_555 1_555
C9 C8 1_555 1_555
H6 C9 1_555 1_555
C10 C9 1_555 1_555
H7 C10 1_555 1_555
C11 C6 1_555 1_555
C12 C6 1_555 1_555
H8 C12 1_555 1_555
S2 C19 1_555 1_555
N3 C18 1_555 1_555
C18 C19 1_555 1_555
C19 C20B 1_555 1_555
C20 S2 1_555 1_555
C21 N3 1_555 1_555
O5 C18 1_555 1_555
O6 C21 1_555 1_555
C22 N3 1_555 1_555
H12 C22 1_555 1_555
H13 C22 1_555 1_555
H14 C22 1_555 1_555
C11B C12 1_555 1_555
C6B C11B 1_555 1_555
C7B C6B 1_555 1_555
H4B C7B 1_555 1_555
C8B C7B 1_555 1_555
H5B C8B 1_555 1_555
C9B C8B 1_555 1_555
H6B C9B 1_555 1_555
C10B C11B 1_555 1_555
H7B C10B 1_555 1_555
C12B C11 1_555 1_555
H8B C12B 1_555 1_555
C20B C21 1_555 1_555
S2B C20B 1_555 1_555
C19B C20 1_555 1_555
C18B C19B 1_555 1_555
N3B C18B 1_555 1_555
C21B C20 1_555 1_555
O6B C21B 1_555 1_555
C22B N3B 1_555 1_555
H12B C22B 1_555 1_555
H13B C22B 1_555 1_555
H14B C22B 1_555 1_555
O5B C18B 1_555 1_555
C10 C11 1_555 1_555
C6B C12B 1_555 1_555
C9B C10B 1_555 1_555
S2B C19B 1_555 1_555
N3B C21B 1_555 1_555

#END
