
#######################################################################
#
#                 Cambridge Crystallographic Data Centre
#                                CCDC 
#
#######################################################################
#
# If this CIF has been generated from an entry in the Cambridge 
# Structural Database, then it will include bibliographic, chemical, 
# crystal, experimental, refinement or atomic coordinate data resulting 
# from the CCDC's data processing and validation procedures.
#
#######################################################################

data_QOTNOC
_chemical_formula_moiety         'C25 H33 F1 O3 S1'
_chemical_name_systematic        
'rel-(1R,4R,5R)-3,3-Di-n-butyl-7-fluoro-2,3,4,5-tetrahydro-5-(4-methoxyphenyl)-1-benzothiepin-4-ol 1-oxide'
_symmetry_cell_setting           monoclinic
_symmetry_space_group_name_H-M   'P 21/n'
_symmetry_Int_Tables_number      14
_space_group_name_Hall           '-P 2yn'
loop_
_symmetry_equiv_pos_site_id
_symmetry_equiv_pos_as_xyz
1 x,y,z
2 1/2-x,1/2+y,1/2-z
3 -x,-y,-z
4 1/2+x,1/2-y,1/2+z
_cell_length_a                   11.6826(2)
_cell_length_b                   14.4697(3)
_cell_length_c                   14.3287(3)
_cell_angle_alpha                90
_cell_angle_beta                 107.267(1)
_cell_angle_gamma                90
_cell_volume                     2313.01
_cell_formula_units_Z            4
loop_
_atom_site_label
_atom_site_type_symbol
_atom_site_fract_x
_atom_site_fract_y
_atom_site_fract_z
S1 S 0.3925(1) -0.0264(1) 0.8267(1)
F1 F 0.6196(1) 0.2072(1) 0.5992(1)
O1 O 0.3787(1) -0.1191(1) 0.7775(1)
O2 O 0.2673(1) 0.2292(1) 0.7400(1)
O3 O 0.7127(1) 0.5037(1) 1.0142(1)
C1 C 0.2451(2) 0.0271(1) 0.7879(1)
C2 C 0.2261(1) 0.1103(1) 0.8488(1)
C3 C 0.3026(1) 0.1955(1) 0.8377(1)
C4 C 0.4409(1) 0.1809(1) 0.8673(1)
C5 C 0.5341(2) 0.1931(1) 0.7268(1)
C6 C 0.5671(2) 0.1526(1) 0.6523(1)
C7 C 0.5505(2) 0.0609(1) 0.6283(2)
C8 C 0.4955(2) 0.0072(1) 0.6826(2)
C9 C 0.4612(1) 0.0467(1) 0.7581(1)
C10 C 0.4802(1) 0.1400(1) 0.7829(1)
C11 C 0.2545(2) 0.0849(1) 0.9581(1)
C12 C 0.1802(2) 0.0059(1) 0.9815(2)
C13 C 0.2110(2) -0.0177(2) 1.0898(2)
C14 C 0.1822(3) 0.0569(2) 1.1513(2)
C15 C 0.0916(1) 0.1356(1) 0.8054(1)
C16 C 0.0416(2) 0.2080(1) 0.8597(1)
C17 C -0.0871(2) 0.2347(1) 0.8061(2)
C18 C -0.1467(2) 0.2884(2) 0.8701(2)
C19 C 0.5087(1) 0.2691(1) 0.9067(1)
C20 C 0.4761(2) 0.3541(1) 0.8622(1)
C21 C 0.5406(2) 0.4339(1) 0.8957(1)
C22 C 0.6415(2) 0.4294(1) 0.9759(1)
C23 C 0.6742(2) 0.3458(1) 1.0227(1)
C24 C 0.6087(2) 0.2670(1) 0.9887(1)
C25 C 0.6811(2) 0.5900(1) 0.9661(2)
H1 H 0.2198(19) 0.2730(15) 0.7368(15)
H2 H 0.2292 0.0473 0.7200
H3 H 0.1854 -0.0201 0.7891
H4 H 0.2869 0.2452 0.8798
H5 H 0.4614 0.1351 0.9210
H6 H 0.5479 0.2565 0.7400
H7 H 0.5754 0.0354 0.5772
H8 H 0.4815 -0.0560 0.6682
H9 H 0.3394 0.0682 0.9828
H10 H 0.2425 0.1400 0.9939
H11 H 0.0952 0.0227 0.9576
H12 H 0.1918 -0.0494 0.9458
H13 H 0.1673 -0.0738 1.0970
H14 H 0.2968 -0.0315 1.1145
H15 H 0.0986 0.0744 1.1248
H16 H 0.2326 0.1103 1.1515
H17 H 0.1967 0.0346 1.2177
H18 H 0.0788 0.1574 0.7383
H19 H 0.0445 0.0789 0.8016
H20 H 0.0451 0.1840 0.9245
H21 H 0.0920 0.2633 0.8691
H22 H -0.0879 0.2724 0.7491
H23 H -0.1335 0.1785 0.7825
H24 H -0.1013 0.3442 0.8936
H25 H -0.1492 0.2505 0.9253
H26 H -0.2277 0.3047 0.8322
H27 H 0.4078 0.3577 0.8074
H28 H 0.5159 0.4907 0.8642
H29 H 0.7417 0.3426 1.0781
H30 H 0.6322 0.2108 1.0217
H31 H 0.6015 0.6076 0.9675
H32 H 0.6818 0.5846 0.8988
H33 H 0.7384 0.6367 0.9992
loop_
_geom_bond_atom_site_label_1
_geom_bond_atom_site_label_2
_geom_bond_site_symmetry_1
_geom_bond_site_symmetry_2
S1 O1 1_555 1_555
F1 C6 1_555 1_555
O2 C3 1_555 1_555
O3 C22 1_555 1_555
C1 S1 1_555 1_555
C2 C1 1_555 1_555
C3 C2 1_555 1_555
C4 C3 1_555 1_555
C5 C6 1_555 1_555
C6 C7 1_555 1_555
C7 C8 1_555 1_555
C8 C9 1_555 1_555
C9 S1 1_555 1_555
C10 C4 1_555 1_555
C11 C2 1_555 1_555
C12 C11 1_555 1_555
C13 C12 1_555 1_555
C14 C13 1_555 1_555
C15 C2 1_555 1_555
C16 C15 1_555 1_555
C17 C16 1_555 1_555
C18 C17 1_555 1_555
C19 C4 1_555 1_555
C20 C19 1_555 1_555
C21 C20 1_555 1_555
C22 C21 1_555 1_555
C23 C22 1_555 1_555
C24 C19 1_555 1_555
C25 O3 1_555 1_555
H1 O2 1_555 1_555
H2 C1 1_555 1_555
H3 C1 1_555 1_555
H4 C3 1_555 1_555
H5 C4 1_555 1_555
H6 C5 1_555 1_555
H7 C7 1_555 1_555
H8 C8 1_555 1_555
H9 C11 1_555 1_555
H10 C11 1_555 1_555
H11 C12 1_555 1_555
H12 C12 1_555 1_555
H13 C13 1_555 1_555
H14 C13 1_555 1_555
H15 C14 1_555 1_555
H16 C14 1_555 1_555
H17 C14 1_555 1_555
H18 C15 1_555 1_555
H19 C15 1_555 1_555
H20 C16 1_555 1_555
H21 C16 1_555 1_555
H22 C17 1_555 1_555
H23 C17 1_555 1_555
H24 C18 1_555 1_555
H25 C18 1_555 1_555
H26 C18 1_555 1_555
H27 C20 1_555 1_555
H28 C21 1_555 1_555
H29 C23 1_555 1_555
H30 C24 1_555 1_555
H31 C25 1_555 1_555
H32 C25 1_555 1_555
H33 C25 1_555 1_555
C5 C10 1_555 1_555
C9 C10 1_555 1_555
C23 C24 1_555 1_555

#END
