
#######################################################################
#
#                 Cambridge Crystallographic Data Centre
#                                CCDC 
#
#######################################################################
#
# If this CIF has been generated from an entry in the Cambridge 
# Structural Database, then it will include bibliographic, chemical, 
# crystal, experimental, refinement or atomic coordinate data resulting 
# from the CCDC's data processing and validation procedures.
#
#######################################################################

data_QOTNUI
_chemical_formula_moiety         'C18 H26 Br1 F1 O2 S1'
_chemical_name_systematic        
(+-)-2-(((2-(Bromomethyl)-4-fluorophenyl)sulfinyl)methyl)-2-n-butylhexanal
_symmetry_cell_setting           monoclinic
_symmetry_space_group_name_H-M   'C 2/c'
_symmetry_Int_Tables_number      15
_space_group_name_Hall           '-C 2yn'
loop_
_symmetry_equiv_pos_site_id
_symmetry_equiv_pos_as_xyz
1 x,y,z
2 -x,y,1/2-z
3 1/2+x,1/2+y,z
4 1/2-x,1/2+y,1/2-z
5 -x,-y,-z
6 x,-y,1/2+z
7 1/2-x,1/2-y,-z
8 1/2+x,1/2-y,1/2+z
_cell_length_a                   34.0607(3)
_cell_length_b                   8.17740(10)
_cell_length_c                   14.11710(10)
_cell_angle_alpha                90
_cell_angle_beta                 101.69
_cell_angle_gamma                90
_cell_volume                     3850.45
_exptl_crystal_colour            colorless
_cell_formula_units_Z            8
_exptl_crystal_recrystallization_method 'hexane/ethyl acetate'
loop_
_atom_site_label
_atom_site_type_symbol
_atom_site_fract_x
_atom_site_fract_y
_atom_site_fract_z
Br1 Br 0.1282(1) 0.6574(1) 0.1565(1)
S1 S 0.0745(1) 0.6555(1) -0.1108(1)
F1 F -0.0437(1) 0.7701(3) 0.1331(2)
O1 O 0.0520(1) 0.6553(3) -0.2133(1)
O2 O 0.1179(1) 0.8312(3) -0.3266(2)
C1 C 0.0387(1) 0.6888(3) -0.0344(2)
C2 C 0.0460(1) 0.6262(3) 0.0593(2)
C3 C 0.0176(1) 0.6567(3) 0.1158(2)
C4 C -0.0162(1) 0.7437(3) 0.0767(2)
C5 C -0.0243(1) 0.8018(3) -0.0160(2)
C6 C 0.0038(1) 0.7724(3) -0.0729(2)
C7 C 0.0816(1) 0.5226(3) 0.1006(2)
C8 C 0.0970(1) 0.8566(3) -0.0922(2)
C9 C 0.1286(1) 0.8868(3) -0.1543(2)
C10 C 0.1071(1) 0.8942(4) -0.2598(2)
C11 C 0.1444(1) 1.0642(4) -0.1341(2)
C12 C 0.1650(2) 1.1117(8) -0.0362(4)
C13 C 0.1795(2) 1.2859(7) -0.0331(4)
C14 C 0.2034(2) 1.3352(6) 0.0654(4)
C18 C 0.1614(1) 0.7552(3) -0.1361(2)
C19 C 0.2001(1) 0.7913(4) -0.1699(2)
C20 C 0.2290(1) 0.6483(4) -0.1545(3)
C21 C 0.2688(1) 0.6842(5) -0.1816(3)
H1 H 0.0216(1) 0.6181(3) 0.1798(2)
H2 H -0.0481(1) 0.8596(3) -0.0404(2)
H3 H -0.0009(1) 0.8091(3) -0.1373(2)
H4 H 0.0883(1) 0.4533(3) 0.0494(2)
H5 H 0.0750(1) 0.4510(3) 0.1507(2)
H6 H 0.0759(1) 0.9395(3) -0.1079(2)
H7 H 0.1096(1) 0.8692(3) -0.0238(2)
H8 H 0.0830(1) 0.9540(4) -0.2739(2)
H9 H 0.1407(1) 1.1413(4) -0.1846(2)
H10 H 0.1879(2) 1.0388(8) -0.0147(4)
H11 H 0.1467(2) 1.0990(8) 0.0084(4)
H12 H 0.1564(2) 1.3587(7) -0.0507(4)
H13 H 0.1963(2) 1.3000(7) -0.0813(4)
H14 H 0.2120(2) 1.4481(6) 0.0633(4)
H15 H 0.2268(2) 1.2652(6) 0.0827(4)
H16 H 0.1868(2) 1.3240(6) 0.1133(4)
H24 H 0.1681(1) 0.7336(3) -0.0664(2)
H25 H 0.1500(1) 0.6542(3) -0.1677(2)
H26 H 0.1938(1) 0.8191(4) -0.2388(2)
H27 H 0.2131(1) 0.8864(4) -0.1346(2)
H28 H 0.2165(1) 0.5554(4) -0.1931(3)
H29 H 0.2338(1) 0.6160(4) -0.0863(3)
H30 H 0.2858(1) 0.5880(5) -0.1700(3)
H31 H 0.2818(1) 0.7743(5) -0.1427(3)
H32 H 0.2645(1) 0.7135(5) -0.2495(3)
C15? C 0.1723(7) 1.0515(28) -0.0102(17)
C16? C 0.1986(5) 1.2041(29) 0.0134(15)
C17? C 0.1755(8) 1.3519(24) 0.0112(21)
H17? H 0.1537(7) 1.0437(28) 0.0342(17)
H18? H 0.1892(7) 0.9533(28) -0.0022(17)
H19? H 0.2157(5) 1.1916(29) 0.0779(15)
H20? H 0.2162(5) 1.2135(29) -0.0333(15)
H21? H 0.1934(8) 1.4446(24) 0.0261(21)
H22? H 0.1586(8) 1.3447(24) 0.0586(21)
H23? H 0.1589(8) 1.3659(24) -0.0527(21)
loop_
_geom_bond_atom_site_label_1
_geom_bond_atom_site_label_2
_geom_bond_site_symmetry_1
_geom_bond_site_symmetry_2
Br1 C7 1_555 1_555
S1 O1 1_555 1_555
F1 C4 1_555 1_555
O2 C10 1_555 1_555
C1 S1 1_555 1_555
C2 C1 1_555 1_555
C3 C2 1_555 1_555
C4 C3 1_555 1_555
C5 C4 1_555 1_555
C6 C1 1_555 1_555
C7 C2 1_555 1_555
C8 S1 1_555 1_555
C9 C8 1_555 1_555
C10 C9 1_555 1_555
C11 C9 1_555 1_555
C12 C11 1_555 1_555
C13 C12 1_555 1_555
C14 C13 1_555 1_555
C18 C9 1_555 1_555
C19 C18 1_555 1_555
C20 C19 1_555 1_555
C21 C20 1_555 1_555
H1 C3 1_555 1_555
H2 C5 1_555 1_555
H3 C6 1_555 1_555
H4 C7 1_555 1_555
H5 C7 1_555 1_555
H6 C8 1_555 1_555
H7 C8 1_555 1_555
H8 C10 1_555 1_555
H9 C11 1_555 1_555
H10 C12 1_555 1_555
H11 C12 1_555 1_555
H12 C13 1_555 1_555
H13 C13 1_555 1_555
H14 C14 1_555 1_555
H15 C14 1_555 1_555
H16 C14 1_555 1_555
H24 C18 1_555 1_555
H25 C18 1_555 1_555
H26 C19 1_555 1_555
H27 C19 1_555 1_555
H28 C20 1_555 1_555
H29 C20 1_555 1_555
H30 C21 1_555 1_555
H31 C21 1_555 1_555
H32 C21 1_555 1_555
C5 C6 1_555 1_555

#END
