
#######################################################################
#
#                 Cambridge Crystallographic Data Centre
#                                CCDC 
#
#######################################################################
#
# If this CIF has been generated from an entry in the Cambridge 
# Structural Database, then it will include bibliographic, chemical, 
# crystal, experimental, refinement or atomic coordinate data resulting 
# from the CCDC's data processing and validation procedures.
#
#######################################################################

data_QOTQEW
_chemical_formula_moiety         'C14 H14 Cl1 N3 O1 S1'
_chemical_name_systematic        
N-(2-Chlorophenyl)-2-(4,6-dimethylpyrimidin-2-ylsulfanyl)acetamide
_symmetry_cell_setting           orthorhombic
_symmetry_space_group_name_H-M   'P c a 21'
_symmetry_Int_Tables_number      29
_space_group_name_Hall           'P 2c -2ac'
loop_
_symmetry_equiv_pos_site_id
_symmetry_equiv_pos_as_xyz
1 x,y,z
2 -x,-y,1/2+z
3 1/2+x,-y,z
4 1/2-x,y,1/2+z
_cell_length_a                   26.494(5)
_cell_length_b                   4.6736(9)
_cell_length_c                   11.931(2)
_cell_angle_alpha                90
_cell_angle_beta                 90
_cell_angle_gamma                90
_cell_volume                     1477.32
_exptl_crystal_colour            colorless
_exptl_crystal_description       prism
_cell_formula_units_Z            4
_exptl_crystal_recrystallization_method chloroform/acetone
loop_
_atom_site_label
_atom_site_type_symbol
_atom_site_fract_x
_atom_site_fract_y
_atom_site_fract_z
S1 S 0.689926(15) 1.07672(8) 0.28992(4)
Cl1 Cl 0.53054(2) 1.55461(10) 0.63460(4)
O1 O 0.58637(4) 0.8871(2) 0.35668(11)
N1 N 0.55577(5) 1.3204(3) 0.40980(12)
N2 N 0.67886(5) 1.0007(3) 0.51049(13)
N3 N 0.74415(5) 0.7412(3) 0.41469(12)
C1 C 0.49282(7) 1.3208(4) 0.55761(16)
C2 C 0.44695(7) 1.2326(4) 0.60204(17)
H1 H 0.4361 1.3025 0.6710
C3 C 0.41781(7) 1.0427(5) 0.5439(2)
H2 H 0.3873 0.9816 0.5740
C4 C 0.43334(7) 0.9406(4) 0.44072(19)
H3 H 0.4134 0.8106 0.4017
C5 C 0.47894(6) 1.0334(4) 0.39558(18)
H4 H 0.4891 0.9674 0.3256
C6 C 0.50924(6) 1.2233(3) 0.45406(14)
C7 C 0.59151(6) 1.1465(3) 0.36648(14)
C8 C 0.63851(6) 1.3054(4) 0.32946(15)
H5 H 0.6495 1.4287 0.3901
H6 H 0.6300 1.4267 0.2663
C9 C 0.70557(6) 0.9262(3) 0.42103(14)
C10 C 0.75680(6) 0.6156(3) 0.51203(15)
C11 C 0.73123(6) 0.6745(4) 0.61057(15)
H7 H 0.7400 0.5841 0.6772
C12 C 0.69218(6) 0.8721(4) 0.60723(16)
C13 C 0.80089(7) 0.4138(4) 0.50769(18)
H8 H 0.8046 0.3412 0.4329
H9 H 0.7952 0.2576 0.5584
H10 H 0.8311 0.5135 0.5291
C14 C 0.66199(8) 0.9520(5) 0.70853(18)
H11 H 0.6604 1.1567 0.7146
H12 H 0.6778 0.8745 0.7743
H13 H 0.6285 0.8762 0.7016
H14 H 0.5635(7) 1.500(2) 0.4204(17)
loop_
_geom_bond_atom_site_label_1
_geom_bond_atom_site_label_2
_geom_bond_site_symmetry_1
_geom_bond_site_symmetry_2
S1 C8 1_555 1_555
Cl1 C1 1_555 1_555
O1 C7 1_555 1_555
N1 C6 1_555 1_555
N2 C9 1_555 1_555
N3 C9 1_555 1_555
C1 C2 1_555 1_555
C2 H1 1_555 1_555
C3 C2 1_555 1_555
H2 C3 1_555 1_555
C4 C3 1_555 1_555
H3 C4 1_555 1_555
C5 C4 1_555 1_555
H4 C5 1_555 1_555
C6 C1 1_555 1_555
C7 N1 1_555 1_555
C8 C7 1_555 1_555
H5 C8 1_555 1_555
H6 C8 1_555 1_555
C9 S1 1_555 1_555
C10 N3 1_555 1_555
C11 C10 1_555 1_555
H7 C11 1_555 1_555
C12 N2 1_555 1_555
C13 C10 1_555 1_555
H8 C13 1_555 1_555
H9 C13 1_555 1_555
H10 C13 1_555 1_555
C14 C12 1_555 1_555
H11 C14 1_555 1_555
H12 C14 1_555 1_555
H13 C14 1_555 1_555
H14 N1 1_555 1_555
C5 C6 1_555 1_555
C11 C12 1_555 1_555

#END
