
#######################################################################
#
#                 Cambridge Crystallographic Data Centre
#                                CCDC 
#
#######################################################################
#
# If this CIF has been generated from an entry in the Cambridge 
# Structural Database, then it will include bibliographic, chemical, 
# crystal, experimental, refinement or atomic coordinate data resulting 
# from the CCDC's data processing and validation procedures.
#
#######################################################################

data_QOTXUS
_chemical_formula_moiety         'C66 H56'
_chemical_name_systematic        1,3,5,7-tetrakis(Stilben-4-yl)adamantane
_symmetry_cell_setting           tetragonal
_symmetry_space_group_name_H-M   'P -4'
_symmetry_Int_Tables_number      81
_space_group_name_Hall           'P -4'
loop_
_symmetry_equiv_pos_site_id
_symmetry_equiv_pos_as_xyz
1 x,y,z
2 y,-x,-z
3 -x,-y,z
4 -y,x,-z
_cell_length_a                   13.2813(3)
_cell_length_b                   13.2813(3)
_cell_length_c                   7.1282(3)
_cell_angle_alpha                90
_cell_angle_beta                 90
_cell_angle_gamma                90
_cell_volume                     1257.36
_cell_formula_units_Z            1
_exptl_crystal_recrystallization_method dichloromethane
loop_
_atom_site_label
_atom_site_type_symbol
_atom_site_fract_x
_atom_site_fract_y
_atom_site_fract_z
C1 C 0.0374(2) 0.1827(2) 0.2412(4)
C2 C 0.1267(2) 0.2383(2) 0.2397(4)
C3 C 0.1446(2) 0.3109(2) 0.1038(5)
C4 C 0.0744(2) 0.3319(2) -0.0355(4)
C5 C -0.0165(2) 0.2790(2) -0.0289(4)
C6 C -0.0345(2) 0.2074(2) 0.1049(4)
C7 C 0.1958(2) 0.5266(2) -0.3740(6)
C8 C 0.2749(3) 0.5924(2) -0.3648(6)
C9 C 0.3004(3) 0.6526(3) -0.5179(7)
C10 C 0.2439(3) 0.6470(3) -0.6790(7)
C11 C 0.1666(3) 0.5819(3) -0.6911(6)
C12 C 0.1413(3) 0.5203(2) -0.5410(5)
C13 C 0.0947(2) 0.4025(2) -0.1921(5)
C14 C 0.1718(3) 0.4612(2) -0.2102(5)
C15 C 0.0203(2) 0.0939(2) 0.3749(3)
C16 C -0.0727(2) 0.1119(2) 0.5012(4)
C17 C 0.0000 0.0000 0.2542(5)
H1 H 0.1751(2) 0.2264(2) 0.3314(4)
H2 H 0.2049(2) 0.3464(2) 0.1059(5)
H3 H -0.0659(2) 0.2928(2) -0.1176(4)
H4 H -0.0961(2) 0.1742(2) 0.1053(4)
H5 H 0.3123(3) 0.5971(2) -0.2548(6)
H6 H 0.3551(3) 0.6961(3) -0.5111(7)
H7 H 0.2592(3) 0.6885(3) -0.7802(7)
H8 H 0.1295(3) 0.5781(3) -0.8015(6)
H9 H 0.0882(3) 0.4750(2) -0.5517(5)
H10 H 0.0470(2) 0.4047(2) -0.2875(5)
H11 H 0.2170(3) 0.4627(2) -0.1105(5)
H12 H -0.0610(2) 0.1703(2) 0.5799(4)
H13 H -0.1310(2) 0.1255(2) 0.4233(4)
H14 H -0.0577 0.0125 0.1741(5)
H15 H 0.0577 -0.0125 0.1741(5)
C15C C -0.0939(2) 0.0203(2) 0.6251(3)
C1C C -0.1827(2) 0.0374(2) 0.7588(4)
C2C C -0.2383(2) 0.1267(2) 0.7603(4)
C3C C -0.3109(2) 0.1446(2) 0.8962(5)
C4C C -0.3319(2) 0.0744(2) 1.0355(4)
C5C C -0.2790(2) -0.0165(2) 1.0289(4)
C6C C -0.2074(2) -0.0345(2) 0.8951(4)
H4C H -0.1742(2) -0.0961(2) 0.8947(4)
H3C H -0.2928(2) -0.0659(2) 1.1176(4)
C13C C -0.4025(2) 0.0947(2) 1.1921(5)
C14C C -0.4612(2) 0.1718(3) 1.2102(5)
C7C C -0.5266(2) 0.1958(2) 1.3740(6)
C8C C -0.5924(2) 0.2749(3) 1.3648(6)
C9C C -0.6526(3) 0.3004(3) 1.5179(7)
C10C C -0.6470(3) 0.2439(3) 1.6790(7)
C11C C -0.5819(3) 0.1666(3) 1.6911(6)
C12C C -0.5203(2) 0.1413(3) 1.5410(5)
H9C H -0.4750(2) 0.0882(3) 1.5517(5)
H8C H -0.5781(3) 0.1295(3) 1.8015(6)
H7C H -0.6885(3) 0.2592(3) 1.7802(7)
H6C H -0.6961(3) 0.3551(3) 1.5111(7)
H5C H -0.5971(2) 0.3123(3) 1.2548(6)
H11C H -0.4627(2) 0.2170(3) 1.1105(5)
H10C H -0.4047(2) 0.0470(2) 1.2875(5)
H2C H -0.3464(2) 0.2049(2) 0.8941(5)
H1C H -0.2264(2) 0.1751(2) 0.6686(4)
C16C C -0.1119(2) -0.0727(2) 0.4988(4)
C15B C -0.0203(2) -0.0939(2) 0.3749(3)
C1B C -0.0374(2) -0.1827(2) 0.2412(4)
C2B C -0.1267(2) -0.2383(2) 0.2397(4)
C3B C -0.1446(2) -0.3109(2) 0.1038(5)
C4B C -0.0744(2) -0.3319(2) -0.0355(4)
C5B C 0.0165(2) -0.2790(2) -0.0289(4)
C6B C 0.0345(2) -0.2074(2) 0.1049(4)
H4B H 0.0961(2) -0.1742(2) 0.1053(4)
H3B H 0.0659(2) -0.2928(2) -0.1176(4)
C13B C -0.0947(2) -0.4025(2) -0.1921(5)
C14B C -0.1718(3) -0.4612(2) -0.2102(5)
C7B C -0.1958(2) -0.5266(2) -0.3740(6)
C8B C -0.2749(3) -0.5924(2) -0.3648(6)
C9B C -0.3004(3) -0.6526(3) -0.5179(7)
C10B C -0.2439(3) -0.6470(3) -0.6790(7)
C11B C -0.1666(3) -0.5819(3) -0.6911(6)
C12B C -0.1413(3) -0.5203(2) -0.5410(5)
H9B H -0.0882(3) -0.4750(2) -0.5517(5)
H8B H -0.1295(3) -0.5781(3) -0.8015(6)
H7B H -0.2592(3) -0.6885(3) -0.7802(7)
H6B H -0.3551(3) -0.6961(3) -0.5111(7)
H5B H -0.3123(3) -0.5971(2) -0.2548(6)
H11B H -0.2170(3) -0.4627(2) -0.1105(5)
H10B H -0.0470(2) -0.4047(2) -0.2875(5)
H2B H -0.2049(2) -0.3464(2) 0.1059(5)
H1B H -0.1751(2) -0.2264(2) 0.3314(4)
C16B C 0.0727(2) -0.1119(2) 0.5012(4)
C15A C 0.0939(2) -0.0203(2) 0.6251(3)
C1A C 0.1827(2) -0.0374(2) 0.7588(4)
C2A C 0.2383(2) -0.1267(2) 0.7603(4)
C3A C 0.3109(2) -0.1446(2) 0.8962(5)
C4A C 0.3319(2) -0.0744(2) 1.0355(4)
C5A C 0.2790(2) 0.0165(2) 1.0289(4)
C6A C 0.2074(2) 0.0345(2) 0.8951(4)
H4A H 0.1742(2) 0.0961(2) 0.8947(4)
H3A H 0.2928(2) 0.0659(2) 1.1176(4)
C13A C 0.4025(2) -0.0947(2) 1.1921(5)
C14A C 0.4612(2) -0.1718(3) 1.2102(5)
C7A C 0.5266(2) -0.1958(2) 1.3740(6)
C8A C 0.5924(2) -0.2749(3) 1.3648(6)
C9A C 0.6526(3) -0.3004(3) 1.5179(7)
C10A C 0.6470(3) -0.2439(3) 1.6790(7)
C11A C 0.5819(3) -0.1666(3) 1.6911(6)
C12A C 0.5203(2) -0.1413(3) 1.5410(5)
H9A H 0.4750(2) -0.0882(3) 1.5517(5)
H8A H 0.5781(3) -0.1295(3) 1.8015(6)
H7A H 0.6885(3) -0.2592(3) 1.7802(7)
H6A H 0.6961(3) -0.3551(3) 1.5111(7)
H5A H 0.5971(2) -0.3123(3) 1.2548(6)
H11A H 0.4627(2) -0.2170(3) 1.1105(5)
H10A H 0.4047(2) -0.0470(2) 1.2875(5)
H2A H 0.3464(2) -0.2049(2) 0.8941(5)
H1A H 0.2264(2) -0.1751(2) 0.6686(4)
C16A C 0.1119(2) 0.0727(2) 0.4988(4)
H12A H 0.1703(2) 0.0610(2) 0.4201(4)
H13A H 0.1255(2) 0.1310(2) 0.5767(4)
C17A C 0.0000 0.0000 0.7458(5)
H14A H 0.0125 0.0577 0.8259(5)
H14C H -0.0125 -0.0577 0.8259(5)
H12B H 0.0610(2) -0.1703(2) 0.5799(4)
H13B H 0.1310(2) -0.1255(2) 0.4233(4)
H12C H -0.1703(2) -0.0610(2) 0.4201(4)
H13C H -0.1255(2) -0.1310(2) 0.5767(4)
loop_
_geom_bond_atom_site_label_1
_geom_bond_atom_site_label_2
_geom_bond_site_symmetry_1
_geom_bond_site_symmetry_2
C1 C2 1_555 1_555
C2 C3 1_555 1_555
C3 C4 1_555 1_555
C4 C5 1_555 1_555
C5 C6 1_555 1_555
C6 C1 1_555 1_555
C7 C8 1_555 1_555
C8 C9 1_555 1_555
C9 C10 1_555 1_555
C10 C11 1_555 1_555
C11 C12 1_555 1_555
C12 C7 1_555 1_555
C13 C4 1_555 1_555
C14 C7 1_555 1_555
C15 C1 1_555 1_555
C16 C15 1_555 1_555
C17 C15 1_555 1_555
H1 C2 1_555 1_555
H2 C3 1_555 1_555
H3 C5 1_555 1_555
H4 C6 1_555 1_555
H5 C8 1_555 1_555
H6 C9 1_555 1_555
H7 C10 1_555 1_555
H8 C11 1_555 1_555
H9 C12 1_555 1_555
H10 C13 1_555 1_555
H11 C14 1_555 1_555
H12 C16 1_555 1_555
H13 C16 1_555 1_555
H14 C17 1_555 1_555
H15 C17 1_555 1_555
C15C C16 1_555 1_555
C1C C15C 1_555 1_555
C2C C1C 1_555 1_555
C3C C2C 1_555 1_555
C4C C3C 1_555 1_555
C5C C4C 1_555 1_555
C6C C1C 1_555 1_555
H4C C6C 1_555 1_555
H3C C5C 1_555 1_555
C13C C4C 1_555 1_555
C14C C13C 1_555 1_555
C7C C14C 1_555 1_555
C8C C7C 1_555 1_555
C9C C8C 1_555 1_555
C10C C9C 1_555 1_555
C11C C10C 1_555 1_555
C12C C7C 1_555 1_555
H9C C12C 1_555 1_555
H8C C11C 1_555 1_555
H7C C10C 1_555 1_555
H6C C9C 1_555 1_555
H5C C8C 1_555 1_555
H11C C14C 1_555 1_555
H10C C13C 1_555 1_555
H2C C3C 1_555 1_555
H1C C2C 1_555 1_555
C16C C15C 1_555 1_555
C15B C17 1_555 1_555
C1B C15B 1_555 1_555
C2B C1B 1_555 1_555
C3B C2B 1_555 1_555
C4B C3B 1_555 1_555
C5B C4B 1_555 1_555
C6B C1B 1_555 1_555
H4B C6B 1_555 1_555
H3B C5B 1_555 1_555
C13B C4B 1_555 1_555
C14B C13B 1_555 1_555
C7B C14B 1_555 1_555
C8B C7B 1_555 1_555
C9B C8B 1_555 1_555
C10B C9B 1_555 1_555
C11B C10B 1_555 1_555
C12B C7B 1_555 1_555
H9B C12B 1_555 1_555
H8B C11B 1_555 1_555
H7B C10B 1_555 1_555
H6B C9B 1_555 1_555
H5B C8B 1_555 1_555
H11B C14B 1_555 1_555
H10B C13B 1_555 1_555
H2B C3B 1_555 1_555
H1B C2B 1_555 1_555
C16B C15B 1_555 1_555
C15A C16B 1_555 1_555
C1A C15A 1_555 1_555
C2A C1A 1_555 1_555
C3A C2A 1_555 1_555
C4A C3A 1_555 1_555
C5A C4A 1_555 1_555
C6A C1A 1_555 1_555
H4A C6A 1_555 1_555
H3A C5A 1_555 1_555
C13A C4A 1_555 1_555
C14A C13A 1_555 1_555
C7A C14A 1_555 1_555
C8A C7A 1_555 1_555
C9A C8A 1_555 1_555
C10A C9A 1_555 1_555
C11A C10A 1_555 1_555
C12A C7A 1_555 1_555
H9A C12A 1_555 1_555
H8A C11A 1_555 1_555
H7A C10A 1_555 1_555
H6A C9A 1_555 1_555
H5A C8A 1_555 1_555
H11A C14A 1_555 1_555
H10A C13A 1_555 1_555
H2A C3A 1_555 1_555
H1A C2A 1_555 1_555
C16A C15 1_555 1_555
H12A C16A 1_555 1_555
H13A C16A 1_555 1_555
C17A C15C 1_555 1_555
H14A C17A 1_555 1_555
H14C C17A 1_555 1_555
H12B C16B 1_555 1_555
H13B C16B 1_555 1_555
H12C C16C 1_555 1_555
H13C C16C 1_555 1_555
C13 C14 1_555 1_555
C5C C6C 1_555 1_555
C11C C12C 1_555 1_555
C16C C15B 1_555 1_555
C5B C6B 1_555 1_555
C11B C12B 1_555 1_555
C15A C16A 1_555 1_555
C15A C17A 1_555 1_555
C5A C6A 1_555 1_555
C11A C12A 1_555 1_555

#END
