
#######################################################################
#
#                 Cambridge Crystallographic Data Centre
#                                CCDC 
#
#######################################################################
#
# If this CIF has been generated from an entry in the Cambridge 
# Structural Database, then it will include bibliographic, chemical, 
# crystal, experimental, refinement or atomic coordinate data resulting 
# from the CCDC's data processing and validation procedures.
#
#######################################################################

data_QOTYOP
_chemical_formula_moiety         'C25 H35 N2 1+,Br1 1-,C1 H1 Cl3'
_chemical_name_systematic        
'3-benzyl-1-(2,6-diisopropylphenyl)-4-isopropyl-4,5-dihydro-1H-imidazol-3-ium bromide chloroform solvate'
_symmetry_cell_setting           monoclinic
_symmetry_space_group_name_H-M   'P 21'
_symmetry_Int_Tables_number      4
_space_group_name_Hall           'P 2yb'
loop_
_symmetry_equiv_pos_site_id
_symmetry_equiv_pos_as_xyz
1 x,y,z
2 -x,1/2+y,-z
_cell_length_a                   9.00109(11)
_cell_length_b                   29.2372(3)
_cell_length_c                   10.53108(12)
_cell_angle_alpha                90
_cell_angle_beta                 91.1490(11)
_cell_angle_gamma                90
_cell_volume                     2770.87
_exptl_crystal_colour            colorless
_exptl_crystal_description       tablet
_cell_formula_units_Z            4
loop_
_atom_site_label
_atom_site_type_symbol
_atom_site_fract_x
_atom_site_fract_y
_atom_site_fract_z
Br1 Br 1.39619(8) 0.35382(2) -0.00214(7)
Br2 Br 0.97977(8) 0.72801(2) 0.50466(7)
Cl2 Cl 1.5882(8) 0.4820(3) 0.0207(11)
Cl3 Cl 1.3666(7) 0.50565(15) -0.1588(4)
Cl4 Cl 1.2964(7) 0.48141(17) 0.0966(5)
C1 C 1.4011(13) 0.4722(4) -0.0290(10)
H1 H 1.3905 0.4394 -0.0547
Cl7 Cl 1.0624(9) 0.5784(2) 0.6627(5)
Cl8 Cl 0.8494(8) 0.5970(3) 0.4658(12)
Cl9 Cl 1.1472(8) 0.60475(16) 0.4198(6)
C2 C 1.0216(13) 0.6113(4) 0.5307(9)
H3 H 1.0197 0.6442 0.5568
N1 N 0.9251(7) 0.39145(19) 0.0926(5)
C3 C 1.0396(8) 0.3639(2) 0.1097(6)
H5 H 1.1395 0.3729 0.0964
N2 N 1.0015(6) 0.32267(19) 0.1472(5)
C4 C 0.8376(7) 0.3188(2) 0.1570(6)
H6 H 0.8000 0.2964 0.0920
C5 C 0.7840(8) 0.3676(2) 0.1190(7)
H7 H 0.7180 0.3668 0.0427
H8 H 0.7309 0.3825 0.1894
C6 C 0.9328(9) 0.4390(2) 0.0586(7)
C7 C 0.9288(12) 0.4510(3) -0.0691(8)
C8 C 0.9310(16) 0.4973(3) -0.0993(10)
H9 H 0.9244 0.5065 -0.1858
C9 C 0.9426(17) 0.5305(3) -0.0034(10)
H10 H 0.9483 0.5619 -0.0258
C10 C 0.9460(15) 0.5180(3) 0.1229(10)
H11 H 0.9498 0.5408 0.1871
C11 C 0.9437(12) 0.4715(3) 0.1566(8)
C12 C 0.9153(12) 0.4152(3) -0.1742(8)
H12 H 0.8977 0.3848 -0.1338
C13 C 1.0555(16) 0.4122(5) -0.2481(12)
H13 H 1.0789 0.4424 -0.2832
H14 H 1.0421 0.3902 -0.3176
H15 H 1.1372 0.4022 -0.1919
C14 C 0.7854(18) 0.4256(5) -0.2618(13)
H16 H 0.6960 0.4300 -0.2117
H17 H 0.7699 0.4000 -0.3208
H18 H 0.8059 0.4535 -0.3099
C15 C 0.9442(15) 0.4583(3) 0.2963(8)
H19 H 0.9535 0.4243 0.3016
C16 C 1.0723(17) 0.4789(4) 0.3725(11)
H20 H 1.1660 0.4720 0.3307
H21 H 1.0744 0.4658 0.4582
H22 H 1.0592 0.5121 0.3778
C17 C 0.8022(18) 0.4713(4) 0.3558(11)
H23 H 0.7934 0.5047 0.3572
H24 H 0.8006 0.4596 0.4429
H25 H 0.7189 0.4583 0.3065
C18 C 1.1038(7) 0.2840(2) 0.1691(6)
H26 H 1.0953 0.2733 0.2579
H27 H 1.2072 0.2944 0.1571
C19 C 1.0703(7) 0.2447(2) 0.0799(6)
C20 C 1.1159(9) 0.2466(3) -0.0452(7)
H28 H 1.1681 0.2727 -0.0745
C21 C 1.0854(10) 0.2103(3) -0.1286(7)
H29 H 1.1169 0.2117 -0.2140
C22 C 1.0105(9) 0.1728(3) -0.0869(8)
H30 H 0.9883 0.1484 -0.1437
C23 C 0.9659(9) 0.1703(3) 0.0403(8)
H31 H 0.9142 0.1441 0.0693
C24 C 0.9972(8) 0.2059(2) 0.1231(7)
H32 H 0.9689 0.2039 0.2093
C25 C 0.7906(8) 0.3028(2) 0.2885(6)
H33 H 0.8402 0.2728 0.3062
C26 C 0.6236(8) 0.2948(3) 0.2852(7)
H34 H 0.5723 0.3237 0.2667
H35 H 0.5925 0.2831 0.3677
H36 H 0.5985 0.2724 0.2189
C27 C 0.8353(10) 0.3356(3) 0.3948(7)
H37 H 0.9390 0.3450 0.3847
H38 H 0.8248 0.3204 0.4770
H39 H 0.7711 0.3627 0.3913
N3 N 0.5006(7) 0.6923(2) 0.4099(6)
C28 C 0.6171(8) 0.7184(2) 0.3942(6)
H40 H 0.7164 0.7084 0.4084
N4 N 0.5819(6) 0.76022(18) 0.3566(5)
C29 C 0.4187(7) 0.7655(2) 0.3442(6)
H41 H 0.3859 0.7886 0.4081
C30 C 0.3627(8) 0.7180(2) 0.3850(7)
H42 H 0.3024 0.7201 0.4624
H43 H 0.3025 0.7035 0.3164
C31 C 0.5036(9) 0.6445(2) 0.4450(7)
C32 C 0.5055(12) 0.6332(3) 0.5733(8)
C33 C 0.5027(16) 0.5873(3) 0.6047(9)
H44 H 0.5004 0.5784 0.6915
C34 C 0.5032(19) 0.5540(3) 0.5112(10)
H45 H 0.5070 0.5227 0.5349
C35 C 0.4984(17) 0.5655(3) 0.3848(10)
H46 H 0.4934 0.5421 0.3222
C36 C 0.5008(12) 0.6120(3) 0.3470(8)
C37 C 0.5066(11) 0.6691(3) 0.6780(8)
H47 H 0.4954 0.6998 0.6372
C38 C 0.6524(14) 0.6686(5) 0.7520(11)
H48 H 0.6552 0.6421 0.8088
H49 H 0.6617 0.6967 0.8022
H50 H 0.7348 0.6667 0.6928
C39 C 0.3782(14) 0.6627(4) 0.7684(11)
H51 H 0.2839 0.6680 0.7226
H52 H 0.3881 0.6845 0.8388
H53 H 0.3799 0.6314 0.8020
C40 C 0.5003(16) 0.6246(3) 0.2069(8)
H54 H 0.5021 0.6587 0.2004
C41 C 0.6340(18) 0.6066(4) 0.1435(11)
H55 H 0.7228 0.6220 0.1780
H56 H 0.6255 0.6123 0.0520
H57 H 0.6421 0.5736 0.1588
C42 C 0.3635(19) 0.6079(5) 0.1394(12)
H58 H 0.3488 0.5754 0.1583
H59 H 0.3743 0.6120 0.0477
H60 H 0.2775 0.6254 0.1679
C43 C 0.6881(8) 0.7977(2) 0.3348(6)
H61 H 0.6804 0.8076 0.2450
H62 H 0.7906 0.7866 0.3512
C44 C 0.6569(7) 0.8383(2) 0.4213(6)
C45 C 0.6913(8) 0.8363(3) 0.5478(7)
H63 H 0.7381 0.8098 0.5821
C46 C 0.6580(10) 0.8731(3) 0.6278(7)
H64 H 0.6816 0.8716 0.7160
C47 C 0.5913(9) 0.9114(3) 0.5778(8)
H65 H 0.5685 0.9364 0.6317
C48 C 0.5568(11) 0.9138(3) 0.4490(9)
H66 H 0.5096 0.9403 0.4152
C49 C 0.5910(11) 0.8776(2) 0.3694(7)
H67 H 0.5699 0.8795 0.2808
C50 C 0.3692(8) 0.7817(2) 0.2127(6)
H68 H 0.4206 0.8113 0.1952
C51 C 0.2025(9) 0.7909(3) 0.2147(7)
H69 H 0.1500 0.7626 0.2354
H70 H 0.1687 0.8019 0.1311
H71 H 0.1818 0.8142 0.2790
C52 C 0.4092(9) 0.7481(2) 0.1082(6)
H72 H 0.5165 0.7424 0.1113
H73 H 0.3809 0.7610 0.0254
H74 H 0.3560 0.7193 0.1209
Cl1? Cl 1.5213(11) 0.4776(2) 0.0888(7)
Cl5? Cl 1.461(2) 0.5016(8) -0.1565(15)
Cl6? Cl 1.2337(17) 0.4903(11) 0.015(2)
H2? H 1.3936 0.4391 -0.0522
Cl10? Cl 0.977(2) 0.5816(7) 0.6601(13)
Cl11? Cl 0.9087(15) 0.6039(2) 0.4083(7)
Cl12? Cl 1.1966(16) 0.6072(10) 0.490(2)
H4? H 1.0085 0.6441 0.5553
loop_
_geom_bond_atom_site_label_1
_geom_bond_atom_site_label_2
_geom_bond_site_symmetry_1
_geom_bond_site_symmetry_2
Cl2 C1 1_555 1_555
Cl3 C1 1_555 1_555
Cl4 C1 1_555 1_555
C1 H1 1_555 1_555
Cl7 C2 1_555 1_555
Cl8 C2 1_555 1_555
Cl9 C2 1_555 1_555
C2 H3 1_555 1_555
N1 C3 1_555 1_555
C3 H5 1_555 1_555
N2 C3 1_555 1_555
C4 N2 1_555 1_555
H6 C4 1_555 1_555
C5 N1 1_555 1_555
H7 C5 1_555 1_555
H8 C5 1_555 1_555
C6 N1 1_555 1_555
C7 C6 1_555 1_555
C8 C7 1_555 1_555
H9 C8 1_555 1_555
C9 C8 1_555 1_555
H10 C9 1_555 1_555
C10 C9 1_555 1_555
H11 C10 1_555 1_555
C11 C6 1_555 1_555
C12 C7 1_555 1_555
H12 C12 1_555 1_555
C13 C12 1_555 1_555
H13 C13 1_555 1_555
H14 C13 1_555 1_555
H15 C13 1_555 1_555
C14 C12 1_555 1_555
H16 C14 1_555 1_555
H17 C14 1_555 1_555
H18 C14 1_555 1_555
C15 C11 1_555 1_555
H19 C15 1_555 1_555
C16 C15 1_555 1_555
H20 C16 1_555 1_555
H21 C16 1_555 1_555
H22 C16 1_555 1_555
C17 C15 1_555 1_555
H23 C17 1_555 1_555
H24 C17 1_555 1_555
H25 C17 1_555 1_555
C18 N2 1_555 1_555
H26 C18 1_555 1_555
H27 C18 1_555 1_555
C19 C18 1_555 1_555
C20 C19 1_555 1_555
H28 C20 1_555 1_555
C21 C20 1_555 1_555
H29 C21 1_555 1_555
C22 C21 1_555 1_555
H30 C22 1_555 1_555
C23 C22 1_555 1_555
H31 C23 1_555 1_555
C24 C19 1_555 1_555
H32 C24 1_555 1_555
C25 C4 1_555 1_555
H33 C25 1_555 1_555
C26 C25 1_555 1_555
H34 C26 1_555 1_555
H35 C26 1_555 1_555
H36 C26 1_555 1_555
C27 C25 1_555 1_555
H37 C27 1_555 1_555
H38 C27 1_555 1_555
H39 C27 1_555 1_555
N3 C28 1_555 1_555
C28 H40 1_555 1_555
N4 C28 1_555 1_555
C29 N4 1_555 1_555
H41 C29 1_555 1_555
C30 N3 1_555 1_555
H42 C30 1_555 1_555
H43 C30 1_555 1_555
C31 N3 1_555 1_555
C32 C31 1_555 1_555
C33 C32 1_555 1_555
H44 C33 1_555 1_555
C34 C33 1_555 1_555
H45 C34 1_555 1_555
C35 C34 1_555 1_555
H46 C35 1_555 1_555
C36 C31 1_555 1_555
C37 C32 1_555 1_555
H47 C37 1_555 1_555
C38 C37 1_555 1_555
H48 C38 1_555 1_555
H49 C38 1_555 1_555
H50 C38 1_555 1_555
C39 C37 1_555 1_555
H51 C39 1_555 1_555
H52 C39 1_555 1_555
H53 C39 1_555 1_555
C40 C36 1_555 1_555
H54 C40 1_555 1_555
C41 C40 1_555 1_555
H55 C41 1_555 1_555
H56 C41 1_555 1_555
H57 C41 1_555 1_555
C42 C40 1_555 1_555
H58 C42 1_555 1_555
H59 C42 1_555 1_555
H60 C42 1_555 1_555
C43 N4 1_555 1_555
H61 C43 1_555 1_555
H62 C43 1_555 1_555
C44 C43 1_555 1_555
C45 C44 1_555 1_555
H63 C45 1_555 1_555
C46 C45 1_555 1_555
H64 C46 1_555 1_555
C47 C46 1_555 1_555
H65 C47 1_555 1_555
C48 C47 1_555 1_555
H66 C48 1_555 1_555
C49 C44 1_555 1_555
H67 C49 1_555 1_555
C50 C29 1_555 1_555
H68 C50 1_555 1_555
C51 C50 1_555 1_555
H69 C51 1_555 1_555
H70 C51 1_555 1_555
H71 C51 1_555 1_555
C52 C50 1_555 1_555
H72 C52 1_555 1_555
H73 C52 1_555 1_555
H74 C52 1_555 1_555
C4 C5 1_555 1_555
C10 C11 1_555 1_555
C23 C24 1_555 1_555
C29 C30 1_555 1_555
C35 C36 1_555 1_555
C48 C49 1_555 1_555

#END
