
#######################################################################
#
#                 Cambridge Crystallographic Data Centre
#                                CCDC 
#
#######################################################################
#
# If this CIF has been generated from an entry in the Cambridge 
# Structural Database, then it will include bibliographic, chemical, 
# crystal, experimental, refinement or atomic coordinate data resulting 
# from the CCDC's data processing and validation procedures.
#
#######################################################################

data_QOTZIK
_chemical_formula_moiety         'C56 H64 Br4 N4'
_chemical_name_systematic        
2,7,12,17-tetrabromo-5,10,15,20-tetrahexyl-5,10,15,20-tetrahydrotriindolo[2',3':3,4;2'',3'':5,6;2''',3''':7,8]cycloocta[1,2-b]indole
_symmetry_cell_setting           cubic
_symmetry_space_group_name_H-M   'I a -3 d'
_symmetry_Int_Tables_number      230
_space_group_name_Hall           '-I 4bd 2c 3'
loop_
_symmetry_equiv_pos_site_id
_symmetry_equiv_pos_as_xyz
1 x,y,z
2 1/4-y,3/4+x,1/4+z
3 1/2-x,-y,1/2+z
4 1/4+y,1/4-x,3/4+z
5 x,-y,1/2-z
6 1/4+y,3/4+x,3/4-z
7 1/2-x,y,-z
8 1/4-y,1/4-x,1/4-z
9 z,x,y
10 1/4-x,3/4+z,1/4+y
11 1/2-z,-x,1/2+y
12 1/4+x,1/4-z,3/4+y
13 z,-x,1/2-y
14 1/4+x,3/4+z,3/4-y
15 1/2-z,x,-y
16 1/4-x,1/4-z,1/4-y
17 y,z,x
18 1/4-z,1/4-y,1/4-x
19 3/4-z,1/4+y,3/4+x
20 3/4+z,1/4+y,1/4-x
21 1/4+z,1/4-y,3/4+x
22 y,-z,1/2-x
23 -y,1/2-z,x
24 -y,1/2+z,1/2-x
25 1/2+x,1/2+y,1/2+z
26 3/4-y,1/4+x,3/4+z
27 -x,1/2-y,z
28 3/4+y,3/4-x,1/4+z
29 1/2+x,1/2-y,-z
30 3/4+y,1/4+x,1/4-z
31 -x,1/2+y,1/2-z
32 3/4-y,3/4-x,3/4-z
33 1/2+z,1/2+x,1/2+y
34 3/4-x,1/4+z,3/4+y
35 -z,1/2-x,y
36 3/4+x,3/4-z,1/4+y
37 1/2+z,1/2-x,-y
38 3/4+x,1/4+z,1/4-y
39 -z,1/2+x,1/2-y
40 3/4-x,3/4-z,3/4-y
41 1/2+y,1/2+z,1/2+x
42 3/4-z,3/4-y,3/4-x
43 1/4-z,3/4+y,1/4+x
44 1/4+z,3/4+y,3/4-x
45 3/4+z,3/4-y,1/4+x
46 1/2+y,1/2-z,-x
47 1/2-y,-z,1/2+x
48 1/2-y,z,-x
49 -x,-y,-z
50 3/4+y,1/4-x,3/4-z
51 1/2+x,y,1/2-z
52 3/4-y,3/4+x,1/4-z
53 -x,y,1/2+z
54 3/4-y,1/4-x,1/4+z
55 1/2+x,-y,z
56 3/4+y,3/4+x,3/4+z
57 -z,-x,-y
58 3/4+x,1/4-z,3/4-y
59 1/2+z,x,1/2-y
60 3/4-x,3/4+z,1/4-y
61 -z,x,1/2+y
62 3/4-x,1/4-z,1/4+y
63 1/2+z,-x,y
64 3/4+x,3/4+z,3/4+y
65 -y,-z,-x
66 3/4+z,3/4+y,3/4+x
67 1/4+z,3/4-y,1/4-x
68 1/4-z,3/4-y,3/4+x
69 3/4-z,3/4+y,1/4-x
70 -y,z,1/2+x
71 y,1/2+z,-x
72 y,1/2-z,1/2+x
73 1/2-x,1/2-y,1/2-z
74 1/4+y,3/4-x,1/4-z
75 x,1/2+y,-z
76 1/4-y,1/4+x,3/4-z
77 1/2-x,1/2+y,z
78 1/4-y,3/4-x,3/4+z
79 x,1/2-y,1/2+z
80 1/4+y,1/4+x,1/4+z
81 1/2-z,1/2-x,1/2-y
82 1/4+x,3/4-z,1/4-y
83 z,1/2+x,-y
84 1/4-x,1/4+z,3/4-y
85 1/2-z,1/2+x,y
86 1/4-x,3/4-z,3/4+y
87 z,1/2-x,1/2+y
88 1/4+x,1/4+z,1/4+y
89 1/2-y,1/2-z,1/2-x
90 1/4+z,1/4+y,1/4+x
91 3/4+z,1/4-y,3/4-x
92 3/4-z,1/4-y,1/4+x
93 1/4-z,1/4+y,3/4-x
94 1/2-y,1/2+z,x
95 1/2+y,z,1/2-x
96 1/2+y,-z,x
_cell_length_a                   31.656(15)
_cell_length_b                   31.656(15)
_cell_length_c                   31.656(15)
_cell_angle_alpha                90
_cell_angle_beta                 90
_cell_angle_gamma                90
_cell_volume                     31722.6
_exptl_crystal_colour            yellow
_exptl_crystal_description       block
_cell_formula_units_Z            24
_chemical_properties_physical    'Air-sensitive, Heat-sensitive'
_exptl_crystal_recrystallization_method 'vapour deposition'
_exptl_crystal_preparation       Luminescent
loop_
_atom_site_label
_atom_site_type_symbol
_atom_site_fract_x
_atom_site_fract_y
_atom_site_fract_z
Br1 Br 0.58603(3) 0.44322(3) 0.00815(3)
C1 C 0.57169(12) 0.39605(10) 0.03951(11)
C2 C 0.60373(9) 0.37053(12) 0.05534(12)
H1 H 0.6318 0.3766 0.0491
C3 C 0.59383(8) 0.33596(10) 0.08054(11)
H2 H 0.6153 0.3189 0.0911
C4 C 0.55189(10) 0.32692(9) 0.08992(10)
C5 C 0.51986(8) 0.35244(10) 0.07409(11)
C6 C 0.52976(10) 0.38701(10) 0.04889(11)
H3 H 0.5083 0.4041 0.0383
C7 C 0.48878(16) 0.30229(15) 0.11218(15)
C8 C 0.45491(15) 0.28159(15) 0.13508(15)
C9 C 0.44196(17) 0.34864(18) 0.06733(19)
H4 H 0.4400 0.3792 0.0655
H5 H 0.4190 0.3390 0.0851
C10 C 0.43625(19) 0.3303(2) 0.02374(19)
H6 H 0.4091 0.3393 0.0128
H7 H 0.4579 0.3419 0.0054
C11 C 0.43845(19) 0.2830(2) 0.02178(18)
H8 H 0.4156 0.2714 0.0386
H9 H 0.4649 0.2738 0.0343
C12 C 0.4355(2) 0.2652(2) -0.0225(2)
H10 H 0.4580 0.2772 -0.0395
H11 H 0.4088 0.2740 -0.0349
C13 C 0.4384(3) 0.2175(3) -0.0246(2)
H12 H 0.4645 0.2085 -0.0113
H13 H 0.4152 0.2053 -0.0087
C14 C 0.4372(4) 0.2009(4) -0.0693(3)
H14 H 0.4106 0.2080 -0.0820
H15 H 0.4405 0.1708 -0.0690
H16 H 0.4597 0.2134 -0.0853
N1 N 0.48172(13) 0.33760(13) 0.08741(13)
Br1YA Br 0.30678(3) 0.33603(3) 0.24185(3)
C1YA C 0.35395(10) 0.32169(12) 0.21049(11)
C2YA C 0.37947(12) 0.35373(9) 0.19466(12)
H1YA H 0.3734 0.3818 0.2009
C3YA C 0.41404(10) 0.34383(8) 0.16946(11)
H2YA H 0.4311 0.3653 0.1589
C4YA C 0.42308(9) 0.30189(10) 0.16008(10)
C5YA C 0.39756(10) 0.26986(8) 0.17591(11)
C6YA C 0.36299(10) 0.27976(10) 0.20111(11)
H3YA H 0.3459 0.2583 0.2117
C7YA C 0.44771(15) 0.23878(16) 0.13782(15)
C8YA C 0.46841(15) 0.20491(15) 0.11492(15)
C9YA C 0.40136(18) 0.19196(17) 0.18267(19)
H4YA H 0.3708 0.1900 0.1845
H5YA H 0.4110 0.1690 0.1649
C10YA C 0.4197(2) 0.18625(19) 0.22626(19)
H6YA H 0.4107 0.1591 0.2372
H7YA H 0.4081 0.2079 0.2446
C11YA C 0.4670(2) 0.18845(19) 0.22822(18)
H8YA H 0.4786 0.1656 0.2114
H9YA H 0.4762 0.2149 0.2157
C12YA C 0.4848(2) 0.1855(2) 0.2725(2)
H10YA H 0.4728 0.2080 0.2895
H11YA H 0.4760 0.1588 0.2849
C13YA C 0.5325(3) 0.1884(3) 0.2746(2)
H12YA H 0.5415 0.2145 0.2613
H13YA H 0.5447 0.1652 0.2587
C14YA C 0.5491(4) 0.1872(4) 0.3193(3)
H14YA H 0.5420 0.1606 0.3320
H15YA H 0.5792 0.1905 0.3190
H16YA H 0.5366 0.2097 0.3353
N1YA N 0.41240(13) 0.23172(13) 0.16259(13)
Br1UB Br 0.69322(3) 0.16397(3) 0.24185(3)
C1UB C 0.64605(10) 0.17831(12) 0.21049(11)
C2UB C 0.62053(12) 0.14627(9) 0.19466(12)
H1UB H 0.6266 0.1182 0.2009
C3UB C 0.58596(10) 0.15617(8) 0.16946(11)
H2UB H 0.5689 0.1347 0.1589
C4UB C 0.57692(9) 0.19811(10) 0.16008(10)
C5UB C 0.60244(10) 0.23014(8) 0.17591(11)
C6UB C 0.63701(10) 0.22024(10) 0.20111(11)
H3UB H 0.6541 0.2417 0.2117
C7UB C 0.55229(15) 0.26122(16) 0.13782(15)
C8UB C 0.53159(15) 0.29509(15) 0.11492(15)
C9UB C 0.59864(18) 0.30804(17) 0.18267(19)
H4UB H 0.6292 0.3100 0.1845
H5UB H 0.5890 0.3310 0.1649
C10UB C 0.5803(2) 0.31375(19) 0.22626(19)
H6UB H 0.5893 0.3409 0.2372
H7UB H 0.5919 0.2921 0.2446
C11UB C 0.5330(2) 0.31155(19) 0.22822(18)
H8UB H 0.5214 0.3344 0.2114
H9UB H 0.5238 0.2851 0.2157
C12UB C 0.5152(2) 0.3145(2) 0.2725(2)
H10UB H 0.5272 0.2920 0.2895
H11UB H 0.5240 0.3412 0.2849
C13UB C 0.4675(3) 0.3116(3) 0.2746(2)
H12UB H 0.4585 0.2855 0.2613
H13UB H 0.4553 0.3348 0.2587
C14UB C 0.4509(4) 0.3128(4) 0.3193(3)
H14UB H 0.4580 0.3394 0.3320
H15UB H 0.4208 0.3095 0.3190
H16UB H 0.4634 0.2903 0.3353
N1UB N 0.58760(13) 0.26828(13) 0.16259(13)
Br1Z Br 0.41397(3) 0.05678(3) 0.00815(3)
C1Z C 0.42831(12) 0.10395(10) 0.03951(11)
C2Z C 0.39627(9) 0.12947(12) 0.05534(12)
H1Z H 0.3682 0.1234 0.0491
C3Z C 0.40617(8) 0.16404(10) 0.08054(11)
H2Z H 0.3847 0.1811 0.0911
C4Z C 0.44811(10) 0.17308(9) 0.08992(10)
C5Z C 0.48014(8) 0.14756(10) 0.07409(11)
C6Z C 0.47024(10) 0.11299(10) 0.04889(11)
H3Z H 0.4917 0.0959 0.0383
C7Z C 0.51122(16) 0.19771(15) 0.11218(15)
C8Z C 0.54509(15) 0.21841(15) 0.13508(15)
C9Z C 0.55804(17) 0.15136(18) 0.06733(19)
H4Z H 0.5600 0.1208 0.0655
H5Z H 0.5810 0.1610 0.0851
C10Z C 0.56375(19) 0.1697(2) 0.02374(19)
H6Z H 0.5909 0.1607 0.0128
H7Z H 0.5421 0.1581 0.0054
C11Z C 0.56155(19) 0.2170(2) 0.02178(18)
H8Z H 0.5844 0.2286 0.0386
H9Z H 0.5351 0.2262 0.0343
C12Z C 0.5645(2) 0.2348(2) -0.0225(2)
H10Z H 0.5420 0.2228 -0.0395
H11Z H 0.5912 0.2260 -0.0349
C13Z C 0.5616(3) 0.2825(3) -0.0246(2)
H12Z H 0.5355 0.2915 -0.0113
H13Z H 0.5848 0.2947 -0.0087
C14Z C 0.5628(4) 0.2991(4) -0.0693(3)
H14Z H 0.5894 0.2920 -0.0820
H15Z H 0.5595 0.3292 -0.0690
H16Z H 0.5403 0.2866 -0.0853
N1Z N 0.51828(13) 0.16240(13) 0.08741(13)
loop_
_geom_bond_atom_site_label_1
_geom_bond_atom_site_label_2
_geom_bond_site_symmetry_1
_geom_bond_site_symmetry_2
Br1 C1 1_555 1_555
C1 C2 1_555 1_555
C2 H1 1_555 1_555
C3 C2 1_555 1_555
H2 C3 1_555 1_555
C4 C3 1_555 1_555
C5 C4 1_555 1_555
C6 C1 1_555 1_555
H3 C6 1_555 1_555
C7 C8 1_555 1_555
C8 C4YA 1_555 1_555
C9 H4 1_555 1_555
H5 C9 1_555 1_555
C10 C9 1_555 1_555
H6 C10 1_555 1_555
H7 C10 1_555 1_555
C11 C10 1_555 1_555
H8 C11 1_555 1_555
H9 C11 1_555 1_555
C12 C11 1_555 1_555
H10 C12 1_555 1_555
H11 C12 1_555 1_555
C13 C12 1_555 1_555
H12 C13 1_555 1_555
H13 C13 1_555 1_555
C14 C13 1_555 1_555
H14 C14 1_555 1_555
H15 C14 1_555 1_555
H16 C14 1_555 1_555
N1 C5 1_555 1_555
Br1YA C1YA 1_555 1_555
C1YA C2YA 1_555 1_555
C2YA H1YA 1_555 1_555
C3YA C2YA 1_555 1_555
H2YA C3YA 1_555 1_555
C4YA C3YA 1_555 1_555
C5YA C4YA 1_555 1_555
C6YA C1YA 1_555 1_555
H3YA C6YA 1_555 1_555
C7YA C8 1_555 1_555
C8YA C7YA 1_555 1_555
C9YA H4YA 1_555 1_555
H5YA C9YA 1_555 1_555
C10YA C9YA 1_555 1_555
H6YA C10YA 1_555 1_555
H7YA C10YA 1_555 1_555
C11YA C10YA 1_555 1_555
H8YA C11YA 1_555 1_555
H9YA C11YA 1_555 1_555
C12YA C11YA 1_555 1_555
H10YA C12YA 1_555 1_555
H11YA C12YA 1_555 1_555
C13YA C12YA 1_555 1_555
H12YA C13YA 1_555 1_555
H13YA C13YA 1_555 1_555
C14YA C13YA 1_555 1_555
H14YA C14YA 1_555 1_555
H15YA C14YA 1_555 1_555
H16YA C14YA 1_555 1_555
N1YA C5YA 1_555 1_555
Br1UB C1UB 1_555 1_555
C1UB C2UB 1_555 1_555
C2UB H1UB 1_555 1_555
C3UB C2UB 1_555 1_555
H2UB C3UB 1_555 1_555
C4UB C3UB 1_555 1_555
C5UB C4UB 1_555 1_555
C6UB C1UB 1_555 1_555
H3UB C6UB 1_555 1_555
C7UB C8UB 1_555 1_555
C8UB C4 1_555 1_555
C9UB H4UB 1_555 1_555
H5UB C9UB 1_555 1_555
C10UB C9UB 1_555 1_555
H6UB C10UB 1_555 1_555
H7UB C10UB 1_555 1_555
C11UB C10UB 1_555 1_555
H8UB C11UB 1_555 1_555
H9UB C11UB 1_555 1_555
C12UB C11UB 1_555 1_555
H10UB C12UB 1_555 1_555
H11UB C12UB 1_555 1_555
C13UB C12UB 1_555 1_555
H12UB C13UB 1_555 1_555
H13UB C13UB 1_555 1_555
C14UB C13UB 1_555 1_555
H14UB C14UB 1_555 1_555
H15UB C14UB 1_555 1_555
H16UB C14UB 1_555 1_555
N1UB C5UB 1_555 1_555
Br1Z C1Z 1_555 1_555
C1Z C2Z 1_555 1_555
C2Z H1Z 1_555 1_555
C3Z C2Z 1_555 1_555
H2Z C3Z 1_555 1_555
C4Z C8YA 1_555 1_555
C5Z C4Z 1_555 1_555
C6Z C1Z 1_555 1_555
H3Z C6Z 1_555 1_555
C7Z C8YA 1_555 1_555
C8Z C4UB 1_555 1_555
C9Z H4Z 1_555 1_555
H5Z C9Z 1_555 1_555
C10Z C9Z 1_555 1_555
H6Z C10Z 1_555 1_555
H7Z C10Z 1_555 1_555
C11Z C10Z 1_555 1_555
H8Z C11Z 1_555 1_555
H9Z C11Z 1_555 1_555
C12Z C11Z 1_555 1_555
H10Z C12Z 1_555 1_555
H11Z C12Z 1_555 1_555
C13Z C12Z 1_555 1_555
H12Z C13Z 1_555 1_555
H13Z C13Z 1_555 1_555
C14Z C13Z 1_555 1_555
H14Z C14Z 1_555 1_555
H15Z C14Z 1_555 1_555
H16Z C14Z 1_555 1_555
N1Z C5Z 1_555 1_555
C5 C6 1_555 1_555
C7 N1 1_555 1_555
C7 C8UB 1_555 1_555
C9 N1 1_555 1_555
C5YA C6YA 1_555 1_555
C7YA N1YA 1_555 1_555
C9YA N1YA 1_555 1_555
C5UB C6UB 1_555 1_555
C7UB N1UB 1_555 1_555
C7UB C8Z 1_555 1_555
C9UB N1UB 1_555 1_555
C3Z C4Z 1_555 1_555
C5Z C6Z 1_555 1_555
C7Z C8Z 1_555 1_555
C7Z N1Z 1_555 1_555
C9Z N1Z 1_555 1_555

#END
