
#######################################################################
#
#                 Cambridge Crystallographic Data Centre
#                                CCDC 
#
#######################################################################
#
# If this CIF has been generated from an entry in the Cambridge 
# Structural Database, then it will include bibliographic, chemical, 
# crystal, experimental, refinement or atomic coordinate data resulting 
# from the CCDC's data processing and validation procedures.
#
#######################################################################

data_QOTZAB
_chemical_formula_moiety         'C36 H30'
_chemical_name_systematic        
trans-2',5'-bis(2-(4-Methylphenyl)vinyl)-1,1':4',1''-terphenyl
_symmetry_cell_setting           orthorhombic
_symmetry_space_group_name_H-M   'I b a 2'
_symmetry_Int_Tables_number      45
_space_group_name_Hall           'I 2 -2c'
loop_
_symmetry_equiv_pos_site_id
_symmetry_equiv_pos_as_xyz
1 x,y,z
2 -x,-y,z
3 1/2+x,1/2-y,z
4 1/2-x,1/2+y,z
5 1/2+x,1/2+y,1/2+z
6 1/2-x,1/2-y,1/2+z
7 x,-y,1/2+z
8 -x,y,1/2+z
_cell_length_a                   10.608(2)
_cell_length_b                   32.541(7)
_cell_length_c                   7.6837(15)
_cell_angle_alpha                90
_cell_angle_beta                 90
_cell_angle_gamma                90
_cell_volume                     2652.37
_exptl_crystal_colour            colorless
_exptl_crystal_description       block
_cell_formula_units_Z            4
_exptl_crystal_recrystallization_method ethanol/tetrahydrofuran
_exptl_crystal_preparation       luminescent
loop_
_atom_site_label
_atom_site_type_symbol
_atom_site_fract_x
_atom_site_fract_y
_atom_site_fract_z
C1 C 0.1091(3) 0.52474(9) 0.0161(5)
C2 C 0.1162(3) 0.48218(9) 0.0160(5)
C3 C 0.0109(3) 0.45682(8) 0.0185(5)
C4 C 0.0262(3) 0.41173(9) 0.0201(5)
C5 C 0.1213(3) 0.39187(10) 0.0941(4)
C6 C 0.1357(3) 0.34718(9) 0.1095(4)
C7 C 0.2376(4) 0.33089(11) 0.2015(5)
C8 C 0.2485(5) 0.28928(12) 0.2313(5)
C9 C 0.1597(4) 0.26203(10) 0.1685(5)
C10 C 0.0595(4) 0.27783(11) 0.0751(5)
C11 C 0.0478(4) 0.31956(10) 0.0442(5)
C12 C 0.2271(3) 0.54864(10) 0.0164(5)
C13 C 0.2454(4) 0.58245(11) 0.1240(6)
C14 C 0.3591(5) 0.60427(13) 0.1165(7)
C15 C 0.4543(4) 0.59179(16) 0.0053(8)
C16 C 0.4398(4) 0.55779(16) -0.0942(7)
C17 C 0.3261(3) 0.53660(12) -0.0926(5)
C18 C 0.1705(4) 0.21637(10) 0.2045(6)
H1 H 0.2521 0.2068 0.1686
H2 H 0.1064 0.2019 0.1409
H3 H 0.1599 0.2115 0.3268
H4 H 0.207(3) 0.4700(9) 0.011(5)
H5 H -0.047(3) 0.3937(9) -0.034(4)
H6 H 0.186(2) 0.4072(8) 0.145(4)
H7 H 0.297(3) 0.3507(10) 0.242(4)
H8 H 0.318(4) 0.2774(14) 0.267(7)
H9 H -0.009(3) 0.2585(9) 0.018(5)
H10 H -0.025(3) 0.3283(10) -0.022(4)
H11 H 0.175(3) 0.5919(9) 0.211(4)
H12 H 0.361(3) 0.6274(11) 0.197(5)
H13 H 0.535(3) 0.6100(11) -0.002(5)
H14 H 0.514(4) 0.5440(14) -0.169(6)
H15 H 0.324(3) 0.5119(12) -0.163(5)
C1A C -0.1091(3) 0.47526(9) 0.0161(5)
C2A C -0.1162(3) 0.51782(9) 0.0160(5)
C3A C -0.0109(3) 0.54318(8) 0.0185(5)
C4A C -0.0262(3) 0.58827(9) 0.0201(5)
C5A C -0.1213(3) 0.60813(10) 0.0941(4)
C6A C -0.1357(3) 0.65282(9) 0.1095(4)
C7A C -0.2376(4) 0.66911(11) 0.2015(5)
C8A C -0.2485(5) 0.71072(12) 0.2313(5)
C9A C -0.1597(4) 0.73797(10) 0.1685(5)
C10A C -0.0595(4) 0.72217(11) 0.0751(5)
C11A C -0.0478(4) 0.68044(10) 0.0442(5)
C12A C -0.2271(3) 0.45136(10) 0.0164(5)
C13A C -0.2454(4) 0.41755(11) 0.1240(6)
C14A C -0.3591(5) 0.39573(13) 0.1165(7)
C15A C -0.4543(4) 0.40821(16) 0.0053(8)
C16A C -0.4398(4) 0.44221(16) -0.0942(7)
C17A C -0.3261(3) 0.46340(12) -0.0926(5)
C18A C -0.1705(4) 0.78363(10) 0.2045(6)
H1A H -0.2521 0.7932 0.1686
H2A H -0.1064 0.7981 0.1409
H3A H -0.1599 0.7885 0.3268
H4A H -0.207(3) 0.5300(9) 0.011(5)
H5A H 0.047(3) 0.6063(9) -0.034(4)
H6A H -0.186(2) 0.5928(8) 0.145(4)
H7A H -0.297(3) 0.6493(10) 0.242(4)
H8A H -0.318(4) 0.7226(14) 0.267(7)
H9A H 0.009(3) 0.7415(9) 0.018(5)
H10A H 0.025(3) 0.6717(10) -0.022(4)
H11A H -0.175(3) 0.4081(9) 0.211(4)
H12A H -0.361(3) 0.3726(11) 0.197(5)
H13A H -0.535(3) 0.3900(11) -0.002(5)
H14A H -0.514(4) 0.4560(14) -0.169(6)
H15A H -0.324(3) 0.4881(12) -0.163(5)
loop_
_geom_bond_atom_site_label_1
_geom_bond_atom_site_label_2
_geom_bond_site_symmetry_1
_geom_bond_site_symmetry_2
C1 C2 1_555 1_555
C2 C3 1_555 1_555
C3 C4 1_555 1_555
C4 C5 1_555 1_555
C5 C6 1_555 1_555
C6 C7 1_555 1_555
C7 C8 1_555 1_555
C8 C9 1_555 1_555
C9 C10 1_555 1_555
C10 C11 1_555 1_555
C11 C6 1_555 1_555
C12 C1 1_555 1_555
C13 C12 1_555 1_555
C14 C13 1_555 1_555
C15 C14 1_555 1_555
C16 C15 1_555 1_555
C17 C12 1_555 1_555
C18 C9 1_555 1_555
H1 C18 1_555 1_555
H2 C18 1_555 1_555
H3 C18 1_555 1_555
H4 C2 1_555 1_555
H5 C4 1_555 1_555
H6 C5 1_555 1_555
H7 C7 1_555 1_555
H8 C8 1_555 1_555
H9 C10 1_555 1_555
H10 C11 1_555 1_555
H11 C13 1_555 1_555
H12 C14 1_555 1_555
H13 C15 1_555 1_555
H14 C16 1_555 1_555
H15 C17 1_555 1_555
C1A C3 1_555 1_555
C2A C1A 1_555 1_555
C3A C1 1_555 1_555
C4A C3A 1_555 1_555
C5A C4A 1_555 1_555
C6A C5A 1_555 1_555
C7A C6A 1_555 1_555
C8A C7A 1_555 1_555
C9A C8A 1_555 1_555
C10A C9A 1_555 1_555
C11A C6A 1_555 1_555
C12A C1A 1_555 1_555
C13A C12A 1_555 1_555
C14A C13A 1_555 1_555
C15A C14A 1_555 1_555
C16A C15A 1_555 1_555
C17A C12A 1_555 1_555
C18A C9A 1_555 1_555
H1A C18A 1_555 1_555
H2A C18A 1_555 1_555
H3A C18A 1_555 1_555
H4A C2A 1_555 1_555
H5A C4A 1_555 1_555
H6A C5A 1_555 1_555
H7A C7A 1_555 1_555
H8A C8A 1_555 1_555
H9A C10A 1_555 1_555
H10A C11A 1_555 1_555
H11A C13A 1_555 1_555
H12A C14A 1_555 1_555
H13A C15A 1_555 1_555
H14A C16A 1_555 1_555
H15A C17A 1_555 1_555
C16 C17 1_555 1_555
C2A C3A 1_555 1_555
C10A C11A 1_555 1_555
C16A C17A 1_555 1_555

#END
