
#######################################################################
#
#                 Cambridge Crystallographic Data Centre
#                                CCDC 
#
#######################################################################
#
# If this CIF has been generated from an entry in the Cambridge 
# Structural Database, then it will include bibliographic, chemical, 
# crystal, experimental, refinement or atomic coordinate data resulting 
# from the CCDC's data processing and validation procedures.
#
#######################################################################

data_QOVBUZ
_chemical_name_common            
'(2R,4aR,6aR,7R,9S,10aS,10bR)-Methyl 9-acetoxy-2-(furan-3-yl)-6a,10b-dimethyl-4,10-dioxododecahydro-1H-benzo[f]isochromene-7-carboxylate'
_chemical_formula_moiety         'C23 H28 O8'
_chemical_name_systematic        '12-epi-Salvinorin A'
_chemical_properties_biological  
'selective partial agonist at the kappa opioid receptor (KOPR)'
_symmetry_cell_setting           monoclinic
_symmetry_space_group_name_H-M   'P 21'
_symmetry_Int_Tables_number      4
_space_group_name_Hall           'P 2yb'
loop_
_symmetry_equiv_pos_site_id
_symmetry_equiv_pos_as_xyz
1 x,y,z
2 -x,1/2+y,-z
_cell_length_a                   11.0762(3)
_cell_length_b                   8.7620(2)
_cell_length_c                   11.5110(3)
_cell_angle_alpha                90
_cell_angle_beta                 92.557(1)
_cell_angle_gamma                90
_cell_volume                     1116.03
_exptl_crystal_colour            colorless
_exptl_crystal_description       needle
_chemical_melting_point          '212-217 deg.C (dec.)'
_cell_formula_units_Z            2
_exptl_crystal_recrystallization_method 'ethyl acetate/hexanes'
loop_
_atom_site_label
_atom_site_type_symbol
_atom_site_fract_x
_atom_site_fract_y
_atom_site_fract_z
C1 C 0.23139(9) 0.78007(13) 0.16830(9)
O1 O 0.30399(9) 0.72736(12) 0.10424(8)
C2 C 0.20135(9) 0.94966(13) 0.16496(9)
H1 H 0.2384 1.0003 0.2358
O2 O 0.24934(7) 1.01660(11) 0.06319(8)
C3 C 0.06601(10) 0.97873(14) 0.15907(10)
H2 H 0.0314 0.9480 0.0818
H3 H 0.0504 1.0890 0.1695
C4 C 0.00550(9) 0.88795(13) 0.25402(9)
H4 H 0.0456 0.9189 0.3299
C5 C 0.02578(9) 0.71258(13) 0.24083(9)
C6 C -0.03591(10) 0.62896(15) 0.33952(10)
H5 H -0.0186 0.6848 0.4131
H6 H -0.1244 0.6312 0.3234
C7 C 0.00417(10) 0.46316(15) 0.35573(11)
H7 H -0.0360 0.4182 0.4229
H8 H -0.0202 0.4035 0.2855
C8 C 0.14050(10) 0.45469(14) 0.37646(9)
H9 H 0.1618 0.5149 0.4483
C9 C 0.21191(10) 0.52427(13) 0.27593(9)
C10 C 0.16600(9) 0.68954(12) 0.25872(8)
H10 H 0.1877 0.7417 0.3341
C11 C 0.34781(10) 0.52710(14) 0.31698(11)
H11 H 0.3972 0.4921 0.2525
H12 H 0.3716 0.6335 0.3359
C12 C 0.37530(11) 0.42600(14) 0.42382(10)
H13 H 0.3508 0.4813 0.4950
O3 O 0.30814(8) 0.28274(10) 0.41371(8)
C13 C 0.50555(12) 0.38497(14) 0.43777(11)
C14 C 0.57271(12) 0.29057(17) 0.36270(13)
H14 H 0.5422 0.2373 0.2958
C15 C 0.68774(13) 0.29196(19) 0.40551(15)
H15 H 0.7524 0.2382 0.3726
O4 O 0.69885(11) 0.38034(15) 0.50172(13)
C16 C 0.58565(15) 0.4356(2) 0.51974(16)
H16 H 0.5664 0.5011 0.5820
C17 C 0.18677(11) 0.29446(15) 0.39629(9)
O5 O 0.12629(10) 0.18069(11) 0.39080(8)
C18 C -0.12694(10) 0.93120(16) 0.25900(10)
O6 O -0.17992(9) 0.94144(16) 0.34711(8)
C19 C -0.02408(11) 0.65603(16) 0.12144(10)
H17 H -0.1019 0.7053 0.1025
H18 H -0.0351 0.5451 0.1239
H19 H 0.0331 0.6817 0.0619
C20 C 0.19779(12) 0.42096(15) 0.16749(10)
H20 H 0.2303 0.4734 0.1005
H21 H 0.1120 0.3984 0.1514
H22 H 0.2421 0.3255 0.1817
C21 C -0.30500(13) 1.0038(3) 0.15328(14)
H23 H -0.3400 0.9972 0.0737
H24 H -0.3109 1.1090 0.1813
H25 H -0.3493 0.9359 0.2040
O7 O -0.17926(8) 0.95831(16) 0.15455(8)
C22 C 0.36680(11) 1.05512(18) 0.06922(15)
O8 O 0.42721(9) 1.05344(17) 0.15822(11)
C23 C 0.40820(17) 1.0990(4) -0.0476(2)
H26 H 0.4817 1.1610 -0.0385
H27 H 0.3448 1.1582 -0.0891
H28 H 0.4254 1.0068 -0.0921
loop_
_geom_bond_atom_site_label_1
_geom_bond_atom_site_label_2
_geom_bond_site_symmetry_1
_geom_bond_site_symmetry_2
C1 O1 1_555 1_555
C2 C1 1_555 1_555
H1 C2 1_555 1_555
O2 C2 1_555 1_555
C3 C2 1_555 1_555
H2 C3 1_555 1_555
H3 C3 1_555 1_555
C4 C3 1_555 1_555
H4 C4 1_555 1_555
C5 C4 1_555 1_555
C6 C5 1_555 1_555
H5 C6 1_555 1_555
H6 C6 1_555 1_555
C7 C6 1_555 1_555
H7 C7 1_555 1_555
H8 C7 1_555 1_555
C8 C7 1_555 1_555
H9 C8 1_555 1_555
C9 C8 1_555 1_555
C10 C1 1_555 1_555
H10 C10 1_555 1_555
C11 C9 1_555 1_555
H11 C11 1_555 1_555
H12 C11 1_555 1_555
C12 C11 1_555 1_555
H13 C12 1_555 1_555
O3 C12 1_555 1_555
C13 C12 1_555 1_555
C14 C13 1_555 1_555
H14 C14 1_555 1_555
C15 C14 1_555 1_555
H15 C15 1_555 1_555
O4 C15 1_555 1_555
C16 C13 1_555 1_555
H16 C16 1_555 1_555
C17 C8 1_555 1_555
O5 C17 1_555 1_555
C18 C4 1_555 1_555
O6 C18 1_555 1_555
C19 C5 1_555 1_555
H17 C19 1_555 1_555
H18 C19 1_555 1_555
H19 C19 1_555 1_555
C20 C9 1_555 1_555
H20 C20 1_555 1_555
H21 C20 1_555 1_555
H22 C20 1_555 1_555
C21 H23 1_555 1_555
H24 C21 1_555 1_555
H25 C21 1_555 1_555
O7 C18 1_555 1_555
C22 O2 1_555 1_555
O8 C22 1_555 1_555
C23 C22 1_555 1_555
H26 C23 1_555 1_555
H27 C23 1_555 1_555
H28 C23 1_555 1_555
C5 C10 1_555 1_555
C9 C10 1_555 1_555
O3 C17 1_555 1_555
O4 C16 1_555 1_555
C21 O7 1_555 1_555

#END
