
#######################################################################
#
#                 Cambridge Crystallographic Data Centre
#                                CCDC 
#
#######################################################################
#
# If this CIF has been generated from an entry in the Cambridge 
# Structural Database, then it will include bibliographic, chemical, 
# crystal, experimental, refinement or atomic coordinate data resulting 
# from the CCDC's data processing and validation procedures.
#
#######################################################################

data_QOVQUO
_chemical_formula_moiety         'C6 H8 N4 2+,2(C7 H5 O6 S1 1-)'
_chemical_name_systematic        
"2,2'-Biimidazolium bis(3-carboxy-4-hydroxybenzenesulfonate)"
_symmetry_cell_setting           triclinic
_symmetry_space_group_name_H-M   'P -1'
_symmetry_Int_Tables_number      2
_space_group_name_Hall           '-P 1'
loop_
_symmetry_equiv_pos_site_id
_symmetry_equiv_pos_as_xyz
1 x,y,z
2 -x,-y,-z
_cell_length_a                   5.4296(5)
_cell_length_b                   8.2995(7)
_cell_length_c                   12.7083(11)
_cell_angle_alpha                85.961(2)
_cell_angle_beta                 88.895(2)
_cell_angle_gamma                89.5730(10)
_cell_volume                     571.134
_exptl_crystal_colour            colorless
_exptl_crystal_description       plate
_cell_formula_units_Z            1
loop_
_atom_site_label
_atom_site_type_symbol
_atom_site_fract_x
_atom_site_fract_y
_atom_site_fract_z
C1 C 0.4395(5) 0.2238(3) 1.0122(2)
C2 C 0.6516(5) 0.3191(3) 1.0075(2)
C3 C 0.7613(5) 0.3664(3) 0.9099(2)
H1 H 0.9033 0.4287 0.9069
C4 C 0.6603(5) 0.3213(3) 0.8189(2)
H2 H 0.7343 0.3530 0.7542
C5 C 0.4462(5) 0.2276(3) 0.8221(2)
C6 C 0.3387(5) 0.1794(3) 0.9177(2)
H3 H 0.1973 0.1165 0.9199
C7 C 0.3250(5) 0.1720(3) 1.1134(2)
O1 O 0.1414(4) 0.0714(3) 1.10746(17)
H4 H 0.079(7) 0.035(4) 1.164(3)
O2 O 0.3954(4) 0.2168(3) 1.19812(16)
O3 O 0.7570(4) 0.3692(3) 1.09478(18)
H5 H 0.670(8) 0.338(5) 1.146(3)
O4 O 0.0980(4) 0.0833(3) 0.72930(15)
O5 O 0.4997(4) 0.0814(3) 0.64968(17)
O6 O 0.2659(5) 0.3249(3) 0.64233(19)
S1 S 0.31517(12) 0.17641(8) 0.70293(5)
C8 C 0.9888(5) 0.0813(3) 0.4762(2)
C9 C 0.8511(7) 0.3263(4) 0.4361(3)
H6 H 0.7553 0.4197 0.4359
C10 C 1.0489(7) 0.3021(4) 0.3758(3)
H7 H 1.1163 0.3761 0.3251
N1 N 0.8160(5) 0.1875(3) 0.4984(2)
H8 H 0.704(6) 0.168(4) 0.546(3)
N2 N 1.1354(5) 0.1506(3) 0.40089(19)
H9 H 1.244(6) 0.106(4) 0.366(3)
C8A C 1.0112(5) -0.0813(3) 0.5238(2)
C9A C 1.1489(7) -0.3263(4) 0.5639(3)
H6A H 1.2447 -0.4197 0.5641
C10A C 0.9511(7) -0.3021(4) 0.6242(3)
H7A H 0.8837 -0.3761 0.6749
N1A N 1.1840(5) -0.1875(3) 0.5016(2)
H8A H 1.296(6) -0.168(4) 0.454(3)
N2A N 0.8646(5) -0.1506(3) 0.59911(19)
H9A H 0.756(6) -0.106(4) 0.634(3)
loop_
_geom_bond_atom_site_label_1
_geom_bond_atom_site_label_2
_geom_bond_site_symmetry_1
_geom_bond_site_symmetry_2
C1 C2 1_555 1_555
C2 C3 1_555 1_555
C3 H1 1_555 1_555
C4 C3 1_555 1_555
H2 C4 1_555 1_555
C5 C4 1_555 1_555
C6 C1 1_555 1_555
H3 C6 1_555 1_555
C7 C1 1_555 1_555
O1 C7 1_555 1_555
H4 O1 1_555 1_555
O2 C7 1_555 1_555
O3 C2 1_555 1_555
H5 O3 1_555 1_555
O4 S1 1_555 1_555
O5 S1 1_555 1_555
O6 S1 1_555 1_555
S1 C5 1_555 1_555
C8 N1 1_555 1_555
C9 H6 1_555 1_555
C10 C9 1_555 1_555
H7 C10 1_555 1_555
N1 C9 1_555 1_555
H8 N1 1_555 1_555
N2 C8 1_555 1_555
H9 N2 1_555 1_555
C8A C8 1_555 1_555
C9A H6A 1_555 1_555
C10A C9A 1_555 1_555
H7A C10A 1_555 1_555
N1A C8A 1_555 1_555
H8A N1A 1_555 1_555
N2A C8A 1_555 1_555
H9A N2A 1_555 1_555
C5 C6 1_555 1_555
C10 N2 1_555 1_555
C9A N1A 1_555 1_555
C10A N2A 1_555 1_555

#END
