
#######################################################################
#
#                 Cambridge Crystallographic Data Centre
#                                CCDC 
#
#######################################################################
#
# If this CIF has been generated from an entry in the Cambridge 
# Structural Database, then it will include bibliographic, chemical, 
# crystal, experimental, refinement or atomic coordinate data resulting 
# from the CCDC's data processing and validation procedures.
#
#######################################################################

data_QOVRAV
_chemical_formula_moiety         'C14 H12 N4 2+,2(C7 H5 O6 S1 1-),3(H2 O1)'
_chemical_name_systematic        
"2,2'-Bibenzimidazolium bis(3-carboxy-4-hydroxybenzenesulfonate) trihydrate"
_symmetry_cell_setting           monoclinic
_symmetry_space_group_name_H-M   'C 2/c'
_symmetry_Int_Tables_number      15
_space_group_name_Hall           '-C 2yn'
loop_
_symmetry_equiv_pos_site_id
_symmetry_equiv_pos_as_xyz
1 x,y,z
2 1/2+x,1/2+y,z
3 -x,y,1/2-z
4 1/2-x,1/2+y,1/2-z
5 -x,-y,-z
6 1/2-x,1/2-y,-z
7 x,-y,1/2+z
8 1/2+x,1/2-y,1/2+z
_cell_length_a                   25.0519(9)
_cell_length_b                   7.3158(3)
_cell_length_c                   17.0309(6)
_cell_angle_alpha                90
_cell_angle_beta                 97.553(3)
_cell_angle_gamma                90
_cell_volume                     3094.25
_exptl_crystal_colour            colorless
_exptl_crystal_description       plate
_cell_formula_units_Z            4
loop_
_atom_site_label
_atom_site_type_symbol
_atom_site_fract_x
_atom_site_fract_y
_atom_site_fract_z
S1 S 0.141309(18) 0.45439(6) 0.27209(3)
C1 C 0.22878(7) 0.5132(3) 0.48699(11)
C2 C 0.28051(8) 0.4665(3) 0.47119(12)
C3 C 0.28885(8) 0.4173(3) 0.39496(13)
H1 H 0.3233 0.3874 0.3846
C4 C 0.24680(8) 0.4126(3) 0.33488(12)
H2 H 0.2527 0.3793 0.2840
C5 C 0.19495(7) 0.4577(3) 0.35011(11)
C6 C 0.18605(7) 0.5073(3) 0.42513(11)
H3 H 0.1514 0.5370 0.4349
C7 C 0.21986(8) 0.5660(3) 0.56797(11)
O1 O 0.16956(6) 0.6071(2) 0.57491(9)
H4 H 0.1677(11) 0.629(4) 0.6211(18)
O2 O 0.25576(6) 0.5714(2) 0.62342(8)
O3 O 0.32400(6) 0.4660(3) 0.52733(10)
H5 H 0.3125(13) 0.499(4) 0.568(2)
O4 O 0.14455(5) 0.6227(2) 0.22734(8)
O5 O 0.15031(6) 0.29626(19) 0.22315(8)
O6 O 0.09190(6) 0.4432(2) 0.30659(9)
C8 C -0.00005(7) 0.7961(3) 0.29240(11)
C9 C 0.02778(7) 0.8024(3) 0.42028(11)
C10 C -0.02588(7) 0.7454(3) 0.40907(11)
C11 C -0.05306(8) 0.6999(3) 0.47238(13)
H6 H -0.0887 0.6609 0.4649
C12 C -0.02463(9) 0.7154(3) 0.54616(13)
H7 H -0.0414 0.6867 0.5902
C13 C 0.02915(9) 0.7734(3) 0.55736(13)
H8 H 0.0470 0.7816 0.6087
C14 C 0.05638(8) 0.8183(3) 0.49569(12)
H9 H 0.0920 0.8572 0.5037
N1 N 0.04191(6) 0.8334(2) 0.34586(9)
H10 H 0.0711(8) 0.882(3) 0.3340(13)
N2 N -0.04156(7) 0.7451(2) 0.32836(10)
H11 H -0.0720(9) 0.711(3) 0.3053(14)
C8B C 0.00005(7) 0.7961(3) 0.20760(11)
C9B C -0.02778(7) 0.8024(3) 0.07972(11)
C10B C 0.02588(7) 0.7454(3) 0.09093(11)
C11B C 0.05306(8) 0.6999(3) 0.02762(13)
H6B H 0.0887 0.6609 0.0351
C12B C 0.02463(9) 0.7154(3) -0.04616(13)
H7B H 0.0414 0.6867 -0.0902
C13B C -0.02915(9) 0.7734(3) -0.05736(13)
H8B H -0.0470 0.7816 -0.1087
C14B C -0.05638(8) 0.8183(3) 0.00431(12)
H9B H -0.0920 0.8572 -0.0037
N1B N -0.04191(6) 0.8334(2) 0.15414(9)
H10B H -0.0711(8) 0.882(3) 0.1660(13)
N2B N 0.04156(7) 0.7451(2) 0.17164(10)
H11B H 0.0720(9) 0.711(3) 0.1947(14)
O7 O 0.13160(6) 0.9671(2) 0.29919(11)
H12 H 0.1373(12) 1.063(4) 0.2761(18)
H13 H 0.1523(12) 0.887(4) 0.2903(18)
O8 O 0.0000 0.2042(4) 0.2500
H14 H -0.0289(12) 0.265(5) 0.236(2)
H14B H 0.0289(12) 0.265(5) 0.264(2)
loop_
_geom_bond_atom_site_label_1
_geom_bond_atom_site_label_2
_geom_bond_site_symmetry_1
_geom_bond_site_symmetry_2
S1 C5 1_555 1_555
C1 C2 1_555 1_555
C2 C3 1_555 1_555
C3 H1 1_555 1_555
C4 C3 1_555 1_555
H2 C4 1_555 1_555
C5 C4 1_555 1_555
C6 C1 1_555 1_555
H3 C6 1_555 1_555
C7 C1 1_555 1_555
O1 C7 1_555 1_555
H4 O1 1_555 1_555
O2 C7 1_555 1_555
O3 C2 1_555 1_555
H5 O3 1_555 1_555
O4 S1 1_555 1_555
O5 S1 1_555 1_555
O6 S1 1_555 1_555
C8 N1 1_555 1_555
C9 C10 1_555 1_555
C10 C11 1_555 1_555
C11 H6 1_555 1_555
C12 C11 1_555 1_555
H7 C12 1_555 1_555
C13 C12 1_555 1_555
H8 C13 1_555 1_555
C14 C9 1_555 1_555
H9 C14 1_555 1_555
N1 C9 1_555 1_555
H10 N1 1_555 1_555
N2 C8 1_555 1_555
H11 N2 1_555 1_555
O7 H12 1_555 1_555
H13 O7 1_555 1_555
O8 H14 1_555 1_555
C8B C8 1_555 1_555
C9B C10B 1_555 1_555
C10B C11B 1_555 1_555
C11B H6B 1_555 1_555
C12B C11B 1_555 1_555
H7B C12B 1_555 1_555
C13B C12B 1_555 1_555
H8B C13B 1_555 1_555
C14B C9B 1_555 1_555
H9B C14B 1_555 1_555
N1B C8B 1_555 1_555
H10B N1B 1_555 1_555
N2B C8B 1_555 1_555
H11B N2B 1_555 1_555
H14B O8 1_555 1_555
C5 C6 1_555 1_555
C10 N2 1_555 1_555
C13 C14 1_555 1_555
C9B N1B 1_555 1_555
C10B N2B 1_555 1_555
C13B C14B 1_555 1_555

#END
