
#######################################################################
#
#                 Cambridge Crystallographic Data Centre
#                                CCDC 
#
#######################################################################
#
# If this CIF has been generated from an entry in the Cambridge 
# Structural Database, then it will include bibliographic, chemical, 
# crystal, experimental, refinement or atomic coordinate data resulting 
# from the CCDC's data processing and validation procedures.
#
#######################################################################

data_QOVXUU
_chemical_formula_moiety         'C39 H70 N2 O5 S1 Si2,0.5(H2 O1)'
_chemical_name_systematic        
'7,11-bis(Triethylsiloxy)-8,8,10,12,16-pentamethyl-3-(1-methyl-2-(2-methyl-4-thiazolyl)ethenyl)-4-aza-17-oxabicyclo(14.1.0)heptadecane-5,9-dione unknown clathrate hemihydrate'
_symmetry_cell_setting           trigonal
_symmetry_space_group_name_H-M   'P 3 2 1'
_symmetry_Int_Tables_number      150
_space_group_name_Hall           'P 3 2"'
loop_
_symmetry_equiv_pos_site_id
_symmetry_equiv_pos_as_xyz
1 x,y,z
2 -y,x-y,z
3 y,x,-z
4 -x+y,-x,z
5 -x,-x+y,-z
6 x-y,-y,-z
_cell_length_a                   21.001(5)
_cell_length_b                   21.001(5)
_cell_length_c                   21.672(5)
_cell_angle_alpha                90
_cell_angle_beta                 90
_cell_angle_gamma                120
_cell_volume                     8277.7
_exptl_crystal_colour            colorless
_exptl_crystal_description       plate
_cell_formula_units_Z            9
_exptl_crystal_recrystallization_method 'ethyl acetate/hexane/diethyl ether'
loop_
_atom_site_label
_atom_site_type_symbol
_atom_site_fract_x
_atom_site_fract_y
_atom_site_fract_z
Si1 Si 0.8076(5) 0.6030(5) 0.9691(5)
Si2 Si 1.0980(7) 0.5285(8) 0.7620(6)
S1 S 0.8157(7) 0.6038(7) 0.3955(6)
O1 O 1.0428(11) 0.5641(11) 0.7717(10)
O2 O 0.9975(14) 0.5354(12) 0.6201(13)
O3 O 0.8401(10) 0.5886(10) 0.9081(9)
C1 C 0.9102(16) 0.5993(15) 0.8954(13)
C2 C 0.9097(15) 0.5217(15) 0.8839(13)
O4 O 1.0590(11) 0.6717(10) 0.8880(10)
C3 C 0.7806(15) 0.3497(15) 0.7796(14)
C4 C 0.9541(30) 0.5305(28) 0.6608(26)
C5 C 0.9017(15) 0.4801(15) 0.9428(14)
C6 C 0.9470(17) 0.6521(18) 0.8423(15)
C7 C 0.9598(21) 0.5797(21) 0.7087(18)
C8 C 1.0592(27) 0.6853(28) 0.7686(25)
C9 C 1.0408(21) 0.6186(21) 0.7248(18)
C10 C 0.9465(15) 0.7267(15) 0.8618(13)
C11 C 0.8377(18) 0.2636(17) 0.7712(15)
C12 C 0.8407(21) 0.4500(23) 0.5475(20)
C13 C 0.8193(23) 0.5435(21) 0.5025(22)
C14 C 1.0483(18) 0.7510(19) 0.7320(18)
N1 N 0.7778(18) 0.5774(19) 0.5076(18)
C15 C 0.8579(17) 0.4115(17) 0.8111(15)
C16 C 0.7802(17) 0.3527(18) 0.6270(16)
C17 C 0.8298(19) 0.5081(20) 0.5555(17)
C18 C 0.8557(18) 0.4214(20) 0.6082(18)
C19 C 0.7991(19) 0.3001(18) 0.7422(16)
C20 C 0.8001(21) 0.3008(20) 0.6718(18)
C21 C 1.1667(22) 0.7338(22) 0.7911(20)
C22 C 0.8293(26) 0.4076(32) 0.4844(25)
N2 N 0.8821(16) 0.4741(16) 0.6549(14)
C23 C 0.7777(26) 0.6054(26) 0.4544(28)
C24 C 1.0337(15) 0.6679(15) 0.8371(15)
C25 C 0.8444(26) 0.5546(27) 0.4450(25)
C26 C 0.7301(32) 0.6416(34) 0.4591(28)
O5 O 0.7326(13) 0.2456(13) 0.7028(11)
C27 C 0.8386(17) 0.4700(17) 0.8402(14)
C28 C 0.8775(18) 0.6905(19) 1.0012(18)
C29 C 0.7703(19) 0.5241(19) 1.0331(15)
C30 C 0.8491(20) 0.7082(19) 1.0666(18)
C31 C 0.7125(20) 0.4504(19) 1.0018(19)
C32 C 0.7205(16) 0.6044(17) 0.9491(14)
C33 C 0.7408(22) 0.6738(23) 0.9106(20)
C34 C 1.1728(30) 0.5735(30) 0.6832(25)
C35 C 1.0485(28) 0.4363(29) 0.7673(26)
C36 C 1.0964(27) 0.5079(25) 0.8813(23)
C37 C 1.2320(33) 0.5610(29) 0.6873(26)
C38 C 1.1448(30) 0.5367(31) 0.8412(26)
C39 C 1.0773(30) 0.3805(31) 0.7469(27)
C40? C 1.0295(42) 0.4288(41) 0.7145(42)
loop_
_geom_bond_atom_site_label_1
_geom_bond_atom_site_label_2
_geom_bond_site_symmetry_1
_geom_bond_site_symmetry_2
Si1 O3 1_555 1_555
Si2 O1 1_555 1_555
S1 C23 1_555 1_555
O1 C9 1_555 1_555
O2 C4 1_555 1_555
O3 C1 1_555 1_555
C1 C2 1_555 1_555
C2 C5 1_555 1_555
O4 C24 1_555 1_555
C3 C15 1_555 1_555
C4 C7 1_555 1_555
C6 C1 1_555 1_555
C7 C9 1_555 1_555
C8 C9 1_555 1_555
C10 C6 1_555 1_555
C11 C19 1_555 1_555
C12 C17 1_555 1_555
C13 N1 1_555 1_555
C14 C8 1_555 1_555
N1 C23 1_555 1_555
C15 C27 1_555 1_555
C16 C18 1_555 1_555
C17 C13 1_555 1_555
C18 C12 1_555 1_555
C19 C3 1_555 1_555
C20 C16 1_555 1_555
C21 C8 1_555 1_555
C22 C12 1_555 1_555
N2 C4 1_555 1_555
C23 C26 1_555 1_555
C24 C6 1_555 1_555
C25 S1 1_555 1_555
O5 C19 1_555 1_555
C27 C2 1_555 1_555
C28 Si1 1_555 1_555
C29 Si1 1_555 1_555
C30 C28 1_555 1_555
C31 C29 1_555 1_555
C32 Si1 1_555 1_555
C33 C32 1_555 1_555
C34 Si2 1_555 1_555
C35 Si2 1_555 1_555
C36 C38 1_555 1_555
C37 C34 1_555 1_555
C38 Si2 1_555 1_555
C39 C35 1_555 1_555
C8 C24 1_555 1_555
C13 C25 1_555 1_555
C18 N2 1_555 1_555
C19 C20 1_555 1_555
C20 O5 1_555 1_555

#END
