
#######################################################################
#
#                 Cambridge Crystallographic Data Centre
#                                CCDC 
#
#######################################################################
#
# If this CIF has been generated from an entry in the Cambridge 
# Structural Database, then it will include bibliographic, chemical, 
# crystal, experimental, refinement or atomic coordinate data resulting 
# from the CCDC's data processing and validation procedures.
#
#######################################################################

data_QOVYUW
_chemical_formula_moiety         'C6 H4 F5 N1 O2 S1'
_chemical_name_systematic        1-Nitro-4-(pentafluoro-\l^6^-sulfanyl)benzene
_symmetry_cell_setting           orthorhombic
_symmetry_space_group_name_H-M   'C m c m'
_symmetry_Int_Tables_number      63
_space_group_name_Hall           '-C 2n 2'
loop_
_symmetry_equiv_pos_site_id
_symmetry_equiv_pos_as_xyz
1 x,y,z
2 1/2+x,1/2+y,z
3 -x,-y,1/2+z
4 1/2-x,1/2-y,1/2+z
5 x,-y,-z
6 1/2+x,1/2-y,-z
7 -x,y,1/2-z
8 1/2-x,1/2+y,1/2-z
9 -x,-y,-z
10 1/2-x,1/2-y,-z
11 x,y,1/2-z
12 1/2+x,1/2+y,1/2-z
13 -x,y,z
14 1/2-x,1/2+y,z
15 x,-y,1/2+z
16 1/2+x,1/2-y,1/2+z
_cell_length_a                   10.0679(6)
_cell_length_b                   12.3720(7)
_cell_length_c                   6.8861(4)
_cell_angle_alpha                90
_cell_angle_beta                 90
_cell_angle_gamma                90
_cell_volume                     857.733
_exptl_crystal_colour            colorless
_exptl_crystal_description       cube
_cell_formula_units_Z            4
_exptl_crystal_recrystallization_method 'vacuum sublimation'
loop_
_atom_site_label
_atom_site_type_symbol
_atom_site_fract_x
_atom_site_fract_y
_atom_site_fract_z
S1 S 0.0000 0.36280(5) 0.2500
F1 F 0.0000 0.49015(14) 0.2500
F2 F -0.11099(10) 0.36766(6) 0.08780(16)
O1 O -0.10539(19) -0.16858(13) 0.2500
N1 N 0.0000 -0.1223(2) 0.2500
C1 C 0.0000 0.2163(2) 0.2500
C2 C 0.12025(19) 0.16202(17) 0.2500
C3 C 0.12023(19) 0.04916(17) 0.2500
C4 C 0.0000 -0.0027(2) 0.2500
H1 H 0.201(3) 0.0137(19) 0.2500
H2 H 0.204(3) 0.1896(19) 0.2500
F2J F -0.11099(10) 0.36766(6) 0.41220(16)
F2L F 0.11099(10) 0.36766(6) 0.08780(16)
F2F F 0.11099(10) 0.36766(6) 0.41220(16)
O1F O 0.10539(19) -0.16858(13) 0.2500
C2F C -0.12025(19) 0.16202(17) 0.2500
C3F C -0.12023(19) 0.04916(17) 0.2500
H1F H -0.201(3) 0.0137(19) 0.2500
H2F H -0.204(3) 0.1896(19) 0.2500
loop_
_geom_bond_atom_site_label_1
_geom_bond_atom_site_label_2
_geom_bond_site_symmetry_1
_geom_bond_site_symmetry_2
S1 F1 1_555 1_555
F2 S1 1_555 1_555
O1 N1 1_555 1_555
N1 C4 1_555 1_555
C1 S1 1_555 1_555
C2 C1 1_555 1_555
C3 C2 1_555 1_555
C4 C3 1_555 1_555
H1 C3 1_555 1_555
H2 C2 1_555 1_555
F2J S1 1_555 1_555
F2L S1 1_555 1_555
F2F S1 1_555 1_555
O1F N1 1_555 1_555
C2F C1 1_555 1_555
C3F C4 1_555 1_555
H1F C3F 1_555 1_555
H2F C2F 1_555 1_555
C2F C3F 1_555 1_555

#END
