
#######################################################################
#
#                 Cambridge Crystallographic Data Centre
#                                CCDC 
#
#######################################################################
#
# If this CIF has been generated from an entry in the Cambridge 
# Structural Database, then it will include bibliographic, chemical, 
# crystal, experimental, refinement or atomic coordinate data resulting 
# from the CCDC's data processing and validation procedures.
#
#######################################################################

data_QOWQOK
_chemical_formula_moiety         'C18 H15 N3 S1'
_chemical_name_systematic        
2-(1,3-benzothiazol-2-yl)-3-(4-(dimethylamino)phenyl)acrylonitrile
_symmetry_cell_setting           triclinic
_symmetry_space_group_name_H-M   'P -1'
_symmetry_Int_Tables_number      2
_space_group_name_Hall           '-P 1'
loop_
_symmetry_equiv_pos_site_id
_symmetry_equiv_pos_as_xyz
1 x,y,z
2 -x,-y,-z
_cell_length_a                   7.5968(10)
_cell_length_b                   10.3368(16)
_cell_length_c                   11.0493(19)
_cell_angle_alpha                67.992(11)
_cell_angle_beta                 81.976(14)
_cell_angle_gamma                70.032(14)
_cell_volume                     756.011
_exptl_crystal_colour            red
_exptl_crystal_description       rectangle
_cell_formula_units_Z            2
loop_
_atom_site_label
_atom_site_type_symbol
_atom_site_fract_x
_atom_site_fract_y
_atom_site_fract_z
S1 S 0.33427(9) 0.67440(6) 0.40919(6)
C1 C 0.2296(3) 0.8612(2) 0.3195(2)
C2 C 0.2063(3) 0.9730(2) 0.3755(2)
C3 C 0.1125(4) 1.1195(3) 0.2918(2)
C4 C 0.2671(3) 0.9432(2) 0.4955(2)
H1 H 0.3234 0.8435 0.5402
C5 C 0.2620(3) 1.0345(2) 0.5674(2)
C6 C 0.1964(3) 1.1890(2) 0.5208(2)
H2 H 0.1527 1.2390 0.4358
C7 C 0.1949(3) 1.2677(2) 0.5961(2)
H3 H 0.1506 1.3698 0.5609
C8 C 0.2586(3) 1.1992(2) 0.7259(2)
C9 C 0.3263(3) 1.0445(3) 0.7720(2)
H4 H 0.3713 0.9940 0.8566
C10 C 0.3273(3) 0.9675(2) 0.6955(2)
H5 H 0.3735 0.8654 0.7300
C11 C 0.1764(4) 1.4358(3) 0.7551(3)
H6 H 0.2505 1.4773 0.6828
H7 H 0.1772 1.4707 0.8241
H8 H 0.0501 1.4647 0.7274
C12 C 0.3186(4) 1.2047(3) 0.9352(2)
H9 H 0.2520 1.1365 0.9829
H10 H 0.2963 1.2767 0.9754
H11 H 0.4503 1.1528 0.9356
C13 C 0.3075(3) 0.6329(2) 0.2766(2)
C14 C 0.2195(3) 0.7623(2) 0.1754(2)
C15 C 0.1835(4) 0.7541(3) 0.0584(2)
H12 H 0.1234 0.8387 -0.0093
C16 C 0.2384(4) 0.6193(3) 0.0452(3)
H13 H 0.2158 0.6131 -0.0327
C17 C 0.3267(4) 0.4922(3) 0.1451(3)
H14 H 0.3629 0.4024 0.1330
C18 C 0.3617(3) 0.4965(3) 0.2620(3)
H15 H 0.4200 0.4108 0.3294
N1 N 0.1766(3) 0.8913(2) 0.20142(17)
N2 N 0.0369(5) 1.2350(2) 0.2251(2)
N3 N 0.2538(3) 1.2774(2) 0.80153(18)
loop_
_geom_bond_atom_site_label_1
_geom_bond_atom_site_label_2
_geom_bond_site_symmetry_1
_geom_bond_site_symmetry_2
S1 C1 1_555 1_555
C1 C2 1_555 1_555
C2 C3 1_555 1_555
C3 N2 1_555 1_555
C4 C2 1_555 1_555
H1 C4 1_555 1_555
C5 C4 1_555 1_555
C6 C5 1_555 1_555
H2 C6 1_555 1_555
C7 C6 1_555 1_555
H3 C7 1_555 1_555
C8 C7 1_555 1_555
C9 C8 1_555 1_555
H4 C9 1_555 1_555
C10 C5 1_555 1_555
H5 C10 1_555 1_555
C11 H6 1_555 1_555
H7 C11 1_555 1_555
H8 C11 1_555 1_555
C12 H9 1_555 1_555
H10 C12 1_555 1_555
H11 C12 1_555 1_555
C13 S1 1_555 1_555
C14 C13 1_555 1_555
C15 C14 1_555 1_555
H12 C15 1_555 1_555
C16 C15 1_555 1_555
H13 C16 1_555 1_555
C17 C16 1_555 1_555
H14 C17 1_555 1_555
C18 C13 1_555 1_555
H15 C18 1_555 1_555
N1 C1 1_555 1_555
N3 C8 1_555 1_555
C9 C10 1_555 1_555
C11 N3 1_555 1_555
C12 N3 1_555 1_555
C14 N1 1_555 1_555
C17 C18 1_555 1_555

#END
