
#######################################################################
#
#                 Cambridge Crystallographic Data Centre
#                                CCDC 
#
#######################################################################
#
# If this CIF has been generated from an entry in the Cambridge 
# Structural Database, then it will include bibliographic, chemical, 
# crystal, experimental, refinement or atomic coordinate data resulting 
# from the CCDC's data processing and validation procedures.
#
#######################################################################

data_QOWSIE
_chemical_formula_moiety         '2(C1 H6 N3 1+),C6 H4 O6 S2 2-,2(C8 H10)'
_chemical_name_systematic        
'bis(Guanidinium) 1,4-benzenedisulfonate bis(p-xylene) clathrate'
_symmetry_cell_setting           orthorhombic
_symmetry_space_group_name_H-M   'P b c a'
_symmetry_Int_Tables_number      61
_space_group_name_Hall           '-P 2ac 2ab'
loop_
_symmetry_equiv_pos_site_id
_symmetry_equiv_pos_as_xyz
1 x,y,z
2 1/2+x,y,1/2-z
3 1/2-x,1/2+y,z
4 x,1/2-y,1/2+z
5 -x,-y,-z
6 1/2-x,-y,1/2+z
7 1/2+x,1/2-y,-z
8 -x,1/2+y,1/2-z
_cell_length_a                   13.4285(9)
_cell_length_b                   12.5989(9)
_cell_length_c                   17.7850(12)
_cell_angle_alpha                90
_cell_angle_beta                 90
_cell_angle_gamma                90
_cell_volume                     3008.94
_exptl_crystal_colour            colorless
_exptl_crystal_description       prism
_cell_formula_units_Z            4
loop_
_atom_site_label
_atom_site_type_symbol
_atom_site_fract_x
_atom_site_fract_y
_atom_site_fract_z
S1 S 0.09197(3) 0.54433(4) 0.34040(2)
O1 O 0.09526(9) 0.65939(10) 0.33099(7)
O2 O 0.19043(9) 0.49603(10) 0.33841(7)
C1 C 0.08778(14) 0.44884(15) 0.47914(11)
H1 H 0.1477 0.4143 0.4648
O3 O 0.02282(9) 0.49409(10) 0.28807(7)
C3 C 0.04246(13) 0.52083(13) 0.43127(10)
C5 C -0.04441(14) 0.57211(15) 0.45153(11)
H6 H -0.0744 0.6215 0.4181
C5D C 0.04441(14) 0.42789(15) 0.54847(11)
C3D C -0.04246(13) 0.47917(13) 0.56873(10)
S1D S -0.09197(3) 0.45567(4) 0.65960(2)
O1D O -0.09526(9) 0.34061(10) 0.66901(7)
O2D O -0.19043(9) 0.50397(10) 0.66159(7)
O3D O -0.02282(9) 0.50591(10) 0.71193(7)
C1D C -0.08778(14) 0.55116(15) 0.52086(11)
H1D H -0.1477 0.5857 0.5352
H6D H 0.0744 0.3785 0.5819
N1 N -0.14714(12) 0.61430(12) 0.23416(10)
H2 H -0.2003 0.5798 0.2187
H3 H -0.0983 0.5797 0.2563
N2 N -0.21395(11) 0.77009(13) 0.19097(10)
H4 H -0.2099 0.8392 0.1844
H5 H -0.2670 0.7354 0.1754
C2 C -0.14056(13) 0.71850(15) 0.22414(10)
N3 N -0.06072(12) 0.76978(12) 0.24769(10)
H7 H -0.0561 0.8389 0.2413
H8 H -0.0121 0.7349 0.2698
C4 C -0.14747(15) 0.19944(18) 0.42403(12)
C6 C -0.14433(17) 0.10984(19) 0.37937(12)
H9 H -0.1477 0.1175 0.3263
C7 C -0.13151(15) -0.00633(19) 0.48713(13)
C8 C -0.14138(16) 0.1835(2) 0.50127(12)
H10 H -0.1425 0.2433 0.5338
C9 C -0.13640(17) 0.00930(19) 0.40992(14)
H11 H -0.1342 -0.0504 0.3774
C10 C -0.13372(15) 0.0837(2) 0.53166(12)
H12 H -0.1298 0.0762 0.5847
C11 C -0.1538(2) 0.3086(2) 0.39076(15)
H13 H -0.0883 0.3294 0.3714
H14 H -0.1749 0.3591 0.4296
H15 H -0.2023 0.3087 0.3496
C12 C -0.12448(19) -0.1158(2) 0.52061(16)
H16 H -0.1862 -0.1321 0.5476
H17 H -0.0682 -0.1186 0.5556
H18 H -0.1145 -0.1679 0.4804
loop_
_geom_bond_atom_site_label_1
_geom_bond_atom_site_label_2
_geom_bond_site_symmetry_1
_geom_bond_site_symmetry_2
S1 O1 1_555 1_555
O2 S1 1_555 1_555
C1 H1 1_555 1_555
O3 S1 1_555 1_555
N1 H2 1_555 1_555
H3 N1 1_555 1_555
N2 H4 1_555 1_555
H5 N2 1_555 1_555
C2 N1 1_555 1_555
C3 S1 1_555 1_555
C4 C6 1_555 1_555
C5 C3 1_555 1_555
H6 C5 1_555 1_555
N3 C2 1_555 1_555
H7 N3 1_555 1_555
H8 N3 1_555 1_555
C6 H9 1_555 1_555
C7 C9 1_555 1_555
C8 C4 1_555 1_555
H10 C8 1_555 1_555
C9 C6 1_555 1_555
H11 C9 1_555 1_555
C10 C7 1_555 1_555
H12 C10 1_555 1_555
C11 C4 1_555 1_555
H13 C11 1_555 1_555
H14 C11 1_555 1_555
H15 C11 1_555 1_555
C12 C7 1_555 1_555
H16 C12 1_555 1_555
H17 C12 1_555 1_555
H18 C12 1_555 1_555
C5D C1 1_555 1_555
C3D C5D 1_555 1_555
S1D C3D 1_555 1_555
O1D S1D 1_555 1_555
O2D S1D 1_555 1_555
O3D S1D 1_555 1_555
C1D C5 1_555 1_555
H1D C1D 1_555 1_555
H6D C5D 1_555 1_555
C1 C3 1_555 1_555
N2 C2 1_555 1_555
C8 C10 1_555 1_555
C3D C1D 1_555 1_555

#END
