
#######################################################################
#
#                 Cambridge Crystallographic Data Centre
#                                CCDC 
#
#######################################################################
#
# If this CIF has been generated from an entry in the Cambridge 
# Structural Database, then it will include bibliographic, chemical, 
# crystal, experimental, refinement or atomic coordinate data resulting 
# from the CCDC's data processing and validation procedures.
#
#######################################################################

data_QOWSAW
_chemical_formula_moiety         '2(C1 H6 N3 1+),C6 H4 O6 S2 2-,C4 H8 O1'
_chemical_name_systematic        
'bis(Guanidinium) 1,4-benzenedisulfonate tetrahydrofuran clathrate'
_symmetry_cell_setting           orthorhombic
_symmetry_space_group_name_H-M   'C m c m'
_symmetry_Int_Tables_number      63
_space_group_name_Hall           '-C 2n 2'
loop_
_symmetry_equiv_pos_site_id
_symmetry_equiv_pos_as_xyz
1 x,y,z
2 1/2+x,1/2+y,z
3 x,y,1/2-z
4 -x,y,z
5 x,-y,1/2+z
6 1/2+x,1/2+y,1/2-z
7 1/2-x,1/2+y,z
8 1/2+x,1/2-y,1/2+z
9 -x,-y,-z
10 1/2-x,1/2-y,-z
11 -x,-y,1/2+z
12 x,-y,-z
13 -x,y,1/2-z
14 1/2-x,1/2-y,1/2+z
15 1/2+x,1/2-y,-z
16 1/2-x,1/2+y,1/2-z
_cell_length_a                   7.5299(6)
_cell_length_b                   12.4646(10)
_cell_length_c                   21.4301(18)
_cell_angle_alpha                90
_cell_angle_beta                 90
_cell_angle_gamma                90
_cell_volume                     2011.37
_exptl_crystal_colour            colorless
_exptl_crystal_description       plate
_cell_formula_units_Z            4
loop_
_atom_site_label
_atom_site_type_symbol
_atom_site_fract_x
_atom_site_fract_y
_atom_site_fract_z
N1 N -0.5000 0.84911(15) 0.44446(10)
H1 H -0.6012 0.8842 0.4467
H2 H -0.3988 0.8842 0.4465
N2 N -0.34763(18) 0.69054(11) 0.43496(7)
H3 H -0.3474 0.6203 0.4310
H4 H -0.2466 0.7258 0.4370
C4 C -0.5000 0.74314(18) 0.43797(10)
N2C N -0.65237(18) 0.69054(11) 0.43496(7)
H3C H -0.6526 0.6203 0.4310
H4C H -0.7534 0.7258 0.4370
O3 O -0.4364(5) 1.0519(3) 0.2500
C5 C -0.5000 0.9961(3) 0.30269(13)
H7 H -0.6217 1.0201 0.3133
C6 C -0.5000 0.8790(3) 0.28583(14)
H9 H -0.6070 0.8426 0.3024
H10 H -0.3930 0.8426 0.3024
O3C O -0.5636(5) 1.0519(3) 0.2500
C5B C -0.5000 0.9961(3) 0.19731(13)
H7B H -0.6217 1.0201 0.1867
H7L H -0.3783 1.0201 0.1867
C6B C -0.5000 0.8790(3) 0.21417(14)
H7C H -0.3783 1.0201 0.3133
H9B H -0.6070 0.8426 0.1976
H9L H -0.3930 0.8426 0.1976
S1 S 0.0000 0.90263(4) 0.39727(3)
O1 O -0.16060(15) 0.95946(9) 0.41588(5)
C1 C 0.0000 0.90203(17) 0.31440(11)
O2 O 0.0000 0.79081(13) 0.41657(7)
C2 C 0.0000 0.9982(2) 0.28216(12)
H5 H 0.0000 1.0642 0.3043
C3 C 0.0000 0.80588(19) 0.28235(12)
H6 H 0.0000 0.7399 0.3046
O1C O 0.16060(15) 0.95946(9) 0.41588(5)
C2B C 0.0000 0.9982(2) 0.21784(12)
C1B C 0.0000 0.90203(17) 0.18560(11)
S1B S 0.0000 0.90263(4) 0.10273(3)
O1B O -0.16060(15) 0.95946(9) 0.08412(5)
O1L O 0.16060(15) 0.95946(9) 0.08412(5)
O2B O 0.0000 0.79081(13) 0.08343(7)
C3B C 0.0000 0.80588(19) 0.21765(12)
H6B H 0.0000 0.7399 0.1954
H5B H 0.0000 1.0642 0.1957
H8? H -0.4220 1.0092 0.3391
loop_
_geom_bond_atom_site_label_1
_geom_bond_atom_site_label_2
_geom_bond_site_symmetry_1
_geom_bond_site_symmetry_2
S1 O1 1_555 1_555
N1 H1 1_555 1_555
H2 N1 1_555 1_555
C1 S1 1_555 1_555
O2 S1 1_555 1_555
N2 H3 1_555 1_555
H4 N2 1_555 1_555
C2 C1 1_555 1_555
H5 C2 1_555 1_555
C3 C1 1_555 1_555
H6 C3 1_555 1_555
C4 N1 1_555 1_555
O3 C5 1_555 1_555
C5 H7 1_555 1_555
C6 C5 1_555 1_555
H9 C6 1_555 1_555
H10 C6 1_555 1_555
O1C S1 1_555 1_555
C2B C2 1_555 1_555
C1B C2B 1_555 1_555
S1B C1B 1_555 1_555
O1B S1B 1_555 1_555
O1L S1B 1_555 1_555
O2B S1B 1_555 1_555
C3B C3 1_555 1_555
H6B C3B 1_555 1_555
H5B C2B 1_555 1_555
N2C C4 1_555 1_555
H3C N2C 1_555 1_555
H4C N2C 1_555 1_555
O3C O3 1_555 1_555
C5B O3 1_555 1_555
H7B C5B 1_555 1_555
H7L C5B 1_555 1_555
C6B C6 1_555 1_555
H7C C5 1_555 1_555
H9B C6B 1_555 1_555
H9L C6B 1_555 1_555
N2 C4 1_555 1_555
C5 O3C 1_555 1_555
C1B C3B 1_555 1_555
O3C C5B 1_555 1_555
C5B C6B 1_555 1_555

#END
