
#######################################################################
#
#                 Cambridge Crystallographic Data Centre
#                                CCDC 
#
#######################################################################
#
# If this CIF has been generated from an entry in the Cambridge 
# Structural Database, then it will include bibliographic, chemical, 
# crystal, experimental, refinement or atomic coordinate data resulting 
# from the CCDC's data processing and validation procedures.
#
#######################################################################

data_QOWTIF
_chemical_formula_moiety         '2(C1 H6 N3 1+),C10 H6 O6 S2 2-,3(C8 H10)'
_chemical_name_systematic        
'bis(Guanidinium) 2,6-naphthalenedisulfonate tris(o-xylene) clathrate'
_symmetry_cell_setting           monoclinic
_symmetry_space_group_name_H-M   'P 21/n'
_symmetry_Int_Tables_number      14
_space_group_name_Hall           '-P 2yn'
loop_
_symmetry_equiv_pos_site_id
_symmetry_equiv_pos_as_xyz
1 x,y,z
2 1/2+x,1/2-y,1/2+z
3 -x,-y,-z
4 1/2-x,1/2+y,1/2-z
_cell_length_a                   7.5334(6)
_cell_length_b                   12.2651(9)
_cell_length_c                   20.6209(16)
_cell_angle_alpha                90.00
_cell_angle_beta                 96.6450(10)
_cell_angle_gamma                90.00
_cell_volume                     1892.53
_exptl_crystal_colour            colorless
_exptl_crystal_description       prism
_cell_formula_units_Z            2
loop_
_atom_site_label
_atom_site_type_symbol
_atom_site_fract_x
_atom_site_fract_y
_atom_site_fract_z
S1 S 0.48959(6) 0.03701(3) 0.20447(2)
O1 O 0.48959(16) 0.15492(10) 0.21016(6)
C1 C 0.4797(2) 0.00593(15) 0.12030(9)
O2 O 0.33278(17) -0.01341(9) 0.22702(6)
C2 C 0.5361(2) 0.07884(14) 0.07788(9)
H5 H 0.5788 0.1482 0.0931
O3 O 0.65483(17) -0.01157(10) 0.23544(6)
C3 C 0.5318(2) 0.05183(14) 0.01039(9)
C4 C 0.5889(3) 0.12651(15) -0.03486(9)
H8 H 0.6312 0.1965 -0.0206
C5 C 0.4164(3) -0.09855(14) 0.09923(9)
H9 H 0.3778 -0.1489 0.1297
C3B C 0.4682(2) -0.05183(14) -0.01039(9)
C2B C 0.4639(2) -0.07884(14) -0.07788(9)
C1B C 0.5203(2) -0.00593(15) -0.12030(9)
S1B S 0.51041(6) -0.03701(3) -0.20447(2)
O1B O 0.51041(16) -0.15492(10) -0.21016(6)
O2B O 0.66722(17) 0.01341(9) -0.22702(6)
O3B O 0.34517(17) 0.01157(10) -0.23544(6)
C5B C 0.5836(3) 0.09855(14) -0.09923(9)
H9B H 0.6222 0.1489 -0.1297
H5B H 0.4212 -0.1482 -0.0931
C4B C 0.4111(3) -0.12651(15) 0.03486(9)
H8B H 0.3688 -0.1965 0.0206
N1 N 0.1484(2) 0.25771(12) 0.23554(8)
H1 H 0.1497 0.3290 0.2404
H2 H 0.2485 0.2224 0.2321
N2 N -0.0060(2) 0.09633(12) 0.22597(8)
H3 H -0.1073 0.0601 0.2245
H4 H 0.0943 0.0613 0.2225
N3 N -0.1552(2) 0.25634(12) 0.23867(8)
H6 H -0.1540 0.3276 0.2435
H7 H -0.2565 0.2203 0.2373
C6 C -0.0047(2) 0.20343(15) 0.23346(9)
C7 C 0.0295(3) 0.20728(17) -0.06030(11)
C8 C -0.0464(3) 0.31158(16) -0.05600(10)
C9 C -0.0779(3) 0.34962(18) 0.00483(11)
H10 H -0.1290 0.4199 0.0081
C10 C -0.0376(3) 0.2891(2) 0.06060(11)
H11 H -0.0613 0.3170 0.1017
C11 C 0.0374(3) 0.1875(2) 0.05631(12)
H12 H 0.0668 0.1451 0.0946
C12 C 0.0698(3) 0.14744(18) -0.00349(12)
H13 H 0.1210 0.0770 -0.0059
C13 C 0.0651(3) 0.1608(2) -0.12468(13)
H14 H 0.1186 0.0883 -0.1180
H15 H 0.1474 0.2087 -0.1447
H16 H -0.0475 0.1551 -0.1535
C14 C -0.0933(4) 0.3801(2) -0.11543(12)
H17 H -0.1329 0.4521 -0.1024
H18 H -0.1896 0.3449 -0.1440
H19 H 0.0119 0.3881 -0.1389
C15? C 0.5461(4) 0.5509(2) 0.03448(16)
C16? C 0.4598(5) 0.4509(2) 0.0251(2)
C17? C 0.4034(6) 0.4146(3) -0.0377(3)
H20? H 0.3445 0.3463 -0.0441
C18? C 0.4333(7) 0.4781(5) -0.09123(19)
H21? H 0.3947 0.4532 -0.1342
C19? C 0.5195(6) 0.5780(4) -0.08188(17)
H22? H 0.5399 0.6214 -0.1184
C20? C 0.5759(5) 0.6144(2) -0.0190(2)
H23? H 0.6349 0.6827 -0.0126
C21? C 0.6092(6) 0.5984(4) 0.09780(19)
H24? H 0.5078 0.6093 0.1229
H25? H 0.6664 0.6687 0.0913
H26? H 0.6960 0.5491 0.1217
C22? C 0.4462(7) 0.3891(4) 0.0931(3)
H27? H 0.3795 0.3209 0.0848
H28? H 0.3842 0.4358 0.1218
H29? H 0.5667 0.3728 0.1142
loop_
_geom_bond_atom_site_label_1
_geom_bond_atom_site_label_2
_geom_bond_site_symmetry_1
_geom_bond_site_symmetry_2
S1 O1 1_555 1_555
N1 H1 1_555 1_555
H2 N1 1_555 1_555
C1 S1 1_555 1_555
O2 S1 1_555 1_555
N2 H3 1_555 1_555
H4 N2 1_555 1_555
C2 C1 1_555 1_555
H5 C2 1_555 1_555
O3 S1 1_555 1_555
N3 H6 1_555 1_555
H7 N3 1_555 1_555
C3 C2 1_555 1_555
C4 C3 1_555 1_555
H8 C4 1_555 1_555
C5 C1 1_555 1_555
H9 C5 1_555 1_555
C6 N1 1_555 1_555
C7 C8 1_555 1_555
C8 C9 1_555 1_555
C9 H10 1_555 1_555
C10 C9 1_555 1_555
H11 C10 1_555 1_555
C11 C10 1_555 1_555
H12 C11 1_555 1_555
C12 C7 1_555 1_555
H13 C12 1_555 1_555
C13 C7 1_555 1_555
H14 C13 1_555 1_555
H15 C13 1_555 1_555
H16 C13 1_555 1_555
C14 C8 1_555 1_555
H17 C14 1_555 1_555
H18 C14 1_555 1_555
H19 C14 1_555 1_555
C3B C3 1_555 1_555
C2B C3B 1_555 1_555
C1B C2B 1_555 1_555
S1B C1B 1_555 1_555
O1B S1B 1_555 1_555
O2B S1B 1_555 1_555
O3B S1B 1_555 1_555
C5B C4 1_555 1_555
H9B C5B 1_555 1_555
H5B C2B 1_555 1_555
C4B C5 1_555 1_555
H8B C4B 1_555 1_555
N2 C6 1_555 1_555
N3 C6 1_555 1_555
C11 C12 1_555 1_555
C3B C4B 1_555 1_555
C1B C5B 1_555 1_555

#END
