
#######################################################################
#
#                 Cambridge Crystallographic Data Centre
#                                CCDC 
#
#######################################################################
#
# If this CIF has been generated from an entry in the Cambridge 
# Structural Database, then it will include bibliographic, chemical, 
# crystal, experimental, refinement or atomic coordinate data resulting 
# from the CCDC's data processing and validation procedures.
#
#######################################################################

data_QOWVIH
_chemical_formula_moiety         '2(C1 H6 N3 1+),C14 H8 O6 S2 2-,C8 H10'
_chemical_name_systematic        
'bis(Guanidinium) 2,6-anthracenedisulfonate o-xylene clathrate'
_symmetry_cell_setting           triclinic
_symmetry_space_group_name_H-M   'P -1'
_symmetry_Int_Tables_number      2
_space_group_name_Hall           '-P 1'
loop_
_symmetry_equiv_pos_site_id
_symmetry_equiv_pos_as_xyz
1 x,y,z
2 -x,-y,-z
_cell_length_a                   6.2001(5)
_cell_length_b                   7.3015(6)
_cell_length_c                   15.1450(13)
_cell_angle_alpha                103.134(2)
_cell_angle_beta                 94.7770(10)
_cell_angle_gamma                93.607(2)
_cell_volume                     662.991
_exptl_crystal_colour            'pale yellow'
_exptl_crystal_description       prism
_cell_formula_units_Z            1
loop_
_atom_site_label
_atom_site_type_symbol
_atom_site_fract_x
_atom_site_fract_y
_atom_site_fract_z
N1 N -0.1239(2) 0.4541(2) 0.59192(11)
H1 H -0.2666 0.4402 0.5887
H2 H -0.0575 0.5645 0.5925
N2 N 0.2062(3) 0.3319(2) 0.60299(13)
H3 H 0.2837 0.2367 0.6071
H4 H 0.2714 0.4428 0.6035
N3 N -0.1049(3) 0.1413(2) 0.59524(11)
H6 H -0.0264 0.0467 0.5994
H7 H -0.2476 0.1246 0.5906
C8 C -0.0087(3) 0.3082(3) 0.59599(12)
C9 C 0.8916(7) 0.4273(5) 0.94011(19)
C10 C 1.1049(7) 0.5024(5) 0.9443(2)
C11 C 0.7857(9) 0.4030(7) 0.9723(3)
H11 H 0.6399 0.3517 0.9695
C12 C 0.8896(12) 0.3834(9) 0.8933(2)
H12 H 0.8148 0.3188 0.8363
C13 C 1.1028(12) 0.4585(9) 0.8975(2)
H13 H 1.1738 0.4452 0.8434
C14 C 0.7877(9) 0.4468(7) 1.0192(3)
H14 H 0.6420 0.3955 1.0163
C15 C 0.7758(7) 0.3439(5) 0.8546(3)
H15 H 0.7540 0.4408 0.8200
H16 H 0.6344 0.2871 0.8637
H17 H 0.8586 0.2461 0.8207
C16 C 1.2101(7) 0.4826(5) 0.8608(3)
H18 H 1.3614 0.5358 0.8754
H19 H 1.1337 0.5502 0.8204
H20 H 1.2061 0.3487 0.8304
C11A C 1.2143(9) 0.5970(7) 1.0277(3)
C9A C 1.1084(7) 0.5727(5) 1.05989(19)
C10A C 0.8951(7) 0.4976(5) 1.0557(2)
C14A C 1.2123(9) 0.5532(7) 0.9808(3)
C12A C 1.1104(12) 0.6166(9) 1.1067(2)
H11A H 1.3601 0.6483 1.0305
H14A H 1.3580 0.6045 0.9837
H12A H 1.1852 0.6812 1.1637
C15A C 1.2242(7) 0.6561(5) 1.1454(3)
C13A C 0.8972(12) 0.5415(9) 1.1025(2)
H13A H 0.8262 0.5548 1.1566
C16A C 0.7899(7) 0.5174(5) 1.1392(3)
H18A H 0.6386 0.4642 1.1246
H19A H 0.8663 0.4498 1.1796
H20A H 0.7939 0.6513 1.1696
H15A H 1.2460 0.5592 1.1800
H16A H 1.3656 0.7129 1.1363
H17A H 1.1414 0.7539 1.1793
S1 S 0.37063(7) 0.84214(6) 0.63190(3)
O1 O 0.13361(19) 0.82296(18) 0.62639(8)
C1 C 0.4646(3) 0.8677(2) 0.74775(12)
O2 O 0.4603(2) 0.67488(18) 0.58159(8)
C2 C 0.6749(3) 0.8117(3) 0.77038(12)
H5 H 0.7608 0.7586 0.7235
O3 O 0.4512(2) 1.01443(18) 0.60795(9)
C3 C 0.7513(3) 0.8344(3) 0.85899(12)
H8 H 0.8905 0.7953 0.8735
C4 C 0.6276(3) 0.9158(2) 0.93093(12)
C5 C 0.4167(3) 0.9747(2) 0.90791(12)
C6 C 0.3399(3) 0.9459(2) 0.81423(12)
H9 H 0.2001 0.9814 0.7978
C7 C 0.7049(3) 0.9421(2) 1.02236(12)
H10 H 0.8434 0.9026 1.0376
C7A C 0.2951(3) 1.0579(2) 0.97764(12)
C4A C 0.3724(3) 1.0842(2) 1.06907(12)
C3A C 0.2487(3) 1.1656(3) 1.14101(12)
C2A C 0.3251(3) 1.1883(3) 1.22962(12)
C1A C 0.5354(3) 1.1323(2) 1.25225(12)
S1A S 0.62937(7) 1.15786(6) 1.36810(3)
O1A O 0.86639(19) 1.17704(18) 1.37361(8)
O2A O 0.5397(2) 1.32512(18) 1.41841(8)
O3A O 0.5488(2) 0.98557(18) 1.39205(9)
C6A C 0.6601(3) 1.0541(2) 1.18577(12)
C5A C 0.5833(3) 1.0253(2) 1.09209(12)
H9A H 0.7999 1.0186 1.2022
H5A H 0.2392 1.2414 1.2765
H8A H 0.1095 1.2047 1.1265
H10A H 0.1566 1.0974 0.9624
loop_
_geom_bond_atom_site_label_1
_geom_bond_atom_site_label_2
_geom_bond_site_symmetry_1
_geom_bond_site_symmetry_2
S1 O1 1_555 1_555
N1 H1 1_555 1_555
H2 N1 1_555 1_555
C1 S1 1_555 1_555
O2 S1 1_555 1_555
N2 H3 1_555 1_555
H4 N2 1_555 1_555
C2 C1 1_555 1_555
H5 C2 1_555 1_555
O3 S1 1_555 1_555
N3 H6 1_555 1_555
H7 N3 1_555 1_555
C3 C2 1_555 1_555
H8 C3 1_555 1_555
C4 C3 1_555 1_555
C5 C4 1_555 1_555
C6 C1 1_555 1_555
H9 C6 1_555 1_555
C7 C4 1_555 1_555
H10 C7 1_555 1_555
C8 N1 1_555 1_555
C9 C10 1_555 1_555
C10 C13 1_555 1_555
C11 C9 1_555 1_555
H11 C11 1_555 1_555
C12 C9 1_555 1_555
H12 C12 1_555 1_555
C13 C12 1_555 1_555
H13 C13 1_555 1_555
C14 C9 1_555 1_555
H14 C11 1_555 1_555
C15 C9 1_555 1_555
H15 C15 1_555 1_555
H16 C15 1_555 1_555
H17 H12 1_555 1_555
C16 C10 1_555 1_555
H18 C16 1_555 1_555
H19 C16 1_555 1_555
H20 H13 1_555 1_555
C7A C5 1_555 1_555
C4A C7A 1_555 1_555
C3A C4A 1_555 1_555
C2A C3A 1_555 1_555
C1A C2A 1_555 1_555
S1A C1A 1_555 1_555
O1A S1A 1_555 1_555
O2A S1A 1_555 1_555
O3A S1A 1_555 1_555
C6A C1A 1_555 1_555
C5A C7 1_555 1_555
H9A C6A 1_555 1_555
H5A C2A 1_555 1_555
H8A C3A 1_555 1_555
H10A C7A 1_555 1_555
C11A C10 1_555 1_555
C9A C11A 1_555 1_555
C10A C11 1_555 1_555
C14A C10 1_555 1_555
C12A C11A 1_555 1_555
H11A C11A 1_555 1_555
H14A C11A 1_555 1_555
H12A C12A 1_555 1_555
C15A C9A 1_555 1_555
C13A C14 1_555 1_555
H13A C13A 1_555 1_555
C16A C10A 1_555 1_555
H18A C16A 1_555 1_555
H19A C16A 1_555 1_555
H20A H13A 1_555 1_555
H15A C15A 1_555 1_555
H16A C15A 1_555 1_555
H17A H12A 1_555 1_555
N2 C8 1_555 1_555
N3 C8 1_555 1_555
C5 C6 1_555 1_555
C11 C14 1_555 1_555
C11 C12 1_555 1_555
H11 H14 1_555 1_555
C12 C15 1_555 1_555
H12 C15 1_555 1_555
C13 C14A 1_555 1_555
C13 C16 1_555 1_555
H13 C16 1_555 1_555
C14 C10A 1_555 1_555
C14 H14 1_555 1_555
C15 H17 1_555 1_555
C16 H20 1_555 1_555
C4A C5A 1_555 1_555
C6A C5A 1_555 1_555
C11A C14A 1_555 1_555
C9A C10A 1_555 1_555
C9A C12A 1_555 1_555
C9A C14A 1_555 1_555
C10A C13A 1_555 1_555
C14A H14A 1_555 1_555
C12A C13A 1_555 1_555
C12A C15A 1_555 1_555
H11A H14A 1_555 1_555
H12A C15A 1_555 1_555
C15A H17A 1_555 1_555
C13A C16A 1_555 1_555
H13A C16A 1_555 1_555
C16A H20A 1_555 1_555

#END
