
#######################################################################
#
#                 Cambridge Crystallographic Data Centre
#                                CCDC 
#
#######################################################################
#
# If this CIF has been generated from an entry in the Cambridge 
# Structural Database, then it will include bibliographic, chemical, 
# crystal, experimental, refinement or atomic coordinate data resulting 
# from the CCDC's data processing and validation procedures.
#
#######################################################################

data_QOWVAZ
_chemical_formula_moiety         '2(C1 H6 N3 1+),C12 H8 O6 S2 2-,2(C20 H12)'
_chemical_name_systematic        
"bis(Guanidinium) 4,4'-biphenyldisulfonate bis(perylene) clathrate"
_symmetry_cell_setting           orthorhombic
_symmetry_space_group_name_H-M   'P b c a'
_symmetry_Int_Tables_number      61
_space_group_name_Hall           '-P 2ac 2ab'
loop_
_symmetry_equiv_pos_site_id
_symmetry_equiv_pos_as_xyz
1 x,y,z
2 1/2+x,y,1/2-z
3 1/2-x,1/2+y,z
4 x,1/2-y,1/2+z
5 -x,-y,-z
6 1/2-x,-y,1/2+z
7 1/2+x,1/2-y,-z
8 -x,1/2+y,1/2-z
_cell_length_a                   13.6864(7)
_cell_length_b                   12.4544(7)
_cell_length_c                   26.4727(14)
_cell_angle_alpha                90
_cell_angle_beta                 90
_cell_angle_gamma                90
_cell_volume                     4512.43
_exptl_crystal_colour            orange
_exptl_crystal_description       plate
_cell_formula_units_Z            4
loop_
_atom_site_label
_atom_site_type_symbol
_atom_site_fract_x
_atom_site_fract_y
_atom_site_fract_z
S1 S 0.08331(4) 0.43971(4) 0.19362(2)
O1 O 0.17888(11) 0.48834(11) 0.20204(5)
C1 C 0.05509(16) 0.46066(16) 0.12949(8)
O2 O 0.00618(12) 0.49115(11) 0.22282(5)
C2 C -0.0362(2) 0.4379(3) 0.11124(10)
H5 H -0.0851 0.4115 0.1335
O3 O 0.08562(11) 0.32410(11) 0.20169(5)
C3 C -0.0575(2) 0.4529(3) 0.06101(10)
H8 H -0.1212 0.4362 0.0491
C4 C 0.01139(16) 0.49169(16) 0.02723(8)
C5 C 0.10120(18) 0.5162(2) 0.04671(9)
H9 H 0.1500 0.5442 0.0249
C6 C 0.12334(19) 0.5014(2) 0.09738(9)
H10 H 0.1864 0.5198 0.1097
C4D C -0.01139(16) 0.50831(16) -0.02723(8)
C3D C 0.0575(2) 0.5471(3) -0.06101(10)
C2D C 0.0362(2) 0.5621(3) -0.11124(10)
C1D C -0.05509(16) 0.53934(16) -0.12949(8)
S1D S -0.08331(4) 0.56029(4) -0.19362(2)
O1D O -0.17888(11) 0.51166(11) -0.20204(5)
O2D O -0.00618(12) 0.50885(11) -0.22282(5)
O3D O -0.08562(11) 0.67590(11) -0.20169(5)
C6D C -0.12334(19) 0.4986(2) -0.09738(9)
C5D C -0.10120(18) 0.4838(2) -0.04671(9)
H9D H -0.1500 0.4558 -0.0249
H10D H -0.1864 0.4802 -0.1097
H5D H 0.0851 0.5885 -0.1335
H8D H 0.1212 0.5638 -0.0491
N1 N 0.22711(15) 0.71032(14) 0.21637(7)
H1 H 0.2211 0.6415 0.2094
H2 H 0.2822 0.7439 0.2097
N2 N 0.07021(14) 0.71388(14) 0.24716(7)
H3 H 0.0213 0.7497 0.2606
H4 H 0.0639 0.6450 0.2405
N3 N 0.16209(14) 0.86715(14) 0.24711(6)
H6 H 0.1130 0.9026 0.2606
H7 H 0.2172 0.9006 0.2404
C7 C 0.15305(17) 0.76344(17) 0.23698(8)
C8 C 0.20243(19) -0.1847(2) 0.01869(9)
H11 H 0.2287 -0.2366 -0.0038
C9 C 0.1984(2) -0.2081(2) 0.07028(10)
H12 H 0.2225 -0.2747 0.0825
C10 C 0.1598(2) -0.1350(2) 0.10307(10)
H13 H 0.1557 -0.1523 0.1380
C11 C 0.12621(17) -0.0350(2) 0.08621(9)
C12 C 0.09015(18) 0.0430(2) 0.12014(9)
H14 H 0.0862 0.0270 0.1552
C13 C 0.06123(19) 0.1404(2) 0.10312(10)
H15 H 0.0379 0.1925 0.1264
C14 C 0.06523(18) 0.1650(2) 0.05198(9)
H16 H 0.0443 0.2340 0.0410
C15 C 0.09874(16) 0.09236(19) 0.01657(9)
C16 C 0.10246(17) 0.11698(19) -0.03799(9)
C17 C 0.06929(19) 0.2139(2) -0.05703(10)
H17 H 0.0451 0.2670 -0.0345
C18 C 0.0710(2) 0.2349(2) -0.10932(12)
H18 H 0.0468 0.3015 -0.1217
C19 C 0.1065(2) 0.1614(2) -0.14218(11)
H19 H 0.1079 0.1773 -0.1773
C20 C 0.14134(18) 0.0619(2) -0.12488(9)
C21 C 0.1768(2) -0.0172(3) -0.15890(9)
H20 H 0.1789 -0.0022 -0.1941
C22 C 0.2078(2) -0.1138(3) -0.14181(10)
H21 H 0.2310 -0.1661 -0.1650
C23 C 0.20566(19) -0.1369(2) -0.09020(9)
H22 H 0.2277 -0.2052 -0.0789
C24 C 0.17234(16) -0.06306(19) -0.05511(9)
C25 C 0.16915(17) -0.08791(19) -0.00053(8)
C26 C 0.13108(16) -0.00993(19) 0.03362(8)
C27 C 0.13911(17) 0.03819(19) -0.07237(8)
loop_
_geom_bond_atom_site_label_1
_geom_bond_atom_site_label_2
_geom_bond_site_symmetry_1
_geom_bond_site_symmetry_2
S1 O1 1_555 1_555
N1 H1 1_555 1_555
H2 N1 1_555 1_555
C1 S1 1_555 1_555
O2 S1 1_555 1_555
N2 H3 1_555 1_555
H4 N2 1_555 1_555
C2 C1 1_555 1_555
H5 C2 1_555 1_555
O3 S1 1_555 1_555
N3 H6 1_555 1_555
H7 N3 1_555 1_555
C3 C2 1_555 1_555
H8 C3 1_555 1_555
C4 C3 1_555 1_555
C5 C4 1_555 1_555
H9 C5 1_555 1_555
C6 C1 1_555 1_555
H10 C6 1_555 1_555
C7 N1 1_555 1_555
C8 H11 1_555 1_555
C9 C8 1_555 1_555
H12 C9 1_555 1_555
C10 C9 1_555 1_555
H13 C10 1_555 1_555
C11 C10 1_555 1_555
C12 C11 1_555 1_555
H14 C12 1_555 1_555
C13 C12 1_555 1_555
H15 C13 1_555 1_555
C14 C13 1_555 1_555
H16 C14 1_555 1_555
C15 C14 1_555 1_555
C16 C15 1_555 1_555
C17 C16 1_555 1_555
H17 C17 1_555 1_555
C18 C17 1_555 1_555
H18 C18 1_555 1_555
C19 C18 1_555 1_555
H19 C19 1_555 1_555
C20 C19 1_555 1_555
C21 C20 1_555 1_555
H20 C21 1_555 1_555
C22 C21 1_555 1_555
H21 C22 1_555 1_555
C23 C22 1_555 1_555
H22 C23 1_555 1_555
C24 C23 1_555 1_555
C25 C8 1_555 1_555
C26 C11 1_555 1_555
C27 C16 1_555 1_555
C4D C4 1_555 1_555
C3D C4D 1_555 1_555
C2D C3D 1_555 1_555
C1D C2D 1_555 1_555
S1D C1D 1_555 1_555
O1D S1D 1_555 1_555
O2D S1D 1_555 1_555
O3D S1D 1_555 1_555
C6D C1D 1_555 1_555
C5D C4D 1_555 1_555
H9D C5D 1_555 1_555
H10D C6D 1_555 1_555
H5D C2D 1_555 1_555
H8D C3D 1_555 1_555
N2 C7 1_555 1_555
N3 C7 1_555 1_555
C5 C6 1_555 1_555
C15 C26 1_555 1_555
C20 C27 1_555 1_555
C24 C25 1_555 1_555
C24 C27 1_555 1_555
C25 C26 1_555 1_555
C6D C5D 1_555 1_555

#END
