
#######################################################################
#
#                 Cambridge Crystallographic Data Centre
#                                CCDC 
#
#######################################################################
#
# If this CIF has been generated from an entry in the Cambridge 
# Structural Database, then it will include bibliographic, chemical, 
# crystal, experimental, refinement or atomic coordinate data resulting 
# from the CCDC's data processing and validation procedures.
#
#######################################################################

data_QOWVED
_chemical_formula_moiety         '2(C1 H6 N3 1+),C14 H8 O6 S2 2-,C8 H10'
_chemical_name_systematic        
'bis(Guanidinium) 2,6-anthracenedisulfonate p-xylene clathrate'
_symmetry_cell_setting           triclinic
_symmetry_space_group_name_H-M   'P -1'
_symmetry_Int_Tables_number      2
_space_group_name_Hall           '-P 1'
loop_
_symmetry_equiv_pos_site_id
_symmetry_equiv_pos_as_xyz
1 x,y,z
2 -x,-y,-z
_cell_length_a                   6.2024(4)
_cell_length_b                   7.1901(5)
_cell_length_c                   15.1836(10)
_cell_angle_alpha                80.8590(10)
_cell_angle_beta                 82.2350(10)
_cell_angle_gamma                85.2080(10)
_cell_volume                     661.062
_exptl_crystal_colour            'pale yellow'
_exptl_crystal_description       prism
_cell_formula_units_Z            1
loop_
_atom_site_label
_atom_site_type_symbol
_atom_site_fract_x
_atom_site_fract_y
_atom_site_fract_z
S1 S 0.37834(6) 0.26974(5) 0.86007(2)
O1 O 0.14026(17) 0.28555(16) 0.86864(7)
C1 C 0.4703(2) 0.3641(2) 0.74733(10)
O2 O 0.46316(19) 0.07304(16) 0.87248(8)
C2 C 0.3448(2) 0.3561(2) 0.68090(11)
H1 H 0.2068 0.3032 0.6955
O3 O 0.46737(18) 0.38329(17) 0.91631(7)
C3 C 0.4200(2) 0.4270(2) 0.58937(10)
C4 C 0.6267(2) 0.5117(2) 0.56977(10)
C5 C 0.7503(3) 0.5177(2) 0.64181(11)
H2 H 0.8866 0.5738 0.6295
C6 C 0.6768(3) 0.4447(2) 0.72784(11)
H5 H 0.7629 0.4474 0.7748
C7 C 0.2984(3) 0.4168(2) 0.51936(11)
H6 H 0.1624 0.3602 0.5325
C7A C 0.7016(3) 0.5832(2) 0.48064(11)
C3A C 0.5800(2) 0.5730(2) 0.41063(10)
C2A C 0.6552(2) 0.6439(2) 0.31910(11)
C1A C 0.5297(2) 0.6359(2) 0.25267(10)
S1A S 0.62166(6) 0.73026(5) 0.13993(2)
O1A O 0.85974(17) 0.71445(16) 0.13136(7)
O2A O 0.53684(19) 0.92696(16) 0.12752(8)
O3A O 0.53263(18) 0.61671(17) 0.08369(7)
C6A C 0.3232(3) 0.5553(2) 0.27216(11)
C5A C 0.2497(3) 0.4823(2) 0.35819(11)
C4A C 0.3733(2) 0.4883(2) 0.43023(10)
H2A H 0.1134 0.4262 0.3705
H5A H 0.2371 0.5526 0.2252
H1A H 0.7932 0.6968 0.3045
H6A H 0.8376 0.6398 0.4675
N1 N -0.1070(2) -0.0557(2) 0.91296(10)
H3 H -0.0291 0.0421 0.9109
H4 H -0.2499 -0.0402 0.9162
C8 C -0.0091(3) -0.2263(2) 0.91132(10)
N2 N 0.2058(2) -0.2493(2) 0.90653(11)
H8 H 0.2834 -0.1513 0.9044
H9 H 0.2711 -0.3625 0.9054
N3 N -0.1254(2) -0.3756(2) 0.91372(9)
H11 H -0.0590 -0.4883 0.9121
H12 H -0.2684 -0.3613 0.9169
C9 C 0.8607(4) 0.0232(3) 0.57571(15)
H7 H 0.7622 0.0403 0.6278
C10 C 1.0690(4) -0.0555(3) 0.58559(14)
C11 C 0.7923(3) 0.0775(3) 0.49201(16)
H10 H 0.6481 0.1307 0.4876
C12 C 1.1453(5) -0.1173(4) 0.67699(18)
H13 H 1.0647 -0.0413 0.7203
H14 H 1.3016 -0.0998 0.6729
H15 H 1.1192 -0.2508 0.6970
C11A C 1.2077(3) -0.0775(3) 0.50799(16)
C9A C 1.1393(4) -0.0232(3) 0.42429(15)
H7A H 1.2378 -0.0403 0.3722
C10A C 0.9310(4) 0.0555(3) 0.41441(14)
C12A C 0.8547(5) 0.1173(4) 0.32301(18)
H13A H 0.9353 0.0413 0.2797
H14A H 0.6984 0.0998 0.3271
H15A H 0.8808 0.2508 0.3030
H10A H 1.3519 -0.1307 0.5124
loop_
_geom_bond_atom_site_label_1
_geom_bond_atom_site_label_2
_geom_bond_site_symmetry_1
_geom_bond_site_symmetry_2
S1 O1 1_555 1_555
C1 S1 1_555 1_555
O2 S1 1_555 1_555
C2 C1 1_555 1_555
H1 C2 1_555 1_555
O3 S1 1_555 1_555
C3 C2 1_555 1_555
C4 C3 1_555 1_555
C5 C4 1_555 1_555
H2 C5 1_555 1_555
N1 H3 1_555 1_555
H4 N1 1_555 1_555
C6 C1 1_555 1_555
H5 C6 1_555 1_555
C7 C3 1_555 1_555
H6 C7 1_555 1_555
C8 N1 1_555 1_555
C9 H7 1_555 1_555
N2 C8 1_555 1_555
H8 N2 1_555 1_555
H9 N2 1_555 1_555
C10 C9 1_555 1_555
C11 C9 1_555 1_555
H10 C11 1_555 1_555
N3 C8 1_555 1_555
H11 N3 1_555 1_555
H12 N3 1_555 1_555
C12 C10 1_555 1_555
H13 C12 1_555 1_555
H14 C12 1_555 1_555
H15 C12 1_555 1_555
C7A C4 1_555 1_555
C3A C7A 1_555 1_555
C2A C3A 1_555 1_555
C1A C2A 1_555 1_555
S1A C1A 1_555 1_555
O1A S1A 1_555 1_555
O2A S1A 1_555 1_555
O3A S1A 1_555 1_555
C6A C1A 1_555 1_555
C5A C6A 1_555 1_555
C4A C7 1_555 1_555
H2A C5A 1_555 1_555
H5A C6A 1_555 1_555
H1A C2A 1_555 1_555
H6A C7A 1_555 1_555
C11A C10 1_555 1_555
C9A C11A 1_555 1_555
H7A C9A 1_555 1_555
C10A C11 1_555 1_555
C12A C10A 1_555 1_555
H13A C12A 1_555 1_555
H14A C12A 1_555 1_555
H15A C12A 1_555 1_555
H10A C11A 1_555 1_555
C5 C6 1_555 1_555
C3A C4A 1_555 1_555
C5A C4A 1_555 1_555
C9A C10A 1_555 1_555

#END
