
#######################################################################
#
#                 Cambridge Crystallographic Data Centre
#                                CCDC 
#
#######################################################################
#
# If this CIF has been generated from an entry in the Cambridge 
# Structural Database, then it will include bibliographic, chemical, 
# crystal, experimental, refinement or atomic coordinate data resulting 
# from the CCDC's data processing and validation procedures.
#
#######################################################################

data_QOWWAC
_chemical_name_common            
'Carbon-bridged planar [26]hexaphyrin(1.1.1.1.1.1) pentane solvate'
_chemical_formula_moiety         'C74 H23 F30 N7,C5 H12'
_chemical_name_systematic        
'N-ethyl-N-((8,13,18,23,28,35-hexakis(pentafluorophenyl)-3,33,36,37,38,39-hexaazanonacyclo[24.7.1.1^4,32^.1^9,12^.1^14,17^.1^19,22^.1^24,27^.0^3,7^.0^29,33^]nonatriaconta-1(34),4,6,8,10,12(39),13,15,17(38),18,20,22(37),23,25,27(36),28,30,32(35)-octadecaen-2-ylidene)methyl)ethanamine pentane solvate'
_symmetry_cell_setting           triclinic
_symmetry_space_group_name_H-M   'P -1'
_symmetry_Int_Tables_number      2
_space_group_name_Hall           '-P 1'
loop_
_symmetry_equiv_pos_site_id
_symmetry_equiv_pos_as_xyz
1 x,y,z
2 -x,-y,-z
_cell_length_a                   13.088(3)
_cell_length_b                   16.497(5)
_cell_length_c                   16.902(6)
_cell_angle_alpha                110.565(9)
_cell_angle_beta                 95.423(12)
_cell_angle_gamma                93.2299(3)
_cell_volume                     3385.77
_exptl_crystal_colour            blue
_exptl_crystal_description       Prism
_cell_formula_units_Z            2
loop_
_atom_site_label
_atom_site_type_symbol
_atom_site_fract_x
_atom_site_fract_y
_atom_site_fract_z
C1 C -0.0888(2) 0.2325(2) 0.7524(2)
C2 C -0.0069(3) 0.2882(2) 0.7452(2)
H1 H 0.0370 0.3304 0.7908
C3 C -0.0026(2) 0.2697(2) 0.6599(2)
H2 H 0.0440 0.2985 0.6362
C4 C -0.0782(2) 0.2015(2) 0.6131(2)
N1 N -0.13138(19) 0.18023(17) 0.67200(18)
C5 C -0.0930(2) 0.1594(2) 0.5229(2)
C6 C -0.1210(2) 0.0706(2) 0.4794(2)
C7 C -0.1211(2) 0.0014(2) 0.5144(2)
H3 H -0.1054 0.0078 0.5724
C8 C -0.1482(2) -0.0737(2) 0.4475(2)
H4 H -0.1567 -0.1307 0.4490
C9 C -0.1616(2) -0.0489(2) 0.3721(2)
N2 N -0.1436(2) 0.03740(18) 0.39292(19)
C10 C -0.1838(2) -0.1034(2) 0.2855(2)
C11 C -0.2223(2) -0.1907(2) 0.2521(2)
C12 C -0.2361(3) -0.2434(2) 0.1620(2)
H5 H -0.2215 -0.2248 0.1168
C13 C -0.2734(3) -0.3233(2) 0.1547(3)
H6 H -0.2910 -0.3722 0.1036
C14 C -0.2816(3) -0.3200(2) 0.2417(3)
N3 N -0.2512(2) -0.23949(18) 0.2992(2)
C15 C -0.3149(3) -0.3947(2) 0.2593(3)
C16 C -0.3209(3) -0.4037(2) 0.3377(3)
C17 C -0.3490(3) -0.4867(2) 0.3480(3)
H7 H -0.3653 -0.5419 0.3038
C18 C -0.3472(3) -0.4694(2) 0.4315(3)
H8 H -0.3603 -0.5098 0.4587
C19 C -0.3210(3) -0.3756(2) 0.4723(3)
N4 N -0.3047(2) -0.33820(18) 0.4146(2)
C20 C -0.3202(3) -0.3292(2) 0.5601(3)
C21 C -0.3172(3) -0.2389(2) 0.5976(2)
C22 C -0.3096(2) -0.1728(2) 0.5603(2)
H9 H -0.3113 -0.1819 0.5015
C23 C -0.2997(2) -0.0951(2) 0.6259(2)
C24 C -0.3067(2) -0.1162(2) 0.7026(2)
N5 N -0.3185(2) -0.20160(18) 0.6844(2)
C25 C -0.3066(2) -0.0569(2) 0.7864(2)
C26 C -0.2741(2) 0.0312(2) 0.8170(2)
C27 C -0.2615(2) 0.0833(2) 0.9049(2)
H10 H -0.2842 0.0660 0.9489
C28 C -0.2122(3) 0.1608(2) 0.9160(2)
H11 H -0.1942 0.2072 0.9690
C29 C -0.1912(2) 0.1623(2) 0.8348(2)
N6 N -0.2356(2) 0.08296(17) 0.77329(19)
C30 C -0.1258(2) 0.2284(2) 0.8267(2)
C31 C -0.2873(2) -0.0093(2) 0.6230(2)
H12 H -0.3041 -0.0065 0.5682
C32 C -0.2557(2) 0.0681(2) 0.6851(2)
C33 C -0.2389(2) 0.1453(2) 0.6608(2)
C34 C -0.3085(3) 0.1941(2) 0.6405(2)
H13 H -0.2782 0.2409 0.6274
N7 N -0.4123(2) 0.1903(2) 0.6348(2)
C35 C -0.4671(4) 0.2551(3) 0.6123(4)
H14 H -0.4837 0.2328 0.5496
H15 H -0.5335 0.2584 0.6364
C36 C -0.4198(4) 0.3415(4) 0.6373(5)
H16 H -0.4660 0.3765 0.6167
H17 H -0.3547 0.3407 0.6128
H18 H -0.4062 0.3668 0.6995
C37 C -0.4751(3) 0.1352(3) 0.6662(3)
H19 H -0.4481 0.0775 0.6508
H20 H -0.5465 0.1266 0.6375
C38 C -0.4775(4) 0.1719(4) 0.7612(4)
H21 H -0.5210 0.1319 0.7781
H22 H -0.5057 0.2284 0.7769
H23 H -0.4073 0.1792 0.7903
C39 C -0.0724(3) 0.2151(2) 0.4723(2)
C40 C -0.0058(3) 0.1954(2) 0.4096(2)
C41 C 0.0067(3) 0.2449(2) 0.3607(2)
C42 C -0.0469(3) 0.3166(2) 0.3704(2)
C43 C -0.1124(3) 0.3394(2) 0.4327(3)
C44 C -0.1237(3) 0.2890(2) 0.4820(2)
F1 F 0.05082(14) 0.12845(12) 0.39834(13)
F2 F 0.07224(17) 0.22378(15) 0.30115(15)
F3 F -0.03665(17) 0.36344(14) 0.32135(15)
F4 F -0.16637(19) 0.40791(14) 0.44261(16)
F5 F -0.19112(17) 0.31270(13) 0.53962(14)
C45 C -0.1604(3) -0.0607(2) 0.2230(2)
C46 C -0.2340(3) -0.0455(2) 0.1685(2)
C47 C -0.2113(3) -0.0050(3) 0.1123(3)
C48 C -0.1095(3) 0.0200(3) 0.1095(3)
C49 C -0.0334(3) 0.0056(2) 0.1634(3)
C50 C -0.0586(3) -0.0337(2) 0.2194(2)
F6 F -0.33449(15) -0.06834(15) 0.16923(14)
F7 F -0.28627(17) 0.01042(17) 0.06158(15)
F8 F -0.08664(17) 0.05859(17) 0.05502(16)
F9 F 0.06531(15) 0.02845(15) 0.16051(16)
F10 F 0.01784(14) -0.04856(13) 0.26980(14)
C51 C -0.3715(4) -0.4666(3) 0.1724(3)
C52 C -0.4700(4) -0.4628(3) 0.1360(4)
C53 C -0.5125(3) -0.5282(3) 0.0605(4)
C54 C -0.4565(4) -0.5974(3) 0.0215(3)
C55 C -0.3580(4) -0.6012(3) 0.0579(3)
C56 C -0.3155(3) -0.5358(3) 0.1334(3)
F11 F -0.5240(3) -0.3981(3) 0.1705(3)
F12 F -0.6071(3) -0.5256(3) 0.0263(3)
F13 F -0.4944(4) -0.6571(3) -0.0532(3)
F14 F -0.3050(4) -0.6676(3) 0.0202(3)
F15 F -0.2232(5) -0.5417(4) 0.1660(4)
C57 C -0.3161(3) -0.3784(2) 0.6196(3)
C58 C -0.3903(3) -0.3745(3) 0.6749(3)
C59 C -0.3763(4) -0.4094(3) 0.7384(3)
C60 C -0.2916(4) -0.4518(3) 0.7466(4)
C61 C -0.2181(4) -0.4593(3) 0.6910(4)
C62 C -0.2327(3) -0.4217(2) 0.6300(3)
F16 F -0.47605(18) -0.33725(15) 0.66785(17)
F17 F -0.4484(2) -0.4008(2) 0.7927(2)
F18 F -0.2792(3) -0.4856(2) 0.8076(2)
F19 F -0.1350(2) -0.50064(19) 0.6978(2)
F20 F -0.15706(19) -0.42673(15) 0.57884(18)
C63 C -0.3391(3) -0.0961(2) 0.8485(2)
C64 C -0.4330(3) -0.0793(2) 0.8808(2)
C65 C -0.4686(3) -0.1192(2) 0.9334(3)
C66 C -0.4120(3) -0.1761(2) 0.9558(3)
C67 C -0.3176(3) -0.1941(2) 0.9254(3)
C68 C -0.2838(3) -0.1536(2) 0.8730(2)
F21 F -0.49107(15) -0.02387(14) 0.85964(15)
F22 F -0.55973(18) -0.10181(16) 0.96312(16)
F23 F -0.4450(2) -0.21448(16) 1.00746(17)
F24 F -0.2626(2) -0.25009(16) 0.94756(17)
F25 F -0.19091(16) -0.17166(14) 0.84628(15)
C69 C -0.0873(2) 0.3009(2) 0.9082(2)
C70 C -0.1327(3) 0.3783(2) 0.9321(2)
C71 C -0.1029(3) 0.4441(2) 1.0096(3)
C72 C -0.0258(3) 0.4336(2) 1.0654(3)
C73 C 0.0226(3) 0.3574(2) 1.0439(3)
C74 C -0.0086(3) 0.2925(2) 0.9651(3)
F26 F -0.20990(17) 0.38960(14) 0.88088(14)
F27 F -0.14898(18) 0.51779(13) 1.03227(15)
F28 F 0.00435(18) 0.49723(14) 1.13996(15)
F29 F 0.09664(19) 0.34716(17) 1.09772(17)
F30 F 0.03695(16) 0.21868(13) 0.94607(15)
F31? F -0.4832(7) -0.4555(7) 0.1479(6)
F32? F -0.5134(4) -0.6090(4) 0.0185(4)
F33? F -0.3649(4) -0.7225(3) -0.0048(3)
F34? F -0.1890(3) -0.6812(3) 0.1043(3)
F35? F -0.1581(3) -0.5257(3) 0.2334(3)
C75? C -0.3203(4) -0.4862(3) 0.1936(3)
C76? C -0.4109(4) -0.5087(3) 0.1376(4)
C77? C -0.4261(4) -0.5889(4) 0.0713(4)
C78? C -0.3506(5) -0.6465(3) 0.0608(3)
C79? C -0.2599(4) -0.6239(3) 0.1168(4)
C80? C -0.2447(4) -0.5438(4) 0.1832(4)
C81? C 0.5967(6) 0.0995(7) 0.3714(8)
H24? H 0.5616 0.1209 0.4225
H25? H 0.6587 0.0734 0.3841
H26? H 0.5503 0.0556 0.3255
C82? C -0.2927(6) -0.7611(5) 0.2348(5)
H27? H -0.2723 -0.7060 0.2835
H28? H -0.3597 -0.7541 0.2067
C83? C -0.3116(7) -0.8252(5) 0.2691(5)
H29? H -0.3483 -0.8766 0.2228
H30? H -0.2439 -0.8424 0.2856
C84? C -0.3661(10) -0.8085(8) 0.3375(8)
H31? H -0.4300 -0.7838 0.3245
H32? H -0.3248 -0.7628 0.3867
C85? C -0.2163(11) -0.7674(8) 0.1733(9)
H33? H -0.2153 -0.7158 0.1573
H34? H -0.2358 -0.8196 0.1224
H35? H -0.1477 -0.7709 0.1999
loop_
_geom_bond_atom_site_label_1
_geom_bond_atom_site_label_2
_geom_bond_site_symmetry_1
_geom_bond_site_symmetry_2
C1 C2 1_555 1_555
C2 H1 1_555 1_555
C3 C2 1_555 1_555
H2 C3 1_555 1_555
C4 C3 1_555 1_555
N1 C1 1_555 1_555
C5 C4 1_555 1_555
C6 C5 1_555 1_555
C7 C6 1_555 1_555
H3 C7 1_555 1_555
C8 C7 1_555 1_555
H4 C8 1_555 1_555
C9 C8 1_555 1_555
N2 C6 1_555 1_555
C10 C9 1_555 1_555
C11 C10 1_555 1_555
C12 C11 1_555 1_555
H5 C12 1_555 1_555
C13 C12 1_555 1_555
H6 C13 1_555 1_555
C14 C13 1_555 1_555
N3 C11 1_555 1_555
C15 C14 1_555 1_555
C16 C15 1_555 1_555
C17 C16 1_555 1_555
H7 C17 1_555 1_555
C18 C17 1_555 1_555
H8 C18 1_555 1_555
C19 C18 1_555 1_555
N4 C16 1_555 1_555
C20 C19 1_555 1_555
C21 C20 1_555 1_555
C22 C21 1_555 1_555
H9 C22 1_555 1_555
C23 C22 1_555 1_555
C24 C23 1_555 1_555
N5 C21 1_555 1_555
C25 C24 1_555 1_555
C26 C25 1_555 1_555
C27 C26 1_555 1_555
H10 C27 1_555 1_555
C28 C27 1_555 1_555
H11 C28 1_555 1_555
C29 C28 1_555 1_555
N6 C26 1_555 1_555
C30 C1 1_555 1_555
C31 C23 1_555 1_555
H12 C31 1_555 1_555
C32 N6 1_555 1_555
C33 N1 1_555 1_555
C34 C33 1_555 1_555
H13 C34 1_555 1_555
N7 C34 1_555 1_555
C35 N7 1_555 1_555
H14 C35 1_555 1_555
H15 C35 1_555 1_555
C36 C35 1_555 1_555
H16 C36 1_555 1_555
H17 C36 1_555 1_555
H18 C36 1_555 1_555
C37 N7 1_555 1_555
H19 C37 1_555 1_555
H20 C37 1_555 1_555
C38 C37 1_555 1_555
H21 C38 1_555 1_555
H22 C38 1_555 1_555
H23 C38 1_555 1_555
C39 C5 1_555 1_555
C40 C39 1_555 1_555
C41 C40 1_555 1_555
C42 C41 1_555 1_555
C43 C42 1_555 1_555
C44 C39 1_555 1_555
F1 C40 1_555 1_555
F2 C41 1_555 1_555
F3 C42 1_555 1_555
F4 C43 1_555 1_555
F5 C44 1_555 1_555
C45 C10 1_555 1_555
C46 C45 1_555 1_555
C47 C46 1_555 1_555
C48 C47 1_555 1_555
C49 C48 1_555 1_555
C50 C45 1_555 1_555
F6 C46 1_555 1_555
F7 C47 1_555 1_555
F8 C48 1_555 1_555
F9 C49 1_555 1_555
F10 C50 1_555 1_555
C51 C15 1_555 1_555
C52 C51 1_555 1_555
C53 C52 1_555 1_555
C54 C53 1_555 1_555
C55 C54 1_555 1_555
C56 C51 1_555 1_555
F11 C52 1_555 1_555
F12 C53 1_555 1_555
F13 C54 1_555 1_555
F14 C55 1_555 1_555
F15 C56 1_555 1_555
C57 C20 1_555 1_555
C58 C57 1_555 1_555
C59 C58 1_555 1_555
C60 C59 1_555 1_555
C61 C60 1_555 1_555
C62 C57 1_555 1_555
F16 C58 1_555 1_555
F17 C59 1_555 1_555
F18 C60 1_555 1_555
F19 C61 1_555 1_555
F20 C62 1_555 1_555
C63 C25 1_555 1_555
C64 C63 1_555 1_555
C65 C64 1_555 1_555
C66 C65 1_555 1_555
C67 C66 1_555 1_555
C68 C63 1_555 1_555
F21 C64 1_555 1_555
F22 C65 1_555 1_555
F23 C66 1_555 1_555
F24 C67 1_555 1_555
F25 C68 1_555 1_555
C69 C30 1_555 1_555
C70 C69 1_555 1_555
C71 C70 1_555 1_555
C72 C71 1_555 1_555
C73 C72 1_555 1_555
C74 C69 1_555 1_555
F26 C70 1_555 1_555
F27 C71 1_555 1_555
F28 C72 1_555 1_555
F29 C73 1_555 1_555
F30 C74 1_555 1_555
C4 N1 1_555 1_555
C9 N2 1_555 1_555
C14 N3 1_555 1_555
C19 N4 1_555 1_555
C24 N5 1_555 1_555
C29 N6 1_555 1_555
C29 C30 1_555 1_555
C31 C32 1_555 1_555
C32 C33 1_555 1_555
C43 C44 1_555 1_555
C49 C50 1_555 1_555
C55 C56 1_555 1_555
C61 C62 1_555 1_555
C67 C68 1_555 1_555
C73 C74 1_555 1_555

#END
