
#######################################################################
#
#                 Cambridge Crystallographic Data Centre
#                                CCDC 
#
#######################################################################
#
# If this CIF has been generated from an entry in the Cambridge 
# Structural Database, then it will include bibliographic, chemical, 
# crystal, experimental, refinement or atomic coordinate data resulting 
# from the CCDC's data processing and validation procedures.
#
#######################################################################

data_QOWWII
_chemical_formula_moiety         '2(C1 H6 N3 1+),C8 H16 O6 S2 2-'
_chemical_name_systematic        'bis(Guanidinium) 1,8-octanedisulfonate'
_symmetry_cell_setting           orthorhombic
_symmetry_space_group_name_H-M   'P n a 21'
_symmetry_Int_Tables_number      33
_space_group_name_Hall           'P 2c -2n'
loop_
_symmetry_equiv_pos_site_id
_symmetry_equiv_pos_as_xyz
1 x,y,z
2 -x,-y,1/2+z
3 1/2-x,1/2+y,1/2+z
4 1/2+x,1/2-y,z
_cell_length_a                   12.6576(12)
_cell_length_b                   42.116(4)
_cell_length_c                   11.5962(11)
_cell_angle_alpha                90
_cell_angle_beta                 90
_cell_angle_gamma                90
_cell_volume                     6181.79
_exptl_crystal_colour            colorless
_exptl_crystal_description       plate
_cell_formula_units_Z            12
loop_
_atom_site_label
_atom_site_type_symbol
_atom_site_fract_x
_atom_site_fract_y
_atom_site_fract_z
S1 S 0.58509(15) 0.36387(4) 0.42026(17)
O1 O 0.5286(4) 0.34311(10) 0.3426(5)
C1 C 0.5812(7) 0.34595(16) 0.5589(7)
H3 H 0.6291 0.3577 0.6113
H4 H 0.5087 0.3477 0.5903
S2 S 0.43010(15) 0.12655(4) 0.72444(18)
O2 O 0.5343(4) 0.39433(10) 0.4314(5)
C2 C 0.6136(6) 0.31088(15) 0.5569(7)
H7 H 0.6662 0.3077 0.4947
H8 H 0.6485 0.3057 0.6310
O3 O 0.6966(4) 0.36657(10) 0.3885(5)
C3 C 0.5227(6) 0.28782(14) 0.5383(7)
H11 H 0.4941 0.2907 0.4596
H12 H 0.4656 0.2927 0.5939
O4 O 0.4800(4) 0.09524(10) 0.7330(6)
C4 C 0.5569(6) 0.25332(15) 0.5535(7)
H15 H 0.5875 0.2507 0.6315
H16 H 0.6129 0.2484 0.4966
O5 O 0.3176(4) 0.12523(11) 0.7506(5)
C5 C 0.4661(6) 0.22950(13) 0.5384(7)
H19 H 0.4066 0.2357 0.5890
H20 H 0.4409 0.2302 0.4576
O6 O 0.4844(4) 0.15085(10) 0.7911(5)
C6 C 0.4994(6) 0.19572(14) 0.5674(7)
H23 H 0.5255 0.1951 0.6479
H24 H 0.5584 0.1894 0.5162
C7 C 0.4091(6) 0.17191(15) 0.5541(8)
H27 H 0.3514 0.1778 0.6076
H28 H 0.3810 0.1734 0.4746
C8 C 0.4410(7) 0.13794(15) 0.5775(7)
H31 H 0.5151 0.1349 0.5525
H32 H 0.3962 0.1237 0.5304
N1 N 0.3001(5) 0.34422(13) 0.3643(6)
H1 H 0.2641 0.3272 0.3444
H2 H 0.3689 0.3431 0.3739
N2 N 0.3035(5) 0.39800(14) 0.4073(6)
H5 H 0.3726 0.3976 0.4157
H6 H 0.2687 0.4159 0.4170
N3 N 0.1469(5) 0.37389(14) 0.3656(7)
H9 H 0.1092 0.3572 0.3457
H10 H 0.1157 0.3923 0.3763
C25 C 0.2512(6) 0.37124(15) 0.3795(7)
S3 S 0.56944(16) 0.70307(4) 0.3918(2)
S4 S 0.42317(14) 0.46849(4) 0.72490(19)
O7 O 0.5157(4) 0.67862(10) 0.3220(5)
O8 O 0.5184(4) 0.73416(10) 0.3821(5)
O9 O 0.6819(4) 0.70449(10) 0.3653(6)
C9 C 0.5584(7) 0.6915(2) 0.5349(8)
H35 H 0.6027 0.7057 0.5825
H36 H 0.4841 0.6945 0.5595
O10 O 0.4760(4) 0.43777(10) 0.7186(6)
C10 C 0.5905(7) 0.6570(2) 0.5605(8)
H39 H 0.6485 0.6511 0.5074
H40 H 0.6189 0.6561 0.6400
O11 O 0.3127(4) 0.46569(11) 0.7569(6)
C11 C 0.5033(6) 0.63242(19) 0.5494(8)
H43 H 0.4460 0.6377 0.6045
H44 H 0.4734 0.6335 0.4706
O12 O 0.4810(4) 0.49090(10) 0.7982(5)
C12 C 0.5412(8) 0.59883(18) 0.5725(9)
H47 H 0.5966 0.5933 0.5158
H48 H 0.5732 0.5979 0.6504
C13 C 0.4524(7) 0.5747(2) 0.5650(8)
H51 H 0.4201 0.5760 0.4874
H52 H 0.3973 0.5804 0.6220
C14 C 0.4869(7) 0.54078(19) 0.5867(8)
H55 H 0.5158 0.5391 0.6658
H56 H 0.5439 0.5352 0.5319
C15 C 0.3959(7) 0.5175(2) 0.5729(8)
H59 H 0.3418 0.5221 0.6323
H60 H 0.3629 0.5208 0.4964
C16 C 0.4284(7) 0.4832(2) 0.5833(8)
H63 H 0.5014 0.4809 0.5539
H64 H 0.3816 0.4702 0.5339
N4 N 0.7967(5) 0.42943(15) 0.4067(7)
H13 H 0.8660 0.4297 0.4115
H14 H 0.7621 0.4114 0.4142
N5 N 0.6406(5) 0.45380(16) 0.3800(6)
H17 H 0.6022 0.4708 0.3664
H18 H 0.6098 0.4352 0.3881
N6 N 0.7920(5) 0.48291(14) 0.3769(6)
H21 H 0.7555 0.5003 0.3633
H22 H 0.8612 0.4839 0.3828
C26 C 0.7443(6) 0.45618(18) 0.3883(7)
S5 S 0.57797(15) 1.03958(4) 0.42437(17)
S6 S 0.41423(15) 0.79833(4) 0.69391(17)
O13 O 0.6901(4) 1.04123(10) 0.3968(5)
O14 O 0.5228(4) 1.01734(10) 0.3504(5)
O15 O 0.5275(4) 1.07089(11) 0.4204(5)
O16 O 0.4656(4) 0.76715(10) 0.6802(5)
O17 O 0.3027(4) 0.79543(11) 0.7236(5)
C17 C 0.5686(7) 1.02438(19) 0.5669(7)
H67 H 0.6154 1.0370 0.6176
H68 H 0.4953 1.0273 0.5946
O18 O 0.4706(4) 0.81938(11) 0.7734(5)
C18 C 0.5977(6) 0.98976(17) 0.5793(8)
H71 H 0.6271 0.9864 0.6574
H72 H 0.6542 0.9848 0.5231
C19 C 0.5074(6) 0.96642(18) 0.5611(7)
H73 H 0.4787 0.9691 0.4823
H74 H 0.4501 0.9712 0.6165
C20 C 0.5429(7) 0.93139(17) 0.5774(8)
H75 H 0.5974 0.9262 0.5192
H76 H 0.5749 0.9289 0.6547
C21 C 0.4512(7) 0.90845(18) 0.5653(8)
H77 H 0.4178 0.9117 0.4889
H78 H 0.3977 0.9135 0.6249
C22 C 0.4831(7) 0.87351(17) 0.5770(8)
H79 H 0.5397 0.8686 0.5209
H80 H 0.5113 0.8697 0.6554
C23 C 0.3899(6) 0.85168(19) 0.5559(7)
H81 H 0.3582 0.8569 0.4802
H82 H 0.3357 0.8556 0.6158
C24 C 0.4192(7) 0.8166(2) 0.5574(8)
H83 H 0.4917 0.8142 0.5264
H84 H 0.3709 0.8051 0.5049
N7 N 0.3695(4) 0.37788(13) 0.7563(6)
H25 H 0.4051 0.3957 0.7484
H26 H 0.4033 0.3599 0.7673
N8 N 0.2109(5) 0.40451(14) 0.7357(7)
H29 H 0.2437 0.4228 0.7274
H30 H 0.1415 0.4037 0.7332
N9 N 0.2137(5) 0.35037(14) 0.7593(7)
H33 H 0.2489 0.3325 0.7670
H34 H 0.1442 0.3501 0.7565
C27 C 0.2661(6) 0.37815(15) 0.7519(7)
N10 N 0.7061(5) 0.43602(15) 0.7355(7)
H37 H 0.7390 0.4179 0.7226
H38 H 0.6369 0.4371 0.7294
N11 N 0.7062(5) 0.48902(14) 0.7738(7)
H41 H 0.7407 0.5068 0.7874
H42 H 0.6370 0.4893 0.7670
N12 N 0.8618(4) 0.46128(12) 0.7737(6)
H45 H 0.8979 0.4437 0.7616
H46 H 0.8949 0.4789 0.7928
C28 C 0.7600(6) 0.46120(16) 0.7634(7)
N13 N 0.2856(5) 0.67991(14) 0.3541(6)
H49 H 0.3549 0.6793 0.3587
H50 H 0.2496 0.6622 0.3441
N14 N 0.2895(5) 0.73355(12) 0.3770(6)
H53 H 0.3588 0.7333 0.3817
H54 H 0.2551 0.7517 0.3822
N15 N 0.1319(5) 0.70810(15) 0.3520(7)
H57 H 0.0953 0.6907 0.3400
H58 H 0.0994 0.7265 0.3575
C29 C 0.2366(6) 0.70665(16) 0.3619(8)
N16 N 0.6956(5) 0.76506(14) 0.7018(6)
H61 H 0.7280 0.7470 0.6875
H62 H 0.6265 0.7664 0.6946
N17 N 0.8531(5) 0.78966(13) 0.7459(6)
H65 H 0.8892 0.7722 0.7326
H66 H 0.8862 0.8070 0.7674
N18 N 0.6992(5) 0.81786(14) 0.7497(7)
H69 H 0.6305 0.8192 0.7390
H70 H 0.7351 0.8348 0.7711
C30 C 0.7497(6) 0.78982(16) 0.7333(7)
loop_
_geom_bond_atom_site_label_1
_geom_bond_atom_site_label_2
_geom_bond_site_symmetry_1
_geom_bond_site_symmetry_2
S1 O1 1_555 1_555
N1 H1 1_555 1_555
H2 N1 1_555 1_555
C1 S1 1_555 1_555
H3 C1 1_555 1_555
H4 C1 1_555 1_555
S2 O4 1_555 1_555
O2 S1 1_555 1_555
N2 H5 1_555 1_555
H6 N2 1_555 1_555
C2 C1 1_555 1_555
H7 C2 1_555 1_555
H8 C2 1_555 1_555
S3 O7 1_555 1_555
O3 S1 1_555 1_555
N3 H9 1_555 1_555
H10 N3 1_555 1_555
C3 C2 1_555 1_555
H11 C3 1_555 1_555
H12 C3 1_555 1_555
S4 O10 1_555 1_555
N4 H13 1_555 1_555
H14 N4 1_555 1_555
C4 C3 1_555 1_555
H15 C4 1_555 1_555
H16 C4 1_555 1_555
S5 O13 1_555 1_555
O5 S2 1_555 1_555
N5 H17 1_555 1_555
H18 N5 1_555 1_555
C5 C4 1_555 1_555
H19 C5 1_555 1_555
H20 C5 1_555 1_555
S6 O16 1_555 1_555
O6 S2 1_555 1_555
N6 H21 1_555 1_555
H22 N6 1_555 1_555
C6 C5 1_555 1_555
H23 C6 1_555 1_555
H24 C6 1_555 1_555
N7 H25 1_555 1_555
H26 N7 1_555 1_555
C7 C6 1_555 1_555
H27 C7 1_555 1_555
H28 C7 1_555 1_555
O8 S3 1_555 1_555
N8 H29 1_555 1_555
H30 N8 1_555 1_555
C8 S2 1_555 1_555
H31 C8 1_555 1_555
H32 C8 1_555 1_555
O9 S3 1_555 1_555
N9 H33 1_555 1_555
H34 N9 1_555 1_555
C9 S3 1_555 1_555
H35 C9 1_555 1_555
H36 C9 1_555 1_555
N10 H37 1_555 1_555
H38 N10 1_555 1_555
C10 C9 1_555 1_555
H39 C10 1_555 1_555
H40 C10 1_555 1_555
O11 S4 1_555 1_555
N11 H41 1_555 1_555
H42 N11 1_555 1_555
C11 C10 1_555 1_555
H43 C11 1_555 1_555
H44 C11 1_555 1_555
O12 S4 1_555 1_555
N12 H45 1_555 1_555
H46 N12 1_555 1_555
C12 C11 1_555 1_555
H47 C12 1_555 1_555
H48 C12 1_555 1_555
N13 H49 1_555 1_555
H50 N13 1_555 1_555
C13 C12 1_555 1_555
H51 C13 1_555 1_555
H52 C13 1_555 1_555
O14 S5 1_555 1_555
N14 H53 1_555 1_555
H54 N14 1_555 1_555
C14 C13 1_555 1_555
H55 C14 1_555 1_555
H56 C14 1_555 1_555
O15 S5 1_555 1_555
N15 H57 1_555 1_555
H58 N15 1_555 1_555
C15 C14 1_555 1_555
H59 C15 1_555 1_555
H60 C15 1_555 1_555
N16 H61 1_555 1_555
H62 N16 1_555 1_555
C16 S4 1_555 1_555
H63 C16 1_555 1_555
H64 C16 1_555 1_555
O17 S6 1_555 1_555
N17 H65 1_555 1_555
H66 N17 1_555 1_555
C17 S5 1_555 1_555
H67 C17 1_555 1_555
H68 C17 1_555 1_555
O18 S6 1_555 1_555
N18 H69 1_555 1_555
H70 N18 1_555 1_555
C18 C17 1_555 1_555
H71 C18 1_555 1_555
H72 C18 1_555 1_555
C19 C18 1_555 1_555
H73 C19 1_555 1_555
H74 C19 1_555 1_555
C20 C19 1_555 1_555
H75 C20 1_555 1_555
H76 C20 1_555 1_555
C21 C20 1_555 1_555
H77 C21 1_555 1_555
H78 C21 1_555 1_555
C22 C21 1_555 1_555
H79 C22 1_555 1_555
H80 C22 1_555 1_555
C23 C22 1_555 1_555
H81 C23 1_555 1_555
H82 C23 1_555 1_555
C24 S6 1_555 1_555
H83 C24 1_555 1_555
H84 C24 1_555 1_555
C25 N1 1_555 1_555
C26 N4 1_555 1_555
C27 N7 1_555 1_555
C28 N10 1_555 1_555
C29 N13 1_555 1_555
C30 N16 1_555 1_555
N2 C25 1_555 1_555
N3 C25 1_555 1_555
N5 C26 1_555 1_555
N6 C26 1_555 1_555
C7 C8 1_555 1_555
N8 C27 1_555 1_555
N9 C27 1_555 1_555
N11 C28 1_555 1_555
N12 C28 1_555 1_555
N14 C29 1_555 1_555
N15 C29 1_555 1_555
C15 C16 1_555 1_555
N17 C30 1_555 1_555
N18 C30 1_555 1_555
C23 C24 1_555 1_555

#END
