
#######################################################################
#
#                 Cambridge Crystallographic Data Centre
#                                CCDC 
#
#######################################################################
#
# If this CIF has been generated from an entry in the Cambridge 
# Structural Database, then it will include bibliographic, chemical, 
# crystal, experimental, refinement or atomic coordinate data resulting 
# from the CCDC's data processing and validation procedures.
#
#######################################################################

data_QOWWEE
_chemical_formula_moiety         '2(C1 H6 N3 1+),C14 H8 O6 S2 2-,2(C20 H12)'
_chemical_name_systematic        
'bis(Guanidinium) 2,6-anthracenedisulfonate bis(perylene) clathrate'
_symmetry_cell_setting           orthorhombic
_symmetry_space_group_name_H-M   'P b c a'
_symmetry_Int_Tables_number      61
_space_group_name_Hall           '-P 2ac 2ab'
loop_
_symmetry_equiv_pos_site_id
_symmetry_equiv_pos_as_xyz
1 x,y,z
2 1/2+x,y,1/2-z
3 1/2-x,1/2+y,z
4 x,1/2-y,1/2+z
5 -x,-y,-z
6 1/2-x,-y,1/2+z
7 1/2+x,1/2-y,-z
8 -x,1/2+y,1/2-z
_cell_length_a                   13.7891(12)
_cell_length_b                   12.3034(10)
_cell_length_c                   26.784(2)
_cell_angle_alpha                90
_cell_angle_beta                 90
_cell_angle_gamma                90
_cell_volume                     4543.98
_exptl_crystal_colour            orange
_exptl_crystal_description       plate
_cell_formula_units_Z            4
loop_
_atom_site_label
_atom_site_type_symbol
_atom_site_fract_x
_atom_site_fract_y
_atom_site_fract_z
S1 S 0.08604(5) 0.41948(5) 0.30637(2)
O1 O 0.18129(12) 0.47074(13) 0.30703(6)
O2 O 0.09254(12) 0.30272(12) 0.29641(6)
O3 O 0.01883(13) 0.47288(13) 0.27219(6)
C2 C 0.08736(19) 0.47614(18) 0.40490(9)
H1 H 0.1528 0.4975 0.3997
C3 C 0.03550(18) 0.43422(18) 0.36628(9)
C4 C -0.10553(18) 0.4130(2) 0.41816(9)
H4 H -0.1711 0.3911 0.4223
C5 C -0.05372(18) 0.45694(18) 0.45982(9)
C6 C 0.04511(18) 0.48848(18) 0.45297(9)
C8 C 0.09630(18) 0.53099(18) 0.49337(9)
H5 H 0.1619 0.5523 0.4889
C16 C -0.06290(19) 0.40222(19) 0.37316(9)
H12 H -0.0986 0.3732 0.3459
C8D C -0.09630(18) 0.46901(18) 0.50663(9)
C6D C -0.04511(18) 0.51152(18) 0.54703(9)
C2D C -0.08736(19) 0.52386(18) 0.59510(9)
H1D H -0.1528 0.5025 0.6003
C3D C -0.03550(18) 0.56578(18) 0.63372(9)
S1D S -0.08604(5) 0.58052(5) 0.69363(2)
O1D O -0.18129(12) 0.52926(13) 0.69297(6)
O2D O -0.09254(12) 0.69728(12) 0.70359(6)
O3D O -0.01883(13) 0.52712(13) 0.72781(6)
C16D C 0.06290(19) 0.59778(19) 0.62684(9)
C4D C 0.10553(18) 0.5870(2) 0.58184(9)
H4D H 0.1711 0.6089 0.5777
C5D C 0.05372(18) 0.54306(18) 0.54018(9)
H12D H 0.0986 0.6268 0.6541
H5D H -0.1619 0.4477 0.5111
C1 C 0.17189(18) 0.5843(2) 0.00559(9)
C7 C 0.09530(19) 0.3771(2) 0.03833(10)
C9 C 0.2082(2) 0.6823(2) -0.01163(10)
H6 H 0.2340 0.7327 0.0117
C10 C 0.17193(18) 0.5556(2) 0.05881(9)
C11 C 0.13493(19) 0.5367(2) -0.08142(10)
C13 C 0.09513(18) 0.4062(2) -0.01477(9)
C14 C 0.0946(2) 0.3234(2) 0.14079(11)
H7 H 0.0933 0.3048 0.1752
C15 C 0.13394(18) 0.50903(19) -0.03000(9)
C17 C 0.13340(19) 0.4525(2) 0.07412(10)
C18 C 0.0593(2) 0.2527(2) 0.10610(12)
H13 H 0.0342 0.1844 0.1165
C19 C 0.2096(2) 0.6239(2) 0.09502(10)
H14 H 0.2362 0.6919 0.0852
C20 C 0.1333(2) 0.4249(2) 0.12547(10)
C21 C 0.1717(2) 0.4990(3) 0.16087(11)
H15 H 0.1711 0.4813 0.1954
C22 C 0.1722(2) 0.6387(2) -0.09667(10)
H16 H 0.1721 0.6579 -0.1310
C23 C 0.0595(2) 0.2791(2) 0.05567(11)
H17 H 0.0342 0.2283 0.0324
C24 C 0.0972(2) 0.4624(2) -0.11700(11)
H18 H 0.0978 0.4806 -0.1515
C25 C 0.0595(2) 0.3376(2) -0.05150(10)
H19 H 0.0336 0.2692 -0.0419
C26 C 0.2080(2) 0.7093(2) -0.06223(10)
H20 H 0.2331 0.7776 -0.0727
C27 C 0.0601(2) 0.3652(2) -0.10195(11)
H21 H 0.0346 0.3161 -0.1259
C28 C 0.2095(2) 0.5958(3) 0.14538(11)
H22 H 0.2360 0.6446 0.1692
N1 N -0.15507(16) 0.35782(16) 0.23960(7)
H2 H -0.2096 0.3913 0.2322
H3 H -0.1064 0.3945 0.2526
C12 C -0.1462(2) 0.2515(2) 0.23113(9)
N2 N -0.06437(16) 0.20218(16) 0.24269(8)
H8 H -0.0580 0.1319 0.2375
H9 H -0.0161 0.2395 0.2556
N3 N -0.21926(16) 0.19733(16) 0.21174(8)
H10 H -0.2140 0.1270 0.2063
H11 H -0.2735 0.2314 0.2042
loop_
_geom_bond_atom_site_label_1
_geom_bond_atom_site_label_2
_geom_bond_site_symmetry_1
_geom_bond_site_symmetry_2
S1 O1 1_555 1_555
O2 S1 1_555 1_555
O3 S1 1_555 1_555
C1 C9 1_555 1_555
C2 H1 1_555 1_555
C3 S1 1_555 1_555
N1 H2 1_555 1_555
H3 N1 1_555 1_555
C4 H4 1_555 1_555
C5 C4 1_555 1_555
C6 C2 1_555 1_555
C7 C13 1_555 1_555
C8 C6 1_555 1_555
H5 C8 1_555 1_555
C9 H6 1_555 1_555
C10 C1 1_555 1_555
C11 C15 1_555 1_555
C12 N1 1_555 1_555
C13 C15 1_555 1_555
C14 H7 1_555 1_555
N2 C12 1_555 1_555
H8 N2 1_555 1_555
H9 N2 1_555 1_555
N3 C12 1_555 1_555
H10 N3 1_555 1_555
H11 N3 1_555 1_555
C15 C1 1_555 1_555
C16 C3 1_555 1_555
H12 C16 1_555 1_555
C17 C7 1_555 1_555
C18 C14 1_555 1_555
H13 C18 1_555 1_555
C19 C10 1_555 1_555
H14 C19 1_555 1_555
C20 C14 1_555 1_555
C21 C20 1_555 1_555
H15 C21 1_555 1_555
C22 C11 1_555 1_555
H16 C22 1_555 1_555
C23 C7 1_555 1_555
H17 C23 1_555 1_555
C24 C11 1_555 1_555
H18 C24 1_555 1_555
C25 C13 1_555 1_555
H19 C25 1_555 1_555
C26 C9 1_555 1_555
H20 C26 1_555 1_555
C27 C24 1_555 1_555
H21 C27 1_555 1_555
C28 C19 1_555 1_555
H22 C28 1_555 1_555
C8D C5 1_555 1_555
C6D C8D 1_555 1_555
C2D C6D 1_555 1_555
H1D C2D 1_555 1_555
C3D C2D 1_555 1_555
S1D C3D 1_555 1_555
O1D S1D 1_555 1_555
O2D S1D 1_555 1_555
O3D S1D 1_555 1_555
C16D C3D 1_555 1_555
C4D C16D 1_555 1_555
H4D C4D 1_555 1_555
C5D C8 1_555 1_555
H12D C16D 1_555 1_555
H5D C8D 1_555 1_555
C2 C3 1_555 1_555
C4 C16 1_555 1_555
C5 C6 1_555 1_555
C10 C17 1_555 1_555
C17 C20 1_555 1_555
C18 C23 1_555 1_555
C21 C28 1_555 1_555
C22 C26 1_555 1_555
C25 C27 1_555 1_555
C6D C5D 1_555 1_555
C4D C5D 1_555 1_555

#END
