
#######################################################################
#
#                 Cambridge Crystallographic Data Centre
#                                CCDC 
#
#######################################################################
#
# If this CIF has been generated from an entry in the Cambridge 
# Structural Database, then it will include bibliographic, chemical, 
# crystal, experimental, refinement or atomic coordinate data resulting 
# from the CCDC's data processing and validation procedures.
#
#######################################################################

data_QOWXAB
_chemical_formula_moiety         '2(C1 H6 N3 1+),C12 H8 O7 S2 2-,3(C2 H3 N1)'
_chemical_name_systematic        
"bis(Guanidinium) 4,4'-diphenyletherdisulfonate tris(acetonitrile) clathrate"
_symmetry_cell_setting           orthorhombic
_symmetry_space_group_name_H-M   'P 21 21 21'
_symmetry_Int_Tables_number      19
_space_group_name_Hall           'P 2ac 2ab'
loop_
_symmetry_equiv_pos_site_id
_symmetry_equiv_pos_as_xyz
1 x,y,z
2 1/2-x,-y,1/2+z
3 1/2+x,1/2-y,-z
4 -x,1/2+y,1/2-z
_cell_length_a                   7.4659(4)
_cell_length_b                   13.7874(8)
_cell_length_c                   29.0841(16)
_cell_angle_alpha                90
_cell_angle_beta                 90
_cell_angle_gamma                90
_cell_volume                     2993.78
_exptl_crystal_colour            colorless
_exptl_crystal_description       prism
_cell_formula_units_Z            4
loop_
_atom_site_label
_atom_site_type_symbol
_atom_site_fract_x
_atom_site_fract_y
_atom_site_fract_z
S1 S 0.47882(15) 0.30462(7) 0.76785(3)
O1 O 0.6442(4) 0.3495(2) 0.78401(11)
C1 C 0.4697(6) -0.1095(3) 1.00820(14)
S2 S 0.49480(16) -0.13191(7) 1.06716(3)
O2 O 0.3212(4) 0.3651(2) 0.77764(11)
C2 C 0.5781(7) -0.1534(4) 0.97596(16)
H5 H 0.6697 -0.1967 0.9856
O3 O 0.4868(4) 0.2770(2) 0.71946(9)
C3 C 0.5538(7) -0.1346(4) 0.92969(16)
H8 H 0.6292 -0.1645 0.9075
O4 O 0.3350(4) -0.1849(3) 1.08126(11)
C4 C 0.4229(7) -0.0738(4) 0.91611(17)
O5 O 0.6551(4) -0.1903(2) 1.07255(11)
C5 C 0.3098(8) -0.0286(4) 0.94775(18)
H13 H 0.2177 0.0141 0.9378
O6 O 0.5077(5) -0.0374(2) 1.08950(9)
C6 C 0.3356(7) -0.0478(4) 0.99399(17)
H16 H 0.2601 -0.0181 1.0162
O7 O 0.3944(6) -0.0634(2) 0.86899(11)
C7 C 0.4130(7) 0.0252(3) 0.84831(16)
C8 C 0.4841(8) 0.1082(3) 0.86998(14)
H17 H 0.5193 0.1059 0.9014
C9 C 0.5018(7) 0.1923(3) 0.84514(13)
H18 H 0.5474 0.2486 0.8599
C10 C 0.4546(5) 0.1970(3) 0.79917(14)
C11 C 0.3823(6) 0.1130(4) 0.77794(15)
H19 H 0.3480 0.1144 0.7465
C12 C 0.3624(7) 0.0304(4) 0.80305(15)
H20 H 0.3121 -0.0253 0.7888
N1 N 0.8335(5) 0.2633(3) 0.67026(14)
H1 H 0.7298 0.2662 0.6845
H2 H 0.8377 0.2478 0.6409
N2 N 0.9792(5) 0.3058(3) 0.73672(12)
H3 H 0.8757 0.3087 0.7511
H4 H 1.0790 0.3184 0.7516
N3 N 1.1416(5) 0.2741(3) 0.67093(14)
H6 H 1.2427 0.2842 0.6858
H7 H 1.1435 0.2585 0.6416
C13 C 0.9846(7) 0.2826(3) 0.69307(14)
N4 N 0.1433(5) -0.0102(3) 1.14921(15)
H9 H 0.1422 0.0308 1.1724
H10 H 0.2456 -0.0334 1.1390
N5 N -0.0090(6) -0.0981(3) 1.09442(12)
H11 H 0.0924 -0.1214 1.0836
H12 H -0.1113 -0.1153 1.0818
N6 N -0.1621(5) -0.0024(3) 1.14500(14)
H14 H -0.1642 0.0386 1.1682
H15 H -0.2629 -0.0205 1.1319
C14 C -0.0076(7) -0.0368(3) 1.12989(14)
N7 N 1.0172(7) 0.0263(3) 0.70740(15)
C15 C 0.9526(7) 0.0397(4) 0.74179(19)
C16 C 0.8680(9) 0.0541(5) 0.7867(2)
H21 H 0.7708 0.0071 0.7906
H22 H 0.8194 0.1200 0.7885
H23 H 0.9572 0.0448 0.8110
N8 N 0.9801(12) 0.1351(5) 0.9047(2)
C17 C 0.9890(10) 0.2143(5) 0.8912(2)
C18 C 0.9843(12) 0.3102(5) 0.8723(3)
H24 H 1.0555 0.3121 0.8440
H25 H 1.0340 0.3561 0.8946
H26 H 0.8601 0.3280 0.8653
N9 N 1.0683(15) 0.1752(8) 1.0520(3)
C19 C 0.9444(15) 0.1485(6) 1.0332(3)
C20 C 0.7858(14) 0.1108(8) 1.0108(3)
H27 H 0.8200 0.0588 0.9895
H28 H 0.7267 0.1629 0.9936
H29 H 0.7033 0.0850 1.0340
loop_
_geom_bond_atom_site_label_1
_geom_bond_atom_site_label_2
_geom_bond_site_symmetry_1
_geom_bond_site_symmetry_2
S1 O1 1_555 1_555
N1 H1 1_555 1_555
H2 N1 1_555 1_555
C1 S2 1_555 1_555
S2 O4 1_555 1_555
O2 S1 1_555 1_555
N2 H3 1_555 1_555
H4 N2 1_555 1_555
C2 C1 1_555 1_555
H5 C2 1_555 1_555
O3 S1 1_555 1_555
N3 H6 1_555 1_555
H7 N3 1_555 1_555
C3 C2 1_555 1_555
H8 C3 1_555 1_555
N4 H9 1_555 1_555
H10 N4 1_555 1_555
C4 C3 1_555 1_555
O5 S2 1_555 1_555
N5 H11 1_555 1_555
H12 N5 1_555 1_555
C5 C4 1_555 1_555
H13 C5 1_555 1_555
O6 S2 1_555 1_555
N6 H14 1_555 1_555
H15 N6 1_555 1_555
C6 C1 1_555 1_555
H16 C6 1_555 1_555
O7 C4 1_555 1_555
C7 O7 1_555 1_555
C8 C7 1_555 1_555
H17 C8 1_555 1_555
C9 C8 1_555 1_555
H18 C9 1_555 1_555
C10 S1 1_555 1_555
C11 C10 1_555 1_555
H19 C11 1_555 1_555
C12 C7 1_555 1_555
H20 C12 1_555 1_555
C13 N1 1_555 1_555
C14 N4 1_555 1_555
N7 C15 1_555 1_555
C15 C16 1_555 1_555
N8 C17 1_555 1_555
C16 H21 1_555 1_555
H22 C16 1_555 1_555
H23 C16 1_555 1_555
N9 C19 1_555 1_555
C17 C18 1_555 1_555
C18 H24 1_555 1_555
H25 C18 1_555 1_555
H26 C18 1_555 1_555
C19 C20 1_555 1_555
C20 H27 1_555 1_555
H28 C20 1_555 1_555
H29 C20 1_555 1_555
N2 C13 1_555 1_555
N3 C13 1_555 1_555
N5 C14 1_555 1_555
C5 C6 1_555 1_555
N6 C14 1_555 1_555
C9 C10 1_555 1_555
C11 C12 1_555 1_555

#END
