
#######################################################################
#
#                 Cambridge Crystallographic Data Centre
#                                CCDC 
#
#######################################################################
#
# If this CIF has been generated from an entry in the Cambridge 
# Structural Database, then it will include bibliographic, chemical, 
# crystal, experimental, refinement or atomic coordinate data resulting 
# from the CCDC's data processing and validation procedures.
#
#######################################################################

data_QOXGUF
_chemical_name_common            
'N-confused 6,11,16,21-tetraphenyl-25,29-dithiasapphyrin'
_chemical_formula_moiety         'C48 H31 N3 S2'
_chemical_name_systematic        
6,11,16,21-Tetraphenyl-25,29-dithia-13,26,28-triazahexacyclo(20.2.1.1^2,5^.1^7,10^.1^12,15^.1^17,20^)nonacosa-1,3,5,7(28),8,12(27),14,18,20(26),21,23-undecaene
_symmetry_cell_setting           triclinic
_symmetry_space_group_name_H-M   'P -1'
_symmetry_Int_Tables_number      2
_space_group_name_Hall           '-P 1'
loop_
_symmetry_equiv_pos_site_id
_symmetry_equiv_pos_as_xyz
1 x,y,z
2 -x,-y,-z
_cell_length_a                   16.9197(7)
_cell_length_b                   19.477(1)
_cell_length_c                   12.7815(5)
_cell_angle_alpha                96.889(2)
_cell_angle_beta                 101.353(5)
_cell_angle_gamma                75.100(9)
_cell_volume                     3980.11
_exptl_crystal_colour            violet
_exptl_crystal_description       prism
_cell_formula_units_Z            4
loop_
_atom_site_label
_atom_site_type_symbol
_atom_site_fract_x
_atom_site_fract_y
_atom_site_fract_z
S1 S 0.1242(4) 0.2761(4) 0.6510(5)
S2 S 0.1245(4) 0.1605(3) 0.4669(5)
N1 N -0.001(1) 0.308(1) 0.362(2)
N2 N 0.020(1) 0.407(1) 0.659(2)
N3 N 0.019(1) 0.174(1) 0.273(1)
C1 C -0.086(1) 0.315(1) 0.311(2)
C2 C -0.135(1) 0.374(1) 0.360(2)
C3 C 0.001(1) 0.358(1) 0.441(2)
C4 C -0.080(1) 0.401(1) 0.445(2)
C5 C -0.101(1) 0.457(1) 0.527(2)
C6 C -0.051(2) 0.459(1) 0.628(2)
C7 C -0.064(2) 0.512(1) 0.718(2)
C8 C 0.000(2) 0.491(1) 0.798(2)
C9 C 0.053(2) 0.425(1) 0.758(2)
C10 C 0.128(2) 0.382(1) 0.814(2)
C11 C 0.168(1) 0.316(1) 0.771(2)
C12 C 0.247(2) 0.271(1) 0.808(2)
C13 C 0.271(2) 0.210(1) 0.744(2)
C14 C 0.211(1) 0.203(1) 0.653(2)
C15 C 0.211(1) 0.151(1) 0.569(2)
C16 C 0.273(1) 0.092(1) 0.543(2)
C17 C 0.252(2) 0.057(1) 0.446(2)
C18 C 0.172(1) 0.086(1) 0.390(2)
C19 C 0.133(1) 0.065(1) 0.290(2)
C20 C 0.057(2) 0.107(1) 0.235(2)
C21 C 0.002(2) 0.088(1) 0.140(2)
C22 C -0.065(2) 0.143(1) 0.123(2)
C23 C -0.056(1) 0.198(1) 0.208(2)
C24 C -0.110(1) 0.264(1) 0.229(2)
C25 C -0.183(2) 0.511(1) 0.503(2)
C26 C -0.200(2) 0.547(2) 0.409(3)
C27 C -0.277(2) 0.597(2) 0.385(3)
C28 C -0.335(2) 0.610(2) 0.452(4)
C29 C -0.317(2) 0.575(2) 0.541(3)
C30 C -0.243(2) 0.526(2) 0.569(2)
C31 C 0.167(2) 0.409(1) 0.921(2)
C32 C 0.182(2) 0.477(2) 0.935(2)
C33 C 0.219(2) 0.503(2) 1.036(3)
C34 C 0.243(2) 0.461(2) 1.118(2)
C35 C 0.231(2) 0.394(2) 1.106(2)
C36 C 0.192(2) 0.368(2) 1.008(2)
C37 C 0.170(1) -0.006(1) 0.240(2)
C38 C 0.187(2) -0.067(1) 0.294(2)
C39 C 0.222(2) -0.133(1) 0.249(2)
C40 C 0.242(2) -0.139(2) 0.150(3)
C41 C 0.229(2) -0.081(2) 0.093(2)
C42 C 0.192(2) -0.014(1) 0.139(2)
C43 C -0.197(1) 0.282(1) 0.169(2)
C44 C -0.247(2) 0.234(1) 0.157(2)
C45 C -0.329(2) 0.252(2) 0.103(3)
C46 C -0.360(2) 0.317(2) 0.062(3)
C47 C -0.311(2) 0.365(2) 0.072(2)
C48 C -0.231(2) 0.348(1) 0.125(2)
H1 H 0.0451 0.2738 0.3418
H2 H -0.1929 0.3931 0.3411
H3 H 0.0499 0.3648 0.4884
H4 H -0.1082 0.5536 0.7203
H5 H 0.0090 0.5142 0.8673
H6 H 0.2818 0.2832 0.8723
H7 H 0.3228 0.1765 0.7601
H8 H 0.3252 0.0781 0.5880
H9 H 0.2889 0.0159 0.4189
H10 H 0.0112 0.0443 0.0969
H11 H -0.1112 0.1453 0.0661
H12 H -0.1610 0.5372 0.3613
H13 H -0.2885 0.6217 0.3224
H14 H -0.3863 0.6429 0.4348
H15 H -0.3573 0.5852 0.5875
H16 H -0.2329 0.5019 0.6324
H17 H 0.1662 0.5069 0.8766
H18 H 0.2275 0.5495 1.0454
H19 H 0.2693 0.4781 1.1852
H20 H 0.2492 0.3645 1.1644
H21 H 0.1820 0.3219 1.0017
H22 H 0.1733 -0.0626 0.3637
H23 H 0.2321 -0.1747 0.2870
H24 H 0.2669 -0.1843 0.1202
H25 H 0.2437 -0.0854 0.0240
H26 H 0.1819 0.0273 0.1000
H27 H -0.2254 0.1891 0.1860
H28 H -0.3623 0.2182 0.0939
H29 H -0.4163 0.3300 0.0271
H30 H -0.3331 0.4092 0.0410
H31 H -0.1972 0.3811 0.1316
S3 S 0.1120(4) 0.1956(3) 0.0141(5)
S4 S 0.2625(4) 0.1614(3) 0.1906(5)
N4 N 0.325(1) 0.064(1) -0.026(2)
N5 N 0.095(1) 0.128(1) -0.185(1)
N6 N 0.397(1) 0.051(1) 0.190(1)
C49 C 0.361(1) -0.011(1) -0.029(2)
C50 C 0.314(1) -0.039(1) -0.119(2)
C51 C 0.260(1) 0.080(1) -0.105(2)
C52 C 0.251(1) 0.017(1) -0.164(2)
C53 C 0.182(1) 0.015(1) -0.249(2)
C54 C 0.109(1) 0.071(1) -0.261(2)
C55 C 0.037(1) 0.081(1) -0.345(2)
C56 C -0.019(1) 0.142(1) -0.318(2)
C57 C 0.020(1) 0.171(1) -0.217(2)
C58 C -0.016(1) 0.232(1) -0.155(2)
C59 C 0.021(1) 0.250(1) -0.052(2)
C60 C -0.003(1) 0.311(1) 0.019(2)
C61 C 0.047(1) 0.313(1) 0.116(2)
C62 C 0.115(1) 0.254(1) 0.129(2)
C63 C 0.184(1) 0.238(1) 0.211(2)
C64 C 0.207(1) 0.273(1) 0.311(2)
C65 C 0.283(1) 0.241(1) 0.366(2)
C66 C 0.327(1) 0.178(1) 0.313(2)
C67 C 0.405(1) 0.135(1) 0.345(2)
C68 C 0.440(1) 0.072(1) 0.285(2)
C69 C 0.522(1) 0.026(1) 0.305(2)
C70 C 0.527(1) -0.026(1) 0.223(2)
C71 C 0.448(1) -0.009(1) 0.150(2)
C72 C 0.426(1) -0.043(1) 0.050(2)
C73 C 0.186(1) -0.051(1) -0.323(2)
C74 C 0.260(1) -0.080(1) -0.363(2)
C75 C 0.270(2) -0.142(2) -0.428(2)
C76 C 0.205(2) -0.176(1) -0.454(2)
C77 C 0.130(2) -0.147(2) -0.418(2)
C78 C 0.122(1) -0.085(1) -0.351(2)
C79 C -0.100(1) 0.277(1) -0.203(2)
C80 C -0.111(2) 0.304(1) -0.302(2)
C81 C -0.190(2) 0.342(1) -0.348(2)
C82 C -0.257(2) 0.354(1) -0.293(3)
C83 C -0.246(2) 0.329(1) -0.196(2)
C84 C -0.168(2) 0.291(1) -0.149(2)
C85 C 0.459(1) 0.159(1) 0.444(2)
C86 C 0.480(2) 0.224(1) 0.452(2)
C87 C 0.532(2) 0.244(2) 0.542(3)
C88 C 0.564(2) 0.200(2) 0.622(2)
C89 C 0.547(2) 0.134(2) 0.615(2)
C90 C 0.494(2) 0.113(2) 0.526(2)
C91 C 0.474(1) -0.118(1) 0.024(2)
C92 C 0.493(1) -0.168(1) 0.098(2)
C93 C 0.538(2) -0.237(1) 0.075(2)
C94 C 0.562(2) -0.256(1) -0.024(3)
C95 C 0.543(2) -0.207(2) -0.098(2)
C96 C 0.498(1) -0.138(1) -0.076(2)
H32 H 0.3450 0.0977 0.0256
H33 H 0.3237 -0.0875 -0.1454
H34 H 0.2270 0.1269 -0.1180
H35 H 0.0300 0.0512 -0.4089
H36 H -0.0721 0.1605 -0.3573
H37 H -0.0508 0.3481 -0.0007
H38 H 0.0369 0.3508 0.1697
H39 H 0.1720 0.3148 0.3383
H40 H 0.3050 0.2590 0.4349
H41 H 0.5651 0.0306 0.3635
H42 H 0.5730 -0.0649 0.2147
H43 H 0.3039 -0.0565 -0.3455
H44 H 0.3211 -0.1617 -0.4534
H45 H 0.2124 -0.2195 -0.4979
H46 H 0.0852 -0.1703 -0.4380
H47 H 0.0713 -0.0653 -0.3236
H48 H -0.0645 0.2973 -0.3380
H49 H -0.1976 0.3599 -0.4168
H50 H -0.3103 0.3801 -0.3250
H51 H -0.2913 0.3371 -0.1588
H52 H -0.1608 0.2748 -0.0800
H53 H 0.4580 0.2556 0.3962
H54 H 0.5459 0.2889 0.5478
H55 H 0.5986 0.2145 0.6845
H56 H 0.5710 0.1029 0.6711
H57 H 0.4810 0.0676 0.5215
H58 H 0.4762 -0.1559 0.1659
H59 H 0.5513 -0.2715 0.1269
H60 H 0.5914 -0.3030 -0.0401
H61 H 0.5608 -0.2195 -0.1658
H62 H 0.4835 -0.1042 -0.1286
loop_
_geom_bond_atom_site_label_1
_geom_bond_atom_site_label_2
_geom_bond_site_symmetry_1
_geom_bond_site_symmetry_2
S1 C11 1_555 1_555
S2 C15 1_555 1_555
S3 C59 1_555 1_555
S4 C63 1_555 1_555
N1 C1 1_555 1_555
N2 C6 1_555 1_555
N3 C20 1_555 1_555
N4 C49 1_555 1_555
N5 C54 1_555 1_555
N6 C68 1_555 1_555
C1 C2 1_555 1_555
C2 C4 1_555 1_555
C3 N1 1_555 1_555
C4 C3 1_555 1_555
C5 C4 1_555 1_555
C6 C5 1_555 1_555
C7 C6 1_555 1_555
C8 C7 1_555 1_555
C9 N2 1_555 1_555
C10 C9 1_555 1_555
C11 C10 1_555 1_555
C12 C11 1_555 1_555
C13 C12 1_555 1_555
C14 S1 1_555 1_555
C15 C14 1_555 1_555
C16 C15 1_555 1_555
C17 C16 1_555 1_555
C18 S2 1_555 1_555
C19 C18 1_555 1_555
C20 C19 1_555 1_555
C21 C20 1_555 1_555
C22 C21 1_555 1_555
C23 N3 1_555 1_555
C24 C1 1_555 1_555
C25 C5 1_555 1_555
C26 C25 1_555 1_555
C27 C26 1_555 1_555
C28 C27 1_555 1_555
C29 C28 1_555 1_555
C30 C25 1_555 1_555
C31 C10 1_555 1_555
C32 C31 1_555 1_555
C33 C32 1_555 1_555
C34 C33 1_555 1_555
C35 C34 1_555 1_555
C36 C31 1_555 1_555
C37 C19 1_555 1_555
C38 C37 1_555 1_555
C39 C38 1_555 1_555
C40 C39 1_555 1_555
C41 C40 1_555 1_555
C42 C37 1_555 1_555
C43 C24 1_555 1_555
C44 C43 1_555 1_555
C45 C44 1_555 1_555
C46 C45 1_555 1_555
C47 C46 1_555 1_555
C48 C43 1_555 1_555
C49 C50 1_555 1_555
C50 C52 1_555 1_555
C51 N4 1_555 1_555
C52 C51 1_555 1_555
C53 C52 1_555 1_555
C54 C53 1_555 1_555
C55 C54 1_555 1_555
C56 C55 1_555 1_555
C57 N5 1_555 1_555
C58 C57 1_555 1_555
C59 C58 1_555 1_555
C60 C59 1_555 1_555
C61 C60 1_555 1_555
C62 S3 1_555 1_555
C63 C62 1_555 1_555
C64 C63 1_555 1_555
C65 C64 1_555 1_555
C66 S4 1_555 1_555
C67 C66 1_555 1_555
C68 C67 1_555 1_555
C69 C68 1_555 1_555
C70 C69 1_555 1_555
C71 N6 1_555 1_555
C72 C49 1_555 1_555
C73 C53 1_555 1_555
C74 C73 1_555 1_555
C75 C74 1_555 1_555
C76 C75 1_555 1_555
C77 C76 1_555 1_555
C78 C73 1_555 1_555
C79 C58 1_555 1_555
C80 C79 1_555 1_555
C81 C80 1_555 1_555
C82 C81 1_555 1_555
C83 C82 1_555 1_555
C84 C79 1_555 1_555
C85 C67 1_555 1_555
C86 C85 1_555 1_555
C87 C86 1_555 1_555
C88 C87 1_555 1_555
C89 C88 1_555 1_555
C90 C85 1_555 1_555
C91 C72 1_555 1_555
C92 C91 1_555 1_555
C93 C92 1_555 1_555
C94 C93 1_555 1_555
C95 C94 1_555 1_555
C96 C91 1_555 1_555
H1 N1 1_555 1_555
H2 C2 1_555 1_555
H3 C3 1_555 1_555
H4 C7 1_555 1_555
H5 C8 1_555 1_555
H6 C12 1_555 1_555
H7 C13 1_555 1_555
H8 C16 1_555 1_555
H9 C17 1_555 1_555
H10 C21 1_555 1_555
H11 C22 1_555 1_555
H12 C26 1_555 1_555
H13 C27 1_555 1_555
H14 C28 1_555 1_555
H15 C29 1_555 1_555
H16 C30 1_555 1_555
H17 C32 1_555 1_555
H18 C33 1_555 1_555
H19 C34 1_555 1_555
H20 C35 1_555 1_555
H21 C36 1_555 1_555
H22 C38 1_555 1_555
H23 C39 1_555 1_555
H24 C40 1_555 1_555
H25 C41 1_555 1_555
H26 C42 1_555 1_555
H27 C44 1_555 1_555
H28 C45 1_555 1_555
H29 C46 1_555 1_555
H30 C47 1_555 1_555
H31 C48 1_555 1_555
H32 N4 1_555 1_555
H33 C50 1_555 1_555
H34 C51 1_555 1_555
H35 C55 1_555 1_555
H36 C56 1_555 1_555
H37 C60 1_555 1_555
H38 C61 1_555 1_555
H39 C64 1_555 1_555
H40 C65 1_555 1_555
H41 C69 1_555 1_555
H42 C70 1_555 1_555
H43 C74 1_555 1_555
H44 C75 1_555 1_555
H45 C76 1_555 1_555
H46 C77 1_555 1_555
H47 C78 1_555 1_555
H48 C80 1_555 1_555
H49 C81 1_555 1_555
H50 C82 1_555 1_555
H51 C83 1_555 1_555
H52 C84 1_555 1_555
H53 C86 1_555 1_555
H54 C87 1_555 1_555
H55 C88 1_555 1_555
H56 C89 1_555 1_555
H57 C90 1_555 1_555
H58 C92 1_555 1_555
H59 C93 1_555 1_555
H60 C94 1_555 1_555
H61 C95 1_555 1_555
H62 C96 1_555 1_555
C8 C9 1_555 1_555
C13 C14 1_555 1_555
C17 C18 1_555 1_555
C22 C23 1_555 1_555
C23 C24 1_555 1_555
C29 C30 1_555 1_555
C35 C36 1_555 1_555
C41 C42 1_555 1_555
C47 C48 1_555 1_555
C56 C57 1_555 1_555
C61 C62 1_555 1_555
C65 C66 1_555 1_555
C70 C71 1_555 1_555
C71 C72 1_555 1_555
C77 C78 1_555 1_555
C83 C84 1_555 1_555
C89 C90 1_555 1_555
C95 C96 1_555 1_555

#END
