
#######################################################################
#
#                 Cambridge Crystallographic Data Centre
#                                CCDC 
#
#######################################################################
#
# If this CIF has been generated from an entry in the Cambridge 
# Structural Database, then it will include bibliographic, chemical, 
# crystal, experimental, refinement or atomic coordinate data resulting 
# from the CCDC's data processing and validation procedures.
#
#######################################################################

data_QOXJAP
_chemical_formula_moiety         'C26 H24 O5'
_chemical_name_systematic        
'Dimethyl 3-methyl-7-methylene-1,4-diphenyl-6,7-dihydro-2-benzofuran-5,5(4H)-dicarboxylate'
_symmetry_cell_setting           triclinic
_symmetry_space_group_name_H-M   'P -1'
_symmetry_Int_Tables_number      2
_space_group_name_Hall           '-P 1'
loop_
_symmetry_equiv_pos_site_id
_symmetry_equiv_pos_as_xyz
1 x,y,z
2 -x,-y,-z
_cell_length_a                   9.4172(3)
_cell_length_b                   9.4598(3)
_cell_length_c                   12.5532(4)
_cell_angle_alpha                93.5100(10)
_cell_angle_beta                 107.1180(10)
_cell_angle_gamma                95.7700(10)
_cell_volume                     1058.48
_exptl_crystal_colour            colorless
_exptl_crystal_description       block
_cell_formula_units_Z            2
loop_
_atom_site_label
_atom_site_type_symbol
_atom_site_fract_x
_atom_site_fract_y
_atom_site_fract_z
O1 O 0.36345(13) 0.68962(12) 0.57172(10)
O2 O 0.13438(13) 0.69399(12) 0.59084(10)
O3 O 0.21663(13) 0.38185(12) 0.48883(10)
O4 O 0.43129(14) 0.33789(14) 0.61183(11)
O5 O 0.02784(12) 0.63917(12) 0.91554(9)
C1 C 0.22983(19) 0.79473(17) 1.04413(13)
C2 C 0.37640(19) 0.80344(18) 1.11458(14)
H1 H 0.4446 0.7477 1.0944
C3 C 0.4239(2) 0.89179(19) 1.21319(14)
H2 H 0.5242 0.8968 1.2603
C4 C 0.3251(2) 0.9734(2) 1.24350(15)
H3 H 0.3574 1.0342 1.3114
C5 C 0.1795(2) 0.9658(2) 1.17473(16)
H4 H 0.1119 1.0218 1.1955
C6 C 0.1313(2) 0.87724(19) 1.07578(15)
H5 H 0.0308 0.8725 1.0292
C7 C 0.14974(17) 0.28727(17) 0.72488(14)
C8 C 0.21242(18) 0.25169(18) 0.83324(14)
H6 H 0.2485 0.3249 0.8934
C9 C 0.22271(19) 0.10966(18) 0.85435(14)
H7 H 0.2658 0.0866 0.9287
C10 C 0.17041(19) 0.00210(18) 0.76758(15)
H8 H 0.1793 -0.0946 0.7818
C11 C 0.10510(19) 0.03611(18) 0.66003(15)
H9 H 0.0679 -0.0376 0.6003
C12 C 0.09358(18) 0.17754(18) 0.63885(14)
H10 H 0.0468 0.1997 0.5648
C13 C -0.00260(18) 0.54237(17) 0.82317(14)
C14 C 0.12191(18) 0.53652(16) 0.79159(13)
C15 C 0.23881(18) 0.63503(16) 0.86807(13)
C16 C 0.17672(18) 0.69470(17) 0.94313(14)
C17 C 0.38654(18) 0.66252(18) 0.84979(13)
C18 C 0.41638(18) 0.54641(18) 0.77450(14)
H11 H 0.4360 0.4608 0.8155
H12 H 0.5068 0.5790 0.7535
C19 C 0.28240(18) 0.50661(17) 0.66748(13)
C20 C 0.14025(18) 0.44200(17) 0.69714(13)
H13 H 0.0509 0.4432 0.6303
C21 C 0.4811(2) 0.7818(2) 0.88480(15)
C22 C 0.32261(19) 0.39959(17) 0.58838(14)
C23 C 0.2338(2) 0.2727(2) 0.40967(16)
H14 H 0.1514 0.2679 0.3398
H15 H 0.2321 0.1803 0.4409
H16 H 0.3294 0.2959 0.3946
C24 C 0.24769(18) 0.64025(17) 0.60631(13)
C25 C 0.3423(2) 0.81299(19) 0.50864(16)
H17 H 0.4324 0.8409 0.4872
H18 H 0.3240 0.8922 0.5549
H19 H 0.2563 0.7894 0.4412
C26 C -0.15648(19) 0.4656(2) 0.78047(16)
H20 H -0.1644 0.4000 0.7149
H21 H -0.2284 0.5346 0.7593
H22 H -0.1783 0.4113 0.8390
H23 H 0.576(2) 0.793(2) 0.8637(16)
H24 H 0.461(2) 0.862(2) 0.9322(17)
loop_
_geom_bond_atom_site_label_1
_geom_bond_atom_site_label_2
_geom_bond_site_symmetry_1
_geom_bond_site_symmetry_2
O1 C24 1_555 1_555
O2 C24 1_555 1_555
O3 C22 1_555 1_555
O4 C22 1_555 1_555
O5 C13 1_555 1_555
C1 C2 1_555 1_555
C2 H1 1_555 1_555
C3 C2 1_555 1_555
H2 C3 1_555 1_555
C4 C3 1_555 1_555
H3 C4 1_555 1_555
C5 C4 1_555 1_555
H4 C5 1_555 1_555
C6 C1 1_555 1_555
H5 C6 1_555 1_555
C7 C8 1_555 1_555
C8 H6 1_555 1_555
C9 C8 1_555 1_555
H7 C9 1_555 1_555
C10 C9 1_555 1_555
H8 C10 1_555 1_555
C11 C10 1_555 1_555
H9 C11 1_555 1_555
C12 C7 1_555 1_555
H10 C12 1_555 1_555
C13 C14 1_555 1_555
C14 C15 1_555 1_555
C15 C16 1_555 1_555
C16 O5 1_555 1_555
C17 C15 1_555 1_555
C18 C17 1_555 1_555
H11 C18 1_555 1_555
H12 C18 1_555 1_555
C19 C18 1_555 1_555
C20 C7 1_555 1_555
H13 C20 1_555 1_555
C21 C17 1_555 1_555
C22 C19 1_555 1_555
C23 O3 1_555 1_555
H14 C23 1_555 1_555
H15 C23 1_555 1_555
H16 C23 1_555 1_555
C24 C19 1_555 1_555
C25 O1 1_555 1_555
H17 C25 1_555 1_555
H18 C25 1_555 1_555
H19 C25 1_555 1_555
C26 C13 1_555 1_555
H20 C26 1_555 1_555
H21 C26 1_555 1_555
H22 C26 1_555 1_555
H23 C21 1_555 1_555
H24 C21 1_555 1_555
C1 C16 1_555 1_555
C5 C6 1_555 1_555
C11 C12 1_555 1_555
C14 C20 1_555 1_555
C19 C20 1_555 1_555

#END
