
#######################################################################
#
#                 Cambridge Crystallographic Data Centre
#                                CCDC 
#
#######################################################################
#
# If this CIF has been generated from an entry in the Cambridge 
# Structural Database, then it will include bibliographic, chemical, 
# crystal, experimental, refinement or atomic coordinate data resulting 
# from the CCDC's data processing and validation procedures.
#
#######################################################################

data_QOXWUX
_chemical_formula_moiety         'C58 H46 P6'
_chemical_name_systematic        
2,2,4,4,9,9,11,11-octaphenyl-2,3,4,9,10,11-hexaphosphatricyclo[10.2.1.1^5,8^]hexadeca-5(16),6,12(15),13-tetraene-2,4,9,11-tetraium-1,3,8,10-tetraide
_symmetry_cell_setting           triclinic
_symmetry_space_group_name_H-M   'P -1'
_symmetry_Int_Tables_number      2
_space_group_name_Hall           '-P 1'
loop_
_symmetry_equiv_pos_site_id
_symmetry_equiv_pos_as_xyz
1 x,y,z
2 -x,-y,-z
_cell_length_a                   8.8331(7)
_cell_length_b                   11.4721(10)
_cell_length_c                   12.3802(10)
_cell_angle_alpha                74.9880(10)
_cell_angle_beta                 72.7380(10)
_cell_angle_gamma                80.5270(10)
_cell_volume                     1151.9
_exptl_crystal_colour            colorless
_exptl_crystal_description       block
_cell_formula_units_Z            1
loop_
_atom_site_label
_atom_site_type_symbol
_atom_site_fract_x
_atom_site_fract_y
_atom_site_fract_z
P1 P 0.09028(9) 0.61931(7) 0.70002(6)
P2 P -0.03555(9) 0.35080(7) 0.74591(6)
P3 P -0.03696(11) 0.48397(8) 0.83794(7)
C1 C 0.1319(3) 0.6087(3) 0.5558(2)
C2 C 0.0291(3) 0.6448(3) 0.4829(2)
H1 H -0.0757 0.6839 0.5019
C3 C 0.1092(4) 0.6125(3) 0.3772(3)
C4 C 0.2610(4) 0.5508(3) 0.3864(3)
H2 H 0.3383 0.5172 0.3281
C5 C 0.2751(4) 0.5489(3) 0.4949(3)
H3 H 0.3643 0.5139 0.5242
C6 C -0.0276(3) 0.7616(3) 0.7216(3)
C7 C -0.0844(4) 0.7799(3) 0.8342(3)
H4 H -0.0616 0.7187 0.8971
C8 C -0.1733(4) 0.8857(4) 0.8549(3)
H5 H -0.2091 0.8980 0.9318
C9 C -0.2109(4) 0.9742(3) 0.7653(4)
H6 H -0.2752 1.0462 0.7806
C10 C -0.1549(4) 0.9579(3) 0.6535(4)
H7 H -0.1802 1.0191 0.5915
C11 C -0.0613(4) 0.8523(3) 0.6307(3)
H8 H -0.0208 0.8423 0.5531
C12 C 0.2769(4) 0.6381(3) 0.7264(3)
C13 C 0.3811(4) 0.7146(3) 0.6414(3)
H9 H 0.3594 0.7491 0.5684
C14 C 0.5158(4) 0.7408(3) 0.6621(3)
H10 H 0.5865 0.7931 0.6038
C15 C 0.5465(4) 0.6898(3) 0.7689(3)
H11 H 0.6387 0.7073 0.7841
C16 C 0.4429(4) 0.6136(3) 0.8534(3)
H12 H 0.4648 0.5789 0.9263
C17 C 0.3082(4) 0.5873(3) 0.8329(3)
H13 H 0.2376 0.5350 0.8913
C18 C 0.1480(4) 0.2534(3) 0.7098(3)
C19 C 0.2948(4) 0.2841(3) 0.7089(3)
H14 H 0.3012 0.3572 0.7292
C20 C 0.4325(4) 0.2069(3) 0.6782(3)
H15 H 0.5329 0.2283 0.6761
C21 C 0.4226(4) 0.0989(3) 0.6506(3)
H16 H 0.5165 0.0468 0.6293
C22 C 0.2775(4) 0.0673(3) 0.6540(3)
H17 H 0.2713 -0.0074 0.6366
C23 C 0.1407(4) 0.1434(3) 0.6826(3)
H18 H 0.0411 0.1212 0.6838
C24 C -0.1653(4) 0.2521(3) 0.8648(3)
C25 C -0.3263(4) 0.2554(3) 0.8730(3)
H19 H -0.3699 0.3082 0.8144
C26 C -0.4232(5) 0.1825(4) 0.9658(3)
H20 H -0.5330 0.1852 0.9706
C27 C -0.3615(5) 0.1057(3) 1.0518(3)
H21 H -0.4283 0.0548 1.1149
C28 C -0.2023(5) 0.1030(3) 1.0460(3)
H22 H -0.1600 0.0518 1.1060
C29 C -0.1038(4) 0.1756(3) 0.9518(3)
H23 H 0.0061 0.1727 0.9471
P1A P -0.09028(9) 0.38069(7) 0.29998(6)
P2A P 0.03555(9) 0.64920(7) 0.25409(6)
P3A P 0.03696(11) 0.51603(8) 0.16206(7)
C1A C -0.1319(3) 0.3913(3) 0.4442(2)
C2A C -0.0291(3) 0.3552(3) 0.5171(2)
H1A H 0.0757 0.3161 0.4981
C3A C -0.1092(4) 0.3875(3) 0.6228(3)
C4A C -0.2610(4) 0.4492(3) 0.6136(3)
H2A H -0.3383 0.4828 0.6719
C5A C -0.2751(4) 0.4511(3) 0.5051(3)
H3A H -0.3643 0.4861 0.4758
C6A C 0.0276(3) 0.2384(3) 0.2784(3)
C7A C 0.0844(4) 0.2201(3) 0.1658(3)
H4A H 0.0616 0.2813 0.1029
C8A C 0.1733(4) 0.1143(4) 0.1451(3)
H5A H 0.2091 0.1020 0.0682
C9A C 0.2109(4) 0.0258(3) 0.2347(4)
H6A H 0.2752 -0.0462 0.2194
C10A C 0.1549(4) 0.0421(3) 0.3465(4)
H7A H 0.1802 -0.0191 0.4085
C11A C 0.0613(4) 0.1477(3) 0.3693(3)
H8A H 0.0208 0.1577 0.4469
C12A C -0.2769(4) 0.3619(3) 0.2736(3)
C13A C -0.3811(4) 0.2854(3) 0.3586(3)
H9A H -0.3594 0.2509 0.4316
C14A C -0.5158(4) 0.2592(3) 0.3379(3)
H10A H -0.5865 0.2069 0.3962
C15A C -0.5465(4) 0.3102(3) 0.2311(3)
H11A H -0.6387 0.2927 0.2159
C16A C -0.4429(4) 0.3864(3) 0.1466(3)
H12A H -0.4648 0.4211 0.0737
C17A C -0.3082(4) 0.4127(3) 0.1671(3)
H13A H -0.2376 0.4650 0.1087
C18A C -0.1480(4) 0.7466(3) 0.2902(3)
C19A C -0.2948(4) 0.7159(3) 0.2911(3)
H14A H -0.3012 0.6428 0.2708
C20A C -0.4325(4) 0.7931(3) 0.3218(3)
H15A H -0.5329 0.7717 0.3239
C21A C -0.4226(4) 0.9011(3) 0.3494(3)
H16A H -0.5165 0.9532 0.3707
C22A C -0.2775(4) 0.9327(3) 0.3460(3)
H17A H -0.2713 1.0074 0.3634
C23A C -0.1407(4) 0.8566(3) 0.3174(3)
H18A H -0.0411 0.8788 0.3162
C24A C 0.1653(4) 0.7479(3) 0.1352(3)
C25A C 0.3263(4) 0.7446(3) 0.1270(3)
H19A H 0.3699 0.6918 0.1856
C26A C 0.4232(5) 0.8175(4) 0.0342(3)
H20A H 0.5330 0.8148 0.0294
C27A C 0.3615(5) 0.8943(3) -0.0518(3)
H21A H 0.4283 0.9452 -0.1149
C28A C 0.2023(5) 0.8970(3) -0.0460(3)
H22A H 0.1600 0.9482 -0.1060
C29A C 0.1038(4) 0.8244(3) 0.0482(3)
H23A H -0.0061 0.8273 0.0529
loop_
_geom_bond_atom_site_label_1
_geom_bond_atom_site_label_2
_geom_bond_site_symmetry_1
_geom_bond_site_symmetry_2
P1 P3 1_555 1_555
P2 P3 1_555 1_555
C1 P1 1_555 1_555
C2 C1 1_555 1_555
H1 C2 1_555 1_555
C3 C2 1_555 1_555
C4 C3 1_555 1_555
H2 C4 1_555 1_555
C5 C1 1_555 1_555
H3 C5 1_555 1_555
C6 P1 1_555 1_555
C7 C6 1_555 1_555
H4 C7 1_555 1_555
C8 C7 1_555 1_555
H5 C8 1_555 1_555
C9 C8 1_555 1_555
H6 C9 1_555 1_555
C10 C9 1_555 1_555
H7 C10 1_555 1_555
C11 C6 1_555 1_555
H8 C11 1_555 1_555
C12 P1 1_555 1_555
C13 C12 1_555 1_555
H9 C13 1_555 1_555
C14 C13 1_555 1_555
H10 C14 1_555 1_555
C15 C14 1_555 1_555
H11 C15 1_555 1_555
C16 C15 1_555 1_555
H12 C16 1_555 1_555
C17 C12 1_555 1_555
H13 C17 1_555 1_555
C18 P2 1_555 1_555
C19 C18 1_555 1_555
H14 C19 1_555 1_555
C20 C19 1_555 1_555
H15 C20 1_555 1_555
C21 C20 1_555 1_555
H16 C21 1_555 1_555
C22 C21 1_555 1_555
H17 C22 1_555 1_555
C23 C18 1_555 1_555
H18 C23 1_555 1_555
C24 P2 1_555 1_555
C25 C24 1_555 1_555
H19 C25 1_555 1_555
C26 C25 1_555 1_555
H20 C26 1_555 1_555
C27 C26 1_555 1_555
H21 C27 1_555 1_555
C28 C27 1_555 1_555
H22 C28 1_555 1_555
C29 C24 1_555 1_555
H23 C29 1_555 1_555
P1A P3A 1_555 1_555
P2A C3 1_555 1_555
P3A P2A 1_555 1_555
C1A P1A 1_555 1_555
C2A C1A 1_555 1_555
H1A C2A 1_555 1_555
C3A P2 1_555 1_555
C4A C3A 1_555 1_555
H2A C4A 1_555 1_555
C5A C1A 1_555 1_555
H3A C5A 1_555 1_555
C6A P1A 1_555 1_555
C7A C6A 1_555 1_555
H4A C7A 1_555 1_555
C8A C7A 1_555 1_555
H5A C8A 1_555 1_555
C9A C8A 1_555 1_555
H6A C9A 1_555 1_555
C10A C9A 1_555 1_555
H7A C10A 1_555 1_555
C11A C6A 1_555 1_555
H8A C11A 1_555 1_555
C12A P1A 1_555 1_555
C13A C12A 1_555 1_555
H9A C13A 1_555 1_555
C14A C13A 1_555 1_555
H10A C14A 1_555 1_555
C15A C14A 1_555 1_555
H11A C15A 1_555 1_555
C16A C15A 1_555 1_555
H12A C16A 1_555 1_555
C17A C12A 1_555 1_555
H13A C17A 1_555 1_555
C18A P2A 1_555 1_555
C19A C18A 1_555 1_555
H14A C19A 1_555 1_555
C20A C19A 1_555 1_555
H15A C20A 1_555 1_555
C21A C20A 1_555 1_555
H16A C21A 1_555 1_555
C22A C21A 1_555 1_555
H17A C22A 1_555 1_555
C23A C18A 1_555 1_555
H18A C23A 1_555 1_555
C24A P2A 1_555 1_555
C25A C24A 1_555 1_555
H19A C25A 1_555 1_555
C26A C25A 1_555 1_555
H20A C26A 1_555 1_555
C27A C26A 1_555 1_555
H21A C27A 1_555 1_555
C28A C27A 1_555 1_555
H22A C28A 1_555 1_555
C29A C24A 1_555 1_555
H23A C29A 1_555 1_555
C4 C5 1_555 1_555
C10 C11 1_555 1_555
C16 C17 1_555 1_555
C22 C23 1_555 1_555
C28 C29 1_555 1_555
C2A C3A 1_555 1_555
C4A C5A 1_555 1_555
C10A C11A 1_555 1_555
C16A C17A 1_555 1_555
C22A C23A 1_555 1_555
C28A C29A 1_555 1_555

#END
