
#######################################################################
#
#                 Cambridge Crystallographic Data Centre
#                                CCDC 
#
#######################################################################
#
# If this CIF has been generated from an entry in the Cambridge 
# Structural Database, then it will include bibliographic, chemical, 
# crystal, experimental, refinement or atomic coordinate data resulting 
# from the CCDC's data processing and validation procedures.
#
#######################################################################

data_QOYDUE
_chemical_compound_source        'seeds of Alpinia katsumadai'
_chemical_name_common            'Sumadain C'
_chemical_formula_moiety         'C25 H26 O4'
_chemical_name_systematic        
1-(1,3-Dihydroxy-8-isopropyl-5a-methyl-5a,8,9,9a-tetrahydrodibenzo[b,d]furan-4-yl)-3-phenyl-2-propen-1-one
_chemical_properties_biological  'potent cytotoxic activity'
_symmetry_cell_setting           monoclinic
_symmetry_space_group_name_H-M   'P 21'
_symmetry_Int_Tables_number      4
_space_group_name_Hall           'P 2yb'
loop_
_symmetry_equiv_pos_site_id
_symmetry_equiv_pos_as_xyz
1 x,y,z
2 -x,1/2+y,-z
_cell_length_a                   13.3330(15)
_cell_length_b                   5.5574(5)
_cell_length_c                   15.310(2)
_cell_angle_alpha                90
_cell_angle_beta                 111.036(2)
_cell_angle_gamma                90
_cell_volume                     1058.82
_exptl_crystal_colour            orange
_exptl_crystal_description       needle
_chemical_melting_point          '210-213 deg.C'
_cell_formula_units_Z            2
_exptl_crystal_recrystallization_method chloroform
loop_
_atom_site_label
_atom_site_type_symbol
_atom_site_fract_x
_atom_site_fract_y
_atom_site_fract_z
O1 O 0.6474(3) 0.5914(9) 0.4773(3)
O2 O 0.8419(2) 0.5416(7) 0.5119(2)
H1 H 0.7862 0.5911 0.5167
O3 O 0.5983(2) 0.0429(7) 0.2724(2)
O4 O 0.9630(2) -0.0329(6) 0.3457(2)
H2 H 1.0209 0.0204 0.3805
C1 C 0.7097(3) 0.3036(10) 0.3970(3)
C2 C 0.8186(4) 0.3694(10) 0.4461(3)
C3 C 0.9009(4) 0.2659(11) 0.4290(3)
H3 H 0.9708 0.3165 0.4618
C4 C 0.8823(4) 0.0828(10) 0.3623(3)
C5 C 0.7784(3) 0.0174(10) 0.3094(3)
C6 C 0.6961(3) 0.1302(10) 0.3294(3)
C7 C 0.6254(4) 0.4196(12) 0.4211(4)
C8 C 0.5130(4) 0.3506(11) 0.3767(3)
H4 H 0.4974 0.2098 0.3415
C9 C 0.4329(4) 0.4743(10) 0.3833(3)
H5 H 0.4507 0.6126 0.4198
C10 C 0.3186(4) 0.4203(11) 0.3398(3)
C11 C 0.2453(5) 0.5686(13) 0.3519(4)
H6 H 0.2688 0.7041 0.3893
C12 C 0.1350(5) 0.5274(17) 0.3105(5)
H7 H 0.0866 0.6340 0.3209
C13 C 0.0996(5) 0.3397(16) 0.2573(5)
H8 H 0.0262 0.3146 0.2274
C14 C 0.1717(5) 0.1812(14) 0.2462(5)
H9 H 0.1477 0.0408 0.2120
C15 C 0.2805(4) 0.2276(13) 0.2855(4)
H10 H 0.3286 0.1224 0.2740
C16 C 0.7335(3) -0.1772(10) 0.2382(3)
H11 H 0.7400 -0.3307 0.2712
C17 C 0.6143(4) -0.1072(9) 0.1982(3)
C18 C 0.5909(4) 0.0564(11) 0.1144(4)
H12 H 0.5211 0.1149 0.0877
C19 C 0.6601(4) 0.1239(10) 0.0756(4)
H13 H 0.6394 0.2398 0.0286
C20 C 0.7740(4) 0.0175(11) 0.1053(4)
H14 H 0.8239 0.1360 0.1455
C21 C 0.7812(4) -0.2074(10) 0.1629(4)
H15 H 0.7440 -0.3372 0.1215
H16 H 0.8560 -0.2533 0.1919
C22 C 0.5341(4) -0.3068(10) 0.1770(4)
H17 H 0.5460 -0.4007 0.2325
H18 H 0.5418 -0.4074 0.1288
H19 H 0.4628 -0.2405 0.1561
C23 C 0.8079(6) -0.0291(16) 0.0199(5)
H22 H 0.7561 -0.1372 -0.0228
C24 C 0.9146(7) -0.1279(18) 0.0471(5)
H23 H 0.9369 -0.1297 -0.0059
H24 H 0.9147 -0.2891 0.0696
H25 H 0.9634 -0.0307 0.0958
C25 C 0.8091(8) 0.192(2) -0.0350(7)
H26 H 0.8723 0.2842 -0.0024
H27 H 0.7464 0.2865 -0.0425
H28 H 0.8095 0.1467 -0.0954
H20? H 0.8779 -0.1057 0.0396
H21? H 0.8129 0.1235 -0.0090
C26? C 0.7278(12) -0.182(3) -0.0523(11)
H29? H 0.7456 -0.1877 -0.1077
H30? H 0.6572 -0.1155 -0.0673
H31? H 0.7292 -0.3425 -0.0283
loop_
_geom_bond_atom_site_label_1
_geom_bond_atom_site_label_2
_geom_bond_site_symmetry_1
_geom_bond_site_symmetry_2
O1 C7 1_555 1_555
O2 H1 1_555 1_555
O3 C6 1_555 1_555
O4 H2 1_555 1_555
C1 C2 1_555 1_555
C2 O2 1_555 1_555
C3 C2 1_555 1_555
H3 C3 1_555 1_555
C4 O4 1_555 1_555
C5 C4 1_555 1_555
C6 C1 1_555 1_555
C7 C1 1_555 1_555
C8 C7 1_555 1_555
H4 C8 1_555 1_555
C9 C8 1_555 1_555
H5 C9 1_555 1_555
C10 C9 1_555 1_555
C11 C10 1_555 1_555
H6 C11 1_555 1_555
C12 C11 1_555 1_555
H7 C12 1_555 1_555
C13 C12 1_555 1_555
H8 C13 1_555 1_555
C14 C13 1_555 1_555
H9 C14 1_555 1_555
C15 C10 1_555 1_555
H10 C15 1_555 1_555
C16 C5 1_555 1_555
H11 C16 1_555 1_555
C17 O3 1_555 1_555
C18 C17 1_555 1_555
H12 C18 1_555 1_555
C19 C18 1_555 1_555
H13 C19 1_555 1_555
C20 C19 1_555 1_555
H14 C20 1_555 1_555
C21 C16 1_555 1_555
H15 C21 1_555 1_555
H16 C21 1_555 1_555
C22 C17 1_555 1_555
H17 C22 1_555 1_555
H18 C22 1_555 1_555
H19 C22 1_555 1_555
C23 C20 1_555 1_555
H22 C23 1_555 1_555
C24 C23 1_555 1_555
H23 C24 1_555 1_555
H24 C24 1_555 1_555
H25 C24 1_555 1_555
C25 C23 1_555 1_555
H26 C25 1_555 1_555
H27 C25 1_555 1_555
H28 C25 1_555 1_555
C3 C4 1_555 1_555
C5 C6 1_555 1_555
C14 C15 1_555 1_555
C16 C17 1_555 1_555
C20 C21 1_555 1_555

#END
