
#######################################################################
#
#                 Cambridge Crystallographic Data Centre
#                                CCDC 
#
#######################################################################
#
# If this CIF has been generated from an entry in the Cambridge 
# Structural Database, then it will include bibliographic, chemical, 
# crystal, experimental, refinement or atomic coordinate data resulting 
# from the CCDC's data processing and validation procedures.
#
#######################################################################

data_QOYGOB
_chemical_formula_moiety         'C15 H13 N1 O2'
_chemical_name_systematic        
1-(3-((2-Hydroxybenzylidene)amino)phenyl)ethanone
_symmetry_cell_setting           monoclinic
_symmetry_space_group_name_H-M   'P 21/n'
_symmetry_Int_Tables_number      14
_space_group_name_Hall           '-P 2yn'
loop_
_symmetry_equiv_pos_site_id
_symmetry_equiv_pos_as_xyz
1 x,y,z
2 1/2-x,1/2+y,1/2-z
3 -x,-y,-z
4 1/2+x,1/2-y,1/2+z
_cell_length_a                   14.8717(11)
_cell_length_b                   5.4559(4)
_cell_length_c                   16.7192(12)
_cell_angle_alpha                90
_cell_angle_beta                 115.959(3)
_cell_angle_gamma                90
_cell_volume                     1219.7
_exptl_crystal_colour            colorless
_exptl_crystal_description       plate
_chemical_melting_point          '65 deg.C'
_cell_formula_units_Z            4
_exptl_crystal_recrystallization_method methanol
loop_
_atom_site_label
_atom_site_type_symbol
_atom_site_fract_x
_atom_site_fract_y
_atom_site_fract_z
C1 C 0.41266(16) 0.3060(4) 0.37903(14)
H1 H 0.3855 0.3213 0.4214
H2 H 0.4844 0.3037 0.4098
H3 H 0.3894 0.1564 0.3461
C2 C 0.37967(13) 0.5184(3) 0.31652(11)
C3 C 0.41255(11) 0.5361(3) 0.24426(10)
C4 C 0.48104(12) 0.3741(3) 0.23794(11)
H4 H 0.5081 0.2493 0.2796
C5 C 0.50886(12) 0.3986(3) 0.17000(12)
H5 H 0.5549 0.2902 0.1658
C6 C 0.46894(12) 0.5826(3) 0.10821(11)
H6 H 0.4887 0.5983 0.0628
C7 C 0.39951(11) 0.7454(3) 0.11271(9)
C8 C 0.37256(11) 0.7219(3) 0.18184(10)
H7 H 0.3272 0.8316 0.1865
C9 C 0.29648(11) 1.0821(3) 0.04201(10)
H8 H 0.2785 1.0876 0.0887
C10 C 0.25258(11) 1.2566(3) -0.02958(9)
C11 C 0.18503(12) 1.4301(3) -0.02735(11)
H9 H 0.1680 1.4298 0.0199
C12 C 0.14311(13) 1.6017(3) -0.09354(12)
H10 H 0.0983 1.7170 -0.0912
C13 C 0.16855(14) 1.6005(3) -0.16373(12)
H11 H 0.1404 1.7163 -0.2087
C14 C 0.23430(14) 1.4326(3) -0.16828(11)
H12 H 0.2503 1.4348 -0.2162
C15 C 0.27727(12) 1.2586(3) -0.10171(10)
N1 N 0.35924(9) 0.9205(2) 0.04348(8)
O1 O 0.32535(12) 0.6729(3) 0.32398(10)
O2 O 0.34150(10) 1.0952(2) -0.10775(9)
H13 H 0.3598 1.0004 -0.0655
loop_
_geom_bond_atom_site_label_1
_geom_bond_atom_site_label_2
_geom_bond_site_symmetry_1
_geom_bond_site_symmetry_2
C1 H1 1_555 1_555
H2 C1 1_555 1_555
H3 C1 1_555 1_555
C2 C1 1_555 1_555
C3 C2 1_555 1_555
C4 C3 1_555 1_555
H4 C4 1_555 1_555
C5 C4 1_555 1_555
H5 C5 1_555 1_555
C6 C5 1_555 1_555
H6 C6 1_555 1_555
C7 C6 1_555 1_555
C8 C3 1_555 1_555
H7 C8 1_555 1_555
C9 H8 1_555 1_555
C10 C9 1_555 1_555
C11 C10 1_555 1_555
H9 C11 1_555 1_555
C12 C11 1_555 1_555
H10 C12 1_555 1_555
C13 C12 1_555 1_555
H11 C13 1_555 1_555
C14 C13 1_555 1_555
H12 C14 1_555 1_555
C15 C10 1_555 1_555
N1 C7 1_555 1_555
O1 C2 1_555 1_555
O2 C15 1_555 1_555
H13 O2 1_555 1_555
C7 C8 1_555 1_555
C9 N1 1_555 1_555
C14 C15 1_555 1_555

#END
