
#######################################################################
#
#                 Cambridge Crystallographic Data Centre
#                                CCDC 
#
#######################################################################
#
# If this CIF has been generated from an entry in the Cambridge 
# Structural Database, then it will include bibliographic, chemical, 
# crystal, experimental, refinement or atomic coordinate data resulting 
# from the CCDC's data processing and validation procedures.
#
#######################################################################

data_QOYHIW
_chemical_formula_moiety         'C15 H16 N2 O1'
_chemical_name_systematic        '2-Hydroxyacetophenone 4-methylphenylhydrazone'
_symmetry_cell_setting           monoclinic
_symmetry_space_group_name_H-M   'C c'
_symmetry_Int_Tables_number      9
_space_group_name_Hall           'C -2yc'
loop_
_symmetry_equiv_pos_site_id
_symmetry_equiv_pos_as_xyz
1 x,y,z
2 x,-y,1/2+z
3 1/2+x,1/2+y,z
4 1/2+x,1/2-y,1/2+z
_cell_length_a                   11.1969(4)
_cell_length_b                   8.9938(3)
_cell_length_c                   12.3385(4)
_cell_angle_alpha                90
_cell_angle_beta                 95.297(2)
_cell_angle_gamma                90
_cell_volume                     1237.21
_exptl_crystal_colour            brown
_exptl_crystal_description       block
_chemical_melting_point          '144-145 deg.C'
_cell_formula_units_Z            4
_exptl_crystal_recrystallization_method ethanol
loop_
_atom_site_label
_atom_site_type_symbol
_atom_site_fract_x
_atom_site_fract_y
_atom_site_fract_z
O1 O 0.54225(16) 0.59030(18) 0.65861(12)
H1 H 0.5194 0.5414 0.6025
N1 N 0.45438(16) 0.4413(2) 0.37822(13)
H2 H 0.469(2) 0.458(3) 0.308(2)
N2 N 0.50408(14) 0.53591(19) 0.45660(13)
C1 C 0.41974(17) 0.2984(2) 0.40961(16)
C2 C 0.36724(18) 0.2039(2) 0.32888(17)
H3 H 0.3603 0.2348 0.2549
C3 C 0.32517(19) 0.0648(2) 0.35653(17)
H4 H 0.2895 0.0017 0.3008
C4 C 0.33419(18) 0.0158(2) 0.46397(17)
C5 C 0.3895(2) 0.1101(3) 0.54285(16)
H5 H 0.3984 0.0779 0.6165
C6 C 0.43189(19) 0.2493(2) 0.51736(16)
H6 H 0.4691 0.3112 0.5731
C7 C 0.53957(16) 0.6673(2) 0.42960(15)
C8 C 0.59306(17) 0.7626(2) 0.51840(16)
C9 C 0.59325(18) 0.7208(2) 0.62919(15)
C10 C 0.64406(19) 0.8118(3) 0.71196(16)
H7 H 0.6419 0.7828 0.7858
C11 C 0.69783(19) 0.9448(3) 0.68736(18)
H8 H 0.7331 1.0063 0.7442
C12 C 0.7002(2) 0.9882(3) 0.57943(19)
H9 H 0.7376 1.0790 0.5623
C13 C 0.64746(19) 0.8980(2) 0.49650(17)
H10 H 0.6485 0.9294 0.4231
C14 C 0.5232(2) 0.7223(2) 0.31357(17)
H11 H 0.5856 0.6795 0.2724
H12 H 0.5293 0.8310 0.3128
H13 H 0.4441 0.6921 0.2802
C15 C 0.2859(2) -0.1337(2) 0.49490(19)
H14 H 0.2024 -0.1227 0.5115
H15 H 0.3342 -0.1721 0.5591
H16 H 0.2897 -0.2033 0.4342
loop_
_geom_bond_atom_site_label_1
_geom_bond_atom_site_label_2
_geom_bond_site_symmetry_1
_geom_bond_site_symmetry_2
O1 H1 1_555 1_555
N1 H2 1_555 1_555
N2 N1 1_555 1_555
C1 N1 1_555 1_555
C2 C1 1_555 1_555
H3 C2 1_555 1_555
C3 C2 1_555 1_555
H4 C3 1_555 1_555
C4 C3 1_555 1_555
C5 C4 1_555 1_555
H5 C5 1_555 1_555
C6 C1 1_555 1_555
H6 C6 1_555 1_555
C7 N2 1_555 1_555
C8 C7 1_555 1_555
C9 O1 1_555 1_555
C10 C9 1_555 1_555
H7 C10 1_555 1_555
C11 C10 1_555 1_555
H8 C11 1_555 1_555
C12 C11 1_555 1_555
H9 C12 1_555 1_555
C13 C8 1_555 1_555
H10 C13 1_555 1_555
C14 C7 1_555 1_555
H11 C14 1_555 1_555
H12 C14 1_555 1_555
H13 C14 1_555 1_555
C15 C4 1_555 1_555
H14 C15 1_555 1_555
H15 C15 1_555 1_555
H16 C15 1_555 1_555
C5 C6 1_555 1_555
C8 C9 1_555 1_555
C12 C13 1_555 1_555

#END
