
#######################################################################
#
#                 Cambridge Crystallographic Data Centre
#                                CCDC 
#
#######################################################################
#
# If this CIF has been generated from an entry in the Cambridge 
# Structural Database, then it will include bibliographic, chemical, 
# crystal, experimental, refinement or atomic coordinate data resulting 
# from the CCDC's data processing and validation procedures.
#
#######################################################################

data_QOYJAQ
_chemical_formula_moiety         'C14 H13 I1 N2 O1'
_chemical_name_systematic        '2-Hydroxyacetophenone 4-iodophenylhydrazone'
_symmetry_cell_setting           monoclinic
_symmetry_space_group_name_H-M   'P 21/c'
_symmetry_Int_Tables_number      14
_space_group_name_Hall           '-P 2ybc'
loop_
_symmetry_equiv_pos_site_id
_symmetry_equiv_pos_as_xyz
1 x,y,z
2 -x,1/2+y,1/2-z
3 -x,-y,-z
4 x,1/2-y,1/2+z
_cell_length_a                   12.7338(4)
_cell_length_b                   8.6171(3)
_cell_length_c                   12.5913(6)
_cell_angle_alpha                90
_cell_angle_beta                 97.918(2)
_cell_angle_gamma                90
_cell_volume                     1368.45
_exptl_crystal_colour            colorless
_exptl_crystal_description       slab
_chemical_melting_point          '152-154 deg.C'
_cell_formula_units_Z            4
_exptl_crystal_recrystallization_method ethanol
loop_
_atom_site_label
_atom_site_type_symbol
_atom_site_fract_x
_atom_site_fract_y
_atom_site_fract_z
I1 I 0.02972(3) 0.94062(4) 0.32465(3)
O1 O 0.2926(2) 0.1412(3) 0.2460(2)
H1 H 0.2722 0.1936 0.2935
N1 N 0.2371(3) 0.3223(4) 0.5060(3)
H2 H 0.2336 0.2974 0.5716
N2 N 0.2802(3) 0.2215(3) 0.4406(2)
C1 C 0.1988(3) 0.4658(4) 0.4666(3)
C2 C 0.1381(3) 0.5506(5) 0.5276(3)
H3 H 0.1274 0.5149 0.5950
C3 C 0.0927(3) 0.6892(5) 0.4891(3)
H4 H 0.0513 0.7460 0.5306
C4 C 0.1086(3) 0.7430(4) 0.3898(3)
C5 C 0.1731(3) 0.6615(4) 0.3302(3)
H5 H 0.1864 0.6999 0.2644
C6 C 0.2179(3) 0.5227(4) 0.3681(3)
H6 H 0.2609 0.4675 0.3275
C7 C 0.3088(3) 0.0851(4) 0.4757(3)
C8 C 0.3549(3) -0.0170(4) 0.4000(3)
C9 C 0.3445(3) 0.0133(4) 0.2899(3)
C10 C 0.3878(3) -0.0865(5) 0.2210(3)
H7 H 0.3787 -0.0660 0.1478
C11 C 0.4440(3) -0.2153(5) 0.2599(4)
H8 H 0.4737 -0.2806 0.2134
C12 C 0.4563(3) -0.2475(5) 0.3680(4)
H9 H 0.4945 -0.3343 0.3948
C13 C 0.4119(3) -0.1509(4) 0.4361(3)
H10 H 0.4198 -0.1748 0.5087
C14 C 0.2945(4) 0.0283(5) 0.5854(3)
H11 H 0.3509 0.0676 0.6369
H12 H 0.2959 -0.0831 0.5864
H13 H 0.2277 0.0641 0.6032
loop_
_geom_bond_atom_site_label_1
_geom_bond_atom_site_label_2
_geom_bond_site_symmetry_1
_geom_bond_site_symmetry_2
I1 C4 1_555 1_555
O1 H1 1_555 1_555
N1 H2 1_555 1_555
N2 N1 1_555 1_555
C1 N1 1_555 1_555
C2 C1 1_555 1_555
H3 C2 1_555 1_555
C3 C2 1_555 1_555
H4 C3 1_555 1_555
C4 C3 1_555 1_555
C5 C4 1_555 1_555
H5 C5 1_555 1_555
C6 C1 1_555 1_555
H6 C6 1_555 1_555
C7 N2 1_555 1_555
C8 C7 1_555 1_555
C9 O1 1_555 1_555
C10 C9 1_555 1_555
H7 C10 1_555 1_555
C11 C10 1_555 1_555
H8 C11 1_555 1_555
C12 C11 1_555 1_555
H9 C12 1_555 1_555
C13 C8 1_555 1_555
H10 C13 1_555 1_555
C14 C7 1_555 1_555
H11 C14 1_555 1_555
H12 C14 1_555 1_555
H13 C14 1_555 1_555
C5 C6 1_555 1_555
C8 C9 1_555 1_555
C12 C13 1_555 1_555

#END
