
#######################################################################
#
#                 Cambridge Crystallographic Data Centre
#                                CCDC 
#
#######################################################################
#
# If this CIF has been generated from an entry in the Cambridge 
# Structural Database, then it will include bibliographic, chemical, 
# crystal, experimental, refinement or atomic coordinate data resulting 
# from the CCDC's data processing and validation procedures.
#
#######################################################################

data_QOYXOR
_chemical_formula_moiety         'C19 H35 B10 N1 O2 Si1,1.5(C5 H12)'
_chemical_name_systematic        
"2-(3'-(t-Butyldimethylsiloxy)-1'-oxo-1',3'-dihydroisoindol-3'-yl)-1,2'-propano-1,2-dicarba-closo-dodecaborane pentane solvate"
_symmetry_cell_setting           triclinic
_symmetry_space_group_name_H-M   'P -1'
_symmetry_Int_Tables_number      2
_space_group_name_Hall           '-P 1'
loop_
_symmetry_equiv_pos_site_id
_symmetry_equiv_pos_as_xyz
1 x,y,z
2 -x,-y,-z
_cell_length_a                   14.448(1)
_cell_length_b                   14.680(1)
_cell_length_c                   16.137(1)
_cell_angle_alpha                101.58(1)
_cell_angle_beta                 90.07(1)
_cell_angle_gamma                96.13(1)
_cell_volume                     3332.86
_exptl_crystal_colour            colorless
_exptl_crystal_description       block
_cell_formula_units_Z            4
loop_
_atom_site_label
_atom_site_type_symbol
_atom_site_fract_x
_atom_site_fract_y
_atom_site_fract_z
Si1 Si 0.03335(6) 0.20713(5) -0.00399(5)
O1 O 0.08932(13) 0.28539(13) 0.07591(12)
O2 O 0.35755(17) 0.15696(19) 0.08134(17)
N1 N 0.24767(17) 0.26207(18) 0.09344(16)
C1 C 0.16523(19) 0.3675(2) 0.20581(17)
C2 C 0.2246(2) 0.4680(2) 0.19122(18)
B1 B 0.1039(3) 0.4590(2) 0.1923(2)
H1 H 0.0585 0.4576 0.1357
B2 B 0.0719(3) 0.3909(3) 0.2689(2)
H2 H 0.0047 0.3442 0.2629
B3 B 0.1754(3) 0.3588(3) 0.3108(2)
H3 H 0.1762 0.2912 0.3327
B4 B 0.2717(2) 0.4058(2) 0.2585(2)
H4 H 0.3356 0.3689 0.2448
B5 B 0.1736(3) 0.5620(3) 0.2440(2)
H5 H 0.1735 0.6295 0.2216
B6 B 0.0765(3) 0.5153(3) 0.2955(3)
H6 H 0.0122 0.5518 0.3078
B7 B 0.1203(3) 0.4531(3) 0.3689(2)
H7 H 0.0844 0.4482 0.4296
B8 B 0.2447(3) 0.4624(3) 0.3616(2)
H8 H 0.2911 0.4638 0.4175
B9 B 0.2770(3) 0.5293(2) 0.2841(2)
H9 H 0.3449 0.5746 0.2878
B10 B 0.1836(3) 0.5591(3) 0.3532(2)
H10 H 0.1895 0.6242 0.4037
C3 C 0.2692(3) 0.4788(2) 0.1076(2)
H11 H 0.2185 0.4756 0.0655
H12 H 0.3029 0.5425 0.1159
C4 C 0.3366(2) 0.4095(3) 0.0694(2)
H13 H 0.3824 0.4041 0.1133
H14 H 0.3711 0.4343 0.0242
C5 C 0.2879(2) 0.3137(3) 0.0317(2)
H15 H 0.2377 0.3206 -0.0077
H16 H 0.3332 0.2764 -0.0019
C6 C -0.0149(2) 0.2831(2) -0.07111(18)
C7 C 0.0618(2) 0.3522(3) -0.0964(2)
H17 H 0.0342 0.3908 -0.1308
H18 H 0.1086 0.3177 -0.1293
H19 H 0.0915 0.3925 -0.0454
C8 C -0.0896(2) 0.3384(2) -0.0222(2)
H20 H -0.0613 0.3797 0.0289
H21 H -0.1391 0.2946 -0.0061
H22 H -0.1162 0.3760 -0.0581
C9 C -0.0603(3) 0.2196(2) -0.1518(2)
H23 H -0.0883 0.2579 -0.1862
H24 H -0.1086 0.1743 -0.1363
H25 H -0.0126 0.1862 -0.1843
C10 C 0.1160(3) 0.1296(2) -0.0625(2)
H26 H 0.1643 0.1670 -0.0875
H27 H 0.0820 0.0832 -0.1075
H28 H 0.1451 0.0975 -0.0233
C11 C -0.0632(3) 0.1340(3) 0.0353(3)
H29 H -0.0373 0.0881 0.0628
H30 H -0.1042 0.1010 -0.0123
H31 H -0.0995 0.1737 0.0765
C12 C 0.15726(19) 0.2758(2) 0.13371(18)
C13 C 0.2837(2) 0.1832(2) 0.1089(2)
C14 C 0.1394(2) 0.1885(2) 0.17224(19)
C15 C 0.2160(2) 0.1378(2) 0.1598(2)
C16 C 0.2180(3) 0.0557(3) 0.1901(3)
H32 H 0.2709 0.0219 0.1822
C17 C 0.1420(3) 0.0250(3) 0.2326(3)
H33 H 0.1428 -0.0304 0.2544
C18 C 0.0646(3) 0.0728(3) 0.2428(3)
H34 H 0.0124 0.0494 0.2710
C19 C 0.0618(3) 0.1560(2) 0.2129(2)
H35 H 0.0084 0.1891 0.2200
Si2 Si 0.52973(7) 0.19821(7) 0.38797(6)
O3 O 0.58977(14) 0.27983(15) 0.34427(13)
O4 O 0.85867(16) 0.15482(18) 0.28506(17)
N2 N 0.74798(17) 0.25839(18) 0.31536(16)
C20 C 0.6637(2) 0.3666(2) 0.24725(18)
C21 C 0.7232(2) 0.4660(2) 0.30059(19)
B11 B 0.6025(3) 0.4574(3) 0.2972(3)
H36 H 0.5578 0.4538 0.3534
B12 B 0.5690(3) 0.3925(3) 0.1950(3)
H37 H 0.5019 0.3458 0.1836
B13 B 0.6721(2) 0.3626(3) 0.1392(2)
H38 H 0.6727 0.2964 0.0906
B14 B 0.7696(2) 0.4070(3) 0.2092(2)
H39 H 0.8337 0.3700 0.2079
B15 B 0.6712(3) 0.5612(3) 0.2853(3)
H40 H 0.6718 0.6273 0.3341
B16 B 0.5734(3) 0.5165(3) 0.2170(3)
H41 H 0.5087 0.5527 0.2197
B17 B 0.6160(3) 0.4579(3) 0.1194(3)
H42 H 0.5792 0.4554 0.0578
B18 B 0.7404(3) 0.4672(3) 0.1290(2)
H43 H 0.7859 0.4707 0.0733
B19 B 0.7737(3) 0.5311(3) 0.2319(2)
H44 H 0.8413 0.5771 0.2450
B20 B 0.6794(3) 0.5630(3) 0.1766(3)
H45 H 0.6848 0.6298 0.1526
C22 C 0.7691(3) 0.4738(3) 0.3873(2)
H46 H 0.8025 0.5374 0.4040
H47 H 0.7189 0.4686 0.4283
C23 C 0.8371(2) 0.4038(3) 0.3972(2)
H48 H 0.8728 0.4267 0.4511
H49 H 0.8817 0.3998 0.3505
C24 C 0.7888(2) 0.3070(2) 0.3975(2)
H50 H 0.8341 0.2685 0.4157
H51 H 0.7389 0.3126 0.4397
C25 C 0.4862(2) 0.2656(3) 0.4880(2)
C26 C 0.4111(3) 0.3255(3) 0.4635(3)
H52 H 0.3865 0.3613 0.5151
H53 H 0.3603 0.2840 0.4310
H54 H 0.4394 0.3687 0.4293
C27 C 0.4381(3) 0.1993(3) 0.5400(3)
H55 H 0.4832 0.1609 0.5572
H56 H 0.3878 0.1586 0.5059
H57 H 0.4119 0.2357 0.5906
C28 C 0.5619(3) 0.3312(4) 0.5400(3)
H58 H 0.5360 0.3621 0.5931
H59 H 0.5866 0.3784 0.5083
H60 H 0.6122 0.2958 0.5526
C29 C 0.4309(4) 0.1361(4) 0.3182(3)
H61 H 0.3984 0.1823 0.2965
H62 H 0.3875 0.1014 0.3504
H63 H 0.4538 0.0923 0.2704
C30 C 0.6076(4) 0.1121(3) 0.4090(4)
H64 H 0.6327 0.0810 0.3554
H65 H 0.5724 0.0649 0.4356
H66 H 0.6593 0.1442 0.4471
C31 C 0.6574(2) 0.2736(2) 0.28193(18)
C32 C 0.7850(2) 0.1818(2) 0.2692(2)
C33 C 0.6392(2) 0.1885(2) 0.20946(19)
C34 C 0.7162(2) 0.1384(2) 0.2008(2)
C35 C 0.7193(3) 0.0585(3) 0.1385(2)
H67 H 0.7721 0.0245 0.1330
C36 C 0.6423(3) 0.0297(3) 0.0846(3)
H68 H 0.6424 -0.0243 0.0408
C37 C 0.5644(3) 0.0774(3) 0.0946(2)
H69 H 0.5122 0.0555 0.0573
C38 C 0.5615(2) 0.1583(2) 0.1567(2)
H70 H 0.5078 0.1909 0.1629
C41 C 0.0529(15) 0.2072(15) 0.4922(13)
C50 C 0.122(2) 0.242(2) 0.585(2)
C56 C 0.2095(19) 0.0722(19) 0.5939(18)
C62 C 0.165(2) 0.166(2) 0.614(2)
C66 C 0.012(2) 0.128(2) 0.455(2)
C39? C 0.1000(6) 0.0657(6) 0.5429(6)
C40? C 1.0151(19) 0.2368(19) 0.4804(18)
C42? C 0.5241(13) 0.2702(14) 0.8976(12)
C43? C 0.7917(10) 0.1310(10) 0.6026(9)
C44? C 0.9525(11) 0.2033(11) 0.5640(10)
C45? C 0.599(2) 0.1975(19) 0.7887(18)
C46? C 0.6748(14) 0.1639(14) 0.7305(13)
C47? C 0.1885(16) 0.1540(16) 0.7045(14)
C48? C 0.6506(16) 0.1756(17) 0.8934(15)
C49? C 0.4053(15) 0.1720(14) 0.8012(14)
C51? C 0.627(2) 0.2482(19) 0.8888(17)
C52? C 0.7654(16) 0.0317(16) 0.5533(15)
C53? C 0.4738(19) 0.2062(19) 0.8560(17)
C54? C 0.8853(16) 0.1240(16) 0.5363(15)
C55? C 0.508(3) 0.144(2) 0.778(2)
C57? C 1.0043(9) 0.2942(9) 0.5543(8)
C58? C 0.7189(16) 0.1597(15) 0.6650(15)
C59? C 0.2810(19) 0.1256(19) 0.7304(18)
C60? C 0.1518(18) 0.0850(19) 0.6711(17)
C61? C 0.110(2) 0.279(2) 0.527(2)
C63? C 0.543(2) 0.217(2) 0.9159(19)
C64? C 0.075(4) 0.190(3) 0.591(3)
C65? C 0.177(2) -0.017(2) 0.5395(18)
loop_
_geom_bond_atom_site_label_1
_geom_bond_atom_site_label_2
_geom_bond_site_symmetry_1
_geom_bond_site_symmetry_2
Si1 O1 1_555 1_555
O1 C12 1_555 1_555
O2 C13 1_555 1_555
N1 C5 1_555 1_555
C1 C2 1_555 1_555
C2 B1 1_555 1_555
B1 C1 1_555 1_555
H1 B1 1_555 1_555
B2 C1 1_555 1_555
H2 B2 1_555 1_555
B3 C1 1_555 1_555
H3 B3 1_555 1_555
B4 C1 1_555 1_555
H4 B4 1_555 1_555
B5 C2 1_555 1_555
H5 B5 1_555 1_555
B6 B1 1_555 1_555
H6 B6 1_555 1_555
B7 B2 1_555 1_555
H7 B7 1_555 1_555
B8 B3 1_555 1_555
H8 B8 1_555 1_555
B9 C2 1_555 1_555
H9 B9 1_555 1_555
B10 B5 1_555 1_555
H10 B10 1_555 1_555
C3 C2 1_555 1_555
H11 C3 1_555 1_555
H12 C3 1_555 1_555
C4 C3 1_555 1_555
H13 C4 1_555 1_555
H14 C4 1_555 1_555
C5 C4 1_555 1_555
H15 C5 1_555 1_555
H16 C5 1_555 1_555
C6 Si1 1_555 1_555
C7 C6 1_555 1_555
H17 C7 1_555 1_555
H18 C7 1_555 1_555
H19 C7 1_555 1_555
C8 C6 1_555 1_555
H20 C8 1_555 1_555
H21 C8 1_555 1_555
H22 C8 1_555 1_555
C9 C6 1_555 1_555
H23 C9 1_555 1_555
H24 C9 1_555 1_555
H25 C9 1_555 1_555
C10 Si1 1_555 1_555
H26 C10 1_555 1_555
H27 C10 1_555 1_555
H28 C10 1_555 1_555
C11 Si1 1_555 1_555
H29 C11 1_555 1_555
H30 C11 1_555 1_555
H31 C11 1_555 1_555
C12 N1 1_555 1_555
C13 N1 1_555 1_555
C14 C12 1_555 1_555
C15 C13 1_555 1_555
C16 C15 1_555 1_555
H32 C16 1_555 1_555
C17 C16 1_555 1_555
H33 C17 1_555 1_555
C18 C17 1_555 1_555
H34 C18 1_555 1_555
C19 C14 1_555 1_555
H35 C19 1_555 1_555
Si2 O3 1_555 1_555
O3 C31 1_555 1_555
O4 C32 1_555 1_555
N2 C24 1_555 1_555
C20 C21 1_555 1_555
C21 B11 1_555 1_555
B11 C20 1_555 1_555
H36 B11 1_555 1_555
B12 C20 1_555 1_555
H37 B12 1_555 1_555
B13 C20 1_555 1_555
H38 B13 1_555 1_555
B14 C20 1_555 1_555
H39 B14 1_555 1_555
B15 C21 1_555 1_555
H40 B15 1_555 1_555
B16 B11 1_555 1_555
H41 B16 1_555 1_555
B17 B12 1_555 1_555
H42 B17 1_555 1_555
B18 B13 1_555 1_555
H43 B18 1_555 1_555
B19 C21 1_555 1_555
H44 B19 1_555 1_555
B20 B15 1_555 1_555
H45 B20 1_555 1_555
C22 C21 1_555 1_555
H46 C22 1_555 1_555
H47 C22 1_555 1_555
C23 C22 1_555 1_555
H48 C23 1_555 1_555
H49 C23 1_555 1_555
C24 C23 1_555 1_555
H50 C24 1_555 1_555
H51 C24 1_555 1_555
C25 Si2 1_555 1_555
C26 C25 1_555 1_555
H52 C26 1_555 1_555
H53 C26 1_555 1_555
H54 C26 1_555 1_555
C27 C25 1_555 1_555
H55 C27 1_555 1_555
H56 C27 1_555 1_555
H57 C27 1_555 1_555
C28 C25 1_555 1_555
H58 C28 1_555 1_555
H59 C28 1_555 1_555
H60 C28 1_555 1_555
C29 Si2 1_555 1_555
H61 C29 1_555 1_555
H62 C29 1_555 1_555
H63 C29 1_555 1_555
C30 Si2 1_555 1_555
H64 C30 1_555 1_555
H65 C30 1_555 1_555
H66 C30 1_555 1_555
C31 N2 1_555 1_555
C32 N2 1_555 1_555
C33 C31 1_555 1_555
C34 C32 1_555 1_555
C35 C34 1_555 1_555
H67 C35 1_555 1_555
C36 C35 1_555 1_555
H68 C36 1_555 1_555
C37 C36 1_555 1_555
H69 C37 1_555 1_555
C38 C33 1_555 1_555
H70 C38 1_555 1_555
C41 C50 1_555 1_555
C50 C62 1_555 1_555
C56 C62 1_555 1_555
C66 C41 1_555 1_555
C1 C12 1_555 1_555
C2 B4 1_555 1_555
B1 B5 1_555 1_555
B1 B2 1_555 1_555
B2 B6 1_555 1_555
B2 B3 1_555 1_555
B3 B4 1_555 1_555
B3 B7 1_555 1_555
B4 B9 1_555 1_555
B4 B8 1_555 1_555
B5 B6 1_555 1_555
B5 B9 1_555 1_555
B6 B10 1_555 1_555
B6 B7 1_555 1_555
B7 B10 1_555 1_555
B7 B8 1_555 1_555
B8 B9 1_555 1_555
B8 B10 1_555 1_555
B9 B10 1_555 1_555
C14 C15 1_555 1_555
C18 C19 1_555 1_555
C20 C31 1_555 1_555
C21 B14 1_555 1_555
B11 B15 1_555 1_555
B11 B12 1_555 1_555
B12 B16 1_555 1_555
B12 B13 1_555 1_555
B13 B14 1_555 1_555
B13 B17 1_555 1_555
B14 B19 1_555 1_555
B14 B18 1_555 1_555
B15 B16 1_555 1_555
B15 B19 1_555 1_555
B16 B20 1_555 1_555
B16 B17 1_555 1_555
B17 B20 1_555 1_555
B17 B18 1_555 1_555
B18 B19 1_555 1_555
B18 B20 1_555 1_555
B19 B20 1_555 1_555
C33 C34 1_555 1_555
C37 C38 1_555 1_555

#END
