
#######################################################################
#
#                 Cambridge Crystallographic Data Centre
#                                CCDC 
#
#######################################################################
#
# If this CIF has been generated from an entry in the Cambridge 
# Structural Database, then it will include bibliographic, chemical, 
# crystal, experimental, refinement or atomic coordinate data resulting 
# from the CCDC's data processing and validation procedures.
#
#######################################################################

data_QOYYEI
_chemical_formula_moiety         '2(C3 H10 N1 1+),C12 H20 B9 N1 O3 2-'
_chemical_name_systematic        
'bis(Trimethylammonium) 7-(2-(carboxylato)benzamidoethyl)-7,8-dicarba-nido-undecaborate(10)'
_symmetry_cell_setting           monoclinic
_symmetry_space_group_name_H-M   'P 21/n'
_symmetry_Int_Tables_number      14
_space_group_name_Hall           '-P 2yn'
loop_
_symmetry_equiv_pos_site_id
_symmetry_equiv_pos_as_xyz
1 x,y,z
2 1/2+x,1/2-y,1/2+z
3 -x,-y,-z
4 1/2-x,1/2+y,1/2-z
_cell_length_a                   9.430(2)
_cell_length_b                   23.019(5)
_cell_length_c                   12.140(3)
_cell_angle_alpha                90
_cell_angle_beta                 103.43(1)
_cell_angle_gamma                90
_cell_volume                     2563.16
_exptl_crystal_colour            colorless
_exptl_crystal_description       plate
_cell_formula_units_Z            4
_exptl_crystal_recrystallization_method water/ethanol
loop_
_atom_site_label
_atom_site_type_symbol
_atom_site_fract_x
_atom_site_fract_y
_atom_site_fract_z
O1 O 0.23264(15) 0.48218(6) 0.13143(11)
O2 O 0.27568(14) 0.57823(5) 0.34189(10)
O3 O 0.37439(16) 0.55939(6) 0.52371(11)
N1 N 0.45302(17) 0.47138(7) 0.25500(13)
H1 H 0.496(2) 0.4637(10) 0.325(2)
C1 C 0.57847(19) 0.38612(8) 0.11816(15)
H2 H 0.355(3) 0.3605(15) 0.102(3)
C2 C 0.5881(2) 0.33927(8) 0.21333(16)
H3 H 0.648(2) 0.3526(10) 0.2912(19)
C3 C 0.64700(19) 0.44524(8) 0.15331(15)
H4 H 0.6924 0.4598 0.0928
H5 H 0.7253 0.4405 0.2228
C4 C 0.5381(2) 0.49076(8) 0.17565(15)
H6 H 0.5921 0.5264 0.2059
H7 H 0.4705 0.5009 0.1029
C5 C 0.3075(2) 0.47001(8) 0.22683(15)
C6 C 0.30159(19) 0.54497(8) 0.42917(15)
C7 C 0.23287(19) 0.45086(8) 0.31814(15)
C8 C 0.23130(19) 0.48549(8) 0.41300(15)
C9 C 0.1541(2) 0.46610(9) 0.49140(16)
H8 H 0.1555 0.4884 0.5575
C10 C 0.0756(2) 0.41447(9) 0.47369(18)
H9 H 0.0203 0.4027 0.5259
C11 C 0.0777(2) 0.38016(9) 0.38026(18)
H10 H 0.0255 0.3445 0.3691
C12 C 0.1566(2) 0.39829(9) 0.30311(17)
H11 H 0.1587 0.3747 0.2393
B1 B 0.4498(2) 0.29468(9) 0.19563(17)
H12 H 0.412(2) 0.2729(9) 0.2653(18)
B2 B 0.3288(2) 0.31752(10) 0.06321(18)
H13 H 0.210(3) 0.3097(10) 0.0367(18)
B3 B 0.4262(2) 0.37952(9) 0.02445(19)
H14 H 0.371(2) 0.4178(10) -0.0229(18)
B4 B 0.7019(2) 0.33080(9) 0.12011(17)
H15 H 0.822(2) 0.3397(9) 0.1463(16)
B5 B 0.6171(2) 0.27001(9) 0.16633(18)
H16 H 0.686(2) 0.2388(9) 0.2201(16)
B6 B 0.4492(2) 0.25736(9) 0.06812(17)
H17 H 0.399(2) 0.2145(9) 0.0484(17)
B7 B 0.4319(2) 0.31179(9) -0.04240(17)
H18 H 0.376(2) 0.3017(9) -0.1310(18)
B8 B 0.5903(2) 0.35508(9) -0.00845(17)
H19 H 0.636(2) 0.3809(10) -0.0692(18)
B9 B 0.6070(2) 0.28015(9) 0.01941(17)
H20 H 0.664(2) 0.2524(9) -0.0301(17)
N2 N 0.46140(17) 0.66916(7) 0.38723(12)
H21 H 0.387(2) 0.6404(10) 0.3766(18)
C13 C 0.4887(2) 0.69128(9) 0.50545(15)
H22 H 0.5671 0.7202 0.5177
H23 H 0.5173 0.6589 0.5584
H24 H 0.3997 0.7093 0.5182
C14 C 0.4133(2) 0.71644(8) 0.30334(16)
H25 H 0.4911 0.7454 0.3104
H26 H 0.3257 0.7350 0.3176
H27 H 0.3912 0.7001 0.2267
C15 C 0.5918(2) 0.63870(9) 0.36634(18)
H28 H 0.5715 0.6252 0.2876
H29 H 0.6149 0.6053 0.4175
H30 H 0.6749 0.6654 0.3801
N3 N 0.03404(18) 0.58733(7) 0.16509(14)
H31 H 0.124(3) 0.5791(11) 0.207(2)
C16 C -0.0616(2) 0.53883(12) 0.1804(2)
H32 H -0.1602 0.5457 0.1343
H33 H -0.0647 0.5360 0.2603
H34 H -0.0235 0.5025 0.1565
C17 C 0.0425(3) 0.59163(11) 0.04559(19)
H35 H 0.0908 0.5570 0.0248
H36 H 0.0986 0.6263 0.0355
H37 H -0.0560 0.5946 -0.0029
C18 C -0.0180(4) 0.64235(12) 0.2051(2)
H38 H -0.1174 0.6504 0.1619
H39 H 0.0466 0.6741 0.1940
H40 H -0.0173 0.6391 0.2858
loop_
_geom_bond_atom_site_label_1
_geom_bond_atom_site_label_2
_geom_bond_site_symmetry_1
_geom_bond_site_symmetry_2
O1 C5 1_555 1_555
O2 C6 1_555 1_555
O3 C6 1_555 1_555
N1 H1 1_555 1_555
C1 C2 1_555 1_555
H2 B2 1_555 1_555
C2 H3 1_555 1_555
C3 C1 1_555 1_555
H4 C3 1_555 1_555
H5 C3 1_555 1_555
C4 N1 1_555 1_555
H6 C4 1_555 1_555
H7 C4 1_555 1_555
C5 N1 1_555 1_555
C6 C8 1_555 1_555
C7 C5 1_555 1_555
C8 C7 1_555 1_555
C9 C8 1_555 1_555
H8 C9 1_555 1_555
C10 C9 1_555 1_555
H9 C10 1_555 1_555
C11 C10 1_555 1_555
H10 C11 1_555 1_555
C12 C7 1_555 1_555
H11 C12 1_555 1_555
B1 C2 1_555 1_555
H12 B1 1_555 1_555
B2 B1 1_555 1_555
H13 B2 1_555 1_555
B3 C1 1_555 1_555
H14 B3 1_555 1_555
B4 C1 1_555 1_555
H15 B4 1_555 1_555
B5 C2 1_555 1_555
H16 B5 1_555 1_555
B6 B1 1_555 1_555
H17 B6 1_555 1_555
B7 B2 1_555 1_555
H18 B7 1_555 1_555
B8 C1 1_555 1_555
H19 B8 1_555 1_555
B9 B4 1_555 1_555
H20 B9 1_555 1_555
N2 H21 1_555 1_555
C13 N2 1_555 1_555
H22 C13 1_555 1_555
H23 C13 1_555 1_555
H24 C13 1_555 1_555
C14 N2 1_555 1_555
H25 C14 1_555 1_555
H26 C14 1_555 1_555
H27 C14 1_555 1_555
C15 N2 1_555 1_555
H28 C15 1_555 1_555
H29 C15 1_555 1_555
H30 C15 1_555 1_555
N3 H31 1_555 1_555
C16 N3 1_555 1_555
H32 C16 1_555 1_555
H33 C16 1_555 1_555
H34 C16 1_555 1_555
C17 N3 1_555 1_555
H35 C17 1_555 1_555
H36 C17 1_555 1_555
H37 C17 1_555 1_555
C18 N3 1_555 1_555
H38 C18 1_555 1_555
H39 C18 1_555 1_555
H40 C18 1_555 1_555
H2 B3 1_555 1_555
C2 B4 1_555 1_555
C3 C4 1_555 1_555
C11 C12 1_555 1_555
B1 B5 1_555 1_555
B2 B6 1_555 1_555
B2 B3 1_555 1_555
B3 B7 1_555 1_555
B3 B8 1_555 1_555
B4 B8 1_555 1_555
B4 B5 1_555 1_555
B5 B6 1_555 1_555
B5 B9 1_555 1_555
B6 B7 1_555 1_555
B6 B9 1_555 1_555
B7 B9 1_555 1_555
B7 B8 1_555 1_555
B8 B9 1_555 1_555

#END
