
#######################################################################
#
#                 Cambridge Crystallographic Data Centre
#                                CCDC 
#
#######################################################################
#
# If this CIF has been generated from an entry in the Cambridge 
# Structural Database, then it will include bibliographic, chemical, 
# crystal, experimental, refinement or atomic coordinate data resulting 
# from the CCDC's data processing and validation procedures.
#
#######################################################################

data_QOZFOA
_chemical_formula_moiety         'C15 H17 N1 O3'
_chemical_name_systematic        
2-Methoxymethyl-1-(2-hydroxy-2-methyl-1-oxobut-3-ynyl)indoline
_symmetry_cell_setting           orthorhombic
_symmetry_space_group_name_H-M   'P 21 21 21'
_symmetry_Int_Tables_number      19
_space_group_name_Hall           'P 2ac 2ab'
loop_
_symmetry_equiv_pos_site_id
_symmetry_equiv_pos_as_xyz
1 x,y,z
2 1/2-x,-y,1/2+z
3 -x,1/2+y,1/2-z
4 1/2+x,1/2-y,-z
_cell_length_a                   10.300(2)
_cell_length_b                   10.536(2)
_cell_length_c                   25.810(6)
_cell_angle_alpha                90
_cell_angle_beta                 90
_cell_angle_gamma                90
_cell_volume                     2800.92
_exptl_crystal_colour            colorless
_exptl_crystal_description       'rectangular block'
_cell_formula_units_Z            8
loop_
_atom_site_label
_atom_site_type_symbol
_atom_site_fract_x
_atom_site_fract_y
_atom_site_fract_z
C1 C -0.0199(2) 0.3381(2) 0.51079(9)
H1 H -0.0609(15) 0.3937(14) 0.4830(6)
N1 N 0.0024(2) 0.2063(2) 0.49070(7)
O1 O 0.08650(14) 0.52502(13) 0.53741(5)
C2 C -0.1084(2) 0.3153(2) 0.55770(9)
H2 H -0.0919(18) 0.3894(16) 0.5858(7)
H3 H -0.2048(17) 0.3253(15) 0.5452(7)
O2 O 0.0144(2) 0.05401(15) 0.42997(5)
C3 C -0.0739(2) 0.1824(2) 0.57375(9)
H4 H 0.0909(23) 0.4257(22) 0.3917(8)
O3 O 0.0963(2) 0.3643(2) 0.41145(6)
C4 C -0.0971(2) 0.1183(3) 0.61980(10)
H5 H -0.1438(18) 0.1630(17) 0.6479(7)
C5 C -0.0557(3) -0.0044(3) 0.62508(12)
H6 H -0.0719(20) -0.0515(20) 0.6582(8)
C6 C 0.0052(3) -0.0641(3) 0.58474(13)
H7 H 0.0311(20) -0.1434(19) 0.5873(8)
C7 C 0.0306(2) -0.0036(2) 0.53760(11)
H8 H 0.0859(23) -0.0437(22) 0.5079(8)
C8 C -0.0121(2) 0.1209(2) 0.53358(8)
C9 C 0.1089(2) 0.3957(2) 0.52622(10)
H9 H 0.1451(19) 0.3490(18) 0.5575(7)
H10 H 0.1679(17) 0.3889(16) 0.4986(6)
C10 C 0.2060(3) 0.5939(3) 0.54237(15)
H11 H 0.2641(24) 0.5586(24) 0.5731(10)
H12 H 0.2551(21) 0.5900(21) 0.5116(8)
H13 H 0.1721(25) 0.6833(24) 0.5555(9)
C11 C 0.0091(2) 0.1671(2) 0.44094(9)
C12 C 0.0065(2) 0.2678(2) 0.39679(8)
C13 C 0.0502(3) 0.2067(3) 0.34587(11)
H14 H 0.1434(20) 0.1663(20) 0.3499(8)
H15 H -0.0090(20) 0.1335(20) 0.3366(8)
H16 H 0.0545(18) 0.2738(18) 0.3221(7)
C14 C -0.1262(2) 0.3164(2) 0.39164(9)
C15 C -0.2318(3) 0.3502(3) 0.38604(10)
H17 H -0.3157(23) 0.3816(22) 0.3836(9)
C16 C 0.2210(2) 0.1625(2) 0.79322(9)
H18 H 0.2105(16) 0.1253(14) 0.8310(6)
N2 N 0.2901(2) 0.2866(2) 0.79850(7)
O4 O 0.2299(2) -0.0401(2) 0.75640(7)
C17 C 0.0922(3) 0.2021(2) 0.76866(11)
H19 H 0.0572(17) 0.1403(16) 0.7451(7)
H20 H 0.0243(25) 0.2203(22) 0.7967(8)
O5 O 0.39899(15) 0.44053(14) 0.84047(5)
C18 C 0.1294(2) 0.3188(2) 0.73837(9)
H21 H 0.4668(29) 0.0567(30) 0.8836(11)
O6 O 0.45634(14) 0.12963(14) 0.85718(6)
C19 C 0.0681(3) 0.3779(3) 0.69733(10)
H22 H -0.0160(20) 0.3402(17) 0.6842(7)
C20 C 0.1282(3) 0.4838(3) 0.67518(11)
H23 H 0.0925(21) 0.5240(19) 0.6463(8)
C21 C 0.2416(3) 0.5295(2) 0.69387(10)
H24 H 0.2901(18) 0.6029(18) 0.6798(7)
C22 C 0.3030(2) 0.4733(2) 0.73627(9)
H25 H 0.3890(18) 0.5067(16) 0.7496(7)
C23 C 0.2448(2) 0.3665(2) 0.75741(8)
C24 C 0.2997(3) 0.0759(2) 0.75813(11)
H26 H 0.3983(18) 0.0590(16) 0.7742(6)
H27 H 0.3007(18) 0.1087(17) 0.7235(8)
C25 C 0.2779(5) -0.1262(4) 0.7189(2)
H28 H 0.2877(44) -0.0758(40) 0.6796(16)
H29 H 0.3537(22) -0.1479(23) 0.7294(10)
H30 H 0.2294(26) -0.2128(27) 0.7301(10)
C26 C 0.3616(2) 0.3298(2) 0.83886(8)
C27 C 0.3987(2) 0.2358(2) 0.88254(8)
C28 C 0.4977(3) 0.2973(3) 0.91939(12)
H31 H 0.5231(18) 0.2293(19) 0.9472(7)
H32 H 0.5801(21) 0.3224(21) 0.8987(8)
H33 H 0.4591(21) 0.3681(21) 0.9333(9)
C29 C 0.2815(2) 0.1968(2) 0.91206(9)
C30 C 0.1920(3) 0.1639(3) 0.93608(10)
H34 H 0.1238(26) 0.1242(23) 0.9530(10)
loop_
_geom_bond_atom_site_label_1
_geom_bond_atom_site_label_2
_geom_bond_site_symmetry_1
_geom_bond_site_symmetry_2
C1 H1 1_555 1_555
N1 C1 1_555 1_555
O1 C9 1_555 1_555
C2 C1 1_555 1_555
H2 C2 1_555 1_555
H3 C2 1_555 1_555
O2 C11 1_555 1_555
C3 C2 1_555 1_555
H4 O3 1_555 1_555
O3 C12 1_555 1_555
C4 C3 1_555 1_555
H5 C4 1_555 1_555
C5 C4 1_555 1_555
H6 C5 1_555 1_555
C6 C5 1_555 1_555
H7 C6 1_555 1_555
C7 C6 1_555 1_555
H8 C7 1_555 1_555
C8 N1 1_555 1_555
C9 C1 1_555 1_555
H9 C9 1_555 1_555
H10 C9 1_555 1_555
C10 O1 1_555 1_555
H11 C10 1_555 1_555
H12 C10 1_555 1_555
H13 C10 1_555 1_555
C11 N1 1_555 1_555
C12 C11 1_555 1_555
C13 C12 1_555 1_555
H14 C13 1_555 1_555
H15 C13 1_555 1_555
H16 C13 1_555 1_555
C14 C12 1_555 1_555
C15 C14 1_555 1_555
H17 C15 1_555 1_555
C16 H18 1_555 1_555
N2 C16 1_555 1_555
O4 C24 1_555 1_555
C17 C16 1_555 1_555
H19 C17 1_555 1_555
H20 C17 1_555 1_555
O5 C26 1_555 1_555
C18 C17 1_555 1_555
H21 O6 1_555 1_555
O6 C27 1_555 1_555
C19 C18 1_555 1_555
H22 C19 1_555 1_555
C20 C19 1_555 1_555
H23 C20 1_555 1_555
C21 C20 1_555 1_555
H24 C21 1_555 1_555
C22 C21 1_555 1_555
H25 C22 1_555 1_555
C23 N2 1_555 1_555
C24 C16 1_555 1_555
H26 C24 1_555 1_555
H27 C24 1_555 1_555
C25 O4 1_555 1_555
H28 C25 1_555 1_555
H29 C25 1_555 1_555
H30 C25 1_555 1_555
C26 N2 1_555 1_555
C27 C26 1_555 1_555
C28 C27 1_555 1_555
H31 C28 1_555 1_555
H32 C28 1_555 1_555
H33 C28 1_555 1_555
C29 C27 1_555 1_555
C30 C29 1_555 1_555
H34 C30 1_555 1_555
C3 C8 1_555 1_555
C7 C8 1_555 1_555
C18 C23 1_555 1_555
C22 C23 1_555 1_555

#END
