
#######################################################################
#
#                 Cambridge Crystallographic Data Centre
#                                CCDC 
#
#######################################################################
#
# If this CIF has been generated from an entry in the Cambridge 
# Structural Database, then it will include bibliographic, chemical, 
# crystal, experimental, refinement or atomic coordinate data resulting 
# from the CCDC's data processing and validation procedures.
#
#######################################################################

data_QOZHIX
_chemical_name_common            
4-((1,1',3,3'-Tetrathiafulvalen-4-yl)ethynyl)benzo-15-crown-5
_chemical_formula_moiety         'C22 H22 O5 S4'
_chemical_name_systematic        
15-((1,1',3,3'-Tetrathiafulvalen-4-yl)ethynyl)-2,3,5,6,8,9,11,12-octahydro-1,4,7,10,13-benzopentaoxacyclopentadecine
_symmetry_cell_setting           orthorhombic
_symmetry_space_group_name_H-M   'P b c a'
_symmetry_Int_Tables_number      61
_space_group_name_Hall           '-P 2ac 2ab'
loop_
_symmetry_equiv_pos_site_id
_symmetry_equiv_pos_as_xyz
1 x,y,z
2 1/2-x,-y,1/2+z
3 -x,1/2+y,1/2-z
4 1/2+x,1/2-y,-z
5 -x,-y,-z
6 1/2+x,y,1/2-z
7 x,1/2-y,1/2+z
8 1/2-x,1/2+y,z
_cell_length_a                   19.120(4)
_cell_length_b                   8.8777(16)
_cell_length_c                   28.301(5)
_cell_angle_alpha                90
_cell_angle_beta                 90
_cell_angle_gamma                90
_cell_volume                     4803.86
_exptl_crystal_colour            orange-yellow
_cell_formula_units_Z            8
_exptl_crystal_recrystallization_method hexane/dichloromethane
loop_
_atom_site_label
_atom_site_type_symbol
_atom_site_fract_x
_atom_site_fract_y
_atom_site_fract_z
S1 S 0.12727(5) 1.08017(9) 1.14058(3)
S2 S -0.00544(4) 0.91163(9) 1.13881(3)
S3 S 0.07865(4) 0.61573(9) 1.09782(3)
S4 S 0.20958(5) 0.79101(10) 1.09966(4)
O1 O 0.13959(11) -0.2488(2) 0.91742(8)
O2 O 0.07077(12) -0.4398(2) 0.85353(8)
O3 O 0.11892(12) -0.3097(3) 0.76937(9)
O4 O 0.15187(13) -0.0019(3) 0.78802(8)
O5 O 0.20234(11) -0.0150(2) 0.88174(9)
C1 C 0.0498(2) 1.1809(4) 1.14688(12)
H1 H 0.0502 1.2851 1.1504
C2 C -0.00946(19) 1.1056(4) 1.14653(12)
H2 H -0.0521 1.1545 1.1503
C3 C 0.08480(16) 0.9092(3) 1.12800(11)
C4 C 0.11938(15) 0.7884(3) 1.11097(11)
C5 C 0.20759(18) 0.6306(3) 1.06547(12)
H3 H 0.2468 0.6019 1.0483
C6 C 0.14952(18) 0.5479(3) 1.06377(11)
C7 C 0.14123(17) 0.4113(4) 1.03860(12)
C8 C 0.13627(17) 0.2960(4) 1.01726(12)
C9 C 0.13384(18) 0.1555(3) 0.99139(12)
C10 C 0.17086(17) 0.1409(3) 0.94908(12)
H4 H 0.1958 0.2226 0.9372
C11 C 0.17069(17) 0.0062(3) 0.92469(12)
C12 C 0.13531(17) -0.1192(3) 0.94339(12)
C13 C 0.09881(18) -0.1049(3) 0.98533(12)
H5 H 0.0754 -0.1875 0.9979
C14 C 0.09709(19) 0.0330(4) 1.00876(12)
H6 H 0.0710 0.0429 1.0363
C15 C 0.09752(18) -0.3752(3) 0.93170(12)
H7 H 0.0490 -0.3449 0.9351
H8 H 0.1137 -0.4139 0.9618
C16 C 0.10409(17) -0.4933(3) 0.89447(13)
H9 H 0.1530 -0.5135 0.8880
H10 H 0.0822 -0.5860 0.9050
C17 C 0.08404(19) -0.5242(3) 0.81227(13)
H11 H 0.0547 -0.6133 0.8117
H12 H 0.1326 -0.5559 0.8116
C18 C 0.0684(2) -0.4267(4) 0.77061(13)
H13 H 0.0706 -0.4855 0.7418
H14 H 0.0218 -0.3844 0.7734
C19 C 0.1009(2) -0.1888(4) 0.73993(14)
H15 H 0.0563 -0.1472 0.7497
H16 H 0.0963 -0.2238 0.7076
C20 C 0.1556(2) -0.0705(4) 0.74255(13)
H17 H 0.2015 -0.1149 0.7378
H18 H 0.1480 0.0043 0.7181
C21 C 0.21513(19) 0.0626(4) 0.80215(13)
H19 H 0.2263 0.1470 0.7817
H20 H 0.2524 -0.0110 0.7995
C22 C 0.20945(18) 0.1152(4) 0.85185(12)
H21 H 0.2509 0.1717 0.8606
H22 H 0.1691 0.1804 0.8554
loop_
_geom_bond_atom_site_label_1
_geom_bond_atom_site_label_2
_geom_bond_site_symmetry_1
_geom_bond_site_symmetry_2
S1 C1 1_555 1_555
S2 C2 1_555 1_555
S3 C4 1_555 1_555
S4 C4 1_555 1_555
O1 C12 1_555 1_555
O2 C16 1_555 1_555
O3 C18 1_555 1_555
O4 C20 1_555 1_555
O5 C11 1_555 1_555
C1 H1 1_555 1_555
C2 C1 1_555 1_555
H2 C2 1_555 1_555
C3 S1 1_555 1_555
C4 C3 1_555 1_555
C5 S4 1_555 1_555
H3 C5 1_555 1_555
C6 S3 1_555 1_555
C7 C6 1_555 1_555
C8 C7 1_555 1_555
C9 C8 1_555 1_555
C10 C9 1_555 1_555
H4 C10 1_555 1_555
C11 C10 1_555 1_555
C12 C11 1_555 1_555
C13 C12 1_555 1_555
H5 C13 1_555 1_555
C14 C9 1_555 1_555
H6 C14 1_555 1_555
C15 O1 1_555 1_555
H7 C15 1_555 1_555
H8 C15 1_555 1_555
C16 C15 1_555 1_555
H9 C16 1_555 1_555
H10 C16 1_555 1_555
C17 O2 1_555 1_555
H11 C17 1_555 1_555
H12 C17 1_555 1_555
C18 C17 1_555 1_555
H13 C18 1_555 1_555
H14 C18 1_555 1_555
C19 O3 1_555 1_555
H15 C19 1_555 1_555
H16 C19 1_555 1_555
C20 C19 1_555 1_555
H17 C20 1_555 1_555
H18 C20 1_555 1_555
C21 O4 1_555 1_555
H19 C21 1_555 1_555
H20 C21 1_555 1_555
C22 O5 1_555 1_555
H21 C22 1_555 1_555
H22 C22 1_555 1_555
S2 C3 1_555 1_555
C5 C6 1_555 1_555
C13 C14 1_555 1_555
C21 C22 1_555 1_555

#END
