
#######################################################################
#
#                 Cambridge Crystallographic Data Centre
#                                CCDC 
#
#######################################################################
#
# If this CIF has been generated from an entry in the Cambridge 
# Structural Database, then it will include bibliographic, chemical, 
# crystal, experimental, refinement or atomic coordinate data resulting 
# from the CCDC's data processing and validation procedures.
#
#######################################################################

data_QOZJAQ
_chemical_formula_moiety         'C68 H70 O2 S4'
_chemical_name_systematic        
rac-6,6'-bis(5-Phenyl-2,2'-bithiophen-5'-yl)-2,2'-bis(decyloxy)-1,1'-binaphthyl
_symmetry_cell_setting           monoclinic
_symmetry_space_group_name_H-M   'P 21/c'
_symmetry_Int_Tables_number      14
_space_group_name_Hall           '-P 2ybc'
loop_
_symmetry_equiv_pos_site_id
_symmetry_equiv_pos_as_xyz
1 x,y,z
2 x,1/2-y,1/2+z
3 -x,-y,-z
4 -x,1/2+y,1/2-z
_cell_length_a                   12.587
_cell_length_b                   17.684
_cell_length_c                   26.299
_cell_angle_alpha                90
_cell_angle_beta                 100.136(1)
_cell_angle_gamma                90
_cell_volume                     5762.49
_exptl_crystal_colour            yellow
_exptl_crystal_description       'rectangular needle'
_cell_formula_units_Z            4
_exptl_crystal_recrystallization_method hexane/chloroform
loop_
_atom_site_label
_atom_site_type_symbol
_atom_site_fract_x
_atom_site_fract_y
_atom_site_fract_z
S1 S -0.63160(7) 0.67290(5) 0.03670(3)
S2 S -0.72527(7) 0.53041(6) -0.10003(4)
S3 S 0.15414(6) 0.66516(5) 0.46323(3)
S4 S 0.21649(7) 0.52656(5) 0.60364(3)
C1 C -0.2846(2) 0.83156(16) 0.23619(11)
C2 C -0.3474(2) 0.87641(18) 0.26237(11)
C3 C -0.4588(3) 0.8832(2) 0.24510(13)
H1 H -0.4999 0.9138 0.2629
C4 C -0.5069(3) 0.8451(2) 0.20228(13)
H2 H -0.5809 0.8500 0.1913
C5 C -0.4976(3) 0.75797(18) 0.12955(12)
H3 H -0.5717 0.7627 0.1186
C6 C -0.4408(3) 0.71274(17) 0.10222(12)
C7 C -0.3282(3) 0.70721(19) 0.11940(12)
H4 H -0.2875 0.6768 0.1013
C8 C -0.2780(3) 0.74526(18) 0.16178(12)
H5 H -0.2037 0.7404 0.1717
C9 C -0.3349(2) 0.79194(16) 0.19130(11)
C10 C -0.4479(2) 0.79833(17) 0.17418(11)
C11 C -0.4932(3) 0.67038(18) 0.05624(12)
C12 C -0.4489(3) 0.6261(2) 0.02351(15)
H6 H -0.3750 0.6174 0.0274
C13 C -0.5233(3) 0.5945(2) -0.01659(15)
H7 H -0.5034 0.5631 -0.0417
C14 C -0.6270(3) 0.61382(18) -0.01541(12)
C15 C -0.7265(3) 0.59292(18) -0.04967(12)
C16 C -0.8282(3) 0.6166(2) -0.04904(14)
H8 H -0.8456 0.6509 -0.0249
C17 C -0.9054(3) 0.5847(2) -0.08832(14)
H9 H -0.9787 0.5956 -0.0924
C18 C -0.8632(3) 0.53630(17) -0.11993(12)
C19 C -0.9198(3) 0.49330(18) -0.16407(12)
C20 C -0.8666(3) 0.4407(2) -0.18992(15)
H10 H -0.7930 0.4328 -0.1791
C21 C -0.9210(4) 0.4000(2) -0.23132(16)
H11 H -0.8838 0.3654 -0.2482
C22 C -1.0288(4) 0.4105(2) -0.24750(15)
H12 H -1.0654 0.3827 -0.2751
C23 C -1.0836(3) 0.4624(2) -0.22287(15)
H13 H -1.1572 0.4696 -0.2339
C24 C -1.0297(3) 0.5036(2) -0.18192(13)
H14 H -1.0673 0.5390 -0.1659
C25 C -0.1652(2) 0.82556(16) 0.25422(11)
C26 C -0.0960(2) 0.86037(18) 0.22664(11)
C27 C 0.0168(2) 0.8531(2) 0.24069(12)
H15 H 0.0622 0.8754 0.2207
C28 C 0.0587(3) 0.81333(19) 0.28380(12)
H16 H 0.1333 0.8093 0.2932
C29 C 0.0354(2) 0.73858(17) 0.36046(11)
H17 H 0.1100 0.7356 0.3701
C30 C -0.0274(2) 0.70479(16) 0.39112(11)
C31 C -0.1412(2) 0.70854(17) 0.37443(11)
H18 H -0.1861 0.6847 0.3940
C32 C -0.1862(2) 0.74572(17) 0.33088(11)
H19 H -0.2609 0.7469 0.3213
C33 C -0.1209(2) 0.78316(16) 0.29939(10)
C34 C -0.0076(2) 0.77803(16) 0.31466(11)
C35 C 0.0166(2) 0.66589(16) 0.43935(11)
C36 C -0.0348(3) 0.6252(2) 0.47123(13)
H20 H -0.1094 0.6190 0.4653
C37 C 0.0324(3) 0.5932(2) 0.51394(13)
H21 H 0.0070 0.5644 0.5389
C38 C 0.1385(2) 0.60844(16) 0.51518(11)
C39 C 0.2321(2) 0.58117(16) 0.55093(11)
C40 C 0.3386(3) 0.5891(2) 0.54936(13)
H22 H 0.3642 0.6172 0.5242
C41 C 0.4065(3) 0.5512(2) 0.58907(14)
H23 H 0.4813 0.5518 0.5924
C42 C 0.3545(3) 0.51377(18) 0.62223(12)
C43 C 0.3991(3) 0.46809(19) 0.66733(13)
C44 C 0.5102(3) 0.4530(2) 0.67826(15)
H24 H 0.5547 0.4727 0.6568
C45 C 0.5548(4) 0.4097(3) 0.72027(17)
H25 H 0.6286 0.4001 0.7267
C46 C 0.4909(4) 0.3811(3) 0.75229(18)
H26 H 0.5209 0.3525 0.7809
C47 C 0.3837(4) 0.3945(3) 0.74221(18)
H27 H 0.3401 0.3747 0.7640
C48 C 0.3373(3) 0.4376(2) 0.69953(15)
H28 H 0.2631 0.4455 0.6931
O1 O -0.29520(18) 0.91365(13) 0.30532(9)
C49 C -0.3582(3) 0.9535(3) 0.33720(14)
H29 H -0.4159 0.9214 0.3448
H30 H -0.3901 0.9982 0.3194
C50 C -0.2855(3) 0.9756(2) 0.38626(15)
H31 H -0.3256 1.0068 0.4067
H32 H -0.2264 1.0057 0.3780
C51 C -0.2401(4) 0.9080(2) 0.41799(15)
H33 H -0.3001 0.8764 0.4233
H34 H -0.1973 0.8790 0.3977
C52 C -0.1726(4) 0.9229(2) 0.46906(15)
H35 H -0.2163 0.9485 0.4907
H36 H -0.1145 0.9568 0.4644
C53 C -0.1244(4) 0.8531(3) 0.49685(17)
H37 H -0.1832 0.8210 0.5031
H38 H -0.0857 0.8258 0.4739
C54 C -0.0514(5) 0.8640(3) 0.54581(19)
H39 H -0.0919 0.8873 0.5698
H40 H 0.0040 0.8996 0.5402
C55 C 0.0021(6) 0.7965(4) 0.5706(2)
H41 H 0.0340 0.7689 0.5451
H42 H -0.0522 0.7641 0.5813
C56 C 0.0877(8) 0.8115(5) 0.6162(3)
H43 H 0.1332 0.8514 0.6065
H44 H 0.0522 0.8321 0.6431
C57 C 0.1534(7) 0.7564(5) 0.6379(3)
H45 H 0.1929 0.7370 0.6122
H46 H 0.1093 0.7154 0.6473
C58 C 0.2321(5) 0.7779(5) 0.6842(3)
H47 H 0.2696 0.7337 0.6990
H48 H 0.1949 0.8009 0.7091
H49 H 0.2831 0.8132 0.6746
O2 O -0.14463(17) 0.90352(13) 0.18603(8)
C59 C -0.0814(3) 0.9384(2) 0.15192(13)
H50 H -0.0588 0.9011 0.1290
H51 H -0.0176 0.9621 0.1716
C60 C -0.1525(3) 0.9967(2) 0.12145(15)
H52 H -0.1650 1.0369 0.1448
H53 H -0.1137 1.0185 0.0962
C61 C -0.2590(3) 0.9696(2) 0.09380(14)
H54 H -0.3023 1.0133 0.0813
H55 H -0.2952 0.9439 0.1185
C62 C -0.2568(3) 0.9171(2) 0.04885(15)
H56 H -0.2150 0.8726 0.0611
H57 H -0.2204 0.9422 0.0240
C63 C -0.3671(3) 0.8924(2) 0.02195(15)
H58 H -0.4013 0.8645 0.0464
H59 H -0.4103 0.9373 0.0122
C64 C -0.3694(3) 0.8445(3) -0.02514(17)
H60 H -0.3296 0.7983 -0.0153
H61 H -0.3328 0.8713 -0.0492
C65 C -0.4829(3) 0.8240(3) -0.05243(17)
H62 H -0.5197 0.7986 -0.0278
H63 H -0.5218 0.8704 -0.0626
C66 C -0.4897(4) 0.7748(3) -0.09891(18)
H64 H -0.4540 0.7272 -0.0889
H65 H -0.4515 0.7990 -0.1235
C67 C -0.6080(4) 0.7589(3) -0.1256(2)
H66 H -0.6473 0.7364 -0.1008
H67 H -0.6430 0.8062 -0.1372
C68 C -0.6115(6) 0.7074(4) -0.1701(3)
H68 H -0.6853 0.6964 -0.1847
H69 H -0.5746 0.6613 -0.1589
H70 H -0.5771 0.7312 -0.1958
loop_
_geom_bond_atom_site_label_1
_geom_bond_atom_site_label_2
_geom_bond_site_symmetry_1
_geom_bond_site_symmetry_2
S1 C11 1_555 1_555
S2 C15 1_555 1_555
S3 C35 1_555 1_555
S4 C39 1_555 1_555
C1 C2 1_555 1_555
C2 C3 1_555 1_555
C3 H1 1_555 1_555
C4 C3 1_555 1_555
H2 C4 1_555 1_555
C5 H3 1_555 1_555
C6 C5 1_555 1_555
C7 C6 1_555 1_555
H4 C7 1_555 1_555
C8 C7 1_555 1_555
H5 C8 1_555 1_555
C9 C1 1_555 1_555
C10 C4 1_555 1_555
C11 C6 1_555 1_555
C12 C11 1_555 1_555
H6 C12 1_555 1_555
C13 C12 1_555 1_555
H7 C13 1_555 1_555
C14 S1 1_555 1_555
C15 C14 1_555 1_555
C16 C15 1_555 1_555
H8 C16 1_555 1_555
C17 C16 1_555 1_555
H9 C17 1_555 1_555
C18 S2 1_555 1_555
C19 C18 1_555 1_555
C20 C19 1_555 1_555
H10 C20 1_555 1_555
C21 C20 1_555 1_555
H11 C21 1_555 1_555
C22 C21 1_555 1_555
H12 C22 1_555 1_555
C23 C22 1_555 1_555
H13 C23 1_555 1_555
C24 C19 1_555 1_555
H14 C24 1_555 1_555
C25 C1 1_555 1_555
C26 C25 1_555 1_555
C27 C26 1_555 1_555
H15 C27 1_555 1_555
C28 C27 1_555 1_555
H16 C28 1_555 1_555
C29 H17 1_555 1_555
C30 C29 1_555 1_555
C31 C30 1_555 1_555
H18 C31 1_555 1_555
C32 C31 1_555 1_555
H19 C32 1_555 1_555
C33 C25 1_555 1_555
C34 C28 1_555 1_555
C35 C30 1_555 1_555
C36 C35 1_555 1_555
H20 C36 1_555 1_555
C37 C36 1_555 1_555
H21 C37 1_555 1_555
C38 S3 1_555 1_555
C39 C38 1_555 1_555
C40 C39 1_555 1_555
H22 C40 1_555 1_555
C41 C40 1_555 1_555
H23 C41 1_555 1_555
C42 S4 1_555 1_555
C43 C42 1_555 1_555
C44 C43 1_555 1_555
H24 C44 1_555 1_555
C45 C44 1_555 1_555
H25 C45 1_555 1_555
C46 C45 1_555 1_555
H26 C46 1_555 1_555
C47 C46 1_555 1_555
H27 C47 1_555 1_555
C48 C43 1_555 1_555
H28 C48 1_555 1_555
O1 C2 1_555 1_555
C49 O1 1_555 1_555
H29 C49 1_555 1_555
H30 C49 1_555 1_555
C50 C49 1_555 1_555
H31 C50 1_555 1_555
H32 C50 1_555 1_555
C51 C50 1_555 1_555
H33 C51 1_555 1_555
H34 C51 1_555 1_555
C52 C51 1_555 1_555
H35 C52 1_555 1_555
H36 C52 1_555 1_555
C53 C52 1_555 1_555
H37 C53 1_555 1_555
H38 C53 1_555 1_555
C54 C53 1_555 1_555
H39 C54 1_555 1_555
H40 C54 1_555 1_555
C55 C54 1_555 1_555
H41 C55 1_555 1_555
H42 C55 1_555 1_555
C56 C55 1_555 1_555
H43 C56 1_555 1_555
H44 C56 1_555 1_555
C57 C56 1_555 1_555
H45 C57 1_555 1_555
H46 C57 1_555 1_555
C58 C57 1_555 1_555
H47 C58 1_555 1_555
H48 C58 1_555 1_555
H49 C58 1_555 1_555
O2 C26 1_555 1_555
C59 O2 1_555 1_555
H50 C59 1_555 1_555
H51 C59 1_555 1_555
C60 C59 1_555 1_555
H52 C60 1_555 1_555
H53 C60 1_555 1_555
C61 C60 1_555 1_555
H54 C61 1_555 1_555
H55 C61 1_555 1_555
C62 C61 1_555 1_555
H56 C62 1_555 1_555
H57 C62 1_555 1_555
C63 C62 1_555 1_555
H58 C63 1_555 1_555
H59 C63 1_555 1_555
C64 C63 1_555 1_555
H60 C64 1_555 1_555
H61 C64 1_555 1_555
C65 C64 1_555 1_555
H62 C65 1_555 1_555
H63 C65 1_555 1_555
C66 C65 1_555 1_555
H64 C66 1_555 1_555
H65 C66 1_555 1_555
C67 C66 1_555 1_555
H66 C67 1_555 1_555
H67 C67 1_555 1_555
C68 C67 1_555 1_555
H68 C68 1_555 1_555
H69 C68 1_555 1_555
H70 C68 1_555 1_555
C5 C10 1_555 1_555
C8 C9 1_555 1_555
C9 C10 1_555 1_555
C13 C14 1_555 1_555
C17 C18 1_555 1_555
C23 C24 1_555 1_555
C29 C34 1_555 1_555
C32 C33 1_555 1_555
C33 C34 1_555 1_555
C37 C38 1_555 1_555
C41 C42 1_555 1_555
C47 C48 1_555 1_555

#END
