
#######################################################################
#
#                 Cambridge Crystallographic Data Centre
#                                CCDC 
#
#######################################################################
#
# If this CIF has been generated from an entry in the Cambridge 
# Structural Database, then it will include bibliographic, chemical, 
# crystal, experimental, refinement or atomic coordinate data resulting 
# from the CCDC's data processing and validation procedures.
#
#######################################################################

data_QOZPUS
_chemical_formula_moiety         'C26 H14'
_chemical_name_systematic        Rubicene
_symmetry_cell_setting           monoclinic
_symmetry_space_group_name_H-M   'P 21/n'
_symmetry_Int_Tables_number      14
_space_group_name_Hall           '-P 2yn'
loop_
_symmetry_equiv_pos_site_id
_symmetry_equiv_pos_as_xyz
1 x,y,z
2 1/2-x,1/2+y,1/2-z
3 -x,-y,-z
4 1/2+x,1/2-y,1/2+z
_cell_length_a                   16.2914(19)
_cell_length_b                   5.1448(6)
_cell_length_c                   19.056(2)
_cell_angle_alpha                90
_cell_angle_beta                 97.021(6)
_cell_angle_gamma                90
_cell_volume                     1585.22
_exptl_crystal_colour            red
_exptl_crystal_description       needle
_cell_formula_units_Z            4
loop_
_atom_site_label
_atom_site_type_symbol
_atom_site_fract_x
_atom_site_fract_y
_atom_site_fract_z
C1 C 0.94126(16) 0.8431(5) 0.53109(14)
C2 C 0.98869(16) 1.0417(5) 0.56776(13)
C3 C 1.04760(15) 1.2019(5) 0.53972(14)
C4 C 1.08771(18) 1.3926(5) 0.58778(15)
H1 H 1.1260 1.5066 0.5723
C5 C 1.07000(19) 1.4064(6) 0.65503(17)
H2 H 1.0975 1.5293 0.6851
C6 C 1.01143(17) 1.2420(5) 0.68194(15)
H3 H 1.0009 1.2570 0.7287
C7 C 0.97070(17) 1.0614(5) 0.63822(14)
C8 C 0.90696(17) 0.8645(5) 0.64655(15)
C9 C 0.86696(19) 0.8018(6) 0.70337(16)
H4 H 0.8783 0.8912 0.7459
C10 C 0.8092(2) 0.6024(6) 0.69636(18)
H5 H 0.7816 0.5588 0.7346
C11 C 0.79223(19) 0.4689(6) 0.63428(18)
H6 H 0.7538 0.3344 0.6311
C12 C 0.83183(18) 0.5317(5) 0.57539(16)
H7 H 0.8199 0.4414 0.5331
C13 C 0.88922(16) 0.7317(5) 0.58158(15)
C1B C 1.05874(16) 1.1569(5) 0.46891(14)
C2B C 1.01131(16) 0.9583(5) 0.43224(13)
C3B C 0.95240(15) 0.7981(5) 0.46028(14)
C4B C 0.91229(18) 0.6074(5) 0.41222(15)
H1B H 0.8740 0.4934 0.4277
C5B C 0.93000(19) 0.5936(6) 0.34497(17)
H2B H 0.9025 0.4707 0.3149
C6B C 0.98857(17) 0.7580(5) 0.31806(15)
H3B H 0.9991 0.7430 0.2713
C7B C 1.02930(17) 0.9386(5) 0.36178(14)
C8B C 1.09304(17) 1.1355(5) 0.35345(15)
C9B C 1.13304(19) 1.1982(6) 0.29663(16)
H4B H 1.1217 1.1088 0.2541
C10B C 1.1908(2) 1.3976(6) 0.30364(18)
H5B H 1.2184 1.4412 0.2654
C11B C 1.20777(19) 1.5311(6) 0.36572(18)
H6B H 1.2462 1.6656 0.3689
C12B C 1.16817(18) 1.4683(5) 0.42461(16)
H7B H 1.1801 1.5586 0.4669
C13B C 1.11078(16) 1.2683(5) 0.41842(15)
C14 C 0.55699(18) 0.4640(5) 0.44933(14)
C15 C 0.62391(18) 0.3638(5) 0.41112(15)
C16 C 0.6493(2) 0.4345(5) 0.34620(18)
H8 H 0.6231 0.5678 0.3191
C17 C 0.7165(2) 0.2962(6) 0.32293(17)
H9 H 0.7349 0.3373 0.2800
C18 C 0.7539(2) 0.1026(6) 0.36414(17)
H10 H 0.7982 0.0150 0.3486
C19 C 0.7290(2) 0.0324(6) 0.42702(17)
H11 H 0.7556 -0.1013 0.4537
C20 C 0.66429(19) 0.1622(5) 0.45015(16)
C21 C 0.62311(18) 0.1285(5) 0.51503(15)
C22 C 0.6333(2) -0.0345(6) 0.57110(17)
H12 H 0.6746 -0.1602 0.5745
C23 C 0.57973(19) -0.0116(6) 0.62533(16)
H13 H 0.5878 -0.1231 0.6640
C24 C 0.51850(19) 0.1641(5) 0.62249(16)
H14 H 0.4849 0.1706 0.6586
C25 C 0.50429(18) 0.3436(5) 0.56370(14)
C26 C 0.55827(16) 0.3167(5) 0.51166(15)
C14B C 0.44301(18) 0.5360(5) 0.55067(14)
C15B C 0.37609(18) 0.6362(5) 0.58888(15)
C16B C 0.3507(2) 0.5655(5) 0.65380(18)
H8B H 0.3769 0.4322 0.6809
C17B C 0.2835(2) 0.7038(6) 0.67707(17)
H9B H 0.2651 0.6627 0.7200
C18B C 0.2461(2) 0.8974(6) 0.63586(17)
H10B H 0.2018 0.9850 0.6514
C19B C 0.2710(2) 0.9676(6) 0.57298(17)
H11B H 0.2444 1.1013 0.5463
C20B C 0.33571(19) 0.8378(5) 0.54985(16)
C21B C 0.37689(18) 0.8715(5) 0.48497(15)
C22B C 0.3667(2) 1.0345(6) 0.42890(17)
H12B H 0.3254 1.1602 0.4255
C23B C 0.42027(19) 1.0116(6) 0.37467(16)
H13B H 0.4122 1.1231 0.3360
C24B C 0.48150(19) 0.8359(5) 0.37751(16)
H14B H 0.5151 0.8294 0.3414
C25B C 0.49571(18) 0.6564(5) 0.43630(14)
C26B C 0.44173(16) 0.6833(5) 0.48834(15)
loop_
_geom_bond_atom_site_label_1
_geom_bond_atom_site_label_2
_geom_bond_site_symmetry_1
_geom_bond_site_symmetry_2
C1 C2 1_555 1_555
C2 C3 1_555 1_555
C3 C4 1_555 1_555
C4 H1 1_555 1_555
C5 C4 1_555 1_555
H2 C5 1_555 1_555
C6 C5 1_555 1_555
H3 C6 1_555 1_555
C7 C2 1_555 1_555
C8 C7 1_555 1_555
C9 C8 1_555 1_555
H4 C9 1_555 1_555
C10 C9 1_555 1_555
H5 C10 1_555 1_555
C11 C10 1_555 1_555
H6 C11 1_555 1_555
C12 C11 1_555 1_555
H7 C12 1_555 1_555
C13 C1 1_555 1_555
C14 C15 1_555 1_555
C15 C16 1_555 1_555
C16 H8 1_555 1_555
C17 C16 1_555 1_555
H9 C17 1_555 1_555
C18 C17 1_555 1_555
H10 C18 1_555 1_555
C19 C18 1_555 1_555
H11 C19 1_555 1_555
C20 C15 1_555 1_555
C21 C20 1_555 1_555
C22 C21 1_555 1_555
H12 C22 1_555 1_555
C23 C22 1_555 1_555
H13 C23 1_555 1_555
C24 C23 1_555 1_555
H14 C24 1_555 1_555
C25 C24 1_555 1_555
C26 C14 1_555 1_555
C1B C3 1_555 1_555
C2B C1B 1_555 1_555
C3B C1 1_555 1_555
C4B C3B 1_555 1_555
H1B C4B 1_555 1_555
C5B C4B 1_555 1_555
H2B C5B 1_555 1_555
C6B C5B 1_555 1_555
H3B C6B 1_555 1_555
C7B C2B 1_555 1_555
C8B C7B 1_555 1_555
C9B C8B 1_555 1_555
H4B C9B 1_555 1_555
C10B C9B 1_555 1_555
H5B C10B 1_555 1_555
C11B C10B 1_555 1_555
H6B C11B 1_555 1_555
C12B C11B 1_555 1_555
H7B C12B 1_555 1_555
C13B C1B 1_555 1_555
C14B C25 1_555 1_555
C15B C14B 1_555 1_555
C16B C15B 1_555 1_555
H8B C16B 1_555 1_555
C17B C16B 1_555 1_555
H9B C17B 1_555 1_555
C18B C17B 1_555 1_555
H10B C18B 1_555 1_555
C19B C18B 1_555 1_555
H11B C19B 1_555 1_555
C20B C15B 1_555 1_555
C21B C20B 1_555 1_555
C22B C21B 1_555 1_555
H12B C22B 1_555 1_555
C23B C22B 1_555 1_555
H13B C23B 1_555 1_555
C24B C23B 1_555 1_555
H14B C24B 1_555 1_555
C25B C14 1_555 1_555
C26B C14B 1_555 1_555
C6 C7 1_555 1_555
C8 C13 1_555 1_555
C12 C13 1_555 1_555
C19 C20 1_555 1_555
C21 C26 1_555 1_555
C25 C26 1_555 1_555
C2B C3B 1_555 1_555
C6B C7B 1_555 1_555
C8B C13B 1_555 1_555
C12B C13B 1_555 1_555
C19B C20B 1_555 1_555
C21B C26B 1_555 1_555
C24B C25B 1_555 1_555
C25B C26B 1_555 1_555

#END
