
#######################################################################
#
#                 Cambridge Crystallographic Data Centre
#                                CCDC 
#
#######################################################################
#
# If this CIF has been generated from an entry in the Cambridge 
# Structural Database, then it will include bibliographic, chemical, 
# crystal, experimental, refinement or atomic coordinate data resulting 
# from the CCDC's data processing and validation procedures.
#
#######################################################################

data_QOZZOW
_chemical_formula_moiety         'C26 H19 P1'
_chemical_name_systematic        1,2,3-Triphenyl-1H-phosphindole
_symmetry_cell_setting           triclinic
_symmetry_space_group_name_H-M   'P -1'
_symmetry_Int_Tables_number      2
_space_group_name_Hall           '-P 1'
loop_
_symmetry_equiv_pos_site_id
_symmetry_equiv_pos_as_xyz
1 x,y,z
2 -x,-y,-z
_cell_length_a                   9.2097(6)
_cell_length_b                   9.8986(6)
_cell_length_c                   11.4782(7)
_cell_angle_alpha                91.422(5)
_cell_angle_beta                 113.493(6)
_cell_angle_gamma                95.030(5)
_cell_volume                     953.909
_exptl_crystal_colour            colorless
_exptl_crystal_description       block
_cell_formula_units_Z            2
loop_
_atom_site_label
_atom_site_type_symbol
_atom_site_fract_x
_atom_site_fract_y
_atom_site_fract_z
P1 P 0.16459(4) 0.34388(3) 0.09195(3)
C1 C 0.22561(14) 0.50126(12) 0.19243(11)
C2 C 0.11569(14) 0.53047(12) 0.23778(11)
C3 C -0.01509(14) 0.41975(12) 0.20915(11)
C4 C -0.00027(14) 0.30804(13) 0.13901(12)
C5 C -0.10994(16) 0.19299(13) 0.10577(13)
H1 H -0.0997 0.1182 0.0571
C6 C -0.23524(16) 0.18928(14) 0.14508(13)
H2 H -0.3082 0.1097 0.1266
C7 C -0.25392(16) 0.30062(15) 0.21072(13)
H3 H -0.3420 0.2979 0.2342
C8 C -0.14530(15) 0.41699(13) 0.24300(12)
H4 H -0.1596 0.4935 0.2874
C9 C 0.37755(14) 0.58098(12) 0.21160(12)
C10 C 0.48620(15) 0.62943(13) 0.33367(12)
H5 H 0.4601 0.6146 0.4048
C11 C 0.63197(16) 0.69911(14) 0.35161(14)
H6 H 0.7051 0.7309 0.4350
C12 C 0.67152(16) 0.72260(14) 0.24867(15)
H7 H 0.7706 0.7714 0.2610
C13 C 0.56497(17) 0.67411(14) 0.12753(14)
H8 H 0.5914 0.6897 0.0566
C14 C 0.41970(16) 0.60284(13) 0.10911(13)
H9 H 0.3485 0.5687 0.0259
C15 C 0.11634(14) 0.66225(13) 0.30264(12)
C16 C 0.12824(15) 0.78298(13) 0.24453(12)
H10 H 0.1404 0.7796 0.1661
C17 C 0.12251(16) 0.90763(14) 0.30007(13)
H11 H 0.1307 0.9887 0.2595
C18 C 0.10495(16) 0.91399(14) 0.41409(14)
H12 H 0.0998 0.9991 0.4515
C19 C 0.09491(16) 0.79517(15) 0.47380(13)
H13 H 0.0838 0.7993 0.5526
C20 C 0.10106(15) 0.67072(14) 0.41888(12)
H14 H 0.0948 0.5902 0.4607
C21 C 0.30419(14) 0.22696(12) 0.18550(12)
C22 C 0.38354(15) 0.24303(13) 0.31748(13)
H15 H 0.3686 0.3186 0.3626
C23 C 0.48439(16) 0.14905(14) 0.38321(14)
H16 H 0.5397 0.1612 0.4731
C24 C 0.50454(17) 0.03758(14) 0.31816(15)
H17 H 0.5732 -0.0268 0.3637
C25 C 0.42555(17) 0.01927(13) 0.18747(15)
H18 H 0.4385 -0.0581 0.1433
C26 C 0.32661(15) 0.11504(13) 0.12059(13)
H19 H 0.2743 0.1040 0.0304
loop_
_geom_bond_atom_site_label_1
_geom_bond_atom_site_label_2
_geom_bond_site_symmetry_1
_geom_bond_site_symmetry_2
P1 C1 1_555 1_555
C1 C2 1_555 1_555
C2 C3 1_555 1_555
C3 C4 1_555 1_555
C4 P1 1_555 1_555
C5 C4 1_555 1_555
H1 C5 1_555 1_555
C6 C5 1_555 1_555
H2 C6 1_555 1_555
C7 C6 1_555 1_555
H3 C7 1_555 1_555
C8 C3 1_555 1_555
H4 C8 1_555 1_555
C9 C1 1_555 1_555
C10 C9 1_555 1_555
H5 C10 1_555 1_555
C11 C10 1_555 1_555
H6 C11 1_555 1_555
C12 C11 1_555 1_555
H7 C12 1_555 1_555
C13 C12 1_555 1_555
H8 C13 1_555 1_555
C14 C9 1_555 1_555
H9 C14 1_555 1_555
C15 C2 1_555 1_555
C16 C15 1_555 1_555
H10 C16 1_555 1_555
C17 C16 1_555 1_555
H11 C17 1_555 1_555
C18 C17 1_555 1_555
H12 C18 1_555 1_555
C19 C18 1_555 1_555
H13 C19 1_555 1_555
C20 C15 1_555 1_555
H14 C20 1_555 1_555
C21 P1 1_555 1_555
C22 C21 1_555 1_555
H15 C22 1_555 1_555
C23 C22 1_555 1_555
H16 C23 1_555 1_555
C24 C23 1_555 1_555
H17 C24 1_555 1_555
C25 C24 1_555 1_555
H18 C25 1_555 1_555
C26 C21 1_555 1_555
H19 C26 1_555 1_555
C7 C8 1_555 1_555
C13 C14 1_555 1_555
C19 C20 1_555 1_555
C25 C26 1_555 1_555

#END
