
#######################################################################
#
#                 Cambridge Crystallographic Data Centre
#                                CCDC 
#
#######################################################################
#
# If this CIF has been generated from an entry in the Cambridge 
# Structural Database, then it will include bibliographic, chemical, 
# crystal, experimental, refinement or atomic coordinate data resulting 
# from the CCDC's data processing and validation procedures.
#
#######################################################################

data_QQQAWD01
_chemical_name_common            'Trigonaline hydrochloride'
_chemical_formula_moiety         'C7 H8 N1 O2 1+,Cl1 1-'
_chemical_name_systematic        '1-Methylpyridinium-3-carboxylic acid chloride'
_symmetry_cell_setting           monoclinic
_symmetry_space_group_name_H-M   'P 21/c'
_symmetry_Int_Tables_number      14
_space_group_name_Hall           '-P 2ybc'
loop_
_symmetry_equiv_pos_site_id
_symmetry_equiv_pos_as_xyz
1 x,y,z
2 x,1/2-y,1/2+z
3 -x,-y,-z
4 -x,1/2+y,1/2-z
_cell_length_a                   11.193(2)
_cell_length_b                   10.772(2)
_cell_length_c                   6.6800(10)
_cell_angle_alpha                90
_cell_angle_beta                 103.18(3)
_cell_angle_gamma                90
_cell_volume                     784.198
_exptl_crystal_colour            colorless
_exptl_crystal_description       plate
_chemical_melting_point          229-230deg.C
_cell_formula_units_Z            4
_exptl_crystal_recrystallization_method methanol
loop_
_atom_site_label
_atom_site_type_symbol
_atom_site_fract_x
_atom_site_fract_y
_atom_site_fract_z
Cl1 Cl 0.84334(5) 0.47890(5) 0.23504(9)
C1 C 0.3906(2) 0.3968(2) 0.2295(3)
C2 C 0.5182(2) 0.3830(2) 0.2001(4)
O1 O 0.58484(15) 0.48495(15) 0.2481(3)
H1 H 0.671(4) 0.471(3) 0.219(6)
O2 O 0.55411(14) 0.28787(15) 0.1369(3)
C3 C 0.3409(2) 0.5123(2) 0.2483(4)
H2 H 0.386(2) 0.582(2) 0.248(4)
N1 N 0.22475(16) 0.52260(17) 0.2704(3)
C4 C 0.1692(2) 0.6471(2) 0.2757(4)
H3 H 0.114(2) 0.646(2) 0.370(5)
H4 H 0.236(2) 0.709(3) 0.312(4)
H5 H 0.111(3) 0.667(2) 0.145(5)
C5 C 0.1992(2) 0.3050(2) 0.2572(4)
H6 H 0.149(2) 0.239(3) 0.255(4)
C6 C 0.1534(2) 0.4216(2) 0.2735(4)
H7 H 0.071(3) 0.442(2) 0.290(4)
C7 C 0.3187(2) 0.2918(2) 0.2330(4)
H8 H 0.351(2) 0.212(2) 0.209(4)
loop_
_geom_bond_atom_site_label_1
_geom_bond_atom_site_label_2
_geom_bond_site_symmetry_1
_geom_bond_site_symmetry_2
C1 C2 1_555 1_555
C2 O1 1_555 1_555
O1 H1 1_555 1_555
O2 C2 1_555 1_555
C3 C1 1_555 1_555
H2 C3 1_555 1_555
N1 C3 1_555 1_555
C4 N1 1_555 1_555
H3 C4 1_555 1_555
H4 C4 1_555 1_555
H5 C4 1_555 1_555
C5 H6 1_555 1_555
C6 N1 1_555 1_555
H7 C6 1_555 1_555
C7 C1 1_555 1_555
H8 C7 1_555 1_555
C5 C6 1_555 1_555
C5 C7 1_555 1_555

#END
