
#######################################################################
#
#                 Cambridge Crystallographic Data Centre
#                                CCDC 
#
#######################################################################
#
# If this CIF has been generated from an entry in the Cambridge 
# Structural Database, then it will include bibliographic, chemical, 
# crystal, experimental, refinement or atomic coordinate data resulting 
# from the CCDC's data processing and validation procedures.
#
#######################################################################

data_QQQAGA01
_chemical_formula_moiety         'C13 H10 Cl2 N2 O1'
_chemical_name_systematic        N,N'-bis(3-chlorophenyl)urea
_symmetry_cell_setting           orthorhombic
_symmetry_space_group_name_H-M   'P 2 21 21'
_symmetry_Int_Tables_number      18
_space_group_name_Hall           'P 2bc 2'
loop_
_symmetry_equiv_pos_site_id
_symmetry_equiv_pos_as_xyz
1 x,y,z
2 -x,1/2-y,1/2+z
3 x,-y,-z
4 -x,1/2+y,1/2-z
_cell_length_a                   4.589(1)
_cell_length_b                   9.725(1)
_cell_length_c                   14.385(1)
_cell_angle_alpha                90
_cell_angle_beta                 90
_cell_angle_gamma                90
_cell_volume                     641.974
_cell_formula_units_Z            2
loop_
_atom_site_label
_atom_site_type_symbol
_atom_site_fract_x
_atom_site_fract_y
_atom_site_fract_z
Cl1 Cl 0.4241(3) 0.84807(11) 0.08273(6)
O1 O 0.0269(6) 1.00000 0.5000
N1 N 0.4561(5) 0.9420(2) 0.43077(15)
C1 C 0.2979(8) 1.00000 0.5000
C2 C 0.3314(6) 0.8643(2) 0.35752(16)
C3 C 0.4223(7) 0.8907(3) 0.26718(19)
C4 C 0.3091(8) 0.8131(3) 0.19533(19)
C5 C 0.1045(8) 0.7127(3) 0.2106(2)
C6 C 0.0169(8) 0.6877(3) 0.3010(3)
C7 C 0.1282(7) 0.7621(6) 0.3746(2)
H1 H 0.6420 0.9530 0.4313
H2 H 0.5594 0.9593 0.2553
H3 H 0.0268 0.6628 0.1614
H4 H -0.1201 0.6193 0.3124
H5 H 0.0675 0.7437 0.4350
N1B N 0.4561(5) 1.0580(2) 0.56923(15)
C2B C 0.3314(6) 1.1357(2) 0.64248(16)
C3B C 0.4223(7) 1.1093(3) 0.73282(19)
C4B C 0.3091(8) 1.1869(3) 0.80467(19)
Cl1B Cl 0.4241(3) 1.15193(11) 0.91727(6)
C5B C 0.1045(8) 1.2873(3) 0.7894(2)
C6B C 0.0169(8) 1.3123(3) 0.6990(3)
C7B C 0.1282(7) 1.2379(6) 0.6254(2)
H5B H 0.0675 1.2563 0.5650
H4B H -0.1201 1.3807 0.6876
H3B H 0.0268 1.3372 0.8386
H2B H 0.5594 1.0407 0.7447
H1B H 0.6420 1.0470 0.5687
loop_
_geom_bond_atom_site_label_1
_geom_bond_atom_site_label_2
_geom_bond_site_symmetry_1
_geom_bond_site_symmetry_2
Cl1 C4 1_555 1_555
O1 C1 1_555 1_555
N1 C1 1_555 1_555
C1 N1B 1_555 1_555
C2 N1 1_555 1_555
C3 C2 1_555 1_555
C4 C3 1_555 1_555
C5 C4 1_555 1_555
C6 C5 1_555 1_555
C7 C2 1_555 1_555
H1 N1 1_555 1_555
H2 C3 1_555 1_555
H3 C5 1_555 1_555
H4 C6 1_555 1_555
H5 C7 1_555 1_555
N1B C2B 1_555 1_555
C2B C3B 1_555 1_555
C3B C4B 1_555 1_555
C4B Cl1B 1_555 1_555
C5B C4B 1_555 1_555
C6B C5B 1_555 1_555
C7B C2B 1_555 1_555
H5B C7B 1_555 1_555
H4B C6B 1_555 1_555
H3B C5B 1_555 1_555
H2B C3B 1_555 1_555
H1B N1B 1_555 1_555
C6 C7 1_555 1_555
C6B C7B 1_555 1_555

#END
