
#######################################################################
#
#                 Cambridge Crystallographic Data Centre
#                                CCDC 
#
#######################################################################
#
# If this CIF has been generated from an entry in the Cambridge 
# Structural Database, then it will include bibliographic, chemical, 
# crystal, experimental, refinement or atomic coordinate data resulting 
# from the CCDC's data processing and validation procedures.
#
#######################################################################

data_QQQBTY02
_chemical_formula_moiety         'C13 H11 N1 O2'
_chemical_name_systematic        '2-Anilinobenzoic acid'
_symmetry_cell_setting           triclinic
_symmetry_space_group_name_H-M   'P -1'
_symmetry_Int_Tables_number      2
_space_group_name_Hall           '-P 1'
loop_
_symmetry_equiv_pos_site_id
_symmetry_equiv_pos_as_xyz
1 x,y,z
2 -x,-y,-z
_cell_length_a                   8.0800(16)
_cell_length_b                   9.812(2)
_cell_length_c                   14.043(3)
_cell_angle_alpha                85.96(3)
_cell_angle_beta                 88.64(3)
_cell_angle_gamma                73.45(3)
_cell_volume                     1064.56
_exptl_crystal_colour            colorless
_exptl_crystal_description       block
_cell_formula_units_Z            4
_exptl_crystal_recrystallization_method sublimation
_exptl_crystal_preparation       fluorescent
loop_
_atom_site_label
_atom_site_type_symbol
_atom_site_fract_x
_atom_site_fract_y
_atom_site_fract_z
C1 C 0.3611(3) -0.0496(2) 0.92694(14)
C2 C 0.2691(3) 0.08060(19) 0.87025(14)
C3 C 0.1000(3) 0.1524(2) 0.89527(16)
H1 H 0.0474 0.1156 0.9465
C4 C 0.0097(3) 0.2757(2) 0.84605(17)
H2 H -0.1030 0.3221 0.8634
C5 C 0.0887(3) 0.3301(2) 0.77014(16)
H3 H 0.0286 0.4142 0.7368
C6 C 0.2529(3) 0.26279(19) 0.74339(15)
H4 H 0.3026 0.3016 0.6918
C7 C 0.3492(3) 0.13571(19) 0.79203(13)
C8 C 0.6083(3) 0.10084(18) 0.68687(14)
C9 C 0.7753(3) 0.10473(19) 0.69771(16)
H5 H 0.8221 0.0949 0.7585
C10 C 0.8743(3) 0.1231(2) 0.61903(18)
H6 H 0.9881 0.1234 0.6271
C11 C 0.8057(3) 0.1409(2) 0.52872(18)
H7 H 0.8723 0.1535 0.4757
C12 C 0.6381(3) 0.1397(2) 0.51791(16)
H8 H 0.5903 0.1533 0.4571
C13 C 0.5395(3) 0.11885(19) 0.59567(15)
H9 H 0.4265 0.1168 0.5872
N1 N 0.5160(2) 0.07050(17) 0.76765(12)
H19 H 0.5717 0.0022 0.8067
O1 O 0.5118(2) -0.11791(14) 0.91174(10)
O2 O 0.2714(2) -0.08921(16) 0.99753(11)
H21 H 0.3312 -0.1617 1.0260
C14 C 0.5998(3) 0.5944(2) 0.06721(14)
C15 C 0.6898(3) 0.4617(2) 0.12131(13)
C16 C 0.6137(3) 0.4104(2) 0.20186(14)
C17 C 0.7093(3) 0.2824(2) 0.24936(16)
H10 H 0.6616 0.2452 0.3024
C18 C 0.8707(3) 0.2114(2) 0.21928(18)
H11 H 0.9310 0.1269 0.2522
C19 C 0.9457(3) 0.2631(2) 0.14071(18)
H12 H 1.0562 0.2146 0.1209
C20 C 0.8552(3) 0.3865(2) 0.09274(16)
H13 H 0.9050 0.4214 0.0396
C21 C 0.3664(3) 0.4333(2) 0.31210(15)
C22 C 0.3008(3) 0.3199(2) 0.30522(17)
H14 H 0.3174 0.2716 0.2495
C23 C 0.2107(3) 0.2772(2) 0.38031(19)
H15 H 0.1679 0.1994 0.3755
C24 C 0.1838(3) 0.3486(2) 0.46196(18)
H16 H 0.1214 0.3206 0.5123
C25 C 0.2491(3) 0.4612(2) 0.46913(17)
H17 H 0.2309 0.5100 0.5246
C26 C 0.3418(3) 0.5034(2) 0.39479(16)
H18 H 0.3877 0.5792 0.4007
N2 N 0.4549(2) 0.48152(19) 0.23424(13)
H20 H 0.4039 0.5622 0.2052
O3 O 0.4560(2) 0.67069(15) 0.08887(11)
O4 O 0.6842(2) 0.62850(16) -0.00755(11)
H22 H 0.6302 0.7068 -0.0314
loop_
_geom_bond_atom_site_label_1
_geom_bond_atom_site_label_2
_geom_bond_site_symmetry_1
_geom_bond_site_symmetry_2
C1 C2 1_555 1_555
C2 C3 1_555 1_555
C3 H1 1_555 1_555
C4 C3 1_555 1_555
H2 C4 1_555 1_555
C5 C4 1_555 1_555
H3 C5 1_555 1_555
C6 C5 1_555 1_555
H4 C6 1_555 1_555
C7 C2 1_555 1_555
C8 C9 1_555 1_555
C9 H5 1_555 1_555
C10 C9 1_555 1_555
H6 C10 1_555 1_555
C11 C10 1_555 1_555
H7 C11 1_555 1_555
C12 C11 1_555 1_555
H8 C12 1_555 1_555
C13 C8 1_555 1_555
H9 C13 1_555 1_555
C14 C15 1_555 1_555
C15 C16 1_555 1_555
C16 C17 1_555 1_555
C17 H10 1_555 1_555
C18 C17 1_555 1_555
H11 C18 1_555 1_555
C19 C18 1_555 1_555
H12 C19 1_555 1_555
C20 C15 1_555 1_555
H13 C20 1_555 1_555
C21 C22 1_555 1_555
C22 H14 1_555 1_555
C23 C22 1_555 1_555
H15 C23 1_555 1_555
C24 C23 1_555 1_555
H16 C24 1_555 1_555
C25 C24 1_555 1_555
H17 C25 1_555 1_555
C26 C21 1_555 1_555
H18 C26 1_555 1_555
N1 C7 1_555 1_555
H19 N1 1_555 1_555
N2 C16 1_555 1_555
H20 N2 1_555 1_555
O1 C1 1_555 1_555
O2 C1 1_555 1_555
H21 O2 1_555 1_555
O3 C14 1_555 1_555
O4 C14 1_555 1_555
H22 O4 1_555 1_555
C6 C7 1_555 1_555
C8 N1 1_555 1_555
C12 C13 1_555 1_555
C19 C20 1_555 1_555
C21 N2 1_555 1_555
C25 C26 1_555 1_555

#END
