
#######################################################################
#
#                 Cambridge Crystallographic Data Centre
#                                CCDC 
#
#######################################################################
#
# If this CIF has been generated from an entry in the Cambridge 
# Structural Database, then it will include bibliographic, chemical, 
# crystal, experimental, refinement or atomic coordinate data resulting 
# from the CCDC's data processing and validation procedures.
#
#######################################################################

data_QQQCIY10
_chemical_formula_moiety         'C3 H9 N1,10.25(H2 O1)'
_chemical_name_systematic        'Trimethylamine hydrate clathrate'
_symmetry_cell_setting           hexagonal
_symmetry_space_group_name_H-M   'P 6/m m m'
_symmetry_Int_Tables_number      191
_space_group_name_Hall           "-P 6 2'"
loop_
_symmetry_equiv_pos_site_id
_symmetry_equiv_pos_as_xyz
1 x,y,z
2 x-y,x,z
3 -y,-x,-z
4 -y,x-y,z
5 x-y,-y,-z
6 -x,-y,z
7 x,x-y,-z
8 -x+y,-x,z
9 y,x,-z
10 y,-x+y,z
11 -x+y,y,-z
12 -x,-x+y,-z
13 -x,-y,-z
14 -x+y,-x,-z
15 y,x,z
16 y,-x+y,-z
17 -x+y,y,z
18 x,y,-z
19 -x,-x+y,z
20 x-y,x,-z
21 -y,-x,z
22 -y,x-y,-z
23 x-y,-y,z
24 x,x-y,z
_cell_length_a                   12.378(6)
_cell_length_b                   12.378(6)
_cell_length_c                   12.480(4)
_cell_angle_alpha                90
_cell_angle_beta                 90
_cell_angle_gamma                120
_cell_volume                     1655.95
_cell_formula_units_Z            4
loop_
_atom_site_label
_atom_site_type_symbol
_atom_site_fract_x
_atom_site_fract_y
_atom_site_fract_z
O2 O 0.3868 0.0000 0.2921
O3 O 0.1310 0.2619 0.0000
O4 O 0.3333 0.6667 0.1105
N1 N 0.0000 0.0000 0.3192
C1 C 0.0480 0.0959 0.2389
C1A C -0.0479 0.0480 0.2389
C1C C -0.0959 -0.0479 0.2389
C1E C -0.0480 -0.0959 0.2389
C1G C 0.0479 -0.0480 0.2389
C1I C 0.0959 0.0479 0.2389
N2 N 0.3544 0.7088 0.5000
C3 C 0.3333 0.6667 0.3984
C4 C 0.4855 0.7427 0.5000
N2B N 0.2912 0.6456 0.5000
N2F N 0.3544 0.6456 0.5000
C3B C 0.3333 0.6667 0.6016
C4B C 0.2573 0.5145 0.5000
C4J C 0.2572 0.7427 0.5000
O1 O 0.2097 0.4195 0.1785
O5? O 0.2772 0.3249 0.5000
O6? O 0.0696 0.1392 0.5000
O7? O 0.3082 0.4107 0.5000
C2? C 0.0647 0.1294 0.3050
loop_
_geom_bond_atom_site_label_1
_geom_bond_atom_site_label_2
_geom_bond_site_symmetry_1
_geom_bond_site_symmetry_2
N1 C1 1_555 1_555
N2 C3 1_555 1_555
C1 C1A 1_555 1_555
C3 N2B 1_555 1_555
C4 N2 1_555 1_555
C1A N1 1_555 1_555
C1C N1 1_555 1_555
C1E N1 1_555 1_555
C1G N1 1_555 1_555
C1I N1 1_555 1_555
N2B N2 1_555 1_555
N2F N2 1_555 1_555
C3B N2 1_555 1_555
C4B N2B 1_555 1_555
C4J N2 1_555 1_555
C1 C1I 1_555 1_555
C3 N2F 1_555 1_555
C4 N2F 1_555 1_555
C1A C1C 1_555 1_555
C1C C1E 1_555 1_555
C1E C1G 1_555 1_555
C1G C1I 1_555 1_555
N2B N2F 1_555 1_555
N2B C3B 1_555 1_555
N2B C4J 1_555 1_555
N2F C4B 1_555 1_555
N2F C3B 1_555 1_555

#END
