
#######################################################################
#
#                 Cambridge Crystallographic Data Centre
#                                CCDC 
#
#######################################################################
#
# If this CIF has been generated from an entry in the Cambridge 
# Structural Database, then it will include bibliographic, chemical, 
# crystal, experimental, refinement or atomic coordinate data resulting 
# from the CCDC's data processing and validation procedures.
#
#######################################################################

data_QQQEVJ01
_chemical_formula_moiety         'C11 H14 N2 O3'
_chemical_name_systematic        Glycylphenylalanine
_symmetry_cell_setting           monoclinic
_symmetry_space_group_name_H-M   'P 21'
_symmetry_Int_Tables_number      4
_space_group_name_Hall           'P 2yb'
loop_
_symmetry_equiv_pos_site_id
_symmetry_equiv_pos_as_xyz
1 x,y,z
2 -x,1/2+y,-z
_cell_length_a                   6.433(2)
_cell_length_b                   5.4926(17)
_cell_length_c                   16.535(5)
_cell_angle_alpha                90
_cell_angle_beta                 97.711(5)
_cell_angle_gamma                90
_cell_volume                     578.963
_exptl_crystal_colour            colorless
_exptl_crystal_description       platy
_cell_formula_units_Z            2
_exptl_crystal_recrystallization_method water
loop_
_atom_site_label
_atom_site_type_symbol
_atom_site_fract_x
_atom_site_fract_y
_atom_site_fract_z
C1 C -0.1955(5) 0.5891(6) 0.3933(2)
H1 H -0.0857 0.6397 0.4379
H2 H -0.2129 0.7206 0.3520
C2 C -0.1290(5) 0.3563(5) 0.35468(19)
C3 C 0.1218(5) 0.1617(6) 0.27985(18)
H3 H 0.0100 0.0505 0.2532
C4 C 0.2465(4) 0.0270(6) 0.35149(19)
C5 C 0.2631(6) 0.2367(6) 0.21624(18)
H6 H 0.1856 0.3520 0.1772
H7 H 0.3875 0.3229 0.2443
C6 C 0.3327(16) 0.0179(17) 0.1689(7)
C7 C 0.2054(13) -0.1015(18) 0.1067(7)
H8 H 0.0633 -0.0531 0.0928
C8 C 0.2859(17) -0.2916(14) 0.0650(5)
H9 H 0.1988 -0.3732 0.0225
C9 C 0.4937(18) -0.3624(10) 0.0854(5)
H10 H 0.5487 -0.4924 0.0568
C10 C 0.6211(13) -0.2431(15) 0.1475(6)
H11 H 0.7631 -0.2914 0.1615
C11 C 0.5406(14) -0.0529(17) 0.1893(6)
H12 H 0.6276 0.0287 0.2318
N1 N -0.3952(4) 0.5496(5) 0.42610(15)
H13 H -0.444(4) 0.392(4) 0.4153(15)
H14 H -0.382(4) 0.570(5) 0.4825(11)
H15 H -0.503(3) 0.647(5) 0.4005(14)
N2 N 0.0222(4) 0.3786(5) 0.30779(15)
H16 H 0.092(5) 0.525(4) 0.305(2)
O1 O -0.2138(3) 0.1628(4) 0.36764(14)
O2 O 0.3222(3) 0.1478(4) 0.41276(13)
O3 O 0.2740(3) -0.1995(4) 0.34280(13)
H4? H 0.1864 0.3577 0.1791
H5? H 0.3887 0.3188 0.2450
C12? C 0.334(3) 0.036(3) 0.1656(11)
C13? C 0.181(2) -0.046(4) 0.1073(11)
H17? H 0.0488 0.0326 0.1014
C14? C 0.209(3) -0.238(3) 0.0563(9)
H18? H 0.0980 -0.2903 0.0165
C15? C 0.402(3) -0.353(2) 0.0641(9)
H19? H 0.4236 -0.4862 0.0295
C16? C 0.563(3) -0.276(3) 0.1214(9)
H20? H 0.6955 -0.3549 0.1276
C17? C 0.524(3) -0.080(3) 0.1701(11)
H21? H 0.6359 -0.0228 0.2088
loop_
_geom_bond_atom_site_label_1
_geom_bond_atom_site_label_2
_geom_bond_site_symmetry_1
_geom_bond_site_symmetry_2
C1 H1 1_555 1_555
H2 C1 1_555 1_555
C2 C1 1_555 1_555
C3 H3 1_555 1_555
C4 C3 1_555 1_555
C5 C3 1_555 1_555
H6 C5 1_555 1_555
H7 C5 1_555 1_555
C6 C5 1_555 1_555
C7 C6 1_555 1_555
H8 C7 1_555 1_555
C8 C7 1_555 1_555
H9 C8 1_555 1_555
C9 C8 1_555 1_555
H10 C9 1_555 1_555
C10 C9 1_555 1_555
H11 C10 1_555 1_555
C11 C6 1_555 1_555
H12 C11 1_555 1_555
N1 C1 1_555 1_555
H13 N1 1_555 1_555
H14 N1 1_555 1_555
H15 N1 1_555 1_555
N2 C2 1_555 1_555
H16 N2 1_555 1_555
O1 C2 1_555 1_555
O2 C4 1_555 1_555
O3 C4 1_555 1_555
C3 N2 1_555 1_555
C10 C11 1_555 1_555

#END
