
#######################################################################
#
#                 Cambridge Crystallographic Data Centre
#                                CCDC 
#
#######################################################################
#
# If this CIF has been generated from an entry in the Cambridge 
# Structural Database, then it will include bibliographic, chemical, 
# crystal, experimental, refinement or atomic coordinate data resulting 
# from the CCDC's data processing and validation procedures.
#
#######################################################################

data_QUBCOH
_chemical_formula_moiety         'C28 H21 Br3 N2 O2'
_chemical_name_systematic        
3,6,10-tris(4-bromophenyl)-1-methyl-4-oxo-2,3-diazaspiro[4.5]deca-1,7-diene-7-carbaldehyde
_symmetry_cell_setting           hexagonal
_symmetry_space_group_name_H-M   'P 61'
_symmetry_Int_Tables_number      169
_space_group_name_Hall           'P 61'
loop_
_symmetry_equiv_pos_site_id
_symmetry_equiv_pos_as_xyz
1 x,y,z
2 -y,x-y,1/3+z
3 -x+y,-x,2/3+z
4 -x,-y,1/2+z
5 y,-x+y,5/6+z
6 x-y,x,1/6+z
_cell_length_a                   10.6997(2)
_cell_length_b                   10.6997(2)
_cell_length_c                   39.4376(7)
_cell_angle_alpha                90
_cell_angle_beta                 90
_cell_angle_gamma                120
_cell_volume                     3910.07
_exptl_crystal_colour            colorless
_exptl_crystal_description       prism
_cell_formula_units_Z            6
loop_
_atom_site_label
_atom_site_type_symbol
_atom_site_fract_x
_atom_site_fract_y
_atom_site_fract_z
Br1 Br 0.69542(6) -0.14627(6) 0.015374(11)
Br2 Br 0.09216(6) 0.25286(6) 0.285802(18)
Br3 Br 1.23216(5) 0.49869(7) 0.167215(19)
N1 N 0.5335(3) -0.0326(3) 0.15478(7)
N2 N 0.5225(3) 0.0929(3) 0.15781(7)
O1 O 0.5370(3) -0.2010(3) 0.19062(6)
O2 O 0.1497(3) -0.3409(3) 0.26698(8)
C1 C 0.6392(4) -0.1162(4) 0.05899(9)
C2 C 0.5844(4) -0.0246(4) 0.06228(9)
H1 H 0.5737 0.0210 0.0433
C3 C 0.5454(4) -0.0009(3) 0.09397(8)
H2 H 0.5071 0.0598 0.0963
C4 C 0.5628(3) -0.0668(3) 0.12219(8)
C5 C 0.6165(4) -0.1616(4) 0.11831(9)
H3 H 0.6266 -0.2080 0.1372
C6 C 0.6540(5) -0.1861(5) 0.08673(10)
H4 H 0.6892 -0.2493 0.0841
C7 C 0.5309(3) -0.0924(3) 0.18584(7)
C8 C 0.5149(3) 0.0026(3) 0.21224(8)
C9 C 0.5093(3) 0.1133(3) 0.18922(8)
C10 C 0.5053(5) 0.2456(4) 0.19966(10)
H5 H 0.5184 0.3042 0.1801
H6 H 0.5811 0.2994 0.2157
H7 H 0.4137 0.2180 0.2099
C11 C 0.3742(3) -0.0937(3) 0.23309(7)
H8 H 0.3043 -0.1657 0.2174
C12 C 0.3049(3) -0.0099(3) 0.24737(8)
C13 C 0.1878(4) -0.0162(4) 0.23066(10)
H9 H 0.1512 -0.0736 0.2114
C14 C 0.1241(4) 0.0622(5) 0.24225(11)
H10 H 0.0463 0.0584 0.2308
C15 C 0.1784(4) 0.1450(4) 0.27090(11)
C16 C 0.2910(4) 0.1495(4) 0.28847(11)
H11 H 0.3254 0.2053 0.3080
C17 C 0.3544(4) 0.0698(4) 0.27696(8)
H12 H 0.4292 0.0705 0.2891
C18 C 0.4004(4) -0.1752(3) 0.26065(8)
C19 C 0.5297(4) -0.1469(4) 0.27136(8)
H13 H 0.5338 -0.2021 0.2891
C20 C 0.6669(4) -0.0336(4) 0.25697(9)
H14 H 0.7080 -0.0784 0.2429
H15 H 0.7340 0.0164 0.2753
C21 C 0.6497(4) 0.0759(4) 0.23575(8)
H16 H 0.6315 0.1349 0.2518
C22 C 0.2717(4) -0.2987(4) 0.27572(10)
H17 H 0.2863 -0.3476 0.2934
C23 C 0.7888(4) 0.1790(4) 0.21738(9)
C24 C 0.8557(5) 0.3262(4) 0.22300(11)
H18 H 0.8119 0.3614 0.2375
C25 C 0.9854(5) 0.4232(5) 0.20784(13)
H19 H 1.0281 0.5218 0.2118
C26 C 1.0490(4) 0.3685(5) 0.18673(11)
C27 C 0.9866(4) 0.2223(4) 0.18001(11)
H20 H 1.0314 0.1881 0.1655
C28 C 0.8558(4) 0.1277(4) 0.19535(9)
H21 H 0.8123 0.0293 0.1909
loop_
_geom_bond_atom_site_label_1
_geom_bond_atom_site_label_2
_geom_bond_site_symmetry_1
_geom_bond_site_symmetry_2
Br1 C1 1_555 1_555
Br2 C15 1_555 1_555
Br3 C26 1_555 1_555
N1 N2 1_555 1_555
N2 C9 1_555 1_555
O1 C7 1_555 1_555
O2 C22 1_555 1_555
C1 C2 1_555 1_555
C2 H1 1_555 1_555
C3 C2 1_555 1_555
H2 C3 1_555 1_555
C4 N1 1_555 1_555
C5 C4 1_555 1_555
H3 C5 1_555 1_555
C6 C1 1_555 1_555
H4 C6 1_555 1_555
C7 N1 1_555 1_555
C8 C7 1_555 1_555
C9 C8 1_555 1_555
C10 C9 1_555 1_555
H5 C10 1_555 1_555
H6 C10 1_555 1_555
H7 C10 1_555 1_555
C11 C8 1_555 1_555
H8 C11 1_555 1_555
C12 C11 1_555 1_555
C13 C12 1_555 1_555
H9 C13 1_555 1_555
C14 C13 1_555 1_555
H10 C14 1_555 1_555
C15 C14 1_555 1_555
C16 C15 1_555 1_555
H11 C16 1_555 1_555
C17 C12 1_555 1_555
H12 C17 1_555 1_555
C18 C11 1_555 1_555
C19 C18 1_555 1_555
H13 C19 1_555 1_555
C20 C19 1_555 1_555
H14 C20 1_555 1_555
H15 C20 1_555 1_555
C21 C8 1_555 1_555
H16 C21 1_555 1_555
C22 C18 1_555 1_555
H17 C22 1_555 1_555
C23 C21 1_555 1_555
C24 C23 1_555 1_555
H18 C24 1_555 1_555
C25 C24 1_555 1_555
H19 C25 1_555 1_555
C26 C25 1_555 1_555
C27 C26 1_555 1_555
H20 C27 1_555 1_555
C28 C23 1_555 1_555
H21 C28 1_555 1_555
C3 C4 1_555 1_555
C5 C6 1_555 1_555
C16 C17 1_555 1_555
C20 C21 1_555 1_555
C27 C28 1_555 1_555

#END
