
#######################################################################
#
#                 Cambridge Crystallographic Data Centre
#                                CCDC 
#
#######################################################################
#
# If this CIF has been generated from an entry in the Cambridge 
# Structural Database, then it will include bibliographic, chemical, 
# crystal, experimental, refinement or atomic coordinate data resulting 
# from the CCDC's data processing and validation procedures.
#
#######################################################################

data_QUBCIB
_chemical_formula_moiety         'C19 H16 Br2 N2 O2'
_chemical_name_systematic        
1,4-bis(4-bromophenyl)-3-methyl-1,4,5,6-tetrahydropyrano[2,3-c]pyrazol-6-ol
_symmetry_cell_setting           orthorhombic
_symmetry_space_group_name_H-M   'P 21 21 21'
_symmetry_Int_Tables_number      19
_space_group_name_Hall           'P 2ac 2ab'
loop_
_symmetry_equiv_pos_site_id
_symmetry_equiv_pos_as_xyz
1 x,y,z
2 1/2-x,-y,1/2+z
3 -x,1/2+y,1/2-z
4 1/2+x,1/2-y,-z
_cell_length_a                   4.944(2)
_cell_length_b                   13.762(6)
_cell_length_c                   27.189(12)
_cell_angle_alpha                90
_cell_angle_beta                 90
_cell_angle_gamma                90
_cell_volume                     1849.92
_exptl_crystal_colour            colorless
_exptl_crystal_description       needle
_cell_formula_units_Z            4
loop_
_atom_site_label
_atom_site_type_symbol
_atom_site_fract_x
_atom_site_fract_y
_atom_site_fract_z
Br1 Br 0.3657(2) 0.99899(5) 1.04338(3)
Br2 Br 1.2295(2) 0.70178(6) 0.55116(2)
N1 N 0.6509(9) 0.8033(3) 0.74085(14)
O1 O 0.6994(8) 0.6557(2) 0.78365(12)
C1 C 0.7168(15) 0.8231(4) 0.6530(2)
H1 H 0.5747 0.8673 0.6524
O2 O 0.3192(8) 0.5623(2) 0.79925(14)
H2 H 0.3450 0.5081 0.7877
C2 C 0.3168(11) 0.8103(3) 0.90128(17)
C3 C 1.1422(13) 0.6919(4) 0.6547(2)
H3 H 1.2851 0.6480 0.6550
C4 C 0.7955(11) 0.7817(3) 0.69730(17)
C5 C 0.5933(11) 0.7459(3) 0.77971(17)
C6 C 0.4152(11) 0.7915(3) 0.80971(17)
C7 C 0.1456(12) 0.7943(4) 0.93998(19)
H4 H 0.0183 0.7448 0.9375
C8 C 0.5543(11) 0.5963(3) 0.81961(18)
H5 H 0.6680 0.5408 0.8288
C9 C 0.8454(13) 0.7996(4) 0.6107(2)
H6 H 0.7919 0.8279 0.5812
C10 C 0.4896(12) 0.6545(3) 0.86548(19)
H7 H 0.6579 0.6756 0.8804
H8 H 0.3987 0.6124 0.8888
C11 C 0.1549(14) 0.8488(4) 0.9823(2)
H9 H 0.0358 0.8365 1.0081
C12 C 0.3454(15) 0.9223(4) 0.9858(2)
C13 C 0.5263(15) 0.9383(4) 0.9487(2)
H10 H 0.6595 0.9855 0.9519
C14 C 1.0554(14) 0.7338(4) 0.6113(2)
N2 N 0.5063(10) 0.8887(3) 0.74420(16)
C15 C 0.3088(11) 0.7453(3) 0.85605(16)
H11 H 0.1221 0.7240 0.8505
C16 C 1.0111(12) 0.7170(4) 0.69782(19)
H12 H 1.0680 0.6903 0.7275
C17 C 0.1769(15) 0.9606(4) 0.8012(2)
H13 H 0.2093 1.0171 0.7812
H14 H 0.2072 0.9764 0.8351
H15 H -0.0066 0.9395 0.7968
C18 C 0.5091(14) 0.8832(4) 0.9060(2)
H16 H 0.6282 0.8953 0.8802
C19 C 0.3643(12) 0.8815(3) 0.78608(19)
loop_
_geom_bond_atom_site_label_1
_geom_bond_atom_site_label_2
_geom_bond_site_symmetry_1
_geom_bond_site_symmetry_2
Br1 C12 1_555 1_555
Br2 C14 1_555 1_555
N1 C4 1_555 1_555
O1 C5 1_555 1_555
C1 H1 1_555 1_555
O2 H2 1_555 1_555
C2 C7 1_555 1_555
C3 H3 1_555 1_555
C4 C1 1_555 1_555
C5 N1 1_555 1_555
C6 C5 1_555 1_555
C7 H4 1_555 1_555
C8 O1 1_555 1_555
H5 C8 1_555 1_555
C9 C1 1_555 1_555
H6 C9 1_555 1_555
C10 C8 1_555 1_555
H7 C10 1_555 1_555
H8 C10 1_555 1_555
C11 C7 1_555 1_555
H9 C11 1_555 1_555
C12 C11 1_555 1_555
C13 C12 1_555 1_555
H10 C13 1_555 1_555
C14 C3 1_555 1_555
N2 N1 1_555 1_555
C15 C2 1_555 1_555
H11 C15 1_555 1_555
C16 C3 1_555 1_555
H12 C16 1_555 1_555
C17 H13 1_555 1_555
H14 C17 1_555 1_555
H15 C17 1_555 1_555
C18 C2 1_555 1_555
H16 C18 1_555 1_555
C19 C6 1_555 1_555
O2 C8 1_555 1_555
C4 C16 1_555 1_555
C6 C15 1_555 1_555
C9 C14 1_555 1_555
C10 C15 1_555 1_555
C13 C18 1_555 1_555
N2 C19 1_555 1_555
C17 C19 1_555 1_555

#END
