
#######################################################################
#
#                 Cambridge Crystallographic Data Centre
#                                CCDC 
#
#######################################################################
#
# If this CIF has been generated from an entry in the Cambridge 
# Structural Database, then it will include bibliographic, chemical, 
# crystal, experimental, refinement or atomic coordinate data resulting 
# from the CCDC's data processing and validation procedures.
#
#######################################################################

data_QUBDIB
_chemical_formula_moiety         'C18 H18 N2 O4'
_chemical_name_systematic        1,4-bis(2-Methoxyphenyl)-2,5-piperazinedione
_symmetry_cell_setting           monoclinic
_symmetry_space_group_name_H-M   'P 21/c'
_symmetry_Int_Tables_number      14
_space_group_name_Hall           '-P 2ybc'
loop_
_symmetry_equiv_pos_site_id
_symmetry_equiv_pos_as_xyz
1 x,y,z
2 -x,1/2+y,1/2-z
3 -x,-y,-z
4 x,1/2-y,1/2+z
_cell_length_a                   5.6934(10)
_cell_length_b                   13.880(2)
_cell_length_c                   10.0329(17)
_cell_angle_alpha                90
_cell_angle_beta                 90.376(3)
_cell_angle_gamma                90
_cell_volume                     792.827
_exptl_crystal_colour            colorless
_chemical_melting_point          '210-212 deg.C'
_cell_formula_units_Z            2
_exptl_crystal_recrystallization_method 'ethyl acetate'
loop_
_atom_site_label
_atom_site_type_symbol
_atom_site_fract_x
_atom_site_fract_y
_atom_site_fract_z
O1 O 0.2126(3) 0.32155(13) 0.20534(17)
O2 O 0.1833(3) 0.55010(14) 0.18348(17)
N1 N 0.5075(3) 0.46391(14) 0.13059(18)
C1 C 0.0657(5) 0.2428(2) 0.2406(3)
C2 C 0.3745(4) 0.35049(18) 0.3002(2)
C3 C 0.3909(5) 0.31134(19) 0.4267(2)
C4 C 0.5613(5) 0.3454(2) 0.5145(3)
C5 C 0.7205(5) 0.4151(2) 0.4754(3)
C6 C 0.6997(4) 0.45255(19) 0.3484(2)
C7 C 0.5286(4) 0.42267(17) 0.2627(2)
C8 C 0.6815(5) 0.4330(2) 0.0353(2)
C9 C 0.3319(4) 0.52511(17) 0.1024(2)
O1B O 0.7874(3) 0.67845(13) -0.20534(17)
O2B O 0.8167(3) 0.44990(14) -0.18348(17)
N1B N 0.4925(3) 0.53609(14) -0.13059(18)
C1B C 0.9343(5) 0.7572(2) -0.2406(3)
C2B C 0.6255(4) 0.64951(18) -0.3002(2)
C3B C 0.6091(5) 0.68866(19) -0.4267(2)
C4B C 0.4387(5) 0.6546(2) -0.5145(3)
C5B C 0.2795(5) 0.5849(2) -0.4754(3)
C6B C 0.3003(4) 0.54745(19) -0.3484(2)
C7B C 0.4714(4) 0.57733(17) -0.2627(2)
C8B C 0.3185(5) 0.5670(2) -0.0353(2)
C9B C 0.6681(4) 0.47489(17) -0.1024(2)
loop_
_geom_bond_atom_site_label_1
_geom_bond_atom_site_label_2
_geom_bond_site_symmetry_1
_geom_bond_site_symmetry_2
O1 C1 1_555 1_555
O2 C9 1_555 1_555
N1 C7 1_555 1_555
C2 O1 1_555 1_555
C3 C2 1_555 1_555
C4 C3 1_555 1_555
C5 C4 1_555 1_555
C6 C5 1_555 1_555
C7 C2 1_555 1_555
C8 N1 1_555 1_555
C9 N1 1_555 1_555
O1B C1B 1_555 1_555
O2B C9B 1_555 1_555
N1B C7B 1_555 1_555
C2B O1B 1_555 1_555
C3B C2B 1_555 1_555
C4B C3B 1_555 1_555
C5B C4B 1_555 1_555
C6B C5B 1_555 1_555
C7B C2B 1_555 1_555
C8B C9 1_555 1_555
C9B C8 1_555 1_555
C6 C7 1_555 1_555
N1B C8B 1_555 1_555
N1B C9B 1_555 1_555
C6B C7B 1_555 1_555

#END
