
#######################################################################
#
#                 Cambridge Crystallographic Data Centre
#                                CCDC 
#
#######################################################################
#
# If this CIF has been generated from an entry in the Cambridge 
# Structural Database, then it will include bibliographic, chemical, 
# crystal, experimental, refinement or atomic coordinate data resulting 
# from the CCDC's data processing and validation procedures.
#
#######################################################################

data_QUBJII
_chemical_name_common            
'1-(4,4-dimethyl-1-oxido-5-phenyl-3,4-dihydro-2H-pyrrol-2-yl)-N-hydroxy-1-phenylmethanimine unknown solvate'
_chemical_formula_moiety         'C19 H20 N2 O2'
_chemical_name_systematic        
'(Z)-2-((hydroxyimino)(phenyl)methyl)-4,4-dimethyl-5-phenyl-3,4-dihydro-2H-pyrrole 1-oxide unknown solvate'
_symmetry_cell_setting           triclinic
_symmetry_space_group_name_H-M   'P -1'
_symmetry_Int_Tables_number      2
_space_group_name_Hall           '-P 1'
loop_
_symmetry_equiv_pos_site_id
_symmetry_equiv_pos_as_xyz
1 x,y,z
2 -x,-y,-z
_cell_length_a                   8.4089(8)
_cell_length_b                   10.0499(15)
_cell_length_c                   12.6368(17)
_cell_angle_alpha                102.268(12)
_cell_angle_beta                 103.727(10)
_cell_angle_gamma                110.298(11)
_cell_volume                     920.652
_exptl_crystal_colour            white
_exptl_crystal_description       block
_chemical_melting_point          '463-465 K'
_cell_formula_units_Z            2
_exptl_crystal_recrystallization_method 'Dichloromethane/ Petroleum ether'
loop_
_atom_site_label
_atom_site_type_symbol
_atom_site_fract_x
_atom_site_fract_y
_atom_site_fract_z
O1 O 0.1613(2) 1.05183(17) -0.04620(12)
H1 H 0.0996 1.0892 -0.0779
C1 C 0.5390(3) 0.7040(3) 0.2046(2)
H2 H 0.6498 0.7368 0.1887
H3 H 0.5008 0.6010 0.2012
H4 H 0.5571 0.7645 0.2800
C2 C 0.3939(3) 0.7197(2) 0.11492(18)
N1 N 0.2431(2) 1.1340(2) 0.07103(16)
C3 C 0.4529(3) 0.8821(3) 0.1114(2)
H5 H 0.5379 0.9530 0.1855
H6 H 0.5091 0.8945 0.0533
C4 C 0.4909(3) 1.3018(3) 0.2915(2)
H7 H 0.5013 1.3493 0.2362
O2 O 0.01823(19) 0.80415(18) 0.13593(14)
C5 C 0.3486(4) 0.6121(3) -0.0047(2)
H8 H 0.4547 0.6355 -0.0262
H9 H 0.2567 0.6225 -0.0597
H10 H 0.3059 0.5109 -0.0033
C6 C 0.0502(3) 0.6166(3) 0.2721(2)
H11 H 0.0465 0.7099 0.2905
C7 C -0.0266(4) 0.5146(3) 0.3217(2)
H12 H -0.0796 0.5401 0.3750
N2 N 0.1651(2) 0.79531(18) 0.12562(15)
C8 C 0.5730(4) 1.3867(3) 0.4062(3)
H13 H 0.6348 1.4903 0.4274
C9 C 0.2237(3) 0.6959(2) 0.14596(17)
C10 C 0.1359(3) 0.4425(3) 0.1677(2)
H14 H 0.1920 0.4180 0.1162
C11 C 0.2998(3) 1.0618(2) 0.13214(18)
C12 C 0.3938(3) 1.1485(2) 0.25602(19)
C13 C 0.0559(3) 0.3388(3) 0.2167(2)
H15 H 0.0574 0.2447 0.1977
C14 C 0.2819(3) 0.9056(2) 0.08217(18)
H16 H 0.2281 0.8741 -0.0018
C15 C 0.4750(6) 1.1687(4) 0.4573(3)
H17 H 0.4713 1.1222 0.5134
C16 C 0.1335(3) 0.5824(2) 0.19451(17)
C17 C 0.5638(4) 1.3193(4) 0.4884(3)
H18 H 0.6184 1.3767 0.5659
C18 C -0.0263(4) 0.3750(3) 0.2939(3)
H19 H -0.0811 0.3054 0.3267
C19 C 0.3895(5) 1.0831(3) 0.3418(2)
H20 H 0.3280 0.9797 0.3216
loop_
_geom_bond_atom_site_label_1
_geom_bond_atom_site_label_2
_geom_bond_site_symmetry_1
_geom_bond_site_symmetry_2
O1 H1 1_555 1_555
C1 H2 1_555 1_555
H3 C1 1_555 1_555
H4 C1 1_555 1_555
C2 C1 1_555 1_555
N1 O1 1_555 1_555
C3 C2 1_555 1_555
H5 C3 1_555 1_555
H6 C3 1_555 1_555
C4 H7 1_555 1_555
O2 N2 1_555 1_555
C5 C2 1_555 1_555
H8 C5 1_555 1_555
H9 C5 1_555 1_555
H10 C5 1_555 1_555
C6 H11 1_555 1_555
C7 C6 1_555 1_555
H12 C7 1_555 1_555
N2 C9 1_555 1_555
C8 C4 1_555 1_555
H13 C8 1_555 1_555
C9 C2 1_555 1_555
C10 H14 1_555 1_555
C11 N1 1_555 1_555
C12 C4 1_555 1_555
C13 C10 1_555 1_555
H15 C13 1_555 1_555
C14 C3 1_555 1_555
H16 C14 1_555 1_555
C15 H17 1_555 1_555
C16 C6 1_555 1_555
C17 C8 1_555 1_555
H18 C17 1_555 1_555
C18 C7 1_555 1_555
H19 C18 1_555 1_555
C19 C12 1_555 1_555
H20 C19 1_555 1_555
N2 C14 1_555 1_555
C9 C16 1_555 1_555
C10 C16 1_555 1_555
C11 C12 1_555 1_555
C11 C14 1_555 1_555
C13 C18 1_555 1_555
C15 C17 1_555 1_555
C15 C19 1_555 1_555

#END
