
#######################################################################
#
#                 Cambridge Crystallographic Data Centre
#                                CCDC 
#
#######################################################################
#
# If this CIF has been generated from an entry in the Cambridge 
# Structural Database, then it will include bibliographic, chemical, 
# crystal, experimental, refinement or atomic coordinate data resulting 
# from the CCDC's data processing and validation procedures.
#
#######################################################################

data_QUBVEQ
_chemical_name_common            
"Ethyl 2'',3-dioxo-7',7a'-dihydro-1'H,3H,3'H-dispiro[benzo[b]thiophene-2,6'-pyrrolo[1,2-c]thiazole-5',3''-indoline]-7'-carboxylate"
_chemical_formula_moiety         'C23 H20 N2 O4 S2'
_chemical_name_systematic        
"Ethyl 2'',3-dioxo-1'',2'',7',7a'-tetrahydro-1'H,3H-dispiro[1-benzothiophene-2,6'-pyrrolo[1,2-c][1,3]thiazole-5',3''-indole]-7'-carboxylate"
_symmetry_cell_setting           monoclinic
_symmetry_space_group_name_H-M   'P 21/c'
_symmetry_Int_Tables_number      14
_space_group_name_Hall           '-P 2ybc'
loop_
_symmetry_equiv_pos_site_id
_symmetry_equiv_pos_as_xyz
1 x,y,z
2 -x,1/2+y,1/2-z
3 -x,-y,-z
4 x,1/2-y,1/2+z
_cell_length_a                   11.8894(5)
_cell_length_b                   10.2181(4)
_cell_length_c                   17.5044(8)
_cell_angle_alpha                90
_cell_angle_beta                 97.991(2)
_cell_angle_gamma                90
_cell_volume                     2105.91
_exptl_crystal_colour            colorless
_exptl_crystal_description       Block
_cell_formula_units_Z            4
loop_
_atom_site_label
_atom_site_type_symbol
_atom_site_fract_x
_atom_site_fract_y
_atom_site_fract_z
C1 C 0.22511(16) -0.15734(19) 0.81332(11)
C2 C 0.22481(14) -0.12481(18) 0.72929(10)
H1 H 0.1500 -0.1486 0.7019
C3 C 0.31386(14) -0.19721(18) 0.69063(10)
H2 H 0.3821 -0.2098 0.7283
C4 C 0.26623(13) 0.00729(17) 0.62479(9)
C5 C 0.24619(13) 0.02012(17) 0.71114(9)
C6 C 0.15041(14) 0.11732(18) 0.72277(10)
C7 C 0.19513(13) 0.23396(18) 0.76473(10)
C8 C 0.13286(15) 0.3444(2) 0.77968(11)
H3 H 0.0549 0.3473 0.7640
C9 C 0.18760(17) 0.4486(2) 0.81770(13)
H4 H 0.1467 0.5223 0.8285
C10 C 0.30442(17) 0.4440(2) 0.84011(12)
H5 H 0.3411 0.5158 0.8650
C11 C 0.36685(15) 0.33556(19) 0.82629(11)
H6 H 0.4450 0.3338 0.8414
C12 C 0.31142(13) 0.22884(17) 0.78951(9)
C13 C 0.14879(13) -0.01360(18) 0.57169(9)
C14 C 0.22851(14) 0.17108(17) 0.52915(10)
C15 C 0.24522(16) 0.27754(19) 0.48425(11)
H7 H 0.1892 0.3057 0.4453
C16 C 0.34843(18) 0.34133(19) 0.49905(12)
H8 H 0.3620 0.4140 0.4697
C17 C 0.43177(17) 0.29921(19) 0.55657(12)
H9 H 0.5004 0.3441 0.5658
C18 C 0.41404(15) 0.19029(18) 0.60081(11)
H10 H 0.4710 0.1606 0.6386
C19 C 0.31061(13) 0.12661(17) 0.58786(10)
C20 C 0.35408(17) -0.17203(19) 0.55696(11)
H11 H 0.4206 -0.1392 0.5368
H12 H 0.2879 -0.1571 0.5189
N1 N 0.34078(11) -0.10643(14) 0.62958(8)
N2 N 0.13369(12) 0.08759(15) 0.52250(9)
O1 O 0.28776(14) -0.23233(15) 0.84987(8)
O2 O 0.05293(10) 0.09693(14) 0.69704(9)
O3 O 0.08550(10) -0.10764(13) 0.57322(7)
S1 S 0.37513(3) 0.07922(4) 0.77110(3)
S2 S 0.36970(5) -0.34399(5) 0.57908(3)
C21 C 0.27897(18) -0.3280(2) 0.65305(13)
H13 H 0.1995 -0.3274 0.6308
H14 H 0.2917 -0.3989 0.6901
C22 C -0.0015(4) -0.0975(10) 0.9230(3)
H15 H -0.0235 -0.1289 0.9704
H16 H -0.0522 -0.1320 0.8803
H17 H -0.0050 -0.0036 0.9220
C23 C 0.1165(5) -0.1407(8) 0.9171(3)
H18 H 0.1212 -0.2354 0.9163
H19 H 0.1689 -0.1080 0.9603
O4 O 0.1435(9) -0.0828(9) 0.8414(5)
H20 H 0.0730(15) 0.098(2) 0.4891(11)
C24? C 0.0427(18) -0.1791(17) 0.9270(6)
H21? H 0.0230 -0.1767 0.9784
H22? H 0.0661 -0.2661 0.9157
H23? H -0.0221 -0.1546 0.8908
C25? C 0.1380(12) -0.0854(14) 0.9211(8)
H24? H 0.1182 0.0052 0.9290
H25? H 0.2080 -0.1085 0.9537
O5? O 0.1378(19) -0.120(2) 0.8381(10)
loop_
_geom_bond_atom_site_label_1
_geom_bond_atom_site_label_2
_geom_bond_site_symmetry_1
_geom_bond_site_symmetry_2
C1 C2 1_555 1_555
C2 H1 1_555 1_555
C3 C2 1_555 1_555
H2 C3 1_555 1_555
C4 C5 1_555 1_555
C5 C2 1_555 1_555
C6 C5 1_555 1_555
C7 C6 1_555 1_555
C8 C7 1_555 1_555
H3 C8 1_555 1_555
C9 C8 1_555 1_555
H4 C9 1_555 1_555
C10 C9 1_555 1_555
H5 C10 1_555 1_555
C11 C10 1_555 1_555
H6 C11 1_555 1_555
C12 C7 1_555 1_555
C13 C4 1_555 1_555
C14 C15 1_555 1_555
C15 H7 1_555 1_555
C16 C15 1_555 1_555
H8 C16 1_555 1_555
C17 C16 1_555 1_555
H9 C17 1_555 1_555
C18 C17 1_555 1_555
H10 C18 1_555 1_555
C19 C4 1_555 1_555
C20 H11 1_555 1_555
H12 C20 1_555 1_555
N1 C3 1_555 1_555
N2 C13 1_555 1_555
O1 C1 1_555 1_555
O2 C6 1_555 1_555
O3 C13 1_555 1_555
S1 C5 1_555 1_555
S2 C20 1_555 1_555
C21 C3 1_555 1_555
H13 C21 1_555 1_555
H14 C21 1_555 1_555
C22 H15 1_555 1_555
H16 C22 1_555 1_555
H17 C22 1_555 1_555
C23 C22 1_555 1_555
H18 C23 1_555 1_555
H19 C23 1_555 1_555
O4 C1 1_555 1_555
H20 N2 1_555 1_555
C4 N1 1_555 1_555
C11 C12 1_555 1_555
C12 S1 1_555 1_555
C14 C19 1_555 1_555
C14 N2 1_555 1_555
C18 C19 1_555 1_555
C20 N1 1_555 1_555
S2 C21 1_555 1_555
C23 O4 1_555 1_555

#END
