
#######################################################################
#
#                 Cambridge Crystallographic Data Centre
#                                CCDC 
#
#######################################################################
#
# If this CIF has been generated from an entry in the Cambridge 
# Structural Database, then it will include bibliographic, chemical, 
# crystal, experimental, refinement or atomic coordinate data resulting 
# from the CCDC's data processing and validation procedures.
#
#######################################################################

data_QUBWUH
_chemical_formula_moiety         'C20 H16 N2 O5'
_chemical_name_systematic        
2-Methylamino-4-(4-methylphenyl)-3-nitro-4H,5H-pyrano[3,2-c]chromen-5-one
_symmetry_cell_setting           monoclinic
_symmetry_space_group_name_H-M   'P 21/n'
_symmetry_Int_Tables_number      14
_space_group_name_Hall           '-P 2yn'
loop_
_symmetry_equiv_pos_site_id
_symmetry_equiv_pos_as_xyz
1 x,y,z
2 1/2-x,1/2+y,1/2-z
3 -x,-y,-z
4 1/2+x,1/2-y,1/2+z
_cell_length_a                   10.8336(11)
_cell_length_b                   11.7927(11)
_cell_length_c                   13.7275(14)
_cell_angle_alpha                90
_cell_angle_beta                 108.357(2)
_cell_angle_gamma                90
_cell_volume                     1664.54
_exptl_crystal_colour            colorless
_exptl_crystal_description       block
_cell_formula_units_Z            4
_exptl_crystal_recrystallization_method ethanol
loop_
_atom_site_label
_atom_site_type_symbol
_atom_site_fract_x
_atom_site_fract_y
_atom_site_fract_z
C1 C 0.39731(17) 0.29273(15) 0.11931(14)
C2 C 0.3614(2) 0.18037(17) 0.11445(17)
H1 H 0.2802 0.1594 0.1181
C3 C 0.4481(2) 0.09986(18) 0.10411(18)
H2 H 0.4256 0.0235 0.1014
C4 C 0.5677(2) 0.13063(17) 0.09769(17)
H3 H 0.6246 0.0751 0.0895
C5 C 0.60377(19) 0.24263(17) 0.10328(15)
H4 H 0.6849 0.2629 0.0990
C6 C 0.51827(16) 0.32599(14) 0.11533(13)
C7 C 0.54773(16) 0.44453(14) 0.13040(13)
C8 C 0.70721(17) 0.58447(15) 0.13873(13)
C9 C 0.9063(2) 0.5072(2) 0.11560(18)
H5 H 0.9850 0.5386 0.1089
H6 H 0.8626 0.4640 0.0553
H7 H 0.9270 0.4587 0.1747
C10 C 0.62572(17) 0.66705(14) 0.15559(13)
C11 C 0.50320(16) 0.64000(14) 0.18012(13)
H8 H 0.4340 0.6918 0.1422
C12 C 0.46442(16) 0.52058(15) 0.14680(13)
C13 C 0.33590(17) 0.48409(16) 0.14373(14)
C14 C 0.52303(15) 0.65125(14) 0.29503(13)
C15 C 0.60210(17) 0.57475(15) 0.36318(14)
H9 H 0.6410 0.5159 0.3384
C16 C 0.62389(18) 0.58497(16) 0.46753(15)
H10 H 0.6773 0.5328 0.5120
C17 C 0.56764(17) 0.67147(16) 0.50698(14)
C18 C 0.5931(2) 0.6825(2) 0.62041(16)
H11 H 0.6515 0.6236 0.6554
H12 H 0.5127 0.6760 0.6354
H13 H 0.6316 0.7552 0.6431
C19 C 0.48681(18) 0.74572(16) 0.43833(15)
H14 H 0.4466 0.8037 0.4630
C20 C 0.46409(17) 0.73612(15) 0.33388(14)
H15 H 0.4087 0.7872 0.2894
N1 N 0.82208(16) 0.59828(15) 0.12756(13)
H16 H 0.8497 0.6666 0.1273
N2 N 0.66129(17) 0.78014(13) 0.15862(12)
O1 O 0.67089(11) 0.47326(10) 0.13148(10)
O2 O 0.30759(12) 0.37082(11) 0.12920(11)
O3 O 0.25155(13) 0.54490(13) 0.15308(14)
O4 O 0.58643(16) 0.85218(12) 0.17480(12)
O5 O 0.76697(15) 0.80934(12) 0.14575(12)
loop_
_geom_bond_atom_site_label_1
_geom_bond_atom_site_label_2
_geom_bond_site_symmetry_1
_geom_bond_site_symmetry_2
C1 C2 1_555 1_555
C2 H1 1_555 1_555
C3 C2 1_555 1_555
H2 C3 1_555 1_555
C4 C3 1_555 1_555
H3 C4 1_555 1_555
C5 C4 1_555 1_555
H4 C5 1_555 1_555
C6 C1 1_555 1_555
C7 C6 1_555 1_555
C8 C10 1_555 1_555
C9 H5 1_555 1_555
H6 C9 1_555 1_555
H7 C9 1_555 1_555
C10 C11 1_555 1_555
C11 H8 1_555 1_555
C12 C7 1_555 1_555
C13 C12 1_555 1_555
C14 C11 1_555 1_555
C15 C14 1_555 1_555
H9 C15 1_555 1_555
C16 C15 1_555 1_555
H10 C16 1_555 1_555
C17 C16 1_555 1_555
C18 C17 1_555 1_555
H11 C18 1_555 1_555
H12 C18 1_555 1_555
H13 C18 1_555 1_555
C19 C17 1_555 1_555
H14 C19 1_555 1_555
C20 C14 1_555 1_555
H15 C20 1_555 1_555
N1 C8 1_555 1_555
H16 N1 1_555 1_555
N2 C10 1_555 1_555
O1 C7 1_555 1_555
O2 C1 1_555 1_555
O3 C13 1_555 1_555
O4 N2 1_555 1_555
O5 N2 1_555 1_555
C5 C6 1_555 1_555
C8 O1 1_555 1_555
C9 N1 1_555 1_555
C11 C12 1_555 1_555
C13 O2 1_555 1_555
C19 C20 1_555 1_555

#END
