
#######################################################################
#
#                 Cambridge Crystallographic Data Centre
#                                CCDC 
#
#######################################################################
#
# If this CIF has been generated from an entry in the Cambridge 
# Structural Database, then it will include bibliographic, chemical, 
# crystal, experimental, refinement or atomic coordinate data resulting 
# from the CCDC's data processing and validation procedures.
#
#######################################################################

data_QUBWAN
_chemical_formula_moiety         'C25 H23 F1 N2 O4 S1'
_chemical_name_systematic        
"Ethyl 5''-fluoro-2'',3-dioxo-1'',2'',6',7',8',8a'-hexahydro-3H,5'H-dispiro[1-benzothiophene-2,1'-indolizine-3',3''-indole]-2'-carboxylate"
_symmetry_cell_setting           monoclinic
_symmetry_space_group_name_H-M   'P 21/c'
_symmetry_Int_Tables_number      14
_space_group_name_Hall           '-P 2ybc'
loop_
_symmetry_equiv_pos_site_id
_symmetry_equiv_pos_as_xyz
1 x,y,z
2 -x,1/2+y,1/2-z
3 -x,-y,-z
4 x,1/2-y,1/2+z
_cell_length_a                   13.877(2)
_cell_length_b                   11.8999(19)
_cell_length_c                   15.426(4)
_cell_angle_alpha                90
_cell_angle_beta                 116.463(4)
_cell_angle_gamma                90
_cell_volume                     2280.46
_exptl_crystal_colour            colorless
_exptl_crystal_description       block
_cell_formula_units_Z            4
loop_
_atom_site_label
_atom_site_type_symbol
_atom_site_fract_x
_atom_site_fract_y
_atom_site_fract_z
S1 S 0.35506(4) 0.59504(4) 0.45922(4)
F1 F 0.07518(12) 1.08370(13) 0.02567(10)
O1 O 0.42901(14) 0.75803(15) 0.29676(15)
O2 O 0.32609(12) 0.60522(12) 0.24108(12)
O3 O 0.06507(11) 0.61184(12) 0.25149(11)
O4 O 0.42650(12) 0.85900(12) 0.48990(10)
N1 N 0.18102(13) 0.86296(13) 0.36986(11)
N2 N 0.39881(14) 1.00547(14) 0.38496(13)
H1 H 0.453(2) 1.047(2) 0.4226(18)
C1 C 0.3758(4) 0.4290(3) 0.2058(4)
H2 H 0.4227 0.3898 0.1854
H3 H 0.3032 0.4248 0.1557
H4 H 0.3799 0.3950 0.2638
C2 C 0.4091(2) 0.5476(2) 0.2250(2)
H5 H 0.4781 0.5538 0.2817
H6 H 0.4155 0.5801 0.1701
C3 C 0.34861(16) 0.70724(17) 0.27985(16)
C4 C 0.25734(14) 0.74688(15) 0.29925(13)
H7 H 0.1921 0.7407 0.2377
C5 C 0.23753(14) 0.67371(15) 0.37302(13)
C6 C 0.10876(18) 0.73457(18) 0.44935(17)
H8 H 0.1225 0.6662 0.4873
H9 H 0.0443 0.7236 0.3890
C7 C 0.0934(2) 0.8330(2) 0.50504(19)
H10 H 0.0297 0.8203 0.5146
H11 H 0.1548 0.8380 0.5683
C8 C 0.0813(2) 0.9427(2) 0.45076(19)
H12 H 0.0129 0.9426 0.3930
H13 H 0.0806 1.0046 0.4914
C9 C 0.17105(19) 0.96107(17) 0.42185(17)
H14 H 0.1557 1.0270 0.3809
H15 H 0.2383 0.9737 0.4792
C10 C 0.20346(16) 0.76111(15) 0.42910(14)
H16 H 0.2660 0.7761 0.4912
C11 C 0.26183(14) 0.86879(15) 0.33304(13)
C12 C 0.23884(15) 0.95884(15) 0.25758(13)
C13 C 0.15370(16) 0.97322(17) 0.16708(14)
H17 H 0.0970 0.9223 0.1421
C14 C 0.15659(17) 1.06670(19) 0.11540(15)
C15 C 0.23724(19) 1.14452(19) 0.14926(17)
H18 H 0.2349 1.2064 0.1116
C16 C 0.32277(18) 1.13050(18) 0.24034(17)
H19 H 0.3788 1.1822 0.2652
C17 C 0.32165(16) 1.03742(16) 0.29245(14)
C18 C 0.37352(15) 0.90668(16) 0.41243(14)
C19 C 0.14945(14) 0.58543(15) 0.31808(14)
C20 C 0.18285(15) 0.47195(16) 0.35464(14)
C21 C 0.11991(19) 0.37579(17) 0.32308(17)
H20 H 0.0485 0.3808 0.2767
C22 C 0.1637(2) 0.27384(19) 0.3607(2)
H21 H 0.1221 0.2090 0.3404
C23 C 0.2707(2) 0.26735(18) 0.4297(2)
H22 H 0.3002 0.1973 0.4537
C24 C 0.33419(19) 0.36132(18) 0.46330(17)
H23 H 0.4053 0.3556 0.5101
C25 C 0.28901(16) 0.46518(16) 0.42540(14)
loop_
_geom_bond_atom_site_label_1
_geom_bond_atom_site_label_2
_geom_bond_site_symmetry_1
_geom_bond_site_symmetry_2
S1 C5 1_555 1_555
F1 C14 1_555 1_555
O1 C3 1_555 1_555
O2 C2 1_555 1_555
O3 C19 1_555 1_555
O4 C18 1_555 1_555
N1 C9 1_555 1_555
N2 H1 1_555 1_555
C1 H2 1_555 1_555
H3 C1 1_555 1_555
H4 C1 1_555 1_555
C2 C1 1_555 1_555
H5 C2 1_555 1_555
H6 C2 1_555 1_555
C3 O2 1_555 1_555
C4 C3 1_555 1_555
H7 C4 1_555 1_555
C5 C4 1_555 1_555
C6 H8 1_555 1_555
H9 C6 1_555 1_555
C7 C6 1_555 1_555
H10 C7 1_555 1_555
H11 C7 1_555 1_555
C8 C7 1_555 1_555
H12 C8 1_555 1_555
H13 C8 1_555 1_555
C9 C8 1_555 1_555
H14 C9 1_555 1_555
H15 C9 1_555 1_555
C10 N1 1_555 1_555
H16 C10 1_555 1_555
C11 N1 1_555 1_555
C12 C11 1_555 1_555
C13 C12 1_555 1_555
H17 C13 1_555 1_555
C14 C13 1_555 1_555
C15 C14 1_555 1_555
H18 C15 1_555 1_555
C16 C15 1_555 1_555
H19 C16 1_555 1_555
C17 N2 1_555 1_555
C18 N2 1_555 1_555
C19 C5 1_555 1_555
C20 C19 1_555 1_555
C21 C20 1_555 1_555
H20 C21 1_555 1_555
C22 C21 1_555 1_555
H21 C22 1_555 1_555
C23 C22 1_555 1_555
H22 C23 1_555 1_555
C24 C23 1_555 1_555
H23 C24 1_555 1_555
C25 S1 1_555 1_555
C4 C11 1_555 1_555
C5 C10 1_555 1_555
C6 C10 1_555 1_555
C11 C18 1_555 1_555
C12 C17 1_555 1_555
C16 C17 1_555 1_555
C20 C25 1_555 1_555
C24 C25 1_555 1_555

#END
