
#######################################################################
#
#                 Cambridge Crystallographic Data Centre
#                                CCDC 
#
#######################################################################
#
# If this CIF has been generated from an entry in the Cambridge 
# Structural Database, then it will include bibliographic, chemical, 
# crystal, experimental, refinement or atomic coordinate data resulting 
# from the CCDC's data processing and validation procedures.
#
#######################################################################

data_QUCCEX
_chemical_formula_moiety         'C16 H24 Ca1 N6 O10 S4'
_chemical_name_systematic        
Tetraaqua-bis(2-((2-carbamothioylhydrazinylidene)methyl)benzenesulfonato)-calcium(ii)
_symmetry_cell_setting           triclinic
_symmetry_space_group_name_H-M   'P -1'
_symmetry_Int_Tables_number      2
_space_group_name_Hall           '-P 1'
loop_
_symmetry_equiv_pos_site_id
_symmetry_equiv_pos_as_xyz
1 x,y,z
2 -x,-y,-z
_cell_length_a                   6.9123(11)
_cell_length_b                   9.6383(13)
_cell_length_c                   10.9481(17)
_cell_angle_alpha                64.3720(10)
_cell_angle_beta                 87.708(2)
_cell_angle_gamma                83.225(2)
_cell_volume                     652.995
_exptl_crystal_colour            colorless
_exptl_crystal_description       block
_cell_formula_units_Z            1
loop_
_atom_site_label
_atom_site_type_symbol
_atom_site_fract_x
_atom_site_fract_y
_atom_site_fract_z
Ca1 Ca 0.5000 0.5000 0.5000
S1 S 0.7458(2) 0.67806(16) 0.65974(13)
S2 S 1.0140(3) -0.13332(17) 1.21326(16)
O1 O 0.6451(7) 0.5503(5) 0.6662(4)
O2 O 0.6760(7) 0.8251(5) 0.5486(4)
O3 O 0.9554(7) 0.6437(6) 0.6624(5)
O4 O 0.7857(7) 0.5634(6) 0.3822(5)
H1 H 0.8364 0.6474 0.3401
H2 H 0.8592 0.4914 0.3730
O5 O 0.6194(10) 0.2408(6) 0.5851(8)
H3 H 0.5528 0.1878 0.5611
H4 H 0.7093 0.1806 0.6394
N1 N 0.9136(7) 0.1670(6) 1.0860(5)
H5 H 0.9541 0.1587 1.0139
N2 N 0.8339(7) 0.3076(5) 1.0789(5)
N3 N 0.8802(9) 0.0645(6) 1.3157(5)
H6 H 0.8420 0.1565 1.3071
H7 H 0.8874 -0.0123 1.3947
C1 C 0.9278(8) 0.0419(6) 1.2074(6)
C2 C 0.8137(8) 0.4179(6) 0.9586(6)
H8 H 0.8529 0.4001 0.8838
C3 C 0.7269(8) 0.5739(6) 0.9407(5)
C4 C 0.6848(8) 0.6971(6) 0.8118(5)
C5 C 0.6039(9) 0.8407(7) 0.7991(6)
H9 H 0.5791 0.9211 0.7133
C6 C 0.5592(9) 0.8668(7) 0.9128(7)
H10 H 0.5031 0.9635 0.9034
C7 C 0.5998(9) 0.7453(8) 1.0420(7)
H11 H 0.5721 0.7615 1.1190
C8 C 0.6807(9) 0.6020(7) 1.0545(6)
H12 H 0.7054 0.5219 1.1406
S1A S 0.2542(2) 0.32194(16) 0.34026(13)
S2A S -0.0140(3) 1.13332(17) -0.21326(16)
O1A O 0.3549(7) 0.4497(5) 0.3338(4)
O2A O 0.3240(7) 0.1749(5) 0.4514(4)
O3A O 0.0446(7) 0.3563(6) 0.3376(5)
O4A O 0.2143(7) 0.4366(6) 0.6178(5)
H1A H 0.1636 0.3526 0.6599
H2A H 0.1408 0.5086 0.6270
O5A O 0.3806(10) 0.7592(6) 0.4149(8)
H3A H 0.4472 0.8122 0.4389
H4A H 0.2907 0.8194 0.3606
N1A N 0.0864(7) 0.8330(6) -0.0860(5)
H5A H 0.0459 0.8413 -0.0139
N2A N 0.1661(7) 0.6924(5) -0.0789(5)
N3A N 0.1198(9) 0.9355(6) -0.3157(5)
H6A H 0.1580 0.8435 -0.3071
H7A H 0.1126 1.0123 -0.3947
C1A C 0.0722(8) 0.9581(6) -0.2074(6)
C2A C 0.1863(8) 0.5821(6) 0.0414(6)
H8A H 0.1471 0.5999 0.1162
C3A C 0.2731(8) 0.4261(6) 0.0593(5)
C4A C 0.3152(8) 0.3029(6) 0.1882(5)
C5A C 0.3961(9) 0.1593(7) 0.2009(6)
H9A H 0.4209 0.0789 0.2867
C6A C 0.4408(9) 0.1332(7) 0.0872(7)
H10A H 0.4969 0.0365 0.0966
C7A C 0.4002(9) 0.2547(8) -0.0420(7)
H11A H 0.4279 0.2385 -0.1190
C8A C 0.3193(9) 0.3980(7) -0.0545(6)
H12A H 0.2946 0.4781 -0.1406
loop_
_geom_bond_atom_site_label_1
_geom_bond_atom_site_label_2
_geom_bond_site_symmetry_1
_geom_bond_site_symmetry_2
Ca1 O1 1_555 1_555
S1 O1 1_555 1_555
S2 C1 1_555 1_555
O2 S1 1_555 1_555
O3 S1 1_555 1_555
O4 Ca1 1_555 1_555
H1 O4 1_555 1_555
H2 O4 1_555 1_555
O5 Ca1 1_555 1_555
H3 O5 1_555 1_555
H4 O5 1_555 1_555
N1 H5 1_555 1_555
N2 N1 1_555 1_555
N3 H6 1_555 1_555
H7 N3 1_555 1_555
C1 N1 1_555 1_555
C2 N2 1_555 1_555
H8 C2 1_555 1_555
C3 C2 1_555 1_555
C4 S1 1_555 1_555
C5 C4 1_555 1_555
H9 C5 1_555 1_555
C6 C5 1_555 1_555
H10 C6 1_555 1_555
C7 C6 1_555 1_555
H11 C7 1_555 1_555
C8 C3 1_555 1_555
H12 C8 1_555 1_555
S1A O1A 1_555 1_555
S2A C1A 1_555 1_555
O1A Ca1 1_555 1_555
O2A S1A 1_555 1_555
O3A S1A 1_555 1_555
O4A Ca1 1_555 1_555
H1A O4A 1_555 1_555
H2A O4A 1_555 1_555
O5A Ca1 1_555 1_555
H3A O5A 1_555 1_555
H4A O5A 1_555 1_555
N1A H5A 1_555 1_555
N2A N1A 1_555 1_555
N3A H6A 1_555 1_555
H7A N3A 1_555 1_555
C1A N1A 1_555 1_555
C2A N2A 1_555 1_555
H8A C2A 1_555 1_555
C3A C2A 1_555 1_555
C4A S1A 1_555 1_555
C5A C4A 1_555 1_555
H9A C5A 1_555 1_555
C6A C5A 1_555 1_555
H10A C6A 1_555 1_555
C7A C6A 1_555 1_555
H11A C7A 1_555 1_555
C8A C3A 1_555 1_555
H12A C8A 1_555 1_555
N3 C1 1_555 1_555
C3 C4 1_555 1_555
C7 C8 1_555 1_555
N3A C1A 1_555 1_555
C3A C4A 1_555 1_555
C7A C8A 1_555 1_555

#END
