
#######################################################################
#
#                 Cambridge Crystallographic Data Centre
#                                CCDC 
#
#######################################################################
#
# If this CIF has been generated from an entry in the Cambridge 
# Structural Database, then it will include bibliographic, chemical, 
# crystal, experimental, refinement or atomic coordinate data resulting 
# from the CCDC's data processing and validation procedures.
#
#######################################################################

data_QUCHUS
_chemical_formula_moiety         'C7 H3 Cl1 N2 O5'
_chemical_name_systematic        '3,5-Dinitrobenzoyl chloride'
_symmetry_cell_setting           orthorhombic
_symmetry_space_group_name_H-M   'P n a 21'
_symmetry_Int_Tables_number      33
_space_group_name_Hall           'P 2c -2n'
loop_
_symmetry_equiv_pos_site_id
_symmetry_equiv_pos_as_xyz
1 x,y,z
2 -x,-y,1/2+z
3 1/2+x,1/2-y,z
4 1/2-x,1/2+y,1/2+z
_cell_length_a                   18.295(4)
_cell_length_b                   8.3924(19)
_cell_length_c                   5.7362(13)
_cell_angle_alpha                90
_cell_angle_beta                 90
_cell_angle_gamma                90
_cell_volume                     880.73
_exptl_crystal_colour            colorless
_exptl_crystal_description       block
_cell_formula_units_Z            4
_exptl_crystal_recrystallization_method 'carbon tetrachloride'
loop_
_atom_site_label
_atom_site_type_symbol
_atom_site_fract_x
_atom_site_fract_y
_atom_site_fract_z
Cl1 Cl 0.43221(12) 0.5812(3) 0.3714(5)
C1 C 0.3864(3) 0.4499(11) 0.5519(12)
O1 O 0.3635(5) 0.4892(13) 0.7358(18)
C2 C 0.38140(12) 0.2885(3) 0.4413(4)
C3 C 0.41455(11) 0.2335(3) 0.2394(4)
H1 H 0.4468 0.2995 0.1526
C4 C 0.39917(11) 0.0787(2) 0.1677(4)
C5 C 0.35290(10) -0.0199(2) 0.2878(4)
H2 H 0.3428 -0.1251 0.2355
C6 C 0.32173(11) 0.0400(2) 0.4872(4)
C7 C 0.33439(11) 0.1924(2) 0.5677(4)
H3 H 0.3115 0.2303 0.7057
N1 N 0.43482(9) 0.0200(2) -0.0448(3)
N2 N 0.27342(10) -0.0636(2) 0.6268(3)
O2 O 0.47388(8) 0.10880(19) -0.1549(3)
O3 O 0.42041(8) -0.1304(2) -0.1076(3)
O4 O 0.25855(9) -0.19494(18) 0.5508(3)
O5 O 0.25255(10) -0.0136(3) 0.8142(4)
C8? C 0.4064(3) 0.4534(13) 0.4960(13)
Cl2? Cl 0.37524(15) 0.5156(3) 0.7640(4)
O6? O 0.4432(5) 0.5374(11) 0.377(2)
loop_
_geom_bond_atom_site_label_1
_geom_bond_atom_site_label_2
_geom_bond_site_symmetry_1
_geom_bond_site_symmetry_2
Cl1 C1 1_555 1_555
C1 O1 1_555 1_555
C2 C1 1_555 1_555
C3 C2 1_555 1_555
H1 C3 1_555 1_555
C4 C3 1_555 1_555
C5 C4 1_555 1_555
H2 C5 1_555 1_555
C6 C5 1_555 1_555
C7 C2 1_555 1_555
H3 C7 1_555 1_555
N1 C4 1_555 1_555
N2 C6 1_555 1_555
O2 N1 1_555 1_555
O3 N1 1_555 1_555
O4 N2 1_555 1_555
O5 N2 1_555 1_555
C6 C7 1_555 1_555

#END
