
#######################################################################
#
#                 Cambridge Crystallographic Data Centre
#                                CCDC 
#
#######################################################################
#
# If this CIF has been generated from an entry in the Cambridge 
# Structural Database, then it will include bibliographic, chemical, 
# crystal, experimental, refinement or atomic coordinate data resulting 
# from the CCDC's data processing and validation procedures.
#
#######################################################################

data_QUCJAA
_chemical_name_common            
'1,3,5-tris(1-phenylbenzimidazol-2-yl)benzene methanol solvate'
_chemical_formula_moiety         'C45 H30 N6,C1 H4 O1'
_chemical_name_systematic        
"2,2',2''-benzene-1,3,5-triyltris(1-phenyl-1H-benzimidazole) methanol solvate"
_symmetry_cell_setting           monoclinic
_symmetry_space_group_name_H-M   'P 21/c'
_symmetry_Int_Tables_number      14
_space_group_name_Hall           '-P 2ybc'
loop_
_symmetry_equiv_pos_site_id
_symmetry_equiv_pos_as_xyz
1 x,y,z
2 -x,1/2+y,1/2-z
3 -x,-y,-z
4 x,1/2-y,1/2+z
_cell_length_a                   11.253(2)
_cell_length_b                   18.692(4)
_cell_length_c                   17.763(4)
_cell_angle_alpha                90
_cell_angle_beta                 101.58(3)
_cell_angle_gamma                90
_cell_volume                     3660.24
_exptl_crystal_colour            white
_exptl_crystal_description       block
_cell_formula_units_Z            4
_exptl_crystal_recrystallization_method methanol
loop_
_atom_site_label
_atom_site_type_symbol
_atom_site_fract_x
_atom_site_fract_y
_atom_site_fract_z
C1 C 0.67816(14) 0.26248(9) 0.59902(9)
C2 C 0.76343(16) 0.18804(10) 0.53310(9)
C3 C 0.84043(18) 0.15308(11) 0.49281(11)
H1 H 0.9179 0.1704 0.4928
C4 C 0.7980(2) 0.09211(12) 0.45300(12)
H2 H 0.8478 0.0678 0.4257
C5 C 0.6827(2) 0.06613(11) 0.45271(11)
H3 H 0.6572 0.0246 0.4253
C6 C 0.60416(18) 0.09983(10) 0.49185(11)
H4 H 0.5264 0.0826 0.4911
C7 C 0.64802(15) 0.16091(9) 0.53243(9)
C8 C 0.46769(15) 0.20601(9) 0.57811(10)
C9 C 0.42339(19) 0.14782(11) 0.61197(13)
H5 H 0.4751 0.1114 0.6341
C10 C 0.3007(2) 0.14498(14) 0.61229(15)
H6 H 0.2692 0.1057 0.6337
C11 C 0.2254(2) 0.19923(16) 0.58148(16)
H7 H 0.1433 0.1971 0.5830
C12 C 0.26996(19) 0.25670(14) 0.54838(14)
H8 H 0.2184 0.2939 0.5283
C13 C 0.39177(16) 0.25975(11) 0.54466(11)
H9 H 0.4216 0.2976 0.5199
C14 C 0.47156(15) 0.39957(9) 0.78240(9)
C15 C 0.31701(16) 0.38001(11) 0.84005(10)
C16 C 0.22712(19) 0.35362(13) 0.87530(13)
H10 H 0.2223 0.3053 0.8870
C17 C 0.1447(2) 0.40314(16) 0.89222(15)
H11 H 0.0829 0.3878 0.9161
C18 C 0.1520(2) 0.47526(16) 0.87438(14)
H12 H 0.0937 0.5067 0.8854
C19 C 0.24308(19) 0.50124(12) 0.84088(12)
H13 H 0.2483 0.5496 0.8298
C20 C 0.32741(16) 0.45222(10) 0.82405(10)
C21 C 0.44315(15) 0.27268(9) 0.82388(10)
C22 C 0.55981(17) 0.25387(11) 0.85886(11)
H14 H 0.6175 0.2888 0.8765
C23 C 0.5890(2) 0.18240(13) 0.86714(15)
H15 H 0.6675 0.1687 0.8897
C24 C 0.5018(2) 0.13114(13) 0.84194(18)
H16 H 0.5219 0.0829 0.8475
C25 C 0.3868(2) 0.15060(12) 0.80906(16)
H17 H 0.3284 0.1156 0.7930
C26 C 0.35646(18) 0.22138(11) 0.79942(12)
H18 H 0.2778 0.2347 0.7765
C27 C 0.81789(15) 0.50360(9) 0.69485(10)
C28 C 0.93525(15) 0.59210(9) 0.73459(10)
C29 C 1.00798(17) 0.64426(11) 0.77757(12)
H19 H 1.0202 0.6451 0.8309
C30 C 1.0609(2) 0.69445(12) 0.73781(14)
H20 H 1.1105 0.7293 0.7652
C31 C 1.04256(19) 0.69455(12) 0.65845(14)
H21 H 1.0788 0.7300 0.6340
C32 C 0.97182(17) 0.64332(11) 0.61455(12)
H22 H 0.9596 0.6429 0.5612
C33 C 0.92006(15) 0.59245(9) 0.65505(10)
C34 C 0.79088(15) 0.52221(9) 0.55055(10)
C35 C 0.6804(2) 0.55176(12) 0.52083(12)
H23 H 0.6375 0.5760 0.5525
C36 C 0.6330(2) 0.54512(14) 0.44293(14)
H24 H 0.5576 0.5649 0.4222
C37 C 0.6958(2) 0.51002(13) 0.39669(13)
H25 H 0.6653 0.5077 0.3441
C38 C 0.8029(2) 0.47839(15) 0.42712(13)
H26 H 0.8443 0.4527 0.3956
C39 C 0.85137(18) 0.48410(13) 0.50520(11)
H27 H 0.9246 0.4620 0.5262
C40 C 0.66199(14) 0.32475(9) 0.64708(9)
C41 C 0.57686(15) 0.32759(9) 0.69462(9)
H28 H 0.5252 0.2890 0.6962
C42 C 0.56899(14) 0.38813(9) 0.73976(9)
C43 C 0.64966(15) 0.44444(9) 0.73921(9)
H29 H 0.6464 0.4840 0.7705
C44 C 0.73500(14) 0.44234(9) 0.69252(9)
C45 C 0.73934(15) 0.38286(9) 0.64583(9)
H30 H 0.7947 0.3819 0.6133
N1 N 0.78056(12) 0.25108(8) 0.57557(8)
N2 N 0.59401(12) 0.20906(7) 0.57505(8)
N3 N 0.41101(12) 0.34643(8) 0.81320(8)
N4 N 0.42540(13) 0.46350(8) 0.78866(8)
N5 N 0.86992(13) 0.53606(8) 0.75867(8)
N6 N 0.84508(12) 0.53411(8) 0.63005(8)
C46 C 0.0678(2) 0.15090(15) 0.15807(17)
H31 H 0.1492 0.1359 0.1572
H32 H 0.0246 0.1122 0.1759
H33 H 0.0700 0.1911 0.1919
O1 O 0.00881(14) 0.17053(11) 0.08356(10)
H34 H -0.0508 0.1950 0.0860
loop_
_geom_bond_atom_site_label_1
_geom_bond_atom_site_label_2
_geom_bond_site_symmetry_1
_geom_bond_site_symmetry_2
C1 C40 1_555 1_555
C2 C3 1_555 1_555
C3 H1 1_555 1_555
C4 C3 1_555 1_555
H2 C4 1_555 1_555
C5 C4 1_555 1_555
H3 C5 1_555 1_555
C6 C5 1_555 1_555
H4 C6 1_555 1_555
C7 C2 1_555 1_555
C8 C9 1_555 1_555
C9 H5 1_555 1_555
C10 C9 1_555 1_555
H6 C10 1_555 1_555
C11 C10 1_555 1_555
H7 C11 1_555 1_555
C12 C11 1_555 1_555
H8 C12 1_555 1_555
C13 C8 1_555 1_555
H9 C13 1_555 1_555
C14 C42 1_555 1_555
C15 C16 1_555 1_555
C16 H10 1_555 1_555
C17 C16 1_555 1_555
H11 C17 1_555 1_555
C18 C17 1_555 1_555
H12 C18 1_555 1_555
C19 C18 1_555 1_555
H13 C19 1_555 1_555
C20 C15 1_555 1_555
C21 C22 1_555 1_555
C22 H14 1_555 1_555
C23 C22 1_555 1_555
H15 C23 1_555 1_555
C24 C23 1_555 1_555
H16 C24 1_555 1_555
C25 C24 1_555 1_555
H17 C25 1_555 1_555
C26 C21 1_555 1_555
H18 C26 1_555 1_555
C27 C44 1_555 1_555
C28 C29 1_555 1_555
C29 H19 1_555 1_555
C30 C29 1_555 1_555
H20 C30 1_555 1_555
C31 C30 1_555 1_555
H21 C31 1_555 1_555
C32 C31 1_555 1_555
H22 C32 1_555 1_555
C33 C28 1_555 1_555
C34 C35 1_555 1_555
C35 H23 1_555 1_555
C36 C35 1_555 1_555
H24 C36 1_555 1_555
C37 C36 1_555 1_555
H25 C37 1_555 1_555
C38 C37 1_555 1_555
H26 C38 1_555 1_555
C39 C34 1_555 1_555
H27 C39 1_555 1_555
C40 C41 1_555 1_555
C41 H28 1_555 1_555
C42 C41 1_555 1_555
C43 C42 1_555 1_555
H29 C43 1_555 1_555
C44 C43 1_555 1_555
C45 C40 1_555 1_555
H30 C45 1_555 1_555
C46 H31 1_555 1_555
H32 C46 1_555 1_555
H33 C46 1_555 1_555
N1 C1 1_555 1_555
N2 C1 1_555 1_555
N3 C14 1_555 1_555
N4 C14 1_555 1_555
N5 C27 1_555 1_555
N6 C27 1_555 1_555
O1 C46 1_555 1_555
H34 O1 1_555 1_555
C2 N1 1_555 1_555
C6 C7 1_555 1_555
C7 N2 1_555 1_555
C8 N2 1_555 1_555
C12 C13 1_555 1_555
C15 N3 1_555 1_555
C19 C20 1_555 1_555
C20 N4 1_555 1_555
C21 N3 1_555 1_555
C25 C26 1_555 1_555
C28 N5 1_555 1_555
C32 C33 1_555 1_555
C33 N6 1_555 1_555
C34 N6 1_555 1_555
C38 C39 1_555 1_555
C44 C45 1_555 1_555

#END
