
#######################################################################
#
#                 Cambridge Crystallographic Data Centre
#                                CCDC 
#
#######################################################################
#
# If this CIF has been generated from an entry in the Cambridge 
# Structural Database, then it will include bibliographic, chemical, 
# crystal, experimental, refinement or atomic coordinate data resulting 
# from the CCDC's data processing and validation procedures.
#
#######################################################################

data_QUCLOQ
_chemical_formula_moiety         'C12 H9 N2 1+,C14 H9 O4 1-'
_chemical_name_systematic        
"1,10-Phenanthrolin-1-ium 2'-carboxybiphenyl-2-carboxylate"
_symmetry_cell_setting           monoclinic
_symmetry_space_group_name_H-M   'P 21/c'
_symmetry_Int_Tables_number      14
_space_group_name_Hall           '-P 2ybc'
loop_
_symmetry_equiv_pos_site_id
_symmetry_equiv_pos_as_xyz
1 x,y,z
2 -x,1/2+y,1/2-z
3 -x,-y,-z
4 x,1/2-y,1/2+z
_cell_length_a                   12.1661(13)
_cell_length_b                   7.3890(10)
_cell_length_c                   22.160(2)
_cell_angle_alpha                90
_cell_angle_beta                 91.0610(10)
_cell_angle_gamma                90
_cell_volume                     1991.74
_exptl_crystal_colour            brown
_exptl_crystal_description       block
_cell_formula_units_Z            4
loop_
_atom_site_label
_atom_site_type_symbol
_atom_site_fract_x
_atom_site_fract_y
_atom_site_fract_z
N1 N 0.4893(3) 0.7686(4) 0.46216(17)
H1 H 0.5462 0.8170 0.4464
N2 N 0.6719(3) 0.8548(5) 0.52863(18)
C1 C 0.4040(3) 0.7289(6) 0.4267(2)
H2 H 0.4063 0.7534 0.3856
C2 C 0.3115(3) 0.6510(6) 0.4508(3)
H3 H 0.2507 0.6248 0.4263
C3 C 0.3104(4) 0.6130(6) 0.5107(3)
H4 H 0.2485 0.5592 0.5270
C4 C 0.4003(3) 0.6533(5) 0.5482(2)
C5 C 0.4904(3) 0.7367(5) 0.5213(2)
C6 C 0.5865(3) 0.7782(6) 0.5575(2)
C7 C 0.5874(4) 0.7370(6) 0.6186(2)
C8 C 0.6842(5) 0.7747(7) 0.6519(2)
H5 H 0.6893 0.7497 0.6930
C9 C 0.7701(4) 0.8488(7) 0.6223(3)
H6 H 0.8354 0.8736 0.6431
C10 C 0.7609(4) 0.8868(7) 0.5623(2)
H7 H 0.8211 0.9386 0.5436
C11 C 0.4055(4) 0.6151(7) 0.6106(3)
H8 H 0.3450 0.5622 0.6287
C12 C 0.4940(4) 0.6525(7) 0.6443(3)
H9 H 0.4951 0.6231 0.6851
O1 O 0.3597(2) 0.4014(4) 0.10974(14)
O2 O 0.4735(2) 0.3641(5) 0.18797(16)
O3 O 0.1925(2) 0.5887(4) 0.07606(14)
H10 H 0.2419 0.5210 0.0878
O4 O 0.0140(3) 0.5855(4) 0.06817(18)
C13 C 0.3850(3) 0.4087(6) 0.1657(2)
C14 C 0.3001(3) 0.4868(5) 0.20651(19)
C15 C 0.3300(3) 0.6209(6) 0.2472(2)
H11 H 0.4031 0.6573 0.2498
C16 C 0.2558(4) 0.7001(6) 0.2831(2)
H12 H 0.2780 0.7916 0.3095
C17 C 0.1464(4) 0.6457(6) 0.2811(2)
H13 H 0.0950 0.7002 0.3057
C18 C 0.1159(3) 0.5112(6) 0.2422(2)
H14 H 0.0433 0.4714 0.2417
C19 C 0.1900(3) 0.4322(5) 0.20367(19)
C20 C 0.1484(3) 0.2851(5) 0.1628(2)
C21 C 0.1496(3) 0.1076(6) 0.1828(2)
H15 H 0.1820 0.0787 0.2199
C22 C 0.1030(4) -0.0250(6) 0.1479(2)
H16 H 0.1074 -0.1447 0.1607
C23 C 0.0497(4) 0.0149(6) 0.0943(2)
H17 H 0.0156 -0.0762 0.0718
C24 C 0.0474(3) 0.1894(6) 0.0745(2)
H18 H 0.0116 0.2177 0.0383
C25 C 0.0983(3) 0.3256(5) 0.1082(2)
C26 C 0.0970(3) 0.5087(6) 0.0828(2)
loop_
_geom_bond_atom_site_label_1
_geom_bond_atom_site_label_2
_geom_bond_site_symmetry_1
_geom_bond_site_symmetry_2
N1 H1 1_555 1_555
N2 C6 1_555 1_555
C1 N1 1_555 1_555
H2 C1 1_555 1_555
C2 C1 1_555 1_555
H3 C2 1_555 1_555
C3 C2 1_555 1_555
H4 C3 1_555 1_555
C4 C3 1_555 1_555
C5 N1 1_555 1_555
C6 C5 1_555 1_555
C7 C6 1_555 1_555
C8 C7 1_555 1_555
H5 C8 1_555 1_555
C9 C8 1_555 1_555
H6 C9 1_555 1_555
C10 N2 1_555 1_555
H7 C10 1_555 1_555
C11 C4 1_555 1_555
H8 C11 1_555 1_555
C12 C7 1_555 1_555
H9 C12 1_555 1_555
O1 C13 1_555 1_555
O2 C13 1_555 1_555
O3 H10 1_555 1_555
O4 C26 1_555 1_555
C13 C14 1_555 1_555
C14 C15 1_555 1_555
C15 H11 1_555 1_555
C16 C15 1_555 1_555
H12 C16 1_555 1_555
C17 C16 1_555 1_555
H13 C17 1_555 1_555
C18 C17 1_555 1_555
H14 C18 1_555 1_555
C19 C14 1_555 1_555
C20 C19 1_555 1_555
C21 C20 1_555 1_555
H15 C21 1_555 1_555
C22 C21 1_555 1_555
H16 C22 1_555 1_555
C23 C22 1_555 1_555
H17 C23 1_555 1_555
C24 C23 1_555 1_555
H18 C24 1_555 1_555
C25 C20 1_555 1_555
C26 O3 1_555 1_555
C4 C5 1_555 1_555
C9 C10 1_555 1_555
C11 C12 1_555 1_555
C18 C19 1_555 1_555
C24 C25 1_555 1_555
C25 C26 1_555 1_555

#END
