
#######################################################################
#
#                 Cambridge Crystallographic Data Centre
#                                CCDC 
#
#######################################################################
#
# If this CIF has been generated from an entry in the Cambridge 
# Structural Database, then it will include bibliographic, chemical, 
# crystal, experimental, refinement or atomic coordinate data resulting 
# from the CCDC's data processing and validation procedures.
#
#######################################################################

data_QUCLUW
_chemical_formula_moiety         'C5 H4 Br2 S4'
_chemical_name_systematic        
4-Bromo-5-((2-bromoethyl)sulfanyl)-1,3-dithiole-2-thione
_symmetry_cell_setting           monoclinic
_symmetry_space_group_name_H-M   'P 21/c'
_symmetry_Int_Tables_number      14
_space_group_name_Hall           '-P 2ybc'
loop_
_symmetry_equiv_pos_site_id
_symmetry_equiv_pos_as_xyz
1 x,y,z
2 -x,1/2+y,1/2-z
3 -x,-y,-z
4 x,1/2-y,1/2+z
_cell_length_a                   4.7892(12)
_cell_length_b                   20.381(5)
_cell_length_c                   10.809(3)
_cell_angle_alpha                90
_cell_angle_beta                 96.922(3)
_cell_angle_gamma                90
_cell_volume                     1047.36
_exptl_crystal_colour            yellow
_exptl_crystal_description       block
_chemical_melting_point          '331 K'
_cell_formula_units_Z            4
_exptl_crystal_recrystallization_method dichloromethane
loop_
_atom_site_label
_atom_site_type_symbol
_atom_site_fract_x
_atom_site_fract_y
_atom_site_fract_z
Br1 Br 0.33646(9) 0.39616(2) -0.03831(4)
Br2 Br -0.12031(10) 0.252098(19) 0.33275(4)
S1 S 0.6869(2) 0.39508(5) 0.69591(9)
S2 S 0.25370(18) 0.43827(4) 0.49022(8)
S3 S 0.3149(2) 0.30064(4) 0.54490(10)
S4 S -0.20103(18) 0.42118(5) 0.27552(9)
C1 C 0.4319(7) 0.37956(16) 0.5834(3)
C2 C 0.0385(7) 0.38613(16) 0.3924(3)
C3 C 0.0692(8) 0.32205(17) 0.4204(3)
C4 C 0.0261(7) 0.43820(17) 0.1567(3)
H1 H -0.0737 0.4654 0.0923
H2 H 0.1900 0.4623 0.1935
C5 C 0.1193(8) 0.37586(17) 0.0993(4)
H3 H -0.0441 0.3498 0.0686
H4 H 0.2340 0.3503 0.1620
loop_
_geom_bond_atom_site_label_1
_geom_bond_atom_site_label_2
_geom_bond_site_symmetry_1
_geom_bond_site_symmetry_2
Br1 C5 1_555 1_555
Br2 C3 1_555 1_555
S1 C1 1_555 1_555
S2 C1 1_555 1_555
S3 C1 1_555 1_555
S4 C2 1_555 1_555
C2 S2 1_555 1_555
C3 S3 1_555 1_555
C4 S4 1_555 1_555
H1 C4 1_555 1_555
H2 C4 1_555 1_555
C5 C4 1_555 1_555
H3 C5 1_555 1_555
H4 C5 1_555 1_555
C2 C3 1_555 1_555

#END
