
#######################################################################
#
#                 Cambridge Crystallographic Data Centre
#                                CCDC 
#
#######################################################################
#
# If this CIF has been generated from an entry in the Cambridge 
# Structural Database, then it will include bibliographic, chemical, 
# crystal, experimental, refinement or atomic coordinate data resulting 
# from the CCDC's data processing and validation procedures.
#
#######################################################################

data_QUCMUW
_chemical_compound_source        'seeds of Caesalpinia minax'
_chemical_formula_moiety         'C22 H28 O8,C1 H4 O1'
_chemical_name_systematic        'Caesalmin A methanol solvate'
_symmetry_cell_setting           orthorhombic
_symmetry_space_group_name_H-M   'P 21 21 21'
_symmetry_Int_Tables_number      19
_space_group_name_Hall           'P 2ac 2ab'
loop_
_symmetry_equiv_pos_site_id
_symmetry_equiv_pos_as_xyz
1 x,y,z
2 1/2-x,-y,1/2+z
3 -x,1/2+y,1/2-z
4 1/2+x,1/2-y,-z
_cell_length_a                   7.4653(15)
_cell_length_b                   16.806(3)
_cell_length_c                   17.955(4)
_cell_angle_alpha                90
_cell_angle_beta                 90
_cell_angle_gamma                90
_cell_volume                     2252.67
_exptl_crystal_colour            colorless
_exptl_crystal_description       block
_chemical_melting_point          179-180deg.C
_cell_formula_units_Z            4
loop_
_atom_site_label
_atom_site_type_symbol
_atom_site_fract_x
_atom_site_fract_y
_atom_site_fract_z
O1 O -0.03394(18) 0.13636(8) 0.48642(8)
H1 H -0.1007 0.1750 0.4839
O2 O 0.2356(2) 0.24071(8) 0.52947(8)
H2 H 0.1568 0.2306 0.5599
O3 O 0.05868(17) -0.01745(7) 0.49273(7)
H3 H -0.0001 0.0231 0.4996
O4 O 0.27731(18) -0.14451(8) 0.44641(8)
O5 O 0.5427(3) -0.16806(12) 0.39276(12)
O6 O 0.0543(2) -0.16253(8) 0.30927(8)
O7 O -0.1141(3) -0.19339(10) 0.20972(10)
O8 O -0.3012(2) 0.11370(9) 0.18648(9)
C1 C 0.1165(2) 0.14822(10) 0.43844(10)
H5 H 0.0906 0.1926 0.4046
C2 C 0.2765(3) 0.17023(11) 0.48715(11)
H6 H 0.3789 0.1817 0.4547
C3 C 0.3265(3) 0.10226(12) 0.53842(11)
H7 H 0.2281 0.0934 0.5727
H8 H 0.4296 0.1183 0.5677
C4 C 0.3709(3) 0.02252(11) 0.49939(11)
C5 C 0.2092(2) 0.00045(10) 0.44586(10)
C6 C 0.2373(2) -0.07749(10) 0.39872(10)
H9 H 0.3315 -0.0700 0.3614
C7 C 0.0612(3) -0.09542(10) 0.36235(10)
H10 H -0.0284 -0.1044 0.4013
C8 C -0.0008(2) -0.02865(10) 0.31414(10)
H11 H 0.0898 -0.0205 0.2754
C9 C -0.0284(2) 0.04942(10) 0.35301(10)
H12 H -0.1180 0.0411 0.3921
C10 C 0.1515(2) 0.07239(10) 0.39182(9)
C11 C -0.1068(3) 0.11068(11) 0.29695(12)
H13 H -0.1832 0.1480 0.3232
H14 H -0.0100 0.1404 0.2740
C12 C -0.2129(3) 0.06887(12) 0.23807(11)
C13 C -0.2411(3) -0.00970(11) 0.22472(10)
C14 C -0.1621(3) -0.06749(10) 0.27799(10)
H15 H -0.2509 -0.0770 0.3172
C15 C -0.3562(3) -0.01407(13) 0.16109(12)
H16 H -0.4003 -0.0598 0.1385
C16 C -0.3868(4) 0.06095(14) 0.14094(13)
H17 H -0.4580 0.0756 0.1007
C17 C -0.0780(3) -0.14727(11) 0.25854(12)
C18 C 0.3919(3) -0.03857(14) 0.56325(12)
H18 H 0.4912 -0.0236 0.5942
H19 H 0.4132 -0.0904 0.5426
H20 H 0.2843 -0.0396 0.5925
C19 C 0.5541(3) 0.02833(15) 0.46072(14)
H21 H 0.6441 0.0418 0.4968
H22 H 0.5496 0.0687 0.4230
H23 H 0.5829 -0.0219 0.4383
C20 C 0.2940(3) 0.09171(12) 0.33222(10)
H24 H 0.2531 0.1351 0.3019
H25 H 0.3133 0.0458 0.3015
H26 H 0.4042 0.1062 0.3562
C21 C 0.4267(3) -0.18683(13) 0.43476(13)
C22 C 0.4275(4) -0.25894(17) 0.4836(2)
H27 H 0.5352 -0.2888 0.4751
H28 H 0.3254 -0.2915 0.4721
H29 H 0.4223 -0.2429 0.5348
O9 O -0.4910(3) -0.21757(11) 0.15070(10)
H4 H -0.3833 -0.2113 0.1573
C23 C -0.5798(6) -0.2049(2) 0.21597(17)
H30 H -0.5426 -0.2436 0.2521
H31 H -0.7065 -0.2096 0.2077
H32 H -0.5530 -0.1525 0.2341
loop_
_geom_bond_atom_site_label_1
_geom_bond_atom_site_label_2
_geom_bond_site_symmetry_1
_geom_bond_site_symmetry_2
O1 H1 1_555 1_555
O2 H2 1_555 1_555
O3 H3 1_555 1_555
O4 C6 1_555 1_555
O5 C21 1_555 1_555
O6 C7 1_555 1_555
O7 C17 1_555 1_555
O8 C12 1_555 1_555
O9 H4 1_555 1_555
C1 O1 1_555 1_555
H5 C1 1_555 1_555
C2 O2 1_555 1_555
H6 C2 1_555 1_555
C3 C2 1_555 1_555
H7 C3 1_555 1_555
H8 C3 1_555 1_555
C4 C3 1_555 1_555
C5 O3 1_555 1_555
C6 C5 1_555 1_555
H9 C6 1_555 1_555
C7 C6 1_555 1_555
H10 C7 1_555 1_555
C8 C7 1_555 1_555
H11 C8 1_555 1_555
C9 C8 1_555 1_555
H12 C9 1_555 1_555
C10 C1 1_555 1_555
C11 C9 1_555 1_555
H13 C11 1_555 1_555
H14 C11 1_555 1_555
C12 C11 1_555 1_555
C13 C12 1_555 1_555
C14 C8 1_555 1_555
H15 C14 1_555 1_555
C15 C13 1_555 1_555
H16 C15 1_555 1_555
C16 O8 1_555 1_555
H17 C16 1_555 1_555
C17 O6 1_555 1_555
C18 C4 1_555 1_555
H18 C18 1_555 1_555
H19 C18 1_555 1_555
H20 C18 1_555 1_555
C19 C4 1_555 1_555
H21 C19 1_555 1_555
H22 C19 1_555 1_555
H23 C19 1_555 1_555
C20 C10 1_555 1_555
H24 C20 1_555 1_555
H25 C20 1_555 1_555
H26 C20 1_555 1_555
C21 O4 1_555 1_555
C22 C21 1_555 1_555
H27 C22 1_555 1_555
H28 C22 1_555 1_555
H29 C22 1_555 1_555
C23 O9 1_555 1_555
H30 C23 1_555 1_555
H31 C23 1_555 1_555
H32 C23 1_555 1_555
C1 C2 1_555 1_555
C4 C5 1_555 1_555
C5 C10 1_555 1_555
C9 C10 1_555 1_555
C13 C14 1_555 1_555
C14 C17 1_555 1_555
C15 C16 1_555 1_555

#END
