
#######################################################################
#
#                 Cambridge Crystallographic Data Centre
#                                CCDC 
#
#######################################################################
#
# If this CIF has been generated from an entry in the Cambridge 
# Structural Database, then it will include bibliographic, chemical, 
# crystal, experimental, refinement or atomic coordinate data resulting 
# from the CCDC's data processing and validation procedures.
#
#######################################################################

data_QUCNAD
_chemical_compound_source        'seeds of Caesalpinia minax'
_chemical_formula_moiety         'C22 H28 O6,0.5(C3 H6 O1)'
_chemical_name_systematic        'Caesalmin B acetone solvate'
_symmetry_cell_setting           triclinic
_symmetry_space_group_name_H-M   'P 1'
_symmetry_Int_Tables_number      1
_space_group_name_Hall           'P 1'
loop_
_symmetry_equiv_pos_site_id
_symmetry_equiv_pos_as_xyz
1 x,y,z
_cell_length_a                   8.9126(19)
_cell_length_b                   10.586(2)
_cell_length_c                   12.623(3)
_cell_angle_alpha                96.834(5)
_cell_angle_beta                 99.642(5)
_cell_angle_gamma                107.439(4)
_cell_volume                     1101.9
_exptl_crystal_colour            colorless
_exptl_crystal_description       block
_chemical_melting_point          148-149deg.C
_cell_formula_units_Z            2
_exptl_crystal_recrystallization_method hexane/acetone
loop_
_atom_site_label
_atom_site_type_symbol
_atom_site_fract_x
_atom_site_fract_y
_atom_site_fract_z
O1 O 0.6163(4) 0.5454(4) -0.2665(3)
O2 O 0.4447(7) 0.6443(5) -0.2132(4)
O3 O 0.8210(4) 0.4112(3) -0.3281(3)
H1 H 0.7525 0.4463 -0.3463
O4 O 1.2074(4) 0.3969(4) -0.1044(3)
O5 O 1.4095(5) 0.5202(4) 0.0354(3)
O6 O 1.0125(5) 0.7561(4) 0.1760(3)
C1 C 0.5745(6) 0.4446(5) -0.1970(4)
H2 H 0.5414 0.4837 -0.1341
C2 C 0.4328(6) 0.3250(6) -0.2637(4)
H3 H 0.3924 0.2638 -0.2158
H4 H 0.3467 0.3571 -0.2943
C3 C 0.4802(7) 0.2493(6) -0.3560(4)
H5 H 0.5076 0.3079 -0.4083
H6 H 0.3877 0.1724 -0.3932
C4 C 0.6225(7) 0.1998(5) -0.3190(4)
C5 C 0.7711(7) 0.3250(5) -0.2525(4)
C6 C 0.9216(6) 0.2848(5) -0.2128(4)
H7 H 0.9018 0.2271 -0.1589
H8 H 0.9474 0.2365 -0.2736
C7 C 1.0574(6) 0.4123(5) -0.1635(4)
H9 H 1.0823 0.4653 -0.2206
C8 C 1.0161(6) 0.4930(5) -0.0764(4)
H10 H 0.9893 0.4348 -0.0227
C9 C 0.8730(6) 0.5396(5) -0.1078(4)
H11 H 0.8920 0.5917 -0.1663
C10 C 0.7250(6) 0.4085(5) -0.1562(4)
C11 C 0.8591(7) 0.6347(6) -0.0076(4)
H12 H 0.8318 0.7100 -0.0323
H13 H 0.7732 0.5858 0.0249
C12 C 1.0129(7) 0.6867(5) 0.0765(4)
C13 C 1.1579(7) 0.6758(5) 0.0749(4)
C14 C 1.1789(6) 0.5972(5) -0.0239(4)
H14 H 1.2087 0.6583 -0.0750
C15 C 1.2589(8) 0.7411(6) 0.1796(5)
H15 H 1.3669 0.7505 0.2033
C16 C 1.1659(9) 0.7855(6) 0.2359(5)
H16 H 1.2008 0.8313 0.3078
C17 C 1.2810(7) 0.5079(6) -0.0227(5)
C18 C 0.6645(8) 0.1419(7) -0.4239(5)
H17 H 0.5744 0.0666 -0.4642
H18 H 0.7562 0.1131 -0.4049
H19 H 0.6889 0.2101 -0.4681
C19 C 0.5682(8) 0.0826(6) -0.2573(5)
H20 H 0.4783 0.0121 -0.3036
H21 H 0.5371 0.1141 -0.1927
H22 H 0.6555 0.0486 -0.2373
C20 C 0.6866(7) 0.3286(5) -0.0624(4)
H23 H 0.6597 0.3829 -0.0070
H24 H 0.7791 0.3062 -0.0314
H25 H 0.5973 0.2475 -0.0912
C21 C 0.5457(8) 0.6424(6) -0.2638(5)
C22 C 0.6116(9) 0.7437(7) -0.3311(6)
H26 H 0.5602 0.8114 -0.3273
H27 H 0.5916 0.7000 -0.4056
H28 H 0.7255 0.7850 -0.3036
O7 O 1.2306(11) 0.8559(9) 0.5185(7)
C23 C 1.0213(18) 0.9152(16) 0.5707(12)
H29 H 1.0514 0.9833 0.5272
H30 H 1.0354 0.9570 0.6451
H31 H 0.9105 0.8614 0.5430
C24 C 1.1166(13) 0.8347(11) 0.5661(8)
C25 C 1.0938(12) 0.7219(10) 0.6265(8)
H32 H 1.1675 0.6748 0.6132
H33 H 0.9854 0.6614 0.6023
H34 H 1.1138 0.7561 0.7032
O8 O 0.4506(4) 0.4712(4) 0.3094(3)
O9 O 0.6736(5) 0.5378(5) 0.4436(4)
O10 O 0.1574(5) 0.3931(4) 0.1612(3)
H35 H 0.2431 0.4485 0.1951
O11 O -0.0337(5) 0.0239(4) -0.0340(3)
O12 O 0.0360(6) -0.1189(5) -0.1452(4)
O13 O 0.5956(5) -0.0002(5) 0.1324(4)
C26 C 0.3724(7) 0.3630(5) 0.3653(4)
H36 H 0.4536 0.3292 0.4032
C27 C 0.2952(8) 0.4225(7) 0.4478(4)
H37 H 0.2538 0.3559 0.4915
H38 H 0.3765 0.4992 0.4965
C28 C 0.1596(8) 0.4668(6) 0.3940(5)
H39 H 0.2038 0.5390 0.3559
H40 H 0.1144 0.5029 0.4505
C29 C 0.0241(7) 0.3556(6) 0.3130(4)
C30 C 0.1018(6) 0.2921(5) 0.2263(4)
C31 C -0.0265(6) 0.1750(5) 0.1418(4)
H41 H -0.0648 0.0972 0.1756
H42 H -0.1175 0.2022 0.1127
C32 C 0.0549(6) 0.1423(5) 0.0527(4)
H43 H 0.0887 0.2216 0.0184
C33 C 0.1993(6) 0.1065(5) 0.0959(4)
H44 H 0.1616 0.0261 0.1281
C34 C 0.3292(6) 0.2096(5) 0.1829(4)
H45 H 0.3718 0.2901 0.1517
C35 C 0.2487(6) 0.2485(5) 0.2781(4)
C36 C 0.4692(7) 0.1504(7) 0.2156(5)
H46 H 0.5711 0.2230 0.2388
H47 H 0.4511 0.1033 0.2761
C37 C 0.4755(7) 0.0555(6) 0.1202(6)
C38 C 0.3800(8) 0.0094(6) 0.0204(5)
C39 C 0.2428(7) 0.0614(6) -0.0096(4)
H48 H 0.2800 0.1399 -0.0441
C40 C 0.4480(10) -0.0810(6) -0.0357(7)
H49 H 0.4107 -0.1280 -0.1071
C41 C 0.5733(10) -0.0826(8) 0.0356(8)
H50 H 0.6387 -0.1337 0.0215
C42 C 0.0760(8) -0.0237(7) -0.0722(5)
C43 C -0.0895(8) 0.4238(7) 0.2535(5)
H51 H -0.1382 0.4625 0.3054
H52 H -0.1720 0.3577 0.1982
H53 H -0.0284 0.4932 0.2204
C44 C -0.0785(8) 0.2565(8) 0.3718(5)
H54 H -0.1208 0.3041 0.4223
H55 H -0.0134 0.2121 0.4108
H56 H -0.1658 0.1908 0.3193
C45 C 0.1964(7) 0.1276(6) 0.3371(4)
H57 H 0.1469 0.1513 0.3950
H58 H 0.2890 0.1046 0.3670
H59 H 0.1206 0.0519 0.2859
C46 C 0.6018(7) 0.5517(6) 0.3593(6)
C47 C 0.6620(8) 0.6568(8) 0.2948(7)
H60 H 0.7690 0.7129 0.3309
H61 H 0.5925 0.7106 0.2882
H62 H 0.6634 0.6149 0.2234
loop_
_geom_bond_atom_site_label_1
_geom_bond_atom_site_label_2
_geom_bond_site_symmetry_1
_geom_bond_site_symmetry_2
O1 C1 1_555 1_555
O2 C21 1_555 1_555
O3 H1 1_555 1_555
O4 C7 1_555 1_555
O5 C17 1_555 1_555
O6 C12 1_555 1_555
O7 C24 1_555 1_555
C1 H2 1_555 1_555
C2 C1 1_555 1_555
H3 C2 1_555 1_555
H4 C2 1_555 1_555
C3 C2 1_555 1_555
H5 C3 1_555 1_555
H6 C3 1_555 1_555
C4 C3 1_555 1_555
C5 O3 1_555 1_555
C6 C5 1_555 1_555
H7 C6 1_555 1_555
H8 C6 1_555 1_555
C7 C6 1_555 1_555
H9 C7 1_555 1_555
C8 C7 1_555 1_555
H10 C8 1_555 1_555
C9 C8 1_555 1_555
H11 C9 1_555 1_555
C10 C1 1_555 1_555
C11 C9 1_555 1_555
H12 C11 1_555 1_555
H13 C11 1_555 1_555
C12 C11 1_555 1_555
C13 C12 1_555 1_555
C14 C8 1_555 1_555
H14 C14 1_555 1_555
C15 C13 1_555 1_555
H15 C15 1_555 1_555
C16 O6 1_555 1_555
H16 C16 1_555 1_555
C17 O4 1_555 1_555
C18 C4 1_555 1_555
H17 C18 1_555 1_555
H18 C18 1_555 1_555
H19 C18 1_555 1_555
C19 C4 1_555 1_555
H20 C19 1_555 1_555
H21 C19 1_555 1_555
H22 C19 1_555 1_555
C20 C10 1_555 1_555
H23 C20 1_555 1_555
H24 C20 1_555 1_555
H25 C20 1_555 1_555
C21 O1 1_555 1_555
C22 C21 1_555 1_555
H26 C22 1_555 1_555
H27 C22 1_555 1_555
H28 C22 1_555 1_555
C23 H29 1_555 1_555
H30 C23 1_555 1_555
H31 C23 1_555 1_555
C24 C23 1_555 1_555
C25 C24 1_555 1_555
H32 C25 1_555 1_555
H33 C25 1_555 1_555
H34 C25 1_555 1_555
O8 C26 1_555 1_555
O9 C46 1_555 1_555
O10 H35 1_555 1_555
O11 C32 1_555 1_555
O12 C42 1_555 1_555
O13 C37 1_555 1_555
C26 H36 1_555 1_555
C27 C26 1_555 1_555
H37 C27 1_555 1_555
H38 C27 1_555 1_555
C28 C27 1_555 1_555
H39 C28 1_555 1_555
H40 C28 1_555 1_555
C29 C28 1_555 1_555
C30 O10 1_555 1_555
C31 C30 1_555 1_555
H41 C31 1_555 1_555
H42 C31 1_555 1_555
C32 C31 1_555 1_555
H43 C32 1_555 1_555
C33 C32 1_555 1_555
H44 C33 1_555 1_555
C34 C33 1_555 1_555
H45 C34 1_555 1_555
C35 C26 1_555 1_555
C36 C34 1_555 1_555
H46 C36 1_555 1_555
H47 C36 1_555 1_555
C37 C36 1_555 1_555
C38 C37 1_555 1_555
C39 C33 1_555 1_555
H48 C39 1_555 1_555
C40 C38 1_555 1_555
H49 C40 1_555 1_555
C41 O13 1_555 1_555
H50 C41 1_555 1_555
C42 O11 1_555 1_555
C43 C29 1_555 1_555
H51 C43 1_555 1_555
H52 C43 1_555 1_555
H53 C43 1_555 1_555
C44 C29 1_555 1_555
H54 C44 1_555 1_555
H55 C44 1_555 1_555
H56 C44 1_555 1_555
C45 C35 1_555 1_555
H57 C45 1_555 1_555
H58 C45 1_555 1_555
H59 C45 1_555 1_555
C46 O8 1_555 1_555
C47 C46 1_555 1_555
H60 C47 1_555 1_555
H61 C47 1_555 1_555
H62 C47 1_555 1_555
C4 C5 1_555 1_555
C5 C10 1_555 1_555
C9 C10 1_555 1_555
C13 C14 1_555 1_555
C14 C17 1_555 1_555
C15 C16 1_555 1_555
C29 C30 1_555 1_555
C30 C35 1_555 1_555
C34 C35 1_555 1_555
C38 C39 1_555 1_555
C39 C42 1_555 1_555
C40 C41 1_555 1_555

#END
