
#######################################################################
#
#                 Cambridge Crystallographic Data Centre
#                                CCDC 
#
#######################################################################
#
# If this CIF has been generated from an entry in the Cambridge 
# Structural Database, then it will include bibliographic, chemical, 
# crystal, experimental, refinement or atomic coordinate data resulting 
# from the CCDC's data processing and validation procedures.
#
#######################################################################

data_QUCSIS
_chemical_formula_moiety         'C20 H15 Br1 O2'
_chemical_name_systematic        
3-Bromo-1-methyl-1-(3-oxo-3-phenylprop-1-en-1-yl)naphthalen-2(1H)-one
_symmetry_cell_setting           monoclinic
_symmetry_space_group_name_H-M   'P 21'
_symmetry_Int_Tables_number      4
_space_group_name_Hall           'P 2yb'
loop_
_symmetry_equiv_pos_site_id
_symmetry_equiv_pos_as_xyz
1 x,y,z
2 -x,1/2+y,-z
_cell_length_a                   9.9955(6)
_cell_length_b                   11.5150(8)
_cell_length_c                   14.4883(7)
_cell_angle_alpha                90
_cell_angle_beta                 94.752(5)
_cell_angle_gamma                90
_cell_volume                     1661.84
_exptl_crystal_colour            colorless
_exptl_crystal_description       block
_cell_formula_units_Z            4
loop_
_atom_site_label
_atom_site_type_symbol
_atom_site_fract_x
_atom_site_fract_y
_atom_site_fract_z
Br1 Br -0.49864(9) -0.78159(9) -0.08441(6)
O1 O -0.4455(5) -1.0322(6) -0.0221(3)
O2 O -0.1488(5) -1.0251(6) -0.1041(4)
C1 C -0.4321(8) -0.9069(8) -0.1498(5)
C2 C -0.4251(7) -1.0191(9) -0.1024(5)
C3 C -0.4079(7) -1.1251(8) -0.1635(5)
C4 C -0.3485(7) -1.1012(8) -0.2551(5)
C5 C -0.3073(8) -1.1922(8) -0.3092(6)
H1 H -0.3147 -1.2684 -0.2890
C6 C -0.2551(9) -1.1693(10) -0.3932(6)
H2 H -0.2268 -1.2303 -0.4288
C7 C -0.2453(8) -1.0572(11) -0.4239(6)
H3 H -0.2118 -1.0422 -0.4807
C8 C -0.2855(7) -0.9665(8) -0.3699(6)
H4 H -0.2778 -0.8903 -0.3900
C9 C -0.3371(7) -0.9891(8) -0.2859(5)
C10 C -0.3867(7) -0.8932(8) -0.2330(5)
H5 H -0.3868 -0.8190 -0.2584
C11 C -0.5553(7) -1.1685(8) -0.1875(5)
H6 H -0.6012 -1.1159 -0.2306
H7 H -0.6013 -1.1717 -0.1319
H8 H -0.5536 -1.2446 -0.2145
C12 C -0.3308(8) -1.2189(8) -0.1108(5)
H9 H -0.3720 -1.2914 -0.1122
C13 C -0.2107(9) -1.2136(8) -0.0617(6)
H10 H -0.1796 -1.2798 -0.0301
C14 C -0.1257(8) -1.1093(9) -0.0553(5)
C15 C -0.0026(9) -1.1124(9) 0.0124(6)
C16 C 0.1019(10) -1.0384(9) -0.0033(7)
H11 H 0.0969 -0.9897 -0.0547
C17 C 0.2156(11) -1.0387(11) 0.0600(9)
H12 H 0.2907 -0.9947 0.0493
C18 C 0.2136(13) -1.1065(13) 0.1394(9)
H13 H 0.2849 -1.1011 0.1847
C19 C 0.1159(11) -1.1766(13) 0.1522(7)
H14 H 0.1196 -1.2232 0.2048
C20 C 0.0058(9) -1.1826(11) 0.0880(6)
H15 H -0.0628 -1.2350 0.0966
Br2 Br -0.51845(9) -0.49223(9) -0.36164(6)
O3 O -0.3027(6) -0.6704(6) -0.3738(4)
O4 O -0.1119(5) -0.4488(5) -0.3992(4)
C21 C -0.3959(7) -0.5063(9) -0.4537(5)
C22 C -0.3042(8) -0.6069(8) -0.4390(5)
C23 C -0.2130(8) -0.6302(7) -0.5180(5)
C24 C -0.2013(7) -0.5319(7) -0.5856(5)
C25 C -0.1070(8) -0.5357(8) -0.6504(5)
H16 H -0.0446 -0.5957 -0.6475
C26 C -0.1026(9) -0.4527(9) -0.7195(6)
H17 H -0.0386 -0.4567 -0.7624
C27 C -0.1974(10) -0.3623(9) -0.7229(6)
H18 H -0.1962 -0.3053 -0.7683
C28 C -0.2921(9) -0.3583(8) -0.6590(6)
H19 H -0.3552 -0.2989 -0.6621
C29 C -0.2943(8) -0.4420(8) -0.5904(5)
C30 C -0.3940(7) -0.4330(8) -0.5217(5)
H20 H -0.4572 -0.3736 -0.5271
C31 C -0.2856(8) -0.7319(8) -0.5730(5)
H21 H -0.3780 -0.7118 -0.5881
H22 H -0.2804 -0.8009 -0.5358
H23 H -0.2430 -0.7454 -0.6291
C32 C -0.0776(7) -0.6728(9) -0.4770(5)
H24 H -0.0493 -0.7434 -0.4997
C33 C 0.0062(8) -0.6230(8) -0.4128(5)
H25 H 0.0851 -0.6621 -0.3940
C34 C -0.0175(7) -0.5101(8) -0.3696(5)
C35 C 0.0712(7) -0.4698(8) -0.2885(5)
C36 C 0.1844(7) -0.5293(8) -0.2542(5)
H26 H 0.2109 -0.5957 -0.2843
C37 C 0.2595(9) -0.4908(11) -0.1748(6)
H27 H 0.3353 -0.5320 -0.1523
C38 C 0.2241(11) -0.3957(11) -0.1309(7)
H28 H 0.2742 -0.3710 -0.0775
C39 C 0.1124(10) -0.3338(11) -0.1650(6)
H29 H 0.0887 -0.2662 -0.1352
C40 C 0.0362(9) -0.3710(9) -0.2423(6)
H30 H -0.0398 -0.3293 -0.2638
loop_
_geom_bond_atom_site_label_1
_geom_bond_atom_site_label_2
_geom_bond_site_symmetry_1
_geom_bond_site_symmetry_2
Br1 C1 1_555 1_555
O1 C2 1_555 1_555
O2 C14 1_555 1_555
C1 C2 1_555 1_555
C2 C3 1_555 1_555
C3 C4 1_555 1_555
C4 C5 1_555 1_555
C5 H1 1_555 1_555
C6 C5 1_555 1_555
H2 C6 1_555 1_555
C7 C6 1_555 1_555
H3 C7 1_555 1_555
C8 C7 1_555 1_555
H4 C8 1_555 1_555
C9 C4 1_555 1_555
C10 C1 1_555 1_555
H5 C10 1_555 1_555
C11 C3 1_555 1_555
H6 C11 1_555 1_555
H7 C11 1_555 1_555
H8 C11 1_555 1_555
C12 C3 1_555 1_555
H9 C12 1_555 1_555
C13 C12 1_555 1_555
H10 C13 1_555 1_555
C14 C13 1_555 1_555
C15 C14 1_555 1_555
C16 C15 1_555 1_555
H11 C16 1_555 1_555
C17 C16 1_555 1_555
H12 C17 1_555 1_555
C18 C17 1_555 1_555
H13 C18 1_555 1_555
C19 C18 1_555 1_555
H14 C19 1_555 1_555
C20 C15 1_555 1_555
H15 C20 1_555 1_555
Br2 C21 1_555 1_555
O3 C22 1_555 1_555
O4 C34 1_555 1_555
C21 C22 1_555 1_555
C22 C23 1_555 1_555
C23 C24 1_555 1_555
C24 C25 1_555 1_555
C25 H16 1_555 1_555
C26 C25 1_555 1_555
H17 C26 1_555 1_555
C27 C26 1_555 1_555
H18 C27 1_555 1_555
C28 C27 1_555 1_555
H19 C28 1_555 1_555
C29 C24 1_555 1_555
C30 C21 1_555 1_555
H20 C30 1_555 1_555
C31 C23 1_555 1_555
H21 C31 1_555 1_555
H22 C31 1_555 1_555
H23 C31 1_555 1_555
C32 C23 1_555 1_555
H24 C32 1_555 1_555
C33 C32 1_555 1_555
H25 C33 1_555 1_555
C34 C33 1_555 1_555
C35 C34 1_555 1_555
C36 C35 1_555 1_555
H26 C36 1_555 1_555
C37 C36 1_555 1_555
H27 C37 1_555 1_555
C38 C37 1_555 1_555
H28 C38 1_555 1_555
C39 C38 1_555 1_555
H29 C39 1_555 1_555
C40 C35 1_555 1_555
H30 C40 1_555 1_555
C8 C9 1_555 1_555
C9 C10 1_555 1_555
C19 C20 1_555 1_555
C28 C29 1_555 1_555
C29 C30 1_555 1_555
C39 C40 1_555 1_555

#END
