
#######################################################################
#
#                 Cambridge Crystallographic Data Centre
#                                CCDC 
#
#######################################################################
#
# If this CIF has been generated from an entry in the Cambridge 
# Structural Database, then it will include bibliographic, chemical, 
# crystal, experimental, refinement or atomic coordinate data resulting 
# from the CCDC's data processing and validation procedures.
#
#######################################################################

data_QUCWOB
_chemical_formula_moiety         'C21 H20 N4 O3 S1,C3 H7 N1 O1,C2 H6 O1'
_chemical_name_systematic        
'5-Amino-4-cyano-3-(4-methoxyphenyl)-N-((4-methylphenyl)carbamoyl)-2,3-dihydrothiophene-2-carboxamide N,N-dimethylformamide ethanol'
_symmetry_cell_setting           triclinic
_symmetry_space_group_name_H-M   'P -1'
_symmetry_Int_Tables_number      2
_space_group_name_Hall           '-P 1'
loop_
_symmetry_equiv_pos_site_id
_symmetry_equiv_pos_as_xyz
1 x,y,z
2 -x,-y,-z
_cell_length_a                   10.6607(19)
_cell_length_b                   10.6766(17)
_cell_length_c                   13.447(2)
_cell_angle_alpha                109.549(2)
_cell_angle_beta                 93.816(2)
_cell_angle_gamma                109.4070(10)
_cell_volume                     1332.89
_exptl_crystal_colour            colorless
_exptl_crystal_description       block
_cell_formula_units_Z            2
loop_
_atom_site_label
_atom_site_type_symbol
_atom_site_fract_x
_atom_site_fract_y
_atom_site_fract_z
C1 C 0.0821(3) -0.4666(3) -0.1392(2)
H1 H 0.0528 -0.4820 -0.0768
H2 H 0.0979 -0.5487 -0.1843
H3 H 0.0130 -0.4524 -0.1787
C2 C 0.2004(3) -0.2122(3) -0.0448(2)
C3 C 0.0938(3) -0.1961(3) 0.0034(2)
H4 H 0.0169 -0.2754 -0.0049
C4 C 0.1043(3) -0.0543(3) 0.0666(2)
H5 H 0.0329 -0.0416 0.0993
C5 C 0.2180(2) 0.0639(2) 0.08017(18)
C6 C 0.3231(3) 0.0403(3) 0.0291(2)
H6 H 0.4009 0.1186 0.0371
C7 C 0.3144(3) -0.0965(3) -0.0332(2)
H7 H 0.3852 -0.1095 -0.0667
C8 C 0.2296(2) 0.2158(2) 0.14899(17)
H8 H 0.1440 0.2264 0.1313
C9 C 0.3449(2) 0.3318(2) 0.13247(17)
C10 C 0.3344(2) 0.3706(2) 0.04221(17)
C11 C 0.4636(2) 0.3882(2) 0.20613(17)
C12 C 0.2610(2) 0.2478(2) 0.27081(17)
H9 H 0.2221 0.1594 0.2844
C13 C 0.2092(2) 0.3614(2) 0.33673(17)
C14 C 0.1950(2) 0.4886(2) 0.52665(17)
C15 C 0.1421(2) 0.7077(2) 0.55633(18)
C16 C 0.1527(3) 0.7592(3) 0.66778(19)
H10 H 0.1688 0.7075 0.7073
C17 C 0.1387(3) 0.8900(3) 0.7191(2)
H11 H 0.1445 0.9237 0.7932
C18 C 0.1165(3) 0.9714(3) 0.6633(2)
C19 C 0.1034(3) 1.1142(3) 0.7192(3)
H12 H 0.0092 1.0997 0.7163
H13 H 0.1430 1.1780 0.6839
H14 H 0.1497 1.1553 0.7931
C20 C 0.1063(3) 0.9170(3) 0.5519(2)
H15 H 0.0913 0.9693 0.5125
C21 C 0.1178(3) 0.7870(3) 0.4989(2)
H16 H 0.1092 0.7523 0.4244
N1 N 0.3253(2) 0.4032(2) -0.03061(16)
N2 N 0.5853(2) 0.4816(2) 0.20845(16)
H17 H 0.5966 0.5148 0.1582
H18 H 0.6522 0.5084 0.2602
N3 N 0.21616(19) 0.37974(19) 0.44316(15)
H19 H 0.2358 0.3174 0.4613
N4 N 0.1553(2) 0.5782(2) 0.49381(15)
H20 H 0.1353 0.5533 0.4252
O1 O 0.2024(2) -0.3447(2) -0.10688(16)
O2 O 0.16784(18) 0.43027(18) 0.29552(13)
O3 O 0.21425(18) 0.49506(19) 0.61929(13)
S1 S 0.44694(6) 0.32226(6) 0.31112(4)
C22 C 0.3661(3) 0.9315(3) 0.2641(2)
H21 H 0.4406 1.0144 0.2753
C23 C 0.2541(3) 0.6748(3) 0.1773(2)
H22 H 0.1800 0.6961 0.2056
H23 H 0.2798 0.6176 0.2103
H24 H 0.2266 0.6228 0.1008
C24 C 0.4833(3) 0.7968(4) 0.1501(3)
H25 H 0.5526 0.8907 0.1712
H26 H 0.4540 0.7557 0.0732
H27 H 0.5188 0.7369 0.1728
N5 N 0.3689(2) 0.8077(2) 0.20024(17)
O4 O 0.2721(2) 0.9454(2) 0.31002(16)
C25 C 0.5406(4) 0.2295(8) 0.5443(4)
H28 H 0.5401 0.1470 0.4862
H29 H 0.6052 0.2499 0.6064
H30 H 0.5653 0.3106 0.5232
C26 C 0.4086(4) 0.2013(4) 0.5696(3)
H31 H 0.3823 0.1159 0.5866
H32 H 0.4125 0.2808 0.6333
O5 O 0.3078(2) 0.1813(2) 0.48485(15)
H33 H 0.2974 0.1085 0.4330
loop_
_geom_bond_atom_site_label_1
_geom_bond_atom_site_label_2
_geom_bond_site_symmetry_1
_geom_bond_site_symmetry_2
C1 H1 1_555 1_555
H2 C1 1_555 1_555
H3 C1 1_555 1_555
C2 C3 1_555 1_555
C3 H4 1_555 1_555
C4 C3 1_555 1_555
H5 C4 1_555 1_555
C5 C4 1_555 1_555
C6 C5 1_555 1_555
H6 C6 1_555 1_555
C7 C2 1_555 1_555
H7 C7 1_555 1_555
C8 C5 1_555 1_555
H8 C8 1_555 1_555
C9 C8 1_555 1_555
C10 C9 1_555 1_555
C11 C9 1_555 1_555
C12 C8 1_555 1_555
H9 C12 1_555 1_555
C13 C12 1_555 1_555
C14 N3 1_555 1_555
C15 C16 1_555 1_555
C16 H10 1_555 1_555
C17 C16 1_555 1_555
H11 C17 1_555 1_555
C18 C17 1_555 1_555
C19 C18 1_555 1_555
H12 C19 1_555 1_555
H13 C19 1_555 1_555
H14 C19 1_555 1_555
C20 C18 1_555 1_555
H15 C20 1_555 1_555
C21 C15 1_555 1_555
H16 C21 1_555 1_555
N1 C10 1_555 1_555
N2 C11 1_555 1_555
H17 N2 1_555 1_555
H18 N2 1_555 1_555
N3 C13 1_555 1_555
H19 N3 1_555 1_555
N4 C14 1_555 1_555
H20 N4 1_555 1_555
O1 C1 1_555 1_555
O2 C13 1_555 1_555
O3 C14 1_555 1_555
S1 C11 1_555 1_555
C22 H21 1_555 1_555
C23 H22 1_555 1_555
H23 C23 1_555 1_555
H24 C23 1_555 1_555
C24 H25 1_555 1_555
H26 C24 1_555 1_555
H27 C24 1_555 1_555
N5 C22 1_555 1_555
O4 C22 1_555 1_555
C25 H28 1_555 1_555
H29 C25 1_555 1_555
H30 C25 1_555 1_555
C26 C25 1_555 1_555
H31 C26 1_555 1_555
H32 C26 1_555 1_555
O5 C26 1_555 1_555
H33 O5 1_555 1_555
C2 O1 1_555 1_555
C6 C7 1_555 1_555
C12 S1 1_555 1_555
C15 N4 1_555 1_555
C20 C21 1_555 1_555
C23 N5 1_555 1_555
C24 N5 1_555 1_555

#END
