
#######################################################################
#
#                 Cambridge Crystallographic Data Centre
#                                CCDC 
#
#######################################################################
#
# If this CIF has been generated from an entry in the Cambridge 
# Structural Database, then it will include bibliographic, chemical, 
# crystal, experimental, refinement or atomic coordinate data resulting 
# from the CCDC's data processing and validation procedures.
#
#######################################################################

data_QUCXAO
_chemical_formula_moiety         'C19 H12 Cl1 N5 O4 S1'
_chemical_name_systematic        
5-Amino-N-((4-chlorophenyl)carbamoyl)-4-cyano-3-(3-nitrophenyl)thiophene-2-carboxamide
_symmetry_cell_setting           triclinic
_symmetry_space_group_name_H-M   'P -1'
_symmetry_Int_Tables_number      2
_space_group_name_Hall           '-P 1'
loop_
_symmetry_equiv_pos_site_id
_symmetry_equiv_pos_as_xyz
1 x,y,z
2 -x,-y,-z
_cell_length_a                   8.312(5)
_cell_length_b                   12.618(5)
_cell_length_c                   14.751(7)
_cell_angle_alpha                71.615(19)
_cell_angle_beta                 79.47(3)
_cell_angle_gamma                81.35(5)
_cell_volume                     1436.26
_exptl_crystal_colour            red
_exptl_crystal_description       block
_cell_formula_units_Z            2
loop_
_atom_site_label
_atom_site_type_symbol
_atom_site_fract_x
_atom_site_fract_y
_atom_site_fract_z
Cl1 Cl 0.9954(4) 0.10056(14) 0.62840(11)
S1 S 0.19599(9) 0.48526(7) -0.06115(7)
O1 O 0.3876(3) 0.5171(3) 0.3550(2)
O2 O 0.4466(3) 0.40095(19) 0.10427(19)
O3 O 0.6541(4) 0.7904(4) 0.0398(4)
O4 O 0.5706(5) 0.9109(4) 0.1131(4)
N1 N 0.5499(3) 0.3904(3) 0.2896(3)
H1 H 0.5748 0.3693 0.2384
N2 N 0.3382(3) 0.5213(3) 0.1936(3)
H2 H 0.2690 0.5792 0.1937
N3 N -0.0116(4) 0.6008(3) -0.2161(2)
H3 H -0.0680 0.6607 -0.2452
H4 H -0.0029 0.5415 -0.2343
N4 N -0.0839(6) 0.8798(3) -0.1903(3)
N5 N 0.5464(5) 0.8454(3) 0.0758(4)
C1 C 0.6509(5) 0.3440(4) 0.4666(3)
H5 H 0.5809 0.4043 0.4788
C2 C 0.7479(5) 0.2782(3) 0.5416(3)
H6 H 0.7353 0.2965 0.5989
C3 C 0.8605(6) 0.1872(3) 0.5289(3)
C4 C 0.8624(7) 0.1686(4) 0.4371(3)
H7 H 0.9328 0.1084 0.4250
C5 C 0.7661(5) 0.2338(3) 0.3619(3)
H8 H 0.7794 0.2153 0.3045
C6 C 0.6523(4) 0.3250(3) 0.3746(3)
C7 C 0.4256(4) 0.4771(3) 0.2849(3)
C8 C 0.3474(3) 0.4873(3) 0.1045(3)
C9 C 0.2424(3) 0.5500(3) 0.0239(2)
C10 C 0.0708(4) 0.6005(3) -0.1361(3)
C11 C 0.0717(4) 0.6861(3) -0.0977(2)
C12 C -0.0162(5) 0.7931(4) -0.1489(3)
C13 C 0.1655(3) 0.6589(3) -0.0111(2)
C14 C 0.1960(4) 0.7411(3) 0.0344(3)
C15 C 0.3543(4) 0.7523(3) 0.0379(3)
H9 H 0.4417 0.7065 0.0167
C16 C 0.3773(4) 0.8333(3) 0.0740(3)
C17 C 0.2507(5) 0.9019(3) 0.1069(3)
H10 H 0.2732 0.9571 0.1309
C18 C 0.0959(5) 0.8887(3) 0.1041(3)
H11 H 0.0091 0.9333 0.1274
C19 C 0.0672(4) 0.8094(3) 0.0669(3)
H12 H -0.0403 0.8007 0.0631
loop_
_geom_bond_atom_site_label_1
_geom_bond_atom_site_label_2
_geom_bond_site_symmetry_1
_geom_bond_site_symmetry_2
Cl1 C3 1_555 1_555
S1 C9 1_555 1_555
O1 C7 1_555 1_555
O2 C8 1_555 1_555
O3 N5 1_555 1_555
O4 N5 1_555 1_555
N1 H1 1_555 1_555
N2 H2 1_555 1_555
N3 H3 1_555 1_555
H4 N3 1_555 1_555
N4 C12 1_555 1_555
N5 C16 1_555 1_555
C1 H5 1_555 1_555
C2 C1 1_555 1_555
H6 C2 1_555 1_555
C3 C2 1_555 1_555
C4 C3 1_555 1_555
H7 C4 1_555 1_555
C5 C4 1_555 1_555
H8 C5 1_555 1_555
C6 N1 1_555 1_555
C7 N1 1_555 1_555
C8 N2 1_555 1_555
C9 C8 1_555 1_555
C10 S1 1_555 1_555
C11 C10 1_555 1_555
C12 C11 1_555 1_555
C13 C9 1_555 1_555
C14 C13 1_555 1_555
C15 C14 1_555 1_555
H9 C15 1_555 1_555
C16 C15 1_555 1_555
C17 C16 1_555 1_555
H10 C17 1_555 1_555
C18 C17 1_555 1_555
H11 C18 1_555 1_555
C19 C14 1_555 1_555
H12 C19 1_555 1_555
N2 C7 1_555 1_555
N3 C10 1_555 1_555
C1 C6 1_555 1_555
C5 C6 1_555 1_555
C11 C13 1_555 1_555
C18 C19 1_555 1_555

#END
