
#######################################################################
#
#                 Cambridge Crystallographic Data Centre
#                                CCDC 
#
#######################################################################
#
# If this CIF has been generated from an entry in the Cambridge 
# Structural Database, then it will include bibliographic, chemical, 
# crystal, experimental, refinement or atomic coordinate data resulting 
# from the CCDC's data processing and validation procedures.
#
#######################################################################

data_QUCXOC
_chemical_formula_moiety         'C20 H17 Cl1 N4 O3 S1,C3 H7 N1 O1'
_chemical_name_systematic        
'5-Amino-N-((3-chlorophenyl)carbamoyl)-4-cyano-3-(4-methoxyphenyl)-2,3-dihydrothiophene-2-carboxamide N,N-dimethylformamide'
_symmetry_cell_setting           triclinic
_symmetry_space_group_name_H-M   'P -1'
_symmetry_Int_Tables_number      2
_space_group_name_Hall           '-P 1'
loop_
_symmetry_equiv_pos_site_id
_symmetry_equiv_pos_as_xyz
1 x,y,z
2 -x,-y,-z
_cell_length_a                   10.3025(13)
_cell_length_b                   10.6105(13)
_cell_length_c                   11.7754(14)
_cell_angle_alpha                103.972(2)
_cell_angle_beta                 99.6830(10)
_cell_angle_gamma                93.888(2)
_cell_volume                     1223.41
_exptl_crystal_colour            colorless
_exptl_crystal_description       block
_cell_formula_units_Z            2
loop_
_atom_site_label
_atom_site_type_symbol
_atom_site_fract_x
_atom_site_fract_y
_atom_site_fract_z
C1 C 0.76098(18) 1.01494(17) 0.50429(16)
H1 H 0.7073 1.0050 0.5583
C2 C 0.86252(19) 1.11699(18) 0.53486(17)
H2 H 0.8771 1.1745 0.6103
C3 C 0.94270(19) 1.13495(18) 0.45503(17)
H3 H 1.0103 1.2038 0.4759
C4 C 0.91941(18) 1.04778(18) 0.34362(17)
C5 C 0.82048(17) 0.94392(17) 0.31025(15)
H4 H 0.8075 0.8861 0.2351
C6 C 0.74019(17) 0.92725(17) 0.39158(15)
C7 C 0.54971(17) 0.78388(17) 0.41271(15)
C8 C 0.46691(17) 0.58093(17) 0.24786(15)
C9 C 0.35268(17) 0.47087(17) 0.21351(14)
H5 H 0.2695 0.5092 0.2202
C10 C 0.34127(17) 0.38412(17) 0.08467(15)
H6 H 0.3918 0.4309 0.0410
C11 C 0.40614(17) 0.26350(18) 0.09761(15)
C12 C 0.42450(17) 0.16819(18) -0.00392(15)
C13 C 0.42539(17) 0.24074(17) 0.20860(15)
C14 C 0.19808(17) 0.35176(17) 0.01786(14)
C15 C 0.15141(18) 0.40919(18) -0.07330(15)
H7 H 0.2087 0.4681 -0.0936
C16 C 0.02144(18) 0.38059(18) -0.13453(16)
H8 H -0.0076 0.4199 -0.1953
C17 C -0.06543(17) 0.29309(17) -0.10506(15)
C18 C -0.02159(18) 0.23447(18) -0.01425(16)
H9 H -0.0793 0.1760 0.0061
C19 C 0.10987(18) 0.26413(18) 0.04620(16)
H10 H 0.1391 0.2245 0.1067
C20 C -0.2824(2) 0.1778(2) -0.1454(2)
H11 H -0.2473 0.0951 -0.1555
H12 H -0.3660 0.1678 -0.1987
H13 H -0.2945 0.2083 -0.0647
Cl1 Cl 1.01938(5) 1.06874(5) 0.24198(4)
N1 N 0.64212(14) 0.81826(14) 0.35278(12)
H14 H 0.6409 0.7680 0.2833
N2 N 0.46319(14) 0.67073(14) 0.35255(12)
H15 H 0.3982 0.6554 0.3863
N3 N 0.47035(16) 0.13751(15) 0.24237(13)
H16 H 0.4916 0.0738 0.1909
H17 H 0.4780 0.1349 0.3156
N4 N 0.43744(16) 0.09090(16) -0.08776(13)
O1 O 0.53466(13) 0.84368(12) 0.51118(10)
O2 O 0.55112(12) 0.58846(12) 0.18706(11)
O3 O -0.19205(12) 0.27018(13) -0.17114(11)
S1 S 0.37869(5) 0.36584(4) 0.31740(4)
C21 C 0.1484(2) 0.4615(2) 0.60272(19)
H18 H 0.1586 0.4207 0.5231
H19 H 0.0558 0.4620 0.6055
H20 H 0.1886 0.4138 0.6563
C22 C 0.2211(2) 0.6696(2) 0.76090(17)
H21 H 0.2573 0.7581 0.7702
H22 H 0.2776 0.6308 0.8132
H23 H 0.1343 0.6690 0.7804
C23 C 0.26319(17) 0.64699(18) 0.56074(16)
H24 H 0.3060 0.7317 0.5885
N5 N 0.21236(16) 0.59526(15) 0.63806(13)
O4 O 0.25793(13) 0.59099(12) 0.45453(11)
loop_
_geom_bond_atom_site_label_1
_geom_bond_atom_site_label_2
_geom_bond_site_symmetry_1
_geom_bond_site_symmetry_2
C1 H1 1_555 1_555
C2 C1 1_555 1_555
H2 C2 1_555 1_555
C3 C2 1_555 1_555
H3 C3 1_555 1_555
C4 C3 1_555 1_555
C5 C4 1_555 1_555
H4 C5 1_555 1_555
C6 C1 1_555 1_555
C7 N1 1_555 1_555
C8 C9 1_555 1_555
C9 H5 1_555 1_555
C10 C9 1_555 1_555
H6 C10 1_555 1_555
C11 C10 1_555 1_555
C12 C11 1_555 1_555
C13 C11 1_555 1_555
C14 C10 1_555 1_555
C15 C14 1_555 1_555
H7 C15 1_555 1_555
C16 C15 1_555 1_555
H8 C16 1_555 1_555
C17 C16 1_555 1_555
C18 C17 1_555 1_555
H9 C18 1_555 1_555
C19 C14 1_555 1_555
H10 C19 1_555 1_555
C20 H11 1_555 1_555
H12 C20 1_555 1_555
H13 C20 1_555 1_555
Cl1 C4 1_555 1_555
N1 C6 1_555 1_555
H14 N1 1_555 1_555
N2 C7 1_555 1_555
H15 N2 1_555 1_555
N3 C13 1_555 1_555
H16 N3 1_555 1_555
H17 N3 1_555 1_555
N4 C12 1_555 1_555
O1 C7 1_555 1_555
O2 C8 1_555 1_555
O3 C17 1_555 1_555
S1 C9 1_555 1_555
C21 H18 1_555 1_555
H19 C21 1_555 1_555
H20 C21 1_555 1_555
C22 H21 1_555 1_555
H22 C22 1_555 1_555
H23 C22 1_555 1_555
C23 H24 1_555 1_555
N5 C21 1_555 1_555
O4 C23 1_555 1_555
C5 C6 1_555 1_555
C8 N2 1_555 1_555
C13 S1 1_555 1_555
C18 C19 1_555 1_555
C20 O3 1_555 1_555
C22 N5 1_555 1_555
C23 N5 1_555 1_555

#END
