
#######################################################################
#
#                 Cambridge Crystallographic Data Centre
#                                CCDC 
#
#######################################################################
#
# If this CIF has been generated from an entry in the Cambridge 
# Structural Database, then it will include bibliographic, chemical, 
# crystal, experimental, refinement or atomic coordinate data resulting 
# from the CCDC's data processing and validation procedures.
#
#######################################################################

data_QUCXES
_chemical_formula_moiety         'C19 H14 Cl1 F1 N4 O2 S1,C3 H7 N1 O1'
_chemical_name_systematic        
'5-Amino-N-((4-chlorophenyl)carbamoyl)-4-cyano-3-(4-fluorophenyl)-2,3-dihydrothiophene-2-carboxamide N,N-dimethylformamide'
_symmetry_cell_setting           triclinic
_symmetry_space_group_name_H-M   'P -1'
_symmetry_Int_Tables_number      2
_space_group_name_Hall           '-P 1'
loop_
_symmetry_equiv_pos_site_id
_symmetry_equiv_pos_as_xyz
1 x,y,z
2 -x,-y,-z
_cell_length_a                   9.1032(15)
_cell_length_b                   11.4318(19)
_cell_length_c                   13.340(2)
_cell_angle_alpha                68.600(2)
_cell_angle_beta                 72.520(2)
_cell_angle_gamma                69.994(2)
_cell_volume                     1189.83
_exptl_crystal_colour            colorless
_exptl_crystal_description       block
_cell_formula_units_Z            2
loop_
_atom_site_label
_atom_site_type_symbol
_atom_site_fract_x
_atom_site_fract_y
_atom_site_fract_z
C1 C 1.1288(3) 0.6160(2) 0.00998(16)
H1 H 1.1054 0.6087 0.0845
C2 C 1.2853(3) 0.5861(2) -0.04347(18)
H2 H 1.3673 0.5597 -0.0056
C3 C 1.3199(3) 0.5956(2) -0.15372(17)
C4 C 1.1993(3) 0.6346(2) -0.20955(17)
H3 H 1.2237 0.6405 -0.2838
C5 C 1.0413(3) 0.6653(2) -0.15638(16)
H4 H 0.9598 0.6914 -0.1946
C6 C 1.0054(2) 0.65695(19) -0.04578(15)
C7 C 0.7099(2) 0.72605(17) -0.01580(14)
C8 C 0.5652(2) 0.73515(19) 0.17294(14)
C9 C 0.3980(2) 0.77118(18) 0.24045(14)
H5 H 0.3287 0.7295 0.2294
C10 C 0.3769(2) 0.96164(19) 0.30705(15)
C11 C 0.4233(2) 0.84483(19) 0.38165(14)
C12 C 0.4833(3) 0.8357(2) 0.47088(17)
C13 C 0.4030(2) 0.72859(18) 0.36442(14)
H6 H 0.5001 0.6579 0.3762
C14 C 0.2624(2) 0.6790(2) 0.44299(15)
C15 C 0.2767(3) 0.5469(2) 0.48398(17)
H7 H 0.3703 0.4899 0.4596
C16 C 0.1554(4) 0.4968(3) 0.5605(2)
H8 H 0.1671 0.4074 0.5881
C17 C 0.0194(4) 0.5813(4) 0.5940(2)
C18 C -0.0035(3) 0.7117(4) 0.5549(3)
H9 H -0.0999 0.7669 0.5782
C19 C 0.1203(3) 0.7627(3) 0.4785(2)
H10 H 0.1071 0.8522 0.4518
Cl1 Cl 1.51894(7) 0.56001(7) -0.22197(5)
F1 F -0.0997(2) 0.5337(3) 0.67118(15)
N1 N 0.8497(2) 0.68646(17) 0.01648(13)
H11 H 0.8434 0.6780 0.0843
N2 N 0.57303(19) 0.75238(16) 0.06494(12)
H12 H 0.4834 0.7831 0.0437
N3 N 0.5344(4) 0.8319(2) 0.54078(18)
N4 N 0.3668(3) 1.08058(17) 0.30835(14)
H13 H 0.3917 1.0900 0.3618
H14 H 0.3355 1.1477 0.2558
O1 O 0.69323(18) 0.73994(14) -0.10710(10)
O2 O 0.68240(17) 0.69222(17) 0.21463(11)
S1 S 0.31785(6) 0.94855(5) 0.19817(4)
C20 C 0.2902(3) -0.0959(3) 0.8896(2)
H15 H 0.3633 -0.1597 0.8589
C21 C 0.0782(4) 0.1026(4) 0.8607(4)
H16 H -0.0267 0.0896 0.8801
H17 H 0.0819 0.1811 0.8011
H18 H 0.1029 0.1096 0.9230
C22 C 0.1951(5) -0.0108(4) 0.7196(3)
H19 H 0.2729 -0.0885 0.7076
H20 H 0.2237 0.0639 0.6640
H21 H 0.0920 -0.0126 0.7164
N5 N 0.1902(2) -0.0035(2) 0.82818(18)
O3 O 0.2940(2) -0.1039(2) 0.98173(16)
loop_
_geom_bond_atom_site_label_1
_geom_bond_atom_site_label_2
_geom_bond_site_symmetry_1
_geom_bond_site_symmetry_2
C1 H1 1_555 1_555
C2 C1 1_555 1_555
H2 C2 1_555 1_555
C3 C2 1_555 1_555
C4 C3 1_555 1_555
H3 C4 1_555 1_555
C5 C4 1_555 1_555
H4 C5 1_555 1_555
C6 C1 1_555 1_555
C7 N1 1_555 1_555
C8 C9 1_555 1_555
C9 H5 1_555 1_555
C10 C11 1_555 1_555
C11 C12 1_555 1_555
C12 N3 1_555 1_555
C13 C9 1_555 1_555
H6 C13 1_555 1_555
C14 C13 1_555 1_555
C15 C14 1_555 1_555
H7 C15 1_555 1_555
C16 C15 1_555 1_555
H8 C16 1_555 1_555
C17 C16 1_555 1_555
C18 C17 1_555 1_555
H9 C18 1_555 1_555
C19 C14 1_555 1_555
H10 C19 1_555 1_555
Cl1 C3 1_555 1_555
F1 C17 1_555 1_555
N1 C6 1_555 1_555
H11 N1 1_555 1_555
N2 C7 1_555 1_555
H12 N2 1_555 1_555
N4 C10 1_555 1_555
H13 N4 1_555 1_555
H14 N4 1_555 1_555
O1 C7 1_555 1_555
O2 C8 1_555 1_555
S1 C9 1_555 1_555
C20 H15 1_555 1_555
C21 H16 1_555 1_555
H17 C21 1_555 1_555
H18 C21 1_555 1_555
C22 H19 1_555 1_555
H20 C22 1_555 1_555
H21 C22 1_555 1_555
N5 C20 1_555 1_555
O3 C20 1_555 1_555
C5 C6 1_555 1_555
C8 N2 1_555 1_555
C10 S1 1_555 1_555
C11 C13 1_555 1_555
C18 C19 1_555 1_555
C21 N5 1_555 1_555
C22 N5 1_555 1_555

#END
