
#######################################################################
#
#                 Cambridge Crystallographic Data Centre
#                                CCDC 
#
#######################################################################
#
# If this CIF has been generated from an entry in the Cambridge 
# Structural Database, then it will include bibliographic, chemical, 
# crystal, experimental, refinement or atomic coordinate data resulting 
# from the CCDC's data processing and validation procedures.
#
#######################################################################

data_QUCXIW
_chemical_formula_moiety         'C24 H20 N4 O3 S1,C3 H7 N1 O1'
_chemical_name_systematic        
'5-Amino-4-cyano-3-(4-methoxyphenyl)-N-(1-naphthylcarbamoyl)-2,3-dihydrothiophene-2-carboxamide N,N-dimethylformamide'
_symmetry_cell_setting           triclinic
_symmetry_space_group_name_H-M   'P -1'
_symmetry_Int_Tables_number      2
_space_group_name_Hall           '-P 1'
loop_
_symmetry_equiv_pos_site_id
_symmetry_equiv_pos_as_xyz
1 x,y,z
2 -x,-y,-z
_cell_length_a                   9.0939(11)
_cell_length_b                   11.0800(14)
_cell_length_c                   13.3591(17)
_cell_angle_alpha                80.658(2)
_cell_angle_beta                 85.832(2)
_cell_angle_gamma                84.638(2)
_cell_volume                     1320.14
_exptl_crystal_colour            colorless
_exptl_crystal_description       block
_cell_formula_units_Z            2
loop_
_atom_site_label
_atom_site_type_symbol
_atom_site_fract_x
_atom_site_fract_y
_atom_site_fract_z
C1 C 0.7567(4) 1.2736(4) 0.2974(3)
C2 C 0.8032(4) 1.1733(4) 0.3800(3)
H1 H 0.7669 1.0966 0.3859
C3 C 0.9007(5) 1.1956(6) 0.4477(3)
H2 H 0.9343 1.1340 0.4988
C4 C 0.9470(6) 1.3124(6) 0.4371(5)
H3 H 1.0134 1.3265 0.4828
C5 C 0.9036(6) 1.4094(6) 0.3651(4)
H4 H 0.9360 1.4871 0.3627
C6 C 0.8120(5) 1.3856(4) 0.2987(4)
C7 C 0.7619(6) 1.4862(4) 0.2152(4)
H5 H 0.7916 1.5649 0.2122
C8 C 0.6779(6) 1.4635(4) 0.1478(4)
H6 H 0.6489 1.5265 0.0964
C9 C 0.6272(5) 1.3426(4) 0.1499(4)
H7 H 0.5694 1.3285 0.0990
C10 C 0.6632(4) 1.2520(4) 0.2244(3)
C11 C 0.6783(3) 1.0430(3) 0.1836(3)
C12 C 0.4810(3) 0.9022(2) 0.2436(2)
C13 C 0.4270(3) 0.7842(2) 0.2192(2)
H8 H 0.5087 0.7197 0.2232
C14 C 0.1777(3) 0.8318(3) 0.1358(2)
C15 C 0.1575(3) 0.7929(3) 0.2368(2)
C16 C 0.0132(4) 0.7924(3) 0.2848(2)
C17 C 0.2946(3) 0.7393(2) 0.2917(2)
H9 H 0.2952 0.7744 0.3544
C18 C 0.3043(3) 0.6003(2) 0.3185(2)
C19 C 0.2891(4) 0.5266(3) 0.2452(2)
H10 H 0.2671 0.5631 0.1797
C20 C 0.3064(4) 0.4000(3) 0.2687(3)
H11 H 0.2969 0.3520 0.2189
C21 C 0.3376(3) 0.3447(3) 0.3661(2)
C22 C 0.3487(4) 0.4151(3) 0.4407(3)
H12 H 0.3661 0.3784 0.5069
C23 C 0.3332(4) 0.5434(3) 0.4151(2)
H13 H 0.3428 0.5913 0.4650
C24 C 0.3794(6) 0.1564(4) 0.4793(3)
H14 H 0.4700 0.1791 0.5008
H15 H 0.3861 0.0694 0.4794
H16 H 0.2988 0.1787 0.5250
N1 N 0.6111(4) 1.1290(3) 0.2345(3)
H17 H 0.5349 1.1117 0.2745
N2 N 0.6052(3) 0.9370(2) 0.18672(19)
H18 H 0.6437 0.8868 0.1474
N3 N 0.0744(3) 0.8779(3) 0.0687(2)
H19 H -0.0174 0.8854 0.0890
H20 H 0.1007 0.8998 0.0057
N4 N -0.1045(4) 0.7916(5) 0.3212(3)
O1 O 0.7934(3) 1.0538(2) 0.13136(19)
O2 O 0.4170(3) 0.9597(2) 0.30598(19)
O3 O 0.3547(3) 0.2184(2) 0.3802(2)
S1 S 0.36378(8) 0.81609(7) 0.08940(5)
C25 C 0.2521(4) 0.1759(3) 0.0367(3)
H21 H 0.3071 0.1033 0.0608
C26 C 0.0565(5) 0.3298(4) 0.0672(3)
H22 H 0.1003 0.3735 0.0060
H23 H 0.0475 0.3806 0.1194
H24 H -0.0398 0.3088 0.0546
C27 C 0.1138(4) 0.1503(4) 0.2002(3)
H25 H 0.0212 0.1153 0.1999
H26 H 0.1062 0.2049 0.2496
H27 H 0.1903 0.0860 0.2172
N5 N 0.1496(3) 0.2182(2) 0.1000(2)
O4 O 0.2818(3) 0.2237(3) -0.0512(2)
loop_
_geom_bond_atom_site_label_1
_geom_bond_atom_site_label_2
_geom_bond_site_symmetry_1
_geom_bond_site_symmetry_2
C1 C2 1_555 1_555
C2 H1 1_555 1_555
C3 C2 1_555 1_555
H2 C3 1_555 1_555
C4 C3 1_555 1_555
H3 C4 1_555 1_555
C5 C4 1_555 1_555
H4 C5 1_555 1_555
C6 C1 1_555 1_555
C7 C6 1_555 1_555
H5 C7 1_555 1_555
C8 C7 1_555 1_555
H6 C8 1_555 1_555
C9 C8 1_555 1_555
H7 C9 1_555 1_555
C10 C1 1_555 1_555
C11 N1 1_555 1_555
C12 C13 1_555 1_555
C13 H8 1_555 1_555
C14 C15 1_555 1_555
C15 C16 1_555 1_555
C16 N4 1_555 1_555
C17 C13 1_555 1_555
H9 C17 1_555 1_555
C18 C17 1_555 1_555
C19 C18 1_555 1_555
H10 C19 1_555 1_555
C20 C19 1_555 1_555
H11 C20 1_555 1_555
C21 C20 1_555 1_555
C22 C21 1_555 1_555
H12 C22 1_555 1_555
C23 C18 1_555 1_555
H13 C23 1_555 1_555
C24 H14 1_555 1_555
H15 C24 1_555 1_555
H16 C24 1_555 1_555
N1 C10 1_555 1_555
H17 N1 1_555 1_555
N2 C11 1_555 1_555
H18 N2 1_555 1_555
N3 C14 1_555 1_555
H19 N3 1_555 1_555
H20 N3 1_555 1_555
O1 C11 1_555 1_555
O2 C12 1_555 1_555
O3 C21 1_555 1_555
S1 C13 1_555 1_555
C25 H21 1_555 1_555
C26 H22 1_555 1_555
H23 C26 1_555 1_555
H24 C26 1_555 1_555
C27 H25 1_555 1_555
H26 C27 1_555 1_555
H27 C27 1_555 1_555
N5 C25 1_555 1_555
O4 C25 1_555 1_555
C5 C6 1_555 1_555
C9 C10 1_555 1_555
C12 N2 1_555 1_555
C14 S1 1_555 1_555
C15 C17 1_555 1_555
C22 C23 1_555 1_555
C24 O3 1_555 1_555
C26 N5 1_555 1_555
C27 N5 1_555 1_555

#END
