
#######################################################################
#
#                 Cambridge Crystallographic Data Centre
#                                CCDC 
#
#######################################################################
#
# If this CIF has been generated from an entry in the Cambridge 
# Structural Database, then it will include bibliographic, chemical, 
# crystal, experimental, refinement or atomic coordinate data resulting 
# from the CCDC's data processing and validation procedures.
#
#######################################################################

data_QUCZUL
_chemical_name_common            
'hexa-sodium hexakis(ammonium)  tris(S6-corona[3]arene[3]pyridazine) hydrate'
_chemical_formula_moiety         
'3(C45 H24 N6 O12 S6 6-),3(C12 H10 N2 2+),6(Na1 1+),66(H2 O1),6(H4 N1 1+)'
_chemical_name_systematic        
"hexa-sodium hexakis(ammonium) tris(dipyrido[1,2-a:2',1'-c]pyrazinediium) tris(2,7,15,20,28,33-hexathia-40,41,44,45,48,49-hexaazadecacyclo[32.5.2.2^3,6^.2^8,14^.2^16,19^.2^21,27^.2^29,32^.0^9,13^.0^22,26^.0^35,39^]henpentaconta-1(39),3,5,8,13,16,18,21,26,29,31,34,40,42,44,46,48,50-octadecaene-4,17,30,42,46,50-hexacarboxylate) hydrate"
_symmetry_cell_setting           triclinic
_symmetry_space_group_name_H-M   'P -1'
_symmetry_Int_Tables_number      2
_space_group_name_Hall           '-P 1'
loop_
_symmetry_equiv_pos_site_id
_symmetry_equiv_pos_as_xyz
1 x,y,z
2 -x,-y,-z
_cell_length_a                   16.134(3)
_cell_length_b                   22.741(5)
_cell_length_c                   23.945(5)
_cell_angle_alpha                116.87(3)
_cell_angle_beta                 94.55(3)
_cell_angle_gamma                95.60(3)
_cell_volume                     7723.81
_exptl_crystal_colour            yellow
_exptl_crystal_description       rod
_cell_formula_units_Z            2
loop_
_atom_site_label
_atom_site_type_symbol
_atom_site_fract_x
_atom_site_fract_y
_atom_site_fract_z
S1 S 0.2463(3) 0.4229(2) 0.3174(2)
S2 S 0.8353(3) 0.2887(3) 0.1891(2)
S3 S 0.7957(4) 0.7541(3) 0.4545(3)
S4 S 0.9190(4) 0.5630(3) 0.1925(3)
S5 S 0.4064(4) 0.7187(3) 0.3817(3)
S6 S 0.4337(5) 0.2188(4) 0.1159(3)
O1 O 0.1820(8) 0.5039(6) 0.4215(5)
O2 O 0.9572(9) 0.7428(7) 0.4892(6)
O3 O 0.2646(9) 0.5921(7) 0.4986(6)
O4 O 0.7964(10) 0.1954(7) 0.2288(6)
N1 N 0.6423(11) 0.6922(8) 0.4305(7)
N2 N 0.5523(12) 0.6914(9) 0.4214(8)
O5 O 1.0270(11) 0.6659(8) 0.4376(7)
N3 N 0.8568(10) 0.4763(8) 0.2346(6)
C1 C 0.3352(15) 0.6251(11) 0.4050(10)
C2 C 0.2916(13) 0.3646(10) 0.2517(9)
C3 C 0.2851(9) 0.5550(7) 0.3931(6)
N4 N 0.8350(14) 0.4203(11) 0.2316(9)
C4 C 0.5158(10) 0.7293(8) 0.3985(7)
C5 C 0.2405(14) 0.5558(10) 0.4369(9)
N5 N 0.4177(17) 0.3125(13) 0.2206(13)
N6 N 0.3811(14) 0.3621(10) 0.2693(9)
C6 C 0.9124(11) 0.6772(8) 0.3774(7)
C7 C 0.3685(10) 0.6333(7) 0.3627(7)
C8 C 0.6937(13) 0.7476(10) 0.4364(9)
C9 C 0.9350(14) 0.6407(10) 0.3221(9)
C10 C 0.2625(14) 0.3314(11) 0.1955(10)
C11 C 0.9611(13) 0.6916(10) 0.4417(9)
C12 C 0.8068(10) 0.6411(8) 0.2673(7)
C13 C 0.3006(10) 0.5036(8) 0.3374(7)
C14 C 0.7203(12) 0.2711(9) 0.1653(8)
C15 C 0.8875(12) 0.6185(9) 0.2693(8)
C16 C 0.3468(13) 0.5140(10) 0.2889(9)
C17 C 0.6499(13) 0.7904(10) 0.4117(8)
C18 C 0.7773(13) 0.6858(10) 0.3227(9)
C19 C 0.3069(12) 0.2815(9) 0.1514(8)
C20 C 0.8994(13) 0.3740(10) 0.1377(9)
C21 C 0.8929(15) 0.4854(12) 0.1872(10)
C22 C 0.9325(12) 0.4242(10) 0.1400(8)
C23 C 0.5658(14) 0.7810(10) 0.3957(9)
C24 C 0.8276(12) 0.7032(9) 0.3787(8)
C25 C 0.6793(12) 0.3078(9) 0.1494(8)
C26 C 0.3845(17) 0.2837(12) 0.1701(12)
C27 C 0.1780(12) 0.3359(9) 0.1633(8)
C28 C 0.6788(14) 0.2186(11) 0.1765(9)
C29 C 0.7277(17) 0.1893(12) 0.2096(10)
O6 O 0.678(2) 0.1248(17) 0.1954(15)
C30 C 0.5340(16) 0.8326(11) 0.3748(10)
C31 C 0.9745(14) 0.4257(10) 0.0868(9)
C32 C 0.8728(16) 0.3592(12) 0.1812(11)
C33 C 0.6973(15) 0.8509(11) 0.4073(10)
C34 C 0.586(2) 0.2091(15) 0.1684(14)
C35 C 0.5429(14) 0.2360(10) 0.1391(9)
O7 O 0.4914(13) 0.3708(10) 0.1310(9)
C36 C 0.6345(17) 0.8628(13) 0.3650(11)
C37 C 0.9351(17) 0.3146(13) 0.0862(11)
C38 C 0.2537(15) 0.2571(11) 0.0876(10)
C39 C 0.535(2) 0.3312(19) 0.1008(18)
C40 C 0.5852(17) 0.2919(12) 0.1297(11)
C41 C 0.9883(18) 0.3428(14) 0.0430(12)
C42 C 0.1648(16) 0.2799(12) 0.0926(11)
O8 O 0.540(3) 0.299(2) 0.038(2)
O9 O 0.4680(19) 0.6398(15) 0.2720(12)
O10 O 0.3723(18) 0.5790(13) 0.2030(13)
C43 C 0.420(2) 0.5890(16) 0.2532(14)
C44 C 0.3837(10) 0.5779(8) 0.3048(7)
O11 O 0.7202(11) 0.5569(9) 0.1657(8)
O12 O 0.7099(14) 0.6681(11) 0.1965(9)
C45 C 0.7314(16) 0.6239(14) 0.1996(11)
Na1 Na 0.8510(6) 0.3038(4) 0.3255(4)
Na2 Na 0.9494(5) 0.4566(3) 0.4194(3)
Na3 Na 0.8834(6) 0.1391(5) 0.2614(4)
O13 O 0.8847(9) 0.3795(7) 0.4476(6)
O14 O 0.9250(9) 0.5432(7) 0.5197(6)
O15 O 0.8182(9) 0.4180(7) 0.3443(6)
O16 O 1.0197(9) 0.5255(7) 0.3844(6)
O17 O 0.9957(9) 0.3655(7) 0.3290(6)
O18 O 0.9279(9) 0.2373(7) 0.3600(6)
O19 O 1.0092(10) 0.1534(7) 0.2266(6)
O20 O 0.7388(10) 0.2626(8) 0.3651(7)
O21 O 0.7888(14) 0.1076(10) 0.3237(9)
O22 O 0.9274(17) 0.0188(13) 0.2259(12)
S7 S 0.3019(3) 0.2388(3) 0.4043(2)
S8 S 0.4464(4) 0.0186(3) 0.4505(3)
S9 S 0.1413(4) -0.2024(3) 0.4160(3)
S10 S -0.0900(4) -0.1033(3) 0.0569(3)
S11 S 0.2366(5) 0.0927(3) 0.1011(3)
S12 S 0.0224(5) -0.3246(4) 0.1288(3)
O23 O 0.2064(8) 0.3161(6) 0.3790(5)
O24 O 0.1094(9) 0.2778(7) 0.2901(6)
O25 O 0.1846(11) -0.1298(8) 0.5458(7)
N7 N 0.2947(10) 0.1285(8) 0.4172(7)
N8 N 0.3231(9) 0.0785(7) 0.4296(6)
O26 O 0.3635(10) -0.1627(8) 0.2765(7)
C46 C 0.2275(11) -0.1359(8) 0.4267(7)
N9 N 0.0426(10) -0.2302(8) 0.2486(7)
O27 O 0.2276(12) -0.0175(10) 0.5948(9)
N10 N 0.0655(12) -0.2069(9) 0.3104(8)
C47 C 0.2308(10) 0.2168(8) 0.2890(7)
O28 O 0.3073(12) -0.0060(9) 0.1513(8)
N11 N 0.0990(13) 0.0446(10) 0.1319(8)
O29 O 0.3850(10) -0.0527(8) 0.3110(7)
N12 N 0.0288(11) -0.0026(8) 0.1201(7)
C48 C 0.1866(14) 0.2757(11) 0.3189(10)
C49 C 0.4625(9) 0.1319(7) 0.4407(6)
C50 C 0.3312(13) -0.0971(10) 0.3810(8)
C51 C 0.2171(13) 0.1816(10) 0.2189(9)
C52 C 0.2633(11) -0.0829(8) 0.4873(7)
C53 C 0.3243(12) -0.0382(9) 0.4930(8)
C54 C 0.4038(10) 0.0831(8) 0.4393(7)
C55 C 0.2587(13) -0.1454(10) 0.3722(9)
C56 C 0.1036(13) -0.3269(10) 0.2312(9)
C57 C 0.3667(12) -0.1055(9) 0.3173(8)
C58 C 0.1229(12) -0.3047(9) 0.2934(8)
C59 C 0.3503(12) 0.1707(9) 0.4128(8)
C60 C 0.4285(12) 0.1811(9) 0.4291(8)
C61 C 0.2286(14) -0.0694(11) 0.5520(9)
C62 C 0.1096(14) -0.2378(11) 0.3385(9)
C63 C 0.5121(13) 0.2368(9) 0.4375(8)
C64 C 0.3628(17) -0.0367(13) 0.4411(12)
C65 C 0.5662(16) 0.1382(12) 0.4474(10)
C66 C 0.1508(16) 0.0296(12) 0.0863(11)
C67 C -0.0043(11) -0.2530(8) 0.1185(7)
C68 C 0.0503(13) -0.2183(9) 0.1077(8)
C69 C 0.0043(14) -0.0519(11) 0.0638(10)
C70 C 0.0327(15) -0.1626(11) 0.0851(10)
C71 C 0.141(2) -0.2100(15) 0.1145(16)
C72 C 0.2979(16) 0.1913(12) 0.3193(11)
O30 O -0.244(2) -0.1751(14) 0.0646(13)
C73 C 0.0612(16) -0.0669(12) 0.0179(11)
C74 C -0.0558(12) -0.1669(9) 0.0802(8)
C75 C 0.3278(14) 0.1494(11) 0.2833(10)
C76 C 0.1220(12) -0.0173(9) 0.0272(8)
C77 C 0.0586(15) -0.2863(11) 0.2097(10)
C78 C 0.1302(12) -0.3982(9) 0.1918(8)
C79 C 0.2580(16) 0.1317(12) 0.1833(11)
C80 C -0.1133(13) -0.2044(9) 0.0897(8)
C81 C 0.1716(12) -0.0394(9) -0.0284(8)
O31 O 0.4411(15) 0.0573(11) 0.2056(10)
C82 C 0.3191(18) 0.1095(14) 0.2224(12)
C83 C 0.051(2) -0.1231(15) -0.0576(13)
O32 O 0.172(2) -0.2067(15) 0.0797(15)
C84 C 0.1664(18) -0.3571(14) 0.3035(12)
C85 C -0.0858(16) -0.2623(11) 0.1017(10)
C86 C 0.5953(17) 0.1980(13) 0.4351(11)
C87 C 0.3465(17) 0.0466(13) 0.1872(11)
C88 C 0.1550(16) -0.4143(12) 0.2423(11)
O33 O 0.1903(17) -0.2172(12) 0.1577(12)
C89 C 0.1183(16) -0.1064(12) -0.0785(11)
C90 C -0.179(3) -0.179(2) 0.095(2)
O34 O -0.252(3) -0.266(2) 0.052(2)
O35 O 1.0623(9) 0.3158(7) 0.4337(6)
O36 O 0.6711(10) 0.4026(8) 0.3895(7)
N13 N 0.6411(10) 0.5694(7) 0.4936(7)
N14 N 0.6918(10) 0.5444(7) 0.3801(7)
C91 C 0.5085(10) 0.5667(8) 0.4561(7)
C92 C 0.5566(11) 0.4937(8) 0.3303(7)
C93 C 0.5812(11) 0.5554(8) 0.4449(7)
C94 C 0.6234(9) 0.5891(7) 0.5563(6)
C95 C 0.7231(11) 0.5253(8) 0.3198(7)
C96 C 0.7333(11) 0.5580(8) 0.4847(7)
C97 C 0.5345(10) 0.5999(8) 0.5626(7)
C98 C 0.7494(12) 0.5790(9) 0.4363(8)
C99 C 0.6073(11) 0.5369(9) 0.3869(7)
C100 C 0.4803(12) 0.5922(9) 0.5170(8)
C101 C 0.5790(12) 0.4773(9) 0.2696(8)
C102 C 0.6727(17) 0.5007(13) 0.2670(11)
N15 N 0.9550(11) 0.9055(8) 0.5626(7)
N16 N 0.8779(11) 0.9369(8) 0.6716(8)
C103 C 0.9018(14) 0.9476(11) 0.5730(10)
C104 C 0.9058(14) 0.8676(10) 0.6342(9)
C105 C 0.8697(18) 0.9576(13) 0.7320(12)
C106 C 0.9913(15) 0.8772(11) 0.6043(10)
C107 C 0.9533(18) 0.9032(14) 0.4580(12)
C108 C 0.8733(16) 0.9747(12) 0.6379(11)
C109 C 0.8504(14) 1.0396(11) 0.6692(10)
C110 C 0.8673(16) 0.9744(12) 0.5400(11)
C111 C 0.884(2) 0.9435(15) 0.4777(13)
C112 C 0.974(2) 0.8735(15) 0.4971(14)
C113 C 0.840(2) 1.0588(15) 0.7281(14)
C114 C 0.840(2) 1.0255(15) 0.7699(13)
O37 O 0.5455(10) 0.2994(7) 0.3122(6)
N17 N 1.0470(12) 0.4335(9) 0.2600(8)
loop_
_geom_bond_atom_site_label_1
_geom_bond_atom_site_label_2
_geom_bond_site_symmetry_1
_geom_bond_site_symmetry_2
S1 C2 1_555 1_555
S2 C14 1_555 1_555
S3 C8 1_555 1_555
S4 C15 1_555 1_555
S5 C4 1_555 1_555
S6 C26 1_555 1_555
O1 C5 1_555 1_555
O2 C11 1_555 1_555
O3 C5 1_555 1_555
O4 C29 1_555 1_555
N1 N2 1_555 1_555
N2 C4 1_555 1_555
O5 C11 1_555 1_555
N3 N4 1_555 1_555
C1 C3 1_555 1_555
C2 N6 1_555 1_555
C3 C5 1_555 1_555
N4 C32 1_555 1_555
C4 C23 1_555 1_555
N5 N6 1_555 1_555
C6 C9 1_555 1_555
C7 S5 1_555 1_555
C8 N1 1_555 1_555
C9 C15 1_555 1_555
C10 C2 1_555 1_555
C11 C6 1_555 1_555
C12 C15 1_555 1_555
C13 S1 1_555 1_555
C14 C25 1_555 1_555
C16 C13 1_555 1_555
C17 C8 1_555 1_555
C18 C12 1_555 1_555
C19 C10 1_555 1_555
C20 C22 1_555 1_555
C21 S4 1_555 1_555
C22 C21 1_555 1_555
C23 C17 1_555 1_555
C24 S3 1_555 1_555
C25 C40 1_555 1_555
C26 N5 1_555 1_555
C27 C10 1_555 1_555
C28 C14 1_555 1_555
C29 C28 1_555 1_555
O6 C29 1_555 1_555
C30 C23 1_555 1_555
C31 C22 1_555 1_555
C32 S2 1_555 1_555
C33 C17 1_555 1_555
C34 C28 1_555 1_555
C35 S6 1_555 1_555
O7 C39 1_555 1_555
C36 C30 1_555 1_555
C37 C20 1_555 1_555
C38 C19 1_555 1_555
C39 C40 1_555 1_555
C40 C35 1_555 1_555
C41 C31 1_555 1_555
C42 C27 1_555 1_555
O8 C39 1_555 1_555
O9 C43 1_555 1_555
O10 C43 1_555 1_555
C43 C44 1_555 1_555
C44 C7 1_555 1_555
O11 C45 1_555 1_555
O12 C45 1_555 1_555
C45 C12 1_555 1_555
S7 C59 1_555 1_555
S8 C54 1_555 1_555
S9 C46 1_555 1_555
S10 C69 1_555 1_555
S11 C66 1_555 1_555
S12 C67 1_555 1_555
O23 C48 1_555 1_555
O24 C48 1_555 1_555
O25 C61 1_555 1_555
N7 N8 1_555 1_555
N8 C54 1_555 1_555
O26 C57 1_555 1_555
C46 C52 1_555 1_555
N9 N10 1_555 1_555
O27 C61 1_555 1_555
N10 C62 1_555 1_555
C47 C48 1_555 1_555
O28 C87 1_555 1_555
N11 N12 1_555 1_555
O29 C57 1_555 1_555
N12 C69 1_555 1_555
C49 C54 1_555 1_555
C50 C55 1_555 1_555
C51 C47 1_555 1_555
C52 C53 1_555 1_555
C53 C64 1_555 1_555
C55 C46 1_555 1_555
C56 C58 1_555 1_555
C57 C50 1_555 1_555
C58 C62 1_555 1_555
C59 N7 1_555 1_555
C60 C49 1_555 1_555
C61 C52 1_555 1_555
C62 S9 1_555 1_555
C63 C60 1_555 1_555
C64 S8 1_555 1_555
C65 C49 1_555 1_555
C66 N11 1_555 1_555
C67 C68 1_555 1_555
C68 C70 1_555 1_555
C69 C73 1_555 1_555
C70 C74 1_555 1_555
C71 C68 1_555 1_555
C72 S7 1_555 1_555
O30 C90 1_555 1_555
C73 C76 1_555 1_555
C74 S10 1_555 1_555
C75 C72 1_555 1_555
C76 C66 1_555 1_555
C77 S12 1_555 1_555
C78 C56 1_555 1_555
C79 S11 1_555 1_555
C80 C74 1_555 1_555
C81 C76 1_555 1_555
O31 C87 1_555 1_555
C82 C75 1_555 1_555
C83 C73 1_555 1_555
O32 C71 1_555 1_555
C84 C58 1_555 1_555
C85 C67 1_555 1_555
C86 C63 1_555 1_555
C87 C82 1_555 1_555
C88 C78 1_555 1_555
O33 C71 1_555 1_555
C89 C81 1_555 1_555
C90 C80 1_555 1_555
O34 C90 1_555 1_555
N13 C93 1_555 1_555
N14 C95 1_555 1_555
C91 C93 1_555 1_555
C92 C99 1_555 1_555
C93 C99 1_555 1_555
C94 N13 1_555 1_555
C95 C102 1_555 1_555
C96 N13 1_555 1_555
C97 C94 1_555 1_555
C98 N14 1_555 1_555
C99 N14 1_555 1_555
C100 C91 1_555 1_555
C101 C92 1_555 1_555
C102 C101 1_555 1_555
N15 C103 1_555 1_555
N16 C104 1_555 1_555
C103 C108 1_555 1_555
C104 C106 1_555 1_555
C105 N16 1_555 1_555
C106 N15 1_555 1_555
C107 C111 1_555 1_555
C108 N16 1_555 1_555
C109 C108 1_555 1_555
C110 C103 1_555 1_555
C111 C110 1_555 1_555
C112 N15 1_555 1_555
C113 C109 1_555 1_555
C114 C105 1_555 1_555
N3 C21 1_555 1_555
C1 C7 1_555 1_555
C3 C13 1_555 1_555
C6 C24 1_555 1_555
C16 C44 1_555 1_555
C18 C24 1_555 1_555
C19 C26 1_555 1_555
C20 C32 1_555 1_555
C33 C36 1_555 1_555
C34 C35 1_555 1_555
C37 C41 1_555 1_555
C38 C42 1_555 1_555
N9 C77 1_555 1_555
C47 C72 1_555 1_555
C50 C64 1_555 1_555
C51 C79 1_555 1_555
C56 C77 1_555 1_555
C59 C60 1_555 1_555
C65 C86 1_555 1_555
C79 C82 1_555 1_555
C80 C85 1_555 1_555
C83 C89 1_555 1_555
C84 C88 1_555 1_555
C96 C98 1_555 1_555
C97 C100 1_555 1_555
C107 C112 1_555 1_555
C113 C114 1_555 1_555

#END
