
#######################################################################
#
#                 Cambridge Crystallographic Data Centre
#                                CCDC 
#
#######################################################################
#
# If this CIF has been generated from an entry in the Cambridge 
# Structural Database, then it will include bibliographic, chemical, 
# crystal, experimental, refinement or atomic coordinate data resulting 
# from the CCDC's data processing and validation procedures.
#
#######################################################################

data_QUDJIK
_chemical_formula_moiety         'C18 H23 Cl1 N1 O4 P1'
_chemical_name_systematic        
'diethyl (((4-chlorophenyl)amino)(2-methoxyphenyl)methyl)phosphonate'
_symmetry_cell_setting           monoclinic
_symmetry_space_group_name_H-M   'P 21/c'
_symmetry_Int_Tables_number      14
_space_group_name_Hall           '-P 2ybc'
loop_
_symmetry_equiv_pos_site_id
_symmetry_equiv_pos_as_xyz
1 x,y,z
2 -x,1/2+y,1/2-z
3 -x,-y,-z
4 x,1/2-y,1/2+z
_cell_length_a                   9.1255(3)
_cell_length_b                   15.1556(5)
_cell_length_c                   14.4507(5)
_cell_angle_alpha                90
_cell_angle_beta                 97.445(2)
_cell_angle_gamma                90
_cell_volume                     1981.72
_cell_formula_units_Z            4
loop_
_atom_site_label
_atom_site_type_symbol
_atom_site_fract_x
_atom_site_fract_y
_atom_site_fract_z
P1 P 0.27300(7) 0.02108(5) 0.10060(5)
Cl1 Cl 1.08118(12) 0.09575(9) 0.44859(8)
N1 N 0.5563(2) 0.02981(15) 0.17032(15)
H1 H 0.5865 0.0346 0.1137
O1 O 0.1326(2) 0.08039(15) 0.09812(15)
O2 O 0.3120(2) -0.00720(17) 0.01013(15)
C1 C 0.4216(3) 0.08198(17) 0.16914(18)
H2 H 0.3983 0.0857 0.2333
C2 C 0.6777(3) 0.04889(17) 0.23703(18)
C3 C 0.4304(3) 0.17497(18) 0.13240(19)
C4 C 0.6631(3) 0.0798(2) 0.3262(2)
H3 H 0.5695 0.0916 0.3422
O3 O 0.3062(4) 0.22338(17) 0.25453(18)
C5 C 0.8189(3) 0.0318(2) 0.2158(2)
H4 H 0.8310 0.0104 0.1569
O4 O 0.2222(3) -0.05342(15) 0.16498(18)
C6 C 0.9417(4) 0.0459(3) 0.2806(2)
H5 H 1.0357 0.0345 0.2651
C7 C 0.7866(4) 0.0933(2) 0.3916(2)
H6 H 0.7758 0.1135 0.4511
C8 C 0.4950(4) 0.1925(2) 0.0521(2)
H7 H 0.5386 0.1468 0.0225
C9 C 0.3664(3) 0.2451(2) 0.1758(2)
C10 C 0.9246(4) 0.0768(2) 0.3678(2)
C11 C 0.3675(4) 0.3297(2) 0.1393(3)
H8 H 0.3250 0.3761 0.1686
C12 C 0.4951(5) 0.2767(3) 0.0160(3)
H9 H 0.5381 0.2874 -0.0378
C13 C 0.4315(5) 0.3449(3) 0.0595(3)
H10 H 0.4319 0.4016 0.0349
C14 C 0.0762(5) 0.1354(3) 0.0201(3)
H11 H 0.0397 0.0988 -0.0330
H12 H 0.1548 0.1724 0.0024
C15 C -0.0432(5) 0.1906(3) 0.0458(4)
H13 H -0.1221 0.1538 0.0613
H14 H -0.0793 0.2281 -0.0057
H15 H -0.0069 0.2263 0.0987
C16 C 0.2208(6) -0.1860(3) 0.2507(4)
H16 H 0.2063 -0.1537 0.3060
H17 H 0.2758 -0.2388 0.2679
H18 H 0.1265 -0.2014 0.2171
C17 C 0.3028(5) -0.1313(3) 0.1915(4)
H19 H 0.3982 -0.1159 0.2252
H20 H 0.3193 -0.1642 0.1362
C18 C 0.2351(6) 0.2906(3) 0.3011(4)
H21 H 0.3042 0.3372 0.3194
H22 H 0.1999 0.2663 0.3555
H23 H 0.1532 0.3138 0.2598
H24? H 0.5321 -0.0271 0.1776
loop_
_geom_bond_atom_site_label_1
_geom_bond_atom_site_label_2
_geom_bond_site_symmetry_1
_geom_bond_site_symmetry_2
P1 O1 1_555 1_555
Cl1 C10 1_555 1_555
N1 H1 1_555 1_555
O1 C14 1_555 1_555
O2 P1 1_555 1_555
C1 P1 1_555 1_555
H2 C1 1_555 1_555
C2 N1 1_555 1_555
C3 C1 1_555 1_555
C4 C2 1_555 1_555
H3 C4 1_555 1_555
O3 C9 1_555 1_555
C5 C2 1_555 1_555
H4 C5 1_555 1_555
O4 P1 1_555 1_555
C6 C5 1_555 1_555
H5 C6 1_555 1_555
C7 C4 1_555 1_555
H6 C7 1_555 1_555
C8 C3 1_555 1_555
H7 C8 1_555 1_555
C9 C3 1_555 1_555
C10 C6 1_555 1_555
C11 C9 1_555 1_555
H8 C11 1_555 1_555
C12 C8 1_555 1_555
H9 C12 1_555 1_555
C13 C11 1_555 1_555
H10 C13 1_555 1_555
C14 H11 1_555 1_555
H12 C14 1_555 1_555
C15 C14 1_555 1_555
H13 C15 1_555 1_555
H14 C15 1_555 1_555
H15 C15 1_555 1_555
C16 H16 1_555 1_555
H17 C16 1_555 1_555
H18 C16 1_555 1_555
C17 O4 1_555 1_555
H19 C17 1_555 1_555
H20 C17 1_555 1_555
C18 O3 1_555 1_555
H21 C18 1_555 1_555
H22 C18 1_555 1_555
H23 C18 1_555 1_555
N1 C1 1_555 1_555
C7 C10 1_555 1_555
C12 C13 1_555 1_555
C16 C17 1_555 1_555

#END
