
#######################################################################
#
#                 Cambridge Crystallographic Data Centre
#                                CCDC 
#
#######################################################################
#
# If this CIF has been generated from an entry in the Cambridge 
# Structural Database, then it will include bibliographic, chemical, 
# crystal, experimental, refinement or atomic coordinate data resulting 
# from the CCDC's data processing and validation procedures.
#
#######################################################################

data_QUDJUW
_chemical_formula_moiety         'C17 H20 Cl1 N2 O5 P1'
_chemical_name_systematic        
'diethyl (((4-chlorophenyl)amino)(4-nitrophenyl)methyl)phosphonate'
_symmetry_cell_setting           monoclinic
_symmetry_space_group_name_H-M   'C 2'
_symmetry_Int_Tables_number      5
_space_group_name_Hall           'C 2y'
loop_
_symmetry_equiv_pos_site_id
_symmetry_equiv_pos_as_xyz
1 x,y,z
2 -x,y,-z
3 1/2+x,1/2+y,z
4 1/2-x,1/2+y,-z
_cell_length_a                   22.321(2)
_cell_length_b                   8.1823(9)
_cell_length_c                   21.625(2)
_cell_angle_alpha                90
_cell_angle_beta                 98.721(3)
_cell_angle_gamma                90
_cell_volume                     3903.86
_cell_formula_units_Z            8
loop_
_atom_site_label
_atom_site_type_symbol
_atom_site_fract_x
_atom_site_fract_y
_atom_site_fract_z
P1 P 0.31293(11) 0.4784(4) 0.07333(11)
Cl1 Cl 0.3964(2) 0.3526(7) -0.29118(15)
C1 C 0.3912(4) 0.2386(15) 0.0339(4)
C2 C 0.3363(4) 0.3720(15) -0.1007(4)
O1 O 0.2905(4) 0.6421(16) 0.0600(4)
C3 C 0.4555(5) -0.039(2) 0.0673(5)
C4 C 0.4516(5) 0.2459(18) 0.0624(5)
H1 H 0.4698 0.3470 0.0718
C5 C 0.3947(5) -0.0560(17) 0.0432(5)
H2 H 0.3756 -0.1572 0.0385
C6 C 0.4835(5) 0.1098(19) 0.0764(5)
H3 H 0.5246 0.1158 0.0922
C7 C 0.3649(5) 0.0863(19) 0.0270(6)
H4 H 0.3241 0.0802 0.0101
C8 C 0.3925(4) 0.424(2) -0.1084(4)
H5 H 0.4189 0.4604 -0.0736
O2 O 0.3595(4) 0.4566(15) 0.1339(3)
C9 C 0.2965(6) 0.322(2) -0.1543(5)
H6 H 0.2571 0.2906 -0.1504
C10 C 0.3733(6) 0.3605(17) -0.2170(5)
C11 C 0.4121(5) 0.4264(19) -0.1674(5)
H7 H 0.4495 0.4700 -0.1727
C12 C 0.3146(7) 0.318(3) -0.2116(5)
H8 H 0.2877 0.2870 -0.2467
N1 N 0.4910(5) -0.189(2) 0.0813(5)
O3 O 0.5414(5) -0.1806(18) 0.1083(5)
N2 N 0.3138(3) 0.3822(15) -0.0444(3)
O4 O 0.4689(5) -0.3204(16) 0.0704(9)
C13 C 0.3553(4) 0.3917(17) 0.0145(4)
H9 H 0.3854 0.4746 0.0079
C14 C 0.2227(11) 0.290(4) 0.1008(8)
H10 H 0.2296 0.1735 0.0978
H11 H 0.1874 0.3129 0.0700
O5 O 0.2637(5) 0.349(2) 0.0781(6)
C15 C 0.3653(7) 0.560(3) 0.1885(7)
H12 H 0.3315 0.5406 0.2110
H13 H 0.3644 0.6735 0.1759
C16 C 0.2020(6) 0.306(3) 0.1552(7)
H14 H 0.2134 0.2114 0.1807
H15 H 0.1586 0.3149 0.1477
H16 H 0.2190 0.4019 0.1764
C17 C 0.4219(7) 0.525(3) 0.2293(6)
H17 H 0.4470 0.4575 0.2075
H18 H 0.4136 0.4691 0.2660
H19 H 0.4426 0.6257 0.2412
H20 H 0.275(3) 0.353(9) -0.039(3)
P2 P 0.31318(8) -0.1022(3) 0.57326(8)
Cl2 Cl 0.3962(2) 0.0208(8) 0.20939(14)
N3 N 0.3125(2) -0.0077(9) 0.4566(2)
C18 C 0.3549(3) -0.0195(11) 0.5145(3)
H21 H 0.3852 -0.1016 0.5077
C19 C 0.3890(3) 0.1356(10) 0.5341(3)
C20 C 0.3343(3) 0.0021(10) 0.3993(3)
O6 O 0.2911(3) -0.2683(10) 0.5594(3)
C21 C 0.4546(3) 0.4155(11) 0.5662(3)
C22 C 0.4497(3) 0.1259(11) 0.5606(4)
H22 H 0.4683 0.0243 0.5666
C23 C 0.3619(3) 0.2853(12) 0.5254(4)
H23 H 0.3209 0.2920 0.5093
C24 C 0.4832(4) 0.2681(12) 0.5783(4)
H24 H 0.5233 0.2625 0.5976
C25 C 0.3927(3) -0.0482(15) 0.3919(3)
H25 H 0.4194 -0.0853 0.4262
O7 O 0.3587(3) -0.0825(13) 0.6336(2)
C26 C 0.3732(4) 0.0154(17) 0.2823(3)
C27 C 0.4110(3) -0.0425(17) 0.3323(4)
H26 H 0.4494 -0.0790 0.3274
C28 C 0.2976(4) 0.0588(17) 0.3472(4)
H27 H 0.2590 0.0958 0.3513
O8 O 0.2572(3) 0.0104(16) 0.5713(3)
C29 C 0.3155(4) 0.0631(18) 0.2891(3)
H28 H 0.2887 0.0983 0.2545
C30 C 0.2016(6) 0.070(3) 0.6557(6)
H29 H 0.1688 -0.0054 0.6455
H30 H 0.1860 0.1732 0.6676
H31 H 0.2299 0.0281 0.6898
C31 C 0.3952(3) 0.4292(12) 0.5404(4)
H32 H 0.3772 0.5313 0.5330
C32 C 0.4198(6) -0.148(3) 0.7281(6)
H33 H 0.4529 -0.1938 0.7101
H34 H 0.4176 -0.2004 0.7675
H35 H 0.4261 -0.0332 0.7345
C33 C 0.3650(5) -0.175(2) 0.6871(4)
H36 H 0.3625 -0.2892 0.6755
H37 H 0.3314 -0.1509 0.7093
C34 C 0.2295(10) 0.092(3) 0.6058(7)
H38 H 0.1983 0.1440 0.5763
H39 H 0.2581 0.1785 0.6196
N4 N 0.4893(4) 0.5656(11) 0.5818(4)
O9 O 0.4660(5) 0.6966(12) 0.5667(7)
O10 O 0.5436(3) 0.5507(16) 0.6039(5)
H40 H 0.276(3) 0.096(10) 0.455(3)
loop_
_geom_bond_atom_site_label_1
_geom_bond_atom_site_label_2
_geom_bond_site_symmetry_1
_geom_bond_site_symmetry_2
P1 O1 1_555 1_555
Cl1 C10 1_555 1_555
C1 C4 1_555 1_555
C2 C8 1_555 1_555
C3 C5 1_555 1_555
C4 H1 1_555 1_555
C5 H2 1_555 1_555
C6 C3 1_555 1_555
H3 C6 1_555 1_555
C7 C1 1_555 1_555
H4 C7 1_555 1_555
C8 H5 1_555 1_555
O2 P1 1_555 1_555
C9 C2 1_555 1_555
H6 C9 1_555 1_555
C10 C11 1_555 1_555
C11 C8 1_555 1_555
H7 C11 1_555 1_555
C12 C9 1_555 1_555
H8 C12 1_555 1_555
N1 C3 1_555 1_555
O3 N1 1_555 1_555
N2 C2 1_555 1_555
O4 N1 1_555 1_555
C13 P1 1_555 1_555
H9 C13 1_555 1_555
C14 H10 1_555 1_555
H11 C14 1_555 1_555
O5 P1 1_555 1_555
C15 O2 1_555 1_555
H12 C15 1_555 1_555
H13 C15 1_555 1_555
C16 C14 1_555 1_555
H14 C16 1_555 1_555
H15 C16 1_555 1_555
H16 C16 1_555 1_555
C17 C15 1_555 1_555
H17 C17 1_555 1_555
H18 C17 1_555 1_555
H19 C17 1_555 1_555
H20 N2 1_555 1_555
P2 C18 1_555 1_555
Cl2 C26 1_555 1_555
N3 C18 1_555 1_555
C18 H21 1_555 1_555
C19 C18 1_555 1_555
C20 N3 1_555 1_555
O6 P2 1_555 1_555
C21 C24 1_555 1_555
C22 C19 1_555 1_555
H22 C22 1_555 1_555
C23 C19 1_555 1_555
H23 C23 1_555 1_555
C24 C22 1_555 1_555
H24 C24 1_555 1_555
C25 C20 1_555 1_555
H25 C25 1_555 1_555
O7 P2 1_555 1_555
C26 C27 1_555 1_555
C27 C25 1_555 1_555
H26 C27 1_555 1_555
C28 C20 1_555 1_555
H27 C28 1_555 1_555
O8 P2 1_555 1_555
C29 C26 1_555 1_555
H28 C29 1_555 1_555
C30 H29 1_555 1_555
H30 C30 1_555 1_555
H31 C30 1_555 1_555
C31 C21 1_555 1_555
H32 C31 1_555 1_555
C32 H33 1_555 1_555
H34 C32 1_555 1_555
H35 C32 1_555 1_555
C33 O7 1_555 1_555
H36 C33 1_555 1_555
H37 C33 1_555 1_555
C34 O8 1_555 1_555
H38 C34 1_555 1_555
H39 C34 1_555 1_555
N4 C21 1_555 1_555
O9 N4 1_555 1_555
O10 N4 1_555 1_555
H40 N3 1_555 1_555
C1 C13 1_555 1_555
C4 C6 1_555 1_555
C5 C7 1_555 1_555
C10 C12 1_555 1_555
N2 C13 1_555 1_555
C14 O5 1_555 1_555
C23 C31 1_555 1_555
C28 C29 1_555 1_555
C30 C34 1_555 1_555
C32 C33 1_555 1_555

#END
