
#######################################################################
#
#                 Cambridge Crystallographic Data Centre
#                                CCDC 
#
#######################################################################
#
# If this CIF has been generated from an entry in the Cambridge 
# Structural Database, then it will include bibliographic, chemical, 
# crystal, experimental, refinement or atomic coordinate data resulting 
# from the CCDC's data processing and validation procedures.
#
#######################################################################

data_QUDKIL
_chemical_formula_moiety         'C17 H21 N2 O6 P1'
_chemical_name_systematic        
'diethyl ((4-hydroxyphenyl)((3-nitrophenyl)amino)methyl)phosphonate'
_symmetry_cell_setting           monoclinic
_symmetry_space_group_name_H-M   'P 21/c'
_symmetry_Int_Tables_number      14
_space_group_name_Hall           '-P 2ybc'
loop_
_symmetry_equiv_pos_site_id
_symmetry_equiv_pos_as_xyz
1 x,y,z
2 -x,1/2+y,1/2-z
3 -x,-y,-z
4 x,1/2-y,1/2+z
_cell_length_a                   12.2302(5)
_cell_length_b                   8.5754(3)
_cell_length_c                   17.8559(7)
_cell_angle_alpha                90
_cell_angle_beta                 100.193(2)
_cell_angle_gamma                90
_cell_volume                     1843.15
_cell_formula_units_Z            4
loop_
_atom_site_label
_atom_site_type_symbol
_atom_site_fract_x
_atom_site_fract_y
_atom_site_fract_z
P1 P 0.16084(7) 0.28958(9) 0.17598(4)
N1 N 0.2715(2) 0.3420(3) 0.06401(14)
C1 C 0.2222(2) 0.0616(3) 0.08335(14)
C2 C 0.2588(3) 0.2185(3) 0.11861(16)
H1 H 0.3307 0.2040 0.1521
O1 O 0.1094(2) -0.3698(2) -0.00585(15)
H2 H 0.0653 -0.3595 -0.0458
O2 O 0.0498(2) 0.3185(3) 0.13253(14)
O3 O 0.2090(2) 0.4429(3) 0.21493(13)
O4 O 0.1702(2) 0.1653(3) 0.24026(15)
C3 C 0.1459(2) -0.2256(3) 0.02141(17)
C4 C 0.2507(2) -0.0763(3) 0.12300(16)
H3 H 0.2967 -0.0729 0.1704
C5 C 0.5122(3) 0.2181(4) -0.0202(2)
H4 H 0.5712 0.1482 -0.0104
C6 C 0.4365(3) 0.2242(3) 0.02829(19)
H5 H 0.4446 0.1576 0.0700
C7 C 0.2113(3) -0.2193(3) 0.09285(19)
H6 H 0.2290 -0.3103 0.1206
C8 C 0.1566(3) 0.0520(3) 0.01218(16)
H7 H 0.1373 0.1430 -0.0153
C9 C 0.3474(2) 0.3290(3) 0.01590(15)
C10 C 0.1189(3) -0.0900(4) -0.01920(17)
H8 H 0.0755 -0.0939 -0.0675
C11 C 0.3370(2) 0.4281(3) -0.04743(15)
H9 H 0.2797 0.5006 -0.0572
O5 O 0.3260(4) 0.6154(4) -0.16887(18)
C12 C 0.4138(3) 0.4150(4) -0.09472(17)
N2 N 0.3988(3) 0.5182(5) -0.16252(18)
C13 C 0.5020(3) 0.3145(5) -0.0835(2)
H10 H 0.5527 0.3109 -0.1166
C14 C 0.0516(4) 0.1847(5) 0.3342(3)
H11 H 0.1171 0.1921 0.3727
H12 H -0.0057 0.1312 0.3545
H13 H 0.0265 0.2875 0.3183
C15 C 0.0777(4) 0.0971(4) 0.2681(2)
H14 H 0.0951 -0.0101 0.2829
H15 H 0.0132 0.0967 0.2278
O6 O 0.4572(4) 0.4976(8) -0.2086(3)
C16 C 0.3099(5) 0.4544(9) 0.2689(4)
H16 H 0.3440 0.3519 0.2742
H17 H 0.3599 0.5228 0.2479
C17 C 0.3028(8) 0.5065(8) 0.3390(4)
H18 H 0.2467 0.5859 0.3353
H19 H 0.3730 0.5492 0.3626
H20 H 0.2834 0.4216 0.3692
loop_
_geom_bond_atom_site_label_1
_geom_bond_atom_site_label_2
_geom_bond_site_symmetry_1
_geom_bond_site_symmetry_2
P1 C2 1_555 1_555
N1 C2 1_555 1_555
C1 C2 1_555 1_555
C2 H1 1_555 1_555
O1 H2 1_555 1_555
O2 P1 1_555 1_555
O3 P1 1_555 1_555
O4 P1 1_555 1_555
C3 O1 1_555 1_555
C4 C1 1_555 1_555
H3 C4 1_555 1_555
C5 H4 1_555 1_555
C6 C5 1_555 1_555
H5 C6 1_555 1_555
C7 C3 1_555 1_555
H6 C7 1_555 1_555
C8 C1 1_555 1_555
H7 C8 1_555 1_555
C9 N1 1_555 1_555
C10 C3 1_555 1_555
H8 C10 1_555 1_555
C11 C9 1_555 1_555
H9 C11 1_555 1_555
O5 N2 1_555 1_555
C12 C11 1_555 1_555
N2 C12 1_555 1_555
C13 C5 1_555 1_555
H10 C13 1_555 1_555
C14 H11 1_555 1_555
H12 C14 1_555 1_555
H13 C14 1_555 1_555
C15 O4 1_555 1_555
H14 C15 1_555 1_555
H15 C15 1_555 1_555
O6 N2 1_555 1_555
C16 O3 1_555 1_555
H16 C16 1_555 1_555
H17 C16 1_555 1_555
C17 C16 1_555 1_555
H18 C17 1_555 1_555
H19 C17 1_555 1_555
H20 C17 1_555 1_555
C4 C7 1_555 1_555
C6 C9 1_555 1_555
C8 C10 1_555 1_555
C12 C13 1_555 1_555
C14 C15 1_555 1_555

#END
