
#######################################################################
#
#                 Cambridge Crystallographic Data Centre
#                                CCDC 
#
#######################################################################
#
# If this CIF has been generated from an entry in the Cambridge 
# Structural Database, then it will include bibliographic, chemical, 
# crystal, experimental, refinement or atomic coordinate data resulting 
# from the CCDC's data processing and validation procedures.
#
#######################################################################

data_QUDKEH
_chemical_formula_moiety         'C17 H20 Cl1 N2 O5 P1'
_chemical_name_systematic        
'diethyl ((4-chlorophenyl)((4-nitrophenyl)amino)methyl)phosphonate'
_symmetry_cell_setting           triclinic
_symmetry_space_group_name_H-M   'P -1'
_symmetry_Int_Tables_number      2
_space_group_name_Hall           '-P 1'
loop_
_symmetry_equiv_pos_site_id
_symmetry_equiv_pos_as_xyz
1 x,y,z
2 -x,-y,-z
_cell_length_a                   7.7916(2)
_cell_length_b                   10.6084(3)
_cell_length_c                   12.7751(4)
_cell_angle_alpha                107.2550(10)
_cell_angle_beta                 92.8790(10)
_cell_angle_gamma                101.7190(10)
_cell_volume                     980.485
_cell_formula_units_Z            2
loop_
_atom_site_label
_atom_site_type_symbol
_atom_site_fract_x
_atom_site_fract_y
_atom_site_fract_z
P1 P 0.51164(8) 0.73476(6) 0.53455(5)
Cl1 Cl 1.24589(12) 1.06790(11) 0.91558(10)
N1 N 0.4631(3) 0.6304(2) 0.69798(18)
C1 C 0.5232(3) 0.7614(2) 0.68248(18)
H1 H 0.4398 0.8170 0.7120
O1 O 0.6042(3) 0.63328(18) 0.47508(15)
C2 C 0.7063(3) 0.8378(2) 0.74098(17)
C3 C 0.4096(3) 0.6166(2) 0.79418(19)
O2 O 0.5766(3) 0.8793(2) 0.52364(17)
C4 C 0.4077(3) 0.7276(2) 0.8865(2)
H2 H 0.4473 0.8150 0.8833
C5 C 0.3536(4) 0.4855(3) 0.8028(2)
H3 H 0.3575 0.4104 0.7434
C6 C 0.3487(4) 0.7094(3) 0.9814(2)
H4 H 0.3478 0.7840 1.0421
C7 C 0.7502(4) 0.9795(3) 0.7758(2)
H5 H 0.6672 1.0269 0.7634
C8 C 0.2903(4) 0.5794(3) 0.9861(2)
C9 C 1.0363(4) 0.9788(3) 0.8476(2)
C10 C 0.8290(4) 0.7699(3) 0.7633(3)
H6 H 0.7999 0.6757 0.7424
O3 O 0.3085(3) 0.7046(3) 0.50191(19)
C11 C 0.9158(4) 1.0488(3) 0.8283(2)
H7 H 0.9456 1.1430 0.8506
C12 C 0.2936(4) 0.4669(3) 0.8969(3)
H8 H 0.2554 0.3799 0.9013
O4 O 0.2312(7) 0.6645(5) 1.1651(3)
C13 C 0.9961(4) 0.8402(3) 0.8168(3)
H9 H 1.0791 0.7939 0.8314
N2 N 0.2254(5) 0.5624(4) 1.0858(3)
O5 O 0.1646(5) 0.4472(4) 1.0878(3)
C14 C 0.0390(7) 0.6110(10) 0.3901(5)
H10 H -0.0087 0.6081 0.4574
H11 H -0.0164 0.5299 0.3315
H12 H 0.0172 0.6885 0.3721
C15 C 0.2180(6) 0.6204(7) 0.4033(4)
H13 H 0.2368 0.5302 0.3935
H14 H 0.2690 0.6507 0.3448
C16 C 0.7281(10) 0.9223(6) 0.3787(5)
H15 H 0.7343 0.8339 0.3326
H16 H 0.8235 0.9891 0.3684
H17 H 0.6177 0.9412 0.3590
C17 C 0.7414(7) 0.9265(5) 0.4935(5)
H18 H 0.8211 0.8712 0.5050
H19 H 0.7903 1.0190 0.5401
H20 H 0.449(4) 0.553(3) 0.653(3)
loop_
_geom_bond_atom_site_label_1
_geom_bond_atom_site_label_2
_geom_bond_site_symmetry_1
_geom_bond_site_symmetry_2
P1 C1 1_555 1_555
Cl1 C9 1_555 1_555
N1 C1 1_555 1_555
C1 H1 1_555 1_555
O1 P1 1_555 1_555
C2 C1 1_555 1_555
C3 N1 1_555 1_555
O2 P1 1_555 1_555
C4 C3 1_555 1_555
H2 C4 1_555 1_555
C5 C3 1_555 1_555
H3 C5 1_555 1_555
C6 C4 1_555 1_555
H4 C6 1_555 1_555
C7 C2 1_555 1_555
H5 C7 1_555 1_555
C8 C6 1_555 1_555
C9 C11 1_555 1_555
C10 C2 1_555 1_555
H6 C10 1_555 1_555
O3 P1 1_555 1_555
C11 C7 1_555 1_555
H7 C11 1_555 1_555
C12 C5 1_555 1_555
H8 C12 1_555 1_555
O4 N2 1_555 1_555
C13 C9 1_555 1_555
H9 C13 1_555 1_555
N2 C8 1_555 1_555
O5 N2 1_555 1_555
C14 H10 1_555 1_555
H11 C14 1_555 1_555
H12 C14 1_555 1_555
C15 O3 1_555 1_555
H13 C15 1_555 1_555
H14 C15 1_555 1_555
C16 H15 1_555 1_555
H16 C16 1_555 1_555
H17 C16 1_555 1_555
C17 O2 1_555 1_555
H18 C17 1_555 1_555
H19 C17 1_555 1_555
H20 N1 1_555 1_555
C8 C12 1_555 1_555
C10 C13 1_555 1_555
C14 C15 1_555 1_555
C16 C17 1_555 1_555

#END
