
#######################################################################
#
#                 Cambridge Crystallographic Data Centre
#                                CCDC 
#
#######################################################################
#
# If this CIF has been generated from an entry in the Cambridge 
# Structural Database, then it will include bibliographic, chemical, 
# crystal, experimental, refinement or atomic coordinate data resulting 
# from the CCDC's data processing and validation procedures.
#
#######################################################################

data_QUDKUX
_chemical_formula_moiety         'C18 H23 Cl1 N1 O4 P1'
_chemical_name_systematic        
'diethyl (((4-chlorophenyl)amino)(4-methoxyphenyl)methyl)phosphonate'
_symmetry_cell_setting           triclinic
_symmetry_space_group_name_H-M   'P -1'
_symmetry_Int_Tables_number      2
_space_group_name_Hall           '-P 1'
loop_
_symmetry_equiv_pos_site_id
_symmetry_equiv_pos_as_xyz
1 x,y,z
2 -x,-y,-z
_cell_length_a                   8.8782(3)
_cell_length_b                   8.9732(3)
_cell_length_c                   13.2136(5)
_cell_angle_alpha                81.446(2)
_cell_angle_beta                 73.770(2)
_cell_angle_gamma                83.748(2)
_cell_volume                     996.962
_cell_formula_units_Z            2
loop_
_atom_site_label
_atom_site_type_symbol
_atom_site_fract_x
_atom_site_fract_y
_atom_site_fract_z
P1 P 0.36560(6) 0.24452(5) 0.59324(4)
Cl1 Cl -0.15295(13) 0.97405(9) 0.89790(8)
O1 O 0.4844(2) 0.31282(18) 0.50270(12)
O2 O 0.41633(19) 0.08954(17) 0.64989(15)
C1 C 0.2914(2) 0.3656(2) 0.69795(15)
H1 H 0.1946 0.3251 0.7452
C2 C 0.1563(2) 0.6198(2) 0.71100(16)
C3 C 0.4055(2) 0.3663(2) 0.76427(15)
O3 O 0.7283(3) 0.3715(3) 0.93859(16)
O4 O 0.2177(2) 0.1935(2) 0.56797(16)
C4 C 0.0307(3) 0.5792(3) 0.79821(18)
H2 H 0.0111 0.4778 0.8183
C5 C 0.5388(3) 0.4489(3) 0.72584(17)
H3 H 0.5572 0.5055 0.6592
C6 C 0.0891(3) 0.8795(3) 0.7419(2)
H4 H 0.1082 0.9811 0.7231
C7 C 0.1844(3) 0.7723(3) 0.6849(2)
H5 H 0.2689 0.8020 0.6281
C8 C 0.3818(3) 0.2846(3) 0.86400(17)
H6 H 0.2932 0.2295 0.8909
C9 C 0.4862(3) 0.2826(3) 0.92505(18)
H7 H 0.4678 0.2265 0.9919
C10 C -0.0644(3) 0.6870(3) 0.8549(2)
H8 H -0.1488 0.6588 0.9121
C11 C 0.6180(3) 0.3646(3) 0.88580(19)
C12 C -0.0341(3) 0.8361(3) 0.8265(2)
C13 C 0.6433(3) 0.4469(3) 0.7862(2)
H9 H 0.7320 0.5018 0.7595
C14 C 0.5796(4) 0.0439(4) 0.6434(3)
H10 H 0.6287 0.1229 0.6627
H11 H 0.6353 0.0262 0.5713
C15 C -0.0378(5) 0.2577(10) 0.5533(6)
H12 H -0.0479 0.1536 0.5488
H13 H -0.1002 0.3211 0.5130
H14 H -0.0735 0.2762 0.6262
C16 C 0.5870(6) -0.0947(5) 0.7162(4)
H15 H 0.5274 -0.0775 0.7867
H16 H 0.6945 -0.1236 0.7156
H17 H 0.5439 -0.1739 0.6940
C17 C 0.1171(5) 0.2894(5) 0.5132(4)
H18 H 0.1271 0.3941 0.5193
H19 H 0.1509 0.2765 0.4384
N1 N 0.2488(2) 0.5142(2) 0.64710(14)
C18 C 0.7005(4) 0.3025(4) 1.0449(2)
H20 H 0.6022 0.3436 1.0864
H21 H 0.7839 0.3216 1.0734
H22 H 0.6967 0.1956 1.0471
H23 H 0.326(3) 0.556(3) 0.604(2)
loop_
_geom_bond_atom_site_label_1
_geom_bond_atom_site_label_2
_geom_bond_site_symmetry_1
_geom_bond_site_symmetry_2
P1 O1 1_555 1_555
Cl1 C12 1_555 1_555
O2 P1 1_555 1_555
C1 P1 1_555 1_555
H1 C1 1_555 1_555
C2 C4 1_555 1_555
C3 C1 1_555 1_555
O3 C11 1_555 1_555
O4 P1 1_555 1_555
C4 H2 1_555 1_555
C5 C3 1_555 1_555
H3 C5 1_555 1_555
C6 H4 1_555 1_555
C7 C2 1_555 1_555
H5 C7 1_555 1_555
C8 C3 1_555 1_555
H6 C8 1_555 1_555
C9 C8 1_555 1_555
H7 C9 1_555 1_555
C10 C4 1_555 1_555
H8 C10 1_555 1_555
C11 C9 1_555 1_555
C12 C6 1_555 1_555
C13 C5 1_555 1_555
H9 C13 1_555 1_555
C14 O2 1_555 1_555
H10 C14 1_555 1_555
H11 C14 1_555 1_555
C15 H12 1_555 1_555
H13 C15 1_555 1_555
H14 C15 1_555 1_555
C16 C14 1_555 1_555
H15 C16 1_555 1_555
H16 C16 1_555 1_555
H17 C16 1_555 1_555
C17 O4 1_555 1_555
H18 C17 1_555 1_555
H19 C17 1_555 1_555
N1 C1 1_555 1_555
C18 O3 1_555 1_555
H20 C18 1_555 1_555
H21 C18 1_555 1_555
H22 C18 1_555 1_555
H23 N1 1_555 1_555
C2 N1 1_555 1_555
C6 C7 1_555 1_555
C10 C12 1_555 1_555
C11 C13 1_555 1_555
C15 C17 1_555 1_555

#END
