
#######################################################################
#
#                 Cambridge Crystallographic Data Centre
#                                CCDC 
#
#######################################################################
#
# If this CIF has been generated from an entry in the Cambridge 
# Structural Database, then it will include bibliographic, chemical, 
# crystal, experimental, refinement or atomic coordinate data resulting 
# from the CCDC's data processing and validation procedures.
#
#######################################################################

data_QUDLIM
_chemical_formula_moiety         'C17 H20 Cl1 N2 O5 P1'
_chemical_name_systematic        
'diethyl (((4-chlorophenyl)amino)(2-nitrophenyl)methyl)phosphonate'
_symmetry_cell_setting           triclinic
_symmetry_space_group_name_H-M   'P -1'
_symmetry_Int_Tables_number      2
_space_group_name_Hall           '-P 1'
loop_
_symmetry_equiv_pos_site_id
_symmetry_equiv_pos_as_xyz
1 x,y,z
2 -x,-y,-z
_cell_length_a                   8.1644(2)
_cell_length_b                   11.6975(3)
_cell_length_c                   11.7798(4)
_cell_angle_alpha                106.796(2)
_cell_angle_beta                 109.576(2)
_cell_angle_gamma                100.364(2)
_cell_volume                     965.827
_cell_formula_units_Z            2
loop_
_atom_site_label
_atom_site_type_symbol
_atom_site_fract_x
_atom_site_fract_y
_atom_site_fract_z
P1 P 0.98812(12) 0.97701(7) 0.27274(9)
Cl1 Cl 1.2615(2) 0.36478(12) 0.43115(15)
C1 C 0.9398(4) 0.8106(3) 0.2485(3)
H1 H 0.9897 0.7719 0.1875
N1 N 1.0450(4) 0.8072(2) 0.3734(3)
C2 C 1.0852(4) 0.6989(3) 0.3829(3)
C3 C 0.7384(5) 0.7409(3) 0.1903(3)
C4 C 1.1062(5) 0.4912(3) 0.2907(4)
H2 H 1.0849 0.4220 0.2183
C5 C 1.1911(5) 0.4925(3) 0.4117(4)
C6 C 1.0506(5) 0.5934(3) 0.2746(3)
H3 H 0.9902 0.5915 0.1914
O1 O 0.8550(5) 0.9723(3) 0.1403(3)
C7 C 1.1700(6) 0.6965(4) 0.5046(4)
H4 H 1.1927 0.7655 0.5777
C8 C 0.6195(5) 0.6959(3) 0.0579(3)
C9 C 0.6574(5) 0.7221(4) 0.2720(4)
H5 H 0.7286 0.7511 0.3608
N2 N 0.6917(8) 0.7079(4) -0.0396(4)
C10 C 1.2221(6) 0.5943(4) 0.5208(4)
H6 H 1.2773 0.5939 0.6036
O2 O 0.8381(7) 0.6955(4) -0.0266(3)
O3 O 1.1694(5) 1.0141(3) 0.2517(5)
C11 C 0.4733(6) 0.6613(5) 0.2246(5)
H7 H 0.4233 0.6490 0.2821
C12 C 0.4372(7) 0.6376(4) 0.0133(5)
H8 H 0.3634 0.6106 -0.0750
C13 C 0.3624(6) 0.6185(5) 0.0945(6)
H9 H 0.2384 0.5772 0.0633
O4 O 0.5944(9) 0.7281(6) -0.1290(4)
C14 C 1.4580(12) 0.9847(10) 0.3335(11)
H10 H 1.3832 0.8990 0.2992
H11 H 1.5524 1.0034 0.4173
H12 H 1.5123 0.9973 0.2755
C15 C 0.8538(17) 1.0760(9) 0.1016(11)
H13 H 0.9576 1.1435 0.1722
H14 H 0.8888 1.0547 0.0290
C16 C 0.751(2) 1.1219(17) 0.073(2)
H15 H 0.7303 1.1646 0.1476
H16 H 0.6389 1.0601 0.0074
H17 H 0.7924 1.1814 0.0395
C17 C 1.3444(8) 1.0684(6) 0.3462(9)
H18 H 1.3411 1.0887 0.4311
H19 H 1.3991 1.1460 0.3402
O5 O 0.9684(6) 1.0522(3) 0.3840(3)
H20 H 1.029(5) 0.844(4) 0.445(4)
loop_
_geom_bond_atom_site_label_1
_geom_bond_atom_site_label_2
_geom_bond_site_symmetry_1
_geom_bond_site_symmetry_2
P1 C1 1_555 1_555
Cl1 C5 1_555 1_555
C1 H1 1_555 1_555
N1 C1 1_555 1_555
C2 N1 1_555 1_555
C3 C1 1_555 1_555
C4 H2 1_555 1_555
C5 C4 1_555 1_555
C6 C2 1_555 1_555
H3 C6 1_555 1_555
O1 P1 1_555 1_555
C7 C2 1_555 1_555
H4 C7 1_555 1_555
C8 C3 1_555 1_555
C9 C3 1_555 1_555
H5 C9 1_555 1_555
N2 C8 1_555 1_555
C10 C5 1_555 1_555
H6 C10 1_555 1_555
O2 N2 1_555 1_555
O3 P1 1_555 1_555
C11 C9 1_555 1_555
H7 C11 1_555 1_555
C12 C8 1_555 1_555
H8 C12 1_555 1_555
C13 C11 1_555 1_555
H9 C13 1_555 1_555
O4 N2 1_555 1_555
C14 H10 1_555 1_555
H11 C14 1_555 1_555
H12 C14 1_555 1_555
C15 O1 1_555 1_555
H13 C15 1_555 1_555
H14 C15 1_555 1_555
C16 C15 1_555 1_555
H15 C16 1_555 1_555
H16 C16 1_555 1_555
H17 C16 1_555 1_555
C17 O3 1_555 1_555
H18 C17 1_555 1_555
H19 C17 1_555 1_555
O5 P1 1_555 1_555
H20 N1 1_555 1_555
C4 C6 1_555 1_555
C7 C10 1_555 1_555
C12 C13 1_555 1_555
C14 C17 1_555 1_555

#END
