
#######################################################################
#
#                 Cambridge Crystallographic Data Centre
#                                CCDC 
#
#######################################################################
#
# If this CIF has been generated from an entry in the Cambridge 
# Structural Database, then it will include bibliographic, chemical, 
# crystal, experimental, refinement or atomic coordinate data resulting 
# from the CCDC's data processing and validation procedures.
#
#######################################################################

data_QUDMOS
_chemical_formula_moiety         'C16 H15 N3 O2'
_chemical_name_systematic        
4-(2-Methoxyphenyl)-1-(4-methoxyphenyl)-1H-1,2,3-triazole
_symmetry_cell_setting           monoclinic
_symmetry_space_group_name_H-M   'P 21/n'
_symmetry_Int_Tables_number      14
_space_group_name_Hall           '-P 2yn'
loop_
_symmetry_equiv_pos_site_id
_symmetry_equiv_pos_as_xyz
1 x,y,z
2 1/2-x,1/2+y,1/2-z
3 -x,-y,-z
4 1/2+x,1/2-y,1/2+z
_cell_length_a                   9.6315(12)
_cell_length_b                   9.8856(13)
_cell_length_c                   15.734(2)
_cell_angle_alpha                90
_cell_angle_beta                 106.780(2)
_cell_angle_gamma                90
_cell_volume                     1434.3
_exptl_crystal_colour            colorless
_exptl_crystal_description       prismatic
_cell_formula_units_Z            4
loop_
_atom_site_label
_atom_site_type_symbol
_atom_site_fract_x
_atom_site_fract_y
_atom_site_fract_z
N1 N 0.20869(19) 0.08930(17) 0.23000(11)
N2 N 0.2181(2) 0.0291(2) 0.30819(12)
N3 N 0.3539(2) 0.0361(2) 0.35567(12)
O1 O 0.60811(15) 0.21649(16) 0.21579(9)
O2 O -0.30124(19) 0.0797(2) -0.04639(12)
C1 C 0.3392(2) 0.1342(2) 0.22863(13)
H1 H 0.3613 0.1795 0.1824
C2 C 0.4332(2) 0.10022(19) 0.30891(13)
C3 C 0.5898(2) 0.1180(2) 0.34764(12)
C4 C 0.6553(2) 0.0775(2) 0.43437(14)
H2 H 0.5987 0.0387 0.4668
C5 C 0.8016(3) 0.0933(2) 0.47368(15)
H3 H 0.8428 0.0675 0.5324
C6 C 0.8864(3) 0.1471(3) 0.42566(16)
H4 H 0.9858 0.1559 0.4515
C7 C 0.8248(2) 0.1883(2) 0.33901(15)
H5 H 0.8828 0.2251 0.3068
C8 C 0.6775(2) 0.1752(2) 0.30024(13)
C9 C 0.0748(2) 0.0915(2) 0.16063(13)
C10 C -0.0237(2) -0.0120(2) 0.15542(15)
H6 H -0.0051 -0.0796 0.1983
C11 C -0.1486(3) -0.0141(2) 0.08664(17)
H7 H -0.2151 -0.0836 0.0831
C12 C -0.1773(2) 0.0853(2) 0.02257(16)
C13 C -0.0789(2) 0.1889(2) 0.02859(14)
H8 H -0.0976 0.2566 -0.0143
C14 C 0.0467(2) 0.1923(2) 0.09793(14)
H9 H 0.1124 0.2627 0.1023
C15 C 0.6862(3) 0.2964(3) 0.17063(16)
H10 H 0.7248 0.3745 0.2058
H11 H 0.6224 0.3247 0.1145
H12 H 0.7642 0.2441 0.1609
C16 C -0.3179(5) 0.1635(5) -0.1214(3)
H13? H -0.3277 0.2559 -0.1052
H14? H -0.4031 0.1368 -0.1673
H15? H -0.2344 0.1549 -0.1426
loop_
_geom_bond_atom_site_label_1
_geom_bond_atom_site_label_2
_geom_bond_site_symmetry_1
_geom_bond_site_symmetry_2
N1 N2 1_555 1_555
N2 N3 1_555 1_555
N3 C2 1_555 1_555
O1 C8 1_555 1_555
O2 C12 1_555 1_555
C1 N1 1_555 1_555
H1 C1 1_555 1_555
C2 C1 1_555 1_555
C3 C2 1_555 1_555
C4 C3 1_555 1_555
H2 C4 1_555 1_555
C5 C4 1_555 1_555
H3 C5 1_555 1_555
C6 C5 1_555 1_555
H4 C6 1_555 1_555
C7 C6 1_555 1_555
H5 C7 1_555 1_555
C8 C3 1_555 1_555
C9 N1 1_555 1_555
C10 C9 1_555 1_555
H6 C10 1_555 1_555
C11 C10 1_555 1_555
H7 C11 1_555 1_555
C12 C11 1_555 1_555
C13 C12 1_555 1_555
H8 C13 1_555 1_555
C14 C9 1_555 1_555
H9 C14 1_555 1_555
C15 O1 1_555 1_555
H10 C15 1_555 1_555
H11 C15 1_555 1_555
H12 C15 1_555 1_555
C16 O2 1_555 1_555
C7 C8 1_555 1_555
C13 C14 1_555 1_555

#END
