
#######################################################################
#
#                 Cambridge Crystallographic Data Centre
#                                CCDC 
#
#######################################################################
#
# If this CIF has been generated from an entry in the Cambridge 
# Structural Database, then it will include bibliographic, chemical, 
# crystal, experimental, refinement or atomic coordinate data resulting 
# from the CCDC's data processing and validation procedures.
#
#######################################################################

data_QUDNUZ
_chemical_formula_moiety         'C22 H23 N3 O3'
_chemical_name_systematic        
1-(4-Ethynyl-2,5-dimethoxyphenyl)-4-(2-isobutoxyphenyl)-1H-1,2,3-triazole
_symmetry_cell_setting           triclinic
_symmetry_space_group_name_H-M   'P -1'
_symmetry_Int_Tables_number      2
_space_group_name_Hall           '-P 1'
loop_
_symmetry_equiv_pos_site_id
_symmetry_equiv_pos_as_xyz
1 x,y,z
2 -x,-y,-z
_cell_length_a                   10.5118(11)
_cell_length_b                   11.2359(12)
_cell_length_c                   17.9193(19)
_cell_angle_alpha                102.714(2)
_cell_angle_beta                 94.130(2)
_cell_angle_gamma                99.117(2)
_cell_volume                     2025.87
_exptl_crystal_colour            colorless
_exptl_crystal_description       prismatic
_cell_formula_units_Z            4
loop_
_atom_site_label
_atom_site_type_symbol
_atom_site_fract_x
_atom_site_fract_y
_atom_site_fract_z
N1 N 0.69206(19) 0.26465(18) 0.40024(11)
N2 N 0.7084(2) 0.2132(2) 0.46090(12)
N3 N 0.8322(2) 0.2380(2) 0.48504(12)
O1 O 1.04485(16) 0.46428(16) 0.36659(10)
O2 O 0.24248(16) 0.06641(17) 0.36911(11)
O3 O 0.62994(17) 0.39565(18) 0.29096(11)
C1 C 0.8088(2) 0.3224(2) 0.38715(14)
H1 H 0.8249 0.3653 0.3490
C2 C 0.8975(2) 0.3052(2) 0.44084(14)
C3 C 1.0379(2) 0.3436(2) 0.45827(13)
C4 C 1.1033(3) 0.3014(2) 0.51498(14)
H2 H 1.0563 0.2481 0.5402
C5 C 1.2344(3) 0.3358(3) 0.53479(17)
H3 H 1.2754 0.3067 0.5731
C6 C 1.3042(3) 0.4133(3) 0.49764(18)
H4 H 1.3932 0.4368 0.5110
C7 C 1.2455(3) 0.4572(2) 0.44083(16)
H5 H 1.2944 0.5091 0.4155
C8 C 1.1117(2) 0.4230(2) 0.42161(14)
C9 C 0.5632(2) 0.2493(2) 0.36371(13)
C10 C 0.4687(2) 0.1668(2) 0.38395(14)
H6 H 0.4913 0.1230 0.4198
C11 C 0.3410(3) 0.1469(2) 0.35259(15)
C12 C 0.3078(2) 0.2123(2) 0.29851(14)
C13 C 0.4040(3) 0.2939(3) 0.27764(15)
H7 H 0.3818 0.3362 0.2409
C14 C 0.5324(3) 0.3152(2) 0.30938(14)
C15 C 0.1762(3) 0.1971(3) 0.26451(16)
C16 C 0.0712(3) 0.1880(3) 0.23540(18)
H8 H -0.0126 0.1807 0.2122
C17 C 0.2674(3) 0.0116(3) 0.43224(16)
H9 H 0.3302 -0.0413 0.4204
H10 H 0.1884 -0.0365 0.4411
H11 H 0.3004 0.0757 0.4776
C18 C 0.5973(3) 0.4773(3) 0.24552(18)
H12 H 0.5561 0.4299 0.1960
H13 H 0.6746 0.5306 0.2391
H14 H 0.5390 0.5265 0.2707
C19 C 1.1140(3) 0.5548(3) 0.33258(16)
H15 H 1.1782 0.5194 0.3029
H16 H 1.1586 0.6251 0.3725
C20 C 1.0197(3) 0.5967(3) 0.28107(16)
H17 H 0.9519 0.6259 0.3112
C21 C 0.9571(3) 0.4926(3) 0.21412(18)
H18 H 1.0228 0.4618 0.1847
H19 H 0.8987 0.5226 0.1820
H20 H 0.9099 0.4269 0.2329
C22 C 1.0917(3) 0.7047(3) 0.25317(19)
H21 H 1.1269 0.7717 0.2966
H22 H 1.0326 0.7322 0.2201
H23 H 1.1608 0.6782 0.2253
N4 N 0.64884(19) 0.10910(18) 0.14676(11)
N5 N 0.7771(2) 0.1493(2) 0.14731(15)
N6 N 0.7906(2) 0.2213(2) 0.09942(15)
O4 O 0.43954(18) 0.24536(17) -0.01222(10)
O5 O 0.75993(18) -0.09410(18) 0.34767(11)
O6 O 0.39352(16) -0.01142(16) 0.13696(10)
C23 C 0.5835(3) 0.1567(2) 0.09634(14)
H24 H 0.4941 0.1421 0.0836
C24 C 0.6725(2) 0.2298(2) 0.06784(14)
C25 C 0.6654(3) 0.3068(2) 0.01169(14)
C26 C 0.7793(3) 0.3752(2) -0.00307(16)
H25 H 0.8573 0.3738 0.0244
C27 C 0.7793(3) 0.4448(3) -0.05743(17)
H26 H 0.8565 0.4894 -0.0667
C28 C 0.6649(4) 0.4478(3) -0.09760(18)
H27 H 0.6649 0.4941 -0.1347
C29 C 0.5493(3) 0.3832(3) -0.08404(16)
H28 H 0.4720 0.3863 -0.1116
C30 C 0.5492(3) 0.3134(2) -0.02867(15)
C31 C 0.6093(2) 0.0274(2) 0.19518(13)
C32 C 0.7043(2) 0.0086(2) 0.24729(14)
H29 H 0.7894 0.0486 0.2495
C33 C 0.6734(3) -0.0686(2) 0.29552(15)
C34 C 0.5447(3) -0.1274(2) 0.29269(14)
C35 C 0.4516(2) -0.1073(2) 0.24014(15)
H30 H 0.3660 -0.1459 0.2385
C36 C 0.4817(2) -0.0323(2) 0.19053(14)
C37 C 0.5072(3) -0.2000(3) 0.34660(17)
C38 C 0.4714(3) -0.2546(3) 0.39162(19)
H31 H 0.4429 -0.2983 0.4275
C39 C 0.8922(3) -0.0356(3) 0.35366(17)
H32 H 0.9255 -0.0595 0.3051
H33 H 0.9420 -0.0607 0.3926
H34 H 0.8981 0.0528 0.3673
C40 C 0.2612(2) -0.0704(3) 0.13424(16)
H35 H 0.2567 -0.1584 0.1261
H36 H 0.2099 -0.0529 0.0928
H37 H 0.2285 -0.0395 0.1820
C41 C 0.3180(3) 0.2443(3) -0.05406(16)
H38 H 0.3222 0.2150 -0.1088
H39 H 0.2989 0.3276 -0.0449
C42 C 0.2129(3) 0.1599(3) -0.02782(18)
H40 H 0.2365 0.0775 -0.0353
C43 C 0.1974(3) 0.2047(3) 0.0550(2)
H41 H 0.2786 0.2126 0.0854
H42 H 0.1330 0.1464 0.0699
H43 H 0.1706 0.2839 0.0629
C44 C 0.0867(3) 0.1490(4) -0.0780(2)
H44 H 0.0195 0.0941 -0.0626
H45 H 0.0978 0.1167 -0.1309
H46 H 0.0631 0.2294 -0.0723
loop_
_geom_bond_atom_site_label_1
_geom_bond_atom_site_label_2
_geom_bond_site_symmetry_1
_geom_bond_site_symmetry_2
N1 N2 1_555 1_555
N2 N3 1_555 1_555
N3 C2 1_555 1_555
N4 N5 1_555 1_555
N5 N6 1_555 1_555
N6 C24 1_555 1_555
O1 C8 1_555 1_555
O2 C11 1_555 1_555
O3 C14 1_555 1_555
O4 C30 1_555 1_555
O5 C33 1_555 1_555
O6 C36 1_555 1_555
C1 N1 1_555 1_555
H1 C1 1_555 1_555
C2 C1 1_555 1_555
C3 C2 1_555 1_555
C4 C3 1_555 1_555
H2 C4 1_555 1_555
C5 C4 1_555 1_555
H3 C5 1_555 1_555
C6 C5 1_555 1_555
H4 C6 1_555 1_555
C7 C6 1_555 1_555
H5 C7 1_555 1_555
C8 C3 1_555 1_555
C9 N1 1_555 1_555
C10 C9 1_555 1_555
H6 C10 1_555 1_555
C11 C10 1_555 1_555
C12 C11 1_555 1_555
C13 C12 1_555 1_555
H7 C13 1_555 1_555
C14 C9 1_555 1_555
C15 C12 1_555 1_555
C16 C15 1_555 1_555
H8 C16 1_555 1_555
C17 O2 1_555 1_555
H9 C17 1_555 1_555
H10 C17 1_555 1_555
H11 C17 1_555 1_555
C18 O3 1_555 1_555
H12 C18 1_555 1_555
H13 C18 1_555 1_555
H14 C18 1_555 1_555
C19 O1 1_555 1_555
H15 C19 1_555 1_555
H16 C19 1_555 1_555
C20 C19 1_555 1_555
H17 C20 1_555 1_555
C21 C20 1_555 1_555
H18 C21 1_555 1_555
H19 C21 1_555 1_555
H20 C21 1_555 1_555
C22 C20 1_555 1_555
H21 C22 1_555 1_555
H22 C22 1_555 1_555
H23 C22 1_555 1_555
C23 N4 1_555 1_555
H24 C23 1_555 1_555
C24 C23 1_555 1_555
C25 C24 1_555 1_555
C26 C25 1_555 1_555
H25 C26 1_555 1_555
C27 C26 1_555 1_555
H26 C27 1_555 1_555
C28 C27 1_555 1_555
H27 C28 1_555 1_555
C29 C28 1_555 1_555
H28 C29 1_555 1_555
C30 C25 1_555 1_555
C31 N4 1_555 1_555
C32 C31 1_555 1_555
H29 C32 1_555 1_555
C33 C32 1_555 1_555
C34 C33 1_555 1_555
C35 C34 1_555 1_555
H30 C35 1_555 1_555
C36 C31 1_555 1_555
C37 C34 1_555 1_555
C38 C37 1_555 1_555
H31 C38 1_555 1_555
C39 O5 1_555 1_555
H32 C39 1_555 1_555
H33 C39 1_555 1_555
H34 C39 1_555 1_555
C40 O6 1_555 1_555
H35 C40 1_555 1_555
H36 C40 1_555 1_555
H37 C40 1_555 1_555
C41 O4 1_555 1_555
H38 C41 1_555 1_555
H39 C41 1_555 1_555
C42 C41 1_555 1_555
H40 C42 1_555 1_555
C43 C42 1_555 1_555
H41 C43 1_555 1_555
H42 C43 1_555 1_555
H43 C43 1_555 1_555
C44 C42 1_555 1_555
H44 C44 1_555 1_555
H45 C44 1_555 1_555
H46 C44 1_555 1_555
C7 C8 1_555 1_555
C13 C14 1_555 1_555
C29 C30 1_555 1_555
C35 C36 1_555 1_555

#END
