
#######################################################################
#
#                 Cambridge Crystallographic Data Centre
#                                CCDC 
#
#######################################################################
#
# If this CIF has been generated from an entry in the Cambridge 
# Structural Database, then it will include bibliographic, chemical, 
# crystal, experimental, refinement or atomic coordinate data resulting 
# from the CCDC's data processing and validation procedures.
#
#######################################################################

data_QUDQUD
_chemical_formula_moiety         'C28 H31 N3 O1 S1'
_chemical_name_systematic        
3',6'-bis(Diethylamino)spiro[isoindole-1,9'-xanthene]-3(2H)-thione
_symmetry_cell_setting           monoclinic
_symmetry_space_group_name_H-M   'P 21/c'
_symmetry_Int_Tables_number      14
_space_group_name_Hall           '-P 2ybc'
loop_
_symmetry_equiv_pos_site_id
_symmetry_equiv_pos_as_xyz
1 x,y,z
2 -x,1/2+y,1/2-z
3 -x,-y,-z
4 x,1/2-y,1/2+z
_cell_length_a                   13.4032(4)
_cell_length_b                   11.6469(4)
_cell_length_c                   15.7460(5)
_cell_angle_alpha                90
_cell_angle_beta                 100.117(3)
_cell_angle_gamma                90
_cell_volume                     2419.82
_exptl_crystal_colour            colorless
_exptl_crystal_description       block
_cell_formula_units_Z            4
loop_
_atom_site_label
_atom_site_type_symbol
_atom_site_fract_x
_atom_site_fract_y
_atom_site_fract_z
S1 S -0.00953(3) 1.08552(4) 0.36127(2)
O1 O 0.26249(8) 0.72506(9) 0.62311(7)
N1 N 0.11858(9) 0.94917(11) 0.46657(8)
H1 H 0.0750 0.9371 0.4997
N2 N 0.15768(10) 0.41092(11) 0.43254(8)
N3 N 0.38377(10) 1.00632(12) 0.83517(9)
C1 C 0.09873(11) 1.01672(13) 0.39768(9)
C2 C 0.19297(11) 1.02034(13) 0.36056(10)
C3 C 0.26636(11) 0.95327(13) 0.41157(10)
C4 C 0.17089(11) 0.72034(14) 0.38904(10)
H2 H 0.1576 0.7694 0.3418
C5 C 0.21313(12) 1.07920(14) 0.28844(10)
H3 H 0.1636 1.1231 0.2544
C6 C 0.15208(11) 0.60521(14) 0.37640(10)
H4 H 0.1258 0.5782 0.3215
C7 C 0.22726(11) 0.69063(14) 0.53873(9)
C8 C 0.17245(11) 0.52702(14) 0.44649(10)
C9 C 0.20944(11) 0.76707(13) 0.47036(10)
C10 C 0.20983(11) 0.57327(14) 0.52850(10)
H5 H 0.2230 0.5250 0.5762
C11 C 0.29985(12) 1.03467(14) 0.59955(10)
H6 H 0.2925 1.0923 0.5580
C12 C 0.34937(11) 0.97855(14) 0.74957(10)
C13 C 0.36306(12) 0.94442(15) 0.39226(11)
H7 H 0.4124 0.8999 0.4260
C14 C 0.33670(12) 1.06341(14) 0.68415(10)
H8 H 0.3534 1.1393 0.6984
C15 C 0.28663(11) 0.83910(13) 0.63812(10)
C16 C 0.41614(12) 0.91706(15) 0.89876(10)
H9 H 0.3639 0.8586 0.8938
H10 H 0.4230 0.9503 0.9560
C17 C 0.27303(11) 0.92223(14) 0.57372(10)
C18 C 0.51603(12) 0.86023(16) 0.88931(11)
H11 H 0.5103 0.8279 0.8326
H12 H 0.5315 0.8005 0.9316
H13 H 0.5692 0.9165 0.8978
C19 C 0.32523(11) 0.86510(14) 0.72411(10)
H14 H 0.3350 0.8066 0.7649
C20 C 0.22129(11) 0.89554(13) 0.48293(10)
C21 C 0.10875(12) 0.36802(15) 0.34807(10)
H15 H 0.1211 0.2861 0.3456
H16 H 0.1401 0.4044 0.3040
C22 C 0.31012(13) 1.06985(15) 0.26933(11)
H17 H 0.3258 1.1080 0.2215
C23 C 0.17802(13) 0.32827(14) 0.50303(11)
H18 H 0.2378 0.3531 0.5428
H19 H 0.1936 0.2547 0.4796
C24 C 0.39002(13) 1.12553(15) 0.86424(11)
H20 H 0.3753 1.1286 0.9223
H21 H 0.3383 1.1697 0.8273
C25 C 0.49255(13) 1.18145(17) 0.86388(12)
H22 H 0.5075 1.1799 0.8065
H23 H 0.5440 1.1402 0.9020
H24 H 0.4908 1.2596 0.8830
C26 C 0.09186(14) 0.31142(18) 0.55341(12)
H25 H 0.0334 0.2820 0.5156
H26 H 0.0754 0.3837 0.5768
H27 H 0.1125 0.2579 0.5995
C27 C 0.38440(13) 1.00419(16) 0.32071(11)
H28 H 0.4491 1.0002 0.3071
C28 C -0.00510(12) 0.38892(16) 0.32721(12)
H29 H -0.0318 0.3570 0.2717
H30 H -0.0182 0.4700 0.3266
H31 H -0.0371 0.3530 0.3703
loop_
_geom_bond_atom_site_label_1
_geom_bond_atom_site_label_2
_geom_bond_site_symmetry_1
_geom_bond_site_symmetry_2
S1 C1 1_555 1_555
O1 C7 1_555 1_555
N1 H1 1_555 1_555
N2 C8 1_555 1_555
N3 C12 1_555 1_555
C1 N1 1_555 1_555
C2 C1 1_555 1_555
C3 C2 1_555 1_555
C4 H2 1_555 1_555
C5 C2 1_555 1_555
H3 C5 1_555 1_555
C6 C4 1_555 1_555
H4 C6 1_555 1_555
C7 C9 1_555 1_555
C8 C6 1_555 1_555
C9 C4 1_555 1_555
C10 C7 1_555 1_555
H5 C10 1_555 1_555
C11 H6 1_555 1_555
C12 C14 1_555 1_555
C13 C3 1_555 1_555
H7 C13 1_555 1_555
C14 C11 1_555 1_555
H8 C14 1_555 1_555
C15 O1 1_555 1_555
C16 N3 1_555 1_555
H9 C16 1_555 1_555
H10 C16 1_555 1_555
C17 C11 1_555 1_555
C18 C16 1_555 1_555
H11 C18 1_555 1_555
H12 C18 1_555 1_555
H13 C18 1_555 1_555
C19 C12 1_555 1_555
H14 C19 1_555 1_555
C20 N1 1_555 1_555
C21 N2 1_555 1_555
H15 C21 1_555 1_555
H16 C21 1_555 1_555
C22 C5 1_555 1_555
H17 C22 1_555 1_555
C23 N2 1_555 1_555
H18 C23 1_555 1_555
H19 C23 1_555 1_555
C24 N3 1_555 1_555
H20 C24 1_555 1_555
H21 C24 1_555 1_555
C25 C24 1_555 1_555
H22 C25 1_555 1_555
H23 C25 1_555 1_555
H24 C25 1_555 1_555
C26 C23 1_555 1_555
H25 C26 1_555 1_555
H26 C26 1_555 1_555
H27 C26 1_555 1_555
C27 C13 1_555 1_555
H28 C27 1_555 1_555
C28 C21 1_555 1_555
H29 C28 1_555 1_555
H30 C28 1_555 1_555
H31 C28 1_555 1_555
C3 C20 1_555 1_555
C8 C10 1_555 1_555
C9 C20 1_555 1_555
C15 C17 1_555 1_555
C15 C19 1_555 1_555
C17 C20 1_555 1_555
C22 C27 1_555 1_555

#END
