
#######################################################################
#
#                 Cambridge Crystallographic Data Centre
#                                CCDC 
#
#######################################################################
#
# If this CIF has been generated from an entry in the Cambridge 
# Structural Database, then it will include bibliographic, chemical, 
# crystal, experimental, refinement or atomic coordinate data resulting 
# from the CCDC's data processing and validation procedures.
#
#######################################################################

data_QUDTUG
_chemical_formula_moiety         'C21 H28 O2'
_chemical_name_systematic        2-decyl-3-methyl-1,4-naphthoquinone
_symmetry_cell_setting           monoclinic
_symmetry_space_group_name_H-M   'P 21'
_symmetry_Int_Tables_number      4
_space_group_name_Hall           'P 2yb'
loop_
_symmetry_equiv_pos_site_id
_symmetry_equiv_pos_as_xyz
1 x,y,z
2 -x,1/2+y,-z
_cell_length_a                   7.6514(5)
_cell_length_b                   4.7549(3)
_cell_length_c                   24.4722(17)
_cell_angle_alpha                90
_cell_angle_beta                 92.411(2)
_cell_angle_gamma                90
_cell_volume                     889.551
_exptl_crystal_colour            yellow
_exptl_crystal_description       rod
_cell_formula_units_Z            2
loop_
_atom_site_label
_atom_site_type_symbol
_atom_site_fract_x
_atom_site_fract_y
_atom_site_fract_z
C1 C 0.2230(5) 0.2606(8) 0.18605(13)
C2 C 0.2370(5) 0.2540(10) 0.60154(13)
H1 H 0.3074 0.4288 0.6018
H2 H 0.1121 0.3090 0.6001
C3 C 0.2318(5) 0.2495(10) 0.49730(13)
H3 H 0.3023 0.4241 0.4975
H4 H 0.1069 0.3047 0.4963
O1 O -0.0862(3) 0.4698(7) 0.07988(10)
C4 C 0.2256(5) 0.2458(9) 0.39288(13)
H5 H 0.1011 0.3025 0.3921
H6 H 0.2969 0.4195 0.3932
C5 C 0.3586(5) 0.6277(9) 0.12379(14)
C6 C 0.2670(5) 0.0836(10) 0.44570(13)
H7 H 0.1960 -0.0905 0.4454
H8 H 0.3918 0.0277 0.4467
C7 C 0.2737(5) 0.0890(9) 0.55002(13)
H9 H 0.2039 -0.0864 0.5497
H10 H 0.3988 0.0353 0.5511
C8 C 0.2183(5) 0.2479(9) 0.28875(13)
H11 H 0.2911 0.4200 0.2890
H12 H 0.0941 0.3070 0.2881
C9 C 0.0515(5) 0.4618(9) 0.10731(13)
C10 C 0.3767(5) 0.4341(9) 0.17110(14)
O2 O 0.5141(3) 0.4168(7) 0.19843(10)
C11 C 0.2595(5) 0.0823(10) 0.34102(13)
H13 H 0.1877 -0.0910 0.3405
H14 H 0.3840 0.0249 0.3418
C12 C 0.2512(5) 0.0790(9) 0.23643(13)
H15 H 0.3726 0.0066 0.2381
H16 H 0.1708 -0.0841 0.2341
C13 C 0.2029(5) 0.6400(9) 0.09251(14)
C14 C 0.2769(5) 0.0964(10) 0.65462(13)
H17 H 0.2091 -0.0811 0.6541
H18 H 0.4026 0.0464 0.6567
C15 C 0.0705(5) 0.2760(9) 0.15599(14)
C16 C 0.2346(5) 0.2612(11) 0.70536(14)
H19 H 0.2629 0.1474 0.7379
H20 H 0.1097 0.3080 0.7041
H21 H 0.3037 0.4348 0.7069
C17 C 0.4995(5) 0.7988(9) 0.11021(15)
H22 H 0.6067 0.7902 0.1312
C18 C 0.3271(5) 0.9889(9) 0.03474(15)
H23 H 0.3166 1.1107 0.0040
C19 C 0.1876(5) 0.8206(9) 0.04795(14)
H24 H 0.0813 0.8285 0.0265
C20 C 0.4818(5) 0.9806(10) 0.06604(16)
H25 H 0.5761 1.0999 0.0572
C21 C -0.0905(5) 0.1111(11) 0.16823(16)
H26 H -0.0632 -0.0212 0.1981
H27 H -0.1307 0.0068 0.1355
H28 H -0.1827 0.2402 0.1791
loop_
_geom_bond_atom_site_label_1
_geom_bond_atom_site_label_2
_geom_bond_site_symmetry_1
_geom_bond_site_symmetry_2
C1 C10 1_555 1_555
C2 H1 1_555 1_555
H2 C2 1_555 1_555
C3 H3 1_555 1_555
H4 C3 1_555 1_555
O1 C9 1_555 1_555
C4 H5 1_555 1_555
H6 C4 1_555 1_555
C5 C10 1_555 1_555
C6 C3 1_555 1_555
H7 C6 1_555 1_555
H8 C6 1_555 1_555
C7 C2 1_555 1_555
H9 C7 1_555 1_555
H10 C7 1_555 1_555
C8 H11 1_555 1_555
H12 C8 1_555 1_555
C9 C13 1_555 1_555
C10 O2 1_555 1_555
C11 C4 1_555 1_555
H13 C11 1_555 1_555
H14 C11 1_555 1_555
C12 C1 1_555 1_555
H15 C12 1_555 1_555
H16 C12 1_555 1_555
C13 C5 1_555 1_555
C14 C2 1_555 1_555
H17 C14 1_555 1_555
H18 C14 1_555 1_555
C15 C1 1_555 1_555
C16 C14 1_555 1_555
H19 C16 1_555 1_555
H20 C16 1_555 1_555
H21 C16 1_555 1_555
C17 C5 1_555 1_555
H22 C17 1_555 1_555
C18 H23 1_555 1_555
C19 C13 1_555 1_555
H24 C19 1_555 1_555
C20 C17 1_555 1_555
H25 C20 1_555 1_555
C21 C15 1_555 1_555
H26 C21 1_555 1_555
H27 C21 1_555 1_555
H28 C21 1_555 1_555
C3 C7 1_555 1_555
C4 C6 1_555 1_555
C8 C11 1_555 1_555
C8 C12 1_555 1_555
C9 C15 1_555 1_555
C18 C19 1_555 1_555
C18 C20 1_555 1_555

#END
