
#######################################################################
#
#                 Cambridge Crystallographic Data Centre
#                                CCDC 
#
#######################################################################
#
# If this CIF has been generated from an entry in the Cambridge 
# Structural Database, then it will include bibliographic, chemical, 
# crystal, experimental, refinement or atomic coordinate data resulting 
# from the CCDC's data processing and validation procedures.
#
#######################################################################

data_QUDTOA
_chemical_formula_moiety         'C20 H26 O3'
_chemical_name_systematic        2-decyl-3-hydroxy-1,4-naphthoquinone
_symmetry_cell_setting           monoclinic
_symmetry_space_group_name_H-M   'P 21/c'
_symmetry_Int_Tables_number      14
_space_group_name_Hall           '-P 2ybc'
loop_
_symmetry_equiv_pos_site_id
_symmetry_equiv_pos_as_xyz
1 x,y,z
2 -x,1/2+y,1/2-z
3 -x,-y,-z
4 x,1/2-y,1/2+z
_cell_length_a                   24.2311(3)
_cell_length_b                   4.79550(10)
_cell_length_c                   14.5979(2)
_cell_angle_alpha                90
_cell_angle_beta                 90.1870(10)
_cell_angle_gamma                90
_cell_volume                     1696.27
_exptl_crystal_colour            yellow
_exptl_crystal_description       rod
_cell_formula_units_Z            4
loop_
_atom_site_label
_atom_site_type_symbol
_atom_site_fract_x
_atom_site_fract_y
_atom_site_fract_z
O1 O 0.09381(7) 0.5929(3) 0.43827(10)
C1 C 0.44678(9) 0.9539(5) 0.63421(16)
H1 H 0.4478 1.0101 0.6995
H2 H 0.4475 1.1261 0.5968
C2 C 0.18561(9) 0.7984(4) 0.61938(14)
C3 C 0.39312(9) 0.8010(5) 0.61559(15)
H3 H 0.3923 0.6300 0.6536
H4 H 0.3925 0.7425 0.5506
C4 C 0.34116(9) 0.9704(5) 0.63495(15)
H5 H 0.3422 1.0352 0.6993
H6 H 0.3409 1.1373 0.5950
C5 C 0.49815(9) 0.7832(5) 0.61339(15)
H7 H 0.4970 0.6097 0.6501
H8 H 0.4973 0.7293 0.5479
O2 O 0.18218(8) 0.9223(4) 0.46450(11)
C6 C 0.55206(9) 0.9325(5) 0.63301(15)
H9 H 0.5527 0.9891 0.6982
H10 H 0.5536 1.1042 0.5955
O3 O 0.18112(7) 0.6642(3) 0.77377(10)
C7 C 0.60300(9) 0.7588(5) 0.61350(15)
H11 H 0.6025 0.7041 0.5481
H12 H 0.6011 0.5859 0.6504
C8 C 0.11724(9) 0.4330(4) 0.67752(14)
C9 C 0.03090(10) 0.0624(5) 0.64473(16)
H13 H 0.0011 -0.0626 0.6342
C10 C 0.28849(9) 0.8079(5) 0.61928(16)
H14 H 0.2885 0.6435 0.6603
H15 H 0.2881 0.7387 0.5554
C11 C 0.11422(10) 0.5926(5) 0.51535(14)
C12 C 0.65724(9) 0.9044(5) 0.63395(16)
H16 H 0.6575 0.9634 0.6989
H17 H 0.6597 1.0745 0.5958
C13 C 0.23562(9) 0.9752(5) 0.63587(15)
H18 H 0.2353 1.0446 0.6997
H19 H 0.2347 1.1384 0.5944
C14 C 0.09280(9) 0.4165(4) 0.59011(14)
C15 C 0.16258(9) 0.7729(4) 0.53513(14)
C16 C 0.16250(9) 0.6348(4) 0.69554(13)
C17 C 0.70778(10) 0.7239(6) 0.61626(18)
H20 H 0.7412 0.8286 0.6321
H21 H 0.7089 0.6717 0.5514
H22 H 0.7058 0.5551 0.6540
C18 C 0.09844(9) 0.2589(4) 0.74695(14)
H23 H 0.1149 0.2675 0.8060
C19 C 0.05608(10) 0.0744(5) 0.73045(15)
H24 H 0.0439 -0.0458 0.7780
C20 C 0.04944(10) 0.2337(5) 0.57481(15)
H25 H 0.0324 0.2258 0.5162
H26 H 0.1665(13) 0.868(6) 0.417(2)
loop_
_geom_bond_atom_site_label_1
_geom_bond_atom_site_label_2
_geom_bond_site_symmetry_1
_geom_bond_site_symmetry_2
O1 C11 1_555 1_555
C1 H1 1_555 1_555
H2 C1 1_555 1_555
C2 C13 1_555 1_555
C3 C1 1_555 1_555
H3 C3 1_555 1_555
H4 C3 1_555 1_555
C4 C3 1_555 1_555
H5 C4 1_555 1_555
H6 C4 1_555 1_555
C5 C1 1_555 1_555
H7 C5 1_555 1_555
H8 C5 1_555 1_555
O2 C15 1_555 1_555
C6 C5 1_555 1_555
H9 C6 1_555 1_555
H10 C6 1_555 1_555
O3 C16 1_555 1_555
C7 C6 1_555 1_555
H11 C7 1_555 1_555
H12 C7 1_555 1_555
C8 C14 1_555 1_555
C9 H13 1_555 1_555
C10 C4 1_555 1_555
H14 C10 1_555 1_555
H15 C10 1_555 1_555
C11 C14 1_555 1_555
C12 C7 1_555 1_555
H16 C12 1_555 1_555
H17 C12 1_555 1_555
C13 C10 1_555 1_555
H18 C13 1_555 1_555
H19 C13 1_555 1_555
C14 C20 1_555 1_555
C15 C2 1_555 1_555
C16 C2 1_555 1_555
C17 C12 1_555 1_555
H20 C17 1_555 1_555
H21 C17 1_555 1_555
H22 C17 1_555 1_555
C18 C8 1_555 1_555
H23 C18 1_555 1_555
C19 C9 1_555 1_555
H24 C19 1_555 1_555
C20 C9 1_555 1_555
H25 C20 1_555 1_555
H26 O2 1_555 1_555
C8 C16 1_555 1_555
C11 C15 1_555 1_555
C18 C19 1_555 1_555

#END
