
#######################################################################
#
#                 Cambridge Crystallographic Data Centre
#                                CCDC 
#
#######################################################################
#
# If this CIF has been generated from an entry in the Cambridge 
# Structural Database, then it will include bibliographic, chemical, 
# crystal, experimental, refinement or atomic coordinate data resulting 
# from the CCDC's data processing and validation procedures.
#
#######################################################################

data_QUDTIT
_chemical_name_common            
'2,8,14,20-Tetraethyl-4,10,16,22-tetramethoxy-6,12,18,24-tetrakis(2-aminophenylaminoethoxy)calix[4]arene bis(acetonitrile) clathrate'
_chemical_formula_moiety         'C72 H88 N8 O8,2(C2 H3 N1)'
_chemical_name_systematic        
"N^1^,N^1^',N^1^'',N^1^'''-((2,8,14,20-tetraethyl-6,12,18,24-tetramethoxypentacyclo[19.3.1.1^3,7^.1^9,13^.1^15,19^]octacosa-1(25),3(28),4,6,9(27),10,12,15(26),16,18,21,23-dodecaene-4,10,16,22-tetrayl)tetrakis(oxyethane-2,1-diyl))tetrabenzene-1,2-diamine bis(acetonitrile) clathrate"
_symmetry_cell_setting           triclinic
_symmetry_space_group_name_H-M   'P -1'
_symmetry_Int_Tables_number      2
_space_group_name_Hall           '-P 1'
loop_
_symmetry_equiv_pos_site_id
_symmetry_equiv_pos_as_xyz
1 x,y,z
2 -x,-y,-z
_cell_length_a                   15.3148(5)
_cell_length_b                   15.8823(5)
_cell_length_c                   16.3810(5)
_cell_angle_alpha                74.4210(10)
_cell_angle_beta                 82.4530(10)
_cell_angle_gamma                63.7440(10)
_cell_volume                     3441.69
_exptl_crystal_colour            colorless
_exptl_crystal_description       block
_cell_formula_units_Z            2
loop_
_atom_site_label
_atom_site_type_symbol
_atom_site_fract_x
_atom_site_fract_y
_atom_site_fract_z
C1 C -0.19841(17) 1.33902(17) 0.18040(16)
C2 C -0.15455(17) 1.37828(16) 0.21906(16)
H1 H -0.1000 1.3878 0.1914
C3 C -0.18609(17) 1.40437(17) 0.29605(17)
C4 C -0.26380(18) 1.38609(17) 0.33738(16)
C5 C -0.30961(18) 1.34617(18) 0.30187(17)
H2 H -0.3621 1.3335 0.3309
C6 C -0.27760(18) 1.32502(17) 0.22341(17)
C7 C -0.14246(18) 1.45451(17) 0.33358(17)
H3 H -0.1967 1.4978 0.3650
C8 C -0.06333(17) 1.38699(17) 0.39816(17)
C9 C 0.01278(17) 1.30215(17) 0.38404(17)
H4 H 0.0104 1.2810 0.3357
C10 C 0.09217(17) 1.24682(17) 0.43736(16)
C11 C 0.09467(18) 1.27993(17) 0.50785(17)
C12 C 0.01848(19) 1.36271(17) 0.52495(17)
H5 H 0.0199 1.3835 0.5738
C13 C -0.05936(18) 1.41474(17) 0.47085(17)
C14 C 0.17840(18) 1.15803(17) 0.41644(17)
H6 H 0.2180 1.1233 0.4690
C15 C 0.14834(17) 1.08626(16) 0.39556(16)
C16 C 0.14396(17) 1.07939(17) 0.31311(17)
H7 H 0.1539 1.1258 0.2673
C17 C 0.12585(17) 1.00803(17) 0.29455(17)
C18 C 0.11092(18) 0.94147(17) 0.36210(18)
C19 C 0.11236(18) 0.94637(17) 0.44573(18)
H8 H 0.1005 0.9010 0.4914
C20 C 0.13133(17) 1.01865(17) 0.46118(17)
C21 C 0.12596(18) 0.99780(18) 0.20412(17)
H9 H 0.1485 0.9274 0.2079
C22 C 0.02591(18) 1.04982(17) 0.16363(16)
C23 C -0.02775(18) 1.14890(18) 0.15285(16)
H10 H -0.0045 1.1819 0.1786
C24 C -0.11336(18) 1.20317(17) 0.10689(16)
C25 C -0.14523(18) 1.15301(18) 0.06876(16)
C26 C -0.09522(18) 1.05375(18) 0.07944(17)
H11 H -0.1182 1.0207 0.0534
C27 C -0.01202(18) 1.00246(17) 0.12788(16)
C28 C -0.16506(19) 1.31246(18) 0.09495(16)
H12 H -0.2249 1.3359 0.0615
C29 C -0.10411(19) 1.51982(18) 0.26806(18)
H13 H -0.0713 1.5440 0.2982
H14 H -0.0547 1.4808 0.2315
C30 C -0.1826(2) 1.6056(2) 0.2122(2)
H15 H -0.2105 1.5825 0.1773
H16 H -0.1541 1.6471 0.1754
H17 H -0.2339 1.6427 0.2479
C31 C 0.24314(18) 1.19148(18) 0.34923(18)
H18 H 0.2087 1.2209 0.2945
H19 H 0.2531 1.2422 0.3656
C32 C 0.3423(2) 1.1109(2) 0.3367(2)
H20 H 0.3779 1.0826 0.3901
H21 H 0.3795 1.1375 0.2928
H22 H 0.3334 1.0609 0.3193
C33 C 0.19772(19) 1.0294(2) 0.14414(19)
H23 H 0.1894 1.0268 0.0861
H24 H 0.1809 1.0975 0.1431
C34 C 0.3040(2) 0.9685(3) 0.1680(2)
H25 H 0.3135 0.9716 0.2250
H26 H 0.3449 0.9934 0.1272
H27 H 0.3223 0.9013 0.1672
C35 C -0.1010(2) 1.3598(2) 0.04220(18)
H28 H -0.0439 1.3422 0.0761
H29 H -0.0768 1.3332 -0.0087
C36 C -0.1531(3) 1.4696(2) 0.0140(2)
H30 H -0.2107 1.4879 -0.0185
H31 H -0.1090 1.4944 -0.0215
H32 H -0.1731 1.4970 0.0639
C37 C -0.3671(2) 1.3888(3) 0.46122(19)
H33 H -0.4264 1.4198 0.4277
H34 H -0.3807 1.4115 0.5135
H35 H -0.3449 1.3185 0.4754
C38 C 0.1824(2) 1.2620(2) 0.6269(2)
H36 H 0.1734 1.3292 0.6063
H37 H 0.2465 1.2224 0.6529
H38 H 0.1317 1.2587 0.6692
C39 C 0.0857(3) 0.7975(2) 0.4094(2)
H39 H 0.1441 0.7651 0.4442
H40 H 0.0782 0.7503 0.3862
H41 H 0.0284 0.8262 0.4445
C40 C -0.2574(2) 1.1571(2) -0.02378(19)
H42 H -0.2055 1.1281 -0.0631
H43 H -0.3167 1.2029 -0.0555
H44 H -0.2704 1.1062 0.0174
C41 C -0.40294(19) 1.2728(2) 0.22122(18)
H45 H -0.4554 1.3328 0.2337
H46 H -0.3832 1.2227 0.2749
C42 C -0.4374(2) 1.2392(2) 0.15939(18)
H47 H -0.3825 1.1824 0.1439
H48 H -0.4889 1.2190 0.1866
C43 C -0.50790(19) 1.2957(2) 0.01741(19)
C44 C -0.5038(2) 1.2053(2) 0.0209(2)
H49 H -0.4784 1.1541 0.0696
C45 C -0.5366(3) 1.1897(2) -0.0462(2)
H50 H -0.5328 1.1277 -0.0435
C46 C -0.5745(3) 1.2635(3) -0.1165(2)
H51 H -0.5962 1.2523 -0.1627
C47 C -0.5811(2) 1.3538(2) -0.1200(2)
H52 H -0.6080 1.4048 -0.1685
C48 C -0.5488(2) 1.3713(2) -0.05370(19)
C49 C -0.1778(3) 1.4943(3) 0.5662(2)
H53 H -0.1325 1.4869 0.6083
H54 H -0.1931 1.4375 0.5825
C50 C -0.2698(2) 1.5855(3) 0.5646(2)
H55 H -0.3020 1.5817 0.6211
H56 H -0.2536 1.6415 0.5516
C51 C -0.4229(2) 1.6812(2) 0.4865(2)
C52 C -0.4661(2) 1.7392(2) 0.5434(2)
H57 H -0.4344 1.7242 0.5949
C53 C -0.5552(3) 1.8190(3) 0.5262(3)
H58 H -0.5847 1.8578 0.5660
C54 C -0.6006(3) 1.8414(3) 0.4510(3)
H59 H -0.6611 1.8965 0.4384
C55 C -0.5581(3) 1.7837(3) 0.3938(3)
H60 H -0.5901 1.7997 0.3421
C56 C -0.4705(2) 1.7035(2) 0.4103(2)
C57 C 0.1516(2) 0.94585(19) 0.61192(17)
H61 H 0.2032 0.8864 0.5976
H62 H 0.0914 0.9363 0.6278
C58 C 0.18314(19) 0.9689(2) 0.68329(18)
H63 H 0.1308 1.0280 0.6974
H64 H 0.1962 0.9150 0.7344
C59 C 0.31169(19) 1.01295(18) 0.70942(18)
C60 C 0.2839(2) 1.0114(2) 0.79354(19)
H65 H 0.2339 0.9916 0.8169
C61 C 0.3283(3) 1.0383(2) 0.8440(2)
H66 H 0.3081 1.0380 0.9015
C62 C 0.4012(3) 1.0654(3) 0.8107(3)
H67 H 0.4327 1.0825 0.8456
C63 C 0.4296(2) 1.0681(2) 0.7268(3)
H68 H 0.4802 1.0873 0.7044
C64 C 0.3850(2) 1.0433(2) 0.6756(2)
C65 C -0.0136(2) 0.85392(19) 0.1217(2)
H69 H -0.0082 0.8577 0.0601
H70 H -0.0834 0.8853 0.1369
C66 C 0.0293(2) 0.75075(19) 0.1694(2)
H71 H 0.0254 0.7477 0.2309
H72 H -0.0096 0.7189 0.1589
C67 C 0.1748(2) 0.5988(2) 0.17241(18)
C68 C 0.1259(2) 0.5439(2) 0.21535(19)
H73 H 0.0587 0.5755 0.2290
C69 C 0.1729(2) 0.4439(2) 0.2388(2)
H74 H 0.1381 0.4074 0.2676
C70 C 0.2709(2) 0.3975(2) 0.2200(2)
H75 H 0.3039 0.3290 0.2360
C71 C 0.3202(2) 0.4518(2) 0.1777(2)
H76 H 0.3876 0.4196 0.1654
C72 C 0.2745(2) 0.5507(2) 0.15307(19)
O1 O -0.22780(13) 1.20665(12) 0.01989(12)
N1 N -0.47509(17) 1.31485(17) 0.08364(16)
H77 H -0.437(2) 1.345(2) 0.0655(19)
N2 N -0.5516(2) 1.46168(19) -0.0579(2)
H78 H -0.570(2) 1.479(2) -0.008(2)
H79 H -0.586(3) 1.504(3) -0.101(2)
N3 N -0.33513(19) 1.59892(18) 0.50214(19)
H80 H -0.305(3) 1.581(2) 0.461(2)
N4 N -0.4234(3) 1.6457(3) 0.3518(2)
H81 H -0.404(3) 1.578(3) 0.380(3)
H82 H -0.465(3) 1.659(3) 0.311(3)
N5 N 0.27096(16) 0.98348(18) 0.65710(16)
H83 H 0.266(2) 1.022(2) 0.607(2)
N6 N 0.4089(2) 1.0516(2) 0.5891(2)
H84 H 0.452(3) 1.080(3) 0.569(2)
H85 H 0.417(3) 1.009(3) 0.577(3)
N7 N 0.12893(18) 0.69907(17) 0.14570(16)
H86 H 0.160(2) 0.739(2) 0.127(2)
N8 N 0.3232(2) 0.6078(2) 0.1105(2)
H87 H 0.395(3) 0.569(3) 0.104(2)
H88 H 0.290(3) 0.669(3) 0.062(2)
O2 O -0.29326(13) 1.41268(13) 0.41345(12)
O3 O -0.32202(13) 1.28989(13) 0.18166(12)
O4 O 0.17597(14) 1.22640(12) 0.55755(12)
O5 O -0.13415(12) 1.49994(12) 0.48487(12)
O6 O 0.09460(14) 0.87110(13) 0.34210(13)
O7 O 0.13463(13) 1.02756(12) 0.54178(11)
O8 O 0.03692(13) 0.90327(12) 0.14191(12)
N9 N 0.4514(4) 0.5265(4) 0.2979(4)
C73 C 0.3852(4) 0.5970(4) 0.2938(3)
C74 C 0.3014(4) 0.6864(4) 0.2875(3)
H89 H 0.3143 0.7376 0.2468
H90 H 0.2858 0.7020 0.3432
H91 H 0.2463 0.6814 0.2683
N10 N 0.0983(4) 1.3136(4) 0.1487(3)
C75 C 0.1668(5) 1.2959(4) 0.1097(4)
C76 C 0.2463(5) 1.2729(4) 0.0600(4)
H92 H 0.2856 1.3043 0.0690
H93 H 0.2269 1.2949 0.0005
H94 H 0.2847 1.2027 0.0739
C77? C 0.1935(8) 1.2436(7) 0.0109(7)
C78? C 0.2463(5) 1.2729(4) 0.0600(4)
H95? H 0.2954 1.2151 0.0953
H96? H 0.1999 1.3134 0.0962
H97? H 0.2783 1.3095 0.0207
N11? N 0.1647(7) 1.2167(8) -0.0324(6)
loop_
_geom_bond_atom_site_label_1
_geom_bond_atom_site_label_2
_geom_bond_site_symmetry_1
_geom_bond_site_symmetry_2
C1 C2 1_555 1_555
C2 H1 1_555 1_555
C3 C2 1_555 1_555
C4 C3 1_555 1_555
C5 C4 1_555 1_555
H2 C5 1_555 1_555
C6 C1 1_555 1_555
C7 C3 1_555 1_555
H3 C7 1_555 1_555
C8 C7 1_555 1_555
C9 C8 1_555 1_555
H4 C9 1_555 1_555
C10 C9 1_555 1_555
C11 C10 1_555 1_555
C12 C11 1_555 1_555
H5 C12 1_555 1_555
C13 C8 1_555 1_555
C14 C10 1_555 1_555
H6 C14 1_555 1_555
C15 C14 1_555 1_555
C16 C15 1_555 1_555
H7 C16 1_555 1_555
C17 C16 1_555 1_555
C18 C17 1_555 1_555
C19 C18 1_555 1_555
H8 C19 1_555 1_555
C20 C15 1_555 1_555
C21 C17 1_555 1_555
H9 C21 1_555 1_555
C22 C21 1_555 1_555
C23 C22 1_555 1_555
H10 C23 1_555 1_555
C24 C23 1_555 1_555
C25 C24 1_555 1_555
C26 C25 1_555 1_555
H11 C26 1_555 1_555
C27 C22 1_555 1_555
C28 C1 1_555 1_555
H12 C28 1_555 1_555
C29 C7 1_555 1_555
H13 C29 1_555 1_555
H14 C29 1_555 1_555
C30 C29 1_555 1_555
H15 C30 1_555 1_555
H16 C30 1_555 1_555
H17 C30 1_555 1_555
C31 C14 1_555 1_555
H18 C31 1_555 1_555
H19 C31 1_555 1_555
C32 C31 1_555 1_555
H20 C32 1_555 1_555
H21 C32 1_555 1_555
H22 C32 1_555 1_555
C33 C21 1_555 1_555
H23 C33 1_555 1_555
H24 C33 1_555 1_555
C34 C33 1_555 1_555
H25 C34 1_555 1_555
H26 C34 1_555 1_555
H27 C34 1_555 1_555
C35 C28 1_555 1_555
H28 C35 1_555 1_555
H29 C35 1_555 1_555
C36 C35 1_555 1_555
H30 C36 1_555 1_555
H31 C36 1_555 1_555
H32 C36 1_555 1_555
C37 H33 1_555 1_555
H34 C37 1_555 1_555
H35 C37 1_555 1_555
C38 H36 1_555 1_555
H37 C38 1_555 1_555
H38 C38 1_555 1_555
C39 H39 1_555 1_555
H40 C39 1_555 1_555
H41 C39 1_555 1_555
C40 H42 1_555 1_555
H43 C40 1_555 1_555
H44 C40 1_555 1_555
C41 H45 1_555 1_555
H46 C41 1_555 1_555
C42 C41 1_555 1_555
H47 C42 1_555 1_555
H48 C42 1_555 1_555
C43 C44 1_555 1_555
C44 H49 1_555 1_555
C45 C44 1_555 1_555
H50 C45 1_555 1_555
C46 C45 1_555 1_555
H51 C46 1_555 1_555
C47 C46 1_555 1_555
H52 C47 1_555 1_555
C48 C43 1_555 1_555
C49 H53 1_555 1_555
H54 C49 1_555 1_555
C50 C49 1_555 1_555
H55 C50 1_555 1_555
H56 C50 1_555 1_555
C51 C52 1_555 1_555
C52 H57 1_555 1_555
C53 C52 1_555 1_555
H58 C53 1_555 1_555
C54 C53 1_555 1_555
H59 C54 1_555 1_555
C55 C54 1_555 1_555
H60 C55 1_555 1_555
C56 C51 1_555 1_555
C57 H61 1_555 1_555
H62 C57 1_555 1_555
C58 C57 1_555 1_555
H63 C58 1_555 1_555
H64 C58 1_555 1_555
C59 C60 1_555 1_555
C60 H65 1_555 1_555
C61 C60 1_555 1_555
H66 C61 1_555 1_555
C62 C61 1_555 1_555
H67 C62 1_555 1_555
C63 C62 1_555 1_555
H68 C63 1_555 1_555
C64 C59 1_555 1_555
C65 H69 1_555 1_555
H70 C65 1_555 1_555
C66 C65 1_555 1_555
H71 C66 1_555 1_555
H72 C66 1_555 1_555
C67 C68 1_555 1_555
C68 H73 1_555 1_555
C69 C68 1_555 1_555
H74 C69 1_555 1_555
C70 C69 1_555 1_555
H75 C70 1_555 1_555
C71 C70 1_555 1_555
H76 C71 1_555 1_555
C72 C67 1_555 1_555
O1 C25 1_555 1_555
N1 C42 1_555 1_555
H77 N1 1_555 1_555
N2 C48 1_555 1_555
H78 N2 1_555 1_555
H79 N2 1_555 1_555
N3 C50 1_555 1_555
H80 N3 1_555 1_555
N4 C56 1_555 1_555
H81 N4 1_555 1_555
H82 N4 1_555 1_555
N5 C58 1_555 1_555
H83 N5 1_555 1_555
N6 C64 1_555 1_555
H84 N6 1_555 1_555
H85 N6 1_555 1_555
N7 C66 1_555 1_555
H86 N7 1_555 1_555
N8 C72 1_555 1_555
H87 N8 1_555 1_555
H88 N8 1_555 1_555
O2 C4 1_555 1_555
O3 C6 1_555 1_555
O4 C11 1_555 1_555
O5 C13 1_555 1_555
O6 C18 1_555 1_555
O7 C20 1_555 1_555
O8 C27 1_555 1_555
N9 C73 1_555 1_555
C73 C74 1_555 1_555
C74 H89 1_555 1_555
H90 C74 1_555 1_555
H91 C74 1_555 1_555
N10 C75 1_555 1_555
C75 C76 1_555 1_555
C76 H92 1_555 1_555
H93 C76 1_555 1_555
H94 C76 1_555 1_555
C5 C6 1_555 1_555
C12 C13 1_555 1_555
C19 C20 1_555 1_555
C24 C28 1_555 1_555
C26 C27 1_555 1_555
C37 O2 1_555 1_555
C38 O4 1_555 1_555
C39 O6 1_555 1_555
C40 O1 1_555 1_555
C41 O3 1_555 1_555
C43 N1 1_555 1_555
C47 C48 1_555 1_555
C49 O5 1_555 1_555
C51 N3 1_555 1_555
C55 C56 1_555 1_555
C57 O7 1_555 1_555
C59 N5 1_555 1_555
C63 C64 1_555 1_555
C65 O8 1_555 1_555
C67 N7 1_555 1_555
C71 C72 1_555 1_555

#END
