
#######################################################################
#
#                 Cambridge Crystallographic Data Centre
#                                CCDC 
#
#######################################################################
#
# If this CIF has been generated from an entry in the Cambridge 
# Structural Database, then it will include bibliographic, chemical, 
# crystal, experimental, refinement or atomic coordinate data resulting 
# from the CCDC's data processing and validation procedures.
#
#######################################################################

data_QUDTUF
_chemical_name_common            
'2,8,14,20-Tetraethyl-4,10,16,22-tetramethoxy-6,12,18,24-tetrakis(2-aminophenylaminoethoxy)calix[4]arene acetonitrile clathrate'
_chemical_formula_moiety         'C72 H88 N8 O8,C2 H3 N1'
_chemical_name_systematic        
"N^1^,N^1^',N^1^'',N^1^'''-((2,8,14,20-tetraethyl-6,12,18,24-tetramethoxypentacyclo[19.3.1.1^3,7^.1^9,13^.1^15,19^]octacosa-1(25),3(28),4,6,9(27),10,12,15(26),16,18,21,23-dodecaene-4,10,16,22-tetrayl)tetrakis(oxyethane-2,1-diyl))tetrabenzene-1,2-diamine acetonitrile clathrate"
_symmetry_cell_setting           triclinic
_symmetry_space_group_name_H-M   'P -1'
_symmetry_Int_Tables_number      2
_space_group_name_Hall           '-P 1'
loop_
_symmetry_equiv_pos_site_id
_symmetry_equiv_pos_as_xyz
1 x,y,z
2 -x,-y,-z
_cell_length_a                   14.9523(3)
_cell_length_b                   14.9859(4)
_cell_length_c                   17.0271(4)
_cell_angle_alpha                109.464(2)
_cell_angle_beta                 100.650(2)
_cell_angle_gamma                104.694(2)
_cell_volume                     3324.44
_exptl_crystal_colour            colorless
_exptl_crystal_description       block
_cell_formula_units_Z            2
loop_
_atom_site_label
_atom_site_type_symbol
_atom_site_fract_x
_atom_site_fract_y
_atom_site_fract_z
C1 C 0.34778(14) 0.34018(14) 0.00241(13)
C2 C 0.42264(14) 0.32627(14) 0.05369(13)
H1 H 0.4678 0.3032 0.0273
C3 C 0.43526(14) 0.34413(14) 0.14126(13)
C4 C 0.36671(15) 0.37549(14) 0.17818(13)
C5 C 0.29039(15) 0.39006(15) 0.12949(13)
H2 H 0.2440 0.4111 0.1552
C6 C 0.28273(15) 0.37353(14) 0.04323(13)
C7 C 0.51892(14) 0.33164(14) 0.19771(13)
H3 H 0.5395 0.3882 0.2563
C8 C 0.48865(14) 0.23439(15) 0.21175(13)
C9 C 0.42288(14) 0.14466(14) 0.14831(13)
H4 H 0.3914 0.1450 0.0946
C10 C 0.39991(14) 0.05361(15) 0.15833(14)
C11 C 0.44383(15) 0.05633(16) 0.23923(15)
C12 C 0.51039(16) 0.14445(17) 0.30470(15)
H5 H 0.5399 0.1447 0.3593
C13 C 0.53376(15) 0.23213(16) 0.29043(14)
C14 C 0.33901(14) -0.04580(15) 0.08238(14)
H6 H 0.3190 -0.0958 0.1082
C15 C 0.24655(14) -0.04515(14) 0.02827(13)
C16 C 0.23733(15) -0.03613(14) -0.05141(13)
H7 H 0.2945 -0.0185 -0.0679
C17 C 0.14988(15) -0.05131(14) -0.10847(14)
C18 C 0.06685(15) -0.07750(14) -0.08280(14)
C19 C 0.07294(15) -0.08272(15) -0.00173(14)
H8 H 0.0162 -0.0976 0.0159
C20 C 0.16189(15) -0.06609(14) 0.05290(13)
C21 C 0.14286(16) -0.05020(15) -0.19836(13)
H9 H 0.0780 -0.0992 -0.2378
C22 C 0.14859(15) 0.05176(15) -0.20166(13)
C23 C 0.22481(15) 0.13926(15) -0.14471(13)
H10 H 0.2681 0.1354 -0.0985
C24 C 0.24162(14) 0.23169(14) -0.15116(12)
C25 C 0.17585(15) 0.23638(15) -0.21849(13)
C26 C 0.09901(15) 0.15169(16) -0.27611(14)
H11 H 0.0546 0.1561 -0.3212
C27 C 0.08620(15) 0.05993(15) -0.26848(13)
C28 C 0.33266(14) 0.32139(15) -0.09299(13)
H12 H 0.3222 0.3820 -0.0999
C29 C 0.60865(15) 0.33881(15) 0.16515(14)
H13 H 0.6561 0.3229 0.2022
H14 H 0.5894 0.2872 0.1050
C30 C 0.65749(18) 0.44081(18) 0.16549(18)
H15 H 0.6135 0.4542 0.1240
H16 H 0.7167 0.4412 0.1486
H17 H 0.6738 0.4930 0.2241
C31 C 0.40184(16) -0.08316(16) 0.02600(15)
H18 H 0.3605 -0.1460 -0.0247
H19 H 0.4280 -0.0323 0.0035
C32 C 0.48552(18) -0.10308(19) 0.07455(19)
H20 H 0.5279 -0.0408 0.1240
H21 H 0.5224 -0.1267 0.0350
H22 H 0.4602 -0.1545 0.0959
C33 C 0.21950(18) -0.08413(17) -0.23830(15)
H23 H 0.2087 -0.0829 -0.2970
H24 H 0.2843 -0.0347 -0.2020
C34 C 0.2194(2) -0.18893(18) -0.24639(17)
H25 H 0.2402 -0.1883 -0.1881
H26 H 0.2641 -0.2078 -0.2789
H27 H 0.1540 -0.2378 -0.2774
C35 C 0.41958(16) 0.30846(18) -0.12577(14)
H28 H 0.4771 0.3690 -0.0892
H29 H 0.4329 0.2501 -0.1178
C36 C 0.4062(3) 0.2929(4) -0.2192(3)
H30 H 0.3960 0.3517 -0.2274
H31 H 0.3497 0.2328 -0.2563
H32 H 0.4640 0.2840 -0.2353
C37 C 0.31059(17) 0.42155(17) 0.30325(14)
H33 H 0.3086 0.4850 0.2998
H34 H 0.3284 0.4308 0.3645
H35 H 0.2467 0.3694 0.2723
C38 C 0.4836(4) -0.0482(4) 0.3110(4)
H36 H 0.5481 -0.0297 0.3032
H37 H 0.4619 -0.1191 0.3024
H38 H 0.4863 -0.0061 0.3701
C39 C -0.10601(16) -0.15611(17) -0.13152(16)
H39 H -0.0977 -0.2175 -0.1277
H40 H -0.1611 -0.1742 -0.1820
H41 H -0.1181 -0.1168 -0.0783
C40 C 0.12429(17) 0.33680(18) -0.28854(16)
H42 H 0.1237 0.2930 -0.3463
H43 H 0.1428 0.4067 -0.2830
H44 H 0.0597 0.3164 -0.2814
C41 C 0.12368(15) 0.38618(18) 0.01226(15)
H45 H 0.1344 0.4402 0.0694
H46 H 0.0941 0.3204 0.0145
C42 C 0.05918(15) 0.39864(16) -0.05917(15)
H47 H 0.0512 0.3459 -0.1162
H48 H -0.0055 0.3911 -0.0503
C43 C 0.04775(15) 0.52641(16) -0.11796(14)
C44 C -0.04048(16) 0.46273(16) -0.17896(14)
H49 H -0.0653 0.3955 -0.1839
C45 C -0.09311(17) 0.49506(18) -0.23277(15)
H50 H -0.1535 0.4507 -0.2742
C46 C -0.05644(18) 0.59295(19) -0.22535(16)
H51 H -0.0920 0.6162 -0.2616
C47 C 0.03160(18) 0.65703(18) -0.16552(16)
H52 H 0.0562 0.7238 -0.1617
C48 C 0.08475(17) 0.62593(16) -0.11095(15)
C49 C 0.64922(17) 0.32469(18) 0.43347(14)
H53 H 0.6838 0.2756 0.4252
H54 H 0.6018 0.3085 0.4646
C50 C 0.71947(17) 0.42992(18) 0.48424(14)
H55 H 0.6848 0.4787 0.4881
H56 H 0.7502 0.4384 0.5442
C51 C 0.86968(17) 0.53928(17) 0.47832(15)
C52 C 0.8844(2) 0.61498(19) 0.55914(16)
H57 H 0.8387 0.6073 0.5906
C53 C 0.9648(3) 0.7007(2) 0.5934(2)
H58 H 0.9752 0.7512 0.6491
C54 C 1.0303(2) 0.7137(2) 0.5476(2)
H59 H 1.0848 0.7738 0.5712
C55 C 1.0173(2) 0.6392(2) 0.4668(2)
H60 H 1.0628 0.6483 0.4355
C56 C 0.93717(18) 0.55173(18) 0.43250(17)
C57 C 0.09409(16) -0.11565(18) 0.15714(16)
H61 H 0.0488 -0.1772 0.1071
H62 H 0.0588 -0.0688 0.1768
C58 C 0.13745(17) -0.14121(18) 0.23036(16)
H63 H 0.1882 -0.0803 0.2768
H64 H 0.0868 -0.1656 0.2557
C59 C 0.24179(17) -0.23938(17) 0.25579(15)
C60 C 0.2545(2) -0.2020(2) 0.34469(17)
H65 H 0.2190 -0.1612 0.3688
C61 C 0.3193(2) -0.2243(2) 0.39891(19)
H66 H 0.3278 -0.1984 0.4599
C62 C 0.3712(2) -0.2833(2) 0.3650(2)
H67 H 0.4173 -0.2957 0.4026
C63 C 0.35583(19) -0.3243(2) 0.27621(19)
H68 H 0.3903 -0.3667 0.2529
C64 C 0.29125(17) -0.30482(18) 0.22048(17)
C65 C -0.03827(18) -0.02282(19) -0.40526(15)
H69 H 0.0082 -0.0055 -0.4369
H70 H -0.0689 0.0295 -0.3912
C66 C -0.11405(17) -0.12375(19) -0.46108(15)
H71 H -0.1469 -0.1234 -0.5170
H72 H -0.0834 -0.1762 -0.4740
C67 C -0.26812(16) -0.23165(17) -0.45827(15)
C68 C -0.29628(18) -0.29053(19) -0.54758(16)
H73 H -0.2565 -0.2752 -0.5821
C69 C -0.38304(19) -0.37204(19) -0.58612(17)
H74 H -0.4024 -0.4116 -0.6470
C70 C -0.44014(18) -0.39514(18) -0.53681(18)
H75 H -0.4985 -0.4514 -0.5632
C71 C -0.41312(17) -0.33685(18) -0.44865(17)
H76 H -0.4536 -0.3531 -0.4149
C72 C -0.32791(16) -0.25501(17) -0.40840(15)
N1 N 0.10141(14) 0.49765(13) -0.05890(12)
H77 H 0.1606(19) 0.5048(18) -0.0633(16)
N2 N 0.17338(18) 0.69026(17) -0.05141(18)
H78 H 0.188(2) 0.752(3) -0.045(2)
H79 H 0.198(2) 0.675(2) -0.012(2)
N3 N 0.79268(14) 0.44893(14) 0.44138(13)
H80 H 0.7698(19) 0.4286(19) 0.3809(18)
N4 N 0.91831(19) 0.47593(19) 0.35054(17)
H81 H 0.968(2) 0.485(2) 0.324(2)
H82 H 0.899(2) 0.410(2) 0.3522(19)
N5 N 0.17926(14) -0.21884(14) 0.19732(13)
H83 H 0.2067(18) -0.2121(19) 0.1524(17)
N6 N 0.2737(2) -0.34532(19) 0.12939(16)
H84 H 0.305(2) -0.393(2) 0.1135(19)
H85 H 0.205(2) -0.370(2) 0.096(2)
N7 N -0.18424(14) -0.14611(15) -0.41549(13)
H86 H -0.1530(19) -0.1423(19) -0.3586(18)
N8 N -0.29571(16) -0.19748(18) -0.31793(14)
H87 H -0.342(2) -0.215(2) -0.2924(18)
H88 H -0.269(2) -0.126(2) -0.3059(17)
O1 O 0.38029(10) 0.39165(11) 0.26436(9)
O2 O 0.21240(10) 0.39175(11) -0.00778(9)
O3 O 0.41819(12) -0.03333(12) 0.24971(11)
O4 O 0.60131(11) 0.32149(11) 0.35117(9)
O5 O -0.01986(10) -0.09734(11) -0.14106(10)
O6 O 0.17501(10) -0.06904(11) 0.13355(10)
O7 O 0.19227(11) 0.32849(11) -0.22310(10)
O8 O 0.01129(11) -0.02646(11) -0.32679(9)
C73 C -0.3772(8) -0.0777(7) -0.5089(8)
H89 H -0.3507 -0.0775 -0.4516
H90 H -0.4066 -0.1473 -0.5523
H91 H -0.4264 -0.0452 -0.5060
C74 C -0.2969(14) -0.0209(10) -0.5346(6)
N9 N -0.2475(15) 0.0255(15) -0.5478(14)
C75? C 0.5073(5) 0.4120(5) -0.0829(5)
C76? C 0.4486(12) -0.0144(11) 0.3450(9)
C77? C -0.3213(12) -0.0996(11) -0.6558(11)
C78? C -0.2462(19) -0.0086(14) -0.5819(14)
H92? H 0.4007 0.2853 -0.1900
H93? H 0.4397 0.2568 -0.1107
H94? H 0.5586 0.4055 -0.1106
H95? H 0.5326 0.4294 -0.0204
H96? H 0.4849 0.4652 -0.0913
H97? H 0.5193 0.0152 0.3682
H98? H 0.4269 -0.0781 0.3517
H99? H 0.4195 0.0321 0.3770
H100? H -0.3672 -0.0783 -0.6879
H101? H -0.3559 -0.1447 -0.6325
H102? H -0.2897 -0.1349 -0.6951
N10? N -0.1961(15) 0.0519(13) -0.5342(13)
loop_
_geom_bond_atom_site_label_1
_geom_bond_atom_site_label_2
_geom_bond_site_symmetry_1
_geom_bond_site_symmetry_2
C1 C2 1_555 1_555
C2 H1 1_555 1_555
C3 C2 1_555 1_555
C4 C3 1_555 1_555
C5 C4 1_555 1_555
H2 C5 1_555 1_555
C6 C1 1_555 1_555
C7 C3 1_555 1_555
H3 C7 1_555 1_555
C8 C7 1_555 1_555
C9 C8 1_555 1_555
H4 C9 1_555 1_555
C10 C9 1_555 1_555
C11 C10 1_555 1_555
C12 C11 1_555 1_555
H5 C12 1_555 1_555
C13 C8 1_555 1_555
C14 C10 1_555 1_555
H6 C14 1_555 1_555
C15 C14 1_555 1_555
C16 C15 1_555 1_555
H7 C16 1_555 1_555
C17 C16 1_555 1_555
C18 C17 1_555 1_555
C19 C18 1_555 1_555
H8 C19 1_555 1_555
C20 C15 1_555 1_555
C21 C17 1_555 1_555
H9 C21 1_555 1_555
C22 C21 1_555 1_555
C23 C22 1_555 1_555
H10 C23 1_555 1_555
C24 C23 1_555 1_555
C25 C24 1_555 1_555
C26 C25 1_555 1_555
H11 C26 1_555 1_555
C27 C22 1_555 1_555
C28 C1 1_555 1_555
H12 C28 1_555 1_555
C29 C7 1_555 1_555
H13 C29 1_555 1_555
H14 C29 1_555 1_555
C30 C29 1_555 1_555
H15 C30 1_555 1_555
H16 C30 1_555 1_555
H17 C30 1_555 1_555
C31 C14 1_555 1_555
H18 C31 1_555 1_555
H19 C31 1_555 1_555
C32 C31 1_555 1_555
H20 C32 1_555 1_555
H21 C32 1_555 1_555
H22 C32 1_555 1_555
C33 C21 1_555 1_555
H23 C33 1_555 1_555
H24 C33 1_555 1_555
C34 C33 1_555 1_555
H25 C34 1_555 1_555
H26 C34 1_555 1_555
H27 C34 1_555 1_555
C35 C28 1_555 1_555
H28 C35 1_555 1_555
H29 C35 1_555 1_555
C36 C35 1_555 1_555
H30 C36 1_555 1_555
H31 C36 1_555 1_555
H32 C36 1_555 1_555
C37 H33 1_555 1_555
H34 C37 1_555 1_555
H35 C37 1_555 1_555
C38 H36 1_555 1_555
H37 C38 1_555 1_555
H38 C38 1_555 1_555
C39 H39 1_555 1_555
H40 C39 1_555 1_555
H41 C39 1_555 1_555
C40 H42 1_555 1_555
H43 C40 1_555 1_555
H44 C40 1_555 1_555
C41 H45 1_555 1_555
H46 C41 1_555 1_555
C42 C41 1_555 1_555
H47 C42 1_555 1_555
H48 C42 1_555 1_555
C43 C44 1_555 1_555
C44 H49 1_555 1_555
C45 C44 1_555 1_555
H50 C45 1_555 1_555
C46 C45 1_555 1_555
H51 C46 1_555 1_555
C47 C46 1_555 1_555
H52 C47 1_555 1_555
C48 C43 1_555 1_555
C49 H53 1_555 1_555
H54 C49 1_555 1_555
C50 C49 1_555 1_555
H55 C50 1_555 1_555
H56 C50 1_555 1_555
C51 C52 1_555 1_555
C52 H57 1_555 1_555
C53 C52 1_555 1_555
H58 C53 1_555 1_555
C54 C53 1_555 1_555
H59 C54 1_555 1_555
C55 C54 1_555 1_555
H60 C55 1_555 1_555
C56 C51 1_555 1_555
C57 H61 1_555 1_555
H62 C57 1_555 1_555
C58 C57 1_555 1_555
H63 C58 1_555 1_555
H64 C58 1_555 1_555
C59 C60 1_555 1_555
C60 H65 1_555 1_555
C61 C60 1_555 1_555
H66 C61 1_555 1_555
C62 C61 1_555 1_555
H67 C62 1_555 1_555
C63 C62 1_555 1_555
H68 C63 1_555 1_555
C64 C59 1_555 1_555
C65 H69 1_555 1_555
H70 C65 1_555 1_555
C66 C65 1_555 1_555
H71 C66 1_555 1_555
H72 C66 1_555 1_555
C67 C68 1_555 1_555
C68 H73 1_555 1_555
C69 C68 1_555 1_555
H74 C69 1_555 1_555
C70 C69 1_555 1_555
H75 C70 1_555 1_555
C71 C70 1_555 1_555
H76 C71 1_555 1_555
C72 C67 1_555 1_555
N1 C42 1_555 1_555
H77 N1 1_555 1_555
N2 C48 1_555 1_555
H78 N2 1_555 1_555
H79 N2 1_555 1_555
N3 C50 1_555 1_555
H80 N3 1_555 1_555
N4 C56 1_555 1_555
H81 N4 1_555 1_555
H82 N4 1_555 1_555
N5 C58 1_555 1_555
H83 N5 1_555 1_555
N6 C64 1_555 1_555
H84 N6 1_555 1_555
H85 N6 1_555 1_555
N7 C66 1_555 1_555
H86 N7 1_555 1_555
N8 C72 1_555 1_555
H87 N8 1_555 1_555
H88 N8 1_555 1_555
O1 C4 1_555 1_555
O2 C6 1_555 1_555
O3 C11 1_555 1_555
O4 C13 1_555 1_555
O5 C18 1_555 1_555
O6 C20 1_555 1_555
O7 C25 1_555 1_555
O8 C27 1_555 1_555
C73 H89 1_555 1_555
H90 C73 1_555 1_555
H91 C73 1_555 1_555
C74 C73 1_555 1_555
N9 C74 1_555 1_555
C5 C6 1_555 1_555
C12 C13 1_555 1_555
C19 C20 1_555 1_555
C24 C28 1_555 1_555
C26 C27 1_555 1_555
C37 O1 1_555 1_555
C38 O3 1_555 1_555
C39 O5 1_555 1_555
C40 O7 1_555 1_555
C41 O2 1_555 1_555
C43 N1 1_555 1_555
C47 C48 1_555 1_555
C49 O4 1_555 1_555
C51 N3 1_555 1_555
C55 C56 1_555 1_555
C57 O6 1_555 1_555
C59 N5 1_555 1_555
C63 C64 1_555 1_555
C65 O8 1_555 1_555
C67 N7 1_555 1_555
C71 C72 1_555 1_555

#END
