
#######################################################################
#
#                 Cambridge Crystallographic Data Centre
#                                CCDC 
#
#######################################################################
#
# If this CIF has been generated from an entry in the Cambridge 
# Structural Database, then it will include bibliographic, chemical, 
# crystal, experimental, refinement or atomic coordinate data resulting 
# from the CCDC's data processing and validation procedures.
#
#######################################################################

data_QUDVES
_chemical_name_common            4-nonyloxy-1,2-naphthoquinone
_chemical_formula_moiety         'C19 H24 O3'
_chemical_name_systematic        4-(nonyloxy)naphthalene-1,2-dione
_symmetry_cell_setting           triclinic
_symmetry_space_group_name_H-M   'P -1'
_symmetry_Int_Tables_number      2
_space_group_name_Hall           '-P 1'
loop_
_symmetry_equiv_pos_site_id
_symmetry_equiv_pos_as_xyz
1 x,y,z
2 -x,-y,-z
_cell_length_a                   9.4909(11)
_cell_length_b                   11.5009(15)
_cell_length_c                   16.350(2)
_cell_angle_alpha                81.397(8)
_cell_angle_beta                 84.901(6)
_cell_angle_gamma                67.641(7)
_cell_volume                     1630.92
_exptl_crystal_colour            yellow
_exptl_crystal_description       plate
_cell_formula_units_Z            4
loop_
_atom_site_label
_atom_site_type_symbol
_atom_site_fract_x
_atom_site_fract_y
_atom_site_fract_z
O1 O 0.39366(15) 0.89734(14) 0.87212(8)
C1 C 0.2089(2) 0.9972(2) 0.50231(12)
H1 H 0.1731 0.9259 0.5088
H2 H 0.1190 1.0755 0.5092
C2 C 0.3182(2) 0.7899(2) 1.12426(13)
C3 C 0.7384(2) 0.8164(2) 1.03005(12)
H3 H 0.8330 0.8208 1.0089
O2 O 0.06146(17) 0.83081(16) 1.09254(9)
C4 C 0.6207(2) 0.84357(19) 0.97650(12)
H4 H 0.6353 0.8665 0.9190
C5 C 0.2495(2) 0.9618(2) 0.65696(12)
H5 H 0.2181 0.8881 0.6634
H6 H 0.1566 1.0383 0.6627
C6 C 0.3537(2) 0.8688(2) 0.95156(12)
C7 C 0.4827(2) 0.83724(19) 1.00670(12)
C8 C 0.1621(2) 1.0411(2) 0.34824(12)
H7 H 0.0798 1.1239 0.3552
H8 H 0.1155 0.9762 0.3560
C9 C 0.3199(2) 0.9749(2) 0.57101(12)
H9 H 0.4102 0.8968 0.5642
H10 H 0.3550 1.0465 0.5651
C10 C 0.5811(2) 0.7754(2) 1.14500(13)
H11 H 0.5678 0.7520 1.2025
C11 C 0.2774(2) 1.0096(2) 0.41508(12)
H12 H 0.3198 1.0770 0.4095
H13 H 0.3625 0.9291 0.4065
O3 O 0.29968(17) 0.74603(16) 1.19509(9)
C12 C 0.1852(3) 0.8315(2) 1.06459(13)
C13 C 0.2803(2) 0.9295(2) 0.81016(12)
H14 H 0.1947 1.0094 0.8197
H15 H 0.2395 0.8615 0.8132
C14 C 0.7185(2) 0.7831(2) 1.11408(13)
H16 H 0.7989 0.7656 1.1504
C15 C 0.2153(2) 0.8689(2) 0.97887(12)
H17 H 0.1360 0.8941 0.9407
C16 C 0.2297(2) 1.0470(2) 0.26028(12)
H18 H 0.3144 0.9654 0.2535
H19 H 0.2724 1.1144 0.2514
C17 C 0.4626(2) 0.80161(19) 1.09219(12)
C18 C 0.3561(2) 0.9448(2) 0.72660(12)
H20 H 0.4501 0.8691 0.7210
H21 H 0.3855 1.0195 0.7218
C19 C 0.1123(3) 1.0737(2) 0.19508(12)
H22 H 0.1619 1.0726 0.1399
H23 H 0.0317 1.1572 0.1990
H24 H 0.0676 1.0086 0.2045
O4 O 0.08588(15) 0.37921(14) 0.36605(8)
C20 C 0.2339(2) 0.4552(2) 0.15269(12)
H25 H 0.3220 0.3743 0.1502
H26 H 0.2722 0.5179 0.1675
C21 C 0.1679(2) 0.3066(2) 0.62085(13)
C22 C 0.0022(2) 0.33957(19) 0.50230(12)
C23 C 0.1256(2) 0.35400(19) 0.44622(12)
O5 O 0.41238(18) 0.31420(16) 0.58557(9)
C24 C 0.2617(2) 0.3435(2) 0.47163(12)
H27 H 0.3382 0.3507 0.4319
C25 C 0.0225(2) 0.31509(19) 0.58841(12)
C26 C 0.1666(2) 0.5009(2) 0.06711(12)
H28 H 0.1261 0.4393 0.0525
H29 H 0.0804 0.5832 0.0687
C27 C 0.3428(2) 0.5623(2) -0.15235(12)
H30 H 0.4331 0.4826 -0.1436
H31 H 0.3743 0.6327 -0.1447
O6 O 0.19055(18) 0.28719(17) 0.69473(9)
C28 C 0.1968(2) 0.3947(2) 0.30334(12)
H32 H 0.2853 0.3138 0.3019
H33 H 0.2335 0.4597 0.3160
C29 C -0.2280(2) 0.3060(2) 0.61121(12)
H34 H -0.3059 0.2940 0.6480
C30 C -0.0920(2) 0.2977(2) 0.64180(13)
H35 H -0.0773 0.2799 0.6997
C31 C 0.2825(2) 0.5164(2) 0.00085(12)
H36 H 0.3707 0.4350 0.0015
H37 H 0.3196 0.5804 0.0148
C32 C 0.2214(2) 0.5569(2) -0.08686(12)
H38 H 0.1775 0.4964 -0.0996
H39 H 0.1385 0.6415 -0.0889
C33 C -0.1352(2) 0.34833(19) 0.47243(12)
H40 H -0.1507 0.3656 0.4146
C34 C 0.1218(2) 0.4352(2) 0.22069(12)
H41 H 0.0319 0.5149 0.2230
H42 H 0.0865 0.3693 0.2081
C35 C 0.2922(2) 0.3214(2) 0.55884(13)
C36 C 0.2943(2) 0.5809(2) -0.24147(12)
H43 H 0.2605 0.5120 -0.2494
H44 H 0.2066 0.6622 -0.2515
C37 C -0.2490(2) 0.3321(2) 0.52641(12)
H45 H -0.3423 0.3388 0.5053
C38 C 0.4227(2) 0.5815(2) -0.30431(13)
H46 H 0.3882 0.5889 -0.3603
H47 H 0.5111 0.5024 -0.2935
H48 H 0.4512 0.6536 -0.2996
loop_
_geom_bond_atom_site_label_1
_geom_bond_atom_site_label_2
_geom_bond_site_symmetry_1
_geom_bond_site_symmetry_2
O1 C6 1_555 1_555
C1 H1 1_555 1_555
H2 C1 1_555 1_555
C2 O3 1_555 1_555
C3 H3 1_555 1_555
O2 C12 1_555 1_555
C4 C3 1_555 1_555
H4 C4 1_555 1_555
C5 H5 1_555 1_555
H6 C5 1_555 1_555
C6 C7 1_555 1_555
C7 C4 1_555 1_555
C8 H7 1_555 1_555
H8 C8 1_555 1_555
C9 C1 1_555 1_555
H9 C9 1_555 1_555
H10 C9 1_555 1_555
C10 H11 1_555 1_555
C11 C1 1_555 1_555
H12 C11 1_555 1_555
H13 C11 1_555 1_555
C12 C2 1_555 1_555
C13 O1 1_555 1_555
H14 C13 1_555 1_555
H15 C13 1_555 1_555
C14 C3 1_555 1_555
H16 C14 1_555 1_555
C15 C6 1_555 1_555
H17 C15 1_555 1_555
C16 C8 1_555 1_555
H18 C16 1_555 1_555
H19 C16 1_555 1_555
C17 C2 1_555 1_555
C18 C5 1_555 1_555
H20 C18 1_555 1_555
H21 C18 1_555 1_555
C19 C16 1_555 1_555
H22 C19 1_555 1_555
H23 C19 1_555 1_555
H24 C19 1_555 1_555
O4 C23 1_555 1_555
C20 H25 1_555 1_555
H26 C20 1_555 1_555
C21 C25 1_555 1_555
C22 C23 1_555 1_555
C23 C24 1_555 1_555
O5 C35 1_555 1_555
C24 H27 1_555 1_555
C25 C22 1_555 1_555
C26 C20 1_555 1_555
H28 C26 1_555 1_555
H29 C26 1_555 1_555
C27 H30 1_555 1_555
H31 C27 1_555 1_555
O6 C21 1_555 1_555
C28 O4 1_555 1_555
H32 C28 1_555 1_555
H33 C28 1_555 1_555
C29 H34 1_555 1_555
C30 C25 1_555 1_555
H35 C30 1_555 1_555
C31 C26 1_555 1_555
H36 C31 1_555 1_555
H37 C31 1_555 1_555
C32 C27 1_555 1_555
H38 C32 1_555 1_555
H39 C32 1_555 1_555
C33 C22 1_555 1_555
H40 C33 1_555 1_555
C34 C20 1_555 1_555
H41 C34 1_555 1_555
H42 C34 1_555 1_555
C35 C21 1_555 1_555
C36 C27 1_555 1_555
H43 C36 1_555 1_555
H44 C36 1_555 1_555
C37 C29 1_555 1_555
H45 C37 1_555 1_555
C38 C36 1_555 1_555
H46 C38 1_555 1_555
H47 C38 1_555 1_555
H48 C38 1_555 1_555
C5 C9 1_555 1_555
C7 C17 1_555 1_555
C8 C11 1_555 1_555
C10 C14 1_555 1_555
C10 C17 1_555 1_555
C12 C15 1_555 1_555
C13 C18 1_555 1_555
C24 C35 1_555 1_555
C28 C34 1_555 1_555
C29 C30 1_555 1_555
C31 C32 1_555 1_555
C33 C37 1_555 1_555

#END
