
#######################################################################
#
#                 Cambridge Crystallographic Data Centre
#                                CCDC 
#
#######################################################################
#
# If this CIF has been generated from an entry in the Cambridge 
# Structural Database, then it will include bibliographic, chemical, 
# crystal, experimental, refinement or atomic coordinate data resulting 
# from the CCDC's data processing and validation procedures.
#
#######################################################################

data_QUDWAP
_chemical_formula_moiety         'C11 H7 F5 O3'
_chemical_name_systematic        
2,6-difluoro-2-(2,2,2-trifluoro-1,1-dihydroxyethyl)indan-1-one
_symmetry_cell_setting           monoclinic
_symmetry_space_group_name_H-M   'C 2/c'
_symmetry_Int_Tables_number      15
_space_group_name_Hall           '-C 2yn'
loop_
_symmetry_equiv_pos_site_id
_symmetry_equiv_pos_as_xyz
1 x,y,z
2 -x,y,1/2-z
3 1/2+x,1/2+y,z
4 1/2-x,1/2+y,1/2-z
5 -x,-y,-z
6 x,-y,1/2+z
7 1/2-x,1/2-y,-z
8 1/2+x,1/2-y,1/2+z
_cell_length_a                   19.1347(19)
_cell_length_b                   9.9329(10)
_cell_length_c                   12.7399(13)
_cell_angle_alpha                90
_cell_angle_beta                 110.478(2)
_cell_angle_gamma                90
_cell_volume                     2268.37
_cell_formula_units_Z            8
loop_
_atom_site_label
_atom_site_type_symbol
_atom_site_fract_x
_atom_site_fract_y
_atom_site_fract_z
C1 C 0.13732(8) 0.34071(16) 0.27323(13)
C2 C 0.13627(9) 0.27562(16) 0.16190(13)
C3 C 0.21835(9) 0.2712(2) 0.17131(15)
H1 H 0.2328 0.1805 0.1593
H2 H 0.2271 0.3307 0.1168
C4 C 0.26110(9) 0.31762(16) 0.28868(14)
C5 C 0.21455(8) 0.36100(15) 0.34437(13)
C6 C 0.24128(9) 0.41086(16) 0.45300(13)
H3 H 0.2094 0.4400 0.4892
C7 C 0.31682(10) 0.41462(17) 0.50348(14)
C8 C 0.36548(10) 0.37151(19) 0.45200(17)
H4 H 0.4167 0.3752 0.4901
C9 C 0.33779(10) 0.3231(2) 0.34413(17)
H5 H 0.3701 0.2942 0.3086
C10 C 0.08132(8) 0.35159(15) 0.06224(12)
C11 C 0.07215(10) 0.29027(19) -0.05252(14)
F1 F 0.10895(6) 0.14612(10) 0.16132(9)
F2 F 0.02486(7) 0.36335(13) -0.13393(8)
F3 F 0.04524(7) 0.16605(12) -0.06509(9)
F4 F 0.13634(6) 0.28574(15) -0.07088(10)
F5 F 0.34603(6) 0.46098(12) 0.61013(9)
O1 O 0.08137(6) 0.36414(15) 0.29420(10)
O2 O 0.00877(6) 0.34938(11) 0.06462(9)
H6 H 0.0131(10) 0.3564(17) 0.1302(12)
O3 O 0.11034(6) 0.48107(11) 0.06919(10)
H7 H 0.0771(9) 0.5336(16) 0.0294(15)
loop_
_geom_bond_atom_site_label_1
_geom_bond_atom_site_label_2
_geom_bond_site_symmetry_1
_geom_bond_site_symmetry_2
C1 C2 1_555 1_555
C2 C3 1_555 1_555
C3 H1 1_555 1_555
H2 C3 1_555 1_555
C4 C3 1_555 1_555
C5 C1 1_555 1_555
C6 C5 1_555 1_555
H3 C6 1_555 1_555
C7 C6 1_555 1_555
C8 C7 1_555 1_555
H4 C8 1_555 1_555
C9 C4 1_555 1_555
H5 C9 1_555 1_555
C10 C2 1_555 1_555
C11 C10 1_555 1_555
F1 C2 1_555 1_555
F2 C11 1_555 1_555
F3 C11 1_555 1_555
F4 C11 1_555 1_555
F5 C7 1_555 1_555
O1 C1 1_555 1_555
O2 C10 1_555 1_555
H6 O2 1_555 1_555
O3 C10 1_555 1_555
H7 O3 1_555 1_555
C4 C5 1_555 1_555
C8 C9 1_555 1_555

#END
