
#######################################################################
#
#                 Cambridge Crystallographic Data Centre
#                                CCDC 
#
#######################################################################
#
# If this CIF has been generated from an entry in the Cambridge 
# Structural Database, then it will include bibliographic, chemical, 
# crystal, experimental, refinement or atomic coordinate data resulting 
# from the CCDC's data processing and validation procedures.
#
#######################################################################

data_QUDWIX
_chemical_name_common            'nevirapinium 3,5-dinitrosalicylate'
_chemical_formula_moiety         'C15 H15 N4 O1 1+,C7 H3 N2 O7 1-'
_chemical_name_systematic        
"11-cyclopropyl-4-methyl-6-oxo-6,11-dihydro-5H-dipyrido[3,2-b:2',3'-e][1,4]diazepin-1-ium 2-hydroxy-3,5-dinitrobenzoate"
_symmetry_cell_setting           monoclinic
_symmetry_space_group_name_H-M   'C 2/c'
_symmetry_Int_Tables_number      15
_space_group_name_Hall           '-C 2yn'
loop_
_symmetry_equiv_pos_site_id
_symmetry_equiv_pos_as_xyz
1 x,y,z
2 -x,y,1/2-z
3 1/2+x,1/2+y,z
4 1/2-x,1/2+y,1/2-z
5 -x,-y,-z
6 x,-y,1/2+z
7 1/2-x,1/2-y,-z
8 1/2+x,1/2-y,1/2+z
_cell_length_a                   21.6077(18)
_cell_length_b                   12.8597(8)
_cell_length_c                   15.6534(12)
_cell_angle_alpha                90
_cell_angle_beta                 92.2940(10)
_cell_angle_gamma                90
_cell_volume                     4346.1
_exptl_crystal_colour            colorless
_exptl_crystal_description       block
_cell_formula_units_Z            8
loop_
_atom_site_label
_atom_site_type_symbol
_atom_site_fract_x
_atom_site_fract_y
_atom_site_fract_z
N1 N 0.08907(10) 0.49240(18) 0.47363(14)
H1 H 0.0573 0.4524 0.4679
N2 N 0.21269(10) 0.49893(18) 0.54519(14)
N3 N 0.24404(10) 0.66141(19) 0.59713(14)
N4 N 0.24653(10) 0.43101(18) 0.41592(14)
H2 H 0.2834 0.4320 0.4386
O1 O 0.03370(9) 0.59168(18) 0.55959(14)
C1 C 0.08351(12) 0.5731(2) 0.52799(18)
C2 C 0.13759(12) 0.6399(2) 0.55095(17)
C3 C 0.19775(12) 0.6036(2) 0.56438(16)
C4 C 0.23130(14) 0.7608(2) 0.61462(19)
H3 H 0.2631 0.8021 0.6377
C5 C 0.17401(14) 0.8052(3) 0.6005(2)
H4 H 0.1676 0.8754 0.6114
C6 C 0.12650(14) 0.7432(2) 0.56964(19)
H5 H 0.0869 0.7706 0.5613
C7 C 0.19942(12) 0.4659(2) 0.46199(16)
C8 C 0.13987(12) 0.4652(2) 0.42534(16)
C9 C 0.13020(13) 0.4314(2) 0.34117(17)
C10 C 0.18092(14) 0.3954(2) 0.29819(19)
H6 H 0.1754 0.3713 0.2424
C11 C 0.23803(14) 0.3950(2) 0.33624(18)
H7 H 0.2715 0.3696 0.3070
C12 C 0.26547(13) 0.4528(2) 0.59066(18)
H8 H 0.3059 0.4855 0.5836
C13 C 0.26420(15) 0.3379(2) 0.5988(2)
H9 H 0.3032 0.3009 0.5965
H10 H 0.2287 0.3013 0.5737
C14 C 0.25424(16) 0.4047(3) 0.6748(2)
H11 H 0.2127 0.4086 0.6958
H12 H 0.2872 0.4083 0.7186
C15 C 0.06716(14) 0.4313(3) 0.2985(2)
H13 H 0.0426 0.3774 0.3226
H14 H 0.0706 0.4190 0.2383
H15 H 0.0477 0.4974 0.3069
N5 N 0.60553(12) 0.2582(2) 0.31179(19)
N6 N 0.55194(14) 0.6213(3) 0.3418(2)
O2 O 0.36684(10) 0.4315(2) 0.44904(16)
O3 O 0.39083(11) 0.2627(2) 0.44320(17)
O4 O 0.48876(11) 0.2079(2) 0.38239(17)
H16 H 0.4552 0.2045 0.4048
O5 O 0.60937(12) 0.1760(2) 0.34895(19)
O6 O 0.63870(11) 0.2824(2) 0.25337(16)
O7 O 0.59711(13) 0.6419(2) 0.2999(2)
O8 O 0.52041(15) 0.6876(2) 0.3742(3)
C16 C 0.40280(15) 0.3589(3) 0.4339(2)
C17 C 0.46469(13) 0.3853(3) 0.39954(18)
C18 C 0.50487(14) 0.3043(3) 0.37529(19)
C19 C 0.56101(13) 0.3350(3) 0.33928(19)
C20 C 0.57586(13) 0.4371(3) 0.32710(19)
H17 H 0.6124 0.4549 0.3012
C21 C 0.53616(14) 0.5132(3) 0.3536(2)
C22 C 0.48082(13) 0.4875(3) 0.3895(2)
H18 H 0.4544 0.5398 0.4070
loop_
_geom_bond_atom_site_label_1
_geom_bond_atom_site_label_2
_geom_bond_site_symmetry_1
_geom_bond_site_symmetry_2
N1 H1 1_555 1_555
N2 C3 1_555 1_555
N3 C3 1_555 1_555
N4 H2 1_555 1_555
O1 C1 1_555 1_555
C1 N1 1_555 1_555
C2 C1 1_555 1_555
C3 C2 1_555 1_555
C4 N3 1_555 1_555
H3 C4 1_555 1_555
C5 C4 1_555 1_555
H4 C5 1_555 1_555
C6 C2 1_555 1_555
H5 C6 1_555 1_555
C7 N2 1_555 1_555
C8 N1 1_555 1_555
C9 C8 1_555 1_555
C10 C9 1_555 1_555
H6 C10 1_555 1_555
C11 N4 1_555 1_555
H7 C11 1_555 1_555
C12 N2 1_555 1_555
H8 C12 1_555 1_555
C13 C12 1_555 1_555
H9 C13 1_555 1_555
H10 C13 1_555 1_555
C14 C12 1_555 1_555
H11 C14 1_555 1_555
H12 C14 1_555 1_555
C15 C9 1_555 1_555
H13 C15 1_555 1_555
H14 C15 1_555 1_555
H15 C15 1_555 1_555
N5 O5 1_555 1_555
N6 O7 1_555 1_555
O2 C16 1_555 1_555
O3 C16 1_555 1_555
O4 H16 1_555 1_555
O6 N5 1_555 1_555
O8 N6 1_555 1_555
C16 C17 1_555 1_555
C17 C18 1_555 1_555
C18 O4 1_555 1_555
C19 N5 1_555 1_555
C20 C19 1_555 1_555
H17 C20 1_555 1_555
C21 N6 1_555 1_555
C22 C17 1_555 1_555
H18 C22 1_555 1_555
N4 C7 1_555 1_555
C5 C6 1_555 1_555
C7 C8 1_555 1_555
C10 C11 1_555 1_555
C13 C14 1_555 1_555
C18 C19 1_555 1_555
C20 C21 1_555 1_555
C21 C22 1_555 1_555

#END
