
#######################################################################
#
#                 Cambridge Crystallographic Data Centre
#                                CCDC 
#
#######################################################################
#
# If this CIF has been generated from an entry in the Cambridge 
# Structural Database, then it will include bibliographic, chemical, 
# crystal, experimental, refinement or atomic coordinate data resulting 
# from the CCDC's data processing and validation procedures.
#
#######################################################################

data_QUFSUH
_chemical_formula_moiety         'C17 H22 N4 O4'
_chemical_name_systematic        
't-butyl (1-(2-(4-cyanobenzylidene)-1-methylhydrazino)-3-hydroxy-1-oxopropan-2-yl)carbamate'
_symmetry_cell_setting           monoclinic
_symmetry_space_group_name_H-M   'P 21'
_symmetry_Int_Tables_number      4
_space_group_name_Hall           'P 2yb'
loop_
_symmetry_equiv_pos_site_id
_symmetry_equiv_pos_as_xyz
1 x,y,z
2 -x,1/2+y,-z
_cell_length_a                   5.348(3)
_cell_length_b                   7.883(5)
_cell_length_c                   20.903(14)
_cell_angle_alpha                90
_cell_angle_beta                 92.7630(10)
_cell_angle_gamma                90
_cell_volume                     880.21
_exptl_crystal_colour            colorless
_exptl_crystal_description       slab
_cell_formula_units_Z            2
loop_
_atom_site_label
_atom_site_type_symbol
_atom_site_fract_x
_atom_site_fract_y
_atom_site_fract_z
C1 C 0.1123(9) 0.5292(7) 0.3916(2)
H1 H 0.1851 0.6345 0.3806
C2 C -0.0770(9) 0.5247(7) 0.4346(2)
H2 H -0.1325 0.6272 0.4532
C3 C -0.1848(9) 0.3741(8) 0.4505(2)
C4 C -0.1071(10) 0.2210(7) 0.4233(2)
H3 H -0.1829 0.1170 0.4347
C5 C 0.0802(9) 0.2224(7) 0.3799(2)
H4 H 0.1300 0.1194 0.3606
C6 C 0.1972(9) 0.3760(7) 0.3641(2)
C7 C 0.3919(9) 0.3849(7) 0.3194(2)
H5 H 0.4750 0.4895 0.3127
C8 C 0.7748(9) 0.4254(6) 0.2344(2)
H6 H 0.8529 0.4655 0.2750
H7 H 0.6564 0.5110 0.2174
H8 H 0.9043 0.4061 0.2036
C9 C 0.6871(9) 0.1258(7) 0.2084(2)
C10 C 0.5475(10) -0.0357(6) 0.2249(2)
H9 H 0.3697 -0.0078 0.2334
C11 C 0.6754(9) -0.1158(7) 0.2847(2)
H10 H 0.6336 -0.0478 0.3226
H11 H 0.6061 -0.2311 0.2903
C12 C 0.3719(9) -0.2554(7) 0.1527(2)
C13 C 0.2467(9) -0.4533(7) 0.0650(2)
C14 C 0.3177(9) -0.6125(7) 0.1010(2)
H12 H 0.2701 -0.6018 0.1456
H13 H 0.4989 -0.6300 0.1001
H14 H 0.2303 -0.7095 0.0810
C15 C -0.0334(9) -0.4161(8) 0.0670(3)
H15 H -0.0711 -0.3082 0.0453
H16 H -0.0803 -0.4087 0.1116
H17 H -0.1285 -0.5074 0.0453
C16 C 0.3205(9) -0.4594(7) -0.0040(2)
H18 H 0.2902 -0.3484 -0.0241
H19 H 0.2205 -0.5458 -0.0272
H20 H 0.4985 -0.4880 -0.0054
C17 C -0.3795(10) 0.3679(8) 0.4971(2)
N1 N 0.4545(7) 0.2521(5) 0.28820(18)
N2 N 0.6425(8) 0.2680(5) 0.24509(19)
N3 N 0.5555(8) -0.1424(6) 0.16859(19)
H21 H 0.6837 -0.1335 0.1439
N4 N -0.5229(9) 0.3672(7) 0.5357(2)
O1 O 0.8318(6) 0.1316(5) 0.16515(16)
O2 O 0.9367(7) -0.1279(5) 0.28307(16)
H22 H 0.9742 -0.1874 0.2516
O3 O 0.3944(6) -0.3085(5) 0.09164(16)
O4 O 0.2146(6) -0.3015(5) 0.18845(16)
loop_
_geom_bond_atom_site_label_1
_geom_bond_atom_site_label_2
_geom_bond_site_symmetry_1
_geom_bond_site_symmetry_2
C1 H1 1_555 1_555
C2 C1 1_555 1_555
H2 C2 1_555 1_555
C3 C2 1_555 1_555
C4 C3 1_555 1_555
H3 C4 1_555 1_555
C5 C4 1_555 1_555
H4 C5 1_555 1_555
C6 C1 1_555 1_555
C7 C6 1_555 1_555
H5 C7 1_555 1_555
C8 H6 1_555 1_555
H7 C8 1_555 1_555
H8 C8 1_555 1_555
C9 C10 1_555 1_555
C10 H9 1_555 1_555
C11 C10 1_555 1_555
H10 C11 1_555 1_555
H11 C11 1_555 1_555
C12 N3 1_555 1_555
C13 C14 1_555 1_555
C14 H12 1_555 1_555
H13 C14 1_555 1_555
H14 C14 1_555 1_555
C15 C13 1_555 1_555
H15 C15 1_555 1_555
H16 C15 1_555 1_555
H17 C15 1_555 1_555
C16 C13 1_555 1_555
H18 C16 1_555 1_555
H19 C16 1_555 1_555
H20 C16 1_555 1_555
C17 C3 1_555 1_555
N1 C7 1_555 1_555
N2 C8 1_555 1_555
N3 C10 1_555 1_555
H21 N3 1_555 1_555
N4 C17 1_555 1_555
O1 C9 1_555 1_555
O2 C11 1_555 1_555
H22 O2 1_555 1_555
O3 C12 1_555 1_555
O4 C12 1_555 1_555
C5 C6 1_555 1_555
C9 N2 1_555 1_555
C13 O3 1_555 1_555
N1 N2 1_555 1_555

#END
