
#######################################################################
#
#                 Cambridge Crystallographic Data Centre
#                                CCDC 
#
#######################################################################
#
# If this CIF has been generated from an entry in the Cambridge 
# Structural Database, then it will include bibliographic, chemical, 
# crystal, experimental, refinement or atomic coordinate data resulting 
# from the CCDC's data processing and validation procedures.
#
#######################################################################

data_QUFSOB
_chemical_formula_moiety         'C20 H20 N4 O4'
_chemical_name_systematic        
'benzyl (1-(2-(4-cyanobenzylidene)-1-methylhydrazino)-3-hydroxy-1-oxopropan-2-yl)carbamate'
_symmetry_cell_setting           monoclinic
_symmetry_space_group_name_H-M   'P 21'
_symmetry_Int_Tables_number      4
_space_group_name_Hall           'P 2yb'
loop_
_symmetry_equiv_pos_site_id
_symmetry_equiv_pos_as_xyz
1 x,y,z
2 -x,1/2+y,-z
_cell_length_a                   4.995(6)
_cell_length_b                   8.172(8)
_cell_length_c                   22.94(3)
_cell_angle_alpha                90
_cell_angle_beta                 93.48(3)
_cell_angle_gamma                90
_cell_volume                     934.664
_exptl_crystal_colour            colorless
_cell_formula_units_Z            2
loop_
_atom_site_label
_atom_site_type_symbol
_atom_site_fract_x
_atom_site_fract_y
_atom_site_fract_z
C1 C -0.1557(8) -0.2306(6) 0.04534(16)
C2 C -0.0584(9) -0.0833(5) 0.06903(16)
H1 H -0.1380 0.0174 0.0567
C3 C 0.1564(8) -0.0847(5) 0.11093(16)
H2 H 0.2225 0.0153 0.1273
C4 C 0.2746(8) -0.2330(5) 0.12891(15)
C5 C 0.1737(9) -0.3795(5) 0.10501(16)
H3 H 0.2541 -0.4802 0.1171
C6 C -0.0422(9) -0.3803(6) 0.06378(18)
H4 H -0.1116 -0.4806 0.0483
C7 C 0.5009(8) -0.2375(6) 0.17309(16)
H5 H 0.5872 -0.3388 0.1820
C8 C 0.9329(10) -0.2648(6) 0.25743(18)
H6 H 1.0041 -0.3156 0.2229
H7 H 0.8063 -0.3400 0.2745
H8 H 1.0808 -0.2409 0.2862
C9 C 0.8664(10) 0.0289(6) 0.26783(18)
C10 C 0.7063(9) 0.1831(5) 0.24991(18)
H9 H 0.5107 0.1563 0.2457
C11 C 0.7983(9) 0.2508(5) 0.19144(16)
H10 H 0.7380 0.1753 0.1595
H11 H 0.7112 0.3580 0.1835
C12 C 0.5656(8) 0.4037(6) 0.31560(16)
C13 C 0.4928(10) 0.6097(6) 0.3865(2)
H12 H 0.3119 0.5643 0.3916
H13 H 0.4753 0.7055 0.3602
C14 C 0.6244(14) 0.6577(9) 0.4441(2)
C15 C 0.8449(18) 0.7581(12) 0.4483(4)
H14 H 0.9131 0.8020 0.4139
C16 C 0.970(3) 0.796(2) 0.5025(7)
H15 H 1.1220 0.8664 0.5053
C17 C 0.871(3) 0.7322(17) 0.5505(4)
H16 H 0.9569 0.7613 0.5872
C18 C 0.671(3) 0.6355(18) 0.5509(4)
H17 H 0.6174 0.5882 0.5862
C19 C 0.531(3) 0.6011(13) 0.4962(3)
H18 H 0.3715 0.5381 0.4954
C20 C -0.3731(8) -0.2306(6) 0.00082(17)
N1 N 0.5835(7) -0.1082(5) 0.19964(14)
N2 N 0.7956(8) -0.1136(5) 0.24061(15)
N3 N 0.7554(7) 0.2999(5) 0.29708(15)
H19 H 0.9170 0.3037 0.3146
N4 N -0.5474(8) -0.2307(6) -0.03581(15)
O1 O 1.0542(7) 0.0348(4) 0.30583(13)
O2 O 1.0784(6) 0.2702(4) 0.19126(12)
H20 H 1.1303 0.3363 0.2176
O3 O 0.6668(7) 0.4855(4) 0.36255(12)
O4 O 0.3405(6) 0.4203(4) 0.29257(13)
loop_
_geom_bond_atom_site_label_1
_geom_bond_atom_site_label_2
_geom_bond_site_symmetry_1
_geom_bond_site_symmetry_2
C1 C2 1_555 1_555
C2 H1 1_555 1_555
C3 C2 1_555 1_555
H2 C3 1_555 1_555
C4 C3 1_555 1_555
C5 C4 1_555 1_555
H3 C5 1_555 1_555
C6 C1 1_555 1_555
H4 C6 1_555 1_555
C7 C4 1_555 1_555
H5 C7 1_555 1_555
C8 H6 1_555 1_555
H7 C8 1_555 1_555
H8 C8 1_555 1_555
C9 C10 1_555 1_555
C10 H9 1_555 1_555
C11 C10 1_555 1_555
H10 C11 1_555 1_555
H11 C11 1_555 1_555
C12 N3 1_555 1_555
C13 H12 1_555 1_555
H13 C13 1_555 1_555
C14 C13 1_555 1_555
C15 C14 1_555 1_555
H14 C15 1_555 1_555
C16 C15 1_555 1_555
H15 C16 1_555 1_555
C17 C16 1_555 1_555
H16 C17 1_555 1_555
C18 C17 1_555 1_555
H17 C18 1_555 1_555
C19 C14 1_555 1_555
H18 C19 1_555 1_555
C20 C1 1_555 1_555
N1 C7 1_555 1_555
N2 C8 1_555 1_555
N3 C10 1_555 1_555
H19 N3 1_555 1_555
N4 C20 1_555 1_555
O1 C9 1_555 1_555
O2 C11 1_555 1_555
H20 O2 1_555 1_555
O3 C12 1_555 1_555
O4 C12 1_555 1_555
C5 C6 1_555 1_555
C9 N2 1_555 1_555
C13 O3 1_555 1_555
C18 C19 1_555 1_555
N1 N2 1_555 1_555

#END
