
#######################################################################
#
#                 Cambridge Crystallographic Data Centre
#                                CCDC 
#
#######################################################################
#
# If this CIF has been generated from an entry in the Cambridge 
# Structural Database, then it will include bibliographic, chemical, 
# crystal, experimental, refinement or atomic coordinate data resulting 
# from the CCDC's data processing and validation procedures.
#
#######################################################################

data_QUFTAO
_chemical_formula_moiety         'C16 H23 N3 O4'
_chemical_name_systematic        
't-butyl (1-(2-benzylidene-1-methylhydrazino)-3-hydroxy-1-oxopropan-2-yl)carbamate'
_symmetry_cell_setting           monoclinic
_symmetry_space_group_name_H-M   'P 21/c'
_symmetry_Int_Tables_number      14
_space_group_name_Hall           '-P 2ybc'
loop_
_symmetry_equiv_pos_site_id
_symmetry_equiv_pos_as_xyz
1 x,y,z
2 -x,1/2+y,1/2-z
3 -x,-y,-z
4 x,1/2-y,1/2+z
_cell_length_a                   10.454(7)
_cell_length_b                   10.571(7)
_cell_length_c                   15.664(11)
_cell_angle_alpha                90
_cell_angle_beta                 101.172(12)
_cell_angle_gamma                90
_cell_volume                     1698.21
_exptl_crystal_colour            colorless
_exptl_crystal_description       blade
_cell_formula_units_Z            4
loop_
_atom_site_label
_atom_site_type_symbol
_atom_site_fract_x
_atom_site_fract_y
_atom_site_fract_z
C1 C 0.7859(4) 0.4700(4) -0.0477(3)
H1 H 0.7784 0.4009 -0.0872
C2 C 0.8683(4) 0.5702(4) -0.0568(3)
H2 H 0.9170 0.5695 -0.1021
C3 C 0.8788(4) 0.6708(4) 0.0004(3)
H3 H 0.9349 0.7395 -0.0057
C4 C 0.8078(4) 0.6721(4) 0.0669(3)
H4 H 0.8158 0.7415 0.1061
C5 C 0.7255(4) 0.5723(4) 0.0762(3)
H5 H 0.6769 0.5736 0.1215
C6 C 0.7141(4) 0.4698(4) 0.0188(2)
C7 C 0.6264(4) 0.3627(4) 0.0243(2)
H6 H 0.6199 0.2956 -0.0166
C8 C 0.4643(4) 0.1543(4) 0.0243(3)
H7 H 0.4422 0.1880 -0.0350
H8 H 0.3956 0.0962 0.0343
H9 H 0.5474 0.1087 0.0317
C9 C 0.4092(3) 0.2560(3) 0.1529(2)
C10 C 0.4332(4) 0.3650(4) 0.2184(2)
H10 H 0.4347 0.4465 0.1862
C11 C 0.5617(4) 0.3500(4) 0.2828(3)
H11 H 0.5700 0.4247 0.3256
H12 H 0.6349 0.3651 0.2502
C12 C 0.2675(4) 0.4729(4) 0.2834(2)
C13 C 0.0726(4) 0.5471(4) 0.3365(3)
C14 C -0.0564(4) 0.4811(5) 0.3367(3)
H13 H -0.0411 0.4045 0.3725
H14 H -0.0970 0.4580 0.2770
H15 H -0.1144 0.5381 0.3607
C15 C 0.1439(5) 0.5729(6) 0.4287(3)
H16 H 0.1576 0.4932 0.4611
H17 H 0.0918 0.6303 0.4574
H18 H 0.2285 0.6121 0.4273
C16 C 0.0522(5) 0.6640(5) 0.2808(4)
H19 H 0.1357 0.7076 0.2838
H20 H -0.0093 0.7204 0.3018
H21 H 0.0169 0.6401 0.2204
N1 N 0.5586(3) 0.3598(3) 0.08443(19)
N2 N 0.4760(3) 0.2584(3) 0.08675(19)
N3 N 0.3211(3) 0.3649(3) 0.2618(2)
H22 H 0.275(4) 0.295(4) 0.251(3)
O1 O 0.3346(3) 0.1683(2) 0.16179(18)
O2 O 0.5728(3) 0.2373(3) 0.3258(2)
H23 H 0.5770 0.1766 0.2917
O3 O 0.1477(3) 0.4493(2) 0.29998(18)
O4 O 0.3204(3) 0.5758(2) 0.28835(19)
H24? H 0.5651 0.2596 0.2995
O5? O 0.5960(13) 0.4007(12) 0.3635(8)
H25? H 0.5934 0.4800 0.3600
loop_
_geom_bond_atom_site_label_1
_geom_bond_atom_site_label_2
_geom_bond_site_symmetry_1
_geom_bond_site_symmetry_2
C1 H1 1_555 1_555
C2 C1 1_555 1_555
H2 C2 1_555 1_555
C3 C2 1_555 1_555
H3 C3 1_555 1_555
C4 C3 1_555 1_555
H4 C4 1_555 1_555
C5 C4 1_555 1_555
H5 C5 1_555 1_555
C6 C1 1_555 1_555
C7 C6 1_555 1_555
H6 C7 1_555 1_555
C8 H7 1_555 1_555
H8 C8 1_555 1_555
H9 C8 1_555 1_555
C9 C10 1_555 1_555
C10 H10 1_555 1_555
C11 C10 1_555 1_555
H11 C11 1_555 1_555
H12 C11 1_555 1_555
C12 N3 1_555 1_555
C13 C14 1_555 1_555
C14 H13 1_555 1_555
H14 C14 1_555 1_555
H15 C14 1_555 1_555
C15 C13 1_555 1_555
H16 C15 1_555 1_555
H17 C15 1_555 1_555
H18 C15 1_555 1_555
C16 C13 1_555 1_555
H19 C16 1_555 1_555
H20 C16 1_555 1_555
H21 C16 1_555 1_555
N1 C7 1_555 1_555
N2 C8 1_555 1_555
N3 C10 1_555 1_555
H22 N3 1_555 1_555
O1 C9 1_555 1_555
O2 C11 1_555 1_555
H23 O2 1_555 1_555
O3 C12 1_555 1_555
O4 C12 1_555 1_555
C5 C6 1_555 1_555
C9 N2 1_555 1_555
C13 O3 1_555 1_555
N1 N2 1_555 1_555

#END
