
#######################################################################
#
#                 Cambridge Crystallographic Data Centre
#                                CCDC 
#
#######################################################################
#
# If this CIF has been generated from an entry in the Cambridge 
# Structural Database, then it will include bibliographic, chemical, 
# crystal, experimental, refinement or atomic coordinate data resulting 
# from the CCDC's data processing and validation procedures.
#
#######################################################################

data_QUFXIY
_chemical_formula_moiety         'C28 H32 N2 O3'
_chemical_name_systematic        
'bis(4-(3-Oxo-9-azabicyclo(3.3.1)nonan-9-yl)phenyl) ether'
_symmetry_cell_setting           monoclinic
_symmetry_space_group_name_H-M   'P 21/c'
_symmetry_Int_Tables_number      14
_space_group_name_Hall           '-P 2ybc'
loop_
_symmetry_equiv_pos_site_id
_symmetry_equiv_pos_as_xyz
1 x,y,z
2 x,1/2-y,1/2+z
3 -x,-y,-z
4 -x,1/2+y,1/2-z
_cell_length_a                   9.3178(11)
_cell_length_b                   26.180(3)
_cell_length_c                   9.0683(10)
_cell_angle_alpha                90
_cell_angle_beta                 90.272(2)
_cell_angle_gamma                90
_cell_volume                     2212.1
_exptl_crystal_colour            colorless
_exptl_crystal_description       prism
_cell_formula_units_Z            4
loop_
_atom_site_label
_atom_site_type_symbol
_atom_site_fract_x
_atom_site_fract_y
_atom_site_fract_z
N1 N 0.76284(14) 0.55787(5) 0.32593(14)
N2 N 0.20268(15) 0.69391(5) 1.17400(15)
O1 O 0.70685(13) 0.67531(5) 0.84121(14)
O2 O 0.82732(15) 0.47079(5) -0.04223(15)
O3 O 0.15493(15) 0.62829(6) 1.58191(16)
C1 C 0.81508(18) 0.49782(7) 0.06643(19)
C2 C 0.87405(19) 0.48229(7) 0.21456(19)
H1 H 0.9738 0.4950 0.2236
H2 H 0.8773 0.4445 0.2196
C3 C 0.78698(17) 0.50229(7) 0.34542(18)
H3 H 0.8461 0.4974 0.4367
C4 C 0.64493(19) 0.47408(7) 0.3670(2)
H4 H 0.6638 0.4369 0.3732
H5 H 0.6017 0.4850 0.4615
C5 C 0.53838(19) 0.48424(7) 0.2417(2)
H6 H 0.5722 0.4673 0.1507
H7 H 0.4438 0.4696 0.2675
C6 C 0.52278(18) 0.54130(7) 0.21407(19)
H8 H 0.4707 0.5571 0.2974
H9 H 0.4653 0.5468 0.1234
C7 C 0.66894(18) 0.56739(7) 0.19716(17)
H10 H 0.6523 0.6050 0.1900
C8 C 0.74984(19) 0.55041(7) 0.05825(18)
H11 H 0.6826 0.5515 -0.0265
H12 H 0.8273 0.5754 0.0386
C9 C 0.74135(17) 0.58730(6) 0.45483(17)
C10 C 0.63928(18) 0.62623(7) 0.46477(19)
H13 H 0.5775 0.6328 0.3833
C11 C 0.62650(19) 0.65554(7) 0.5918(2)
H14 H 0.5575 0.6822 0.5955
C12 C 0.71313(18) 0.64622(7) 0.71264(18)
C13 C 0.81767(18) 0.60907(7) 0.70324(18)
H15 H 0.8802 0.6033 0.7846
C14 C 0.83213(18) 0.58033(7) 0.57706(18)
H16 H 0.9054 0.5552 0.5726
C15 C 0.58042(17) 0.67599(7) 0.92188(18)
C16 C 0.45697(19) 0.64908(7) 0.8862(2)
H17 H 0.4554 0.6274 0.8021
C17 C 0.33528(19) 0.65372(7) 0.97352(19)
H18 H 0.2513 0.6352 0.9471
C18 C 0.33255(17) 0.68473(6) 1.09865(17)
C19 C 0.46134(18) 0.70976(7) 1.13593(18)
H19 H 0.4658 0.7297 1.2234
C20 C 0.58203(18) 0.70593(7) 1.04740(18)
H20 H 0.6667 0.7241 1.0734
C21 C 0.17808(18) 0.64591(7) 1.4601(2)
C22 C 0.1423(2) 0.61734(7) 1.3206(2)
H21 H 0.0627 0.5934 1.3410
H22 H 0.2268 0.5968 1.2914
C23 C 0.09887(18) 0.65186(7) 1.19083(19)
H23 H 0.1008 0.6308 1.0988
C24 C -0.05236(18) 0.67382(8) 1.2076(2)
H24 H -0.0802 0.6913 1.1150
H25 H -0.1208 0.6455 1.2238
C25 C -0.06320(19) 0.71140(7) 1.3352(2)
H26 H -0.0542 0.6929 1.4299
H27 H -0.1580 0.7284 1.3328
C26 C 0.05541(18) 0.75132(7) 1.3238(2)
H28 H 0.0556 0.7726 1.4141
H29 H 0.0354 0.7739 1.2387
C27 C 0.20395(18) 0.72690(7) 1.30490(18)
H30 H 0.2752 0.7549 1.2883
C28 C 0.2518(2) 0.69641(7) 1.44143(19)
H31 H 0.3565 0.6904 1.4352
H32 H 0.2342 0.7174 1.5303
loop_
_geom_bond_atom_site_label_1
_geom_bond_atom_site_label_2
_geom_bond_site_symmetry_1
_geom_bond_site_symmetry_2
N1 C3 1_555 1_555
N2 C18 1_555 1_555
O1 C12 1_555 1_555
O2 C1 1_555 1_555
O3 C21 1_555 1_555
C1 C2 1_555 1_555
C2 H1 1_555 1_555
H2 C2 1_555 1_555
C3 C2 1_555 1_555
H3 C3 1_555 1_555
C4 C3 1_555 1_555
H4 C4 1_555 1_555
H5 C4 1_555 1_555
C5 C4 1_555 1_555
H6 C5 1_555 1_555
H7 C5 1_555 1_555
C6 C5 1_555 1_555
H8 C6 1_555 1_555
H9 C6 1_555 1_555
C7 N1 1_555 1_555
H10 C7 1_555 1_555
C8 C1 1_555 1_555
H11 C8 1_555 1_555
H12 C8 1_555 1_555
C9 N1 1_555 1_555
C10 C9 1_555 1_555
H13 C10 1_555 1_555
C11 C10 1_555 1_555
H14 C11 1_555 1_555
C12 C11 1_555 1_555
C13 C12 1_555 1_555
H15 C13 1_555 1_555
C14 C9 1_555 1_555
H16 C14 1_555 1_555
C15 O1 1_555 1_555
C16 C15 1_555 1_555
H17 C16 1_555 1_555
C17 C16 1_555 1_555
H18 C17 1_555 1_555
C18 C17 1_555 1_555
C19 C18 1_555 1_555
H19 C19 1_555 1_555
C20 C15 1_555 1_555
H20 C20 1_555 1_555
C21 C22 1_555 1_555
C22 H21 1_555 1_555
H22 C22 1_555 1_555
C23 N2 1_555 1_555
H23 C23 1_555 1_555
C24 C23 1_555 1_555
H24 C24 1_555 1_555
H25 C24 1_555 1_555
C25 C24 1_555 1_555
H26 C25 1_555 1_555
H27 C25 1_555 1_555
C26 C25 1_555 1_555
H28 C26 1_555 1_555
H29 C26 1_555 1_555
C27 N2 1_555 1_555
H30 C27 1_555 1_555
C28 C21 1_555 1_555
H31 C28 1_555 1_555
H32 C28 1_555 1_555
C6 C7 1_555 1_555
C7 C8 1_555 1_555
C13 C14 1_555 1_555
C19 C20 1_555 1_555
C22 C23 1_555 1_555
C26 C27 1_555 1_555
C27 C28 1_555 1_555

#END
