
#######################################################################
#
#                 Cambridge Crystallographic Data Centre
#                                CCDC 
#
#######################################################################
#
# If this CIF has been generated from an entry in the Cambridge 
# Structural Database, then it will include bibliographic, chemical, 
# crystal, experimental, refinement or atomic coordinate data resulting 
# from the CCDC's data processing and validation procedures.
#
#######################################################################

data_QUFYIB
_chemical_formula_moiety         'C456 H444 N48 O24'
_chemical_name_systematic        
"2,4,6,8,10,12,13,14-octakis(N,N',N''-((2,4,6-tributoxybenzene-1,3,5-triyl)tris(methylene))tris(methylideneamine))-1,3,5,7,9,11-hexakis(4,4',4'',4'''-(porphyrin-5,10,15,20-tetrayl)tetraphenyl)undecacyclo[5.5.1.1^1,3^.0^2,5^.0^3,10^.0^4,9^.0^5,13^.0^6,9^.0^7,12^.0^8,11^.0^11,14^]tetradecaphane porphyrin box unknown solvate"
_symmetry_cell_setting           rhombohedral
_symmetry_space_group_name_H-M   'R -3 c'
_symmetry_Int_Tables_number      167
_space_group_name_Hall           '-R 3 2"c'
loop_
_symmetry_equiv_pos_site_id
_symmetry_equiv_pos_as_xyz
1 x,y,z
2 -y,x-y,z
3 -x+y,-x,z
4 y,x,1/2-z
5 x-y,-y,1/2-z
6 -x,-x+y,1/2-z
7 2/3+x,1/3+y,1/3+z
8 2/3-y,1/3+x-y,1/3+z
9 2/3-x+y,1/3-x,1/3+z
10 2/3+y,1/3+x,5/6-z
11 2/3+x-y,1/3-y,5/6-z
12 2/3-x,1/3-x+y,5/6-z
13 1/3+x,2/3+y,2/3+z
14 1/3-y,2/3+x-y,2/3+z
15 1/3-x+y,2/3-x,2/3+z
16 1/3+y,2/3+x,1/6-z
17 1/3+x-y,2/3-y,1/6-z
18 1/3-x,2/3-x+y,1/6-z
19 -x,-y,-z
20 y,-x+y,-z
21 x-y,x,-z
22 -y,-x,1/2+z
23 -x+y,y,1/2+z
24 x,x-y,1/2+z
25 1/3-x,2/3-y,2/3-z
26 1/3+y,2/3-x+y,2/3-z
27 1/3+x-y,2/3+x,2/3-z
28 1/3-y,2/3-x,1/6+z
29 1/3-x+y,2/3+y,1/6+z
30 1/3+x,2/3+x-y,1/6+z
31 2/3-x,1/3-y,1/3-z
32 2/3+y,1/3-x+y,1/3-z
33 2/3+x-y,1/3+x,1/3-z
34 2/3-y,1/3-x,5/6+z
35 2/3-x+y,1/3+y,5/6+z
36 2/3+x,1/3+x-y,5/6+z
_cell_length_a                   29.518(4)
_cell_length_b                   29.518(4)
_cell_length_c                   125.69(3)
_cell_angle_alpha                90
_cell_angle_beta                 90
_cell_angle_gamma                120
_cell_volume                     94843
_exptl_crystal_colour            red
_exptl_crystal_description       block
_cell_formula_units_Z            6
loop_
_atom_site_label
_atom_site_type_symbol
_atom_site_fract_x
_atom_site_fract_y
_atom_site_fract_z
O1 O 0.40791(8) 0.63606(8) 0.54219(2)
O2 O 0.79439(9) 1.20350(9) 0.62678(2)
O3 O 0.68884(8) 1.26901(8) 0.64117(2)
O4 O 0.66159(10) 1.20595(9) 0.60531(2)
N1 N 0.70249(11) 0.73137(11) 0.62458(2)
N2 N 0.63697(11) 0.70994(11) 0.60599(2)
H1 H 0.6550 0.7373 0.6101
N3 N 0.64904(11) 0.81391(11) 0.60753(2)
N4 N 0.71392(11) 0.83479(11) 0.62640(2)
H2 H 0.6960 0.8075 0.6222
N5 N 0.46647(11) 0.75057(10) 0.55240(2)
N6 N 0.72540(12) 1.12850(11) 0.60854(2)
N7 N 0.74396(12) 1.21324(12) 0.65226(2)
N8 N 0.58227(12) 1.20718(11) 0.62190(2)
C1 C 0.69572(14) 0.68316(14) 0.62201(3)
C2 C 0.66301(14) 0.65045(14) 0.61396(3)
C3 C 0.63488(14) 0.66319(14) 0.60666(3)
C4 C 0.60034(15) 0.62830(14) 0.59867(3)
H3 H 0.5919 0.5931 0.5976
C5 C 0.58202(15) 0.65458(14) 0.59302(3)
H4 H 0.5584 0.6416 0.5872
C6 C 0.60554(14) 0.70650(14) 0.59761(3)
C7 C 0.59971(13) 0.74762(14) 0.59374(3)
C8 C 0.62098(14) 0.79693(14) 0.59812(3)
C9 C 0.62280(15) 0.84216(15) 0.59348(3)
H5 H 0.6067 0.8426 0.5870
C10 C 0.65065(15) 0.88378(15) 0.59974(3)
H6 H 0.6576 0.9184 0.5984
C11 C 0.66797(14) 0.86702(15) 0.60868(3)
C12 C 0.69906(14) 0.89872(14) 0.61701(3)
C13 C 0.71881(14) 0.88297(14) 0.62537(3)
C14 C 0.74909(14) 0.91605(15) 0.63403(3)
H7 H 0.7575 0.9512 0.6352
C15 C 0.76327(14) 0.88748(14) 0.64013(3)
H8 H 0.7833 0.8986 0.6465
C16 C 0.74229(14) 0.83723(14) 0.63516(3)
C17 C 0.75323(14) 0.79831(15) 0.63817(3)
C18 C 0.73669(14) 0.75105(15) 0.63315(3)
C19 C 0.75236(15) 0.71321(15) 0.63562(3)
H9 H 0.7760 0.7163 0.6411
C20 C 0.72742(15) 0.67233(16) 0.62880(3)
H10 H 0.7307 0.6419 0.6286
C21 C 0.57053(15) 0.74008(13) 0.58353(3)
C22 C 0.58942(14) 0.73040(13) 0.57419(3)
H11 H 0.6180 0.7241 0.5744
C23 C 0.52753(15) 0.74792(14) 0.58304(3)
H12 H 0.5133 0.7531 0.5894
C24 C 0.56679(14) 0.72997(13) 0.56462(3)
H13 H 0.5794 0.7224 0.5583
C25 C 0.50561(14) 0.74812(14) 0.57330(3)
H14 H 0.4765 0.7536 0.5730
C26 C 0.52566(13) 0.74043(13) 0.56396(3)
C27 C 0.50361(14) 0.74039(12) 0.55350(3)
H15 H 0.5173 0.7326 0.5474
C28 C 0.44445(13) 0.74412(13) 0.54166(2)
H16 H 0.4626 0.7323 0.5367
H17 H 0.4496 0.7780 0.5391
C29 C 0.38706(13) 0.70448(13) 0.54197(2)
C30 C 0.36997(14) 0.65125(14) 0.54218(2)
C31 C 0.41451(14) 0.61816(14) 0.55260(3)
H18 H 0.3823 0.5856 0.5546
H19 H 0.4215 0.6451 0.5581
C32 C 0.45998(14) 0.60834(14) 0.55192(3)
H20 H 0.4910 0.6398 0.5490
H21 H 0.4511 0.5789 0.5470
C33 C 0.47307(15) 0.59535(15) 0.56294(3)
H22 H 0.4806 0.6243 0.5679
H23 H 0.4423 0.5633 0.5657
C34 C 0.52011(15) 0.58683(15) 0.56261(3)
H24 H 0.5270 0.5787 0.5698
H25 H 0.5125 0.5577 0.5578
H26 H 0.5509 0.6187 0.5600
C35 C 0.73058(14) 1.20703(12) 0.61565(3)
C36 C 0.75650(13) 1.21805(12) 0.62551(3)
C37 C 0.74408(14) 1.23979(12) 0.63389(3)
C38 C 0.70320(13) 1.24968(12) 0.63267(3)
C39 C 0.67596(13) 1.24040(12) 0.62298(3)
C40 C 0.69003(14) 1.21848(12) 0.61474(3)
C41 C 0.74579(14) 1.18432(13) 0.60669(3)
H27 H 0.7316 1.1893 0.5999
H28 H 0.7844 1.2025 0.6061
C42 C 0.75737(16) 1.11214(15) 0.60860(3)
H29 H 0.7929 1.1359 0.6069
C43 C 0.74230(15) 1.05805(14) 0.61119(3)
C44 C 0.69249(15) 1.02283(16) 0.61432(3)
H30 H 0.6671 1.0335 0.6150
C45 C 0.77897(16) 1.04230(15) 0.61073(3)
H31 H 0.8140 1.0669 0.6089
C46 C 0.67902(15) 0.97173(15) 0.61655(3)
H32 H 0.6442 0.9476 0.6187
C47 C 0.76546(16) 0.99066(16) 0.61296(3)
H33 H 0.7910 0.9802 0.6125
C48 C 0.71462(15) 0.95499(14) 0.61581(3)
C49 C 0.77416(14) 1.15473(13) 0.63269(3)
H34 H 0.7430 1.1267 0.6290
H35 H 0.7635 1.1591 0.6399
C50 C 0.81610(15) 1.13965(14) 0.63348(3)
H36 H 0.8296 1.1394 0.6263
H37 H 0.8456 1.1659 0.6378
C51 C 0.79460(15) 1.08646(15) 0.63846(3)
H38 H 0.7662 1.0601 0.6339
H39 H 0.7794 1.0863 0.6455
C52 C 0.83652(17) 1.07133(17) 0.63987(3)
H40 H 0.8210 1.0366 0.6431
H41 H 0.8512 1.0707 0.6329
H42 H 0.8643 1.0969 0.6445
C53 C 0.77512(14) 1.25362(14) 0.64415(3)
H43 H 0.8088 1.2548 0.6429
H44 H 0.7826 1.2885 0.6467
C54 C 0.73998(14) 1.22917(15) 0.66120(3)
H45 H 0.7579 1.2657 0.6626
C55 C 0.70740(14) 1.19181(14) 0.66985(3)
C56 C 0.67814(16) 1.13831(16) 0.66787(3)
H46 H 0.6782 1.1250 0.6610
C57 C 0.70508(14) 1.21057(15) 0.67961(3)
H47 H 0.7233 1.2472 0.6808
C58 C 0.64914(16) 1.10475(15) 0.67594(3)
H48 H 0.6293 1.0682 0.6746
C59 C 0.67687(14) 1.17740(15) 0.68769(3)
H49 H 0.6766 1.1911 0.6945
C60 C 0.64865(14) 1.12384(16) 0.68597(3)
C61 C 0.64255(14) 1.22691(14) 0.64667(3)
H50 H 0.6474 1.1965 0.6479
H51 H 0.6109 1.2153 0.6422
C62 C 0.63619(15) 1.24776(14) 0.65705(3)
H52 H 0.6290 1.2766 0.6557
H53 H 0.6694 1.2624 0.6611
C63 C 0.59224(16) 1.20629(17) 0.66381(3)
H54 H 0.5585 1.1941 0.6601
H55 H 0.5976 1.1759 0.6646
C64 C 0.58932(18) 1.22597(19) 0.67463(3)
H56 H 0.5605 1.1979 0.6786
H57 H 0.6223 1.2373 0.6784
H58 H 0.5832 1.2556 0.6739
C65 C 0.63407(13) 1.25432(13) 0.62144(3)
H59 H 0.6369 1.2791 0.6271
H60 H 0.6388 1.2717 0.6145
C66 C 0.55056(14) 1.20023(13) 0.61468(3)
H61 H 0.5598 1.2261 0.6093
C67 C 0.49871(14) 1.15227(14) 0.61437(3)
C68 C 0.48363(15) 1.11530(15) 0.62250(3)
H62 H 0.5065 1.1213 0.6283
C69 C 0.46452(15) 1.14223(14) 0.60595(3)
H63 H 0.4743 1.1672 0.6004
C70 C 0.43627(15) 1.07061(16) 0.62210(3)
H64 H 0.4261 1.0461 0.6278
C71 C 0.41676(14) 1.09680(15) 0.60547(3)
H65 H 0.3940 1.0909 0.5996
C72 C 0.40196(14) 1.05993(14) 0.61344(3)
C73 C 0.62174(14) 1.15050(14) 0.60481(3)
H66 H 0.5997 1.1408 0.6113
H67 H 0.6389 1.1291 0.6046
C74 C 0.58855(17) 1.13954(18) 0.59528(3)
H68 H 0.6100 1.1453 0.5888
H69 H 0.5750 1.1641 0.5950
C75 C 0.54284(16) 1.08361(19) 0.59529(4)
H70 H 0.5221 1.0779 0.6018
H71 H 0.5568 1.0593 0.5955
C76 C 0.5064(2) 1.0703(3) 0.58559(3)
H72 H 0.4780 1.0339 0.5861
H73 H 0.4917 1.0936 0.5855
H74 H 0.5264 1.0750 0.5791
O1A O 0.36394(8) 0.77185(11) 0.54219(2)
O2A O -0.20350(9) 0.59089(13) 0.62678(2)
O3A O -0.26901(8) 0.41983(11) 0.64117(2)
O4A O -0.20595(9) 0.45564(13) 0.60531(2)
N1A N 0.26863(11) 0.97112(16) 0.62458(2)
N2A N 0.29006(11) 0.92703(16) 0.60599(2)
H1A H 0.2627 0.9177 0.6101
N3A N 0.18609(11) 0.83513(16) 0.60753(2)
N4A N 0.16521(11) 0.87913(16) 0.62640(2)
H2A H 0.1925 0.8885 0.6222
N5A N 0.24943(10) 0.71590(15) 0.55240(2)
N6A N -0.12850(11) 0.59690(16) 0.60854(2)
N7A N -0.21324(12) 0.53072(17) 0.65226(2)
N8A N -0.20718(11) 0.37509(16) 0.62190(2)
C1A C 0.31684(14) 1.01256(20) 0.62201(3)
C2A C 0.34955(14) 1.01256(20) 0.61396(3)
C3A C 0.33681(14) 0.97169(20) 0.60666(3)
C4A C 0.37170(14) 0.97204(21) 0.59867(3)
H3A H 0.4069 0.9988 0.5976
C5A C 0.34542(14) 0.92744(21) 0.59302(3)
H4A H 0.3584 0.9168 0.5872
C6A C 0.29350(14) 0.89904(20) 0.59761(3)
C7A C 0.25238(14) 0.85209(19) 0.59374(3)
C8A C 0.20307(14) 0.82405(20) 0.59812(3)
C9A C 0.15784(15) 0.78064(21) 0.59348(3)
H5A H 0.1574 0.7641 0.5870
C10A C 0.11622(15) 0.76687(21) 0.59974(3)
H6A H 0.0816 0.7392 0.5984
C11A C 0.13298(15) 0.80095(21) 0.60868(3)
C12A C 0.10128(14) 0.80034(20) 0.61701(3)
C13A C 0.11703(14) 0.83584(20) 0.62537(3)
C14A C 0.08395(15) 0.83304(21) 0.63403(3)
H7A H 0.0488 0.8063 0.6352
C15A C 0.11252(14) 0.87579(20) 0.64013(3)
H8A H 0.1014 0.8847 0.6465
C16A C 0.16277(14) 0.90506(20) 0.63516(3)
C17A C 0.20169(15) 0.95492(21) 0.63817(3)
C18A C 0.24895(15) 0.98564(21) 0.63315(3)
C19A C 0.28679(15) 1.03915(21) 0.63562(3)
H9A H 0.2837 1.0597 0.6411
C20A C 0.32767(16) 1.05509(22) 0.62880(3)
H10A H 0.3581 1.0888 0.6286
C21A C 0.25992(13) 0.83045(20) 0.58353(3)
C22A C 0.26960(13) 0.85902(19) 0.57419(3)
H11A H 0.2759 0.8939 0.5744
C23A C 0.25208(14) 0.77961(21) 0.58304(3)
H12A H 0.2469 0.7602 0.5894
C24A C 0.27003(13) 0.83682(19) 0.56462(3)
H13A H 0.2776 0.8570 0.5583
C25A C 0.25188(14) 0.75749(20) 0.57330(3)
H14A H 0.2464 0.7229 0.5730
C26A C 0.25957(13) 0.78523(18) 0.56396(3)
C27A C 0.25961(12) 0.76322(18) 0.55350(3)
H15A H 0.2674 0.7847 0.5474
C28A C 0.25588(13) 0.70033(18) 0.54166(2)
H16A H 0.2677 0.7303 0.5367
H17A H 0.2220 0.6716 0.5391
C29A C 0.29552(13) 0.68258(18) 0.54197(2)
C30A C 0.34875(14) 0.71872(20) 0.54218(2)
C31A C 0.38184(14) 0.79635(20) 0.55260(3)
H18A H 0.4144 0.7967 0.5546
H19A H 0.3549 0.7764 0.5581
C32A C 0.39166(14) 0.85164(20) 0.55192(3)
H20A H 0.3602 0.8512 0.5490
H21A H 0.4211 0.8722 0.5470
C33A C 0.40465(15) 0.87772(21) 0.56294(3)
H22A H 0.3757 0.8563 0.5679
H23A H 0.4367 0.8790 0.5657
C34A C 0.41317(15) 0.93328(21) 0.56261(3)
H24A H 0.4213 0.9483 0.5698
H25A H 0.4423 0.9548 0.5578
H26A H 0.3813 0.9322 0.5600
C35A C -0.20703(12) 0.52355(18) 0.61565(3)
C36A C -0.21805(12) 0.53845(18) 0.62551(3)
C37A C -0.23979(12) 0.50429(18) 0.63389(3)
C38A C -0.24968(12) 0.45352(18) 0.63267(3)
C39A C -0.24040(12) 0.43556(18) 0.62298(3)
C40A C -0.21848(12) 0.47155(18) 0.61474(3)
C41A C -0.18432(13) 0.56147(19) 0.60669(3)
H27A H -0.1893 0.5423 0.5999
H28A H -0.2025 0.5819 0.6061
C42A C -0.11214(15) 0.64523(22) 0.60860(3)
H29A H -0.1359 0.6570 0.6069
C43A C -0.05805(14) 0.68425(21) 0.61119(3)
C44A C -0.02283(16) 0.66966(22) 0.61432(3)
H30A H -0.0335 0.6336 0.6150
C45A C -0.04230(15) 0.73667(22) 0.61073(3)
H31A H -0.0669 0.7471 0.6089
C46A C 0.02827(15) 0.70729(21) 0.61655(3)
H32A H 0.0524 0.6966 0.6187
C47A C 0.00934(16) 0.77480(23) 0.61296(3)
H33A H 0.0198 0.8108 0.6125
C48A C 0.04501(14) 0.75963(21) 0.61581(3)
C49A C -0.15473(13) 0.61943(19) 0.63269(3)
H34A H -0.1267 0.6163 0.6290
H35A H -0.1591 0.6044 0.6399
C50A C -0.13965(14) 0.67645(21) 0.63348(3)
H36A H -0.1394 0.6902 0.6263
H37A H -0.1659 0.6797 0.6378
C51A C -0.08646(15) 0.70814(21) 0.63846(3)
H38A H -0.0601 0.7061 0.6339
H39A H -0.0863 0.6931 0.6455
C52A C -0.07133(17) 0.76519(24) 0.63987(3)
H40A H -0.0366 0.7844 0.6431
H41A H -0.0707 0.7805 0.6329
H42A H -0.0969 0.7674 0.6445
C53A C -0.25362(14) 0.52150(20) 0.64415(3)
H43A H -0.2548 0.5540 0.6429
H44A H -0.2885 0.4941 0.6467
C54A C -0.22917(15) 0.51081(21) 0.66120(3)
H45A H -0.2657 0.4922 0.6626
C55A C -0.19181(14) 0.51559(20) 0.66985(3)
C56A C -0.13831(16) 0.53983(23) 0.66787(3)
H46A H -0.1250 0.5532 0.6610
C57A C -0.21057(15) 0.49451(21) 0.67961(3)
H47A H -0.2472 0.4761 0.6808
C58A C -0.10475(15) 0.54439(22) 0.67594(3)
H48A H -0.0682 0.5611 0.6746
C59A C -0.17740(15) 0.49947(21) 0.68769(3)
H49A H -0.1911 0.4855 0.6945
C60A C -0.12384(16) 0.52481(21) 0.68597(3)
C61A C -0.22691(14) 0.41564(20) 0.64667(3)
H50A H -0.1965 0.4509 0.6479
H51A H -0.2153 0.3956 0.6422
C62A C -0.24776(14) 0.38843(21) 0.65705(3)
H52A H -0.2766 0.3524 0.6557
H53A H -0.2624 0.4070 0.6611
C63A C -0.20629(17) 0.38595(23) 0.66381(3)
H54A H -0.1941 0.3644 0.6601
H55A H -0.1759 0.4217 0.6646
C64A C -0.22597(19) 0.36335(26) 0.67463(3)
H56A H -0.1979 0.3626 0.6786
H57A H -0.2373 0.3850 0.6784
H58A H -0.2556 0.3276 0.6739
C65A C -0.25432(13) 0.37975(18) 0.62144(3)
H59A H -0.2791 0.3578 0.6271
H60A H -0.2717 0.3671 0.6145
C66A C -0.20023(13) 0.35033(19) 0.61468(3)
H61A H -0.2261 0.3337 0.6093
C67A C -0.15227(14) 0.34644(20) 0.61437(3)
C68A C -0.11530(15) 0.36833(21) 0.62250(3)
H62A H -0.1213 0.3852 0.6283
C69A C -0.14223(14) 0.32229(21) 0.60595(3)
H63A H -0.1672 0.3071 0.6004
C70A C -0.07061(16) 0.36566(22) 0.62210(3)
H64A H -0.0461 0.3800 0.6278
C71A C -0.09680(15) 0.31996(21) 0.60547(3)
H65A H -0.0909 0.3031 0.5996
C72A C -0.05993(14) 0.34203(20) 0.61344(3)
C73A C -0.15050(14) 0.47124(20) 0.60481(3)
H66A H -0.1408 0.4589 0.6113
H67A H -0.1291 0.5098 0.6046
C74A C -0.13954(18) 0.44901(25) 0.59528(3)
H68A H -0.1453 0.4647 0.5888
H69A H -0.1641 0.4109 0.5950
C75A C -0.08361(19) 0.45923(25) 0.59529(4)
H70A H -0.0779 0.4442 0.6018
H71A H -0.0593 0.4975 0.5955
C76A C -0.0703(3) 0.4361(4) 0.58559(3)
H72A H -0.0339 0.4441 0.5861
H73A H -0.0936 0.3981 0.5855
H74A H -0.0750 0.4514 0.5791
O1B O 0.22815(11) 0.59209(8) 0.54219(2)
O2B O 0.40911(13) 0.20561(9) 0.62678(2)
O3B O 0.58017(11) 0.31116(8) 0.64117(2)
O4B O 0.54436(13) 0.33841(10) 0.60531(2)
N1B N 0.02888(16) 0.29751(11) 0.62458(2)
N2B N 0.07297(16) 0.36303(11) 0.60599(2)
H1B H 0.0823 0.3450 0.6101
N3B N 0.16487(16) 0.35096(11) 0.60753(2)
N4B N 0.12087(16) 0.28608(11) 0.62640(2)
H2B H 0.1115 0.3040 0.6222
N5B N 0.28410(15) 0.53353(11) 0.55240(2)
N6B N 0.40310(16) 0.27460(12) 0.60854(2)
N7B N 0.46928(17) 0.25604(12) 0.65226(2)
N8B N 0.62491(16) 0.41773(12) 0.62190(2)
C1B C -0.01256(20) 0.30428(14) 0.62201(3)
C2B C -0.01256(20) 0.33699(14) 0.61396(3)
C3B C 0.02831(20) 0.36512(14) 0.60666(3)
C4B C 0.02796(21) 0.39966(15) 0.59867(3)
H3B H 0.0012 0.4081 0.5976
C5B C 0.07256(21) 0.41798(15) 0.59302(3)
H4B H 0.0832 0.4416 0.5872
C6B C 0.10096(20) 0.39446(14) 0.59761(3)
C7B C 0.14791(19) 0.40029(13) 0.59374(3)
C8B C 0.17595(20) 0.37902(14) 0.59812(3)
C9B C 0.21936(21) 0.37720(15) 0.59348(3)
H5B H 0.2359 0.3933 0.5870
C10B C 0.23313(21) 0.34935(15) 0.59974(3)
H6B H 0.2608 0.3424 0.5984
C11B C 0.19905(21) 0.33203(14) 0.60868(3)
C12B C 0.19966(20) 0.30094(14) 0.61701(3)
C13B C 0.16416(20) 0.28119(14) 0.62537(3)
C14B C 0.16696(21) 0.25091(14) 0.63403(3)
H7B H 0.1937 0.2425 0.6352
C15B C 0.12421(20) 0.23673(14) 0.64013(3)
H8B H 0.1153 0.2167 0.6465
C16B C 0.09494(20) 0.25771(14) 0.63516(3)
C17B C 0.04508(21) 0.24677(14) 0.63817(3)
C18B C 0.01436(21) 0.26331(14) 0.63315(3)
C19B C -0.03915(21) 0.24764(15) 0.63562(3)
H9B H -0.0597 0.2240 0.6411
C20B C -0.05509(22) 0.27258(15) 0.62880(3)
H10B H -0.0888 0.2693 0.6286
C21B C 0.16955(20) 0.42947(15) 0.58353(3)
C22B C 0.14098(19) 0.41058(14) 0.57419(3)
H11B H 0.1061 0.3820 0.5744
C23B C 0.22039(21) 0.47247(15) 0.58304(3)
H12B H 0.2398 0.4867 0.5894
C24B C 0.16318(19) 0.43321(14) 0.56462(3)
H13B H 0.1430 0.4206 0.5583
C25B C 0.24251(20) 0.49439(14) 0.57330(3)
H14B H 0.2771 0.5235 0.5730
C26B C 0.21477(18) 0.47434(13) 0.56396(3)
C27B C 0.23678(18) 0.49639(14) 0.55350(3)
H15B H 0.2153 0.4827 0.5474
C28B C 0.29967(18) 0.55555(13) 0.54166(2)
H16B H 0.2697 0.5374 0.5367
H17B H 0.3284 0.5504 0.5391
C29B C 0.31742(18) 0.61294(13) 0.54197(2)
C30B C 0.28128(20) 0.63003(14) 0.54218(2)
C31B C 0.20365(20) 0.58549(14) 0.55260(3)
H18B H 0.2033 0.6177 0.5546
H19B H 0.2236 0.5785 0.5581
C32B C 0.14836(20) 0.54002(14) 0.55192(3)
H20B H 0.1488 0.5090 0.5490
H21B H 0.1278 0.5489 0.5470
C33B C 0.12228(21) 0.52693(15) 0.56294(3)
H22B H 0.1437 0.5194 0.5679
H23B H 0.1210 0.5577 0.5657
C34B C 0.06672(21) 0.47989(15) 0.56261(3)
H24B H 0.0517 0.4730 0.5698
H25B H 0.0452 0.4875 0.5578
H26B H 0.0678 0.4491 0.5600
C35B C 0.47645(18) 0.26942(14) 0.61565(3)
C36B C 0.46155(18) 0.24350(13) 0.62551(3)
C37B C 0.49571(18) 0.25592(14) 0.63389(3)
C38B C 0.54648(18) 0.29680(13) 0.63267(3)
C39B C 0.56444(18) 0.32404(13) 0.62298(3)
C40B C 0.52845(18) 0.30997(14) 0.61474(3)
C41B C 0.43853(19) 0.25421(14) 0.60669(3)
H27B H 0.4577 0.2684 0.5999
H28B H 0.4181 0.2156 0.6061
C42B C 0.35477(22) 0.24263(16) 0.60860(3)
H29B H 0.3430 0.2071 0.6069
C43B C 0.31575(21) 0.25770(15) 0.61119(3)
C44B C 0.33034(22) 0.30751(15) 0.61432(3)
H30B H 0.3664 0.3329 0.6150
C45B C 0.26333(22) 0.22103(16) 0.61073(3)
H31B H 0.2529 0.1860 0.6089
C46B C 0.29271(21) 0.32098(15) 0.61655(3)
H32B H 0.3034 0.3558 0.6187
C47B C 0.22520(23) 0.23454(16) 0.61296(3)
H33B H 0.1892 0.2090 0.6125
C48B C 0.24037(21) 0.28538(15) 0.61581(3)
C49B C 0.38057(19) 0.22584(14) 0.63269(3)
H34B H 0.3837 0.2570 0.6290
H35B H 0.3956 0.2365 0.6399
C50B C 0.32355(21) 0.18390(15) 0.63348(3)
H36B H 0.3098 0.1704 0.6263
H37B H 0.3203 0.1544 0.6378
C51B C 0.29186(21) 0.20540(15) 0.63846(3)
H38B H 0.2939 0.2338 0.6339
H39B H 0.3069 0.2206 0.6455
C52B C 0.23481(24) 0.16348(17) 0.63987(3)
H40B H 0.2156 0.1790 0.6431
H41B H 0.2195 0.1488 0.6329
H42B H 0.2326 0.1357 0.6445
C53B C 0.47850(20) 0.22488(14) 0.64415(3)
H43B H 0.4460 0.1912 0.6429
H44B H 0.5059 0.2174 0.6467
C54B C 0.48919(21) 0.26002(14) 0.66120(3)
H45B H 0.5078 0.2421 0.6626
C55B C 0.48441(20) 0.29260(14) 0.66985(3)
C56B C 0.46017(23) 0.32186(16) 0.66787(3)
H46B H 0.4468 0.3218 0.6610
C57B C 0.50549(21) 0.29492(14) 0.67961(3)
H47B H 0.5239 0.2767 0.6808
C58B C 0.45561(22) 0.35086(16) 0.67594(3)
H48B H 0.4389 0.3707 0.6746
C59B C 0.50053(21) 0.32313(14) 0.68769(3)
H49B H 0.5145 0.3234 0.6945
C60B C 0.47519(21) 0.35135(14) 0.68597(3)
C61B C 0.58436(20) 0.35745(14) 0.64667(3)
H50B H 0.5491 0.3526 0.6479
H51B H 0.6044 0.3891 0.6422
C62B C 0.61157(21) 0.36381(15) 0.65705(3)
H52B H 0.6476 0.3710 0.6557
H53B H 0.5930 0.3306 0.6611
C63B C 0.61405(23) 0.40776(16) 0.66381(3)
H54B H 0.6356 0.4415 0.6601
H55B H 0.5783 0.4024 0.6646
C64B C 0.63665(26) 0.41068(18) 0.67463(3)
H56B H 0.6374 0.4395 0.6786
H57B H 0.6150 0.3777 0.6784
H58B H 0.6724 0.4168 0.6739
C65B C 0.62025(18) 0.36593(13) 0.62144(3)
H59B H 0.6422 0.3631 0.6271
H60B H 0.6329 0.3612 0.6145
C66B C 0.64967(19) 0.44944(14) 0.61468(3)
H61B H 0.6663 0.4402 0.6093
C67B C 0.65356(20) 0.50129(14) 0.61437(3)
C68B C 0.63167(21) 0.51637(15) 0.62250(3)
H62B H 0.6148 0.4935 0.6283
C69B C 0.67771(21) 0.53548(15) 0.60595(3)
H63B H 0.6929 0.5257 0.6004
C70B C 0.63434(22) 0.56373(15) 0.62210(3)
H64B H 0.6200 0.5739 0.6278
C71B C 0.68004(21) 0.58324(14) 0.60547(3)
H65B H 0.6969 0.6060 0.5996
C72B C 0.65797(20) 0.59804(14) 0.61344(3)
C73B C 0.52876(20) 0.37826(14) 0.60481(3)
H66B H 0.5411 0.4003 0.6113
H67B H 0.4902 0.3611 0.6046
C74B C 0.55099(25) 0.41145(17) 0.59528(3)
H68B H 0.5353 0.3900 0.5888
H69B H 0.5891 0.4250 0.5950
C75B C 0.54077(25) 0.45716(16) 0.59529(4)
H70B H 0.5558 0.4779 0.6018
H71B H 0.5025 0.4432 0.5955
C76B C 0.5639(4) 0.4936(2) 0.58559(3)
H72B H 0.5559 0.5220 0.5861
H73B H 0.6019 0.5083 0.5855
H74B H 0.5486 0.4736 0.5791
O1EA O 0.30273(8) 0.56148(11) 0.79114(2)
O2EA O 0.87017(9) 0.74244(13) 0.70655(2)
O3EA O 0.93568(8) 0.91350(11) 0.69216(2)
O4EA O 0.87262(9) 0.87769(13) 0.72802(2)
N1EA N 0.39804(11) 0.36221(16) 0.70875(2)
N2EA N 0.37661(11) 0.40630(16) 0.72734(2)
H1EA H 0.4040 0.4156 0.7232
N3EA N 0.48058(11) 0.49820(16) 0.72580(2)
N4EA N 0.50146(11) 0.45420(16) 0.70693(2)
H2EA H 0.4742 0.4448 0.7111
N5EA N 0.41724(10) 0.61743(15) 0.78093(2)
N6EA N 0.79517(11) 0.73643(16) 0.72479(2)
N7EA N 0.87991(12) 0.80261(17) 0.68107(2)
N8EA N 0.87385(11) 0.95824(16) 0.71143(2)
C1EA C 0.34983(14) 0.32077(20) 0.71132(3)
C2EA C 0.31712(14) 0.32077(20) 0.71937(3)
C3EA C 0.32986(14) 0.36164(20) 0.72667(3)
C4EA C 0.29497(14) 0.36129(21) 0.73466(3)
H3EA H 0.2598 0.3345 0.7357
C5EA C 0.32125(14) 0.40589(21) 0.74031(3)
H4EA H 0.3083 0.4165 0.7461
C6EA C 0.37317(14) 0.43429(20) 0.73572(3)
C7EA C 0.41429(14) 0.48124(19) 0.73959(3)
C8EA C 0.46360(14) 0.50928(20) 0.73521(3)
C9EA C 0.50883(15) 0.55269(21) 0.73985(3)
H5EA H 0.5093 0.5692 0.7463
C10EA C 0.55045(15) 0.56646(21) 0.73359(3)
H6EA H 0.5851 0.5941 0.7349
C11EA C 0.53369(15) 0.53238(21) 0.72465(3)
C12EA C 0.56539(14) 0.53299(20) 0.71632(3)
C13EA C 0.54964(14) 0.49749(20) 0.70796(3)
C14EA C 0.58272(15) 0.50029(21) 0.69930(3)
H7EA H 0.6179 0.5270 0.6981
C15EA C 0.55415(14) 0.45754(20) 0.69320(3)
H8EA H 0.5653 0.4486 0.6868
C16EA C 0.50390(14) 0.42827(20) 0.69817(3)
C17EA C 0.46498(15) 0.37841(21) 0.69516(3)
C18EA C 0.41772(15) 0.34769(21) 0.70018(3)
C19EA C 0.37988(15) 0.29418(21) 0.69771(3)
H9EA H 0.3830 0.2736 0.6922
C20EA C 0.33900(16) 0.27824(22) 0.70453(3)
H10EA H 0.3086 0.2445 0.7047
C21EA C 0.40675(13) 0.50288(20) 0.74980(3)
C22EA C 0.39707(13) 0.47431(19) 0.75914(3)
H11EA H 0.3908 0.4394 0.7589
C23EA C 0.41459(14) 0.55372(21) 0.75029(3)
H12EA H 0.4198 0.5731 0.7439
C24EA C 0.39664(13) 0.49651(19) 0.76871(3)
H13EA H 0.3891 0.4763 0.7750
C25EA C 0.41479(14) 0.57584(20) 0.76003(3)
H14EA H 0.4203 0.6104 0.7603
C26EA C 0.40710(13) 0.54810(18) 0.76937(3)
C27EA C 0.40706(12) 0.57011(18) 0.77983(3)
H15EA H 0.3993 0.5486 0.7859
C28EA C 0.41079(13) 0.63300(18) 0.79167(2)
H16EA H 0.3990 0.6030 0.7966
H17EA H 0.4447 0.6617 0.7942
C29EA C 0.37115(13) 0.65075(18) 0.79136(2)
C30EA C 0.31792(14) 0.61461(20) 0.79115(2)
C31EA C 0.28483(14) 0.53698(20) 0.78073(3)
H18EA H 0.2523 0.5366 0.7787
H19EA H 0.3118 0.5569 0.7752
C32EA C 0.27501(14) 0.48169(20) 0.78141(3)
H20EA H 0.3065 0.4821 0.7843
H21EA H 0.2456 0.4611 0.7863
C33EA C 0.26202(15) 0.45561(21) 0.77039(3)
H22EA H 0.2910 0.4770 0.7654
H23EA H 0.2300 0.4543 0.7676
C34EA C 0.25350(15) 0.40005(21) 0.77072(3)
H24EA H 0.2454 0.3850 0.7635
H25EA H 0.2244 0.3785 0.7755
H26EA H 0.2854 0.4011 0.7733
C35EA C 0.87370(12) 0.80978(18) 0.71768(3)
C36EA C 0.88472(12) 0.79488(18) 0.70782(3)
C37EA C 0.90646(12) 0.82904(18) 0.69944(3)
C38EA C 0.91635(12) 0.87981(18) 0.70066(3)
C39EA C 0.90707(12) 0.89777(18) 0.71035(3)
C40EA C 0.88515(12) 0.86178(18) 0.71859(3)
C41EA C 0.85099(13) 0.77186(19) 0.72664(3)
H27EA H 0.8560 0.7910 0.7334
H28EA H 0.8692 0.7514 0.7272
C42EA C 0.77881(15) 0.68810(22) 0.72473(3)
H29EA H 0.8026 0.6763 0.7264
C43EA C 0.72472(14) 0.64908(21) 0.72214(3)
C44EA C 0.68950(16) 0.66367(22) 0.71901(3)
H30EA H 0.7002 0.6997 0.7183
C45EA C 0.70897(15) 0.59666(22) 0.72260(3)
H31EA H 0.7336 0.5862 0.7244
C46EA C 0.63840(15) 0.62604(21) 0.71678(3)
H32EA H 0.6143 0.6367 0.7146
C47EA C 0.65733(16) 0.55853(23) 0.72037(3)
H33EA H 0.6469 0.5225 0.7208
C48EA C 0.62166(14) 0.57370(21) 0.71752(3)
C49EA C 0.82140(13) 0.71390(19) 0.70064(3)
H34EA H 0.7934 0.7170 0.7043
H35EA H 0.8258 0.7289 0.6934
C50EA C 0.80632(14) 0.65688(21) 0.69985(3)
H36EA H 0.8061 0.6431 0.7070
H37EA H 0.8326 0.6536 0.6955
C51EA C 0.75313(15) 0.62519(21) 0.69487(3)
H38EA H 0.7268 0.6272 0.6994
H39EA H 0.7530 0.6402 0.6878
C52EA C 0.73800(17) 0.56814(24) 0.69346(3)
H40EA H 0.7033 0.5489 0.6902
H41EA H 0.7374 0.5528 0.7004
H42EA H 0.7636 0.5659 0.6888
C53EA C 0.92029(14) 0.81183(20) 0.68918(3)
H43EA H 0.9215 0.7793 0.6904
H44EA H 0.9552 0.8392 0.6866
C54EA C 0.89584(15) 0.82252(21) 0.67213(3)
H45EA H 0.9324 0.8411 0.6707
C55EA C 0.85848(14) 0.81774(20) 0.66348(3)
C56EA C 0.80498(16) 0.79350(23) 0.66546(3)
H46EA H 0.7917 0.7801 0.6723
C57EA C 0.87724(15) 0.83882(21) 0.65372(3)
H47EA H 0.9139 0.8572 0.6525
C58EA C 0.77142(15) 0.78894(22) 0.65739(3)
H48EA H 0.7349 0.7722 0.6587
C59EA C 0.84407(15) 0.83386(21) 0.64564(3)
H49EA H 0.8578 0.8478 0.6388
C60EA C 0.79051(16) 0.80852(21) 0.64736(3)
C61EA C 0.89358(14) 0.91769(20) 0.68666(3)
H50EA H 0.8632 0.8824 0.6854
H51EA H 0.8820 0.9377 0.6911
C62EA C 0.91443(14) 0.94490(21) 0.67628(3)
H52EA H 0.9433 0.9809 0.6776
H53EA H 0.9291 0.9263 0.6722
C63EA C 0.87296(17) 0.94738(23) 0.66952(3)
H54EA H 0.8608 0.9689 0.6732
H55EA H 0.8426 0.9116 0.6687
C64EA C 0.89264(19) 0.96998(26) 0.65870(3)
H56EA H 0.8646 0.9707 0.6547
H57EA H 0.9040 0.9483 0.6549
H58EA H 0.9223 1.0057 0.6594
C65EA C 0.92099(13) 0.95358(18) 0.71189(3)
H59EA H 0.9458 0.9755 0.7062
H60EA H 0.9384 0.9662 0.7188
C66EA C 0.86690(13) 0.98300(19) 0.71865(3)
H61EA H 0.8928 0.9996 0.7240
C67EA C 0.81894(14) 0.98689(20) 0.71896(3)
C68EA C 0.78197(15) 0.96500(21) 0.71083(3)
H62EA H 0.7880 0.9481 0.7050
C69EA C 0.80890(14) 1.01104(21) 0.72738(3)
H63EA H 0.8339 1.0262 0.7329
C70EA C 0.73728(16) 0.96767(22) 0.71123(3)
H64EA H 0.7128 0.9533 0.7055
C71EA C 0.76347(15) 1.01337(21) 0.72786(3)
H65EA H 0.7576 1.0302 0.7337
C72EA C 0.72660(14) 0.99130(20) 0.71989(3)
C73EA C 0.81717(14) 0.86209(20) 0.72852(3)
H66EA H 0.8075 0.8744 0.7220
H67EA H 0.7958 0.8235 0.7287
C74EA C 0.80621(18) 0.88432(25) 0.73805(3)
H68EA H 0.8120 0.8686 0.7445
H69EA H 0.8308 0.9224 0.7383
C75EA C 0.75028(19) 0.87410(25) 0.73804(4)
H70EA H 0.7446 0.8891 0.7315
H71EA H 0.7260 0.8358 0.7378
C76EA C 0.7370(3) 0.8972(4) 0.74774(3)
H72EA H 0.7006 0.8892 0.7472
H73EA H 0.7603 0.9352 0.7478
H74EA H 0.7417 0.8819 0.7542
O1FA O 0.43852(11) 0.74124(8) 0.79114(2)
O2FA O 0.25756(13) 1.12772(9) 0.70655(2)
O3FA O 0.08650(11) 1.02217(8) 0.69216(2)
O4FA O 0.12231(13) 0.99492(10) 0.72802(2)
N1FA N 0.63779(16) 1.03582(11) 0.70875(2)
N2FA N 0.59370(16) 0.97030(11) 0.72734(2)
H1FA H 0.5844 0.9883 0.7232
N3FA N 0.50180(16) 0.98237(11) 0.72580(2)
N4FA N 0.54580(16) 1.04725(11) 0.70693(2)
H2FA H 0.5552 1.0293 0.7111
N5FA N 0.38257(15) 0.79980(11) 0.78093(2)
N6FA N 0.26357(16) 1.05873(12) 0.72479(2)
N7FA N 0.19739(17) 1.07729(12) 0.68107(2)
N8FA N 0.04176(16) 0.91560(12) 0.71143(2)
C1FA C 0.67923(20) 1.02905(14) 0.71132(3)
C2FA C 0.67923(20) 0.99634(14) 0.71937(3)
C3FA C 0.63836(20) 0.96821(14) 0.72667(3)
C4FA C 0.63871(21) 0.93367(15) 0.73466(3)
H3FA H 0.6655 0.9252 0.7357
C5FA C 0.59411(21) 0.91535(15) 0.74031(3)
H4FA H 0.5835 0.8917 0.7461
C6FA C 0.56571(20) 0.93887(14) 0.73572(3)
C7FA C 0.51876(19) 0.93304(13) 0.73959(3)
C8FA C 0.49072(20) 0.95431(14) 0.73521(3)
C9FA C 0.44731(21) 0.95613(15) 0.73985(3)
H5FA H 0.4308 0.9400 0.7463
C10FA C 0.43354(21) 0.98398(15) 0.73359(3)
H6FA H 0.4059 0.9909 0.7349
C11FA C 0.46762(21) 1.00130(14) 0.72465(3)
C12FA C 0.46701(20) 1.03239(14) 0.71632(3)
C13FA C 0.50251(20) 1.05214(14) 0.70796(3)
C14FA C 0.49971(21) 1.08242(14) 0.69930(3)
H7FA H 0.4730 1.0908 0.6981
C15FA C 0.54246(20) 1.09660(14) 0.69320(3)
H8FA H 0.5514 1.1166 0.6868
C16FA C 0.57173(20) 1.07562(14) 0.69817(3)
C17FA C 0.62159(21) 1.08656(14) 0.69516(3)
C18FA C 0.65231(21) 1.07002(14) 0.70018(3)
C19FA C 0.70582(21) 1.08569(15) 0.69771(3)
H9FA H 0.7264 1.1093 0.6922
C20FA C 0.72176(22) 1.06075(15) 0.70453(3)
H10FA H 0.7555 1.0640 0.7047
C21FA C 0.49712(20) 0.90386(15) 0.74980(3)
C22FA C 0.52569(19) 0.92275(14) 0.75914(3)
H11FA H 0.5606 0.9513 0.7589
C23FA C 0.44628(21) 0.86086(15) 0.75029(3)
H12FA H 0.4269 0.8466 0.7439
C24FA C 0.50349(19) 0.90012(14) 0.76871(3)
H13FA H 0.5237 0.9127 0.7750
C25FA C 0.42416(20) 0.83894(14) 0.76003(3)
H14FA H 0.3896 0.8098 0.7603
C26FA C 0.45190(18) 0.85899(13) 0.76937(3)
C27FA C 0.42989(18) 0.83694(14) 0.77983(3)
H15FA H 0.4514 0.8506 0.7859
C28FA C 0.36700(18) 0.77778(13) 0.79167(2)
H16FA H 0.3970 0.7959 0.7966
H17FA H 0.3383 0.7829 0.7942
C29FA C 0.34925(18) 0.72039(13) 0.79136(2)
C30FA C 0.38539(20) 0.70330(14) 0.79115(2)
C31FA C 0.46302(20) 0.74784(14) 0.78073(3)
H18FA H 0.4634 0.7156 0.7787
H19FA H 0.4431 0.7548 0.7752
C32FA C 0.51831(20) 0.79331(14) 0.78141(3)
H20FA H 0.5179 0.8243 0.7843
H21FA H 0.5389 0.7844 0.7863
C33FA C 0.54439(21) 0.80640(15) 0.77039(3)
H22FA H 0.5230 0.8139 0.7654
H23FA H 0.5457 0.7756 0.7676
C34FA C 0.59995(21) 0.85344(15) 0.77072(3)
H24FA H 0.6150 0.8603 0.7635
H25FA H 0.6215 0.8458 0.7755
H26FA H 0.5989 0.8842 0.7733
C35FA C 0.19022(18) 1.06391(14) 0.71768(3)
C36FA C 0.20512(18) 1.08983(13) 0.70782(3)
C37FA C 0.17096(18) 1.07741(14) 0.69944(3)
C38FA C 0.12019(18) 1.03653(13) 0.70066(3)
C39FA C 0.10223(18) 1.00929(13) 0.71035(3)
C40FA C 0.13822(18) 1.02336(14) 0.71859(3)
C41FA C 0.22814(19) 1.07912(14) 0.72664(3)
H27FA H 0.2090 1.0649 0.7334
H28FA H 0.2486 1.1177 0.7272
C42FA C 0.31190(22) 1.09070(16) 0.72473(3)
H29FA H 0.3237 1.1262 0.7264
C43FA C 0.35092(21) 1.07563(15) 0.72214(3)
C44FA C 0.33633(22) 1.02582(15) 0.71901(3)
H30FA H 0.3003 1.0004 0.7183
C45FA C 0.40334(22) 1.11230(16) 0.72260(3)
H31FA H 0.4138 1.1473 0.7244
C46FA C 0.37396(21) 1.01235(15) 0.71678(3)
H32FA H 0.3633 0.9775 0.7146
C47FA C 0.44147(23) 1.09879(16) 0.72037(3)
H33FA H 0.4775 1.1243 0.7208
C48FA C 0.42630(21) 1.04795(15) 0.71752(3)
C49FA C 0.28610(19) 1.10749(14) 0.70064(3)
H34FA H 0.2830 1.0763 0.7043
H35FA H 0.2711 1.0968 0.6934
C50FA C 0.34312(21) 1.14943(15) 0.69985(3)
H36FA H 0.3569 1.1629 0.7070
H37FA H 0.3464 1.1789 0.6955
C51FA C 0.37481(21) 1.12793(15) 0.69487(3)
H38FA H 0.3728 1.0995 0.6994
H39FA H 0.3598 1.1127 0.6878
C52FA C 0.43186(24) 1.16985(17) 0.69346(3)
H40FA H 0.4511 1.1543 0.6902
H41FA H 0.4472 1.1845 0.7004
H42FA H 0.4341 1.1976 0.6888
C53FA C 0.18817(20) 1.10845(14) 0.68918(3)
H43FA H 0.2207 1.1421 0.6904
H44FA H 0.1608 1.1159 0.6866
C54FA C 0.17748(21) 1.07331(14) 0.67213(3)
H45FA H 0.1589 1.0912 0.6707
C55FA C 0.18226(20) 1.04073(14) 0.66348(3)
C56FA C 0.20650(23) 1.01147(16) 0.66546(3)
H46FA H 0.2199 1.0115 0.6723
C57FA C 0.16118(21) 1.03841(14) 0.65372(3)
H47FA H 0.1428 1.0566 0.6525
C58FA C 0.21106(22) 0.98247(16) 0.65739(3)
H48FA H 0.2278 0.9626 0.6587
C59FA C 0.16614(21) 1.01020(14) 0.64564(3)
H49FA H 0.1522 1.0099 0.6388
C60FA C 0.19148(21) 0.98198(14) 0.64736(3)
C61FA C 0.08231(20) 0.97588(14) 0.68666(3)
H50FA H 0.1176 0.9807 0.6854
H51FA H 0.0623 0.9442 0.6911
C62FA C 0.05510(21) 0.96952(15) 0.67628(3)
H52FA H 0.0191 0.9623 0.6776
H53FA H 0.0737 1.0027 0.6722
C63FA C 0.05262(23) 0.92557(16) 0.66952(3)
H54FA H 0.0311 0.8918 0.6732
H55FA H 0.0884 0.9309 0.6687
C64FA C 0.03002(26) 0.92265(18) 0.65870(3)
H56FA H 0.0293 0.8938 0.6547
H57FA H 0.0517 0.9556 0.6549
H58FA H -0.0057 0.9165 0.6594
C65FA C 0.04642(18) 0.96740(13) 0.71189(3)
H59FA H 0.0245 0.9702 0.7062
H60FA H 0.0338 0.9721 0.7188
C66FA C 0.01700(19) 0.88389(14) 0.71865(3)
H61FA H 0.0004 0.8931 0.7240
C67FA C 0.01311(20) 0.83204(14) 0.71896(3)
C68FA C 0.03500(21) 0.81696(15) 0.71083(3)
H62FA H 0.0519 0.8398 0.7050
C69FA C -0.01104(21) 0.79785(15) 0.72738(3)
H63FA H -0.0262 0.8076 0.7329
C70FA C 0.03233(22) 0.76960(15) 0.71123(3)
H64FA H 0.0467 0.7594 0.7055
C71FA C -0.01337(21) 0.75009(14) 0.72786(3)
H65FA H -0.0302 0.7273 0.7337
C72FA C 0.00870(20) 0.73529(14) 0.71989(3)
C73FA C 0.13791(20) 0.95507(14) 0.72852(3)
H66FA H 0.1256 0.9330 0.7220
H67FA H 0.1765 0.9722 0.7287
C74FA C 0.11568(25) 0.92188(17) 0.73805(3)
H68FA H 0.1314 0.9433 0.7445
H69FA H 0.0776 0.9083 0.7383
C75FA C 0.12590(25) 0.87617(16) 0.73804(4)
H70FA H 0.1109 0.8554 0.7315
H71FA H 0.1642 0.8901 0.7378
C76FA C 0.1028(4) 0.8397(2) 0.74774(3)
H72FA H 0.1108 0.8113 0.7472
H73FA H 0.0648 0.8250 0.7478
H74FA H 0.1181 0.8597 0.7542
O1DA O 0.25876(8) 0.69727(8) 0.79114(2)
O2DA O -0.12772(9) 0.12983(9) 0.70655(2)
O3DA O -0.02217(8) 0.06432(8) 0.69216(2)
O4DA O 0.00508(10) 0.12738(9) 0.72802(2)
N1DA N -0.03582(11) 0.60196(11) 0.70875(2)
N2DA N 0.02970(11) 0.62339(11) 0.72734(2)
H1DA H 0.0117 0.5960 0.7232
N3DA N 0.01763(11) 0.51942(11) 0.72580(2)
N4DA N -0.04725(11) 0.49854(11) 0.70693(2)
H2DA H -0.0293 0.5258 0.7111
N5DA N 0.20020(11) 0.58276(10) 0.78093(2)
N6DA N -0.05873(12) 0.20483(11) 0.72479(2)
N7DA N -0.07729(12) 0.12009(12) 0.68107(2)
N8DA N 0.08440(12) 0.12615(11) 0.71143(2)
C1DA C -0.02905(14) 0.65017(14) 0.71132(3)
C2DA C 0.00366(14) 0.68288(14) 0.71937(3)
C3DA C 0.03179(14) 0.67014(14) 0.72667(3)
C4DA C 0.06633(15) 0.70503(14) 0.73466(3)
H3DA H 0.0748 0.7402 0.7357
C5DA C 0.08465(15) 0.67875(14) 0.74031(3)
H4DA H 0.1083 0.6917 0.7461
C6DA C 0.06113(14) 0.62683(14) 0.73572(3)
C7DA C 0.06696(13) 0.58571(14) 0.73959(3)
C8DA C 0.04569(14) 0.53640(14) 0.73521(3)
C9DA C 0.04387(15) 0.49117(15) 0.73985(3)
H5DA H 0.0600 0.4907 0.7463
C10DA C 0.01602(15) 0.44955(15) 0.73359(3)
H6DA H 0.0091 0.4149 0.7349
C11DA C -0.00130(14) 0.46631(15) 0.72465(3)
C12DA C -0.03239(14) 0.43461(14) 0.71632(3)
C13DA C -0.05214(14) 0.45036(14) 0.70796(3)
C14DA C -0.08242(14) 0.41728(15) 0.69930(3)
H7DA H -0.0908 0.3821 0.6981
C15DA C -0.09660(14) 0.44585(14) 0.69320(3)
H8DA H -0.1166 0.4347 0.6868
C16DA C -0.07562(14) 0.49610(14) 0.69817(3)
C17DA C -0.08656(14) 0.53502(15) 0.69516(3)
C18DA C -0.07002(14) 0.58228(15) 0.70018(3)
C19DA C -0.08569(15) 0.62012(15) 0.69771(3)
H9DA H -0.1093 0.6170 0.6922
C20DA C -0.06075(15) 0.66100(16) 0.70453(3)
H10DA H -0.0640 0.6914 0.7047
C21DA C 0.09614(15) 0.59325(13) 0.74980(3)
C22DA C 0.07725(14) 0.60293(13) 0.75914(3)
H11DA H 0.0487 0.6092 0.7589
C23DA C 0.13914(15) 0.58541(14) 0.75029(3)
H12DA H 0.1534 0.5802 0.7439
C24DA C 0.09988(14) 0.60336(13) 0.76871(3)
H13DA H 0.0873 0.6109 0.7750
C25DA C 0.16106(14) 0.58521(14) 0.76003(3)
H14DA H 0.1902 0.5797 0.7603
C26DA C 0.14101(13) 0.59290(13) 0.76937(3)
C27DA C 0.16306(14) 0.59294(12) 0.77983(3)
H15DA H 0.1494 0.6007 0.7859
C28DA C 0.22222(13) 0.58921(13) 0.79167(2)
H16DA H 0.2041 0.6010 0.7966
H17DA H 0.2171 0.5553 0.7942
C29DA C 0.27961(13) 0.62885(13) 0.79136(2)
C30DA C 0.29670(14) 0.68208(14) 0.79115(2)
C31DA C 0.25216(14) 0.71517(14) 0.78073(3)
H18DA H 0.2844 0.7477 0.7787
H19DA H 0.2452 0.6882 0.7752
C32DA C 0.20669(14) 0.72499(14) 0.78141(3)
H20DA H 0.1757 0.6935 0.7843
H21DA H 0.2156 0.7544 0.7863
C33DA C 0.19360(15) 0.73798(15) 0.77039(3)
H22DA H 0.1861 0.7090 0.7654
H23DA H 0.2244 0.7700 0.7676
C34DA C 0.14656(15) 0.74650(15) 0.77072(3)
H24DA H 0.1397 0.7546 0.7635
H25DA H 0.1542 0.7756 0.7755
H26DA H 0.1158 0.7146 0.7733
C35DA C -0.06391(14) 0.12630(12) 0.71768(3)
C36DA C -0.08983(13) 0.11528(12) 0.70782(3)
C37DA C -0.07741(14) 0.09354(12) 0.69944(3)
C38DA C -0.03653(13) 0.08365(12) 0.70066(3)
C39DA C -0.00929(13) 0.09293(12) 0.71035(3)
C40DA C -0.02336(14) 0.11485(12) 0.71859(3)
C41DA C -0.07912(14) 0.14901(13) 0.72664(3)
H27DA H -0.0649 0.1440 0.7334
H28DA H -0.1177 0.1308 0.7272
C42DA C -0.09070(16) 0.22119(15) 0.72473(3)
H29DA H -0.1262 0.1974 0.7264
C43DA C -0.07563(15) 0.27528(14) 0.72214(3)
C44DA C -0.02582(15) 0.31050(16) 0.71901(3)
H30DA H -0.0004 0.2998 0.7183
C45DA C -0.11230(16) 0.29103(15) 0.72260(3)
H31DA H -0.1473 0.2664 0.7244
C46DA C -0.01235(15) 0.36160(15) 0.71678(3)
H32DA H 0.0225 0.3857 0.7146
C47DA C -0.09879(16) 0.34267(16) 0.72037(3)
H33DA H -0.1243 0.3531 0.7208
C48DA C -0.04795(15) 0.37834(14) 0.71752(3)
C49DA C -0.10749(14) 0.17860(13) 0.70064(3)
H34DA H -0.0763 0.2066 0.7043
H35DA H -0.0968 0.1742 0.6934
C50DA C -0.14943(15) 0.19368(14) 0.69985(3)
H36DA H -0.1629 0.1939 0.7070
H37DA H -0.1789 0.1674 0.6955
C51DA C -0.12793(15) 0.24687(15) 0.69487(3)
H38DA H -0.0995 0.2732 0.6994
H39DA H -0.1127 0.2470 0.6878
C52DA C -0.16985(17) 0.26200(17) 0.69346(3)
H40DA H -0.1543 0.2967 0.6902
H41DA H -0.1845 0.2626 0.7004
H42DA H -0.1976 0.2364 0.6888
C53DA C -0.10845(14) 0.07971(14) 0.68918(3)
H43DA H -0.1421 0.0785 0.6904
H44DA H -0.1159 0.0448 0.6866
C54DA C -0.07331(14) 0.10416(15) 0.67213(3)
H45DA H -0.0912 0.0676 0.6707
C55DA C -0.04073(14) 0.14152(14) 0.66348(3)
C56DA C -0.01147(16) 0.19502(16) 0.66546(3)
H46DA H -0.0115 0.2083 0.6723
C57DA C -0.03841(14) 0.12276(15) 0.65372(3)
H47DA H -0.0566 0.0861 0.6525
C58DA C 0.01753(16) 0.22858(15) 0.65739(3)
H48DA H 0.0374 0.2651 0.6587
C59DA C -0.01020(14) 0.15593(15) 0.64564(3)
H49DA H -0.0099 0.1422 0.6388
C60DA C 0.01802(14) 0.20949(16) 0.64736(3)
C61DA C 0.02412(14) 0.10642(14) 0.68666(3)
H50DA H 0.0193 0.1368 0.6854
H51DA H 0.0558 0.1180 0.6911
C62DA C 0.03048(15) 0.08557(14) 0.67628(3)
H52DA H 0.0377 0.0567 0.6776
H53DA H -0.0027 0.0709 0.6722
C63DA C 0.07443(16) 0.12704(17) 0.66952(3)
H54DA H 0.1082 0.1392 0.6732
H55DA H 0.0691 0.1574 0.6687
C64DA C 0.07735(18) 0.10736(19) 0.65870(3)
H56DA H 0.1062 0.1354 0.6547
H57DA H 0.0444 0.0960 0.6549
H58DA H 0.0835 0.0777 0.6594
C65DA C 0.03260(13) 0.07901(13) 0.71189(3)
H59DA H 0.0298 0.0542 0.7062
H60DA H 0.0279 0.0616 0.7188
C66DA C 0.11611(14) 0.13310(13) 0.71865(3)
H61DA H 0.1069 0.1072 0.7240
C67DA C 0.16796(14) 0.18106(14) 0.71896(3)
C68DA C 0.18304(15) 0.21803(15) 0.71083(3)
H62DA H 0.1602 0.2120 0.7050
C69DA C 0.20215(15) 0.19110(14) 0.72738(3)
H63DA H 0.1924 0.1661 0.7329
C70DA C 0.23040(15) 0.26272(16) 0.71123(3)
H64DA H 0.2406 0.2872 0.7055
C71DA C 0.24991(14) 0.23653(15) 0.72786(3)
H65DA H 0.2727 0.2424 0.7337
C72DA C 0.26471(14) 0.27340(14) 0.71989(3)
C73DA C 0.04493(14) 0.18283(14) 0.72852(3)
H66DA H 0.0670 0.1925 0.7220
H67DA H 0.0278 0.2042 0.7287
C74DA C 0.07812(17) 0.19379(18) 0.73805(3)
H68DA H 0.0567 0.1880 0.7445
H69DA H 0.0917 0.1692 0.7383
C75DA C 0.12383(16) 0.24972(19) 0.73804(4)
H70DA H 0.1446 0.2554 0.7315
H71DA H 0.1099 0.2740 0.7378
C76DA C 0.1603(2) 0.2630(3) 0.74774(3)
H72DA H 0.1887 0.2994 0.7472
H73DA H 0.1750 0.2397 0.7478
H74DA H 0.1403 0.2583 0.7542
loop_
_geom_bond_atom_site_label_1
_geom_bond_atom_site_label_2
_geom_bond_site_symmetry_1
_geom_bond_site_symmetry_2
O1 C30 1_555 1_555
O2 C36 1_555 1_555
O3 C38 1_555 1_555
O4 C40 1_555 1_555
N1 C1 1_555 1_555
N2 H1 1_555 1_555
N3 C8 1_555 1_555
N4 H2 1_555 1_555
N5 C27 1_555 1_555
N6 C41 1_555 1_555
N7 C53 1_555 1_555
N8 C65 1_555 1_555
C1 C2 1_555 1_555
C2 C3 1_555 1_555
C3 N2 1_555 1_555
C4 C3 1_555 1_555
H3 C4 1_555 1_555
C5 C4 1_555 1_555
H4 C5 1_555 1_555
C6 N2 1_555 1_555
C7 C6 1_555 1_555
C8 C7 1_555 1_555
C9 C8 1_555 1_555
H5 C9 1_555 1_555
C10 C9 1_555 1_555
H6 C10 1_555 1_555
C11 N3 1_555 1_555
C12 C11 1_555 1_555
C13 N4 1_555 1_555
C14 C13 1_555 1_555
H7 C14 1_555 1_555
C15 C14 1_555 1_555
H8 C15 1_555 1_555
C16 N4 1_555 1_555
C17 C16 1_555 1_555
C18 N1 1_555 1_555
C19 C18 1_555 1_555
H9 C19 1_555 1_555
C20 C1 1_555 1_555
H10 C20 1_555 1_555
C21 C7 1_555 1_555
C22 C21 1_555 1_555
H11 C22 1_555 1_555
C23 C21 1_555 1_555
H12 C23 1_555 1_555
C24 C22 1_555 1_555
H13 C24 1_555 1_555
C25 C23 1_555 1_555
H14 C25 1_555 1_555
C26 C24 1_555 1_555
C27 C26 1_555 1_555
H15 C27 1_555 1_555
C28 N5 1_555 1_555
H16 C28 1_555 1_555
H17 C28 1_555 1_555
C29 C28 1_555 1_555
C30 C29 1_555 1_555
C31 O1 1_555 1_555
H18 C31 1_555 1_555
H19 C31 1_555 1_555
C32 C31 1_555 1_555
H20 C32 1_555 1_555
H21 C32 1_555 1_555
C33 C32 1_555 1_555
H22 C33 1_555 1_555
H23 C33 1_555 1_555
C34 C33 1_555 1_555
H24 C34 1_555 1_555
H25 C34 1_555 1_555
H26 C34 1_555 1_555
C35 C36 1_555 1_555
C36 C37 1_555 1_555
C37 C38 1_555 1_555
C38 C39 1_555 1_555
C39 C40 1_555 1_555
C40 C35 1_555 1_555
C41 C35 1_555 1_555
H27 C41 1_555 1_555
H28 C41 1_555 1_555
C42 N6 1_555 1_555
H29 C42 1_555 1_555
C43 C42 1_555 1_555
C44 C43 1_555 1_555
H30 C44 1_555 1_555
C45 C43 1_555 1_555
H31 C45 1_555 1_555
C46 C44 1_555 1_555
H32 C46 1_555 1_555
C47 C45 1_555 1_555
H33 C47 1_555 1_555
C48 C12 1_555 1_555
C49 O2 1_555 1_555
H34 C49 1_555 1_555
H35 C49 1_555 1_555
C50 C49 1_555 1_555
H36 C50 1_555 1_555
H37 C50 1_555 1_555
C51 C50 1_555 1_555
H38 C51 1_555 1_555
H39 C51 1_555 1_555
C52 C51 1_555 1_555
H40 C52 1_555 1_555
H41 C52 1_555 1_555
H42 C52 1_555 1_555
C53 C37 1_555 1_555
H43 C53 1_555 1_555
H44 C53 1_555 1_555
C54 N7 1_555 1_555
H45 C54 1_555 1_555
C55 C54 1_555 1_555
C56 C55 1_555 1_555
H46 C56 1_555 1_555
C57 C55 1_555 1_555
H47 C57 1_555 1_555
C58 C56 1_555 1_555
H48 C58 1_555 1_555
C59 C57 1_555 1_555
H49 C59 1_555 1_555
C60 C58 1_555 1_555
C61 O3 1_555 1_555
H50 C61 1_555 1_555
H51 C61 1_555 1_555
C62 C61 1_555 1_555
H52 C62 1_555 1_555
H53 C62 1_555 1_555
C63 C62 1_555 1_555
H54 C63 1_555 1_555
H55 C63 1_555 1_555
C64 C63 1_555 1_555
H56 C64 1_555 1_555
H57 C64 1_555 1_555
H58 C64 1_555 1_555
C65 C39 1_555 1_555
H59 C65 1_555 1_555
H60 C65 1_555 1_555
C66 N8 1_555 1_555
H61 C66 1_555 1_555
C67 C66 1_555 1_555
C68 C67 1_555 1_555
H62 C68 1_555 1_555
C69 C67 1_555 1_555
H63 C69 1_555 1_555
C70 C68 1_555 1_555
H64 C70 1_555 1_555
C71 C69 1_555 1_555
H65 C71 1_555 1_555
C72 C70 1_555 1_555
C73 O4 1_555 1_555
H66 C73 1_555 1_555
H67 C73 1_555 1_555
C74 C73 1_555 1_555
H68 C74 1_555 1_555
H69 C74 1_555 1_555
C75 C74 1_555 1_555
H70 C75 1_555 1_555
H71 C75 1_555 1_555
C76 C75 1_555 1_555
H72 C76 1_555 1_555
H73 C76 1_555 1_555
H74 C76 1_555 1_555
O1A C30A 1_555 1_555
O2A C36A 1_555 1_555
O3A C38A 1_555 1_555
O4A C40A 1_555 1_555
N1A C1A 1_555 1_555
N2A H1A 1_555 1_555
N3A C8A 1_555 1_555
N4A H2A 1_555 1_555
N5A C27A 1_555 1_555
N6A C41A 1_555 1_555
N7A C53A 1_555 1_555
N8A C65A 1_555 1_555
C1A C2A 1_555 1_555
C2A C72 1_555 1_555
C3A N2A 1_555 1_555
C4A C3A 1_555 1_555
H3A C4A 1_555 1_555
C5A C4A 1_555 1_555
H4A C5A 1_555 1_555
C6A N2A 1_555 1_555
C7A C6A 1_555 1_555
C8A C7A 1_555 1_555
C9A C8A 1_555 1_555
H5A C9A 1_555 1_555
C10A C9A 1_555 1_555
H6A C10A 1_555 1_555
C11A N3A 1_555 1_555
C12A C11A 1_555 1_555
C13A N4A 1_555 1_555
C14A C13A 1_555 1_555
H7A C14A 1_555 1_555
C15A C14A 1_555 1_555
H8A C15A 1_555 1_555
C16A N4A 1_555 1_555
C17A C16A 1_555 1_555
C18A N1A 1_555 1_555
C19A C18A 1_555 1_555
H9A C19A 1_555 1_555
C20A C1A 1_555 1_555
H10A C20A 1_555 1_555
C21A C7A 1_555 1_555
C22A C21A 1_555 1_555
H11A C22A 1_555 1_555
C23A C21A 1_555 1_555
H12A C23A 1_555 1_555
C24A C22A 1_555 1_555
H13A C24A 1_555 1_555
C25A C23A 1_555 1_555
H14A C25A 1_555 1_555
C26A C24A 1_555 1_555
C27A C26A 1_555 1_555
H15A C27A 1_555 1_555
C28A N5A 1_555 1_555
H16A C28A 1_555 1_555
H17A C28A 1_555 1_555
C29A C28A 1_555 1_555
C30A C29 1_555 1_555
C31A O1A 1_555 1_555
H18A C31A 1_555 1_555
H19A C31A 1_555 1_555
C32A C31A 1_555 1_555
H20A C32A 1_555 1_555
H21A C32A 1_555 1_555
C33A C32A 1_555 1_555
H22A C33A 1_555 1_555
H23A C33A 1_555 1_555
C34A C33A 1_555 1_555
H24A C34A 1_555 1_555
H25A C34A 1_555 1_555
H26A C34A 1_555 1_555
C35A C36A 1_555 1_555
C36A C37A 1_555 1_555
C37A C38A 1_555 1_555
C38A C39A 1_555 1_555
C39A C40A 1_555 1_555
C40A C35A 1_555 1_555
C41A C35A 1_555 1_555
H27A C41A 1_555 1_555
H28A C41A 1_555 1_555
C42A N6A 1_555 1_555
H29A C42A 1_555 1_555
C43A C42A 1_555 1_555
C44A C43A 1_555 1_555
H30A C44A 1_555 1_555
C45A C43A 1_555 1_555
H31A C45A 1_555 1_555
C46A C44A 1_555 1_555
H32A C46A 1_555 1_555
C47A C45A 1_555 1_555
H33A C47A 1_555 1_555
C48A C12A 1_555 1_555
C49A O2A 1_555 1_555
H34A C49A 1_555 1_555
H35A C49A 1_555 1_555
C50A C49A 1_555 1_555
H36A C50A 1_555 1_555
H37A C50A 1_555 1_555
C51A C50A 1_555 1_555
H38A C51A 1_555 1_555
H39A C51A 1_555 1_555
C52A C51A 1_555 1_555
H40A C52A 1_555 1_555
H41A C52A 1_555 1_555
H42A C52A 1_555 1_555
C53A C37A 1_555 1_555
H43A C53A 1_555 1_555
H44A C53A 1_555 1_555
C54A N7A 1_555 1_555
H45A C54A 1_555 1_555
C55A C54A 1_555 1_555
C56A C55A 1_555 1_555
H46A C56A 1_555 1_555
C57A C55A 1_555 1_555
H47A C57A 1_555 1_555
C58A C56A 1_555 1_555
H48A C58A 1_555 1_555
C59A C57A 1_555 1_555
H49A C59A 1_555 1_555
C60A C58A 1_555 1_555
C61A O3A 1_555 1_555
H50A C61A 1_555 1_555
H51A C61A 1_555 1_555
C62A C61A 1_555 1_555
H52A C62A 1_555 1_555
H53A C62A 1_555 1_555
C63A C62A 1_555 1_555
H54A C63A 1_555 1_555
H55A C63A 1_555 1_555
C64A C63A 1_555 1_555
H56A C64A 1_555 1_555
H57A C64A 1_555 1_555
H58A C64A 1_555 1_555
C65A C39A 1_555 1_555
H59A C65A 1_555 1_555
H60A C65A 1_555 1_555
C66A N8A 1_555 1_555
H61A C66A 1_555 1_555
C67A C66A 1_555 1_555
C68A C67A 1_555 1_555
H62A C68A 1_555 1_555
C69A C67A 1_555 1_555
H63A C69A 1_555 1_555
C70A C68A 1_555 1_555
H64A C70A 1_555 1_555
C71A C69A 1_555 1_555
H65A C71A 1_555 1_555
C72A C70A 1_555 1_555
C73A O4A 1_555 1_555
H66A C73A 1_555 1_555
H67A C73A 1_555 1_555
C74A C73A 1_555 1_555
H68A C74A 1_555 1_555
H69A C74A 1_555 1_555
C75A C74A 1_555 1_555
H70A C75A 1_555 1_555
H71A C75A 1_555 1_555
C76A C75A 1_555 1_555
H72A C76A 1_555 1_555
H73A C76A 1_555 1_555
H74A C76A 1_555 1_555
O1B C30B 1_555 1_555
O2B C36B 1_555 1_555
O3B C38B 1_555 1_555
O4B C40B 1_555 1_555
N1B C1B 1_555 1_555
N2B H1B 1_555 1_555
N3B C8B 1_555 1_555
N4B H2B 1_555 1_555
N5B C27B 1_555 1_555
N6B C41B 1_555 1_555
N7B C53B 1_555 1_555
N8B C65B 1_555 1_555
C1B C2B 1_555 1_555
C2B C72A 1_555 1_555
C3B N2B 1_555 1_555
C4B C3B 1_555 1_555
H3B C4B 1_555 1_555
C5B C4B 1_555 1_555
H4B C5B 1_555 1_555
C6B N2B 1_555 1_555
C7B C6B 1_555 1_555
C8B C7B 1_555 1_555
C9B C8B 1_555 1_555
H5B C9B 1_555 1_555
C10B C9B 1_555 1_555
H6B C10B 1_555 1_555
C11B N3B 1_555 1_555
C12B C11B 1_555 1_555
C13B N4B 1_555 1_555
C14B C13B 1_555 1_555
H7B C14B 1_555 1_555
C15B C14B 1_555 1_555
H8B C15B 1_555 1_555
C16B N4B 1_555 1_555
C17B C16B 1_555 1_555
C18B N1B 1_555 1_555
C19B C18B 1_555 1_555
H9B C19B 1_555 1_555
C20B C1B 1_555 1_555
H10B C20B 1_555 1_555
C21B C7B 1_555 1_555
C22B C21B 1_555 1_555
H11B C22B 1_555 1_555
C23B C21B 1_555 1_555
H12B C23B 1_555 1_555
C24B C22B 1_555 1_555
H13B C24B 1_555 1_555
C25B C23B 1_555 1_555
H14B C25B 1_555 1_555
C26B C24B 1_555 1_555
C27B C26B 1_555 1_555
H15B C27B 1_555 1_555
C28B N5B 1_555 1_555
H16B C28B 1_555 1_555
H17B C28B 1_555 1_555
C29B C30 1_555 1_555
C30B C29A 1_555 1_555
C31B O1B 1_555 1_555
H18B C31B 1_555 1_555
H19B C31B 1_555 1_555
C32B C31B 1_555 1_555
H20B C32B 1_555 1_555
H21B C32B 1_555 1_555
C33B C32B 1_555 1_555
H22B C33B 1_555 1_555
H23B C33B 1_555 1_555
C34B C33B 1_555 1_555
H24B C34B 1_555 1_555
H25B C34B 1_555 1_555
H26B C34B 1_555 1_555
C35B C36B 1_555 1_555
C36B C37B 1_555 1_555
C37B C38B 1_555 1_555
C38B C39B 1_555 1_555
C39B C40B 1_555 1_555
C40B C35B 1_555 1_555
C41B C35B 1_555 1_555
H27B C41B 1_555 1_555
H28B C41B 1_555 1_555
C42B N6B 1_555 1_555
H29B C42B 1_555 1_555
C43B C42B 1_555 1_555
C44B C43B 1_555 1_555
H30B C44B 1_555 1_555
C45B C43B 1_555 1_555
H31B C45B 1_555 1_555
C46B C44B 1_555 1_555
H32B C46B 1_555 1_555
C47B C45B 1_555 1_555
H33B C47B 1_555 1_555
C48B C12B 1_555 1_555
C49B O2B 1_555 1_555
H34B C49B 1_555 1_555
H35B C49B 1_555 1_555
C50B C49B 1_555 1_555
H36B C50B 1_555 1_555
H37B C50B 1_555 1_555
C51B C50B 1_555 1_555
H38B C51B 1_555 1_555
H39B C51B 1_555 1_555
C52B C51B 1_555 1_555
H40B C52B 1_555 1_555
H41B C52B 1_555 1_555
H42B C52B 1_555 1_555
C53B C37B 1_555 1_555
H43B C53B 1_555 1_555
H44B C53B 1_555 1_555
C54B N7B 1_555 1_555
H45B C54B 1_555 1_555
C55B C54B 1_555 1_555
C56B C55B 1_555 1_555
H46B C56B 1_555 1_555
C57B C55B 1_555 1_555
H47B C57B 1_555 1_555
C58B C56B 1_555 1_555
H48B C58B 1_555 1_555
C59B C57B 1_555 1_555
H49B C59B 1_555 1_555
C60B C58B 1_555 1_555
C61B O3B 1_555 1_555
H50B C61B 1_555 1_555
H51B C61B 1_555 1_555
C62B C61B 1_555 1_555
H52B C62B 1_555 1_555
H53B C62B 1_555 1_555
C63B C62B 1_555 1_555
H54B C63B 1_555 1_555
H55B C63B 1_555 1_555
C64B C63B 1_555 1_555
H56B C64B 1_555 1_555
H57B C64B 1_555 1_555
H58B C64B 1_555 1_555
C65B C39B 1_555 1_555
H59B C65B 1_555 1_555
H60B C65B 1_555 1_555
C66B N8B 1_555 1_555
H61B C66B 1_555 1_555
C67B C66B 1_555 1_555
C68B C67B 1_555 1_555
H62B C68B 1_555 1_555
C69B C67B 1_555 1_555
H63B C69B 1_555 1_555
C70B C68B 1_555 1_555
H64B C70B 1_555 1_555
C71B C69B 1_555 1_555
H65B C71B 1_555 1_555
C72B C2 1_555 1_555
C73B O4B 1_555 1_555
H66B C73B 1_555 1_555
H67B C73B 1_555 1_555
C74B C73B 1_555 1_555
H68B C74B 1_555 1_555
H69B C74B 1_555 1_555
C75B C74B 1_555 1_555
H70B C75B 1_555 1_555
H71B C75B 1_555 1_555
C76B C75B 1_555 1_555
H72B C76B 1_555 1_555
H73B C76B 1_555 1_555
H74B C76B 1_555 1_555
O1EA C30EA 1_555 1_555
O2EA C36EA 1_555 1_555
O3EA C38EA 1_555 1_555
O4EA C40EA 1_555 1_555
N1EA C1EA 1_555 1_555
N2EA H1EA 1_555 1_555
N3EA C8EA 1_555 1_555
N4EA H2EA 1_555 1_555
N5EA C27EA 1_555 1_555
N6EA C41EA 1_555 1_555
N7EA C53EA 1_555 1_555
N8EA C65EA 1_555 1_555
C1EA C2EA 1_555 1_555
C2EA C3EA 1_555 1_555
C3EA N2EA 1_555 1_555
C4EA C3EA 1_555 1_555
H3EA C4EA 1_555 1_555
C5EA C4EA 1_555 1_555
H4EA C5EA 1_555 1_555
C6EA N2EA 1_555 1_555
C7EA C6EA 1_555 1_555
C8EA C7EA 1_555 1_555
C9EA C8EA 1_555 1_555
H5EA C9EA 1_555 1_555
C10EA C9EA 1_555 1_555
H6EA C10EA 1_555 1_555
C11EA N3EA 1_555 1_555
C12EA C11EA 1_555 1_555
C13EA N4EA 1_555 1_555
C14EA C13EA 1_555 1_555
H7EA C14EA 1_555 1_555
C15EA C14EA 1_555 1_555
H8EA C15EA 1_555 1_555
C16EA N4EA 1_555 1_555
C17EA C60B 1_555 1_555
C18EA N1EA 1_555 1_555
C19EA C18EA 1_555 1_555
H9EA C19EA 1_555 1_555
C20EA C1EA 1_555 1_555
H10EA C20EA 1_555 1_555
C21EA C7EA 1_555 1_555
C22EA C21EA 1_555 1_555
H11EA C22EA 1_555 1_555
C23EA C21EA 1_555 1_555
H12EA C23EA 1_555 1_555
C24EA C22EA 1_555 1_555
H13EA C24EA 1_555 1_555
C25EA C23EA 1_555 1_555
H14EA C25EA 1_555 1_555
C26EA C24EA 1_555 1_555
C27EA C26EA 1_555 1_555
H15EA C27EA 1_555 1_555
C28EA N5EA 1_555 1_555
H16EA C28EA 1_555 1_555
H17EA C28EA 1_555 1_555
C29EA C28EA 1_555 1_555
C30EA C29EA 1_555 1_555
C31EA O1EA 1_555 1_555
H18EA C31EA 1_555 1_555
H19EA C31EA 1_555 1_555
C32EA C31EA 1_555 1_555
H20EA C32EA 1_555 1_555
H21EA C32EA 1_555 1_555
C33EA C32EA 1_555 1_555
H22EA C33EA 1_555 1_555
H23EA C33EA 1_555 1_555
C34EA C33EA 1_555 1_555
H24EA C34EA 1_555 1_555
H25EA C34EA 1_555 1_555
H26EA C34EA 1_555 1_555
C35EA C36EA 1_555 1_555
C36EA C37EA 1_555 1_555
C37EA C38EA 1_555 1_555
C38EA C39EA 1_555 1_555
C39EA C40EA 1_555 1_555
C40EA C35EA 1_555 1_555
C41EA C35EA 1_555 1_555
H27EA C41EA 1_555 1_555
H28EA C41EA 1_555 1_555
C42EA N6EA 1_555 1_555
H29EA C42EA 1_555 1_555
C43EA C42EA 1_555 1_555
C44EA C43EA 1_555 1_555
H30EA C44EA 1_555 1_555
C45EA C43EA 1_555 1_555
H31EA C45EA 1_555 1_555
C46EA C44EA 1_555 1_555
H32EA C46EA 1_555 1_555
C47EA C45EA 1_555 1_555
H33EA C47EA 1_555 1_555
C48EA C12EA 1_555 1_555
C49EA O2EA 1_555 1_555
H34EA C49EA 1_555 1_555
H35EA C49EA 1_555 1_555
C50EA C49EA 1_555 1_555
H36EA C50EA 1_555 1_555
H37EA C50EA 1_555 1_555
C51EA C50EA 1_555 1_555
H38EA C51EA 1_555 1_555
H39EA C51EA 1_555 1_555
C52EA C51EA 1_555 1_555
H40EA C52EA 1_555 1_555
H41EA C52EA 1_555 1_555
H42EA C52EA 1_555 1_555
C53EA C37EA 1_555 1_555
H43EA C53EA 1_555 1_555
H44EA C53EA 1_555 1_555
C54EA N7EA 1_555 1_555
H45EA C54EA 1_555 1_555
C55EA C54EA 1_555 1_555
C56EA C55EA 1_555 1_555
H46EA C56EA 1_555 1_555
C57EA C55EA 1_555 1_555
H47EA C57EA 1_555 1_555
C58EA C56EA 1_555 1_555
H48EA C58EA 1_555 1_555
C59EA C57EA 1_555 1_555
H49EA C59EA 1_555 1_555
C60EA C17 1_555 1_555
C61EA O3EA 1_555 1_555
H50EA C61EA 1_555 1_555
H51EA C61EA 1_555 1_555
C62EA C61EA 1_555 1_555
H52EA C62EA 1_555 1_555
H53EA C62EA 1_555 1_555
C63EA C62EA 1_555 1_555
H54EA C63EA 1_555 1_555
H55EA C63EA 1_555 1_555
C64EA C63EA 1_555 1_555
H56EA C64EA 1_555 1_555
H57EA C64EA 1_555 1_555
H58EA C64EA 1_555 1_555
C65EA C39EA 1_555 1_555
H59EA C65EA 1_555 1_555
H60EA C65EA 1_555 1_555
C66EA N8EA 1_555 1_555
H61EA C66EA 1_555 1_555
C67EA C66EA 1_555 1_555
C68EA C67EA 1_555 1_555
H62EA C68EA 1_555 1_555
C69EA C67EA 1_555 1_555
H63EA C69EA 1_555 1_555
C70EA C68EA 1_555 1_555
H64EA C70EA 1_555 1_555
C71EA C69EA 1_555 1_555
H65EA C71EA 1_555 1_555
C72EA C70EA 1_555 1_555
C73EA O4EA 1_555 1_555
H66EA C73EA 1_555 1_555
H67EA C73EA 1_555 1_555
C74EA C73EA 1_555 1_555
H68EA C74EA 1_555 1_555
H69EA C74EA 1_555 1_555
C75EA C74EA 1_555 1_555
H70EA C75EA 1_555 1_555
H71EA C75EA 1_555 1_555
C76EA C75EA 1_555 1_555
H72EA C76EA 1_555 1_555
H73EA C76EA 1_555 1_555
H74EA C76EA 1_555 1_555
O1FA C30FA 1_555 1_555
O2FA C36FA 1_555 1_555
O3FA C38FA 1_555 1_555
O4FA C40FA 1_555 1_555
N1FA C1FA 1_555 1_555
N2FA H1FA 1_555 1_555
N3FA C8FA 1_555 1_555
N4FA H2FA 1_555 1_555
N5FA C27FA 1_555 1_555
N6FA C41FA 1_555 1_555
N7FA C53FA 1_555 1_555
N8FA C65FA 1_555 1_555
C1FA C2FA 1_555 1_555
C2FA C72EA 1_555 1_555
C3FA N2FA 1_555 1_555
C4FA C3FA 1_555 1_555
H3FA C4FA 1_555 1_555
C5FA C4FA 1_555 1_555
H4FA C5FA 1_555 1_555
C6FA N2FA 1_555 1_555
C7FA C6FA 1_555 1_555
C8FA C7FA 1_555 1_555
C9FA C8FA 1_555 1_555
H5FA C9FA 1_555 1_555
C10FA C9FA 1_555 1_555
H6FA C10FA 1_555 1_555
C11FA N3FA 1_555 1_555
C12FA C11FA 1_555 1_555
C13FA N4FA 1_555 1_555
C14FA C13FA 1_555 1_555
H7FA C14FA 1_555 1_555
C15FA C14FA 1_555 1_555
H8FA C15FA 1_555 1_555
C16FA N4FA 1_555 1_555
C17FA C60 1_555 1_555
C18FA N1FA 1_555 1_555
C19FA C18FA 1_555 1_555
H9FA C19FA 1_555 1_555
C20FA C1FA 1_555 1_555
H10FA C20FA 1_555 1_555
C21FA C7FA 1_555 1_555
C22FA C21FA 1_555 1_555
H11FA C22FA 1_555 1_555
C23FA C21FA 1_555 1_555
H12FA C23FA 1_555 1_555
C24FA C22FA 1_555 1_555
H13FA C24FA 1_555 1_555
C25FA C23FA 1_555 1_555
H14FA C25FA 1_555 1_555
C26FA C24FA 1_555 1_555
C27FA C26FA 1_555 1_555
H15FA C27FA 1_555 1_555
C28FA N5FA 1_555 1_555
H16FA C28FA 1_555 1_555
H17FA C28FA 1_555 1_555
C29FA C28FA 1_555 1_555
C30FA C29EA 1_555 1_555
C31FA O1FA 1_555 1_555
H18FA C31FA 1_555 1_555
H19FA C31FA 1_555 1_555
C32FA C31FA 1_555 1_555
H20FA C32FA 1_555 1_555
H21FA C32FA 1_555 1_555
C33FA C32FA 1_555 1_555
H22FA C33FA 1_555 1_555
H23FA C33FA 1_555 1_555
C34FA C33FA 1_555 1_555
H24FA C34FA 1_555 1_555
H25FA C34FA 1_555 1_555
H26FA C34FA 1_555 1_555
C35FA C36FA 1_555 1_555
C36FA C37FA 1_555 1_555
C37FA C38FA 1_555 1_555
C38FA C39FA 1_555 1_555
C39FA C40FA 1_555 1_555
C40FA C35FA 1_555 1_555
C41FA C35FA 1_555 1_555
H27FA C41FA 1_555 1_555
H28FA C41FA 1_555 1_555
C42FA N6FA 1_555 1_555
H29FA C42FA 1_555 1_555
C43FA C42FA 1_555 1_555
C44FA C43FA 1_555 1_555
H30FA C44FA 1_555 1_555
C45FA C43FA 1_555 1_555
H31FA C45FA 1_555 1_555
C46FA C44FA 1_555 1_555
H32FA C46FA 1_555 1_555
C47FA C45FA 1_555 1_555
H33FA C47FA 1_555 1_555
C48FA C12FA 1_555 1_555
C49FA O2FA 1_555 1_555
H34FA C49FA 1_555 1_555
H35FA C49FA 1_555 1_555
C50FA C49FA 1_555 1_555
H36FA C50FA 1_555 1_555
H37FA C50FA 1_555 1_555
C51FA C50FA 1_555 1_555
H38FA C51FA 1_555 1_555
H39FA C51FA 1_555 1_555
C52FA C51FA 1_555 1_555
H40FA C52FA 1_555 1_555
H41FA C52FA 1_555 1_555
H42FA C52FA 1_555 1_555
C53FA C37FA 1_555 1_555
H43FA C53FA 1_555 1_555
H44FA C53FA 1_555 1_555
C54FA N7FA 1_555 1_555
H45FA C54FA 1_555 1_555
C55FA C54FA 1_555 1_555
C56FA C55FA 1_555 1_555
H46FA C56FA 1_555 1_555
C57FA C55FA 1_555 1_555
H47FA C57FA 1_555 1_555
C58FA C56FA 1_555 1_555
H48FA C58FA 1_555 1_555
C59FA C57FA 1_555 1_555
H49FA C59FA 1_555 1_555
C60FA C17A 1_555 1_555
C61FA O3FA 1_555 1_555
H50FA C61FA 1_555 1_555
H51FA C61FA 1_555 1_555
C62FA C61FA 1_555 1_555
H52FA C62FA 1_555 1_555
H53FA C62FA 1_555 1_555
C63FA C62FA 1_555 1_555
H54FA C63FA 1_555 1_555
H55FA C63FA 1_555 1_555
C64FA C63FA 1_555 1_555
H56FA C64FA 1_555 1_555
H57FA C64FA 1_555 1_555
H58FA C64FA 1_555 1_555
C65FA C39FA 1_555 1_555
H59FA C65FA 1_555 1_555
H60FA C65FA 1_555 1_555
C66FA N8FA 1_555 1_555
H61FA C66FA 1_555 1_555
C67FA C66FA 1_555 1_555
C68FA C67FA 1_555 1_555
H62FA C68FA 1_555 1_555
C69FA C67FA 1_555 1_555
H63FA C69FA 1_555 1_555
C70FA C68FA 1_555 1_555
H64FA C70FA 1_555 1_555
C71FA C69FA 1_555 1_555
H65FA C71FA 1_555 1_555
C72FA C70FA 1_555 1_555
C73FA O4FA 1_555 1_555
H66FA C73FA 1_555 1_555
H67FA C73FA 1_555 1_555
C74FA C73FA 1_555 1_555
H68FA C74FA 1_555 1_555
H69FA C74FA 1_555 1_555
C75FA C74FA 1_555 1_555
H70FA C75FA 1_555 1_555
H71FA C75FA 1_555 1_555
C76FA C75FA 1_555 1_555
H72FA C76FA 1_555 1_555
H73FA C76FA 1_555 1_555
H74FA C76FA 1_555 1_555
O1DA C30DA 1_555 1_555
O2DA C36DA 1_555 1_555
O3DA C38DA 1_555 1_555
O4DA C40DA 1_555 1_555
N1DA C1DA 1_555 1_555
N2DA H1DA 1_555 1_555
N3DA C8DA 1_555 1_555
N4DA H2DA 1_555 1_555
N5DA C27DA 1_555 1_555
N6DA C41DA 1_555 1_555
N7DA C53DA 1_555 1_555
N8DA C65DA 1_555 1_555
C1DA C2DA 1_555 1_555
C2DA C72FA 1_555 1_555
C3DA N2DA 1_555 1_555
C4DA C3DA 1_555 1_555
H3DA C4DA 1_555 1_555
C5DA C4DA 1_555 1_555
H4DA C5DA 1_555 1_555
C6DA N2DA 1_555 1_555
C7DA C6DA 1_555 1_555
C8DA C7DA 1_555 1_555
C9DA C8DA 1_555 1_555
H5DA C9DA 1_555 1_555
C10DA C9DA 1_555 1_555
H6DA C10DA 1_555 1_555
C11DA N3DA 1_555 1_555
C12DA C11DA 1_555 1_555
C13DA N4DA 1_555 1_555
C14DA C13DA 1_555 1_555
H7DA C14DA 1_555 1_555
C15DA C14DA 1_555 1_555
H8DA C15DA 1_555 1_555
C16DA N4DA 1_555 1_555
C17DA C60A 1_555 1_555
C18DA N1DA 1_555 1_555
C19DA C18DA 1_555 1_555
H9DA C19DA 1_555 1_555
C20DA C1DA 1_555 1_555
H10DA C20DA 1_555 1_555
C21DA C7DA 1_555 1_555
C22DA C21DA 1_555 1_555
H11DA C22DA 1_555 1_555
C23DA C21DA 1_555 1_555
H12DA C23DA 1_555 1_555
C24DA C22DA 1_555 1_555
H13DA C24DA 1_555 1_555
C25DA C23DA 1_555 1_555
H14DA C25DA 1_555 1_555
C26DA C24DA 1_555 1_555
C27DA C26DA 1_555 1_555
H15DA C27DA 1_555 1_555
C28DA N5DA 1_555 1_555
H16DA C28DA 1_555 1_555
H17DA C28DA 1_555 1_555
C29DA C30EA 1_555 1_555
C30DA C29FA 1_555 1_555
C31DA O1DA 1_555 1_555
H18DA C31DA 1_555 1_555
H19DA C31DA 1_555 1_555
C32DA C31DA 1_555 1_555
H20DA C32DA 1_555 1_555
H21DA C32DA 1_555 1_555
C33DA C32DA 1_555 1_555
H22DA C33DA 1_555 1_555
H23DA C33DA 1_555 1_555
C34DA C33DA 1_555 1_555
H24DA C34DA 1_555 1_555
H25DA C34DA 1_555 1_555
H26DA C34DA 1_555 1_555
C35DA C36DA 1_555 1_555
C36DA C37DA 1_555 1_555
C37DA C38DA 1_555 1_555
C38DA C39DA 1_555 1_555
C39DA C40DA 1_555 1_555
C40DA C35DA 1_555 1_555
C41DA C35DA 1_555 1_555
H27DA C41DA 1_555 1_555
H28DA C41DA 1_555 1_555
C42DA N6DA 1_555 1_555
H29DA C42DA 1_555 1_555
C43DA C42DA 1_555 1_555
C44DA C43DA 1_555 1_555
H30DA C44DA 1_555 1_555
C45DA C43DA 1_555 1_555
H31DA C45DA 1_555 1_555
C46DA C44DA 1_555 1_555
H32DA C46DA 1_555 1_555
C47DA C45DA 1_555 1_555
H33DA C47DA 1_555 1_555
C48DA C12DA 1_555 1_555
C49DA O2DA 1_555 1_555
H34DA C49DA 1_555 1_555
H35DA C49DA 1_555 1_555
C50DA C49DA 1_555 1_555
H36DA C50DA 1_555 1_555
H37DA C50DA 1_555 1_555
C51DA C50DA 1_555 1_555
H38DA C51DA 1_555 1_555
H39DA C51DA 1_555 1_555
C52DA C51DA 1_555 1_555
H40DA C52DA 1_555 1_555
H41DA C52DA 1_555 1_555
H42DA C52DA 1_555 1_555
C53DA C37DA 1_555 1_555
H43DA C53DA 1_555 1_555
H44DA C53DA 1_555 1_555
C54DA N7DA 1_555 1_555
H45DA C54DA 1_555 1_555
C55DA C54DA 1_555 1_555
C56DA C55DA 1_555 1_555
H46DA C56DA 1_555 1_555
C57DA C55DA 1_555 1_555
H47DA C57DA 1_555 1_555
C58DA C56DA 1_555 1_555
H48DA C58DA 1_555 1_555
C59DA C57DA 1_555 1_555
H49DA C59DA 1_555 1_555
C60DA C17B 1_555 1_555
C61DA O3DA 1_555 1_555
H50DA C61DA 1_555 1_555
H51DA C61DA 1_555 1_555
C62DA C61DA 1_555 1_555
H52DA C62DA 1_555 1_555
H53DA C62DA 1_555 1_555
C63DA C62DA 1_555 1_555
H54DA C63DA 1_555 1_555
H55DA C63DA 1_555 1_555
C64DA C63DA 1_555 1_555
H56DA C64DA 1_555 1_555
H57DA C64DA 1_555 1_555
H58DA C64DA 1_555 1_555
C65DA C39DA 1_555 1_555
H59DA C65DA 1_555 1_555
H60DA C65DA 1_555 1_555
C66DA N8DA 1_555 1_555
H61DA C66DA 1_555 1_555
C67DA C66DA 1_555 1_555
C68DA C67DA 1_555 1_555
H62DA C68DA 1_555 1_555
C69DA C67DA 1_555 1_555
H63DA C69DA 1_555 1_555
C70DA C68DA 1_555 1_555
H64DA C70DA 1_555 1_555
C71DA C69DA 1_555 1_555
H65DA C71DA 1_555 1_555
C72DA C2EA 1_555 1_555
C73DA O4DA 1_555 1_555
H66DA C73DA 1_555 1_555
H67DA C73DA 1_555 1_555
C74DA C73DA 1_555 1_555
H68DA C74DA 1_555 1_555
H69DA C74DA 1_555 1_555
C75DA C74DA 1_555 1_555
H70DA C75DA 1_555 1_555
H71DA C75DA 1_555 1_555
C76DA C75DA 1_555 1_555
H72DA C76DA 1_555 1_555
H73DA C76DA 1_555 1_555
H74DA C76DA 1_555 1_555
C5 C6 1_555 1_555
C10 C11 1_555 1_555
C12 C13 1_555 1_555
C15 C16 1_555 1_555
C17 C18 1_555 1_555
C19 C20 1_555 1_555
C25 C26 1_555 1_555
C46 C48 1_555 1_555
C47 C48 1_555 1_555
C59 C60 1_555 1_555
C71 C72 1_555 1_555
C2A C3A 1_555 1_555
C5A C6A 1_555 1_555
C10A C11A 1_555 1_555
C12A C13A 1_555 1_555
C15A C16A 1_555 1_555
C17A C18A 1_555 1_555
C19A C20A 1_555 1_555
C25A C26A 1_555 1_555
C29A C30A 1_555 1_555
C46A C48A 1_555 1_555
C47A C48A 1_555 1_555
C59A C60A 1_555 1_555
C71A C72A 1_555 1_555
C2B C3B 1_555 1_555
C5B C6B 1_555 1_555
C10B C11B 1_555 1_555
C12B C13B 1_555 1_555
C15B C16B 1_555 1_555
C17B C18B 1_555 1_555
C19B C20B 1_555 1_555
C25B C26B 1_555 1_555
C28B C29B 1_555 1_555
C29B C30B 1_555 1_555
C46B C48B 1_555 1_555
C47B C48B 1_555 1_555
C59B C60B 1_555 1_555
C70B C72B 1_555 1_555
C71B C72B 1_555 1_555
C5EA C6EA 1_555 1_555
C10EA C11EA 1_555 1_555
C12EA C13EA 1_555 1_555
C15EA C16EA 1_555 1_555
C16EA C17EA 1_555 1_555
C17EA C18EA 1_555 1_555
C19EA C20EA 1_555 1_555
C25EA C26EA 1_555 1_555
C46EA C48EA 1_555 1_555
C47EA C48EA 1_555 1_555
C58EA C60EA 1_555 1_555
C59EA C60EA 1_555 1_555
C71EA C72EA 1_555 1_555
C2FA C3FA 1_555 1_555
C5FA C6FA 1_555 1_555
C10FA C11FA 1_555 1_555
C12FA C13FA 1_555 1_555
C15FA C16FA 1_555 1_555
C16FA C17FA 1_555 1_555
C17FA C18FA 1_555 1_555
C19FA C20FA 1_555 1_555
C25FA C26FA 1_555 1_555
C29FA C30FA 1_555 1_555
C46FA C48FA 1_555 1_555
C47FA C48FA 1_555 1_555
C58FA C60FA 1_555 1_555
C59FA C60FA 1_555 1_555
C71FA C72FA 1_555 1_555
C2DA C3DA 1_555 1_555
C5DA C6DA 1_555 1_555
C10DA C11DA 1_555 1_555
C12DA C13DA 1_555 1_555
C15DA C16DA 1_555 1_555
C16DA C17DA 1_555 1_555
C17DA C18DA 1_555 1_555
C19DA C20DA 1_555 1_555
C25DA C26DA 1_555 1_555
C28DA C29DA 1_555 1_555
C29DA C30DA 1_555 1_555
C46DA C48DA 1_555 1_555
C47DA C48DA 1_555 1_555
C58DA C60DA 1_555 1_555
C59DA C60DA 1_555 1_555
C70DA C72DA 1_555 1_555
C71DA C72DA 1_555 1_555

#END
