
#######################################################################
#
#                 Cambridge Crystallographic Data Centre
#                                CCDC 
#
#######################################################################
#
# If this CIF has been generated from an entry in the Cambridge 
# Structural Database, then it will include bibliographic, chemical, 
# crystal, experimental, refinement or atomic coordinate data resulting 
# from the CCDC's data processing and validation procedures.
#
#######################################################################

data_QUFYOH
_chemical_formula_moiety         'C336 H276 N56'
_chemical_name_systematic        
"2,4,6,8,10,12,13,14-octakis((Nitrilotris((ethane-2,1-diyl)azanylylidene))trimethyl)-1,3,5,7,9,11-hexakis(4,4',4'',4'''-(porphyrin-5,10,15,20-tetrayl)tetraphenyl)undecacyclo[5.5.1.1^1,3^.0^2,5^.0^3,10^.0^4,9^.0^5,13^.0^6,9^.0^7,12^.0^8,11^.0^11,14^]tetradecaphane porphyrin box unknown solvate"
_symmetry_cell_setting           tetragonal
_symmetry_space_group_name_H-M   'P 4/n'
_symmetry_Int_Tables_number      85
_space_group_name_Hall           '-P 4a'
loop_
_symmetry_equiv_pos_site_id
_symmetry_equiv_pos_as_xyz
1 x,y,z
2 1/2-x,1/2-y,z
3 1/2-y,x,z
4 y,1/2-x,z
5 -x,-y,-z
6 1/2+x,1/2+y,-z
7 1/2+y,-x,-z
8 -y,1/2+x,-z
_cell_length_a                   29.926(4)
_cell_length_b                   29.926(4)
_cell_length_c                   22.380(5)
_cell_angle_alpha                90
_cell_angle_beta                 90
_cell_angle_gamma                90
_cell_volume                     20042.8
_exptl_crystal_colour            red
_exptl_crystal_description       block
_cell_formula_units_Z            2
loop_
_atom_site_label
_atom_site_type_symbol
_atom_site_fract_x
_atom_site_fract_y
_atom_site_fract_z
C1 C 0.93367(19) 0.5567(2) 0.2487(4)
C2 C 0.9415(2) 0.5773(3) 0.3004(4)
C3 C 0.95954(19) 0.6186(2) 0.3079(4)
C4 C 0.96873(19) 0.6402(3) 0.3633(3)
H1 H 0.9631 0.6287 0.4012
C5 C 0.9870(2) 0.6799(3) 0.3510(4)
H2 H 0.9962 0.7008 0.3791
C6 C 0.99002(18) 0.6849(2) 0.2898(3)
C7 C 1.00825(18) 0.7210(2) 0.2608(4)
C8 C 1.0102(2) 0.7267(2) 0.2003(4)
C9 C 1.0313(2) 0.7641(2) 0.1663(4)
H3 H 1.0453 0.7890 0.1827
C10 C 1.0265(2) 0.7556(2) 0.1103(4)
H4 H 1.0356 0.7744 0.0794
C11 C 1.0061(2) 0.7149(3) 0.1025(4)
C12 C 0.9973(2) 0.6928(2) 0.0462(3)
C13 C 0.9776(2) 0.6502(3) 0.0418(4)
C14 C 0.9677(3) 0.6311(3) -0.0180(4)
H5 H 0.9726 0.6430 -0.0558
C15 C 0.9491(2) 0.5905(3) -0.0018(5)
H6 H 0.9398 0.5691 -0.0292
C16 C 0.9460(2) 0.5852(3) 0.0584(4)
C17 C 0.9300(2) 0.5487(3) 0.0873(4)
C18 C 0.9276(2) 0.5431(3) 0.1475(5)
C19 C 0.9111(3) 0.5059(3) 0.1772(4)
H7 H 0.8996 0.4806 0.1586
C20 C 0.9141(3) 0.5117(3) 0.2362(5)
H8 H 0.9054 0.4910 0.2650
C21 C 1.0322(2) 0.7559(2) 0.2974(3)
C22 C 1.0700(2) 0.7455(2) 0.3258(3)
H9 H 1.0804 0.7162 0.3249
C23 C 1.0946(2) 0.7783(3) 0.3573(4)
H10 H 1.1226 0.7716 0.3729
C24 C 1.0763(3) 0.8210(2) 0.3646(3)
C25 C 1.0360(3) 0.8284(2) 0.3422(3)
H11 H 1.0226 0.8559 0.3494
C26 C 1.0134(2) 0.7980(3) 0.3093(3)
H12 H 0.9852 0.8050 0.2945
C27 C 1.1012(3) 0.8542(3) 0.3979(3)
H13 H 1.0879 0.8820 0.4041
C28 C 1.1628(3) 0.8876(3) 0.4470(5)
H14 H 1.1424 0.9128 0.4480
H15 H 1.1896 0.8960 0.4255
C29 C 1.0157(3) 0.7149(2) -0.0097(3)
C30 C 1.0577(3) 0.7108(3) -0.0275(4)
H16 H 1.0774 0.6942 -0.0044
C31 C 1.0732(3) 0.7309(3) -0.0804(4)
H17 H 1.1030 0.7278 -0.0917
C32 C 1.0446(4) 0.7547(2) -0.1148(4)
C33 C 1.0023(4) 0.7591(3) -0.1009(4)
H18 H 0.9830 0.7746 -0.1259
C34 C 0.9870(3) 0.7402(3) -0.0481(5)
H19 H 0.9573 0.7441 -0.0373
C35 C 1.0600(4) 0.7762(3) -0.1714(5)
H20 H 1.0401 0.7917 -0.1955
C36 C 1.1149(4) 0.7931(3) -0.2429(5)
H21 H 1.1264 0.7699 -0.2690
H22 H 1.0899 0.8073 -0.2627
C37 C 0.9138(3) 0.5108(2) 0.0508(3)
C38 C 0.9433(3) 0.4775(3) 0.0257(4)
H23 H 0.9739 0.4799 0.0320
C39 C 0.9273(4) 0.4435(3) -0.0063(4)
H24 H 0.9471 0.4220 -0.0202
C40 C 0.8829(3) 0.4390(3) -0.0195(3)
C41 C 0.8541(3) 0.4705(3) -0.0012(3)
H25 H 0.8241 0.4691 -0.0122
C42 C 0.8700(3) 0.5064(2) 0.0354(3)
H26 H 0.8497 0.5275 0.0493
C43 C 0.8713(5) 0.3313(3) -0.1082(8)
H27 H 0.8389 0.3326 -0.1102
H28 H 0.8793 0.3027 -0.0908
C44 C 0.8902(5) 0.3337(5) -0.1721(7)
H29 H 0.9218 0.3405 -0.1707
H30 H 0.8865 0.3050 -0.1917
C45 C 0.8995(4) 0.3799(4) -0.2444(5)
H31 H 0.8837 0.3862 -0.2813
H32 H 0.9189 0.3547 -0.2523
C46 C 0.9293(3) 0.4198(4) -0.2314(5)
H33 H 0.9435 0.4161 -0.1928
H34 H 0.9525 0.4219 -0.2616
C47 C 0.8993(3) 0.4798(3) -0.1857(6)
H35 H 0.9136 0.4684 -0.1521
C48 C 0.8719(3) 0.5242(3) -0.1768(6)
C49 C 0.8716(3) 0.5459(3) -0.1256(5)
H36 H 0.8861 0.5348 -0.0919
C50 C 0.8477(3) 0.5877(3) -0.1247(4)
H37 H 0.8475 0.6041 -0.0894
C51 C 0.8256(3) 0.6044(3) -0.1725(5)
C52 C 0.8248(4) 0.5787(4) -0.2281(5)
H38 H 0.8085 0.5881 -0.2612
C53 C 0.8498(4) 0.5394(4) -0.2288(5)
H39 H 0.8519 0.5229 -0.2639
C54 C 0.8029(4) 0.6494(3) -0.1730(3)
C55 C 0.7562(4) 0.6461(3) -0.1722(4)
C56 C 0.8667(3) 0.4000(3) -0.0552(3)
H40 H 0.8373 0.4010 -0.0690
C57 C 0.6874(4) 0.6237(3) -0.1711(4)
H41 H 0.6623 0.6054 -0.1729
C58 C 0.7290(4) 0.6087(3) -0.1689(4)
H42 H 0.7381 0.5791 -0.1658
C59 C 0.6858(4) 0.6704(3) -0.1704(4)
C60 C 0.9341(3) 0.5492(2) 0.3568(3)
C61 C 0.9611(2) 0.5151(3) 0.3733(4)
H43 H 0.9852 0.5076 0.3491
C62 C 0.9539(3) 0.4915(3) 0.4240(4)
H44 H 0.9726 0.4678 0.4342
C63 C 0.9172(3) 0.5035(3) 0.4618(3)
C64 C 0.8909(2) 0.5383(2) 0.4504(3)
H45 H 0.8685 0.5474 0.4765
C65 C 0.8990(2) 0.5602(2) 0.3965(4)
H46 H 0.8802 0.5837 0.3860
C66 C 0.9110(2) 0.4781(3) 0.5173(4)
H47 H 0.8889 0.4881 0.5433
C67 C 0.9252(3) 0.4182(4) 0.5874(4)
H48 H 0.9520 0.4196 0.6117
H49 H 0.9014 0.4324 0.6098
C68 C 0.9139(3) 0.3727(3) 0.5791(4)
H50 H 0.9377 0.3584 0.5567
H51 H 0.9125 0.3584 0.6180
C69 C 0.7950(3) 0.3760(3) 0.5780(4)
H52 H 0.7743 0.3637 0.6070
H53 H 0.7860 0.3657 0.5388
C70 C 0.7874(2) 0.4468(3) 0.5292(4)
H54 H 0.7861 0.4298 0.4945
C71 C 0.7838(2) 0.4946(2) 0.5241(4)
C72 C 0.7724(2) 0.5147(3) 0.4740(3)
H55 H 0.7676 0.4969 0.4405
C73 C 0.7671(2) 0.5593(3) 0.4680(3)
H56 H 0.7579 0.5717 0.4319
C74 C 0.7758(2) 0.5861(2) 0.5176(5)
C75 C 0.7896(3) 0.5671(3) 0.5704(4)
H57 H 0.7964 0.5852 0.6029
C76 C 0.7935(2) 0.5222(3) 0.5752(4)
H58 H 0.8022 0.5093 0.6112
C77 C 0.7665(3) 0.6384(2) 0.5131(3)
C78 C 0.7241(3) 0.6520(3) 0.5131(3)
C79 C 0.6852(3) 0.6211(2) 0.5142(3)
H59 H 0.6850 0.5901 0.5157
C80 C 0.8061(3) 0.6627(3) 0.5128(3)
C81 C 0.8499(3) 0.6495(3) 0.5123(4)
H60 H 0.8590 0.6198 0.5109
C82 C 1.1497(3) 0.8261(4) -0.2312(4)
H61 H 1.1644 0.8332 -0.2687
H62 H 1.1719 0.8127 -0.2051
C83 C 0.8705(4) 0.3258(3) 0.5127(6)
H63 H 0.8395 0.3164 0.5113
H64 H 0.8881 0.3016 0.5292
C84 C 0.8392(5) 0.3595(3) 0.5908(7)
H65 H 0.8484 0.3727 0.6284
H66 H 0.8365 0.3276 0.5977
N1 N 0.94043(16) 0.57338(18) 0.1907(3)
N2 N 0.97126(14) 0.64780(17) 0.2626(2)
H67 H 0.9676 0.6437 0.2249
N3 N 0.99493(16) 0.69820(16) 0.1582(3)
N4 N 0.96395(17) 0.6234(2) 0.0821(3)
H68 H 0.9658 0.6287 0.1198
N5 N 1.1412(3) 0.8474(2) 0.4197(3)
N6 N 1.0998(4) 0.7730(2) -0.1857(3)
N7 N 0.8878(3) 0.3684(3) -0.0672(3)
N8 N 0.8682(3) 0.3659(3) -0.2036(4)
N9 N 0.9037(3) 0.4590(3) -0.2315(5)
N10 N 0.7286(3) 0.6863(2) -0.1694(3)
H69 H 0.7373 0.7136 -0.1675
N11 N 0.9329(2) 0.4439(3) 0.5332(3)
N12 N 0.8748(3) 0.3654(3) 0.5504(4)
N13 N 0.7924(2) 0.4262(2) 0.5798(4)
N14 N 0.8061(2) 0.7094(2) 0.5116(2)
C1B C 0.9433(2) 0.93367(19) 0.2487(4)
C2B C 0.9227(3) 0.9415(2) 0.3004(4)
C3B C 0.8814(2) 0.95954(19) 0.3079(4)
C4B C 0.8598(3) 0.96873(19) 0.3633(3)
H1B H 0.8713 0.9631 0.4012
C5B C 0.8201(3) 0.9870(2) 0.3510(4)
H2B H 0.7992 0.9962 0.3791
C6B C 0.8151(2) 0.99002(18) 0.2898(3)
C7B C 0.7790(2) 1.00825(18) 0.2608(4)
C8B C 0.7733(2) 1.0102(2) 0.2003(4)
C9B C 0.7359(2) 1.0313(2) 0.1663(4)
H3B H 0.7110 1.0453 0.1827
C10B C 0.7444(2) 1.0265(2) 0.1103(4)
H4B H 0.7256 1.0356 0.0794
C11B C 0.7851(3) 1.0061(2) 0.1025(4)
C12B C 0.8072(2) 0.9973(2) 0.0462(3)
C13B C 0.8498(3) 0.9776(2) 0.0418(4)
C14B C 0.8689(3) 0.9677(3) -0.0180(4)
H5B H 0.8570 0.9726 -0.0558
C15B C 0.9095(3) 0.9491(2) -0.0018(5)
H6B H 0.9309 0.9398 -0.0292
C16B C 0.9148(3) 0.9460(2) 0.0584(4)
C17B C 0.9513(3) 0.9300(2) 0.0873(4)
C18B C 0.9569(3) 0.9276(2) 0.1475(5)
C19B C 0.9941(3) 0.9111(3) 0.1772(4)
H7B H 1.0194 0.8996 0.1586
C20B C 0.9883(3) 0.9141(3) 0.2362(5)
H8B H 1.0090 0.9054 0.2650
C21B C 0.7441(2) 1.0322(2) 0.2974(3)
C22B C 0.7545(2) 1.0700(2) 0.3258(3)
H9B H 0.7838 1.0804 0.3249
C23B C 0.7217(3) 1.0946(2) 0.3573(4)
H10B H 0.7284 1.1226 0.3729
C24B C 0.6790(2) 1.0763(3) 0.3646(3)
C25B C 0.6716(2) 1.0360(3) 0.3422(3)
H11B H 0.6441 1.0226 0.3494
C26B C 0.7020(3) 1.0134(2) 0.3093(3)
H12B H 0.6950 0.9852 0.2945
C27B C 0.6458(3) 1.1012(3) 0.3979(3)
H13B H 0.6180 1.0879 0.4041
C28B C 0.6124(3) 1.1628(3) 0.4470(5)
H14B H 0.5872 1.1424 0.4480
H15B H 0.6040 1.1896 0.4255
C29B C 0.7851(2) 1.0157(3) -0.0097(3)
C30B C 0.7892(3) 1.0577(3) -0.0275(4)
H16B H 0.8058 1.0774 -0.0044
C31B C 0.7691(3) 1.0732(3) -0.0804(4)
H17B H 0.7722 1.1030 -0.0917
C32B C 0.7453(2) 1.0446(4) -0.1148(4)
C33B C 0.7409(3) 1.0023(4) -0.1009(4)
H18B H 0.7254 0.9830 -0.1259
C34B C 0.7598(3) 0.9870(3) -0.0481(5)
H19B H 0.7559 0.9573 -0.0373
C35B C 0.7238(3) 1.0600(4) -0.1714(5)
H20B H 0.7083 1.0401 -0.1955
C36B C 0.7069(3) 1.1149(4) -0.2429(5)
H21B H 0.7301 1.1264 -0.2690
H22B H 0.6927 1.0899 -0.2627
C37B C 0.9892(2) 0.9138(3) 0.0508(3)
C38B C 1.0225(3) 0.9433(3) 0.0257(4)
H23B H 1.0201 0.9739 0.0320
C39B C 1.0565(3) 0.9273(4) -0.0063(4)
H24B H 1.0780 0.9471 -0.0202
C40B C 1.0610(3) 0.8829(3) -0.0195(3)
C41B C 1.0295(3) 0.8541(3) -0.0012(3)
H25B H 1.0309 0.8241 -0.0122
C42B C 0.9936(2) 0.8700(3) 0.0354(3)
H26B H 0.9725 0.8497 0.0493
C43B C 1.1687(3) 0.8713(5) -0.1082(8)
H27B H 1.1674 0.8389 -0.1102
H28B H 1.1973 0.8793 -0.0908
C44B C 1.1663(5) 0.8902(5) -0.1721(7)
H29B H 1.1595 0.9218 -0.1707
H30B H 1.1950 0.8865 -0.1917
C45B C 1.1201(4) 0.8995(4) -0.2444(5)
H31B H 1.1138 0.8837 -0.2813
H32B H 1.1453 0.9189 -0.2523
C46B C 1.0802(4) 0.9293(3) -0.2314(5)
H33B H 1.0839 0.9435 -0.1928
H34B H 1.0781 0.9525 -0.2616
C47B C 1.0202(3) 0.8993(3) -0.1857(6)
H35B H 1.0316 0.9136 -0.1521
C48B C 0.9758(3) 0.8719(3) -0.1768(6)
C49B C 0.9541(3) 0.8716(3) -0.1256(5)
H36B H 0.9652 0.8861 -0.0919
C50B C 0.9123(3) 0.8477(3) -0.1247(4)
H37B H 0.8959 0.8475 -0.0894
C51B C 0.8956(3) 0.8256(3) -0.1725(5)
C52B C 0.9213(4) 0.8248(4) -0.2281(5)
H38B H 0.9119 0.8085 -0.2612
C53B C 0.9606(4) 0.8498(4) -0.2288(5)
H39B H 0.9771 0.8519 -0.2639
C54B C 0.8506(3) 0.8029(4) -0.1730(3)
C55B C 0.8539(3) 0.7562(4) -0.1722(4)
C56B C 1.1000(3) 0.8667(3) -0.0552(3)
H40B H 1.0990 0.8373 -0.0690
C57B C 0.8763(3) 0.6874(4) -0.1711(4)
H41B H 0.8946 0.6623 -0.1729
C58B C 0.8913(3) 0.7290(4) -0.1689(4)
H42B H 0.9209 0.7381 -0.1658
C59B C 0.8296(3) 0.6858(4) -0.1704(4)
C60B C 0.9508(2) 0.9341(3) 0.3568(3)
C61B C 0.9849(3) 0.9611(2) 0.3733(4)
H43B H 0.9924 0.9852 0.3491
C62B C 1.0085(3) 0.9539(3) 0.4240(4)
H44B H 1.0322 0.9726 0.4342
C63B C 0.9965(3) 0.9172(3) 0.4618(3)
C64B C 0.9617(2) 0.8909(2) 0.4504(3)
H45B H 0.9526 0.8685 0.4765
C65B C 0.9398(2) 0.8990(2) 0.3965(4)
H46B H 0.9163 0.8802 0.3860
C66B C 1.0219(3) 0.9110(2) 0.5173(4)
H47B H 1.0119 0.8889 0.5433
C67B C 1.0818(4) 0.9252(3) 0.5874(4)
H48B H 1.0804 0.9520 0.6117
H49B H 1.0676 0.9014 0.6098
C68B C 1.1273(3) 0.9139(3) 0.5791(4)
H50B H 1.1416 0.9377 0.5567
H51B H 1.1416 0.9125 0.6180
C69B C 1.1240(3) 0.7950(3) 0.5780(4)
H52B H 1.1363 0.7743 0.6070
H53B H 1.1343 0.7860 0.5388
C70B C 1.0532(3) 0.7874(2) 0.5292(4)
H54B H 1.0702 0.7861 0.4945
C71B C 1.0054(2) 0.7838(2) 0.5241(4)
C72B C 0.9853(3) 0.7724(2) 0.4740(3)
H55B H 1.0031 0.7676 0.4405
C73B C 0.9407(3) 0.7671(2) 0.4680(3)
H56B H 0.9283 0.7579 0.4319
C74B C 0.9139(2) 0.7758(2) 0.5176(5)
C75B C 0.9329(3) 0.7896(3) 0.5704(4)
H57B H 0.9148 0.7964 0.6029
C76B C 0.9778(3) 0.7935(2) 0.5752(4)
H58B H 0.9907 0.8022 0.6112
C77B C 0.8616(2) 0.7665(3) 0.5131(3)
C78B C 0.8480(3) 0.7241(3) 0.5131(3)
C79B C 0.8789(2) 0.6852(3) 0.5142(3)
H59B H 0.9099 0.6850 0.5157
C80B C 0.8373(3) 0.8061(3) 0.5128(3)
C81B C 0.8505(3) 0.8499(3) 0.5123(4)
H60B H 0.8802 0.8590 0.5109
C82B C 0.6739(4) 1.1497(3) -0.2312(4)
H61B H 0.6668 1.1644 -0.2687
H62B H 0.6873 1.1719 -0.2051
C83B C 1.1742(3) 0.8705(4) 0.5127(6)
H63B H 1.1836 0.8395 0.5113
H64B H 1.1984 0.8881 0.5292
C84B C 1.1405(3) 0.8392(5) 0.5908(7)
H65B H 1.1273 0.8484 0.6284
H66B H 1.1724 0.8365 0.5977
N1B N 0.92662(18) 0.94043(16) 0.1907(3)
N2B N 0.85220(17) 0.97126(14) 0.2626(2)
H67B H 0.8563 0.9676 0.2249
N3B N 0.80180(16) 0.99493(16) 0.1582(3)
N4B N 0.8766(2) 0.96395(17) 0.0821(3)
H68B H 0.8713 0.9658 0.1198
N5B N 0.6526(2) 1.1412(3) 0.4197(3)
N6B N 0.7270(2) 1.0998(4) -0.1857(3)
N7B N 1.1316(3) 0.8878(3) -0.0672(3)
N8B N 1.1341(3) 0.8682(3) -0.2036(4)
N9B N 1.0410(3) 0.9037(3) -0.2315(5)
N10B N 0.8137(2) 0.7286(3) -0.1694(3)
H69B H 0.7864 0.7373 -0.1675
N11B N 1.0561(3) 0.9329(2) 0.5332(3)
N12B N 1.1346(3) 0.8748(3) 0.5504(4)
N13B N 1.0738(2) 0.7924(2) 0.5798(4)
N14B N 0.7906(2) 0.8061(2) 0.5116(2)
C1C C 0.5567(2) 0.56633(19) 0.2487(4)
C2C C 0.5773(3) 0.5585(2) 0.3004(4)
C3C C 0.6186(2) 0.54046(19) 0.3079(4)
C4C C 0.6402(3) 0.53127(19) 0.3633(3)
H1C H 0.6287 0.5369 0.4012
C5C C 0.6799(3) 0.5130(2) 0.3510(4)
H2C H 0.7008 0.5038 0.3791
C6C C 0.6849(2) 0.50998(18) 0.2898(3)
C7C C 0.7210(2) 0.49175(18) 0.2608(4)
C8C C 0.7267(2) 0.4898(2) 0.2003(4)
C9C C 0.7641(2) 0.4687(2) 0.1663(4)
H3C H 0.7890 0.4547 0.1827
C10C C 0.7556(2) 0.4735(2) 0.1103(4)
H4C H 0.7744 0.4644 0.0794
C11C C 0.7149(3) 0.4939(2) 0.1025(4)
C12C C 0.6928(2) 0.5027(2) 0.0462(3)
C13C C 0.6502(3) 0.5224(2) 0.0418(4)
C14C C 0.6311(3) 0.5323(3) -0.0180(4)
H5C H 0.6430 0.5274 -0.0558
C15C C 0.5905(3) 0.5509(2) -0.0018(5)
H6C H 0.5691 0.5602 -0.0292
C16C C 0.5852(3) 0.5540(2) 0.0584(4)
C17C C 0.5487(3) 0.5700(2) 0.0873(4)
C18C C 0.5431(3) 0.5724(2) 0.1475(5)
C19C C 0.5059(3) 0.5889(3) 0.1772(4)
H7C H 0.4806 0.6004 0.1586
C20C C 0.5117(3) 0.5859(3) 0.2362(5)
H8C H 0.4910 0.5946 0.2650
C21C C 0.7559(2) 0.4678(2) 0.2974(3)
C22C C 0.7455(2) 0.4300(2) 0.3258(3)
H9C H 0.7162 0.4196 0.3249
C23C C 0.7783(3) 0.4054(2) 0.3573(4)
H10C H 0.7716 0.3774 0.3729
C24C C 0.8210(2) 0.4237(3) 0.3646(3)
C25C C 0.8284(2) 0.4640(3) 0.3422(3)
H11C H 0.8559 0.4774 0.3494
C26C C 0.7980(3) 0.4866(2) 0.3093(3)
H12C H 0.8050 0.5148 0.2945
C27C C 0.8542(3) 0.3988(3) 0.3979(3)
H13C H 0.8820 0.4121 0.4041
C28C C 0.8876(3) 0.3372(3) 0.4470(5)
H14C H 0.9128 0.3576 0.4480
H15C H 0.8960 0.3104 0.4255
C29C C 0.7149(2) 0.4843(3) -0.0097(3)
C30C C 0.7108(3) 0.4423(3) -0.0275(4)
H16C H 0.6942 0.4226 -0.0044
C31C C 0.7309(3) 0.4268(3) -0.0804(4)
H17C H 0.7278 0.3970 -0.0917
C32C C 0.7547(2) 0.4554(4) -0.1148(4)
C33C C 0.7591(3) 0.4977(4) -0.1009(4)
H18C H 0.7746 0.5170 -0.1259
C34C C 0.7402(3) 0.5130(3) -0.0481(5)
H19C H 0.7441 0.5427 -0.0373
C35C C 0.7762(3) 0.4400(4) -0.1714(5)
H20C H 0.7917 0.4599 -0.1955
C36C C 0.7931(3) 0.3851(4) -0.2429(5)
H21C H 0.7699 0.3736 -0.2690
H22C H 0.8073 0.4101 -0.2627
C37C C 0.5108(2) 0.5862(3) 0.0508(3)
C38C C 0.4775(3) 0.5567(3) 0.0257(4)
H23C H 0.4799 0.5261 0.0320
C39C C 0.4435(3) 0.5727(4) -0.0063(4)
H24C H 0.4220 0.5529 -0.0202
C40C C 0.4390(3) 0.6171(3) -0.0195(3)
C41C C 0.4705(3) 0.6459(3) -0.0012(3)
H25C H 0.4691 0.6759 -0.0122
C42C C 0.5064(2) 0.6300(3) 0.0354(3)
H26C H 0.5275 0.6503 0.0493
C43C C 0.3313(3) 0.6287(5) -0.1082(8)
H27C H 0.3326 0.6611 -0.1102
H28C H 0.3027 0.6207 -0.0908
C44C C 0.3337(5) 0.6098(5) -0.1721(7)
H29C H 0.3405 0.5782 -0.1707
H30C H 0.3050 0.6135 -0.1917
C45C C 0.3799(4) 0.6005(4) -0.2444(5)
H31C H 0.3862 0.6163 -0.2813
H32C H 0.3547 0.5811 -0.2523
C46C C 0.4198(4) 0.5707(3) -0.2314(5)
H33C H 0.4161 0.5565 -0.1928
H34C H 0.4219 0.5475 -0.2616
C47C C 0.4798(3) 0.6007(3) -0.1857(6)
H35C H 0.4684 0.5864 -0.1521
C48C C 0.5242(3) 0.6281(3) -0.1768(6)
C49C C 0.5459(3) 0.6284(3) -0.1256(5)
H36C H 0.5348 0.6139 -0.0919
C50C C 0.5877(3) 0.6523(3) -0.1247(4)
H37C H 0.6041 0.6525 -0.0894
C51C C 0.6044(3) 0.6744(3) -0.1725(5)
C52C C 0.5787(4) 0.6752(4) -0.2281(5)
H38C H 0.5881 0.6915 -0.2612
C53C C 0.5394(4) 0.6502(4) -0.2288(5)
H39C H 0.5229 0.6481 -0.2639
C54C C 0.6494(3) 0.6971(4) -0.1730(3)
C55C C 0.6461(3) 0.7438(4) -0.1722(4)
C56C C 0.4000(3) 0.6333(3) -0.0552(3)
H40C H 0.4010 0.6627 -0.0690
C57C C 0.6237(3) 0.8126(4) -0.1711(4)
H41C H 0.6054 0.8377 -0.1729
C58C C 0.6087(3) 0.7710(4) -0.1689(4)
H42C H 0.5791 0.7619 -0.1658
C59C C 0.6704(3) 0.8142(4) -0.1704(4)
C60C C 0.5492(2) 0.5659(3) 0.3568(3)
C61C C 0.5151(3) 0.5389(2) 0.3733(4)
H43C H 0.5076 0.5148 0.3491
C62C C 0.4915(3) 0.5461(3) 0.4240(4)
H44C H 0.4678 0.5274 0.4342
C63C C 0.5035(3) 0.5828(3) 0.4618(3)
C64C C 0.5383(2) 0.6091(2) 0.4504(3)
H45C H 0.5474 0.6315 0.4765
C65C C 0.5602(2) 0.6010(2) 0.3965(4)
H46C H 0.5837 0.6198 0.3860
C66C C 0.4781(3) 0.5890(2) 0.5173(4)
H47C H 0.4881 0.6111 0.5433
C67C C 0.4182(4) 0.5748(3) 0.5874(4)
H48C H 0.4196 0.5480 0.6117
H49C H 0.4324 0.5986 0.6098
C68C C 0.3727(3) 0.5861(3) 0.5791(4)
H50C H 0.3584 0.5623 0.5567
H51C H 0.3584 0.5875 0.6180
C69C C 0.3760(3) 0.7050(3) 0.5780(4)
H52C H 0.3637 0.7257 0.6070
H53C H 0.3657 0.7140 0.5388
C70C C 0.4468(3) 0.7126(2) 0.5292(4)
H54C H 0.4298 0.7139 0.4945
C71C C 0.4946(2) 0.7162(2) 0.5241(4)
C72C C 0.5147(3) 0.7276(2) 0.4740(3)
H55C H 0.4969 0.7324 0.4405
C73C C 0.5593(3) 0.7329(2) 0.4680(3)
H56C H 0.5717 0.7421 0.4319
C74C C 0.5861(2) 0.7242(2) 0.5176(5)
C75C C 0.5671(3) 0.7104(3) 0.5704(4)
H57C H 0.5852 0.7036 0.6029
C76C C 0.5222(3) 0.7065(2) 0.5752(4)
H58C H 0.5093 0.6978 0.6112
C77C C 0.6384(2) 0.7335(3) 0.5131(3)
C78C C 0.6520(3) 0.7759(3) 0.5131(3)
C79C C 0.6211(2) 0.8148(3) 0.5142(3)
H59C H 0.5901 0.8150 0.5157
C80C C 0.6627(3) 0.6939(3) 0.5128(3)
C81C C 0.6495(3) 0.6501(3) 0.5123(4)
H60C H 0.6198 0.6410 0.5109
C82C C 0.8261(4) 0.3503(3) -0.2312(4)
H61C H 0.8332 0.3356 -0.2687
H62C H 0.8127 0.3281 -0.2051
C83C C 0.3258(3) 0.6295(4) 0.5127(6)
H63C H 0.3164 0.6605 0.5113
H64C H 0.3016 0.6119 0.5292
C84C C 0.3595(3) 0.6608(5) 0.5908(7)
H65C H 0.3727 0.6516 0.6284
H66C H 0.3276 0.6635 0.5977
N1C N 0.57338(18) 0.55957(16) 0.1907(3)
N2C N 0.64780(17) 0.52874(14) 0.2626(2)
H67C H 0.6437 0.5324 0.2249
N3C N 0.69820(16) 0.50507(16) 0.1582(3)
N4C N 0.6234(2) 0.53605(17) 0.0821(3)
H68C H 0.6287 0.5342 0.1198
N5C N 0.8474(2) 0.3588(3) 0.4197(3)
N6C N 0.7730(2) 0.4002(4) -0.1857(3)
N7C N 0.3684(3) 0.6122(3) -0.0672(3)
N8C N 0.3659(3) 0.6318(3) -0.2036(4)
N9C N 0.4590(3) 0.5963(3) -0.2315(5)
N10C N 0.6863(2) 0.7714(3) -0.1694(3)
H69C H 0.7136 0.7627 -0.1675
N11C N 0.4439(3) 0.5671(2) 0.5332(3)
N12C N 0.3654(3) 0.6252(3) 0.5504(4)
N13C N 0.4262(2) 0.7076(2) 0.5798(4)
N14C N 0.7094(2) 0.6939(2) 0.5116(2)
C1A C 0.56633(19) 0.9433(2) 0.2487(4)
C2A C 0.5585(2) 0.9227(3) 0.3004(4)
C3A C 0.54046(19) 0.8814(2) 0.3079(4)
C4A C 0.53127(19) 0.8598(3) 0.3633(3)
H1A H 0.5369 0.8713 0.4012
C5A C 0.5130(2) 0.8201(3) 0.3510(4)
H2A H 0.5038 0.7992 0.3791
C6A C 0.50998(18) 0.8151(2) 0.2898(3)
C7A C 0.49175(18) 0.7790(2) 0.2608(4)
C8A C 0.4898(2) 0.7733(2) 0.2003(4)
C9A C 0.4687(2) 0.7359(2) 0.1663(4)
H3A H 0.4547 0.7110 0.1827
C10A C 0.4735(2) 0.7444(2) 0.1103(4)
H4A H 0.4644 0.7256 0.0794
C11A C 0.4939(2) 0.7851(3) 0.1025(4)
C12A C 0.5027(2) 0.8072(2) 0.0462(3)
C13A C 0.5224(2) 0.8498(3) 0.0418(4)
C14A C 0.5323(3) 0.8689(3) -0.0180(4)
H5A H 0.5274 0.8570 -0.0558
C15A C 0.5509(2) 0.9095(3) -0.0018(5)
H6A H 0.5602 0.9309 -0.0292
C16A C 0.5540(2) 0.9148(3) 0.0584(4)
C17A C 0.5700(2) 0.9513(3) 0.0873(4)
C18A C 0.5724(2) 0.9569(3) 0.1475(5)
C19A C 0.5889(3) 0.9941(3) 0.1772(4)
H7A H 0.6004 1.0194 0.1586
C20A C 0.5859(3) 0.9883(3) 0.2362(5)
H8A H 0.5946 1.0090 0.2650
C21A C 0.4678(2) 0.7441(2) 0.2974(3)
C22A C 0.4300(2) 0.7545(2) 0.3258(3)
H9A H 0.4196 0.7838 0.3249
C23A C 0.4054(2) 0.7217(3) 0.3573(4)
H10A H 0.3774 0.7284 0.3729
C24A C 0.4237(3) 0.6790(2) 0.3646(3)
C25A C 0.4640(3) 0.6716(2) 0.3422(3)
H11A H 0.4774 0.6441 0.3494
C26A C 0.4866(2) 0.7020(3) 0.3093(3)
H12A H 0.5148 0.6950 0.2945
C27A C 0.3988(3) 0.6458(3) 0.3979(3)
H13A H 0.4121 0.6180 0.4041
C28A C 0.3372(3) 0.6124(3) 0.4470(5)
H14A H 0.3576 0.5872 0.4480
H15A H 0.3104 0.6040 0.4255
C29A C 0.4843(3) 0.7851(2) -0.0097(3)
C30A C 0.4423(3) 0.7892(3) -0.0275(4)
H16A H 0.4226 0.8058 -0.0044
C31A C 0.4268(3) 0.7691(3) -0.0804(4)
H17A H 0.3970 0.7722 -0.0917
C32A C 0.4554(4) 0.7453(2) -0.1148(4)
C33A C 0.4977(4) 0.7409(3) -0.1009(4)
H18A H 0.5170 0.7254 -0.1259
C34A C 0.5130(3) 0.7598(3) -0.0481(5)
H19A H 0.5427 0.7559 -0.0373
C35A C 0.4400(4) 0.7238(3) -0.1714(5)
H20A H 0.4599 0.7083 -0.1955
C36A C 0.3851(4) 0.7069(3) -0.2429(5)
H21A H 0.3736 0.7301 -0.2690
H22A H 0.4101 0.6927 -0.2627
C37A C 0.5862(3) 0.9892(2) 0.0508(3)
C38A C 0.5567(3) 1.0225(3) 0.0257(4)
H23A H 0.5261 1.0201 0.0320
C39A C 0.5727(4) 1.0565(3) -0.0063(4)
H24A H 0.5529 1.0780 -0.0202
C40A C 0.6171(3) 1.0610(3) -0.0195(3)
C41A C 0.6459(3) 1.0295(3) -0.0012(3)
H25A H 0.6759 1.0309 -0.0122
C42A C 0.6300(3) 0.9936(2) 0.0354(3)
H26A H 0.6503 0.9725 0.0493
C43A C 0.6287(5) 1.1687(3) -0.1082(8)
H27A H 0.6611 1.1674 -0.1102
H28A H 0.6207 1.1973 -0.0908
C44A C 0.6098(5) 1.1663(5) -0.1721(7)
H29A H 0.5782 1.1595 -0.1707
H30A H 0.6135 1.1950 -0.1917
C45A C 0.6005(4) 1.1201(4) -0.2444(5)
H31A H 0.6163 1.1138 -0.2813
H32A H 0.5811 1.1453 -0.2523
C46A C 0.5707(3) 1.0802(4) -0.2314(5)
H33A H 0.5565 1.0839 -0.1928
H34A H 0.5475 1.0781 -0.2616
C47A C 0.6007(3) 1.0202(3) -0.1857(6)
H35A H 0.5864 1.0316 -0.1521
C48A C 0.6281(3) 0.9758(3) -0.1768(6)
C49A C 0.6284(3) 0.9541(3) -0.1256(5)
H36A H 0.6139 0.9652 -0.0919
C50A C 0.6523(3) 0.9123(3) -0.1247(4)
H37A H 0.6525 0.8959 -0.0894
C51A C 0.6744(3) 0.8956(3) -0.1725(5)
C52A C 0.6752(4) 0.9213(4) -0.2281(5)
H38A H 0.6915 0.9119 -0.2612
C53A C 0.6502(4) 0.9606(4) -0.2288(5)
H39A H 0.6481 0.9771 -0.2639
C54A C 0.6971(4) 0.8506(3) -0.1730(3)
C55A C 0.7438(4) 0.8539(3) -0.1722(4)
C56A C 0.6333(3) 1.1000(3) -0.0552(3)
H40A H 0.6627 1.0990 -0.0690
C57A C 0.8126(4) 0.8763(3) -0.1711(4)
H41A H 0.8377 0.8946 -0.1729
C58A C 0.7710(4) 0.8913(3) -0.1689(4)
H42A H 0.7619 0.9209 -0.1658
C59A C 0.8142(4) 0.8296(3) -0.1704(4)
C60A C 0.5659(3) 0.9508(2) 0.3568(3)
C61A C 0.5389(2) 0.9849(3) 0.3733(4)
H43A H 0.5148 0.9924 0.3491
C62A C 0.5461(3) 1.0085(3) 0.4240(4)
H44A H 0.5274 1.0322 0.4342
C63A C 0.5828(3) 0.9965(3) 0.4618(3)
C64A C 0.6091(2) 0.9617(2) 0.4504(3)
H45A H 0.6315 0.9526 0.4765
C65A C 0.6010(2) 0.9398(2) 0.3965(4)
H46A H 0.6198 0.9163 0.3860
C66A C 0.5890(2) 1.0219(3) 0.5173(4)
H47A H 0.6111 1.0119 0.5433
C67A C 0.5748(3) 1.0818(4) 0.5874(4)
H48A H 0.5480 1.0804 0.6117
H49A H 0.5986 1.0676 0.6098
C68A C 0.5861(3) 1.1273(3) 0.5791(4)
H50A H 0.5623 1.1416 0.5567
H51A H 0.5875 1.1416 0.6180
C69A C 0.7050(3) 1.1240(3) 0.5780(4)
H52A H 0.7257 1.1363 0.6070
H53A H 0.7140 1.1343 0.5388
C70A C 0.7126(2) 1.0532(3) 0.5292(4)
H54A H 0.7139 1.0702 0.4945
C71A C 0.7162(2) 1.0054(2) 0.5241(4)
C72A C 0.7276(2) 0.9853(3) 0.4740(3)
H55A H 0.7324 1.0031 0.4405
C73A C 0.7329(2) 0.9407(3) 0.4680(3)
H56A H 0.7421 0.9283 0.4319
C74A C 0.7242(2) 0.9139(2) 0.5176(5)
C75A C 0.7104(3) 0.9329(3) 0.5704(4)
H57A H 0.7036 0.9148 0.6029
C76A C 0.7065(2) 0.9778(3) 0.5752(4)
H58A H 0.6978 0.9907 0.6112
C77A C 0.7335(3) 0.8616(2) 0.5131(3)
C78A C 0.7759(3) 0.8480(3) 0.5131(3)
C79A C 0.8148(3) 0.8789(2) 0.5142(3)
H59A H 0.8150 0.9099 0.5157
C80A C 0.6939(3) 0.8373(3) 0.5128(3)
C81A C 0.6501(3) 0.8505(3) 0.5123(4)
H60A H 0.6410 0.8802 0.5109
C82A C 0.3503(3) 0.6739(4) -0.2312(4)
H61A H 0.3356 0.6668 -0.2687
H62A H 0.3281 0.6873 -0.2051
C83A C 0.6295(4) 1.1742(3) 0.5127(6)
H63A H 0.6605 1.1836 0.5113
H64A H 0.6119 1.1984 0.5292
C84A C 0.6608(5) 1.1405(3) 0.5908(7)
H65A H 0.6516 1.1273 0.6284
H66A H 0.6635 1.1724 0.5977
N1A N 0.55957(16) 0.92662(18) 0.1907(3)
N2A N 0.52874(14) 0.85220(17) 0.2626(2)
H67A H 0.5324 0.8563 0.2249
N3A N 0.50507(16) 0.80180(16) 0.1582(3)
N4A N 0.53605(17) 0.8766(2) 0.0821(3)
H68A H 0.5342 0.8713 0.1198
N5A N 0.3588(3) 0.6526(2) 0.4197(3)
N6A N 0.4002(4) 0.7270(2) -0.1857(3)
N7A N 0.6122(3) 1.1316(3) -0.0672(3)
N8A N 0.6318(3) 1.1341(3) -0.2036(4)
N9A N 0.5963(3) 1.0410(3) -0.2315(5)
N10A N 0.7714(3) 0.8137(2) -0.1694(3)
H69A H 0.7627 0.7864 -0.1675
N11A N 0.5671(2) 1.0561(3) 0.5332(3)
N12A N 0.6252(3) 1.1346(3) 0.5504(4)
N13A N 0.7076(2) 1.0738(2) 0.5798(4)
N14A N 0.6939(2) 0.7906(2) 0.5116(2)
H70? H 0.7827 0.7260 0.5101
loop_
_geom_bond_atom_site_label_1
_geom_bond_atom_site_label_2
_geom_bond_site_symmetry_1
_geom_bond_site_symmetry_2
C1 C2 1_555 1_555
C2 C3 1_555 1_555
C3 C4 1_555 1_555
C4 H1 1_555 1_555
C5 C4 1_555 1_555
H2 C5 1_555 1_555
C6 C5 1_555 1_555
C7 C6 1_555 1_555
C8 C7 1_555 1_555
C9 C8 1_555 1_555
H3 C9 1_555 1_555
C10 C9 1_555 1_555
H4 C10 1_555 1_555
C11 C10 1_555 1_555
C12 C11 1_555 1_555
C13 C12 1_555 1_555
C14 C13 1_555 1_555
H5 C14 1_555 1_555
C15 C14 1_555 1_555
H6 C15 1_555 1_555
C16 C15 1_555 1_555
C17 C16 1_555 1_555
C18 C17 1_555 1_555
C19 C18 1_555 1_555
H7 C19 1_555 1_555
C20 C1 1_555 1_555
H8 C20 1_555 1_555
C21 C7 1_555 1_555
C22 C21 1_555 1_555
H9 C22 1_555 1_555
C23 C22 1_555 1_555
H10 C23 1_555 1_555
C24 C23 1_555 1_555
C25 C24 1_555 1_555
H11 C25 1_555 1_555
C26 C21 1_555 1_555
H12 C26 1_555 1_555
C27 C24 1_555 1_555
H13 C27 1_555 1_555
C28 H14 1_555 1_555
H15 C28 1_555 1_555
C29 C12 1_555 1_555
C30 C29 1_555 1_555
H16 C30 1_555 1_555
C31 C30 1_555 1_555
H17 C31 1_555 1_555
C32 C31 1_555 1_555
C33 C32 1_555 1_555
H18 C33 1_555 1_555
C34 C29 1_555 1_555
H19 C34 1_555 1_555
C35 C32 1_555 1_555
H20 C35 1_555 1_555
C36 H21 1_555 1_555
H22 C36 1_555 1_555
C37 C17 1_555 1_555
C38 C37 1_555 1_555
H23 C38 1_555 1_555
C39 C38 1_555 1_555
H24 C39 1_555 1_555
C40 C39 1_555 1_555
C41 C40 1_555 1_555
H25 C41 1_555 1_555
C42 C37 1_555 1_555
H26 C42 1_555 1_555
C43 H27 1_555 1_555
H28 C43 1_555 1_555
C44 C43 1_555 1_555
H29 C44 1_555 1_555
H30 C44 1_555 1_555
C45 H31 1_555 1_555
H32 C45 1_555 1_555
C46 C45 1_555 1_555
H33 C46 1_555 1_555
H34 C46 1_555 1_555
C47 H35 1_555 1_555
C48 C47 1_555 1_555
C49 C48 1_555 1_555
H36 C49 1_555 1_555
C50 C49 1_555 1_555
H37 C50 1_555 1_555
C51 C50 1_555 1_555
C52 C51 1_555 1_555
H38 C52 1_555 1_555
C53 C48 1_555 1_555
H39 C53 1_555 1_555
C54 C51 1_555 1_555
C55 C54 1_555 1_555
C56 C40 1_555 1_555
H40 C56 1_555 1_555
C57 H41 1_555 1_555
C58 C55 1_555 1_555
H42 C58 1_555 1_555
C59 C57 1_555 1_555
C60 C2 1_555 1_555
C61 C60 1_555 1_555
H43 C61 1_555 1_555
C62 C61 1_555 1_555
H44 C62 1_555 1_555
C63 C62 1_555 1_555
C64 C63 1_555 1_555
H45 C64 1_555 1_555
C65 C60 1_555 1_555
H46 C65 1_555 1_555
C66 C63 1_555 1_555
H47 C66 1_555 1_555
C67 H48 1_555 1_555
H49 C67 1_555 1_555
C68 C67 1_555 1_555
H50 C68 1_555 1_555
H51 C68 1_555 1_555
C69 H52 1_555 1_555
H53 C69 1_555 1_555
C70 H54 1_555 1_555
C71 C70 1_555 1_555
C72 C71 1_555 1_555
H55 C72 1_555 1_555
C73 C72 1_555 1_555
H56 C73 1_555 1_555
C74 C73 1_555 1_555
C75 C74 1_555 1_555
H57 C75 1_555 1_555
C76 C71 1_555 1_555
H58 C76 1_555 1_555
C77 C74 1_555 1_555
C78 C77 1_555 1_555
C79 C78 1_555 1_555
H59 C79 1_555 1_555
C80 C77 1_555 1_555
C81 C80 1_555 1_555
H60 C81 1_555 1_555
C82 C36 1_555 1_555
H61 C82 1_555 1_555
H62 C82 1_555 1_555
C83 H63 1_555 1_555
H64 C83 1_555 1_555
C84 C69 1_555 1_555
H65 C84 1_555 1_555
H66 C84 1_555 1_555
N1 C1 1_555 1_555
N2 C3 1_555 1_555
H67 N2 1_555 1_555
N3 C8 1_555 1_555
N4 C13 1_555 1_555
H68 N4 1_555 1_555
N5 C27 1_555 1_555
N6 C35 1_555 1_555
N7 C43 1_555 1_555
N8 C44 1_555 1_555
N9 C46 1_555 1_555
N10 C55 1_555 1_555
H69 N10 1_555 1_555
N11 C66 1_555 1_555
N12 C68 1_555 1_555
N13 C69 1_555 1_555
N14 C80 1_555 1_555
C1B C2B 1_555 1_555
C2B C3B 1_555 1_555
C3B C4B 1_555 1_555
C4B H1B 1_555 1_555
C5B C4B 1_555 1_555
H2B C5B 1_555 1_555
C6B C5B 1_555 1_555
C7B C6B 1_555 1_555
C8B C7B 1_555 1_555
C9B C8B 1_555 1_555
H3B C9B 1_555 1_555
C10B C9B 1_555 1_555
H4B C10B 1_555 1_555
C11B C10B 1_555 1_555
C12B C11B 1_555 1_555
C13B C12B 1_555 1_555
C14B C13B 1_555 1_555
H5B C14B 1_555 1_555
C15B C14B 1_555 1_555
H6B C15B 1_555 1_555
C16B C15B 1_555 1_555
C17B C16B 1_555 1_555
C18B C17B 1_555 1_555
C19B C18B 1_555 1_555
H7B C19B 1_555 1_555
C20B C1B 1_555 1_555
H8B C20B 1_555 1_555
C21B C7B 1_555 1_555
C22B C21B 1_555 1_555
H9B C22B 1_555 1_555
C23B C22B 1_555 1_555
H10B C23B 1_555 1_555
C24B C23B 1_555 1_555
C25B C24B 1_555 1_555
H11B C25B 1_555 1_555
C26B C21B 1_555 1_555
H12B C26B 1_555 1_555
C27B C24B 1_555 1_555
H13B C27B 1_555 1_555
C28B H14B 1_555 1_555
H15B C28B 1_555 1_555
C29B C12B 1_555 1_555
C30B C29B 1_555 1_555
H16B C30B 1_555 1_555
C31B C30B 1_555 1_555
H17B C31B 1_555 1_555
C32B C31B 1_555 1_555
C33B C32B 1_555 1_555
H18B C33B 1_555 1_555
C34B C29B 1_555 1_555
H19B C34B 1_555 1_555
C35B C32B 1_555 1_555
H20B C35B 1_555 1_555
C36B H21B 1_555 1_555
H22B C36B 1_555 1_555
C37B C17B 1_555 1_555
C38B C37B 1_555 1_555
H23B C38B 1_555 1_555
C39B C38B 1_555 1_555
H24B C39B 1_555 1_555
C40B C39B 1_555 1_555
C41B C40B 1_555 1_555
H25B C41B 1_555 1_555
C42B C37B 1_555 1_555
H26B C42B 1_555 1_555
C43B H27B 1_555 1_555
H28B C43B 1_555 1_555
C44B C43B 1_555 1_555
H29B C44B 1_555 1_555
H30B C44B 1_555 1_555
C45B H31B 1_555 1_555
H32B C45B 1_555 1_555
C46B C45B 1_555 1_555
H33B C46B 1_555 1_555
H34B C46B 1_555 1_555
C47B H35B 1_555 1_555
C48B C47B 1_555 1_555
C49B C48B 1_555 1_555
H36B C49B 1_555 1_555
C50B C49B 1_555 1_555
H37B C50B 1_555 1_555
C51B C50B 1_555 1_555
C52B C51B 1_555 1_555
H38B C52B 1_555 1_555
C53B C48B 1_555 1_555
H39B C53B 1_555 1_555
C54B C51B 1_555 1_555
C55B C54B 1_555 1_555
C56B C40B 1_555 1_555
H40B C56B 1_555 1_555
C57B H41B 1_555 1_555
C58B C55B 1_555 1_555
H42B C58B 1_555 1_555
C59B C54 1_555 1_555
C60B C2B 1_555 1_555
C61B C60B 1_555 1_555
H43B C61B 1_555 1_555
C62B C61B 1_555 1_555
H44B C62B 1_555 1_555
C63B C62B 1_555 1_555
C64B C63B 1_555 1_555
H45B C64B 1_555 1_555
C65B C60B 1_555 1_555
H46B C65B 1_555 1_555
C66B C63B 1_555 1_555
H47B C66B 1_555 1_555
C67B H48B 1_555 1_555
H49B C67B 1_555 1_555
C68B C67B 1_555 1_555
H50B C68B 1_555 1_555
H51B C68B 1_555 1_555
C69B H52B 1_555 1_555
H53B C69B 1_555 1_555
C70B H54B 1_555 1_555
C71B C70B 1_555 1_555
C72B C71B 1_555 1_555
H55B C72B 1_555 1_555
C73B C72B 1_555 1_555
H56B C73B 1_555 1_555
C74B C73B 1_555 1_555
C75B C74B 1_555 1_555
H57B C75B 1_555 1_555
C76B C71B 1_555 1_555
H58B C76B 1_555 1_555
C77B C74B 1_555 1_555
C78B N14 1_555 1_555
C79B C81 1_555 1_555
H59B C79B 1_555 1_555
C80B C77B 1_555 1_555
C81B C80B 1_555 1_555
H60B C81B 1_555 1_555
C82B C36B 1_555 1_555
H61B C82B 1_555 1_555
H62B C82B 1_555 1_555
C83B C28 1_555 1_555
H63B C83B 1_555 1_555
H64B C83B 1_555 1_555
C84B C69B 1_555 1_555
H65B C84B 1_555 1_555
H66B C84B 1_555 1_555
N1B C1B 1_555 1_555
N2B C3B 1_555 1_555
H67B N2B 1_555 1_555
N3B C8B 1_555 1_555
N4B C13B 1_555 1_555
H68B N4B 1_555 1_555
N5B C27B 1_555 1_555
N6B C35B 1_555 1_555
N7B C43B 1_555 1_555
N8B C82 1_555 1_555
N9B C46B 1_555 1_555
N10B C55B 1_555 1_555
H69B N10B 1_555 1_555
N11B C66B 1_555 1_555
N12B C68B 1_555 1_555
N13B C69B 1_555 1_555
N14B C80B 1_555 1_555
C1C C2C 1_555 1_555
C2C C3C 1_555 1_555
C3C C4C 1_555 1_555
C4C H1C 1_555 1_555
C5C C4C 1_555 1_555
H2C C5C 1_555 1_555
C6C C5C 1_555 1_555
C7C C6C 1_555 1_555
C8C C7C 1_555 1_555
C9C C8C 1_555 1_555
H3C C9C 1_555 1_555
C10C C9C 1_555 1_555
H4C C10C 1_555 1_555
C11C C10C 1_555 1_555
C12C C11C 1_555 1_555
C13C C12C 1_555 1_555
C14C C13C 1_555 1_555
H5C C14C 1_555 1_555
C15C C14C 1_555 1_555
H6C C15C 1_555 1_555
C16C C15C 1_555 1_555
C17C C16C 1_555 1_555
C18C C17C 1_555 1_555
C19C C18C 1_555 1_555
H7C C19C 1_555 1_555
C20C C1C 1_555 1_555
H8C C20C 1_555 1_555
C21C C7C 1_555 1_555
C22C C21C 1_555 1_555
H9C C22C 1_555 1_555
C23C C22C 1_555 1_555
H10C C23C 1_555 1_555
C24C C23C 1_555 1_555
C25C C24C 1_555 1_555
H11C C25C 1_555 1_555
C26C C21C 1_555 1_555
H12C C26C 1_555 1_555
C27C C24C 1_555 1_555
H13C C27C 1_555 1_555
C28C C83 1_555 1_555
H14C C28C 1_555 1_555
H15C C28C 1_555 1_555
C29C C12C 1_555 1_555
C30C C29C 1_555 1_555
H16C C30C 1_555 1_555
C31C C30C 1_555 1_555
H17C C31C 1_555 1_555
C32C C31C 1_555 1_555
C33C C32C 1_555 1_555
H18C C33C 1_555 1_555
C34C C29C 1_555 1_555
H19C C34C 1_555 1_555
C35C C32C 1_555 1_555
H20C C35C 1_555 1_555
C36C H21C 1_555 1_555
H22C C36C 1_555 1_555
C37C C17C 1_555 1_555
C38C C37C 1_555 1_555
H23C C38C 1_555 1_555
C39C C38C 1_555 1_555
H24C C39C 1_555 1_555
C40C C39C 1_555 1_555
C41C C40C 1_555 1_555
H25C C41C 1_555 1_555
C42C C37C 1_555 1_555
H26C C42C 1_555 1_555
C43C H27C 1_555 1_555
H28C C43C 1_555 1_555
C44C C43C 1_555 1_555
H29C C44C 1_555 1_555
H30C C44C 1_555 1_555
C45C H31C 1_555 1_555
H32C C45C 1_555 1_555
C46C C45C 1_555 1_555
H33C C46C 1_555 1_555
H34C C46C 1_555 1_555
C47C H35C 1_555 1_555
C48C C47C 1_555 1_555
C49C C48C 1_555 1_555
H36C C49C 1_555 1_555
C50C C49C 1_555 1_555
H37C C50C 1_555 1_555
C51C C50C 1_555 1_555
C52C C51C 1_555 1_555
H38C C52C 1_555 1_555
C53C C48C 1_555 1_555
H39C C53C 1_555 1_555
C54C C59 1_555 1_555
C55C C54C 1_555 1_555
C56C C40C 1_555 1_555
H40C C56C 1_555 1_555
C57C H41C 1_555 1_555
C58C C55C 1_555 1_555
H42C C58C 1_555 1_555
C59C C57C 1_555 1_555
C60C C2C 1_555 1_555
C61C C60C 1_555 1_555
H43C C61C 1_555 1_555
C62C C61C 1_555 1_555
H44C C62C 1_555 1_555
C63C C62C 1_555 1_555
C64C C63C 1_555 1_555
H45C C64C 1_555 1_555
C65C C60C 1_555 1_555
H46C C65C 1_555 1_555
C66C C63C 1_555 1_555
H47C C66C 1_555 1_555
C67C H48C 1_555 1_555
H49C C67C 1_555 1_555
C68C C67C 1_555 1_555
H50C C68C 1_555 1_555
H51C C68C 1_555 1_555
C69C H52C 1_555 1_555
H53C C69C 1_555 1_555
C70C H54C 1_555 1_555
C71C C70C 1_555 1_555
C72C C71C 1_555 1_555
H55C C72C 1_555 1_555
C73C C72C 1_555 1_555
H56C C73C 1_555 1_555
C74C C73C 1_555 1_555
C75C C74C 1_555 1_555
H57C C75C 1_555 1_555
C76C C71C 1_555 1_555
H58C C76C 1_555 1_555
C77C C74C 1_555 1_555
C78C C77C 1_555 1_555
C79C C78C 1_555 1_555
H59C C79C 1_555 1_555
C80C C77C 1_555 1_555
C81C C79 1_555 1_555
H60C C81C 1_555 1_555
C82C N8 1_555 1_555
H61C C82C 1_555 1_555
H62C C82C 1_555 1_555
C83C H63C 1_555 1_555
H64C C83C 1_555 1_555
C84C C69C 1_555 1_555
H65C C84C 1_555 1_555
H66C C84C 1_555 1_555
N1C C1C 1_555 1_555
N2C C3C 1_555 1_555
H67C N2C 1_555 1_555
N3C C8C 1_555 1_555
N4C C13C 1_555 1_555
H68C N4C 1_555 1_555
N5C C27C 1_555 1_555
N6C C35C 1_555 1_555
N7C C43C 1_555 1_555
N8C C44C 1_555 1_555
N9C C46C 1_555 1_555
N10C C55C 1_555 1_555
H69C N10C 1_555 1_555
N11C C66C 1_555 1_555
N12C C68C 1_555 1_555
N13C C69C 1_555 1_555
N14C C78 1_555 1_555
C1A C2A 1_555 1_555
C2A C3A 1_555 1_555
C3A C4A 1_555 1_555
C4A H1A 1_555 1_555
C5A C4A 1_555 1_555
H2A C5A 1_555 1_555
C6A C5A 1_555 1_555
C7A C6A 1_555 1_555
C8A C7A 1_555 1_555
C9A C8A 1_555 1_555
H3A C9A 1_555 1_555
C10A C9A 1_555 1_555
H4A C10A 1_555 1_555
C11A C10A 1_555 1_555
C12A C11A 1_555 1_555
C13A C12A 1_555 1_555
C14A C13A 1_555 1_555
H5A C14A 1_555 1_555
C15A C14A 1_555 1_555
H6A C15A 1_555 1_555
C16A C15A 1_555 1_555
C17A C16A 1_555 1_555
C18A C17A 1_555 1_555
C19A C18A 1_555 1_555
H7A C19A 1_555 1_555
C20A C1A 1_555 1_555
H8A C20A 1_555 1_555
C21A C7A 1_555 1_555
C22A C21A 1_555 1_555
H9A C22A 1_555 1_555
C23A C22A 1_555 1_555
H10A C23A 1_555 1_555
C24A C23A 1_555 1_555
C25A C24A 1_555 1_555
H11A C25A 1_555 1_555
C26A C21A 1_555 1_555
H12A C26A 1_555 1_555
C27A C24A 1_555 1_555
H13A C27A 1_555 1_555
C28A C83C 1_555 1_555
H14A C28A 1_555 1_555
H15A C28A 1_555 1_555
C29A C12A 1_555 1_555
C30A C29A 1_555 1_555
H16A C30A 1_555 1_555
C31A C30A 1_555 1_555
H17A C31A 1_555 1_555
C32A C31A 1_555 1_555
C33A C32A 1_555 1_555
H18A C33A 1_555 1_555
C34A C29A 1_555 1_555
H19A C34A 1_555 1_555
C35A C32A 1_555 1_555
H20A C35A 1_555 1_555
C36A H21A 1_555 1_555
H22A C36A 1_555 1_555
C37A C17A 1_555 1_555
C38A C37A 1_555 1_555
H23A C38A 1_555 1_555
C39A C38A 1_555 1_555
H24A C39A 1_555 1_555
C40A C39A 1_555 1_555
C41A C40A 1_555 1_555
H25A C41A 1_555 1_555
C42A C37A 1_555 1_555
H26A C42A 1_555 1_555
C43A H27A 1_555 1_555
H28A C43A 1_555 1_555
C44A C43A 1_555 1_555
H29A C44A 1_555 1_555
H30A C44A 1_555 1_555
C45A H31A 1_555 1_555
H32A C45A 1_555 1_555
C46A C45A 1_555 1_555
H33A C46A 1_555 1_555
H34A C46A 1_555 1_555
C47A H35A 1_555 1_555
C48A C47A 1_555 1_555
C49A C48A 1_555 1_555
H36A C49A 1_555 1_555
C50A C49A 1_555 1_555
H37A C50A 1_555 1_555
C51A C50A 1_555 1_555
C52A C51A 1_555 1_555
H38A C52A 1_555 1_555
C53A C48A 1_555 1_555
H39A C53A 1_555 1_555
C54A C59C 1_555 1_555
C55A C54A 1_555 1_555
C56A C40A 1_555 1_555
H40A C56A 1_555 1_555
C57A H41A 1_555 1_555
C58A C55A 1_555 1_555
H42A C58A 1_555 1_555
C59A C54B 1_555 1_555
C60A C2A 1_555 1_555
C61A C60A 1_555 1_555
H43A C61A 1_555 1_555
C62A C61A 1_555 1_555
H44A C62A 1_555 1_555
C63A C62A 1_555 1_555
C64A C63A 1_555 1_555
H45A C64A 1_555 1_555
C65A C60A 1_555 1_555
H46A C65A 1_555 1_555
C66A C63A 1_555 1_555
H47A C66A 1_555 1_555
C67A H48A 1_555 1_555
H49A C67A 1_555 1_555
C68A C67A 1_555 1_555
H50A C68A 1_555 1_555
H51A C68A 1_555 1_555
C69A H52A 1_555 1_555
H53A C69A 1_555 1_555
C70A H54A 1_555 1_555
C71A C70A 1_555 1_555
C72A C71A 1_555 1_555
H55A C72A 1_555 1_555
C73A C72A 1_555 1_555
H56A C73A 1_555 1_555
C74A C73A 1_555 1_555
C75A C74A 1_555 1_555
H57A C75A 1_555 1_555
C76A C71A 1_555 1_555
H58A C76A 1_555 1_555
C77A C74A 1_555 1_555
C78A N14B 1_555 1_555
C79A C81B 1_555 1_555
H59A C79A 1_555 1_555
C80A C77A 1_555 1_555
C81A C79C 1_555 1_555
H60A C81A 1_555 1_555
C82A N8C 1_555 1_555
H61A C82A 1_555 1_555
H62A C82A 1_555 1_555
C83A C28B 1_555 1_555
H63A C83A 1_555 1_555
H64A C83A 1_555 1_555
C84A C69A 1_555 1_555
H65A C84A 1_555 1_555
H66A C84A 1_555 1_555
N1A C1A 1_555 1_555
N2A C3A 1_555 1_555
H67A N2A 1_555 1_555
N3A C8A 1_555 1_555
N4A C13A 1_555 1_555
H68A N4A 1_555 1_555
N5A C27A 1_555 1_555
N6A C35A 1_555 1_555
N7A C43A 1_555 1_555
N8A C82B 1_555 1_555
N9A C46A 1_555 1_555
N10A C55A 1_555 1_555
H69A N10A 1_555 1_555
N11A C66A 1_555 1_555
N12A C68A 1_555 1_555
N13A C69A 1_555 1_555
N14A C78C 1_555 1_555
C6 N2 1_555 1_555
C11 N3 1_555 1_555
C16 N4 1_555 1_555
C18 N1 1_555 1_555
C19 C20 1_555 1_555
C25 C26 1_555 1_555
C28 N5 1_555 1_555
C33 C34 1_555 1_555
C36 N6 1_555 1_555
C41 C42 1_555 1_555
C45 N8 1_555 1_555
C47 N9 1_555 1_555
C52 C53 1_555 1_555
C56 N7 1_555 1_555
C57 C58 1_555 1_555
C59 N10 1_555 1_555
C64 C65 1_555 1_555
C67 N11 1_555 1_555
C70 N13 1_555 1_555
C75 C76 1_555 1_555
C83 N12 1_555 1_555
C84 N12 1_555 1_555
C6B N2B 1_555 1_555
C11B N3B 1_555 1_555
C16B N4B 1_555 1_555
C18B N1B 1_555 1_555
C19B C20B 1_555 1_555
C25B C26B 1_555 1_555
C28B N5B 1_555 1_555
C33B C34B 1_555 1_555
C36B N6B 1_555 1_555
C41B C42B 1_555 1_555
C44B N8B 1_555 1_555
C45B N8B 1_555 1_555
C47B N9B 1_555 1_555
C52B C53B 1_555 1_555
C56B N7B 1_555 1_555
C57B C58B 1_555 1_555
C57B C59B 1_555 1_555
C59B N10B 1_555 1_555
C64B C65B 1_555 1_555
C67B N11B 1_555 1_555
C70B N13B 1_555 1_555
C75B C76B 1_555 1_555
C77B C78B 1_555 1_555
C78B C79B 1_555 1_555
C83B N12B 1_555 1_555
C84B N12B 1_555 1_555
C6C N2C 1_555 1_555
C11C N3C 1_555 1_555
C16C N4C 1_555 1_555
C18C N1C 1_555 1_555
C19C C20C 1_555 1_555
C25C C26C 1_555 1_555
C28C N5C 1_555 1_555
C33C C34C 1_555 1_555
C36C C82C 1_555 1_555
C36C N6C 1_555 1_555
C41C C42C 1_555 1_555
C45C N8C 1_555 1_555
C47C N9C 1_555 1_555
C51C C54C 1_555 1_555
C52C C53C 1_555 1_555
C56C N7C 1_555 1_555
C57C C58C 1_555 1_555
C59C N10C 1_555 1_555
C64C C65C 1_555 1_555
C67C N11C 1_555 1_555
C70C N13C 1_555 1_555
C75C C76C 1_555 1_555
C80C C81C 1_555 1_555
C80C N14C 1_555 1_555
C83C N12C 1_555 1_555
C84C N12C 1_555 1_555
C6A N2A 1_555 1_555
C11A N3A 1_555 1_555
C16A N4A 1_555 1_555
C18A N1A 1_555 1_555
C19A C20A 1_555 1_555
C25A C26A 1_555 1_555
C28A N5A 1_555 1_555
C33A C34A 1_555 1_555
C36A C82A 1_555 1_555
C36A N6A 1_555 1_555
C41A C42A 1_555 1_555
C44A N8A 1_555 1_555
C45A N8A 1_555 1_555
C47A N9A 1_555 1_555
C51A C54A 1_555 1_555
C52A C53A 1_555 1_555
C56A N7A 1_555 1_555
C57A C58A 1_555 1_555
C57A C59A 1_555 1_555
C59A N10A 1_555 1_555
C64A C65A 1_555 1_555
C67A N11A 1_555 1_555
C70A N13A 1_555 1_555
C75A C76A 1_555 1_555
C77A C78A 1_555 1_555
C78A C79A 1_555 1_555
C80A C81A 1_555 1_555
C80A N14A 1_555 1_555
C83A N12A 1_555 1_555
C84A N12A 1_555 1_555

#END
