
#######################################################################
#
#                 Cambridge Crystallographic Data Centre
#                                CCDC 
#
#######################################################################
#
# If this CIF has been generated from an entry in the Cambridge 
# Structural Database, then it will include bibliographic, chemical, 
# crystal, experimental, refinement or atomic coordinate data resulting 
# from the CCDC's data processing and validation procedures.
#
#######################################################################

data_QUGJEJ
_chemical_name_common            
1,8-oxybis(ethyleneethoxyethyleneseleno)anthracene-9,10-dione
_chemical_formula_moiety         'C22 H22 O6 Se1'
_chemical_name_systematic        
6,9,15,18-tetraoxa-12-selenatetracyclo[21.3.1.0^5,26^.0^19,24^]heptacosa-1(26),2,4,19,21,23-hexaene-25,27-dione
_symmetry_cell_setting           monoclinic
_symmetry_space_group_name_H-M   'P 21/c'
_symmetry_Int_Tables_number      14
_space_group_name_Hall           '-P 2ybc'
loop_
_symmetry_equiv_pos_site_id
_symmetry_equiv_pos_as_xyz
1 x,y,z
2 -x,1/2+y,1/2-z
3 -x,-y,-z
4 x,1/2-y,1/2+z
_cell_length_a                   7.4979(8)
_cell_length_b                   16.0574(17)
_cell_length_c                   16.3759(17)
_cell_angle_alpha                90
_cell_angle_beta                 100.5730(10)
_cell_angle_gamma                90
_cell_volume                     1938.13
_exptl_crystal_colour            yellow
_exptl_crystal_description       needle
_cell_formula_units_Z            4
loop_
_atom_site_label
_atom_site_type_symbol
_atom_site_fract_x
_atom_site_fract_y
_atom_site_fract_z
Se1 Se 0.51812(5) 0.38863(3) 0.43369(3)
O1 O 0.7073(3) 0.07850(17) 0.35924(14)
O2 O 1.0470(3) 0.21499(15) 0.61989(14)
O3 O 1.0404(3) 0.39410(15) 0.56921(15)
O4 O 0.6224(3) 0.23159(18) 0.24734(15)
C1 C 0.9168(5) 0.0817(2) 0.6227(2)
C2 C 1.1658(5) 0.2787(2) 0.6586(2)
H1 H 1.2818 0.2550 0.6839
H2 H 1.1137 0.3062 0.7015
C3 C 1.0114(4) 0.1490(2) 0.6655(2)
O5 O 0.7778(4) -0.12693(19) 0.66486(18)
C4 C 0.6318(5) -0.1295(2) 0.4979(3)
H3 H 0.6187 -0.1769 0.5289
C5 C 1.0646(5) 0.1457(2) 0.7512(2)
H4 H 1.1244 0.1908 0.7796
C6 C 0.8867(5) 0.3575(2) 0.5170(2)
H5 H 0.8300 0.3168 0.5478
H6 H 0.9234 0.3298 0.4701
C7 C 0.6778(5) 0.0108(2) 0.4036(2)
C8 C 1.0291(5) 0.0757(2) 0.7944(2)
H7 H 1.0645 0.0743 0.8519
C9 C 0.7261(5) -0.0606(2) 0.5350(2)
C10 C 0.7513(4) 0.0106(2) 0.4897(2)
C11 C 0.6403(5) 0.0801(3) 0.2714(2)
H8 H 0.5087 0.0816 0.2603
H9 H 0.6794 0.0307 0.2455
C12 C 0.5724(5) 0.3462(3) 0.3298(2)
H10 H 0.4654 0.3526 0.2869
H11 H 0.6678 0.3801 0.3141
C13 C 0.8867(4) 0.0109(2) 0.6679(2)
C14 C 0.5800(5) -0.0571(3) 0.3686(2)
H12 H 0.5277 -0.0558 0.3125
C15 C 0.9424(5) 0.0082(2) 0.7540(2)
H13 H 0.9209 -0.0390 0.7836
C16 C 1.1903(5) 0.3396(2) 0.5923(2)
H14 H 1.2982 0.3725 0.6118
H15 H 1.2097 0.3090 0.5436
C17 C 0.7147(5) 0.1564(3) 0.2377(2)
H16 H 0.8404 0.1627 0.2647
H17 H 0.7133 0.1479 0.1789
C18 C 0.5584(5) -0.1263(3) 0.4145(3)
H18 H 0.4935 -0.1717 0.3891
C19 C 0.6307(5) 0.2569(2) 0.3321(2)
H19 H 0.7533 0.2512 0.3631
H20 H 0.5504 0.2229 0.3584
C20 C 0.7571(5) 0.4269(2) 0.4876(2)
H21 H 0.8081 0.4613 0.4489
H22 H 0.7441 0.4614 0.5348
C21 C 0.8288(11) 0.0892(4) 0.5328(4)
O6 O 0.8165(8) 0.1580(4) 0.4988(4)
C22 C 0.7958(5) -0.0636(3) 0.6259(2)
O7? O 0.8945(9) 0.1396(4) 0.4885(5)
C23? C 0.8605(13) 0.0822(5) 0.5302(4)
loop_
_geom_bond_atom_site_label_1
_geom_bond_atom_site_label_2
_geom_bond_site_symmetry_1
_geom_bond_site_symmetry_2
Se1 C12 1_555 1_555
O1 C7 1_555 1_555
O2 C2 1_555 1_555
O3 C6 1_555 1_555
O4 C17 1_555 1_555
C1 C3 1_555 1_555
C2 H1 1_555 1_555
H2 C2 1_555 1_555
C3 O2 1_555 1_555
O5 C22 1_555 1_555
C4 H3 1_555 1_555
C5 C3 1_555 1_555
H4 C5 1_555 1_555
C6 H5 1_555 1_555
H6 C6 1_555 1_555
C7 C10 1_555 1_555
C8 C5 1_555 1_555
H7 C8 1_555 1_555
C9 C4 1_555 1_555
C10 C9 1_555 1_555
C11 O1 1_555 1_555
H8 C11 1_555 1_555
H9 C11 1_555 1_555
C12 H10 1_555 1_555
H11 C12 1_555 1_555
C13 C1 1_555 1_555
C14 C7 1_555 1_555
H12 C14 1_555 1_555
C15 C8 1_555 1_555
H13 C15 1_555 1_555
C16 O3 1_555 1_555
H14 C16 1_555 1_555
H15 C16 1_555 1_555
C17 C11 1_555 1_555
H16 C17 1_555 1_555
H17 C17 1_555 1_555
C18 C4 1_555 1_555
H18 C18 1_555 1_555
C19 O4 1_555 1_555
H19 C19 1_555 1_555
H20 C19 1_555 1_555
C20 Se1 1_555 1_555
H21 C20 1_555 1_555
H22 C20 1_555 1_555
C21 C1 1_555 1_555
O6 C21 1_555 1_555
C22 C9 1_555 1_555
C2 C16 1_555 1_555
C6 C20 1_555 1_555
C10 C21 1_555 1_555
C12 C19 1_555 1_555
C13 C15 1_555 1_555
C13 C22 1_555 1_555
C14 C18 1_555 1_555

#END
