
#######################################################################
#
#                 Cambridge Crystallographic Data Centre
#                                CCDC 
#
#######################################################################
#
# If this CIF has been generated from an entry in the Cambridge 
# Structural Database, then it will include bibliographic, chemical, 
# crystal, experimental, refinement or atomic coordinate data resulting 
# from the CCDC's data processing and validation procedures.
#
#######################################################################

data_QUGPEP
_chemical_formula_moiety         'C20 H23 N3 O4'
_chemical_name_systematic        
'rac-t-Butyl 3-((2R,3S,5S)-5-cyano-3-(methoxycarbonyl)pyrrolidin-2-yl)-1H-indole-1-carboxylate'
_symmetry_cell_setting           monoclinic
_symmetry_space_group_name_H-M   'P 21/n'
_symmetry_Int_Tables_number      14
_space_group_name_Hall           '-P 2yn'
loop_
_symmetry_equiv_pos_site_id
_symmetry_equiv_pos_as_xyz
1 x,y,z
2 1/2-x,1/2+y,1/2-z
3 -x,-y,-z
4 1/2+x,1/2-y,1/2+z
_cell_length_a                   18.1936(7)
_cell_length_b                   5.6224(2)
_cell_length_c                   19.0039(7)
_cell_angle_alpha                90
_cell_angle_beta                 106.914(4)
_cell_angle_gamma                90
_cell_volume                     1859.85
_exptl_crystal_colour            colorless
_exptl_crystal_description       Block
_chemical_melting_point          '409-410 K'
_cell_formula_units_Z            4
loop_
_atom_site_label
_atom_site_type_symbol
_atom_site_fract_x
_atom_site_fract_y
_atom_site_fract_z
C1 C 0.48077(7) 0.2778(2) 0.21481(7)
H1 H 0.4293 0.2296 0.1919
C2 C 0.52831(7) 0.1749(2) 0.27500(7)
C3 C 0.60085(7) 0.3007(3) 0.29131(7)
C4 C 0.67139(7) 0.2715(3) 0.34520(7)
H2 H 0.6787 0.1459 0.3800
C5 C 0.73008(8) 0.4288(3) 0.34680(7)
H3 H 0.7783 0.4108 0.3831
C6 C 0.71970(8) 0.6135(3) 0.29598(7)
H4 H 0.7607 0.7213 0.2991
C7 C 0.65117(8) 0.6441(3) 0.24107(7)
H5 H 0.6445 0.7697 0.2063
C8 C 0.59267(7) 0.4834(3) 0.23899(7)
C9 C 0.51144(7) -0.0276(2) 0.31930(7)
H6 H 0.5578 -0.1318 0.3360
C10 C 0.48661(7) 0.0548(3) 0.38786(7)
H7 H 0.4956 -0.0783 0.4243
C11 C 0.40037(7) 0.0914(3) 0.35504(7)
H8 H 0.3890 0.2454 0.3289
H9 H 0.3735 0.0844 0.3934
C12 C 0.37791(7) -0.1188(3) 0.30153(7)
H10 H 0.3660 -0.2602 0.3281
C13 C 0.31092(8) -0.0630(3) 0.23807(8)
C14 C 0.52791(7) 0.2725(3) 0.42513(7)
C15 C 0.63923(8) 0.4119(3) 0.51359(8)
H11 H 0.6851 0.3520 0.5504
H12 H 0.6093 0.5105 0.5378
H13 H 0.6547 0.5076 0.4772
C16 C 0.48655(8) 0.6182(3) 0.13177(7)
C17 C 0.36779(8) 0.6950(3) 0.03434(8)
C18 C 0.36693(9) 0.9579(3) 0.05078(8)
H14 H 0.4186 1.0237 0.0587
H15 H 0.3507 0.9814 0.0951
H16 H 0.3310 1.0391 0.0092
C19 C 0.39932(10) 0.6414(3) -0.02962(8)
H17 H 0.4507 0.7106 -0.0199
H18 H 0.3653 0.7102 -0.0748
H19 H 0.4023 0.4688 -0.0355
C20 C 0.28788(9) 0.5912(3) 0.02196(9)
H20 H 0.2692 0.6288 0.0641
H21 H 0.2899 0.4181 0.0165
H22 H 0.2529 0.6595 -0.0228
N1 N 0.51794(6) 0.4659(2) 0.19085(6)
N2 N 0.44556(7) -0.1706(2) 0.27633(6)
H23 H 0.4568(9) -0.320(3) 0.2844(9)
N3 N 0.25919(8) -0.0207(3) 0.18863(7)
O1 O 0.50705(6) 0.47465(18) 0.41056(5)
O2 O 0.59289(5) 0.21368(18) 0.47724(5)
O3 O 0.52297(6) 0.77247(19) 0.11369(5)
O4 O 0.41309(5) 0.56265(18) 0.10038(5)
loop_
_geom_bond_atom_site_label_1
_geom_bond_atom_site_label_2
_geom_bond_site_symmetry_1
_geom_bond_site_symmetry_2
C1 H1 1_555 1_555
C2 C1 1_555 1_555
C3 C2 1_555 1_555
C4 C3 1_555 1_555
H2 C4 1_555 1_555
C5 C4 1_555 1_555
H3 C5 1_555 1_555
C6 C5 1_555 1_555
H4 C6 1_555 1_555
C7 C6 1_555 1_555
H5 C7 1_555 1_555
C8 C3 1_555 1_555
C9 C2 1_555 1_555
H6 C9 1_555 1_555
C10 C9 1_555 1_555
H7 C10 1_555 1_555
C11 C10 1_555 1_555
H8 C11 1_555 1_555
H9 C11 1_555 1_555
C12 C11 1_555 1_555
H10 C12 1_555 1_555
C13 C12 1_555 1_555
C14 C10 1_555 1_555
C15 H11 1_555 1_555
H12 C15 1_555 1_555
H13 C15 1_555 1_555
C16 N1 1_555 1_555
C17 C18 1_555 1_555
C18 H14 1_555 1_555
H15 C18 1_555 1_555
H16 C18 1_555 1_555
C19 C17 1_555 1_555
H17 C19 1_555 1_555
H18 C19 1_555 1_555
H19 C19 1_555 1_555
C20 C17 1_555 1_555
H20 C20 1_555 1_555
H21 C20 1_555 1_555
H22 C20 1_555 1_555
N1 C1 1_555 1_555
N2 C9 1_555 1_555
H23 N2 1_555 1_555
N3 C13 1_555 1_555
O1 C14 1_555 1_555
O2 C14 1_555 1_555
O3 C16 1_555 1_555
O4 C16 1_555 1_555
C7 C8 1_555 1_555
C8 N1 1_555 1_555
C12 N2 1_555 1_555
C15 O2 1_555 1_555
C17 O4 1_555 1_555

#END
