
#######################################################################
#
#                 Cambridge Crystallographic Data Centre
#                                CCDC 
#
#######################################################################
#
# If this CIF has been generated from an entry in the Cambridge 
# Structural Database, then it will include bibliographic, chemical, 
# crystal, experimental, refinement or atomic coordinate data resulting 
# from the CCDC's data processing and validation procedures.
#
#######################################################################

data_QUGRUH
_chemical_name_common            
'Phenyl-(5,10-diphenyl-15-oxysubporphyrinato radical)-boron'
_chemical_formula_moiety         'C33 H21 B1 N3 O1,0.5(C1 H4 O1)'
_chemical_name_systematic        
'6,9,9c-Triphenyl-3H-8b,9b,9d-triaza-9\L^5^-boratricyclopenta[cd,gh,kl]phenalen-3-oxyl radical methanol solvate'
_symmetry_cell_setting           orthorhombic
_symmetry_space_group_name_H-M   'P b c a'
_symmetry_Int_Tables_number      61
_space_group_name_Hall           '-P 2ac 2ab'
loop_
_symmetry_equiv_pos_site_id
_symmetry_equiv_pos_as_xyz
1 x,y,z
2 1/2-x,-y,1/2+z
3 1/2+x,1/2-y,-z
4 -x,1/2+y,1/2-z
5 -x,-y,-z
6 1/2+x,y,1/2-z
7 1/2-x,1/2+y,z
8 x,1/2-y,1/2+z
_cell_length_a                   10.4096(17)
_cell_length_b                   20.892(4)
_cell_length_c                   44.027(7)
_cell_angle_alpha                90
_cell_angle_beta                 90
_cell_angle_gamma                90
_cell_volume                     9574.88
_exptl_crystal_colour            green
_exptl_crystal_description       Prism
_cell_formula_units_Z            16
_exptl_crystal_recrystallization_method methanol/tetrahydrofuran
loop_
_atom_site_label
_atom_site_type_symbol
_atom_site_fract_x
_atom_site_fract_y
_atom_site_fract_z
O1 O 0.3123(2) 0.01795(10) 0.04492(5)
N1 N -0.0022(2) -0.04764(11) 0.04238(5)
N2 N -0.0065(2) 0.05199(11) 0.06886(5)
N3 N -0.2010(2) -0.00243(11) 0.05750(5)
C1 C 0.1957(3) 0.01384(14) 0.04803(6)
C2 C -0.0647(3) -0.08886(13) 0.02315(6)
C3 C 0.0234(3) 0.15540(15) 0.07889(7)
H1 H 0.0090 0.1984 0.0850
C4 C -0.2874(3) 0.15913(14) 0.08718(6)
C5 C -0.0586(3) -0.04990(13) 0.10075(6)
C6 C -0.2639(3) 0.22021(15) 0.07587(7)
H2 H -0.1924 0.2273 0.0629
C7 C -0.3842(3) -0.13393(15) -0.00868(7)
H3 H -0.4267 -0.0938 -0.0073
C8 C -0.3992(3) -0.01902(14) 0.04006(6)
H4 H -0.4716 -0.0383 0.0306
C9 C -0.2717(3) 0.04899(13) 0.06664(6)
C10 C -0.2086(3) -0.20295(14) 0.00389(7)
H5 H -0.1293 -0.2103 0.0140
C11 C -0.1645(3) -0.05840(15) 0.11924(7)
H6 H -0.2464 -0.0446 0.1123
C12 C 0.0594(3) -0.07122(14) 0.11180(7)
H7 H 0.1339 -0.0661 0.0996
C13 C -0.2665(3) -0.14288(14) 0.00602(6)
C14 C -0.3995(3) 0.03710(14) 0.05627(6)
H8 H -0.4721 0.0635 0.0600
C15 C 0.1396(3) 0.12949(14) 0.06998(7)
H9 H 0.2191 0.1516 0.0686
C16 C -0.2020(3) -0.09229(14) 0.02367(6)
C17 C -0.3438(3) 0.27055(15) 0.08336(7)
H10 H -0.3272 0.3121 0.0755
C18 C -0.2700(3) -0.04348(13) 0.03987(6)
C19 C -0.4390(3) -0.18321(15) -0.02522(7)
H11 H -0.5187 -0.1764 -0.0352
C20 C 0.1438(3) -0.07890(14) 0.00869(7)
H12 H 0.2230 -0.0837 -0.0018
C21 C 0.1183(3) 0.06369(14) 0.06330(6)
C22 C -0.0709(3) 0.10608(14) 0.07736(6)
C23 C 0.1210(3) -0.03872(14) 0.03417(6)
C24 C -0.3928(3) 0.14969(15) 0.10626(7)
H13 H -0.4103 0.1082 0.1141
C25 C -0.2079(3) 0.10390(14) 0.07824(6)
C26 C -0.3794(3) -0.24205(15) -0.02734(7)
H14 H -0.4174 -0.2755 -0.0389
C27 C -0.2638(3) -0.25190(15) -0.01254(7)
H15 H -0.2226 -0.2924 -0.0137
C28 C 0.0303(3) -0.10967(14) 0.00191(7)
H16 H 0.0174 -0.1395 -0.0141
C29 C 0.0714(3) -0.09961(15) 0.14004(7)
H17 H 0.1529 -0.1138 0.1470
C30 C -0.0363(3) -0.10716(16) 0.15812(7)
H18 H -0.0289 -0.1264 0.1776
C31 C -0.4719(3) 0.20032(16) 0.11380(7)
H19 H -0.5430 0.1936 0.1270
C32 C -0.1542(3) -0.08666(15) 0.14781(7)
H20 H -0.2284 -0.0918 0.1601
B1 B -0.0667(3) -0.01365(16) 0.06822(7)
C33 C -0.4480(3) 0.26067(16) 0.10230(7)
H21 H -0.5030 0.2953 0.1074
N4 N 0.0072(3) 0.18157(12) 0.16065(6)
O2 O -0.3251(2) 0.18091(12) 0.18070(6)
N5 N 0.1704(3) 0.25070(12) 0.17922(6)
N6 N -0.0474(3) 0.28065(13) 0.18435(6)
C34 C 0.3410(3) 0.28782(16) 0.20402(7)
H22 H 0.3957 0.3146 0.2157
C35 C 0.0569(3) 0.28805(15) 0.13037(7)
C36 C 0.3743(3) 0.22992(16) 0.19147(7)
H23 H 0.4564 0.2102 0.1925
C37 C 0.1577(3) 0.40306(15) 0.22432(7)
C38 C 0.2629(3) 0.20460(15) 0.17651(7)
C39 C -0.0481(3) 0.31777(16) 0.11687(7)
H24 H -0.1290 0.3166 0.1269
C40 C 0.2100(3) 0.30082(15) 0.19650(7)
C41 C 0.4133(3) 0.07680(16) 0.18144(8)
H25 H 0.4211 0.1027 0.1991
C42 C -0.0379(3) 0.34903(16) 0.08916(8)
H26 H -0.1114 0.3691 0.0806
C43 C -0.1333(3) 0.35126(16) 0.21640(7)
H27 H -0.1448 0.3873 0.2293
C44 C 0.2572(3) 0.44095(16) 0.21383(7)
H28 H 0.3010 0.4293 0.1957
C45 C -0.2141(3) 0.20055(17) 0.17653(7)
C46 C -0.1076(3) 0.09138(16) 0.16144(7)
H29 H -0.1783 0.0626 0.1621
C47 C -0.0163(3) 0.33209(15) 0.20233(7)
C48 C 0.0944(3) 0.13249(15) 0.15821(7)
C49 C 0.3186(3) 0.09093(15) 0.16000(7)
C50 C 0.1728(3) 0.29144(15) 0.11469(7)
H30 H 0.2468 0.2720 0.1233
C51 C 0.3101(3) 0.05176(16) 0.13430(7)
H31 H 0.2463 0.0604 0.1194
C52 C 0.1838(3) 0.32225(16) 0.08696(7)
H32 H 0.2644 0.3234 0.0768
C53 C 0.3926(3) 0.00096(17) 0.13021(8)
H33 H 0.3863 -0.0248 0.1125
C54 C 0.2262(3) 0.14405(15) 0.16397(7)
C55 C 0.0970(3) 0.42064(16) 0.25145(7)
H34 H 0.0290 0.3951 0.2592
C56 C -0.2273(3) 0.30780(16) 0.20798(7)
H35 H -0.3143 0.3081 0.2146
C57 C 0.1350(4) 0.47492(17) 0.26713(8)
H36 H 0.0934 0.4862 0.2856
C58 C 0.0195(3) 0.07513(16) 0.15767(7)
H37 H 0.0520 0.0330 0.1551
C59 C 0.0781(3) 0.35125(16) 0.07396(8)
H38 H 0.0851 0.3723 0.0549
C60 C 0.2942(4) 0.49604(17) 0.22941(8)
H39 H 0.3614 0.5221 0.2217
C61 C 0.1167(3) 0.34649(15) 0.20678(7)
C62 C -0.1720(3) 0.26326(16) 0.18808(7)
C63 C 0.4952(3) 0.02595(17) 0.17744(8)
H40 H 0.5593 0.0171 0.1922
C64 C 0.4846(3) -0.01256(16) 0.15191(8)
H41 H 0.5404 -0.0481 0.1493
C65 C -0.1137(3) 0.15917(16) 0.16409(7)
C66 C 0.2334(4) 0.51277(17) 0.25600(8)
H42 H 0.2589 0.5502 0.2667
B2 B 0.0462(4) 0.25116(18) 0.16235(8)
O3 O 0.5851(6) 0.1345(3) 0.23670(12)
H43 H 0.6372 0.1505 0.2243
C67 C 0.5623(10) 0.1743(3) 0.25760(12)
H44 H 0.5385 0.1514 0.2762
H45 H 0.4915 0.2024 0.2514
H46 H 0.6392 0.2001 0.2614
loop_
_geom_bond_atom_site_label_1
_geom_bond_atom_site_label_2
_geom_bond_site_symmetry_1
_geom_bond_site_symmetry_2
O1 C1 1_555 1_555
N1 C2 1_555 1_555
N2 C21 1_555 1_555
N3 C9 1_555 1_555
C1 C21 1_555 1_555
C2 C16 1_555 1_555
C3 H1 1_555 1_555
C4 C6 1_555 1_555
C5 C11 1_555 1_555
C6 H2 1_555 1_555
C7 H3 1_555 1_555
C8 H4 1_555 1_555
C9 C14 1_555 1_555
C10 H5 1_555 1_555
C11 H6 1_555 1_555
C12 C5 1_555 1_555
H7 C12 1_555 1_555
C13 C7 1_555 1_555
C14 C8 1_555 1_555
H8 C14 1_555 1_555
C15 C3 1_555 1_555
H9 C15 1_555 1_555
C16 C13 1_555 1_555
C17 C6 1_555 1_555
H10 C17 1_555 1_555
C18 N3 1_555 1_555
C19 C7 1_555 1_555
H11 C19 1_555 1_555
C20 H12 1_555 1_555
C21 C15 1_555 1_555
C22 N2 1_555 1_555
C23 N1 1_555 1_555
C24 C4 1_555 1_555
H13 C24 1_555 1_555
C25 C4 1_555 1_555
C26 C19 1_555 1_555
H14 C26 1_555 1_555
C27 C10 1_555 1_555
H15 C27 1_555 1_555
C28 C2 1_555 1_555
H16 C28 1_555 1_555
C29 C12 1_555 1_555
H17 C29 1_555 1_555
C30 C29 1_555 1_555
H18 C30 1_555 1_555
C31 C24 1_555 1_555
H19 C31 1_555 1_555
C32 C11 1_555 1_555
H20 C32 1_555 1_555
B1 N1 1_555 1_555
C33 C17 1_555 1_555
H21 C33 1_555 1_555
N4 C48 1_555 1_555
O2 C45 1_555 1_555
N5 C38 1_555 1_555
N6 C47 1_555 1_555
C34 H22 1_555 1_555
C35 C39 1_555 1_555
C36 C34 1_555 1_555
H23 C36 1_555 1_555
C37 C44 1_555 1_555
C38 C36 1_555 1_555
C39 H24 1_555 1_555
C40 N5 1_555 1_555
C41 H25 1_555 1_555
C42 C39 1_555 1_555
H26 C42 1_555 1_555
C43 H27 1_555 1_555
C44 H28 1_555 1_555
C45 C62 1_555 1_555
C46 H29 1_555 1_555
C47 C43 1_555 1_555
C48 C54 1_555 1_555
C49 C41 1_555 1_555
C50 C35 1_555 1_555
H30 C50 1_555 1_555
C51 C49 1_555 1_555
H31 C51 1_555 1_555
C52 C50 1_555 1_555
H32 C52 1_555 1_555
C53 C51 1_555 1_555
H33 C53 1_555 1_555
C54 C38 1_555 1_555
C55 C37 1_555 1_555
H34 C55 1_555 1_555
C56 C43 1_555 1_555
H35 C56 1_555 1_555
C57 C55 1_555 1_555
H36 C57 1_555 1_555
C58 C46 1_555 1_555
H37 C58 1_555 1_555
C59 C42 1_555 1_555
H38 C59 1_555 1_555
C60 C44 1_555 1_555
H39 C60 1_555 1_555
C61 C37 1_555 1_555
C62 N6 1_555 1_555
C63 C41 1_555 1_555
H40 C63 1_555 1_555
C64 C53 1_555 1_555
H41 C64 1_555 1_555
C65 N4 1_555 1_555
C66 C57 1_555 1_555
H42 C66 1_555 1_555
B2 N4 1_555 1_555
O3 H43 1_555 1_555
C67 O3 1_555 1_555
H44 C67 1_555 1_555
H45 C67 1_555 1_555
H46 C67 1_555 1_555
N2 B1 1_555 1_555
N3 B1 1_555 1_555
C1 C23 1_555 1_555
C3 C22 1_555 1_555
C5 B1 1_555 1_555
C8 C18 1_555 1_555
C9 C25 1_555 1_555
C10 C13 1_555 1_555
C16 C18 1_555 1_555
C20 C23 1_555 1_555
C20 C28 1_555 1_555
C22 C25 1_555 1_555
C26 C27 1_555 1_555
C30 C32 1_555 1_555
C31 C33 1_555 1_555
N5 B2 1_555 1_555
N6 B2 1_555 1_555
C34 C40 1_555 1_555
C35 B2 1_555 1_555
C40 C61 1_555 1_555
C45 C65 1_555 1_555
C46 C65 1_555 1_555
C47 C61 1_555 1_555
C48 C58 1_555 1_555
C49 C54 1_555 1_555
C52 C59 1_555 1_555
C56 C62 1_555 1_555
C60 C66 1_555 1_555
C63 C64 1_555 1_555

#END
