
#######################################################################
#
#                 Cambridge Crystallographic Data Centre
#                                CCDC 
#
#######################################################################
#
# If this CIF has been generated from an entry in the Cambridge 
# Structural Database, then it will include bibliographic, chemical, 
# crystal, experimental, refinement or atomic coordinate data resulting 
# from the CCDC's data processing and validation procedures.
#
#######################################################################

data_QUHKUA
_chemical_formula_moiety         'C25 H22 Cl4 O2 P2 Te1'
_chemical_name_systematic        
Tetrachloro-(bis(diphenylphosphinoyl)methane)-tellurium(iv)
_symmetry_cell_setting           monoclinic
_symmetry_space_group_name_H-M   'C c'
_symmetry_Int_Tables_number      9
_space_group_name_Hall           'C -2yc'
loop_
_symmetry_equiv_pos_site_id
_symmetry_equiv_pos_as_xyz
1 x,y,z
2 x,-y,1/2+z
3 1/2+x,1/2+y,z
4 1/2+x,1/2-y,1/2+z
_cell_length_a                   11.807(5)
_cell_length_b                   14.110(5)
_cell_length_c                   16.261(5)
_cell_angle_alpha                90
_cell_angle_beta                 90.032(6)
_cell_angle_gamma                90
_cell_volume                     2709.03
_exptl_crystal_colour            orange
_exptl_crystal_description       block
_cell_formula_units_Z            4
_exptl_crystal_recrystallization_method dichloromethane
loop_
_atom_site_label
_atom_site_type_symbol
_atom_site_fract_x
_atom_site_fract_y
_atom_site_fract_z
Te1 Te 0.26316(3) 0.486448(18) 0.60117(3)
Cl1 Cl 0.28028(14) 0.30094(9) 0.58529(8)
Cl2 Cl 0.1012(2) 0.48436(15) 0.51179(15)
Cl3 Cl 0.23092(13) 0.65492(10) 0.62339(9)
Cl4 Cl 0.15997(14) 0.45862(12) 0.72489(9)
P1 P 0.52270(13) 0.57352(11) 0.68111(9)
P2 P 0.49863(13) 0.58815(11) 0.49306(9)
O1 O 0.4275(5) 0.5018(3) 0.6795(3)
O2 O 0.3902(4) 0.5300(3) 0.4951(3)
C1 C 0.5054(6) 0.6522(4) 0.7665(3)
C2 C 0.4103(6) 0.6400(5) 0.8168(4)
H1 H 0.3568 0.5917 0.8048
C3 C 0.3946(6) 0.6988(6) 0.8844(4)
H2 H 0.3305 0.6906 0.9189
C4 C 0.4725(7) 0.7694(6) 0.9013(4)
H3 H 0.4612 0.8102 0.9469
C5 C 0.5672(7) 0.7806(5) 0.8518(5)
H4 H 0.6207 0.8289 0.8640
C6 C 0.5839(6) 0.7224(5) 0.7851(4)
H5 H 0.6493 0.7301 0.7518
C7 C 0.6557(5) 0.5130(4) 0.6872(4)
C8 C 0.6556(6) 0.4217(5) 0.7213(4)
H6 H 0.5864 0.3949 0.7400
C9 C 0.7543(7) 0.3701(5) 0.7279(3)
H7 H 0.7535 0.3089 0.7522
C10 C 0.8535(6) 0.4078(5) 0.6992(4)
H8 H 0.9215 0.3720 0.7026
C11 C 0.8556(6) 0.4982(5) 0.6653(5)
H9 H 0.9250 0.5239 0.6460
C12 C 0.7573(6) 0.5509(4) 0.6592(3)
H10 H 0.7591 0.6127 0.6360
C13 C 0.6192(5) 0.5136(4) 0.4737(3)
C14 C 0.6142(6) 0.4195(4) 0.4993(4)
H11 H 0.5472 0.3948 0.5236
C15 C 0.7084(7) 0.3626(5) 0.4888(4)
H12 H 0.7063 0.2987 0.5073
C16 C 0.8048(6) 0.3965(5) 0.4520(4)
H13 H 0.8683 0.3560 0.4452
C17 C 0.8100(6) 0.4892(5) 0.4250(4)
H14 H 0.8766 0.5123 0.3991
C18 C 0.7161(5) 0.5490(5) 0.4362(4)
H15 H 0.7188 0.6130 0.4182
C19 C 0.4927(5) 0.6770(5) 0.4159(3)
C20 C 0.4138(6) 0.6654(5) 0.3521(4)
H16 H 0.3616 0.6141 0.3534
C21 C 0.4124(7) 0.7294(6) 0.2868(4)
H17 H 0.3579 0.7225 0.2442
C22 C 0.4889(7) 0.8022(6) 0.2836(4)
H18 H 0.4885 0.8446 0.2382
C23 C 0.5664(6) 0.8143(5) 0.3460(4)
H19 H 0.6192 0.8650 0.3429
C24 C 0.5688(6) 0.7537(5) 0.4134(4)
H20 H 0.6210 0.7639 0.4571
C25 C 0.5243(5) 0.6490(4) 0.5899(4)
H21 H 0.4662 0.6989 0.5967
H22 H 0.5989 0.6808 0.5868
loop_
_geom_bond_atom_site_label_1
_geom_bond_atom_site_label_2
_geom_bond_site_symmetry_1
_geom_bond_site_symmetry_2
Te1 Cl1 1_555 1_555
Cl2 Te1 1_555 1_555
Cl3 Te1 1_555 1_555
Cl4 Te1 1_555 1_555
P1 O1 1_555 1_555
P2 O2 1_555 1_555
O1 Te1 1_555 1_555
O2 Te1 1_555 1_555
C1 P1 1_555 1_555
C2 C1 1_555 1_555
H1 C2 1_555 1_555
C3 C2 1_555 1_555
H2 C3 1_555 1_555
C4 C3 1_555 1_555
H3 C4 1_555 1_555
C5 C4 1_555 1_555
H4 C5 1_555 1_555
C6 C1 1_555 1_555
H5 C6 1_555 1_555
C7 P1 1_555 1_555
C8 C7 1_555 1_555
H6 C8 1_555 1_555
C9 C8 1_555 1_555
H7 C9 1_555 1_555
C10 C9 1_555 1_555
H8 C10 1_555 1_555
C11 C10 1_555 1_555
H9 C11 1_555 1_555
C12 C7 1_555 1_555
H10 C12 1_555 1_555
C13 P2 1_555 1_555
C14 C13 1_555 1_555
H11 C14 1_555 1_555
C15 C14 1_555 1_555
H12 C15 1_555 1_555
C16 C15 1_555 1_555
H13 C16 1_555 1_555
C17 C16 1_555 1_555
H14 C17 1_555 1_555
C18 C13 1_555 1_555
H15 C18 1_555 1_555
C19 P2 1_555 1_555
C20 C19 1_555 1_555
H16 C20 1_555 1_555
C21 C20 1_555 1_555
H17 C21 1_555 1_555
C22 C21 1_555 1_555
H18 C22 1_555 1_555
C23 C22 1_555 1_555
H19 C23 1_555 1_555
C24 C19 1_555 1_555
H20 C24 1_555 1_555
C25 P1 1_555 1_555
H21 C25 1_555 1_555
H22 C25 1_555 1_555
P2 C25 1_555 1_555
C5 C6 1_555 1_555
C11 C12 1_555 1_555
C17 C18 1_555 1_555
C23 C24 1_555 1_555

#END
