
#######################################################################
#
#                 Cambridge Crystallographic Data Centre
#                                CCDC 
#
#######################################################################
#
# If this CIF has been generated from an entry in the Cambridge 
# Structural Database, then it will include bibliographic, chemical, 
# crystal, experimental, refinement or atomic coordinate data resulting 
# from the CCDC's data processing and validation procedures.
#
#######################################################################

data_QUHKOU
_chemical_formula_moiety         'C36 H30 Br4 O2 P2 Te1'
_chemical_name_systematic        
'Tetrabromo-bis(triphenylphosphine oxide)-tellurium(iv)'
_symmetry_cell_setting           orthorhombic
_symmetry_space_group_name_H-M   'P n a 21'
_symmetry_Int_Tables_number      33
_space_group_name_Hall           'P 2c -2n'
loop_
_symmetry_equiv_pos_site_id
_symmetry_equiv_pos_as_xyz
1 x,y,z
2 -x,-y,1/2+z
3 1/2+x,1/2-y,z
4 1/2-x,1/2+y,1/2+z
_cell_length_a                   20.920(1)
_cell_length_b                   10.217(1)
_cell_length_c                   16.806(1)
_cell_angle_alpha                90
_cell_angle_beta                 90
_cell_angle_gamma                90
_cell_volume                     3592.11
_exptl_crystal_colour            orange
_exptl_crystal_description       rod
_cell_formula_units_Z            4
_exptl_crystal_recrystallization_method dichloromethane
loop_
_atom_site_label
_atom_site_type_symbol
_atom_site_fract_x
_atom_site_fract_y
_atom_site_fract_z
Te1 Te 0.40066(2) 0.25228(5) 0.46381(4)
Br1 Br 0.42853(5) 0.24215(9) 0.62440(6)
Br2 Br 0.34789(4) 0.03189(9) 0.47845(7)
Br3 Br 0.36033(5) 0.27365(12) 0.31650(6)
Br4 Br 0.50648(4) 0.15054(9) 0.41661(7)
P1 P 0.24115(11) 0.3994(2) 0.51457(15)
P2 P 0.48002(11) 0.6003(2) 0.44132(14)
O1 O 0.3068(3) 0.3503(7) 0.4984(4)
O2 O 0.4483(3) 0.4705(6) 0.4589(4)
C1 C 0.1967(4) 0.4316(10) 0.4247(6)
C2 C 0.1849(4) 0.5589(9) 0.4002(7)
H1 H 0.1976 0.6308 0.4324
C3 C 0.1535(5) 0.5807(10) 0.3261(6)
H2 H 0.1441 0.6670 0.3087
C4 C 0.1371(4) 0.4731(10) 0.2798(6)
H3 H 0.1166 0.4868 0.2301
C5 C 0.1495(5) 0.3488(11) 0.3040(7)
H4 H 0.1381 0.2769 0.2712
C6 C 0.1794(5) 0.3270(10) 0.3776(6)
H5 H 0.1878 0.2401 0.3949
C7 C 0.1992(4) 0.2811(9) 0.5730(6)
C8 C 0.2334(5) 0.2040(10) 0.6287(6)
H6 H 0.2782 0.2154 0.6348
C9 C 0.2012(5) 0.1114(10) 0.6745(6)
H7 H 0.2243 0.0603 0.7120
C10 C 0.1362(5) 0.0932(10) 0.6661(6)
H8 H 0.1148 0.0279 0.6963
C11 C 0.1019(5) 0.1715(10) 0.6128(7)
H9 H 0.0570 0.1604 0.6078
C12 C 0.1329(5) 0.2650(9) 0.5674(7)
H10 H 0.1090 0.3186 0.5321
C13 C 0.2477(5) 0.5521(9) 0.5677(5)
C14 C 0.1934(5) 0.6187(12) 0.5921(6)
H11 H 0.1522 0.5808 0.5869
C15 C 0.2015(6) 0.7438(10) 0.6245(7)
H12 H 0.1653 0.7908 0.6433
C16 C 0.2616(6) 0.7997(13) 0.6294(8)
H13 H 0.2662 0.8860 0.6498
C17 C 0.3145(7) 0.7314(11) 0.6052(7)
H14 H 0.3557 0.7693 0.6104
C18 C 0.3079(5) 0.6067(10) 0.5729(6)
H15 H 0.3443 0.5598 0.5548
C19 C 0.4337(4) 0.7015(9) 0.3750(5)
C20 C 0.3671(4) 0.6880(9) 0.3758(5)
H16 H 0.3484 0.6205 0.4069
C21 C 0.3284(5) 0.7690(10) 0.3331(7)
H17 H 0.2834 0.7580 0.3347
C22 C 0.3553(5) 0.8682(12) 0.2872(6)
H18 H 0.3290 0.9260 0.2575
C23 C 0.4218(5) 0.8811(10) 0.2857(6)
H19 H 0.4402 0.9481 0.2539
C24 C 0.4609(5) 0.8022(10) 0.3275(6)
H20 H 0.5060 0.8136 0.3254
C25 C 0.4890(4) 0.6899(9) 0.5335(5)
C26 C 0.4989(4) 0.8261(9) 0.5339(6)
H21 H 0.5013 0.8734 0.4853
C27 C 0.5051(5) 0.8904(11) 0.6063(7)
H22 H 0.5114 0.9825 0.6072
C28 C 0.5021(5) 0.8223(9) 0.6764(6)
H23 H 0.5071 0.8674 0.7254
C29 C 0.4918(5) 0.6894(11) 0.6766(6)
H24 H 0.4890 0.6439 0.7258
C30 C 0.4855(4) 0.6208(9) 0.6052(6)
H25 H 0.4791 0.5288 0.6053
C31 C 0.5595(5) 0.5813(9) 0.4006(7)
C32 C 0.5681(5) 0.5619(9) 0.3200(6)
H26 H 0.5325 0.5670 0.2850
C33 C 0.6288(5) 0.5347(10) 0.2895(7)
H27 H 0.6351 0.5217 0.2341
C34 C 0.6796(5) 0.5274(11) 0.3422(8)
H28 H 0.7207 0.5060 0.3221
C35 C 0.6729(5) 0.5495(10) 0.4219(8)
H29 H 0.7086 0.5458 0.4569
C36 C 0.6112(4) 0.5780(10) 0.4501(6)
H30 H 0.6053 0.5954 0.5052
loop_
_geom_bond_atom_site_label_1
_geom_bond_atom_site_label_2
_geom_bond_site_symmetry_1
_geom_bond_site_symmetry_2
Te1 Br1 1_555 1_555
Br2 Te1 1_555 1_555
Br3 Te1 1_555 1_555
Br4 Te1 1_555 1_555
P1 O1 1_555 1_555
P2 O2 1_555 1_555
O1 Te1 1_555 1_555
O2 Te1 1_555 1_555
C1 P1 1_555 1_555
C2 C1 1_555 1_555
H1 C2 1_555 1_555
C3 C2 1_555 1_555
H2 C3 1_555 1_555
C4 C3 1_555 1_555
H3 C4 1_555 1_555
C5 C4 1_555 1_555
H4 C5 1_555 1_555
C6 C1 1_555 1_555
H5 C6 1_555 1_555
C7 P1 1_555 1_555
C8 C7 1_555 1_555
H6 C8 1_555 1_555
C9 C8 1_555 1_555
H7 C9 1_555 1_555
C10 C9 1_555 1_555
H8 C10 1_555 1_555
C11 C10 1_555 1_555
H9 C11 1_555 1_555
C12 C7 1_555 1_555
H10 C12 1_555 1_555
C13 P1 1_555 1_555
C14 C13 1_555 1_555
H11 C14 1_555 1_555
C15 C14 1_555 1_555
H12 C15 1_555 1_555
C16 C15 1_555 1_555
H13 C16 1_555 1_555
C17 C16 1_555 1_555
H14 C17 1_555 1_555
C18 C13 1_555 1_555
H15 C18 1_555 1_555
C19 P2 1_555 1_555
C20 C19 1_555 1_555
H16 C20 1_555 1_555
C21 C20 1_555 1_555
H17 C21 1_555 1_555
C22 C21 1_555 1_555
H18 C22 1_555 1_555
C23 C22 1_555 1_555
H19 C23 1_555 1_555
C24 C19 1_555 1_555
H20 C24 1_555 1_555
C25 P2 1_555 1_555
C26 C25 1_555 1_555
H21 C26 1_555 1_555
C27 C26 1_555 1_555
H22 C27 1_555 1_555
C28 C27 1_555 1_555
H23 C28 1_555 1_555
C29 C28 1_555 1_555
H24 C29 1_555 1_555
C30 C25 1_555 1_555
H25 C30 1_555 1_555
C31 P2 1_555 1_555
C32 C31 1_555 1_555
H26 C32 1_555 1_555
C33 C32 1_555 1_555
H27 C33 1_555 1_555
C34 C33 1_555 1_555
H28 C34 1_555 1_555
C35 C34 1_555 1_555
H29 C35 1_555 1_555
C36 C31 1_555 1_555
H30 C36 1_555 1_555
C5 C6 1_555 1_555
C11 C12 1_555 1_555
C17 C18 1_555 1_555
C23 C24 1_555 1_555
C29 C30 1_555 1_555
C35 C36 1_555 1_555

#END
