
#######################################################################
#
#                 Cambridge Crystallographic Data Centre
#                                CCDC 
#
#######################################################################
#
# If this CIF has been generated from an entry in the Cambridge 
# Structural Database, then it will include bibliographic, chemical, 
# crystal, experimental, refinement or atomic coordinate data resulting 
# from the CCDC's data processing and validation procedures.
#
#######################################################################

data_QUHLIP
_chemical_formula_moiety         'C52 H48 P4 S4 Te1 2+,Br6 Te1 2-,3(C1 H2 Cl2)'
_chemical_name_systematic        
'bis(1,2-bis(Diphenylthiophosphinoyl)ethane)-tellurium(ii) hexabromo-tellurium(iv) dichloromethane solvate'
_symmetry_cell_setting           triclinic
_symmetry_space_group_name_H-M   'P -1'
_symmetry_Int_Tables_number      2
_space_group_name_Hall           '-P 1'
loop_
_symmetry_equiv_pos_site_id
_symmetry_equiv_pos_as_xyz
1 x,y,z
2 -x,-y,-z
_cell_length_a                   12.289(7)
_cell_length_b                   12.660(7)
_cell_length_c                   12.787(7)
_cell_angle_alpha                77.926(7)
_cell_angle_beta                 65.501(6)
_cell_angle_gamma                87.012(7)
_cell_volume                     1768.89
_exptl_crystal_colour            orange
_exptl_crystal_description       block
_cell_formula_units_Z            1
loop_
_atom_site_label
_atom_site_type_symbol
_atom_site_fract_x
_atom_site_fract_y
_atom_site_fract_z
Te1 Te 0.5000 0.5000 0.0000
S1 S 0.4751(4) 0.5816(3) 0.1863(4)
S2 S 0.6290(4) 0.3475(3) 0.0682(4)
P1 P 0.3512(4) 0.4859(3) 0.3268(4)
P2 P 0.4950(4) 0.2351(3) 0.1579(3)
C1 C 0.2091(15) 0.4971(16) 0.3224(15)
C2 C 0.1208(16) 0.4150(14) 0.3921(16)
H1 H 0.1393 0.3541 0.4387
C3 C 0.0088(17) 0.4216(17) 0.3936(18)
H2 H -0.0503 0.3660 0.4415
C4 C -0.0175(17) 0.507(2) 0.3268(18)
H3 H -0.0947 0.5107 0.3264
C5 C 0.0689(18) 0.593(2) 0.257(2)
H4 H 0.0494 0.6538 0.2115
C6 C 0.1805(19) 0.5850(17) 0.2563(17)
H5 H 0.2391 0.6413 0.2095
C7 C 0.3396(14) 0.5276(13) 0.4561(15)
C8 C 0.3121(16) 0.6324(15) 0.4664(15)
H6 H 0.3050 0.6828 0.4033
C9 C 0.2943(18) 0.6656(16) 0.5724(18)
H7 H 0.2721 0.7374 0.5807
C10 C 0.3083(15) 0.5980(16) 0.6581(15)
H8 H 0.3001 0.6234 0.7257
C11 C 0.3345(16) 0.4918(18) 0.6539(16)
H9 H 0.3405 0.4429 0.7185
C12 C 0.3521(15) 0.4581(16) 0.5489(15)
H10 H 0.3730 0.3857 0.5425
C13 C 0.3838(15) 0.3434(12) 0.3456(13)
H11 H 0.4682 0.3353 0.3349
H12 H 0.3321 0.3059 0.4265
C14 C 0.3632(14) 0.2906(14) 0.2578(14)
H13 H 0.3314 0.3450 0.2109
H14 H 0.3012 0.2318 0.3021
C15 C 0.4484(15) 0.1798(14) 0.0623(15)
C16 C 0.3304(15) 0.1612(17) 0.0922(16)
H15 H 0.2717 0.1768 0.1633
C17 C 0.2958(16) 0.1189(17) 0.0172(17)
H16 H 0.2136 0.1050 0.0371
C18 C 0.3844(15) 0.0973(14) -0.0878(16)
H17 H 0.3626 0.0704 -0.1407
C19 C 0.5034(16) 0.1155(13) -0.1134(14)
H18 H 0.5638 0.0984 -0.1828
C20 C 0.5358(14) 0.1590(13) -0.0377(13)
H19 H 0.6175 0.1736 -0.0562
C21 C 0.5411(13) 0.1282(13) 0.2456(14)
C22 C 0.6534(17) 0.1299(14) 0.2455(15)
H20 H 0.7071 0.1904 0.2013
C23 C 0.6882(16) 0.0422(15) 0.3109(15)
H21 H 0.7651 0.0417 0.3119
C24 C 0.6066(15) -0.0431(14) 0.3736(15)
H22 H 0.6297 -0.1039 0.4164
C25 C 0.4933(16) -0.0442(14) 0.3771(14)
H23 H 0.4383 -0.1032 0.4238
C26 C 0.4618(14) 0.0413(14) 0.3121(14)
H24 H 0.3844 0.0412 0.3125
S1A S 0.5249(4) 0.4184(3) -0.1863(4)
S2A S 0.3710(4) 0.6525(3) -0.0682(4)
P1A P 0.6488(4) 0.5141(3) -0.3268(4)
P2A P 0.5050(4) 0.7649(3) -0.1579(3)
C1A C 0.7909(15) 0.5029(16) -0.3224(15)
C2A C 0.8792(16) 0.5850(14) -0.3921(16)
H1A H 0.8607 0.6459 -0.4387
C3A C 0.9912(17) 0.5784(17) -0.3936(18)
H2A H 1.0503 0.6340 -0.4415
C4A C 1.0175(17) 0.493(2) -0.3268(18)
H3A H 1.0947 0.4893 -0.3264
C5A C 0.9311(18) 0.407(2) -0.257(2)
H4A H 0.9506 0.3462 -0.2115
C6A C 0.8195(19) 0.4150(17) -0.2563(17)
H5A H 0.7609 0.3587 -0.2095
C7A C 0.6604(14) 0.4724(13) -0.4561(15)
C8A C 0.6879(16) 0.3676(15) -0.4664(15)
H6A H 0.6950 0.3172 -0.4033
C9A C 0.7057(18) 0.3344(16) -0.5724(18)
H7A H 0.7279 0.2626 -0.5807
C10A C 0.6917(15) 0.4020(16) -0.6581(15)
H8A H 0.6999 0.3766 -0.7257
C11A C 0.6655(16) 0.5082(18) -0.6539(16)
H9A H 0.6595 0.5571 -0.7185
C12A C 0.6479(15) 0.5419(16) -0.5489(15)
H10A H 0.6270 0.6143 -0.5425
C13A C 0.6162(15) 0.6566(12) -0.3456(13)
H11A H 0.5318 0.6647 -0.3349
H12A H 0.6679 0.6941 -0.4265
C14A C 0.6368(14) 0.7094(14) -0.2578(14)
H13A H 0.6686 0.6550 -0.2109
H14A H 0.6988 0.7682 -0.3021
C15A C 0.5516(15) 0.8202(14) -0.0623(15)
C16A C 0.6696(15) 0.8388(17) -0.0922(16)
H15A H 0.7283 0.8232 -0.1633
C17A C 0.7042(16) 0.8811(17) -0.0172(17)
H16A H 0.7864 0.8950 -0.0371
C18A C 0.6156(15) 0.9027(14) 0.0878(16)
H17A H 0.6374 0.9296 0.1407
C19A C 0.4966(16) 0.8845(13) 0.1134(14)
H18A H 0.4362 0.9016 0.1828
C20A C 0.4642(14) 0.8410(13) 0.0377(13)
H19A H 0.3825 0.8264 0.0562
C21A C 0.4589(13) 0.8718(13) -0.2456(14)
C22A C 0.3466(17) 0.8701(14) -0.2455(15)
H20A H 0.2929 0.8096 -0.2013
C23A C 0.3118(16) 0.9578(15) -0.3109(15)
H21A H 0.2349 0.9583 -0.3119
C24A C 0.3934(15) 1.0431(14) -0.3736(15)
H22A H 0.3703 1.1039 -0.4164
C25A C 0.5067(16) 1.0442(14) -0.3771(14)
H23A H 0.5617 1.1032 -0.4238
C26A C 0.5382(14) 0.9587(14) -0.3121(14)
H24A H 0.6156 0.9588 -0.3125
Te2 Te 0.0000 0.0000 0.5000
Br1 Br -0.15787(15) -0.12362(15) 0.47806(16)
Br2 Br -0.00290(17) -0.14271(15) 0.68944(17)
Br3 Br 0.17744(16) -0.10671(15) 0.35863(17)
Br1A Br 0.15787(15) 0.12362(15) 0.52194(16)
Br2A Br 0.00290(17) 0.14271(15) 0.31056(17)
Br3A Br -0.17744(16) 0.10671(15) 0.64137(17)
Cl1 Cl 0.1280(5) 0.1826(6) 0.8173(6)
Cl2 Cl -0.1219(6) 0.1176(6) 0.9632(6)
C27 C 0.006(2) 0.103(2) 0.8363(17)
H25 H 0.0271 0.0258 0.8431
H26 H -0.0128 0.1240 0.7666
Cl3 Cl 0.0425(10) 0.6737(11) 0.9437(10)
Cl4 Cl -0.1882(8) 0.5865(8) 0.9914(14)
C28 C -0.042(6) 0.605(4) 0.909(5)
H27 H -0.0083 0.5323 0.9052
H28 H -0.0316 0.6400 0.8290
loop_
_geom_bond_atom_site_label_1
_geom_bond_atom_site_label_2
_geom_bond_site_symmetry_1
_geom_bond_site_symmetry_2
Te1 S1 1_555 1_555
S1 P1 1_555 1_555
S2 Te1 1_555 1_555
P1 C1 1_555 1_555
P2 S2 1_555 1_555
C1 C2 1_555 1_555
C2 H1 1_555 1_555
C3 C2 1_555 1_555
H2 C3 1_555 1_555
C4 C3 1_555 1_555
H3 C4 1_555 1_555
C5 C4 1_555 1_555
H4 C5 1_555 1_555
C6 C1 1_555 1_555
H5 C6 1_555 1_555
C7 P1 1_555 1_555
C8 C7 1_555 1_555
H6 C8 1_555 1_555
C9 C8 1_555 1_555
H7 C9 1_555 1_555
C10 C9 1_555 1_555
H8 C10 1_555 1_555
C11 C10 1_555 1_555
H9 C11 1_555 1_555
C12 C7 1_555 1_555
H10 C12 1_555 1_555
C13 P1 1_555 1_555
H11 C13 1_555 1_555
H12 C13 1_555 1_555
C14 P2 1_555 1_555
H13 C14 1_555 1_555
H14 C14 1_555 1_555
C15 P2 1_555 1_555
C16 C15 1_555 1_555
H15 C16 1_555 1_555
C17 C16 1_555 1_555
H16 C17 1_555 1_555
C18 C17 1_555 1_555
H17 C18 1_555 1_555
C19 C18 1_555 1_555
H18 C19 1_555 1_555
C20 C15 1_555 1_555
H19 C20 1_555 1_555
C21 P2 1_555 1_555
C22 C21 1_555 1_555
H20 C22 1_555 1_555
C23 C22 1_555 1_555
H21 C23 1_555 1_555
C24 C23 1_555 1_555
H22 C24 1_555 1_555
C25 C24 1_555 1_555
H23 C25 1_555 1_555
C26 C21 1_555 1_555
H24 C26 1_555 1_555
Te2 Br1 1_555 1_555
Br2 Te2 1_555 1_555
Br3 Te2 1_555 1_555
Cl1 C27 1_555 1_555
Cl2 C27 1_555 1_555
Cl3 C28 1_555 1_555
Cl4 C28 1_555 1_555
C27 H25 1_555 1_555
H26 C27 1_555 1_555
C28 H27 1_555 1_555
H28 C28 1_555 1_555
S1A Te1 1_555 1_555
S2A Te1 1_555 1_555
P1A S1A 1_555 1_555
P2A S2A 1_555 1_555
C1A P1A 1_555 1_555
C2A C1A 1_555 1_555
H1A C2A 1_555 1_555
C3A C2A 1_555 1_555
H2A C3A 1_555 1_555
C4A C3A 1_555 1_555
H3A C4A 1_555 1_555
C5A C4A 1_555 1_555
H4A C5A 1_555 1_555
C6A C1A 1_555 1_555
H5A C6A 1_555 1_555
C7A P1A 1_555 1_555
C8A C7A 1_555 1_555
H6A C8A 1_555 1_555
C9A C8A 1_555 1_555
H7A C9A 1_555 1_555
C10A C9A 1_555 1_555
H8A C10A 1_555 1_555
C11A C10A 1_555 1_555
H9A C11A 1_555 1_555
C12A C7A 1_555 1_555
H10A C12A 1_555 1_555
C13A P1A 1_555 1_555
H11A C13A 1_555 1_555
H12A C13A 1_555 1_555
C14A P2A 1_555 1_555
H13A C14A 1_555 1_555
H14A C14A 1_555 1_555
C15A P2A 1_555 1_555
C16A C15A 1_555 1_555
H15A C16A 1_555 1_555
C17A C16A 1_555 1_555
H16A C17A 1_555 1_555
C18A C17A 1_555 1_555
H17A C18A 1_555 1_555
C19A C18A 1_555 1_555
H18A C19A 1_555 1_555
C20A C15A 1_555 1_555
H19A C20A 1_555 1_555
C21A P2A 1_555 1_555
C22A C21A 1_555 1_555
H20A C22A 1_555 1_555
C23A C22A 1_555 1_555
H21A C23A 1_555 1_555
C24A C23A 1_555 1_555
H22A C24A 1_555 1_555
C25A C24A 1_555 1_555
H23A C25A 1_555 1_555
C26A C21A 1_555 1_555
H24A C26A 1_555 1_555
Br1A Te2 1_555 1_555
Br2A Te2 1_555 1_555
Br3A Te2 1_555 1_555
C5 C6 1_555 1_555
C11 C12 1_555 1_555
C13 C14 1_555 1_555
C19 C20 1_555 1_555
C25 C26 1_555 1_555
C5A C6A 1_555 1_555
C11A C12A 1_555 1_555
C13A C14A 1_555 1_555
C19A C20A 1_555 1_555
C25A C26A 1_555 1_555

#END
