
#######################################################################
#
#                 Cambridge Crystallographic Data Centre
#                                CCDC 
#
#######################################################################
#
# If this CIF has been generated from an entry in the Cambridge 
# Structural Database, then it will include bibliographic, chemical, 
# crystal, experimental, refinement or atomic coordinate data resulting 
# from the CCDC's data processing and validation procedures.
#
#######################################################################

data_QUHLEM
_chemical_formula_moiety         'C34 H57 F3 O6 S1 Si1'
_chemical_name_systematic        
'3-((t-butyl(dimethyl)silyl)oxy)-4,4,8,10,14-pentamethyl-17-(((trifluoromethyl)sulfonyl)oxy)gon-16-en-12-yl pivalate'
_symmetry_cell_setting           orthorhombic
_symmetry_space_group_name_H-M   'P 21 21 21'
_symmetry_Int_Tables_number      19
_space_group_name_Hall           'P 2ac 2ab'
loop_
_symmetry_equiv_pos_site_id
_symmetry_equiv_pos_as_xyz
1 x,y,z
2 1/2-x,-y,1/2+z
3 1/2+x,1/2-y,-z
4 -x,1/2+y,1/2-z
_cell_length_a                   9.526(2)
_cell_length_b                   15.182(3)
_cell_length_c                   25.702(5)
_cell_angle_alpha                90
_cell_angle_beta                 90
_cell_angle_gamma                90
_cell_volume                     3717.12
_exptl_crystal_colour            colorless
_chemical_melting_point          '467-468 K'
_cell_formula_units_Z            4
_chemical_properties_physical    
'Air-sensitive, Heat-sensitive, Light-sensitive'
loop_
_atom_site_label
_atom_site_type_symbol
_atom_site_fract_x
_atom_site_fract_y
_atom_site_fract_z
S1 S 1.2357 0.639 0.644
Si1 Si 0.2274(1) 0.0618 0.5581
F1 F 1.0683(2) 0.6363(1) 0.5633
F2 F 1.2877(2) 0.6203(1) 0.5464
F3 F 1.1688(2) 0.5134(1) 0.5791(1)
O1 O 0.2815(2) 0.1212(1) 0.6079
O2 O 1.0968(2) 0.6225(1) 0.6752(1)
O3 O 0.7959(2) 0.6171(1) 0.6439
O4 O 0.7176(2) 0.6051(1) 0.5617(1)
O5 O 1.2486(2) 0.7316(1) 0.6398(1)
O6 O 1.3474(2) 0.5842(1) 0.6608(1)
C1 C -0.0151(3) 0.1674(2) 0.5514(1)
H1 H 0.0122 0.1841 0.5160
H2 H 0.0310 0.2067 0.5764
H3 H -0.1171 0.1725 0.5551
C2 C 0.0300(2) 0.0717(2) 0.5620(1)
C3 C 0.4039(2) 0.1742(1) 0.6136(1)
H4 H 0.4735 0.1564 0.5864
C4 C 0.4692(2) 0.1576(1) 0.6676(1)
C5 C 0.5908(2) 0.2253(1) 0.6751(1)
H5 H 0.6584 0.2118 0.6465
C6 C 0.6756(2) 0.2114(1) 0.7253(1)
H6 H 0.6202 0.2324 0.7555
H7 H 0.6941 0.1478 0.7302
C7 C 0.8149(2) 0.2611(1) 0.7231(1)
H8 H 0.8725 0.2371 0.6944
H9 H 0.8666 0.2514 0.7561
C8 C 0.7952(2) 0.3607(1) 0.7148(1)
C9 C 0.9389(2) 0.4056(1) 0.7008(1)
C10 C 0.9141(2) 0.5058(1) 0.6916(1)
H10 H 0.8614 0.5280 0.7226
C11 C 1.0617(2) 0.5390(1) 0.6970(1)
C12 C 1.1857(3) 0.5998(2) 0.5789(1)
C13 C 0.5534(2) 0.3248(1) 0.6674(1)
C14 C 0.4865(2) 0.3333(1) 0.6129(1)
H11 H 0.4531 0.3945 0.6081
H12 H 0.5591 0.3216 0.5863
C15 C 0.3636(2) 0.2702(1) 0.6045(1)
H13 H 0.2865 0.2862 0.6285
H14 H 0.3285 0.2769 0.5685
C16 C -0.0174(3) 0.0454(2) 0.6169(1)
H15 H -0.1200 0.0482 0.6190
H16 H 0.0236 0.0860 0.6424
H17 H 0.0140 -0.0147 0.6244
C17 C -0.0404(3) 0.0114(2) 0.5218(1)
H18 H -0.0069 -0.0491 0.5266
H19 H -0.0168 0.0315 0.4867
H20 H -0.1424 0.0132 0.5266
C18 C 0.2862(3) -0.0539(2) 0.5659(1)
H21 H 0.3891 -0.0561 0.5658
H22 H 0.2497 -0.0895 0.5371
H23 H 0.2510 -0.0773 0.5990
C19 C 0.2977(3) 0.1053(2) 0.4952(1)
H24 H 0.2715 0.1674 0.4915
H25 H 0.2582 0.0713 0.4663
H26 H 0.4002 0.0999 0.4950
C20 C 0.3562(2) 0.1601(1) 0.7102(1)
H27 H 0.2905 0.1112 0.7051
H28 H 0.3051 0.2161 0.7082
H29 H 0.4008 0.1548 0.7444
C21 C 0.5297(2) 0.0634(1) 0.6666(1)
H30 H 0.5605 0.0470 0.7017
H31 H 0.6099 0.0612 0.6428
H32 H 0.4572 0.0223 0.6548
C22 C 0.4505(2) 0.3631(1) 0.7075(1)
H33 H 0.4672 0.4265 0.7112
H34 H 0.4647 0.3340 0.7411
H35 H 0.3539 0.3532 0.6957
C23 C 0.6978(2) 0.3759(1) 0.6666(1)
H36 H 0.7505 0.3504 0.6365
C24 C 0.6812(2) 0.4745(1) 0.6534(1)
H37 H 0.6237 0.4801 0.6214
H38 H 0.6298 0.5039 0.6820
C25 C 0.8218(2) 0.5222(1) 0.6449(1)
H39 H 0.8683 0.5021 0.6121
C26 C 0.7409(2) 0.6499(1) 0.5994(1)
C27 C 0.7162(3) 0.7492(1) 0.6030(1)
C28 C 0.6444(4) 0.7737(2) 0.6535(1)
H40 H 0.7049 0.7577 0.6828
H41 H 0.5551 0.7419 0.6562
H42 H 0.6266 0.8372 0.6541
C29 C 0.8559(4) 0.7940(2) 0.5981(2)
H43 H 0.8427 0.8580 0.5994
H44 H 0.8994 0.7778 0.5649
H45 H 0.9168 0.7756 0.6269
C30 C 0.6199(5) 0.7755(2) 0.5573(1)
H46 H 0.6072 0.8395 0.5571
H47 H 0.5285 0.7467 0.5613
H48 H 0.6629 0.7569 0.5244
C31 C 0.7352(2) 0.4001(1) 0.7655(1)
H49 H 0.6593 0.3625 0.7784
H50 H 0.6987 0.4593 0.7585
H51 H 0.8097 0.4036 0.7917
C32 C 1.0091(2) 0.3636(1) 0.6525(1)
H52 H 0.9433 0.3646 0.6232
H53 H 1.0349 0.3025 0.6604
H54 H 1.0936 0.3970 0.6434
C33 C 1.0572(2) 0.4080(1) 0.7428(1)
H55 H 1.0174 0.4136 0.7783
H56 H 1.1164 0.3545 0.7412
C34 C 1.1400(2) 0.4894(1) 0.7278(1)
H57 H 1.2328 0.5027 0.7388
loop_
_geom_bond_atom_site_label_1
_geom_bond_atom_site_label_2
_geom_bond_site_symmetry_1
_geom_bond_site_symmetry_2
S1 O2 1_555 1_555
Si1 O1 1_555 1_555
F1 C12 1_555 1_555
F2 C12 1_555 1_555
F3 C12 1_555 1_555
O1 C3 1_555 1_555
O2 C11 1_555 1_555
O3 C25 1_555 1_555
O4 C26 1_555 1_555
O5 S1 1_555 1_555
O6 S1 1_555 1_555
C1 H1 1_555 1_555
H2 C1 1_555 1_555
H3 C1 1_555 1_555
C2 Si1 1_555 1_555
C3 H4 1_555 1_555
C4 C3 1_555 1_555
C5 C4 1_555 1_555
H5 C5 1_555 1_555
C6 C5 1_555 1_555
H6 C6 1_555 1_555
H7 C6 1_555 1_555
C7 C6 1_555 1_555
H8 C7 1_555 1_555
H9 C7 1_555 1_555
C8 C7 1_555 1_555
C9 C8 1_555 1_555
C10 C9 1_555 1_555
H10 C10 1_555 1_555
C11 C10 1_555 1_555
C12 S1 1_555 1_555
C13 C5 1_555 1_555
C14 C13 1_555 1_555
H11 C14 1_555 1_555
H12 C14 1_555 1_555
C15 C3 1_555 1_555
H13 C15 1_555 1_555
H14 C15 1_555 1_555
C16 C2 1_555 1_555
H15 C16 1_555 1_555
H16 C16 1_555 1_555
H17 C16 1_555 1_555
C17 C2 1_555 1_555
H18 C17 1_555 1_555
H19 C17 1_555 1_555
H20 C17 1_555 1_555
C18 Si1 1_555 1_555
H21 C18 1_555 1_555
H22 C18 1_555 1_555
H23 C18 1_555 1_555
C19 Si1 1_555 1_555
H24 C19 1_555 1_555
H25 C19 1_555 1_555
H26 C19 1_555 1_555
C20 C4 1_555 1_555
H27 C20 1_555 1_555
H28 C20 1_555 1_555
H29 C20 1_555 1_555
C21 C4 1_555 1_555
H30 C21 1_555 1_555
H31 C21 1_555 1_555
H32 C21 1_555 1_555
C22 C13 1_555 1_555
H33 C22 1_555 1_555
H34 C22 1_555 1_555
H35 C22 1_555 1_555
C23 C8 1_555 1_555
H36 C23 1_555 1_555
C24 C23 1_555 1_555
H37 C24 1_555 1_555
H38 C24 1_555 1_555
C25 C10 1_555 1_555
H39 C25 1_555 1_555
C26 O3 1_555 1_555
C27 C26 1_555 1_555
C28 C27 1_555 1_555
H40 C28 1_555 1_555
H41 C28 1_555 1_555
H42 C28 1_555 1_555
C29 C27 1_555 1_555
H43 C29 1_555 1_555
H44 C29 1_555 1_555
H45 C29 1_555 1_555
C30 C27 1_555 1_555
H46 C30 1_555 1_555
H47 C30 1_555 1_555
H48 C30 1_555 1_555
C31 C8 1_555 1_555
H49 C31 1_555 1_555
H50 C31 1_555 1_555
H51 C31 1_555 1_555
C32 C9 1_555 1_555
H52 C32 1_555 1_555
H53 C32 1_555 1_555
H54 C32 1_555 1_555
C33 C9 1_555 1_555
H55 C33 1_555 1_555
H56 C33 1_555 1_555
C34 C11 1_555 1_555
H57 C34 1_555 1_555
C1 C2 1_555 1_555
C13 C23 1_555 1_555
C14 C15 1_555 1_555
C24 C25 1_555 1_555
C33 C34 1_555 1_555

#END
