
#######################################################################
#
#                 Cambridge Crystallographic Data Centre
#                                CCDC 
#
#######################################################################
#
# If this CIF has been generated from an entry in the Cambridge 
# Structural Database, then it will include bibliographic, chemical, 
# crystal, experimental, refinement or atomic coordinate data resulting 
# from the CCDC's data processing and validation procedures.
#
#######################################################################

data_QUHPUG
_chemical_formula_moiety         'C37 H20 F4 N4 O4'
_chemical_name_systematic        
7,7',8,8'-tetrafluoro-3,3,3',3'-tetramethyl-2,2',3,3'-tetrahydro-1,1'-spirobi[cyclopenta[b]oxanthrene]-6,6',9,9'-tetracarbonitrile
_symmetry_cell_setting           monoclinic
_symmetry_space_group_name_H-M   'P 21/c'
_symmetry_Int_Tables_number      14
_space_group_name_Hall           '-P 2ybc'
loop_
_symmetry_equiv_pos_site_id
_symmetry_equiv_pos_as_xyz
1 x,y,z
2 -x,1/2+y,1/2-z
3 -x,-y,-z
4 x,1/2-y,1/2+z
_cell_length_a                   22.674(3)
_cell_length_b                   10.0584(12)
_cell_length_c                   13.4593(16)
_cell_angle_alpha                90
_cell_angle_beta                 99.514(9)
_cell_angle_gamma                90
_cell_volume                     3027.36
_exptl_crystal_colour            yellow
_exptl_crystal_description       needle
_cell_formula_units_Z            4
loop_
_atom_site_label
_atom_site_type_symbol
_atom_site_fract_x
_atom_site_fract_y
_atom_site_fract_z
C1 C -0.04073(14) 0.4519(3) 0.8482(2)
C2 C -0.02011(14) 0.5155(3) 0.7641(3)
C3 C -0.09735(14) 0.4803(3) 0.8700(2)
C4 C -0.11669(14) 0.4242(3) 0.9511(2)
C5 C -0.08003(14) 0.3375(3) 1.0139(2)
C6 C -0.10044(14) 0.2778(4) 1.0993(3)
C7 C -0.02324(14) 0.3070(3) 0.9935(2)
C8 C -0.00341(14) 0.3659(3) 0.9108(2)
C9 C 0.06937(14) 0.2016(3) 1.0383(2)
C10 C 0.08879(13) 0.2590(3) 0.9557(2)
C11 C 0.14590(14) 0.2341(3) 0.9367(2)
C12 C 0.18347(13) 0.1536(3) 1.0027(2)
C13 C 0.16408(13) 0.0973(3) 1.0866(2)
C14 C 0.10608(14) 0.1217(3) 1.1045(2)
C15 C 0.21142(14) 0.0087(3) 1.1456(2)
C16 C 0.22095(15) 0.0336(4) 1.2593(2)
H1 H 0.2308 0.1254 1.2725
H2 H 0.2531 -0.0213 1.2919
H3 H 0.1850 0.0122 1.2848
C17 C 0.19473(16) -0.1376(3) 1.1258(2)
H4 H 0.1589 -0.1572 1.1522
H5 H 0.2267 -0.1931 1.1582
H6 H 0.1882 -0.1541 1.0546
C18 C 0.26726(14) 0.0491(3) 1.0998(2)
H7 H 0.2929 -0.0274 1.0965
H8 H 0.2899 0.1165 1.1413
C19 C 0.24521(13) 0.1044(3) 0.9922(2)
C20 C 0.24220(14) 0.0015(3) 0.9047(2)
H9 H 0.2404 -0.0881 0.9306
H10 H 0.2067 0.0168 0.8550
C21 C 0.29899(14) 0.0187(3) 0.8559(2)
C22 C 0.34857(15) -0.0772(4) 0.9020(3)
H11 H 0.3835 -0.0626 0.8718
H12 H 0.3351 -0.1671 0.8900
H13 H 0.3581 -0.0618 0.9733
C23 C 0.28548(16) -0.0017(4) 0.7417(2)
H14 H 0.2570 0.0636 0.7122
H15 H 0.2693 -0.0891 0.7272
H16 H 0.3217 0.0077 0.7141
C24 C 0.31708(14) 0.1591(3) 0.8850(2)
C25 C 0.28769(13) 0.2074(3) 0.9604(2)
C26 C 0.30037(14) 0.3329(3) 1.0013(2)
C27 C 0.34298(14) 0.4094(3) 0.9661(2)
C28 C 0.37242(14) 0.3605(3) 0.8903(2)
C29 C 0.36004(14) 0.2377(3) 0.8491(2)
C30 C 0.40637(14) 0.5956(3) 0.9848(2)
C31 C 0.43406(14) 0.5476(3) 0.9074(2)
C32 C 0.48443(15) 0.6147(4) 0.8831(3)
C33 C 0.51600(17) 0.5591(4) 0.8089(3)
C34 C 0.50415(16) 0.7284(4) 0.9358(3)
C35 C 0.47773(16) 0.7740(4) 1.0129(3)
C36 C 0.42873(15) 0.7055(3) 1.0402(3)
C37 C 0.40149(16) 0.7535(4) 1.1234(3)
N1 N -0.11719(13) 0.2300(3) 1.1675(2)
N2 N -0.00320(14) 0.5676(3) 0.6987(2)
N3 N 0.38033(15) 0.7930(3) 1.1890(2)
N4 N 0.54311(15) 0.5117(4) 0.7542(3)
O1 O 0.01124(9) 0.2246(2) 1.05826(17)
O2 O 0.05227(9) 0.3426(2) 0.88850(15)
O3 O 0.35625(10) 0.5350(2) 1.00901(17)
O4 O 0.41523(10) 0.4382(2) 0.85216(17)
F1 F -0.13282(8) 0.56462(19) 0.80981(14)
F2 F -0.17183(8) 0.45226(19) 0.97077(14)
F3 F 0.49728(10) 0.8840(2) 1.06348(16)
F4 F 0.55147(9) 0.7957(2) 0.91076(18)
H17 H 0.0903(14) 0.078(3) 1.165(2)
H18 H 0.2826(13) 0.372(3) 1.056(2)
H19 H 0.3819(15) 0.209(3) 0.796(3)
H20 H 0.1579(15) 0.275(3) 0.875(2)
loop_
_geom_bond_atom_site_label_1
_geom_bond_atom_site_label_2
_geom_bond_site_symmetry_1
_geom_bond_site_symmetry_2
C1 C2 1_555 1_555
C2 N2 1_555 1_555
C3 C1 1_555 1_555
C4 C3 1_555 1_555
C5 C4 1_555 1_555
C6 C5 1_555 1_555
C7 C5 1_555 1_555
C8 C1 1_555 1_555
C9 C10 1_555 1_555
C10 C11 1_555 1_555
C11 C12 1_555 1_555
C12 C13 1_555 1_555
C13 C14 1_555 1_555
C14 C9 1_555 1_555
C15 C13 1_555 1_555
C16 C15 1_555 1_555
H1 C16 1_555 1_555
H2 C16 1_555 1_555
H3 C16 1_555 1_555
C17 C15 1_555 1_555
H4 C17 1_555 1_555
H5 C17 1_555 1_555
H6 C17 1_555 1_555
C18 C15 1_555 1_555
H7 C18 1_555 1_555
H8 C18 1_555 1_555
C19 C12 1_555 1_555
C20 C19 1_555 1_555
H9 C20 1_555 1_555
H10 C20 1_555 1_555
C21 C20 1_555 1_555
C22 C21 1_555 1_555
H11 C22 1_555 1_555
H12 C22 1_555 1_555
H13 C22 1_555 1_555
C23 C21 1_555 1_555
H14 C23 1_555 1_555
H15 C23 1_555 1_555
H16 C23 1_555 1_555
C24 C21 1_555 1_555
C25 C19 1_555 1_555
C26 C25 1_555 1_555
C27 C26 1_555 1_555
C28 C27 1_555 1_555
C29 C24 1_555 1_555
C30 C31 1_555 1_555
C31 C32 1_555 1_555
C32 C33 1_555 1_555
C33 N4 1_555 1_555
C34 C32 1_555 1_555
C35 C34 1_555 1_555
C36 C30 1_555 1_555
C37 C36 1_555 1_555
N1 C6 1_555 1_555
N3 C37 1_555 1_555
O1 C7 1_555 1_555
O2 C8 1_555 1_555
O3 C27 1_555 1_555
O4 C28 1_555 1_555
F1 C3 1_555 1_555
F2 C4 1_555 1_555
F3 C35 1_555 1_555
F4 C34 1_555 1_555
H17 C14 1_555 1_555
H18 C26 1_555 1_555
H19 C29 1_555 1_555
H20 C11 1_555 1_555
C7 C8 1_555 1_555
C9 O1 1_555 1_555
C10 O2 1_555 1_555
C18 C19 1_555 1_555
C24 C25 1_555 1_555
C28 C29 1_555 1_555
C30 O3 1_555 1_555
C31 O4 1_555 1_555
C35 C36 1_555 1_555

#END
