
#######################################################################
#
#                 Cambridge Crystallographic Data Centre
#                                CCDC 
#
#######################################################################
#
# If this CIF has been generated from an entry in the Cambridge 
# Structural Database, then it will include bibliographic, chemical, 
# crystal, experimental, refinement or atomic coordinate data resulting 
# from the CCDC's data processing and validation procedures.
#
#######################################################################

data_QUJJAH
_chemical_formula_moiety         'C25 H28 N2 O3'
_chemical_name_systematic        
'Ethyl 4-anilino-1-cyclohexyl-5-oxo-2-phenyl-2,5-dihydro-1H-pyrrole-3-carboxylate'
_symmetry_cell_setting           monoclinic
_symmetry_space_group_name_H-M   'C 2/c'
_symmetry_Int_Tables_number      15
_space_group_name_Hall           '-C 2yn'
loop_
_symmetry_equiv_pos_site_id
_symmetry_equiv_pos_as_xyz
1 x,y,z
2 -x,y,1/2-z
3 1/2+x,1/2+y,z
4 1/2-x,1/2+y,1/2-z
5 -x,-y,-z
6 x,-y,1/2+z
7 1/2-x,1/2-y,-z
8 1/2+x,1/2-y,1/2+z
_cell_length_a                   37.900(16)
_cell_length_b                   10.403(5)
_cell_length_c                   11.589(5)
_cell_angle_alpha                90
_cell_angle_beta                 100.578(6)
_cell_angle_gamma                90
_cell_volume                     4491.59
_exptl_crystal_colour            colorless
_exptl_crystal_description       block
_chemical_melting_point          '140-142 deg.C'
_cell_formula_units_Z            8
_exptl_crystal_recrystallization_method 'ethyl acetate'
loop_
_atom_site_label
_atom_site_type_symbol
_atom_site_fract_x
_atom_site_fract_y
_atom_site_fract_z
C1 C 0.06303(10) 0.3263(4) 0.0835(3)
C2 C 0.08770(13) 0.2538(5) 0.0401(4)
H1 H 0.1024 0.1965 0.0886
C3 C 0.09074(16) 0.2662(6) -0.0778(5)
H2 H 0.1079 0.2186 -0.1073
C4 C 0.06871(17) 0.3477(6) -0.1499(4)
H3 H 0.0705 0.3549 -0.2286
C5 C 0.04423(15) 0.4181(5) -0.1057(4)
H4 H 0.0291 0.4738 -0.1544
C6 C 0.04163(12) 0.4076(4) 0.0109(4)
H5 H 0.0249 0.4572 0.0403
C7 C 0.05156(10) 0.2350(4) 0.4454(3)
C8 C 0.02890(12) 0.1419(5) 0.6057(4)
H6 H 0.0182 0.1983 0.6563
H7 H 0.0103 0.1153 0.5412
C9 C 0.04373(17) 0.0319(6) 0.6704(7)
H8 H 0.0540 -0.0244 0.6198
H9 H 0.0251 -0.0125 0.7005
H10 H 0.0621 0.0586 0.7344
C10 C 0.13701(9) 0.2062(4) 0.5598(3)
C11 C 0.14933(12) 0.2173(5) 0.6770(4)
H11 H 0.1457 0.2939 0.7146
C12 C 0.16709(15) 0.1177(7) 0.7416(5)
H12 H 0.1758 0.1279 0.8215
C13 C 0.17187(13) 0.0034(6) 0.6872(6)
H13 H 0.1834 -0.0648 0.7304
C14 C 0.15956(12) -0.0097(5) 0.5693(5)
H14 H 0.1629 -0.0870 0.5324
C15 C 0.14219(11) 0.0904(4) 0.5045(4)
H15 H 0.1340 0.0808 0.4242
C16 C 0.17514(11) 0.4283(5) 0.4451(5)
H16 H 0.1812 0.3842 0.5208
C17 C 0.17682(15) 0.5527(7) 0.4874(7)
H17 H 0.1566 0.6033 0.4877
C18 C 0.2153(2) 0.5996(10) 0.5340(9)
C19 C 0.2423(2) 0.5496(11) 0.4701(11)
H18 H 0.2605 0.6026 0.4542
C20 C 0.24025(13) 0.4230(6) 0.4337(7)
H19 H 0.2607 0.3728 0.4363
C21 C 0.20291(13) 0.3702(7) 0.3893(6)
C22 C 0.08484(9) 0.3207(3) 0.2976(3)
C23 C 0.08350(9) 0.2872(3) 0.4097(3)
C24 C 0.11830(9) 0.3184(4) 0.4906(3)
H20 H 0.1139 0.3857 0.5455
C25 C 0.12046(10) 0.3837(4) 0.2974(4)
H21 H 0.0383(12) 0.283(4) 0.209(3)
H22 H 0.2132(17) 0.658(5) 0.534(6)
H23 H 0.2033(13) 0.292(5) 0.397(4)
N1 N 0.05876(9) 0.3151(3) 0.2023(3)
N2 N 0.13945(8) 0.3731(3) 0.4076(3)
O1 O 0.12991(7) 0.4403(3) 0.2157(3)
O2 O 0.02345(7) 0.2184(3) 0.3786(2)
O3 O 0.05687(7) 0.2104(3) 0.5604(2)
loop_
_geom_bond_atom_site_label_1
_geom_bond_atom_site_label_2
_geom_bond_site_symmetry_1
_geom_bond_site_symmetry_2
C1 C2 1_555 1_555
C2 H1 1_555 1_555
C3 C2 1_555 1_555
H2 C3 1_555 1_555
C4 C3 1_555 1_555
H3 C4 1_555 1_555
C5 C4 1_555 1_555
H4 C5 1_555 1_555
C6 C1 1_555 1_555
H5 C6 1_555 1_555
C7 C23 1_555 1_555
C8 H6 1_555 1_555
H7 C8 1_555 1_555
C9 C8 1_555 1_555
H8 C9 1_555 1_555
H9 C9 1_555 1_555
H10 C9 1_555 1_555
C10 C11 1_555 1_555
C11 H11 1_555 1_555
C12 C11 1_555 1_555
H12 C12 1_555 1_555
C13 C12 1_555 1_555
H13 C13 1_555 1_555
C14 C13 1_555 1_555
H14 C14 1_555 1_555
C15 C10 1_555 1_555
H15 C15 1_555 1_555
C16 H16 1_555 1_555
C17 C16 1_555 1_555
H17 C17 1_555 1_555
C18 C17 1_555 1_555
C19 C18 1_555 1_555
H18 C19 1_555 1_555
C20 C19 1_555 1_555
H19 C20 1_555 1_555
C21 C16 1_555 1_555
C22 C23 1_555 1_555
C23 C24 1_555 1_555
C24 C10 1_555 1_555
H20 C24 1_555 1_555
C25 C22 1_555 1_555
H21 N1 1_555 1_555
H22 C18 1_555 1_555
H23 C21 1_555 1_555
N1 C1 1_555 1_555
N2 C16 1_555 1_555
O1 C25 1_555 1_555
O2 C7 1_555 1_555
O3 C7 1_555 1_555
C5 C6 1_555 1_555
C8 O3 1_555 1_555
C14 C15 1_555 1_555
C20 C21 1_555 1_555
C22 N1 1_555 1_555
C24 N2 1_555 1_555
C25 N2 1_555 1_555

#END
