
#######################################################################
#
#                 Cambridge Crystallographic Data Centre
#                                CCDC 
#
#######################################################################
#
# If this CIF has been generated from an entry in the Cambridge 
# Structural Database, then it will include bibliographic, chemical, 
# crystal, experimental, refinement or atomic coordinate data resulting 
# from the CCDC's data processing and validation procedures.
#
#######################################################################

data_QUJJIP
_chemical_name_common            
'Ethyl 4-(p-Tolylamino)-2,5-dihydro-5-oxo-2-phenyl-1-p-tolyl-1H-pyrrole-3-carboxylate'
_chemical_formula_moiety         'C27 H26 N2 O3'
_chemical_name_systematic        
'Ethyl 1-(4-methylphenyl)-4-((4-methylphenyl)amino)-5-oxo-2-phenyl-2,5-dihydro-1H-pyrrole-3-carboxylate'
_symmetry_cell_setting           triclinic
_symmetry_space_group_name_H-M   'P -1'
_symmetry_Int_Tables_number      2
_space_group_name_Hall           '-P 1'
loop_
_symmetry_equiv_pos_site_id
_symmetry_equiv_pos_as_xyz
1 x,y,z
2 -x,-y,-z
_cell_length_a                   6.386(4)
_cell_length_b                   12.900(9)
_cell_length_c                   14.839(10)
_cell_angle_alpha                69.293(7)
_cell_angle_beta                 80.382(9)
_cell_angle_gamma                87.329(8)
_cell_volume                     1127.28
_exptl_crystal_colour            colorless
_exptl_crystal_description       block
_chemical_melting_point          '156-158 deg.C'
_cell_formula_units_Z            2
loop_
_atom_site_label
_atom_site_type_symbol
_atom_site_fract_x
_atom_site_fract_y
_atom_site_fract_z
C1 C 1.2316(12) -0.4641(5) 0.6350(4)
H1 H 1.1358 -0.5252 0.6714
H2 H 1.3026 -0.4445 0.6790
H3 H 1.3348 -0.4849 0.5896
C2 C 1.1094(9) -0.3668(4) 0.5802(3)
C3 C 0.9175(9) -0.3785(4) 0.5532(4)
H4 H 0.8610 -0.4492 0.5701
C4 C 0.8074(8) -0.2885(4) 0.5018(4)
H5 H 0.6804 -0.2992 0.4833
C5 C 0.8854(7) -0.1826(3) 0.4780(3)
C6 C 1.0737(8) -0.1693(4) 0.5048(3)
H6 H 1.1289 -0.0983 0.4881
C7 C 1.1841(9) -0.2602(4) 0.5565(3)
H7 H 1.3104 -0.2491 0.5755
C8 C 0.6467(7) 0.2797(3) 0.2140(3)
C9 C 0.4356(8) 0.2946(4) 0.2398(3)
H8 H 0.3513 0.2349 0.2826
C10 C 0.3450(8) 0.3978(4) 0.2028(3)
H9 H 0.2016 0.4069 0.2231
C11 C 0.4645(9) 0.4878(4) 0.1361(3)
C12 C 0.3621(11) 0.5998(4) 0.0956(4)
H10 H 0.3969 0.6473 0.1285
H11 H 0.2107 0.5903 0.1058
H12 H 0.4138 0.6328 0.0270
C13 C 0.6752(9) 0.4715(4) 0.1117(3)
H13 H 0.7596 0.5315 0.0693
C14 C 0.7695(8) 0.3687(4) 0.1477(3)
H14 H 0.9129 0.3597 0.1275
C15 C 0.9643(7) 0.1549(3) 0.1024(3)
C16 C 0.8036(8) 0.1123(4) 0.0738(3)
H15 H 0.6833 0.0811 0.1187
C17 C 0.8198(9) 0.1156(4) -0.0213(3)
H16 H 0.7127 0.0848 -0.0398
C18 C 0.9948(11) 0.1644(5) -0.0884(4)
H17 H 1.0052 0.1685 -0.1528
C19 C 1.1529(10) 0.2068(5) -0.0601(4)
H18 H 1.2729 0.2382 -0.1052
C20 C 1.1380(8) 0.2040(4) 0.0344(3)
H19 H 1.2454 0.2353 0.0522
C21 C 0.8212(6) -0.0025(3) 0.3480(3)
C22 C 0.6643(7) 0.0894(3) 0.3338(3)
C23 C 0.9535(6) 0.1467(3) 0.2081(3)
H20 H 1.0604 0.1967 0.2114
C24 C 0.9885(6) 0.0301(3) 0.2761(3)
C25 C 1.1886(7) -0.0202(4) 0.2558(3)
C26 C 1.3832(9) -0.1857(5) 0.2788(4)
H21 H 1.4843 -0.1668 0.3128
H22 H 1.4417 -0.1617 0.2099
C27 C 1.3431(13) -0.3059(5) 0.3175(5)
H23 H 1.2886 -0.3291 0.3861
H24 H 1.4732 -0.3436 0.3075
H25 H 1.2411 -0.3236 0.2842
H26 H 0.620(10) -0.071(5) 0.466(4)
N1 N 0.7613(6) -0.0916(3) 0.4289(2)
N2 N 0.7439(5) 0.1740(3) 0.2508(2)
O1 O 0.4995(5) 0.0872(3) 0.3890(2)
O2 O 1.3468(6) 0.0307(3) 0.2084(3)
O3 O 1.1837(5) -0.1318(2) 0.2931(2)
loop_
_geom_bond_atom_site_label_1
_geom_bond_atom_site_label_2
_geom_bond_site_symmetry_1
_geom_bond_site_symmetry_2
C1 H1 1_555 1_555
H2 C1 1_555 1_555
H3 C1 1_555 1_555
C2 C1 1_555 1_555
C3 C2 1_555 1_555
H4 C3 1_555 1_555
C4 C3 1_555 1_555
H5 C4 1_555 1_555
C5 C4 1_555 1_555
C6 C5 1_555 1_555
H6 C6 1_555 1_555
C7 C2 1_555 1_555
H7 C7 1_555 1_555
C8 C9 1_555 1_555
C9 H8 1_555 1_555
C10 C9 1_555 1_555
H9 C10 1_555 1_555
C11 C10 1_555 1_555
C12 C11 1_555 1_555
H10 C12 1_555 1_555
H11 C12 1_555 1_555
H12 C12 1_555 1_555
C13 C11 1_555 1_555
H13 C13 1_555 1_555
C14 C8 1_555 1_555
H14 C14 1_555 1_555
C15 C16 1_555 1_555
C16 H15 1_555 1_555
C17 C16 1_555 1_555
H16 C17 1_555 1_555
C18 C17 1_555 1_555
H17 C18 1_555 1_555
C19 C18 1_555 1_555
H18 C19 1_555 1_555
C20 C15 1_555 1_555
H19 C20 1_555 1_555
C21 C22 1_555 1_555
C22 N2 1_555 1_555
C23 C15 1_555 1_555
H20 C23 1_555 1_555
C24 C21 1_555 1_555
C25 C24 1_555 1_555
C26 H21 1_555 1_555
H22 C26 1_555 1_555
C27 C26 1_555 1_555
H23 C27 1_555 1_555
H24 C27 1_555 1_555
H25 C27 1_555 1_555
H26 N1 1_555 1_555
N1 C5 1_555 1_555
N2 C8 1_555 1_555
O1 C22 1_555 1_555
O2 C25 1_555 1_555
O3 C25 1_555 1_555
C6 C7 1_555 1_555
C13 C14 1_555 1_555
C19 C20 1_555 1_555
C21 N1 1_555 1_555
C23 C24 1_555 1_555
C23 N2 1_555 1_555
C26 O3 1_555 1_555

#END
