
#######################################################################
#
#                 Cambridge Crystallographic Data Centre
#                                CCDC 
#
#######################################################################
#
# If this CIF has been generated from an entry in the Cambridge 
# Structural Database, then it will include bibliographic, chemical, 
# crystal, experimental, refinement or atomic coordinate data resulting 
# from the CCDC's data processing and validation procedures.
#
#######################################################################

data_QUJTUK
_chemical_formula_moiety         'C15 H12 N2 S5'
_chemical_name_systematic        
4,5-bis(3-Pyridylmethylthio)-1,3-dithiole-2-thione
_symmetry_cell_setting           monoclinic
_symmetry_space_group_name_H-M   'P 21/c'
_symmetry_Int_Tables_number      14
_space_group_name_Hall           '-P 2ybc'
loop_
_symmetry_equiv_pos_site_id
_symmetry_equiv_pos_as_xyz
1 x,y,z
2 -x,1/2+y,1/2-z
3 -x,-y,-z
4 x,1/2-y,1/2+z
_cell_length_a                   19.646(4)
_cell_length_b                   5.849(1)
_cell_length_c                   29.643(6)
_cell_angle_alpha                90
_cell_angle_beta                 101.67(3)
_cell_angle_gamma                90
_cell_volume                     3335.85
_exptl_crystal_colour            yellow
_exptl_crystal_description       Needle
_cell_formula_units_Z            8
loop_
_atom_site_label
_atom_site_type_symbol
_atom_site_fract_x
_atom_site_fract_y
_atom_site_fract_z
S1 S -0.08419(4) 0.47596(13) 0.07244(2)
S2 S -0.01506(4) 0.89117(12) 0.11993(2)
S3 S 0.02800(3) 0.72475(13) 0.03737(2)
S4 S 0.08486(4) 1.28445(12) 0.13605(2)
S5 S 0.13053(3) 1.10341(13) 0.03416(2)
N1 N 0.25209(13) 0.5969(4) 0.15558(9)
N2 N 0.06218(17) 1.0408(6) 0.28254(11)
C1 C -0.02698(13) 0.6842(5) 0.07638(9)
C2 C 0.05170(14) 1.0438(5) 0.10239(9)
C3 C 0.07141(13) 0.9688(5) 0.06343(9)
C4 C 0.19742(14) 0.8818(5) 0.03749(9)
H1 H 0.1758 0.7406 0.0247
H2 H 0.2306 0.9280 0.0191
C5 C 0.23592(13) 0.8396(5) 0.08725(9)
C6 C 0.22269(14) 0.6456(5) 0.11036(10)
H3 H 0.1917 0.5397 0.0943
C7 C 0.29830(14) 0.7493(6) 0.17777(10)
H4 H 0.3195 0.7202 0.2082
C8 C 0.31575(14) 0.9485(6) 0.15717(10)
H5 H 0.3480 1.0498 0.1736
C9 C 0.28390(13) 0.9947(5) 0.11120(10)
H6 H 0.2947 1.1275 0.0969
C10 C 0.15204(14) 1.1508(5) 0.18077(10)
H7 H 0.1767 1.0379 0.1662
H8 H 0.1853 1.2673 0.1939
C11 C 0.12499(13) 1.0354(5) 0.21970(9)
C12 C 0.08388(15) 1.1504(5) 0.24605(10)
H9 H 0.0709 1.3013 0.2391
C13 C 0.08436(17) 0.8170(6) 0.29233(12)
H10 H 0.0719 0.7438 0.3173
C14 C 0.12216(14) 0.7042(5) 0.26787(11)
H11 H 0.1354 0.5538 0.2752
C15 C 0.14152(15) 0.8104(5) 0.23196(11)
H12 H 0.1674 0.7279 0.2145
S6 S 0.37352(4) 1.73559(14) 0.02474(2)
S7 S 0.27260(4) 1.40800(13) -0.03053(2)
S8 S 0.41894(4) 1.34528(13) -0.02753(3)
S9 S 0.22827(4) 1.00924(13) -0.09529(3)
S10 S 0.39830(4) 0.92837(13) -0.09023(3)
N3 N 0.56539(15) 0.5480(5) -0.14109(10)
N4 N 0.33760(16) 1.5275(6) -0.18960(11)
C16 C 0.35563(14) 1.5101(5) -0.00914(9)
C17 C 0.29485(14) 1.1809(5) -0.06392(9)
C18 C 0.36374(14) 1.1537(5) -0.06245(9)
C19 C 0.46834(14) 1.0711(5) -0.11173(10)
H13 H 0.4500 1.1968 -0.1319
H14 H 0.5027 1.1309 -0.0863
C20 C 0.50069(13) 0.8922(5) -0.13793(9)
C21 C 0.53987(14) 0.7130(5) -0.11513(9)
H15 H 0.5488 0.7038 -0.0831
C22 C 0.54980(15) 0.5673(5) -0.18996(10)
H16 H 0.5654 0.4529 -0.2071
C23 C 0.51412(12) 0.7401(5) -0.21236(8)
H17 H 0.5060 0.7503 -0.2443
C24 C 0.49044(14) 0.8991(5) -0.18683(9)
H18 H 0.4657 1.0217 -0.2020
C25 C 0.19663(14) 1.1960(5) -0.14592(10)
H19 H 0.1599 1.1170 -0.1669
H20 H 0.1768 1.3335 -0.1356
C26 C 0.25247(13) 1.2641(5) -0.17184(9)
C27 C 0.28480(15) 1.4744(5) -0.16511(10)
H21 H 0.2721 1.5797 -0.1448
C28 C 0.35485(15) 1.3619(5) -0.21926(9)
H22 H 0.3897 1.3960 -0.2352
C29 C 0.32454(13) 1.1587(5) -0.22608(8)
H23 H 0.3377 1.0524 -0.2460
C30 C 0.27424(15) 1.1135(5) -0.20301(10)
H24 H 0.2521 0.9725 -0.2080
loop_
_geom_bond_atom_site_label_1
_geom_bond_atom_site_label_2
_geom_bond_site_symmetry_1
_geom_bond_site_symmetry_2
S1 C1 1_555 1_555
S2 C1 1_555 1_555
S3 C1 1_555 1_555
S4 C2 1_555 1_555
S5 C3 1_555 1_555
N1 C6 1_555 1_555
N2 C12 1_555 1_555
C2 S2 1_555 1_555
C3 S3 1_555 1_555
C4 S5 1_555 1_555
H1 C4 1_555 1_555
H2 C4 1_555 1_555
C5 C4 1_555 1_555
C6 C5 1_555 1_555
H3 C6 1_555 1_555
C7 N1 1_555 1_555
H4 C7 1_555 1_555
C8 C7 1_555 1_555
H5 C8 1_555 1_555
C9 C5 1_555 1_555
H6 C9 1_555 1_555
C10 S4 1_555 1_555
H7 C10 1_555 1_555
H8 C10 1_555 1_555
C11 C10 1_555 1_555
C12 C11 1_555 1_555
H9 C12 1_555 1_555
C13 N2 1_555 1_555
H10 C13 1_555 1_555
C14 C13 1_555 1_555
H11 C14 1_555 1_555
C15 C11 1_555 1_555
H12 C15 1_555 1_555
S6 C16 1_555 1_555
S7 C16 1_555 1_555
S8 C16 1_555 1_555
S9 C17 1_555 1_555
S10 C18 1_555 1_555
N3 C21 1_555 1_555
N4 C27 1_555 1_555
C17 S7 1_555 1_555
C18 S8 1_555 1_555
C19 S10 1_555 1_555
H13 C19 1_555 1_555
H14 C19 1_555 1_555
C20 C19 1_555 1_555
C21 C20 1_555 1_555
H15 C21 1_555 1_555
C22 N3 1_555 1_555
H16 C22 1_555 1_555
C23 C22 1_555 1_555
H17 C23 1_555 1_555
C24 C20 1_555 1_555
H18 C24 1_555 1_555
C25 S9 1_555 1_555
H19 C25 1_555 1_555
H20 C25 1_555 1_555
C26 C25 1_555 1_555
C27 C26 1_555 1_555
H21 C27 1_555 1_555
C28 N4 1_555 1_555
H22 C28 1_555 1_555
C29 C28 1_555 1_555
H23 C29 1_555 1_555
C30 C26 1_555 1_555
H24 C30 1_555 1_555
C2 C3 1_555 1_555
C8 C9 1_555 1_555
C14 C15 1_555 1_555
C17 C18 1_555 1_555
C23 C24 1_555 1_555
C29 C30 1_555 1_555

#END
