
#######################################################################
#
#                 Cambridge Crystallographic Data Centre
#                                CCDC 
#
#######################################################################
#
# If this CIF has been generated from an entry in the Cambridge 
# Structural Database, then it will include bibliographic, chemical, 
# crystal, experimental, refinement or atomic coordinate data resulting 
# from the CCDC's data processing and validation procedures.
#
#######################################################################

data_QUJVAS
_chemical_formula_moiety         'C9 H7 N1 S4'
_chemical_name_systematic        4-(3-Pyridylmethylthio)-1,3-dithiole-2-thione
_symmetry_cell_setting           monoclinic
_symmetry_space_group_name_H-M   'C 2/c'
_symmetry_Int_Tables_number      15
_space_group_name_Hall           '-C 2yn'
loop_
_symmetry_equiv_pos_site_id
_symmetry_equiv_pos_as_xyz
1 x,y,z
2 1/2+x,1/2+y,z
3 -x,y,1/2-z
4 1/2-x,1/2+y,1/2-z
5 -x,-y,-z
6 1/2-x,1/2-y,-z
7 x,-y,1/2+z
8 1/2+x,1/2-y,1/2+z
_cell_length_a                   12.996(3)
_cell_length_b                   7.934(2)
_cell_length_c                   22.205(4)
_cell_angle_alpha                90
_cell_angle_beta                 109.62(3)
_cell_angle_gamma                90
_cell_volume                     2156.63
_exptl_crystal_colour            yellow
_exptl_crystal_description       block
_chemical_melting_point          '90-91 deg.C'
_cell_formula_units_Z            8
loop_
_atom_site_label
_atom_site_type_symbol
_atom_site_fract_x
_atom_site_fract_y
_atom_site_fract_z
S1 S 0.42355(5) 0.35936(7) 0.33499(3)
S2 S 0.40664(4) 0.07857(7) 0.42260(3)
S3 S 0.34947(5) -0.17331(7) 0.32283(3)
S4 S 0.35079(5) -0.26616(8) 0.45400(3)
N1 N 0.64905(19) 0.8187(3) 0.42516(12)
C1 C 0.65237(16) 0.7890(3) 0.31776(10)
H1 H 0.6632 0.8350 0.2818
C2 C 0.62348(18) 0.6281(3) 0.31951(11)
H2 H 0.6147 0.5622 0.2835
C3 C 0.60548(17) 0.5521(3) 0.37178(11)
C4 C 0.61790(19) 0.6509(3) 0.42580(11)
H3 H 0.6057 0.6056 0.4614
C5 C 0.66491(19) 0.8808(3) 0.37040(12)
H4 H 0.6855 0.9930 0.3703
C6 C 0.57277(19) 0.3698(3) 0.36848(13)
H5 H 0.5981 0.3203 0.4109
H6 H 0.6050 0.3079 0.3416
C7 C 0.40269(18) 0.1450(3) 0.34673(11)
C8 C 0.37664(19) 0.0267(3) 0.30119(11)
C9 C 0.36835(18) -0.1284(3) 0.40265(11)
H7 H 0.372(4) 0.043(7) 0.260(2)
loop_
_geom_bond_atom_site_label_1
_geom_bond_atom_site_label_2
_geom_bond_site_symmetry_1
_geom_bond_site_symmetry_2
S1 C6 1_555 1_555
S2 C7 1_555 1_555
S3 C8 1_555 1_555
S4 C9 1_555 1_555
N1 C4 1_555 1_555
C1 H1 1_555 1_555
C2 C1 1_555 1_555
H2 C2 1_555 1_555
C3 C2 1_555 1_555
C4 C3 1_555 1_555
H3 C4 1_555 1_555
C5 N1 1_555 1_555
H4 C5 1_555 1_555
C6 C3 1_555 1_555
H5 C6 1_555 1_555
H6 C6 1_555 1_555
C7 S1 1_555 1_555
C8 C7 1_555 1_555
C9 S2 1_555 1_555
H7 C8 1_555 1_555
S3 C9 1_555 1_555
C1 C5 1_555 1_555

#END
