
#######################################################################
#
#                 Cambridge Crystallographic Data Centre
#                                CCDC 
#
#######################################################################
#
# If this CIF has been generated from an entry in the Cambridge 
# Structural Database, then it will include bibliographic, chemical, 
# crystal, experimental, refinement or atomic coordinate data resulting 
# from the CCDC's data processing and validation procedures.
#
#######################################################################

data_QUJWIC
_chemical_formula_moiety         'C22 H24 N5 O2'
_chemical_name_systematic        
2-(4-(2-Hydroxy-4-isopropoxyphenyl)-5-phenylpyrimidin-2-yl)-1,1-dimethylguanidine
_symmetry_cell_setting           monoclinic
_symmetry_space_group_name_H-M   'P 21/n'
_symmetry_Int_Tables_number      14
_space_group_name_Hall           '-P 2yn'
loop_
_symmetry_equiv_pos_site_id
_symmetry_equiv_pos_as_xyz
1 x,y,z
2 1/2-x,1/2+y,1/2-z
3 -x,-y,-z
4 1/2+x,1/2-y,1/2+z
_cell_length_a                   10.7248(8)
_cell_length_b                   18.8940(14)
_cell_length_c                   10.8058(8)
_cell_angle_alpha                90
_cell_angle_beta                 108.843(1)
_cell_angle_gamma                90
_cell_volume                     2072.28
_exptl_crystal_colour            colorless
_exptl_crystal_description       block
_chemical_melting_point          '215.2-216 deg.C'
_cell_formula_units_Z            4
loop_
_atom_site_label
_atom_site_type_symbol
_atom_site_fract_x
_atom_site_fract_y
_atom_site_fract_z
N1 N 0.61651(15) 0.06227(7) 0.92221(14)
N2 N 0.57163(13) 0.16768(6) 0.79761(13)
N3 N 0.63073(14) 0.07087(7) 0.70626(14)
N4 N 0.64783(18) -0.04734(7) 0.78177(18)
N5 N 0.67464(15) -0.01777(7) 0.58377(15)
O1 O 0.46063(16) 0.26198(6) 0.63114(11)
H1 H 0.4938 0.2234 0.6573
O2 O 0.40293(14) 0.49059(6) 0.79109(12)
C1 C 0.37533(17) 0.22426(9) 1.08900(17)
H2 H 0.3190 0.2255 1.0031
C2 C 0.3327(2) 0.25016(10) 1.18740(18)
H3 H 0.2482 0.2687 1.1675
C3 C 0.4145(2) 0.24868(10) 1.31510(19)
H4 H 0.3861 0.2666 1.3815
C4 C 0.5385(2) 0.22049(10) 1.34360(17)
H5 H 0.5937 0.2188 1.4299
C5 C 0.58244(18) 0.19452(9) 1.24499(17)
H6 H 0.6669 0.1758 1.2657
C6 C 0.50134(15) 0.19630(8) 1.11579(15)
C7 C 0.54551(15) 0.16742(8) 1.00865(15)
C8 C 0.58537(17) 0.09776(8) 1.01566(17)
H7 H 0.5912 0.0732 1.0919
C9 C 0.60617(16) 0.09860(8) 0.81183(16)
C10 C 0.54328(14) 0.20316(8) 0.89326(14)
C11 C 0.50995(15) 0.27854(8) 0.86401(15)
C12 C 0.46840(17) 0.30395(8) 0.73436(16)
C13 C 0.43260(17) 0.37463(8) 0.70659(16)
H8 H 0.4039 0.3903 0.6204
C14 C 0.43970(17) 0.42120(8) 0.80647(16)
C15 C 0.48678(17) 0.39816(8) 0.93529(16)
H9 H 0.4952 0.4299 1.0034
C16 C 0.52071(16) 0.32882(8) 0.96167(16)
H10 H 0.5524 0.3144 1.0485
C17 C 0.37895(19) 0.52599(9) 0.66801(18)
H11 H 0.3352 0.4933 0.5967
C18 C 0.5075(3) 0.54896(14) 0.6552(3)
H12 H 0.5484 0.5828 0.7223
H13 H 0.4926 0.5702 0.5709
H14 H 0.5642 0.5086 0.6641
C19 C 0.2879(3) 0.58582(12) 0.6686(3)
H15 H 0.2078 0.5674 0.6774
H16 H 0.2684 0.6117 0.5882
H17 H 0.3292 0.6167 0.7407
C20 C 0.65103(16) 0.00235(8) 0.69365(17)
C21 C 0.6829(2) -0.09218(9) 0.5522(2)
H18 H 0.7509 -0.1147 0.6215
H19 H 0.7031 -0.0960 0.4721
H20 H 0.6001 -0.1148 0.5420
C22 C 0.6841(2) 0.03377(10) 0.4880(2)
H21 H 0.5982 0.0422 0.4264
H22 H 0.7414 0.0161 0.4428
H23 H 0.7191 0.0773 0.5313
H24 H 0.655(2) -0.0912(5) 0.771(2)
loop_
_geom_bond_atom_site_label_1
_geom_bond_atom_site_label_2
_geom_bond_site_symmetry_1
_geom_bond_site_symmetry_2
N1 C8 1_555 1_555
N2 C9 1_555 1_555
N3 C9 1_555 1_555
N4 C20 1_555 1_555
N5 C20 1_555 1_555
O1 H1 1_555 1_555
O2 C14 1_555 1_555
C1 H2 1_555 1_555
C2 C1 1_555 1_555
H3 C2 1_555 1_555
C3 C2 1_555 1_555
H4 C3 1_555 1_555
C4 C3 1_555 1_555
H5 C4 1_555 1_555
C5 C4 1_555 1_555
H6 C5 1_555 1_555
C6 C1 1_555 1_555
C7 C6 1_555 1_555
C8 C7 1_555 1_555
H7 C8 1_555 1_555
C9 N1 1_555 1_555
C10 N2 1_555 1_555
C11 C10 1_555 1_555
C12 O1 1_555 1_555
C13 C12 1_555 1_555
H8 C13 1_555 1_555
C14 C13 1_555 1_555
C15 C14 1_555 1_555
H9 C15 1_555 1_555
C16 C11 1_555 1_555
H10 C16 1_555 1_555
C17 O2 1_555 1_555
H11 C17 1_555 1_555
C18 C17 1_555 1_555
H12 C18 1_555 1_555
H13 C18 1_555 1_555
H14 C18 1_555 1_555
C19 C17 1_555 1_555
H15 C19 1_555 1_555
H16 C19 1_555 1_555
H17 C19 1_555 1_555
C20 N3 1_555 1_555
C21 N5 1_555 1_555
H18 C21 1_555 1_555
H19 C21 1_555 1_555
H20 C21 1_555 1_555
C22 N5 1_555 1_555
H21 C22 1_555 1_555
H22 C22 1_555 1_555
H23 C22 1_555 1_555
H24 N4 1_555 1_555
C5 C6 1_555 1_555
C7 C10 1_555 1_555
C11 C12 1_555 1_555
C15 C16 1_555 1_555

#END
