
#######################################################################
#
#                 Cambridge Crystallographic Data Centre
#                                CCDC 
#
#######################################################################
#
# If this CIF has been generated from an entry in the Cambridge 
# Structural Database, then it will include bibliographic, chemical, 
# crystal, experimental, refinement or atomic coordinate data resulting 
# from the CCDC's data processing and validation procedures.
#
#######################################################################

data_QUJXOI
_chemical_name_common            
2,2,4,4,6,6,8,8-Octahydrido-1,1,3,3,5,5,7,7-octaphenyl-2,4,6,8-tetrabory-1,3,5,7-tetraphosphy-[8]cycle
_chemical_formula_moiety         'C48 H48 B4 P4'
_chemical_name_systematic        
1,1,3,3,5,5,7,7-Octaphenyl-2,4,6,8-tetrabora-1,3,5,7-tetraphosphacyclooctane
_symmetry_cell_setting           triclinic
_symmetry_space_group_name_H-M   'P -1'
_symmetry_Int_Tables_number      2
_space_group_name_Hall           '-P 1'
loop_
_symmetry_equiv_pos_site_id
_symmetry_equiv_pos_as_xyz
1 x,y,z
2 -x,-y,-z
_cell_length_a                   12.4731(8)
_cell_length_b                   17.7114(11)
_cell_length_c                   21.70110(10)
_cell_angle_alpha                87.409(3)
_cell_angle_beta                 73.293(3)
_cell_angle_gamma                69.386(2)
_cell_volume                     4289.36
_exptl_crystal_colour            colorless
_exptl_crystal_description       needle
_cell_formula_units_Z            4
_exptl_crystal_recrystallization_method toluene
loop_
_atom_site_label
_atom_site_type_symbol
_atom_site_fract_x
_atom_site_fract_y
_atom_site_fract_z
P1 P 0.18981(11) 0.31315(7) 0.56266(5)
P2 P 0.31033(11) 0.33096(7) 0.41104(5)
P3 P 0.45586(11) 0.22214(7) 0.57882(5)
P4 P 0.57672(11) 0.25830(7) 0.43252(5)
B1 B 0.2242(5) 0.3858(3) 0.4958(2)
H1 H 0.143(4) 0.427(2) 0.4913(18)
H2 H 0.286(4) 0.410(2) 0.5120(18)
B2 B 0.4620(5) 0.2422(3) 0.3958(2)
H3 H 0.501(4) 0.232(2) 0.3408(19)
H4 H 0.443(4) 0.191(2) 0.4199(18)
B3 B 0.5301(5) 0.2895(3) 0.5236(2)
H5 H 0.469(4) 0.351(3) 0.5298(17)
H6 H 0.611(4) 0.289(2) 0.5389(17)
B4 B 0.3127(5) 0.2109(3) 0.5685(2)
H7 H 0.279(4) 0.179(2) 0.6080(19)
H8 H 0.339(4) 0.173(2) 0.5191(18)
C1 C 0.1236(4) 0.3719(3) 0.6396(2)
C2 C 0.0740(5) 0.4556(3) 0.6432(2)
H9 H 0.0780 0.4838 0.6047
C3 C 0.0190(6) 0.4981(3) 0.7022(2)
H10 H -0.0152 0.5554 0.7038
C4 C 0.0125(5) 0.4597(3) 0.7585(2)
H11 H -0.0265 0.4898 0.7989
C5 C 0.0632(5) 0.3769(3) 0.7559(2)
H12 H 0.0599 0.3496 0.7947
C6 C 0.1191(4) 0.3330(3) 0.6970(2)
H13 H 0.1546 0.2758 0.6958
C7 C 0.0669(4) 0.2877(3) 0.55215(19)
C8 C -0.0444(4) 0.3489(3) 0.5577(2)
H14 H -0.0559 0.4031 0.5685
C9 C -0.1371(5) 0.3308(3) 0.5474(2)
H15 H -0.2118 0.3727 0.5508
C10 C -0.1217(5) 0.2523(4) 0.5322(2)
H16 H -0.1860 0.2403 0.5254
C11 C -0.0135(5) 0.1911(3) 0.5269(2)
H17 H -0.0025 0.1370 0.5159
C12 C 0.0790(4) 0.2093(3) 0.5378(2)
H18 H 0.1527 0.1668 0.5353
C13 C 0.3340(4) 0.4081(3) 0.35574(19)
C14 C 0.3358(7) 0.4021(4) 0.2928(3)
H19 H 0.3169 0.3599 0.2783
C15 C 0.3653(8) 0.4576(5) 0.2500(3)
H20 H 0.3675 0.4519 0.2063
C16 C 0.3904(5) 0.5187(3) 0.2687(3)
H21 H 0.4091 0.5566 0.2391
C17 C 0.3887(5) 0.5253(3) 0.3310(3)
H22 H 0.4064 0.5684 0.3449
C18 C 0.3617(5) 0.4708(3) 0.3750(2)
H23 H 0.3622 0.4764 0.4182
C19 C 0.2146(4) 0.2932(3) 0.38173(19)
C20 C 0.0929(4) 0.3365(3) 0.3961(2)
H24 H 0.0589 0.3853 0.4226
C21 C 0.0198(5) 0.3089(3) 0.3721(2)
H25 H -0.0636 0.3388 0.3823
C22 C 0.0688(5) 0.2381(3) 0.3335(2)
H26 H 0.0194 0.2201 0.3162
C23 C 0.1886(5) 0.1938(3) 0.3201(2)
H27 H 0.2220 0.1446 0.2942
C24 C 0.2614(4) 0.2211(3) 0.3446(2)
H28 H 0.3441 0.1897 0.3357
C25 C 0.6345(4) 0.3321(3) 0.3890(2)
C26 C 0.6701(5) 0.3268(3) 0.3218(2)
H29 H 0.6622 0.2851 0.2994
C27 C 0.7165(5) 0.3814(3) 0.2871(2)
H30 H 0.7405 0.3766 0.2413
C28 C 0.7281(5) 0.4426(3) 0.3186(2)
H31 H 0.7612 0.4795 0.2948
C29 C 0.6907(5) 0.4498(3) 0.3856(2)
H32 H 0.6964 0.4928 0.4075
C30 C 0.6455(4) 0.3953(3) 0.4203(2)
H33 H 0.6215 0.4005 0.4661
C31 C 0.7073(4) 0.1639(2) 0.41228(18)
C32 C 0.6947(4) 0.0894(3) 0.4054(2)
H34 H 0.6175 0.0876 0.4102
C33 C 0.7924(5) 0.0193(3) 0.3917(2)
H35 H 0.7820 -0.0307 0.3876
C34 C 0.9058(5) 0.0203(3) 0.3837(2)
H36 H 0.9734 -0.0284 0.3736
C35 C 0.9194(4) 0.0936(3) 0.3908(2)
H37 H 0.9967 0.0951 0.3860
C36 C 0.8213(4) 0.1642(3) 0.40470(19)
H38 H 0.8320 0.2140 0.4092
C37 C 0.4250(4) 0.2573(3) 0.66207(19)
C38 C 0.4215(4) 0.3334(3) 0.6775(2)
H39 H 0.4391 0.3679 0.6444
C39 C 0.3921(5) 0.3587(3) 0.7416(2)
H40 H 0.3887 0.4112 0.7520
C40 C 0.3679(5) 0.3103(3) 0.7899(2)
H41 H 0.3484 0.3287 0.8336
C41 C 0.3720(5) 0.2339(3) 0.7749(2)
H42 H 0.3548 0.1998 0.8084
C42 C 0.4011(4) 0.2075(3) 0.7115(2)
H43 H 0.4049 0.1548 0.7014
C43 C 0.5657(4) 0.1209(3) 0.57376(19)
C44 C 0.6814(4) 0.1110(3) 0.5736(2)
H44 H 0.7020 0.1574 0.5755
C45 C 0.7667(4) 0.0354(3) 0.5706(2)
H45 H 0.8456 0.0297 0.5700
C46 C 0.7364(5) -0.0324(3) 0.5684(2)
H46 H 0.7948 -0.0848 0.5665
C47 C 0.6233(5) -0.0243(3) 0.5690(2)
H47 H 0.6028 -0.0710 0.5681
C48 C 0.5383(5) 0.0516(3) 0.5711(2)
H48 H 0.4602 0.0566 0.5706
P5 P 0.56574(11) 0.18668(7) -0.06276(5)
P6 P 0.55222(11) 0.16901(7) 0.08905(5)
P7 P 0.76742(11) 0.24167(7) 0.06737(5)
P8 P 0.75698(11) 0.27796(7) -0.07892(5)
B5 B 0.6063(5) 0.1140(3) 0.0046(2)
H49 H 0.564(4) 0.073(2) 0.0041(18)
H50 H 0.707(4) 0.088(2) -0.0052(18)
B6 B 0.6000(5) 0.2581(3) 0.1039(2)
H51 H 0.550(4) 0.310(2) 0.0839(18)
H52 H 0.574(4) 0.271(2) 0.1556(19)
B7 B 0.8430(5) 0.2112(3) -0.0239(2)
H53 H 0.936(4) 0.214(2) -0.0362(18)
H54 H 0.845(4) 0.155(3) -0.0332(18)
B8 B 0.5926(4) 0.2888(3) -0.0684(3)
H55 H 0.570(4) 0.315(2) -0.1076(18)
H56 H 0.542(4) 0.319(2) -0.0221(18)
C49 C 0.6353(4) 0.1282(3) -0.1397(2)
C50 C 0.6737(5) 0.0448(3) -0.1435(2)
H57 H 0.6688 0.0169 -0.1050
C51 C 0.7187(6) 0.0016(3) -0.2018(2)
H58 H 0.7427 -0.0557 -0.2033
C52 C 0.7294(5) 0.0412(3) -0.2585(2)
H59 H 0.7604 0.0113 -0.2990
C53 C 0.6950(5) 0.1233(3) -0.2558(2)
H60 H 0.7031 0.1507 -0.2945
C54 C 0.6483(4) 0.1671(3) -0.19677(19)
H61 H 0.6249 0.2243 -0.1955
C55 C 0.4060(4) 0.2125(3) -0.05228(18)
C56 C 0.3619(5) 0.1512(3) -0.0577(2)
H62 H 0.4157 0.0970 -0.0683
C57 C 0.2413(5) 0.1689(3) -0.0476(2)
H63 H 0.2122 0.1269 -0.0511
C58 C 0.1633(5) 0.2469(3) -0.0328(2)
H64 H 0.0803 0.2589 -0.0263
C59 C 0.2046(4) 0.3081(3) -0.0271(2)
H65 H 0.1500 0.3620 -0.0160
C60 C 0.3268(4) 0.2907(3) -0.0378(2)
H66 H 0.3556 0.3331 -0.0349
C61 C 0.5981(4) 0.0919(3) 0.14405(19)
C62 C 0.5311(5) 0.0981(4) 0.2073(3)
H67 H 0.4559 0.1408 0.2217
C63 C 0.5716(6) 0.0431(5) 0.2504(3)
H68 H 0.5239 0.0489 0.2940
C64 C 0.6781(6) -0.0188(3) 0.2314(3)
H69 H 0.7051 -0.0564 0.2612
C65 C 0.7452(5) -0.0260(3) 0.1693(3)
H70 H 0.8199 -0.0692 0.1554
C66 C 0.7069(5) 0.0288(3) 0.1254(2)
H71 H 0.7560 0.0228 0.0820
C67 C 0.3894(4) 0.2069(3) 0.1182(2)
C68 C 0.3246(5) 0.1632(3) 0.1048(2)
H72 H 0.3659 0.1137 0.0792
C69 C 0.2005(5) 0.1907(3) 0.1282(2)
H73 H 0.1571 0.1608 0.1180
C70 C 0.1410(5) 0.2612(3) 0.1662(2)
H74 H 0.0564 0.2791 0.1831
C71 C 0.2018(5) 0.3065(3) 0.1801(2)
H75 H 0.1596 0.3556 0.2061
C72 C 0.3262(4) 0.2793(3) 0.1556(2)
H76 H 0.3686 0.3107 0.1646
C73 C 0.8569(4) 0.1671(2) 0.11133(19)
C74 C 0.8191(5) 0.1735(3) 0.1777(2)
H77 H 0.7474 0.2158 0.1995
C75 C 0.8843(5) 0.1190(3) 0.2132(2)
H78 H 0.8571 0.1238 0.2590
C76 C 0.9886(5) 0.0580(3) 0.1816(2)
H79 H 1.0344 0.0212 0.2056
C77 C 1.0270(5) 0.0500(3) 0.1153(2)
H80 H 1.0982 0.0072 0.0935
C78 C 0.9606(4) 0.1054(3) 0.0801(2)
H81 H 0.9873 0.1004 0.0343
C79 C 0.7835(4) 0.3359(2) 0.08763(18)
C80 C 0.6894(4) 0.4097(3) 0.0944(2)
H82 H 0.6153 0.4112 0.0896
C81 C 0.7033(5) 0.4814(3) 0.1081(2)
H83 H 0.6392 0.5316 0.1120
C82 C 0.8102(5) 0.4794(3) 0.1160(2)
H84 H 0.8193 0.5282 0.1257
C83 C 0.9046(5) 0.4063(3) 0.1098(2)
H85 H 0.9779 0.4046 0.1158
C84 C 0.8900(4) 0.3359(3) 0.0947(2)
H86 H 0.9554 0.2861 0.0891
C85 C 0.8455(4) 0.2425(3) -0.16202(18)
C86 C 0.9324(4) 0.1671(3) -0.1778(2)
H87 H 0.9517 0.1324 -0.1448
C87 C 0.9918(5) 0.1416(3) -0.2418(2)
H88 H 1.0506 0.0889 -0.2521
C88 C 0.9684(5) 0.1897(3) -0.2901(2)
H89 H 1.0113 0.1714 -0.3337
C89 C 0.8818(5) 0.2654(3) -0.2753(2)
H90 H 0.8641 0.2992 -0.3091
C90 C 0.8199(4) 0.2932(3) -0.2117(2)
H91 H 0.7608 0.3459 -0.2018
C91 C 0.7593(4) 0.3800(2) -0.07407(18)
C92 C 0.8659(4) 0.3893(3) -0.0733(2)
H92 H 0.9345 0.3427 -0.0750
C93 C 0.8729(5) 0.4649(3) -0.0703(2)
H93 H 0.9456 0.4702 -0.0695
C94 C 0.7738(5) 0.5328(3) -0.0685(2)
H94 H 0.7783 0.5851 -0.0672
C95 C 0.6682(5) 0.5240(3) -0.0686(2)
H95 H 0.5998 0.5708 -0.0669
C96 C 0.6603(4) 0.4484(3) -0.0711(2)
H96 H 0.5867 0.4435 -0.0708
loop_
_geom_bond_atom_site_label_1
_geom_bond_atom_site_label_2
_geom_bond_site_symmetry_1
_geom_bond_site_symmetry_2
P1 B1 1_555 1_555
P2 B1 1_555 1_555
P3 B3 1_555 1_555
P4 B2 1_555 1_555
B1 H1 1_555 1_555
H2 B1 1_555 1_555
B2 P2 1_555 1_555
H3 B2 1_555 1_555
H4 B2 1_555 1_555
B3 P4 1_555 1_555
H5 B3 1_555 1_555
H6 B3 1_555 1_555
B4 P1 1_555 1_555
H7 B4 1_555 1_555
H8 B4 1_555 1_555
C1 P1 1_555 1_555
C2 C1 1_555 1_555
H9 C2 1_555 1_555
C3 C2 1_555 1_555
H10 C3 1_555 1_555
C4 C3 1_555 1_555
H11 C4 1_555 1_555
C5 C4 1_555 1_555
H12 C5 1_555 1_555
C6 C1 1_555 1_555
H13 C6 1_555 1_555
C7 P1 1_555 1_555
C8 C7 1_555 1_555
H14 C8 1_555 1_555
C9 C8 1_555 1_555
H15 C9 1_555 1_555
C10 C9 1_555 1_555
H16 C10 1_555 1_555
C11 C10 1_555 1_555
H17 C11 1_555 1_555
C12 C7 1_555 1_555
H18 C12 1_555 1_555
C13 P2 1_555 1_555
C14 C13 1_555 1_555
H19 C14 1_555 1_555
C15 C14 1_555 1_555
H20 C15 1_555 1_555
C16 C15 1_555 1_555
H21 C16 1_555 1_555
C17 C16 1_555 1_555
H22 C17 1_555 1_555
C18 C13 1_555 1_555
H23 C18 1_555 1_555
C19 P2 1_555 1_555
C20 C19 1_555 1_555
H24 C20 1_555 1_555
C21 C20 1_555 1_555
H25 C21 1_555 1_555
C22 C21 1_555 1_555
H26 C22 1_555 1_555
C23 C22 1_555 1_555
H27 C23 1_555 1_555
C24 C19 1_555 1_555
H28 C24 1_555 1_555
C25 P4 1_555 1_555
C26 C25 1_555 1_555
H29 C26 1_555 1_555
C27 C26 1_555 1_555
H30 C27 1_555 1_555
C28 C27 1_555 1_555
H31 C28 1_555 1_555
C29 C28 1_555 1_555
H32 C29 1_555 1_555
C30 C25 1_555 1_555
H33 C30 1_555 1_555
C31 P4 1_555 1_555
C32 C31 1_555 1_555
H34 C32 1_555 1_555
C33 C32 1_555 1_555
H35 C33 1_555 1_555
C34 C33 1_555 1_555
H36 C34 1_555 1_555
C35 C34 1_555 1_555
H37 C35 1_555 1_555
C36 C31 1_555 1_555
H38 C36 1_555 1_555
C37 P3 1_555 1_555
C38 C37 1_555 1_555
H39 C38 1_555 1_555
C39 C38 1_555 1_555
H40 C39 1_555 1_555
C40 C39 1_555 1_555
H41 C40 1_555 1_555
C41 C40 1_555 1_555
H42 C41 1_555 1_555
C42 C37 1_555 1_555
H43 C42 1_555 1_555
C43 P3 1_555 1_555
C44 C43 1_555 1_555
H44 C44 1_555 1_555
C45 C44 1_555 1_555
H45 C45 1_555 1_555
C46 C45 1_555 1_555
H46 C46 1_555 1_555
C47 C46 1_555 1_555
H47 C47 1_555 1_555
C48 C43 1_555 1_555
H48 C48 1_555 1_555
P5 B5 1_555 1_555
P6 B5 1_555 1_555
P7 B6 1_555 1_555
P8 B7 1_555 1_555
B5 H49 1_555 1_555
H50 B5 1_555 1_555
B6 P6 1_555 1_555
H51 B6 1_555 1_555
H52 B6 1_555 1_555
B7 P7 1_555 1_555
H53 B7 1_555 1_555
H54 B7 1_555 1_555
B8 P5 1_555 1_555
H55 B8 1_555 1_555
H56 B8 1_555 1_555
C49 P5 1_555 1_555
C50 C49 1_555 1_555
H57 C50 1_555 1_555
C51 C50 1_555 1_555
H58 C51 1_555 1_555
C52 C51 1_555 1_555
H59 C52 1_555 1_555
C53 C52 1_555 1_555
H60 C53 1_555 1_555
C54 C49 1_555 1_555
H61 C54 1_555 1_555
C55 P5 1_555 1_555
C56 C55 1_555 1_555
H62 C56 1_555 1_555
C57 C56 1_555 1_555
H63 C57 1_555 1_555
C58 C57 1_555 1_555
H64 C58 1_555 1_555
C59 C58 1_555 1_555
H65 C59 1_555 1_555
C60 C55 1_555 1_555
H66 C60 1_555 1_555
C61 P6 1_555 1_555
C62 C61 1_555 1_555
H67 C62 1_555 1_555
C63 C62 1_555 1_555
H68 C63 1_555 1_555
C64 C63 1_555 1_555
H69 C64 1_555 1_555
C65 C64 1_555 1_555
H70 C65 1_555 1_555
C66 C61 1_555 1_555
H71 C66 1_555 1_555
C67 P6 1_555 1_555
C68 C67 1_555 1_555
H72 C68 1_555 1_555
C69 C68 1_555 1_555
H73 C69 1_555 1_555
C70 C69 1_555 1_555
H74 C70 1_555 1_555
C71 C70 1_555 1_555
H75 C71 1_555 1_555
C72 C67 1_555 1_555
H76 C72 1_555 1_555
C73 P7 1_555 1_555
C74 C73 1_555 1_555
H77 C74 1_555 1_555
C75 C74 1_555 1_555
H78 C75 1_555 1_555
C76 C75 1_555 1_555
H79 C76 1_555 1_555
C77 C76 1_555 1_555
H80 C77 1_555 1_555
C78 C73 1_555 1_555
H81 C78 1_555 1_555
C79 P7 1_555 1_555
C80 C79 1_555 1_555
H82 C80 1_555 1_555
C81 C80 1_555 1_555
H83 C81 1_555 1_555
C82 C81 1_555 1_555
H84 C82 1_555 1_555
C83 C82 1_555 1_555
H85 C83 1_555 1_555
C84 C79 1_555 1_555
H86 C84 1_555 1_555
C85 P8 1_555 1_555
C86 C85 1_555 1_555
H87 C86 1_555 1_555
C87 C86 1_555 1_555
H88 C87 1_555 1_555
C88 C87 1_555 1_555
H89 C88 1_555 1_555
C89 C88 1_555 1_555
H90 C89 1_555 1_555
C90 C85 1_555 1_555
H91 C90 1_555 1_555
C91 P8 1_555 1_555
C92 C91 1_555 1_555
H92 C92 1_555 1_555
C93 C92 1_555 1_555
H93 C93 1_555 1_555
C94 C93 1_555 1_555
H94 C94 1_555 1_555
C95 C94 1_555 1_555
H95 C95 1_555 1_555
C96 C91 1_555 1_555
H96 C96 1_555 1_555
P3 B4 1_555 1_555
C5 C6 1_555 1_555
C11 C12 1_555 1_555
C17 C18 1_555 1_555
C23 C24 1_555 1_555
C29 C30 1_555 1_555
C35 C36 1_555 1_555
C41 C42 1_555 1_555
C47 C48 1_555 1_555
P8 B8 1_555 1_555
C53 C54 1_555 1_555
C59 C60 1_555 1_555
C65 C66 1_555 1_555
C71 C72 1_555 1_555
C77 C78 1_555 1_555
C83 C84 1_555 1_555
C89 C90 1_555 1_555
C95 C96 1_555 1_555

#END
