
#######################################################################
#
#                 Cambridge Crystallographic Data Centre
#                                CCDC 
#
#######################################################################
#
# If this CIF has been generated from an entry in the Cambridge 
# Structural Database, then it will include bibliographic, chemical, 
# crystal, experimental, refinement or atomic coordinate data resulting 
# from the CCDC's data processing and validation procedures.
#
#######################################################################

data_QUJXOK
_chemical_formula_moiety         'C4 H6 N8,H2 O1'
_chemical_name_systematic        
"3,5-Diamino-N'-cyano-1H-1,2,4-triazole-1-carboximidamide monohydrate"
_symmetry_cell_setting           monoclinic
_symmetry_space_group_name_H-M   'P 21/n'
_symmetry_Int_Tables_number      14
_space_group_name_Hall           '-P 2yn'
loop_
_symmetry_equiv_pos_site_id
_symmetry_equiv_pos_as_xyz
1 x,y,z
2 1/2-x,1/2+y,1/2-z
3 -x,-y,-z
4 1/2+x,1/2-y,1/2+z
_cell_length_a                   6.7142(15)
_cell_length_b                   7.0332(16)
_cell_length_c                   16.589(4)
_cell_angle_alpha                90
_cell_angle_beta                 91.557(4)
_cell_angle_gamma                90
_cell_volume                     783.082
_exptl_crystal_colour            colorless
_exptl_crystal_description       Prism
_chemical_melting_point          '85.5 deg.C'
_cell_formula_units_Z            4
loop_
_atom_site_label
_atom_site_type_symbol
_atom_site_fract_x
_atom_site_fract_y
_atom_site_fract_z
N1 N 0.43142(16) 0.30661(16) 0.58000(6)
N2 N 0.41078(17) 0.33843(17) 0.66319(7)
N3 N 0.13546(16) 0.43988(16) 0.59178(6)
N4 N 0.23127(18) 0.36302(18) 0.46003(7)
N5 N 0.1415(2) 0.4649(2) 0.73474(8)
N6 N 0.72805(18) 0.15232(18) 0.60539(7)
N7 N 0.60539(16) 0.20298(17) 0.47195(7)
N8 N 0.88257(18) 0.04514(18) 0.40297(7)
C1 C 0.26152(18) 0.37022(18) 0.53900(8)
C2 C 0.23167(19) 0.41630(19) 0.66434(8)
C3 C 0.59771(19) 0.21610(18) 0.55144(8)
C4 C 0.75850(19) 0.11725(19) 0.43933(8)
H1 H 0.324(3) 0.309(3) 0.4281(11)
H2 H 0.119(3) 0.412(3) 0.4400(11)
H3 H 0.227(3) 0.481(3) 0.7766(13)
H4 H 0.056(3) 0.558(3) 0.7286(13)
H5 H 0.715(3) 0.171(2) 0.6549(12)
H6 H 0.851(3) 0.097(3) 0.5880(11)
O1 O 0.67375(18) 0.66309(19) 0.72119(7)
H7 H 0.605(5) 0.541(4) 0.7101(17)
H8 H 0.574(5) 0.761(5) 0.7319(18)
loop_
_geom_bond_atom_site_label_1
_geom_bond_atom_site_label_2
_geom_bond_site_symmetry_1
_geom_bond_site_symmetry_2
N1 N2 1_555 1_555
N2 C2 1_555 1_555
N3 C1 1_555 1_555
N4 C1 1_555 1_555
N5 C2 1_555 1_555
N6 C3 1_555 1_555
N7 C3 1_555 1_555
N8 C4 1_555 1_555
C1 N1 1_555 1_555
C2 N3 1_555 1_555
C3 N1 1_555 1_555
C4 N7 1_555 1_555
H1 N4 1_555 1_555
H2 N4 1_555 1_555
H3 N5 1_555 1_555
H4 N5 1_555 1_555
H5 N6 1_555 1_555
H6 N6 1_555 1_555
O1 H7 1_555 1_555
H8 O1 1_555 1_555

#END
