
#######################################################################
#
#                 Cambridge Crystallographic Data Centre
#                                CCDC 
#
#######################################################################
#
# If this CIF has been generated from an entry in the Cambridge 
# Structural Database, then it will include bibliographic, chemical, 
# crystal, experimental, refinement or atomic coordinate data resulting 
# from the CCDC's data processing and validation procedures.
#
#######################################################################

data_QUJYIF
_chemical_name_common            1,8,13-Trimethoxytriptycene
_chemical_formula_moiety         'C23 H20 O3'
_chemical_name_systematic        
3,13,16-Trimethoxypentacyclo[6.6.6.0^2,7^.0^9,14^.0^15,20^]icosa-2,4,6,9,11,13,15,17,19-nonaene
_symmetry_cell_setting           orthorhombic
_symmetry_space_group_name_H-M   'P n m a'
_symmetry_Int_Tables_number      62
_space_group_name_Hall           '-P 2ac 2n'
loop_
_symmetry_equiv_pos_site_id
_symmetry_equiv_pos_as_xyz
1 x,y,z
2 1/2-x,-y,1/2+z
3 1/2+x,1/2-y,1/2-z
4 -x,1/2+y,-z
5 -x,-y,-z
6 1/2+x,y,1/2-z
7 1/2-x,1/2+y,1/2+z
8 x,1/2-y,z
_cell_length_a                   15.608(11)
_cell_length_b                   13.388(10)
_cell_length_c                   8.041(6)
_cell_angle_alpha                90
_cell_angle_beta                 90
_cell_angle_gamma                90
_cell_volume                     1680.25
_exptl_crystal_colour            colorless
_exptl_crystal_description       block
_cell_formula_units_Z            4
loop_
_atom_site_label
_atom_site_type_symbol
_atom_site_fract_x
_atom_site_fract_y
_atom_site_fract_z
O1 O 0.16563(12) 0.09425(14) 1.0207(2)
O2 O 0.20127(17) 0.2500 0.5349(3)
C1 C 0.29227(19) 0.0065(2) 1.1263(3)
C2 C 0.38106(19) 0.0069(2) 1.1448(3)
C3 C 0.43071(19) 0.0829(2) 1.0810(3)
C4 C 0.39117(18) 0.1587(2) 0.9940(3)
C5 C 0.30280(17) 0.1598(2) 0.9706(3)
C6 C 0.25300(17) 0.0846(2) 1.0411(3)
C7 C 0.2703(3) 0.2500 0.8724(4)
C8 C 0.3218(2) 0.2500 0.7093(4)
C9 C 0.4349(3) 0.2500 0.9164(5)
C10 C 0.4105(2) 0.2500 0.7333(5)
C11 C 0.4671(3) 0.2500 0.6003(5)
C12 C 0.4329(3) 0.2500 0.4419(5)
C13 C 0.3455(3) 0.2500 0.4146(5)
C14 C 0.1132(2) 0.0208(2) 1.0992(3)
C15 C 0.1674(3) 0.2500 0.3730(5)
C16 C 0.2896(3) 0.2500 0.5488(5)
H1 H 0.2590 -0.0464 1.1712
H2 H 0.4079 -0.0464 1.2028
H3 H 0.4910 0.0830 1.0966
H4 H 0.2069 0.2500 0.8552
H5 H 0.4984 0.2500 0.9339
H6 H 0.5273 0.2500 0.6175
H7 H 0.4705 0.2500 0.3491
H8 H 0.3237 0.2500 0.3043
H9 H 0.0527 0.0354 1.0767
H10 H 0.1232 0.0220 1.2194
H11 H 0.1275 -0.0454 1.0553
H12 H 0.1047 0.2500 0.3786
H13 H 0.1870 0.1902 0.3138
H13G H 0.1870 0.3098 0.3138
O1G O 0.16563(12) 0.40575(14) 1.0207(2)
C1G C 0.29227(19) 0.4935(2) 1.1263(3)
C2G C 0.38106(19) 0.4931(2) 1.1448(3)
C3G C 0.43071(19) 0.4171(2) 1.0810(3)
C4G C 0.39117(18) 0.3413(2) 0.9940(3)
C5G C 0.30280(17) 0.3402(2) 0.9706(3)
C6G C 0.25300(17) 0.4154(2) 1.0411(3)
C14G C 0.1132(2) 0.4792(2) 1.0992(3)
H1G H 0.2590 0.5464 1.1712
H2G H 0.4079 0.5464 1.2028
H3G H 0.4910 0.4170 1.0966
H9G H 0.0527 0.4646 1.0767
H10G H 0.1232 0.4780 1.2194
H11G H 0.1275 0.5454 1.0553
H14? H 0.1870 0.1902 0.3138
loop_
_geom_bond_atom_site_label_1
_geom_bond_atom_site_label_2
_geom_bond_site_symmetry_1
_geom_bond_site_symmetry_2
O1 C6 1_555 1_555
O2 C15 1_555 1_555
C1 C2 1_555 1_555
C2 C3 1_555 1_555
C3 C4 1_555 1_555
C4 C5 1_555 1_555
C5 C6 1_555 1_555
C6 C1 1_555 1_555
C7 C5 1_555 1_555
C8 C7 1_555 1_555
C9 C4 1_555 1_555
C10 C8 1_555 1_555
C11 C10 1_555 1_555
C12 C11 1_555 1_555
C13 C12 1_555 1_555
C14 O1 1_555 1_555
C15 H12 1_555 1_555
C16 O2 1_555 1_555
H1 C1 1_555 1_555
H2 C2 1_555 1_555
H3 C3 1_555 1_555
H4 C7 1_555 1_555
H5 C9 1_555 1_555
H6 C11 1_555 1_555
H7 C12 1_555 1_555
H8 C13 1_555 1_555
H9 C14 1_555 1_555
H10 C14 1_555 1_555
H11 C14 1_555 1_555
H13 C15 1_555 1_555
H13G C15 1_555 1_555
O1G C6G 1_555 1_555
C1G C2G 1_555 1_555
C2G C3G 1_555 1_555
C3G C4G 1_555 1_555
C4G C9 1_555 1_555
C5G C7 1_555 1_555
C6G C1G 1_555 1_555
C14G O1G 1_555 1_555
H1G C1G 1_555 1_555
H2G C2G 1_555 1_555
H3G C3G 1_555 1_555
H9G C14G 1_555 1_555
H10G C14G 1_555 1_555
H11G C14G 1_555 1_555
C8 C16 1_555 1_555
C9 C10 1_555 1_555
C13 C16 1_555 1_555
C4G C5G 1_555 1_555
C5G C6G 1_555 1_555

#END
