
#######################################################################
#
#                 Cambridge Crystallographic Data Centre
#                                CCDC 
#
#######################################################################
#
# If this CIF has been generated from an entry in the Cambridge 
# Structural Database, then it will include bibliographic, chemical, 
# crystal, experimental, refinement or atomic coordinate data resulting 
# from the CCDC's data processing and validation procedures.
#
#######################################################################

data_QUJZEB
_chemical_name_common            
'3,9,15,33-Tetra-t-butyl-37,38-dihydroxy-24-isopropyl-19,22,28-trioxa-25-azahexacyclo[15.12.7.1$7,11!.1$31,35!.0$5,29!.0$13,18!]octatriaconta-1(29),2,4,7(38),8,10,13,15,17,31(37),32,34-dodecaene-21,26-dione methanol clathrate'
_chemical_formula_moiety         'C53 H69 N1 O7,C1 H4 O1'
_chemical_name_systematic        
'5,11,17,23-Tetra-t-butyl-25,27-dihydroxy-26,28-(4-isopropyl-2,7-dioxo-3-aza-6-oxaoctane-1,8-dioxy)calix(4)arene methanol clathrate'
_symmetry_cell_setting           monoclinic
_symmetry_space_group_name_H-M   'P 21'
_symmetry_Int_Tables_number      4
_space_group_name_Hall           'P 2yb'
loop_
_symmetry_equiv_pos_site_id
_symmetry_equiv_pos_as_xyz
1 x,y,z
2 -x,1/2+y,-z
_cell_length_a                   11.9708(13)
_cell_length_b                   34.928(3)
_cell_length_c                   12.444(2)
_cell_angle_alpha                90
_cell_angle_beta                 110.5050(13)
_cell_angle_gamma                90
_cell_volume                     4873.38
_chemical_melting_point          'above 300 deg.C'
_cell_formula_units_Z            4
_exptl_crystal_recrystallization_method acetone/methanol
loop_
_atom_site_label
_atom_site_type_symbol
_atom_site_fract_x
_atom_site_fract_y
_atom_site_fract_z
C1 C 0.5366(3) 0.32685(9) 0.7891(3)
C2 C 0.4205(3) 0.32955(9) 0.7131(3)
C3 C 0.3384(3) 0.35251(9) 0.7393(3)
H1 H 0.2602 0.3543 0.6884
C4 C 0.3739(3) 0.37273(10) 0.8417(3)
C5 C 0.4912(3) 0.37051(9) 0.9166(3)
H2 H 0.5153 0.3845 0.9844
C6 C 0.5726(3) 0.34740(9) 0.8905(3)
C7 C 0.7968(3) 0.39257(10) 0.8584(3)
C8 C 0.7485(3) 0.38993(9) 0.9436(3)
C9 C 0.7429(3) 0.42005(10) 1.0114(3)
H3 H 0.7165 0.4165 1.0726
C10 C 0.7758(3) 0.45476(10) 0.9882(3)
C11 C 0.8258(3) 0.46084(10) 0.9023(3)
H4 H 0.8537 0.4846 0.8894
C12 C 0.8301(3) 0.42840(10) 0.8381(3)
C13 C 0.7337(3) 0.41411(10) 0.5453(3)
C14 C 0.7804(3) 0.44226(10) 0.6269(3)
C15 C 0.7269(3) 0.47567(10) 0.6123(3)
H5 H 0.7558 0.4942 0.6690
C16 C 0.6282(3) 0.48466(10) 0.5150(3)
C17 C 0.5812(3) 0.45574(9) 0.4381(3)
H6 H 0.5127 0.4604 0.3750
C18 C 0.6320(3) 0.42015(9) 0.4511(3)
C19 C 0.4697(3) 0.35148(9) 0.4785(3)
C20 C 0.4553(3) 0.37423(8) 0.3856(3)
C21 C 0.3467(2) 0.38519(8) 0.3132(3)
H7 H 0.3408 0.4008 0.2510
C22 C 0.2422(3) 0.37314(9) 0.3312(3)
C23 C 0.2618(3) 0.34741(9) 0.4280(3)
H8 H 0.1952 0.3380 0.4414
C24 C 0.3716(3) 0.33611(9) 0.5004(3)
C25 C 0.6994(3) 0.35170(9) 0.9709(3)
H9 H 0.7473 0.3305 0.9609
H10 H 0.7023 0.3517 1.0498
C26 C 0.8782(3) 0.43140(9) 0.7409(3)
H11 H 0.9129 0.4070 0.7320
H12 H 0.9408 0.4506 0.7601
C27 C 0.5691(3) 0.38899(9) 0.3699(3)
H13 H 0.6237 0.3677 0.3793
H14 H 0.5488 0.3984 0.2921
C28 C 0.3807(3) 0.31002(10) 0.5990(3)
H15 H 0.3034 0.2984 0.5856
H16 H 0.4364 0.2896 0.6012
C29 C 0.2904(3) 0.40113(9) 0.8640(3)
C30 C 0.3397(3) 0.43980(9) 0.9199(3)
H17 H 0.4101 0.4355 0.9859
H18 H 0.2806 0.4525 0.9429
H19 H 0.3592 0.4555 0.8656
C31 C 0.2443(3) 0.38084(10) 0.9487(3)
H20 H 0.2162 0.3558 0.9202
H21 H 0.1801 0.3954 0.9577
H22 H 0.3077 0.3786 1.0215
C32 C 0.1787(3) 0.40591(9) 0.7581(3)
H23 H 0.1340 0.3825 0.7435
H24 H 0.2011 0.4121 0.6932
H25 H 0.1307 0.4262 0.7709
C33 C 0.7588(3) 0.49240(9) 1.0462(3)
C34 C 0.8746(3) 0.51526(9) 1.0866(3)
H26 H 0.8917 0.5244 1.0213
H27 H 0.9386 0.4992 1.1324
H28 H 0.8663 0.5367 1.1317
C35 C 0.6622(3) 0.51526(10) 0.9611(3)
H29 H 0.6860 0.5219 0.8974
H30 H 0.6482 0.5382 0.9970
H31 H 0.5903 0.5004 0.9343
C36 C 0.7243(3) 0.47865(9) 1.1480(3)
H32 H 0.7138 0.5004 1.1906
H33 H 0.7864 0.4626 1.1969
H34 H 0.6512 0.4644 1.1197
C37 C 0.5674(3) 0.52346(9) 0.4938(3)
C38 C 0.6145(3) 0.55006(10) 0.5961(3)
H35 H 0.7001 0.5493 0.6252
H36 H 0.5850 0.5420 0.6549
H37 H 0.5883 0.5757 0.5729
C39 C 0.4319(3) 0.52204(10) 0.4406(3)
H38 H 0.4089 0.5053 0.3753
H39 H 0.4017 0.5473 0.4169
H40 H 0.3997 0.5126 0.4962
C40 C 0.5821(3) 0.54345(10) 0.3926(3)
H41 H 0.6652 0.5480 0.4073
H42 H 0.5404 0.5675 0.3803
H43 H 0.5499 0.5277 0.3255
C41 C 0.1211(3) 0.38409(9) 0.2510(3)
C42 C 0.1228(3) 0.42125(9) 0.1876(3)
H44 H 0.1537 0.4415 0.2422
H45 H 0.0432 0.4275 0.1385
H46 H 0.1727 0.4182 0.1423
C43 C 0.0810(3) 0.35195(10) 0.1649(3)
H47 H 0.0782 0.3285 0.2041
H48 H 0.1362 0.3493 0.1250
H49 H 0.0031 0.3576 0.1108
C44 C 0.0281(3) 0.38631(10) 0.3075(3)
H50 H 0.0319 0.3636 0.3522
H51 H -0.0497 0.3883 0.2495
H52 H 0.0430 0.4084 0.3565
C45 C 0.6284(3) 0.26724(9) 0.8031(3)
H53 H 0.5501 0.2554 0.7743
H54 H 0.6573 0.2662 0.8862
C46 C 0.7127(3) 0.24632(9) 0.7583(3)
C47 C 0.8521(3) 0.25174(9) 0.6673(3)
H55 H 0.8093 0.2462 0.5869
H56 H 0.8820 0.2278 0.7062
C48 C 0.9557(3) 0.27845(9) 0.6786(3)
H57 H 0.9965 0.2686 0.6284
C49 C 1.0493(3) 0.28575(9) 0.7944(3)
H58 H 1.1019 0.3066 0.7894
C50 C 1.0009(3) 0.29360(10) 0.8920(3)
H59 H 0.9592 0.3176 0.8785
H60 H 1.0662 0.2946 0.9639
H61 H 0.9473 0.2734 0.8944
C51 C 1.1198(3) 0.24829(9) 0.8265(3)
H62 H 1.1487 0.2412 0.7664
H63 H 1.0688 0.2284 0.8365
H64 H 1.1860 0.2518 0.8967
C52 C 0.9339(3) 0.33393(9) 0.5539(3)
C53 C 0.8771(3) 0.37098(9) 0.5106(3)
H65 H 0.8418 0.3704 0.4276
H66 H 0.9361 0.3913 0.5324
N1 N 0.9026(2) 0.31570(7) 0.6318(2)
H133 H 0.8501 0.3258 0.6559
O1 O 0.62101(18) 0.30688(6) 0.76445(19)
O2 O 0.79596(19) 0.36257(6) 0.79110(18)
H135 H 0.7150 0.3549 0.7508
O3 O 0.78411(18) 0.37798(6) 0.56101(18)
O4 O 0.58289(19) 0.33892(6) 0.55008(18)
H136 H 0.6359 0.3550 0.5496
O5 O 0.72366(18) 0.21172(6) 0.76238(17)
O6 O 0.77276(18) 0.26945(6) 0.71705(18)
O7 O 1.01063(19) 0.32162(6) 0.51672(18)
C54 C 0.7484(3) 0.12449(9) 0.4581(3)
C55 C 0.8553(3) 0.11817(9) 0.5560(3)
C56 C 0.9065(3) 0.08382(9) 0.5663(3)
H67 H 0.9701 0.0785 0.6333
C57 C 0.8701(3) 0.05547(10) 0.4824(3)
C58 C 0.7635(3) 0.06217(9) 0.3933(3)
H68 H 0.7292 0.0423 0.3426
C59 C 0.7059(3) 0.09731(10) 0.3769(3)
C60 C 0.6868(3) 0.15264(9) 0.1605(3)
C61 C 0.6525(3) 0.11554(10) 0.1715(3)
C62 C 0.6662(3) 0.08601(10) 0.1013(3)
H69 H 0.6421 0.0613 0.1108
C63 C 0.7162(3) 0.09333(10) 0.0164(3)
C64 C 0.7459(3) 0.13278(10) 0.0043(3)
H70 H 0.7745 0.1390 -0.0540
C65 C 0.7344(3) 0.16022(10) 0.0717(3)
C66 C 0.9535(3) 0.22007(9) 0.2410(3)
C67 C 0.9137(3) 0.20177(9) 0.1387(3)
C68 C 0.9959(3) 0.18009(9) 0.1051(3)
H71 H 0.9701 0.1690 0.0326
C69 C 1.1155(3) 0.17462(9) 0.1775(3)
C70 C 1.1517(3) 0.19395(9) 0.2837(3)
H72 H 1.2307 0.1916 0.3324
C71 C 1.0771(3) 0.21573(9) 0.3183(3)
C72 C 1.0199(3) 0.19097(9) 0.5416(3)
C73 C 1.1209(3) 0.20384(9) 0.5318(3)
C74 C 1.2289(3) 0.19100(8) 0.6040(3)
H73 H 1.2982 0.2007 0.5966
C75 C 1.2374(3) 0.16455(9) 0.6858(3)
C76 C 1.1348(3) 0.15170(9) 0.7007(3)
H74 H 1.1395 0.1342 0.7586
C77 C 1.0243(3) 0.16491(10) 0.6290(3)
C78 C 0.6036(3) 0.10408(10) 0.2637(3)
H75 H 0.5567 0.0809 0.2408
H76 H 0.5520 0.1242 0.2735
C79 C 0.7852(3) 0.20008(9) 0.0655(3)
H77 H 0.7762 0.2059 -0.0134
H78 H 0.7411 0.2191 0.0912
C80 C 1.1123(3) 0.23254(10) 0.4385(3)
H79 H 1.1889 0.2452 0.4566
H80 H 1.0543 0.2519 0.4385
C81 C 0.9127(3) 0.14845(10) 0.6426(3)
H81 H 0.9332 0.1377 0.7190
H82 H 0.8559 0.1690 0.6355
C82 C 0.9338(3) 0.01660(9) 0.4987(3)
C83 C 0.9163(3) 0.00443(9) 0.3773(3)
H83 H 0.9151 0.0267 0.3316
H84 H 0.8421 -0.0090 0.3455
H85 H 0.9806 -0.0120 0.3777
C84 C 0.8640(3) -0.00861(10) 0.5485(3)
H86 H 0.7901 -0.0155 0.4897
H87 H 0.8478 0.0048 0.6088
H88 H 0.9090 -0.0313 0.5790
C85 C 1.0641(3) 0.02095(10) 0.5827(3)
H89 H 1.0642 0.0254 0.6589
H90 H 1.1012 0.0422 0.5593
H91 H 1.1078 -0.0021 0.5820
C86 C 0.7388(3) 0.06143(9) -0.0514(3)
C87 C 0.7740(3) 0.07497(9) -0.1521(3)
H92 H 0.8412 0.0919 -0.1245
H93 H 0.7081 0.0883 -0.2065
H94 H 0.7947 0.0533 -0.1885
C88 C 0.6339(3) 0.03397(9) -0.0878(3)
H95 H 0.5650 0.0467 -0.1396
H96 H 0.6175 0.0256 -0.0214
H97 H 0.6528 0.0122 -0.1255
C89 C 0.8476(3) 0.04040(10) 0.0329(3)
H98 H 0.9161 0.0569 0.0531
H99 H 0.8630 0.0176 -0.0029
H100 H 0.8315 0.0336 0.1007
C90 C 1.1993(3) 0.15198(9) 0.1391(3)
C91 C 1.2943(3) 0.17291(9) 0.1114(3)
H101 H 1.2583 0.1901 0.0486
H102 H 1.3437 0.1549 0.0905
H103 H 1.3421 0.1872 0.1774
C92 C 1.2720(3) 0.12816(10) 0.2401(3)
H104 H 1.2938 0.1434 0.3086
H105 H 1.3429 0.1194 0.2283
H106 H 1.2259 0.1065 0.2478
C93 C 1.1392(3) 0.12287(9) 0.0464(3)
H107 H 1.0859 0.1073 0.0702
H108 H 1.1987 0.1069 0.0337
H109 H 1.0950 0.1360 -0.0234
C94 C 1.3606(3) 0.15268(9) 0.7703(3)
C95 C 1.4006(3) 0.18460(10) 0.8603(3)
H110 H 1.4776 0.1785 0.9152
H111 H 1.3441 0.1870 0.8988
H112 H 1.4051 0.2084 0.8233
C96 C 1.3555(3) 0.11537(9) 0.8309(3)
H113 H 1.3308 0.0951 0.7755
H114 H 1.2994 0.1178 0.8699
H115 H 1.4330 0.1097 0.8856
C97 C 1.4449(3) 0.14860(9) 0.7042(3)
H116 H 1.4183 0.1281 0.6497
H117 H 1.5237 0.1430 0.7566
H118 H 1.4462 0.1721 0.6644
C98 C 0.6000(3) 0.16253(9) 0.4958(3)
H119 H 0.6355 0.1576 0.5775
H120 H 0.5371 0.1440 0.4624
C99 C 0.5514(3) 0.20227(9) 0.4749(3)
C100 C 0.5593(3) 0.26393(9) 0.4024(3)
H121 H 0.6140 0.2777 0.4672
H122 H 0.4792 0.2666 0.4040
C101 C 0.5658(3) 0.28012(9) 0.2848(2)
H123 H 0.5631 0.3082 0.2853
C102 C 0.4611(3) 0.26483(10) 0.1832(3)
H124 H 0.4621 0.2368 0.1844
C103 C 0.3475(3) 0.27933(10) 0.1999(3)
H125 H 0.3679 0.2912 0.2738
H126 H 0.2947 0.2582 0.1950
H127 H 0.3087 0.2977 0.1412
C104 C 0.4797(3) 0.27916(9) 0.0737(3)
H128 H 0.5522 0.2686 0.0698
H129 H 0.4849 0.3066 0.0754
H130 H 0.4137 0.2712 0.0077
C105 C 0.7519(3) 0.29535(10) 0.2664(3)
C106 C 0.8630(3) 0.28029(9) 0.2456(3)
H131 H 0.8537 0.2832 0.1654
H132 H 0.9329 0.2946 0.2914
N2 N 0.6763(2) 0.26779(7) 0.2756(2)
H134 H 0.7151 0.2536 0.3378
O8 O 0.69105(18) 0.15995(6) 0.44114(17)
O9 O 0.67886(17) 0.18138(6) 0.22698(17)
H137 H 0.6283 0.2009 0.1802
O10 O 0.8767(2) 0.24076(6) 0.27729(18)
O11 O 0.90761(19) 0.20360(6) 0.47747(18)
H138 H 0.8744 0.1867 0.4132
O12 O 0.47477(19) 0.21412(6) 0.50989(18)
O13 O 0.59233(19) 0.22388(6) 0.40703(18)
O14 O 0.73391(18) 0.32947(6) 0.25914(18)
C107 C 0.4242(6) 0.42972(19) 0.6281(6)
H139 H 0.3712 0.4109 0.6401
H140 H 0.4131 0.4310 0.5480
H141 H 0.4073 0.4543 0.6535
O15 O 0.5469(2) 0.41911(7) 0.69301(19)
H145 H 0.5985 0.4313 0.6594
C108 C 0.9988(8) 0.0958(3) 0.3194(9)
H142 H 0.9266 0.0849 0.2672
H143 H 1.0253 0.0812 0.3891
H144 H 1.0591 0.0955 0.2850
O16 O 0.97691(19) 0.13450(6) 0.34453(19)
H146 H 0.9144 0.1448 0.2795
C109? C 0.5079(6) 0.45238(17) 0.7373(6)
C110? C 1.0552(8) 0.1060(3) 0.3342(9)
H147? H 0.4223 0.4535 0.7079
H148? H 0.5394 0.4749 0.7141
H149? H 0.5357 0.4511 0.8195
H150? H 0.5152 0.3990 0.7114
H151? H 0.9448 0.1230 0.3988
H152? H 1.0349 0.0819 0.3601
H153? H 1.1356 0.1127 0.3801
H154? H 1.0487 0.1037 0.2553
O17? O 0.5469(2) 0.41911(7) 0.69301(19)
O18? O 0.97691(19) 0.13450(6) 0.34453(19)
loop_
_geom_bond_atom_site_label_1
_geom_bond_atom_site_label_2
_geom_bond_site_symmetry_1
_geom_bond_site_symmetry_2
C1 C2 1_555 1_555
C2 C3 1_555 1_555
C3 H1 1_555 1_555
C4 C3 1_555 1_555
C5 C4 1_555 1_555
H2 C5 1_555 1_555
C6 C1 1_555 1_555
C7 C8 1_555 1_555
C8 C9 1_555 1_555
C9 H3 1_555 1_555
C10 C9 1_555 1_555
C11 C10 1_555 1_555
H4 C11 1_555 1_555
C12 C7 1_555 1_555
C13 C14 1_555 1_555
C14 C15 1_555 1_555
C15 H5 1_555 1_555
C16 C15 1_555 1_555
C17 C16 1_555 1_555
H6 C17 1_555 1_555
C18 C13 1_555 1_555
C19 C20 1_555 1_555
C20 C21 1_555 1_555
C21 H7 1_555 1_555
C22 C21 1_555 1_555
C23 C22 1_555 1_555
H8 C23 1_555 1_555
C24 C19 1_555 1_555
C25 C6 1_555 1_555
H9 C25 1_555 1_555
H10 C25 1_555 1_555
C26 C12 1_555 1_555
H11 C26 1_555 1_555
H12 C26 1_555 1_555
C27 C18 1_555 1_555
H13 C27 1_555 1_555
H14 C27 1_555 1_555
C28 C2 1_555 1_555
H15 C28 1_555 1_555
H16 C28 1_555 1_555
C29 C4 1_555 1_555
C30 C29 1_555 1_555
H17 C30 1_555 1_555
H18 C30 1_555 1_555
H19 C30 1_555 1_555
C31 C29 1_555 1_555
H20 C31 1_555 1_555
H21 C31 1_555 1_555
H22 C31 1_555 1_555
C32 C29 1_555 1_555
H23 C32 1_555 1_555
H24 C32 1_555 1_555
H25 C32 1_555 1_555
C33 C10 1_555 1_555
C34 C33 1_555 1_555
H26 C34 1_555 1_555
H27 C34 1_555 1_555
H28 C34 1_555 1_555
C35 C33 1_555 1_555
H29 C35 1_555 1_555
H30 C35 1_555 1_555
H31 C35 1_555 1_555
C36 C33 1_555 1_555
H32 C36 1_555 1_555
H33 C36 1_555 1_555
H34 C36 1_555 1_555
C37 C16 1_555 1_555
C38 C37 1_555 1_555
H35 C38 1_555 1_555
H36 C38 1_555 1_555
H37 C38 1_555 1_555
C39 C37 1_555 1_555
H38 C39 1_555 1_555
H39 C39 1_555 1_555
H40 C39 1_555 1_555
C40 C37 1_555 1_555
H41 C40 1_555 1_555
H42 C40 1_555 1_555
H43 C40 1_555 1_555
C41 C22 1_555 1_555
C42 C41 1_555 1_555
H44 C42 1_555 1_555
H45 C42 1_555 1_555
H46 C42 1_555 1_555
C43 C41 1_555 1_555
H47 C43 1_555 1_555
H48 C43 1_555 1_555
H49 C43 1_555 1_555
C44 C41 1_555 1_555
H50 C44 1_555 1_555
H51 C44 1_555 1_555
H52 C44 1_555 1_555
C45 H53 1_555 1_555
H54 C45 1_555 1_555
C46 C45 1_555 1_555
C47 H55 1_555 1_555
H56 C47 1_555 1_555
C48 C47 1_555 1_555
H57 C48 1_555 1_555
C49 C48 1_555 1_555
H58 C49 1_555 1_555
C50 C49 1_555 1_555
H59 C50 1_555 1_555
H60 C50 1_555 1_555
H61 C50 1_555 1_555
C51 C49 1_555 1_555
H62 C51 1_555 1_555
H63 C51 1_555 1_555
H64 C51 1_555 1_555
C52 C53 1_555 1_555
C53 H65 1_555 1_555
H66 C53 1_555 1_555
C54 C55 1_555 1_555
C55 C56 1_555 1_555
C56 H67 1_555 1_555
C57 C56 1_555 1_555
C58 C57 1_555 1_555
H68 C58 1_555 1_555
C59 C54 1_555 1_555
C60 C61 1_555 1_555
C61 C62 1_555 1_555
C62 H69 1_555 1_555
C63 C62 1_555 1_555
C64 C63 1_555 1_555
H70 C64 1_555 1_555
C65 C60 1_555 1_555
C66 C67 1_555 1_555
C67 C68 1_555 1_555
C68 H71 1_555 1_555
C69 C68 1_555 1_555
C70 C69 1_555 1_555
H72 C70 1_555 1_555
C71 C66 1_555 1_555
C72 C73 1_555 1_555
C73 C74 1_555 1_555
C74 H73 1_555 1_555
C75 C74 1_555 1_555
C76 C75 1_555 1_555
H74 C76 1_555 1_555
C77 C72 1_555 1_555
C78 C59 1_555 1_555
H75 C78 1_555 1_555
H76 C78 1_555 1_555
C79 C65 1_555 1_555
H77 C79 1_555 1_555
H78 C79 1_555 1_555
C80 C71 1_555 1_555
H79 C80 1_555 1_555
H80 C80 1_555 1_555
C81 C55 1_555 1_555
H81 C81 1_555 1_555
H82 C81 1_555 1_555
C82 C57 1_555 1_555
C83 C82 1_555 1_555
H83 C83 1_555 1_555
H84 C83 1_555 1_555
H85 C83 1_555 1_555
C84 C82 1_555 1_555
H86 C84 1_555 1_555
H87 C84 1_555 1_555
H88 C84 1_555 1_555
C85 C82 1_555 1_555
H89 C85 1_555 1_555
H90 C85 1_555 1_555
H91 C85 1_555 1_555
C86 C63 1_555 1_555
C87 C86 1_555 1_555
H92 C87 1_555 1_555
H93 C87 1_555 1_555
H94 C87 1_555 1_555
C88 C86 1_555 1_555
H95 C88 1_555 1_555
H96 C88 1_555 1_555
H97 C88 1_555 1_555
C89 C86 1_555 1_555
H98 C89 1_555 1_555
H99 C89 1_555 1_555
H100 C89 1_555 1_555
C90 C69 1_555 1_555
C91 C90 1_555 1_555
H101 C91 1_555 1_555
H102 C91 1_555 1_555
H103 C91 1_555 1_555
C92 C90 1_555 1_555
H104 C92 1_555 1_555
H105 C92 1_555 1_555
H106 C92 1_555 1_555
C93 C90 1_555 1_555
H107 C93 1_555 1_555
H108 C93 1_555 1_555
H109 C93 1_555 1_555
C94 C75 1_555 1_555
C95 C94 1_555 1_555
H110 C95 1_555 1_555
H111 C95 1_555 1_555
H112 C95 1_555 1_555
C96 C94 1_555 1_555
H113 C96 1_555 1_555
H114 C96 1_555 1_555
H115 C96 1_555 1_555
C97 C94 1_555 1_555
H116 C97 1_555 1_555
H117 C97 1_555 1_555
H118 C97 1_555 1_555
C98 H119 1_555 1_555
H120 C98 1_555 1_555
C99 C98 1_555 1_555
C100 H121 1_555 1_555
H122 C100 1_555 1_555
C101 C100 1_555 1_555
H123 C101 1_555 1_555
C102 C101 1_555 1_555
H124 C102 1_555 1_555
C103 C102 1_555 1_555
H125 C103 1_555 1_555
H126 C103 1_555 1_555
H127 C103 1_555 1_555
C104 C102 1_555 1_555
H128 C104 1_555 1_555
H129 C104 1_555 1_555
H130 C104 1_555 1_555
C105 C106 1_555 1_555
C106 H131 1_555 1_555
H132 C106 1_555 1_555
N1 C48 1_555 1_555
H133 N1 1_555 1_555
N2 C101 1_555 1_555
H134 N2 1_555 1_555
O1 C1 1_555 1_555
O2 C7 1_555 1_555
H135 O2 1_555 1_555
O3 C13 1_555 1_555
O4 C19 1_555 1_555
H136 O4 1_555 1_555
O5 C46 1_555 1_555
O6 C46 1_555 1_555
O7 C52 1_555 1_555
O8 C54 1_555 1_555
O9 C60 1_555 1_555
H137 O9 1_555 1_555
O10 C66 1_555 1_555
O11 C72 1_555 1_555
H138 O11 1_555 1_555
O12 C99 1_555 1_555
O13 C99 1_555 1_555
O14 C105 1_555 1_555
C107 H139 1_555 1_555
H140 C107 1_555 1_555
H141 C107 1_555 1_555
C108 H142 1_555 1_555
H143 C108 1_555 1_555
H144 C108 1_555 1_555
O15 C107 1_555 1_555
H145 O15 1_555 1_555
O16 C108 1_555 1_555
H146 O16 1_555 1_555
C5 C6 1_555 1_555
C8 C25 1_555 1_555
C11 C12 1_555 1_555
C14 C26 1_555 1_555
C17 C18 1_555 1_555
C20 C27 1_555 1_555
C23 C24 1_555 1_555
C24 C28 1_555 1_555
C45 O1 1_555 1_555
C47 O6 1_555 1_555
C52 N1 1_555 1_555
C53 O3 1_555 1_555
C58 C59 1_555 1_555
C61 C78 1_555 1_555
C64 C65 1_555 1_555
C67 C79 1_555 1_555
C70 C71 1_555 1_555
C73 C80 1_555 1_555
C76 C77 1_555 1_555
C77 C81 1_555 1_555
C98 O8 1_555 1_555
C100 O13 1_555 1_555
C105 N2 1_555 1_555
C106 O10 1_555 1_555

#END
