
#######################################################################
#
#                 Cambridge Crystallographic Data Centre
#                                CCDC 
#
#######################################################################
#
# If this CIF has been generated from an entry in the Cambridge 
# Structural Database, then it will include bibliographic, chemical, 
# crystal, experimental, refinement or atomic coordinate data resulting 
# from the CCDC's data processing and validation procedures.
#
#######################################################################

data_QUKCAB
_chemical_formula_moiety         'C19 H29 N1 O6'
_chemical_name_systematic        
4-(1,4,7,10,13-Pentaoxa-16-azacyclooctadecan-16-yl)benzaldehyde
_symmetry_cell_setting           monoclinic
_symmetry_space_group_name_H-M   'P 21/c'
_symmetry_Int_Tables_number      14
_space_group_name_Hall           '-P 2ybc'
loop_
_symmetry_equiv_pos_site_id
_symmetry_equiv_pos_as_xyz
1 x,y,z
2 -x,1/2+y,1/2-z
3 -x,-y,-z
4 x,1/2-y,1/2+z
_cell_length_a                   21.6266(6)
_cell_length_b                   10.3060(3)
_cell_length_c                   8.4947(2)
_cell_angle_alpha                90
_cell_angle_beta                 98.747(2)
_cell_angle_gamma                90
_cell_volume                     1871.31
_exptl_crystal_colour            colorless
_exptl_crystal_description       block
_cell_formula_units_Z            4
_exptl_crystal_recrystallization_method dichloromethane/hexane
loop_
_atom_site_label
_atom_site_type_symbol
_atom_site_fract_x
_atom_site_fract_y
_atom_site_fract_z
O1 O 0.23432(6) 0.77619(12) 0.38589(14)
O2 O 0.13455(5) 0.59439(12) 0.36245(16)
O3 O 0.04688(5) 0.32607(12) 0.48040(16)
O4 O 0.13234(5) 0.11454(12) 0.39970(14)
O5 O 0.24502(5) 0.26870(11) 0.49234(15)
O6 O 0.59675(6) 0.56161(16) 0.92054(18)
N1 N 0.33354(6) 0.56571(13) 0.43833(18)
C1 C 0.39124(7) 0.58110(15) 0.5303(2)
C2 C 0.43576(8) 0.66971(17) 0.4854(2)
C3 C 0.49427(8) 0.68028(17) 0.5752(2)
C4 C 0.51195(8) 0.60728(17) 0.7130(2)
C5 C 0.46761(8) 0.52151(17) 0.7599(2)
C6 C 0.40895(8) 0.50874(16) 0.6720(2)
C7 C 0.31563(9) 0.64230(17) 0.2938(2)
C8 C 0.29289(9) 0.77854(18) 0.3266(2)
C9 C 0.18212(9) 0.77765(19) 0.2606(2)
C10 C 0.12484(9) 0.72690(18) 0.3207(2)
C11 C 0.08092(8) 0.53340(18) 0.4085(2)
C12 C 0.10184(8) 0.40238(18) 0.4768(2)
C13 C 0.05900(9) 0.20672(19) 0.5655(2)
C14 C 0.07490(8) 0.09623(19) 0.4603(2)
C15 C 0.18652(8) 0.07716(17) 0.5085(2)
C16 C 0.24312(8) 0.13402(16) 0.4518(2)
C17 C 0.29311(8) 0.33876(16) 0.4332(2)
C18 C 0.28599(8) 0.47866(16) 0.4854(2)
C19 C 0.57488(9) 0.6209(2) 0.8006(2)
H1 H 0.4238(9) 0.720(2) 0.391(3)
H2 H 0.5256(10) 0.740(2) 0.543(3)
H3 H 0.4784(9) 0.4718(19) 0.855(2)
H4 H 0.3799(9) 0.449(2) 0.710(2)
H5 H 0.2814(8) 0.5959(18) 0.227(2)
H6 H 0.3515(9) 0.6466(18) 0.233(2)
H7 H 0.3236(9) 0.8212(19) 0.407(2)
H8 H 0.2885(9) 0.8298(19) 0.227(2)
H9 H 0.1902(9) 0.7248(19) 0.168(2)
H10 H 0.1739(10) 0.867(2) 0.217(3)
H11 H 0.1144(9) 0.7788(19) 0.414(2)
H12 H 0.0877(8) 0.7379(17) 0.236(2)
H13 H 0.0488(9) 0.524(2) 0.312(3)
H14 H 0.0632(9) 0.5888(19) 0.489(2)
H15 H 0.1300(9) 0.3620(18) 0.410(2)
H16 H 0.1250(9) 0.4082(19) 0.582(3)
H17 H 0.0199(10) 0.184(2) 0.605(2)
H18 H 0.0932(9) 0.2150(19) 0.657(2)
H19 H 0.0750(9) 0.015(2) 0.522(2)
H20 H 0.0423(9) 0.0882(18) 0.366(2)
H21 H 0.1909(8) -0.020(2) 0.510(2)
H22 H 0.1822(7) 0.1060(16) 0.618(2)
H23 H 0.2818(9) 0.0913(19) 0.506(2)
H24 H 0.2410(9) 0.1222(19) 0.334(3)
H25 H 0.2883(8) 0.3316(17) 0.317(2)
H26 H 0.3352(8) 0.3044(16) 0.481(2)
H27 H 0.2448(9) 0.5063(19) 0.436(2)
H28 H 0.2877(7) 0.4789(15) 0.601(2)
H29 H 0.6059(9) 0.6828(19) 0.765(2)
loop_
_geom_bond_atom_site_label_1
_geom_bond_atom_site_label_2
_geom_bond_site_symmetry_1
_geom_bond_site_symmetry_2
O1 C8 1_555 1_555
O2 C10 1_555 1_555
O3 C12 1_555 1_555
O4 C14 1_555 1_555
O5 C16 1_555 1_555
O6 C19 1_555 1_555
N1 C1 1_555 1_555
C1 C2 1_555 1_555
C2 C3 1_555 1_555
C3 C4 1_555 1_555
C4 C5 1_555 1_555
C5 C6 1_555 1_555
C6 C1 1_555 1_555
C7 N1 1_555 1_555
C8 C7 1_555 1_555
C9 O1 1_555 1_555
C10 C9 1_555 1_555
C11 O2 1_555 1_555
C12 C11 1_555 1_555
C13 O3 1_555 1_555
C14 C13 1_555 1_555
C15 O4 1_555 1_555
C16 C15 1_555 1_555
C17 O5 1_555 1_555
C18 N1 1_555 1_555
C19 C4 1_555 1_555
H1 C2 1_555 1_555
H2 C3 1_555 1_555
H3 C5 1_555 1_555
H4 C6 1_555 1_555
H5 C7 1_555 1_555
H6 C7 1_555 1_555
H7 C8 1_555 1_555
H8 C8 1_555 1_555
H9 C9 1_555 1_555
H10 C9 1_555 1_555
H11 C10 1_555 1_555
H12 C10 1_555 1_555
H13 C11 1_555 1_555
H14 C11 1_555 1_555
H15 C12 1_555 1_555
H16 C12 1_555 1_555
H17 C13 1_555 1_555
H18 C13 1_555 1_555
H19 C14 1_555 1_555
H20 C14 1_555 1_555
H21 C15 1_555 1_555
H22 C15 1_555 1_555
H23 C16 1_555 1_555
H24 C16 1_555 1_555
H25 C17 1_555 1_555
H26 C17 1_555 1_555
H27 C18 1_555 1_555
H28 C18 1_555 1_555
H29 C19 1_555 1_555
C17 C18 1_555 1_555

#END
