
#######################################################################
#
#                 Cambridge Crystallographic Data Centre
#                                CCDC 
#
#######################################################################
#
# If this CIF has been generated from an entry in the Cambridge 
# Structural Database, then it will include bibliographic, chemical, 
# crystal, experimental, refinement or atomic coordinate data resulting 
# from the CCDC's data processing and validation procedures.
#
#######################################################################

data_QUKCOP
_chemical_formula_moiety         'C50 H30'
_chemical_name_systematic        
4-(9,9'-Spirobi(fluoren)-4-yl)-9,9'-spirobi(fluorene)
_symmetry_cell_setting           orthorhombic
_symmetry_space_group_name_H-M   'C c c 2'
_symmetry_Int_Tables_number      37
_space_group_name_Hall           'C 2 -2c'
loop_
_symmetry_equiv_pos_site_id
_symmetry_equiv_pos_as_xyz
1 x,y,z
2 -x,-y,z
3 -x,y,1/2+z
4 x,-y,1/2+z
5 1/2+x,1/2+y,z
6 1/2-x,1/2-y,z
7 1/2-x,1/2+y,1/2+z
8 1/2+x,1/2-y,1/2+z
_cell_length_a                   14.1090(12)
_cell_length_b                   33.689(3)
_cell_length_c                   7.2290(6)
_cell_angle_alpha                90
_cell_angle_beta                 90
_cell_angle_gamma                90
_cell_volume                     3436.07
_exptl_crystal_colour            colorless
_exptl_crystal_description       block
_cell_formula_units_Z            4
_exptl_crystal_recrystallization_method dichloromethane/ethanol
loop_
_atom_site_label
_atom_site_type_symbol
_atom_site_fract_x
_atom_site_fract_y
_atom_site_fract_z
C1 C 0.7084(2) 0.66137(10) 0.2174(6)
C2 C 0.6369(3) 0.65540(11) 0.3441(7)
H1 H 0.6096 0.6305 0.3586
C3 C 0.6068(3) 0.68725(12) 0.4493(7)
H2 H 0.5565 0.6842 0.5313
C4 C 0.6516(3) 0.72391(12) 0.4326(6)
H3 H 0.6313 0.7448 0.5068
C5 C 0.7255(3) 0.73043(10) 0.3090(6)
C6 C 0.7524(2) 0.69859(10) 0.1963(6)
C7 C 0.8219(2) 0.69602(10) 0.0454(6)
C8 C 0.8806(2) 0.72413(11) -0.0360(6)
H4 H 0.8816 0.7501 0.0076
C9 C 0.9375(3) 0.71311(11) -0.1822(6)
H5 H 0.9779 0.7317 -0.2353
C10 C 0.9355(3) 0.67456(12) -0.2519(6)
H6 H 0.9729 0.6678 -0.3530
C11 C 0.8773(3) 0.64616(12) -0.1700(7)
H7 H 0.8761 0.6203 -0.2147
C12 C 0.8220(2) 0.65681(10) -0.0231(6)
C13 C 0.7547(2) 0.63093(9) 0.0893(6)
C14 C 0.6857(3) 0.60600(10) -0.0259(7)
C15 C 0.6216(3) 0.61867(13) -0.1529(7)
H8 H 0.6149 0.6456 -0.1780
C16 C 0.5657(3) 0.59073(16) -0.2454(8)
H9 H 0.5222 0.5991 -0.3339
C17 C 0.5749(3) 0.55089(16) -0.2060(9)
H10 H 0.5373 0.5325 -0.2680
C18 C 0.6390(3) 0.53802(13) -0.0760(8)
H11 H 0.6444 0.5111 -0.0491
C19 C 0.6958(3) 0.56563(11) 0.0150(7)
C20 C 0.7718(3) 0.56092(11) 0.1508(6)
C21 C 0.8106(3) 0.52718(13) 0.2336(8)
H12 H 0.7872 0.5021 0.2057
C22 C 0.8839(4) 0.53166(16) 0.3569(9)
H13 H 0.9113 0.5092 0.4093
C23 C 0.9177(4) 0.56839(17) 0.4044(7)
H14 H 0.9666 0.5706 0.4899
C24 C 0.8791(3) 0.60243(14) 0.3255(7)
H15 H 0.9017 0.6274 0.3579
C25 C 0.8064(3) 0.59849(11) 0.1975(6)
C1E C 0.7916(2) 0.83863(10) 0.2174(6)
C2E C 0.8631(3) 0.84460(11) 0.3441(7)
H1E H 0.8904 0.8695 0.3586
C3E C 0.8932(3) 0.81275(12) 0.4493(7)
H2E H 0.9435 0.8158 0.5313
C4E C 0.8484(3) 0.77609(12) 0.4326(6)
H3E H 0.8687 0.7552 0.5068
C5E C 0.7745(3) 0.76957(10) 0.3090(6)
C6E C 0.7476(2) 0.80141(10) 0.1963(6)
C7E C 0.6781(2) 0.80398(10) 0.0454(6)
C8E C 0.6194(2) 0.77587(11) -0.0360(6)
H4E H 0.6184 0.7499 0.0076
C9E C 0.5625(3) 0.78689(11) -0.1822(6)
H5E H 0.5221 0.7683 -0.2353
C10E C 0.5645(3) 0.82544(12) -0.2519(6)
H6E H 0.5271 0.8322 -0.3530
C11E C 0.6227(3) 0.85384(12) -0.1700(7)
H7E H 0.6239 0.8797 -0.2147
C12E C 0.6780(2) 0.84319(10) -0.0231(6)
C13E C 0.7453(2) 0.86907(9) 0.0893(6)
C14E C 0.8143(3) 0.89400(10) -0.0259(7)
C15E C 0.8784(3) 0.88133(13) -0.1529(7)
H8E H 0.8851 0.8544 -0.1780
C16E C 0.9343(3) 0.90927(16) -0.2454(8)
H9E H 0.9778 0.9009 -0.3339
C17E C 0.9251(3) 0.94911(16) -0.2060(9)
H10E H 0.9627 0.9675 -0.2680
C18E C 0.8610(3) 0.96198(13) -0.0760(8)
H11E H 0.8556 0.9889 -0.0491
C19E C 0.8042(3) 0.93437(11) 0.0150(7)
C20E C 0.7282(3) 0.93908(11) 0.1508(6)
C21E C 0.6894(3) 0.97282(13) 0.2336(8)
H12E H 0.7128 0.9979 0.2057
C22E C 0.6161(4) 0.96834(16) 0.3569(9)
H13E H 0.5887 0.9908 0.4093
C23E C 0.5823(4) 0.93161(17) 0.4044(7)
H14E H 0.5334 0.9294 0.4899
C24E C 0.6209(3) 0.89757(14) 0.3255(7)
H15E H 0.5983 0.8726 0.3579
C25E C 0.6936(3) 0.90151(11) 0.1975(6)
loop_
_geom_bond_atom_site_label_1
_geom_bond_atom_site_label_2
_geom_bond_site_symmetry_1
_geom_bond_site_symmetry_2
C1 C2 1_555 1_555
C2 H1 1_555 1_555
C3 C2 1_555 1_555
H2 C3 1_555 1_555
C4 C3 1_555 1_555
H3 C4 1_555 1_555
C5 C4 1_555 1_555
C6 C1 1_555 1_555
C7 C6 1_555 1_555
C8 C7 1_555 1_555
H4 C8 1_555 1_555
C9 C8 1_555 1_555
H5 C9 1_555 1_555
C10 C9 1_555 1_555
H6 C10 1_555 1_555
C11 C10 1_555 1_555
H7 C11 1_555 1_555
C12 C7 1_555 1_555
C13 C1 1_555 1_555
C14 C13 1_555 1_555
C15 C14 1_555 1_555
H8 C15 1_555 1_555
C16 C15 1_555 1_555
H9 C16 1_555 1_555
C17 C16 1_555 1_555
H10 C17 1_555 1_555
C18 C17 1_555 1_555
H11 C18 1_555 1_555
C19 C14 1_555 1_555
C20 C19 1_555 1_555
C21 C20 1_555 1_555
H12 C21 1_555 1_555
C22 C21 1_555 1_555
H13 C22 1_555 1_555
C23 C22 1_555 1_555
H14 C23 1_555 1_555
C24 C23 1_555 1_555
H15 C24 1_555 1_555
C25 C13 1_555 1_555
C1E C2E 1_555 1_555
C2E H1E 1_555 1_555
C3E C2E 1_555 1_555
H2E C3E 1_555 1_555
C4E C3E 1_555 1_555
H3E C4E 1_555 1_555
C5E C5 1_555 1_555
C6E C1E 1_555 1_555
C7E C6E 1_555 1_555
C8E C7E 1_555 1_555
H4E C8E 1_555 1_555
C9E C8E 1_555 1_555
H5E C9E 1_555 1_555
C10E C9E 1_555 1_555
H6E C10E 1_555 1_555
C11E C10E 1_555 1_555
H7E C11E 1_555 1_555
C12E C7E 1_555 1_555
C13E C1E 1_555 1_555
C14E C13E 1_555 1_555
C15E C14E 1_555 1_555
H8E C15E 1_555 1_555
C16E C15E 1_555 1_555
H9E C16E 1_555 1_555
C17E C16E 1_555 1_555
H10E C17E 1_555 1_555
C18E C17E 1_555 1_555
H11E C18E 1_555 1_555
C19E C14E 1_555 1_555
C20E C19E 1_555 1_555
C21E C20E 1_555 1_555
H12E C21E 1_555 1_555
C22E C21E 1_555 1_555
H13E C22E 1_555 1_555
C23E C22E 1_555 1_555
H14E C23E 1_555 1_555
C24E C23E 1_555 1_555
H15E C24E 1_555 1_555
C25E C13E 1_555 1_555
C5 C6 1_555 1_555
C11 C12 1_555 1_555
C12 C13 1_555 1_555
C18 C19 1_555 1_555
C20 C25 1_555 1_555
C24 C25 1_555 1_555
C4E C5E 1_555 1_555
C5E C6E 1_555 1_555
C11E C12E 1_555 1_555
C12E C13E 1_555 1_555
C18E C19E 1_555 1_555
C20E C25E 1_555 1_555
C24E C25E 1_555 1_555

#END
