
#######################################################################
#
#                 Cambridge Crystallographic Data Centre
#                                CCDC 
#
#######################################################################
#
# If this CIF has been generated from an entry in the Cambridge 
# Structural Database, then it will include bibliographic, chemical, 
# crystal, experimental, refinement or atomic coordinate data resulting 
# from the CCDC's data processing and validation procedures.
#
#######################################################################

data_QUKFUY
_chemical_formula_moiety         'C72 H74 F6 K2 N6 O22 S2'
_chemical_name_systematic        
(\m~2~-2-(2-((2-(((6-(((2-(2-((5-(2-(Methoxy)ethoxy)-1-naphthyl)oxy)ethoxy)ethyl)imino)methyl)pyridin-2-yl)methyl)oxy)ethyl)oxy)ethyl)-7-(2-((2-(((6-(((2-(2-((5-(2-(methoxy)ethoxy)-1-naphthyl)oxy)ethoxy)ethyl)imino)methyl)pyridin-2-yl)methyl)oxy)ethyl)oxy)ethyl)benzo[lmn][3,8]phenanthroline-1,3,6,8(2H,7H)-tetrone)-bis(trifluoromethanesulfonato-O)-di-potassium
_symmetry_cell_setting           triclinic
_symmetry_space_group_name_H-M   'P -1'
_symmetry_Int_Tables_number      2
_space_group_name_Hall           '-P 1'
loop_
_symmetry_equiv_pos_site_id
_symmetry_equiv_pos_as_xyz
1 x,y,z
2 -x,-y,-z
_cell_length_a                   10.7351(4)
_cell_length_b                   10.7761(5)
_cell_length_c                   18.2716(10)
_cell_angle_alpha                81.963(2)
_cell_angle_beta                 87.340(3)
_cell_angle_gamma                61.615(2)
_cell_volume                     1840.83
_exptl_crystal_colour            red
_exptl_crystal_description       prism
_cell_formula_units_Z            1
loop_
_atom_site_label
_atom_site_type_symbol
_atom_site_fract_x
_atom_site_fract_y
_atom_site_fract_z
C1 C 0.9913(4) 0.0050(5) 0.6314(3)
H1 H 0.9943 0.0271 0.5777
H2 H 1.0312 -0.0982 0.6449
H3 H 1.0467 0.0387 0.6558
C2 C 0.7872(4) 0.2224(4) 0.6471(2)
H4 H 0.8256 0.2572 0.6034
H5 H 0.8108 0.2511 0.6914
C3 C 0.6302(3) 0.2871(3) 0.63838(17)
H6 H 0.5939 0.2358 0.6749
H7 H 0.5847 0.3880 0.6468
C4 C 0.4597(3) 0.3461(3) 0.54232(16)
C5 C 0.3451(3) 0.4037(3) 0.58648(16)
H8 H 0.3589 0.3982 0.6381
C6 C 0.2081(3) 0.4707(3) 0.55613(16)
H9 H 0.1293 0.5107 0.5873
C7 C 0.1859(3) 0.4793(3) 0.48204(15)
H10 H 0.0919 0.5257 0.4623
C8 C 0.3005(3) 0.4202(3) 0.43497(14)
C9 C 0.2819(3) 0.4249(3) 0.35782(15)
C10 C 0.3962(3) 0.3650(3) 0.31241(15)
H11 H 0.3821 0.3689 0.2610
C11 C 0.5346(3) 0.2979(3) 0.34386(16)
H12 H 0.6135 0.2569 0.3129
C12 C 0.5579(3) 0.2907(3) 0.41738(16)
H13 H 0.6520 0.2449 0.4371
C13 C 0.1194(3) 0.5178(3) 0.25514(15)
H14 H 0.1565 0.4261 0.2352
H15 H 0.1690 0.5696 0.2311
C14 C -0.0368(3) 0.6045(3) 0.23940(17)
H16 H -0.0732 0.6916 0.2635
H17 H -0.0526 0.6345 0.1854
C15 C 1.0750(3) -0.4106(3) 0.77144(16)
H18 H 0.9819 -0.3344 0.7512
H19 H 1.0658 -0.4337 0.8251
C16 C 1.1853(3) -0.3599(3) 0.75860(17)
H20 H 1.1970 -0.3388 0.7050
H21 H 1.2779 -0.4338 0.7807
C17 C 0.4411(3) 0.3517(3) 0.46447(15)
C18 C 1.2166(3) -0.2223(3) 0.83715(16)
H22 H 1.3114 -0.2971 0.8431
C19 C 1.1729(3) -0.1013(3) 0.87873(15)
C20 C 1.2727(3) -0.0956(3) 0.92195(16)
H23 H 1.3681 -0.1693 0.9249
C21 C 1.2311(3) 0.0187(3) 0.96066(16)
H24 H 1.2977 0.0262 0.9898
C22 C 1.0927(3) 0.1204(3) 0.95618(16)
H25 H 1.0612 0.1990 0.9832
C23 C 0.9970(3) 0.1087(3) 0.91155(15)
C24 C 0.8445(3) 0.2239(3) 0.90622(16)
H26 H 0.8398 0.3146 0.8828
H27 H 0.8067 0.2373 0.9566
C25 C 0.6202(3) 0.3030(4) 0.8522(2)
H28 H 0.5971 0.3703 0.8887
H29 H 0.6132 0.3558 0.8024
C26 C 0.5182(3) 0.2498(4) 0.8571(2)
H30 H 0.4223 0.3308 0.8454
H31 H 0.5184 0.2058 0.9084
C27 C 0.4333(3) 0.1140(3) 0.80903(16)
H32 H 0.4067 0.0991 0.8609
H33 H 0.3500 0.1953 0.7824
C28 C 0.4723(3) -0.0157(3) 0.77405(15)
H34 H 0.4008 -0.0480 0.7872
H35 H 0.5645 -0.0918 0.7955
C29 C 0.6175(3) -0.0663(3) 0.66246(16)
C30 C 0.3549(3) 0.0632(3) 0.65224(15)
C31 C 0.2411(3) 0.1331(3) 0.52764(15)
H36 H 0.1516 0.1791 0.5500
C32 C 0.3634(3) 0.0681(3) 0.57144(15)
C33 C 0.4965(3) 0.0009(3) 0.53875(14)
C34 C 0.6239(3) -0.0656(3) 0.58185(14)
C35 C 0.2474(3) 0.1321(3) 0.45175(15)
H37 H 0.1624 0.1776 0.4227
C36 C 0.7745(3) -0.4272(3) 1.00437(17)
F1 F 0.81291(18) -0.37889(19) 1.05761(10)
F2 F 0.6824(2) -0.4700(2) 1.03305(11)
F3 F 0.88714(19) -0.5407(2) 0.98546(13)
K1 K 0.83563(6) -0.05145(6) 0.80642(4)
N1 N 1.1336(2) -0.2311(2) 0.79388(13)
N2 N 1.0351(2) 0.0005(2) 0.87328(12)
N3 N 0.4829(2) 0.0011(2) 0.69303(12)
O1 O 0.8488(2) 0.0735(3) 0.65433(14)
O2 O 0.5984(2) 0.2774(2) 0.56539(11)
O3 O 0.14383(18) 0.4924(2) 0.33350(10)
O4 O 1.11694(18) -0.5325(2) 0.73622(10)
O5 O 0.7615(2) 0.1913(2) 0.86577(17)
O6 O 0.54775(17) 0.1473(2) 0.80786(10)
O7 O 0.24304(19) 0.1076(2) 0.68422(11)
O8 O 0.72314(19) -0.1241(2) 0.70212(10)
O9 O 0.8117(2) -0.2674(2) 0.89703(12)
O10 O 0.6458(2) -0.3544(2) 0.87908(12)
O11 O 0.58836(19) -0.1736(2) 0.95820(12)
S1 S 0.69629(7) -0.29070(8) 0.92552(4)
C1A C 0.0087(4) -0.0050(5) 0.3686(3)
H1A H 0.0057 -0.0271 0.4223
H2A H -0.0312 0.0982 0.3551
H3A H -0.0467 -0.0387 0.3442
C2A C 0.2128(4) -0.2224(4) 0.3529(2)
H4A H 0.1744 -0.2572 0.3966
H5A H 0.1892 -0.2511 0.3086
C3A C 0.3698(3) -0.2871(3) 0.36162(17)
H6A H 0.4061 -0.2358 0.3251
H7A H 0.4153 -0.3880 0.3532
C4A C 0.5403(3) -0.3461(3) 0.45768(16)
C5A C 0.6549(3) -0.4037(3) 0.41352(16)
H8A H 0.6411 -0.3982 0.3619
C6A C 0.7919(3) -0.4707(3) 0.44387(16)
H9A H 0.8707 -0.5107 0.4127
C7A C 0.8141(3) -0.4793(3) 0.51796(15)
H10A H 0.9081 -0.5257 0.5377
C8A C 0.6995(3) -0.4202(3) 0.56503(14)
C9A C 0.7181(3) -0.4249(3) 0.64218(15)
C10A C 0.6038(3) -0.3650(3) 0.68759(15)
H11A H 0.6179 -0.3689 0.7390
C11A C 0.4654(3) -0.2979(3) 0.65614(16)
H12A H 0.3865 -0.2569 0.6871
C12A C 0.4421(3) -0.2907(3) 0.58262(16)
H13A H 0.3480 -0.2449 0.5629
C13A C 0.8806(3) -0.5178(3) 0.74486(15)
H14A H 0.8435 -0.4261 0.7648
H15A H 0.8310 -0.5696 0.7689
C14A C 1.0368(3) -0.6045(3) 0.76060(17)
H16A H 1.0732 -0.6916 0.7365
H17A H 1.0526 -0.6345 0.8146
C15A C -0.0750(3) 0.4106(3) 0.22856(16)
H18A H 0.0181 0.3344 0.2488
H19A H -0.0658 0.4337 0.1749
C16A C -0.1853(3) 0.3599(3) 0.24140(17)
H20A H -0.1970 0.3388 0.2950
H21A H -0.2779 0.4338 0.2193
C17A C 0.5589(3) -0.3517(3) 0.53553(15)
C18A C -0.2166(3) 0.2223(3) 0.16285(16)
H22A H -0.3114 0.2971 0.1569
C19A C -0.1729(3) 0.1013(3) 0.12127(15)
C20A C -0.2727(3) 0.0956(3) 0.07805(16)
H23A H -0.3681 0.1693 0.0751
C21A C -0.2311(3) -0.0187(3) 0.03934(16)
H24A H -0.2977 -0.0262 0.0102
C22A C -0.0927(3) -0.1204(3) 0.04382(16)
H25A H -0.0612 -0.1990 0.0168
C23A C 0.0030(3) -0.1087(3) 0.08845(15)
C24A C 0.1555(3) -0.2239(3) 0.09378(16)
H26A H 0.1602 -0.3146 0.1172
H27A H 0.1933 -0.2373 0.0434
C25A C 0.3798(3) -0.3030(4) 0.1478(2)
H28A H 0.4029 -0.3703 0.1113
H29A H 0.3868 -0.3558 0.1976
C26A C 0.4818(3) -0.2498(4) 0.1429(2)
H30A H 0.5777 -0.3308 0.1546
H31A H 0.4816 -0.2058 0.0916
C27A C 0.5667(3) -0.1140(3) 0.19097(16)
H32A H 0.5933 -0.0991 0.1391
H33A H 0.6500 -0.1953 0.2176
C28A C 0.5277(3) 0.0157(3) 0.22595(15)
H34A H 0.5992 0.0480 0.2128
H35A H 0.4355 0.0918 0.2045
C29A C 0.3825(3) 0.0663(3) 0.33754(16)
C30A C 0.6451(3) -0.0632(3) 0.34776(15)
C31A C 0.7589(3) -0.1331(3) 0.47236(15)
H36A H 0.8484 -0.1791 0.4500
C32A C 0.6366(3) -0.0681(3) 0.42856(15)
C33A C 0.5035(3) -0.0009(3) 0.46125(14)
C34A C 0.3761(3) 0.0656(3) 0.41815(14)
C35A C 0.7526(3) -0.1321(3) 0.54825(15)
H37A H 0.8376 -0.1776 0.5773
C36A C 0.2255(3) 0.4272(3) -0.00437(17)
F1A F 0.18709(18) 0.37889(19) -0.05761(10)
F2A F 0.3176(2) 0.4700(2) -0.03305(11)
F3A F 0.11286(19) 0.5407(2) 0.01454(13)
K1A K 0.16437(6) 0.05145(6) 0.19358(4)
N1A N -0.1336(2) 0.2311(2) 0.20612(13)
N2A N -0.0351(2) -0.0005(2) 0.12672(12)
N3A N 0.5171(2) -0.0011(2) 0.30697(12)
O1A O 0.1512(2) -0.0735(3) 0.34567(14)
O2A O 0.4016(2) -0.2774(2) 0.43461(11)
O3A O 0.85617(18) -0.4924(2) 0.66650(10)
O4A O -0.11694(18) 0.5325(2) 0.26378(10)
O5A O 0.2385(2) -0.1913(2) 0.13423(17)
O6A O 0.45225(17) -0.1473(2) 0.19214(10)
O7A O 0.75696(19) -0.1076(2) 0.31578(11)
O8A O 0.27686(19) 0.1241(2) 0.29788(10)
O9A O 0.1883(2) 0.2674(2) 0.10297(12)
O10A O 0.3542(2) 0.3544(2) 0.12092(12)
O11A O 0.41164(19) 0.1736(2) 0.04180(12)
S1A S 0.30371(7) 0.29070(8) 0.07448(4)
loop_
_geom_bond_atom_site_label_1
_geom_bond_atom_site_label_2
_geom_bond_site_symmetry_1
_geom_bond_site_symmetry_2
C1 H1 1_555 1_555
H2 C1 1_555 1_555
H3 C1 1_555 1_555
C2 H4 1_555 1_555
H5 C2 1_555 1_555
C3 C2 1_555 1_555
H6 C3 1_555 1_555
H7 C3 1_555 1_555
C4 C5 1_555 1_555
C5 H8 1_555 1_555
C6 C5 1_555 1_555
H9 C6 1_555 1_555
C7 C6 1_555 1_555
H10 C7 1_555 1_555
C8 C7 1_555 1_555
C9 C8 1_555 1_555
C10 C9 1_555 1_555
H11 C10 1_555 1_555
C11 C10 1_555 1_555
H12 C11 1_555 1_555
C12 C11 1_555 1_555
H13 C12 1_555 1_555
C13 H14 1_555 1_555
H15 C13 1_555 1_555
C14 C13 1_555 1_555
H16 C14 1_555 1_555
H17 C14 1_555 1_555
C15 H18 1_555 1_555
H19 C15 1_555 1_555
C16 C15 1_555 1_555
H20 C16 1_555 1_555
H21 C16 1_555 1_555
C17 C4 1_555 1_555
C18 H22 1_555 1_555
C19 C18 1_555 1_555
C20 C19 1_555 1_555
H23 C20 1_555 1_555
C21 C20 1_555 1_555
H24 C21 1_555 1_555
C22 C21 1_555 1_555
H25 C22 1_555 1_555
C23 C22 1_555 1_555
C24 C23 1_555 1_555
H26 C24 1_555 1_555
H27 C24 1_555 1_555
C25 H28 1_555 1_555
H29 C25 1_555 1_555
C26 C25 1_555 1_555
H30 C26 1_555 1_555
H31 C26 1_555 1_555
C27 H32 1_555 1_555
H33 C27 1_555 1_555
C28 C27 1_555 1_555
H34 C28 1_555 1_555
H35 C28 1_555 1_555
C29 C34 1_555 1_555
C30 C32 1_555 1_555
C31 H36 1_555 1_555
C32 C31 1_555 1_555
C33 C32 1_555 1_555
C34 C33 1_555 1_555
C35 C31 1_555 1_555
H37 C35 1_555 1_555
C36 F1 1_555 1_555
F2 C36 1_555 1_555
F3 C36 1_555 1_555
K1 N1 1_555 1_555
N1 C16 1_555 1_555
N2 C19 1_555 1_555
N3 C28 1_555 1_555
O1 C1 1_555 1_555
O2 C3 1_555 1_555
O3 C9 1_555 1_555
O4 C15 1_555 1_555
O5 C24 1_555 1_555
O6 C26 1_555 1_555
O7 C30 1_555 1_555
O8 C29 1_555 1_555
O9 K1 1_555 1_555
O10 S1 1_555 1_555
O11 S1 1_555 1_555
S1 C36 1_555 1_555
C1A H1A 1_555 1_555
H2A C1A 1_555 1_555
H3A C1A 1_555 1_555
C2A H4A 1_555 1_555
H5A C2A 1_555 1_555
C3A C2A 1_555 1_555
H6A C3A 1_555 1_555
H7A C3A 1_555 1_555
C4A C5A 1_555 1_555
C5A H8A 1_555 1_555
C6A C5A 1_555 1_555
H9A C6A 1_555 1_555
C7A C6A 1_555 1_555
H10A C7A 1_555 1_555
C8A C7A 1_555 1_555
C9A C8A 1_555 1_555
C10A C9A 1_555 1_555
H11A C10A 1_555 1_555
C11A C10A 1_555 1_555
H12A C11A 1_555 1_555
C12A C11A 1_555 1_555
H13A C12A 1_555 1_555
C13A H14A 1_555 1_555
H15A C13A 1_555 1_555
C14A O4 1_555 1_555
H16A C14A 1_555 1_555
H17A C14A 1_555 1_555
C15A H18A 1_555 1_555
H19A C15A 1_555 1_555
C16A C15A 1_555 1_555
H20A C16A 1_555 1_555
H21A C16A 1_555 1_555
C17A C4A 1_555 1_555
C18A H22A 1_555 1_555
C19A C18A 1_555 1_555
C20A C19A 1_555 1_555
H23A C20A 1_555 1_555
C21A C20A 1_555 1_555
H24A C21A 1_555 1_555
C22A C21A 1_555 1_555
H25A C22A 1_555 1_555
C23A C22A 1_555 1_555
C24A C23A 1_555 1_555
H26A C24A 1_555 1_555
H27A C24A 1_555 1_555
C25A H28A 1_555 1_555
H29A C25A 1_555 1_555
C26A C25A 1_555 1_555
H30A C26A 1_555 1_555
H31A C26A 1_555 1_555
C27A H32A 1_555 1_555
H33A C27A 1_555 1_555
C28A C27A 1_555 1_555
H34A C28A 1_555 1_555
H35A C28A 1_555 1_555
C29A C34A 1_555 1_555
C30A C32A 1_555 1_555
C31A H36A 1_555 1_555
C32A C31A 1_555 1_555
C33A C33 1_555 1_555
C34A C35 1_555 1_555
C35A C34 1_555 1_555
H37A C35A 1_555 1_555
C36A F1A 1_555 1_555
F2A C36A 1_555 1_555
F3A C36A 1_555 1_555
K1A N1A 1_555 1_555
N1A C16A 1_555 1_555
N2A C19A 1_555 1_555
N3A C28A 1_555 1_555
O1A C1A 1_555 1_555
O2A C3A 1_555 1_555
O3A C9A 1_555 1_555
O4A C14 1_555 1_555
O5A C24A 1_555 1_555
O6A C26A 1_555 1_555
O7A C30A 1_555 1_555
O8A C29A 1_555 1_555
O9A K1A 1_555 1_555
O10A S1A 1_555 1_555
O11A S1A 1_555 1_555
S1A C36A 1_555 1_555
C2 O1 1_555 1_555
C4 O2 1_555 1_555
C8 C17 1_555 1_555
C12 C17 1_555 1_555
C13 O3 1_555 1_555
C18 N1 1_555 1_555
C23 N2 1_555 1_555
C25 O5 1_555 1_555
C27 O6 1_555 1_555
C29 N3 1_555 1_555
C30 N3 1_555 1_555
K1 N2 1_555 1_555
K1 O1 1_555 1_555
K1 O5 1_555 1_555
K1 O6 1_555 1_555
K1 O8 1_555 1_555
O9 S1 1_555 1_555
C2A O1A 1_555 1_555
C4A O2A 1_555 1_555
C8A C17A 1_555 1_555
C12A C17A 1_555 1_555
C13A C14A 1_555 1_555
C13A O3A 1_555 1_555
C15A O4A 1_555 1_555
C18A N1A 1_555 1_555
C23A N2A 1_555 1_555
C25A O5A 1_555 1_555
C27A O6A 1_555 1_555
C29A N3A 1_555 1_555
C30A N3A 1_555 1_555
C31A C35A 1_555 1_555
C32A C33A 1_555 1_555
C33A C34A 1_555 1_555
K1A N2A 1_555 1_555
K1A O1A 1_555 1_555
K1A O5A 1_555 1_555
K1A O6A 1_555 1_555
K1A O8A 1_555 1_555
O9A S1A 1_555 1_555

#END
