
#######################################################################
#
#                 Cambridge Crystallographic Data Centre
#                                CCDC 
#
#######################################################################
#
# If this CIF has been generated from an entry in the Cambridge 
# Structural Database, then it will include bibliographic, chemical, 
# crystal, experimental, refinement or atomic coordinate data resulting 
# from the CCDC's data processing and validation procedures.
#
#######################################################################

data_QUKFAE
_chemical_formula_moiety         'C15 H18 N2 O2'
_chemical_name_systematic        
(2-Ethoxyphenyl)(3,4,5-trimethyl-1H-pyrazol-1-yl)methanone
_symmetry_cell_setting           orthorhombic
_symmetry_space_group_name_H-M   'P b c a'
_symmetry_Int_Tables_number      61
_space_group_name_Hall           '-P 2ac 2ab'
loop_
_symmetry_equiv_pos_site_id
_symmetry_equiv_pos_as_xyz
1 x,y,z
2 1/2-x,-y,1/2+z
3 -x,1/2+y,1/2-z
4 1/2+x,1/2-y,-z
5 -x,-y,-z
6 1/2+x,y,1/2-z
7 x,1/2-y,1/2+z
8 1/2-x,1/2+y,z
_cell_length_a                   8.651(3)
_cell_length_b                   17.135(5)
_cell_length_c                   19.416(6)
_cell_angle_alpha                90
_cell_angle_beta                 90
_cell_angle_gamma                90
_cell_volume                     2878.13
_exptl_crystal_colour            colorless
_exptl_crystal_description       block
_cell_formula_units_Z            8
loop_
_atom_site_label
_atom_site_type_symbol
_atom_site_fract_x
_atom_site_fract_y
_atom_site_fract_z
O1 O 0.4893(3) 0.34892(18) 0.40130(16)
O2 O 0.8184(4) 0.33534(16) 0.32528(15)
N1 N 0.7824(3) 0.21050(15) 0.35887(13)
N2 N 0.7011(3) 0.16284(16) 0.40283(14)
C1 C 0.2373(7) 0.3654(4) 0.3599(3)
H1 H 0.2834 0.3839 0.3180
H2 H 0.1402 0.3913 0.3670
H3 H 0.2207 0.3102 0.3567
C2 C 0.3367(6) 0.3814(3) 0.4156(3)
H4 H 0.2953 0.3585 0.4574
H5 H 0.3446 0.4374 0.4223
C3 C 0.5903(4) 0.3500(2) 0.4541(2)
C4 C 0.5619(5) 0.3801(2) 0.5200(2)
H6 H 0.4671 0.4031 0.5298
C5 C 0.6737(6) 0.3757(3) 0.5704(2)
H7 H 0.6534 0.3952 0.6141
C6 C 0.8114(6) 0.3434(3) 0.5568(2)
H8 H 0.8866 0.3409 0.5910
C7 C 0.8416(5) 0.3141(2) 0.4925(2)
H9 H 0.9375 0.2915 0.4838
C8 C 0.7340(4) 0.31719(18) 0.44052(17)
C9 C 0.7790(4) 0.2912(2) 0.36964(18)
C10 C 0.7209(4) 0.0918(2) 0.3770(2)
C11 C 0.8156(4) 0.0926(2) 0.3176(2)
C12 C 0.8532(4) 0.1691(2) 0.30651(17)
C13 C 0.9548(5) 0.2045(3) 0.2535(2)
H10 H 1.0079 0.1640 0.2289
H11 H 1.0289 0.2380 0.2755
H12 H 0.8933 0.2345 0.2220
C14 C 0.8660(7) 0.0229(3) 0.2761(3)
H13 H 0.7901 0.0120 0.2413
H14 H 0.8763 -0.0215 0.3058
H15 H 0.9636 0.0338 0.2546
C15 C 0.6478(6) 0.0233(2) 0.4120(3)
H16 H 0.5716 0.0413 0.4442
H17 H 0.7257 -0.0059 0.4360
H18 H 0.5993 -0.0095 0.3782
loop_
_geom_bond_atom_site_label_1
_geom_bond_atom_site_label_2
_geom_bond_site_symmetry_1
_geom_bond_site_symmetry_2
O1 C2 1_555 1_555
O2 C9 1_555 1_555
N1 N2 1_555 1_555
N2 C10 1_555 1_555
C1 H1 1_555 1_555
H2 C1 1_555 1_555
H3 C1 1_555 1_555
C2 C1 1_555 1_555
H4 C2 1_555 1_555
H5 C2 1_555 1_555
C3 O1 1_555 1_555
C4 C3 1_555 1_555
H6 C4 1_555 1_555
C5 C4 1_555 1_555
H7 C5 1_555 1_555
C6 C5 1_555 1_555
H8 C6 1_555 1_555
C7 C6 1_555 1_555
H9 C7 1_555 1_555
C8 C3 1_555 1_555
C9 N1 1_555 1_555
C10 C11 1_555 1_555
C11 C12 1_555 1_555
C12 N1 1_555 1_555
C13 C12 1_555 1_555
H10 C13 1_555 1_555
H11 C13 1_555 1_555
H12 C13 1_555 1_555
C14 C11 1_555 1_555
H13 C14 1_555 1_555
H14 C14 1_555 1_555
H15 C14 1_555 1_555
C15 C10 1_555 1_555
H16 C15 1_555 1_555
H17 C15 1_555 1_555
H18 C15 1_555 1_555
C7 C8 1_555 1_555
C8 C9 1_555 1_555

#END
