
#######################################################################
#
#                 Cambridge Crystallographic Data Centre
#                                CCDC 
#
#######################################################################
#
# If this CIF has been generated from an entry in the Cambridge 
# Structural Database, then it will include bibliographic, chemical, 
# crystal, experimental, refinement or atomic coordinate data resulting 
# from the CCDC's data processing and validation procedures.
#
#######################################################################

data_QUKHUB01
_chemical_name_common            
'Ciprofloxacinium hydrogen fumarate monohydrate'
_chemical_formula_moiety         'C17 H19 F1 N3 O3 1+,C4 H3 O4 1-,H2 O1'
_chemical_name_systematic        
'4-(3-carboxy-1-cyclopropyl-6-fluoro-4-oxo-1,4-dihydroquinolin-7-yl)piperazin-1-ium 3-carboxyacrylate monohydrate'
_chemical_properties_biological  'Ciprofloxacin is an antibiotic drug'
_symmetry_cell_setting           triclinic
_symmetry_space_group_name_H-M   'P -1'
_symmetry_Int_Tables_number      2
_space_group_name_Hall           '-P 1'
loop_
_symmetry_equiv_pos_site_id
_symmetry_equiv_pos_as_xyz
1 x,y,z
2 -x,-y,-z
_cell_length_a                   9.579(3)
_cell_length_b                   9.806(2)
_cell_length_c                   11.612(4)
_cell_angle_alpha                78.66(2)
_cell_angle_beta                 89.44(3)
_cell_angle_gamma                78.85(4)
_cell_volume                     1048.8
_exptl_crystal_colour            colorless
_exptl_crystal_description       Prism
_cell_formula_units_Z            2
loop_
_atom_site_label
_atom_site_type_symbol
_atom_site_fract_x
_atom_site_fract_y
_atom_site_fract_z
C1 C 0.19992(14) 0.47332(13) 0.37331(10)
H1 H 0.2673 0.5284 0.3476
C2 C 0.06799(14) 0.51155(13) 0.31929(10)
C3 C -0.03972(14) 0.43085(13) 0.35557(10)
C4 C 0.00154(13) 0.30974(13) 0.45142(10)
C5 C -0.09558(13) 0.22261(14) 0.49555(11)
H2 H -0.1866 0.2410 0.4618
C6 C -0.05703(13) 0.11194(14) 0.58705(11)
C7 C 0.07918(13) 0.07750(13) 0.64303(10)
C8 C 0.17488(13) 0.16333(13) 0.59937(10)
H3 H 0.2653 0.1450 0.6343
C9 C 0.13834(13) 0.27704(13) 0.50387(10)
C10 C 0.37955(13) 0.32797(14) 0.51529(11)
H4 H 0.3867 0.3515 0.5930
C11 C 0.47966(15) 0.19843(16) 0.49497(13)
H5 H 0.4464 0.1419 0.4452
H6 H 0.5437 0.1448 0.5593
C12 C 0.50337(15) 0.34261(17) 0.43852(15)
H7 H 0.5819 0.3760 0.4687
H8 H 0.4846 0.3732 0.3545
C13 C 0.04353(15) 0.63762(14) 0.22173(11)
C14 C 0.02861(14) -0.05593(14) 0.83636(11)
H9 H -0.0711 -0.0231 0.8131
H10 H 0.0533 0.0025 0.8884
C15 C 0.05304(14) -0.20951(14) 0.89997(11)
H11 H -0.0040 -0.2178 0.9696
H12 H 0.0238 -0.2671 0.8491
C16 C 0.29691(14) -0.24126(14) 0.82946(12)
H13 H 0.2782 -0.3016 0.7768
H14 H 0.3964 -0.2694 0.8544
C17 C 0.26797(13) -0.08836(14) 0.76453(12)
H15 H 0.2949 -0.0285 0.8144
H16 H 0.3244 -0.0791 0.6946
N1 N 0.23751(11) 0.36073(11) 0.46133(9)
N2 N 0.11676(11) -0.04273(11) 0.73146(9)
N3 N 0.20627(12) -0.26150(12) 0.93425(9)
H17 H 0.2284(18) -0.2121(19) 0.9904(16)
H18 H 0.229(2) -0.364(2) 0.9670(18)
O1 O 0.13170(12) 0.70939(11) 0.19047(9)
O2 O -0.08356(13) 0.66818(13) 0.16873(10)
H19 H -0.133(3) 0.605(3) 0.205(2)
O3 O -0.16330(11) 0.46215(11) 0.30945(9)
F1 F -0.15187(8) 0.02741(9) 0.62348(7)
C18 C 0.31651(14) 0.36607(14) 0.06978(12)
C19 C 0.31904(14) 0.21543(14) 0.05956(12)
H20 H 0.2882 0.1992 -0.0113
C20 C 0.36202(14) 0.10492(14) 0.14431(11)
H21 H 0.3878 0.1190 0.2174
C21 C 0.37023(14) -0.04141(14) 0.12584(11)
O4 O 0.28813(14) 0.45614(11) -0.02439(10)
O5 O 0.34710(13) 0.39136(11) 0.16600(10)
O6 O 0.31810(14) -0.06803(11) 0.04040(10)
O7 O 0.44040(14) -0.13874(12) 0.21017(10)
H22 H 0.449(3) -0.235(3) 0.197(2)
O8 O 0.48705(17) -0.39452(13) 0.17796(13)
H23 H 0.429(3) -0.455(3) 0.165(2)
H24 H 0.565(3) -0.414(3) 0.135(2)
loop_
_geom_bond_atom_site_label_1
_geom_bond_atom_site_label_2
_geom_bond_site_symmetry_1
_geom_bond_site_symmetry_2
C1 H1 1_555 1_555
C2 C1 1_555 1_555
C3 C2 1_555 1_555
C4 C3 1_555 1_555
C5 C4 1_555 1_555
H2 C5 1_555 1_555
C6 C5 1_555 1_555
C7 C6 1_555 1_555
C8 C7 1_555 1_555
H3 C8 1_555 1_555
C9 C4 1_555 1_555
C10 H4 1_555 1_555
C11 C10 1_555 1_555
H5 C11 1_555 1_555
H6 C11 1_555 1_555
C12 C10 1_555 1_555
H7 C12 1_555 1_555
H8 C12 1_555 1_555
C13 C2 1_555 1_555
C14 H9 1_555 1_555
H10 C14 1_555 1_555
C15 C14 1_555 1_555
H11 C15 1_555 1_555
H12 C15 1_555 1_555
C16 H13 1_555 1_555
H14 C16 1_555 1_555
C17 C16 1_555 1_555
H15 C17 1_555 1_555
H16 C17 1_555 1_555
N1 C1 1_555 1_555
N2 C7 1_555 1_555
N3 C15 1_555 1_555
H17 N3 1_555 1_555
H18 N3 1_555 1_555
O1 C13 1_555 1_555
O2 C13 1_555 1_555
H19 O2 1_555 1_555
O3 C3 1_555 1_555
F1 C6 1_555 1_555
C18 C19 1_555 1_555
C19 H20 1_555 1_555
C20 C19 1_555 1_555
H21 C20 1_555 1_555
C21 C20 1_555 1_555
O4 C18 1_555 1_555
O5 C18 1_555 1_555
O6 C21 1_555 1_555
O7 C21 1_555 1_555
H22 O7 1_555 1_555
O8 H23 1_555 1_555
H24 O8 1_555 1_555
C8 C9 1_555 1_555
C9 N1 1_555 1_555
C10 N1 1_555 1_555
C11 C12 1_555 1_555
C14 N2 1_555 1_555
C16 N3 1_555 1_555
C17 N2 1_555 1_555

#END
