
#######################################################################
#
#                 Cambridge Crystallographic Data Centre
#                                CCDC 
#
#######################################################################
#
# If this CIF has been generated from an entry in the Cambridge 
# Structural Database, then it will include bibliographic, chemical, 
# crystal, experimental, refinement or atomic coordinate data resulting 
# from the CCDC's data processing and validation procedures.
#
#######################################################################

data_QUKHIP01
_chemical_name_common            'Ciprofloxacinium hydrogen maleate'
_chemical_formula_moiety         'C17 H19 F1 N3 O3 1+,C4 H3 O4 1-'
_chemical_name_systematic        
'4-(3-carboxy-1-cyclopropyl-6-fluoro-4-oxo-1,4-dihydroquinolin-7-yl)piperazin-1-ium 3-carboxyacrylate'
_chemical_properties_biological  'Ciprofloxacin is an antibiotic drug'
_symmetry_cell_setting           monoclinic
_symmetry_space_group_name_H-M   'P 21/c'
_symmetry_Int_Tables_number      14
_space_group_name_Hall           '-P 2ybc'
loop_
_symmetry_equiv_pos_site_id
_symmetry_equiv_pos_as_xyz
1 x,y,z
2 -x,1/2+y,1/2-z
3 -x,-y,-z
4 x,1/2-y,1/2+z
_cell_length_a                   13.956(4)
_cell_length_b                   10.459(4)
_cell_length_c                   15.184(5)
_cell_angle_alpha                90
_cell_angle_beta                 108.765(6)
_cell_angle_gamma                90
_cell_volume                     2098.54
_exptl_crystal_colour            colorless
_exptl_crystal_description       Prism
_cell_formula_units_Z            4
loop_
_atom_site_label
_atom_site_type_symbol
_atom_site_fract_x
_atom_site_fract_y
_atom_site_fract_z
C1 C 0.42541(10) 0.70397(15) 0.14347(9)
H1 H 0.4019 0.7838 0.1541
C2 C 0.35945(10) 0.60340(15) 0.12676(9)
C3 C 0.39203(9) 0.47823(14) 0.11114(9)
C4 C 0.49749(9) 0.46793(13) 0.11670(8)
C5 C 0.53786(10) 0.34854(13) 0.10474(9)
H2 H 0.4971 0.2760 0.0940
C6 C 0.63622(10) 0.33885(13) 0.10881(10)
C7 C 0.70340(9) 0.44440(13) 0.12821(8)
C8 C 0.66362(9) 0.56165(13) 0.14088(8)
H3 H 0.7055 0.6331 0.1544
C9 C 0.56142(9) 0.57471(13) 0.13375(8)
C10 C 0.58809(11) 0.80637(14) 0.17056(10)
H4 H 0.6313 0.8105 0.2357
C11 C 0.63167(15) 0.86295(18) 0.10240(14)
H5 H 0.6146 0.8235 0.0415
H6 H 0.6996 0.8979 0.1258
C12 C 0.54931(15) 0.93130(18) 0.12684(15)
H7 H 0.5675 1.0074 0.1651
H8 H 0.4825 0.9331 0.0807
C13 C 0.25457(11) 0.62908(17) 0.12741(11)
C14 C 0.86372(10) 0.33388(14) 0.19697(10)
H9 H 0.8237 0.2576 0.1953
H10 H 0.8827 0.3690 0.2594
C15 C 0.95734(10) 0.29985(14) 0.17335(11)
H11 H 0.9975 0.2392 0.2186
H12 H 0.9382 0.2596 0.1126
C16 C 0.95727(10) 0.51492(14) 0.10897(9)
H13 H 0.9393 0.4845 0.0454
H14 H 0.9971 0.5922 0.1140
C17 C 0.86194(10) 0.54488(13) 0.13200(10)
H15 H 0.8797 0.5835 0.1933
H16 H 0.8212 0.6056 0.0872
N1 N 0.52244(8) 0.69460(11) 0.14555(8)
N2 N 0.80343(8) 0.42816(11) 0.13010(7)
N3 N 1.01862(8) 0.41604(12) 0.17304(9)
H17 H 1.0735(18) 0.391(2) 0.1561(14)
H18 H 1.0470(15) 0.4516(19) 0.2321(14)
O1 O 0.22431(10) 0.73433(14) 0.13770(11)
O2 O 0.19571(8) 0.52629(14) 0.11620(9)
H19 H 0.235(2) 0.452(3) 0.113(2)
O3 O 0.33433(7) 0.38227(11) 0.09509(8)
F1 F 0.67006(7) 0.22377(9) 0.09064(8)
C18 C 0.84463(11) 0.69072(15) 0.39068(10)
C19 C 0.81616(15) 0.56073(18) 0.41281(11)
H20 H 0.7798 0.5128 0.3613
C20 C 0.83402(16) 0.50133(17) 0.49404(12)
H21 H 0.8089 0.4184 0.4901
C21 C 0.88788(12) 0.54675(15) 0.59015(11)
O4 O 0.89960(10) 0.76240(12) 0.45640(8)
H22 H 0.910(3) 0.726(4) 0.5073(15)
O5 O 0.81670(8) 0.72729(13) 0.30984(7)
O6 O 0.92891(11) 0.65675(12) 0.60334(8)
O7 O 0.88970(12) 0.47528(12) 0.65499(8)
H23? H 0.920(3) 0.690(4) 0.5516(16)
loop_
_geom_bond_atom_site_label_1
_geom_bond_atom_site_label_2
_geom_bond_site_symmetry_1
_geom_bond_site_symmetry_2
C1 H1 1_555 1_555
C2 C1 1_555 1_555
C3 C2 1_555 1_555
C4 C3 1_555 1_555
C5 C4 1_555 1_555
H2 C5 1_555 1_555
C6 C5 1_555 1_555
C7 C6 1_555 1_555
C8 C7 1_555 1_555
H3 C8 1_555 1_555
C9 C4 1_555 1_555
C10 H4 1_555 1_555
C11 C10 1_555 1_555
H5 C11 1_555 1_555
H6 C11 1_555 1_555
C12 C10 1_555 1_555
H7 C12 1_555 1_555
H8 C12 1_555 1_555
C13 C2 1_555 1_555
C14 H9 1_555 1_555
H10 C14 1_555 1_555
C15 C14 1_555 1_555
H11 C15 1_555 1_555
H12 C15 1_555 1_555
C16 H13 1_555 1_555
H14 C16 1_555 1_555
C17 C16 1_555 1_555
H15 C17 1_555 1_555
H16 C17 1_555 1_555
N1 C1 1_555 1_555
N2 C7 1_555 1_555
N3 C15 1_555 1_555
H17 N3 1_555 1_555
H18 N3 1_555 1_555
O1 C13 1_555 1_555
O2 C13 1_555 1_555
H19 O2 1_555 1_555
O3 C3 1_555 1_555
F1 C6 1_555 1_555
C18 C19 1_555 1_555
C19 H20 1_555 1_555
C20 C19 1_555 1_555
H21 C20 1_555 1_555
C21 C20 1_555 1_555
O4 C18 1_555 1_555
H22 O4 1_555 1_555
O5 C18 1_555 1_555
O6 C21 1_555 1_555
O7 C21 1_555 1_555
C8 C9 1_555 1_555
C9 N1 1_555 1_555
C10 N1 1_555 1_555
C11 C12 1_555 1_555
C14 N2 1_555 1_555
C16 N3 1_555 1_555
C17 N2 1_555 1_555

#END
