
#######################################################################
#
#                 Cambridge Crystallographic Data Centre
#                                CCDC 
#
#######################################################################
#
# If this CIF has been generated from an entry in the Cambridge 
# Structural Database, then it will include bibliographic, chemical, 
# crystal, experimental, refinement or atomic coordinate data resulting 
# from the CCDC's data processing and validation procedures.
#
#######################################################################

data_QUKPAN
_chemical_formula_moiety         'C18 H20 O2'
_chemical_name_systematic        
2,3-dihydro-3-(4'-hydroxyphenyl)-1,1,3-trimethyl-1H-inden-5-ol
_symmetry_cell_setting           monoclinic
_symmetry_space_group_name_H-M   'P 21'
_symmetry_Int_Tables_number      4
_space_group_name_Hall           'P 2yb'
loop_
_symmetry_equiv_pos_site_id
_symmetry_equiv_pos_as_xyz
1 x,y,z
2 -x,1/2+y,-z
_cell_length_a                   12.434(4)
_cell_length_b                   6.2665(10)
_cell_length_c                   19.180(8)
_cell_angle_alpha                90
_cell_angle_beta                 94.84(3)
_cell_angle_gamma                90
_cell_volume                     1489.13
_exptl_crystal_colour            colorless
_exptl_crystal_description       rod
_cell_formula_units_Z            4
_exptl_crystal_recrystallization_method toluene
loop_
_atom_site_label
_atom_site_type_symbol
_atom_site_fract_x
_atom_site_fract_y
_atom_site_fract_z
O1 O 0.72355(17) 0.5928(3) 0.49567(11)
H1 H 0.6877 0.6988 0.4820
O2 O 1.38990(17) 0.4327(3) 0.56652(10)
H2 H 1.3838 0.5259 0.5357
C1 C 0.8155(2) 0.6588(5) 0.53644(16)
C2 C 0.8975(3) 0.5148(5) 0.55001(17)
H3 H 0.8921 0.3774 0.5304
C3 C 0.9893(3) 0.5727(6) 0.59303(16)
H4 H 1.0455 0.4731 0.6009
C4 C 1.0003(2) 0.7717(5) 0.62443(15)
C5 C 0.9166(2) 0.9125(5) 0.60844(17)
H5 H 0.9219 1.0506 0.6276
C6 C 0.8249(3) 0.8599(6) 0.56537(17)
H6 H 0.7697 0.9609 0.5560
C7 C 1.0953(2) 0.8281(5) 0.67604(15)
C8 C 1.0639(2) 0.7920(5) 0.75229(14)
H7 H 1.0428 0.9275 0.7727
H8 H 1.0028 0.6931 0.7521
C9 C 1.1640(3) 0.6971(5) 0.79604(15)
C10 C 1.2302(2) 0.6101(5) 0.73968(15)
C11 C 1.1922(2) 0.6826(5) 0.67324(15)
C12 C 1.2465(2) 0.6284(5) 0.61502(15)
H9 H 1.2225 0.6801 0.5704
C13 C 1.3358(2) 0.4979(5) 0.62381(15)
C14 C 1.3736(2) 0.4208(5) 0.68953(15)
H10 H 1.4343 0.3309 0.6944
C15 C 1.3206(2) 0.4781(5) 0.74809(15)
H11 H 1.3456 0.4280 0.7927
C16 C 1.1313(2) 1.0616(5) 0.66490(16)
H12 H 1.0732 1.1579 0.6742
H13 H 1.1490 1.0799 0.6170
H14 H 1.1944 1.0930 0.6965
C17 C 1.1313(3) 0.5219(6) 0.84610(16)
H15 H 1.1953 0.4655 0.8721
H16 H 1.0945 0.4081 0.8194
H17 H 1.0834 0.5816 0.8784
C18 C 1.2289(2) 0.8670(6) 0.83910(16)
H18 H 1.1849 0.9263 0.8738
H19 H 1.2497 0.9798 0.8083
H20 H 1.2931 0.8024 0.8624
O3 O 0.60287(17) 0.2516(3) 0.53048(10)
H21 H 0.6421 0.3575 0.5270
O4 O 0.40732(17) 0.3612(4) 0.92868(11)
H22 H 0.4094 0.4569 0.9587
C19 C 0.6109(2) 0.1817(5) 0.59947(15)
C20 C 0.5574(2) -0.0068(5) 0.61283(15)
H23 H 0.5133 -0.0743 0.5772
C21 C 0.5700(2) -0.0942(5) 0.67966(15)
H24 H 0.5335 -0.2213 0.6887
C22 C 0.6349(2) 0.0005(5) 0.73359(15)
C23 C 0.6834(2) 0.1944(5) 0.71818(15)
H25 H 0.7255 0.2658 0.7539
C24 C 0.6716(2) 0.2844(5) 0.65222(15)
H26 H 0.7049 0.4152 0.6436
C25 C 0.6573(2) -0.0949(5) 0.80647(15)
C26 C 0.7809(2) -0.1238(5) 0.82618(15)
H27 H 0.7999 -0.2753 0.8243
H28 H 0.8218 -0.0468 0.7926
C27 C 0.8103(2) -0.0357(6) 0.90130(16)
C28 C 0.7098(2) 0.0892(5) 0.91509(15)
C29 C 0.6257(2) 0.0565(5) 0.86364(15)
C30 C 0.5253(2) 0.1484(5) 0.86801(15)
H29 H 0.4693 0.1264 0.8327
C31 C 0.5093(3) 0.2745(5) 0.92614(16)
C32 C 0.5929(2) 0.3121(5) 0.97720(15)
H30 H 0.5817 0.4007 1.0155
C33 C 0.6924(3) 0.2195(5) 0.97178(16)
H31 H 0.7488 0.2446 1.0066
C34 C 0.5966(3) -0.3058(5) 0.81450(16)
H32 H 0.6153 -0.3640 0.8608
H33 H 0.6166 -0.4065 0.7794
H34 H 0.5194 -0.2798 0.8083
C35 C 0.9097(3) 0.1068(7) 0.9044(2)
H35 H 0.9225 0.1668 0.9510
H36 H 0.8980 0.2214 0.8706
H37 H 0.9718 0.0233 0.8936
C36 C 0.8305(3) -0.2140(6) 0.95507(17)
H38 H 0.8928 -0.2967 0.9441
H39 H 0.7677 -0.3061 0.9539
H40 H 0.8438 -0.1524 1.0014
loop_
_geom_bond_atom_site_label_1
_geom_bond_atom_site_label_2
_geom_bond_site_symmetry_1
_geom_bond_site_symmetry_2
O1 H1 1_555 1_555
O2 H2 1_555 1_555
C1 O1 1_555 1_555
C2 C1 1_555 1_555
H3 C2 1_555 1_555
C3 C2 1_555 1_555
H4 C3 1_555 1_555
C4 C3 1_555 1_555
C5 C4 1_555 1_555
H5 C5 1_555 1_555
C6 C1 1_555 1_555
H6 C6 1_555 1_555
C7 C4 1_555 1_555
C8 C7 1_555 1_555
H7 C8 1_555 1_555
H8 C8 1_555 1_555
C9 C8 1_555 1_555
C10 C9 1_555 1_555
C11 C7 1_555 1_555
C12 C11 1_555 1_555
H9 C12 1_555 1_555
C13 O2 1_555 1_555
C14 C13 1_555 1_555
H10 C14 1_555 1_555
C15 C10 1_555 1_555
H11 C15 1_555 1_555
C16 C7 1_555 1_555
H12 C16 1_555 1_555
H13 C16 1_555 1_555
H14 C16 1_555 1_555
C17 C9 1_555 1_555
H15 C17 1_555 1_555
H16 C17 1_555 1_555
H17 C17 1_555 1_555
C18 C9 1_555 1_555
H18 C18 1_555 1_555
H19 C18 1_555 1_555
H20 C18 1_555 1_555
O3 H21 1_555 1_555
O4 H22 1_555 1_555
C19 O3 1_555 1_555
C20 C19 1_555 1_555
H23 C20 1_555 1_555
C21 C20 1_555 1_555
H24 C21 1_555 1_555
C22 C21 1_555 1_555
C23 C22 1_555 1_555
H25 C23 1_555 1_555
C24 C19 1_555 1_555
H26 C24 1_555 1_555
C25 C22 1_555 1_555
C26 C25 1_555 1_555
H27 C26 1_555 1_555
H28 C26 1_555 1_555
C27 C26 1_555 1_555
C28 C27 1_555 1_555
C29 C25 1_555 1_555
C30 C29 1_555 1_555
H29 C30 1_555 1_555
C31 O4 1_555 1_555
C32 C31 1_555 1_555
H30 C32 1_555 1_555
C33 C28 1_555 1_555
H31 C33 1_555 1_555
C34 C25 1_555 1_555
H32 C34 1_555 1_555
H33 C34 1_555 1_555
H34 C34 1_555 1_555
C35 C27 1_555 1_555
H35 C35 1_555 1_555
H36 C35 1_555 1_555
H37 C35 1_555 1_555
C36 C27 1_555 1_555
H38 C36 1_555 1_555
H39 C36 1_555 1_555
H40 C36 1_555 1_555
C5 C6 1_555 1_555
C10 C11 1_555 1_555
C12 C13 1_555 1_555
C14 C15 1_555 1_555
C23 C24 1_555 1_555
C28 C29 1_555 1_555
C30 C31 1_555 1_555
C32 C33 1_555 1_555

#END
