
#######################################################################
#
#                 Cambridge Crystallographic Data Centre
#                                CCDC 
#
#######################################################################
#
# If this CIF has been generated from an entry in the Cambridge 
# Structural Database, then it will include bibliographic, chemical, 
# crystal, experimental, refinement or atomic coordinate data resulting 
# from the CCDC's data processing and validation procedures.
#
#######################################################################

data_QUKWID
_chemical_formula_moiety         'C18 H8 S6'
_chemical_name_systematic        
trans-1,2-bis(Dithieno(3,2-b:2',3'-d)thiophen-2-yl)ethene
_symmetry_cell_setting           monoclinic
_symmetry_space_group_name_H-M   'P 21/n'
_symmetry_Int_Tables_number      14
_space_group_name_Hall           '-P 2yn'
loop_
_symmetry_equiv_pos_site_id
_symmetry_equiv_pos_as_xyz
1 x,y,z
2 1/2-x,1/2+y,1/2-z
3 -x,-y,-z
4 1/2+x,1/2-y,1/2+z
_cell_length_a                   6.1973(12)
_cell_length_b                   4.7149(7)
_cell_length_c                   27.494(5)
_cell_angle_alpha                90
_cell_angle_beta                 95.383(11)
_cell_angle_gamma                90
_cell_volume                     799.822
_exptl_crystal_colour            yellow
_exptl_crystal_description       platelet
_cell_formula_units_Z            2
_exptl_crystal_recrystallization_method toluene/tetrahydrofuran
loop_
_atom_site_label
_atom_site_type_symbol
_atom_site_fract_x
_atom_site_fract_y
_atom_site_fract_z
S1 S 0.57892(9) 0.61523(14) 0.58281(2)
S2 S 0.01138(10) 0.21155(14) 0.61639(2)
S3 S 0.61610(10) 0.07555(14) 0.69281(2)
C1 C 0.4045(4) 0.9409(6) 0.50392(8)
H1 H 0.2822 0.9948 0.4825
C2 C 0.3680(4) 0.7398(5) 0.54183(8)
C3 C 0.1736(4) 0.6216(5) 0.55039(8)
H2 H 0.0402 0.6650 0.5320
C4 C 0.1935(4) 0.4283(5) 0.58957(8)
C5 C 0.4039(4) 0.4010(5) 0.61126(8)
C6 C 0.4179(4) 0.2042(5) 0.65050(9)
C7 C 0.2186(4) 0.0819(5) 0.65699(8)
C8 C 0.2286(4) -0.1222(6) 0.69522(8)
H3 H 0.1082 -0.2295 0.7039
C9 C 0.4318(4) -0.1434(6) 0.71758(9)
H4 H 0.4695 -0.2670 0.7443
S1B S 0.42108(9) 1.38477(14) 0.41719(2)
S2B S 0.98862(10) 1.78845(14) 0.38361(2)
S3B S 0.38390(10) 1.92445(14) 0.30719(2)
C1B C 0.5955(4) 1.0591(6) 0.49608(8)
H1B H 0.7178 1.0052 0.5175
C2B C 0.6320(4) 1.2602(5) 0.45817(8)
C3B C 0.8264(4) 1.3784(5) 0.44961(8)
H2B H 0.9598 1.3350 0.4680
C4B C 0.8065(4) 1.5717(5) 0.41043(8)
C5B C 0.5961(4) 1.5990(5) 0.38874(8)
C6B C 0.5821(4) 1.7958(5) 0.34950(9)
C7B C 0.7814(4) 1.9181(5) 0.34301(8)
C8B C 0.7714(4) 2.1222(6) 0.30478(8)
H3B H 0.8918 2.2295 0.2961
C9B C 0.5682(4) 2.1434(6) 0.28242(9)
H4B H 0.5305 2.2670 0.2557
loop_
_geom_bond_atom_site_label_1
_geom_bond_atom_site_label_2
_geom_bond_site_symmetry_1
_geom_bond_site_symmetry_2
S1 C2 1_555 1_555
S2 C4 1_555 1_555
S3 C6 1_555 1_555
C1 H1 1_555 1_555
C2 C1 1_555 1_555
C3 C2 1_555 1_555
H2 C3 1_555 1_555
C4 C3 1_555 1_555
C5 S1 1_555 1_555
C6 C5 1_555 1_555
C7 S2 1_555 1_555
C8 C7 1_555 1_555
H3 C8 1_555 1_555
C9 S3 1_555 1_555
H4 C9 1_555 1_555
S1B C2B 1_555 1_555
S2B C4B 1_555 1_555
S3B C6B 1_555 1_555
C1B C1 1_555 1_555
H1B C1B 1_555 1_555
C2B C1B 1_555 1_555
C3B C2B 1_555 1_555
H2B C3B 1_555 1_555
C4B C3B 1_555 1_555
C5B S1B 1_555 1_555
C6B C5B 1_555 1_555
C7B S2B 1_555 1_555
C8B C7B 1_555 1_555
H3B C8B 1_555 1_555
C9B S3B 1_555 1_555
H4B C9B 1_555 1_555
C4 C5 1_555 1_555
C6 C7 1_555 1_555
C8 C9 1_555 1_555
C4B C5B 1_555 1_555
C6B C7B 1_555 1_555
C8B C9B 1_555 1_555

#END
