
#######################################################################
#
#                 Cambridge Crystallographic Data Centre
#                                CCDC 
#
#######################################################################
#
# If this CIF has been generated from an entry in the Cambridge 
# Structural Database, then it will include bibliographic, chemical, 
# crystal, experimental, refinement or atomic coordinate data resulting 
# from the CCDC's data processing and validation procedures.
#
#######################################################################

data_QUKXAW
_chemical_formula_moiety         'C50 H66 S2'
_chemical_name_systematic        9,10-bis(2-(5-Dodecylthienyl)vinyl)anthracene
_symmetry_cell_setting           monoclinic
_symmetry_space_group_name_H-M   'P 21/c'
_symmetry_Int_Tables_number      14
_space_group_name_Hall           '-P 2ybc'
loop_
_symmetry_equiv_pos_site_id
_symmetry_equiv_pos_as_xyz
1 x,y,z
2 -x,1/2+y,1/2-z
3 -x,-y,-z
4 x,1/2-y,1/2+z
_cell_length_a                   19.6252(12)
_cell_length_b                   4.5677(3)
_cell_length_c                   23.5052(14)
_cell_angle_alpha                90
_cell_angle_beta                 101.2370(10)
_cell_angle_gamma                90
_cell_volume                     2066.66
_exptl_crystal_colour            golden
_exptl_crystal_description       rod
_cell_formula_units_Z            2
_exptl_crystal_recrystallization_method chloroform/hexane
loop_
_atom_site_label
_atom_site_type_symbol
_atom_site_fract_x
_atom_site_fract_y
_atom_site_fract_z
S1 S 0.164887(17) -0.03905(8) 0.222943(14)
C1 C 0.03548(7) 0.6869(3) -0.03297(6)
C2 C 0.07334(8) 0.8842(3) -0.06248(6)
H1 H 0.0505 0.9723 -0.0977
C3 C 0.14133(8) 0.9488(4) -0.04133(6)
H2 H 0.1653 1.0799 -0.0619
C4 C 0.17656(8) 0.8213(4) 0.01132(6)
H3 H 0.2243 0.8634 0.0253
C5 C 0.14209(7) 0.6392(3) 0.04170(6)
H4 H 0.1660 0.5594 0.0774
C6 C 0.07069(7) 0.5645(3) 0.02134(6)
C7 C 0.03510(7) 0.3815(3) 0.05406(6)
C8 C 0.07343(7) 0.2588(3) 0.10980(6)
H5 H 0.1129 0.1402 0.1085
C9 C 0.05672(7) 0.3023(3) 0.16106(6)
H6 H 0.0174 0.4223 0.1618
C10 C 0.09251(7) 0.1852(3) 0.21629(6)
C11 C 0.07528(7) 0.2257(3) 0.26937(6)
H7 H 0.0372 0.3425 0.2752
C12 C 0.11992(7) 0.0761(3) 0.31496(6)
H8 H 0.1145 0.0821 0.3542
C13 C 0.17131(7) -0.0766(3) 0.29681(6)
C14 C 0.22839(7) -0.2564(3) 0.33225(6)
H9 H 0.2602 -0.3242 0.3071
H10 H 0.2080 -0.4315 0.3473
C15 C 0.26975(7) -0.0829(3) 0.38322(6)
H11 H 0.2948 0.0777 0.3679
H12 H 0.2369 0.0069 0.4052
C16 C 0.32193(7) -0.2684(3) 0.42445(6)
H13 H 0.3552 -0.3565 0.4027
H14 H 0.2970 -0.4300 0.4397
C17 C 0.36203(7) -0.0921(3) 0.47515(6)
H15 H 0.3285 0.0070 0.4952
H16 H 0.3893 0.0612 0.4599
C18 C 0.41111(7) -0.2786(3) 0.51900(6)
H17 H 0.3838 -0.4315 0.5343
H18 H 0.4445 -0.3783 0.4989
C19 C 0.45146(7) -0.1021(3) 0.56969(6)
H19 H 0.4181 0.0037 0.5888
H20 H 0.4802 0.0458 0.5545
C20 C 0.49854(7) -0.2900(3) 0.61476(6)
H21 H 0.4698 -0.4380 0.6299
H22 H 0.5319 -0.3958 0.5956
C21 C 0.53887(7) -0.1147(3) 0.66544(6)
H23 H 0.5056 -0.0044 0.6839
H24 H 0.5687 0.0293 0.6504
C22 C 0.58429(7) -0.3044(3) 0.71127(6)
H25 H 0.5547 -0.4544 0.7249
H26 H 0.6190 -0.4077 0.6931
C23 C 0.62230(8) -0.1327(4) 0.76346(6)
H27 H 0.6534 0.0117 0.7501
H28 H 0.5878 -0.0228 0.7806
C24 C 0.66517(8) -0.3241(4) 0.81014(6)
H29 H 0.7025 -0.4198 0.7941
H30 H 0.6350 -0.4800 0.8210
C25 C 0.69767(8) -0.1537(4) 0.86443(6)
H31 H 0.7305 -0.0093 0.8546
H32 H 0.7223 -0.2892 0.8937
H33 H 0.6611 -0.0529 0.8799
S1B S -0.164887(17) 1.03905(8) -0.222943(14)
C1B C -0.03548(7) 0.3131(3) 0.03297(6)
C2B C -0.07334(8) 0.1158(3) 0.06248(6)
H1B H -0.0505 0.0277 0.0977
C3B C -0.14133(8) 0.0512(4) 0.04133(6)
H2B H -0.1653 -0.0799 0.0619
C4B C -0.17656(8) 0.1787(4) -0.01132(6)
H3B H -0.2243 0.1366 -0.0253
C5B C -0.14209(7) 0.3608(3) -0.04170(6)
H4B H -0.1660 0.4406 -0.0774
C6B C -0.07069(7) 0.4355(3) -0.02134(6)
C7B C -0.03510(7) 0.6185(3) -0.05406(6)
C8B C -0.07343(7) 0.7412(3) -0.10980(6)
H5B H -0.1129 0.8598 -0.1085
C9B C -0.05672(7) 0.6977(3) -0.16106(6)
H6B H -0.0174 0.5777 -0.1618
C10B C -0.09251(7) 0.8148(3) -0.21629(6)
C11B C -0.07528(7) 0.7743(3) -0.26937(6)
H7B H -0.0372 0.6575 -0.2752
C12B C -0.11992(7) 0.9239(3) -0.31496(6)
H8B H -0.1145 0.9179 -0.3542
C13B C -0.17131(7) 1.0766(3) -0.29681(6)
C14B C -0.22839(7) 1.2564(3) -0.33225(6)
H9B H -0.2602 1.3242 -0.3071
H10B H -0.2080 1.4315 -0.3473
C15B C -0.26975(7) 1.0829(3) -0.38322(6)
H11B H -0.2948 0.9223 -0.3679
H12B H -0.2369 0.9931 -0.4052
C16B C -0.32193(7) 1.2684(3) -0.42445(6)
H13B H -0.3552 1.3565 -0.4027
H14B H -0.2970 1.4300 -0.4397
C17B C -0.36203(7) 1.0921(3) -0.47515(6)
H15B H -0.3285 0.9930 -0.4952
H16B H -0.3893 0.9388 -0.4599
C18B C -0.41111(7) 1.2786(3) -0.51900(6)
H17B H -0.3838 1.4315 -0.5343
H18B H -0.4445 1.3783 -0.4989
C19B C -0.45146(7) 1.1021(3) -0.56969(6)
H19B H -0.4181 0.9963 -0.5888
H20B H -0.4802 0.9542 -0.5545
C20B C -0.49854(7) 1.2900(3) -0.61476(6)
H21B H -0.4698 1.4380 -0.6299
H22B H -0.5319 1.3958 -0.5956
C21B C -0.53887(7) 1.1147(3) -0.66544(6)
H23B H -0.5056 1.0044 -0.6839
H24B H -0.5687 0.9707 -0.6504
C22B C -0.58429(7) 1.3044(3) -0.71127(6)
H25B H -0.5547 1.4544 -0.7249
H26B H -0.6190 1.4077 -0.6931
C23B C -0.62230(8) 1.1327(4) -0.76346(6)
H27B H -0.6534 0.9883 -0.7501
H28B H -0.5878 1.0228 -0.7806
C24B C -0.66517(8) 1.3241(4) -0.81014(6)
H29B H -0.7025 1.4198 -0.7941
H30B H -0.6350 1.4800 -0.8210
C25B C -0.69767(8) 1.1537(4) -0.86443(6)
H31B H -0.7305 1.0093 -0.8546
H32B H -0.7223 1.2892 -0.8937
H33B H -0.6611 1.0529 -0.8799
loop_
_geom_bond_atom_site_label_1
_geom_bond_atom_site_label_2
_geom_bond_site_symmetry_1
_geom_bond_site_symmetry_2
S1 C10 1_555 1_555
C1 C2 1_555 1_555
C2 H1 1_555 1_555
C3 C2 1_555 1_555
H2 C3 1_555 1_555
C4 C3 1_555 1_555
H3 C4 1_555 1_555
C5 C4 1_555 1_555
H4 C5 1_555 1_555
C6 C1 1_555 1_555
C7 C6 1_555 1_555
C8 C7 1_555 1_555
H5 C8 1_555 1_555
C9 C8 1_555 1_555
H6 C9 1_555 1_555
C10 C9 1_555 1_555
C11 C10 1_555 1_555
H7 C11 1_555 1_555
C12 C11 1_555 1_555
H8 C12 1_555 1_555
C13 S1 1_555 1_555
C14 C13 1_555 1_555
H9 C14 1_555 1_555
H10 C14 1_555 1_555
C15 C14 1_555 1_555
H11 C15 1_555 1_555
H12 C15 1_555 1_555
C16 C15 1_555 1_555
H13 C16 1_555 1_555
H14 C16 1_555 1_555
C17 C16 1_555 1_555
H15 C17 1_555 1_555
H16 C17 1_555 1_555
C18 C17 1_555 1_555
H17 C18 1_555 1_555
H18 C18 1_555 1_555
C19 C18 1_555 1_555
H19 C19 1_555 1_555
H20 C19 1_555 1_555
C20 C19 1_555 1_555
H21 C20 1_555 1_555
H22 C20 1_555 1_555
C21 C20 1_555 1_555
H23 C21 1_555 1_555
H24 C21 1_555 1_555
C22 C21 1_555 1_555
H25 C22 1_555 1_555
H26 C22 1_555 1_555
C23 C22 1_555 1_555
H27 C23 1_555 1_555
H28 C23 1_555 1_555
C24 C23 1_555 1_555
H29 C24 1_555 1_555
H30 C24 1_555 1_555
C25 C24 1_555 1_555
H31 C25 1_555 1_555
H32 C25 1_555 1_555
H33 C25 1_555 1_555
S1B C10B 1_555 1_555
C1B C7 1_555 1_555
C2B C1B 1_555 1_555
H1B C2B 1_555 1_555
C3B C2B 1_555 1_555
H2B C3B 1_555 1_555
C4B C3B 1_555 1_555
H3B C4B 1_555 1_555
C5B C4B 1_555 1_555
H4B C5B 1_555 1_555
C6B C1B 1_555 1_555
C7B C1 1_555 1_555
C8B C7B 1_555 1_555
H5B C8B 1_555 1_555
C9B C8B 1_555 1_555
H6B C9B 1_555 1_555
C10B C9B 1_555 1_555
C11B C10B 1_555 1_555
H7B C11B 1_555 1_555
C12B C11B 1_555 1_555
H8B C12B 1_555 1_555
C13B S1B 1_555 1_555
C14B C13B 1_555 1_555
H9B C14B 1_555 1_555
H10B C14B 1_555 1_555
C15B C14B 1_555 1_555
H11B C15B 1_555 1_555
H12B C15B 1_555 1_555
C16B C15B 1_555 1_555
H13B C16B 1_555 1_555
H14B C16B 1_555 1_555
C17B C16B 1_555 1_555
H15B C17B 1_555 1_555
H16B C17B 1_555 1_555
C18B C17B 1_555 1_555
H17B C18B 1_555 1_555
H18B C18B 1_555 1_555
C19B C18B 1_555 1_555
H19B C19B 1_555 1_555
H20B C19B 1_555 1_555
C20B C19B 1_555 1_555
H21B C20B 1_555 1_555
H22B C20B 1_555 1_555
C21B C20B 1_555 1_555
H23B C21B 1_555 1_555
H24B C21B 1_555 1_555
C22B C21B 1_555 1_555
H25B C22B 1_555 1_555
H26B C22B 1_555 1_555
C23B C22B 1_555 1_555
H27B C23B 1_555 1_555
H28B C23B 1_555 1_555
C24B C23B 1_555 1_555
H29B C24B 1_555 1_555
H30B C24B 1_555 1_555
C25B C24B 1_555 1_555
H31B C25B 1_555 1_555
H32B C25B 1_555 1_555
H33B C25B 1_555 1_555
C5 C6 1_555 1_555
C12 C13 1_555 1_555
C5B C6B 1_555 1_555
C6B C7B 1_555 1_555
C12B C13B 1_555 1_555

#END
