
#######################################################################
#
#                 Cambridge Crystallographic Data Centre
#                                CCDC 
#
#######################################################################
#
# If this CIF has been generated from an entry in the Cambridge 
# Structural Database, then it will include bibliographic, chemical, 
# crystal, experimental, refinement or atomic coordinate data resulting 
# from the CCDC's data processing and validation procedures.
#
#######################################################################

data_QUKZED
_chemical_compound_source        'Abies fabri'
_chemical_name_common            
(17S,23S,25R)-17,23-epoxy-3-oxo-7-lanosten-26,23-olide
_chemical_formula_moiety         'C30 H44 O4'
_chemical_name_systematic        17,23:23,26-diepoxylanost-7-ene-3,26-dione
_symmetry_cell_setting           orthorhombic
_symmetry_space_group_name_H-M   'P 21 21 21'
_symmetry_Int_Tables_number      19
_space_group_name_Hall           'P 2ac 2ab'
loop_
_symmetry_equiv_pos_site_id
_symmetry_equiv_pos_as_xyz
1 x,y,z
2 1/2-x,-y,1/2+z
3 -x,1/2+y,1/2-z
4 1/2+x,1/2-y,-z
_cell_length_a                   7.4127(2)
_cell_length_b                   10.6798(2)
_cell_length_c                   32.8809(7)
_cell_angle_alpha                90
_cell_angle_beta                 90
_cell_angle_gamma                90
_cell_volume                     2603.05
_exptl_crystal_colour            colorless
_exptl_crystal_description       PRISM
_cell_formula_units_Z            4
loop_
_atom_site_label
_atom_site_type_symbol
_atom_site_fract_x
_atom_site_fract_y
_atom_site_fract_z
O1 O 0.5701(7) 0.1474(4) 0.18953(13)
O2 O 0.0075(4) 0.9126(2) 0.06503(9)
O3 O 0.0428(4) 1.1275(3) 0.05753(9)
O4 O 0.2894(6) 1.2290(4) 0.03812(12)
C1 C 0.4142(8) 0.4005(5) 0.12713(16)
H1 H 0.3787 0.3632 0.1007
H2 H 0.4617 0.4854 0.1217
C2 C 0.5658(11) 0.3202(7) 0.1460(2)
H3 H 0.6072 0.2592 0.1253
H4 H 0.6690 0.3757 0.1524
C3 C 0.5158(9) 0.2492(5) 0.18405(18)
C4 C 0.4213(12) 0.3261(6) 0.21613(18)
C5 C 0.3195(7) 0.4374(5) 0.19641(15)
H5 H 0.4155 0.5016 0.1916
C6 C 0.1841(10) 0.5032(5) 0.22398(15)
H6 H 0.0735 0.4520 0.2266
H7 H 0.2365 0.5152 0.2514
C7 C 0.1393(7) 0.6278(5) 0.20541(14)
H8 H 0.1286 0.6995 0.2223
C8 C 0.1148(5) 0.6389(4) 0.16584(12)
C9 C 0.1127(6) 0.5198(4) 0.14020(13)
H9 H -0.0104 0.4844 0.1449
C10 C 0.2440(7) 0.4117(4) 0.15453(14)
C11 C 0.1177(6) 0.5456(4) 0.09398(13)
H10 H 0.2427 0.5683 0.0864
H11 H 0.0874 0.4670 0.0796
C12 C -0.0080(7) 0.6482(4) 0.07879(13)
H12 H -0.1166 0.6086 0.0669
H13 H 0.0536 0.6949 0.0568
C13 C -0.0685(6) 0.7422(4) 0.11191(13)
C14 C 0.0835(6) 0.7619(4) 0.14326(12)
C15 C 0.0115(7) 0.8723(4) 0.16850(13)
H14 H -0.0765 0.8433 0.1891
H15 H 0.1111 0.9168 0.1824
C16 C -0.0793(6) 0.9565(4) 0.13686(14)
H16 H 0.0001 1.0282 0.1303
H17 H -0.1943 0.9896 0.1477
C17 C -0.1158(5) 0.8768(4) 0.09766(13)
C18 C -0.2394(6) 0.6937(4) 0.13466(15)
H18 H -0.2940 0.7627 0.1500
H19 H -0.2049 0.6266 0.1534
H20 H -0.3266 0.6615 0.1149
C19 C 0.1416(9) 0.2893(5) 0.1502(2)
H21 H 0.0870 0.2849 0.1231
H22 H 0.0466 0.2851 0.1709
H23 H 0.2249 0.2190 0.1538
C20 C -0.3010(6) 0.9054(4) 0.07788(14)
H24 H -0.3964 0.9151 0.0992
C21 C -0.3608(7) 0.8138(5) 0.04552(16)
H25 H -0.4658 0.8477 0.0311
H26 H -0.3931 0.7340 0.0583
H27 H -0.2622 0.8004 0.0262
C22 C -0.2558(7) 1.0331(4) 0.05847(15)
H28 H -0.3360 1.0510 0.0351
H29 H -0.2667 1.1017 0.0786
C23 C -0.0604(6) 1.0169(4) 0.04464(14)
C24 C -0.0167(6) 1.0081(4) -0.00055(14)
H30 H -0.0206 0.9201 -0.0100
H31 H -0.1028 1.0582 -0.0168
C25 C 0.1703(7) 1.0602(4) -0.00383(14)
H32 H 0.2582 0.9907 0.0010
C26 C 0.1793(7) 1.1489(4) 0.03166(15)
C27 C 0.2181(7) 1.1238(5) -0.04357(15)
H33 H 0.1327 1.1919 -0.0488
H34 H 0.2119 1.0627 -0.0658
H35 H 0.3406 1.1579 -0.0419
C28 C 0.3099(14) 0.2406(7) 0.2426(2)
H36 H 0.1997 0.2166 0.2281
H37 H 0.2777 0.2842 0.2678
H38 H 0.3798 0.1653 0.2491
C29 C 0.5685(16) 0.3776(9) 0.2443(3)
H39 H 0.6694 0.4089 0.2279
H40 H 0.6112 0.3108 0.2623
H41 H 0.5190 0.4462 0.2607
C30 C 0.2653(6) 0.8046(4) 0.12460(14)
H42 H 0.3531 0.8188 0.1464
H43 H 0.2473 0.8824 0.1093
H44 H 0.3107 0.7394 0.1063
loop_
_geom_bond_atom_site_label_1
_geom_bond_atom_site_label_2
_geom_bond_site_symmetry_1
_geom_bond_site_symmetry_2
O1 C3 1_555 1_555
O2 C17 1_555 1_555
O3 C23 1_555 1_555
O4 C26 1_555 1_555
C1 H1 1_555 1_555
H2 C1 1_555 1_555
C2 C1 1_555 1_555
H3 C2 1_555 1_555
H4 C2 1_555 1_555
C3 C2 1_555 1_555
C4 C3 1_555 1_555
C5 C4 1_555 1_555
H5 C5 1_555 1_555
C6 C5 1_555 1_555
H6 C6 1_555 1_555
H7 C6 1_555 1_555
C7 C6 1_555 1_555
H8 C7 1_555 1_555
C8 C7 1_555 1_555
C9 C8 1_555 1_555
H9 C9 1_555 1_555
C10 C1 1_555 1_555
C11 C9 1_555 1_555
H10 C11 1_555 1_555
H11 C11 1_555 1_555
C12 C11 1_555 1_555
H12 C12 1_555 1_555
H13 C12 1_555 1_555
C13 C12 1_555 1_555
C14 C8 1_555 1_555
C15 C14 1_555 1_555
H14 C15 1_555 1_555
H15 C15 1_555 1_555
C16 C15 1_555 1_555
H16 C16 1_555 1_555
H17 C16 1_555 1_555
C17 C13 1_555 1_555
C18 C13 1_555 1_555
H18 C18 1_555 1_555
H19 C18 1_555 1_555
H20 C18 1_555 1_555
C19 C10 1_555 1_555
H21 C19 1_555 1_555
H22 C19 1_555 1_555
H23 C19 1_555 1_555
C20 C17 1_555 1_555
H24 C20 1_555 1_555
C21 C20 1_555 1_555
H25 C21 1_555 1_555
H26 C21 1_555 1_555
H27 C21 1_555 1_555
C22 C20 1_555 1_555
H28 C22 1_555 1_555
H29 C22 1_555 1_555
C23 O2 1_555 1_555
C24 C23 1_555 1_555
H30 C24 1_555 1_555
H31 C24 1_555 1_555
C25 C24 1_555 1_555
H32 C25 1_555 1_555
C26 O3 1_555 1_555
C27 C25 1_555 1_555
H33 C27 1_555 1_555
H34 C27 1_555 1_555
H35 C27 1_555 1_555
C28 C4 1_555 1_555
H36 C28 1_555 1_555
H37 C28 1_555 1_555
H38 C28 1_555 1_555
C29 C4 1_555 1_555
H39 C29 1_555 1_555
H40 C29 1_555 1_555
H41 C29 1_555 1_555
C30 C14 1_555 1_555
H42 C30 1_555 1_555
H43 C30 1_555 1_555
H44 C30 1_555 1_555
C5 C10 1_555 1_555
C9 C10 1_555 1_555
C13 C14 1_555 1_555
C16 C17 1_555 1_555
C22 C23 1_555 1_555
C25 C26 1_555 1_555

#END
