
#######################################################################
#
#                 Cambridge Crystallographic Data Centre
#                                CCDC 
#
#######################################################################
#
# If this CIF has been generated from an entry in the Cambridge 
# Structural Database, then it will include bibliographic, chemical, 
# crystal, experimental, refinement or atomic coordinate data resulting 
# from the CCDC's data processing and validation procedures.
#
#######################################################################

data_QULFOU
_chemical_compound_source        'Rhododendron micranthum'
_chemical_formula_moiety         'C22 H34 O6,2.5(H2 O1)'
_chemical_name_systematic        
'3,5,6,16-tetrahydroxygrayanotox-9-en-14-yl acetate hydrate'
_symmetry_cell_setting           orthorhombic
_symmetry_space_group_name_H-M   'C 2 2 21'
_symmetry_Int_Tables_number      20
_space_group_name_Hall           'C 2n 2'
loop_
_symmetry_equiv_pos_site_id
_symmetry_equiv_pos_as_xyz
1 x,y,z
2 x,-y,-z
3 -x,y,1/2-z
4 -x,-y,1/2+z
5 1/2+x,1/2+y,z
6 1/2+x,1/2-y,-z
7 1/2-x,1/2+y,1/2-z
8 1/2-x,1/2-y,1/2+z
_cell_length_a                   9.6850(2)
_cell_length_b                   22.6766(6)
_cell_length_c                   20.9926(5)
_cell_angle_alpha                90
_cell_angle_beta                 90
_cell_angle_gamma                90
_cell_volume                     4610.46
_exptl_crystal_colour            colorless
_exptl_crystal_description       block
_cell_formula_units_Z            8
loop_
_atom_site_label
_atom_site_type_symbol
_atom_site_fract_x
_atom_site_fract_y
_atom_site_fract_z
C1 C 0.6343(3) 0.17078(12) 1.03686(13)
H1 H 0.6063 0.2074 1.0157
C2 C 0.6019(4) 0.1770(2) 1.11004(16)
H2 H 0.6805 0.1642 1.1351
H3 H 0.5823 0.2178 1.1205
C3 C 0.4773(3) 0.13877(17) 1.12450(14)
H4 H 0.4148 0.1593 1.1537
C4 C 0.4066(3) 0.12895(13) 1.06061(13)
C5 C 0.5348(3) 0.12115(11) 1.01540(12)
C6 C 0.5020(3) 0.12302(12) 0.94418(13)
H5 H 0.4243 0.1503 0.9389
C7 C 0.6188(3) 0.14615(12) 0.90276(12)
H6 H 0.6277 0.1880 0.9113
H7 H 0.5898 0.1422 0.8587
C8 C 0.7632(3) 0.11897(12) 0.90825(12)
C9 C 0.8371(3) 0.13248(13) 0.97171(13)
C10 C 0.7869(3) 0.16006(13) 1.02228(13)
C11 C 0.9839(3) 0.1077(2) 0.97235(14)
H8 H 1.0340 0.1260 1.0071
H9 H 0.9787 0.0658 0.9814
C12 C 1.0675(3) 0.1160(2) 0.91125(16)
H10 H 1.1450 0.0889 0.9112
H11 H 1.1039 0.1559 0.9100
C13 C 0.9789(3) 0.10518(15) 0.85208(13)
H12 H 1.0318 0.1124 0.8131
C14 C 0.8591(3) 0.14824(13) 0.85785(12)
H13 H 0.8910 0.1870 0.8724
C15 C 0.7726(3) 0.05315(13) 0.88912(13)
H14 H 0.6931 0.0421 0.8636
H15 H 0.7745 0.0285 0.9269
C16 C 0.9081(3) 0.04488(14) 0.84993(14)
C17 C 0.9966(5) -0.0066(2) 0.8715(2)
H16 H 0.9456 -0.0427 0.8667
H17 H 1.0212 -0.0014 0.9155
H18 H 1.0788 -0.0083 0.8461
C18 C 0.3237(3) 0.18465(15) 1.04531(18)
H19 H 0.2840 0.1812 1.0036
H20 H 0.3836 0.2183 1.0466
H21 H 0.2513 0.1894 1.0762
C19 C 0.3073(3) 0.07662(15) 1.06039(16)
H22 H 0.3552 0.0418 1.0743
H23 H 0.2727 0.0706 1.0180
H24 H 0.2317 0.0845 1.0887
C20 C 0.8844(4) 0.1858(2) 1.07234(16)
H25 H 0.8952 0.1582 1.1066
H26 H 0.8464 0.2219 1.0885
H27 H 0.9727 0.1935 1.0533
C21 C 0.6931(6) 0.2018(2) 0.7093(2)
H28 H 0.6604 0.2403 0.6976
H29 H 0.6182 0.1742 0.7074
H30 H 0.7645 0.1898 0.6803
O1 O 0.5225(3) 0.08341(16) 1.15247(13)
H31 H 0.5671 0.0636 1.1270
O2 O 0.5967(2) 0.06498(8) 1.02777(10)
H32 H 0.5309 0.0458 1.0147
O3 O 0.4550(2) 0.06654(11) 0.92403(10)
H33 H 0.4021 0.0621 0.8939
O4 O 0.7898(2) 0.15262(9) 0.79671(9)
O5 O 0.8707(3) 0.03228(10) 0.78408(10)
H34 H 0.8359 0.0612 0.7669
C22 C 0.7497(10) 0.2037(2) 0.7755(3)
O6 O 0.7543(7) 0.24807(18) 0.8081(2)
O8 O 0.6147(9) 0.3512(3) 0.7819(4)
H38 H 0.6537 0.3831 0.7933
H39 H 0.6481 0.3240 0.8046
O9 O 0.7030(6) -0.06721(19) 0.7479(3)
H40 H 0.6505 -0.0748 0.7792
H41 H 0.7518 -0.0378 0.7590
O10 O 0.3911(6) 0.0561(3) 0.7924(2)
H42 H 0.3532 0.0256 0.8039
H35? H 0.7015 0.2377 0.6846
H36? H 0.7075 0.1687 0.6816
H37? H 0.6025 0.1997 0.7276
O7? O 0.9129(18) 0.2321(7) 0.7722(8)
C23? C 0.820(3) 0.1995(8) 0.7602(9)
loop_
_geom_bond_atom_site_label_1
_geom_bond_atom_site_label_2
_geom_bond_site_symmetry_1
_geom_bond_site_symmetry_2
C1 H1 1_555 1_555
C2 C1 1_555 1_555
H2 C2 1_555 1_555
H3 C2 1_555 1_555
C3 C2 1_555 1_555
H4 C3 1_555 1_555
C4 C3 1_555 1_555
C5 C1 1_555 1_555
C6 C5 1_555 1_555
H5 C6 1_555 1_555
C7 C6 1_555 1_555
H6 C7 1_555 1_555
H7 C7 1_555 1_555
C8 C7 1_555 1_555
C9 C8 1_555 1_555
C10 C1 1_555 1_555
C11 C9 1_555 1_555
H8 C11 1_555 1_555
H9 C11 1_555 1_555
C12 C11 1_555 1_555
H10 C12 1_555 1_555
H11 C12 1_555 1_555
C13 C12 1_555 1_555
H12 C13 1_555 1_555
C14 C8 1_555 1_555
H13 C14 1_555 1_555
C15 C8 1_555 1_555
H14 C15 1_555 1_555
H15 C15 1_555 1_555
C16 C13 1_555 1_555
C17 C16 1_555 1_555
H16 C17 1_555 1_555
H17 C17 1_555 1_555
H18 C17 1_555 1_555
C18 C4 1_555 1_555
H19 C18 1_555 1_555
H20 C18 1_555 1_555
H21 C18 1_555 1_555
C19 C4 1_555 1_555
H22 C19 1_555 1_555
H23 C19 1_555 1_555
H24 C19 1_555 1_555
C20 C10 1_555 1_555
H25 C20 1_555 1_555
H26 C20 1_555 1_555
H27 C20 1_555 1_555
C21 H28 1_555 1_555
H29 C21 1_555 1_555
H30 C21 1_555 1_555
O1 C3 1_555 1_555
H31 O1 1_555 1_555
O2 C5 1_555 1_555
H32 O2 1_555 1_555
O3 C6 1_555 1_555
H33 O3 1_555 1_555
O4 C14 1_555 1_555
O5 C16 1_555 1_555
H34 O5 1_555 1_555
C22 C21 1_555 1_555
O6 C22 1_555 1_555
O8 H38 1_555 1_555
H39 O8 1_555 1_555
O9 H40 1_555 1_555
H41 O9 1_555 1_555
O10 H42 1_555 1_555
C4 C5 1_555 1_555
C9 C10 1_555 1_555
C13 C14 1_555 1_555
C15 C16 1_555 1_555
O4 C22 1_555 1_555

#END
