
#######################################################################
#
#                 Cambridge Crystallographic Data Centre
#                                CCDC 
#
#######################################################################
#
# If this CIF has been generated from an entry in the Cambridge 
# Structural Database, then it will include bibliographic, chemical, 
# crystal, experimental, refinement or atomic coordinate data resulting 
# from the CCDC's data processing and validation procedures.
#
#######################################################################

data_QULGAH
_chemical_compound_source        'Rhododendron micranthum'
_chemical_formula_moiety         'C22 H32 O5'
_chemical_name_systematic        
'3,5,6-trihydroxygrayanotoxa-10,16-dien-14-yl acetate'
_symmetry_cell_setting           monoclinic
_symmetry_space_group_name_H-M   'P 21'
_symmetry_Int_Tables_number      4
_space_group_name_Hall           'P 2yb'
loop_
_symmetry_equiv_pos_site_id
_symmetry_equiv_pos_as_xyz
1 x,y,z
2 -x,1/2+y,-z
_cell_length_a                   12.574(3)
_cell_length_b                   13.288(3)
_cell_length_c                   13.781(3)
_cell_angle_alpha                90
_cell_angle_beta                 116.90(3)
_cell_angle_gamma                90
_cell_volume                     2053.43
_exptl_crystal_colour            colorless
_exptl_crystal_description       block
_cell_formula_units_Z            4
loop_
_atom_site_label
_atom_site_type_symbol
_atom_site_fract_x
_atom_site_fract_y
_atom_site_fract_z
C1 C 0.9748(10) 0.3613(8) 0.7970(8)
H1 H 0.9171 0.3198 0.7378
C2 C 0.8977(16) 0.0161(11) 0.6556(11)
C3 C 0.9046(12) 0.4424(9) 0.8258(9)
H2 H 0.9446 0.5070 0.8387
H3 H 0.8244 0.4497 0.7671
C4 C 0.9311(15) -0.0910(10) 0.6914(11)
H4 H 0.8828 -0.1356 0.6333
H5 H 0.9183 -0.1044 0.7537
H6 H 1.0137 -0.1015 0.7100
C5 C 0.9013(12) 0.4041(9) 0.9291(9)
H7 H 0.8194 0.4107 0.9195
C6 C 0.9315(10) 0.2927(8) 0.9359(9)
C7 C 1.0351(9) 0.2943(7) 0.9006(7)
C8 C 1.0729(10) 0.1910(7) 0.8761(8)
H8 H 1.0000 0.1537 0.8303
C9 C 1.1496(10) 0.1937(7) 0.8169(8)
H9 H 1.1857 0.1278 0.8249
H10 H 1.2140 0.2409 0.8555
C10 C 1.0949(11) 0.2212(8) 0.6964(9)
C11 C 1.0858(12) 0.3398(9) 0.6813(9)
H11 H 1.1658 0.3595 0.6927
C12 C 1.0670(11) 0.4003(8) 0.7625(8)
C13 C 1.0070(11) 0.3692(8) 0.5655(8)
H12 H 0.9642 0.4288 0.5686
H13 H 1.0599 0.3906 0.5356
C14 C 0.9170(13) 0.3021(13) 0.4825(12)
H14 H 0.9096 0.3180 0.4110
H15 H 0.8399 0.3122 0.4810
C15 C 0.9566(13) 0.1906(11) 0.5113(9)
H16 H 0.8972 0.1448 0.4590
C16 C 0.9711(11) 0.1717(8) 0.6257(8)
H17 H 0.9068 0.2014 0.6380
C17 C 1.1662(11) 0.1797(8) 0.6423(8)
H18 H 1.2010 0.1154 0.6739
H19 H 1.2299 0.2257 0.6513
C18 C 1.0803(14) 0.1674(9) 0.5226(9)
C19 C 1.1021(13) 0.1420(12) 0.4422(10)
H20 H 1.1798 0.1286 0.4547
H21 H 1.0399 0.1374 0.3721
C20 C 0.9782(13) 0.2493(10) 1.0530(9)
H22 H 0.9242 0.2669 1.0819
H23 H 1.0556 0.2768 1.0986
H24 H 0.9838 0.1773 1.0506
C21 C 0.8199(11) 0.2314(11) 0.8564(10)
H25 H 0.7869 0.2615 0.7855
H26 H 0.7611 0.2316 0.8828
H27 H 0.8430 0.1633 0.8521
C22 C 1.1291(13) 0.4836(9) 0.8002(9)
H28 H 1.1838 0.5035 0.7759
H29 H 1.1182 0.5224 0.8512
O1 O 0.9777(7) 0.4587(6) 1.0236(5)
H30 H 0.9579 0.5182 1.0158
O2 O 1.1342(6) 0.3448(5) 0.9875(5)
H31 H 1.1874 0.3538 0.9696
O3 O 1.1340(7) 0.1366(5) 0.9739(5)
H32 H 1.1996 0.1196 0.9805
O4 O 0.8045(10) 0.0558(9) 0.6391(10)
O5 O 0.9876(8) 0.0655(6) 0.6510(6)
C23 C 0.5437(10) 0.3768(8) 0.1906(8)
H33 H 0.6014 0.3357 0.2502
C24 C 0.6262(14) 0.0453(9) 0.3555(9)
C25 C 0.5893(15) -0.0620(10) 0.3353(12)
H34 H 0.6509 -0.1036 0.3878
H35 H 0.5762 -0.0806 0.2634
H36 H 0.5170 -0.0712 0.3416
C26 C 0.6177(13) 0.4461(9) 0.1531(10)
H37 H 0.5900 0.5151 0.1460
H38 H 0.7014 0.4441 0.2051
C27 C 0.5991(12) 0.4054(8) 0.0446(9)
H39 H 0.6739 0.4083 0.0387
C28 C 0.5577(11) 0.2957(8) 0.0382(9)
C29 C 0.4738(10) 0.3028(8) 0.0940(8)
C30 C 0.4496(10) 0.2058(7) 0.1370(7)
H40 H 0.5264 0.1754 0.1859
C31 C 0.3761(10) 0.2191(8) 0.2014(7)
H41 H 0.3397 0.1549 0.2019
H42 H 0.3120 0.2661 0.1616
C32 C 0.4439(10) 0.2569(8) 0.3216(8)
C33 C 0.4592(13) 0.3737(9) 0.3283(10)
H43 H 0.3931 0.4032 0.3378
C34 C 0.4659(12) 0.4258(8) 0.2333(8)
C35 C 0.5842(10) 0.4030(8) 0.4342(8)
H44 H 0.6462 0.4030 0.4107
H45 H 0.5764 0.4718 0.4537
C36 C 0.6265(12) 0.3454(12) 0.5302(11)
H46 H 0.5956 0.3731 0.5775
H47 H 0.7128 0.3497 0.5681
C37 C 0.5896(12) 0.2348(10) 0.5071(8)
H48 H 0.6494 0.1905 0.5611
C38 C 0.5665(11) 0.2063(7) 0.3901(8)
H49 H 0.6289 0.2306 0.3718
C39 C 0.3749(11) 0.2256(10) 0.3847(9)
H50 H 0.3149 0.2753 0.3766
H51 H 0.3366 0.1608 0.3600
C40 C 0.4718(14) 0.2199(9) 0.5029(10)
C41 C 0.4532(14) 0.1973(9) 0.5872(9)
H52 H 0.5174 0.1896 0.6557
H53 H 0.3757 0.1890 0.5781
C42 C 0.6747(12) 0.2317(11) 0.1110(12)
H54 H 0.7007 0.2469 0.1865
H55 H 0.7367 0.2485 0.0914
H56 H 0.6569 0.1612 0.0988
C43 C 0.5010(12) 0.2524(9) -0.0762(9)
H57 H 0.4901 0.1812 -0.0728
H58 H 0.5519 0.2648 -0.1098
H59 H 0.4250 0.2838 -0.1182
C44 C 0.4048(14) 0.5070(9) 0.1935(10)
H60 H 0.4074 0.5388 0.1346
H61 H 0.3582 0.5335 0.2239
O6 O 0.5074(9) 0.4584(6) -0.0438(7)
H62 H 0.4789 0.5075 -0.0862
O7 O 0.3637(6) 0.3468(5) 0.0172(5)
H63 H 0.3754 0.3808 -0.0285
O8 O 0.3857(7) 0.1357(5) 0.0511(5)
H64 H 0.3697 0.1799 0.0029
O9 O 0.7040(9) 0.0824(7) 0.3406(8)
O10 O 0.5477(7) 0.0984(5) 0.3760(6)
loop_
_geom_bond_atom_site_label_1
_geom_bond_atom_site_label_2
_geom_bond_site_symmetry_1
_geom_bond_site_symmetry_2
C1 H1 1_555 1_555
C2 C4 1_555 1_555
C3 C1 1_555 1_555
H2 C3 1_555 1_555
H3 C3 1_555 1_555
C4 H4 1_555 1_555
H5 C4 1_555 1_555
H6 C4 1_555 1_555
C5 C3 1_555 1_555
H7 C5 1_555 1_555
C6 C5 1_555 1_555
C7 C1 1_555 1_555
C8 C7 1_555 1_555
H8 C8 1_555 1_555
C9 C8 1_555 1_555
H9 C9 1_555 1_555
H10 C9 1_555 1_555
C10 C9 1_555 1_555
C11 C10 1_555 1_555
H11 C11 1_555 1_555
C12 C1 1_555 1_555
C13 C11 1_555 1_555
H12 C13 1_555 1_555
H13 C13 1_555 1_555
C14 C13 1_555 1_555
H14 C14 1_555 1_555
H15 C14 1_555 1_555
C15 C14 1_555 1_555
H16 C15 1_555 1_555
C16 C10 1_555 1_555
H17 C16 1_555 1_555
C17 C10 1_555 1_555
H18 C17 1_555 1_555
H19 C17 1_555 1_555
C18 C15 1_555 1_555
C19 C18 1_555 1_555
H20 C19 1_555 1_555
H21 C19 1_555 1_555
C20 C6 1_555 1_555
H22 C20 1_555 1_555
H23 C20 1_555 1_555
H24 C20 1_555 1_555
C21 C6 1_555 1_555
H25 C21 1_555 1_555
H26 C21 1_555 1_555
H27 C21 1_555 1_555
C22 C12 1_555 1_555
H28 C22 1_555 1_555
H29 C22 1_555 1_555
O1 C5 1_555 1_555
H30 O1 1_555 1_555
O2 C7 1_555 1_555
H31 O2 1_555 1_555
O3 C8 1_555 1_555
H32 O3 1_555 1_555
O4 C2 1_555 1_555
O5 C2 1_555 1_555
C23 H33 1_555 1_555
C24 C25 1_555 1_555
C25 H34 1_555 1_555
H35 C25 1_555 1_555
H36 C25 1_555 1_555
C26 C23 1_555 1_555
H37 C26 1_555 1_555
H38 C26 1_555 1_555
C27 C26 1_555 1_555
H39 C27 1_555 1_555
C28 C27 1_555 1_555
C29 C23 1_555 1_555
C30 C29 1_555 1_555
H40 C30 1_555 1_555
C31 C30 1_555 1_555
H41 C31 1_555 1_555
H42 C31 1_555 1_555
C32 C31 1_555 1_555
C33 C32 1_555 1_555
H43 C33 1_555 1_555
C34 C23 1_555 1_555
C35 C33 1_555 1_555
H44 C35 1_555 1_555
H45 C35 1_555 1_555
C36 C35 1_555 1_555
H46 C36 1_555 1_555
H47 C36 1_555 1_555
C37 C36 1_555 1_555
H48 C37 1_555 1_555
C38 C32 1_555 1_555
H49 C38 1_555 1_555
C39 C32 1_555 1_555
H50 C39 1_555 1_555
H51 C39 1_555 1_555
C40 C37 1_555 1_555
C41 C40 1_555 1_555
H52 C41 1_555 1_555
H53 C41 1_555 1_555
C42 C28 1_555 1_555
H54 C42 1_555 1_555
H55 C42 1_555 1_555
H56 C42 1_555 1_555
C43 C28 1_555 1_555
H57 C43 1_555 1_555
H58 C43 1_555 1_555
H59 C43 1_555 1_555
C44 C34 1_555 1_555
H60 C44 1_555 1_555
H61 C44 1_555 1_555
O6 C27 1_555 1_555
H62 O6 1_555 1_555
O7 C29 1_555 1_555
H63 O7 1_555 1_555
O8 C30 1_555 1_555
H64 O8 1_555 1_555
O9 C24 1_555 1_555
O10 C24 1_555 1_555
C6 C7 1_555 1_555
C11 C12 1_555 1_555
C15 C16 1_555 1_555
C16 O5 1_555 1_555
C17 C18 1_555 1_555
C28 C29 1_555 1_555
C33 C34 1_555 1_555
C37 C38 1_555 1_555
C38 O10 1_555 1_555
C39 C40 1_555 1_555

#END
