
#######################################################################
#
#                 Cambridge Crystallographic Data Centre
#                                CCDC 
#
#######################################################################
#
# If this CIF has been generated from an entry in the Cambridge 
# Structural Database, then it will include bibliographic, chemical, 
# crystal, experimental, refinement or atomic coordinate data resulting 
# from the CCDC's data processing and validation procedures.
#
#######################################################################

data_QULHEM
_chemical_formula_moiety         'C18 H18 N2'
_chemical_name_systematic        
3-(4-(dimethylamino)phenyl)-2-(2-methylphenyl)acrylonitrile
_symmetry_cell_setting           monoclinic
_symmetry_space_group_name_H-M   'P 21/a'
_symmetry_Int_Tables_number      14
_space_group_name_Hall           '-P 2yab'
loop_
_symmetry_equiv_pos_site_id
_symmetry_equiv_pos_as_xyz
1 x,y,z
2 1/2-x,1/2+y,-z
3 -x,-y,-z
4 1/2+x,1/2-y,z
_cell_length_a                   11.0152(13)
_cell_length_b                   11.6216(8)
_cell_length_c                   11.7262(13)
_cell_angle_alpha                90
_cell_angle_beta                 102.562(11)
_cell_angle_gamma                90
_cell_volume                     1465.19
_exptl_crystal_colour            orange
_exptl_crystal_description       plate
_cell_formula_units_Z            4
loop_
_atom_site_label
_atom_site_type_symbol
_atom_site_fract_x
_atom_site_fract_y
_atom_site_fract_z
N1 N 0.4614(2) 0.28552(16) 0.79474(18)
N2 N -0.03617(18) 0.15916(17) 0.34071(16)
C1 C 0.58227(18) 0.01063(16) 0.83302(16)
C2 C 0.56599(19) -0.08988(16) 0.89376(16)
C3 C 0.6708(2) -0.13633(18) 0.96823(19)
H1 H 0.6624 -0.2037 1.0087
C4 C 0.7865(2) -0.0855(2) 0.9837(2)
H2 H 0.8544 -0.1183 1.0344
C5 C 0.8010(2) 0.0131(2) 0.9244(2)
H3 H 0.8789 0.0474 0.9343
C6 C 0.6998(2) 0.06134(19) 0.85006(19)
H4 H 0.7098 0.1288 0.8105
C7 C 0.47574(18) 0.06851(16) 0.75282(16)
C8 C 0.3982(2) 0.01553(17) 0.66359(18)
H5 H 0.4193 -0.0603 0.6514
C9 C 0.28726(19) 0.05657(16) 0.58332(17)
C10 C 0.2462(2) 0.00007(17) 0.47712(18)
H6 H 0.2916 -0.0624 0.4596
C11 C 0.1417(2) 0.03292(18) 0.39766(17)
H7 H 0.1193 -0.0062 0.3270
C12 C 0.06763(18) 0.12450(16) 0.42088(16)
C13 C 0.1060(2) 0.17975(17) 0.52961(18)
H8 H 0.0585 0.2397 0.5492
C14 C 0.2125(2) 0.14665(17) 0.60723(17)
H9 H 0.2356 0.1855 0.6780
C15 C 0.4416(2) -0.1465(2) 0.8853(2)
H10 H 0.4221 -0.1926 0.8158
H11 H 0.3789 -0.0885 0.8822
H12 H 0.4445 -0.1945 0.9525
C16 C 0.4641(2) 0.18910(17) 0.77419(17)
C17 C -0.0786(2) 0.0943(2) 0.2342(2)
H13 H -0.0115 0.0857 0.1946
H14 H -0.1462 0.1344 0.1845
H15 H -0.1064 0.0197 0.2528
C18 C -0.1216(2) 0.2423(2) 0.3700(2)
H16 H -0.1593 0.2115 0.4299
H17 H -0.1849 0.2592 0.3019
H18 H -0.0773 0.3115 0.3977
loop_
_geom_bond_atom_site_label_1
_geom_bond_atom_site_label_2
_geom_bond_site_symmetry_1
_geom_bond_site_symmetry_2
N1 C16 1_555 1_555
N2 C12 1_555 1_555
C1 C2 1_555 1_555
C2 C3 1_555 1_555
C3 H1 1_555 1_555
C4 C3 1_555 1_555
H2 C4 1_555 1_555
C5 C4 1_555 1_555
H3 C5 1_555 1_555
C6 C1 1_555 1_555
H4 C6 1_555 1_555
C7 C1 1_555 1_555
C8 C7 1_555 1_555
H5 C8 1_555 1_555
C9 C8 1_555 1_555
C10 C9 1_555 1_555
H6 C10 1_555 1_555
C11 C10 1_555 1_555
H7 C11 1_555 1_555
C12 C11 1_555 1_555
C13 C12 1_555 1_555
H8 C13 1_555 1_555
C14 C9 1_555 1_555
H9 C14 1_555 1_555
C15 C2 1_555 1_555
H10 C15 1_555 1_555
H11 C15 1_555 1_555
H12 C15 1_555 1_555
C16 C7 1_555 1_555
C17 N2 1_555 1_555
H13 C17 1_555 1_555
H14 C17 1_555 1_555
H15 C17 1_555 1_555
C18 N2 1_555 1_555
H16 C18 1_555 1_555
H17 C18 1_555 1_555
H18 C18 1_555 1_555
C5 C6 1_555 1_555
C13 C14 1_555 1_555

#END
