
#######################################################################
#
#                 Cambridge Crystallographic Data Centre
#                                CCDC 
#
#######################################################################
#
# If this CIF has been generated from an entry in the Cambridge 
# Structural Database, then it will include bibliographic, chemical, 
# crystal, experimental, refinement or atomic coordinate data resulting 
# from the CCDC's data processing and validation procedures.
#
#######################################################################

data_QULJEO
_chemical_formula_moiety         'C29 H21 N1'
_chemical_name_systematic        2,3,5,6-Tetraphenylpyridine
_symmetry_cell_setting           monoclinic
_symmetry_space_group_name_H-M   'P c'
_symmetry_Int_Tables_number      7
_space_group_name_Hall           'P -2yc'
loop_
_symmetry_equiv_pos_site_id
_symmetry_equiv_pos_as_xyz
1 x,y,z
2 x,-y,1/2+z
_cell_length_a                   5.8306(1)
_cell_length_b                   11.6595(2)
_cell_length_c                   14.5947(3)
_cell_angle_alpha                90
_cell_angle_beta                 92.476(1)
_cell_angle_gamma                90
_cell_volume                     991.249
_exptl_crystal_colour            colorless
_exptl_crystal_description       prism
_cell_formula_units_Z            2
loop_
_atom_site_label
_atom_site_type_symbol
_atom_site_fract_x
_atom_site_fract_y
_atom_site_fract_z
C1 C 0.2063(3) 0.19185(14) 0.86828(11)
C2 C 0.3501(3) 0.14808(14) 0.93934(12)
C3 C 0.5076(3) 0.21881(13) 0.98236(12)
H1 H 0.6053 0.1888 1.0303
C4 C 0.5287(3) 0.33242(14) 0.95811(12)
C5 C 0.3825(3) 0.37385(13) 0.88650(12)
C6 C 0.0317(3) 0.12361(15) 0.81516(12)
C7 C -0.1746(4) 0.17634(18) 0.78713(14)
H2 H -0.2023 0.2533 0.8049
C8 C -0.3387(4) 0.1190(2) 0.73428(15)
H3 H -0.4775 0.1566 0.7156
C9 C -0.3014(4) 0.0070(2) 0.70849(15)
H4 H -0.4148 -0.0327 0.6722
C10 C -0.0986(4) -0.04768(16) 0.73548(14)
H5 H -0.0728 -0.1248 0.7176
C11 C 0.0665(3) 0.01046(15) 0.78864(13)
H6 H 0.2051 -0.0274 0.8072
C12 C 0.3392(3) 0.02745(13) 0.97306(12)
C13 C 0.1516(3) -0.01059(15) 1.02039(13)
H7 H 0.0283 0.0404 1.0306
C14 C 0.1428(4) -0.12163(15) 1.05269(14)
H8 H 0.0139 -0.1466 1.0850
C15 C 0.3205(4) -0.19637(14) 1.03819(13)
H9 H 0.3141 -0.2729 1.0602
C16 C 0.5086(3) -0.15952(15) 0.99146(13)
H10 H 0.6309 -0.2111 0.9810
C17 C 0.5191(3) -0.04791(14) 0.95993(13)
H11 H 0.6501 -0.0227 0.9291
C18 C 0.7005(3) 0.40345(15) 1.01114(12)
C19 C 0.9125(3) 0.35680(18) 1.03959(14)
H12 H 0.9501 0.2810 1.0217
C20 C 1.0683(4) 0.41938(18) 1.09334(14)
H13 H 1.2129 0.3868 1.1110
C21 C 1.0153(4) 0.5288(2) 1.12158(16)
H14 H 1.1210 0.5712 1.1596
C22 C 0.8067(4) 0.57582(17) 1.09375(14)
H15 H 0.7694 0.6513 1.1125
C23 C 0.6513(4) 0.51469(15) 1.03900(13)
H16 H 0.5091 0.5489 1.0201
C24 C 0.3918(3) 0.49352(13) 0.85055(12)
C25 C 0.5796(3) 0.53094(15) 0.80366(14)
H17 H 0.7070 0.4814 0.7968
C26 C 0.5819(4) 0.64095(15) 0.76667(14)
H18 H 0.7084 0.6656 0.7328
C27 C 0.4007(4) 0.71392(15) 0.77924(14)
H19 H 0.4044 0.7897 0.7555
C28 C 0.2134(4) 0.67772(14) 0.82620(14)
H20 H 0.0888 0.7286 0.8345
C29 C 0.2068(3) 0.56741(14) 0.86131(13)
H21 H 0.0765 0.5422 0.8926
N1 N 0.2270(3) 0.30407(12) 0.84372(10)
loop_
_geom_bond_atom_site_label_1
_geom_bond_atom_site_label_2
_geom_bond_site_symmetry_1
_geom_bond_site_symmetry_2
C1 C2 1_555 1_555
C2 C3 1_555 1_555
C3 H1 1_555 1_555
C4 C3 1_555 1_555
C5 C4 1_555 1_555
C6 C1 1_555 1_555
C7 C6 1_555 1_555
H2 C7 1_555 1_555
C8 C7 1_555 1_555
H3 C8 1_555 1_555
C9 C8 1_555 1_555
H4 C9 1_555 1_555
C10 C9 1_555 1_555
H5 C10 1_555 1_555
C11 C6 1_555 1_555
H6 C11 1_555 1_555
C12 C2 1_555 1_555
C13 C12 1_555 1_555
H7 C13 1_555 1_555
C14 C13 1_555 1_555
H8 C14 1_555 1_555
C15 C14 1_555 1_555
H9 C15 1_555 1_555
C16 C15 1_555 1_555
H10 C16 1_555 1_555
C17 C12 1_555 1_555
H11 C17 1_555 1_555
C18 C4 1_555 1_555
C19 C18 1_555 1_555
H12 C19 1_555 1_555
C20 C19 1_555 1_555
H13 C20 1_555 1_555
C21 C20 1_555 1_555
H14 C21 1_555 1_555
C22 C21 1_555 1_555
H15 C22 1_555 1_555
C23 C18 1_555 1_555
H16 C23 1_555 1_555
C24 C5 1_555 1_555
C25 C24 1_555 1_555
H17 C25 1_555 1_555
C26 C25 1_555 1_555
H18 C26 1_555 1_555
C27 C26 1_555 1_555
H19 C27 1_555 1_555
C28 C27 1_555 1_555
H20 C28 1_555 1_555
C29 C24 1_555 1_555
H21 C29 1_555 1_555
N1 C1 1_555 1_555
C5 N1 1_555 1_555
C10 C11 1_555 1_555
C16 C17 1_555 1_555
C22 C23 1_555 1_555
C28 C29 1_555 1_555

#END
