
#######################################################################
#
#                 Cambridge Crystallographic Data Centre
#                                CCDC 
#
#######################################################################
#
# If this CIF has been generated from an entry in the Cambridge 
# Structural Database, then it will include bibliographic, chemical, 
# crystal, experimental, refinement or atomic coordinate data resulting 
# from the CCDC's data processing and validation procedures.
#
#######################################################################

data_QULJAK
_chemical_formula_moiety         'C19 H15 Cl2 N1 O2'
_chemical_name_systematic        3,5-Dichloro-2,6-bis(3-methoxyphenyl)pyridine
_symmetry_cell_setting           orthorhombic
_symmetry_space_group_name_H-M   'P b c n'
_symmetry_Int_Tables_number      60
_space_group_name_Hall           '-P 2n 2ab'
loop_
_symmetry_equiv_pos_site_id
_symmetry_equiv_pos_as_xyz
1 x,y,z
2 1/2+x,1/2-y,-z
3 -x,y,1/2-z
4 1/2-x,1/2-y,1/2+z
5 -x,-y,-z
6 1/2-x,1/2+y,z
7 x,-y,1/2+z
8 1/2+x,1/2+y,1/2-z
_cell_length_a                   17.2042(4)
_cell_length_b                   12.9050(3)
_cell_length_c                   7.5517(2)
_cell_angle_alpha                90
_cell_angle_beta                 90
_cell_angle_gamma                90
_cell_volume                     1676.63
_exptl_crystal_colour            colorless
_exptl_crystal_description       prism
_cell_formula_units_Z            4
loop_
_atom_site_label
_atom_site_type_symbol
_atom_site_fract_x
_atom_site_fract_y
_atom_site_fract_z
C1 C 0.5000 0.58624(13) 0.2500
H1 H 0.5000 0.5126 0.2500
C2 C 0.44720(7) 0.64047(9) 0.35099(16)
C3 C 0.44780(6) 0.74891(9) 0.34888(15)
C4 C 0.39442(7) 0.81421(9) 0.45511(16)
C5 C 0.31405(7) 0.79829(9) 0.44980(15)
H2 H 0.2927 0.7443 0.3794
C6 C 0.26573(7) 0.86225(10) 0.54845(16)
C7 C 0.29669(9) 0.94208(10) 0.65052(18)
H3 H 0.2633 0.9857 0.7175
C8 C 0.37623(8) 0.95751(11) 0.65388(19)
H4 H 0.3974 1.0121 0.7233
C9 C 0.42545(8) 0.89398(10) 0.55674(17)
H5 H 0.4800 0.9049 0.5597
C10 C 0.15173(8) 0.77564(14) 0.44581(19)
H6 H 0.1663 0.7878 0.3221
H7 H 0.0951 0.7794 0.4577
H8 H 0.1697 0.7068 0.4824
Cl1 Cl 0.383756(18) 0.56950(2) 0.48059(5)
N1 N 0.5000 0.79997(11) 0.2500
O1 O 0.18662(5) 0.85223(8) 0.55493(12)
C2B C 0.55280(7) 0.64047(9) 0.14901(16)
C3B C 0.55220(6) 0.74891(9) 0.15112(15)
C4B C 0.60558(7) 0.81421(9) 0.04489(16)
C5B C 0.68595(7) 0.79829(9) 0.05020(15)
H2B H 0.7073 0.7443 0.1206
C6B C 0.73427(7) 0.86225(10) -0.04845(16)
C7B C 0.70331(9) 0.94208(10) -0.15052(18)
H3B H 0.7367 0.9857 -0.2175
C8B C 0.62377(8) 0.95751(11) -0.15388(19)
H4B H 0.6026 1.0121 -0.2233
C9B C 0.57455(8) 0.89398(10) -0.05674(17)
H5B H 0.5200 0.9049 -0.0597
C10B C 0.84827(8) 0.77564(14) 0.05419(19)
H6B H 0.8337 0.7878 0.1779
H7B H 0.9049 0.7794 0.0423
H8B H 0.8303 0.7068 0.0176
Cl1B Cl 0.616244(18) 0.56950(2) 0.01941(5)
O1B O 0.81338(5) 0.85223(8) -0.05493(12)
loop_
_geom_bond_atom_site_label_1
_geom_bond_atom_site_label_2
_geom_bond_site_symmetry_1
_geom_bond_site_symmetry_2
C1 H1 1_555 1_555
C2 C1 1_555 1_555
C3 C2 1_555 1_555
C4 C3 1_555 1_555
C5 C4 1_555 1_555
H2 C5 1_555 1_555
C6 C5 1_555 1_555
C7 C6 1_555 1_555
H3 C7 1_555 1_555
C8 C7 1_555 1_555
H4 C8 1_555 1_555
C9 C4 1_555 1_555
H5 C9 1_555 1_555
C10 H6 1_555 1_555
H7 C10 1_555 1_555
H8 C10 1_555 1_555
Cl1 C2 1_555 1_555
N1 C3 1_555 1_555
O1 C6 1_555 1_555
C2B C1 1_555 1_555
C3B N1 1_555 1_555
C4B C3B 1_555 1_555
C5B C4B 1_555 1_555
H2B C5B 1_555 1_555
C6B C5B 1_555 1_555
C7B C6B 1_555 1_555
H3B C7B 1_555 1_555
C8B C7B 1_555 1_555
H4B C8B 1_555 1_555
C9B C4B 1_555 1_555
H5B C9B 1_555 1_555
C10B H6B 1_555 1_555
H7B C10B 1_555 1_555
H8B C10B 1_555 1_555
Cl1B C2B 1_555 1_555
O1B C6B 1_555 1_555
C8 C9 1_555 1_555
C10 O1 1_555 1_555
C2B C3B 1_555 1_555
C8B C9B 1_555 1_555
C10B O1B 1_555 1_555

#END
