
#######################################################################
#
#                 Cambridge Crystallographic Data Centre
#                                CCDC 
#
#######################################################################
#
# If this CIF has been generated from an entry in the Cambridge 
# Structural Database, then it will include bibliographic, chemical, 
# crystal, experimental, refinement or atomic coordinate data resulting 
# from the CCDC's data processing and validation procedures.
#
#######################################################################

data_QULNOB
_chemical_formula_moiety         'C41 H46 N4 O5,0.5(C1 H2 Cl2)'
_chemical_name_systematic        
'1,17,22,22,31,31-Hexamethyl-6,12-dioxo-5,13-dioxa-36,37,38,39-tetraazaheptacyclo[15.9.9.1^7,11^.1^18,21^.1^23,26^.1^27,30^.1^32,35^]tetraconta-7(40),8,10,18,20,23,25,27,29,32,34-undecaene-20-carbaldehyde dichloromethane solvate'
_symmetry_cell_setting           monoclinic
_symmetry_space_group_name_H-M   'P 21/n'
_symmetry_Int_Tables_number      14
_space_group_name_Hall           '-P 2yn'
loop_
_symmetry_equiv_pos_site_id
_symmetry_equiv_pos_as_xyz
1 x,y,z
2 1/2-x,1/2+y,1/2-z
3 -x,-y,-z
4 1/2+x,1/2-y,1/2+z
_cell_length_a                   11.9830(2)
_cell_length_b                   18.0340(3)
_cell_length_c                   17.3500(4)
_cell_angle_alpha                90
_cell_angle_beta                 92.9830(8)
_cell_angle_gamma                90
_cell_volume                     3744.28
_cell_formula_units_Z            4
_exptl_crystal_recrystallization_method dichloromethane
loop_
_atom_site_label
_atom_site_type_symbol
_atom_site_fract_x
_atom_site_fract_y
_atom_site_fract_z
O1 O 0.66668(13) -0.01151(9) 0.06828(9)
O2 O 0.21863(13) 0.41775(7) 0.09852(8)
O3 O 0.13878(16) 0.47558(8) 0.19612(9)
O4 O 0.07618(14) 0.62649(8) -0.18464(9)
O5 O 0.15285(13) 0.51427(8) -0.16351(8)
N1 N 0.41351(15) 0.17118(10) 0.01186(10)
N2 N 0.16589(15) 0.11509(9) -0.00760(10)
N3 N 0.13426(14) 0.19743(9) -0.17296(10)
N4 N 0.40482(14) 0.23497(10) -0.17580(10)
C1 C 0.51156(17) 0.14801(11) -0.01588(12)
C2 C 0.54707(18) 0.08839(11) 0.03112(13)
C3 C 0.46511(17) 0.07844(11) 0.08734(12)
H1 H 0.4674 0.0420 0.1269
C4 C 0.38371(17) 0.12981(11) 0.07453(12)
C5 C 0.28005(18) 0.14692(11) 0.11704(12)
C6 C 0.17473(17) 0.14795(10) 0.06436(12)
C7 C 0.07283(18) 0.17747(11) 0.07781(13)
H2 H 0.0540 0.2037 0.1228
C8 C -0.00011(18) 0.16218(11) 0.01283(13)
H3 H -0.0764 0.1763 0.0067
C9 C 0.05858(17) 0.12340(10) -0.03977(12)
C10 C 0.02138(17) 0.09237(11) -0.11742(12)
C11 C 0.07494(18) 0.13254(11) -0.18295(12)
C12 C 0.0711(2) 0.11756(14) -0.26022(14)
H4 H 0.0354 0.0762 -0.2847
C13 C 0.1297(2) 0.17452(14) -0.29757(14)
H5 H 0.1398 0.1779 -0.3514
C14 C 0.16897(17) 0.22364(11) -0.24252(11)
C15 C 0.23874(17) 0.29316(10) -0.24785(11)
C16 C 0.32885(17) 0.29236(10) -0.18343(11)
C17 C 0.3542(2) 0.34081(12) -0.12411(13)
H6 H 0.3155 0.3854 -0.1139
C18 C 0.4484(2) 0.31255(12) -0.08067(13)
H7 H 0.4844 0.3353 -0.0367
C19 C 0.47842(17) 0.24639(11) -0.11326(12)
C20 C 0.56148(17) 0.18893(12) -0.08305(12)
C21 C 0.5876(2) 0.13403(13) -0.14748(13)
H8 H 0.5186 0.1092 -0.1660
H9 H 0.6413 0.0970 -0.1273
H10 H 0.6195 0.1609 -0.1902
C22 C 0.66863(19) 0.22830(14) -0.05316(14)
H11 H 0.6510 0.2631 -0.0121
H12 H 0.7008 0.2555 -0.0956
H13 H 0.7225 0.1915 -0.0327
C23 C 0.64298(19) 0.04118(12) 0.02521(14)
H14 H 0.6918 0.0514 -0.0149
C24 C 0.2672(2) 0.08725(12) 0.17937(13)
H15 H 0.2594 0.0384 0.1548
H16 H 0.2005 0.0978 0.2079
H17 H 0.3333 0.0875 0.2151
C25 C 0.2921(2) 0.22312(11) 0.15911(12)
H18 H 0.2315 0.2272 0.1956
H19 H 0.3638 0.2232 0.1901
C26 C 0.28845(19) 0.29255(11) 0.10774(12)
H20 H 0.3650 0.3058 0.0938
H21 H 0.2430 0.2826 0.0596
C27 C 0.2381(2) 0.35553(11) 0.15093(13)
H22 H 0.1666 0.3396 0.1718
H23 H 0.2894 0.3706 0.1947
C28 C 0.16278(19) 0.47417(11) 0.12950(13)
C29 C 0.13070(18) 0.53374(11) 0.07304(12)
C30 C 0.14130(18) 0.52645(11) -0.00586(12)
H24 H 0.1737 0.4830 -0.0261
C31 C 0.10410(18) 0.58320(11) -0.05521(12)
C32 C 0.0584(2) 0.64634(12) -0.02560(14)
H25 H 0.0334 0.6850 -0.0595
C33 C 0.0484(2) 0.65431(12) 0.05336(14)
H26 H 0.0173 0.6983 0.0734
C34 C 0.0839(2) 0.59809(12) 0.10240(14)
H27 H 0.0765 0.6031 0.1564
C35 C 0.10890(18) 0.57785(11) -0.14073(13)
C36 C 0.1558(2) 0.50483(12) -0.24683(12)
H28 H 0.1919 0.5483 -0.2700
H29 H 0.0788 0.5004 -0.2701
C37 C 0.2210(2) 0.43563(11) -0.26216(13)
H30 H 0.2945 0.4390 -0.2335
H31 H 0.2350 0.4337 -0.3179
C38 C 0.16480(18) 0.36302(11) -0.23979(12)
H32 H 0.0954 0.3566 -0.2726
H33 H 0.1433 0.3668 -0.1856
C39 C 0.29146(19) 0.29405(12) -0.32713(12)
H34 H 0.3391 0.2503 -0.3318
H35 H 0.3366 0.3390 -0.3317
H36 H 0.2322 0.2934 -0.3682
C40 C -0.10536(18) 0.10136(13) -0.12869(14)
H37 H -0.1247 0.1541 -0.1266
H38 H -0.1419 0.0747 -0.0877
H39 H -0.1307 0.0810 -0.1790
C41 C 0.0474(2) 0.00906(11) -0.12073(13)
H40 H 0.0122 -0.0163 -0.0783
H41 H 0.1284 0.0016 -0.1158
H42 H 0.0180 -0.0112 -0.1701
H43 H 0.377(2) 0.2087(14) -0.0062(13)
H44 H 0.155(2) 0.2157(13) -0.1253(15)
H45 H 0.405(2) 0.1993(15) -0.2055(15)
H46 H 0.216(2) 0.0903(13) -0.0298(13)
loop_
_geom_bond_atom_site_label_1
_geom_bond_atom_site_label_2
_geom_bond_site_symmetry_1
_geom_bond_site_symmetry_2
O1 C23 1_555 1_555
O2 C27 1_555 1_555
O3 C28 1_555 1_555
O4 C35 1_555 1_555
O5 C35 1_555 1_555
N1 C1 1_555 1_555
N2 C6 1_555 1_555
N3 C11 1_555 1_555
N4 C16 1_555 1_555
C1 C2 1_555 1_555
C2 C3 1_555 1_555
C3 H1 1_555 1_555
C4 N1 1_555 1_555
C5 C4 1_555 1_555
C6 C5 1_555 1_555
C7 C6 1_555 1_555
H2 C7 1_555 1_555
C8 C7 1_555 1_555
H3 C8 1_555 1_555
C9 N2 1_555 1_555
C10 C9 1_555 1_555
C11 C10 1_555 1_555
C12 C11 1_555 1_555
H4 C12 1_555 1_555
C13 C12 1_555 1_555
H5 C13 1_555 1_555
C14 N3 1_555 1_555
C15 C14 1_555 1_555
C16 C15 1_555 1_555
C17 C16 1_555 1_555
H6 C17 1_555 1_555
C18 C17 1_555 1_555
H7 C18 1_555 1_555
C19 N4 1_555 1_555
C20 C1 1_555 1_555
C21 C20 1_555 1_555
H8 C21 1_555 1_555
H9 C21 1_555 1_555
H10 C21 1_555 1_555
C22 C20 1_555 1_555
H11 C22 1_555 1_555
H12 C22 1_555 1_555
H13 C22 1_555 1_555
C23 C2 1_555 1_555
H14 C23 1_555 1_555
C24 C5 1_555 1_555
H15 C24 1_555 1_555
H16 C24 1_555 1_555
H17 C24 1_555 1_555
C25 C5 1_555 1_555
H18 C25 1_555 1_555
H19 C25 1_555 1_555
C26 C25 1_555 1_555
H20 C26 1_555 1_555
H21 C26 1_555 1_555
C27 C26 1_555 1_555
H22 C27 1_555 1_555
H23 C27 1_555 1_555
C28 O2 1_555 1_555
C29 C28 1_555 1_555
C30 C29 1_555 1_555
H24 C30 1_555 1_555
C31 C30 1_555 1_555
C32 C31 1_555 1_555
H25 C32 1_555 1_555
C33 C32 1_555 1_555
H26 C33 1_555 1_555
C34 C29 1_555 1_555
H27 C34 1_555 1_555
C35 C31 1_555 1_555
C36 O5 1_555 1_555
H28 C36 1_555 1_555
H29 C36 1_555 1_555
C37 C36 1_555 1_555
H30 C37 1_555 1_555
H31 C37 1_555 1_555
C38 C15 1_555 1_555
H32 C38 1_555 1_555
H33 C38 1_555 1_555
C39 C15 1_555 1_555
H34 C39 1_555 1_555
H35 C39 1_555 1_555
H36 C39 1_555 1_555
C40 C10 1_555 1_555
H37 C40 1_555 1_555
H38 C40 1_555 1_555
H39 C40 1_555 1_555
C41 C10 1_555 1_555
H40 C41 1_555 1_555
H41 C41 1_555 1_555
H42 C41 1_555 1_555
H43 N1 1_555 1_555
H44 N3 1_555 1_555
H45 N4 1_555 1_555
H46 N2 1_555 1_555
C3 C4 1_555 1_555
C8 C9 1_555 1_555
C13 C14 1_555 1_555
C18 C19 1_555 1_555
C19 C20 1_555 1_555
C33 C34 1_555 1_555
C37 C38 1_555 1_555

#END
