
#######################################################################
#
#                 Cambridge Crystallographic Data Centre
#                                CCDC 
#
#######################################################################
#
# If this CIF has been generated from an entry in the Cambridge 
# Structural Database, then it will include bibliographic, chemical, 
# crystal, experimental, refinement or atomic coordinate data resulting 
# from the CCDC's data processing and validation procedures.
#
#######################################################################

data_QULPAQ
_chemical_formula_moiety         'C64 H38 F6 N4 O4,C6 H14'
_chemical_name_systematic        
"5,13-bis(4-(Diphenylamino)phenyl)-2,9-bis(2,2,2-trifluoroethyl)isoquinolino[4',5',6':6,5,10]anthra[2,1,9-def]isoquinoline-1,3,8,10(2H,9H)-tetrone n-hexane solvate"
_symmetry_cell_setting           triclinic
_symmetry_space_group_name_H-M   'P -1'
_symmetry_Int_Tables_number      2
_space_group_name_Hall           '-P 1'
loop_
_symmetry_equiv_pos_site_id
_symmetry_equiv_pos_as_xyz
1 x,y,z
2 -x,-y,-z
_cell_length_a                   10.2051(11)
_cell_length_b                   15.8059(15)
_cell_length_c                   19.270(2)
_cell_angle_alpha                70.037(18)
_cell_angle_beta                 77.45(2)
_cell_angle_gamma                73.76(2)
_cell_volume                     2779.26
_exptl_crystal_colour            colorless
_exptl_crystal_description       Prism
_cell_formula_units_Z            2
loop_
_atom_site_label
_atom_site_type_symbol
_atom_site_fract_x
_atom_site_fract_y
_atom_site_fract_z
F1 F 0.0619(2) 0.63728(15) 0.23036(12)
F2 F 0.2095(2) 0.65100(14) 0.28832(12)
F3 F 0.0467(2) 0.76821(13) 0.24772(12)
F4 F 0.5518(2) -0.30664(14) 0.41061(12)
F5 F 0.4165(2) -0.30081(14) 0.33675(11)
F6 F 0.4913(2) -0.43085(14) 0.41718(13)
O1 O -0.1944(2) 0.56494(15) 0.32959(14)
O2 O 0.1647(2) 0.53222(15) 0.44946(14)
O3 O 0.4129(2) -0.24700(15) 0.54744(13)
O4 O 0.1213(2) -0.20223(15) 0.38151(14)
N1 N -0.0020(3) 0.54937(18) 0.37990(16)
N2 N 0.4501(3) 0.10902(19) 0.78073(16)
N3 N 0.2773(3) -0.22404(17) 0.45922(15)
N4 N -0.2098(3) 0.29196(19) 0.06800(16)
C1 C 0.0743(4) 0.6757(2) 0.2807(2)
C2 C -0.0165(4) 0.6495(2) 0.3534(2)
H1 H 0.0094 0.6700 0.3906
H2 H -0.1136 0.6805 0.3467
C3 C -0.0968(3) 0.5132(2) 0.3610(2)
C4 C -0.0679(3) 0.4112(2) 0.37796(19)
C5 C -0.1498(3) 0.3722(2) 0.35477(18)
H3 H -0.2310 0.4096 0.3342
C6 C -0.1127(3) 0.2775(2) 0.36164(19)
H4 H -0.1690 0.2518 0.3448
C7 C 0.0043(3) 0.2204(2) 0.39254(18)
C8 C 0.0584(3) 0.1235(2) 0.39094(18)
C9 C 0.0239(3) 0.0898(2) 0.34012(18)
C10 C 0.0622(3) -0.0069(2) 0.35040(19)
H5 H 0.0342 -0.0305 0.3182
C11 C 0.1386(3) -0.0676(2) 0.40551(18)
C12 C 0.1742(3) -0.1680(2) 0.41346(18)
C13 C 0.3289(3) -0.1930(2) 0.50660(19)
C14 C 0.2778(3) -0.0948(2) 0.50343(18)
C15 C 0.3181(3) -0.0617(2) 0.55126(18)
H6 H 0.3722 -0.1040 0.5884
C16 C 0.2818(3) 0.0326(2) 0.54698(18)
C17 C 0.2057(3) 0.0970(2) 0.48942(19)
C18 C 0.1854(3) 0.1992(2) 0.47060(18)
C19 C 0.2680(3) 0.2411(2) 0.49148(18)
H7 H 0.3442 0.2036 0.5168
C20 C 0.2406(3) 0.3377(2) 0.47574(18)
H8 H 0.2995 0.3646 0.4896
C21 C 0.1293(3) 0.3937(2) 0.44038(18)
C22 C 0.1014(3) 0.4951(2) 0.4255(2)
C23 C 0.0458(3) 0.3546(2) 0.41537(18)
C24 C 0.0778(3) 0.2569(2) 0.42704(18)
C25 C 0.1497(3) 0.0633(2) 0.44401(18)
C26 C 0.1875(3) -0.0334(2) 0.45160(18)
C27 C 0.3224(3) -0.3220(2) 0.46388(19)
H9 H 0.2457 -0.3430 0.4559
H10 H 0.3462 -0.3582 0.5144
C28 C 0.4456(4) -0.3401(2) 0.4071(2)
C29 C -0.0435(3) 0.1474(2) 0.27222(19)
C30 C 0.0045(3) 0.2237(2) 0.22074(19)
H11 H 0.0760 0.2427 0.2318
C31 C -0.0497(3) 0.2722(2) 0.15396(19)
H12 H -0.0146 0.3233 0.1204
C32 C -0.1558(3) 0.2459(2) 0.13623(19)
C33 C -0.2047(3) 0.1698(2) 0.18742(19)
H13 H -0.2772 0.1513 0.1768
C34 C -0.1489(3) 0.1217(2) 0.25300(19)
H14 H -0.1827 0.0698 0.2860
C35 C -0.2053(3) 0.3851(2) 0.0251(2)
C36 C -0.2265(4) 0.4530(2) 0.0604(2)
H15 H -0.2411 0.4371 0.1132
C37 C -0.2260(4) 0.5438(3) 0.0176(3)
H16 H -0.2382 0.5894 0.0416
C38 C -0.2079(4) 0.5691(3) -0.0602(3)
H17 H -0.2099 0.6316 -0.0891
C39 C -0.1870(4) 0.5016(3) -0.0944(2)
H18 H -0.1737 0.5179 -0.1473
C40 C -0.1854(4) 0.4103(3) -0.0526(2)
H19 H -0.1706 0.3647 -0.0770
C41 C -0.2739(4) 0.2427(2) 0.03840(19)
C42 C -0.4123(4) 0.2739(3) 0.0286(2)
H20 H -0.4664 0.3269 0.0420
C43 C -0.4708(4) 0.2261(3) -0.0014(2)
H21 H -0.5651 0.2473 -0.0085
C44 C -0.3940(5) 0.1491(3) -0.0206(2)
H22 H -0.4351 0.1174 -0.0409
C45 C -0.2556(5) 0.1173(3) -0.0103(2)
H23 H -0.2023 0.0637 -0.0231
C46 C -0.1963(4) 0.1648(3) 0.0189(2)
H24 H -0.1017 0.1437 0.0255
C47 C 0.3244(3) 0.0566(2) 0.60612(18)
C48 C 0.4608(3) 0.0230(2) 0.62281(18)
H25 H 0.5260 -0.0131 0.5948
C49 C 0.5019(3) 0.0415(2) 0.67912(18)
H26 H 0.5953 0.0195 0.6880
C50 C 0.4083(3) 0.0919(2) 0.72298(19)
C51 C 0.2707(3) 0.1236(2) 0.70845(18)
H27 H 0.2044 0.1567 0.7384
C52 C 0.2310(3) 0.1069(2) 0.65035(18)
H28 H 0.1382 0.1303 0.6406
C53 C 0.5795(3) 0.0566(2) 0.80770(19)
C54 C 0.6008(4) -0.0391(2) 0.83854(19)
H29 H 0.5297 -0.0696 0.8433
C55 C 0.7272(4) -0.0896(3) 0.8622(2)
H30 H 0.7425 -0.1547 0.8836
C56 C 0.8308(4) -0.0445(3) 0.8545(2)
H31 H 0.9174 -0.0792 0.8698
C57 C 0.8092(4) 0.0504(3) 0.8247(2)
H32 H 0.8800 0.0809 0.8203
C58 C 0.6829(4) 0.1008(2) 0.8011(2)
H33 H 0.6676 0.1660 0.7803
C59 C 0.3552(3) 0.1617(2) 0.8265(2)
C60 C 0.3110(4) 0.1164(3) 0.8999(2)
H34 H 0.3435 0.0516 0.9198
C61 C 0.2191(4) 0.1664(3) 0.9439(2)
H35 H 0.1888 0.1356 0.9941
C62 C 0.1712(4) 0.2601(3) 0.9157(2)
H36 H 0.1077 0.2934 0.9464
C63 C 0.2152(4) 0.3059(3) 0.8429(2)
H37 H 0.1823 0.3707 0.8234
C64 C 0.3083(4) 0.2561(2) 0.7983(2)
H38 H 0.3396 0.2872 0.7483
C65 C 0.4802(5) 0.5765(3) 0.1683(2)
H39 H 0.4878 0.5425 0.1330
H40 H 0.5354 0.6234 0.1464
H41 H 0.3835 0.6067 0.1793
C66 C 0.5318(5) 0.5108(3) 0.2389(3)
H42 H 0.5288 0.5465 0.2727
H43 H 0.6293 0.4808 0.2269
C67 C 0.4516(6) 0.4360(3) 0.2799(3)
H44 H 0.4809 0.4045 0.3299
H45 H 0.3526 0.4659 0.2871
C68 C 0.4683(5) 0.3640(3) 0.2416(3)
H46 H 0.5658 0.3299 0.2382
H47 H 0.4456 0.3953 0.1902
C69 C 0.3771(6) 0.2951(3) 0.2819(3)
H48 H 0.3986 0.2660 0.3337
H49 H 0.2801 0.3301 0.2846
C70 C 0.3880(5) 0.2221(3) 0.2499(3)
H50 H 0.3634 0.2494 0.1992
H51 H 0.3253 0.1824 0.2806
H52 H 0.4828 0.1853 0.2483
loop_
_geom_bond_atom_site_label_1
_geom_bond_atom_site_label_2
_geom_bond_site_symmetry_1
_geom_bond_site_symmetry_2
F1 C1 1_555 1_555
F2 C1 1_555 1_555
F3 C1 1_555 1_555
F4 C28 1_555 1_555
F5 C28 1_555 1_555
F6 C28 1_555 1_555
O1 C3 1_555 1_555
O2 C22 1_555 1_555
O3 C13 1_555 1_555
O4 C12 1_555 1_555
N1 C2 1_555 1_555
N2 C50 1_555 1_555
N3 C12 1_555 1_555
N4 C32 1_555 1_555
C1 C2 1_555 1_555
C2 H1 1_555 1_555
H2 C2 1_555 1_555
C3 N1 1_555 1_555
C4 C3 1_555 1_555
C5 C4 1_555 1_555
H3 C5 1_555 1_555
C6 C5 1_555 1_555
H4 C6 1_555 1_555
C7 C6 1_555 1_555
C8 C7 1_555 1_555
C9 C8 1_555 1_555
C10 C9 1_555 1_555
H5 C10 1_555 1_555
C11 C10 1_555 1_555
C12 C11 1_555 1_555
C13 N3 1_555 1_555
C14 C13 1_555 1_555
C15 C14 1_555 1_555
H6 C15 1_555 1_555
C16 C15 1_555 1_555
C17 C16 1_555 1_555
C18 C17 1_555 1_555
C19 C18 1_555 1_555
H7 C19 1_555 1_555
C20 C19 1_555 1_555
H8 C20 1_555 1_555
C21 C20 1_555 1_555
C22 N1 1_555 1_555
C23 C4 1_555 1_555
C24 C7 1_555 1_555
C25 C8 1_555 1_555
C26 C11 1_555 1_555
C27 N3 1_555 1_555
H9 C27 1_555 1_555
H10 C27 1_555 1_555
C28 C27 1_555 1_555
C29 C9 1_555 1_555
C30 C29 1_555 1_555
H11 C30 1_555 1_555
C31 C30 1_555 1_555
H12 C31 1_555 1_555
C32 C31 1_555 1_555
C33 C32 1_555 1_555
H13 C33 1_555 1_555
C34 C29 1_555 1_555
H14 C34 1_555 1_555
C35 N4 1_555 1_555
C36 C35 1_555 1_555
H15 C36 1_555 1_555
C37 C36 1_555 1_555
H16 C37 1_555 1_555
C38 C37 1_555 1_555
H17 C38 1_555 1_555
C39 C38 1_555 1_555
H18 C39 1_555 1_555
C40 C35 1_555 1_555
H19 C40 1_555 1_555
C41 N4 1_555 1_555
C42 C41 1_555 1_555
H20 C42 1_555 1_555
C43 C42 1_555 1_555
H21 C43 1_555 1_555
C44 C43 1_555 1_555
H22 C44 1_555 1_555
C45 C44 1_555 1_555
H23 C45 1_555 1_555
C46 C41 1_555 1_555
H24 C46 1_555 1_555
C47 C16 1_555 1_555
C48 C47 1_555 1_555
H25 C48 1_555 1_555
C49 C48 1_555 1_555
H26 C49 1_555 1_555
C50 C49 1_555 1_555
C51 C50 1_555 1_555
H27 C51 1_555 1_555
C52 C47 1_555 1_555
H28 C52 1_555 1_555
C53 N2 1_555 1_555
C54 C53 1_555 1_555
H29 C54 1_555 1_555
C55 C54 1_555 1_555
H30 C55 1_555 1_555
C56 C55 1_555 1_555
H31 C56 1_555 1_555
C57 C56 1_555 1_555
H32 C57 1_555 1_555
C58 C53 1_555 1_555
H33 C58 1_555 1_555
C59 N2 1_555 1_555
C60 C59 1_555 1_555
H34 C60 1_555 1_555
C61 C60 1_555 1_555
H35 C61 1_555 1_555
C62 C61 1_555 1_555
H36 C62 1_555 1_555
C63 C62 1_555 1_555
H37 C63 1_555 1_555
C64 C59 1_555 1_555
H38 C64 1_555 1_555
C65 H39 1_555 1_555
H40 C65 1_555 1_555
H41 C65 1_555 1_555
C66 C65 1_555 1_555
H42 C66 1_555 1_555
H43 C66 1_555 1_555
C67 C66 1_555 1_555
H44 C67 1_555 1_555
H45 C67 1_555 1_555
C68 C67 1_555 1_555
H46 C68 1_555 1_555
H47 C68 1_555 1_555
C69 C68 1_555 1_555
H48 C69 1_555 1_555
H49 C69 1_555 1_555
C70 C69 1_555 1_555
H50 C70 1_555 1_555
H51 C70 1_555 1_555
H52 C70 1_555 1_555
C14 C26 1_555 1_555
C17 C25 1_555 1_555
C18 C24 1_555 1_555
C21 C22 1_555 1_555
C21 C23 1_555 1_555
C23 C24 1_555 1_555
C25 C26 1_555 1_555
C33 C34 1_555 1_555
C39 C40 1_555 1_555
C45 C46 1_555 1_555
C51 C52 1_555 1_555
C57 C58 1_555 1_555
C63 C64 1_555 1_555

#END
