
#######################################################################
#
#                 Cambridge Crystallographic Data Centre
#                                CCDC 
#
#######################################################################
#
# If this CIF has been generated from an entry in the Cambridge 
# Structural Database, then it will include bibliographic, chemical, 
# crystal, experimental, refinement or atomic coordinate data resulting 
# from the CCDC's data processing and validation procedures.
#
#######################################################################

data_QULQOE
_chemical_formula_moiety         'C10 H11 Cl1 N4 O1'
_chemical_name_systematic        
1-(1-((6-Chloropyridin-3-yl)methyl)-4,5-dihydro-1H-imidazol-2-yl)-N-hydroxymethanimine
_symmetry_cell_setting           monoclinic
_symmetry_space_group_name_H-M   'P 21/c'
_symmetry_Int_Tables_number      14
_space_group_name_Hall           '-P 2ybc'
loop_
_symmetry_equiv_pos_site_id
_symmetry_equiv_pos_as_xyz
1 x,y,z
2 -x,1/2+y,1/2-z
3 -x,-y,-z
4 x,1/2-y,1/2+z
_cell_length_a                   11.3228(17)
_cell_length_b                   9.0996(14)
_cell_length_c                   10.9721(17)
_cell_angle_alpha                90
_cell_angle_beta                 97.268(2)
_cell_angle_gamma                90
_cell_volume                     1121.4
_chemical_melting_point          '142.5-143.8 deg.C'
_cell_formula_units_Z            4
loop_
_atom_site_label
_atom_site_type_symbol
_atom_site_fract_x
_atom_site_fract_y
_atom_site_fract_z
Cl1 Cl 0.07253(4) 0.25207(7) 0.65028(5)
N1 N -0.50395(11) 0.02764(13) 0.74597(11)
C1 C -0.33126(13) 0.16544(16) 0.94283(14)
H1 H -0.3211 0.2268 1.0157
H2 H -0.4056 0.1934 0.8945
N2 N -0.33930(11) 0.01299(13) 0.98008(11)
O1 O -0.59068(11) 0.00852(12) 0.64790(11)
H3 H -0.6001 0.0854 0.6089
C2 C -0.22990(13) 0.19514(15) 0.86835(13)
N3 N -0.11978(13) 0.12438(17) 0.70372(13)
C3 C -0.48603(14) -0.08846(16) 0.80922(14)
H4 H -0.5317 -0.1709 0.7851
C4 C -0.39756(12) -0.10026(15) 0.91819(13)
N4 N -0.37374(13) -0.22991(14) 0.96366(12)
C5 C -0.15245(14) 0.31173(17) 0.89494(14)
H5 H -0.1634 0.3759 0.9585
C6 C -0.05918(15) 0.33312(19) 0.82761(15)
H6 H -0.0063 0.4109 0.8442
C7 C -0.28684(16) -0.21056(19) 1.07409(15)
H7 H -0.2186 -0.2743 1.0710
H8 H -0.3227 -0.2331 1.1476
C8 C -0.04759(14) 0.23490(19) 0.73517(15)
C9 C -0.20996(15) 0.10638(18) 0.77086(15)
H9 H -0.2625 0.0291 0.7504
C10 C -0.24959(15) -0.04912(18) 1.07342(15)
H10 H -0.2526 -0.0036 1.1529
H11 H -0.1701 -0.0383 1.0505
loop_
_geom_bond_atom_site_label_1
_geom_bond_atom_site_label_2
_geom_bond_site_symmetry_1
_geom_bond_site_symmetry_2
Cl1 C8 1_555 1_555
N1 O1 1_555 1_555
C1 H1 1_555 1_555
H2 C1 1_555 1_555
N2 C1 1_555 1_555
O1 H3 1_555 1_555
C2 C1 1_555 1_555
N3 C8 1_555 1_555
C3 N1 1_555 1_555
H4 C3 1_555 1_555
C4 N2 1_555 1_555
N4 C4 1_555 1_555
C5 C2 1_555 1_555
H5 C5 1_555 1_555
C6 C5 1_555 1_555
H6 C6 1_555 1_555
C7 N4 1_555 1_555
H7 C7 1_555 1_555
H8 C7 1_555 1_555
C8 C6 1_555 1_555
C9 C2 1_555 1_555
H9 C9 1_555 1_555
C10 N2 1_555 1_555
H10 C10 1_555 1_555
H11 C10 1_555 1_555
N3 C9 1_555 1_555
C3 C4 1_555 1_555
C7 C10 1_555 1_555

#END
