
#######################################################################
#
#                 Cambridge Crystallographic Data Centre
#                                CCDC 
#
#######################################################################
#
# If this CIF has been generated from an entry in the Cambridge 
# Structural Database, then it will include bibliographic, chemical, 
# crystal, experimental, refinement or atomic coordinate data resulting 
# from the CCDC's data processing and validation procedures.
#
#######################################################################

data_QULQUL
_chemical_formula_moiety         'C32 H48 O5'
_chemical_name_systematic        '3-acetoxy-12-oxolanosta-7,24-dien-26-oic acid'
_symmetry_cell_setting           monoclinic
_symmetry_space_group_name_H-M   'P 21'
_symmetry_Int_Tables_number      4
_space_group_name_Hall           'P 2yb'
loop_
_symmetry_equiv_pos_site_id
_symmetry_equiv_pos_as_xyz
1 x,y,z
2 -x,1/2+y,-z
_cell_length_a                   7.33310(10)
_cell_length_b                   10.1624(2)
_cell_length_c                   19.3573(3)
_cell_angle_alpha                90
_cell_angle_beta                 97.23
_cell_angle_gamma                90
_cell_volume                     1431.07
_exptl_crystal_colour            colorless
_exptl_crystal_description       prism
_cell_formula_units_Z            2
loop_
_atom_site_label
_atom_site_type_symbol
_atom_site_fract_x
_atom_site_fract_y
_atom_site_fract_z
O1 O 0.9460(4) 0.4979(4) -0.40542(14)
O2 O 0.6966(4) 0.3565(3) 0.40486(12)
O3 O 0.7055(4) 0.4111(4) -0.36257(11)
H1 H 0.6765 0.3897 -0.4044
O4 O 0.5077(4) 0.3181(3) 0.06635(12)
O5 O 0.5729(3) 0.3368(3) 0.50489(13)
C1 C 0.8639(5) 0.4759(5) -0.35595(18)
C2 C 0.9339(5) 0.5209(4) -0.28465(19)
C3 C 0.8506(5) 0.4992(5) -0.22800(18)
H2 H 0.9068 0.5422 -0.1872
C4 C 0.6836(6) 0.4187(5) -0.21726(18)
H3 H 0.6670 0.3474 -0.2524
H4 H 0.5729 0.4753 -0.2237
C5 C 0.7051(5) 0.3591(4) -0.14426(18)
H5 H 0.8316 0.3244 -0.1337
H6 H 0.6196 0.2837 -0.1442
C6 C 0.6684(5) 0.4549(4) -0.08562(17)
H7 H 0.7114 0.5441 -0.0982
C7 C 0.7890(5) 0.4111(4) -0.01770(16)
H8 H 0.7767 0.3135 -0.0137
C8 C 0.7533(5) 0.4722(4) 0.05302(16)
C9 C 0.9424(4) 0.4486(4) 0.09982(17)
C10 C 0.9474(5) 0.5109(4) 0.17213(17)
C11 C 1.1039(5) 0.5205(5) 0.21398(17)
H9 H 1.2154 0.5125 0.1941
C12 C 1.1158(5) 0.5431(5) 0.29094(17)
H10 H 1.1447 0.6367 0.3014
H11 H 1.2159 0.4888 0.3154
C13 C 0.9337(4) 0.5072(4) 0.31685(16)
H12 H 0.9126 0.4126 0.3039
C14 C 0.9451(5) 0.5107(4) 0.39790(17)
C15 C 0.7539(5) 0.4932(4) 0.42062(17)
H13 H 0.7605 0.5089 0.4719
C16 C 0.6103(4) 0.2916(4) 0.45058(17)
C17 C 0.5604(7) 0.1548(5) 0.4262(2)
H14 H 0.4989 0.1094 0.4615
H15 H 0.6721 0.1067 0.4188
H16 H 0.4776 0.1589 0.3824
C18 C 1.1134(6) 0.5944(5) -0.2803(2)
H17 H 1.1519 0.6208 -0.2320
H18 H 1.0977 0.6728 -0.3099
H19 H 1.2074 0.5372 -0.2963
C19 C 0.9802(5) 0.2985(5) 0.11123(18)
H20 H 1.1035 0.2860 0.1364
H21 H 0.9721 0.2541 0.0660
H22 H 0.8888 0.2611 0.1384
C20 C 1.0764(4) 0.4976(5) 0.05057(17)
H23 H 1.2019 0.4634 0.0648
H24 H 1.0806 0.5950 0.0497
C21 C 0.9960(5) 0.4422(4) -0.02090(17)
H25 H 1.0622 0.3612 -0.0313
H26 H 1.0086 0.5075 -0.0579
C22 C 0.7742(4) 0.5831(4) 0.27389(17)
C23 C 0.8107(5) 0.7325(4) 0.27397(18)
H27 H 0.7024 0.7780 0.2505
H28 H 0.9169 0.7506 0.2493
H29 H 0.8362 0.7638 0.3221
C24 C 0.7615(4) 0.5404(4) 0.19523(15)
H30 H 0.7167 0.6205 0.1683
C25 C 0.6252(4) 0.4334(4) 0.16999(16)
H31 H 0.5017 0.4609 0.1800
H32 H 0.6584 0.3524 0.1970
C26 C 0.6144(5) 0.4007(4) 0.09224(16)
C27 C 0.5945(4) 0.5579(4) 0.30347(16)
H33 H 0.5560 0.4658 0.2934
H34 H 0.4983 0.6162 0.2795
C28 C 0.6073(5) 0.5814(5) 0.38219(17)
H35 H 0.6382 0.6747 0.3926
H36 H 0.4870 0.5626 0.3982
C29 C 1.0716(6) 0.4006(5) 0.42963(18)
H37 H 1.0651 0.3956 0.4798
H38 H 1.1983 0.4193 0.4216
H39 H 1.0324 0.3166 0.4078
C30 C 1.0222(5) 0.6409(5) 0.43158(18)
H40 H 0.9489 0.7150 0.4111
H41 H 1.1503 0.6519 0.4231
H42 H 1.0162 0.6381 0.4818
C31 C 0.7086(5) 0.6198(4) 0.04504(17)
H43 H 0.5847 0.6361 0.0570
H44 H 0.7146 0.6467 -0.0032
H45 H 0.7980 0.6705 0.0762
C32 C 0.4637(5) 0.4642(4) -0.08086(18)
H46 H 0.3983 0.4854 -0.1268
H47 H 0.4413 0.5334 -0.0477
H48 H 0.4195 0.3798 -0.0650
loop_
_geom_bond_atom_site_label_1
_geom_bond_atom_site_label_2
_geom_bond_site_symmetry_1
_geom_bond_site_symmetry_2
O1 C1 1_555 1_555
O2 C15 1_555 1_555
O3 H1 1_555 1_555
O4 C26 1_555 1_555
O5 C16 1_555 1_555
C1 O3 1_555 1_555
C2 C1 1_555 1_555
C3 C2 1_555 1_555
H2 C3 1_555 1_555
C4 C3 1_555 1_555
H3 C4 1_555 1_555
H4 C4 1_555 1_555
C5 C4 1_555 1_555
H5 C5 1_555 1_555
H6 C5 1_555 1_555
C6 C5 1_555 1_555
H7 C6 1_555 1_555
C7 C6 1_555 1_555
H8 C7 1_555 1_555
C8 C7 1_555 1_555
C9 C8 1_555 1_555
C10 C9 1_555 1_555
C11 C10 1_555 1_555
H9 C11 1_555 1_555
C12 C11 1_555 1_555
H10 C12 1_555 1_555
H11 C12 1_555 1_555
C13 C12 1_555 1_555
H12 C13 1_555 1_555
C14 C13 1_555 1_555
C15 C14 1_555 1_555
H13 C15 1_555 1_555
C16 O2 1_555 1_555
C17 C16 1_555 1_555
H14 C17 1_555 1_555
H15 C17 1_555 1_555
H16 C17 1_555 1_555
C18 C2 1_555 1_555
H17 C18 1_555 1_555
H18 C18 1_555 1_555
H19 C18 1_555 1_555
C19 C9 1_555 1_555
H20 C19 1_555 1_555
H21 C19 1_555 1_555
H22 C19 1_555 1_555
C20 C9 1_555 1_555
H23 C20 1_555 1_555
H24 C20 1_555 1_555
C21 C7 1_555 1_555
H25 C21 1_555 1_555
H26 C21 1_555 1_555
C22 C13 1_555 1_555
C23 C22 1_555 1_555
H27 C23 1_555 1_555
H28 C23 1_555 1_555
H29 C23 1_555 1_555
C24 C10 1_555 1_555
H30 C24 1_555 1_555
C25 C24 1_555 1_555
H31 C25 1_555 1_555
H32 C25 1_555 1_555
C26 C8 1_555 1_555
C27 C22 1_555 1_555
H33 C27 1_555 1_555
H34 C27 1_555 1_555
C28 C15 1_555 1_555
H35 C28 1_555 1_555
H36 C28 1_555 1_555
C29 C14 1_555 1_555
H37 C29 1_555 1_555
H38 C29 1_555 1_555
H39 C29 1_555 1_555
C30 C14 1_555 1_555
H40 C30 1_555 1_555
H41 C30 1_555 1_555
H42 C30 1_555 1_555
C31 C8 1_555 1_555
H43 C31 1_555 1_555
H44 C31 1_555 1_555
H45 C31 1_555 1_555
C32 C6 1_555 1_555
H46 C32 1_555 1_555
H47 C32 1_555 1_555
H48 C32 1_555 1_555
C20 C21 1_555 1_555
C22 C24 1_555 1_555
C25 C26 1_555 1_555
C27 C28 1_555 1_555

#END
