
#######################################################################
#
#                 Cambridge Crystallographic Data Centre
#                                CCDC 
#
#######################################################################
#
# If this CIF has been generated from an entry in the Cambridge 
# Structural Database, then it will include bibliographic, chemical, 
# crystal, experimental, refinement or atomic coordinate data resulting 
# from the CCDC's data processing and validation procedures.
#
#######################################################################

data_QULRAS
_chemical_formula_moiety         'C29 H44 O4'
_chemical_name_systematic        
1-(3-(2-(3-hydroxy-4,4,10,12,14-pentamethyl-13,17-epoxygon-7-en-17-yl)propyl)oxiran-2-yl)ethanone
_symmetry_cell_setting           orthorhombic
_symmetry_space_group_name_H-M   'P 21 21 21'
_symmetry_Int_Tables_number      19
_space_group_name_Hall           'P 2ac 2ab'
loop_
_symmetry_equiv_pos_site_id
_symmetry_equiv_pos_as_xyz
1 x,y,z
2 1/2+x,1/2-y,-z
3 -x,1/2+y,1/2-z
4 1/2-x,-y,1/2+z
_cell_length_a                   7.3491(2)
_cell_length_b                   11.3041(4)
_cell_length_c                   30.6417(11)
_cell_angle_alpha                90
_cell_angle_beta                 90
_cell_angle_gamma                90
_cell_volume                     2545.56
_exptl_crystal_colour            colorless
_exptl_crystal_description       sheet
_cell_formula_units_Z            4
loop_
_atom_site_label
_atom_site_type_symbol
_atom_site_fract_x
_atom_site_fract_y
_atom_site_fract_z
O1 O 0.76174(18) 0.97856(12) 0.56083(4)
H1 H 0.8215 1.0234 0.5443
O2 O 0.59871(15) 0.76761(10) 0.78188(3)
O3 O 0.0771(2) 0.66886(13) 0.99280(5)
O4 O 0.16784(17) 0.86325(12) 0.90240(4)
C1 C 0.8205(2) 0.85919(17) 0.55477(6)
H2 H 0.8363 0.8448 0.5228
C2 C 0.6680(2) 0.78061(18) 0.57121(5)
H3 H 0.6972 0.6969 0.5648
H4 H 0.5538 0.8008 0.5558
C3 C 0.6405(2) 0.79577(16) 0.62034(5)
H5 H 0.5387 0.7446 0.6300
H6 H 0.6064 0.8788 0.6265
C4 C 0.8120(2) 0.76416(15) 0.64664(5)
C5 C 0.7862(2) 0.79613(15) 0.69571(5)
H7 H 0.7052 0.7336 0.7082
C6 C 0.9638(2) 0.78894(15) 0.72092(5)
C7 C 0.9379(2) 0.79036(15) 0.77015(5)
C8 C 0.7547(2) 0.84873(15) 0.78078(5)
C9 C 0.6871(2) 0.79957(15) 0.82247(5)
C10 C 0.5732(2) 0.86116(15) 0.85680(5)
H8 H 0.4834 0.9133 0.8416
C11 C 0.4671(2) 0.76807(16) 0.88300(5)
H9 H 0.3948 0.7194 0.8625
H10 H 0.5550 0.7151 0.8977
C12 C 0.3415(2) 0.81947(16) 0.91668(5)
H11 H 0.4007 0.8642 0.9410
C13 C 0.1716(2) 0.75648(16) 0.92784(5)
H12 H 0.1482 0.6814 0.9115
C14 C 0.0992(2) 0.76147(17) 0.97314(6)
C15 C 0.0594(3) 0.87985(18) 0.99277(6)
H13 H -0.0504 0.9129 0.9793
H14 H 0.1624 0.9331 0.9876
H15 H 0.0402 0.8711 1.0243
C16 C 1.0040(2) 0.83364(17) 0.57788(5)
C17 C 1.1394(2) 0.93179(18) 0.56525(6)
H16 H 1.2611 0.9110 0.5758
H17 H 1.1010 1.0067 0.5784
H18 H 1.1422 0.9401 0.5334
C18 C 0.9775(2) 0.83443(15) 0.62853(5)
H19 H 0.9537 0.9189 0.6364
C19 C 1.1514(2) 0.80071(16) 0.65309(5)
H20 H 1.1953 0.7235 0.6421
H21 H 1.2465 0.8604 0.6469
C20 C 1.1247(2) 0.79256(16) 0.70157(5)
H22 H 1.2301 0.7898 0.7195
C21 C 0.8404(2) 0.62939(16) 0.64556(6)
H23 H 0.7367 0.5902 0.6595
H24 H 0.9523 0.6093 0.6613
H25 H 0.8504 0.6029 0.6152
C22 C 0.6934(2) 0.91670(15) 0.70620(5)
H26 H 0.5614 0.9097 0.7003
H27 H 0.7429 0.9778 0.6863
C23 C 0.7207(2) 0.95869(15) 0.75437(5)
H28 H 0.8338 1.0078 0.7554
C24 C 0.9202(2) 0.66964(16) 0.79324(5)
H29 H 1.0414 0.6364 0.8002
H30 H 0.8528 0.6125 0.7748
C25 C 0.8135(2) 0.69825(15) 0.83528(5)
H31 H 0.7428 0.6287 0.8452
H32 H 0.8970 0.7228 0.8590
C26 C 0.6938(3) 0.93905(19) 0.88578(6)
H33 H 0.7739 0.8888 0.9034
H34 H 0.6170 0.9869 0.9051
H35 H 0.7677 0.9913 0.8674
C27 C 1.0888(2) 0.86156(17) 0.79279(5)
H36 H 1.2059 0.8217 0.7885
H37 H 1.0625 0.8672 0.8241
H38 H 1.0943 0.9412 0.7802
C28 C 0.5631(2) 1.03648(16) 0.76888(6)
H39 H 0.4509 0.9896 0.7695
H40 H 0.5489 1.1024 0.7484
H41 H 0.5878 1.0675 0.7981
C29 C 1.0809(3) 0.71765(18) 0.55888(6)
H42 H 1.0980 0.7264 0.5273
H43 H 0.9954 0.6529 0.5646
H44 H 1.1980 0.6999 0.5727
loop_
_geom_bond_atom_site_label_1
_geom_bond_atom_site_label_2
_geom_bond_site_symmetry_1
_geom_bond_site_symmetry_2
O1 H1 1_555 1_555
O2 C8 1_555 1_555
O3 C14 1_555 1_555
O4 C12 1_555 1_555
C1 O1 1_555 1_555
H2 C1 1_555 1_555
C2 C1 1_555 1_555
H3 C2 1_555 1_555
H4 C2 1_555 1_555
C3 C2 1_555 1_555
H5 C3 1_555 1_555
H6 C3 1_555 1_555
C4 C3 1_555 1_555
C5 C4 1_555 1_555
H7 C5 1_555 1_555
C6 C5 1_555 1_555
C7 C6 1_555 1_555
C8 C7 1_555 1_555
C9 O2 1_555 1_555
C10 C9 1_555 1_555
H8 C10 1_555 1_555
C11 C10 1_555 1_555
H9 C11 1_555 1_555
H10 C11 1_555 1_555
C12 C11 1_555 1_555
H11 C12 1_555 1_555
C13 O4 1_555 1_555
H12 C13 1_555 1_555
C14 C13 1_555 1_555
C15 C14 1_555 1_555
H13 C15 1_555 1_555
H14 C15 1_555 1_555
H15 C15 1_555 1_555
C16 C1 1_555 1_555
C17 C16 1_555 1_555
H16 C17 1_555 1_555
H17 C17 1_555 1_555
H18 C17 1_555 1_555
C18 C4 1_555 1_555
H19 C18 1_555 1_555
C19 C18 1_555 1_555
H20 C19 1_555 1_555
H21 C19 1_555 1_555
C20 C6 1_555 1_555
H22 C20 1_555 1_555
C21 C4 1_555 1_555
H23 C21 1_555 1_555
H24 C21 1_555 1_555
H25 C21 1_555 1_555
C22 C5 1_555 1_555
H26 C22 1_555 1_555
H27 C22 1_555 1_555
C23 C8 1_555 1_555
H28 C23 1_555 1_555
C24 C7 1_555 1_555
H29 C24 1_555 1_555
H30 C24 1_555 1_555
C25 C9 1_555 1_555
H31 C25 1_555 1_555
H32 C25 1_555 1_555
C26 C10 1_555 1_555
H33 C26 1_555 1_555
H34 C26 1_555 1_555
H35 C26 1_555 1_555
C27 C7 1_555 1_555
H36 C27 1_555 1_555
H37 C27 1_555 1_555
H38 C27 1_555 1_555
C28 C23 1_555 1_555
H39 C28 1_555 1_555
H40 C28 1_555 1_555
H41 C28 1_555 1_555
C29 C16 1_555 1_555
H42 C29 1_555 1_555
H43 C29 1_555 1_555
H44 C29 1_555 1_555
C8 C9 1_555 1_555
C12 C13 1_555 1_555
C16 C18 1_555 1_555
C19 C20 1_555 1_555
C22 C23 1_555 1_555
C24 C25 1_555 1_555

#END
