
#######################################################################
#
#                 Cambridge Crystallographic Data Centre
#                                CCDC 
#
#######################################################################
#
# If this CIF has been generated from an entry in the Cambridge 
# Structural Database, then it will include bibliographic, chemical, 
# crystal, experimental, refinement or atomic coordinate data resulting 
# from the CCDC's data processing and validation procedures.
#
#######################################################################

data_QUMBOR
_chemical_formula_moiety         'C22 H12 O2 S1'
_chemical_name_systematic        'Benzo[b]pyreno[1,2-d]thiophene 7,7-dioxide'
_symmetry_cell_setting           triclinic
_symmetry_space_group_name_H-M   'P -1'
_symmetry_Int_Tables_number      2
_space_group_name_Hall           '-P 1'
loop_
_symmetry_equiv_pos_site_id
_symmetry_equiv_pos_as_xyz
1 x,y,z
2 -x,-y,-z
_cell_length_a                   7.6651(4)
_cell_length_b                   12.0971(6)
_cell_length_c                   17.2620(8)
_cell_angle_alpha                70.254(3)
_cell_angle_beta                 85.848(4)
_cell_angle_gamma                84.122(4)
_cell_volume                     1497.37
_exptl_crystal_colour            'pale yellow'
_exptl_crystal_description       needle
_cell_formula_units_Z            4
_exptl_crystal_recrystallization_method dichloromethane
_exptl_crystal_preparation       Luminescent
loop_
_atom_site_label
_atom_site_type_symbol
_atom_site_fract_x
_atom_site_fract_y
_atom_site_fract_z
S1 S 0.0677(2) 0.58267(13) 0.14201(9)
O1 O -0.0932(5) 0.5978(4) 0.0994(2)
O2 O 0.1783(6) 0.6789(3) 0.1145(2)
C1 C 0.6110(9) -0.1035(6) 0.1891(5)
H1 H 0.6643 -0.1784 0.1951
C2 C 0.5399(9) -0.0794(6) 0.2564(5)
H2 H 0.5475 -0.1375 0.3079
C3 C 0.4561(8) 0.0299(5) 0.2498(4)
C4 C 0.3794(8) 0.0574(5) 0.3210(4)
H3 H 0.3902 0.0008 0.3730
C5 C 0.2933(7) 0.1622(5) 0.3138(3)
H4 H 0.2411 0.1751 0.3606
C6 C 0.2790(7) 0.2559(5) 0.2353(3)
C7 C 0.1906(7) 0.3674(5) 0.2250(3)
C8 C 0.0968(7) 0.4170(5) 0.2862(3)
C9 C 0.0665(8) 0.3681(6) 0.3714(4)
H5 H 0.1071 0.2905 0.3992
C10 C -0.0254(9) 0.4367(7) 0.4146(4)
H6 H -0.0458 0.4033 0.4712
C11 C -0.0868(8) 0.5529(7) 0.3754(4)
H7 H -0.1448 0.5973 0.4056
C12 C -0.0611(8) 0.6015(6) 0.2918(4)
H8 H -0.1033 0.6788 0.2643
C13 C 0.0281(7) 0.5340(5) 0.2494(3)
C14 C 0.1882(7) 0.4492(5) 0.1459(3)
C15 C 0.2633(8) 0.4305(5) 0.0766(3)
H9 H 0.2552 0.4894 0.0254
C16 C 0.3536(7) 0.3193(5) 0.0844(3)
C17 C 0.4348(7) 0.2910(5) 0.0164(3)
H10 H 0.4305 0.3486 -0.0354
C18 C 0.5183(7) 0.1842(6) 0.0231(4)
H11 H 0.5716 0.1698 -0.0231
C19 C 0.5233(7) 0.0946(5) 0.1015(4)
C20 C 0.4458(7) 0.1182(5) 0.1722(3)
C21 C 0.3581(7) 0.2314(5) 0.1645(3)
C22 C 0.6058(8) -0.0187(6) 0.1116(5)
H12 H 0.6567 -0.0365 0.0662
S2 S 0.5654(2) 0.25848(14) 0.46846(9)
O3 O 0.6730(5) 0.2703(4) 0.5297(2)
O4 O 0.4058(5) 0.2028(4) 0.4982(2)
C23 C 1.1109(8) -0.0222(6) 0.1049(4)
H13 H 1.1646 -0.0533 0.0659
C24 C 1.0368(8) 0.0929(5) 0.0805(3)
H14 H 1.0416 0.1391 0.0251
C25 C 0.9548(8) 0.1400(5) 0.1388(3)
C26 C 0.8760(7) 0.2555(5) 0.1175(3)
H15 H 0.8813 0.3033 0.0626
C27 C 0.7921(7) 0.3010(5) 0.1737(3)
H16 H 0.7425 0.3784 0.1559
C28 C 0.7782(7) 0.2328(5) 0.2594(3)
C29 C 0.6900(6) 0.2729(4) 0.3196(3)
C30 C 0.5966(7) 0.3892(5) 0.3142(3)
C31 C 0.5689(8) 0.4922(5) 0.2467(4)
H17 H 0.6118 0.4943 0.1945
C32 C 0.4775(8) 0.5909(5) 0.2576(4)
H18 H 0.4595 0.6582 0.2118
C33 C 0.4129(8) 0.5938(5) 0.3325(4)
H19 H 0.3552 0.6625 0.3379
C34 C 0.4345(8) 0.4924(5) 0.4010(4)
H20 H 0.3894 0.4910 0.4528
C35 C 0.5249(8) 0.3938(5) 0.3898(3)
C36 C 0.6871(7) 0.1944(5) 0.4016(3)
C37 C 0.7663(9) 0.0815(5) 0.4256(3)
H21 H 0.7615 0.0343 0.4807
C38 C 0.8529(7) 0.0390(5) 0.3674(3)
C39 C 0.9396(9) -0.0772(6) 0.3923(4)
H22 H 0.9422 -0.1237 0.4476
C40 C 1.0170(8) -0.1173(5) 0.3336(3)
H23 H 1.0673 -0.1945 0.3494
C41 C 1.0265(7) -0.0472(5) 0.2471(4)
C42 C 1.1053(8) -0.0906(6) 0.1868(4)
H24 H 1.1553 -0.1679 0.2023
C43 C 0.9467(7) 0.0695(5) 0.2233(3)
C44 C 0.8599(7) 0.1133(5) 0.2842(3)
loop_
_geom_bond_atom_site_label_1
_geom_bond_atom_site_label_2
_geom_bond_site_symmetry_1
_geom_bond_site_symmetry_2
S1 O1 1_555 1_555
O2 S1 1_555 1_555
C1 H1 1_555 1_555
C2 C1 1_555 1_555
H2 C2 1_555 1_555
C3 C2 1_555 1_555
C4 C3 1_555 1_555
H3 C4 1_555 1_555
C5 C4 1_555 1_555
H4 C5 1_555 1_555
C6 C5 1_555 1_555
C7 C6 1_555 1_555
C8 C7 1_555 1_555
C9 C8 1_555 1_555
H5 C9 1_555 1_555
C10 C9 1_555 1_555
H6 C10 1_555 1_555
C11 C10 1_555 1_555
H7 C11 1_555 1_555
C12 C11 1_555 1_555
H8 C12 1_555 1_555
C13 S1 1_555 1_555
C14 S1 1_555 1_555
C15 C14 1_555 1_555
H9 C15 1_555 1_555
C16 C15 1_555 1_555
C17 C16 1_555 1_555
H10 C17 1_555 1_555
C18 C17 1_555 1_555
H11 C18 1_555 1_555
C19 C18 1_555 1_555
C20 C3 1_555 1_555
C21 C6 1_555 1_555
C22 C1 1_555 1_555
H12 C22 1_555 1_555
S2 O3 1_555 1_555
O4 S2 1_555 1_555
C23 H13 1_555 1_555
C24 C23 1_555 1_555
H14 C24 1_555 1_555
C25 C24 1_555 1_555
C26 C25 1_555 1_555
H15 C26 1_555 1_555
C27 C26 1_555 1_555
H16 C27 1_555 1_555
C28 C27 1_555 1_555
C29 C28 1_555 1_555
C30 C29 1_555 1_555
C31 C30 1_555 1_555
H17 C31 1_555 1_555
C32 C31 1_555 1_555
H18 C32 1_555 1_555
C33 C32 1_555 1_555
H19 C33 1_555 1_555
C34 C33 1_555 1_555
H20 C34 1_555 1_555
C35 S2 1_555 1_555
C36 S2 1_555 1_555
C37 C36 1_555 1_555
H21 C37 1_555 1_555
C38 C37 1_555 1_555
C39 C38 1_555 1_555
H22 C39 1_555 1_555
C40 C39 1_555 1_555
H23 C40 1_555 1_555
C41 C40 1_555 1_555
C42 C23 1_555 1_555
H24 C42 1_555 1_555
C43 C25 1_555 1_555
C44 C28 1_555 1_555
C7 C14 1_555 1_555
C8 C13 1_555 1_555
C12 C13 1_555 1_555
C16 C21 1_555 1_555
C19 C20 1_555 1_555
C19 C22 1_555 1_555
C20 C21 1_555 1_555
C29 C36 1_555 1_555
C30 C35 1_555 1_555
C34 C35 1_555 1_555
C38 C44 1_555 1_555
C41 C42 1_555 1_555
C41 C43 1_555 1_555
C43 C44 1_555 1_555

#END
