
#######################################################################
#
#                 Cambridge Crystallographic Data Centre
#                                CCDC 
#
#######################################################################
#
# If this CIF has been generated from an entry in the Cambridge 
# Structural Database, then it will include bibliographic, chemical, 
# crystal, experimental, refinement or atomic coordinate data resulting 
# from the CCDC's data processing and validation procedures.
#
#######################################################################

data_QUMDEJ
_chemical_name_common            "Curcumin 4,4'-bipyridine-N,N'-dioxide"
_chemical_formula_moiety         'C21 H20 O6,C10 H8 N2 O2'
_chemical_name_systematic        
"5-hydroxy-1,7-bis(4-hydroxy-3-methoxyphenyl)hepta-1,4,6-trien-3-one 4,4'-bipyridine-N,N'-dioxide"
_symmetry_cell_setting           triclinic
_symmetry_space_group_name_H-M   'P -1'
_symmetry_Int_Tables_number      2
_space_group_name_Hall           '-P 1'
loop_
_symmetry_equiv_pos_site_id
_symmetry_equiv_pos_as_xyz
1 x,y,z
2 -x,-y,-z
_cell_length_a                   9.8370(9)
_cell_length_b                   10.5287(9)
_cell_length_c                   14.3413(13)
_cell_angle_alpha                111.2870(10)
_cell_angle_beta                 95.819(2)
_cell_angle_gamma                101.2270(10)
_cell_volume                     1333.24
_exptl_crystal_colour            yellow
_exptl_crystal_description       block
_cell_formula_units_Z            2
loop_
_atom_site_label
_atom_site_type_symbol
_atom_site_fract_x
_atom_site_fract_y
_atom_site_fract_z
C1 C 0.22582(18) 1.16443(16) 0.23018(12)
C2 C 0.30299(17) 1.12267(15) 0.29715(12)
C3 C 0.24579(17) 1.00155(16) 0.30946(12)
H1 H 0.2980 0.9738 0.3530
C4 C 0.11020(17) 0.91861(15) 0.25781(12)
C5 C 0.03359(18) 0.96424(17) 0.19484(13)
H2 H -0.0578 0.9127 0.1616
C6 C 0.09138(18) 1.08498(17) 0.18103(13)
H3 H 0.0388 1.1131 0.1379
C7 C 0.5208(2) 1.1676(2) 0.40711(16)
H4 H 0.4797 1.1680 0.4651
H5 H 0.6127 1.2317 0.4297
H6 H 0.5289 1.0744 0.3685
C8 C 0.04969(18) 0.78756(16) 0.26765(13)
H7 H -0.0445 0.7447 0.2373
C9 C 0.11487(18) 0.72227(16) 0.31549(12)
H8 H 0.2088 0.7642 0.3470
C10 C 0.04956(17) 0.59059(16) 0.32171(12)
C11 C 0.11869(18) 0.53464(17) 0.37836(13)
H9 H 0.2109 0.5813 0.4125
C12 C 0.05421(18) 0.40769(17) 0.38665(13)
C13 C 0.12626(18) 0.35146(17) 0.45142(14)
H10 H 0.0794 0.2647 0.4497
C14 C 0.25006(18) 0.41104(16) 0.51154(13)
H11 H 0.2978 0.4960 0.5108
C15 C 0.32181(16) 0.35995(15) 0.57934(12)
C16 C 0.26160(16) 0.23270(16) 0.58684(13)
H12 H 0.1745 0.1779 0.5467
C17 C 0.33029(16) 0.18822(15) 0.65298(12)
C18 C 0.46111(17) 0.26943(16) 0.71361(12)
C19 C 0.52162(18) 0.39299(17) 0.70520(13)
H13 H 0.6098 0.4464 0.7442
C20 C 0.45252(17) 0.43875(16) 0.63912(13)
H14 H 0.4943 0.5232 0.6348
C21 C 0.16270(19) -0.03299(17) 0.59879(15)
H15 H 0.0820 0.0060 0.6042
H16 H 0.1450 -0.1149 0.6149
H17 H 0.1803 -0.0588 0.5305
O1 O 0.29012(14) 1.28137(12) 0.21757(10)
H18 H 0.2369 1.2962 0.1770
O2 O 0.43332(12) 1.21022(12) 0.34486(9)
O3 O -0.07927(13) 0.52666(13) 0.26934(10)
H19 H -0.1063 0.4530 0.2770
O4 O -0.06958(13) 0.34026(12) 0.33906(11)
O5 O 0.28069(13) 0.06725(12) 0.66698(10)
O6 O 0.53152(13) 0.22822(14) 0.77956(10)
H20 H 0.4844 0.1535 0.7775
C22 C 0.2814(2) 0.3870(2) 0.95376(17)
H21 H 0.3149 0.3081 0.9225
C23 C 0.3143(2) 0.50007(19) 0.92736(16)
H22 H 0.3692 0.4962 0.8778
C24 C 0.26804(17) 0.62011(16) 0.97243(12)
C25 C 0.1900(2) 0.61784(19) 1.04662(14)
H23 H 0.1590 0.6970 1.0814
C26 C 0.1568(2) 0.50266(19) 1.07046(14)
H24 H 0.1021 0.5041 1.1199
C27 C 0.29986(17) 0.74323(16) 0.94482(12)
C28 C 0.3867(2) 0.7540(2) 0.87773(15)
H25 H 0.4266 0.6799 0.8463
C29 C 0.4159(3) 0.8715(2) 0.85597(17)
H26 H 0.4756 0.8753 0.8102
C30 C 0.2741(2) 0.9723(2) 0.96176(16)
H27 H 0.2339 1.0469 0.9910
C31 C 0.2422(2) 0.8565(2) 0.98487(17)
H28 H 0.1796 0.8538 1.0290
N1 N 0.20157(16) 0.38851(14) 1.02414(11)
N2 N 0.36170(17) 0.98051(15) 0.89831(11)
O7 O 0.16441(17) 0.27660(13) 1.04635(11)
O8 O 0.39418(17) 1.09516(14) 0.88086(11)
loop_
_geom_bond_atom_site_label_1
_geom_bond_atom_site_label_2
_geom_bond_site_symmetry_1
_geom_bond_site_symmetry_2
C1 C2 1_555 1_555
C2 C3 1_555 1_555
C3 H1 1_555 1_555
C4 C3 1_555 1_555
C5 C4 1_555 1_555
H2 C5 1_555 1_555
C6 C1 1_555 1_555
H3 C6 1_555 1_555
C7 H4 1_555 1_555
H5 C7 1_555 1_555
H6 C7 1_555 1_555
C8 C4 1_555 1_555
H7 C8 1_555 1_555
C9 C8 1_555 1_555
H8 C9 1_555 1_555
C10 C9 1_555 1_555
C11 C10 1_555 1_555
H9 C11 1_555 1_555
C12 C11 1_555 1_555
C13 C12 1_555 1_555
H10 C13 1_555 1_555
C14 C13 1_555 1_555
H11 C14 1_555 1_555
C15 C14 1_555 1_555
C16 C15 1_555 1_555
H12 C16 1_555 1_555
C17 C16 1_555 1_555
C18 C17 1_555 1_555
C19 C18 1_555 1_555
H13 C19 1_555 1_555
C20 C15 1_555 1_555
H14 C20 1_555 1_555
C21 H15 1_555 1_555
H16 C21 1_555 1_555
H17 C21 1_555 1_555
O1 C1 1_555 1_555
H18 O1 1_555 1_555
O2 C2 1_555 1_555
O3 C10 1_555 1_555
H19 O3 1_555 1_555
O4 C12 1_555 1_555
O5 C17 1_555 1_555
O6 C18 1_555 1_555
H20 O6 1_555 1_555
C22 H21 1_555 1_555
C23 C22 1_555 1_555
H22 C23 1_555 1_555
C24 C23 1_555 1_555
C25 C24 1_555 1_555
H23 C25 1_555 1_555
C26 C25 1_555 1_555
H24 C26 1_555 1_555
C27 C24 1_555 1_555
C28 C27 1_555 1_555
H25 C28 1_555 1_555
C29 C28 1_555 1_555
H26 C29 1_555 1_555
C30 H27 1_555 1_555
C31 C27 1_555 1_555
H28 C31 1_555 1_555
N1 C22 1_555 1_555
N2 C29 1_555 1_555
O7 N1 1_555 1_555
O8 N2 1_555 1_555
C5 C6 1_555 1_555
C7 O2 1_555 1_555
C19 C20 1_555 1_555
C21 O5 1_555 1_555
C26 N1 1_555 1_555
C30 C31 1_555 1_555
C30 N2 1_555 1_555

#END
