
#######################################################################
#
#                 Cambridge Crystallographic Data Centre
#                                CCDC 
#
#######################################################################
#
# If this CIF has been generated from an entry in the Cambridge 
# Structural Database, then it will include bibliographic, chemical, 
# crystal, experimental, refinement or atomic coordinate data resulting 
# from the CCDC's data processing and validation procedures.
#
#######################################################################

data_QUMFEJ01
_chemical_formula_moiety         'C26 H54 Li3 N3 O4 S1'
_chemical_name_systematic        
"(\m~3~-tris(t-Butylamido)sulfur-N,N,N',N',N'',N'')-(\m~3~-ethylene oxide-O,O,O)-tris(tetrahydrofuran-O)-tri-lithium"
_symmetry_cell_setting           monoclinic
_symmetry_space_group_name_H-M   'P 21/n'
_symmetry_Int_Tables_number      14
_space_group_name_Hall           '-P 2yn'
loop_
_symmetry_equiv_pos_site_id
_symmetry_equiv_pos_as_xyz
1 x,y,z
2 1/2+x,1/2-y,1/2+z
3 -x,-y,-z
4 1/2-x,1/2+y,1/2-z
_cell_length_a                   10.035(2)
_cell_length_b                   23.311(5)
_cell_length_c                   14.696(3)
_cell_angle_alpha                90
_cell_angle_beta                 101.55(3)
_cell_angle_gamma                90
_cell_volume                     3368.16
_exptl_crystal_colour            colorless
_exptl_crystal_description       block
_cell_formula_units_Z            4
loop_
_atom_site_label
_atom_site_type_symbol
_atom_site_fract_x
_atom_site_fract_y
_atom_site_fract_z
S1 S 0.74933(8) 0.35831(4) 0.84461(6)
N1 N 0.6906(3) 0.31115(13) 0.7628(2)
C1 C 0.5905(4) 0.26834(18) 0.7819(3)
C2 C 0.4647(4) 0.2951(2) 0.8089(4)
H1 H 0.4920 0.3165 0.8670
H2 H 0.4009 0.2647 0.8175
H3 H 0.4207 0.3211 0.7596
C3 C 0.5474(5) 0.2351(2) 0.6915(4)
H4 H 0.5032 0.2612 0.6424
H5 H 0.4837 0.2047 0.7001
H6 H 0.6278 0.2180 0.6738
C4 C 0.6552(6) 0.2264(2) 0.8583(5)
H7 H 0.7358 0.2089 0.8416
H8 H 0.5894 0.1964 0.8650
H9 H 0.6819 0.2471 0.9172
N2 N 0.6830(3) 0.41795(13) 0.7942(2)
C5 C 0.6339(4) 0.46139(19) 0.8536(3)
C6 C 0.7422(5) 0.4796(2) 0.9371(4)
H10 H 0.7602 0.4478 0.9816
H11 H 0.7097 0.5129 0.9670
H12 H 0.8261 0.4896 0.9163
C7 C 0.5074(5) 0.4407(2) 0.8880(4)
H13 H 0.4408 0.4255 0.8355
H14 H 0.4673 0.4729 0.9158
H15 H 0.5334 0.4105 0.9345
C8 C 0.5944(6) 0.5130(2) 0.7907(4)
H16 H 0.6755 0.5285 0.7719
H17 H 0.5539 0.5424 0.8242
H18 H 0.5282 0.5012 0.7354
N3 N 0.9083(3) 0.36552(15) 0.8306(2)
C9 C 1.0181(4) 0.3455(2) 0.9061(3)
C10 C 1.0111(6) 0.2816(2) 0.9212(4)
H19 H 0.9344 0.2729 0.9510
H20 H 1.0958 0.2685 0.9612
H21 H 0.9985 0.2618 0.8612
C11 C 1.1496(4) 0.3614(3) 0.8727(4)
H22 H 1.1500 0.3425 0.8132
H23 H 1.2286 0.3487 0.9188
H24 H 1.1536 0.4031 0.8649
C12 C 1.0192(5) 0.3755(2) 0.9972(3)
H25 H 1.0174 0.4171 0.9875
H26 H 1.1018 0.3650 1.0419
H27 H 0.9391 0.3639 1.0214
Li1 Li 0.8578(6) 0.3184(3) 0.7056(4)
Li2 Li 0.8593(6) 0.4310(3) 0.7406(4)
Li3 Li 0.6316(6) 0.3794(3) 0.6685(4)
O1 O 0.4670(15) 0.3946(12) 0.5725(10)
H30 H 0.1584 0.4253 0.4959
H34 H 0.4588 0.3744 0.4352
C17 C 0.3495(10) 0.4227(7) 0.5927(7)
H36 H 0.3668 0.4645 0.5988
H37 H 0.3191 0.4088 0.6489
C18 C 0.2394(11) 0.4085(7) 0.5008(8)
H38 H 0.1953 0.3708 0.5050
C19 C 0.3303(12) 0.4077(6) 0.4323(8)
H40 H 0.2864 0.3908 0.3719
H41 H 0.3681 0.4459 0.4228
C20 C 0.4314(12) 0.3690(6) 0.4883(8)
H42 H 0.3924 0.3301 0.4910
O4 O 1.0089(16) 0.4848(7) 0.7467(14)
C25 C 1.1340(18) 0.4890(8) 0.8086(17)
H52 H 1.1941 0.4567 0.7995
H53 H 1.1208 0.4882 0.8736
C26 C 1.1944(19) 0.5448(9) 0.788(2)
H54 H 1.2506 0.5615 0.8448
H55 H 1.2515 0.5398 0.7408
C27 C 1.076(2) 0.5815(8) 0.752(2)
H56 H 1.0533 0.6059 0.8020
H57 H 1.0935 0.6065 0.7013
C28 C 0.9673(18) 0.5422(9) 0.718(2)
H58 H 0.9429 0.5443 0.6497
H59 H 0.8860 0.5528 0.7433
O5 O 0.953(2) 0.2544(6) 0.661(2)
H60 H 0.8670 0.1779 0.6288
H62 H 1.0657 0.1307 0.6483
C33 C 0.9144(17) 0.2010(8) 0.6464(17)
H69 H 0.8966 0.1832 0.7040
C34 C 1.0207(17) 0.1676(6) 0.6104(18)
H71 H 0.9949 0.1630 0.5421
C35 C 1.1464(17) 0.2023(8) 0.6361(19)
H72 H 1.2017 0.1888 0.6957
H73 H 1.2018 0.1994 0.5875
C36 C 1.1022(17) 0.2608(7) 0.6444(16)
H74 H 1.1005 0.2821 0.5859
H75 H 1.1644 0.2808 0.6954
O7 O 0.8050(2) 0.38599(11) 0.62728(16)
C37 C 0.8275(10) 0.3920(6) 0.5400(4)
C40 C 0.993(4) 0.3942(17) 0.548(3)
H80 H 1.0603 0.3917 0.6030
H81 H 1.0190 0.3984 0.4893
C13? C 0.3280(12) 0.3802(7) 0.5747(10)
H28? H 0.3123 0.3779 0.6390
H29? H 0.2995 0.3438 0.5417
C14? C 0.2556(15) 0.4334(7) 0.5214(12)
H31? H 0.2628 0.4675 0.5622
C15? C 0.3304(14) 0.4413(8) 0.4485(11)
H32? H 0.3487 0.4826 0.4410
H33? H 0.2769 0.4267 0.3890
C16? C 0.4601(12) 0.4094(8) 0.4736(9)
H35? H 0.5381 0.4336 0.4661
O2? O 0.4662(12) 0.3931(10) 0.5792(8)
H39? H 0.1690 0.4387 0.4866
H43? H 0.5132 0.3659 0.4604
O3? O 0.9608(4) 0.50156(18) 0.7286(3)
C21? C 0.9934(6) 0.5465(3) 0.7938(5)
H44? H 1.0050 0.5312 0.8578
H45? H 0.9195 0.5753 0.7846
C22? C 1.1228(7) 0.5734(3) 0.7797(6)
H46? H 1.1043 0.6088 0.7420
H47? H 1.1824 0.5831 0.8399
C23? C 1.1860(6) 0.5291(3) 0.7302(6)
H48? H 1.2462 0.5038 0.7744
H49? H 1.2395 0.5469 0.6878
C24? C 1.0681(6) 0.4968(3) 0.6773(5)
H50? H 1.0390 0.5132 0.6144
H51? H 1.0927 0.4560 0.6713
C29? C 0.9388(12) 0.1950(5) 0.6773(12)
H61? H 0.9158 0.1883 0.7388
C30? C 1.0748(12) 0.1703(5) 0.6734(12)
H63? H 1.1344 0.1696 0.7358
C31? C 1.1316(13) 0.2103(5) 0.6087(12)
H64? H 1.2301 0.2167 0.6320
H65? H 1.1185 0.1936 0.5456
C32? C 1.0577(13) 0.2637(5) 0.6069(11)
H66? H 1.0158 0.2742 0.5423
H67? H 1.1196 0.2950 0.6344
O6? O 0.965(3) 0.2572(8) 0.665(3)
H68? H 0.8283 0.2017 0.5997
H70? H 1.0332 0.1292 0.6395
H76? H 0.8629 0.4277 0.5242
C38? C 0.8039(7) 0.3519(3) 0.4750(4)
H77? H 0.7685 0.3157 0.4882
H78? H 0.8223 0.3593 0.4151
C39? C 0.863(4) 0.392(4) 0.552(3)
H79? H 0.8011 0.3946 0.4938
C41? C 0.801(9) 0.390(2) 0.5346(19)
H82? H 0.8174 0.3595 0.4960
C42? C 0.773(4) 0.4435(17) 0.505(3)
H83? H 0.7580 0.4723 0.5480
H84? H 0.7670 0.4528 0.4418
loop_
_geom_bond_atom_site_label_1
_geom_bond_atom_site_label_2
_geom_bond_site_symmetry_1
_geom_bond_site_symmetry_2
S1 N1 1_555 1_555
N1 C1 1_555 1_555
C1 C2 1_555 1_555
C2 H1 1_555 1_555
H2 C2 1_555 1_555
H3 C2 1_555 1_555
C3 C1 1_555 1_555
H4 C3 1_555 1_555
H5 C3 1_555 1_555
H6 C3 1_555 1_555
C4 C1 1_555 1_555
H7 C4 1_555 1_555
H8 C4 1_555 1_555
H9 C4 1_555 1_555
N2 S1 1_555 1_555
C5 N2 1_555 1_555
C6 C5 1_555 1_555
H10 C6 1_555 1_555
H11 C6 1_555 1_555
H12 C6 1_555 1_555
C7 C5 1_555 1_555
H13 C7 1_555 1_555
H14 C7 1_555 1_555
H15 C7 1_555 1_555
C8 C5 1_555 1_555
H16 C8 1_555 1_555
H17 C8 1_555 1_555
H18 C8 1_555 1_555
N3 S1 1_555 1_555
C9 N3 1_555 1_555
C10 C9 1_555 1_555
H19 C10 1_555 1_555
H20 C10 1_555 1_555
H21 C10 1_555 1_555
C11 C9 1_555 1_555
H22 C11 1_555 1_555
H23 C11 1_555 1_555
H24 C11 1_555 1_555
C12 C9 1_555 1_555
H25 C12 1_555 1_555
H26 C12 1_555 1_555
H27 C12 1_555 1_555
Li1 N1 1_555 1_555
Li2 N2 1_555 1_555
Li3 N1 1_555 1_555
O1 Li3 1_555 1_555
H30 C18 1_555 1_555
H34 C20 1_555 1_555
C17 O1 1_555 1_555
H36 C17 1_555 1_555
H37 C17 1_555 1_555
C18 C17 1_555 1_555
H38 C18 1_555 1_555
C19 C18 1_555 1_555
H40 C19 1_555 1_555
H41 C19 1_555 1_555
C20 O1 1_555 1_555
H42 C20 1_555 1_555
O4 Li2 1_555 1_555
C25 O4 1_555 1_555
H52 C25 1_555 1_555
H53 C25 1_555 1_555
C26 C25 1_555 1_555
H54 C26 1_555 1_555
H55 C26 1_555 1_555
C27 C26 1_555 1_555
H56 C27 1_555 1_555
H57 C27 1_555 1_555
C28 O4 1_555 1_555
H58 C28 1_555 1_555
H59 C28 1_555 1_555
O5 Li1 1_555 1_555
H60 C33 1_555 1_555
H62 C34 1_555 1_555
C33 O5 1_555 1_555
H69 C33 1_555 1_555
C34 C33 1_555 1_555
H71 C34 1_555 1_555
C35 C34 1_555 1_555
H72 C35 1_555 1_555
H73 C35 1_555 1_555
C36 O5 1_555 1_555
H74 C36 1_555 1_555
H75 C36 1_555 1_555
O7 Li1 1_555 1_555
C37 O7 1_555 1_555
C40 C37 1_555 1_555
H80 C40 1_555 1_555
H81 C40 1_555 1_555
N2 Li3 1_555 1_555
N3 Li1 1_555 1_555
N3 Li2 1_555 1_555
Li2 O7 1_555 1_555
Li3 O7 1_555 1_555
C19 C20 1_555 1_555
C27 C28 1_555 1_555
C35 C36 1_555 1_555

#END
