
#######################################################################
#
#                 Cambridge Crystallographic Data Centre
#                                CCDC 
#
#######################################################################
#
# If this CIF has been generated from an entry in the Cambridge 
# Structural Database, then it will include bibliographic, chemical, 
# crystal, experimental, refinement or atomic coordinate data resulting 
# from the CCDC's data processing and validation procedures.
#
#######################################################################

data_QUMGIO
_chemical_formula_moiety         'C72 H62 N4 S4,0.25(C6 H14),0.5(C1 H2 Cl2)'
_chemical_name_systematic        
'3,6,9,12-Tetramesityl-1,2,7,8(2,5)-tetrathiophena-4,5,10,11(2,5)-tetrapyrrolacyclododecaphane-3,4,6,7,8,11-hexaene dichloromethane n-hexane solvate'
_symmetry_cell_setting           triclinic
_symmetry_space_group_name_H-M   'P -1'
_symmetry_Int_Tables_number      2
_space_group_name_Hall           '-P 1'
loop_
_symmetry_equiv_pos_site_id
_symmetry_equiv_pos_as_xyz
1 x,y,z
2 -x,-y,-z
_cell_length_a                   15.3559(4)
_cell_length_b                   21.8104(6)
_cell_length_c                   23.3825(6)
_cell_angle_alpha                100.0340(10)
_cell_angle_beta                 100.7120(10)
_cell_angle_gamma                107.4260(10)
_cell_volume                     7117.43
_exptl_crystal_colour            black
_exptl_crystal_description       block
_cell_formula_units_Z            4
loop_
_atom_site_label
_atom_site_type_symbol
_atom_site_fract_x
_atom_site_fract_y
_atom_site_fract_z
S1 S 0.62959(6) -0.10842(4) 0.36344(4)
S2 S 0.38584(6) -0.09110(4) 0.61050(4)
N1 N 0.5009(2) -0.22701(14) 0.49550(12)
N2 N 0.40184(19) -0.22083(15) 0.58973(12)
H1 H 0.4154 -0.1831 0.5790
C1 C 0.3539(2) -0.02188(17) 0.63002(15)
C2 C 0.2983(2) -0.02974(18) 0.67025(16)
H5 H 0.2738 0.0028 0.6859
C3 C 0.2820(2) -0.09079(18) 0.68545(15)
H6 H 0.2457 -0.1035 0.7129
C4 C 0.3240(2) -0.13104(18) 0.65672(16)
C5 C 0.3169(2) -0.19609(17) 0.66436(15)
C6 C 0.3534(2) -0.23758(17) 0.63282(15)
C7 C 0.3456(2) -0.30437(18) 0.63654(15)
H7 H 0.3162 -0.3278 0.6624
C8 C 0.3878(2) -0.32698(18) 0.59659(16)
H8 H 0.3936 -0.3696 0.5882
C9 C 0.4231(2) -0.27272(17) 0.56850(15)
C10 C 0.4737(2) -0.27563(17) 0.52198(15)
C11 C 0.4988(3) -0.33204(19) 0.49777(16)
H9 H 0.4886 -0.3720 0.5107
C12 C 0.5390(3) -0.31679(18) 0.45366(16)
H10 H 0.5617 -0.3442 0.4286
C13 C 0.5412(2) -0.25043(17) 0.45138(15)
C14 C 0.5759(2) -0.21467(17) 0.41202(15)
C15 C 0.5814(2) -0.14791(18) 0.41470(16)
C16 C 0.5540(3) -0.1036(2) 0.45311(17)
H11 H 0.5248 -0.1151 0.4840
C17 C 0.5740(3) -0.0416(2) 0.44107(17)
H12 H 0.5600 -0.0064 0.4632
C18 C 0.6156(3) -0.03536(18) 0.39437(16)
C19 C 0.2650(2) -0.22087(17) 0.70861(15)
C20 C 0.1669(3) -0.25229(18) 0.69059(16)
C21 C 0.1205(3) -0.27717(18) 0.73200(17)
H13 H 0.0539 -0.2981 0.7200
C22 C 0.1682(3) -0.27231(18) 0.78999(17)
C23 C 0.2659(3) -0.24027(18) 0.80700(17)
H14 H 0.2997 -0.2362 0.8467
C24 C 0.3155(3) -0.21396(17) 0.76724(16)
C25 C 0.4211(3) -0.1807(2) 0.78721(17)
H15 H 0.4436 -0.1809 0.8292
H16 H 0.4507 -0.2047 0.7621
H17 H 0.4378 -0.1349 0.7833
C26 C 0.1131(3) -0.2604(2) 0.62725(17)
H18 H 0.0457 -0.2831 0.6226
H19 H 0.1229 -0.2167 0.6189
H20 H 0.1359 -0.2868 0.5991
C27 C 0.1183(3) -0.3027(2) 0.83333(19)
H21 H 0.0506 -0.3235 0.8142
H22 H 0.1437 -0.3362 0.8448
H23 H 0.1281 -0.2680 0.8692
C28 C 0.6068(3) -0.24899(17) 0.36147(16)
C29 C 0.5397(3) -0.28209(17) 0.30648(16)
C30 C 0.5683(3) -0.31256(18) 0.25951(17)
H24 H 0.5231 -0.3357 0.2224
C31 C 0.6611(3) -0.31014(19) 0.26532(17)
C32 C 0.7249(3) -0.2787(2) 0.32066(18)
H25 H 0.7878 -0.2785 0.3257
C33 C 0.7000(3) -0.24726(19) 0.36937(17)
C34 C 0.4384(3) -0.28514(19) 0.29777(16)
H26 H 0.4304 -0.2615 0.3350
H27 H 0.3968 -0.3315 0.2874
H28 H 0.4224 -0.2644 0.2653
C35 C 0.7714(3) -0.2129(2) 0.42846(19)
H29 H 0.7413 -0.1941 0.4571
H30 H 0.8232 -0.1772 0.4228
H31 H 0.7962 -0.2448 0.4441
C36 C 0.6906(3) -0.3420(2) 0.21299(19)
H32 H 0.7580 -0.3355 0.2252
H33 H 0.6789 -0.3215 0.1795
H34 H 0.6541 -0.3895 0.2003
C18A C 0.3844(3) 0.03536(18) 0.60563(16)
S1A S 0.37041(6) 0.10842(4) 0.63656(4)
C15A C 0.4186(2) 0.14791(18) 0.58530(16)
C14A C 0.4241(2) 0.21467(17) 0.58798(15)
C13A C 0.4588(2) 0.25043(17) 0.54862(15)
N1A N 0.4991(2) 0.22701(14) 0.50450(12)
C10A C 0.5263(2) 0.27563(17) 0.47802(15)
C9A C 0.5769(2) 0.27272(17) 0.43150(15)
N2A N 0.59816(19) 0.22083(15) 0.41027(12)
H1A H 0.5846 0.1831 0.4210
C6A C 0.6466(2) 0.23758(17) 0.36718(15)
C5A C 0.6831(2) 0.19609(17) 0.33564(15)
C4A C 0.6760(2) 0.13104(18) 0.34328(16)
S2A S 0.61416(6) 0.09110(4) 0.38950(4)
C1A C 0.6461(2) 0.02188(17) 0.36998(15)
C2A C 0.7017(2) 0.02974(18) 0.32975(16)
H5A H 0.7262 -0.0028 0.3141
C3A C 0.7180(2) 0.09079(18) 0.31455(15)
H6A H 0.7543 0.1035 0.2871
C19A C 0.7350(2) 0.22087(17) 0.29139(15)
C20A C 0.8331(3) 0.25229(18) 0.30941(16)
C21A C 0.8795(3) 0.27717(18) 0.26800(17)
H13A H 0.9461 0.2981 0.2800
C22A C 0.8318(3) 0.27231(18) 0.21001(17)
C23A C 0.7341(3) 0.24027(18) 0.19300(17)
H14A H 0.7003 0.2362 0.1533
C24A C 0.6845(3) 0.21396(17) 0.23276(16)
C25A C 0.5789(3) 0.1807(2) 0.21279(17)
H15A H 0.5564 0.1809 0.1708
H16A H 0.5493 0.2047 0.2379
H17A H 0.5622 0.1349 0.2167
C27A C 0.8817(3) 0.3027(2) 0.16667(19)
H21A H 0.9494 0.3235 0.1858
H22A H 0.8563 0.3362 0.1552
H23A H 0.8719 0.2680 0.1308
C26A C 0.8869(3) 0.2604(2) 0.37275(17)
H18A H 0.9543 0.2831 0.3774
H19A H 0.8771 0.2167 0.3811
H20A H 0.8641 0.2868 0.4009
C7A C 0.6544(2) 0.30437(18) 0.36346(15)
H7A H 0.6838 0.3278 0.3376
C8A C 0.6122(2) 0.32698(18) 0.40341(16)
H8A H 0.6064 0.3696 0.4118
C11A C 0.5012(3) 0.33204(19) 0.50223(16)
H9A H 0.5114 0.3720 0.4893
C12A C 0.4610(3) 0.31679(18) 0.54634(16)
H10A H 0.4383 0.3442 0.5714
C28A C 0.3932(3) 0.24899(17) 0.63853(16)
C29A C 0.4603(3) 0.28209(17) 0.69352(16)
C30A C 0.4317(3) 0.31256(18) 0.74049(17)
H24A H 0.4769 0.3357 0.7776
C31A C 0.3389(3) 0.31014(19) 0.73468(17)
C32A C 0.2751(3) 0.2787(2) 0.67934(18)
H25A H 0.2122 0.2785 0.6743
C33A C 0.3000(3) 0.24726(19) 0.63063(17)
C35A C 0.2286(3) 0.2129(2) 0.57154(19)
H29A H 0.2587 0.1941 0.5429
H30A H 0.1768 0.1772 0.5772
H31A H 0.2038 0.2448 0.5559
C36A C 0.3094(3) 0.3420(2) 0.78701(19)
H32A H 0.2420 0.3355 0.7748
H33A H 0.3211 0.3215 0.8205
H34A H 0.3459 0.3895 0.7997
C34A C 0.5616(3) 0.28514(19) 0.70223(16)
H26A H 0.5696 0.2615 0.6650
H27A H 0.6032 0.3315 0.7126
H28A H 0.5776 0.2644 0.7347
C16A C 0.4460(3) 0.1036(2) 0.54689(17)
H11A H 0.4752 0.1151 0.5160
C17A C 0.4260(3) 0.0416(2) 0.55893(17)
H12A H 0.4400 0.0064 0.5368
S3 S 0.37678(6) 0.01609(4) 0.13589(4)
S4 S 0.63710(6) -0.02784(5) 0.17554(4)
N3 N 0.79465(19) -0.04265(14) 0.01936(13)
N4 N 0.79124(19) -0.03767(14) -0.10307(13)
H2 H 0.7507 -0.0207 -0.0907
C37 C 0.5429(2) -0.01065(17) 0.13905(15)
C38 C 0.5500(2) -0.00481(18) 0.08148(16)
H35 H 0.5048 0.0050 0.0543
C39 C 0.6304(2) -0.01481(18) 0.06764(16)
H36 H 0.6452 -0.0127 0.0302
C40 C 0.6868(2) -0.02822(17) 0.11497(15)
C41 C 0.7725(2) -0.04293(17) 0.12098(16)
C42 C 0.8204(2) -0.05030(17) 0.07766(16)
C43 C 0.9038(2) -0.06949(19) 0.08456(17)
H37 H 0.9362 -0.0775 0.1197
C44 C 0.9264(2) -0.07377(19) 0.03118(16)
H38 H 0.9773 -0.0857 0.0212
C45 C 0.8570(2) -0.05636(17) -0.00797(16)
C46 C 0.8525(2) -0.05646(17) -0.07056(16)
C47 C 0.9097(2) -0.08052(17) -0.10583(16)
H39 H 0.9594 -0.0959 -0.0918
C48 C 0.8781(2) -0.07659(18) -0.16232(16)
H40 H 0.9007 -0.0889 -0.1962
C49 C 0.8028(2) -0.04980(17) -0.16095(15)
C50 C 0.3362(2) 0.01997(17) 0.20125(15)
C51 C 0.3943(2) 0.00542(18) 0.24517(16)
H41 H 0.3836 0.0045 0.2838
C52 C 0.4705(2) -0.00790(18) 0.22771(16)
H42 H 0.5163 -0.0191 0.2530
C53 C 0.4719(2) -0.00311(17) 0.17006(16)
C54 C 0.2557(2) 0.03967(17) 0.20810(15)
C55 C 0.2398(2) 0.05097(18) 0.26955(16)
C56 C 0.3054(3) 0.1052(2) 0.31536(17)
C57 C 0.2920(3) 0.1128(2) 0.37238(18)
H43 H 0.3365 0.1486 0.4035
C58 C 0.2157(3) 0.0703(3) 0.38635(19)
C59 C 0.1518(3) 0.0191(2) 0.34082(17)
H44 H 0.0990 -0.0101 0.3496
C60 C 0.1613(2) 0.00823(19) 0.28222(16)
C61 C 0.0874(3) -0.04978(19) 0.23581(16)
H45 H 0.1025 -0.0513 0.1968
H46 H 0.0255 -0.0448 0.2328
H47 H 0.0860 -0.0910 0.2476
C62 C 0.3882(3) 0.1541(2) 0.30269(19)
H48 H 0.4253 0.1879 0.3397
H49 H 0.3652 0.1754 0.2725
H50 H 0.4280 0.1307 0.2876
C63 C 0.2027(4) 0.0802(4) 0.4495(2)
H51 H 0.1460 0.0452 0.4507
H52 H 0.1958 0.1235 0.4617
H53 H 0.2579 0.0784 0.4771
C64 C 0.8102(3) -0.05096(19) 0.18240(17)
C65 C 0.7821(3) -0.1136(2) 0.19468(19)
C66 C 0.8115(3) -0.1185(3) 0.2535(2)
H54 H 0.7916 -0.1606 0.2624
C67 C 0.8685(3) -0.0641(3) 0.2989(2)
C68 C 0.8970(3) -0.0028(3) 0.28541(18)
H55 H 0.9374 0.0349 0.3162
C69 C 0.8677(2) 0.0048(2) 0.22768(16)
C70 C 0.8969(3) 0.0729(2) 0.21484(18)
H56 H 0.8707 0.0690 0.1723
H57 H 0.9659 0.0918 0.2244
H58 H 0.8729 0.1019 0.2395
C71 C 0.7200(3) -0.1741(2) 0.1455(2)
H59 H 0.7074 -0.2133 0.1619
H60 H 0.7521 -0.1800 0.1135
H61 H 0.6603 -0.1683 0.1291
C72 C 0.8984(3) -0.0707(3) 0.3627(2)
H62 H 0.9386 -0.0272 0.3888
H63 H 0.9336 -0.1015 0.3630
H64 H 0.8423 -0.0877 0.3774
C54A C 0.7443(2) -0.03967(17) -0.20810(15)
C50A C 0.6638(2) -0.01997(17) -0.20125(15)
S3A S 0.62322(6) -0.01609(4) -0.13589(4)
C53A C 0.5281(2) 0.00311(17) -0.17006(16)
C37A C 0.4571(2) 0.01065(17) -0.13905(15)
S4A S 0.36290(6) 0.02784(5) -0.17554(4)
C40A C 0.3132(2) 0.02822(17) -0.11497(15)
C39A C 0.3696(2) 0.01481(18) -0.06764(16)
C38A C 0.4500(2) 0.00481(18) -0.08148(16)
H35A H 0.4952 -0.0050 -0.0543
H36A H 0.3548 0.0127 -0.0302
C41A C 0.2275(2) 0.04293(17) -0.12098(16)
C42A C 0.1796(2) 0.05030(17) -0.07766(16)
N3A N 0.20535(19) 0.04265(14) -0.01936(13)
C45A C 0.1430(2) 0.05636(17) 0.00797(16)
C44A C 0.0736(2) 0.07377(19) -0.03118(16)
C43A C 0.0962(2) 0.06949(19) -0.08456(17)
H37A H 0.0638 0.0775 -0.1197
H38A H 0.0227 0.0857 -0.0212
C46A C 0.1475(2) 0.05646(17) 0.07056(16)
N4A N 0.20876(19) 0.03767(14) 0.10307(13)
H2A H 0.2493 0.0207 0.0907
C49A C 0.1972(2) 0.04980(17) 0.16095(15)
C48A C 0.1219(2) 0.07659(18) 0.16232(16)
C47A C 0.0903(2) 0.08052(17) 0.10583(16)
H39A H 0.0406 0.0959 0.0918
H40A H 0.0993 0.0889 0.1962
C64A C 0.1898(3) 0.05096(19) -0.18240(17)
C65A C 0.2179(3) 0.1136(2) -0.19468(19)
C66A C 0.1885(3) 0.1185(3) -0.2535(2)
H54A H 0.2084 0.1606 -0.2624
C67A C 0.1315(3) 0.0641(3) -0.2989(2)
C68A C 0.1030(3) 0.0028(3) -0.28541(18)
H55A H 0.0626 -0.0349 -0.3162
C69A C 0.1323(2) -0.0048(2) -0.22768(16)
C70A C 0.1031(3) -0.0729(2) -0.21484(18)
H56A H 0.1293 -0.0690 -0.1723
H57A H 0.0341 -0.0918 -0.2244
H58A H 0.1271 -0.1019 -0.2395
C72A C 0.1016(3) 0.0707(3) -0.3627(2)
H62A H 0.0614 0.0272 -0.3888
H63A H 0.0664 0.1015 -0.3630
H64A H 0.1577 0.0877 -0.3774
C71A C 0.2800(3) 0.1741(2) -0.1455(2)
H59A H 0.2926 0.2133 -0.1619
H60A H 0.2479 0.1800 -0.1135
H61A H 0.3397 0.1683 -0.1291
C52A C 0.5295(2) 0.00790(18) -0.22771(16)
C51A C 0.6057(2) -0.00542(18) -0.24517(16)
H41A H 0.6164 -0.0045 -0.2838
H42A H 0.4837 0.0191 -0.2530
C55A C 0.7602(2) -0.05097(18) -0.26955(16)
C56A C 0.6946(3) -0.1052(2) -0.31536(17)
C57A C 0.7080(3) -0.1128(2) -0.37238(18)
H43A H 0.6635 -0.1486 -0.4035
C58A C 0.7843(3) -0.0703(3) -0.38635(19)
C59A C 0.8482(3) -0.0191(2) -0.34082(17)
H44A H 0.9010 0.0101 -0.3496
C60A C 0.8387(2) -0.00823(19) -0.28222(16)
C61A C 0.9126(3) 0.04978(19) -0.23581(16)
H45A H 0.8975 0.0513 -0.1968
H46A H 0.9745 0.0448 -0.2328
H47A H 0.9140 0.0910 -0.2476
C63A C 0.7973(4) -0.0802(4) -0.4495(2)
H51A H 0.8540 -0.0452 -0.4507
H52A H 0.8042 -0.1235 -0.4617
H53A H 0.7421 -0.0784 -0.4771
C62A C 0.6118(3) -0.1541(2) -0.30269(19)
H48A H 0.5747 -0.1879 -0.3397
H49A H 0.6348 -0.1754 -0.2725
H50A H 0.5720 -0.1307 -0.2876
S5 S 0.65491(7) -0.61479(4) -0.11543(4)
S6 S 0.37188(6) -0.57882(4) 0.11734(4)
N5 N 0.3752(2) -0.71010(14) 0.09757(13)
H3 H 0.3899 -0.6730 0.0856
N6 N 0.4779(2) -0.72465(15) 0.00434(13)
C73 C 0.3449(2) -0.50689(17) 0.13443(15)
C74 C 0.2869(2) -0.51141(18) 0.17301(15)
H65 H 0.2631 -0.4775 0.1865
C75 C 0.2669(2) -0.57154(17) 0.19025(15)
H66 H 0.2294 -0.5819 0.2176
C76 C 0.3066(2) -0.61444(17) 0.16385(15)
C77 C 0.2958(2) -0.67987(17) 0.17318(15)
C78 C 0.3277(2) -0.72380(17) 0.14129(15)
C79 C 0.3174(2) -0.79066(17) 0.14743(17)
H67 H 0.2881 -0.8121 0.1744
C80 C 0.3574(3) -0.81590(18) 0.10758(16)
H68 H 0.3615 -0.8591 0.1002
C81 C 0.3937(2) -0.76353(17) 0.07760(16)
C82 C 0.4454(3) -0.77091(18) 0.03257(17)
C83 C 0.4720(3) -0.82873(19) 0.01518(18)
H69 H 0.4556 -0.8681 0.0291
C84 C 0.5238(3) -0.81594(19) -0.02399(18)
H70 H 0.5521 -0.8441 -0.0432
C85 C 0.5284(3) -0.75056(18) -0.03152(16)
C86 C 0.5781(3) -0.71794(18) -0.06695(16)
C87 C 0.5778(3) -0.65408(18) -0.07627(16)
C88 C 0.5244(3) -0.61622(19) -0.06047(18)
H71 H 0.4777 -0.6293 -0.0392
C89 C 0.5455(3) -0.55684(19) -0.07859(18)
H72 H 0.5147 -0.5257 -0.0708
C90 C 0.6158(3) -0.54791(18) -0.10893(15)
C91 C 0.2473(2) -0.70157(17) 0.21998(16)
C92 C 0.3011(3) -0.69605(18) 0.27725(16)
C93 C 0.2552(3) -0.7236(2) 0.31769(18)
H73 H 0.2914 -0.7199 0.3565
C94 C 0.1585(3) -0.7560(2) 0.3032(2)
C95 C 0.1062(3) -0.7605(2) 0.24610(19)
H74 H 0.0397 -0.7822 0.2355
C96 C 0.1492(2) -0.73380(18) 0.20410(17)
C97 C 0.0912(3) -0.7421(2) 0.14197(18)
H75 H 0.1323 -0.7211 0.1183
H76 H 0.0602 -0.7894 0.1225
H77 H 0.0432 -0.7212 0.1447
C98 C 0.4071(3) -0.6641(2) 0.29399(17)
H78 H 0.4324 -0.6643 0.3356
H79 H 0.4336 -0.6891 0.2673
H80 H 0.4240 -0.6184 0.2899
C99 C 0.1124(3) -0.7884(3) 0.3472(2)
H81 H 0.1601 -0.7799 0.3846
H82 H 0.0638 -0.7701 0.3556
H83 H 0.0833 -0.8363 0.3299
C100 C 0.6405(3) -0.74771(18) -0.09463(17)
C101 C 0.6074(3) -0.78759(19) -0.15349(19)
C102 C 0.6690(4) -0.8147(2) -0.1772(2)
H84 H 0.6475 -0.8420 -0.2169
C103 C 0.7589(4) -0.8032(2) -0.1450(2)
C104 C 0.7891(3) -0.7646(2) -0.0865(2)
H85 H 0.8508 -0.7575 -0.0636
C105 C 0.7320(3) -0.7360(2) -0.0602(2)
C106 C 0.7662(3) -0.6966(2) 0.00427(19)
H86 H 0.7173 -0.6803 0.0154
H87 H 0.7800 -0.7251 0.0303
H88 H 0.8236 -0.6590 0.0091
C107 C 0.5081(3) -0.8037(2) -0.18886(19)
H89 H 0.4981 -0.8319 -0.2287
H90 H 0.4642 -0.8271 -0.1679
H91 H 0.4969 -0.7626 -0.1931
C108 C 0.8225(4) -0.8343(3) -0.1724(3)
H92 H 0.7894 -0.8597 -0.2137
H93 H 0.8801 -0.7994 -0.1725
H94 H 0.8390 -0.8639 -0.1487
C90A C 0.3842(3) -0.45209(18) 0.10893(15)
S5A S 0.34509(7) -0.38521(4) 0.11543(4)
C87A C 0.4222(3) -0.34592(18) 0.07627(16)
C86A C 0.4219(3) -0.28206(18) 0.06695(16)
C85A C 0.4716(3) -0.24944(18) 0.03152(16)
N6A N 0.5221(2) -0.27535(15) -0.00434(13)
C82A C 0.5546(3) -0.22909(18) -0.03257(17)
C81A C 0.6063(2) -0.23647(17) -0.07760(16)
N5A N 0.6248(2) -0.28990(14) -0.09757(13)
H3A H 0.6101 -0.3270 -0.0856
C78A C 0.6723(2) -0.27620(17) -0.14129(15)
C77A C 0.7042(2) -0.32013(17) -0.17318(15)
C76A C 0.6934(2) -0.38556(17) -0.16385(15)
S6A S 0.62812(6) -0.42118(4) -0.11734(4)
C73A C 0.6551(2) -0.49311(17) -0.13443(15)
C74A C 0.7131(2) -0.48859(18) -0.17301(15)
H65A H 0.7369 -0.5225 -0.1865
C75A C 0.7331(2) -0.42846(17) -0.19025(15)
H66A H 0.7706 -0.4181 -0.2176
C91A C 0.7527(2) -0.29843(17) -0.21998(16)
C92A C 0.6989(3) -0.30395(18) -0.27725(16)
C93A C 0.7448(3) -0.2764(2) -0.31769(18)
H73A H 0.7086 -0.2801 -0.3565
C94A C 0.8415(3) -0.2440(2) -0.3032(2)
C95A C 0.8938(3) -0.2395(2) -0.24610(19)
H74A H 0.9603 -0.2178 -0.2355
C96A C 0.8508(2) -0.26620(18) -0.20410(17)
C97A C 0.9088(3) -0.2579(2) -0.14197(18)
H75A H 0.8677 -0.2789 -0.1183
H76A H 0.9398 -0.2106 -0.1225
H77A H 0.9568 -0.2788 -0.1447
C99A C 0.8876(3) -0.2116(3) -0.3472(2)
H81A H 0.8399 -0.2201 -0.3846
H82A H 0.9362 -0.2299 -0.3556
H83A H 0.9167 -0.1637 -0.3299
C98A C 0.5929(3) -0.3359(2) -0.29399(17)
H78A H 0.5676 -0.3357 -0.3356
H79A H 0.5664 -0.3109 -0.2673
H80A H 0.5760 -0.3816 -0.2899
C79A C 0.6826(2) -0.20934(17) -0.14743(17)
H67A H 0.7119 -0.1879 -0.1744
C80A C 0.6426(3) -0.18410(18) -0.10758(16)
H68A H 0.6385 -0.1409 -0.1002
C83A C 0.5280(3) -0.17127(19) -0.01518(18)
H69A H 0.5444 -0.1319 -0.0291
C84A C 0.4762(3) -0.18406(19) 0.02399(18)
H70A H 0.4479 -0.1559 0.0432
C100A C 0.3595(3) -0.25229(18) 0.09463(17)
C101A C 0.3926(3) -0.21241(19) 0.15349(19)
C102A C 0.3310(4) -0.1853(2) 0.1772(2)
H84A H 0.3525 -0.1580 0.2169
C103A C 0.2411(4) -0.1968(2) 0.1450(2)
C104A C 0.2109(3) -0.2354(2) 0.0865(2)
H85A H 0.1492 -0.2425 0.0636
C105A C 0.2680(3) -0.2640(2) 0.0602(2)
C106A C 0.2338(3) -0.3034(2) -0.00427(19)
H86A H 0.2827 -0.3197 -0.0154
H87A H 0.2200 -0.2749 -0.0303
H88A H 0.1764 -0.3410 -0.0091
C108A C 0.1775(4) -0.1657(3) 0.1724(3)
H92A H 0.2106 -0.1403 0.2137
H93A H 0.1199 -0.2006 0.1725
H94A H 0.1610 -0.1361 0.1487
C107A C 0.4919(3) -0.1963(2) 0.18886(19)
H89A H 0.5019 -0.1681 0.2287
H90A H 0.5358 -0.1729 0.1679
H91A H 0.5031 -0.2374 0.1931
C88A C 0.4756(3) -0.38378(19) 0.06047(18)
H71A H 0.5223 -0.3707 0.0392
C89A C 0.4545(3) -0.44316(19) 0.07859(18)
H72A H 0.4853 -0.4743 0.0708
S7 S 0.60805(6) -0.50725(4) 0.36246(4)
S8 S 0.64496(6) -0.54770(4) 0.66480(4)
N7 N 0.79890(19) -0.54418(15) 0.50874(13)
N8 N 0.77853(19) -0.53322(14) 0.38674(12)
H4 H 0.7373 -0.5200 0.4023
C109 C 0.5584(2) -0.51821(17) 0.63503(14)
C110 C 0.5734(3) -0.49956(19) 0.58327(16)
H95 H 0.5341 -0.4811 0.5608
C111 C 0.6521(3) -0.51024(19) 0.56661(16)
H96 H 0.6704 -0.5007 0.5316
C112 C 0.6999(2) -0.53607(18) 0.60652(15)
C113 C 0.7830(2) -0.55499(17) 0.60894(16)
C114 C 0.8287(2) -0.55735(18) 0.56363(15)
C115 C 0.9101(2) -0.57819(19) 0.56377(16)
H97 H 0.9441 -0.5899 0.5959
C116 C 0.9281(2) -0.57774(19) 0.50961(16)
H98 H 0.9771 -0.5890 0.4958
C117 C 0.8570(2) -0.55645(18) 0.47647(15)
C118 C 0.8450(2) -0.55211(17) 0.41437(15)
C119 C 0.9007(2) -0.57034(19) 0.37441(16)
H99 H 0.9523 -0.5854 0.3843
C120 C 0.8642(2) -0.56151(18) 0.32090(16)
H100 H 0.8851 -0.5689 0.2854
C121 C 0.7864(2) -0.53836(17) 0.32804(15)
C122 C 0.7261(2) -0.52404(16) 0.28555(15)
C123 C 0.6466(2) -0.50651(17) 0.29683(15)
C124 C 0.5866(2) -0.48873(18) 0.25547(16)
H101 H 0.5959 -0.4848 0.2170
C125 C 0.5113(2) -0.47719(17) 0.27583(15)
H102 H 0.4649 -0.4643 0.2530
C126 C 0.5119(2) -0.48657(16) 0.33263(15)
C127 C 0.8164(2) -0.57584(18) 0.66402(15)
C128 C 0.8715(2) -0.5266(2) 0.71677(16)
C129 C 0.8960(3) -0.5464(2) 0.76888(16)
H103 H 0.9338 -0.5137 0.8044
C130 C 0.8666(3) -0.6130(2) 0.77080(17)
C131 C 0.8150(3) -0.6601(2) 0.71768(17)
H104 H 0.7965 -0.7057 0.7179
C132 C 0.7895(2) -0.64273(19) 0.66410(16)
C133 C 0.9036(3) -0.4542(2) 0.71669(17)
H105 H 0.8800 -0.4493 0.6764
H106 H 0.8791 -0.4302 0.7455
H107 H 0.9727 -0.4360 0.7280
C134 C 0.7323(3) -0.6955(2) 0.60756(17)
H108 H 0.7195 -0.7393 0.6161
H109 H 0.6725 -0.6888 0.5931
H110 H 0.7677 -0.6926 0.5767
C135 C 0.8907(3) -0.6331(3) 0.82896(19)
H111 H 0.9268 -0.5934 0.8614
H112 H 0.8323 -0.6570 0.8386
H113 H 0.9285 -0.6619 0.8245
C136 C 0.7417(2) -0.52541(18) 0.22398(15)
C137 C 0.6808(2) -0.57652(18) 0.17513(16)
C138 C 0.6909(3) -0.57312(19) 0.11772(16)
H114 H 0.6495 -0.6074 0.0842
C139 C 0.7605(3) -0.5205(2) 0.10817(17)
C140 C 0.8223(3) -0.4725(2) 0.15768(17)
H115 H 0.8718 -0.4377 0.1517
C141 C 0.8147(3) -0.47326(19) 0.21630(16)
C142 C 0.8843(3) -0.4189(2) 0.26852(17)
H116 H 0.9298 -0.3879 0.2535
H117 H 0.9178 -0.4385 0.2959
H118 H 0.8504 -0.3952 0.2900
C143 C 0.6053(3) -0.63453(19) 0.18320(17)
H119 H 0.6078 -0.6296 0.2260
H120 H 0.6156 -0.6757 0.1673
H121 H 0.5433 -0.6360 0.1616
C144 C 0.7677(3) -0.5153(2) 0.04526(18)
H122 H 0.8203 -0.4754 0.0475
H123 H 0.7089 -0.5128 0.0228
H124 H 0.7787 -0.5545 0.0248
C126A C 0.4881(2) -0.51343(16) 0.66737(15)
S7A S 0.39195(6) -0.49275(4) 0.63754(4)
C123A C 0.3534(2) -0.49349(17) 0.70317(15)
C122A C 0.2739(2) -0.47596(16) 0.71445(15)
C121A C 0.2136(2) -0.46164(17) 0.67196(15)
N8A N 0.22147(19) -0.46678(14) 0.61326(12)
H4A H 0.2627 -0.4800 0.5977
C118A C 0.1550(2) -0.44789(17) 0.58563(15)
C117A C 0.1430(2) -0.44355(18) 0.52353(15)
N7A N 0.20110(19) -0.45582(15) 0.49126(13)
C114A C 0.1713(2) -0.44265(18) 0.43637(15)
C113A C 0.2170(2) -0.44501(17) 0.39106(16)
C112A C 0.3001(2) -0.46393(18) 0.39348(15)
S8A S 0.35504(6) -0.45230(4) 0.33520(4)
C109A C 0.4416(2) -0.48179(17) 0.36497(14)
C110A C 0.4266(3) -0.50044(19) 0.41673(16)
H95A H 0.4659 -0.5189 0.4392
C111A C 0.3479(3) -0.48976(19) 0.43339(16)
H96A H 0.3296 -0.4993 0.4684
C127A C 0.1836(2) -0.42416(18) 0.33598(15)
C128A C 0.1285(2) -0.4734(2) 0.28323(16)
C129A C 0.1040(3) -0.4536(2) 0.23112(16)
H103A H 0.0662 -0.4863 0.1956
C130A C 0.1334(3) -0.3870(2) 0.22920(17)
C131A C 0.1850(3) -0.3399(2) 0.28232(17)
H104A H 0.2035 -0.2943 0.2821
C132A C 0.2105(2) -0.35727(19) 0.33590(16)
C134A C 0.2677(3) -0.3045(2) 0.39244(17)
H108A H 0.2805 -0.2607 0.3839
H109A H 0.3275 -0.3112 0.4069
H110A H 0.2323 -0.3074 0.4233
C135A C 0.1093(3) -0.3669(3) 0.17104(19)
H111A H 0.0732 -0.4066 0.1386
H112A H 0.1677 -0.3430 0.1614
H113A H 0.0715 -0.3381 0.1755
C133A C 0.0964(3) -0.5458(2) 0.28331(17)
H105A H 0.1200 -0.5507 0.3236
H106A H 0.1209 -0.5698 0.2545
H107A H 0.0273 -0.5640 0.2720
C115A C 0.0899(2) -0.42181(19) 0.43623(16)
H97A H 0.0559 -0.4101 0.4041
C116A C 0.0719(2) -0.42226(19) 0.49039(16)
H98A H 0.0229 -0.4110 0.5042
C119A C 0.0993(2) -0.42966(19) 0.62559(16)
H99A H 0.0477 -0.4146 0.6157
C120A C 0.1358(2) -0.43849(18) 0.67910(16)
H100A H 0.1149 -0.4311 0.7146
C136A C 0.2583(2) -0.47459(18) 0.77602(15)
C137A C 0.3192(2) -0.42348(18) 0.82487(16)
C138A C 0.3091(3) -0.42688(19) 0.88228(16)
H114A H 0.3505 -0.3926 0.9158
C139A C 0.2395(3) -0.4795(2) 0.89183(17)
C140A C 0.1777(3) -0.5275(2) 0.84232(17)
H115A H 0.1282 -0.5623 0.8483
C141A C 0.1853(3) -0.52674(19) 0.78370(16)
C142A C 0.1157(3) -0.5811(2) 0.73148(17)
H116A H 0.0702 -0.6121 0.7465
H117A H 0.0822 -0.5615 0.7041
H118A H 0.1496 -0.6048 0.7100
C144A C 0.2323(3) -0.4847(2) 0.95474(18)
H122A H 0.1797 -0.5246 0.9525
H123A H 0.2911 -0.4872 0.9772
H124A H 0.2213 -0.4455 0.9752
C143A C 0.3947(3) -0.36547(19) 0.81680(17)
H119A H 0.3922 -0.3704 0.7740
H120A H 0.3844 -0.3243 0.8327
H121A H 0.4567 -0.3640 0.8384
C124A C 0.4134(2) -0.51127(18) 0.74453(16)
H101A H 0.4041 -0.5152 0.7830
C125A C 0.4887(2) -0.52281(17) 0.72417(15)
H102A H 0.5351 -0.5357 0.7470
C145 C 0.2111(3) -0.1057(2) 0.0120(2)
H125 H 0.2181 -0.0594 0.0109
H126 H 0.2298 -0.1068 0.0546
Cl1 Cl 0.28609(12) -0.13028(7) -0.02546(11)
Cl2 Cl 0.09356(8) -0.15499(6) -0.01793(6)
C146 C 0.0423(3) -0.6192(2) 1.04942(18)
H127 H 0.0334 -0.6656 1.0320
H128 H 0.0067 -0.6170 1.0800
H129 H 0.1095 -0.5947 1.0679
C147 C 0.0075(3) -0.5888(2) 1.00075(18)
H130 H -0.0600 -0.6145 0.9815
H131 H 0.0430 -0.5917 0.9697
C148 C 0.0189(4) -0.5160(3) 1.0251(2)
H132 H 0.0865 -0.4903 1.0437
H133 H -0.0157 -0.5132 1.0567
C148A C -0.0189(4) -0.4840(3) 0.9749(2)
C147A C -0.0075(3) -0.4112(2) 0.99925(18)
C146A C -0.0423(3) -0.3808(2) 0.95058(18)
H127A H -0.0334 -0.3344 0.9680
H128A H -0.0067 -0.3830 0.9200
H129A H -0.1095 -0.4053 0.9321
H130A H 0.0600 -0.3855 1.0185
H131A H -0.0430 -0.4083 1.0303
H132A H -0.0865 -0.5097 0.9563
H133A H 0.0157 -0.4868 0.9433
loop_
_geom_bond_atom_site_label_1
_geom_bond_atom_site_label_2
_geom_bond_site_symmetry_1
_geom_bond_site_symmetry_2
S1 C15 1_555 1_555
S2 C1 1_555 1_555
S3 C50 1_555 1_555
S4 C37 1_555 1_555
S5 C87 1_555 1_555
S6 C73 1_555 1_555
S7 C123 1_555 1_555
S8 C109 1_555 1_555
N1 C10 1_555 1_555
N2 H1 1_555 1_555
N3 C42 1_555 1_555
N4 H2 1_555 1_555
N5 H3 1_555 1_555
N6 C82 1_555 1_555
N7 C114 1_555 1_555
N8 H4 1_555 1_555
C1 C2 1_555 1_555
C2 H5 1_555 1_555
C3 C2 1_555 1_555
H6 C3 1_555 1_555
C4 S2 1_555 1_555
C5 C4 1_555 1_555
C6 N2 1_555 1_555
C7 C6 1_555 1_555
H7 C7 1_555 1_555
C8 C7 1_555 1_555
H8 C8 1_555 1_555
C9 N2 1_555 1_555
C10 C9 1_555 1_555
C11 C10 1_555 1_555
H9 C11 1_555 1_555
C12 C11 1_555 1_555
H10 C12 1_555 1_555
C13 N1 1_555 1_555
C14 C13 1_555 1_555
C15 C14 1_555 1_555
C16 C15 1_555 1_555
H11 C16 1_555 1_555
C17 C16 1_555 1_555
H12 C17 1_555 1_555
C18 S1 1_555 1_555
C19 C5 1_555 1_555
C20 C19 1_555 1_555
C21 C20 1_555 1_555
H13 C21 1_555 1_555
C22 C21 1_555 1_555
C23 C22 1_555 1_555
H14 C23 1_555 1_555
C24 C19 1_555 1_555
C25 C24 1_555 1_555
H15 C25 1_555 1_555
H16 C25 1_555 1_555
H17 C25 1_555 1_555
C26 C20 1_555 1_555
H18 C26 1_555 1_555
H19 C26 1_555 1_555
H20 C26 1_555 1_555
C27 C22 1_555 1_555
H21 C27 1_555 1_555
H22 C27 1_555 1_555
H23 C27 1_555 1_555
C28 C14 1_555 1_555
C29 C28 1_555 1_555
C30 C29 1_555 1_555
H24 C30 1_555 1_555
C31 C30 1_555 1_555
C32 C31 1_555 1_555
H25 C32 1_555 1_555
C33 C28 1_555 1_555
C34 C29 1_555 1_555
H26 C34 1_555 1_555
H27 C34 1_555 1_555
H28 C34 1_555 1_555
C35 C33 1_555 1_555
H29 C35 1_555 1_555
H30 C35 1_555 1_555
H31 C35 1_555 1_555
C36 C31 1_555 1_555
H32 C36 1_555 1_555
H33 C36 1_555 1_555
H34 C36 1_555 1_555
C37 C38 1_555 1_555
C38 H35 1_555 1_555
C39 C38 1_555 1_555
H36 C39 1_555 1_555
C40 S4 1_555 1_555
C41 C40 1_555 1_555
C42 C41 1_555 1_555
C43 C42 1_555 1_555
H37 C43 1_555 1_555
C44 C43 1_555 1_555
H38 C44 1_555 1_555
C45 N3 1_555 1_555
C46 N4 1_555 1_555
C47 C46 1_555 1_555
H39 C47 1_555 1_555
C48 C47 1_555 1_555
H40 C48 1_555 1_555
C49 N4 1_555 1_555
C50 C51 1_555 1_555
C51 H41 1_555 1_555
C52 C51 1_555 1_555
H42 C52 1_555 1_555
C53 S3 1_555 1_555
C54 C50 1_555 1_555
C55 C54 1_555 1_555
C56 C55 1_555 1_555
C57 C56 1_555 1_555
H43 C57 1_555 1_555
C58 C57 1_555 1_555
C59 C58 1_555 1_555
H44 C59 1_555 1_555
C60 C55 1_555 1_555
C61 C60 1_555 1_555
H45 C61 1_555 1_555
H46 C61 1_555 1_555
H47 C61 1_555 1_555
C62 C56 1_555 1_555
H48 C62 1_555 1_555
H49 C62 1_555 1_555
H50 C62 1_555 1_555
C63 C58 1_555 1_555
H51 C63 1_555 1_555
H52 C63 1_555 1_555
H53 C63 1_555 1_555
C64 C41 1_555 1_555
C65 C64 1_555 1_555
C66 C65 1_555 1_555
H54 C66 1_555 1_555
C67 C66 1_555 1_555
C68 C67 1_555 1_555
H55 C68 1_555 1_555
C69 C64 1_555 1_555
C70 C69 1_555 1_555
H56 C70 1_555 1_555
H57 C70 1_555 1_555
H58 C70 1_555 1_555
C71 C65 1_555 1_555
H59 C71 1_555 1_555
H60 C71 1_555 1_555
H61 C71 1_555 1_555
C72 C67 1_555 1_555
H62 C72 1_555 1_555
H63 C72 1_555 1_555
H64 C72 1_555 1_555
C73 C74 1_555 1_555
C74 H65 1_555 1_555
C75 C74 1_555 1_555
H66 C75 1_555 1_555
C76 S6 1_555 1_555
C77 C76 1_555 1_555
C78 N5 1_555 1_555
C79 C78 1_555 1_555
H67 C79 1_555 1_555
C80 C79 1_555 1_555
H68 C80 1_555 1_555
C81 N5 1_555 1_555
C82 C81 1_555 1_555
C83 C82 1_555 1_555
H69 C83 1_555 1_555
C84 C83 1_555 1_555
H70 C84 1_555 1_555
C85 N6 1_555 1_555
C86 C85 1_555 1_555
C87 C86 1_555 1_555
C88 C87 1_555 1_555
H71 C88 1_555 1_555
C89 C88 1_555 1_555
H72 C89 1_555 1_555
C90 S5 1_555 1_555
C91 C77 1_555 1_555
C92 C91 1_555 1_555
C93 C92 1_555 1_555
H73 C93 1_555 1_555
C94 C93 1_555 1_555
C95 C94 1_555 1_555
H74 C95 1_555 1_555
C96 C91 1_555 1_555
C97 C96 1_555 1_555
H75 C97 1_555 1_555
H76 C97 1_555 1_555
H77 C97 1_555 1_555
C98 C92 1_555 1_555
H78 C98 1_555 1_555
H79 C98 1_555 1_555
H80 C98 1_555 1_555
C99 C94 1_555 1_555
H81 C99 1_555 1_555
H82 C99 1_555 1_555
H83 C99 1_555 1_555
C100 C86 1_555 1_555
C101 C100 1_555 1_555
C102 C101 1_555 1_555
H84 C102 1_555 1_555
C103 C102 1_555 1_555
C104 C103 1_555 1_555
H85 C104 1_555 1_555
C105 C100 1_555 1_555
C106 C105 1_555 1_555
H86 C106 1_555 1_555
H87 C106 1_555 1_555
H88 C106 1_555 1_555
C107 C101 1_555 1_555
H89 C107 1_555 1_555
H90 C107 1_555 1_555
H91 C107 1_555 1_555
C108 C103 1_555 1_555
H92 C108 1_555 1_555
H93 C108 1_555 1_555
H94 C108 1_555 1_555
C109 C110 1_555 1_555
C110 H95 1_555 1_555
C111 C110 1_555 1_555
H96 C111 1_555 1_555
C112 S8 1_555 1_555
C113 C112 1_555 1_555
C114 C113 1_555 1_555
C115 C114 1_555 1_555
H97 C115 1_555 1_555
C116 C115 1_555 1_555
H98 C116 1_555 1_555
C117 N7 1_555 1_555
C118 N8 1_555 1_555
C119 C118 1_555 1_555
H99 C119 1_555 1_555
C120 C119 1_555 1_555
H100 C120 1_555 1_555
C121 N8 1_555 1_555
C122 C121 1_555 1_555
C123 C122 1_555 1_555
C124 C123 1_555 1_555
H101 C124 1_555 1_555
C125 C124 1_555 1_555
H102 C125 1_555 1_555
C126 S7 1_555 1_555
C127 C113 1_555 1_555
C128 C127 1_555 1_555
C129 C128 1_555 1_555
H103 C129 1_555 1_555
C130 C129 1_555 1_555
C131 C130 1_555 1_555
H104 C131 1_555 1_555
C132 C127 1_555 1_555
C133 C128 1_555 1_555
H105 C133 1_555 1_555
H106 C133 1_555 1_555
H107 C133 1_555 1_555
C134 C132 1_555 1_555
H108 C134 1_555 1_555
H109 C134 1_555 1_555
H110 C134 1_555 1_555
C135 C130 1_555 1_555
H111 C135 1_555 1_555
H112 C135 1_555 1_555
H113 C135 1_555 1_555
C136 C122 1_555 1_555
C137 C136 1_555 1_555
C138 C137 1_555 1_555
H114 C138 1_555 1_555
C139 C138 1_555 1_555
C140 C139 1_555 1_555
H115 C140 1_555 1_555
C141 C136 1_555 1_555
C142 C141 1_555 1_555
H116 C142 1_555 1_555
H117 C142 1_555 1_555
H118 C142 1_555 1_555
C143 C137 1_555 1_555
H119 C143 1_555 1_555
H120 C143 1_555 1_555
H121 C143 1_555 1_555
C144 C139 1_555 1_555
H122 C144 1_555 1_555
H123 C144 1_555 1_555
H124 C144 1_555 1_555
C145 H125 1_555 1_555
H126 C145 1_555 1_555
Cl1 C145 1_555 1_555
Cl2 C145 1_555 1_555
C146 H127 1_555 1_555
H128 C146 1_555 1_555
H129 C146 1_555 1_555
C147 C146 1_555 1_555
H130 C147 1_555 1_555
H131 C147 1_555 1_555
C148 C147 1_555 1_555
H132 C148 1_555 1_555
H133 C148 1_555 1_555
C18A C1 1_555 1_555
S1A C18A 1_555 1_555
C15A S1A 1_555 1_555
C14A C15A 1_555 1_555
C13A C14A 1_555 1_555
N1A C13A 1_555 1_555
C10A N1A 1_555 1_555
C9A C10A 1_555 1_555
N2A C9A 1_555 1_555
H1A N2A 1_555 1_555
C6A N2A 1_555 1_555
C5A C6A 1_555 1_555
C4A C5A 1_555 1_555
S2A C4A 1_555 1_555
C1A C18 1_555 1_555
C2A C1A 1_555 1_555
H5A C2A 1_555 1_555
C3A C4A 1_555 1_555
H6A C3A 1_555 1_555
C19A C5A 1_555 1_555
C20A C19A 1_555 1_555
C21A C20A 1_555 1_555
H13A C21A 1_555 1_555
C22A C21A 1_555 1_555
C23A C22A 1_555 1_555
H14A C23A 1_555 1_555
C24A C19A 1_555 1_555
C25A C24A 1_555 1_555
H15A C25A 1_555 1_555
H16A C25A 1_555 1_555
H17A C25A 1_555 1_555
C27A C22A 1_555 1_555
H21A C27A 1_555 1_555
H22A C27A 1_555 1_555
H23A C27A 1_555 1_555
C26A C20A 1_555 1_555
H18A C26A 1_555 1_555
H19A C26A 1_555 1_555
H20A C26A 1_555 1_555
C7A C6A 1_555 1_555
H7A C7A 1_555 1_555
C8A C9A 1_555 1_555
H8A C8A 1_555 1_555
C11A C10A 1_555 1_555
H9A C11A 1_555 1_555
C12A C13A 1_555 1_555
H10A C12A 1_555 1_555
C28A C14A 1_555 1_555
C29A C28A 1_555 1_555
C30A C29A 1_555 1_555
H24A C30A 1_555 1_555
C31A C30A 1_555 1_555
C32A C31A 1_555 1_555
H25A C32A 1_555 1_555
C33A C28A 1_555 1_555
C35A C33A 1_555 1_555
H29A C35A 1_555 1_555
H30A C35A 1_555 1_555
H31A C35A 1_555 1_555
C36A C31A 1_555 1_555
H32A C36A 1_555 1_555
H33A C36A 1_555 1_555
H34A C36A 1_555 1_555
C34A C29A 1_555 1_555
H26A C34A 1_555 1_555
H27A C34A 1_555 1_555
H28A C34A 1_555 1_555
C16A C15A 1_555 1_555
H11A C16A 1_555 1_555
C17A C18A 1_555 1_555
H12A C17A 1_555 1_555
C54A C49 1_555 1_555
C50A C54A 1_555 1_555
S3A C50A 1_555 1_555
C53A S3A 1_555 1_555
C37A C53A 1_555 1_555
S4A C37A 1_555 1_555
C40A S4A 1_555 1_555
C39A C40A 1_555 1_555
C38A C37A 1_555 1_555
H35A C38A 1_555 1_555
H36A C39A 1_555 1_555
C41A C40A 1_555 1_555
C42A C41A 1_555 1_555
N3A C42A 1_555 1_555
C45A N3A 1_555 1_555
C44A C45A 1_555 1_555
C43A C42A 1_555 1_555
H37A C43A 1_555 1_555
H38A C44A 1_555 1_555
C46A C45A 1_555 1_555
N4A C46A 1_555 1_555
H2A N4A 1_555 1_555
C49A C54 1_555 1_555
C48A C49A 1_555 1_555
C47A C46A 1_555 1_555
H39A C47A 1_555 1_555
H40A C48A 1_555 1_555
C64A C41A 1_555 1_555
C65A C64A 1_555 1_555
C66A C65A 1_555 1_555
H54A C66A 1_555 1_555
C67A C66A 1_555 1_555
C68A C67A 1_555 1_555
H55A C68A 1_555 1_555
C69A C64A 1_555 1_555
C70A C69A 1_555 1_555
H56A C70A 1_555 1_555
H57A C70A 1_555 1_555
H58A C70A 1_555 1_555
C72A C67A 1_555 1_555
H62A C72A 1_555 1_555
H63A C72A 1_555 1_555
H64A C72A 1_555 1_555
C71A C65A 1_555 1_555
H59A C71A 1_555 1_555
H60A C71A 1_555 1_555
H61A C71A 1_555 1_555
C52A C53A 1_555 1_555
C51A C50A 1_555 1_555
H41A C51A 1_555 1_555
H42A C52A 1_555 1_555
C55A C54A 1_555 1_555
C56A C55A 1_555 1_555
C57A C56A 1_555 1_555
H43A C57A 1_555 1_555
C58A C57A 1_555 1_555
C59A C58A 1_555 1_555
H44A C59A 1_555 1_555
C60A C55A 1_555 1_555
C61A C60A 1_555 1_555
H45A C61A 1_555 1_555
H46A C61A 1_555 1_555
H47A C61A 1_555 1_555
C63A C58A 1_555 1_555
H51A C63A 1_555 1_555
H52A C63A 1_555 1_555
H53A C63A 1_555 1_555
C62A C56A 1_555 1_555
H48A C62A 1_555 1_555
H49A C62A 1_555 1_555
H50A C62A 1_555 1_555
C90A C73 1_555 1_555
S5A C90A 1_555 1_555
C87A S5A 1_555 1_555
C86A C87A 1_555 1_555
C85A C86A 1_555 1_555
N6A C85A 1_555 1_555
C82A N6A 1_555 1_555
C81A C82A 1_555 1_555
N5A C81A 1_555 1_555
H3A N5A 1_555 1_555
C78A N5A 1_555 1_555
C77A C78A 1_555 1_555
C76A C77A 1_555 1_555
S6A C76A 1_555 1_555
C73A C90 1_555 1_555
C74A C73A 1_555 1_555
H65A C74A 1_555 1_555
C75A C76A 1_555 1_555
H66A C75A 1_555 1_555
C91A C77A 1_555 1_555
C92A C91A 1_555 1_555
C93A C92A 1_555 1_555
H73A C93A 1_555 1_555
C94A C93A 1_555 1_555
C95A C94A 1_555 1_555
H74A C95A 1_555 1_555
C96A C91A 1_555 1_555
C97A C96A 1_555 1_555
H75A C97A 1_555 1_555
H76A C97A 1_555 1_555
H77A C97A 1_555 1_555
C99A C94A 1_555 1_555
H81A C99A 1_555 1_555
H82A C99A 1_555 1_555
H83A C99A 1_555 1_555
C98A C92A 1_555 1_555
H78A C98A 1_555 1_555
H79A C98A 1_555 1_555
H80A C98A 1_555 1_555
C79A C78A 1_555 1_555
H67A C79A 1_555 1_555
C80A C81A 1_555 1_555
H68A C80A 1_555 1_555
C83A C82A 1_555 1_555
H69A C83A 1_555 1_555
C84A C85A 1_555 1_555
H70A C84A 1_555 1_555
C100A C86A 1_555 1_555
C101A C100A 1_555 1_555
C102A C101A 1_555 1_555
H84A C102A 1_555 1_555
C103A C102A 1_555 1_555
C104A C103A 1_555 1_555
H85A C104A 1_555 1_555
C105A C100A 1_555 1_555
C106A C105A 1_555 1_555
H86A C106A 1_555 1_555
H87A C106A 1_555 1_555
H88A C106A 1_555 1_555
C108A C103A 1_555 1_555
H92A C108A 1_555 1_555
H93A C108A 1_555 1_555
H94A C108A 1_555 1_555
C107A C101A 1_555 1_555
H89A C107A 1_555 1_555
H90A C107A 1_555 1_555
H91A C107A 1_555 1_555
C88A C87A 1_555 1_555
H71A C88A 1_555 1_555
C89A C90A 1_555 1_555
H72A C89A 1_555 1_555
C126A C109 1_555 1_555
S7A C126A 1_555 1_555
C123A S7A 1_555 1_555
C122A C123A 1_555 1_555
C121A C122A 1_555 1_555
N8A C121A 1_555 1_555
H4A N8A 1_555 1_555
C118A N8A 1_555 1_555
C117A C118A 1_555 1_555
N7A C117A 1_555 1_555
C114A N7A 1_555 1_555
C113A C114A 1_555 1_555
C112A C113A 1_555 1_555
S8A C112A 1_555 1_555
C109A C126 1_555 1_555
C110A C109A 1_555 1_555
H95A C110A 1_555 1_555
C111A C112A 1_555 1_555
H96A C111A 1_555 1_555
C127A C113A 1_555 1_555
C128A C127A 1_555 1_555
C129A C128A 1_555 1_555
H103A C129A 1_555 1_555
C130A C129A 1_555 1_555
C131A C130A 1_555 1_555
H104A C131A 1_555 1_555
C132A C127A 1_555 1_555
C134A C132A 1_555 1_555
H108A C134A 1_555 1_555
H109A C134A 1_555 1_555
H110A C134A 1_555 1_555
C135A C130A 1_555 1_555
H111A C135A 1_555 1_555
H112A C135A 1_555 1_555
H113A C135A 1_555 1_555
C133A C128A 1_555 1_555
H105A C133A 1_555 1_555
H106A C133A 1_555 1_555
H107A C133A 1_555 1_555
C115A C114A 1_555 1_555
H97A C115A 1_555 1_555
C116A C117A 1_555 1_555
H98A C116A 1_555 1_555
C119A C118A 1_555 1_555
H99A C119A 1_555 1_555
C120A C121A 1_555 1_555
H100A C120A 1_555 1_555
C136A C122A 1_555 1_555
C137A C136A 1_555 1_555
C138A C137A 1_555 1_555
H114A C138A 1_555 1_555
C139A C138A 1_555 1_555
C140A C139A 1_555 1_555
H115A C140A 1_555 1_555
C141A C136A 1_555 1_555
C142A C141A 1_555 1_555
H116A C142A 1_555 1_555
H117A C142A 1_555 1_555
H118A C142A 1_555 1_555
C144A C139A 1_555 1_555
H122A C144A 1_555 1_555
H123A C144A 1_555 1_555
H124A C144A 1_555 1_555
C143A C137A 1_555 1_555
H119A C143A 1_555 1_555
H120A C143A 1_555 1_555
H121A C143A 1_555 1_555
C124A C123A 1_555 1_555
H101A C124A 1_555 1_555
C125A C126A 1_555 1_555
H102A C125A 1_555 1_555
C148A C148 1_555 1_555
C147A C148A 1_555 1_555
C146A C147A 1_555 1_555
H127A C146A 1_555 1_555
H128A C146A 1_555 1_555
H129A C146A 1_555 1_555
H130A C147A 1_555 1_555
H131A C147A 1_555 1_555
H132A C148A 1_555 1_555
H133A C148A 1_555 1_555
C3 C4 1_555 1_555
C5 C6 1_555 1_555
C8 C9 1_555 1_555
C12 C13 1_555 1_555
C17 C18 1_555 1_555
C23 C24 1_555 1_555
C32 C33 1_555 1_555
C37 C53 1_555 1_555
C39 C40 1_555 1_555
C44 C45 1_555 1_555
C45 C46 1_555 1_555
C48 C49 1_555 1_555
C52 C53 1_555 1_555
C59 C60 1_555 1_555
C68 C69 1_555 1_555
C75 C76 1_555 1_555
C77 C78 1_555 1_555
C80 C81 1_555 1_555
C84 C85 1_555 1_555
C89 C90 1_555 1_555
C95 C96 1_555 1_555
C104 C105 1_555 1_555
C111 C112 1_555 1_555
C116 C117 1_555 1_555
C117 C118 1_555 1_555
C120 C121 1_555 1_555
C125 C126 1_555 1_555
C131 C132 1_555 1_555
C140 C141 1_555 1_555
S2A C1A 1_555 1_555
C2A C3A 1_555 1_555
C23A C24A 1_555 1_555
C7A C8A 1_555 1_555
C11A C12A 1_555 1_555
C32A C33A 1_555 1_555
C16A C17A 1_555 1_555
C39A C38A 1_555 1_555
C44A C43A 1_555 1_555
N4A C49A 1_555 1_555
C48A C47A 1_555 1_555
C68A C69A 1_555 1_555
C52A C51A 1_555 1_555
C59A C60A 1_555 1_555
S6A C73A 1_555 1_555
C74A C75A 1_555 1_555
C95A C96A 1_555 1_555
C79A C80A 1_555 1_555
C83A C84A 1_555 1_555
C104A C105A 1_555 1_555
C88A C89A 1_555 1_555
S8A C109A 1_555 1_555
C110A C111A 1_555 1_555
C131A C132A 1_555 1_555
C115A C116A 1_555 1_555
C119A C120A 1_555 1_555
C140A C141A 1_555 1_555
C124A C125A 1_555 1_555

#END
