
#######################################################################
#
#                 Cambridge Crystallographic Data Centre
#                                CCDC 
#
#######################################################################
#
# If this CIF has been generated from an entry in the Cambridge 
# Structural Database, then it will include bibliographic, chemical, 
# crystal, experimental, refinement or atomic coordinate data resulting 
# from the CCDC's data processing and validation procedures.
#
#######################################################################

data_QUMGEM
_chemical_formula_moiety         'C17 H24 B10 N2'
_chemical_name_systematic        
1-((9-ethyl-9H-carbazol-3-yl)methyleneamino)-1,2-dicarba-closo-dodecaborane
_symmetry_cell_setting           triclinic
_symmetry_space_group_name_H-M   'P -1'
_symmetry_Int_Tables_number      2
_space_group_name_Hall           '-P 1'
loop_
_symmetry_equiv_pos_site_id
_symmetry_equiv_pos_as_xyz
1 x,y,z
2 -x,-y,-z
_cell_length_a                   7.3455(4)
_cell_length_b                   10.9950(8)
_cell_length_c                   13.0177(6)
_cell_angle_alpha                96.122(5)
_cell_angle_beta                 92.936(4)
_cell_angle_gamma                105.318(5)
_cell_volume                     1004.76
_exptl_crystal_colour            colorless
_cell_formula_units_Z            2
loop_
_atom_site_label
_atom_site_type_symbol
_atom_site_fract_x
_atom_site_fract_y
_atom_site_fract_z
N1 N 0.4090(2) 0.76835(15) 0.81384(11)
N2 N -0.0713(2) 0.63599(14) 1.19994(11)
C1 C 0.1526(2) 0.74882(16) 0.97723(12)
H1 H 0.1441 0.8088 0.9332
C2 C 0.0380(2) 0.73027(15) 1.05857(12)
C3 C 0.4089(2) 0.69145(18) 0.87976(14)
H2 H 0.4946 0.6425 0.8752
C4 C 0.5448(2) 0.77732(16) 0.73786(13)
C5 C 0.0556(2) 0.63994(16) 1.12567(13)
C6 C 0.5276(2) 0.88035(17) 0.65800(14)
H3 H 0.4187 0.9321 0.6662
C7 C -0.1118(2) 0.78303(15) 1.09584(12)
C8 C 0.2817(2) 0.67588(17) 0.96216(13)
C9 C -0.1737(2) 0.72228(16) 1.18284(13)
C10 C -0.3211(2) 0.74943(18) 1.23685(14)
H4 H -0.3609 0.7100 1.2947
C11 C -0.4047(3) 0.83654(18) 1.20111(15)
H5 H -0.5041 0.8553 1.2352
C12 C 0.2917(3) 0.58591(19) 1.02872(15)
H6 H 0.3761 0.5371 1.0167
C13 C -0.3454(3) 0.89757(18) 1.11564(15)
H7 H -0.4048 0.9564 1.0938
C14 C -0.1988(2) 0.87168(16) 1.06281(14)
H8 H -0.1588 0.9130 1.0059
B1 B 0.6149(3) 0.65554(19) 0.67402(15)
H9 H 0.5727 0.5569 0.6920
C15 C 0.1828(3) 0.56637(19) 1.11080(15)
H10 H 0.1931 0.5067 1.1547
C16 C -0.0804(3) 0.56261(18) 1.28701(14)
H11 H -0.0728 0.4778 1.2623
H12 H -0.2015 0.5546 1.3159
B2 B 0.7762(3) 0.7777(2) 0.75908(17)
H13 H 0.8384 0.7579 0.8320
B3 B 0.4523(3) 0.7224(2) 0.61141(15)
H14 H 0.3041 0.6687 0.5889
B4 B 0.8436(3) 0.7272(2) 0.63678(17)
H15 H 0.9520 0.6750 0.6295
B5 B 0.8218(3) 0.8391(2) 0.55101(18)
H16 H 0.9154 0.8597 0.4880
B6 B 0.7146(3) 0.9217(2) 0.75026(18)
H17 H 0.7347 0.9959 0.8168
B7 B 0.5804(3) 0.8364(2) 0.53646(17)
H18 H 0.5152 0.8566 0.4645
B8 B 0.6424(3) 0.6928(2) 0.54557(16)
H19 H 0.6194 0.6182 0.4791
B9 B 0.9047(3) 0.8920(2) 0.68402(19)
H20 H 1.0519 0.9471 0.7075
B10 B 0.7407(3) 0.9584(2) 0.6218(2)
H21 H 0.7789 1.0575 0.6049
C17 C 0.0764(3) 0.6221(2) 1.37133(16)
H22 H 0.1967 0.6264 1.3441
H23 H 0.0621 0.5715 1.4276
H24 H 0.0702 0.7063 1.3959
loop_
_geom_bond_atom_site_label_1
_geom_bond_atom_site_label_2
_geom_bond_site_symmetry_1
_geom_bond_site_symmetry_2
N1 C3 1_555 1_555
N2 C5 1_555 1_555
C1 H1 1_555 1_555
C2 C1 1_555 1_555
C3 H2 1_555 1_555
C4 N1 1_555 1_555
C5 C2 1_555 1_555
C6 C4 1_555 1_555
H3 C6 1_555 1_555
C7 C2 1_555 1_555
C8 C1 1_555 1_555
C9 N2 1_555 1_555
C10 C9 1_555 1_555
H4 C10 1_555 1_555
C11 C10 1_555 1_555
H5 C11 1_555 1_555
C12 C8 1_555 1_555
H6 C12 1_555 1_555
C13 C11 1_555 1_555
H7 C13 1_555 1_555
C14 C7 1_555 1_555
H8 C14 1_555 1_555
B1 C4 1_555 1_555
H9 B1 1_555 1_555
C15 C5 1_555 1_555
H10 C15 1_555 1_555
C16 N2 1_555 1_555
H11 C16 1_555 1_555
H12 C16 1_555 1_555
B2 C4 1_555 1_555
H13 B2 1_555 1_555
B3 C4 1_555 1_555
H14 B3 1_555 1_555
B4 B1 1_555 1_555
H15 B4 1_555 1_555
B5 B4 1_555 1_555
H16 B5 1_555 1_555
B6 C4 1_555 1_555
H17 B6 1_555 1_555
B7 C6 1_555 1_555
H18 B7 1_555 1_555
B8 B1 1_555 1_555
H19 B8 1_555 1_555
B9 B2 1_555 1_555
H20 B9 1_555 1_555
B10 C6 1_555 1_555
H21 B10 1_555 1_555
C17 C16 1_555 1_555
H22 C17 1_555 1_555
H23 C17 1_555 1_555
H24 C17 1_555 1_555
C3 C8 1_555 1_555
C6 B3 1_555 1_555
C6 B6 1_555 1_555
C7 C9 1_555 1_555
C12 C15 1_555 1_555
C13 C14 1_555 1_555
B1 B2 1_555 1_555
B1 B3 1_555 1_555
B2 B4 1_555 1_555
B2 B6 1_555 1_555
B3 B7 1_555 1_555
B3 B8 1_555 1_555
B4 B8 1_555 1_555
B4 B9 1_555 1_555
B5 B7 1_555 1_555
B5 B8 1_555 1_555
B5 B9 1_555 1_555
B5 B10 1_555 1_555
B6 B9 1_555 1_555
B6 B10 1_555 1_555
B7 B8 1_555 1_555
B7 B10 1_555 1_555
B9 B10 1_555 1_555

#END
