
#######################################################################
#
#                 Cambridge Crystallographic Data Centre
#                                CCDC 
#
#######################################################################
#
# If this CIF has been generated from an entry in the Cambridge 
# Structural Database, then it will include bibliographic, chemical, 
# crystal, experimental, refinement or atomic coordinate data resulting 
# from the CCDC's data processing and validation procedures.
#
#######################################################################

data_QUMGIQ
_chemical_formula_moiety         'C9 H17 B10 N1 O1'
_chemical_name_systematic        
1-((2-hydroxyphenyl)methyleneamino)-1,2-dicarba-closo-dodecaborane
_symmetry_cell_setting           triclinic
_symmetry_space_group_name_H-M   'P -1'
_symmetry_Int_Tables_number      2
_space_group_name_Hall           '-P 1'
loop_
_symmetry_equiv_pos_site_id
_symmetry_equiv_pos_as_xyz
1 x,y,z
2 -x,-y,-z
_cell_length_a                   11.2511(10)
_cell_length_b                   12.3949(13)
_cell_length_c                   12.5499(13)
_cell_angle_alpha                67.370(10)
_cell_angle_beta                 79.495(8)
_cell_angle_gamma                69.987(9)
_cell_volume                     1515.28
_exptl_crystal_colour            colorless
_cell_formula_units_Z            4
loop_
_atom_site_label
_atom_site_type_symbol
_atom_site_fract_x
_atom_site_fract_y
_atom_site_fract_z
O1 O 0.36805(16) 0.07671(13) 0.57077(12)
H1 H 0.3359 0.0904 0.6302
N1 N 0.21678(15) 0.20332(14) 0.69464(13)
C1 C 0.1970(2) 0.3558(2) 0.28280(19)
H2 H 0.1583 0.4169 0.2173
C2 C 0.1589(2) 0.3656(2) 0.38989(18)
H3 H 0.0951 0.4346 0.3962
C3 C 0.2933(2) 0.2541(2) 0.27342(18)
H4 H 0.3200 0.2476 0.2009
C4 C 0.17101(18) 0.21937(16) 0.80269(16)
C5 C 0.3503(2) 0.16263(19) 0.36964(17)
H5 H 0.4155 0.0951 0.3620
C6 C 0.21436(18) 0.27374(17) 0.48955(16)
C7 C 0.31062(19) 0.17089(17) 0.47786(16)
C8 C 0.24160(19) 0.10233(17) 0.91187(16)
H6 H 0.3145 0.0230 0.8967
C9 C 0.16995(19) 0.28608(17) 0.60109(16)
H7 H 0.1057 0.3559 0.6049
B1 B 0.1056(3) 0.2079(2) 1.0690(2)
H8 H 0.0831 0.2047 1.1590
B2 B 0.2616(3) 0.1455(2) 1.0178(2)
H9 H 0.3418 0.0999 1.0742
B3 B 0.1909(3) 0.3068(2) 0.9682(2)
H10 H 0.2239 0.3676 0.9927
B4 B 0.2812(2) 0.2347(2) 0.8707(2)
H11 H 0.3736 0.2467 0.8309
B5 B 0.1356(3) 0.3522(2) 0.8290(2)
H12 H 0.1332 0.4418 0.7620
B6 B 0.0171(2) 0.2816(2) 0.8427(2)
H13 H -0.0616 0.3256 0.7848
B7 B 0.0275(3) 0.3352(2) 0.9516(2)
H14 H -0.0460 0.4147 0.9656
B8 B 0.1443(3) 0.0753(2) 1.0319(2)
H15 H 0.1488 -0.0157 1.0973
B9 B 0.0888(2) 0.1202(2) 0.8928(2)
H16 H 0.0580 0.0591 0.8670
B10 B -0.0011(3) 0.1918(2) 0.9912(2)
H17 H -0.0927 0.1777 1.0309
N2 N 0.67240(15) 0.25365(14) 0.26702(13)
O2 O 0.60242(16) 0.13861(13) 0.16377(12)
H18 H 0.6162 0.1511 0.2193
C10 C 0.5823(2) 0.3312(2) -0.13780(19)
H19 H 0.5610 0.3305 -0.2057
C11 C 0.6193(2) 0.4276(2) -0.14104(19)
H20 H 0.6233 0.4912 -0.2105
C12 C 0.67941(19) 0.33712(18) 0.16830(16)
H21 H 0.7073 0.4015 0.1634
C13 C 0.71035(19) 0.25938(17) 0.36647(16)
C14 C 0.5764(2) 0.2363(2) -0.03610(19)
H22 H 0.5512 0.1721 -0.0356
C15 C 0.60785(18) 0.23591(18) 0.06566(17)
C16 C 0.64499(18) 0.33351(18) 0.06450(16)
C17 C 0.6872(2) 0.15014(18) 0.48614(17)
H23 H 0.6443 0.0835 0.4840
B11 B 0.7856(3) 0.2282(2) 0.6163(2)
H24 H 0.8111 0.2181 0.7009
C18 C 0.6503(2) 0.4289(2) -0.04058(18)
H25 H 0.6750 0.4940 -0.0425
B12 B 0.8441(2) 0.2920(2) 0.3712(2)
H26 H 0.9067 0.3233 0.2954
B13 B 0.6495(3) 0.1961(3) 0.6017(2)
H27 H 0.5861 0.1635 0.6762
B14 B 0.8020(3) 0.0995(2) 0.5792(2)
H28 H 0.8368 0.0048 0.6392
B15 B 0.6546(3) 0.3500(2) 0.5448(2)
H29 H 0.5951 0.4189 0.5827
B16 B 0.6907(2) 0.3892(2) 0.39359(19)
H30 H 0.6544 0.4828 0.3322
B17 B 0.9030(3) 0.1919(2) 0.5086(2)
H31 H 1.0048 0.1580 0.5230
B18 B 0.8119(3) 0.3472(2) 0.4875(2)
H32 H 0.8548 0.4143 0.4884
B19 B 0.8390(2) 0.1384(2) 0.4286(2)
H33 H 0.8970 0.0694 0.3901
B20 B 0.5897(2) 0.2964(2) 0.46517(19)
H34 H 0.4880 0.3286 0.4503
loop_
_geom_bond_atom_site_label_1
_geom_bond_atom_site_label_2
_geom_bond_site_symmetry_1
_geom_bond_site_symmetry_2
O1 H1 1_555 1_555
N1 C4 1_555 1_555
C1 H2 1_555 1_555
C2 C1 1_555 1_555
H3 C2 1_555 1_555
C3 C1 1_555 1_555
H4 C3 1_555 1_555
C4 C8 1_555 1_555
C5 C3 1_555 1_555
H5 C5 1_555 1_555
C6 C2 1_555 1_555
C7 O1 1_555 1_555
C8 H6 1_555 1_555
C9 N1 1_555 1_555
H7 C9 1_555 1_555
B1 H8 1_555 1_555
B2 C8 1_555 1_555
H9 B2 1_555 1_555
B3 B1 1_555 1_555
H10 B3 1_555 1_555
B4 C4 1_555 1_555
H11 B4 1_555 1_555
B5 C4 1_555 1_555
H12 B5 1_555 1_555
B6 C4 1_555 1_555
H13 B6 1_555 1_555
B7 B1 1_555 1_555
H14 B7 1_555 1_555
B8 C8 1_555 1_555
H15 B8 1_555 1_555
B9 C4 1_555 1_555
H16 B9 1_555 1_555
B10 B1 1_555 1_555
H17 B10 1_555 1_555
N2 C12 1_555 1_555
O2 H18 1_555 1_555
C10 H19 1_555 1_555
C11 C10 1_555 1_555
H20 C11 1_555 1_555
C12 H21 1_555 1_555
C13 N2 1_555 1_555
C14 C10 1_555 1_555
H22 C14 1_555 1_555
C15 O2 1_555 1_555
C16 C12 1_555 1_555
C17 C13 1_555 1_555
H23 C17 1_555 1_555
B11 H24 1_555 1_555
C18 C11 1_555 1_555
H25 C18 1_555 1_555
B12 C13 1_555 1_555
H26 B12 1_555 1_555
B13 C17 1_555 1_555
H27 B13 1_555 1_555
B14 C17 1_555 1_555
H28 B14 1_555 1_555
B15 B11 1_555 1_555
H29 B15 1_555 1_555
B16 C13 1_555 1_555
H30 B16 1_555 1_555
B17 B11 1_555 1_555
H31 B17 1_555 1_555
B18 B11 1_555 1_555
H32 B18 1_555 1_555
B19 C13 1_555 1_555
H33 B19 1_555 1_555
B20 C13 1_555 1_555
H34 B20 1_555 1_555
C5 C7 1_555 1_555
C6 C7 1_555 1_555
C6 C9 1_555 1_555
C8 B4 1_555 1_555
C8 B9 1_555 1_555
B1 B2 1_555 1_555
B1 B8 1_555 1_555
B2 B3 1_555 1_555
B2 B4 1_555 1_555
B2 B8 1_555 1_555
B3 B4 1_555 1_555
B3 B5 1_555 1_555
B3 B7 1_555 1_555
B4 B5 1_555 1_555
B5 B6 1_555 1_555
B5 B7 1_555 1_555
B6 B7 1_555 1_555
B6 B9 1_555 1_555
B6 B10 1_555 1_555
B7 B10 1_555 1_555
B8 B9 1_555 1_555
B8 B10 1_555 1_555
B9 B10 1_555 1_555
C14 C15 1_555 1_555
C15 C16 1_555 1_555
C16 C18 1_555 1_555
C17 B19 1_555 1_555
C17 B20 1_555 1_555
B11 B13 1_555 1_555
B11 B14 1_555 1_555
B12 B16 1_555 1_555
B12 B17 1_555 1_555
B12 B18 1_555 1_555
B12 B19 1_555 1_555
B13 B14 1_555 1_555
B13 B15 1_555 1_555
B13 B20 1_555 1_555
B14 B17 1_555 1_555
B14 B19 1_555 1_555
B15 B16 1_555 1_555
B15 B18 1_555 1_555
B15 B20 1_555 1_555
B16 B18 1_555 1_555
B16 B20 1_555 1_555
B17 B18 1_555 1_555
B17 B19 1_555 1_555

#END
