
#######################################################################
#
#                 Cambridge Crystallographic Data Centre
#                                CCDC 
#
#######################################################################
#
# If this CIF has been generated from an entry in the Cambridge 
# Structural Database, then it will include bibliographic, chemical, 
# crystal, experimental, refinement or atomic coordinate data resulting 
# from the CCDC's data processing and validation procedures.
#
#######################################################################

data_QUMHUC
_chemical_formula_moiety         'C53 H39 Cl4 N5 O9,0.5(C1 H1 Cl3)'
_chemical_name_systematic        
'4,19,25,40-Tetrachloro-47,47,49,49-tetramethoxy-44-(4-methoxyphenyl)-46,48-dioxa-6,17,27,38,44-pentaazapentadecacyclo[20.20.3.1^2,21^.1^4,19^.1^23,42^.1^25,40^.0^1,22^.0^3,20^.0^5,18^.0^7,16^.0^9,14^.0^24,41^.0^26,39^.0^28,37^.0^30,35^]nonatetraconta-5,7,9,11,13,15,17,26,28,30,32,34,36,38-tetradecaene-43,45-dione chloroform solvate'
_symmetry_cell_setting           triclinic
_symmetry_space_group_name_H-M   'P -1'
_symmetry_Int_Tables_number      2
_space_group_name_Hall           '-P 1'
loop_
_symmetry_equiv_pos_site_id
_symmetry_equiv_pos_as_xyz
1 x,y,z
2 -x,-y,-z
_cell_length_a                   12.7563(19)
_cell_length_b                   15.381(2)
_cell_length_c                   29.160(5)
_cell_angle_alpha                75.987(3)
_cell_angle_beta                 80.798(3)
_cell_angle_gamma                73.191(3)
_cell_volume                     5288.94
_cell_formula_units_Z            4
loop_
_atom_site_label
_atom_site_type_symbol
_atom_site_fract_x
_atom_site_fract_y
_atom_site_fract_z
Cl1 Cl 0.6586(2) -0.04109(16) 0.02841(8)
Cl2 Cl 0.40091(19) -0.10126(15) 0.20263(8)
Cl3 Cl 0.33304(19) 0.46197(14) 0.22651(8)
Cl4 Cl 0.5990(2) 0.52832(15) 0.05597(8)
O1 O -0.0561(8) 0.3458(8) 0.0085(3)
O2 O 0.4557(5) 0.2806(4) 0.0220(2)
O3 O 0.2590(5) 0.2322(4) 0.1667(2)
O4 O 0.6174(5) 0.0907(3) 0.1486(2)
O5 O 0.6007(5) 0.2658(3) 0.15585(19)
O6 O 0.5413(5) -0.1878(4) 0.11808(19)
O7 O 0.4236(6) -0.0535(4) 0.0806(2)
O8 O 0.4757(5) 0.6025(4) 0.14488(19)
O9 O 0.3434(5) 0.5570(4) 0.1163(2)
N1 N 0.5903(7) 0.3893(5) 0.2335(3)
N2 N 0.7291(7) 0.4187(5) 0.1454(3)
N3 N 0.6478(6) -0.1224(4) 0.2099(3)
N4 N 0.7848(8) -0.0942(5) 0.1208(3)
N5 N 0.3339(7) 0.2645(5) 0.0892(3)
C1 C 0.5114(8) -0.0923(6) 0.1085(3)
C2 C 0.4943(7) -0.0594(6) 0.1566(3)
C3 C 0.4626(7) 0.0473(5) 0.1400(3)
H1 H 0.3838 0.0730 0.1365
C4 C 0.5057(7) 0.1003(5) 0.1679(3)
H2 H 0.4956 0.0799 0.2025
C5 C 0.4554(8) 0.2063(5) 0.1493(3)
C6 C 0.4880(7) 0.2717(6) 0.1741(3)
H3 H 0.4773 0.2552 0.2089
C7 C 0.4280(7) 0.3744(5) 0.1531(3)
H4 H 0.3510 0.3820 0.1488
C8 C 0.4415(7) 0.4457(6) 0.1791(3)
C9 C 0.4402(9) 0.5299(6) 0.1360(3)
C10 C 0.5441(7) 0.4706(5) 0.1102(3)
C11 C 0.4994(7) 0.3909(5) 0.1054(3)
H5 H 0.4554 0.4089 0.0784
C12 C 0.5810(7) 0.2959(5) 0.1066(3)
H6 H 0.6481 0.2978 0.0851
C13 C 0.5214(7) 0.2238(5) 0.0994(3)
C14 C 0.6011(7) 0.1247(6) 0.0995(3)
H7 H 0.6691 0.1244 0.0783
C15 C 0.5357(7) 0.0611(6) 0.0912(3)
H8 H 0.4905 0.0909 0.0646
C16 C 0.5999(8) -0.0378(6) 0.0878(3)
C17 C 0.6096(9) -0.0915(5) 0.1690(3)
C18 C 0.7632(9) -0.1384(6) 0.2091(4)
C19 C 0.8110(9) -0.1676(6) 0.2508(3)
H9 H 0.7684 -0.1772 0.2796
C20 C 0.9245(10) -0.1829(7) 0.2495(5)
C21 C 0.9708(12) -0.2110(9) 0.2938(5)
H10 H 0.9263 -0.2209 0.3221
C22 C 1.0825(15) -0.2234(9) 0.2945(5)
H11 H 1.1146 -0.2422 0.3230
C23 C 1.1456(12) -0.2068(10) 0.2511(7)
H12 H 1.2198 -0.2114 0.2513
C24 C 1.1035(13) -0.1843(10) 0.2084(6)
H13 H 1.1512 -0.1793 0.1808
C25 C 0.9891(12) -0.1681(8) 0.2045(6)
C26 C 0.9393(11) -0.1392(7) 0.1630(4)
H14 H 0.9808 -0.1291 0.1339
C27 C 0.8303(10) -0.1258(6) 0.1648(4)
C28 C 0.6784(10) -0.0785(5) 0.1245(3)
C29 C 0.6244(9) 0.4360(5) 0.1483(3)
C30 C 0.7719(10) 0.3875(7) 0.1884(4)
C31 C 0.8830(10) 0.3727(7) 0.1891(4)
H15 H 0.9268 0.3824 0.1606
C32 C 0.9301(10) 0.3445(7) 0.2302(5)
C33 C 1.0434(11) 0.3351(8) 0.2336(5)
H16 H 1.0881 0.3448 0.2054
C34 C 1.0914(11) 0.3130(9) 0.2747(7)
H17 H 1.1655 0.3091 0.2748
C35 C 1.0232(14) 0.2963(8) 0.3170(6)
H18 H 1.0542 0.2798 0.3457
C36 C 0.9133(13) 0.3032(8) 0.3181(5)
H19 H 0.8713 0.2914 0.3469
C37 C 0.8643(10) 0.3285(7) 0.2747(4)
C38 C 0.7527(9) 0.3421(6) 0.2746(4)
H20 H 0.7098 0.3304 0.3032
C39 C 0.7043(10) 0.3724(6) 0.2331(4)
C40 C 0.5539(8) 0.4218(6) 0.1918(4)
C41 C 0.4384(8) 0.2606(5) 0.0641(3)
C42 C 0.3402(9) 0.2340(5) 0.1384(3)
C43 C 0.2342(10) 0.2909(8) 0.0677(3)
C44 C 0.2217(10) 0.2411(8) 0.0364(4)
H21 H 0.2808 0.1927 0.0293
C45 C 0.1261(11) 0.2591(9) 0.0148(5)
H22 H 0.1199 0.2258 -0.0069
C46 C 0.0394(11) 0.3313(12) 0.0282(4)
C47 C 0.0483(11) 0.3824(9) 0.0603(4)
H23 H -0.0113 0.4292 0.0688
C48 C 0.1469(12) 0.3622(8) 0.0792(4)
H24 H 0.1549 0.3969 0.0999
C49 C -0.1525(9) 0.4114(12) 0.0236(4)
H25 H -0.1862 0.3829 0.0530
H26 H -0.2035 0.4313 -0.0001
H27 H -0.1325 0.4641 0.0281
C50 C 0.5801(8) -0.2299(6) 0.0775(3)
H28 H 0.5352 -0.1965 0.0521
H29 H 0.5761 -0.2933 0.0859
H30 H 0.6550 -0.2281 0.0675
C51 C 0.3263(8) -0.0868(7) 0.0948(3)
H31 H 0.3471 -0.1523 0.1078
H32 H 0.2865 -0.0751 0.0677
H33 H 0.2806 -0.0552 0.1185
C52 C 0.4066(8) 0.6520(6) 0.1797(3)
H34 H 0.4207 0.7117 0.1752
H35 H 0.4225 0.6172 0.2110
H36 H 0.3307 0.6601 0.1760
C53 C 0.3321(8) 0.6320(6) 0.0752(3)
H37 H 0.3942 0.6188 0.0522
H38 H 0.3286 0.6886 0.0845
H39 H 0.2658 0.6387 0.0616
Cl5 Cl 0.7157(2) 0.47676(16) 0.44127(9)
Cl6 Cl 0.3801(2) 0.56932(16) 0.32020(8)
Cl7 Cl 0.34969(19) 1.15194(15) 0.28546(8)
Cl8 Cl 0.5753(2) 1.06940(18) 0.44805(8)
O10 O 0.6140(5) 0.7272(3) 0.33697(18)
O11 O 0.5994(5) 0.9046(3) 0.33842(19)
O12 O -0.0220(9) 0.8415(8) 0.5626(4)
O13 O 0.4642(5) 1.2236(4) 0.3661(2)
O14 O 0.3316(5) 1.1440(4) 0.3970(2)
O15 O 0.4627(6) 0.4916(4) 0.4330(2)
O16 O 0.5638(5) 0.4091(4) 0.3752(2)
O17 O 0.2554(6) 0.8683(4) 0.3654(2)
O18 O 0.4846(5) 0.7697(4) 0.4846(2)
N6 N 0.6100(6) 0.5893(4) 0.2707(3)
N7 N 0.7874(6) 0.5415(5) 0.3309(3)
N8 N 0.7218(8) 1.0561(5) 0.3543(3)
N9 N 0.6089(7) 1.1057(4) 0.2688(3)
N10 N 0.3498(8) 0.8196(5) 0.4332(3)
C54 C 0.5329(8) 0.4928(6) 0.3913(4)
C55 C 0.4921(7) 0.5727(6) 0.3473(3)
C56 C 0.4697(7) 0.6600(6) 0.3684(3)
H40 H 0.3948 0.6752 0.3842
C57 C 0.4968(7) 0.7467(5) 0.3349(3)
H41 H 0.4748 0.7588 0.3027
C58 C 0.4574(7) 0.8317(5) 0.3588(3)
C59 C 0.4859(7) 0.9219(5) 0.3280(3)
H42 H 0.4748 0.9349 0.2943
C60 C 0.4287(7) 1.0003(5) 0.3540(3)
H43 H 0.3509 1.0020 0.3633
C61 C 0.4428(7) 1.0988(6) 0.3288(3)
C62 C 0.4364(9) 1.1410(7) 0.3735(3)
C63 C 0.5340(8) 1.0624(6) 0.3934(3)
C64 C 0.4949(8) 0.9730(5) 0.3991(3)
H44 H 0.4489 0.9601 0.4289
C65 C 0.5844(7) 0.8872(5) 0.3894(3)
H45 H 0.6518 0.8755 0.4045
C66 C 0.5339(7) 0.8026(6) 0.3999(3)
C67 C 0.6125(7) 0.7125(5) 0.3882(3)
H46 H 0.6856 0.6985 0.3991
C68 C 0.5579(7) 0.6320(5) 0.4051(3)
H47 H 0.5242 0.6284 0.4379
C69 C 0.6281(8) 0.5345(6) 0.3955(3)
C70 C 0.6860(10) 0.5437(5) 0.3458(3)
C71 C 0.8058(10) 0.5640(6) 0.2812(4)
C72 C 0.9117(9) 0.5628(7) 0.2614(5)
H48 H 0.9689 0.5472 0.2805
C73 C 0.9313(12) 0.5852(8) 0.2122(5)
C74 C 1.0416(11) 0.5810(8) 0.1911(6)
H49 H 1.0975 0.5677 0.2106
C75 C 1.0662(12) 0.5956(11) 0.1444(7)
H50 H 1.1387 0.5908 0.1315
C76 C 0.9828(14) 0.6180(9) 0.1149(5)
H51 H 1.0002 0.6301 0.0822
C77 C 0.8777(11) 0.6227(8) 0.1322(5)
H52 H 0.8239 0.6369 0.1115
C78 C 0.8484(12) 0.6057(7) 0.1827(4)
C79 C 0.7417(9) 0.6104(6) 0.2025(4)
H53 H 0.6847 0.6292 0.1830
C80 C 0.7192(10) 0.5870(6) 0.2516(4)
C81 C 0.5974(8) 0.5670(6) 0.3166(4)
C82 C 0.5629(8) 1.0933(5) 0.3118(3)
C83 C 0.7238(9) 1.0943(6) 0.2657(4)
C84 C 0.7828(9) 1.1091(6) 0.2217(4)
H54 H 0.7467 1.1265 0.1943
C85 C 0.8968(11) 1.0982(8) 0.2181(6)
C86 C 0.9524(13) 1.1167(8) 0.1717(5)
H55 H 0.9157 1.1344 0.1444
C87 C 1.0630(16) 1.1067(11) 0.1698(7)
H56 H 1.1027 1.1181 0.1403
C88 C 1.1170(12) 1.0806(10) 0.2097(8)
H57 H 1.1919 1.0768 0.2059
C89 C 1.0674(12) 1.0591(8) 0.2561(6)
H58 H 1.1072 1.0377 0.2825
C90 C 0.9499(12) 1.0727(8) 0.2597(6)
C91 C 0.8885(10) 1.0558(6) 0.3042(4)
H59 H 0.9255 1.0346 0.3314
C92 C 0.7785(9) 1.0692(6) 0.3089(5)
C93 C 0.6184(10) 1.0705(6) 0.3530(3)
C94 C 0.4574(10) 0.7930(6) 0.4445(4)
C95 C 0.3416(9) 0.8423(6) 0.3845(4)
C96 C 0.2559(9) 0.8261(7) 0.4674(4)
C97 C 0.1925(14) 0.7687(10) 0.4733(6)
H60 H 0.2134 0.7211 0.4566
C98 C 0.0956(17) 0.7771(13) 0.5036(9)
H61 H 0.0474 0.7416 0.5041
C99 C 0.0739(14) 0.8383(11) 0.5324(5)
C100 C 0.1339(10) 0.8973(10) 0.5266(5)
H62 H 0.1150 0.9434 0.5443
C101 C 0.2264(9) 0.8896(9) 0.4935(4)
H63 H 0.2690 0.9312 0.4898
C102 C -0.0539(12) 0.9118(12) 0.5897(5)
H64 H -0.0076 0.9535 0.5791
H65 H -0.0468 0.8838 0.6226
H66 H -0.1291 0.9456 0.5856
C103 C 0.4016(9) 1.3027(6) 0.3357(4)
H67 H 0.4129 1.2922 0.3039
H68 H 0.4249 1.3566 0.3360
H69 H 0.3249 1.3124 0.3468
C104 C 0.3037(9) 1.1793(7) 0.4397(4)
H70 H 0.3673 1.1611 0.4570
H71 H 0.2461 1.1548 0.4589
H72 H 0.2789 1.2458 0.4318
C105 C 0.3667(9) 0.4560(7) 0.4366(3)
H73 H 0.3090 0.5036 0.4209
H74 H 0.3418 0.4376 0.4694
H75 H 0.3862 0.4034 0.4217
C106 C 0.6169(9) 0.3255(6) 0.4077(3)
H76 H 0.5931 0.3324 0.4398
H77 H 0.6953 0.3157 0.4022
H78 H 0.5973 0.2731 0.4025
Cl9 Cl 0.0377(6) 0.4088(5) 0.4375(3)
Cl10 Cl 0.1181(5) 0.5057(6) 0.3545(3)
Cl11 Cl -0.0312(7) 0.5996(7) 0.4153(3)
C107 C -0.0016(15) 0.5000(16) 0.3941(6)
H79 H -0.0622 0.4960 0.3786
loop_
_geom_bond_atom_site_label_1
_geom_bond_atom_site_label_2
_geom_bond_site_symmetry_1
_geom_bond_site_symmetry_2
Cl1 C16 1_555 1_555
Cl2 C2 1_555 1_555
Cl3 C8 1_555 1_555
Cl4 C10 1_555 1_555
Cl5 C69 1_555 1_555
Cl6 C55 1_555 1_555
Cl7 C61 1_555 1_555
Cl8 C63 1_555 1_555
Cl9 C107 1_555 1_555
Cl10 C107 1_555 1_555
Cl11 C107 1_555 1_555
O1 C46 1_555 1_555
O2 C41 1_555 1_555
O3 C42 1_555 1_555
O4 C4 1_555 1_555
O5 C6 1_555 1_555
O6 C1 1_555 1_555
O7 C1 1_555 1_555
O8 C9 1_555 1_555
O9 C9 1_555 1_555
O10 C57 1_555 1_555
O11 C59 1_555 1_555
O12 C99 1_555 1_555
O13 C62 1_555 1_555
O14 C62 1_555 1_555
O15 C54 1_555 1_555
O16 C54 1_555 1_555
O17 C95 1_555 1_555
O18 C94 1_555 1_555
N1 C39 1_555 1_555
N2 C29 1_555 1_555
N3 C17 1_555 1_555
N4 C27 1_555 1_555
N5 C41 1_555 1_555
N6 C80 1_555 1_555
N7 C70 1_555 1_555
N8 C92 1_555 1_555
N9 C82 1_555 1_555
N10 C94 1_555 1_555
C1 C2 1_555 1_555
C2 C3 1_555 1_555
C3 H1 1_555 1_555
C4 C3 1_555 1_555
H2 C4 1_555 1_555
C5 C4 1_555 1_555
C6 C5 1_555 1_555
H3 C6 1_555 1_555
C7 C6 1_555 1_555
H4 C7 1_555 1_555
C8 C7 1_555 1_555
C9 C8 1_555 1_555
C10 C9 1_555 1_555
C11 C7 1_555 1_555
H5 C11 1_555 1_555
C12 O5 1_555 1_555
H6 C12 1_555 1_555
C13 C5 1_555 1_555
C14 O4 1_555 1_555
H7 C14 1_555 1_555
C15 C3 1_555 1_555
H8 C15 1_555 1_555
C16 C1 1_555 1_555
C17 C2 1_555 1_555
C18 N3 1_555 1_555
C19 C18 1_555 1_555
H9 C19 1_555 1_555
C20 C19 1_555 1_555
C21 C20 1_555 1_555
H10 C21 1_555 1_555
C22 C21 1_555 1_555
H11 C22 1_555 1_555
C23 C22 1_555 1_555
H12 C23 1_555 1_555
C24 C23 1_555 1_555
H13 C24 1_555 1_555
C25 C20 1_555 1_555
C26 C25 1_555 1_555
H14 C26 1_555 1_555
C27 C18 1_555 1_555
C28 N4 1_555 1_555
C29 C10 1_555 1_555
C30 N2 1_555 1_555
C31 C30 1_555 1_555
H15 C31 1_555 1_555
C32 C31 1_555 1_555
C33 C32 1_555 1_555
H16 C33 1_555 1_555
C34 C33 1_555 1_555
H17 C34 1_555 1_555
C35 C34 1_555 1_555
H18 C35 1_555 1_555
C36 C35 1_555 1_555
H19 C36 1_555 1_555
C37 C32 1_555 1_555
C38 C37 1_555 1_555
H20 C38 1_555 1_555
C39 C30 1_555 1_555
C40 N1 1_555 1_555
C41 C13 1_555 1_555
C42 N5 1_555 1_555
C43 N5 1_555 1_555
C44 C43 1_555 1_555
H21 C44 1_555 1_555
C45 C44 1_555 1_555
H22 C45 1_555 1_555
C46 C45 1_555 1_555
C47 C46 1_555 1_555
H23 C47 1_555 1_555
C48 C43 1_555 1_555
H24 C48 1_555 1_555
C49 O1 1_555 1_555
H25 C49 1_555 1_555
H26 C49 1_555 1_555
H27 C49 1_555 1_555
C50 O6 1_555 1_555
H28 C50 1_555 1_555
H29 C50 1_555 1_555
H30 C50 1_555 1_555
C51 O7 1_555 1_555
H31 C51 1_555 1_555
H32 C51 1_555 1_555
H33 C51 1_555 1_555
C52 O8 1_555 1_555
H34 C52 1_555 1_555
H35 C52 1_555 1_555
H36 C52 1_555 1_555
C53 O9 1_555 1_555
H37 C53 1_555 1_555
H38 C53 1_555 1_555
H39 C53 1_555 1_555
C54 C55 1_555 1_555
C55 C56 1_555 1_555
C56 H40 1_555 1_555
C57 C56 1_555 1_555
H41 C57 1_555 1_555
C58 C57 1_555 1_555
C59 C58 1_555 1_555
H42 C59 1_555 1_555
C60 C59 1_555 1_555
H43 C60 1_555 1_555
C61 C60 1_555 1_555
C62 C61 1_555 1_555
C63 C62 1_555 1_555
C64 C60 1_555 1_555
H44 C64 1_555 1_555
C65 O11 1_555 1_555
H45 C65 1_555 1_555
C66 C58 1_555 1_555
C67 O10 1_555 1_555
H46 C67 1_555 1_555
C68 C56 1_555 1_555
H47 C68 1_555 1_555
C69 C54 1_555 1_555
C70 C69 1_555 1_555
C71 N7 1_555 1_555
C72 C71 1_555 1_555
H48 C72 1_555 1_555
C73 C72 1_555 1_555
C74 C73 1_555 1_555
H49 C74 1_555 1_555
C75 C74 1_555 1_555
H50 C75 1_555 1_555
C76 C75 1_555 1_555
H51 C76 1_555 1_555
C77 C76 1_555 1_555
H52 C77 1_555 1_555
C78 C73 1_555 1_555
C79 C78 1_555 1_555
H53 C79 1_555 1_555
C80 C71 1_555 1_555
C81 N6 1_555 1_555
C82 C61 1_555 1_555
C83 N9 1_555 1_555
C84 C83 1_555 1_555
H54 C84 1_555 1_555
C85 C84 1_555 1_555
C86 C85 1_555 1_555
H55 C86 1_555 1_555
C87 C86 1_555 1_555
H56 C87 1_555 1_555
C88 C87 1_555 1_555
H57 C88 1_555 1_555
C89 C88 1_555 1_555
H58 C89 1_555 1_555
C90 C85 1_555 1_555
C91 C90 1_555 1_555
H59 C91 1_555 1_555
C92 C83 1_555 1_555
C93 N8 1_555 1_555
C94 C66 1_555 1_555
C95 N10 1_555 1_555
C96 N10 1_555 1_555
C97 C96 1_555 1_555
H60 C97 1_555 1_555
C98 C97 1_555 1_555
H61 C98 1_555 1_555
C99 C98 1_555 1_555
C100 C99 1_555 1_555
H62 C100 1_555 1_555
C101 C96 1_555 1_555
H63 C101 1_555 1_555
C102 O12 1_555 1_555
H64 C102 1_555 1_555
H65 C102 1_555 1_555
H66 C102 1_555 1_555
C103 O13 1_555 1_555
H67 C103 1_555 1_555
H68 C103 1_555 1_555
H69 C103 1_555 1_555
C104 O14 1_555 1_555
H70 C104 1_555 1_555
H71 C104 1_555 1_555
H72 C104 1_555 1_555
C105 O15 1_555 1_555
H73 C105 1_555 1_555
H74 C105 1_555 1_555
H75 C105 1_555 1_555
C106 O16 1_555 1_555
H76 C106 1_555 1_555
H77 C106 1_555 1_555
H78 C106 1_555 1_555
C107 H79 1_555 1_555
C5 C42 1_555 1_555
C8 C40 1_555 1_555
C10 C11 1_555 1_555
C11 C12 1_555 1_555
C12 C13 1_555 1_555
C13 C14 1_555 1_555
C14 C15 1_555 1_555
C15 C16 1_555 1_555
C16 C28 1_555 1_555
C17 C28 1_555 1_555
C24 C25 1_555 1_555
C26 C27 1_555 1_555
C29 C40 1_555 1_555
C36 C37 1_555 1_555
C38 C39 1_555 1_555
C47 C48 1_555 1_555
C55 C81 1_555 1_555
C58 C95 1_555 1_555
C63 C64 1_555 1_555
C63 C93 1_555 1_555
C64 C65 1_555 1_555
C65 C66 1_555 1_555
C66 C67 1_555 1_555
C67 C68 1_555 1_555
C68 C69 1_555 1_555
C70 C81 1_555 1_555
C77 C78 1_555 1_555
C79 C80 1_555 1_555
C82 C93 1_555 1_555
C89 C90 1_555 1_555
C91 C92 1_555 1_555
C100 C101 1_555 1_555

#END
