
#######################################################################
#
#                 Cambridge Crystallographic Data Centre
#                                CCDC 
#
#######################################################################
#
# If this CIF has been generated from an entry in the Cambridge 
# Structural Database, then it will include bibliographic, chemical, 
# crystal, experimental, refinement or atomic coordinate data resulting 
# from the CCDC's data processing and validation procedures.
#
#######################################################################

data_QUMHOW
_chemical_formula_moiety         'C50 H45 Cl4 N5 O9,0.5(C2 H6 O1)'
_chemical_name_systematic        
'4,15,21,32-Tetrachloro-39,39,41,41-tetramethoxy-36-(4-methoxybenzyl)-9,10,26,27-tetramethyl-38,40-dioxa-6,13,23,30,36-pentaazatridecacyclo[16.16.3.1^2,17^.1^4,15^.1^19,34^.1^21,32^.0^1,18^.0^3,16^.0^5,14^.0^7,12^.0^20,33^.0^22,31^.0^24,29^]hentetraconta-5,7(12),8,10,13,22,24(29),25,27,30-decaene-35,37-dione ethanol solvate'
_symmetry_cell_setting           triclinic
_symmetry_space_group_name_H-M   'P -1'
_symmetry_Int_Tables_number      2
_space_group_name_Hall           '-P 1'
loop_
_symmetry_equiv_pos_site_id
_symmetry_equiv_pos_as_xyz
1 x,y,z
2 -x,-y,-z
_cell_length_a                   11.855(2)
_cell_length_b                   17.704(3)
_cell_length_c                   25.195(4)
_cell_angle_alpha                83.623(3)
_cell_angle_beta                 76.920(3)
_cell_angle_gamma                79.775(3)
_cell_volume                     5055.07
_exptl_crystal_colour            'light yellow'
_exptl_crystal_description       parallelepiped
_cell_formula_units_Z            4
loop_
_atom_site_label
_atom_site_type_symbol
_atom_site_fract_x
_atom_site_fract_y
_atom_site_fract_z
Cl1 Cl 0.43511(11) 0.64848(8) 0.46758(6)
Cl2 Cl 0.04173(14) 0.83349(9) 0.58206(6)
Cl3 Cl -0.01301(13) 1.12260(8) 0.27900(6)
Cl4 Cl 0.38312(12) 0.93346(9) 0.16805(6)
O1 O 0.6114(4) 1.2134(2) 0.23950(18)
O2 O 0.4870(3) 0.8703(2) 0.34344(15)
O3 O 0.1851(3) 1.0324(2) 0.43928(16)
O4 O 0.1349(3) 0.79682(17) 0.41000(12)
O5 O 0.1193(3) 0.88415(18) 0.31799(13)
O6 O 0.2325(3) 0.6834(2) 0.58412(15)
O7 O 0.3398(3) 0.7821(2) 0.55011(15)
O8 O 0.2824(3) 1.0949(2) 0.22020(15)
O9 O 0.1524(3) 1.0824(2) 0.16601(15)
N1 N 0.3530(4) 0.9590(2) 0.39450(17)
N2 N -0.0118(4) 0.7132(2) 0.51200(16)
N3 N 0.1910(3) 0.6174(2) 0.45368(16)
N4 N -0.0599(4) 0.9689(2) 0.24563(16)
N5 N 0.1417(4) 0.8705(2) 0.18843(16)
C1 C 0.7289(6) 1.2050(4) 0.2110(3)
H2 H 0.7776 1.2140 0.2346
H3 H 0.7364 1.2415 0.1798
H4 H 0.7529 1.1538 0.1993
C2 C 0.5782(5) 1.1578(3) 0.2790(2)
C3 C 0.6459(5) 1.0904(3) 0.2905(3)
H5 H 0.7224 1.0787 0.2707
C4 C 0.6000(6) 1.0397(3) 0.3318(3)
H6 H 0.6467 0.9935 0.3393
C5 C 0.4872(5) 1.0548(3) 0.3623(2)
C6 C 0.4185(5) 1.1239(3) 0.3501(2)
H7 H 0.3417 1.1358 0.3695
C7 C 0.4652(6) 1.1744(3) 0.3089(3)
H8 H 0.4195 1.2209 0.3010
C8 C 0.4395(5) 1.0007(3) 0.4082(2)
H9 H 0.5038 0.9636 0.4178
H10 H 0.4023 1.0295 0.4398
C9 C 0.3865(5) 0.8960(3) 0.3626(2)
C10 C 0.2777(4) 0.8656(3) 0.36043(19)
C11 C 0.1749(4) 0.9214(3) 0.39295(19)
C12 C 0.2323(5) 0.9788(3) 0.4123(2)
C13 C 0.2979(4) 0.7870(3) 0.44772(19)
H11 H 0.3714 0.8075 0.4429
C14 C 0.1918(4) 0.8412(3) 0.48028(19)
H12 H 0.2164 0.8852 0.4924
C15 C 0.1159(4) 0.8657(3) 0.4382(2)
H13 H 0.0334 0.8842 0.4538
C16 C 0.2611(4) 0.7878(3) 0.39328(19)
H14 H 0.2967 0.7426 0.3728
C17 C 0.3005(4) 0.7109(3) 0.4826(2)
C18 C 0.2604(5) 0.7389(3) 0.5417(2)
C19 C 0.1420(4) 0.7863(3) 0.5290(2)
C20 C 0.3224(7) 0.6326(4) 0.6028(3)
H15 H 0.3446 0.5887 0.5813
H16 H 0.2954 0.6160 0.6404
H17 H 0.3889 0.6582 0.5993
C21 C 0.3166(8) 0.8186(5) 0.5995(3)
H18 H 0.2746 0.8696 0.5947
H19 H 0.3893 0.8214 0.6094
H20 H 0.2702 0.7895 0.6279
C22 C 0.1955(4) 0.6750(3) 0.47969(19)
C23 C 0.0962(4) 0.7233(3) 0.5081(2)
C24 C 0.0796(4) 0.6043(3) 0.4559(2)
C25 C -0.0212(4) 0.6517(3) 0.4852(2)
C26 C -0.1318(5) 0.6333(3) 0.4856(2)
H21 H -0.1981 0.6628 0.5049
C27 C -0.1458(5) 0.5738(3) 0.4590(2)
C28 C -0.0469(5) 0.5276(3) 0.4301(2)
C29 C 0.0621(5) 0.5445(3) 0.4286(2)
H22 H 0.1271 0.5149 0.4085
C30 C -0.2669(5) 0.5562(4) 0.4624(3)
H23 H -0.2740 0.5066 0.4814
H24 H -0.2801 0.5561 0.4262
H25 H -0.3239 0.5947 0.4819
C31 C -0.0610(6) 0.4625(3) 0.4003(2)
H26 H -0.1050 0.4822 0.3727
H27 H -0.1019 0.4268 0.4256
H28 H 0.0149 0.4368 0.3834
C32 C 0.1001(4) 0.9507(3) 0.34852(19)
H29 H 0.0173 0.9693 0.3636
C33 C 0.1611(4) 1.0082(3) 0.3056(2)
H30 H 0.1857 1.0481 0.3225
C34 C 0.2683(4) 0.9529(3) 0.2741(2)
H31 H 0.3435 0.9654 0.2777
C35 C 0.2455(4) 0.8741(3) 0.30343(19)
H32 H 0.2810 0.8305 0.2812
C36 C 0.0938(4) 1.0423(3) 0.2602(2)
C37 C 0.2009(5) 1.0531(3) 0.2104(2)
C38 C 0.2518(5) 0.9666(3) 0.2146(2)
C39 C 0.2445(6) 1.1750(4) 0.2272(3)
H33 H 0.1967 1.1966 0.2015
H34 H 0.3117 1.2007 0.2212
H35 H 0.1998 1.1817 0.2637
C40 C 0.2328(6) 1.0903(4) 0.1147(2)
H36 H 0.2957 1.1148 0.1193
H37 H 0.1926 1.1212 0.0887
H38 H 0.2640 1.0404 0.1015
C41 C 0.1464(4) 0.9321(3) 0.2102(2)
C42 C 0.0490(5) 0.9796(3) 0.23827(19)
C43 C 0.0289(5) 0.8549(3) 0.1953(2)
C44 C -0.0700(5) 0.9043(3) 0.2220(2)
C45 C -0.1818(5) 0.8864(3) 0.2253(2)
H39 H -0.2471 0.9184 0.2431
C46 C -0.1974(5) 0.8233(3) 0.2030(2)
C47 C -0.0989(5) 0.7725(3) 0.1771(2)
C48 C 0.0110(5) 0.7898(3) 0.1735(2)
H40 H 0.0758 0.7572 0.1559
C49 C -0.3195(5) 0.8069(4) 0.2062(3)
H41 H -0.3760 0.8478 0.2231
H42 H -0.3297 0.7592 0.2276
H43 H -0.3305 0.8032 0.1701
C50 C -0.1111(6) 0.7013(4) 0.1529(3)
H44 H -0.0347 0.6749 0.1374
H45 H -0.1556 0.7155 0.1249
H46 H -0.1508 0.6681 0.1809
Cl5 Cl 0.25998(14) 0.40467(8) 0.23698(6)
Cl6 Cl 0.44846(12) 0.63376(9) 0.30900(6)
Cl7 Cl 0.50165(13) 0.88684(8) -0.00828(6)
Cl8 Cl 0.29577(14) 0.66856(8) -0.08286(6)
O10 O 0.9322(5) 0.6761(4) -0.1282(2)
O11 O 0.4889(3) 0.4928(2) 0.06018(14)
O12 O 0.6197(3) 0.6869(2) 0.12116(15)
O13 O 0.2456(3) 0.64705(18) 0.17969(13)
O14 O 0.2617(3) 0.72616(18) 0.08237(13)
O15 O 0.3322(3) 0.4658(2) 0.33442(14)
O16 O 0.4988(3) 0.4670(2) 0.26576(15)
O17 O 0.5436(3) 0.7443(2) -0.08021(14)
O18 O 0.3872(3) 0.8267(2) -0.10727(14)
N6 N 0.5788(4) 0.5830(2) 0.08592(17)
N7 N 0.0821(4) 0.5523(2) 0.27156(16)
N8 N 0.1772(3) 0.6702(2) 0.31009(15)
N9 N 0.1220(4) 0.7882(2) -0.00919(17)
N10 N 0.2276(4) 0.9009(2) 0.02949(18)
C51 C 1.0100(8) 0.7298(6) -0.1306(4)
H47 H 0.9695 0.7727 -0.1100
H48 H 1.0371 0.7477 -0.1679
H49 H 1.0758 0.7052 -0.1154
C52 C 0.8836(6) 0.6437(5) -0.0783(3)
C53 C 0.8082(7) 0.5928(5) -0.0782(3)
H50 H 0.7978 0.5791 -0.1112
C54 C 0.7490(6) 0.5624(4) -0.0306(3)
H51 H 0.6946 0.5307 -0.0311
C55 C 0.7686(5) 0.5779(3) 0.0187(3)
C56 C 0.8487(6) 0.6249(4) 0.0168(3)
H52 H 0.8643 0.6349 0.0496
C57 C 0.9074(7) 0.6581(5) -0.0302(3)
H53 H 0.9619 0.6897 -0.0296
C58 C 0.7022(5) 0.5433(3) 0.0712(2)
H54 H 0.7023 0.4893 0.0676
H55 H 0.7417 0.5465 0.1005
C59 C 0.4832(4) 0.5534(3) 0.07873(19)
C60 C 0.5492(5) 0.6522(3) 0.1110(2)
C61 C 0.4189(4) 0.6738(3) 0.1220(2)
C62 C 0.3738(4) 0.6088(3) 0.10001(18)
C63 C 0.2916(4) 0.5790(3) 0.1520(2)
H56 H 0.2315 0.5526 0.1445
C64 C 0.3651(4) 0.5319(3) 0.19107(19)
H57 H 0.4286 0.4949 0.1718
C65 C 0.4139(4) 0.5968(3) 0.21262(19)
H58 H 0.4996 0.5908 0.2022
C66 C 0.3559(4) 0.6684(3) 0.18253(19)
H59 H 0.3474 0.7159 0.2006
C67 C 0.2970(4) 0.4943(3) 0.2439(2)
C68 C 0.3829(5) 0.4968(3) 0.2834(2)
C69 C 0.3710(4) 0.5861(3) 0.2750(2)
C70 C 0.3905(6) 0.4686(4) 0.3775(2)
H60 H 0.4726 0.4683 0.3627
H61 H 0.3800 0.4246 0.4030
H62 H 0.3582 0.5147 0.3959
C71 C 0.5276(6) 0.3845(3) 0.2651(3)
H63 H 0.4785 0.3609 0.2958
H64 H 0.6084 0.3688 0.2673
H65 H 0.5153 0.3688 0.2319
C72 C 0.1928(4) 0.5511(3) 0.26971(18)
C73 C 0.2385(4) 0.6091(3) 0.28934(19)
C74 C 0.0126(4) 0.6158(3) 0.29528(19)
C75 C 0.0592(4) 0.6742(3) 0.31396(19)
C76 C -0.0175(4) 0.7364(3) 0.3378(2)
H66 H 0.0133 0.7748 0.3495
C77 C -0.1366(5) 0.7429(3) 0.3445(2)
C78 C -0.1841(5) 0.6832(3) 0.3277(2)
C79 C -0.1100(5) 0.6227(3) 0.3027(2)
H67 H -0.1416 0.5853 0.2903
C80 C -0.2157(5) 0.8095(4) 0.3711(3)
H68 H -0.1705 0.8485 0.3734
H69 H -0.2542 0.7928 0.4071
H70 H -0.2733 0.8301 0.3498
C81 C -0.3154(5) 0.6861(4) 0.3369(3)
H71 H -0.3317 0.6428 0.3219
H72 H -0.3491 0.7329 0.3194
H73 H -0.3486 0.6846 0.3754
C82 C 0.3711(4) 0.7455(3) 0.0873(2)
H74 H 0.3637 0.7944 0.1035
C83 C 0.4428(5) 0.7439(3) 0.0281(2)
H75 H 0.5271 0.7294 0.0267
C84 C 0.3919(4) 0.6809(3) 0.0062(2)
H76 H 0.4529 0.6385 -0.0077
C85 C 0.3062(4) 0.6553(3) 0.05750(19)
H77 H 0.2454 0.6297 0.0498
C86 C 0.4161(4) 0.8164(3) -0.0100(2)
C87 C 0.4301(5) 0.7795(3) -0.0658(2)
C88 C 0.3341(5) 0.7269(3) -0.0396(2)
C89 C 0.5695(6) 0.6990(3) -0.1267(2)
H78 H 0.5530 0.6479 -0.1150
H79 H 0.6509 0.6966 -0.1440
H80 H 0.5221 0.7222 -0.1522
C90 C 0.4579(5) 0.8822(3) -0.1358(2)
H81 H 0.4377 0.9284 -0.1168
H82 H 0.4442 0.8935 -0.1721
H83 H 0.5391 0.8618 -0.1375
C91 C 0.2853(5) 0.8424(3) 0.0028(2)
C92 C 0.2350(5) 0.7862(3) -0.0153(2)
C93 C 0.1069(5) 0.9040(3) 0.0389(2)
C94 C 0.0542(5) 0.8495(3) 0.0187(2)
C95 C -0.0673(5) 0.8583(3) 0.0285(2)
H84 H -0.1024 0.8236 0.0151
C96 C -0.1362(5) 0.9165(4) 0.0572(2)
C97 C -0.0853(5) 0.9688(3) 0.0780(2)
C98 C 0.0333(5) 0.9626(3) 0.0682(2)
H85 H 0.0663 0.9986 0.0814
C99 C -0.2685(5) 0.9251(4) 0.0658(3)
H86 H -0.3034 0.9345 0.1032
H87 H -0.2897 0.8787 0.0572
H88 H -0.2962 0.9675 0.0423
C100 C -0.1583(6) 1.0316(4) 0.1109(3)
H89 H -0.1090 1.0560 0.1267
H90 H -0.2153 1.0105 0.1394
H91 H -0.1977 1.0688 0.0877
O19 O 0.0623(5) 0.6597(3) 0.7214(2)
H1 H 0.1212 0.6796 0.7178
C101 C 0.0708(14) 0.5718(8) 0.7717(6)
H92 H 0.0292 0.5864 0.8078
H93 H 0.0318 0.5337 0.7613
C102 C 0.1940(5) 0.5365(4) 0.7741(3)
H94 H 0.2390 0.5293 0.7377
H95 H 0.1940 0.4876 0.7948
H96 H 0.2282 0.5699 0.7912
loop_
_geom_bond_atom_site_label_1
_geom_bond_atom_site_label_2
_geom_bond_site_symmetry_1
_geom_bond_site_symmetry_2
Cl1 C17 1_555 1_555
Cl2 C19 1_555 1_555
Cl3 C36 1_555 1_555
Cl4 C38 1_555 1_555
Cl5 C67 1_555 1_555
Cl6 C69 1_555 1_555
Cl7 C86 1_555 1_555
Cl8 C88 1_555 1_555
O1 C1 1_555 1_555
O2 C9 1_555 1_555
O3 C12 1_555 1_555
O4 C15 1_555 1_555
O5 C32 1_555 1_555
O6 C18 1_555 1_555
O7 C18 1_555 1_555
O8 C37 1_555 1_555
O9 C37 1_555 1_555
O10 C51 1_555 1_555
O11 C59 1_555 1_555
O12 C60 1_555 1_555
O13 C63 1_555 1_555
O14 C82 1_555 1_555
O15 C68 1_555 1_555
O16 C68 1_555 1_555
O17 C87 1_555 1_555
O18 C87 1_555 1_555
O19 H1 1_555 1_555
N1 C8 1_555 1_555
N2 C23 1_555 1_555
N3 C22 1_555 1_555
N4 C42 1_555 1_555
N5 C41 1_555 1_555
N6 C58 1_555 1_555
N7 C72 1_555 1_555
N8 C73 1_555 1_555
N9 C92 1_555 1_555
N10 C91 1_555 1_555
C1 H2 1_555 1_555
H3 C1 1_555 1_555
H4 C1 1_555 1_555
C2 O1 1_555 1_555
C3 C2 1_555 1_555
H5 C3 1_555 1_555
C4 C3 1_555 1_555
H6 C4 1_555 1_555
C5 C4 1_555 1_555
C6 C5 1_555 1_555
H7 C6 1_555 1_555
C7 C2 1_555 1_555
H8 C7 1_555 1_555
C8 C5 1_555 1_555
H9 C8 1_555 1_555
H10 C8 1_555 1_555
C9 N1 1_555 1_555
C10 C9 1_555 1_555
C11 C10 1_555 1_555
C12 N1 1_555 1_555
C13 H11 1_555 1_555
C14 C13 1_555 1_555
H12 C14 1_555 1_555
C15 C11 1_555 1_555
H13 C15 1_555 1_555
C16 O4 1_555 1_555
H14 C16 1_555 1_555
C17 C13 1_555 1_555
C18 C17 1_555 1_555
C19 C14 1_555 1_555
C20 O6 1_555 1_555
H15 C20 1_555 1_555
H16 C20 1_555 1_555
H17 C20 1_555 1_555
C21 O7 1_555 1_555
H18 C21 1_555 1_555
H19 C21 1_555 1_555
H20 C21 1_555 1_555
C22 C17 1_555 1_555
C23 C19 1_555 1_555
C24 N3 1_555 1_555
C25 N2 1_555 1_555
C26 C25 1_555 1_555
H21 C26 1_555 1_555
C27 C26 1_555 1_555
C28 C27 1_555 1_555
C29 C24 1_555 1_555
H22 C29 1_555 1_555
C30 C27 1_555 1_555
H23 C30 1_555 1_555
H24 C30 1_555 1_555
H25 C30 1_555 1_555
C31 C28 1_555 1_555
H26 C31 1_555 1_555
H27 C31 1_555 1_555
H28 C31 1_555 1_555
C32 C11 1_555 1_555
H29 C32 1_555 1_555
C33 C32 1_555 1_555
H30 C33 1_555 1_555
C34 C33 1_555 1_555
H31 C34 1_555 1_555
C35 O5 1_555 1_555
H32 C35 1_555 1_555
C36 C33 1_555 1_555
C37 C36 1_555 1_555
C38 C34 1_555 1_555
C39 O8 1_555 1_555
H33 C39 1_555 1_555
H34 C39 1_555 1_555
H35 C39 1_555 1_555
C40 O9 1_555 1_555
H36 C40 1_555 1_555
H37 C40 1_555 1_555
H38 C40 1_555 1_555
C41 C38 1_555 1_555
C42 C36 1_555 1_555
C43 N5 1_555 1_555
C44 N4 1_555 1_555
C45 C44 1_555 1_555
H39 C45 1_555 1_555
C46 C45 1_555 1_555
C47 C46 1_555 1_555
C48 C43 1_555 1_555
H40 C48 1_555 1_555
C49 C46 1_555 1_555
H41 C49 1_555 1_555
H42 C49 1_555 1_555
H43 C49 1_555 1_555
C50 C47 1_555 1_555
H44 C50 1_555 1_555
H45 C50 1_555 1_555
H46 C50 1_555 1_555
C51 H47 1_555 1_555
H48 C51 1_555 1_555
H49 C51 1_555 1_555
C52 O10 1_555 1_555
C53 C52 1_555 1_555
H50 C53 1_555 1_555
C54 C53 1_555 1_555
H51 C54 1_555 1_555
C55 C54 1_555 1_555
C56 C55 1_555 1_555
H52 C56 1_555 1_555
C57 C52 1_555 1_555
H53 C57 1_555 1_555
C58 C55 1_555 1_555
H54 C58 1_555 1_555
H55 C58 1_555 1_555
C59 N6 1_555 1_555
C60 N6 1_555 1_555
C61 C60 1_555 1_555
C62 C59 1_555 1_555
C63 C62 1_555 1_555
H56 C63 1_555 1_555
C64 C63 1_555 1_555
H57 C64 1_555 1_555
C65 C64 1_555 1_555
H58 C65 1_555 1_555
C66 O13 1_555 1_555
H59 C66 1_555 1_555
C67 C64 1_555 1_555
C68 C67 1_555 1_555
C69 C65 1_555 1_555
C70 O15 1_555 1_555
H60 C70 1_555 1_555
H61 C70 1_555 1_555
H62 C70 1_555 1_555
C71 O16 1_555 1_555
H63 C71 1_555 1_555
H64 C71 1_555 1_555
H65 C71 1_555 1_555
C72 C67 1_555 1_555
C73 C69 1_555 1_555
C74 N7 1_555 1_555
C75 N8 1_555 1_555
C76 C75 1_555 1_555
H66 C76 1_555 1_555
C77 C76 1_555 1_555
C78 C77 1_555 1_555
C79 C74 1_555 1_555
H67 C79 1_555 1_555
C80 C77 1_555 1_555
H68 C80 1_555 1_555
H69 C80 1_555 1_555
H70 C80 1_555 1_555
C81 C78 1_555 1_555
H71 C81 1_555 1_555
H72 C81 1_555 1_555
H73 C81 1_555 1_555
C82 C61 1_555 1_555
H74 C82 1_555 1_555
C83 C82 1_555 1_555
H75 C83 1_555 1_555
C84 C83 1_555 1_555
H76 C84 1_555 1_555
C85 O14 1_555 1_555
H77 C85 1_555 1_555
C86 C83 1_555 1_555
C87 C86 1_555 1_555
C88 C84 1_555 1_555
C89 O17 1_555 1_555
H78 C89 1_555 1_555
H79 C89 1_555 1_555
H80 C89 1_555 1_555
C90 O18 1_555 1_555
H81 C90 1_555 1_555
H82 C90 1_555 1_555
H83 C90 1_555 1_555
C91 C86 1_555 1_555
C92 C88 1_555 1_555
C93 N10 1_555 1_555
C94 N9 1_555 1_555
C95 C94 1_555 1_555
H84 C95 1_555 1_555
C96 C95 1_555 1_555
C97 C96 1_555 1_555
C98 C93 1_555 1_555
H85 C98 1_555 1_555
C99 C96 1_555 1_555
H86 C99 1_555 1_555
H87 C99 1_555 1_555
H88 C99 1_555 1_555
C100 C97 1_555 1_555
H89 C100 1_555 1_555
H90 C100 1_555 1_555
H91 C100 1_555 1_555
C101 O19 1_555 1_555
H92 C101 1_555 1_555
H93 C101 1_555 1_555
C102 C101 1_555 1_555
H94 C102 1_555 1_555
H95 C102 1_555 1_555
H96 C102 1_555 1_555
C6 C7 1_555 1_555
C10 C16 1_555 1_555
C10 C35 1_555 1_555
C11 C12 1_555 1_555
C13 C16 1_555 1_555
C14 C15 1_555 1_555
C18 C19 1_555 1_555
C22 C23 1_555 1_555
C24 C25 1_555 1_555
C28 C29 1_555 1_555
C34 C35 1_555 1_555
C37 C38 1_555 1_555
C41 C42 1_555 1_555
C43 C44 1_555 1_555
C47 C48 1_555 1_555
C56 C57 1_555 1_555
C61 C62 1_555 1_555
C61 C66 1_555 1_555
C62 C85 1_555 1_555
C65 C66 1_555 1_555
C68 C69 1_555 1_555
C72 C73 1_555 1_555
C74 C75 1_555 1_555
C78 C79 1_555 1_555
C84 C85 1_555 1_555
C87 C88 1_555 1_555
C91 C92 1_555 1_555
C93 C94 1_555 1_555
C97 C98 1_555 1_555

#END
