
#######################################################################
#
#                 Cambridge Crystallographic Data Centre
#                                CCDC 
#
#######################################################################
#
# If this CIF has been generated from an entry in the Cambridge 
# Structural Database, then it will include bibliographic, chemical, 
# crystal, experimental, refinement or atomic coordinate data resulting 
# from the CCDC's data processing and validation procedures.
#
#######################################################################

data_QUMTUP
_chemical_formula_moiety         'C21 H18 N2 O3'
_chemical_name_systematic        
'ethyl 2-amino-4-phenyl-4H-pyrano[3,2-h]quinoline-3-carboxylate'
_symmetry_cell_setting           monoclinic
_symmetry_space_group_name_H-M   'P 21/c'
_symmetry_Int_Tables_number      14
_space_group_name_Hall           '-P 2ybc'
loop_
_symmetry_equiv_pos_site_id
_symmetry_equiv_pos_as_xyz
1 x,y,z
2 -x,1/2+y,1/2-z
3 -x,-y,-z
4 x,1/2-y,1/2+z
_cell_length_a                   14.3081(5)
_cell_length_b                   6.6189(2)
_cell_length_c                   17.6840(6)
_cell_angle_alpha                90
_cell_angle_beta                 90.411(2)
_cell_angle_gamma                90
_cell_volume                     1674.7
_exptl_crystal_colour            colorless
_exptl_crystal_description       plate
_cell_formula_units_Z            4
loop_
_atom_site_label
_atom_site_type_symbol
_atom_site_fract_x
_atom_site_fract_y
_atom_site_fract_z
C1 C -0.16784(9) -0.2260(2) 0.66339(7)
H1 H -0.2063 -0.3431 0.6636
C2 C -0.19844(9) -0.0570(2) 0.70426(7)
H2 H -0.2555 -0.0609 0.7313
C3 C -0.14444(9) 0.1130(2) 0.70427(7)
H3 H -0.1643 0.2303 0.7306
C4 C -0.05878(8) 0.11341(18) 0.66491(6)
H4 H 0.1093(12) -0.500(3) 0.4612(9)
H5 H 0.2114(12) -0.437(2) 0.4401(9)
C5 C -0.03411(8) -0.06530(17) 0.62548(6)
C6 C 0.05287(8) -0.06715(17) 0.58637(6)
C7 C 0.11194(8) 0.09483(17) 0.58770(6)
C8 C 0.08419(9) 0.27271(18) 0.62635(7)
H6 H 0.1242 0.3872 0.6261
C9 C 0.00121(9) 0.28281(18) 0.66386(7)
H7 H -0.0161 0.4036 0.6892
C10 C 0.20748(8) 0.08738(17) 0.55186(6)
H8 H 0.2133 0.2061 0.5172
C11 C 0.21838(8) -0.10202(18) 0.50529(6)
C12 C 0.15388(8) -0.25378(17) 0.50745(6)
C13 C 0.28198(8) 0.10732(18) 0.61366(6)
C14 C 0.29277(9) -0.0429(2) 0.66810(7)
H9 H 0.2551 -0.1609 0.6655
C15 C 0.35806(9) -0.0224(2) 0.72636(7)
H10 H 0.3639 -0.1243 0.7640
C16 C 0.41443(9) 0.1480(2) 0.72901(7)
H11 H 0.4595 0.1623 0.7683
C17 C 0.40524(9) 0.2965(2) 0.67485(8)
H12 H 0.4444 0.4123 0.6768
C18 C 0.33891(9) 0.2778(2) 0.61735(7)
H13 H 0.3324 0.3815 0.5805
C19 C 0.29864(9) -0.11976(19) 0.45602(6)
C20 C 0.43195(9) 0.0588(2) 0.41030(7)
H14 H 0.4146 0.0476 0.3562
H15 H 0.4746 -0.0539 0.4234
C21 C 0.47857(10) 0.2589(2) 0.42573(8)
H16 H 0.5359 0.2690 0.3959
H17 H 0.4941 0.2690 0.4796
H18 H 0.4360 0.3689 0.4116
N1 N -0.08911(7) -0.23365(16) 0.62454(6)
N2 N 0.16104(8) -0.43268(16) 0.47183(6)
O1 O 0.07355(6) -0.24535(12) 0.54865(5)
O2 O 0.32072(7) -0.26633(14) 0.41748(5)
O3 O 0.34947(6) 0.05238(14) 0.45693(5)
loop_
_geom_bond_atom_site_label_1
_geom_bond_atom_site_label_2
_geom_bond_site_symmetry_1
_geom_bond_site_symmetry_2
C1 H1 1_555 1_555
C2 C1 1_555 1_555
H2 C2 1_555 1_555
C3 C2 1_555 1_555
H3 C3 1_555 1_555
C4 C3 1_555 1_555
H4 N2 1_555 1_555
H5 N2 1_555 1_555
C5 C4 1_555 1_555
C6 C5 1_555 1_555
C7 C6 1_555 1_555
C8 C7 1_555 1_555
H6 C8 1_555 1_555
C9 C4 1_555 1_555
H7 C9 1_555 1_555
C10 C7 1_555 1_555
H8 C10 1_555 1_555
C11 C10 1_555 1_555
C12 C11 1_555 1_555
C13 C10 1_555 1_555
C14 C13 1_555 1_555
H9 C14 1_555 1_555
C15 C14 1_555 1_555
H10 C15 1_555 1_555
C16 C15 1_555 1_555
H11 C16 1_555 1_555
C17 C16 1_555 1_555
H12 C17 1_555 1_555
C18 C13 1_555 1_555
H13 C18 1_555 1_555
C19 C11 1_555 1_555
C20 H14 1_555 1_555
H15 C20 1_555 1_555
C21 C20 1_555 1_555
H16 C21 1_555 1_555
H17 C21 1_555 1_555
H18 C21 1_555 1_555
N1 C1 1_555 1_555
N2 C12 1_555 1_555
O1 C6 1_555 1_555
O2 C19 1_555 1_555
O3 C19 1_555 1_555
C5 N1 1_555 1_555
C8 C9 1_555 1_555
C12 O1 1_555 1_555
C17 C18 1_555 1_555
C20 O3 1_555 1_555

#END
