
#######################################################################
#
#                 Cambridge Crystallographic Data Centre
#                                CCDC 
#
#######################################################################
#
# If this CIF has been generated from an entry in the Cambridge 
# Structural Database, then it will include bibliographic, chemical, 
# crystal, experimental, refinement or atomic coordinate data resulting 
# from the CCDC's data processing and validation procedures.
#
#######################################################################

data_QUNTUQ
_chemical_formula_moiety         'C23 H23 N1 O2'
_chemical_name_systematic        
7-Hydroxy-6,6-dimethyl-1-(4-methylphenyl)-2-phenyl-1,5,6,7-tetrahydro-4H-indol-4-one
_symmetry_cell_setting           orthorhombic
_symmetry_space_group_name_H-M   'P 21 21 21'
_symmetry_Int_Tables_number      19
_space_group_name_Hall           'P 2ac 2ab'
loop_
_symmetry_equiv_pos_site_id
_symmetry_equiv_pos_as_xyz
1 x,y,z
2 1/2+x,1/2-y,-z
3 -x,1/2+y,1/2-z
4 1/2-x,-y,1/2+z
_cell_length_a                   9.8585(16)
_cell_length_b                   11.222(2)
_cell_length_c                   17.434(3)
_cell_angle_alpha                90
_cell_angle_beta                 90
_cell_angle_gamma                90
_cell_volume                     1928.76
_exptl_crystal_colour            colorless
_exptl_crystal_description       block
_cell_formula_units_Z            4
loop_
_atom_site_label
_atom_site_type_symbol
_atom_site_fract_x
_atom_site_fract_y
_atom_site_fract_z
O1 O 0.3112(4) 0.8899(3) 0.4123(3)
H1 H 0.382(6) 0.891(5) 0.433(4)
O2 O 0.0728(3) 0.5740(3) 0.5200(2)
N1 N 0.4582(4) 0.6274(4) 0.3781(2)
C1 C 0.5480(5) 0.6646(4) 0.3173(3)
C2 C 0.5713(5) 0.5892(5) 0.2562(3)
H2 H 0.5289 0.5153 0.2537
C3 C 0.6592(6) 0.6254(6) 0.1986(3)
H3 H 0.6758 0.5743 0.1577
C4 C 0.7225(5) 0.7346(5) 0.2003(3)
C5 C 0.6951(5) 0.8078(5) 0.2611(3)
H4 H 0.7362 0.8824 0.2627
C6 C 0.6086(5) 0.7754(5) 0.3205(3)
H5 H 0.5920 0.8269 0.3612
C7 C 0.8217(6) 0.7710(6) 0.1388(3)
H6 H 0.9061 0.7300 0.1464
H7 H 0.8366 0.8554 0.1414
H8 H 0.7855 0.7507 0.0893
C8 C 0.3365(4) 0.6790(4) 0.3959(3)
C9 C 0.2808(5) 0.7910(4) 0.3637(3)
H9 H 0.3185 0.8047 0.3124
C10 C 0.1259(5) 0.7796(5) 0.3587(3)
C11 C 0.0712(4) 0.7445(4) 0.4376(3)
H10 H 0.0845 0.8110 0.4724
H11 H -0.0257 0.7311 0.4333
C12 C 0.1352(5) 0.6352(5) 0.4723(3)
C13 C 0.2715(5) 0.6075(4) 0.4483(3)
C14 C 0.0877(6) 0.6865(5) 0.2983(3)
H12 H 0.1212 0.6099 0.3139
H13 H 0.1273 0.7080 0.2499
H14 H -0.0091 0.6833 0.2933
C15 C 0.0632(6) 0.9005(5) 0.3367(4)
H15 H -0.0336 0.8928 0.3335
H16 H 0.0983 0.9255 0.2879
H17 H 0.0859 0.9587 0.3750
C16 C 0.3571(4) 0.5087(4) 0.4643(3)
H18 H 0.3384 0.4469 0.4982
C17 C 0.4710(5) 0.5205(4) 0.4211(3)
C18 C 0.5893(5) 0.4418(4) 0.4166(3)
C19 C 0.5676(5) 0.3198(4) 0.4156(3)
H19 H 0.4794 0.2904 0.4151
C20 C 0.6754(6) 0.2417(5) 0.4153(3)
H20 H 0.6592 0.1600 0.4143
C21 C 0.8057(6) 0.2829(5) 0.4164(3)
H21 H 0.8781 0.2297 0.4160
C22 C 0.8288(5) 0.4022(5) 0.4181(3)
H22 H 0.9173 0.4308 0.4191
C23 C 0.7217(5) 0.4810(5) 0.4181(3)
H23 H 0.7392 0.5624 0.4192
loop_
_geom_bond_atom_site_label_1
_geom_bond_atom_site_label_2
_geom_bond_site_symmetry_1
_geom_bond_site_symmetry_2
O1 H1 1_555 1_555
O2 C12 1_555 1_555
N1 C1 1_555 1_555
C1 C2 1_555 1_555
C2 H2 1_555 1_555
C3 C2 1_555 1_555
H3 C3 1_555 1_555
C4 C3 1_555 1_555
C5 C4 1_555 1_555
H4 C5 1_555 1_555
C6 C1 1_555 1_555
H5 C6 1_555 1_555
C7 C4 1_555 1_555
H6 C7 1_555 1_555
H7 C7 1_555 1_555
H8 C7 1_555 1_555
C8 N1 1_555 1_555
C9 O1 1_555 1_555
H9 C9 1_555 1_555
C10 C9 1_555 1_555
C11 C10 1_555 1_555
H10 C11 1_555 1_555
H11 C11 1_555 1_555
C12 C11 1_555 1_555
C13 C8 1_555 1_555
C14 C10 1_555 1_555
H12 C14 1_555 1_555
H13 C14 1_555 1_555
H14 C14 1_555 1_555
C15 C10 1_555 1_555
H15 C15 1_555 1_555
H16 C15 1_555 1_555
H17 C15 1_555 1_555
C16 C13 1_555 1_555
H18 C16 1_555 1_555
C17 N1 1_555 1_555
C18 C17 1_555 1_555
C19 C18 1_555 1_555
H19 C19 1_555 1_555
C20 C19 1_555 1_555
H20 C20 1_555 1_555
C21 C20 1_555 1_555
H21 C21 1_555 1_555
C22 C21 1_555 1_555
H22 C22 1_555 1_555
C23 C18 1_555 1_555
H23 C23 1_555 1_555
C5 C6 1_555 1_555
C8 C9 1_555 1_555
C12 C13 1_555 1_555
C16 C17 1_555 1_555
C22 C23 1_555 1_555

#END
