
#######################################################################
#
#                 Cambridge Crystallographic Data Centre
#                                CCDC 
#
#######################################################################
#
# If this CIF has been generated from an entry in the Cambridge 
# Structural Database, then it will include bibliographic, chemical, 
# crystal, experimental, refinement or atomic coordinate data resulting 
# from the CCDC's data processing and validation procedures.
#
#######################################################################

data_QUNZIK
_chemical_compound_source        'Daldinia eschscholzii'
_chemical_name_common            'Dalesalkaloid A'
_chemical_formula_moiety         'C27 H22 N2 O3'
_chemical_name_systematic        
'3-(di-1H-indol-3-ylmethyl)-5-hydroxy-2-methyl-2,3-dihydro-4H-chromen-4-one unknown solvate'
_symmetry_cell_setting           monoclinic
_symmetry_space_group_name_H-M   'C c'
_symmetry_Int_Tables_number      9
_space_group_name_Hall           'C -2yc'
loop_
_symmetry_equiv_pos_site_id
_symmetry_equiv_pos_as_xyz
1 x,y,z
2 x,-y,1/2+z
3 1/2+x,1/2+y,z
4 1/2+x,1/2-y,1/2+z
_cell_length_a                   22.1832(10)
_cell_length_b                   10.7466(5)
_cell_length_c                   13.9071(6)
_cell_angle_alpha                90
_cell_angle_beta                 115.225(3)
_cell_angle_gamma                90
_cell_volume                     2999.22
_exptl_crystal_colour            'light yellow'
_cell_formula_units_Z            4
_chemical_properties_physical    'Heat-sensitive, Oxygen-sensitive'
_exptl_crystal_recrystallization_method 'dichloromethane/ methanol'
loop_
_atom_site_label
_atom_site_type_symbol
_atom_site_fract_x
_atom_site_fract_y
_atom_site_fract_z
C1 C 0.1092(2) 0.6346(4) 0.4263(3)
C2 C 0.1285(3) 0.7494(5) 0.4788(4)
H1 H 0.1601 0.7981 0.4691
C3 C 0.1012(3) 0.7891(6) 0.5437(4)
H2 H 0.1139 0.8659 0.5770
C4 C 0.0557(4) 0.7200(8) 0.5615(5)
H3 H 0.0387 0.7493 0.6078
C5 C 0.0341(3) 0.6054(6) 0.5109(5)
H4 H 0.0022 0.5587 0.5214
C6 C 0.0623(2) 0.5637(5) 0.4442(4)
C7 C 0.0925(3) 0.4582(4) 0.3347(5)
H5 H 0.0949 0.3947 0.2910
C8 C 0.1283(2) 0.5653(4) 0.3556(3)
C9 C 0.1794(2) 0.6002(4) 0.3168(3)
H6 H 0.2068 0.6653 0.3649
C10 C 0.2258(2) 0.4954(4) 0.3248(4)
C11 C 0.2269(3) 0.4200(5) 0.2482(5)
H7 H 0.1985 0.4264 0.1763
C12 C 0.3066(3) 0.3503(4) 0.3979(5)
C13 C 0.3616(3) 0.2898(7) 0.4821(8)
H8 H 0.3821 0.2224 0.4662
C14 C 0.3830(4) 0.3269(9) 0.5789(8)
H9 H 0.4195 0.2881 0.6319
C15 C 0.3503(4) 0.4285(10) 0.6050(6)
H10 H 0.3646 0.4525 0.6756
C16 C 0.2996(3) 0.4887(6) 0.5287(5)
H11 H 0.2801 0.5560 0.5466
C17 C 0.27588(19) 0.4516(4) 0.4231(4)
C18 C 0.1487(2) 0.6589(4) 0.2029(3)
H12 H 0.1284 0.5927 0.1506
C19 C 0.2030(2) 0.7231(4) 0.1796(4)
H13 H 0.2394 0.6634 0.1951
C20 C 0.1868(2) 0.9077(4) 0.2620(3)
C21 C 0.2103(4) 1.0243(5) 0.3065(5)
H14 H 0.2543 1.0468 0.3244
C22 C 0.1684(4) 1.1048(5) 0.3234(5)
H15 H 0.1849 1.1817 0.3539
C23 C 0.1025(4) 1.0772(6) 0.2972(5)
H16 H 0.0752 1.1338 0.3106
C24 C 0.0779(3) 0.9634(5) 0.2506(4)
C25 C 0.1189(2) 0.8748(5) 0.2317(4)
C26 C 0.0965(2) 0.7527(5) 0.1917(4)
C27 C 0.1795(4) 0.7657(7) 0.0639(5)
H17 H 0.1317 0.7650 0.0293
H18 H 0.1967 0.7102 0.0275
H19 H 0.1953 0.8485 0.0626
N1 N 0.2761(3) 0.3323(4) 0.2918(5)
H20 H 0.2858 0.2753 0.2573
N2 N 0.0529(2) 0.4568(4) 0.3859(5)
H21 H 0.0259 0.3978 0.3826
O1 O 0.22946(17) 0.8290(3) 0.2495(3)
O2 O 0.03725(19) 0.7242(5) 0.1543(4)
O3 O 0.0135(2) 0.9344(5) 0.2236(5)
H22 H 0.0081 0.8594 0.2129
loop_
_geom_bond_atom_site_label_1
_geom_bond_atom_site_label_2
_geom_bond_site_symmetry_1
_geom_bond_site_symmetry_2
C1 C2 1_555 1_555
C2 H1 1_555 1_555
C3 C2 1_555 1_555
H2 C3 1_555 1_555
C4 C3 1_555 1_555
H3 C4 1_555 1_555
C5 C4 1_555 1_555
H4 C5 1_555 1_555
C6 C1 1_555 1_555
C7 H5 1_555 1_555
C8 C1 1_555 1_555
C9 C8 1_555 1_555
H6 C9 1_555 1_555
C10 C9 1_555 1_555
C11 C10 1_555 1_555
H7 C11 1_555 1_555
C12 C13 1_555 1_555
C13 H8 1_555 1_555
C14 C13 1_555 1_555
H9 C14 1_555 1_555
C15 C14 1_555 1_555
H10 C15 1_555 1_555
C16 C15 1_555 1_555
H11 C16 1_555 1_555
C17 C10 1_555 1_555
C18 C9 1_555 1_555
H12 C18 1_555 1_555
C19 C18 1_555 1_555
H13 C19 1_555 1_555
C20 C21 1_555 1_555
C21 H14 1_555 1_555
C22 C21 1_555 1_555
H15 C22 1_555 1_555
C23 C22 1_555 1_555
H16 C23 1_555 1_555
C24 C23 1_555 1_555
C25 C20 1_555 1_555
C26 C18 1_555 1_555
C27 C19 1_555 1_555
H17 C27 1_555 1_555
H18 C27 1_555 1_555
H19 C27 1_555 1_555
N1 C11 1_555 1_555
H20 N1 1_555 1_555
N2 C6 1_555 1_555
H21 N2 1_555 1_555
O1 C19 1_555 1_555
O2 C26 1_555 1_555
O3 C24 1_555 1_555
H22 O3 1_555 1_555
C5 C6 1_555 1_555
C7 C8 1_555 1_555
C7 N2 1_555 1_555
C12 C17 1_555 1_555
C12 N1 1_555 1_555
C16 C17 1_555 1_555
C20 O1 1_555 1_555
C24 C25 1_555 1_555
C25 C26 1_555 1_555

#END
