
#######################################################################
#
#                 Cambridge Crystallographic Data Centre
#                                CCDC 
#
#######################################################################
#
# If this CIF has been generated from an entry in the Cambridge 
# Structural Database, then it will include bibliographic, chemical, 
# crystal, experimental, refinement or atomic coordinate data resulting 
# from the CCDC's data processing and validation procedures.
#
#######################################################################

data_QUPHOA
_chemical_formula_moiety         'C24 H12 N4 O4,C3 H7 N1 O1,2(H2 O1)'
_chemical_name_systematic        
'2,7-di(pyridin-4-yl)benzo[lmn][3,8]phenanthroline-1,3,6,8(2H,7H)-tetrone N,N-dimethylformamide solvate dihydrate'
_symmetry_cell_setting           monoclinic
_symmetry_space_group_name_H-M   'C 2/c'
_symmetry_Int_Tables_number      15
_space_group_name_Hall           '-C 2yn'
loop_
_symmetry_equiv_pos_site_id
_symmetry_equiv_pos_as_xyz
1 x,y,z
2 -x,y,1/2-z
3 1/2+x,1/2+y,z
4 1/2-x,1/2+y,1/2-z
5 -x,-y,-z
6 x,-y,1/2+z
7 1/2-x,1/2-y,-z
8 1/2+x,1/2-y,1/2+z
_cell_length_a                   9.5767(19)
_cell_length_b                   26.590(5)
_cell_length_c                   9.2151(18)
_cell_angle_alpha                90
_cell_angle_beta                 92.10(3)
_cell_angle_gamma                90
_cell_volume                     2345
_exptl_crystal_colour            black
_exptl_crystal_description       Block
_cell_formula_units_Z            4
loop_
_atom_site_label
_atom_site_type_symbol
_atom_site_fract_x
_atom_site_fract_y
_atom_site_fract_z
O3 O 0.6041(8) 0.5886(2) 0.2129(9)
O1 O 0.6879(2) -0.14893(6) 0.1078(2)
O2 O 0.6460(2) 0.11545(6) 0.0617(2)
N1 N 0.5000 -0.30684(12) 0.2500
N2 N 0.5000 -0.14858(9) 0.2500
N3 N 0.5000 0.11524(9) 0.2500
N4 N 0.5000 0.27335(12) 0.2500
C1 C 0.4478(4) -0.28058(10) 0.1382(4)
H1 H 0.4105 -0.2983 0.0588
C2 C 0.4452(3) -0.22860(9) 0.1323(3)
H2 H 0.4077 -0.2116 0.0516
C3 C 0.5000 -0.20327(11) 0.2500
C4 C 0.6022(2) -0.12491(8) 0.1697(3)
C5 C 0.5971(2) -0.06899(8) 0.1661(3)
C6 C 0.6868(3) -0.04292(8) 0.0808(3)
H3 H 0.7506 -0.0603 0.0261
C7 C 0.5000 -0.04337(11) 0.2500
C8 C 0.5000 0.00991(11) 0.2500
C9 C 0.6829(3) 0.00960(8) 0.0759(3)
H4 H 0.7423 0.0269 0.0159
C10 C 0.5914(2) 0.03578(8) 0.1595(3)
C11 C 0.5846(2) 0.09126(9) 0.1510(3)
C12 C 0.5000 0.16992(11) 0.2500
C13 C 0.3834(3) 0.19544(9) 0.2019(3)
H5 H 0.3035 0.1785 0.1690
C14 C 0.3884(4) 0.24733(11) 0.2039(4)
H6 H 0.3096 0.2650 0.1713
O1A O 0.3121(2) -0.14893(6) 0.3922(2)
O2A O 0.3540(2) 0.11545(6) 0.4383(2)
C1A C 0.5522(4) -0.28058(10) 0.3618(4)
H1A H 0.5895 -0.2983 0.4412
C2A C 0.5548(3) -0.22860(9) 0.3677(3)
H2A H 0.5923 -0.2116 0.4484
C4A C 0.3978(2) -0.12491(8) 0.3303(3)
C5A C 0.4029(2) -0.06899(8) 0.3339(3)
C6A C 0.3132(3) -0.04292(8) 0.4192(3)
H3A H 0.2494 -0.0603 0.4739
C9A C 0.3171(3) 0.00960(8) 0.4241(3)
H4A H 0.2577 0.0269 0.4841
C10A C 0.4086(2) 0.03578(8) 0.3405(3)
C11A C 0.4154(2) 0.09126(9) 0.3490(3)
C13A C 0.6166(3) 0.19544(9) 0.2981(3)
H5A H 0.6965 0.1785 0.3310
C14A C 0.6116(4) 0.24733(11) 0.2961(4)
H6A H 0.6904 0.2650 0.3287
H7? H 0.5959 0.4748 0.2909
N5? N 0.5000 0.42477(13) 0.2500
C15? C 0.5379(4) 0.39664(13) 0.1232(5)
H8? H 0.5360 0.4185 0.0402
H9? H 0.4727 0.3696 0.1068
H10? H 0.6302 0.3831 0.1384
C16? C 0.5000 0.47483(18) 0.2500
O4? O 0.5360(6) 0.50166(19) 0.1514(7)
loop_
_geom_bond_atom_site_label_1
_geom_bond_atom_site_label_2
_geom_bond_site_symmetry_1
_geom_bond_site_symmetry_2
O1 C4 1_555 1_555
O2 C11 1_555 1_555
N1 C1 1_555 1_555
N2 C3 1_555 1_555
N3 C11 1_555 1_555
N4 C14 1_555 1_555
C1 H1 1_555 1_555
C2 C1 1_555 1_555
H2 C2 1_555 1_555
C3 C2 1_555 1_555
C4 N2 1_555 1_555
C5 C4 1_555 1_555
C6 C5 1_555 1_555
H3 C6 1_555 1_555
C7 C5 1_555 1_555
C8 C7 1_555 1_555
C9 C6 1_555 1_555
H4 C9 1_555 1_555
C10 C8 1_555 1_555
C11 C10 1_555 1_555
C12 N3 1_555 1_555
C13 C12 1_555 1_555
H5 C13 1_555 1_555
C14 C13 1_555 1_555
H6 C14 1_555 1_555
O1A C4A 1_555 1_555
O2A C11A 1_555 1_555
C1A N1 1_555 1_555
H1A C1A 1_555 1_555
C2A C3 1_555 1_555
H2A C2A 1_555 1_555
C4A N2 1_555 1_555
C5A C7 1_555 1_555
C6A C5A 1_555 1_555
H3A C6A 1_555 1_555
C9A C6A 1_555 1_555
H4A C9A 1_555 1_555
C10A C8 1_555 1_555
C11A N3 1_555 1_555
C13A C12 1_555 1_555
H5A C13A 1_555 1_555
C14A N4 1_555 1_555
H6A C14A 1_555 1_555
C9 C10 1_555 1_555
C1A C2A 1_555 1_555
C4A C5A 1_555 1_555
C9A C10A 1_555 1_555
C10A C11A 1_555 1_555
C13A C14A 1_555 1_555

#END
