
#######################################################################
#
#                 Cambridge Crystallographic Data Centre
#                                CCDC 
#
#######################################################################
#
# If this CIF has been generated from an entry in the Cambridge 
# Structural Database, then it will include bibliographic, chemical, 
# crystal, experimental, refinement or atomic coordinate data resulting 
# from the CCDC's data processing and validation procedures.
#
#######################################################################

data_QUPKOB
_chemical_formula_moiety         'C32 H20 N4 O4'
_chemical_name_systematic        
r-1,c-2,t-3,t-4-tetrakis(2-benzoxazolyl)cyclobutane
_symmetry_cell_setting           triclinic
_symmetry_space_group_name_H-M   'P -1'
_symmetry_Int_Tables_number      2
_space_group_name_Hall           '-P 1'
loop_
_symmetry_equiv_pos_site_id
_symmetry_equiv_pos_as_xyz
1 x,y,z
2 -x,-y,-z
_cell_length_a                   6.4684(13)
_cell_length_b                   13.242(3)
_cell_length_c                   16.245(3)
_cell_angle_alpha                74.66(3)
_cell_angle_beta                 78.77(3)
_cell_angle_gamma                76.06(3)
_cell_volume                     1289.54
_cell_formula_units_Z            2
loop_
_atom_site_label
_atom_site_type_symbol
_atom_site_fract_x
_atom_site_fract_y
_atom_site_fract_z
N1 N 0.2848(3) 0.7158(2) 0.5501(2)
O1 O 0.0112(3) 0.6362(2) 0.5564(1)
N2 N 0.3933(4) 0.4091(2) 0.6928(2)
O2 O 0.0964(3) 0.4051(2) 0.6438(1)
C1 C 0.0976(4) 0.7689(2) 0.5950(2)
C2 C -0.0683(4) 0.7193(2) 0.5992(2)
C3 C -0.2753(5) 0.7504(3) 0.6394(2)
C4 C -0.3088(6) 0.8359(3) 0.6765(2)
C5 C -0.1448(6) 0.8872(3) 0.6729(3)
C6 C 0.0602(5) 0.8565(3) 0.6321(3)
C7 C 0.2238(4) 0.6414(2) 0.5304(2)
C8 C 0.3551(4) 0.5603(2) 0.4827(2)
C9 C 0.4005(4) 0.4404(2) 0.5345(2)
C10 C 0.3063(4) 0.4175(2) 0.6268(2)
C11 C 0.2305(4) 0.3889(2) 0.7632(2)
C12 C 0.0489(4) 0.3886(2) 0.7324(2)
C13 C -0.1426(5) 0.3721(3) 0.7833(2)
C14 C -0.1410(5) 0.3568(3) 0.8714(2)
C15 C 0.0385(5) 0.3568(3) 0.9043(2)
C16 C 0.2289(5) 0.3719(3) 0.8516(2)
C8A C 0.6449(4) 0.4397(2) 0.5173(2)
C7A C 0.7762(4) 0.3586(2) 0.4696(2)
N1A N 0.7152(3) 0.2842(2) 0.4499(2)
C1A C 0.9024(4) 0.2311(2) 0.4050(2)
C2A C 1.0683(4) 0.2807(2) 0.4008(2)
O1A O 0.9888(3) 0.3638(2) 0.4436(1)
C3A C 1.2753(5) 0.2496(3) 0.3606(2)
C4A C 1.3088(6) 0.1641(3) 0.3235(2)
C5A C 1.1448(6) 0.1128(3) 0.3271(3)
C6A C 0.9398(5) 0.1435(3) 0.3679(3)
C9A C 0.5995(4) 0.5596(2) 0.4655(2)
C10A C 0.6937(4) 0.5825(2) 0.3732(2)
N2A N 0.6067(4) 0.5909(2) 0.3072(2)
C11A C 0.7695(4) 0.6111(2) 0.2368(2)
C12A C 0.9511(4) 0.6114(2) 0.2676(2)
O2A O 0.9036(3) 0.5949(2) 0.3562(1)
C13A C 1.1426(5) 0.6279(3) 0.2167(2)
C14A C 1.1410(5) 0.6432(3) 0.1286(2)
C15A C 0.9615(5) 0.6432(3) 0.0957(2)
C16A C 0.7711(5) 0.6281(3) 0.1484(2)
N3 N 0.5517(4) -0.2161(2) 0.9500(2)
O3 O 0.2038(3) -0.1363(2) 0.9432(1)
N4 N 0.4958(3) 0.0910(2) 0.8071(2)
O4 O 0.1451(3) 0.0945(2) 0.8564(1)
C17 C 0.4607(5) -0.2682(2) 0.9050(2)
C18 C 0.2497(4) -0.2195(2) 0.9010(2)
C19 C 0.1135(5) -0.2498(3) 0.8605(2)
C20 C 0.2055(7) -0.3360(3) 0.8233(2)
C21 C 0.4150(6) -0.3878(3) 0.8268(3)
C22 C 0.5480(6) -0.3557(3) 0.8675(3)
C23 C 0.3951(4) -0.1416(2) 0.9694(2)
C24 C 0.3982(4) -0.0599(2) 1.0173(2)
C25 C 0.3761(4) 0.0592(2) 0.9654(2)
C26 C 0.3500(4) 0.0824(2) 0.8732(2)
C27 C 0.3837(4) 0.1101(2) 0.7367(2)
C28 C 0.1704(4) 0.1110(2) 0.7677(2)
C29 C 0.0130(5) 0.1272(3) 0.7164(2)
C30 C 0.0867(6) 0.1430(3) 0.6291(2)
C31 C 0.2997(5) 0.1444(3) 0.5963(2)
C32 C 0.4516(5) 0.1283(3) 0.6484(2)
C24A C 0.6018(4) 0.0599(2) 0.9827(2)
C23A C 0.6049(4) 0.1416(2) 1.0306(2)
N3A N 0.4483(4) 0.2161(2) 1.0500(2)
C17A C 0.5393(5) 0.2682(2) 1.0950(2)
C18A C 0.7503(4) 0.2195(2) 1.0990(2)
O3A O 0.7962(3) 0.1363(2) 1.0568(1)
C19A C 0.8865(5) 0.2498(3) 1.1395(2)
C20A C 0.7945(7) 0.3360(3) 1.1767(2)
C21A C 0.5850(6) 0.3878(3) 1.1732(3)
C22A C 0.4520(6) 0.3557(3) 1.1325(3)
C25A C 0.6239(4) -0.0592(2) 1.0346(2)
C26A C 0.6500(4) -0.0824(2) 1.1268(2)
N4A N 0.5042(3) -0.0910(2) 1.1929(2)
C27A C 0.6163(4) -0.1101(2) 1.2633(2)
C28A C 0.8296(4) -0.1110(2) 1.2323(2)
O4A O 0.8549(3) -0.0945(2) 1.1436(1)
C29A C 0.9870(5) -0.1272(3) 1.2836(2)
C30A C 0.9133(6) -0.1430(3) 1.3709(2)
C31A C 0.7003(5) -0.1444(3) 1.4037(2)
C32A C 0.5484(5) -0.1283(3) 1.3516(2)
loop_
_geom_bond_atom_site_label_1
_geom_bond_atom_site_label_2
_geom_bond_site_symmetry_1
_geom_bond_site_symmetry_2
N1 C1 1_555 1_555
O1 C2 1_555 1_555
N2 C10 1_555 1_555
O2 C10 1_555 1_555
N3 C17 1_555 1_555
O3 C18 1_555 1_555
N4 C26 1_555 1_555
O4 C26 1_555 1_555
C1 C2 1_555 1_555
C2 C3 1_555 1_555
C3 C4 1_555 1_555
C4 C5 1_555 1_555
C5 C6 1_555 1_555
C6 C1 1_555 1_555
C7 N1 1_555 1_555
C8 C7 1_555 1_555
C9 C8 1_555 1_555
C10 C9 1_555 1_555
C11 N2 1_555 1_555
C12 O2 1_555 1_555
C13 C12 1_555 1_555
C14 C13 1_555 1_555
C15 C14 1_555 1_555
C16 C11 1_555 1_555
C17 C18 1_555 1_555
C18 C19 1_555 1_555
C19 C20 1_555 1_555
C20 C21 1_555 1_555
C21 C22 1_555 1_555
C22 C17 1_555 1_555
C23 N3 1_555 1_555
C24 C23 1_555 1_555
C25 C24 1_555 1_555
C26 C25 1_555 1_555
C27 N4 1_555 1_555
C28 O4 1_555 1_555
C29 C28 1_555 1_555
C30 C29 1_555 1_555
C31 C30 1_555 1_555
C32 C27 1_555 1_555
C8A C9 1_555 1_555
C7A C8A 1_555 1_555
N1A C7A 1_555 1_555
C1A N1A 1_555 1_555
C2A C1A 1_555 1_555
O1A C7A 1_555 1_555
C3A C2A 1_555 1_555
C4A C3A 1_555 1_555
C5A C4A 1_555 1_555
C6A C1A 1_555 1_555
C9A C8 1_555 1_555
C10A C9A 1_555 1_555
N2A C10A 1_555 1_555
C11A N2A 1_555 1_555
C12A C11A 1_555 1_555
O2A C10A 1_555 1_555
C13A C12A 1_555 1_555
C14A C13A 1_555 1_555
C15A C14A 1_555 1_555
C16A C11A 1_555 1_555
C24A C25 1_555 1_555
C23A C24A 1_555 1_555
N3A C23A 1_555 1_555
C17A N3A 1_555 1_555
C18A C17A 1_555 1_555
O3A C23A 1_555 1_555
C19A C18A 1_555 1_555
C20A C19A 1_555 1_555
C21A C20A 1_555 1_555
C22A C17A 1_555 1_555
C25A C24 1_555 1_555
C26A C25A 1_555 1_555
N4A C26A 1_555 1_555
C27A N4A 1_555 1_555
C28A C27A 1_555 1_555
O4A C26A 1_555 1_555
C29A C28A 1_555 1_555
C30A C29A 1_555 1_555
C31A C30A 1_555 1_555
C32A C27A 1_555 1_555
O1 C7 1_555 1_555
O3 C23 1_555 1_555
C11 C12 1_555 1_555
C15 C16 1_555 1_555
C27 C28 1_555 1_555
C31 C32 1_555 1_555
C8A C9A 1_555 1_555
C2A O1A 1_555 1_555
C5A C6A 1_555 1_555
C12A O2A 1_555 1_555
C15A C16A 1_555 1_555
C24A C25A 1_555 1_555
C18A O3A 1_555 1_555
C21A C22A 1_555 1_555
C28A O4A 1_555 1_555
C31A C32A 1_555 1_555

#END
