
#######################################################################
#
#                 Cambridge Crystallographic Data Centre
#                                CCDC 
#
#######################################################################
#
# If this CIF has been generated from an entry in the Cambridge 
# Structural Database, then it will include bibliographic, chemical, 
# crystal, experimental, refinement or atomic coordinate data resulting 
# from the CCDC's data processing and validation procedures.
#
#######################################################################

data_QUPKAP
_chemical_formula_moiety         'C12 H10 N2,C10 H2 N4'
_chemical_name_systematic        
"Benzene-1,2,4,5-tetracarbonitrile trans-4,4'-ethene-1,2-diyldipyridine"
_symmetry_cell_setting           triclinic
_symmetry_space_group_name_H-M   'P -1'
_symmetry_Int_Tables_number      2
_space_group_name_Hall           '-P 1'
loop_
_symmetry_equiv_pos_site_id
_symmetry_equiv_pos_as_xyz
1 x,y,z
2 -x,-y,-z
_cell_length_a                   6.8254(8)
_cell_length_b                   7.1464(8)
_cell_length_c                   10.4459(12)
_cell_angle_alpha                76.839(5)
_cell_angle_beta                 79.122(6)
_cell_angle_gamma                75.897(5)
_cell_volume                     476.37
_exptl_crystal_colour            colorless
_exptl_crystal_description       Platelet
_cell_formula_units_Z            1
loop_
_atom_site_label
_atom_site_type_symbol
_atom_site_fract_x
_atom_site_fract_y
_atom_site_fract_z
N1 N -0.5038(2) 0.4821(2) 0.75277(13)
C1 C -0.4418(3) 0.3258(3) 0.84409(17)
C2 C -0.2982(3) 0.3130(3) 0.92303(17)
C3 C -0.4185(3) 0.6355(3) 0.74051(17)
C4 C -0.2722(3) 0.6349(3) 0.81575(19)
C5 C -0.2088(2) 0.4690(3) 0.91031(16)
C6 C -0.0540(3) 0.4345(3) 1.00284(18)
H1 H -0.0346 0.3182 1.0652
H2 H -0.464(3) 0.748(2) 0.6736(17)
H3 H -0.222(3) 0.751(3) 0.801(2)
H4 H -0.500(3) 0.213(3) 0.8557(18)
H5 H -0.253(3) 0.187(3) 0.990(2)
N1A N 0.5038(2) 0.5179(2) 1.24723(13)
C1A C 0.4418(3) 0.6742(3) 1.15591(17)
C2A C 0.2982(3) 0.6870(3) 1.07697(17)
C3A C 0.4185(3) 0.3645(3) 1.25949(17)
C4A C 0.2722(3) 0.3651(3) 1.18425(19)
C5A C 0.2088(2) 0.5310(3) 1.08969(16)
C6A C 0.0540(3) 0.5655(3) 0.99716(18)
H1A H 0.0346 0.6818 0.9348
H2A H 0.464(3) 0.252(2) 1.3264(17)
H3A H 0.222(3) 0.249(3) 1.199(2)
H4A H 0.500(3) 0.787(3) 1.1443(18)
H5A H 0.253(3) 0.813(3) 1.010(2)
N2 N 0.1506(3) 0.0277(2) 0.77540(17)
N3 N 0.2900(3) 0.9371(2) 0.43944(18)
C8 C 0.2063(3) 0.8118(2) 0.45687(17)
C9 C 0.1004(2) 0.65301(19) 0.47918(14)
C10 C 0.1551(2) 0.4873(2) 0.57460(14)
C11 C 0.0550(2) 0.33372(19) 0.59550(13)
C12 C 0.1094(2) 0.1623(2) 0.69535(16)
H7 H 0.263(2) 0.480(2) 0.6274(15)
N2A N -0.1506(3) 0.9723(2) 0.22460(17)
N3A N -0.2900(3) 0.0629(2) 0.56056(18)
C8A C -0.2063(3) 0.1882(2) 0.54313(17)
C9A C -0.1004(2) 0.34699(19) 0.52082(14)
C10A C -0.1551(2) 0.5127(2) 0.42540(14)
C11A C -0.0550(2) 0.66628(19) 0.40450(13)
C12A C -0.1094(2) 0.8377(2) 0.30465(16)
H7A H -0.263(2) 0.520(2) 0.3726(15)
C7? C -0.0528(7) 0.5508(5) 0.9525(4)
H6? H -0.0310 0.6751 0.9106
loop_
_geom_bond_atom_site_label_1
_geom_bond_atom_site_label_2
_geom_bond_site_symmetry_1
_geom_bond_site_symmetry_2
N1 C1 1_555 1_555
C1 C2 1_555 1_555
C2 C5 1_555 1_555
C3 N1 1_555 1_555
C4 C3 1_555 1_555
C5 C4 1_555 1_555
C6 C5 1_555 1_555
H1 C6 1_555 1_555
H2 C3 1_555 1_555
H3 C4 1_555 1_555
H4 C1 1_555 1_555
H5 C2 1_555 1_555
N2 C12 1_555 1_555
N3 C8 1_555 1_555
C8 C9 1_555 1_555
C9 C10 1_555 1_555
C10 C11 1_555 1_555
C11 C12 1_555 1_555
H7 C10 1_555 1_555
N1A C1A 1_555 1_555
C1A C2A 1_555 1_555
C2A C5A 1_555 1_555
C3A N1A 1_555 1_555
C4A C3A 1_555 1_555
C5A C4A 1_555 1_555
C6A C6 1_555 1_555
H1A C6A 1_555 1_555
H2A C3A 1_555 1_555
H3A C4A 1_555 1_555
H4A C1A 1_555 1_555
H5A C2A 1_555 1_555
N2A C12A 1_555 1_555
N3A C8A 1_555 1_555
C8A C9A 1_555 1_555
C9A C11 1_555 1_555
C10A C9A 1_555 1_555
C11A C9 1_555 1_555
C12A C11A 1_555 1_555
H7A C10A 1_555 1_555
C5A C6A 1_555 1_555
C10A C11A 1_555 1_555

#END
