
#######################################################################
#
#                 Cambridge Crystallographic Data Centre
#                                CCDC 
#
#######################################################################
#
# If this CIF has been generated from an entry in the Cambridge 
# Structural Database, then it will include bibliographic, chemical, 
# crystal, experimental, refinement or atomic coordinate data resulting 
# from the CCDC's data processing and validation procedures.
#
#######################################################################

data_QUPMIY
_chemical_formula_moiety         'C44 H64 S4'
_chemical_name_systematic        
5,5,10,10,15,15,20,20-octapropylcalix[4]thiophene
_symmetry_cell_setting           triclinic
_symmetry_space_group_name_H-M   'P -1'
_symmetry_Int_Tables_number      2
_space_group_name_Hall           '-P 1'
loop_
_symmetry_equiv_pos_site_id
_symmetry_equiv_pos_as_xyz
1 x,y,z
2 -x,-y,-z
_cell_length_a                   8.2550(2)
_cell_length_b                   10.5082(2)
_cell_length_c                   12.4009(3)
_cell_angle_alpha                104.2410(10)
_cell_angle_beta                 95.4480(10)
_cell_angle_gamma                97.4850(10)
_cell_volume                     1024.71
_exptl_crystal_colour            colorless
_exptl_crystal_description       prism
_chemical_melting_point          '341.5-342.5 deg.C'
_cell_formula_units_Z            1
_exptl_crystal_recrystallization_method n-hexane/toluene
loop_
_atom_site_label
_atom_site_type_symbol
_atom_site_fract_x
_atom_site_fract_y
_atom_site_fract_z
S1 S 0.27436(7) 0.35263(5) -0.02537(4)
S2 S 0.46960(6) 0.59496(5) 0.23406(4)
C1 C 0.3035(2) 0.19286(19) -0.09043(16)
C2 C 0.2749(3) 0.1122(2) -0.02198(17)
H1 H 0.2854 0.0207 -0.0416
C3 C 0.2277(3) 0.1779(2) 0.08231(18)
H2 H 0.2032 0.1342 0.1387
C4 C 0.2208(2) 0.3092(2) 0.09359(16)
C5 C 0.1716(2) 0.41344(19) 0.18948(16)
C6 C 0.2238(3) 0.3806(2) 0.30165(16)
H3 H 0.1686 0.2899 0.2978
H4 H 0.3440 0.3796 0.3091
C7 C 0.1851(3) 0.4754(2) 0.40701(17)
H5 H 0.0643 0.4725 0.4032
H6 H 0.2355 0.5673 0.4103
C8 C 0.2496(3) 0.4397(3) 0.51277(19)
H7 H 0.2233 0.5030 0.5786
H8 H 0.3694 0.4435 0.5172
H9 H 0.1978 0.3496 0.5107
C9 C -0.0169(2) 0.4137(2) 0.16973(17)
H10 H -0.0446 0.4857 0.2298
H11 H -0.0428 0.4361 0.0977
C10 C -0.1286(3) 0.2855(2) 0.1666(2)
H12 H -0.1053 0.2127 0.1053
H13 H -0.1051 0.2616 0.2383
C11 C -0.3093(3) 0.2999(2) 0.1482(2)
H14 H -0.3783 0.2161 0.1467
H15 H -0.3332 0.3219 0.0766
H16 H -0.3329 0.3711 0.2095
C12 C 0.2596(2) 0.5502(2) 0.18955(15)
C13 C 0.2019(3) 0.6487(2) 0.15198(17)
H17 H 0.0894 0.6446 0.1246
C14 C 0.3252(2) 0.7584(2) 0.15743(17)
H18 H 0.3027 0.8345 0.1339
C15 C 0.4782(2) 0.74503(19) 0.19930(15)
C16 C 0.6420(2) 0.8361(2) 0.20705(16)
C17 C 0.6151(3) 0.9826(2) 0.24513(16)
H19 H 0.7177 1.0409 0.2414
H20 H 0.5272 0.9974 0.1916
C18 C 0.5680(3) 1.0242(2) 0.36327(18)
H21 H 0.4687 0.9633 0.3687
H22 H 0.6587 1.0151 0.4177
C19 C 0.5338(5) 1.1647(3) 0.3944(2)
H23 H 0.5027 1.1857 0.4703
H24 H 0.4435 1.1742 0.3411
H25 H 0.6330 1.2258 0.3919
C20 C 0.7751(2) 0.8064(2) 0.29075(17)
H26 H 0.7351 0.8193 0.3649
H27 H 0.7876 0.7117 0.2647
C21 C 0.9439(3) 0.8913(2) 0.30572(19)
H28 H 0.9332 0.9863 0.3327
H29 H 0.9859 0.8783 0.2322
C22 C 1.0669(3) 0.8560(3) 0.3890(2)
H30 H 1.1734 0.9133 0.3972
H31 H 1.0804 0.7628 0.3613
H32 H 1.0260 0.8693 0.4619
S1A S 0.72564(7) 0.64737(5) 0.02537(4)
S2A S 0.53040(6) 0.40504(5) -0.23406(4)
C1A C 0.6965(2) 0.80714(19) 0.09043(16)
C2A C 0.7251(3) 0.8878(2) 0.02198(17)
H1A H 0.7146 0.9793 0.0416
C3A C 0.7723(3) 0.8221(2) -0.08231(18)
H2A H 0.7968 0.8658 -0.1387
C4A C 0.7792(2) 0.6908(2) -0.09359(16)
C5A C 0.8284(2) 0.58656(19) -0.18948(16)
C6A C 0.7762(3) 0.6194(2) -0.30165(16)
H3A H 0.8314 0.7101 -0.2978
H4A H 0.6560 0.6204 -0.3091
C7A C 0.8149(3) 0.5246(2) -0.40701(17)
H5A H 0.9357 0.5275 -0.4032
H6A H 0.7645 0.4327 -0.4103
C8A C 0.7504(3) 0.5603(3) -0.51277(19)
H7A H 0.7767 0.4970 -0.5786
H8A H 0.6306 0.5565 -0.5172
H9A H 0.8022 0.6504 -0.5107
C9A C 1.0169(2) 0.5863(2) -0.16973(17)
H10A H 1.0446 0.5143 -0.2298
H11A H 1.0428 0.5639 -0.0977
C10A C 1.1286(3) 0.7145(2) -0.1666(2)
H12A H 1.1053 0.7873 -0.1053
H13A H 1.1051 0.7384 -0.2383
C11A C 1.3093(3) 0.7001(2) -0.1482(2)
H14A H 1.3783 0.7839 -0.1467
H15A H 1.3332 0.6781 -0.0766
H16A H 1.3329 0.6289 -0.2095
C12A C 0.7404(2) 0.4498(2) -0.18955(15)
C13A C 0.7981(3) 0.3513(2) -0.15198(17)
H17A H 0.9106 0.3554 -0.1246
C14A C 0.6748(2) 0.2416(2) -0.15743(17)
H18A H 0.6973 0.1655 -0.1339
C15A C 0.5218(2) 0.25497(19) -0.19930(15)
C16A C 0.3580(2) 0.1639(2) -0.20705(16)
C17A C 0.3849(3) 0.0174(2) -0.24513(16)
H19A H 0.2823 -0.0409 -0.2414
H20A H 0.4728 0.0026 -0.1916
C18A C 0.4320(3) -0.0242(2) -0.36327(18)
H21A H 0.5313 0.0367 -0.3687
H22A H 0.3413 -0.0151 -0.4177
C19A C 0.4662(5) -0.1647(3) -0.3944(2)
H23A H 0.4973 -0.1857 -0.4703
H24A H 0.5565 -0.1742 -0.3411
H25A H 0.3670 -0.2258 -0.3919
C20A C 0.2249(2) 0.1936(2) -0.29075(17)
H26A H 0.2649 0.1807 -0.3649
H27A H 0.2124 0.2883 -0.2647
C21A C 0.0561(3) 0.1087(2) -0.30572(19)
H28A H 0.0668 0.0137 -0.3327
H29A H 0.0141 0.1217 -0.2322
C22A C -0.0669(3) 0.1440(3) -0.3890(2)
H30A H -0.1734 0.0867 -0.3972
H31A H -0.0804 0.2372 -0.3613
H32A H -0.0260 0.1307 -0.4619
loop_
_geom_bond_atom_site_label_1
_geom_bond_atom_site_label_2
_geom_bond_site_symmetry_1
_geom_bond_site_symmetry_2
S1 C1 1_555 1_555
S2 C12 1_555 1_555
C1 C2 1_555 1_555
C2 H1 1_555 1_555
C3 C2 1_555 1_555
H2 C3 1_555 1_555
C4 S1 1_555 1_555
C5 C4 1_555 1_555
C6 C5 1_555 1_555
H3 C6 1_555 1_555
H4 C6 1_555 1_555
C7 C6 1_555 1_555
H5 C7 1_555 1_555
H6 C7 1_555 1_555
C8 C7 1_555 1_555
H7 C8 1_555 1_555
H8 C8 1_555 1_555
H9 C8 1_555 1_555
C9 C5 1_555 1_555
H10 C9 1_555 1_555
H11 C9 1_555 1_555
C10 C9 1_555 1_555
H12 C10 1_555 1_555
H13 C10 1_555 1_555
C11 C10 1_555 1_555
H14 C11 1_555 1_555
H15 C11 1_555 1_555
H16 C11 1_555 1_555
C12 C5 1_555 1_555
C13 C12 1_555 1_555
H17 C13 1_555 1_555
C14 C13 1_555 1_555
H18 C14 1_555 1_555
C15 S2 1_555 1_555
C16 C15 1_555 1_555
C17 C16 1_555 1_555
H19 C17 1_555 1_555
H20 C17 1_555 1_555
C18 C17 1_555 1_555
H21 C18 1_555 1_555
H22 C18 1_555 1_555
C19 C18 1_555 1_555
H23 C19 1_555 1_555
H24 C19 1_555 1_555
H25 C19 1_555 1_555
C20 C16 1_555 1_555
H26 C20 1_555 1_555
H27 C20 1_555 1_555
C21 C20 1_555 1_555
H28 C21 1_555 1_555
H29 C21 1_555 1_555
C22 C21 1_555 1_555
H30 C22 1_555 1_555
H31 C22 1_555 1_555
H32 C22 1_555 1_555
S1A C1A 1_555 1_555
S2A C12A 1_555 1_555
C1A C16 1_555 1_555
C2A C1A 1_555 1_555
H1A C2A 1_555 1_555
C3A C2A 1_555 1_555
H2A C3A 1_555 1_555
C4A S1A 1_555 1_555
C5A C4A 1_555 1_555
C6A C5A 1_555 1_555
H3A C6A 1_555 1_555
H4A C6A 1_555 1_555
C7A C6A 1_555 1_555
H5A C7A 1_555 1_555
H6A C7A 1_555 1_555
C8A C7A 1_555 1_555
H7A C8A 1_555 1_555
H8A C8A 1_555 1_555
H9A C8A 1_555 1_555
C9A C5A 1_555 1_555
H10A C9A 1_555 1_555
H11A C9A 1_555 1_555
C10A C9A 1_555 1_555
H12A C10A 1_555 1_555
H13A C10A 1_555 1_555
C11A C10A 1_555 1_555
H14A C11A 1_555 1_555
H15A C11A 1_555 1_555
H16A C11A 1_555 1_555
C12A C5A 1_555 1_555
C13A C12A 1_555 1_555
H17A C13A 1_555 1_555
C14A C13A 1_555 1_555
H18A C14A 1_555 1_555
C15A S2A 1_555 1_555
C16A C1 1_555 1_555
C17A C16A 1_555 1_555
H19A C17A 1_555 1_555
H20A C17A 1_555 1_555
C18A C17A 1_555 1_555
H21A C18A 1_555 1_555
H22A C18A 1_555 1_555
C19A C18A 1_555 1_555
H23A C19A 1_555 1_555
H24A C19A 1_555 1_555
H25A C19A 1_555 1_555
C20A C16A 1_555 1_555
H26A C20A 1_555 1_555
H27A C20A 1_555 1_555
C21A C20A 1_555 1_555
H28A C21A 1_555 1_555
H29A C21A 1_555 1_555
C22A C21A 1_555 1_555
H30A C22A 1_555 1_555
H31A C22A 1_555 1_555
H32A C22A 1_555 1_555
C3 C4 1_555 1_555
C14 C15 1_555 1_555
C3A C4A 1_555 1_555
C14A C15A 1_555 1_555
C15A C16A 1_555 1_555

#END
