
#######################################################################
#
#                 Cambridge Crystallographic Data Centre
#                                CCDC 
#
#######################################################################
#
# If this CIF has been generated from an entry in the Cambridge 
# Structural Database, then it will include bibliographic, chemical, 
# crystal, experimental, refinement or atomic coordinate data resulting 
# from the CCDC's data processing and validation procedures.
#
#######################################################################

data_QUPNAR
_chemical_formula_moiety         'C48 H64 O4'
_chemical_name_systematic        
tetraspiro-(cyclooctane-1,5'-calix[4]furan-10'-1''-cyclooctane-15',1'''-cyclooctane-20',1''''-cyclooctane)
_symmetry_cell_setting           triclinic
_symmetry_space_group_name_H-M   'P -1'
_symmetry_Int_Tables_number      2
_space_group_name_Hall           '-P 1'
loop_
_symmetry_equiv_pos_site_id
_symmetry_equiv_pos_as_xyz
1 x,y,z
2 -x,-y,-z
_cell_length_a                   12.3313(5)
_cell_length_b                   13.3044(4)
_cell_length_c                   13.9476(4)
_cell_angle_alpha                114.622(2)
_cell_angle_beta                 95.568(2)
_cell_angle_gamma                93.060(2)
_cell_volume                     2059.22
_exptl_crystal_colour            colorless
_exptl_crystal_description       prism
_chemical_melting_point          '306-307 deg.C'
_cell_formula_units_Z            2
_exptl_crystal_recrystallization_method n-hexane/toluene
loop_
_atom_site_label
_atom_site_type_symbol
_atom_site_fract_x
_atom_site_fract_y
_atom_site_fract_z
C1 C 0.3589(2) 0.2553(2) 0.5985(2)
C2 C 0.3432(2) 0.1512(3) 0.5891(3)
H1 H 0.2762 0.1081 0.5720
C3 C 0.4473(2) 0.1182(3) 0.6100(2)
H2 H 0.4611 0.0498 0.6090
C4 C 0.5218(2) 0.2045(2) 0.6313(2)
C5 C 0.6442(2) 0.2279(2) 0.6598(2)
C6 C 0.6704(3) 0.3327(3) 0.7664(2)
H3 H 0.7485 0.3550 0.7780
H4 H 0.6332 0.3922 0.7594
C7 C 0.6392(3) 0.3219(4) 0.8645(3)
H5 H 0.6208 0.3938 0.9132
H6 H 0.5731 0.2708 0.8430
C8 C 0.7163(5) 0.2857(6) 0.9215(4)
H7 H 0.7359 0.3498 0.9893
H8 H 0.6735 0.2322 0.9370
C9 C 0.8112(4) 0.2414(7) 0.8988(4)
H9 H 0.8165 0.1959 0.9380
H10 H 0.8658 0.3045 0.9374
C10 C 0.8576(5) 0.1789(6) 0.8056(5)
H11 H 0.8820 0.1158 0.8163
H12 H 0.9240 0.2246 0.8108
C11 C 0.8128(3) 0.1321(4) 0.6924(3)
H13 H 0.8356 0.0580 0.6585
H14 H 0.8471 0.1766 0.6613
C12 C 0.6896(2) 0.1234(3) 0.6628(3)
H15 H 0.6538 0.1053 0.7133
H16 H 0.6695 0.0620 0.5933
C13 C 0.6931(2) 0.2527(2) 0.5768(2)
C14 C 0.7597(2) 0.3367(3) 0.5791(2)
H17 H 0.7892 0.4000 0.6392
C15 C 0.7771(2) 0.3111(3) 0.4724(2)
H18 H 0.8199 0.3546 0.4498
C16 C 0.7205(2) 0.2128(2) 0.4107(2)
C17 C 0.7047(2) 0.1393(2) 0.2936(2)
C18 C 0.7501(3) 0.0283(3) 0.2739(3)
H19 H 0.7064 -0.0091 0.3059
H20 H 0.7398 -0.0175 0.1978
C19 C 0.8694(3) 0.0332(3) 0.3151(3)
H21 H 0.8835 -0.0407 0.3073
H22 H 0.8801 0.0815 0.3907
C20 C 0.9559(3) 0.0731(4) 0.2642(4)
H23 H 0.9616 0.1536 0.2952
H24 H 1.0258 0.0520 0.2839
C21 C 0.9386(3) 0.0319(4) 0.1463(4)
H25 H 0.8968 -0.0406 0.1172
H26 H 1.0099 0.0208 0.1218
C22 C 0.8823(4) 0.1006(5) 0.0976(3)
H27 H 0.9299 0.1688 0.1187
H28 H 0.8790 0.0606 0.0210
C23 C 0.7702(3) 0.1327(4) 0.1201(3)
H29 H 0.7203 0.0654 0.0948
H30 H 0.7471 0.1736 0.0795
C24 C 0.7596(3) 0.2026(3) 0.2362(3)
H31 H 0.7174 0.2635 0.2407
H32 H 0.8322 0.2345 0.2741
C25 C 0.5845(2) 0.1169(2) 0.2519(2)
C26 C 0.5138(3) 0.0267(3) 0.1946(3)
H33 H 0.5286 -0.0469 0.1718
C27 C 0.4114(3) 0.0649(3) 0.1752(3)
H34 H 0.3471 0.0206 0.1373
C28 C 0.4251(2) 0.1756(3) 0.2214(2)
C29 C 0.3570(2) 0.2681(3) 0.2310(2)
C30 C 0.4104(3) 0.3377(3) 0.1793(3)
H35 H 0.3702 0.4019 0.1926
H36 H 0.4844 0.3650 0.2153
C31 C 0.4162(3) 0.2799(4) 0.0607(3)
H37 H 0.4762 0.3188 0.0455
H38 H 0.4356 0.2054 0.0449
C32 C 0.3200(5) 0.2701(6) -0.0133(4)
H39 H 0.3475 0.2951 -0.0634
H40 H 0.3001 0.1907 -0.0529
C33 C 0.2220(5) 0.3143(6) 0.0051(5)
H41 H 0.1795 0.2841 -0.0649
H42 H 0.2401 0.3925 0.0234
C34 C 0.1433(6) 0.3144(6) 0.0739(4)
H43 H 0.0857 0.2565 0.0293
H44 H 0.1115 0.3841 0.0924
C35 C 0.1611(3) 0.3013(4) 0.1728(3)
H45 H 0.0904 0.2807 0.1880
H46 H 0.1885 0.3735 0.2293
C36 C 0.2380(2) 0.2184(3) 0.1790(3)
H47 H 0.2404 0.1623 0.1075
H48 H 0.2077 0.1815 0.2189
C37 C 0.3556(2) 0.3434(3) 0.3454(3)
C38 C 0.3817(2) 0.4519(3) 0.4058(3)
H49 H 0.4087 0.5040 0.3835
C39 C 0.3605(2) 0.4728(3) 0.5106(3)
H50 H 0.3707 0.5414 0.5694
C40 C 0.3233(2) 0.3759(2) 0.5091(2)
C41 C 0.2873(2) 0.3392(2) 0.5900(2)
C42 C 0.1682(2) 0.2838(3) 0.5537(3)
H51 H 0.1678 0.2159 0.4895
H52 H 0.1460 0.2625 0.6080
C43 C 0.0823(2) 0.3509(3) 0.5315(3)
H53 H 0.0159 0.3012 0.4971
H54 H 0.1070 0.3762 0.4806
C44 C 0.0528(3) 0.4508(3) 0.6242(3)
H55 H 0.1084 0.5121 0.6408
H56 H -0.0159 0.4717 0.6015
C45 C 0.0413(3) 0.4378(4) 0.7243(3)
H57 H 0.0235 0.3594 0.7055
H58 H -0.0205 0.4759 0.7545
C46 C 0.1394(3) 0.4800(4) 0.8096(3)
H59 H 0.1174 0.4732 0.8718
H60 H 0.1553 0.5588 0.8291
C47 C 0.2468(3) 0.4269(3) 0.7872(3)
H61 H 0.2323 0.3480 0.7675
H62 H 0.2978 0.4583 0.8524
C48 C 0.3018(2) 0.4422(3) 0.6992(2)
H63 H 0.3796 0.4627 0.7235
H64 H 0.2726 0.5038 0.6888
O1 O 0.46936(13) 0.29027(15) 0.62454(15)
O2 O 0.66755(14) 0.17454(16) 0.47306(15)
O3 O 0.53171(14) 0.20977(16) 0.26984(15)
O4 O 0.31912(14) 0.29319(16) 0.40747(16)
loop_
_geom_bond_atom_site_label_1
_geom_bond_atom_site_label_2
_geom_bond_site_symmetry_1
_geom_bond_site_symmetry_2
C1 C2 1_555 1_555
C2 H1 1_555 1_555
C3 C2 1_555 1_555
H2 C3 1_555 1_555
C4 C3 1_555 1_555
C5 C4 1_555 1_555
C6 C5 1_555 1_555
H3 C6 1_555 1_555
H4 C6 1_555 1_555
C7 C6 1_555 1_555
H5 C7 1_555 1_555
H6 C7 1_555 1_555
C8 C7 1_555 1_555
H7 C8 1_555 1_555
H8 C8 1_555 1_555
C9 C8 1_555 1_555
H9 C9 1_555 1_555
H10 C9 1_555 1_555
C10 C9 1_555 1_555
H11 C10 1_555 1_555
H12 C10 1_555 1_555
C11 C10 1_555 1_555
H13 C11 1_555 1_555
H14 C11 1_555 1_555
C12 C5 1_555 1_555
H15 C12 1_555 1_555
H16 C12 1_555 1_555
C13 C5 1_555 1_555
C14 C13 1_555 1_555
H17 C14 1_555 1_555
C15 C14 1_555 1_555
H18 C15 1_555 1_555
C16 C15 1_555 1_555
C17 C16 1_555 1_555
C18 C17 1_555 1_555
H19 C18 1_555 1_555
H20 C18 1_555 1_555
C19 C18 1_555 1_555
H21 C19 1_555 1_555
H22 C19 1_555 1_555
C20 C19 1_555 1_555
H23 C20 1_555 1_555
H24 C20 1_555 1_555
C21 C20 1_555 1_555
H25 C21 1_555 1_555
H26 C21 1_555 1_555
C22 C21 1_555 1_555
H27 C22 1_555 1_555
H28 C22 1_555 1_555
C23 C22 1_555 1_555
H29 C23 1_555 1_555
H30 C23 1_555 1_555
C24 C17 1_555 1_555
H31 C24 1_555 1_555
H32 C24 1_555 1_555
C25 C17 1_555 1_555
C26 C25 1_555 1_555
H33 C26 1_555 1_555
C27 C26 1_555 1_555
H34 C27 1_555 1_555
C28 C27 1_555 1_555
C29 C28 1_555 1_555
C30 C29 1_555 1_555
H35 C30 1_555 1_555
H36 C30 1_555 1_555
C31 C30 1_555 1_555
H37 C31 1_555 1_555
H38 C31 1_555 1_555
C32 C31 1_555 1_555
H39 C32 1_555 1_555
H40 C32 1_555 1_555
C33 C32 1_555 1_555
H41 C33 1_555 1_555
H42 C33 1_555 1_555
C34 C33 1_555 1_555
H43 C34 1_555 1_555
H44 C34 1_555 1_555
C35 C34 1_555 1_555
H45 C35 1_555 1_555
H46 C35 1_555 1_555
C36 C29 1_555 1_555
H47 C36 1_555 1_555
H48 C36 1_555 1_555
C37 C29 1_555 1_555
C38 C37 1_555 1_555
H49 C38 1_555 1_555
C39 C38 1_555 1_555
H50 C39 1_555 1_555
C40 C39 1_555 1_555
C41 C1 1_555 1_555
C42 C41 1_555 1_555
H51 C42 1_555 1_555
H52 C42 1_555 1_555
C43 C42 1_555 1_555
H53 C43 1_555 1_555
H54 C43 1_555 1_555
C44 C43 1_555 1_555
H55 C44 1_555 1_555
H56 C44 1_555 1_555
C45 C44 1_555 1_555
H57 C45 1_555 1_555
H58 C45 1_555 1_555
C46 C45 1_555 1_555
H59 C46 1_555 1_555
H60 C46 1_555 1_555
C47 C46 1_555 1_555
H61 C47 1_555 1_555
H62 C47 1_555 1_555
C48 C41 1_555 1_555
H63 C48 1_555 1_555
H64 C48 1_555 1_555
O1 C1 1_555 1_555
O2 C13 1_555 1_555
O3 C25 1_555 1_555
O4 C37 1_555 1_555
C4 O1 1_555 1_555
C11 C12 1_555 1_555
C16 O2 1_555 1_555
C23 C24 1_555 1_555
C28 O3 1_555 1_555
C35 C36 1_555 1_555
C40 C41 1_555 1_555
C40 O4 1_555 1_555
C47 C48 1_555 1_555

#END
