
#######################################################################
#
#                 Cambridge Crystallographic Data Centre
#                                CCDC 
#
#######################################################################
#
# If this CIF has been generated from an entry in the Cambridge 
# Structural Database, then it will include bibliographic, chemical, 
# crystal, experimental, refinement or atomic coordinate data resulting 
# from the CCDC's data processing and validation procedures.
#
#######################################################################

data_QUPNIZ
_chemical_formula_moiety         'C36 H48 S4'
_chemical_name_systematic        
5,5,10,10,15,15,20,20-octaethylcalix[4]thiophene
_symmetry_cell_setting           monoclinic
_symmetry_space_group_name_H-M   'C 2/c'
_symmetry_Int_Tables_number      15
_space_group_name_Hall           '-C 2yn'
loop_
_symmetry_equiv_pos_site_id
_symmetry_equiv_pos_as_xyz
1 x,y,z
2 -x,y,1/2-z
3 1/2+x,1/2+y,z
4 1/2-x,1/2+y,1/2-z
5 -x,-y,-z
6 x,-y,1/2+z
7 1/2-x,1/2-y,-z
8 1/2+x,1/2-y,1/2+z
_cell_length_a                   22.0414(12)
_cell_length_b                   14.6402(7)
_cell_length_c                   11.7284(7)
_cell_angle_alpha                90
_cell_angle_beta                 112.795(3)
_cell_angle_gamma                90
_cell_volume                     3489.05
_exptl_crystal_colour            'pale brown'
_exptl_crystal_description       prism
_chemical_melting_point          '317.5-318 deg.C'
_cell_formula_units_Z            4
_exptl_crystal_recrystallization_method n-hexane/toluene
loop_
_atom_site_label
_atom_site_type_symbol
_atom_site_fract_x
_atom_site_fract_y
_atom_site_fract_z
C1 C 0.44886(11) 0.11612(14) 0.26972(18)
C2 C 0.5000 0.1757(2) 0.2500
C3 C 0.46649(14) 0.23540(17) 0.1332(2)
H1 H 0.5001 0.2765 0.1243
H2 H 0.4506 0.1949 0.0600
C4 C 0.40942(19) 0.2929(2) 0.1327(3)
H3 H 0.3917 0.3284 0.0559
H4 H 0.4246 0.3347 0.2036
H5 H 0.3750 0.2531 0.1384
C5 C 0.42695(13) 0.11441(17) 0.3625(2)
H6 H 0.4424 0.1550 0.4310
C6 C 0.37900(13) 0.04664(16) 0.3481(2)
H7 H 0.3592 0.0375 0.4061
C7 C 0.36382(11) -0.00404(15) 0.24470(19)
C8 C 0.31721(11) -0.08423(15) 0.1986(2)
C9 C 0.25987(12) -0.05853(18) 0.0762(2)
H8 H 0.2782 -0.0440 0.0135
H9 H 0.2308 -0.1123 0.0462
C10 C 0.21871(16) 0.0219(2) 0.0863(3)
H10 H 0.1835 0.0336 0.0054
H11 H 0.2467 0.0762 0.1132
H12 H 0.1993 0.0078 0.1466
C11 C 0.29195(12) -0.11227(17) 0.2998(2)
H13 H 0.3304 -0.1248 0.3773
H14 H 0.2678 -0.0600 0.3158
C12 C 0.24690(16) -0.1959(2) 0.2680(3)
H15 H 0.2335 -0.2093 0.3367
H16 H 0.2706 -0.2485 0.2537
H17 H 0.2078 -0.1836 0.1930
C13 C 0.35491(11) -0.16338(15) 0.17381(19)
C14 C 0.34382(12) -0.21139(16) 0.0692(2)
H18 H 0.3074 -0.2004 -0.0062
C15 C 0.39166(12) -0.27952(16) 0.0825(2)
H19 H 0.3901 -0.3189 0.0171
C16 C 0.43984(11) -0.28341(14) 0.1974(2)
C17 C 0.5000 -0.3441(2) 0.2500
C18 C 0.50528(13) -0.40378(16) 0.1455(2)
H20 H 0.4659 -0.4435 0.1125
H21 H 0.5047 -0.3633 0.0775
C19 C 0.56613(17) -0.46334(19) 0.1842(3)
H22 H 0.5658 -0.4984 0.1128
H23 H 0.5665 -0.5054 0.2494
H24 H 0.6055 -0.4247 0.2153
S1 S 0.40954(3) 0.03250(4) 0.16299(5)
S2 S 0.42558(3) -0.20201(4) 0.29047(5)
C1A C 0.55114(11) 0.11612(14) 0.23028(18)
C3A C 0.53351(14) 0.23540(17) 0.3668(2)
H1A H 0.4999 0.2765 0.3757
H2A H 0.5494 0.1949 0.4400
C4A C 0.59058(19) 0.2929(2) 0.3673(3)
H3A H 0.6083 0.3284 0.4441
H4A H 0.5754 0.3347 0.2964
H5A H 0.6250 0.2531 0.3616
C5A C 0.57305(13) 0.11441(17) 0.1375(2)
H6A H 0.5576 0.1550 0.0690
C6A C 0.62100(13) 0.04664(16) 0.1519(2)
H7A H 0.6408 0.0375 0.0939
C7A C 0.63618(11) -0.00404(15) 0.25530(19)
C8A C 0.68279(11) -0.08423(15) 0.3014(2)
C9A C 0.74013(12) -0.05853(18) 0.4238(2)
H8A H 0.7218 -0.0440 0.4865
H9A H 0.7692 -0.1123 0.4538
C10A C 0.78129(16) 0.0219(2) 0.4137(3)
H10A H 0.8165 0.0336 0.4946
H11A H 0.7533 0.0762 0.3868
H12A H 0.8007 0.0078 0.3534
C11A C 0.70805(12) -0.11227(17) 0.2002(2)
H13A H 0.6696 -0.1248 0.1227
H14A H 0.7322 -0.0600 0.1842
C12A C 0.75310(16) -0.1959(2) 0.2320(3)
H15A H 0.7665 -0.2093 0.1633
H16A H 0.7294 -0.2485 0.2463
H17A H 0.7922 -0.1836 0.3070
C13A C 0.64509(11) -0.16338(15) 0.32619(19)
C14A C 0.65618(12) -0.21139(16) 0.4308(2)
H18A H 0.6926 -0.2004 0.5062
C15A C 0.60834(12) -0.27952(16) 0.4175(2)
H19A H 0.6099 -0.3189 0.4829
C16A C 0.56016(11) -0.28341(14) 0.3026(2)
C18A C 0.49472(13) -0.40378(16) 0.3545(2)
H20A H 0.5341 -0.4435 0.3875
H21A H 0.4953 -0.3633 0.4225
C19A C 0.43387(17) -0.46334(19) 0.3158(3)
H22A H 0.4342 -0.4984 0.3872
H23A H 0.4335 -0.5054 0.2506
H24A H 0.3945 -0.4247 0.2847
S1A S 0.59046(3) 0.03250(4) 0.33701(5)
S2A S 0.57442(3) -0.20201(4) 0.20953(5)
loop_
_geom_bond_atom_site_label_1
_geom_bond_atom_site_label_2
_geom_bond_site_symmetry_1
_geom_bond_site_symmetry_2
C1 C2 1_555 1_555
C2 C3 1_555 1_555
C3 H1 1_555 1_555
H2 C3 1_555 1_555
C4 C3 1_555 1_555
H3 C4 1_555 1_555
H4 C4 1_555 1_555
H5 C4 1_555 1_555
C5 C1 1_555 1_555
H6 C5 1_555 1_555
C6 C5 1_555 1_555
H7 C6 1_555 1_555
C7 C6 1_555 1_555
C8 C7 1_555 1_555
C9 C8 1_555 1_555
H8 C9 1_555 1_555
H9 C9 1_555 1_555
C10 C9 1_555 1_555
H10 C10 1_555 1_555
H11 C10 1_555 1_555
H12 C10 1_555 1_555
C11 C8 1_555 1_555
H13 C11 1_555 1_555
H14 C11 1_555 1_555
C12 C11 1_555 1_555
H15 C12 1_555 1_555
H16 C12 1_555 1_555
H17 C12 1_555 1_555
C13 C8 1_555 1_555
C14 C13 1_555 1_555
H18 C14 1_555 1_555
C15 C14 1_555 1_555
H19 C15 1_555 1_555
C16 C15 1_555 1_555
C17 C16 1_555 1_555
C18 C17 1_555 1_555
H20 C18 1_555 1_555
H21 C18 1_555 1_555
C19 C18 1_555 1_555
H22 C19 1_555 1_555
H23 C19 1_555 1_555
H24 C19 1_555 1_555
S1 C1 1_555 1_555
S2 C13 1_555 1_555
C1A C2 1_555 1_555
C3A C2 1_555 1_555
H1A C3A 1_555 1_555
H2A C3A 1_555 1_555
C4A C3A 1_555 1_555
H3A C4A 1_555 1_555
H4A C4A 1_555 1_555
H5A C4A 1_555 1_555
C5A C1A 1_555 1_555
H6A C5A 1_555 1_555
C6A C5A 1_555 1_555
H7A C6A 1_555 1_555
C7A C6A 1_555 1_555
C8A C7A 1_555 1_555
C9A C8A 1_555 1_555
H8A C9A 1_555 1_555
H9A C9A 1_555 1_555
C10A C9A 1_555 1_555
H10A C10A 1_555 1_555
H11A C10A 1_555 1_555
H12A C10A 1_555 1_555
C11A C8A 1_555 1_555
H13A C11A 1_555 1_555
H14A C11A 1_555 1_555
C12A C11A 1_555 1_555
H15A C12A 1_555 1_555
H16A C12A 1_555 1_555
H17A C12A 1_555 1_555
C13A C8A 1_555 1_555
C14A C13A 1_555 1_555
H18A C14A 1_555 1_555
C15A C14A 1_555 1_555
H19A C15A 1_555 1_555
C16A C17 1_555 1_555
C18A C17 1_555 1_555
H20A C18A 1_555 1_555
H21A C18A 1_555 1_555
C19A C18A 1_555 1_555
H22A C19A 1_555 1_555
H23A C19A 1_555 1_555
H24A C19A 1_555 1_555
S1A C1A 1_555 1_555
S2A C13A 1_555 1_555
C7 S1 1_555 1_555
C16 S2 1_555 1_555
C7A S1A 1_555 1_555
C15A C16A 1_555 1_555
C16A S2A 1_555 1_555

#END
