
#######################################################################
#
#                 Cambridge Crystallographic Data Centre
#                                CCDC 
#
#######################################################################
#
# If this CIF has been generated from an entry in the Cambridge 
# Structural Database, then it will include bibliographic, chemical, 
# crystal, experimental, refinement or atomic coordinate data resulting 
# from the CCDC's data processing and validation procedures.
#
#######################################################################

data_QUPQUP
_chemical_formula_moiety         'C24 H20 N2'
_chemical_name_systematic        1-(1H-pyrrol-2-yl)-N-tritylmethanimine
_symmetry_cell_setting           monoclinic
_symmetry_space_group_name_H-M   'P 21/c'
_symmetry_Int_Tables_number      14
_space_group_name_Hall           '-P 2ybc'
loop_
_symmetry_equiv_pos_site_id
_symmetry_equiv_pos_as_xyz
1 x,y,z
2 -x,1/2+y,1/2-z
3 -x,-y,-z
4 x,1/2-y,1/2+z
_cell_length_a                   11.7601(8)
_cell_length_b                   10.7213(9)
_cell_length_c                   29.0076(15)
_cell_angle_alpha                90
_cell_angle_beta                 98.480(7)
_cell_angle_gamma                90
_cell_volume                     3617.4
_exptl_crystal_colour            colorless
_exptl_crystal_description       block
_cell_formula_units_Z            8
loop_
_atom_site_label
_atom_site_type_symbol
_atom_site_fract_x
_atom_site_fract_y
_atom_site_fract_z
N1 N 0.9333(4) 1.0010(4) 0.10975(16)
H1 H 0.9250 0.9541 0.0854
N2 N 1.1381(4) 0.9992(4) 0.06830(15)
C1 C 1.0332(4) 1.0641(5) 0.12771(18)
C2 C 1.0101(5) 1.1288(6) 0.1661(2)
H2 H 1.0611 1.1797 0.1851
C3 C 0.8953(5) 1.1042(7) 0.1716(2)
H3 H 0.8568 1.1359 0.1949
C4 C 0.8509(5) 1.0252(6) 0.1367(2)
H4 H 0.7765 0.9933 0.1321
C5 C 1.1360(4) 1.0535(5) 0.10679(18)
H5 H 1.2037 1.0879 0.1222
C6 C 1.2470(4) 0.9889(5) 0.04843(17)
C7 C 1.3541(4) 0.9876(5) 0.08680(18)
C8 C 1.3589(4) 0.9044(5) 0.12385(17)
H6 H 1.2990 0.8483 0.1249
C9 C 1.4512(5) 0.9042(5) 0.15881(19)
H7 H 1.4526 0.8480 0.1833
C10 C 1.5419(5) 0.9852(6) 0.15849(19)
H8 H 1.6046 0.9832 0.1821
C11 C 1.5379(5) 1.0706(6) 0.1219(2)
H9 H 1.5979 1.1267 0.1211
C12 C 1.4439(4) 1.0714(5) 0.08663(18)
H10 H 1.4412 1.1290 0.0625
C13 C 1.2547(4) 1.0943(5) 0.01338(17)
C14 C 1.2022(5) 1.2098(6) 0.01706(19)
H11 H 1.1570 1.2223 0.0404
C15 C 1.2160(5) 1.3057(6) -0.0132(2)
H12 H 1.1788 1.3812 -0.0103
C16 C 1.2850(5) 1.2915(6) -0.04796(19)
H13 H 1.2957 1.3566 -0.0680
C17 C 1.3365(5) 1.1778(6) -0.05152(19)
H14 H 1.3826 1.1657 -0.0746
C18 C 1.3217(5) 1.0814(6) -0.02188(18)
H15 H 1.3575 1.0054 -0.0255
C19 C 1.2350(5) 0.8648(5) 0.02111(17)
C20 C 1.1344(5) 0.8442(5) -0.00943(17)
H16 H 1.0753 0.9025 -0.0117
C21 C 1.1213(5) 0.7373(6) -0.0365(2)
H17 H 1.0536 0.7250 -0.0570
C22 C 1.2073(6) 0.6486(6) -0.0336(2)
H18 H 1.1977 0.5772 -0.0519
C23 C 1.3077(5) 0.6672(6) -0.00318(19)
H19 H 1.3660 0.6078 -0.0007
C24 C 1.3217(5) 0.7753(6) 0.02389(18)
H20 H 1.3898 0.7878 0.0441
N3 N 0.9812(4) 0.6285(5) 0.11010(16)
H21 H 0.9312 0.6850 0.1135
N4 N 0.8308(4) 0.5572(4) 0.17044(15)
C25 C 1.0655(6) 0.6399(8) 0.0830(2)
H22 H 1.0793 0.7092 0.0654
C26 C 1.1265(6) 0.5304(9) 0.0864(2)
H23 H 1.1885 0.5111 0.0711
C27 C 1.0776(5) 0.4533(7) 0.11723(19)
H24 H 1.1029 0.3737 0.1265
C28 C 0.9871(5) 0.5138(6) 0.13130(18)
C29 C 0.9049(4) 0.4794(6) 0.16087(18)
H25 H 0.9059 0.3992 0.1731
C30 C 0.7402(4) 0.5239(5) 0.19815(17)
C31 C 0.7623(4) 0.4070(5) 0.22919(17)
C32 C 0.8662(5) 0.3986(6) 0.25963(19)
H26 H 0.9214 0.4607 0.2595
C33 C 0.8872(5) 0.3003(6) 0.2894(2)
H27 H 0.9571 0.2960 0.3090
C34 C 0.8069(5) 0.2067(6) 0.29118(19)
H28 H 0.8220 0.1407 0.3120
C35 C 0.7039(5) 0.2131(6) 0.26135(18)
H29 H 0.6489 0.1509 0.2617
C36 C 0.6832(4) 0.3135(5) 0.23080(18)
H30 H 0.6137 0.3173 0.2109
C37 C 0.6309(5) 0.5060(5) 0.16110(18)
C38 C 0.6331(5) 0.4150(6) 0.12720(17)
H31 H 0.6986 0.3666 0.1270
C39 C 0.5386(5) 0.3962(6) 0.0939(2)
H32 H 0.5410 0.3354 0.0712
C40 C 0.4410(5) 0.4661(6) 0.0937(2)
H33 H 0.3771 0.4512 0.0715
C41 C 0.4375(5) 0.5593(6) 0.1269(2)
H34 H 0.3722 0.6084 0.1266
C42 C 0.5339(5) 0.5775(6) 0.1603(2)
H35 H 0.5324 0.6396 0.1827
C43 C 0.7273(4) 0.6365(5) 0.23021(18)
C44 C 0.6624(5) 0.6270(6) 0.26680(18)
H36 H 0.6275 0.5515 0.2720
C45 C 0.6492(5) 0.7275(6) 0.2952(2)
H37 H 0.6053 0.7187 0.3192
C46 C 0.7000(5) 0.8404(6) 0.2887(2)
H38 H 0.6902 0.9080 0.3077
C47 C 0.7653(5) 0.8514(6) 0.2535(2)
H39 H 0.8014 0.9268 0.2492
C48 C 0.7787(5) 0.7515(5) 0.2241(2)
H40 H 0.8224 0.7616 0.2001
loop_
_geom_bond_atom_site_label_1
_geom_bond_atom_site_label_2
_geom_bond_site_symmetry_1
_geom_bond_site_symmetry_2
N1 H1 1_555 1_555
N2 C5 1_555 1_555
C1 N1 1_555 1_555
C2 C1 1_555 1_555
H2 C2 1_555 1_555
C3 C2 1_555 1_555
H3 C3 1_555 1_555
C4 N1 1_555 1_555
H4 C4 1_555 1_555
C5 C1 1_555 1_555
H5 C5 1_555 1_555
C6 N2 1_555 1_555
C7 C6 1_555 1_555
C8 C7 1_555 1_555
H6 C8 1_555 1_555
C9 C8 1_555 1_555
H7 C9 1_555 1_555
C10 C9 1_555 1_555
H8 C10 1_555 1_555
C11 C10 1_555 1_555
H9 C11 1_555 1_555
C12 C7 1_555 1_555
H10 C12 1_555 1_555
C13 C6 1_555 1_555
C14 C13 1_555 1_555
H11 C14 1_555 1_555
C15 C14 1_555 1_555
H12 C15 1_555 1_555
C16 C15 1_555 1_555
H13 C16 1_555 1_555
C17 C16 1_555 1_555
H14 C17 1_555 1_555
C18 C13 1_555 1_555
H15 C18 1_555 1_555
C19 C6 1_555 1_555
C20 C19 1_555 1_555
H16 C20 1_555 1_555
C21 C20 1_555 1_555
H17 C21 1_555 1_555
C22 C21 1_555 1_555
H18 C22 1_555 1_555
C23 C22 1_555 1_555
H19 C23 1_555 1_555
C24 C19 1_555 1_555
H20 C24 1_555 1_555
N3 H21 1_555 1_555
N4 C29 1_555 1_555
C25 N3 1_555 1_555
H22 C25 1_555 1_555
C26 C25 1_555 1_555
H23 C26 1_555 1_555
C27 C26 1_555 1_555
H24 C27 1_555 1_555
C28 N3 1_555 1_555
C29 C28 1_555 1_555
H25 C29 1_555 1_555
C30 N4 1_555 1_555
C31 C30 1_555 1_555
C32 C31 1_555 1_555
H26 C32 1_555 1_555
C33 C32 1_555 1_555
H27 C33 1_555 1_555
C34 C33 1_555 1_555
H28 C34 1_555 1_555
C35 C34 1_555 1_555
H29 C35 1_555 1_555
C36 C31 1_555 1_555
H30 C36 1_555 1_555
C37 C30 1_555 1_555
C38 C37 1_555 1_555
H31 C38 1_555 1_555
C39 C38 1_555 1_555
H32 C39 1_555 1_555
C40 C39 1_555 1_555
H33 C40 1_555 1_555
C41 C40 1_555 1_555
H34 C41 1_555 1_555
C42 C37 1_555 1_555
H35 C42 1_555 1_555
C43 C30 1_555 1_555
C44 C43 1_555 1_555
H36 C44 1_555 1_555
C45 C44 1_555 1_555
H37 C45 1_555 1_555
C46 C45 1_555 1_555
H38 C46 1_555 1_555
C47 C46 1_555 1_555
H39 C47 1_555 1_555
C48 C43 1_555 1_555
H40 C48 1_555 1_555
C3 C4 1_555 1_555
C11 C12 1_555 1_555
C17 C18 1_555 1_555
C23 C24 1_555 1_555
C27 C28 1_555 1_555
C35 C36 1_555 1_555
C41 C42 1_555 1_555
C47 C48 1_555 1_555

#END
