
#######################################################################
#
#                 Cambridge Crystallographic Data Centre
#                                CCDC 
#
#######################################################################
#
# If this CIF has been generated from an entry in the Cambridge 
# Structural Database, then it will include bibliographic, chemical, 
# crystal, experimental, refinement or atomic coordinate data resulting 
# from the CCDC's data processing and validation procedures.
#
#######################################################################

data_QUPRIE
_chemical_formula_moiety         'C104 H92 K4 N8 O2'
_chemical_name_systematic        
tetrakis(\m-\h^5^-2-(((triphenylmethyl)imino)methyl)-1H-pyrrol-1-yl)-bis(tetrahydrofuran)-tetra-potassium
_symmetry_cell_setting           monoclinic
_symmetry_space_group_name_H-M   'P 21/c'
_symmetry_Int_Tables_number      14
_space_group_name_Hall           '-P 2ybc'
loop_
_symmetry_equiv_pos_site_id
_symmetry_equiv_pos_as_xyz
1 x,y,z
2 -x,1/2+y,1/2-z
3 -x,-y,-z
4 x,1/2-y,1/2+z
_cell_length_a                   16.7937(12)
_cell_length_b                   10.7713(6)
_cell_length_c                   24.1946(17)
_cell_angle_alpha                90
_cell_angle_beta                 90.543(8)
_cell_angle_gamma                90
_cell_volume                     4376.36
_exptl_crystal_colour            colorless
_exptl_crystal_description       block
_cell_formula_units_Z            2
loop_
_atom_site_label
_atom_site_type_symbol
_atom_site_fract_x
_atom_site_fract_y
_atom_site_fract_z
K1 K 0.91527(5) 0.63678(7) 0.48681(3)
K2 K 0.85148(5) 0.56172(7) 0.34352(3)
O1 O 0.90124(18) 0.4749(3) 0.24651(11)
N1 N 0.98708(19) 0.4687(3) 0.41152(11)
N2 N 0.82649(18) 0.4169(3) 0.44811(11)
N3 N 0.92092(18) 0.7721(3) 0.37658(11)
N4 N 0.76278(18) 0.8039(3) 0.33312(11)
C1 C 1.0617(2) 0.4488(3) 0.39256(14)
H1 H 1.0968 0.5123 0.3836
C2 C 1.0801(2) 0.3235(4) 0.38785(14)
H2 H 1.1279 0.2895 0.3760
C3 C 1.0122(2) 0.2589(3) 0.40464(14)
H3 H 1.0056 0.1733 0.4060
C4 C 0.9562(2) 0.3497(3) 0.41897(13)
C5 C 0.8774(2) 0.3298(3) 0.43850(13)
H4 H 0.8614 0.2483 0.4448
C6 C 0.7466(2) 0.3867(3) 0.47052(14)
C7 C 0.7254(2) 0.4987(3) 0.50770(14)
C8 C 0.7283(2) 0.6181(3) 0.48364(16)
H5 H 0.7437 0.6262 0.4470
C9 C 0.7090(3) 0.7229(4) 0.51334(17)
H6 H 0.7107 0.8004 0.4965
C10 C 0.6868(3) 0.7129(4) 0.56848(18)
H7 H 0.6745 0.7834 0.5889
C11 C 0.6836(3) 0.5982(4) 0.59206(18)
H8 H 0.6684 0.5912 0.6288
C12 C 0.7027(2) 0.4905(4) 0.56254(16)
H9 H 0.7002 0.4135 0.5798
C13 C 0.7466(2) 0.2645(3) 0.50333(14)
C14 C 0.8008(2) 0.2477(3) 0.54680(15)
H10 H 0.8358 0.3115 0.5559
C15 C 0.8034(3) 0.1382(3) 0.57657(16)
H11 H 0.8401 0.1292 0.6054
C16 C 0.7518(2) 0.0413(3) 0.56374(16)
H12 H 0.7540 -0.0327 0.5835
C17 C 0.6972(3) 0.0563(3) 0.52144(17)
H13 H 0.6617 -0.0074 0.5131
C18 C 0.6948(2) 0.1666(3) 0.49088(15)
H14 H 0.6583 0.1749 0.4620
C19 C 0.6851(3) 0.3807(3) 0.42312(16)
C20 C 0.6059(3) 0.4078(4) 0.4326(2)
H15 H 0.5907 0.4338 0.4676
C21 C 0.5482(3) 0.3971(4) 0.3908(3)
H16 H 0.4951 0.4153 0.3978
C22 C 0.5713(4) 0.3592(5) 0.3389(2)
H17 H 0.5334 0.3507 0.3109
C23 C 0.6496(4) 0.3340(5) 0.3283(2)
H18 H 0.6649 0.3111 0.2929
C24 C 0.7060(3) 0.3427(4) 0.37023(16)
H19 H 0.7587 0.3228 0.3629
C25 C 0.9899(2) 0.7983(3) 0.40441(14)
H20 H 1.0381 0.7587 0.3977
C26 C 0.9802(2) 0.8910(3) 0.44405(15)
H21 H 1.0189 0.9226 0.4679
C27 C 0.9004(2) 0.9265(3) 0.44049(15)
H22 H 0.8751 0.9863 0.4618
C28 C 0.8658(2) 0.8538(3) 0.39828(14)
C29 C 0.7869(2) 0.8666(3) 0.37507(14)
H23 H 0.7520 0.9228 0.3912
C30 C 0.6844(2) 0.8350(3) 0.30757(14)
C31 C 0.6912(2) 0.9528(3) 0.27092(15)
C32 C 0.6251(2) 0.9952(4) 0.24121(15)
H24 H 0.5770 0.9534 0.2446
C33 C 0.6290(3) 1.0982(4) 0.20667(16)
H25 H 0.5837 1.1253 0.1878
C34 C 0.7001(3) 1.1599(4) 0.20042(18)
H26 H 0.7036 1.2289 0.1774
C35 C 0.7656(3) 1.1179(5) 0.2287(2)
H27 H 0.8140 1.1586 0.2244
C36 C 0.7616(3) 1.0158(4) 0.26374(19)
H28 H 0.8072 0.9898 0.2826
C37 C 0.6205(2) 0.8491(4) 0.35204(14)
C38 C 0.5940(2) 0.9642(4) 0.36998(15)
H29 H 0.6131 1.0359 0.3533
C39 C 0.5393(3) 0.9737(5) 0.41272(17)
H30 H 0.5220 1.0515 0.4240
C40 C 0.5107(3) 0.8688(5) 0.43836(18)
H31 H 0.4737 0.8750 0.4666
C41 C 0.5381(3) 0.7539(5) 0.42129(17)
H32 H 0.5194 0.6825 0.4384
C42 C 0.5929(3) 0.7436(4) 0.37918(16)
H33 H 0.6115 0.6657 0.3689
C43 C 0.6650(2) 0.7274(3) 0.26687(14)
C44 C 0.5871(2) 0.6958(4) 0.25278(16)
H34 H 0.5449 0.7366 0.2696
C45 C 0.5716(3) 0.6039(4) 0.21376(17)
H35 H 0.5192 0.5857 0.2040
C46 C 0.6326(3) 0.5395(4) 0.18931(16)
H36 H 0.6218 0.4767 0.1639
C47 C 0.7103(3) 0.5697(4) 0.20319(16)
H37 H 0.7523 0.5270 0.1870
C48 C 0.7260(3) 0.6632(4) 0.24105(15)
H38 H 0.7786 0.6836 0.2494
C49 C 0.9360(3) 0.5560(4) 0.2068(2)
H39 H 0.9280 0.6417 0.2176
H40 H 0.9110 0.5435 0.1709
C50 C 1.0231(3) 0.5278(4) 0.20378(19)
H41 H 1.0544 0.5989 0.2155
H42 H 1.0379 0.5060 0.1664
C51 C 1.0364(3) 0.4188(4) 0.24261(16)
H43 H 1.0705 0.3566 0.2260
H44 H 1.0601 0.4457 0.2773
C52 C 0.9533(3) 0.3690(4) 0.25108(19)
H45 H 0.9401 0.3076 0.2231
H46 H 0.9488 0.3309 0.2872
K1B K 1.08473(5) 0.36322(7) 0.51319(3)
K2B K 1.14852(5) 0.43828(7) 0.65648(3)
O1B O 1.09876(18) 0.5251(3) 0.75349(11)
N1B N 1.01292(19) 0.5313(3) 0.58848(11)
N2B N 1.17351(18) 0.5831(3) 0.55189(11)
N3B N 1.07908(18) 0.2279(3) 0.62342(11)
N4B N 1.23722(18) 0.1961(3) 0.66688(11)
C1B C 0.9383(2) 0.5512(3) 0.60744(14)
H1B H 0.9032 0.4877 0.6164
C2B C 0.9199(2) 0.6765(4) 0.61215(14)
H2B H 0.8721 0.7105 0.6240
C3B C 0.9878(2) 0.7411(3) 0.59536(14)
H3B H 0.9944 0.8267 0.5940
C4B C 1.0438(2) 0.6503(3) 0.58103(13)
C5B C 1.1226(2) 0.6702(3) 0.56150(13)
H4B H 1.1386 0.7517 0.5552
C6B C 1.2534(2) 0.6133(3) 0.52948(14)
C7B C 1.2746(2) 0.5013(3) 0.49230(14)
C8B C 1.2717(2) 0.3819(3) 0.51636(16)
H5B H 1.2563 0.3738 0.5530
C9B C 1.2910(3) 0.2771(4) 0.48666(17)
H6B H 1.2893 0.1996 0.5035
C10B C 1.3132(3) 0.2871(4) 0.43152(18)
H7B H 1.3255 0.2166 0.4111
C11B C 1.3164(3) 0.4018(4) 0.40794(18)
H8B H 1.3316 0.4088 0.3712
C12B C 1.2973(2) 0.5095(4) 0.43746(16)
H9B H 1.2998 0.5865 0.4202
C13B C 1.2534(2) 0.7355(3) 0.49667(14)
C14B C 1.1992(2) 0.7523(3) 0.45320(15)
H10B H 1.1642 0.6885 0.4441
C15B C 1.1966(3) 0.8618(3) 0.42343(16)
H11B H 1.1599 0.8708 0.3946
C16B C 1.2482(2) 0.9587(3) 0.43626(16)
H12B H 1.2460 1.0327 0.4165
C17B C 1.3028(3) 0.9437(3) 0.47856(17)
H13B H 1.3383 1.0074 0.4869
C18B C 1.3052(2) 0.8334(3) 0.50912(15)
H14B H 1.3417 0.8251 0.5380
C19B C 1.3149(3) 0.6193(3) 0.57688(16)
C20B C 1.3941(3) 0.5922(4) 0.5674(2)
H15B H 1.4093 0.5662 0.5324
C21B C 1.4518(3) 0.6029(4) 0.6092(3)
H16B H 1.5049 0.5847 0.6022
C22B C 1.4287(4) 0.6408(5) 0.6611(2)
H17B H 1.4666 0.6493 0.6891
C23B C 1.3504(4) 0.6660(5) 0.6717(2)
H18B H 1.3351 0.6889 0.7071
C24B C 1.2940(3) 0.6573(4) 0.62977(16)
H19B H 1.2413 0.6772 0.6371
C25B C 1.0101(2) 0.2017(3) 0.59559(14)
H20B H 0.9619 0.2413 0.6023
C26B C 1.0198(2) 0.1090(3) 0.55595(15)
H21B H 0.9811 0.0774 0.5321
C27B C 1.0996(2) 0.0735(3) 0.55951(15)
H22B H 1.1249 0.0137 0.5382
C28B C 1.1342(2) 0.1462(3) 0.60172(14)
C29B C 1.2131(2) 0.1334(3) 0.62493(14)
H23B H 1.2480 0.0772 0.6088
C30B C 1.3156(2) 0.1650(3) 0.69243(14)
C31B C 1.3088(2) 0.0472(3) 0.72908(15)
C32B C 1.3749(2) 0.0048(4) 0.75879(15)
H24B H 1.4230 0.0466 0.7554
C33B C 1.3710(3) -0.0982(4) 0.79333(16)
H25B H 1.4163 -0.1253 0.8122
C34B C 1.2999(3) -0.1599(4) 0.79958(18)
H26B H 1.2964 -0.2289 0.8226
C35B C 1.2344(3) -0.1179(5) 0.7713(2)
H27B H 1.1860 -0.1586 0.7756
C36B C 1.2384(3) -0.0158(4) 0.73626(19)
H28B H 1.1928 0.0102 0.7174
C37B C 1.3795(2) 0.1509(4) 0.64796(14)
C38B C 1.4060(2) 0.0358(4) 0.63002(15)
H29B H 1.3869 -0.0359 0.6467
C39B C 1.4607(3) 0.0263(5) 0.58728(17)
H30B H 1.4780 -0.0515 0.5760
C40B C 1.4893(3) 0.1312(5) 0.56164(18)
H31B H 1.5263 0.1250 0.5334
C41B C 1.4619(3) 0.2461(5) 0.57871(17)
H32B H 1.4806 0.3175 0.5616
C42B C 1.4071(3) 0.2564(4) 0.62082(16)
H33B H 1.3885 0.3343 0.6311
C43B C 1.3350(2) 0.2726(3) 0.73313(14)
C44B C 1.4129(2) 0.3042(4) 0.74722(16)
H34B H 1.4551 0.2634 0.7304
C45B C 1.4284(3) 0.3961(4) 0.78624(17)
H35B H 1.4808 0.4143 0.7960
C46B C 1.3674(3) 0.4605(4) 0.81069(16)
H36B H 1.3782 0.5233 0.8361
C47B C 1.2897(3) 0.4303(4) 0.79681(16)
H37B H 1.2477 0.4730 0.8130
C48B C 1.2740(3) 0.3368(4) 0.75895(15)
H38B H 1.2214 0.3164 0.7506
C49B C 1.0640(3) 0.4440(4) 0.7932(2)
H39B H 1.0720 0.3583 0.7824
H40B H 1.0890 0.4565 0.8291
C50B C 0.9769(3) 0.4722(4) 0.79622(19)
H41B H 0.9456 0.4011 0.7845
H42B H 0.9621 0.4940 0.8336
C51B C 0.9636(3) 0.5812(4) 0.75739(16)
H43B H 0.9295 0.6434 0.7740
H44B H 0.9399 0.5543 0.7227
C52B C 1.0467(3) 0.6310(4) 0.74892(19)
H45B H 1.0599 0.6924 0.7769
H46B H 1.0512 0.6691 0.7128
loop_
_geom_bond_atom_site_label_1
_geom_bond_atom_site_label_2
_geom_bond_site_symmetry_1
_geom_bond_site_symmetry_2
K1 N1 1_555 1_555
K2 O1 1_555 1_555
O1 C49 1_555 1_555
N1 K2 1_555 1_555
N2 K1 1_555 1_555
N3 K1 1_555 1_555
N4 K2 1_555 1_555
C1 N1 1_555 1_555
H1 C1 1_555 1_555
C2 C1 1_555 1_555
H2 C2 1_555 1_555
C3 C2 1_555 1_555
H3 C3 1_555 1_555
C4 N1 1_555 1_555
C5 N2 1_555 1_555
H4 C5 1_555 1_555
C6 N2 1_555 1_555
C7 C6 1_555 1_555
C8 K1 1_555 1_555
H5 C8 1_555 1_555
C9 C8 1_555 1_555
H6 C9 1_555 1_555
C10 C9 1_555 1_555
H7 C10 1_555 1_555
C11 C10 1_555 1_555
H8 C11 1_555 1_555
C12 C7 1_555 1_555
H9 C12 1_555 1_555
C13 C6 1_555 1_555
C14 C13 1_555 1_555
H10 C14 1_555 1_555
C15 C14 1_555 1_555
H11 C15 1_555 1_555
C16 C15 1_555 1_555
H12 C16 1_555 1_555
C17 C16 1_555 1_555
H13 C17 1_555 1_555
C18 C13 1_555 1_555
H14 C18 1_555 1_555
C19 C6 1_555 1_555
C20 C19 1_555 1_555
H15 C20 1_555 1_555
C21 C20 1_555 1_555
H16 C21 1_555 1_555
C22 C21 1_555 1_555
H17 C22 1_555 1_555
C23 C22 1_555 1_555
H18 C23 1_555 1_555
C24 C19 1_555 1_555
H19 C24 1_555 1_555
C25 K1 1_555 1_555
H20 C25 1_555 1_555
C26 K1 1_555 1_555
H21 C26 1_555 1_555
C27 K1 1_555 1_555
H22 C27 1_555 1_555
C28 K1 1_555 1_555
C29 N4 1_555 1_555
H23 C29 1_555 1_555
C30 N4 1_555 1_555
C31 C30 1_555 1_555
C32 C31 1_555 1_555
H24 C32 1_555 1_555
C33 C32 1_555 1_555
H25 C33 1_555 1_555
C34 C33 1_555 1_555
H26 C34 1_555 1_555
C35 C34 1_555 1_555
H27 C35 1_555 1_555
C36 C31 1_555 1_555
H28 C36 1_555 1_555
C37 C30 1_555 1_555
C38 C37 1_555 1_555
H29 C38 1_555 1_555
C39 C38 1_555 1_555
H30 C39 1_555 1_555
C40 C39 1_555 1_555
H31 C40 1_555 1_555
C41 C40 1_555 1_555
H32 C41 1_555 1_555
C42 C37 1_555 1_555
H33 C42 1_555 1_555
C43 C30 1_555 1_555
C44 C43 1_555 1_555
H34 C44 1_555 1_555
C45 C44 1_555 1_555
H35 C45 1_555 1_555
C46 C45 1_555 1_555
H36 C46 1_555 1_555
C47 C46 1_555 1_555
H37 C47 1_555 1_555
C48 C43 1_555 1_555
H38 C48 1_555 1_555
C49 H39 1_555 1_555
H40 C49 1_555 1_555
C50 C49 1_555 1_555
H41 C50 1_555 1_555
H42 C50 1_555 1_555
C51 C50 1_555 1_555
H43 C51 1_555 1_555
H44 C51 1_555 1_555
C52 O1 1_555 1_555
H45 C52 1_555 1_555
H46 C52 1_555 1_555
K1B N1 1_555 1_555
K2B O1B 1_555 1_555
O1B C49B 1_555 1_555
N1B K1 1_555 1_555
N2B K1B 1_555 1_555
N3B K1B 1_555 1_555
N4B K2B 1_555 1_555
C1B K1 1_555 1_555
H1B C1B 1_555 1_555
C2B K1 1_555 1_555
H2B C2B 1_555 1_555
C3B K1 1_555 1_555
H3B C3B 1_555 1_555
C4B K1 1_555 1_555
C5B N2B 1_555 1_555
H4B C5B 1_555 1_555
C6B N2B 1_555 1_555
C7B C6B 1_555 1_555
C8B K1B 1_555 1_555
H5B C8B 1_555 1_555
C9B C8B 1_555 1_555
H6B C9B 1_555 1_555
C10B C9B 1_555 1_555
H7B C10B 1_555 1_555
C11B C10B 1_555 1_555
H8B C11B 1_555 1_555
C12B C7B 1_555 1_555
H9B C12B 1_555 1_555
C13B C6B 1_555 1_555
C14B C13B 1_555 1_555
H10B C14B 1_555 1_555
C15B C14B 1_555 1_555
H11B C15B 1_555 1_555
C16B C15B 1_555 1_555
H12B C16B 1_555 1_555
C17B C16B 1_555 1_555
H13B C17B 1_555 1_555
C18B C13B 1_555 1_555
H14B C18B 1_555 1_555
C19B C6B 1_555 1_555
C20B C19B 1_555 1_555
H15B C20B 1_555 1_555
C21B C20B 1_555 1_555
H16B C21B 1_555 1_555
C22B C21B 1_555 1_555
H17B C22B 1_555 1_555
C23B C22B 1_555 1_555
H18B C23B 1_555 1_555
C24B C19B 1_555 1_555
H19B C24B 1_555 1_555
C25B K1B 1_555 1_555
H20B C25B 1_555 1_555
C26B K1B 1_555 1_555
H21B C26B 1_555 1_555
C27B K1B 1_555 1_555
H22B C27B 1_555 1_555
C28B K1B 1_555 1_555
C29B N4B 1_555 1_555
H23B C29B 1_555 1_555
C30B N4B 1_555 1_555
C31B C30B 1_555 1_555
C32B C31B 1_555 1_555
H24B C32B 1_555 1_555
C33B C32B 1_555 1_555
H25B C33B 1_555 1_555
C34B C33B 1_555 1_555
H26B C34B 1_555 1_555
C35B C34B 1_555 1_555
H27B C35B 1_555 1_555
C36B C31B 1_555 1_555
H28B C36B 1_555 1_555
C37B C30B 1_555 1_555
C38B C37B 1_555 1_555
H29B C38B 1_555 1_555
C39B C38B 1_555 1_555
H30B C39B 1_555 1_555
C40B C39B 1_555 1_555
H31B C40B 1_555 1_555
C41B C40B 1_555 1_555
H32B C41B 1_555 1_555
C42B C37B 1_555 1_555
H33B C42B 1_555 1_555
C43B C30B 1_555 1_555
C44B C43B 1_555 1_555
H34B C44B 1_555 1_555
C45B C44B 1_555 1_555
H35B C45B 1_555 1_555
C46B C45B 1_555 1_555
H36B C46B 1_555 1_555
C47B C46B 1_555 1_555
H37B C47B 1_555 1_555
C48B C43B 1_555 1_555
H38B C48B 1_555 1_555
C49B H39B 1_555 1_555
H40B C49B 1_555 1_555
C50B C49B 1_555 1_555
H41B C50B 1_555 1_555
H42B C50B 1_555 1_555
C51B C50B 1_555 1_555
H43B C51B 1_555 1_555
H44B C51B 1_555 1_555
C52B O1B 1_555 1_555
H45B C52B 1_555 1_555
H46B C52B 1_555 1_555
K2 N2 1_555 1_555
K2 N3 1_555 1_555
N3 C25 1_555 1_555
N3 C28 1_555 1_555
C1 K1B 1_555 1_555
C2 K1B 1_555 1_555
C3 C4 1_555 1_555
C3 K1B 1_555 1_555
C4 C5 1_555 1_555
C4 K1B 1_555 1_555
C7 C8 1_555 1_555
C11 C12 1_555 1_555
C17 C18 1_555 1_555
C23 C24 1_555 1_555
C25 C26 1_555 1_555
C26 C27 1_555 1_555
C27 C28 1_555 1_555
C28 C29 1_555 1_555
C35 C36 1_555 1_555
C41 C42 1_555 1_555
C47 C48 1_555 1_555
C51 C52 1_555 1_555
K1B N1B 1_555 1_555
K2B N1B 1_555 1_555
K2B N2B 1_555 1_555
K2B N3B 1_555 1_555
N1B C1B 1_555 1_555
N1B C4B 1_555 1_555
N3B C25B 1_555 1_555
N3B C28B 1_555 1_555
C1B C2B 1_555 1_555
C2B C3B 1_555 1_555
C3B C4B 1_555 1_555
C4B C5B 1_555 1_555
C7B C8B 1_555 1_555
C11B C12B 1_555 1_555
C17B C18B 1_555 1_555
C23B C24B 1_555 1_555
C25B C26B 1_555 1_555
C26B C27B 1_555 1_555
C27B C28B 1_555 1_555
C28B C29B 1_555 1_555
C35B C36B 1_555 1_555
C41B C42B 1_555 1_555
C47B C48B 1_555 1_555
C51B C52B 1_555 1_555

#END
