
#######################################################################
#
#                 Cambridge Crystallographic Data Centre
#                                CCDC 
#
#######################################################################
#
# If this CIF has been generated from an entry in the Cambridge 
# Structural Database, then it will include bibliographic, chemical, 
# crystal, experimental, refinement or atomic coordinate data resulting 
# from the CCDC's data processing and validation procedures.
#
#######################################################################

data_QUPRAW
_chemical_formula_moiety         'C32 H35 Li1 N2 O2'
_chemical_name_systematic        
(2-(((triphenylmethyl)imino)methyl)-1H-pyrrol-1-yl)-bis(tetrahydrofuran)-lithium
_symmetry_cell_setting           orthorhombic
_symmetry_space_group_name_H-M   'P b c a'
_symmetry_Int_Tables_number      61
_space_group_name_Hall           '-P 2ac 2ab'
loop_
_symmetry_equiv_pos_site_id
_symmetry_equiv_pos_as_xyz
1 x,y,z
2 1/2-x,-y,1/2+z
3 1/2+x,1/2-y,-z
4 -x,1/2+y,1/2-z
5 -x,-y,-z
6 1/2+x,y,1/2-z
7 1/2-x,1/2+y,z
8 x,1/2-y,1/2+z
_cell_length_a                   16.5703(5)
_cell_length_b                   16.4159(7)
_cell_length_c                   39.7779(19)
_cell_angle_alpha                90
_cell_angle_beta                 90
_cell_angle_gamma                90
_cell_volume                     10820.2
_exptl_crystal_colour            colorless
_exptl_crystal_description       block
_cell_formula_units_Z            16
loop_
_atom_site_label
_atom_site_type_symbol
_atom_site_fract_x
_atom_site_fract_y
_atom_site_fract_z
C1 C 0.16957(12) 0.15431(14) 0.60078(5)
H1 H 0.1821 0.1711 0.5791
C2 C 0.12232(13) 0.08667(14) 0.60820(5)
H2 H 0.0986 0.0510 0.5930
C3 C 0.11779(12) 0.08330(13) 0.64314(5)
H3 H 0.0902 0.0450 0.6560
C4 C 0.16300(11) 0.14894(12) 0.65507(5)
C5 C 0.17978(11) 0.17025(12) 0.68920(5)
C6 C 0.24385(11) 0.24282(12) 0.73376(4)
C7 C 0.30988(10) 0.18341(12) 0.74651(4)
C8 C 0.33206(12) 0.11391(13) 0.72901(5)
H4 H 0.3072 0.1020 0.7086
C9 C 0.39111(13) 0.06167(14) 0.74153(5)
H5 H 0.4053 0.0154 0.7294
C10 C 0.42850(12) 0.07794(13) 0.77160(5)
H6 H 0.4678 0.0429 0.7799
C11 C 0.40713(12) 0.14712(13) 0.78949(5)
H7 H 0.4319 0.1584 0.8099
C12 C 0.34899(11) 0.19941(13) 0.77693(5)
H8 H 0.3357 0.2461 0.7890
C13 C 0.27892(11) 0.32941(12) 0.73714(4)
C14 C 0.34041(11) 0.35381(12) 0.71559(5)
H9 H 0.3562 0.3195 0.6982
C15 C 0.37870(12) 0.42826(13) 0.71953(5)
H10 H 0.4198 0.4433 0.7049
C16 C 0.35592(13) 0.48013(13) 0.74517(5)
H11 H 0.3821 0.5298 0.7480
C17 C 0.29391(14) 0.45780(13) 0.76657(5)
H12 H 0.2776 0.4929 0.7836
C18 C 0.25588(13) 0.38276(13) 0.76259(5)
H13 H 0.2145 0.3681 0.7772
C19 C 0.16583(11) 0.23431(12) 0.75438(4)
C20 C 0.15689(11) 0.18346(12) 0.78185(5)
H14 H 0.2003 0.1519 0.7889
C21 C 0.08382(12) 0.17878(14) 0.79916(5)
H15 H 0.0790 0.1445 0.8177
C22 C 0.01839(12) 0.22518(14) 0.78881(5)
H16 H -0.0304 0.2222 0.8003
C23 C 0.02649(12) 0.27598(15) 0.76128(5)
H17 H -0.0172 0.3072 0.7542
C24 C 0.09898(12) 0.28070(13) 0.74427(5)
H18 H 0.1036 0.3152 0.7258
C25 C 0.19041(16) 0.45129(15) 0.66597(6)
H19 H 0.2369 0.4773 0.6762
H20 H 0.1579 0.4273 0.6837
C26 C 0.1433(2) 0.5108(2) 0.64753(7)
H21 H 0.1731 0.5614 0.6454
H22 H 0.0930 0.5219 0.6591
C27 C 0.1273(2) 0.47536(19) 0.61396(7)
H23 H 0.0738 0.4514 0.6131
H24 H 0.1317 0.5165 0.5965
C28 C 0.1903(3) 0.4124(2) 0.60999(6)
H25 H 0.1687 0.3653 0.5983
H26 H 0.2353 0.4337 0.5971
C29 C 0.40120(14) 0.21843(14) 0.61407(6)
H27 H 0.3597 0.1789 0.6087
H28 H 0.4459 0.1906 0.6248
C30 C 0.42894(15) 0.26230(15) 0.58296(6)
H29 H 0.3844 0.2718 0.5676
H30 H 0.4708 0.2320 0.5714
C31 C 0.46107(16) 0.34116(16) 0.59687(6)
H31 H 0.5189 0.3379 0.6003
H32 H 0.4496 0.3860 0.5817
C32 C 0.41785(17) 0.35246(17) 0.62976(8)
H33 H 0.4565 0.3594 0.6479
H34 H 0.3837 0.4004 0.6289
Li1 Li 0.2584(2) 0.2817(2) 0.65111(9)
N1 N 0.19507(9) 0.19279(11) 0.62888(4)
N2 N 0.22816(9) 0.22866(10) 0.69741(4)
O1 O 0.21602(11) 0.39013(9) 0.64322(4)
O2 O 0.36990(9) 0.28105(10) 0.63534(4)
H35 H 0.1538(13) 0.1386(13) 0.7058(5)
C33 C 0.17479(13) 0.60936(14) 0.52896(5)
H36 H 0.1920 0.6218 0.5506
C34 C 0.11632(13) 0.55087(14) 0.52168(5)
H37 H 0.0885 0.5185 0.5370
C35 C 0.10816(12) 0.55099(13) 0.48693(5)
H38 H 0.0738 0.5185 0.4742
C36 C 0.16208(11) 0.60985(12) 0.47496(5)
C37 C 0.17698(11) 0.63230(12) 0.44085(5)
C38 C 0.24246(11) 0.70007(12) 0.39561(4)
C39 C 0.16129(11) 0.69647(12) 0.37654(4)
C40 C 0.09880(12) 0.74752(13) 0.38738(5)
H39 H 0.1080 0.7833 0.4051
C41 C 0.02343(12) 0.74595(14) 0.37225(5)
H40 H -0.0172 0.7805 0.3798
C42 C 0.00875(12) 0.69286(14) 0.34588(5)
H41 H -0.0418 0.6914 0.3357
C43 C 0.06948(12) 0.64234(13) 0.33482(5)
H42 H 0.0600 0.6070 0.3170
C44 C 0.14530(11) 0.64384(12) 0.35019(5)
H43 H 0.1856 0.6090 0.3426
C45 C 0.28311(11) 0.78415(12) 0.39168(5)
C46 C 0.25815(12) 0.84213(12) 0.36843(5)
H44 H 0.2139 0.8314 0.3548
C47 C 0.29849(13) 0.91594(13) 0.36533(5)
H45 H 0.2807 0.9543 0.3498
C48 C 0.36497(13) 0.93279(13) 0.38520(5)
H46 H 0.3921 0.9821 0.3830
C49 C 0.39071(13) 0.87555(13) 0.40837(5)
H47 H 0.4350 0.8866 0.4220
C50 C 0.35066(12) 0.80172(13) 0.41142(5)
H48 H 0.3690 0.7634 0.4268
C51 C 0.30271(10) 0.63587(12) 0.38224(5)
C52 C 0.32564(11) 0.56800(12) 0.40087(5)
H49 H 0.3053 0.5608 0.4224
C53 C 0.37873(12) 0.51070(13) 0.38757(6)
H50 H 0.3941 0.4661 0.4005
C54 C 0.40854(11) 0.51949(13) 0.35554(5)
H51 H 0.4428 0.4803 0.3466
C55 C 0.38730(12) 0.58694(13) 0.33679(5)
H52 H 0.4075 0.5932 0.3151
C56 C 0.33604(11) 0.64531(13) 0.35006(5)
H53 H 0.3236 0.6914 0.3375
C57 C 0.42499(16) 0.66743(16) 0.50756(6)
H54 H 0.4531 0.6342 0.4912
H55 H 0.3848 0.6340 0.5187
C58 C 0.48423(15) 0.70171(19) 0.53311(6)
H56 H 0.4803 0.6731 0.5544
H57 H 0.5393 0.6982 0.5249
C59 C 0.45760(16) 0.78971(17) 0.53661(6)
H58 H 0.4134 0.7952 0.5524
H59 H 0.5019 0.8246 0.5435
C60 C 0.43119(16) 0.80773(17) 0.50140(6)
H60 H 0.3967 0.8554 0.5007
H61 H 0.4773 0.8167 0.4869
C61 C 0.2292(2) 0.87376(19) 0.52085(6)
H62 H 0.2775 0.9026 0.5278
H63 H 0.2194 0.8294 0.5364
C62 C 0.15786(18) 0.93040(19) 0.51936(6)
H64 H 0.1618 0.9725 0.5364
H65 H 0.1077 0.9009 0.5224
C63 C 0.16294(17) 0.96652(15) 0.48440(6)
H66 H 0.1095 0.9746 0.4750
H67 H 0.1911 1.0183 0.4847
C64 C 0.20911(15) 0.90458(15) 0.46461(6)
H68 H 0.1745 0.8801 0.4477
H69 H 0.2543 0.9303 0.4533
Li2 Li 0.2715(2) 0.7322(2) 0.47840(9)
N3 N 0.20354(10) 0.64586(11) 0.50113(4)
N4 N 0.22914(9) 0.68674(10) 0.43228(4)
O3 O 0.23726(12) 0.84409(10) 0.48720(4)
O4 O 0.38737(10) 0.73572(10) 0.49142(4)
H70 H 0.1448(13) 0.6031(13) 0.4249(5)
loop_
_geom_bond_atom_site_label_1
_geom_bond_atom_site_label_2
_geom_bond_site_symmetry_1
_geom_bond_site_symmetry_2
C1 H1 1_555 1_555
C2 C1 1_555 1_555
H2 C2 1_555 1_555
C3 C2 1_555 1_555
H3 C3 1_555 1_555
C4 C3 1_555 1_555
C5 C4 1_555 1_555
C6 C7 1_555 1_555
C7 C8 1_555 1_555
C8 H4 1_555 1_555
C9 C8 1_555 1_555
H5 C9 1_555 1_555
C10 C9 1_555 1_555
H6 C10 1_555 1_555
C11 C10 1_555 1_555
H7 C11 1_555 1_555
C12 C7 1_555 1_555
H8 C12 1_555 1_555
C13 C6 1_555 1_555
C14 C13 1_555 1_555
H9 C14 1_555 1_555
C15 C14 1_555 1_555
H10 C15 1_555 1_555
C16 C15 1_555 1_555
H11 C16 1_555 1_555
C17 C16 1_555 1_555
H12 C17 1_555 1_555
C18 C13 1_555 1_555
H13 C18 1_555 1_555
C19 C6 1_555 1_555
C20 C19 1_555 1_555
H14 C20 1_555 1_555
C21 C20 1_555 1_555
H15 C21 1_555 1_555
C22 C21 1_555 1_555
H16 C22 1_555 1_555
C23 C22 1_555 1_555
H17 C23 1_555 1_555
C24 C19 1_555 1_555
H18 C24 1_555 1_555
C25 H19 1_555 1_555
H20 C25 1_555 1_555
C26 C25 1_555 1_555
H21 C26 1_555 1_555
H22 C26 1_555 1_555
C27 C26 1_555 1_555
H23 C27 1_555 1_555
H24 C27 1_555 1_555
C28 C27 1_555 1_555
H25 C28 1_555 1_555
H26 C28 1_555 1_555
C29 H27 1_555 1_555
H28 C29 1_555 1_555
C30 C29 1_555 1_555
H29 C30 1_555 1_555
H30 C30 1_555 1_555
C31 C30 1_555 1_555
H31 C31 1_555 1_555
H32 C31 1_555 1_555
C32 C31 1_555 1_555
H33 C32 1_555 1_555
H34 C32 1_555 1_555
Li1 N1 1_555 1_555
N1 C1 1_555 1_555
N2 C5 1_555 1_555
O1 C25 1_555 1_555
O2 C29 1_555 1_555
H35 C5 1_555 1_555
C33 H36 1_555 1_555
C34 C33 1_555 1_555
H37 C34 1_555 1_555
C35 C34 1_555 1_555
H38 C35 1_555 1_555
C36 C35 1_555 1_555
C37 C36 1_555 1_555
C38 C39 1_555 1_555
C39 C40 1_555 1_555
C40 H39 1_555 1_555
C41 C40 1_555 1_555
H40 C41 1_555 1_555
C42 C41 1_555 1_555
H41 C42 1_555 1_555
C43 C42 1_555 1_555
H42 C43 1_555 1_555
C44 C39 1_555 1_555
H43 C44 1_555 1_555
C45 C38 1_555 1_555
C46 C45 1_555 1_555
H44 C46 1_555 1_555
C47 C46 1_555 1_555
H45 C47 1_555 1_555
C48 C47 1_555 1_555
H46 C48 1_555 1_555
C49 C48 1_555 1_555
H47 C49 1_555 1_555
C50 C45 1_555 1_555
H48 C50 1_555 1_555
C51 C38 1_555 1_555
C52 C51 1_555 1_555
H49 C52 1_555 1_555
C53 C52 1_555 1_555
H50 C53 1_555 1_555
C54 C53 1_555 1_555
H51 C54 1_555 1_555
C55 C54 1_555 1_555
H52 C55 1_555 1_555
C56 C51 1_555 1_555
H53 C56 1_555 1_555
C57 H54 1_555 1_555
H55 C57 1_555 1_555
C58 C57 1_555 1_555
H56 C58 1_555 1_555
H57 C58 1_555 1_555
C59 C58 1_555 1_555
H58 C59 1_555 1_555
H59 C59 1_555 1_555
C60 C59 1_555 1_555
H60 C60 1_555 1_555
H61 C60 1_555 1_555
C61 H62 1_555 1_555
H63 C61 1_555 1_555
C62 C61 1_555 1_555
H64 C62 1_555 1_555
H65 C62 1_555 1_555
C63 C62 1_555 1_555
H66 C63 1_555 1_555
H67 C63 1_555 1_555
C64 C63 1_555 1_555
H68 C64 1_555 1_555
H69 C64 1_555 1_555
Li2 N3 1_555 1_555
N3 C33 1_555 1_555
N4 C37 1_555 1_555
O3 C61 1_555 1_555
O4 C57 1_555 1_555
H70 C37 1_555 1_555
C4 N1 1_555 1_555
C6 N2 1_555 1_555
C11 C12 1_555 1_555
C17 C18 1_555 1_555
C23 C24 1_555 1_555
C28 O1 1_555 1_555
C32 O2 1_555 1_555
Li1 N2 1_555 1_555
Li1 O1 1_555 1_555
Li1 O2 1_555 1_555
C36 N3 1_555 1_555
C38 N4 1_555 1_555
C43 C44 1_555 1_555
C49 C50 1_555 1_555
C55 C56 1_555 1_555
C60 O4 1_555 1_555
C64 O3 1_555 1_555
Li2 N4 1_555 1_555
Li2 O3 1_555 1_555
Li2 O4 1_555 1_555

#END
