
#######################################################################
#
#                 Cambridge Crystallographic Data Centre
#                                CCDC 
#
#######################################################################
#
# If this CIF has been generated from an entry in the Cambridge 
# Structural Database, then it will include bibliographic, chemical, 
# crystal, experimental, refinement or atomic coordinate data resulting 
# from the CCDC's data processing and validation procedures.
#
#######################################################################

data_QUPSAX
_chemical_formula_moiety         'C56 H54 Ca1 N4 O2,2(C4 H8 O1)'
_chemical_name_systematic        
'bis(2-(((triphenylmethyl)imino)methyl)-1H-pyrrol-1-yl)-bis(tetrahydrofuran)-calcium tetrahydrofuran solvate'
_symmetry_cell_setting           monoclinic
_symmetry_space_group_name_H-M   'P 21/n'
_symmetry_Int_Tables_number      14
_space_group_name_Hall           '-P 2yn'
loop_
_symmetry_equiv_pos_site_id
_symmetry_equiv_pos_as_xyz
1 x,y,z
2 1/2-x,1/2+y,1/2-z
3 -x,-y,-z
4 1/2+x,1/2-y,1/2+z
_cell_length_a                   11.185(18)
_cell_length_b                   13.42(2)
_cell_length_c                   18.43(3)
_cell_angle_alpha                90
_cell_angle_beta                 104.24(2)
_cell_angle_gamma                90
_cell_volume                     2681.39
_exptl_crystal_colour            colorless
_exptl_crystal_description       block
_cell_formula_units_Z            2
loop_
_atom_site_label
_atom_site_type_symbol
_atom_site_fract_x
_atom_site_fract_y
_atom_site_fract_z
Ca1 Ca 0.0000 1.0000 0.0000
O1 O -0.1514(3) 0.8889(2) -0.06665(15)
N1 N 0.1186(3) 0.8513(2) 0.07077(18)
N2 N -0.0810(3) 0.9659(3) 0.10785(18)
C1 C 0.3370(4) 0.8718(3) 0.1003(2)
C2 C 0.1181(4) 0.7744(3) -0.0710(2)
H1 H 0.0440 0.7902 -0.0571
C3 C -0.1670(4) 0.9947(3) 0.1442(2)
H2 H -0.2255 1.0462 0.1274
C4 C 0.2192(5) 0.7271(3) -0.1662(3)
H3 H 0.2165 0.7130 -0.2171
C5 C -0.0623(4) 0.8728(3) 0.2144(2)
H4 H -0.0334 0.8258 0.2533
C6 C 0.3355(4) 0.7490(3) -0.0388(2)
H5 H 0.4125 0.7474 -0.0027
C7 C 0.2285(4) 0.7760(3) -0.0172(2)
C8 C 0.2477(4) 0.6935(3) 0.1028(2)
C9 C 0.0831(4) 0.8387(3) 0.1323(2)
H6 H 0.1277 0.7919 0.1674
C10 C 0.3871(4) 0.8751(3) 0.1778(2)
H7 H 0.3601 0.8282 0.2090
C11 C -0.0161(4) 0.8887(3) 0.1514(2)
C12 C 0.2337(4) 0.7975(3) 0.0649(2)
C13 C 0.1129(4) 0.7503(3) -0.1451(2)
H8 H 0.0359 0.7498 -0.1811
C14 C 0.3297(4) 0.7245(3) -0.1128(2)
H9 H 0.4028 0.7057 -0.1268
C15 C 0.3761(4) 0.9440(3) 0.0573(2)
H10 H 0.3419 0.9452 0.0047
C16 C 0.2718(5) 0.5019(3) 0.1673(2)
H11 H 0.2791 0.4389 0.1914
C17 C 0.4753(4) 0.9453(4) 0.2099(3)
H12 H 0.5086 0.9457 0.2626
C18 C 0.4644(4) 1.0148(3) 0.0895(2)
H13 H 0.4900 1.0631 0.0588
C19 C -0.1907(4) 0.8884(3) -0.1475(2)
H14 H -0.1200 0.9004 -0.1698
H15 H -0.2541 0.9402 -0.1656
C20 C 0.1460(5) 0.6298(3) 0.0942(2)
H16 H 0.0675 0.6516 0.0658
C21 C -0.1590(4) 0.9396(3) 0.2086(2)
H17 H -0.2101 0.9463 0.2426
C22 C 0.5149(4) 1.0148(3) 0.1657(2)
H18 H 0.5764 1.0622 0.1876
C23 C 0.3616(4) 0.6556(3) 0.1398(2)
H19 H 0.4332 0.6950 0.1428
C24 C 0.1575(5) 0.5356(3) 0.1262(3)
H20 H 0.0870 0.4939 0.1200
C25 C -0.2142(4) 0.8111(3) -0.0363(2)
H21 H -0.2623 0.8400 -0.0030
H22 H -0.1540 0.7631 -0.0072
C26 C 0.3741(5) 0.5609(4) 0.1728(2)
H23 H 0.4532 0.5376 0.1988
C27 C -0.2438(5) 0.7849(4) -0.1670(3)
H24 H -0.3077 0.7854 -0.2150
H25 H -0.1785 0.7368 -0.1707
C28 C -0.2991(5) 0.7598(4) -0.1024(3)
H26 H -0.3001 0.6868 -0.0945
H27 H -0.3844 0.7857 -0.1111
O1B O 0.1514(3) 1.1111(2) 0.06665(15)
N1B N -0.1186(3) 1.1487(2) -0.07077(18)
N2B N 0.0810(3) 1.0341(3) -0.10785(18)
C1B C -0.3370(4) 1.1282(3) -0.1003(2)
C2B C -0.1181(4) 1.2256(3) 0.0710(2)
H1B H -0.0440 1.2098 0.0571
C3B C 0.1670(4) 1.0053(3) -0.1442(2)
H2B H 0.2255 0.9538 -0.1274
C4B C -0.2192(5) 1.2729(3) 0.1662(3)
H3B H -0.2165 1.2870 0.2171
C5B C 0.0623(4) 1.1272(3) -0.2144(2)
H4B H 0.0334 1.1742 -0.2533
C6B C -0.3355(4) 1.2510(3) 0.0388(2)
H5B H -0.4125 1.2526 0.0027
C7B C -0.2285(4) 1.2240(3) 0.0172(2)
C8B C -0.2477(4) 1.3065(3) -0.1028(2)
C9B C -0.0831(4) 1.1613(3) -0.1323(2)
H6B H -0.1277 1.2081 -0.1674
C10B C -0.3871(4) 1.1249(3) -0.1778(2)
H7B H -0.3601 1.1718 -0.2090
C11B C 0.0161(4) 1.1113(3) -0.1514(2)
C12B C -0.2337(4) 1.2025(3) -0.0649(2)
C13B C -0.1129(4) 1.2497(3) 0.1451(2)
H8B H -0.0359 1.2502 0.1811
C14B C -0.3297(4) 1.2755(3) 0.1128(2)
H9B H -0.4028 1.2943 0.1268
C15B C -0.3761(4) 1.0560(3) -0.0573(2)
H10B H -0.3419 1.0548 -0.0047
C16B C -0.2718(5) 1.4981(3) -0.1673(2)
H11B H -0.2791 1.5611 -0.1914
C17B C -0.4753(4) 1.0547(4) -0.2099(3)
H12B H -0.5086 1.0543 -0.2626
C18B C -0.4644(4) 0.9852(3) -0.0895(2)
H13B H -0.4900 0.9369 -0.0588
C19B C 0.1907(4) 1.1116(3) 0.1475(2)
H14B H 0.1200 1.0996 0.1698
H15B H 0.2541 1.0598 0.1656
C20B C -0.1460(5) 1.3702(3) -0.0942(2)
H16B H -0.0675 1.3484 -0.0658
C21B C 0.1590(4) 1.0604(3) -0.2086(2)
H17B H 0.2101 1.0537 -0.2426
C22B C -0.5149(4) 0.9852(3) -0.1657(2)
H18B H -0.5764 0.9378 -0.1876
C23B C -0.3616(4) 1.3444(3) -0.1398(2)
H19B H -0.4332 1.3050 -0.1428
C24B C -0.1575(5) 1.4644(3) -0.1262(3)
H20B H -0.0870 1.5061 -0.1200
C25B C 0.2142(4) 1.1889(3) 0.0363(2)
H21B H 0.2623 1.1600 0.0030
H22B H 0.1540 1.2369 0.0072
C26B C -0.3741(5) 1.4391(4) -0.1728(2)
H23B H -0.4532 1.4624 -0.1988
C27B C 0.2438(5) 1.2151(4) 0.1670(3)
H24B H 0.3077 1.2146 0.2150
H25B H 0.1785 1.2632 0.1707
C28B C 0.2991(5) 1.2402(4) 0.1024(3)
H26B H 0.3001 1.3132 0.0945
H27B H 0.3844 1.2143 0.1111
O2 O -0.3707(3) 0.6551(4) 0.0478(2)
C29 C -0.3002(5) 0.6767(5) 0.1224(3)
H28 H -0.3469 0.6584 0.1596
H29 H -0.2793 0.7484 0.1279
C30 C -0.1847(5) 0.6142(4) 0.1329(3)
H30 H -0.1126 0.6566 0.1322
H31 H -0.1682 0.5779 0.1812
C31 C -0.3458(6) 0.5521(5) 0.0372(3)
H32 H -0.3694 0.5343 -0.0166
H33 H -0.3915 0.5087 0.0645
C32 C -0.2100(6) 0.5420(5) 0.0681(3)
H34 H -0.1643 0.5608 0.0305
H35 H -0.1875 0.4730 0.0853
loop_
_geom_bond_atom_site_label_1
_geom_bond_atom_site_label_2
_geom_bond_site_symmetry_1
_geom_bond_site_symmetry_2
Ca1 O1 1_555 1_555
O1 C19 1_555 1_555
N1 Ca1 1_555 1_555
N2 Ca1 1_555 1_555
C1 C10 1_555 1_555
C2 H1 1_555 1_555
C3 N2 1_555 1_555
H2 C3 1_555 1_555
C4 H3 1_555 1_555
C5 H4 1_555 1_555
C6 H5 1_555 1_555
C7 C2 1_555 1_555
C8 C12 1_555 1_555
C9 N1 1_555 1_555
H6 C9 1_555 1_555
C10 H7 1_555 1_555
C11 N2 1_555 1_555
C12 N1 1_555 1_555
C13 C2 1_555 1_555
H8 C13 1_555 1_555
C14 C4 1_555 1_555
H9 C14 1_555 1_555
C15 C1 1_555 1_555
H10 C15 1_555 1_555
C16 H11 1_555 1_555
C17 C10 1_555 1_555
H12 C17 1_555 1_555
C18 C15 1_555 1_555
H13 C18 1_555 1_555
C19 H14 1_555 1_555
H15 C19 1_555 1_555
C20 C8 1_555 1_555
H16 C20 1_555 1_555
C21 C3 1_555 1_555
H17 C21 1_555 1_555
C22 C17 1_555 1_555
H18 C22 1_555 1_555
C23 C8 1_555 1_555
H19 C23 1_555 1_555
C24 C16 1_555 1_555
H20 C24 1_555 1_555
C25 O1 1_555 1_555
H21 C25 1_555 1_555
H22 C25 1_555 1_555
C26 C16 1_555 1_555
H23 C26 1_555 1_555
C27 C19 1_555 1_555
H24 C27 1_555 1_555
H25 C27 1_555 1_555
C28 C25 1_555 1_555
H26 C28 1_555 1_555
H27 C28 1_555 1_555
O2 C29 1_555 1_555
C29 H28 1_555 1_555
H29 C29 1_555 1_555
C30 C29 1_555 1_555
H30 C30 1_555 1_555
H31 C30 1_555 1_555
C31 O2 1_555 1_555
H32 C31 1_555 1_555
H33 C31 1_555 1_555
C32 C30 1_555 1_555
H34 C32 1_555 1_555
H35 C32 1_555 1_555
O1B Ca1 1_555 1_555
N1B Ca1 1_555 1_555
N2B Ca1 1_555 1_555
C1B C10B 1_555 1_555
C2B H1B 1_555 1_555
C3B N2B 1_555 1_555
H2B C3B 1_555 1_555
C4B H3B 1_555 1_555
C5B H4B 1_555 1_555
C6B H5B 1_555 1_555
C7B C2B 1_555 1_555
C8B C12B 1_555 1_555
C9B N1B 1_555 1_555
H6B C9B 1_555 1_555
C10B H7B 1_555 1_555
C11B N2B 1_555 1_555
C12B N1B 1_555 1_555
C13B C2B 1_555 1_555
H8B C13B 1_555 1_555
C14B C4B 1_555 1_555
H9B C14B 1_555 1_555
C15B C1B 1_555 1_555
H10B C15B 1_555 1_555
C16B H11B 1_555 1_555
C17B C10B 1_555 1_555
H12B C17B 1_555 1_555
C18B C15B 1_555 1_555
H13B C18B 1_555 1_555
C19B O1B 1_555 1_555
H14B C19B 1_555 1_555
H15B C19B 1_555 1_555
C20B C8B 1_555 1_555
H16B C20B 1_555 1_555
C21B C3B 1_555 1_555
H17B C21B 1_555 1_555
C22B C17B 1_555 1_555
H18B C22B 1_555 1_555
C23B C8B 1_555 1_555
H19B C23B 1_555 1_555
C24B C16B 1_555 1_555
H20B C24B 1_555 1_555
C25B O1B 1_555 1_555
H21B C25B 1_555 1_555
H22B C25B 1_555 1_555
C26B C16B 1_555 1_555
H23B C26B 1_555 1_555
C27B C19B 1_555 1_555
H24B C27B 1_555 1_555
H25B C27B 1_555 1_555
C28B C25B 1_555 1_555
H26B C28B 1_555 1_555
H27B C28B 1_555 1_555
C1 C12 1_555 1_555
C4 C13 1_555 1_555
C5 C11 1_555 1_555
C5 C21 1_555 1_555
C6 C7 1_555 1_555
C6 C14 1_555 1_555
C7 C12 1_555 1_555
C9 C11 1_555 1_555
C18 C22 1_555 1_555
C20 C24 1_555 1_555
C23 C26 1_555 1_555
C27 C28 1_555 1_555
C31 C32 1_555 1_555
C1B C12B 1_555 1_555
C4B C13B 1_555 1_555
C5B C11B 1_555 1_555
C5B C21B 1_555 1_555
C6B C7B 1_555 1_555
C6B C14B 1_555 1_555
C7B C12B 1_555 1_555
C9B C11B 1_555 1_555
C18B C22B 1_555 1_555
C20B C24B 1_555 1_555
C23B C26B 1_555 1_555
C27B C28B 1_555 1_555

#END
