
#######################################################################
#
#                 Cambridge Crystallographic Data Centre
#                                CCDC 
#
#######################################################################
#
# If this CIF has been generated from an entry in the Cambridge 
# Structural Database, then it will include bibliographic, chemical, 
# crystal, experimental, refinement or atomic coordinate data resulting 
# from the CCDC's data processing and validation procedures.
#
#######################################################################

data_QUPSUQ
_chemical_name_common            '1,5-Dimexylbiguanidium nitrate'
_chemical_formula_moiety         'C18 H24 N5 1+,N1 O3 1-'
_chemical_name_systematic        
'1,5-bis(3,5-Dimethylphenyl)biguanidium nitrate'
_symmetry_cell_setting           monoclinic
_symmetry_space_group_name_H-M   'P 21/c'
_symmetry_Int_Tables_number      14
_space_group_name_Hall           '-P 2ybc'
loop_
_symmetry_equiv_pos_site_id
_symmetry_equiv_pos_as_xyz
1 x,y,z
2 -x,1/2+y,1/2-z
3 -x,-y,-z
4 x,1/2-y,1/2+z
_cell_length_a                   9.7159(13)
_cell_length_b                   26.693(4)
_cell_length_c                   8.1555(11)
_cell_angle_alpha                90
_cell_angle_beta                 114.277(1)
_cell_angle_gamma                90
_cell_volume                     1928.06
_exptl_crystal_colour            colorless
_exptl_crystal_description       block
_chemical_melting_point          '196 deg.C (dec.)'
_cell_formula_units_Z            4
_exptl_crystal_recrystallization_method isopropanol
loop_
_atom_site_label
_atom_site_type_symbol
_atom_site_fract_x
_atom_site_fract_y
_atom_site_fract_z
N1 N 0.10096(14) 0.09709(5) -0.11479(17)
H1 H 0.013(2) 0.0829(7) -0.147(2)
N2 N 0.15306(15) 0.02529(5) -0.22394(19)
H2 H 0.2150 0.0041 -0.2416
H3 H 0.0569 0.0177 -0.2601
N3 N 0.34674(13) 0.08449(5) -0.08228(17)
N4 N 0.41653(15) 0.03941(5) -0.28610(18)
H4 H 0.3229 0.0383 -0.3679
H5 H 0.4894 0.0255 -0.3078
N5 N 0.59552(14) 0.06407(5) -0.01735(17)
H6 H 0.658(2) 0.0547(7) -0.066(2)
C1 C 0.10952(16) 0.14522(5) -0.03750(19)
C2 C -0.02551(17) 0.16267(6) -0.03686(19)
H7 H -0.1143 0.1429 -0.0904
C3 C -0.03277(19) 0.20827(6) 0.0404(2)
C4 C 0.0978(2) 0.23692(6) 0.1155(2)
H8 H 0.0949 0.2681 0.1703
C5 C 0.23237(19) 0.22087(6) 0.1120(2)
C6 C 0.23883(18) 0.17452(6) 0.0357(2)
H9 H 0.3309 0.1632 0.0340
C7 C -0.1790(2) 0.22562(7) 0.0448(3)
H10 H -0.2503 0.1976 0.0141
H11 H -0.2220 0.2527 -0.0425
H12 H -0.1597 0.2378 0.1656
C8 C 0.3718(2) 0.25312(7) 0.1883(3)
H13 H 0.3770 0.2696 0.2980
H14 H 0.3676 0.2785 0.0997
H15 H 0.4616 0.2322 0.2168
C9 C 0.20489(16) 0.06895(5) -0.14240(19)
C10 C 0.44794(17) 0.06217(6) -0.1294(2)
C11 C 0.66720(16) 0.08743(5) 0.1540(2)
C12 C 0.59369(17) 0.10069(6) 0.2622(2)
H16 H 0.4898 0.0930 0.2255
C13 C 0.67301(17) 0.12528(6) 0.4245(2)
C14 C 0.82610(18) 0.13495(6) 0.4783(2)
H17 H 0.8796 0.1522 0.5882
C15 C 0.90273(17) 0.12002(5) 0.3754(2)
C16 C 0.82143(16) 0.09607(5) 0.2126(2)
H18 H 0.8718 0.0855 0.1404
C17 C 0.5916(2) 0.14117(7) 0.5386(2)
H19 H 0.4827 0.1423 0.4642
H20 H 0.6267 0.1745 0.5890
H21 H 0.6125 0.1171 0.6366
C18 C 1.06859(18) 0.13084(6) 0.4337(2)
H22 H 1.1149 0.1039 0.3923
H23 H 1.1178 0.1330 0.5653
H24 H 1.0808 0.1627 0.3816
N6 N -0.22773(14) 0.00637(5) -0.29334(18)
O1 O -0.15274(13) -0.00546(5) -0.38013(17)
O2 O -0.18380(13) 0.04133(4) -0.18039(15)
O3 O -0.34683(14) -0.01616(5) -0.32053(19)
loop_
_geom_bond_atom_site_label_1
_geom_bond_atom_site_label_2
_geom_bond_site_symmetry_1
_geom_bond_site_symmetry_2
N1 H1 1_555 1_555
N2 H2 1_555 1_555
H3 N2 1_555 1_555
N3 C9 1_555 1_555
N4 H4 1_555 1_555
H5 N4 1_555 1_555
N5 H6 1_555 1_555
N6 O1 1_555 1_555
O2 N6 1_555 1_555
O3 N6 1_555 1_555
C1 N1 1_555 1_555
C2 C1 1_555 1_555
H7 C2 1_555 1_555
C3 C2 1_555 1_555
C4 C3 1_555 1_555
H8 C4 1_555 1_555
C5 C4 1_555 1_555
C6 C1 1_555 1_555
H9 C6 1_555 1_555
C7 C3 1_555 1_555
H10 C7 1_555 1_555
H11 C7 1_555 1_555
H12 C7 1_555 1_555
C8 C5 1_555 1_555
H13 C8 1_555 1_555
H14 C8 1_555 1_555
H15 C8 1_555 1_555
C9 N1 1_555 1_555
C10 N3 1_555 1_555
C11 N5 1_555 1_555
C12 C11 1_555 1_555
H16 C12 1_555 1_555
C13 C12 1_555 1_555
C14 C13 1_555 1_555
H17 C14 1_555 1_555
C15 C14 1_555 1_555
C16 C11 1_555 1_555
H18 C16 1_555 1_555
C17 C13 1_555 1_555
H19 C17 1_555 1_555
H20 C17 1_555 1_555
H21 C17 1_555 1_555
C18 C15 1_555 1_555
H22 C18 1_555 1_555
H23 C18 1_555 1_555
H24 C18 1_555 1_555
N2 C9 1_555 1_555
N4 C10 1_555 1_555
N5 C10 1_555 1_555
C5 C6 1_555 1_555
C15 C16 1_555 1_555

#END
