
#######################################################################
#
#                 Cambridge Crystallographic Data Centre
#                                CCDC 
#
#######################################################################
#
# If this CIF has been generated from an entry in the Cambridge 
# Structural Database, then it will include bibliographic, chemical, 
# crystal, experimental, refinement or atomic coordinate data resulting 
# from the CCDC's data processing and validation procedures.
#
#######################################################################

data_QUPSIE
_chemical_name_common            '1,5-Dimexylbiguanidium formate'
_chemical_formula_moiety         'C18 H24 N5 1+,C1 H1 O2 1-'
_chemical_name_systematic        
'1,5-bis(3,5-Dimethylphenyl)biguanidium formate'
_symmetry_cell_setting           monoclinic
_symmetry_space_group_name_H-M   'P 21/c'
_symmetry_Int_Tables_number      14
_space_group_name_Hall           '-P 2ybc'
loop_
_symmetry_equiv_pos_site_id
_symmetry_equiv_pos_as_xyz
1 x,y,z
2 -x,1/2+y,1/2-z
3 -x,-y,-z
4 x,1/2-y,1/2+z
_cell_length_a                   13.6022(9)
_cell_length_b                   14.0171(9)
_cell_length_c                   11.8585(8)
_cell_angle_alpha                90
_cell_angle_beta                 115.692(1)
_cell_angle_gamma                90
_cell_volume                     2037.46
_exptl_crystal_colour            colorless
_exptl_crystal_description       block
_chemical_melting_point          '183 deg.C (dec.)'
_cell_formula_units_Z            4
_exptl_crystal_recrystallization_method isopropanol
loop_
_atom_site_label
_atom_site_type_symbol
_atom_site_fract_x
_atom_site_fract_y
_atom_site_fract_z
O1 O 0.50407(10) 0.19663(8) -0.10122(10)
O2 O 0.42228(8) 0.15209(7) 0.01624(9)
C19 C 0.44039(13) 0.14666(10) -0.07772(14)
H25 H 0.4012 0.0992 -0.1376
N1 N 0.60975(9) 0.35163(7) 0.05271(10)
H1 H 0.5781 0.3000 0.0102
N2 N 0.66035(8) 0.42923(8) 0.24274(10)
N3 N 0.69696(8) 0.51621(8) 0.42300(10)
H2 H 0.6712 0.5608 0.4552
N4 N 0.52011(9) 0.31586(8) 0.17059(10)
H3 H 0.5116 0.3203 0.2398
H4 H 0.4789 0.2766 0.1109
N5 N 0.52463(9) 0.51758(8) 0.26844(10)
H5 H 0.4757 0.5036 0.1924
H6 H 0.5066 0.5537 0.3172
C1 C 0.66937(10) 0.40622(9) 0.00346(11)
C2 C 0.69993(10) 0.36000(10) -0.08028(12)
H7 H 0.6846 0.2940 -0.0966
C3 C 0.75242(11) 0.40888(11) -0.14038(13)
C4 C 0.77626(11) 0.50491(11) -0.11264(14)
H8 H 0.8137 0.5388 -0.1516
C5 C 0.74656(11) 0.55253(10) -0.02904(14)
C6 C 0.69133(10) 0.50298(9) 0.02759(12)
H9 H 0.6686 0.5352 0.0827
C7 C 0.78027(16) 0.35872(14) -0.23569(17)
H10 H 0.7866 0.2900 -0.2189
H11 H 0.8497 0.3832 -0.2301
H12 H 0.7225 0.3705 -0.3199
C8 C 0.77341(15) 0.65687(12) 0.00067(19)
H13 H 0.7574 0.6919 -0.0769
H14 H 0.8510 0.6636 0.0576
H15 H 0.7293 0.6827 0.0405
C9 C 0.59505(10) 0.36826(9) 0.15626(11)
C10 C 0.62684(10) 0.48384(9) 0.31008(11)
C11 C 0.80615(10) 0.48895(9) 0.49756(11)
C12 C 0.84997(11) 0.40186(10) 0.48716(12)
H16 H 0.8062 0.3568 0.4262
C13 C 0.95820(11) 0.38056(10) 0.56628(13)
C14 C 1.02043(11) 0.44638(11) 0.65514(13)
H17 H 1.0943 0.4318 0.7088
C15 C 0.97771(11) 0.53343(11) 0.66812(13)
C16 C 0.86992(11) 0.55377(10) 0.58885(12)
H18 H 0.8392 0.6127 0.5969
C17 C 1.00673(14) 0.28749(12) 0.55092(17)
H19 H 0.9528 0.2364 0.5329
H20 H 1.0715 0.2727 0.6283
H21 H 1.0274 0.2929 0.4816
C18 C 1.04842(14) 0.60497(15) 0.76388(16)
H22 H 1.0123 0.6673 0.7459
H23 H 1.1189 0.6101 0.7604
H24 H 1.0601 0.5840 0.8476
loop_
_geom_bond_atom_site_label_1
_geom_bond_atom_site_label_2
_geom_bond_site_symmetry_1
_geom_bond_site_symmetry_2
O1 C19 1_555 1_555
O2 C19 1_555 1_555
N1 H1 1_555 1_555
N2 C9 1_555 1_555
N3 H2 1_555 1_555
N4 H3 1_555 1_555
H4 N4 1_555 1_555
N5 H5 1_555 1_555
H6 N5 1_555 1_555
C1 N1 1_555 1_555
C2 C1 1_555 1_555
H7 C2 1_555 1_555
C3 C2 1_555 1_555
C4 C3 1_555 1_555
H8 C4 1_555 1_555
C5 C4 1_555 1_555
C6 C1 1_555 1_555
H9 C6 1_555 1_555
C7 C3 1_555 1_555
H10 C7 1_555 1_555
H11 C7 1_555 1_555
H12 C7 1_555 1_555
C8 C5 1_555 1_555
H13 C8 1_555 1_555
H14 C8 1_555 1_555
H15 C8 1_555 1_555
C9 N1 1_555 1_555
C10 N2 1_555 1_555
C11 N3 1_555 1_555
C12 C11 1_555 1_555
H16 C12 1_555 1_555
C13 C12 1_555 1_555
C14 C13 1_555 1_555
H17 C14 1_555 1_555
C15 C14 1_555 1_555
C16 C11 1_555 1_555
H18 C16 1_555 1_555
C17 C13 1_555 1_555
H19 C17 1_555 1_555
H20 C17 1_555 1_555
H21 C17 1_555 1_555
C18 C15 1_555 1_555
H22 C18 1_555 1_555
H23 C18 1_555 1_555
H24 C18 1_555 1_555
C19 H25 1_555 1_555
N3 C10 1_555 1_555
N4 C9 1_555 1_555
N5 C10 1_555 1_555
C5 C6 1_555 1_555
C15 C16 1_555 1_555

#END
