
#######################################################################
#
#                 Cambridge Crystallographic Data Centre
#                                CCDC 
#
#######################################################################
#
# If this CIF has been generated from an entry in the Cambridge 
# Structural Database, then it will include bibliographic, chemical, 
# crystal, experimental, refinement or atomic coordinate data resulting 
# from the CCDC's data processing and validation procedures.
#
#######################################################################

data_QUPTAX
_chemical_name_common            
'1,5-Dimexylbiguanidium p-toluate propan-2-ol solvate'
_chemical_formula_moiety         'C18 H24 N5 1+,C8 H7 O2 1-,C3 H8 O1'
_chemical_name_systematic        
'1,5-bis(3,5-Dimethylphenyl)biguanidium 4-methylbenzoate isopropanol solvate'
_symmetry_cell_setting           triclinic
_symmetry_space_group_name_H-M   'P -1'
_symmetry_Int_Tables_number      2
_space_group_name_Hall           '-P 1'
loop_
_symmetry_equiv_pos_site_id
_symmetry_equiv_pos_as_xyz
1 x,y,z
2 -x,-y,-z
_cell_length_a                   9.1806(2)
_cell_length_b                   13.0902(2)
_cell_length_c                   13.2424(2)
_cell_angle_alpha                113.064(1)
_cell_angle_beta                 94.359(1)
_cell_angle_gamma                91.159(1)
_cell_volume                     1457.81
_exptl_crystal_colour            colorless
_exptl_crystal_description       block
_chemical_melting_point          '123 deg.C'
_cell_formula_units_Z            2
_exptl_crystal_recrystallization_method isopropanol
loop_
_atom_site_label
_atom_site_type_symbol
_atom_site_fract_x
_atom_site_fract_y
_atom_site_fract_z
N1 N 0.34641(13) 0.20125(10) 0.31436(9)
H1 H 0.259(2) 0.1835(14) 0.2815(14)
N2 N 0.39821(12) 0.04263(10) 0.17339(9)
H2 H 0.4590 -0.0075 0.1381
H3 H 0.3043 0.0331 0.1510
N3 N 0.58741(12) 0.15538(10) 0.30127(9)
N4 N 0.69341(13) 0.11168(10) 0.13401(9)
H4 H 0.6130 0.1250 0.1016
H5 H 0.7708 0.0904 0.0971
N5 N 0.82870(13) 0.11208(11) 0.28559(10)
H6 H 0.907(2) 0.1144(15) 0.2479(15)
C1 C 0.36774(14) 0.29699(11) 0.41462(11)
C2 C 0.27686(15) 0.38392(12) 0.42764(13)
H7 H 0.2063 0.3788 0.3693
C3 C 0.28813(17) 0.47858(13) 0.52547(14)
C4 C 0.39211(18) 0.48373(13) 0.60888(13)
H8 H 0.4015 0.5482 0.6756
C5 C 0.48315(18) 0.39724(14) 0.59773(12)
C6 C 0.46954(16) 0.30277(13) 0.49987(11)
H9 H 0.5299 0.2424 0.4915
C7 C 0.1916(2) 0.57408(15) 0.53914(18)
H10 H 0.2507 0.6443 0.5726
H11 H 0.1152 0.5738 0.5869
H12 H 0.1462 0.5661 0.4669
C8 C 0.5958(2) 0.40362(18) 0.68953(14)
H13 H 0.6580 0.4719 0.7118
H14 H 0.6563 0.3391 0.6637
H15 H 0.5463 0.4040 0.7526
C9 C 0.44840(14) 0.13308(11) 0.26086(10)
C10 C 0.69801(14) 0.12377(11) 0.23894(11)
C11 C 0.85487(14) 0.11838(11) 0.39508(11)
C12 C 0.76383(16) 0.06215(13) 0.43724(13)
H16 H 0.6803 0.0193 0.3930
C13 C 0.79389(17) 0.06811(14) 0.54358(14)
C14 C 0.91723(18) 0.12995(14) 0.60625(13)
H17 H 0.9387 0.1338 0.6790
C15 C 1.01021(17) 0.18645(14) 0.56548(13)
C16 C 0.97777(15) 0.17994(12) 0.45876(12)
H18 H 1.0403 0.2179 0.4293
C17 C 0.6957(2) 0.0074(2) 0.59046(19)
H19 H 0.6465 -0.0576 0.5304
H20 H 0.6223 0.0572 0.6304
H21 H 0.7544 -0.0169 0.6411
C18 C 1.1437(2) 0.25334(19) 0.63526(15)
H22 H 1.1228 0.2863 0.7127
H23 H 1.1696 0.3125 0.6110
H24 H 1.2255 0.2046 0.6275
O1 O 1.16587(11) 0.07182(10) 0.01597(9)
O2 O 1.08007(11) 0.12655(10) 0.18032(9)
C19 C 1.00345(15) 0.21783(13) 0.06338(12)
C20 C 0.97401(19) 0.20938(17) -0.04390(14)
H25 H 1.0047 0.1471 -0.1033
C21 C 0.9003(2) 0.2909(2) -0.06505(17)
H26 H 0.8792 0.2831 -0.1391
C22 C 0.8566(2) 0.38375(17) 0.01973(19)
C23 C 0.8846(2) 0.39093(16) 0.12645(18)
H27 H 0.8542 0.4534 0.1858
C24 C 0.95614(18) 0.30884(15) 0.14846(14)
H28 H 0.9729 0.3149 0.2223
C25 C 1.08814(14) 0.13164(13) 0.08782(12)
C26 C 0.7793(3) 0.4735(2) -0.0039(3)
H29 H 0.6856 0.4426 -0.0471
H30 H 0.8403 0.5021 -0.0457
H31 H 0.7618 0.5341 0.0657
C27 C 1.4735(3) 0.23172(18) -0.02726(19)
H32 H 1.5800 0.2422 -0.0340
C28 C 1.4337(6) 0.3247(3) 0.0780(3)
H33 H 1.4885 0.3190 0.1418
H34 H 1.3285 0.3181 0.0842
H35 H 1.4584 0.3969 0.0755
C29 C 1.3884(5) 0.2262(2) -0.1325(2)
H36 H 1.4227 0.1657 -0.1959
H37 H 1.4035 0.2968 -0.1405
H38 H 1.2839 0.2123 -0.1290
O3 O 1.4512(4) 0.1302(4) -0.0125(3)
H39 H 1.353(3) 0.1165(19) -0.005(2)
C30? C 1.4011(13) 0.2369(8) -0.0331(8)
C31? C 1.453(2) 0.3334(13) 0.0550(12)
C32? C 1.4765(18) 0.2449(10) -0.1235(9)
H40? H 1.2940 0.2422 -0.0490
H41? H 1.4103 0.3977 0.0457
H42? H 1.5595 0.3407 0.0580
H43? H 1.4245 0.3302 0.1237
H44? H 1.4589 0.3167 -0.1281
H45? H 1.4392 0.1845 -0.1930
H46? H 1.5818 0.2390 -0.1100
H47? H 1.353(3) 0.1165(19) -0.005(2)
O4? O 1.4247(17) 0.1262(16) -0.0327(13)
loop_
_geom_bond_atom_site_label_1
_geom_bond_atom_site_label_2
_geom_bond_site_symmetry_1
_geom_bond_site_symmetry_2
N1 H1 1_555 1_555
N2 H2 1_555 1_555
H3 N2 1_555 1_555
N3 C9 1_555 1_555
N4 H4 1_555 1_555
H5 N4 1_555 1_555
N5 H6 1_555 1_555
O1 C25 1_555 1_555
O2 C25 1_555 1_555
C1 N1 1_555 1_555
C2 C1 1_555 1_555
H7 C2 1_555 1_555
C3 C2 1_555 1_555
C4 C3 1_555 1_555
H8 C4 1_555 1_555
C5 C4 1_555 1_555
C6 C1 1_555 1_555
H9 C6 1_555 1_555
C7 C3 1_555 1_555
H10 C7 1_555 1_555
H11 C7 1_555 1_555
H12 C7 1_555 1_555
C8 C5 1_555 1_555
H13 C8 1_555 1_555
H14 C8 1_555 1_555
H15 C8 1_555 1_555
C9 N1 1_555 1_555
C10 N3 1_555 1_555
C11 N5 1_555 1_555
C12 C11 1_555 1_555
H16 C12 1_555 1_555
C13 C12 1_555 1_555
C14 C13 1_555 1_555
H17 C14 1_555 1_555
C15 C14 1_555 1_555
C16 C11 1_555 1_555
H18 C16 1_555 1_555
C17 C13 1_555 1_555
H19 C17 1_555 1_555
H20 C17 1_555 1_555
H21 C17 1_555 1_555
C18 C15 1_555 1_555
H22 C18 1_555 1_555
H23 C18 1_555 1_555
H24 C18 1_555 1_555
C19 C20 1_555 1_555
C20 H25 1_555 1_555
C21 C20 1_555 1_555
H26 C21 1_555 1_555
C22 C21 1_555 1_555
C23 C22 1_555 1_555
H27 C23 1_555 1_555
C24 C19 1_555 1_555
H28 C24 1_555 1_555
C25 C19 1_555 1_555
C26 C22 1_555 1_555
H29 C26 1_555 1_555
H30 C26 1_555 1_555
H31 C26 1_555 1_555
C27 H32 1_555 1_555
C28 C27 1_555 1_555
H33 C28 1_555 1_555
H34 C28 1_555 1_555
H35 C28 1_555 1_555
C29 C27 1_555 1_555
H36 C29 1_555 1_555
H37 C29 1_555 1_555
H38 C29 1_555 1_555
O3 C27 1_555 1_555
H39 O3 1_555 1_555
N2 C9 1_555 1_555
N4 C10 1_555 1_555
N5 C10 1_555 1_555
C5 C6 1_555 1_555
C15 C16 1_555 1_555
C23 C24 1_555 1_555

#END
