
#######################################################################
#
#                 Cambridge Crystallographic Data Centre
#                                CCDC 
#
#######################################################################
#
# If this CIF has been generated from an entry in the Cambridge 
# Structural Database, then it will include bibliographic, chemical, 
# crystal, experimental, refinement or atomic coordinate data resulting 
# from the CCDC's data processing and validation procedures.
#
#######################################################################

data_QUPYEG
_chemical_formula_moiety         'C36 H34 N2 O12 S2'
_chemical_name_systematic        
'(1,3,6,8-Tetraoxo-1,3,6,8-tetrahydrobenzo[lmn][3,8]phenanthroline-2,7-diyl)bis(ethane-2,1-diyloxyethane-2,1-diyl) bis(4-methylbenzenesulfonate)'
_symmetry_cell_setting           triclinic
_symmetry_space_group_name_H-M   'P -1'
_symmetry_Int_Tables_number      2
_space_group_name_Hall           '-P 1'
loop_
_symmetry_equiv_pos_site_id
_symmetry_equiv_pos_as_xyz
1 x,y,z
2 -x,-y,-z
_cell_length_a                   4.8437(4)
_cell_length_b                   7.3713(8)
_cell_length_c                   23.573(2)
_cell_angle_alpha                95.651(5)
_cell_angle_beta                 95.316(5)
_cell_angle_gamma                93.561(5)
_cell_volume                     831.808
_exptl_crystal_colour            colorless
_exptl_crystal_description       plate
_chemical_melting_point          '127-132 deg.C'
_cell_formula_units_Z            1
_exptl_crystal_recrystallization_method hexane/chloroform
loop_
_atom_site_label
_atom_site_type_symbol
_atom_site_fract_x
_atom_site_fract_y
_atom_site_fract_z
S1 S 0.75901(8) 0.74675(6) 0.671953(18)
O1 O 1.5426(2) 1.14957(15) 0.92342(5)
O2 O 1.3503(2) 1.69548(15) 0.86026(5)
O3 O 1.2086(2) 1.18111(14) 0.78703(5)
O4 O 0.9815(2) 0.89565(15) 0.70397(5)
O5 O 0.6162(3) 0.84236(18) 0.62995(6)
O6 O 0.6118(3) 0.66371(17) 0.71347(6)
N1 N 1.4355(3) 1.41868(17) 0.88965(5)
C1 C 1.4154(3) 1.2868(2) 0.92787(6)
C2 C 1.2324(3) 1.32291(19) 0.97456(6)
C3 C 1.0883(3) 1.48433(19) 0.97814(6)
C4 C 1.1210(3) 1.61527(19) 0.93920(6)
C5 C 1.3085(3) 1.5844(2) 0.89359(6)
C6 C 1.2013(3) 1.1987(2) 1.01379(6)
H1 H 1.3010 1.0917 1.0117
C7 C 0.9768(3) 1.7709(2) 0.94312(6)
H2 H 0.9983 1.8581 0.9165
C8 C 1.5926(3) 1.3817(2) 0.83943(6)
H3 H 1.7094 1.2782 0.8452
H4 H 1.7168 1.4904 0.8354
C9 C 1.3950(3) 1.3356(2) 0.78511(6)
H5 H 1.2864 1.4424 0.7786
H6 H 1.5056 1.3129 0.7522
C10 C 1.3352(3) 1.0126(2) 0.77713(7)
H7 H 1.4472 0.9872 0.8124
H8 H 1.4601 1.0202 0.7464
C11 C 1.1118(3) 0.8626(2) 0.75999(6)
H9 H 1.1924 0.7423 0.7578
H10 H 0.9732 0.8640 0.7883
C12 C 0.9494(3) 0.5808(2) 0.63785(7)
C13 C 0.9744(4) 0.4133(2) 0.65884(7)
H11 H 0.8925 0.3878 0.6926
C14 C 1.1202(4) 0.2826(2) 0.63022(7)
H12 H 1.1381 0.1676 0.6447
C15 C 1.2403(3) 0.3175(2) 0.58081(7)
C16 C 1.2123(4) 0.4870(2) 0.56104(7)
H13 H 1.2949 0.5132 0.5275
C17 C 1.0679(3) 0.6191(2) 0.58880(7)
H14 H 1.0502 0.7343 0.5744
C18 C 1.3941(4) 0.1753(3) 0.54892(9)
H15 H 1.3976 0.0659 0.5694
H16 H 1.5849 0.2239 0.5463
H17 H 1.2998 0.1434 0.5103
S1A S 1.24099(8) 2.25325(6) 1.328047(18)
O1A O 0.4574(2) 1.85043(15) 1.07658(5)
O2A O 0.6497(2) 1.30452(15) 1.13974(5)
O3A O 0.7914(2) 1.81889(14) 1.21297(5)
O4A O 1.0185(2) 2.10435(15) 1.29603(5)
O5A O 1.3838(3) 2.15764(18) 1.37005(6)
O6A O 1.3882(3) 2.33629(17) 1.28653(6)
N1A N 0.5645(3) 1.58132(17) 1.11035(5)
C1A C 0.5846(3) 1.7132(2) 1.07213(6)
C2A C 0.7676(3) 1.67709(19) 1.02544(6)
C3A C 0.9117(3) 1.51567(19) 1.02186(6)
C4A C 0.8790(3) 1.38473(19) 1.06080(6)
C5A C 0.6915(3) 1.4156(2) 1.10641(6)
C6A C 0.7987(3) 1.8013(2) 0.98621(6)
H1A H 0.6990 1.9083 0.9883
C7A C 1.0232(3) 1.2291(2) 1.05688(6)
H2A H 1.0017 1.1419 1.0835
C8A C 0.4074(3) 1.6183(2) 1.16057(6)
H3A H 0.2906 1.7218 1.1548
H4A H 0.2832 1.5096 1.1646
C9A C 0.6050(3) 1.6644(2) 1.21489(6)
H5A H 0.7136 1.5576 1.2214
H6A H 0.4944 1.6871 1.2478
C10A C 0.6648(3) 1.9874(2) 1.22287(7)
H7A H 0.5528 2.0128 1.1876
H8A H 0.5399 1.9798 1.2536
C11A C 0.8882(3) 2.1374(2) 1.24001(6)
H9A H 0.8076 2.2577 1.2422
H10A H 1.0268 2.1360 1.2117
C12A C 1.0506(3) 2.4192(2) 1.36215(7)
C13A C 1.0256(4) 2.5867(2) 1.34116(7)
H11A H 1.1075 2.6122 1.3074
C14A C 0.8798(4) 2.7174(2) 1.36978(7)
H12A H 0.8619 2.8324 1.3553
C15A C 0.7597(3) 2.6825(2) 1.41919(7)
C16A C 0.7877(4) 2.5130(2) 1.43896(7)
H13A H 0.7051 2.4868 1.4725
C17A C 0.9321(3) 2.3809(2) 1.41120(7)
H14A H 0.9498 2.2657 1.4256
C18A C 0.6059(4) 2.8247(3) 1.45108(9)
H15A H 0.6024 2.9341 1.4306
H16A H 0.4151 2.7761 1.4537
H17A H 0.7002 2.8566 1.4897
loop_
_geom_bond_atom_site_label_1
_geom_bond_atom_site_label_2
_geom_bond_site_symmetry_1
_geom_bond_site_symmetry_2
S1 O4 1_555 1_555
O1 C1 1_555 1_555
O2 C5 1_555 1_555
O3 C9 1_555 1_555
O4 C11 1_555 1_555
O5 S1 1_555 1_555
O6 S1 1_555 1_555
N1 C1 1_555 1_555
C1 C2 1_555 1_555
C2 C3 1_555 1_555
C3 C4 1_555 1_555
C4 C5 1_555 1_555
C5 N1 1_555 1_555
C6 C2 1_555 1_555
H1 C6 1_555 1_555
C7 C4 1_555 1_555
H2 C7 1_555 1_555
C8 N1 1_555 1_555
H3 C8 1_555 1_555
H4 C8 1_555 1_555
C9 C8 1_555 1_555
H5 C9 1_555 1_555
H6 C9 1_555 1_555
C10 O3 1_555 1_555
H7 C10 1_555 1_555
H8 C10 1_555 1_555
C11 C10 1_555 1_555
H9 C11 1_555 1_555
H10 C11 1_555 1_555
C12 S1 1_555 1_555
C13 C12 1_555 1_555
H11 C13 1_555 1_555
C14 C13 1_555 1_555
H12 C14 1_555 1_555
C15 C14 1_555 1_555
C16 C15 1_555 1_555
H13 C16 1_555 1_555
C17 C12 1_555 1_555
H14 C17 1_555 1_555
C18 C15 1_555 1_555
H15 C18 1_555 1_555
H16 C18 1_555 1_555
H17 C18 1_555 1_555
S1A O4A 1_555 1_555
O1A C1A 1_555 1_555
O2A C5A 1_555 1_555
O3A C9A 1_555 1_555
O4A C11A 1_555 1_555
O5A S1A 1_555 1_555
O6A S1A 1_555 1_555
N1A C1A 1_555 1_555
C1A C2A 1_555 1_555
C2A C3A 1_555 1_555
C3A C3 1_555 1_555
C4A C3A 1_555 1_555
C5A N1A 1_555 1_555
C6A C7 1_555 1_555
H1A C6A 1_555 1_555
C7A C6 1_555 1_555
H2A C7A 1_555 1_555
C8A N1A 1_555 1_555
H3A C8A 1_555 1_555
H4A C8A 1_555 1_555
C9A C8A 1_555 1_555
H5A C9A 1_555 1_555
H6A C9A 1_555 1_555
C10A O3A 1_555 1_555
H7A C10A 1_555 1_555
H8A C10A 1_555 1_555
C11A C10A 1_555 1_555
H9A C11A 1_555 1_555
H10A C11A 1_555 1_555
C12A S1A 1_555 1_555
C13A C12A 1_555 1_555
H11A C13A 1_555 1_555
C14A C13A 1_555 1_555
H12A C14A 1_555 1_555
C15A C14A 1_555 1_555
C16A C15A 1_555 1_555
H13A C16A 1_555 1_555
C17A C12A 1_555 1_555
H14A C17A 1_555 1_555
C18A C15A 1_555 1_555
H15A C18A 1_555 1_555
H16A C18A 1_555 1_555
H17A C18A 1_555 1_555
C16 C17 1_555 1_555
C2A C6A 1_555 1_555
C4A C5A 1_555 1_555
C4A C7A 1_555 1_555
C16A C17A 1_555 1_555

#END
