
#######################################################################
#
#                 Cambridge Crystallographic Data Centre
#                                CCDC 
#
#######################################################################
#
# If this CIF has been generated from an entry in the Cambridge 
# Structural Database, then it will include bibliographic, chemical, 
# crystal, experimental, refinement or atomic coordinate data resulting 
# from the CCDC's data processing and validation procedures.
#
#######################################################################

data_QUQKET
_chemical_formula_moiety         'C45 H57 N6 3+,C2 H3 N1,3(B1 F4 1-),H2 O1'
_chemical_name_systematic        
'1,5,9(1,4)-Tribenzena-3,7,11(1,3)-tris(3a,4,5,6,7,7a-hexahydrobenzimidazola)cyclododecaphane-3^3^,7^3^,11^3^-tri-ium tris(tetrafluoroborate) acetonitrile solvate monohydrate'
_symmetry_cell_setting           hexagonal
_symmetry_space_group_name_H-M   'P 63'
_symmetry_Int_Tables_number      173
_space_group_name_Hall           'P 6c'
loop_
_symmetry_equiv_pos_site_id
_symmetry_equiv_pos_as_xyz
1 x,y,z
2 -y,x-y,z
3 -x+y,-x,z
4 -x,-y,1/2+z
5 y,-x+y,1/2+z
6 x-y,x,1/2+z
_cell_length_a                   17.0096(4)
_cell_length_b                   17.0096(4)
_cell_length_c                   11.8953(7)
_cell_angle_alpha                90
_cell_angle_beta                 90
_cell_angle_gamma                120
_cell_volume                     2980.54
_exptl_crystal_colour            colorless
_exptl_crystal_description       block
_cell_formula_units_Z            2
loop_
_atom_site_label
_atom_site_type_symbol
_atom_site_fract_x
_atom_site_fract_y
_atom_site_fract_z
N1 N -0.6307(2) -0.7500(2) -0.9366(3)
N2 N -0.6487(2) -0.8871(2) -0.9261(3)
C1 C -0.5634(2) -0.5876(2) -0.9799(4)
C2 C -0.6502(2) -0.6800(2) -0.9769(4)
H1 H -0.6941 -0.6771 -0.9276
H2 H -0.6762 -0.6956 -1.0517
C3 C -0.6113(3) -0.7610(3) -0.8179(3)
H3 H -0.6686 -0.7860 -0.7763
C4 C -0.5889(3) -0.8360(2) -0.8305(3)
H4 H -0.5259 -0.8084 -0.8565
C5 C -0.5770(2) -0.9776(2) -0.9748(3)
C6 C -0.5638(3) -1.0366(2) -0.9079(3)
H5 H -0.6100 -1.0768 -0.8606
C7 C -0.6614(2) -0.8289(2) -0.9857(4)
H6 H -0.6894 -0.8427 -1.0557
C8 C -0.6646(2) -0.9750(2) -0.9673(4)
H7 H -0.6926 -0.9865 -1.0411
H8 H -0.7063 -1.0226 -0.9171
C9 C -0.4927(3) -0.5731(3) -1.0489(3)
H9 H -0.4993 -0.6191 -1.0972
C10 C -0.5545(3) -0.5180(3) -0.9110(3)
H10 H -0.6031 -0.5259 -0.8668
C11 C -0.5364(4) -0.7223(3) -0.6362(4)
H11 H -0.5918 -0.7387 -0.5953
H12 H -0.4862 -0.6757 -0.5932
C12 C -0.5401(3) -0.6829(3) -0.7501(4)
H13 H -0.5565 -0.6362 -0.7409
H14 H -0.4816 -0.6565 -0.7874
C13 C -0.5084(3) -0.9204(3) -1.0481(3)
H15 H -0.5175 -0.8828 -1.0966
C14 C -0.5247(4) -0.8066(3) -0.6447(4)
H16 H -0.4647 -0.7880 -0.6737
H17 H -0.5288 -0.8311 -0.5699
C15 C -0.5950(3) -0.8807(3) -0.7196(4)
H18 H -0.5816 -0.9296 -0.7285
H19 H -0.6553 -0.9054 -0.6878
N1A N -0.2500(2) -0.8807(3) -0.9366(3)
N1B N -0.1193(3) -0.3693(2) -0.9366(3)
N2A N -0.1129(2) -0.7616(3) -0.9261(3)
N2B N -0.2384(3) -0.3513(2) -0.9261(3)
C1A C -0.4124(2) -0.9758(3) -0.9799(4)
C1B C -0.0242(3) -0.4366(2) -0.9799(4)
C2A C -0.3200(2) -0.9702(3) -0.9769(4)
C2B C -0.0298(3) -0.3498(2) -0.9769(4)
H1A H -0.3229 -1.0170 -0.9276
H1B H 0.0170 -0.3059 -0.9276
H2A H -0.3044 -0.9806 -1.0517
H2B H -0.0194 -0.3238 -1.0517
C3A C -0.2390(3) -0.8503(4) -0.8179(3)
C3B C -0.1497(4) -0.3887(3) -0.8179(3)
H3A H -0.2140 -0.8826 -0.7763
H3B H -0.1174 -0.3314 -0.7763
C4A C -0.1640(2) -0.7529(4) -0.8305(3)
C4B C -0.2471(4) -0.4111(3) -0.8305(3)
H4A H -0.1916 -0.7175 -0.8565
H4B H -0.2825 -0.4741 -0.8565
C5A C -0.0224(2) -0.5994(3) -0.9748(3)
C5B C -0.4006(3) -0.4230(2) -0.9748(3)
C6A C 0.0366(2) -0.5272(4) -0.9079(3)
C6B C -0.4728(4) -0.4362(3) -0.9079(3)
H5A H 0.0768 -0.5332 -0.8606
H5B H -0.4668 -0.3900 -0.8606
C7A C -0.1711(2) -0.8325(3) -0.9857(4)
C7B C -0.1675(3) -0.3386(2) -0.9857(4)
H6A H -0.1573 -0.8467 -1.0557
H6B H -0.1533 -0.3106 -1.0557
C8A C -0.0250(2) -0.6896(3) -0.9673(4)
C8B C -0.3104(3) -0.3354(2) -0.9673(4)
H7A H -0.0135 -0.7061 -1.0411
H7B H -0.2939 -0.3074 -1.0411
H8A H 0.0226 -0.6837 -0.9171
H8B H -0.3163 -0.2937 -0.9171
C9A C -0.4269(3) -0.9196(4) -1.0489(3)
C9B C -0.0804(4) -0.5073(3) -1.0489(3)
H9A H -0.3809 -0.8802 -1.0972
H9B H -0.1198 -0.5007 -1.0972
C10A C -0.4820(3) -1.0365(4) -0.9110(3)
C10B C 0.0365(4) -0.4455(3) -0.9110(3)
H10A H -0.4741 -1.0772 -0.8668
H10B H 0.0772 -0.3969 -0.8668
C11A C -0.2777(3) -0.8141(5) -0.6362(4)
C11B C -0.1859(5) -0.4636(4) -0.6362(4)
H11A H -0.2613 -0.8531 -0.5953
H11B H -0.1469 -0.4082 -0.5953
H12A H -0.3243 -0.8105 -0.5932
H12B H -0.1895 -0.5138 -0.5932
C12A C -0.3171(3) -0.8572(4) -0.7501(4)
C12B C -0.1428(4) -0.4599(3) -0.7501(4)
H13A H -0.3638 -0.9203 -0.7409
H13B H -0.0797 -0.4435 -0.7409
H14A H -0.3435 -0.8251 -0.7874
H14B H -0.1749 -0.5184 -0.7874
C13A C -0.0796(3) -0.5880(4) -1.0481(3)
C13B C -0.4120(4) -0.4916(3) -1.0481(3)
H15A H -0.1172 -0.6347 -1.0966
H15B H -0.3653 -0.4825 -1.0966
C14A C -0.1934(3) -0.7181(5) -0.6447(4)
C14B C -0.2819(5) -0.4753(4) -0.6447(4)
H16A H -0.2120 -0.6767 -0.6737
H16B H -0.3233 -0.5353 -0.6737
H17A H -0.1689 -0.6977 -0.5699
H17B H -0.3023 -0.4712 -0.5699
C15A C -0.1193(3) -0.7143(4) -0.7196(4)
C15B C -0.2857(4) -0.4050(3) -0.7196(4)
H18A H -0.0704 -0.6520 -0.7285
H18B H -0.3480 -0.4184 -0.7285
H19A H -0.0946 -0.7499 -0.6878
H19B H -0.2501 -0.3447 -0.6878
F1 F -0.6589(3) -0.9016(3) -0.2343(3)
F2 F -0.6165(4) -0.8132(3) -0.3860(3)
F3 F -0.6632(5) -0.7726(4) -0.2356(3)
B1 B -0.6180(6) -0.8141(5) -0.2730(5)
F4 F -0.5341(5) -0.7687(4) -0.2262(7)
C16 C -0.3333 -0.6667 -0.996(8)
C17 C -0.3333 -0.6667 -1.117(3)
N3 N -0.3333 -0.6667 -0.905(5)
O1 O -0.3333 -0.6667 -0.411(4)
loop_
_geom_bond_atom_site_label_1
_geom_bond_atom_site_label_2
_geom_bond_site_symmetry_1
_geom_bond_site_symmetry_2
N1 C2 1_555 1_555
N2 C4 1_555 1_555
C1 C2 1_555 1_555
C2 H1 1_555 1_555
H2 C2 1_555 1_555
C3 N1 1_555 1_555
H3 C3 1_555 1_555
C4 C3 1_555 1_555
H4 C4 1_555 1_555
C5 C6 1_555 1_555
C6 H5 1_555 1_555
C7 N1 1_555 1_555
H6 C7 1_555 1_555
C8 N2 1_555 1_555
H7 C8 1_555 1_555
H8 C8 1_555 1_555
C9 C1 1_555 1_555
H9 C9 1_555 1_555
C10 C1 1_555 1_555
H10 C10 1_555 1_555
C11 H11 1_555 1_555
H12 C11 1_555 1_555
C12 C3 1_555 1_555
H13 C12 1_555 1_555
H14 C12 1_555 1_555
C13 C5 1_555 1_555
H15 C13 1_555 1_555
C14 C11 1_555 1_555
H16 C14 1_555 1_555
H17 C14 1_555 1_555
C15 C4 1_555 1_555
H18 C15 1_555 1_555
H19 C15 1_555 1_555
F1 B1 1_555 1_555
F2 B1 1_555 1_555
F3 B1 1_555 1_555
B1 F4 1_555 1_555
C16 C17 1_555 1_555
N3 C16 1_555 1_555
N1A C2A 1_555 1_555
N1B C2B 1_555 1_555
N2A C4A 1_555 1_555
N2B C4B 1_555 1_555
C1A C2A 1_555 1_555
C1B C2B 1_555 1_555
C2A H1A 1_555 1_555
C2B H1B 1_555 1_555
H2A C2A 1_555 1_555
H2B C2B 1_555 1_555
C3A N1A 1_555 1_555
C3B N1B 1_555 1_555
H3A C3A 1_555 1_555
H3B C3B 1_555 1_555
C4A C3A 1_555 1_555
C4B C3B 1_555 1_555
H4A C4A 1_555 1_555
H4B C4B 1_555 1_555
C5A C6A 1_555 1_555
C5B C6B 1_555 1_555
C6A H5A 1_555 1_555
C6B C10 1_555 1_555
H5B C6B 1_555 1_555
C7A N1A 1_555 1_555
C7B N1B 1_555 1_555
H6A C7A 1_555 1_555
H6B C7B 1_555 1_555
C8A N2A 1_555 1_555
C8B N2B 1_555 1_555
H7A C8A 1_555 1_555
H7B C8B 1_555 1_555
H8A C8A 1_555 1_555
H8B C8B 1_555 1_555
C9A C13 1_555 1_555
C9B C1B 1_555 1_555
H9A C9A 1_555 1_555
H9B C9B 1_555 1_555
C10A C6 1_555 1_555
C10B C1B 1_555 1_555
H10A C10A 1_555 1_555
H10B C10B 1_555 1_555
C11A H11A 1_555 1_555
C11B H11B 1_555 1_555
H12A C11A 1_555 1_555
H12B C11B 1_555 1_555
C12A C3A 1_555 1_555
C12B C3B 1_555 1_555
H13A C12A 1_555 1_555
H13B C12B 1_555 1_555
H14A C12A 1_555 1_555
H14B C12B 1_555 1_555
C13A C5A 1_555 1_555
C13B C9 1_555 1_555
H15A C13A 1_555 1_555
H15B C13B 1_555 1_555
C14A C11A 1_555 1_555
C14B C11B 1_555 1_555
H16A C14A 1_555 1_555
H16B C14B 1_555 1_555
H17A C14A 1_555 1_555
H17B C14B 1_555 1_555
C15A C4A 1_555 1_555
C15B C4B 1_555 1_555
H18A C15A 1_555 1_555
H18B C15B 1_555 1_555
H19A C15A 1_555 1_555
H19B C15B 1_555 1_555
N2 C7 1_555 1_555
C5 C8 1_555 1_555
C11 C12 1_555 1_555
C14 C15 1_555 1_555
N2A C7A 1_555 1_555
N2B C7B 1_555 1_555
C1A C9A 1_555 1_555
C1A C10A 1_555 1_555
C5A C8A 1_555 1_555
C5B C8B 1_555 1_555
C5B C13B 1_555 1_555
C6A C10B 1_555 1_555
C9B C13A 1_555 1_555
C11A C12A 1_555 1_555
C11B C12B 1_555 1_555
C14A C15A 1_555 1_555
C14B C15B 1_555 1_555

#END
