
#######################################################################
#
#                 Cambridge Crystallographic Data Centre
#                                CCDC 
#
#######################################################################
#
# If this CIF has been generated from an entry in the Cambridge 
# Structural Database, then it will include bibliographic, chemical, 
# crystal, experimental, refinement or atomic coordinate data resulting 
# from the CCDC's data processing and validation procedures.
#
#######################################################################

data_QUQLUL
_chemical_formula_moiety         'C43 H32 N2 Si1,C2 H6 O1'
_chemical_name_systematic        
'2-(4-(Methyl(diphenyl)silyl)phenyl)-4,7-diphenyl-1,10-phenanthroline ethanol solvate'
_symmetry_cell_setting           triclinic
_symmetry_space_group_name_H-M   'P -1'
_symmetry_Int_Tables_number      2
_space_group_name_Hall           '-P 1'
loop_
_symmetry_equiv_pos_site_id
_symmetry_equiv_pos_as_xyz
1 x,y,z
2 -x,-y,-z
_cell_length_a                   9.5586(19)
_cell_length_b                   12.491(3)
_cell_length_c                   16.473(3)
_cell_angle_alpha                72.62(3)
_cell_angle_beta                 87.10(3)
_cell_angle_gamma                74.27(3)
_cell_volume                     1805.74
_exptl_crystal_colour            yellow
_exptl_crystal_description       block
_cell_formula_units_Z            2
loop_
_atom_site_label
_atom_site_type_symbol
_atom_site_fract_x
_atom_site_fract_y
_atom_site_fract_z
C1 C -0.1802(3) 0.4254(2) 0.58282(18)
C2 C -0.1752(3) 0.4211(2) 0.49875(19)
H1 H -0.1113 0.3583 0.4855
C3 C -0.2626(3) 0.5077(2) 0.43554(18)
C4 C -0.3580(3) 0.6024(2) 0.45914(18)
C5 C -0.4494(3) 0.7008(2) 0.39862(18)
H2 H -0.4455 0.7048 0.3413
C6 C -0.5404(3) 0.7872(3) 0.42271(19)
H3 H -0.5990 0.8496 0.3817
C7 C -0.5501(3) 0.7861(2) 0.50901(18)
C8 C -0.6449(3) 0.8780(2) 0.5361(2)
C9 C -0.6349(4) 0.8736(3) 0.6195(2)
H4 H -0.6934 0.9328 0.6391
C10 C -0.5376(4) 0.7810(3) 0.6744(2)
H5 H -0.5335 0.7808 0.7307
C11 C -0.4550(3) 0.6951(2) 0.57021(18)
C12 C -0.3583(3) 0.5996(2) 0.54488(18)
C13 C -0.2528(3) 0.5037(2) 0.34651(18)
C14 C -0.1200(4) 0.4924(3) 0.3081(2)
H6 H -0.0373 0.4830 0.3397
C15 C -0.1075(7) 0.4946(4) 0.2248(3)
H7 H -0.0177 0.4893 0.1995
C16 C -0.2286(8) 0.5048(4) 0.1787(3)
H8 H -0.2199 0.5055 0.1221
C17 C -0.3601(6) 0.5140(3) 0.2143(3)
H9 H -0.4411 0.5202 0.1825
C18 C -0.3742(4) 0.5141(3) 0.2992(2)
H10 H -0.4647 0.5211 0.3238
C19 C -0.7522(3) 0.9751(2) 0.47616(19)
C20 C -0.8548(4) 0.9543(3) 0.4304(2)
H11 H -0.8553 0.8781 0.4359
C21 C -0.9557(4) 1.0453(3) 0.3773(2)
H12 H -1.0247 1.0303 0.3475
C22 C -0.9554(4) 1.1584(3) 0.3678(2)
H13 H -1.0236 1.2197 0.3315
C23 C -0.8538(4) 1.1805(3) 0.4122(3)
H14 H -0.8532 1.2569 0.4057
C24 C -0.7526(4) 1.0894(3) 0.4665(2)
H15 H -0.6845 1.1048 0.4967
C25 C -0.0834(3) 0.3341(2) 0.65127(19)
C26 C 0.0467(3) 0.2614(2) 0.63480(19)
H16 H 0.0713 0.2652 0.5789
C27 C 0.1387(3) 0.1842(3) 0.70050(19)
H17 H 0.2257 0.1379 0.6877
C28 C 0.1066(3) 0.1727(2) 0.78549(19)
C29 C -0.0246(3) 0.2446(3) 0.8009(2)
H18 H -0.0509 0.2389 0.8568
C30 C -0.1160(3) 0.3233(3) 0.73611(19)
H19 H -0.2019 0.3707 0.7491
C31 C 0.2091(4) -0.0766(3) 0.90125(19)
C32 C 0.1244(5) -0.1083(3) 0.8526(3)
H20 H 0.0801 -0.0537 0.8027
C33 C 0.1021(7) -0.2188(4) 0.8750(4)
H21 H 0.0442 -0.2378 0.8406
C34 C 0.1670(7) -0.2993(4) 0.9487(4)
H22 H 0.1535 -0.3736 0.9643
C35 C 0.2499(7) -0.2719(4) 0.9986(3)
H23 H 0.2935 -0.3272 1.0484
C36 C 0.2701(5) -0.1621(3) 0.9759(2)
H24 H 0.3266 -0.1442 1.0117
C37 C 0.4258(3) 0.0675(3) 0.84115(18)
C38 C 0.5158(4) -0.0228(3) 0.8160(2)
H25 H 0.4832 -0.0868 0.8168
C39 C 0.6564(5) -0.0184(4) 0.7893(3)
H26 H 0.7158 -0.0792 0.7717
C40 C 0.7063(4) 0.0720(4) 0.7887(3)
H27 H 0.8000 0.0734 0.7712
C41 C 0.6200(5) 0.1617(4) 0.8137(3)
H28 H 0.6548 0.2244 0.8136
C42 C 0.4826(4) 0.1599(3) 0.8389(2)
H29 H 0.4246 0.2224 0.8551
C43 C 0.2007(5) 0.1256(3) 0.9703(2)
H30 H 0.2143 0.2023 0.9564
H31 H 0.2673 0.0740 1.0159
H32 H 0.1027 0.1281 0.9876
N1 N -0.4496(3) 0.6924(2) 0.65334(16)
N2 N -0.2701(3) 0.51327(19) 0.60535(15)
Si1 Si 0.23497(9) 0.07194(7) 0.87539(5)
C44 C 0.6420(18) 0.6278(7) 0.9207(6)
H33 H 0.6522 0.6897 0.9412
H34 H 0.6761 0.5547 0.9639
H35 H 0.5415 0.6399 0.9067
C45 C 0.7229(9) 0.6266(7) 0.8489(6)
H36 H 0.8246 0.6124 0.8638
H37 H 0.6926 0.7026 0.8070
O1 O 0.7086(5) 0.5425(3) 0.8128(2)
H38 H 0.6444 0.5717 0.7754
loop_
_geom_bond_atom_site_label_1
_geom_bond_atom_site_label_2
_geom_bond_site_symmetry_1
_geom_bond_site_symmetry_2
C1 C2 1_555 1_555
C2 H1 1_555 1_555
C3 C2 1_555 1_555
C4 C3 1_555 1_555
C5 C4 1_555 1_555
H2 C5 1_555 1_555
C6 C5 1_555 1_555
H3 C6 1_555 1_555
C7 C6 1_555 1_555
C8 C7 1_555 1_555
C9 C8 1_555 1_555
H4 C9 1_555 1_555
C10 C9 1_555 1_555
H5 C10 1_555 1_555
C11 C7 1_555 1_555
C12 C4 1_555 1_555
C13 C3 1_555 1_555
C14 C13 1_555 1_555
H6 C14 1_555 1_555
C15 C14 1_555 1_555
H7 C15 1_555 1_555
C16 C15 1_555 1_555
H8 C16 1_555 1_555
C17 C16 1_555 1_555
H9 C17 1_555 1_555
C18 C13 1_555 1_555
H10 C18 1_555 1_555
C19 C8 1_555 1_555
C20 C19 1_555 1_555
H11 C20 1_555 1_555
C21 C20 1_555 1_555
H12 C21 1_555 1_555
C22 C21 1_555 1_555
H13 C22 1_555 1_555
C23 C22 1_555 1_555
H14 C23 1_555 1_555
C24 C19 1_555 1_555
H15 C24 1_555 1_555
C25 C1 1_555 1_555
C26 C25 1_555 1_555
H16 C26 1_555 1_555
C27 C26 1_555 1_555
H17 C27 1_555 1_555
C28 C27 1_555 1_555
C29 C28 1_555 1_555
H18 C29 1_555 1_555
C30 C25 1_555 1_555
H19 C30 1_555 1_555
C31 C32 1_555 1_555
C32 H20 1_555 1_555
C33 C32 1_555 1_555
H21 C33 1_555 1_555
C34 C33 1_555 1_555
H22 C34 1_555 1_555
C35 C34 1_555 1_555
H23 C35 1_555 1_555
C36 C31 1_555 1_555
H24 C36 1_555 1_555
C37 C38 1_555 1_555
C38 H25 1_555 1_555
C39 C38 1_555 1_555
H26 C39 1_555 1_555
C40 C39 1_555 1_555
H27 C40 1_555 1_555
C41 C40 1_555 1_555
H28 C41 1_555 1_555
C42 C37 1_555 1_555
H29 C42 1_555 1_555
C43 H30 1_555 1_555
H31 C43 1_555 1_555
H32 C43 1_555 1_555
N1 C10 1_555 1_555
N2 C1 1_555 1_555
Si1 C28 1_555 1_555
C44 H33 1_555 1_555
H34 C44 1_555 1_555
H35 C44 1_555 1_555
C45 C44 1_555 1_555
H36 C45 1_555 1_555
H37 C45 1_555 1_555
O1 C45 1_555 1_555
H38 O1 1_555 1_555
C11 C12 1_555 1_555
C11 N1 1_555 1_555
C12 N2 1_555 1_555
C17 C18 1_555 1_555
C23 C24 1_555 1_555
C29 C30 1_555 1_555
C31 Si1 1_555 1_555
C35 C36 1_555 1_555
C37 Si1 1_555 1_555
C41 C42 1_555 1_555
C43 Si1 1_555 1_555

#END
