
#######################################################################
#
#                 Cambridge Crystallographic Data Centre
#                                CCDC 
#
#######################################################################
#
# If this CIF has been generated from an entry in the Cambridge 
# Structural Database, then it will include bibliographic, chemical, 
# crystal, experimental, refinement or atomic coordinate data resulting 
# from the CCDC's data processing and validation procedures.
#
#######################################################################

data_QUQLOF
_chemical_formula_moiety         'C48 H34 N2 Si1,C1 H2 Cl2'
_chemical_name_systematic        
'4,7-Diphenyl-2-(4-(triphenylsilyl)phenyl)-1,10-phenanthroline dichloromethane solvate'
_symmetry_cell_setting           triclinic
_symmetry_space_group_name_H-M   'P -1'
_symmetry_Int_Tables_number      2
_space_group_name_Hall           '-P 1'
loop_
_symmetry_equiv_pos_site_id
_symmetry_equiv_pos_as_xyz
1 x,y,z
2 -x,-y,-z
_cell_length_a                   9.922(2)
_cell_length_b                   10.404(2)
_cell_length_c                   20.668(4)
_cell_angle_alpha                87.42(3)
_cell_angle_beta                 78.11(3)
_cell_angle_gamma                67.06(3)
_cell_volume                     1921.16
_exptl_crystal_colour            yellow
_exptl_crystal_description       block
_cell_formula_units_Z            2
loop_
_atom_site_label
_atom_site_type_symbol
_atom_site_fract_x
_atom_site_fract_y
_atom_site_fract_z
C1 C 0.8747(4) 0.9758(4) -0.13529(16)
H1 H 0.9398 1.0175 -0.1304
C2 C 0.8535(4) 0.9626(4) -0.19880(16)
H2 H 0.9051 0.9934 -0.2347
C3 C 0.7554(3) 0.9037(3) -0.20828(15)
C4 C 0.6744(3) 0.8651(3) -0.15089(14)
C5 C 0.5598(3) 0.8145(3) -0.15312(15)
H3 H 0.5379 0.8041 -0.1937
C6 C 0.4831(3) 0.7817(3) -0.09752(14)
H4 H 0.4073 0.7522 -0.1005
C7 C 0.5158(3) 0.7914(3) -0.03393(14)
C8 C 0.4402(3) 0.7542(3) 0.02545(15)
C9 C 0.4867(3) 0.7598(3) 0.08303(15)
H5 H 0.4400 0.7348 0.1224
C10 C 0.6054(3) 0.8033(3) 0.08281(14)
C11 C 0.6305(3) 0.8369(3) -0.02909(14)
C12 C 0.7074(3) 0.8793(3) -0.08859(14)
C13 C 0.7465(3) 0.8759(3) -0.27714(15)
C14 C 0.7322(3) 0.9796(4) -0.32314(16)
H6 H 0.7173 1.0691 -0.3097
C15 C 0.7401(4) 0.9505(4) -0.38889(16)
H7 H 0.7314 1.0203 -0.4194
C16 C 0.7605(4) 0.8191(5) -0.40935(17)
H8 H 0.7661 0.8003 -0.4536
C17 C 0.7728(4) 0.7150(4) -0.36435(17)
H9 H 0.7855 0.6264 -0.3782
C18 C 0.7661(3) 0.7430(4) -0.29802(16)
H10 H 0.7747 0.6729 -0.2677
C19 C 0.3124(3) 0.7112(3) 0.02793(15)
C20 C 0.1847(3) 0.7981(3) 0.00521(15)
H11 H 0.1811 0.8818 -0.0138
C21 C 0.0632(3) 0.7601(4) 0.01086(16)
H12 H -0.0219 0.8185 -0.0039
C22 C 0.0698(4) 0.6349(4) 0.03863(19)
H13 H -0.0114 0.6093 0.0423
C23 C 0.1949(4) 0.5473(4) 0.06104(19)
H14 H 0.1982 0.4634 0.0797
C24 C 0.3163(3) 0.5860(3) 0.05541(17)
H15 H 0.4010 0.5271 0.0703
C25 C 0.6584(3) 0.8091(3) 0.14468(14)
C26 C 0.6135(4) 0.7500(4) 0.20261(16)
H16 H 0.5453 0.7086 0.2036
C27 C 0.6685(4) 0.7516(4) 0.25901(16)
H17 H 0.6382 0.7095 0.2967
C28 C 0.7686(3) 0.8155(3) 0.25999(14)
C29 C 0.8088(3) 0.8788(4) 0.20229(15)
H18 H 0.8727 0.9247 0.2019
C30 C 0.7560(3) 0.8751(3) 0.14582(15)
H19 H 0.7860 0.9172 0.1081
C31 C 0.7881(3) 1.0190(3) 0.35079(14)
C32 C 0.6537(3) 1.1148(3) 0.33609(16)
H20 H 0.5881 1.0823 0.3229
C33 C 0.6174(4) 1.2571(4) 0.34106(18)
H21 H 0.5275 1.3190 0.3314
C34 C 0.7129(4) 1.3083(4) 0.36023(19)
H22 H 0.6884 1.4041 0.3627
C35 C 0.8457(4) 1.2160(4) 0.3757(2)
H23 H 0.9104 1.2494 0.3891
C36 C 0.8814(4) 1.0737(4) 0.37123(17)
H24 H 0.9702 1.0126 0.3822
C37 C 1.0483(3) 0.7331(3) 0.32240(16)
C38 C 1.1367(4) 0.6706(4) 0.26097(17)
H25 H 1.0906 0.6726 0.2258
C39 C 1.2922(4) 0.6056(4) 0.2515(2)
H26 H 1.3488 0.5649 0.2105
C40 C 1.3613(4) 0.6020(4) 0.3031(2)
H27 H 1.4649 0.5595 0.2967
C41 C 1.2775(4) 0.6612(4) 0.3650(2)
H28 H 1.3248 0.6586 0.3998
C42 C 1.1224(4) 0.7244(4) 0.37438(18)
H29 H 1.0667 0.7617 0.4161
C43 C 0.7508(3) 0.7473(3) 0.40557(14)
C44 C 0.8239(4) 0.6110(4) 0.42285(17)
H30 H 0.9223 0.5606 0.4016
C45 C 0.7528(5) 0.5476(4) 0.47163(18)
H31 H 0.8039 0.4565 0.4830
C46 C 0.6061(4) 0.6212(4) 0.50290(17)
H32 H 0.5577 0.5786 0.5345
C47 C 0.5313(4) 0.7575(4) 0.48729(17)
H33 H 0.4331 0.8072 0.5090
C48 C 0.6021(4) 0.8203(4) 0.43946(16)
H34 H 0.5508 0.9124 0.4294
N1 N 0.6739(3) 0.8432(3) 0.02824(12)
N2 N 0.8086(3) 0.9330(3) -0.08144(12)
Si1 Si 0.84010(9) 0.82724(9) 0.33571(4)
C49 C 0.8831(7) 0.4074(7) 0.1481(3)
H35 H 0.9535 0.3237 0.1226
H36 H 0.8699 0.4847 0.1187
Cl1 Cl 0.95964(18) 0.43258(19) 0.20509(11)
Cl2 Cl 0.7473(6) 0.3364(7) 0.1807(2)
Cl3? Cl 0.7081(6) 0.3896(7) 0.1713(2)
Cl4? Cl 0.6832(10) 0.4440(10) 0.1326(5)
loop_
_geom_bond_atom_site_label_1
_geom_bond_atom_site_label_2
_geom_bond_site_symmetry_1
_geom_bond_site_symmetry_2
C1 H1 1_555 1_555
C2 C1 1_555 1_555
H2 C2 1_555 1_555
C3 C2 1_555 1_555
C4 C3 1_555 1_555
C5 C4 1_555 1_555
H3 C5 1_555 1_555
C6 C5 1_555 1_555
H4 C6 1_555 1_555
C7 C6 1_555 1_555
C8 C7 1_555 1_555
C9 C8 1_555 1_555
H5 C9 1_555 1_555
C10 C9 1_555 1_555
C11 C7 1_555 1_555
C12 C4 1_555 1_555
C13 C3 1_555 1_555
C14 C13 1_555 1_555
H6 C14 1_555 1_555
C15 C14 1_555 1_555
H7 C15 1_555 1_555
C16 C15 1_555 1_555
H8 C16 1_555 1_555
C17 C16 1_555 1_555
H9 C17 1_555 1_555
C18 C13 1_555 1_555
H10 C18 1_555 1_555
C19 C8 1_555 1_555
C20 C19 1_555 1_555
H11 C20 1_555 1_555
C21 C20 1_555 1_555
H12 C21 1_555 1_555
C22 C21 1_555 1_555
H13 C22 1_555 1_555
C23 C22 1_555 1_555
H14 C23 1_555 1_555
C24 C19 1_555 1_555
H15 C24 1_555 1_555
C25 C10 1_555 1_555
C26 C25 1_555 1_555
H16 C26 1_555 1_555
C27 C26 1_555 1_555
H17 C27 1_555 1_555
C28 C27 1_555 1_555
C29 C28 1_555 1_555
H18 C29 1_555 1_555
C30 C25 1_555 1_555
H19 C30 1_555 1_555
C31 C32 1_555 1_555
C32 H20 1_555 1_555
C33 C32 1_555 1_555
H21 C33 1_555 1_555
C34 C33 1_555 1_555
H22 C34 1_555 1_555
C35 C34 1_555 1_555
H23 C35 1_555 1_555
C36 C31 1_555 1_555
H24 C36 1_555 1_555
C37 C38 1_555 1_555
C38 H25 1_555 1_555
C39 C38 1_555 1_555
H26 C39 1_555 1_555
C40 C39 1_555 1_555
H27 C40 1_555 1_555
C41 C40 1_555 1_555
H28 C41 1_555 1_555
C42 C37 1_555 1_555
H29 C42 1_555 1_555
C43 C44 1_555 1_555
C44 H30 1_555 1_555
C45 C44 1_555 1_555
H31 C45 1_555 1_555
C46 C45 1_555 1_555
H32 C46 1_555 1_555
C47 C46 1_555 1_555
H33 C47 1_555 1_555
C48 C43 1_555 1_555
H34 C48 1_555 1_555
N1 C10 1_555 1_555
N2 C1 1_555 1_555
Si1 C28 1_555 1_555
C49 H35 1_555 1_555
H36 C49 1_555 1_555
Cl1 C49 1_555 1_555
Cl2 C49 1_555 1_555
C11 C12 1_555 1_555
C11 N1 1_555 1_555
C12 N2 1_555 1_555
C17 C18 1_555 1_555
C23 C24 1_555 1_555
C29 C30 1_555 1_555
C31 Si1 1_555 1_555
C35 C36 1_555 1_555
C37 Si1 1_555 1_555
C41 C42 1_555 1_555
C43 Si1 1_555 1_555
C47 C48 1_555 1_555

#END
