
#######################################################################
#
#                 Cambridge Crystallographic Data Centre
#                                CCDC 
#
#######################################################################
#
# If this CIF has been generated from an entry in the Cambridge 
# Structural Database, then it will include bibliographic, chemical, 
# crystal, experimental, refinement or atomic coordinate data resulting 
# from the CCDC's data processing and validation procedures.
#
#######################################################################

data_QUQNOH
_chemical_formula_moiety         'C17 H22 N2 O4'
_chemical_name_systematic        
't-butyl (2-(oxo(pyrrolidin-1-yl)acetyl)phenyl)carbamate'
_symmetry_cell_setting           monoclinic
_symmetry_space_group_name_H-M   'C 2/c'
_symmetry_Int_Tables_number      15
_space_group_name_Hall           '-C 2yn'
loop_
_symmetry_equiv_pos_site_id
_symmetry_equiv_pos_as_xyz
1 x,y,z
2 -x,y,1/2-z
3 1/2+x,1/2+y,z
4 1/2-x,1/2+y,1/2-z
5 -x,-y,-z
6 x,-y,1/2+z
7 1/2-x,1/2-y,-z
8 1/2+x,1/2-y,1/2+z
_cell_length_a                   32.0681(13)
_cell_length_b                   11.0308(4)
_cell_length_c                   9.7494(3)
_cell_angle_alpha                90
_cell_angle_beta                 104.548(2)
_cell_angle_gamma                90
_cell_volume                     3338.15
_cell_formula_units_Z            8
loop_
_atom_site_label
_atom_site_type_symbol
_atom_site_fract_x
_atom_site_fract_y
_atom_site_fract_z
O1 O 0.10440(3) -0.34139(10) -0.43266(11)
O2 O 0.18603(4) -0.14849(11) -0.13983(13)
O3 O 0.18361(4) 0.12976(10) -0.06724(13)
N1 N 0.10749(4) -0.24541(11) -0.23391(13)
O4 O 0.04157(3) -0.28732(11) -0.38285(11)
N2 N 0.22993(4) 0.01772(11) 0.09814(13)
C1 C 0.09571(5) -0.17593(12) -0.12990(14)
C2 C 0.19525(5) 0.03294(14) -0.00803(16)
C3 C 0.12609(5) -0.09414(13) -0.04883(15)
C4 C 0.16957(5) -0.08031(14) -0.06879(15)
C5 C 0.05501(5) -0.18362(13) -0.10465(15)
H1 H 0.0348 -0.2373 -0.1570
C6 C 0.04445(5) -0.11203(14) -0.00226(16)
H2 H 0.0171 -0.1179 0.0132
C7 C 0.08466(5) -0.38116(14) -0.57966(16)
C8 C 0.07382(5) -0.03176(15) 0.07774(17)
H3 H 0.0664 0.0157 0.1468
C9 C 0.11406(5) -0.02312(14) 0.05401(16)
H4 H 0.1338 0.0311 0.1074
C10 C 0.28881(5) -0.06412(15) 0.26300(19)
H5 H 0.2963 -0.1121 0.3491
H6 H 0.3104 -0.0768 0.2102
C11 C 0.08014(5) -0.29144(13) -0.35419(15)
C12 C 0.25699(5) 0.12102(14) 0.16049(18)
H7 H 0.2396 0.1877 0.1799
H8 H 0.2743 0.1491 0.0982
C13 C 0.28510(5) 0.06921(16) 0.29648(18)
H9 H 0.3132 0.1077 0.3205
H10 H 0.2717 0.0797 0.3745
C14 C 0.24417(5) -0.09631(14) 0.17417(17)
H11 H 0.2453 -0.1617 0.1088
H12 H 0.2253 -0.1194 0.2334
C15 C 0.12352(6) -0.4244(2) -0.6269(2)
H13 H 0.1146 -0.4530 -0.7228
H14 H 0.1434 -0.3586 -0.6215
H15 H 0.1372 -0.4892 -0.5663
C16 C 0.05365(7) -0.48362(18) -0.5800(2)
H16 H 0.0411 -0.5086 -0.6758
H17 H 0.0687 -0.5507 -0.5272
H18 H 0.0313 -0.4570 -0.5373
C17 C 0.06421(8) -0.27430(19) -0.6662(2)
H19 H 0.0514 -0.2999 -0.7616
H20 H 0.0424 -0.2406 -0.6257
H21 H 0.0858 -0.2140 -0.6666
H22 H 0.1342(6) -0.2434(16) -0.2325(18)
loop_
_geom_bond_atom_site_label_1
_geom_bond_atom_site_label_2
_geom_bond_site_symmetry_1
_geom_bond_site_symmetry_2
O1 C7 1_555 1_555
O2 C4 1_555 1_555
O3 C2 1_555 1_555
N1 C1 1_555 1_555
O4 C11 1_555 1_555
N2 C2 1_555 1_555
C1 C3 1_555 1_555
C2 C4 1_555 1_555
C3 C4 1_555 1_555
C5 C1 1_555 1_555
H1 C5 1_555 1_555
C6 C5 1_555 1_555
H2 C6 1_555 1_555
C7 C15 1_555 1_555
C8 C6 1_555 1_555
H3 C8 1_555 1_555
C9 C3 1_555 1_555
H4 C9 1_555 1_555
C10 H5 1_555 1_555
H6 C10 1_555 1_555
C11 O1 1_555 1_555
C12 N2 1_555 1_555
H7 C12 1_555 1_555
H8 C12 1_555 1_555
C13 C10 1_555 1_555
H9 C13 1_555 1_555
H10 C13 1_555 1_555
C14 N2 1_555 1_555
H11 C14 1_555 1_555
H12 C14 1_555 1_555
C15 H13 1_555 1_555
H14 C15 1_555 1_555
H15 C15 1_555 1_555
C16 C7 1_555 1_555
H16 C16 1_555 1_555
H17 C16 1_555 1_555
H18 C16 1_555 1_555
C17 C7 1_555 1_555
H19 C17 1_555 1_555
H20 C17 1_555 1_555
H21 C17 1_555 1_555
H22 N1 1_555 1_555
N1 C11 1_555 1_555
C8 C9 1_555 1_555
C10 C14 1_555 1_555
C12 C13 1_555 1_555

#END
