
#######################################################################
#
#                 Cambridge Crystallographic Data Centre
#                                CCDC 
#
#######################################################################
#
# If this CIF has been generated from an entry in the Cambridge 
# Structural Database, then it will include bibliographic, chemical, 
# crystal, experimental, refinement or atomic coordinate data resulting 
# from the CCDC's data processing and validation procedures.
#
#######################################################################

data_QUQWUV
_chemical_formula_moiety         'C18 H27 N1 O4'
_chemical_name_systematic        
6-(2-Hydroxypropan-2-yl)-3-methyl-2-(2-nitro-1-phenylethyl)cyclohexanol
_symmetry_cell_setting           orthorhombic
_symmetry_space_group_name_H-M   'P 21 21 21'
_symmetry_Int_Tables_number      19
_space_group_name_Hall           'P 2ac 2ab'
loop_
_symmetry_equiv_pos_site_id
_symmetry_equiv_pos_as_xyz
1 x,y,z
2 1/2-x,-y,1/2+z
3 -x,1/2+y,1/2-z
4 1/2+x,1/2-y,-z
_cell_length_a                   9.6849(7)
_cell_length_b                   18.6629(11)
_cell_length_c                   29.4837(19)
_cell_angle_alpha                90
_cell_angle_beta                 90
_cell_angle_gamma                90
_cell_volume                     5329.13
_exptl_crystal_colour            colorless
_exptl_crystal_description       prism
_chemical_melting_point          '155 deg.C'
_cell_formula_units_Z            12
loop_
_atom_site_label
_atom_site_type_symbol
_atom_site_fract_x
_atom_site_fract_y
_atom_site_fract_z
C1 C 0.1426(3) 0.51992(14) 0.61879(10)
H1 H 0.2217 0.5280 0.6394
H2 H 0.0704 0.4935 0.6357
C2 C 0.0857(3) 0.59163(14) 0.60259(10)
H3 H 0.0024 0.5816 0.5836
C3 C 0.1923(3) 0.62928(15) 0.57244(11)
C4 C 0.3248(3) 0.64305(18) 0.58813(13)
H4 H 0.3480 0.6323 0.6187
C5 C 0.4245(4) 0.67273(19) 0.55928(17)
H5 H 0.5150 0.6823 0.5701
C6 C 0.3897(6) 0.6878(2) 0.51500(18)
H6 H 0.4572 0.7068 0.4950
C7 C 0.2587(6) 0.6757(2) 0.49977(15)
H7 H 0.2345 0.6881 0.4696
C8 C 0.1619(4) 0.64564(17) 0.52781(11)
H8 H 0.0722 0.6359 0.5164
C9 C 0.0396(3) 0.63955(14) 0.64278(10)
H9 H 0.1258 0.6597 0.6564
C10 C -0.0472(3) 0.70431(15) 0.62679(11)
H10 H 0.0153 0.7358 0.6085
C11 C -0.1721(4) 0.68690(17) 0.59696(12)
H11 H -0.2191 0.7314 0.5885
H12 H -0.2360 0.6560 0.6138
H13 H -0.1411 0.6621 0.5695
C12 C -0.0939(4) 0.74810(15) 0.66832(11)
H14 H -0.0118 0.7692 0.6832
H15 H -0.1535 0.7880 0.6580
C13 C -0.1727(3) 0.70335(15) 0.70274(11)
H16 H -0.2563 0.6829 0.6884
H17 H -0.2022 0.7340 0.7284
C14 C -0.0808(3) 0.64309(14) 0.72014(10)
H18 H 0.0040 0.6669 0.7323
C15 C -0.0316(3) 0.59599(14) 0.68054(10)
H19 H 0.0384 0.5618 0.6929
C16 C -0.1406(3) 0.59882(15) 0.76006(10)
C17 C -0.1815(4) 0.64687(18) 0.79937(12)
H20 H -0.2180 0.6175 0.8242
H21 H -0.2525 0.6807 0.7893
H22 H -0.1004 0.6734 0.8100
C18 C -0.0369(3) 0.54280(18) 0.77659(12)
H23 H -0.0107 0.5116 0.7513
H24 H -0.0791 0.5139 0.8007
H25 H 0.0454 0.5669 0.7884
N1 N 0.1879(3) 0.47709(14) 0.57893(10)
O1 O 0.1017(3) 0.45613(14) 0.55190(9)
O2 O 0.3107(2) 0.46699(14) 0.57328(9)
O3 O -0.1411(2) 0.55395(10) 0.66102(7)
H26 H -0.2155 0.5630 0.6745
O4 O -0.2608(2) 0.56229(11) 0.74306(7)
H27 H -0.2945 0.5366 0.7637
C19 C 0.4020(3) 0.51076(14) 0.77119(10)
H28 H 0.3205 0.5055 0.7912
H29 H 0.4776 0.5322 0.7893
C20 C 0.4467(3) 0.43660(14) 0.75411(10)
H30 H 0.5276 0.4436 0.7335
C21 C 0.3312(3) 0.40197(15) 0.72631(10)
C22 C 0.3536(4) 0.37908(16) 0.68219(11)
H31 H 0.4420 0.3854 0.6689
C23 C 0.2487(4) 0.34705(17) 0.65712(13)
H32 H 0.2665 0.3303 0.6273
C24 C 0.1205(4) 0.33974(16) 0.67548(13)
H33 H 0.0484 0.3189 0.6581
C25 C 0.0948(4) 0.36240(17) 0.71904(13)
H34 H 0.0052 0.3572 0.7317
C26 C 0.2009(3) 0.39315(15) 0.74457(11)
H35 H 0.1833 0.4081 0.7748
C27 C 0.4936(3) 0.38668(14) 0.79352(10)
H36 H 0.4068 0.3681 0.8076
C28 C 0.5702(3) 0.31982(15) 0.77465(11)
H37 H 0.5017 0.2920 0.7564
C29 C 0.6927(4) 0.3360(2) 0.74328(12)
H38 H 0.7343 0.2910 0.7331
H39 H 0.7617 0.3642 0.7598
H40 H 0.6604 0.3633 0.7169
C30 C 0.6154(4) 0.27188(16) 0.81387(12)
H41 H 0.6681 0.2307 0.8018
H42 H 0.5326 0.2529 0.8295
C31 C 0.7050(4) 0.31251(16) 0.84811(11)
H43 H 0.7358 0.2794 0.8723
H44 H 0.7879 0.3318 0.8327
C32 C 0.6220(3) 0.37392(14) 0.86884(10)
H45 H 0.5362 0.3511 0.8810
C33 C 0.5721(3) 0.42500(14) 0.83171(10)
H46 H 0.5087 0.4609 0.8458
C34 C 0.6886(3) 0.41217(15) 0.91011(10)
C35 C 0.5810(3) 0.45294(19) 0.93630(11)
H47 H 0.5334 0.4863 0.9160
H48 H 0.6255 0.4798 0.9608
H49 H 0.5140 0.4193 0.9492
C36 C 0.7635(5) 0.36080(19) 0.94180(13)
H50 H 0.8333 0.3341 0.9247
H51 H 0.6969 0.3272 0.9550
H52 H 0.8084 0.3880 0.9661
N2 N 0.3667(3) 0.55996(14) 0.73232(11)
O5 O 0.2803(3) 0.60666(13) 0.73988(10)
O6 O 0.4237(3) 0.55209(12) 0.69595(9)
O7 O 0.6881(2) 0.46275(10) 0.81263(7)
H53 H 0.6602 0.4912 0.7925
O8 O 0.7905(2) 0.46193(12) 0.89307(7)
H54 H 0.8264 0.4841 0.9149
C37 C 0.1473(3) 0.49431(14) 0.93321(10)
H55 H 0.2191 0.4886 0.9568
H56 H 0.0602 0.4738 0.9451
C38 C 0.1265(3) 0.57399(14) 0.92331(10)
H57 H 0.0521 0.5788 0.9000
C39 C 0.2571(3) 0.60814(14) 0.90462(10)
C40 C 0.2583(4) 0.63896(16) 0.86158(11)
H58 H 0.1777 0.6369 0.8432
C41 C 0.3769(5) 0.67285(19) 0.84517(14)
H59 H 0.3753 0.6955 0.8163
C42 C 0.4960(4) 0.67344(19) 0.87074(16)
H60 H 0.5774 0.6953 0.8592
C43 C 0.4969(4) 0.64253(18) 0.91281(14)
H61 H 0.5788 0.6433 0.9305
C44 C 0.3786(3) 0.61005(16) 0.92982(12)
H62 H 0.3807 0.5888 0.9591
C45 C 0.0787(3) 0.61375(14) 0.96719(10)
H63 H 0.1586 0.6115 0.9886
C46 C 0.0529(3) 0.69466(14) 0.95819(10)
H64 H 0.1430 0.7158 0.9484
C47 C -0.0519(4) 0.71104(17) 0.92085(11)
H65 H -0.0234 0.6874 0.8927
H66 H -0.0566 0.7629 0.9160
H67 H -0.1430 0.6933 0.9299
C48 C 0.0142(3) 0.73041(14) 1.00260(11)
H68 H -0.0037 0.7819 0.9970
H69 H 0.0930 0.7268 1.0239
C49 C -0.1133(3) 0.69679(14) 1.02455(11)
H70 H -0.1935 0.7017 1.0040
H71 H -0.1350 0.7221 1.0532
C50 C -0.0870(3) 0.61730(14) 1.03434(10)
H72 H -0.0065 0.6157 1.0555
C51 C -0.0416(3) 0.57719(14) 0.99168(10)
H73 H -0.0092 0.5286 1.0013
C52 C -0.2081(3) 0.58049(16) 1.05973(11)
C53 C -0.2442(3) 0.61817(17) 1.10393(11)
H74 H -0.2618 0.6690 1.0979
H75 H -0.1670 0.6136 1.1252
H76 H -0.3269 0.5962 1.1171
C54 C -0.1798(4) 0.50236(17) 1.06930(12)
H77 H -0.1549 0.4780 1.0410
H78 H -0.2627 0.4801 1.0821
H79 H -0.1036 0.4983 1.0910
N3 N 0.1900(3) 0.45387(13) 0.89129(10)
O9 O 0.1450(3) 0.47191(12) 0.85465(8)
O10 O 0.2662(3) 0.40228(13) 0.89625(9)
O11 O -0.1537(2) 0.56689(10) 0.95980(7)
H80 H -0.2201 0.5467 0.9730
O12 O -0.3259(2) 0.58671(12) 1.02924(8)
H81 H -0.3947 0.5665 1.0409
loop_
_geom_bond_atom_site_label_1
_geom_bond_atom_site_label_2
_geom_bond_site_symmetry_1
_geom_bond_site_symmetry_2
C1 H1 1_555 1_555
H2 C1 1_555 1_555
C2 C1 1_555 1_555
H3 C2 1_555 1_555
C3 C2 1_555 1_555
C4 C3 1_555 1_555
H4 C4 1_555 1_555
C5 C4 1_555 1_555
H5 C5 1_555 1_555
C6 C5 1_555 1_555
H6 C6 1_555 1_555
C7 C6 1_555 1_555
H7 C7 1_555 1_555
C8 C3 1_555 1_555
H8 C8 1_555 1_555
C9 C2 1_555 1_555
H9 C9 1_555 1_555
C10 C9 1_555 1_555
H10 C10 1_555 1_555
C11 C10 1_555 1_555
H11 C11 1_555 1_555
H12 C11 1_555 1_555
H13 C11 1_555 1_555
C12 C10 1_555 1_555
H14 C12 1_555 1_555
H15 C12 1_555 1_555
C13 C12 1_555 1_555
H16 C13 1_555 1_555
H17 C13 1_555 1_555
C14 C13 1_555 1_555
H18 C14 1_555 1_555
C15 C9 1_555 1_555
H19 C15 1_555 1_555
C16 C14 1_555 1_555
C17 C16 1_555 1_555
H20 C17 1_555 1_555
H21 C17 1_555 1_555
H22 C17 1_555 1_555
C18 C16 1_555 1_555
H23 C18 1_555 1_555
H24 C18 1_555 1_555
H25 C18 1_555 1_555
N1 C1 1_555 1_555
O1 N1 1_555 1_555
O2 N1 1_555 1_555
O3 C15 1_555 1_555
H26 O3 1_555 1_555
O4 C16 1_555 1_555
H27 O4 1_555 1_555
C19 H28 1_555 1_555
H29 C19 1_555 1_555
C20 C19 1_555 1_555
H30 C20 1_555 1_555
C21 C20 1_555 1_555
C22 C21 1_555 1_555
H31 C22 1_555 1_555
C23 C22 1_555 1_555
H32 C23 1_555 1_555
C24 C23 1_555 1_555
H33 C24 1_555 1_555
C25 C24 1_555 1_555
H34 C25 1_555 1_555
C26 C21 1_555 1_555
H35 C26 1_555 1_555
C27 C20 1_555 1_555
H36 C27 1_555 1_555
C28 C27 1_555 1_555
H37 C28 1_555 1_555
C29 C28 1_555 1_555
H38 C29 1_555 1_555
H39 C29 1_555 1_555
H40 C29 1_555 1_555
C30 C28 1_555 1_555
H41 C30 1_555 1_555
H42 C30 1_555 1_555
C31 C30 1_555 1_555
H43 C31 1_555 1_555
H44 C31 1_555 1_555
C32 C31 1_555 1_555
H45 C32 1_555 1_555
C33 C27 1_555 1_555
H46 C33 1_555 1_555
C34 C32 1_555 1_555
C35 C34 1_555 1_555
H47 C35 1_555 1_555
H48 C35 1_555 1_555
H49 C35 1_555 1_555
C36 C34 1_555 1_555
H50 C36 1_555 1_555
H51 C36 1_555 1_555
H52 C36 1_555 1_555
N2 C19 1_555 1_555
O5 N2 1_555 1_555
O6 N2 1_555 1_555
O7 C33 1_555 1_555
H53 O7 1_555 1_555
O8 C34 1_555 1_555
H54 O8 1_555 1_555
C37 H55 1_555 1_555
H56 C37 1_555 1_555
C38 C37 1_555 1_555
H57 C38 1_555 1_555
C39 C38 1_555 1_555
C40 C39 1_555 1_555
H58 C40 1_555 1_555
C41 C40 1_555 1_555
H59 C41 1_555 1_555
C42 C41 1_555 1_555
H60 C42 1_555 1_555
C43 C42 1_555 1_555
H61 C43 1_555 1_555
C44 C39 1_555 1_555
H62 C44 1_555 1_555
C45 C38 1_555 1_555
H63 C45 1_555 1_555
C46 C45 1_555 1_555
H64 C46 1_555 1_555
C47 C46 1_555 1_555
H65 C47 1_555 1_555
H66 C47 1_555 1_555
H67 C47 1_555 1_555
C48 C46 1_555 1_555
H68 C48 1_555 1_555
H69 C48 1_555 1_555
C49 C48 1_555 1_555
H70 C49 1_555 1_555
H71 C49 1_555 1_555
C50 C49 1_555 1_555
H72 C50 1_555 1_555
C51 C45 1_555 1_555
H73 C51 1_555 1_555
C52 C50 1_555 1_555
C53 C52 1_555 1_555
H74 C53 1_555 1_555
H75 C53 1_555 1_555
H76 C53 1_555 1_555
C54 C52 1_555 1_555
H77 C54 1_555 1_555
H78 C54 1_555 1_555
H79 C54 1_555 1_555
N3 C37 1_555 1_555
O9 N3 1_555 1_555
O10 N3 1_555 1_555
O11 C51 1_555 1_555
H80 O11 1_555 1_555
O12 C52 1_555 1_555
H81 O12 1_555 1_555
C7 C8 1_555 1_555
C14 C15 1_555 1_555
C25 C26 1_555 1_555
C32 C33 1_555 1_555
C43 C44 1_555 1_555
C50 C51 1_555 1_555

#END
