
#######################################################################
#
#                 Cambridge Crystallographic Data Centre
#                                CCDC 
#
#######################################################################
#
# If this CIF has been generated from an entry in the Cambridge 
# Structural Database, then it will include bibliographic, chemical, 
# crystal, experimental, refinement or atomic coordinate data resulting 
# from the CCDC's data processing and validation procedures.
#
#######################################################################

data_QUQWOP
_chemical_formula_moiety         'C15 H25 N1 O2 S1'
_chemical_name_systematic        
1-((((4-Hydroxypyrrolidin-2-yl)methyl)sulfanyl)methyl)-7,7-dimethylbicyclo[2.2.1]heptan-2-one
_symmetry_cell_setting           orthorhombic
_symmetry_space_group_name_H-M   'P 21 21 21'
_symmetry_Int_Tables_number      19
_space_group_name_Hall           'P 2ac 2ab'
loop_
_symmetry_equiv_pos_site_id
_symmetry_equiv_pos_as_xyz
1 x,y,z
2 1/2-x,-y,1/2+z
3 1/2+x,1/2-y,-z
4 -x,1/2+y,1/2-z
_cell_length_a                   9.0657(2)
_cell_length_b                   10.6218(2)
_cell_length_c                   31.5723(7)
_cell_angle_alpha                90
_cell_angle_beta                 90
_cell_angle_gamma                90
_cell_volume                     3040.22
_exptl_crystal_colour            colorless
_exptl_crystal_description       prism
_cell_formula_units_Z            8
loop_
_atom_site_label
_atom_site_type_symbol
_atom_site_fract_x
_atom_site_fract_y
_atom_site_fract_z
S1 S 0.25966(12) 0.30631(9) 0.84244(3)
O1 O 0.0532(5) -0.0058(3) 0.92783(14)
O2 O 0.4724(3) -0.1316(2) 0.76798(9)
H1 H 0.4571 -0.1752 0.7462
N1 N 0.3877(4) 0.1546(3) 0.75884(9)
H2 H 0.3266 0.2153 0.7516
C1 C 0.1661(5) 0.1800(4) 0.87078(13)
H3 H 0.0939 0.1406 0.8514
H4 H 0.2399 0.1151 0.8782
C2 C 0.0863(5) 0.2185(4) 0.91063(11)
C3 C 0.0247(6) 0.1048(4) 0.93407(16)
C4 C -0.0877(6) 0.1543(4) 0.96561(15)
H5 H -0.0594 0.1339 0.9951
H6 H -0.1875 0.1206 0.9598
C5 C -0.0800(5) 0.2957(4) 0.95727(13)
H7 H -0.1684 0.3436 0.9672
C6 C 0.0631(7) 0.3425(6) 0.97486(16)
H8 H 0.0778 0.3129 1.0043
H9 H 0.0673 0.4356 0.9744
C7 C 0.1805(6) 0.2847(6) 0.94456(14)
H10 H 0.2431 0.3510 0.9318
H11 H 0.2442 0.2237 0.9597
C8 C -0.0548(4) 0.3004(4) 0.90856(12)
C9 C -0.1791(6) 0.2416(5) 0.88347(16)
H12 H -0.1959 0.1554 0.8934
H13 H -0.1527 0.2400 0.8534
H14 H -0.2692 0.2913 0.8873
C10 C -0.0283(5) 0.4345(4) 0.89282(16)
H15 H -0.1220 0.4805 0.8923
H16 H 0.0132 0.4318 0.8642
H17 H 0.0409 0.4773 0.9118
C11 C 0.4356(4) 0.2334(3) 0.83227(11)
H18 H 0.5027 0.2977 0.8203
H19 H 0.4780 0.2057 0.8596
C12 C 0.4328(4) 0.1214(3) 0.80250(11)
H20 H 0.3621 0.0576 0.8139
C13 C 0.5830(4) 0.0580(3) 0.79612(12)
H21 H 0.6617 0.1210 0.7913
H22 H 0.6097 0.0051 0.8208
C14 C 0.5565(5) -0.0219(3) 0.75675(13)
H23 H 0.6512 -0.0449 0.7424
C15 C 0.4638(5) 0.0676(3) 0.72960(13)
H24 H 0.5279 0.1152 0.7099
H25 H 0.3909 0.0195 0.7128
S2 S 0.22801(12) -0.30588(10) 0.85817(4)
O3 O 0.5153(4) 0.0166(3) 0.91586(10)
O4 O 0.0586(3) 0.0950(3) 0.74768(11)
H26 H 0.0673 0.1167 0.7731
N2 N 0.1307(3) -0.2007(3) 0.76542(9)
H27 H 0.1776 -0.2732 0.7642
C16 C 0.3403(4) -0.1747(4) 0.87542(13)
H28 H 0.3993 -0.1444 0.8511
H29 H 0.2744 -0.1051 0.8843
C17 C 0.4451(5) -0.2057(4) 0.91211(11)
C18 C 0.5374(5) -0.0920(4) 0.92505(13)
C19 C 0.6661(6) -0.1424(4) 0.95172(15)
H30 H 0.7623 -0.1259 0.9380
H31 H 0.6661 -0.1059 0.9806
C20 C 0.6300(5) -0.2834(4) 0.95249(13)
H32 H 0.7158 -0.3382 0.9600
C21 C 0.4966(5) -0.3009(5) 0.98102(14)
H33 H 0.5091 -0.2549 1.0081
H34 H 0.4795 -0.3911 0.9872
C22 C 0.3666(6) -0.2442(4) 0.95441(13)
H35 H 0.3228 -0.1702 0.9687
H36 H 0.2887 -0.3077 0.9493
C23 C 0.5670(4) -0.3072(4) 0.90726(12)
C24 C 0.6743(5) -0.2766(5) 0.87132(14)
H37 H 0.7104 -0.1901 0.8746
H38 H 0.6235 -0.2848 0.8441
H39 H 0.7578 -0.3351 0.8723
C25 C 0.5111(5) -0.4421(4) 0.90186(17)
H40 H 0.5953 -0.4995 0.8994
H41 H 0.4506 -0.4476 0.8762
H42 H 0.4517 -0.4657 0.9265
C26 C 0.0640(4) -0.2225(4) 0.84130(13)
H43 H -0.0124 -0.2853 0.8339
H44 H 0.0265 -0.1730 0.8656
C27 C 0.0833(4) -0.1354(4) 0.80437(12)
H45 H 0.1576 -0.0694 0.8118
C28 C -0.0584(5) -0.0717(4) 0.78931(14)
H46 H -0.0866 -0.0019 0.8084
H47 H -0.1408 -0.1328 0.7878
C29 C -0.0184(5) -0.0226(4) 0.74537(15)
H48 H -0.1079 -0.0156 0.7270
C30 C 0.0859(5) -0.1233(4) 0.72896(13)
H49 H 0.0358 -0.1760 0.7075
H50 H 0.1734 -0.0839 0.7157
loop_
_geom_bond_atom_site_label_1
_geom_bond_atom_site_label_2
_geom_bond_site_symmetry_1
_geom_bond_site_symmetry_2
S1 C1 1_555 1_555
O1 C3 1_555 1_555
O2 H1 1_555 1_555
N1 H2 1_555 1_555
C1 H3 1_555 1_555
H4 C1 1_555 1_555
C2 C1 1_555 1_555
C3 C2 1_555 1_555
C4 C3 1_555 1_555
H5 C4 1_555 1_555
H6 C4 1_555 1_555
C5 C4 1_555 1_555
H7 C5 1_555 1_555
C6 C5 1_555 1_555
H8 C6 1_555 1_555
H9 C6 1_555 1_555
C7 C2 1_555 1_555
H10 C7 1_555 1_555
H11 C7 1_555 1_555
C8 C2 1_555 1_555
C9 C8 1_555 1_555
H12 C9 1_555 1_555
H13 C9 1_555 1_555
H14 C9 1_555 1_555
C10 C8 1_555 1_555
H15 C10 1_555 1_555
H16 C10 1_555 1_555
H17 C10 1_555 1_555
C11 S1 1_555 1_555
H18 C11 1_555 1_555
H19 C11 1_555 1_555
C12 N1 1_555 1_555
H20 C12 1_555 1_555
C13 C12 1_555 1_555
H21 C13 1_555 1_555
H22 C13 1_555 1_555
C14 O2 1_555 1_555
H23 C14 1_555 1_555
C15 N1 1_555 1_555
H24 C15 1_555 1_555
H25 C15 1_555 1_555
S2 C16 1_555 1_555
O3 C18 1_555 1_555
O4 H26 1_555 1_555
N2 H27 1_555 1_555
C16 H28 1_555 1_555
H29 C16 1_555 1_555
C17 C16 1_555 1_555
C18 C17 1_555 1_555
C19 C18 1_555 1_555
H30 C19 1_555 1_555
H31 C19 1_555 1_555
C20 C19 1_555 1_555
H32 C20 1_555 1_555
C21 C20 1_555 1_555
H33 C21 1_555 1_555
H34 C21 1_555 1_555
C22 C17 1_555 1_555
H35 C22 1_555 1_555
H36 C22 1_555 1_555
C23 C17 1_555 1_555
C24 C23 1_555 1_555
H37 C24 1_555 1_555
H38 C24 1_555 1_555
H39 C24 1_555 1_555
C25 C23 1_555 1_555
H40 C25 1_555 1_555
H41 C25 1_555 1_555
H42 C25 1_555 1_555
C26 S2 1_555 1_555
H43 C26 1_555 1_555
H44 C26 1_555 1_555
C27 N2 1_555 1_555
H45 C27 1_555 1_555
C28 C27 1_555 1_555
H46 C28 1_555 1_555
H47 C28 1_555 1_555
C29 O4 1_555 1_555
H48 C29 1_555 1_555
C30 N2 1_555 1_555
H49 C30 1_555 1_555
H50 C30 1_555 1_555
C5 C8 1_555 1_555
C6 C7 1_555 1_555
C11 C12 1_555 1_555
C13 C14 1_555 1_555
C14 C15 1_555 1_555
C20 C23 1_555 1_555
C21 C22 1_555 1_555
C26 C27 1_555 1_555
C28 C29 1_555 1_555
C29 C30 1_555 1_555

#END
