
#######################################################################
#
#                 Cambridge Crystallographic Data Centre
#                                CCDC 
#
#######################################################################
#
# If this CIF has been generated from an entry in the Cambridge 
# Structural Database, then it will include bibliographic, chemical, 
# crystal, experimental, refinement or atomic coordinate data resulting 
# from the CCDC's data processing and validation procedures.
#
#######################################################################

data_QUQYAE
_chemical_formula_moiety         'C36 H37 N5 O1 S2'
_chemical_name_systematic        
3-(4,5-bis(cyclohexylimino)-3-phenyl-1,3-thiazolidin-2-ylidene)-2-oxo-N-phenylindoline-1-carbothioamide
_symmetry_cell_setting           triclinic
_symmetry_space_group_name_H-M   'P -1'
_symmetry_Int_Tables_number      2
_space_group_name_Hall           '-P 1'
loop_
_symmetry_equiv_pos_site_id
_symmetry_equiv_pos_as_xyz
1 x,y,z
2 -x,-y,-z
_cell_length_a                   14.366(3)
_cell_length_b                   15.319(3)
_cell_length_c                   17.837(4)
_cell_angle_alpha                107.4800(10)
_cell_angle_beta                 101.380(2)
_cell_angle_gamma                112.7080(10)
_cell_volume                     3227.61
_exptl_crystal_colour            yellow
_exptl_crystal_description       Plate
_cell_formula_units_Z            4
loop_
_atom_site_label
_atom_site_type_symbol
_atom_site_fract_x
_atom_site_fract_y
_atom_site_fract_z
S1 S 0.33942(5) 0.16995(5) 0.07128(4)
S2 S 0.26971(10) -0.02920(8) 0.34754(7)
O1 O 0.27120(15) 0.12676(15) 0.18896(12)
N1 N 0.52957(17) 0.18373(17) 0.09414(13)
N2 N 0.37091(19) 0.23283(18) -0.05328(15)
N3 N 0.56874(19) 0.20028(18) -0.02236(14)
N4 N 0.2433(2) 0.1337(2) 0.34225(16)
N5 N 0.3763(2) 0.11603(19) 0.29892(15)
C1 C 0.6171(2) 0.1617(2) 0.11570(16)
C2 C 0.5067(2) 0.1998(2) 0.01907(16)
C3 C 0.5942(2) 0.0649(2) 0.11389(16)
H1 H 0.5231 0.0140 0.0969
C4 C 0.4569(2) 0.1618(2) 0.20697(16)
C5 C 0.2695(2) 0.3181(2) -0.0923(2)
H2 H 0.3229 0.3846 -0.0466
H3 H 0.2914 0.3117 -0.1409
C6 C 0.4054(2) 0.2066(2) 0.00281(17)
C7 C 0.4536(2) 0.17154(19) 0.13204(16)
C8 C 0.3583(2) 0.1351(2) 0.22701(17)
C9 C 0.1783(2) 0.1257(2) -0.13518(19)
H4 H 0.1752 0.0714 -0.1168
H5 H 0.1957 0.1124 -0.1859
C10 C 0.5529(2) 0.2157(2) -0.10011(18)
H6 H 0.4755 0.1818 -0.1326
C11 C 0.2662(2) 0.2309(2) -0.06702(18)
H7 H 0.2512 0.2415 -0.0146
C12 C 0.7222(2) 0.2366(2) 0.13658(18)
H8 H 0.7363 0.3008 0.1357
C13 C 0.5366(2) 0.1657(2) 0.27551(16)
C14 C 0.6075(3) 0.1662(3) -0.15064(19)
H9 H 0.5786 0.0938 -0.1595
H10 H 0.5911 0.1683 -0.2053
C15 C 0.6790(2) 0.0443(2) 0.13785(18)
H11 H 0.6649 -0.0198 0.1390
C16 C 0.8058(2) 0.2149(2) 0.15870(19)
H12 H 0.8766 0.2647 0.1728
C17 C 0.4830(2) 0.1319(2) 0.32757(17)
C18 C 0.0685(2) 0.1225(3) -0.1545(2)
H13 H 0.0481 0.1296 -0.1051
H14 H 0.0145 0.0558 -0.1996
C19 C 0.6031(3) 0.3321(2) -0.0788(2)
H15 H 0.5874 0.3417 -0.1303
H16 H 0.5708 0.3629 -0.0436
C20 C 0.6428(3) 0.1541(3) 0.41859(19)
H17 H 0.6784 0.1474 0.4644
C21 C 0.5340(3) 0.1247(2) 0.39802(19)
H18 H 0.4962 0.1009 0.4306
C22 C 0.6993(3) 0.1933(3) 0.37169(19)
H19 H 0.7731 0.2154 0.3879
C23 C 0.6477(2) 0.2002(2) 0.30077(17)
H20 H 0.6869 0.2276 0.2703
C24 C 0.1430(3) 0.1137(3) 0.35478(18)
C25 C 0.7841(3) 0.1191(2) 0.15991(19)
H21 H 0.8406 0.1051 0.1757
C26 C 0.7250(3) 0.3879(3) -0.0334(2)
H22 H 0.7542 0.4605 -0.0241
H23 H 0.7409 0.3851 0.0210
C27 C 0.7292(3) 0.2217(3) -0.1064(2)
H24 H 0.7611 0.1915 -0.1425
H25 H 0.7460 0.2116 -0.0552
C28 C 0.2934(3) 0.0758(2) 0.33125(18)
C29 C 0.0713(3) 0.2099(3) -0.1803(2)
H26 H 0.0836 0.1984 -0.2331
H27 H 0.0022 0.2092 -0.1885
C30 C 0.7780(3) 0.3381(3) -0.0846(3)
H28 H 0.8547 0.3718 -0.0528
H29 H 0.7692 0.3484 -0.1361
C31 C 0.1605(3) 0.3155(3) -0.1132(2)
H30 H 0.1645 0.3689 -0.1329
H31 H 0.1429 0.3308 -0.0626
C32 C 0.0963(3) 0.1714(3) 0.3336(2)
H32 H 0.1313 0.2203 0.3143
C33 C 0.0927(3) 0.0426(3) 0.3856(2)
H33 H 0.1243 0.0051 0.4015
C34 C -0.0546(3) 0.0833(4) 0.3695(3)
H34 H -0.1217 0.0716 0.3732
C35 C -0.0021(3) 0.1560(3) 0.3411(2)
H35 H -0.0332 0.1948 0.3270
C36 C -0.0071(3) 0.0287(3) 0.3920(3)
H36 H -0.0420 -0.0191 0.4122
H37 H 0.268(3) 0.188(3) 0.330(2)
S3 S 0.48266(5) 0.35255(6) 0.47502(4)
S4 S 0.30048(6) 0.47622(6) 0.16798(5)
O2 O 0.34557(15) 0.34615(16) 0.34467(12)
N6 N 0.67715(18) 0.44331(18) 0.47537(14)
N7 N 0.40060(17) 0.39433(18) 0.24286(14)
N8 N 0.57624(19) 0.30960(18) 0.59808(14)
N9 N 0.21874(19) 0.28734(19) 0.17135(15)
N10 N 0.79021(19) 0.45503(19) 0.59497(14)
C37 C 0.5880(2) 0.3563(2) 0.55030(16)
C38 C 0.6944(2) 0.4197(2) 0.54729(17)
C39 C 0.7689(2) 0.5170(2) 0.46705(17)
C40 C 0.5123(2) 0.4451(2) 0.15642(17)
H38 H 0.4567 0.4404 0.1158
C41 C 0.6124(2) 0.4691(2) 0.14882(18)
H39 H 0.6251 0.4825 0.1033
C42 C 0.4676(2) 0.2470(2) 0.59583(17)
H40 H 0.4169 0.2110 0.5376
C43 C 0.5723(2) 0.4080(2) 0.42744(16)
C44 C 0.8168(2) 0.4340(2) 0.66930(17)
H41 H 0.7605 0.4271 0.6939
C45 C 0.1103(2) 0.2368(2) 0.11527(17)
C46 C 0.3012(2) 0.3814(2) 0.19272(16)
C47 C 0.8506(2) 0.4933(2) 0.45555(18)
H42 H 0.8467 0.4309 0.4544
C48 C 0.4974(2) 0.4283(2) 0.22585(17)
C49 C 0.5323(2) 0.4087(2) 0.35077(16)
C50 C 0.5790(2) 0.4347(2) 0.28906(16)
C51 C 0.9429(2) 0.6561(3) 0.4480(2)
H43 H 1.0011 0.7030 0.4409
C52 C 0.9246(2) 0.5258(2) 0.73285(18)
H44 H 0.9776 0.5385 0.7057
H45 H 0.9163 0.5877 0.7524
C53 C 0.8623(2) 0.6798(2) 0.46075(19)
H46 H 0.8666 0.7425 0.4623
C54 C 0.4174(2) 0.3788(2) 0.31654(16)
C55 C 0.7750(2) 0.6103(2) 0.47123(17)
H47 H 0.7212 0.6265 0.4810
C56 C 0.6774(2) 0.4550(2) 0.27763(17)
H48 H 0.7323 0.4562 0.3164
C57 C 0.9379(2) 0.5635(3) 0.44580(19)
H49 H 0.9929 0.5484 0.4378
C58 C 0.4321(2) 0.3173(2) 0.64951(19)
H50 H 0.4863 0.3586 0.7057
H51 H 0.4261 0.3646 0.6253
C59 C 0.6933(2) 0.4731(2) 0.20866(18)
H52 H 0.7598 0.4884 0.2024
C60 C 0.8239(3) 0.3330(2) 0.64231(19)
H53 H 0.7526 0.2753 0.6068
H54 H 0.8703 0.3360 0.6093
C61 C 0.9648(3) 0.5048(2) 0.80786(19)
H55 H 1.0346 0.5632 0.8460
H56 H 0.9149 0.4982 0.8380
C62 C 0.8680(3) 0.3134(3) 0.7169(2)
H57 H 0.8159 0.2991 0.7448
H58 H 0.8779 0.2525 0.6969
C63 C 0.0494(2) 0.1329(2) 0.09989(19)
H59 H 0.0787 0.1024 0.1285
C64 C 0.0651(2) 0.2820(2) 0.07370(19)
H60 H 0.1046 0.3516 0.0842
C65 C 0.3240(3) 0.2539(3) 0.6550(2)
H61 H 0.3052 0.3003 0.6914
H62 H 0.2684 0.2176 0.5995
C66 C 0.9749(3) 0.4060(3) 0.7797(2)
H63 H 0.9976 0.3928 0.8283
H64 H 1.0296 0.4149 0.7541
C67 C -0.1006(2) 0.1192(3) -0.0005(2)
H65 H -0.1708 0.0801 -0.0393
C68 C 0.3284(3) 0.1755(3) 0.6892(2)
H66 H 0.2578 0.1340 0.6895
H67 H 0.3791 0.2121 0.7467
C69 C 0.4703(3) 0.1671(3) 0.6288(2)
H68 H 0.5270 0.2024 0.6836
H69 H 0.4873 0.1199 0.5912
C70 C -0.0552(2) 0.0752(3) 0.0416(2)
H70 H -0.0953 0.0055 0.0307
C71 C -0.0403(3) 0.2218(3) 0.0159(2)
H71 H -0.0705 0.2519 -0.0124
C72 C 0.3629(3) 0.1045(3) 0.6361(2)
H72 H 0.3078 0.0620 0.5803
H73 H 0.3698 0.0583 0.6614
H74 H 0.238(3) 0.245(2) 0.188(2)
loop_
_geom_bond_atom_site_label_1
_geom_bond_atom_site_label_2
_geom_bond_site_symmetry_1
_geom_bond_site_symmetry_2
S1 C6 1_555 1_555
S2 C28 1_555 1_555
O1 C8 1_555 1_555
N1 C1 1_555 1_555
N2 C6 1_555 1_555
N3 C2 1_555 1_555
N4 C24 1_555 1_555
N5 C8 1_555 1_555
C1 C3 1_555 1_555
C2 N1 1_555 1_555
C3 H1 1_555 1_555
C4 C7 1_555 1_555
C5 H2 1_555 1_555
H3 C5 1_555 1_555
C6 C2 1_555 1_555
C7 S1 1_555 1_555
C8 C4 1_555 1_555
C9 H4 1_555 1_555
H5 C9 1_555 1_555
C10 N3 1_555 1_555
H6 C10 1_555 1_555
C11 N2 1_555 1_555
H7 C11 1_555 1_555
C12 C1 1_555 1_555
H8 C12 1_555 1_555
C13 C4 1_555 1_555
C14 C10 1_555 1_555
H9 C14 1_555 1_555
H10 C14 1_555 1_555
C15 C3 1_555 1_555
H11 C15 1_555 1_555
C16 C12 1_555 1_555
H12 C16 1_555 1_555
C17 N5 1_555 1_555
C18 C9 1_555 1_555
H13 C18 1_555 1_555
H14 C18 1_555 1_555
C19 C10 1_555 1_555
H15 C19 1_555 1_555
H16 C19 1_555 1_555
C20 H17 1_555 1_555
C21 C17 1_555 1_555
H18 C21 1_555 1_555
C22 C20 1_555 1_555
H19 C22 1_555 1_555
C23 C13 1_555 1_555
H20 C23 1_555 1_555
C24 C32 1_555 1_555
C25 C15 1_555 1_555
H21 C25 1_555 1_555
C26 C19 1_555 1_555
H22 C26 1_555 1_555
H23 C26 1_555 1_555
C27 C14 1_555 1_555
H24 C27 1_555 1_555
H25 C27 1_555 1_555
C28 N4 1_555 1_555
C29 C18 1_555 1_555
H26 C29 1_555 1_555
H27 C29 1_555 1_555
C30 C26 1_555 1_555
H28 C30 1_555 1_555
H29 C30 1_555 1_555
C31 C5 1_555 1_555
H30 C31 1_555 1_555
H31 C31 1_555 1_555
C32 H32 1_555 1_555
C33 C24 1_555 1_555
H33 C33 1_555 1_555
C34 H34 1_555 1_555
C35 C32 1_555 1_555
H35 C35 1_555 1_555
C36 C33 1_555 1_555
H36 C36 1_555 1_555
H37 N4 1_555 1_555
S3 C37 1_555 1_555
S4 C46 1_555 1_555
O2 C54 1_555 1_555
N6 C38 1_555 1_555
N7 C46 1_555 1_555
N8 C37 1_555 1_555
N9 C45 1_555 1_555
N10 C38 1_555 1_555
C37 C38 1_555 1_555
C39 N6 1_555 1_555
C40 H38 1_555 1_555
C41 C40 1_555 1_555
H39 C41 1_555 1_555
C42 N8 1_555 1_555
H40 C42 1_555 1_555
C43 S3 1_555 1_555
C44 N10 1_555 1_555
H41 C44 1_555 1_555
C45 C63 1_555 1_555
C46 N9 1_555 1_555
C47 C39 1_555 1_555
H42 C47 1_555 1_555
C48 N7 1_555 1_555
C49 C43 1_555 1_555
C50 C48 1_555 1_555
C51 H43 1_555 1_555
C52 C44 1_555 1_555
H44 C52 1_555 1_555
H45 C52 1_555 1_555
C53 C51 1_555 1_555
H46 C53 1_555 1_555
C54 N7 1_555 1_555
C55 C39 1_555 1_555
H47 C55 1_555 1_555
C56 C50 1_555 1_555
H48 C56 1_555 1_555
C57 C47 1_555 1_555
H49 C57 1_555 1_555
C58 C42 1_555 1_555
H50 C58 1_555 1_555
H51 C58 1_555 1_555
C59 C41 1_555 1_555
H52 C59 1_555 1_555
C60 C44 1_555 1_555
H53 C60 1_555 1_555
H54 C60 1_555 1_555
C61 C52 1_555 1_555
H55 C61 1_555 1_555
H56 C61 1_555 1_555
C62 C60 1_555 1_555
H57 C62 1_555 1_555
H58 C62 1_555 1_555
C63 H59 1_555 1_555
C64 C45 1_555 1_555
H60 C64 1_555 1_555
C65 C58 1_555 1_555
H61 C65 1_555 1_555
H62 C65 1_555 1_555
C66 C61 1_555 1_555
H63 C66 1_555 1_555
H64 C66 1_555 1_555
C67 H65 1_555 1_555
C68 C65 1_555 1_555
H66 C68 1_555 1_555
H67 C68 1_555 1_555
C69 C42 1_555 1_555
H68 C69 1_555 1_555
H69 C69 1_555 1_555
C70 C63 1_555 1_555
H70 C70 1_555 1_555
C71 C64 1_555 1_555
H71 C71 1_555 1_555
C72 C68 1_555 1_555
H72 C72 1_555 1_555
H73 C72 1_555 1_555
H74 N9 1_555 1_555
N1 C7 1_555 1_555
N5 C28 1_555 1_555
C5 C11 1_555 1_555
C9 C11 1_555 1_555
C13 C17 1_555 1_555
C16 C25 1_555 1_555
C20 C21 1_555 1_555
C22 C23 1_555 1_555
C27 C30 1_555 1_555
C29 C31 1_555 1_555
C34 C35 1_555 1_555
C34 C36 1_555 1_555
N6 C43 1_555 1_555
C40 C48 1_555 1_555
C49 C50 1_555 1_555
C49 C54 1_555 1_555
C51 C57 1_555 1_555
C53 C55 1_555 1_555
C56 C59 1_555 1_555
C62 C66 1_555 1_555
C67 C70 1_555 1_555
C67 C71 1_555 1_555
C69 C72 1_555 1_555

#END
