
#######################################################################
#
#                 Cambridge Crystallographic Data Centre
#                                CCDC 
#
#######################################################################
#
# If this CIF has been generated from an entry in the Cambridge 
# Structural Database, then it will include bibliographic, chemical, 
# crystal, experimental, refinement or atomic coordinate data resulting 
# from the CCDC's data processing and validation procedures.
#
#######################################################################

data_QURPEY
_chemical_formula_moiety         'C25 H15 N1 O3'
_chemical_name_systematic        
4-(\a-Benzoyl-\a-(2-phenylethynyl)methylene)isoquinoline-1,3-dione
_symmetry_cell_setting           triclinic
_symmetry_space_group_name_H-M   'P -1'
_symmetry_Int_Tables_number      2
_space_group_name_Hall           '-P 1'
loop_
_symmetry_equiv_pos_site_id
_symmetry_equiv_pos_as_xyz
1 x,y,z
2 -x,-y,-z
_cell_length_a                   7.5566(5)
_cell_length_b                   10.3679(7)
_cell_length_c                   12.7275(8)
_cell_angle_alpha                102.2730(10)
_cell_angle_beta                 100.5620(10)
_cell_angle_gamma                100.7030(10)
_cell_volume                     931.282
_exptl_crystal_colour            yellow
_exptl_crystal_description       block
_cell_formula_units_Z            2
_exptl_crystal_recrystallization_method 'petroleum ether/acetone'
loop_
_atom_site_label
_atom_site_type_symbol
_atom_site_fract_x
_atom_site_fract_y
_atom_site_fract_z
O1 O -0.4918(3) -0.5972(2) -0.13467(17)
O2 O -0.2570(4) -0.1525(2) 0.01873(17)
O3 O -0.4693(3) -0.1049(2) -0.36443(18)
N1 N -0.3748(4) -0.3734(3) -0.0629(2)
H1 H -0.398(4) -0.377(3) -0.005(3)
C1 C -0.2972(4) -0.3435(3) -0.2645(2)
C2 C -0.2354(4) -0.3373(3) -0.3609(2)
H2 H -0.1844 -0.2534 -0.3713
C3 C -0.2493(5) -0.4540(3) -0.4405(3)
H3 H -0.2109 -0.4474 -0.5049
C4 C -0.3184(5) -0.5796(3) -0.4270(3)
H4 H -0.3274 -0.6576 -0.4816
C5 C -0.3746(4) -0.5886(3) -0.3310(3)
H5 H -0.4205 -0.6734 -0.3206
C6 C -0.3632(4) -0.4724(3) -0.2500(2)
C7 C -0.4167(4) -0.4871(3) -0.1472(2)
C8 C -0.3000(4) -0.2426(3) -0.0653(2)
C9 C -0.2880(3) -0.2212(3) -0.1776(2)
C10 C -0.2815(4) -0.0947(3) -0.1910(2)
C11 C -0.2649(4) 0.0218(3) -0.1047(2)
C12 C -0.2451(4) 0.1249(3) -0.0370(3)
C13 C -0.2161(4) 0.2361(3) 0.0581(2)
C14 C -0.2562(4) 0.2101(3) 0.1548(3)
H6 H -0.3022 0.1213 0.1570
C15 C -0.2283(5) 0.3147(4) 0.2476(3)
H7 H -0.2566 0.2968 0.3120
C16 C -0.1584(5) 0.4462(4) 0.2447(3)
H8 H -0.1382 0.5169 0.3076
C17 C -0.1186(5) 0.4736(4) 0.1498(3)
H9 H -0.0714 0.5625 0.1484
C18 C -0.1483(4) 0.3694(3) 0.0563(3)
H10 H -0.1229 0.3884 -0.0083
C19 C -0.3155(4) -0.0618(3) -0.3040(2)
C20 C -0.1625(4) 0.0263(3) -0.3304(2)
C21 C 0.0167(4) 0.0594(3) -0.2653(2)
H11 H 0.029(4) 0.011(3) -0.205(3)
C22 C 0.1587(5) 0.1403(3) -0.2928(3)
H12 H 0.2780 0.1633 -0.2484
C23 C 0.1222(5) 0.1872(3) -0.3870(3)
H13 H 0.2179 0.2405 -0.4065
C24 C -0.0544(5) 0.1552(3) -0.4517(3)
H14 H -0.0774 0.1879 -0.5142
C25 C -0.1983(4) 0.0754(3) -0.4250(2)
H15 H -0.3176 0.0543 -0.4691
loop_
_geom_bond_atom_site_label_1
_geom_bond_atom_site_label_2
_geom_bond_site_symmetry_1
_geom_bond_site_symmetry_2
O1 C7 1_555 1_555
O2 C8 1_555 1_555
O3 C19 1_555 1_555
N1 H1 1_555 1_555
C1 C2 1_555 1_555
C2 H2 1_555 1_555
C3 C2 1_555 1_555
H3 C3 1_555 1_555
C4 C3 1_555 1_555
H4 C4 1_555 1_555
C5 C4 1_555 1_555
H5 C5 1_555 1_555
C6 C1 1_555 1_555
C7 N1 1_555 1_555
C8 N1 1_555 1_555
C9 C1 1_555 1_555
C10 C9 1_555 1_555
C11 C10 1_555 1_555
C12 C11 1_555 1_555
C13 C12 1_555 1_555
C14 C13 1_555 1_555
H6 C14 1_555 1_555
C15 C14 1_555 1_555
H7 C15 1_555 1_555
C16 C15 1_555 1_555
H8 C16 1_555 1_555
C17 C16 1_555 1_555
H9 C17 1_555 1_555
C18 C13 1_555 1_555
H10 C18 1_555 1_555
C19 C10 1_555 1_555
C20 C19 1_555 1_555
C21 C20 1_555 1_555
H11 C21 1_555 1_555
C22 C21 1_555 1_555
H12 C22 1_555 1_555
C23 C22 1_555 1_555
H13 C23 1_555 1_555
C24 C23 1_555 1_555
H14 C24 1_555 1_555
C25 C20 1_555 1_555
H15 C25 1_555 1_555
C5 C6 1_555 1_555
C6 C7 1_555 1_555
C8 C9 1_555 1_555
C17 C18 1_555 1_555
C24 C25 1_555 1_555

#END
