
#######################################################################
#
#                 Cambridge Crystallographic Data Centre
#                                CCDC 
#
#######################################################################
#
# If this CIF has been generated from an entry in the Cambridge 
# Structural Database, then it will include bibliographic, chemical, 
# crystal, experimental, refinement or atomic coordinate data resulting 
# from the CCDC's data processing and validation procedures.
#
#######################################################################

data_QURQEZ
_chemical_formula_moiety         'C18 H13 N1 O4'
_chemical_name_systematic        
1-Acetyl-3-(benzofuran-3-yl)-1,2-dihydro-3-hydroxy-2-oxo-3H-indole
_symmetry_cell_setting           triclinic
_symmetry_space_group_name_H-M   'P -1'
_symmetry_Int_Tables_number      2
_space_group_name_Hall           '-P 1'
loop_
_symmetry_equiv_pos_site_id
_symmetry_equiv_pos_as_xyz
1 x,y,z
2 -x,-y,-z
_cell_length_a                   7.5900(6)
_cell_length_b                   9.6858(8)
_cell_length_c                   10.4040(9)
_cell_angle_alpha                74.141(2)
_cell_angle_beta                 83.650(2)
_cell_angle_gamma                78.772(2)
_cell_volume                     720.322
_exptl_crystal_colour            colorless
_exptl_crystal_description       block
_chemical_melting_point          383K
_cell_formula_units_Z            2
_exptl_crystal_recrystallization_method 'petroleum ether/acetone'
loop_
_atom_site_label
_atom_site_type_symbol
_atom_site_fract_x
_atom_site_fract_y
_atom_site_fract_z
O1 O 1.0255(3) 0.3011(3) 1.0070(3)
O2 O 0.4559(3) 0.3894(3) 0.8736(3)
O3 O 0.6435(4) 0.1983(3) 0.7059(3)
O4 O 0.7760(4) 0.4837(3) 0.3466(3)
N1 N 0.7128(4) 0.4195(3) 0.5713(3)
C1 C 0.9184(5) 0.3920(4) 0.9110(4)
H1 H 0.9451 0.4803 0.8575
C2 C 0.9391(5) 0.1833(4) 1.0637(4)
C3 C 1.0016(5) 0.0626(4) 1.1637(4)
H2 H 1.1098 0.0536 1.2020
C4 C 0.8961(5) -0.0433(4) 1.2039(4)
H3 H 0.9339 -0.1269 1.2705
C5 C 0.7330(5) -0.0281(4) 1.1466(4)
H4 H 0.6637 -0.1013 1.1770
C6 C 0.6719(5) 0.0930(4) 1.0462(4)
H5 H 0.5636 0.1021 1.0082
C7 C 0.7794(5) 0.2016(3) 1.0034(3)
C8 C 0.7680(4) 0.3392(3) 0.9021(3)
C9 C 0.6267(5) 0.4061(3) 0.8034(3)
C10 C 0.6608(4) 0.3223(4) 0.6925(3)
C11 C 0.6940(4) 0.5627(3) 0.5910(3)
C12 C 0.7191(5) 0.6924(4) 0.4996(4)
H6 H 0.7554 0.6959 0.4106
C13 C 0.6877(5) 0.8172(4) 0.5461(4)
H7 H 0.7026 0.9057 0.4864
C14 C 0.6362(5) 0.8138(4) 0.6761(4)
H8 H 0.6147 0.8996 0.7035
C15 C 0.6154(5) 0.6839(4) 0.7678(4)
H9 H 0.5839 0.6809 0.8574
C16 C 0.6420(4) 0.5586(3) 0.7243(3)
C17 C 0.7630(5) 0.3847(4) 0.4477(4)
C18 C 0.7987(6) 0.2292(4) 0.4452(4)
H10 H 0.8736 0.1732 0.5165
H11 H 0.8588 0.2201 0.3609
H12 H 0.6869 0.1938 0.4564
H13 H 0.359(5) 0.447(3) 0.818(4)
loop_
_geom_bond_atom_site_label_1
_geom_bond_atom_site_label_2
_geom_bond_site_symmetry_1
_geom_bond_site_symmetry_2
O1 C1 1_555 1_555
O2 C9 1_555 1_555
O3 C10 1_555 1_555
O4 C17 1_555 1_555
N1 C10 1_555 1_555
C1 H1 1_555 1_555
C2 O1 1_555 1_555
C3 C2 1_555 1_555
H2 C3 1_555 1_555
C4 C3 1_555 1_555
H3 C4 1_555 1_555
C5 C4 1_555 1_555
H4 C5 1_555 1_555
C6 C5 1_555 1_555
H5 C6 1_555 1_555
C7 C2 1_555 1_555
C8 C1 1_555 1_555
C9 C8 1_555 1_555
C10 C9 1_555 1_555
C11 N1 1_555 1_555
C12 C11 1_555 1_555
H6 C12 1_555 1_555
C13 C12 1_555 1_555
H7 C13 1_555 1_555
C14 C13 1_555 1_555
H8 C14 1_555 1_555
C15 C14 1_555 1_555
H9 C15 1_555 1_555
C16 C9 1_555 1_555
C17 N1 1_555 1_555
C18 C17 1_555 1_555
H10 C18 1_555 1_555
H11 C18 1_555 1_555
H12 C18 1_555 1_555
H13 O2 1_555 1_555
C6 C7 1_555 1_555
C7 C8 1_555 1_555
C11 C16 1_555 1_555
C15 C16 1_555 1_555

#END
