
#######################################################################
#
#                 Cambridge Crystallographic Data Centre
#                                CCDC 
#
#######################################################################
#
# If this CIF has been generated from an entry in the Cambridge 
# Structural Database, then it will include bibliographic, chemical, 
# crystal, experimental, refinement or atomic coordinate data resulting 
# from the CCDC's data processing and validation procedures.
#
#######################################################################

data_QURQOK02
_chemical_formula_moiety         'C2 H6 N1 O2 1+,C2 H5 N1 O2,Cl1 O4 1-'
_chemical_name_systematic        'Glycinium glycine perchlorate'
_symmetry_cell_setting           triclinic
_symmetry_space_group_name_H-M   'P -1'
_symmetry_Int_Tables_number      2
_space_group_name_Hall           '-P 1'
loop_
_symmetry_equiv_pos_site_id
_symmetry_equiv_pos_as_xyz
1 x,y,z
2 -x,-y,-z
_cell_length_a                   8.7127(5)
_cell_length_b                   14.870(4)
_cell_length_c                   19.4336(19)
_cell_angle_alpha                98.756(13)
_cell_angle_beta                 93.032(6)
_cell_angle_gamma                106.059(13)
_cell_volume                     2379.33
_exptl_crystal_colour            colorless
_exptl_crystal_description       block
_cell_formula_units_Z            10
loop_
_atom_site_label
_atom_site_type_symbol
_atom_site_fract_x
_atom_site_fract_y
_atom_site_fract_z
Cl1 Cl 0.13259(6) -0.10905(3) 0.53121(3)
O1 O -0.01340(17) -0.17309(12) 0.49619(9)
O2 O 0.22775(19) -0.06591(12) 0.48072(10)
O3 O 0.2149(2) -0.16118(14) 0.56710(10)
O4 O 0.0992(2) -0.03488(12) 0.57943(9)
Cl2 Cl -0.30527(6) -0.08927(4) 0.66138(3)
O5 O -0.40066(19) -0.04918(14) 0.62047(9)
O6 O -0.2605(2) -0.16375(12) 0.61792(9)
O7 O -0.16401(17) -0.01649(11) 0.69384(9)
O8 O -0.39459(17) -0.12921(10) 0.71526(8)
Cl3 Cl -0.06360(6) -0.30526(3) 0.73805(3)
O9 O -0.19771(18) -0.36803(11) 0.69355(9)
O10 O 0.0479(2) -0.25516(12) 0.69622(11)
O11 O 0.0093(2) -0.36211(13) 0.77498(10)
O12 O -0.1134(2) -0.23853(14) 0.78529(10)
Cl4 Cl 0.25889(6) -0.02168(4) 0.93642(3)
O13 O 0.14011(16) -0.08799(10) 0.88495(8)
O14 O 0.38614(16) 0.02940(11) 0.90129(9)
O15 O 0.3186(2) -0.07420(12) 0.98264(9)
O16 O 0.1900(2) 0.04394(13) 0.97530(9)
Cl5 Cl -0.53453(6) -0.27539(4) 0.86465(3)
O17 O -0.6073(2) -0.23086(14) 0.81763(10)
O18 O -0.4811(2) -0.35029(13) 0.82732(9)
O19 O -0.40220(19) -0.20552(12) 0.90531(11)
O20 O -0.64671(19) -0.31626(12) 0.90984(9)
O21 O 0.08907(17) -0.35551(11) 0.18641(8)
O22 O -0.09105(16) -0.30711(10) 0.12749(9)
N1 N -0.3154(2) -0.47436(15) 0.10746(12)
C1 C -0.1492(2) -0.47099(15) 0.13184(13)
H1 H -0.1058 -0.5056 0.0952
H2 H -0.1516 -0.5021 0.1723
C2 C -0.0405(2) -0.36996(15) 0.15111(11)
H3 H -0.373(3) -0.5317(19) 0.0974(13)
H4 H -0.359(2) -0.4418(17) 0.1462(13)
H5 H -0.314(3) -0.4423(18) 0.0704(13)
O23 O -0.23975(16) -0.27766(11) 0.36817(8)
O24 O -0.07437(16) -0.35182(11) 0.31799(9)
N2 N 0.1451(2) -0.19354(14) 0.30286(12)
C3 C -0.0139(2) -0.18604(14) 0.32116(12)
H6 H -0.0671 -0.1688 0.2823
H7 H 0.0007 -0.1357 0.3612
C4 C -0.1201(2) -0.27762(15) 0.33830(11)
H8 H 0.137(3) -0.241(2) 0.2640(14)
H9 H 0.194(3) -0.2074(19) 0.3411(14)
H10 H -0.156(2) -0.4182(16) 0.3260(11)
H11 H 0.209(3) -0.1384(19) 0.2916(13)
O25 O -0.26755(17) -0.50645(11) 0.32179(9)
O26 O -0.08092(16) -0.53859(10) 0.38903(8)
N3 N -0.4921(2) -0.66407(15) 0.32533(12)
C5 C -0.3279(2) -0.65914(14) 0.35186(12)
H12 H -0.2897 -0.7046 0.3214
H13 H -0.3286 -0.6758 0.3982
C6 C -0.2152(2) -0.55994(15) 0.35516(11)
H14 H -0.535(3) -0.6297(17) 0.3573(13)
H15 H -0.488(3) -0.638(2) 0.2850(15)
H16 H -0.552(3) -0.7234(19) 0.3156(13)
O27 O -0.73961(16) -0.46008(11) 1.47870(9)
O28 O -0.57634(17) -0.53471(11) 1.42605(8)
N4 N -0.9576(2) -0.61965(15) 1.49405(13)
C7 C -0.7972(2) -0.62562(15) 1.47638(12)
H17 H -0.7426 -0.6404 1.5161
H18 H -0.8102 -0.6772 1.4374
C8 C -0.6941(2) -0.53489(15) 1.45731(11)
H19 H -0.948(3) -0.572(2) 1.5333(15)
H20 H -1.016(3) -0.6719(19) 1.4999(12)
H21 H -1.005(3) -0.6010(19) 1.4560(14)
H22 H -0.650(3) -0.3896(19) 1.4732(13)
O29 O -0.64075(16) 0.11619(11) 0.72360(9)
O30 O -0.43296(16) 0.07460(10) 0.76640(8)
N5 N -0.8548(2) -0.04840(14) 0.72822(12)
C9 C -0.6833(2) -0.04507(14) 0.73499(11)
H23 H -0.6605 -0.0829 0.6937
H24 H -0.6614 -0.0726 0.7752
C10 C -0.5746(2) 0.05564(14) 0.74342(11)
H25 H -0.553(3) 0.1859(17) 0.7271(12)
H26 H -0.886(3) -0.0111(17) 0.7663(13)
H27 H -0.882(3) -0.0292(18) 0.6877(14)
H28 H -0.907(3) -0.1037(19) 0.7279(13)
O31 O -0.54450(17) -0.30478(11) 1.47521(9)
O32 O -0.73328(16) -0.27366(10) 1.40875(8)
N6 N -0.3206(2) -0.14565(15) 1.46803(12)
C11 C -0.4877(2) -0.15160(15) 1.44574(12)
H29 H -0.4931 -0.1335 1.4000
H30 H -0.5236 -0.1073 1.4784
C12 C -0.5983(2) -0.25139(14) 1.44245(11)
H31 H -0.321(3) -0.1711(19) 1.5068(14)
H32 H -0.283(3) -0.1855(19) 1.4346(14)
H33 H -0.262(3) -0.087(2) 1.4744(15)
O33 O -0.10457(17) 0.15186(10) 0.87390(9)
O34 O 0.08258(16) 0.09044(10) 0.83002(8)
N7 N -0.3212(2) -0.01522(15) 0.86848(12)
C13 C -0.1534(2) -0.01455(14) 0.86098(11)
H34 H -0.1505 -0.0606 0.8203
H35 H -0.1110 -0.0336 0.9018
C14 C -0.0484(2) 0.08229(14) 0.85310(11)
H36 H -0.361(2) 0.0052(15) 0.8315(12)
H37 H -0.325(3) 0.0219(18) 0.9067(14)
H38 H -0.023(3) 0.2165(19) 0.8703(13)
H39 H -0.376(3) -0.069(2) 0.8727(14)
O35 O -0.67116(16) -0.62701(11) 1.00879(8)
O36 O -0.82626(17) -0.56382(11) 1.07666(9)
N8 N -1.0527(2) -0.72408(15) 1.07177(13)
C15 C -0.8998(2) -0.73092(15) 1.04582(12)
H40 H -0.8476 -0.7618 1.0765
H41 H -0.9206 -0.7694 0.9994
C16 C -0.7895(2) -0.63272(15) 1.04297(11)
H42 H -1.108(3) -0.7036(17) 1.0392(13)
H43 H -1.029(3) -0.681(2) 1.1116(17)
H44 H -1.106(3) -0.776(2) 1.0828(15)
O37 O -0.63092(17) -0.40657(11) 1.08166(9)
O38 O -0.81910(17) -0.35435(11) 1.03248(8)
N9 N -0.4025(2) -0.24241(14) 1.09700(12)
C17 C -0.5700(2) -0.24258(15) 1.07937(12)
H45 H -0.5736 -0.2103 1.0398
H46 H -0.6043 -0.2071 1.1187
C18 C -0.6856(2) -0.34118(15) 1.06174(11)
H47 H -0.337(3) -0.1814(19) 1.1047(12)
H48 H -0.399(3) -0.271(2) 1.1365(16)
H49 H -0.371(3) -0.2759(19) 1.0597(14)
H50 H -0.722(3) -0.4778(18) 1.0769(12)
O39 O -0.55577(16) -0.27255(10) 1.27313(9)
O40 O -0.40397(17) -0.34828(11) 1.21296(8)
N10 N -0.7719(2) -0.43085(15) 1.29205(13)
C19 C -0.6176(2) -0.43862(15) 1.26698(13)
H51 H -0.6392 -0.4881 1.2260
H52 H -0.5573 -0.4571 1.3030
C20 C -0.5169(2) -0.34622(15) 1.24870(11)
H53 H -0.827(3) -0.4165(17) 1.2597(13)
H54 H -0.747(3) -0.381(2) 1.3277(14)
H55 H -0.827(3) -0.4849(18) 1.3041(12)
loop_
_geom_bond_atom_site_label_1
_geom_bond_atom_site_label_2
_geom_bond_site_symmetry_1
_geom_bond_site_symmetry_2
Cl1 O1 1_555 1_555
O2 Cl1 1_555 1_555
O3 Cl1 1_555 1_555
O4 Cl1 1_555 1_555
Cl2 O5 1_555 1_555
O6 Cl2 1_555 1_555
O7 Cl2 1_555 1_555
O8 Cl2 1_555 1_555
Cl3 O9 1_555 1_555
O10 Cl3 1_555 1_555
O11 Cl3 1_555 1_555
O12 Cl3 1_555 1_555
Cl4 O13 1_555 1_555
O14 Cl4 1_555 1_555
O15 Cl4 1_555 1_555
O16 Cl4 1_555 1_555
Cl5 O17 1_555 1_555
O18 Cl5 1_555 1_555
O19 Cl5 1_555 1_555
O20 Cl5 1_555 1_555
O21 C2 1_555 1_555
O22 C2 1_555 1_555
N1 C1 1_555 1_555
C1 H1 1_555 1_555
H2 C1 1_555 1_555
C2 C1 1_555 1_555
H3 N1 1_555 1_555
H4 N1 1_555 1_555
H5 N1 1_555 1_555
O23 C4 1_555 1_555
O24 C4 1_555 1_555
N2 C3 1_555 1_555
C3 H6 1_555 1_555
H7 C3 1_555 1_555
C4 C3 1_555 1_555
H8 N2 1_555 1_555
H9 N2 1_555 1_555
H10 O24 1_555 1_555
H11 N2 1_555 1_555
O25 C6 1_555 1_555
O26 C6 1_555 1_555
N3 C5 1_555 1_555
C5 H12 1_555 1_555
H13 C5 1_555 1_555
C6 C5 1_555 1_555
H14 N3 1_555 1_555
H15 N3 1_555 1_555
H16 N3 1_555 1_555
O27 C8 1_555 1_555
O28 C8 1_555 1_555
N4 C7 1_555 1_555
C7 H17 1_555 1_555
H18 C7 1_555 1_555
C8 C7 1_555 1_555
H19 N4 1_555 1_555
H20 N4 1_555 1_555
H21 N4 1_555 1_555
H22 O27 1_555 1_555
O29 C10 1_555 1_555
O30 C10 1_555 1_555
N5 C9 1_555 1_555
C9 H23 1_555 1_555
H24 C9 1_555 1_555
C10 C9 1_555 1_555
H25 O29 1_555 1_555
H26 N5 1_555 1_555
H27 N5 1_555 1_555
H28 N5 1_555 1_555
O31 C12 1_555 1_555
O32 C12 1_555 1_555
N6 C11 1_555 1_555
C11 H29 1_555 1_555
H30 C11 1_555 1_555
C12 C11 1_555 1_555
H31 N6 1_555 1_555
H32 N6 1_555 1_555
H33 N6 1_555 1_555
O33 C14 1_555 1_555
O34 C14 1_555 1_555
N7 C13 1_555 1_555
C13 H34 1_555 1_555
H35 C13 1_555 1_555
C14 C13 1_555 1_555
H36 N7 1_555 1_555
H37 N7 1_555 1_555
H38 O33 1_555 1_555
H39 N7 1_555 1_555
O35 C16 1_555 1_555
O36 C16 1_555 1_555
N8 C15 1_555 1_555
C15 H40 1_555 1_555
H41 C15 1_555 1_555
C16 C15 1_555 1_555
H42 N8 1_555 1_555
H43 N8 1_555 1_555
H44 N8 1_555 1_555
O37 C18 1_555 1_555
O38 C18 1_555 1_555
N9 C17 1_555 1_555
C17 H45 1_555 1_555
H46 C17 1_555 1_555
C18 C17 1_555 1_555
H47 N9 1_555 1_555
H48 N9 1_555 1_555
H49 N9 1_555 1_555
H50 O37 1_555 1_555
O39 C20 1_555 1_555
O40 C20 1_555 1_555
N10 C19 1_555 1_555
C19 H51 1_555 1_555
H52 C19 1_555 1_555
C20 C19 1_555 1_555
H53 N10 1_555 1_555
H54 N10 1_555 1_555
H55 N10 1_555 1_555

#END
