
#######################################################################
#
#                 Cambridge Crystallographic Data Centre
#                                CCDC 
#
#######################################################################
#
# If this CIF has been generated from an entry in the Cambridge 
# Structural Database, then it will include bibliographic, chemical, 
# crystal, experimental, refinement or atomic coordinate data resulting 
# from the CCDC's data processing and validation procedures.
#
#######################################################################

data_QURTOM
_chemical_compound_source        'fresh fruit of Melicope ellyrana'
_chemical_name_common            
1-(5,7-Dimethoxy-2,2-dimethyl-2H-1-benzopyran-8-yl)ethanone
_chemical_formula_moiety         'C15 H18 O4'
_chemical_name_systematic        'Alloevodionol methyl ether'
_symmetry_cell_setting           monoclinic
_symmetry_space_group_name_H-M   'P 21/c'
_symmetry_Int_Tables_number      14
_space_group_name_Hall           '-P 2ybc'
loop_
_symmetry_equiv_pos_site_id
_symmetry_equiv_pos_as_xyz
1 x,y,z
2 -x,1/2+y,1/2-z
3 -x,-y,-z
4 x,1/2-y,1/2+z
_cell_length_a                   7.2233(19)
_cell_length_b                   10.354(3)
_cell_length_c                   18.825(2)
_cell_angle_alpha                90
_cell_angle_beta                 91.334(19)
_cell_angle_gamma                90
_cell_volume                     1407.54
_exptl_crystal_colour            colorless
_exptl_crystal_description       plate
_chemical_melting_point          380K
_cell_formula_units_Z            4
_exptl_crystal_recrystallization_method hexane
loop_
_atom_site_label
_atom_site_type_symbol
_atom_site_fract_x
_atom_site_fract_y
_atom_site_fract_z
O1 O 0.1504(4) 0.3078(3) 0.39021(14)
O2 O 0.7121(4) 0.0752(3) 0.37529(16)
O3 O 0.5009(4) 0.2447(3) 0.59881(15)
O4 O 0.0737(5) 0.3082(4) 0.5677(2)
C1 C 0.1561(6) 0.3408(5) 0.3142(2)
C2 C 0.2608(7) 0.2384(6) 0.2749(2)
C3 C 0.4368(6) 0.1890(4) 0.3815(2)
C4 C 0.3927(7) 0.1706(5) 0.3064(2)
C5 C 0.5929(6) 0.1393(4) 0.4174(2)
C6 C 0.6197(5) 0.1544(4) 0.4893(2)
C7 C 0.4873(6) 0.2219(4) 0.5274(2)
C8 C 0.3105(5) 0.2589(4) 0.4215(2)
C9 C 0.3310(5) 0.2750(4) 0.4941(2)
C10 C -0.0468(7) 0.3462(6) 0.2913(3)
C11 C 0.2447(8) 0.4714(6) 0.3081(3)
C12 C 0.8796(7) 0.0234(6) 0.4082(3)
C13 C 0.6490(6) 0.1866(5) 0.6387(2)
C14 C 0.1994(6) 0.3563(5) 0.5358(2)
C15 C 0.2338(7) 0.4995(6) 0.5330(3)
H1 H 0.2302 0.2219 0.2263
H2 H 0.4604 0.1095 0.2798
H3 H 0.7262 0.1195 0.5128
H4 H 0.9797 0.0345 0.3777
H5 H 0.8623 -0.0666 0.4175
H6 H 0.9036 0.0667 0.4520
H7 H 0.6254 0.1940 0.6881
H8 H 0.6579 0.0979 0.6264
H9 H 0.7617 0.2290 0.6286
H10 H 0.2434 0.5319 0.5803
H11 H 0.3451 0.5154 0.5092
H12 H 0.1332 0.5399 0.5087
H13 H -0.0779 0.2713 0.2644
H14 H -0.0687 0.4209 0.2631
H15 H -0.1214 0.3496 0.3323
H16 H 0.2703 0.5050 0.3544
H17 H 0.1636 0.5282 0.2830
H18 H 0.3576 0.4639 0.2833
loop_
_geom_bond_atom_site_label_1
_geom_bond_atom_site_label_2
_geom_bond_site_symmetry_1
_geom_bond_site_symmetry_2
O1 C1 1_555 1_555
O2 C5 1_555 1_555
O3 C7 1_555 1_555
O4 C14 1_555 1_555
C1 C2 1_555 1_555
C2 C4 1_555 1_555
C3 C4 1_555 1_555
C4 H2 1_555 1_555
C5 C3 1_555 1_555
C6 C5 1_555 1_555
C7 C6 1_555 1_555
C8 O1 1_555 1_555
C9 C7 1_555 1_555
C10 C1 1_555 1_555
C11 C1 1_555 1_555
C12 O2 1_555 1_555
C13 O3 1_555 1_555
C14 C9 1_555 1_555
C15 C14 1_555 1_555
H1 C2 1_555 1_555
H3 C6 1_555 1_555
H4 C12 1_555 1_555
H5 C12 1_555 1_555
H6 C12 1_555 1_555
H7 C13 1_555 1_555
H8 C13 1_555 1_555
H9 C13 1_555 1_555
H10 C15 1_555 1_555
H11 C15 1_555 1_555
H12 C15 1_555 1_555
H13 C10 1_555 1_555
H14 C10 1_555 1_555
H15 C10 1_555 1_555
H16 C11 1_555 1_555
H17 C11 1_555 1_555
H18 C11 1_555 1_555
C3 C8 1_555 1_555
C8 C9 1_555 1_555

#END
