
#######################################################################
#
#                 Cambridge Crystallographic Data Centre
#                                CCDC 
#
#######################################################################
#
# If this CIF has been generated from an entry in the Cambridge 
# Structural Database, then it will include bibliographic, chemical, 
# crystal, experimental, refinement or atomic coordinate data resulting 
# from the CCDC's data processing and validation procedures.
#
#######################################################################

data_QURVUW
_chemical_formula_moiety         'C4 N18'
_chemical_name_systematic        3,3',5,5'-tetraazido-4,4'-bi-1,2,4-triazole
_symmetry_cell_setting           monoclinic
_symmetry_space_group_name_H-M   'P 21/c'
_symmetry_Int_Tables_number      14
_space_group_name_Hall           '-P 2ybc'
loop_
_symmetry_equiv_pos_site_id
_symmetry_equiv_pos_as_xyz
1 x,y,z
2 -x,1/2+y,1/2-z
3 -x,-y,-z
4 x,1/2-y,1/2+z
_cell_length_a                   11.948(3)
_cell_length_b                   8.7210(17)
_cell_length_c                   12.495(3)
_cell_angle_alpha                90
_cell_angle_beta                 116.249(2)
_cell_angle_gamma                90
_cell_volume                     1167.7
_exptl_crystal_colour            colorless
_exptl_crystal_description       Prism
_cell_formula_units_Z            4
loop_
_atom_site_label
_atom_site_type_symbol
_atom_site_fract_x
_atom_site_fract_y
_atom_site_fract_z
N1 N 0.81558(12) 0.69482(16) 0.26640(12)
N2 N 0.87857(13) 0.72083(17) 0.39162(12)
N3 N 0.72725(12) 0.55562(15) 0.35377(12)
N4 N 0.65856(12) 0.44346(15) 0.37446(12)
N5 N 0.62130(12) 0.23597(16) 0.45333(13)
N6 N 0.51406(12) 0.33115(16) 0.40986(13)
N7 N 0.64364(12) 0.52625(15) 0.14250(11)
N8 N 0.64175(12) 0.58690(15) 0.05167(12)
N9 N 0.63180(13) 0.62732(17) -0.03712(13)
N10 N 0.84746(14) 0.61603(18) 0.55857(12)
N11 N 0.94647(14) 0.66260(18) 0.63176(13)
N12 N 1.03553(15) 0.7014(2) 0.71086(14)
N13 N 0.82840(13) 0.26380(16) 0.45967(14)
N14 N 0.86093(12) 0.14261(18) 0.50957(13)
N15 N 0.90525(15) 0.03385(19) 0.55834(17)
N16 N 0.46826(13) 0.58111(16) 0.31321(13)
N17 N 0.36004(14) 0.57013(17) 0.30441(14)
N18 N 0.26083(16) 0.5760(2) 0.29055(18)
C1 C 0.72840(14) 0.59556(18) 0.24800(14)
C2 C 0.82416(14) 0.63633(19) 0.43920(14)
C3 C 0.70430(15) 0.30590(18) 0.43122(14)
C4 C 0.54021(15) 0.45276(18) 0.36613(14)
loop_
_geom_bond_atom_site_label_1
_geom_bond_atom_site_label_2
_geom_bond_site_symmetry_1
_geom_bond_site_symmetry_2
N1 N2 1_555 1_555
N2 C2 1_555 1_555
N3 N4 1_555 1_555
N4 C3 1_555 1_555
N5 N6 1_555 1_555
N6 C4 1_555 1_555
N7 N8 1_555 1_555
N8 N9 1_555 1_555
N10 N11 1_555 1_555
N11 N12 1_555 1_555
N13 N14 1_555 1_555
N14 N15 1_555 1_555
N16 N17 1_555 1_555
N17 N18 1_555 1_555
C1 N1 1_555 1_555
C2 N3 1_555 1_555
C3 N5 1_555 1_555
C4 N4 1_555 1_555
N3 C1 1_555 1_555
N7 C1 1_555 1_555
N10 C2 1_555 1_555
N13 C3 1_555 1_555
N16 C4 1_555 1_555

#END
