
#######################################################################
#
#                 Cambridge Crystallographic Data Centre
#                                CCDC 
#
#######################################################################
#
# If this CIF has been generated from an entry in the Cambridge 
# Structural Database, then it will include bibliographic, chemical, 
# crystal, experimental, refinement or atomic coordinate data resulting 
# from the CCDC's data processing and validation procedures.
#
#######################################################################

data_QURWEF
_chemical_formula_moiety         'C3 H8 N1 O2 1+,Cl1 O4 1-'
_chemical_name_systematic        '\b-Alaninium perchlorate'
_symmetry_cell_setting           monoclinic
_symmetry_space_group_name_H-M   'P 21/n'
_symmetry_Int_Tables_number      14
_space_group_name_Hall           '-P 2yn'
loop_
_symmetry_equiv_pos_site_id
_symmetry_equiv_pos_as_xyz
1 x,y,z
2 1/2+x,1/2-y,1/2+z
3 -x,-y,-z
4 1/2-x,1/2+y,1/2-z
_cell_length_a                   7.024(3)
_cell_length_b                   7.556(4)
_cell_length_c                   14.102(4)
_cell_angle_alpha                90
_cell_angle_beta                 97.52(4)
_cell_angle_gamma                90
_cell_volume                     742.003
_exptl_crystal_colour            colorless
_exptl_crystal_description       needle
_cell_formula_units_Z            4
loop_
_atom_site_label
_atom_site_type_symbol
_atom_site_fract_x
_atom_site_fract_y
_atom_site_fract_z
Cl1 Cl 0.13952(11) 0.24718(8) 0.63655(6)
O1 O 0.066(4) 0.366(2) 0.5722(12)
O2 O 0.0861(17) 0.2379(18) 0.7242(9)
O3 O 0.3261(15) 0.273(2) 0.6322(7)
O4 O 0.1127(18) 0.0873(11) 0.5831(7)
O9 O 0.6625(3) 0.9350(3) 0.58291(18)
O10 O 0.4108(4) 0.7704(3) 0.5274(2)
H1 H 0.3714 0.8640 0.5028
C1 C 0.5775(4) 0.7949(4) 0.5755(2)
C2 C 0.6627(4) 0.6308(5) 0.6248(2)
H2 H 0.5684 0.5772 0.6603
H3 H 0.6914 0.5465 0.5768
C3 C 0.8431(5) 0.6667(4) 0.6921(2)
H4 H 0.8164 0.7550 0.7386
H5 H 0.8829 0.5591 0.7266
N1 N 1.0036(4) 0.7311(3) 0.6404(2)
H6 H 1.1073 0.7512 0.6824
H7 H 0.9682 0.8308 0.6094
H8 H 1.0304 0.6493 0.5987
O5? O 0.117(3) 0.380(2) 0.5706(14)
O6? O 0.1444(14) 0.3251(11) 0.7333(8)
O7? O 0.316(3) 0.157(3) 0.6435(11)
O8? O -0.016(3) 0.153(4) 0.6366(11)
loop_
_geom_bond_atom_site_label_1
_geom_bond_atom_site_label_2
_geom_bond_site_symmetry_1
_geom_bond_site_symmetry_2
Cl1 O1 1_555 1_555
O2 Cl1 1_555 1_555
O3 Cl1 1_555 1_555
O4 Cl1 1_555 1_555
O9 C1 1_555 1_555
O10 H1 1_555 1_555
C1 O10 1_555 1_555
C2 C1 1_555 1_555
H2 C2 1_555 1_555
H3 C2 1_555 1_555
C3 C2 1_555 1_555
H4 C3 1_555 1_555
H5 C3 1_555 1_555
N1 C3 1_555 1_555
H6 N1 1_555 1_555
H7 N1 1_555 1_555
H8 N1 1_555 1_555

#END
