
#######################################################################
#
#                 Cambridge Crystallographic Data Centre
#                                CCDC 
#
#######################################################################
#
# If this CIF has been generated from an entry in the Cambridge 
# Structural Database, then it will include bibliographic, chemical, 
# crystal, experimental, refinement or atomic coordinate data resulting 
# from the CCDC's data processing and validation procedures.
#
#######################################################################

data_QURYIN
_chemical_formula_moiety         'C31 H16 Br2 N2 O3'
_chemical_name_systematic        
3-(2-Bromophenyl)-1-(4-bromophenyl)spiro[benzo[g]indazole-4,2'-indene]-1',3',5(1H)-trione
_symmetry_cell_setting           monoclinic
_symmetry_space_group_name_H-M   'C 2/c'
_symmetry_Int_Tables_number      15
_space_group_name_Hall           '-C 2yn'
loop_
_symmetry_equiv_pos_site_id
_symmetry_equiv_pos_as_xyz
1 x,y,z
2 -x,y,1/2-z
3 1/2+x,1/2+y,z
4 1/2-x,1/2+y,1/2-z
5 -x,-y,-z
6 x,-y,1/2+z
7 1/2-x,1/2-y,-z
8 1/2+x,1/2-y,1/2+z
_cell_length_a                   32.432(2)
_cell_length_b                   10.9492(8)
_cell_length_c                   15.6699(11)
_cell_angle_alpha                90
_cell_angle_beta                 113.385(2)
_cell_angle_gamma                90
_cell_volume                     5107.38
_exptl_crystal_colour            yellow
_exptl_crystal_description       needle
_chemical_melting_point          '252-254 deg.C'
_cell_formula_units_Z            8
loop_
_atom_site_label
_atom_site_type_symbol
_atom_site_fract_x
_atom_site_fract_y
_atom_site_fract_z
Br1 Br 0.04774(3) -0.03866(8) 0.18758(5)
Br2 Br 0.19030(3) 0.06415(6) 0.84420(5)
O1 O 0.05291(13) 0.5538(4) 0.7367(3)
O2 O 0.14029(13) 0.5944(4) 0.6526(3)
O3 O 0.12677(14) 0.3272(3) 0.8744(2)
N1 N 0.10890(14) 0.1989(4) 0.5671(3)
N2 N 0.15311(14) 0.1872(4) 0.6240(3)
C1 C 0.06716(19) 0.0352(6) 0.3071(4)
C2 C 0.06294(18) 0.1592(5) 0.3127(4)
H1 H 0.0508 0.2062 0.2591
C3 C 0.07687(18) 0.2128(5) 0.3987(3)
H2 H 0.0751 0.2970 0.4037
C4 C 0.09351(16) 0.1414(5) 0.4775(3)
C5 C 0.08796(17) 0.2867(4) 0.5982(3)
C6 C 0.12114(17) 0.3357(4) 0.6769(3)
C7 C 0.11319(17) 0.4376(4) 0.7295(3)
C8 C 0.13141(18) 0.4191(5) 0.8372(3)
C9 C 0.15416(17) 0.5325(5) 0.8817(3)
C10 C 0.17160(19) 0.5622(5) 0.9750(4)
H3 H 0.1694 0.5090 1.0193
C11 C 0.19239(19) 0.6740(6) 0.9996(4)
H4 H 0.2047 0.6964 1.0620
C12 C 0.16007(18) 0.2702(5) 0.6909(3)
C13 C 0.20567(17) 0.2856(5) 0.7663(3)
C14 C 0.22373(19) 0.2023(5) 0.8378(4)
C15 C 0.2651(2) 0.2216(7) 0.9092(4)
H5 H 0.2763 0.1653 0.9574
C16 C 0.2896(2) 0.3232(8) 0.9092(5)
H6 H 0.3177 0.3351 0.9567
C17 C 0.2728(2) 0.4072(7) 0.8396(5)
H7 H 0.2893 0.4768 0.8400
C18 C 0.23109(19) 0.3885(6) 0.7683(4)
H8 H 0.2199 0.4459 0.7209
C19 C 0.06314(18) 0.4718(5) 0.6966(4)
C20 C 0.02922(17) 0.4045(5) 0.6186(3)
C21 C -0.0153(2) 0.4302(5) 0.5986(4)
H9 H -0.0224 0.4900 0.6326
C22 C -0.04919(19) 0.3690(6) 0.5293(4)
H10 H -0.0791 0.3872 0.5161
C23 C -0.0381(2) 0.2797(6) 0.4796(4)
H11 H -0.0608 0.2377 0.4327
C24 C 0.00597(18) 0.2522(5) 0.4983(3)
H12 H 0.0127 0.1915 0.4644
C25 C 0.04051(16) 0.3143(4) 0.5675(3)
C26 C 0.1954(2) 0.7536(6) 0.9342(5)
H13 H 0.2093 0.8289 0.9532
C27 C 0.17826(19) 0.7237(5) 0.8411(4)
H14 H 0.1804 0.7771 0.7970
C28 C 0.15786(17) 0.6122(5) 0.8162(3)
C29 C 0.13751(17) 0.5571(5) 0.7219(4)
C30 C 0.09736(18) 0.0171(5) 0.4719(4)
H15 H 0.1086 -0.0306 0.5253
C31 C 0.0840(2) -0.0359(5) 0.3844(4)
H16 H 0.0866 -0.1198 0.3788
loop_
_geom_bond_atom_site_label_1
_geom_bond_atom_site_label_2
_geom_bond_site_symmetry_1
_geom_bond_site_symmetry_2
Br1 C1 1_555 1_555
Br2 C14 1_555 1_555
O1 C19 1_555 1_555
O2 C29 1_555 1_555
O3 C8 1_555 1_555
N1 N2 1_555 1_555
N2 C12 1_555 1_555
C1 C2 1_555 1_555
C2 H1 1_555 1_555
C3 C2 1_555 1_555
H2 C3 1_555 1_555
C4 N1 1_555 1_555
C5 N1 1_555 1_555
C6 C5 1_555 1_555
C7 C6 1_555 1_555
C8 C7 1_555 1_555
C9 C8 1_555 1_555
C10 C9 1_555 1_555
H3 C10 1_555 1_555
C11 C10 1_555 1_555
H4 C11 1_555 1_555
C12 C6 1_555 1_555
C13 C12 1_555 1_555
C14 C13 1_555 1_555
C15 C14 1_555 1_555
H5 C15 1_555 1_555
C16 C15 1_555 1_555
H6 C16 1_555 1_555
C17 C16 1_555 1_555
H7 C17 1_555 1_555
C18 C13 1_555 1_555
H8 C18 1_555 1_555
C19 C7 1_555 1_555
C20 C19 1_555 1_555
C21 C20 1_555 1_555
H9 C21 1_555 1_555
C22 C21 1_555 1_555
H10 C22 1_555 1_555
C23 C22 1_555 1_555
H11 C23 1_555 1_555
C24 C23 1_555 1_555
H12 C24 1_555 1_555
C25 C5 1_555 1_555
C26 C11 1_555 1_555
H13 C26 1_555 1_555
C27 C26 1_555 1_555
H14 C27 1_555 1_555
C28 C9 1_555 1_555
C29 C7 1_555 1_555
C30 C4 1_555 1_555
H15 C30 1_555 1_555
C31 C1 1_555 1_555
H16 C31 1_555 1_555
C3 C4 1_555 1_555
C17 C18 1_555 1_555
C20 C25 1_555 1_555
C24 C25 1_555 1_555
C27 C28 1_555 1_555
C28 C29 1_555 1_555
C30 C31 1_555 1_555

#END
