
#######################################################################
#
#                 Cambridge Crystallographic Data Centre
#                                CCDC 
#
#######################################################################
#
# If this CIF has been generated from an entry in the Cambridge 
# Structural Database, then it will include bibliographic, chemical, 
# crystal, experimental, refinement or atomic coordinate data resulting 
# from the CCDC's data processing and validation procedures.
#
#######################################################################

data_QUSBOV
_chemical_compound_source        'leaves of Garcinia parvifolia'
_chemical_name_common            'Garcidepsidone A'
_chemical_formula_moiety         'C28 H32 O7'
_chemical_name_systematic        
1,3,7,8-Tetrahydroxy-2,4,9-tris(3-methylbut-2-enyl)-dibenzo[b,e][1,4]dioxepin-11-one
_symmetry_cell_setting           triclinic
_symmetry_space_group_name_H-M   'P -1'
_symmetry_Int_Tables_number      2
_space_group_name_Hall           '-P 1'
loop_
_symmetry_equiv_pos_site_id
_symmetry_equiv_pos_as_xyz
1 x,y,z
2 -x,-y,-z
_cell_length_a                   8.5482(1)
_cell_length_b                   10.1244(2)
_cell_length_c                   16.9306(3)
_cell_angle_alpha                93.158(1)
_cell_angle_beta                 101.419(1)
_cell_angle_gamma                113.362(1)
_cell_volume                     1303.9
_exptl_crystal_colour            colorless
_exptl_crystal_description       rectangular
_chemical_melting_point          142-143deg.C
_cell_formula_units_Z            2
loop_
_atom_site_label
_atom_site_type_symbol
_atom_site_fract_x
_atom_site_fract_y
_atom_site_fract_z
O1 O 0.7204(2) 0.30043(18) 0.18612(10)
H1 H 0.7294 0.2745 0.1411
O2 O 0.40798(16) 0.25011(14) -0.04618(8)
O3 O 0.4680(2) 0.55982(19) 0.31126(9)
H2 H 0.4073 0.6051 0.3010
O4 O -0.30565(17) 0.05111(16) -0.07247(9)
H3 H -0.3320 0.1094 -0.0489
O5 O -0.17834(18) -0.10508(15) -0.15224(9)
H4 H -0.2791 -0.1209 -0.1500
O6 O 0.64555(17) 0.25156(16) 0.02968(8)
O7 O 0.28390(16) 0.42931(13) 0.02332(7)
C1 C 0.6036(2) 0.3611(2) 0.17718(12)
C2 C 0.5916(3) 0.4286(2) 0.24802(12)
C3 C 0.4760(3) 0.4948(2) 0.24028(12)
C4 C 0.3846(2) 0.42499(19) 0.09745(11)
C5 C 0.3702(3) 0.4952(2) 0.16553(12)
C6 C -0.0132(2) 0.2457(2) -0.02249(11)
H5 H -0.0546 0.3044 0.0031
C7 C 0.1643(2) 0.29181(19) -0.01786(10)
C8 C -0.1275(2) 0.1108(2) -0.06584(11)
C9 C -0.0647(2) 0.0263(2) -0.10623(11)
C10 C 0.2262(2) 0.2041(2) -0.05389(10)
C11 C 0.1135(2) 0.0700(2) -0.10101(11)
C12 C 0.4983(2) 0.35447(19) 0.09960(11)
C13 C 0.5205(2) 0.2834(2) 0.02785(11)
C14 C 0.6998(3) 0.4317(3) 0.33088(13)
H6 H 0.7979 0.4107 0.3238
H7 H 0.7472 0.5289 0.3611
C15 C 0.5983(4) 0.3255(3) 0.37950(15)
H8 H 0.5115 0.2390 0.3493
C16 C 0.6129(5) 0.3358(4) 0.45691(17)
C17 C 0.7358(8) 0.4755(6) 0.5127(3)
H9 H 0.6760 0.4987 0.5500
H10 H 0.7735 0.5528 0.4809
H11 H 0.8361 0.4639 0.5427
C18 C 0.4985(7) 0.2180(4) 0.4980(2)
H12 H 0.4576 0.2609 0.5367
H13 H 0.5656 0.1701 0.5255
H14 H 0.3998 0.1484 0.4577
C19 C 0.2398(3) 0.5642(3) 0.16026(14)
H15 H 0.1944 0.5666 0.1034
H16 H 0.1419 0.5029 0.1812
C20 C 0.3134(3) 0.7128(3) 0.20523(15)
H17 H 0.4241 0.7748 0.2000
C21 C 0.2411(3) 0.7694(3) 0.25243(14)
C22 C 0.0654(5) 0.6922(4) 0.2672(2)
H18 H 0.0720 0.7069 0.3244
H19 H 0.0227 0.5901 0.2484
H20 H -0.0133 0.7292 0.2383
C23 C 0.3380(5) 0.9252(3) 0.29080(18)
H21 H 0.2664 0.9766 0.2749
H22 H 0.4450 0.9683 0.2732
H23 H 0.3649 0.9307 0.3490
C24 C 0.1774(3) -0.0198(2) -0.14874(12)
H24 H 0.1004 -0.1221 -0.1536
H25 H 0.2944 -0.0054 -0.1202
C25 C 0.1804(3) 0.0234(3) -0.23226(14)
H26 H 0.2551 0.1189 -0.2340
C26 C 0.0897(4) -0.0580(4) -0.30317(15)
C27 C 0.1096(6) 0.0067(6) -0.3814(2)
H27 H 0.1419 -0.0510 -0.4163
H28 H 0.1992 0.1044 -0.3687
H29 H 0.0003 0.0076 -0.4086
C28 C -0.0376(5) -0.2139(4) -0.3138(2)
H30 H 0.0017 -0.2733 -0.3435
H31 H -0.1511 -0.2248 -0.3434
H32 H -0.0451 -0.2436 -0.2613
loop_
_geom_bond_atom_site_label_1
_geom_bond_atom_site_label_2
_geom_bond_site_symmetry_1
_geom_bond_site_symmetry_2
O1 H1 1_555 1_555
O2 C10 1_555 1_555
O3 H2 1_555 1_555
O4 H3 1_555 1_555
O5 H4 1_555 1_555
O6 C13 1_555 1_555
O7 C4 1_555 1_555
C1 O1 1_555 1_555
C2 C1 1_555 1_555
C3 O3 1_555 1_555
C4 C5 1_555 1_555
C5 C3 1_555 1_555
C6 H5 1_555 1_555
C7 O7 1_555 1_555
C8 O4 1_555 1_555
C9 O5 1_555 1_555
C10 C7 1_555 1_555
C11 C9 1_555 1_555
C12 C1 1_555 1_555
C13 O2 1_555 1_555
C14 C2 1_555 1_555
H6 C14 1_555 1_555
H7 C14 1_555 1_555
C15 C14 1_555 1_555
H8 C15 1_555 1_555
C16 C15 1_555 1_555
C17 C16 1_555 1_555
H9 C17 1_555 1_555
H10 C17 1_555 1_555
H11 C17 1_555 1_555
C18 C16 1_555 1_555
H12 C18 1_555 1_555
H13 C18 1_555 1_555
H14 C18 1_555 1_555
C19 C5 1_555 1_555
H15 C19 1_555 1_555
H16 C19 1_555 1_555
C20 C19 1_555 1_555
H17 C20 1_555 1_555
C21 C20 1_555 1_555
C22 C21 1_555 1_555
H18 C22 1_555 1_555
H19 C22 1_555 1_555
H20 C22 1_555 1_555
C23 C21 1_555 1_555
H21 C23 1_555 1_555
H22 C23 1_555 1_555
H23 C23 1_555 1_555
C24 C11 1_555 1_555
H24 C24 1_555 1_555
H25 C24 1_555 1_555
C25 C24 1_555 1_555
H26 C25 1_555 1_555
C26 C25 1_555 1_555
C27 C26 1_555 1_555
H27 C27 1_555 1_555
H28 C27 1_555 1_555
H29 C27 1_555 1_555
C28 C26 1_555 1_555
H30 C28 1_555 1_555
H31 C28 1_555 1_555
H32 C28 1_555 1_555
C2 C3 1_555 1_555
C4 C12 1_555 1_555
C6 C7 1_555 1_555
C6 C8 1_555 1_555
C8 C9 1_555 1_555
C10 C11 1_555 1_555
C12 C13 1_555 1_555

#END
