
#######################################################################
#
#                 Cambridge Crystallographic Data Centre
#                                CCDC 
#
#######################################################################
#
# If this CIF has been generated from an entry in the Cambridge 
# Structural Database, then it will include bibliographic, chemical, 
# crystal, experimental, refinement or atomic coordinate data resulting 
# from the CCDC's data processing and validation procedures.
#
#######################################################################

data_QUSKAS
_chemical_formula_moiety         'C22 H25 Br2 N1 O2 S2 Si1'
_chemical_name_systematic        
"octyl 2-cyano-3-(4,6-dibromo-7,7-dimethyl-7H-thieno[3',4':4,5]silolo[2,3-b]thiophen-2-yl)acrylate"
_symmetry_cell_setting           triclinic
_symmetry_space_group_name_H-M   'P -1'
_symmetry_Int_Tables_number      2
_space_group_name_Hall           '-P 1'
loop_
_symmetry_equiv_pos_site_id
_symmetry_equiv_pos_as_xyz
1 x,y,z
2 -x,-y,-z
_cell_length_a                   9.117(3)
_cell_length_b                   9.2590(18)
_cell_length_c                   16.283(3)
_cell_angle_alpha                86.3520(10)
_cell_angle_beta                 86.1700(10)
_cell_angle_gamma                69.853(3)
_cell_volume                     1286.32
_exptl_crystal_colour            yellow
_exptl_crystal_description       rod
_cell_formula_units_Z            2
loop_
_atom_site_label
_atom_site_type_symbol
_atom_site_fract_x
_atom_site_fract_y
_atom_site_fract_z
Br1 Br 0.34631(4) -0.28479(4) 0.68040(3)
Br2 Br 0.90479(5) -0.22859(5) 0.84062(3)
Si1 Si 0.71341(10) 0.10258(11) 0.68054(6)
S1 S 0.63793(11) -0.32938(11) 0.78133(6)
S2 S 0.45009(9) 0.29084(9) 0.54433(6)
O1 O -0.0796(3) 0.3618(3) 0.37611(19)
O2 O -0.0155(3) 0.5652(3) 0.32674(16)
N1 N 0.2904(4) 0.5934(4) 0.4161(3)
C1 C 0.4673(3) 0.0379(4) 0.6235(2)
C2 C 0.5081(4) -0.2190(4) 0.7095(2)
C3 C 0.6740(4) -0.0776(4) 0.7204(2)
C4 C 0.1414(4) 0.4013(4) 0.4263(2)
C5 C 0.1826(4) 0.2718(4) 0.4752(2)
H1 H 0.1173 0.2140 0.4737
C6 C 0.5425(4) 0.1456(4) 0.6135(2)
C7 C 0.2255(4) 0.5062(4) 0.4207(2)
C8 C 0.3354(4) 0.0730(4) 0.5757(2)
H2 H 0.2731 0.0119 0.5756
C9 C 0.0038(4) 0.4376(4) 0.3743(2)
C10 C -0.1443(4) 0.6109(5) 0.2719(2)
H3 H -0.2435 0.6459 0.3032
H4 H -0.1413 0.5247 0.2401
C11 C -0.1257(5) 0.7382(6) 0.2162(3)
H5 H -0.0247 0.7017 0.1866
H6 H -0.1273 0.8224 0.2491
C12 C -0.2527(6) 0.7974(7) 0.1546(3)
H7 H -0.3541 0.8351 0.1837
H8 H -0.2515 0.7140 0.1211
C13 C -0.2269(10) 0.9281(11) 0.0988(6)
H9 H -0.1466 0.9530 0.1249
H10 H -0.1772 0.8787 0.0485
C14 C -0.3190(15) 1.0545(10) 0.0750(9)
H11 H -0.3591 1.1117 0.1244
H12 H -0.4064 1.0333 0.0542
C15 C -0.2837(14) 1.1630(10) 0.0148(6)
H13 H -0.1886 1.1073 -0.0163
H14 H -0.3671 1.1970 -0.0236
C16 C -0.2650(11) 1.2900(10) 0.0428(5)
H15 H -0.1762 1.2564 0.0777
H16 H -0.3568 1.3419 0.0773
C17 C -0.2407(12) 1.4042(10) -0.0193(6)
H17 H -0.2422 1.4939 0.0077
H18 H -0.3227 1.4326 -0.0576
H19 H -0.1415 1.3602 -0.0484
C18 C 0.5404(4) -0.0908(4) 0.6825(2)
C19 C 0.3088(4) 0.2082(4) 0.5290(2)
C20 C 0.6842(5) 0.2381(5) 0.7645(3)
H20 H 0.7052 0.3284 0.7430
H21 H 0.7541 0.1890 0.8074
H22 H 0.5781 0.2669 0.7864
C21 C 0.7351(4) -0.1965(4) 0.7741(2)
C22 C 0.9086(4) 0.0586(5) 0.6264(3)
H23 H 0.9238 0.1530 0.6074
H24 H 0.9146 -0.0029 0.5802
H25 H 0.9883 0.0031 0.6636
loop_
_geom_bond_atom_site_label_1
_geom_bond_atom_site_label_2
_geom_bond_site_symmetry_1
_geom_bond_site_symmetry_2
Br1 C2 1_555 1_555
Br2 C21 1_555 1_555
Si1 C3 1_555 1_555
S1 C2 1_555 1_555
S2 C6 1_555 1_555
O1 C9 1_555 1_555
O2 C9 1_555 1_555
N1 C7 1_555 1_555
C1 C6 1_555 1_555
C2 C18 1_555 1_555
C3 C18 1_555 1_555
C4 C5 1_555 1_555
C5 H1 1_555 1_555
C6 Si1 1_555 1_555
C7 C4 1_555 1_555
C8 C1 1_555 1_555
H2 C8 1_555 1_555
C9 C4 1_555 1_555
C10 O2 1_555 1_555
H3 C10 1_555 1_555
H4 C10 1_555 1_555
C11 C10 1_555 1_555
H5 C11 1_555 1_555
H6 C11 1_555 1_555
C12 C11 1_555 1_555
H7 C12 1_555 1_555
H8 C12 1_555 1_555
C13 C12 1_555 1_555
H9 C13 1_555 1_555
H10 C13 1_555 1_555
C14 C13 1_555 1_555
H11 C14 1_555 1_555
H12 C14 1_555 1_555
C15 C14 1_555 1_555
H13 C15 1_555 1_555
H14 C15 1_555 1_555
C16 C15 1_555 1_555
H15 C16 1_555 1_555
H16 C16 1_555 1_555
C17 C16 1_555 1_555
H17 C17 1_555 1_555
H18 C17 1_555 1_555
H19 C17 1_555 1_555
C18 C1 1_555 1_555
C19 S2 1_555 1_555
C20 Si1 1_555 1_555
H20 C20 1_555 1_555
H21 C20 1_555 1_555
H22 C20 1_555 1_555
C21 S1 1_555 1_555
C22 Si1 1_555 1_555
H23 C22 1_555 1_555
H24 C22 1_555 1_555
H25 C22 1_555 1_555
C3 C21 1_555 1_555
C5 C19 1_555 1_555
C8 C19 1_555 1_555

#END
