
#######################################################################
#
#                 Cambridge Crystallographic Data Centre
#                                CCDC 
#
#######################################################################
#
# If this CIF has been generated from an entry in the Cambridge 
# Structural Database, then it will include bibliographic, chemical, 
# crystal, experimental, refinement or atomic coordinate data resulting 
# from the CCDC's data processing and validation procedures.
#
#######################################################################

data_QUSMEY
_chemical_formula_moiety         'C22 H27 Br1 Cl1 N1 O2 S1'
_chemical_name_systematic        
3-bromo-4-chloro-5-dodecyl-5H-thieno[2,3-f]indole-6,7-dione
_symmetry_cell_setting           triclinic
_symmetry_space_group_name_H-M   'P -1'
_symmetry_Int_Tables_number      2
_space_group_name_Hall           '-P 1'
loop_
_symmetry_equiv_pos_site_id
_symmetry_equiv_pos_as_xyz
1 x,y,z
2 -x,-y,-z
_cell_length_a                   15.2293(8)
_cell_length_b                   17.6141(9)
_cell_length_c                   19.9261(10)
_cell_angle_alpha                110.3140(10)
_cell_angle_beta                 90.5180(10)
_cell_angle_gamma                114.6150(10)
_cell_volume                     4482.61
_exptl_crystal_colour            orange
_exptl_crystal_description       block
_cell_formula_units_Z            8
_exptl_crystal_recrystallization_method 'ethyl acetate/hexane'
loop_
_atom_site_label
_atom_site_type_symbol
_atom_site_fract_x
_atom_site_fract_y
_atom_site_fract_z
Br1 Br 0.56341(3) 0.45112(3) 1.133485(18)
C1 C 0.4271(2) 0.5067(2) 1.10217(17)
H1 H 0.4512 0.5525 1.1499
C2 C 0.4618(2) 0.4452(2) 1.07459(16)
C3 C 0.4245(2) 0.3054(2) 0.95359(17)
C4 C 0.2931(2) 0.1515(2) 0.77008(18)
C5 C 0.2460(2) 0.2161(2) 0.79105(17)
C6 C 0.2844(2) 0.3535(2) 0.90827(16)
H2 H 0.2368 0.3686 0.8929
C7 C 0.4136(2) 0.3814(2) 1.00116(16)
C8 C 0.3430(2) 0.4036(2) 0.97721(16)
C9 C 0.3674(2) 0.2571(2) 0.88514(16)
C10 C 0.2981(2) 0.2819(2) 0.86361(16)
Cl1 Cl 0.50495(7) 0.27365(6) 0.98470(5)
N1 N 0.36324(18) 0.17924(17) 0.82826(13)
O1 O 0.27332(17) 0.08899(15) 0.71209(12)
O2 O 0.17747(16) 0.20818(15) 0.75258(11)
S1 S 0.33556(7) 0.49452(6) 1.04302(5)
C11 C 0.4307(2) 0.1388(2) 0.82107(18)
H3 H 0.4956 0.1857 0.8509
H4 H 0.4393 0.1186 0.7697
C12 C 0.3975(6) 0.0593(6) 0.8439(5)
H5 H 0.3332 0.0117 0.8135
H6 H 0.3881 0.0790 0.8951
C13 C 0.4701(5) 0.0191(4) 0.8369(3)
H7 H 0.4389 -0.0388 0.8437
H8 H 0.4849 0.0056 0.7870
C14 C 0.5641(4) 0.0795(4) 0.8899(3)
H9 H 0.5503 0.0862 0.9396
H10 H 0.5907 0.1402 0.8878
C15 C 0.6429(4) 0.0452(4) 0.8766(4)
H11 H 0.6508 0.0313 0.8252
H12 H 0.7063 0.0941 0.9073
C16 C 0.6192(5) -0.0367(5) 0.8929(5)
H13 H 0.5601 -0.0879 0.8582
H14 H 0.6037 -0.0254 0.9425
C17 C 0.7055(5) -0.0633(5) 0.8876(5)
H15 H 0.7182 -0.0783 0.8371
H16 H 0.7656 -0.0107 0.9199
C18 C 0.6848(6) -0.1417(5) 0.9081(5)
H17 H 0.6244 -0.1942 0.8760
H18 H 0.6726 -0.1266 0.9587
C19 C 0.7690(7) -0.1680(5) 0.9024(5)
H19 H 0.7790 -0.1857 0.8513
H20 H 0.8300 -0.1144 0.9326
C20 C 0.7523(6) -0.2414(5) 0.9254(5)
H21 H 0.6919 -0.2951 0.8946
H22 H 0.7407 -0.2240 0.9761
C21 C 0.8345(10) -0.2678(9) 0.9219(7)
H23 H 0.8245 -0.3071 0.9495
H24 H 0.8974 -0.2127 0.9453
C22 C 0.8410(11) -0.3178(11) 0.8440(9)
H25 H 0.8965 -0.3323 0.8442
H26 H 0.8506 -0.2793 0.8164
H27 H 0.7800 -0.3739 0.8213
Br2 Br 0.08771(3) 0.48387(3) 1.119424(19)
C34 C -0.0925(2) 0.4882(2) 1.11207(18)
H53 H -0.0686 0.5326 1.1603
C35 C -0.0402(2) 0.4481(2) 1.07479(16)
C36 C -0.0634(2) 0.3253(2) 0.94638(16)
C37 C -0.1994(2) 0.1690(2) 0.76422(18)
C38 C -0.2684(2) 0.2093(2) 0.79652(17)
C39 C -0.2478(2) 0.3257(2) 0.92335(17)
H54 H -0.3093 0.3258 0.9151
C40 C -0.0909(2) 0.3826(2) 1.00243(16)
C41 C -0.1833(2) 0.3804(2) 0.99007(16)
C42 C -0.1280(2) 0.2700(2) 0.88168(16)
C43 C -0.2181(2) 0.2720(2) 0.87054(16)
Cl2 Cl 0.04846(7) 0.32581(7) 0.96212(5)
N2 N -0.11975(19) 0.20609(18) 0.81747(13)
O3 O -0.21505(17) 0.11253(17) 0.70317(12)
O4 O -0.34818(16) 0.18894(15) 0.76424(12)
S2 S -0.20630(7) 0.45200(6) 1.06460(5)
C44 C -0.0436(2) 0.1749(2) 0.80649(17)
H55 H 0.0217 0.2277 0.8277
H56 H -0.0457 0.1463 0.7537
C45 C -0.0570(3) 0.1076(2) 0.84124(19)
H57 H -0.1167 0.0506 0.8141
H58 H -0.0671 0.1321 0.8918
C46 C 0.0311(3) 0.0869(2) 0.8422(2)
H59 H 0.0456 0.0687 0.7924
H60 H 0.0893 0.1426 0.8738
C47 C 0.0131(9) 0.0117(8) 0.8698(9)
H61 H -0.0037 0.0291 0.9189
H62 H -0.0439 -0.0444 0.8373
C48 C 0.1009(9) -0.0074(8) 0.8733(9)
H63 H 0.1579 0.0488 0.9056
H64 H 0.1175 -0.0249 0.8241
C49 C 0.0845(10) -0.0818(8) 0.9009(8)
H65 H 0.0711 -0.0629 0.9510
H66 H 0.0255 -0.1371 0.8701
C50 C 0.1700(9) -0.1048(8) 0.9013(9)
H67 H 0.2285 -0.0501 0.9336
H68 H 0.1851 -0.1215 0.8515
C51 C 0.1511(9) -0.1817(9) 0.9263(9)
H69 H 0.0938 -0.2370 0.8933
H70 H 0.1350 -0.1657 0.9758
C52 C 0.2402(9) -0.2015(9) 0.9275(8)
H71 H 0.3006 -0.1436 0.9498
H72 H 0.2335 -0.2368 0.9580
C53 C 0.2504(11) -0.2533(11) 0.8526(9)
H73 H 0.2551 -0.2188 0.8216
H74 H 0.1908 -0.3119 0.8309
C54 C 0.3409(11) -0.2709(11) 0.8530(8)
H75 H 0.4011 -0.2125 0.8703
H76 H 0.3395 -0.3007 0.8872
C55 C 0.3439(12) -0.3298(11) 0.7785(9)
H77 H 0.4018 -0.3405 0.7805
H78 H 0.3473 -0.2995 0.7449
H79 H 0.2844 -0.3877 0.7615
Br3 Br 0.87587(3) 0.97185(3) 0.629712(18)
C65 C 1.0661(2) 1.0006(2) 0.60611(17)
H101 H 1.0889 1.0483 0.6529
C66 C 0.9694(2) 0.9480(2) 0.57674(16)
C67 C 0.8636(2) 0.8114(2) 0.45611(16)
C68 C 0.8355(2) 0.6431(2) 0.27728(18)
C69 C 0.9480(3) 0.6960(2) 0.30094(17)
C70 C 1.0503(2) 0.8321(2) 0.41776(16)
H102 H 1.1120 0.8384 0.4046
C71 C 0.9519(2) 0.8801(2) 0.50499(16)
C72 C 1.0432(2) 0.8888(2) 0.48492(16)
C73 C 0.8707(2) 0.7564(2) 0.38999(16)
C74 C 0.9634(2) 0.7670(2) 0.37198(16)
Cl3 Cl 0.75147(6) 0.79584(6) 0.48184(5)
N3 N 0.79573(18) 0.68190(17) 0.33207(13)
O5 O 0.79243(17) 0.58044(16) 0.21974(12)
O6 O 1.00642(17) 0.67869(16) 0.26602(12)
S3 S 1.14247(6) 0.97371(6) 0.55160(5)
C75 C 0.6900(2) 0.6541(2) 0.32027(17)
H103 H 0.6656 0.6315 0.2675
H104 H 0.6785 0.7077 0.3449
C76 C 0.6319(2) 0.5813(2) 0.34812(19)
H105 H 0.6586 0.6024 0.4002
H106 H 0.6398 0.5263 0.3213
C77 C 0.5236(3) 0.5578(3) 0.3394(2)
H107 H 0.4965 0.5353 0.2872
H108 H 0.5158 0.6131 0.3653
C78 C 0.4655(6) 0.4855(7) 0.3694(6)
H109 H 0.4752 0.4309 0.3445
H110 H 0.4918 0.5088 0.4219
C79 C 0.3564(6) 0.4589(9) 0.3595(8)
H111 H 0.3468 0.5135 0.3845
H112 H 0.3302 0.4359 0.3070
C80 C 0.2985(5) 0.3876(6) 0.3886(5)
H113 H 0.3250 0.4106 0.4410
H114 H 0.3080 0.3331 0.3634
C81 C 0.1889(6) 0.3606(6) 0.3793(6)
H115 H 0.1789 0.4152 0.4030
H116 H 0.1614 0.3351 0.3268
C82 C 0.1334(5) 0.2912(6) 0.4116(5)
H117 H 0.1608 0.3172 0.4642
H118 H 0.1445 0.2371 0.3883
C83 C 0.0233(5) 0.2618(6) 0.4026(5)
H119 H -0.0035 0.2285 0.4345
H120 H 0.0134 0.3170 0.4207
C84 C -0.0360(6) 0.2044(7) 0.3283(6)
H121 H -0.0205 0.1525 0.3084
H122 H -0.0133 0.2402 0.2977
C85 C -0.1464(6) 0.1669(6) 0.3187(7)
H123 H -0.1705 0.1317 0.3497
H124 H -0.1752 0.1248 0.2675
C86 C -0.1821(9) 0.2387(9) 0.3377(8)
H125 H -0.2539 0.2100 0.3312
H126 H -0.1612 0.2721 0.3057
H127 H -0.1543 0.2807 0.3884
Br4 Br 1.37873(3) 0.95774(3) 0.626915(18)
C96 C 1.5713(2) 0.9995(2) 0.60315(17)
H149 H 1.5920 1.0443 0.6512
C97 C 1.4757(2) 0.9436(2) 0.57264(16)
C98 C 1.3752(2) 0.8113(2) 0.44880(17)
C99 C 1.3557(3) 0.6617(2) 0.26321(18)
C100 C 1.4671(2) 0.7185(2) 0.28832(17)
C101 C 1.5646(2) 0.8475(2) 0.41013(16)
H150 H 1.6272 0.8590 0.3967
C102 C 1.4621(2) 0.8814(2) 0.49987(16)
C103 C 1.5542(2) 0.8965(2) 0.47871(16)
C104 C 1.3852(2) 0.7628(2) 0.38055(16)
C105 C 1.4793(2) 0.7814(2) 0.36295(16)
Cl4 Cl 1.26173(6) 0.78749(6) 0.47480(5)
N4 N 1.31231(19) 0.69038(18) 0.32051(13)
O7 O 1.31324(17) 0.60161(16) 0.20392(12)
O8 O 1.52701(17) 0.70854(15) 0.25150(11)
S4 S 1.65074(6) 0.98201(6) 0.54761(5)
C106 C 1.2047(2) 0.6482(2) 0.31252(17)
H151 H 1.1749 0.6227 0.2605
H152 H 1.1834 0.6946 0.3394
C107 C 1.1693(6) 0.5724(5) 0.3422(5)
H153 H 1.1884 0.5250 0.3138
H154 H 1.2022 0.5977 0.3935
C108 C 1.0584(6) 0.5299(6) 0.3383(6)
H155 H 1.0260 0.5160 0.2893
H156 H 1.0370 0.4721 0.3450
C109 C 1.0262(5) 0.5893(5) 0.3938(5)
H157 H 1.0511 0.6482 0.3886
H158 H 1.0568 0.6007 0.4426
C110 C 0.9145(6) 0.5515(6) 0.3899(5)
H159 H 0.8993 0.6029 0.4139
H160 H 0.8830 0.5233 0.3381
C111 C 0.8688(5) 0.4838(6) 0.4233(5)
H161 H 0.9010 0.5113 0.4749
H162 H 0.8823 0.4314 0.3985
C112 C 0.7568(5) 0.4488(7) 0.4199(5)
H163 H 0.7419 0.5009 0.4417
H164 H 0.7232 0.4161 0.3685
C113 C 0.7183(6) 0.3865(7) 0.4599(6)
H165 H 0.7549 0.4192 0.5106
H166 H 0.7328 0.3343 0.4370
C114 C 0.6100(7) 0.3505(7) 0.4622(6)
H167 H 0.5920 0.4011 0.4755
H168 H 0.5961 0.3252 0.5003
C115 C 0.5475(5) 0.2780(6) 0.3902(5)
H169 H 0.5541 0.3060 0.3540
H170 H 0.5732 0.2327 0.3732
C116 C 0.4410(7) 0.2303(10) 0.3927(6)
H171 H 0.4164 0.2757 0.4145
H172 H 0.4330 0.1958 0.4241
C117 C 0.3801(8) 0.1659(8) 0.3174(6)
H173 H 0.3108 0.1373 0.3212
H174 H 0.4022 0.1191 0.2965
H175 H 0.3882 0.1997 0.2860
H28? H 0.4984 0.1863 0.8441
H29? H 0.4301 0.1071 0.7690
C23? C 0.3967(18) 0.0700(18) 0.8595(16)
H30? H 0.3787 0.0974 0.9063
H31? H 0.3374 0.0150 0.8286
C24? C 0.4760(15) 0.0431(13) 0.8738(9)
H32? H 0.5330 0.0977 0.9079
H33? H 0.4501 -0.0002 0.8982
C25? C 0.5105(14) 0.0014(14) 0.8081(9)
H34? H 0.5227 0.0390 0.7789
H35? H 0.4560 -0.0587 0.7789
C26? C 0.6001(14) -0.0112(15) 0.8180(13)
H36? H 0.6209 -0.0271 0.7702
H37? H 0.6531 0.0478 0.8508
C27? C 0.5930(16) -0.0791(15) 0.8467(15)
H38? H 0.5301 -0.1341 0.8232
H39? H 0.5930 -0.0552 0.8996
C28? C 0.6803(16) -0.1050(16) 0.8333(15)
H40? H 0.6833 -0.1260 0.7808
H41? H 0.7434 -0.0516 0.8599
C29? C 0.6626(17) -0.1800(15) 0.8604(15)
H42? H 0.6070 -0.2367 0.8271
H43? H 0.6444 -0.1637 0.9091
C30? C 0.7530(19) -0.1958(18) 0.8649(18)
H44? H 0.7794 -0.1993 0.8193
H45? H 0.8042 -0.1438 0.9055
C31? C 0.7305(18) -0.2809(15) 0.8766(16)
H46? H 0.6928 -0.3334 0.8308
H47? H 0.6884 -0.2846 0.9141
C32? C 0.822(3) -0.287(3) 0.900(2)
H48? H 0.8022 -0.3402 0.9140
H49? H 0.8631 -0.2321 0.9438
C33? C 0.882(3) -0.296(3) 0.838(3)
H50? H 0.9382 -0.3034 0.8535
H51? H 0.9049 -0.2418 0.8272
H52? H 0.8400 -0.3493 0.7949
H80? H 0.0358 0.0558 0.7914
H81? H 0.0916 0.1449 0.8635
C56? C 0.0271(15) 0.0296(14) 0.8839(14)
H82? H -0.0300 -0.0305 0.8601
H83? H 0.0170 0.0581 0.9337
C57? C 0.1201(15) 0.0167(14) 0.8891(14)
H84? H 0.1759 0.0751 0.9198
H85? H 0.1361 -0.0038 0.8400
C58? C 0.1040(15) -0.0542(13) 0.9226(13)
H86? H 0.0894 -0.0326 0.9721
H87? H 0.0465 -0.1117 0.8927
C59? C 0.1928(15) -0.0714(13) 0.9268(12)
H88? H 0.2500 -0.0142 0.9576
H89? H 0.2082 -0.0919 0.8775
C60? C 0.1752(14) -0.1440(13) 0.9590(12)
H90? H 0.1627 -0.1226 1.0092
H91? H 0.1166 -0.2007 0.9294
C61? C 0.2641(16) -0.1628(15) 0.9599(11)
H92? H 0.2622 -0.1912 0.9953
H93? H 0.3246 -0.1046 0.9766
C62? C 0.2688(18) -0.2248(18) 0.8853(11)
H94? H 0.2096 -0.2839 0.8695
H95? H 0.2681 -0.1976 0.8495
C63? C 0.3599(18) -0.2403(19) 0.8857(12)
H96? H 0.3546 -0.2772 0.9147
H97? H 0.4182 -0.1812 0.9100
C64? C 0.3750(19) -0.2878(19) 0.8099(13)
H98? H 0.4335 -0.2973 0.8140
H99? H 0.3838 -0.2502 0.7817
H100? H 0.3175 -0.3464 0.7854
H128? H 0.5016 0.5543 0.2910
H129? H 0.5141 0.6068 0.3768
C87? C 0.4608(10) 0.4687(12) 0.3464(12)
H130? H 0.4842 0.4719 0.3943
H131? H 0.4698 0.4198 0.3084
C88? C 0.3519(11) 0.4443(15) 0.3393(17)
H132? H 0.3285 0.4437 0.2926
H133? H 0.3417 0.4906 0.3792
C89? C 0.2927(9) 0.3516(10) 0.3425(10)
H134? H 0.3185 0.3517 0.3884
H135? H 0.3015 0.3053 0.3016
C90? C 0.1834(10) 0.3260(10) 0.3386(11)
H136? H 0.1736 0.3685 0.3822
H137? H 0.1584 0.3311 0.2952
C91? C 0.1260(8) 0.2298(9) 0.3346(10)
H138? H 0.1449 0.1893 0.2959
H139? H 0.1451 0.2276 0.3813
C92? C 0.0156(9) 0.1940(10) 0.3195(11)
H140? H -0.0044 0.1835 0.2684
H141? H -0.0148 0.1345 0.3239
C93? C -0.0259(11) 0.2518(14) 0.3667(12)
H142? H -0.0056 0.3066 0.3556
H143? H 0.0036 0.2717 0.4180
C94? C -0.1371(11) 0.2082(17) 0.3600(10)
H144? H -0.1604 0.1448 0.3556
H145? H -0.1547 0.2409 0.4050
C95? C -0.1892(18) 0.209(2) 0.2955(11)
H146? H -0.2602 0.1808 0.2942
H147? H -0.1742 0.1744 0.2506
H148? H -0.1669 0.2712 0.2996
H176? H 1.1758 0.6390 0.2640
H177? H 1.1851 0.6897 0.3496
C118? C 1.1644(11) 0.5591(10) 0.3208(10)
H178? H 1.1971 0.5687 0.3682
H179? H 1.1827 0.5177 0.2823
C119? C 1.0545(13) 0.5123(13) 0.3168(11)
H180? H 1.0216 0.5187 0.2774
H181? H 1.0335 0.4470 0.3037
C120? C 1.0209(12) 0.5480(13) 0.3855(12)
H182? H 1.0419 0.6134 0.3985
H183? H 1.0542 0.5420 0.4249
C121? C 0.9099(11) 0.5015(12) 0.3829(10)
H184? H 0.8899 0.4424 0.3871
H185? H 0.8736 0.4914 0.3367
C122? C 0.8879(9) 0.5712(9) 0.4528(7)
H186? H 0.9216 0.5785 0.4989
H187? H 0.9121 0.6314 0.4499
C123? C 0.7788(9) 0.5307(10) 0.4498(9)
H188? H 0.7468 0.5212 0.4021
H189? H 0.7635 0.5749 0.4879
C124? C 0.7340(10) 0.4419(13) 0.4599(13)
H190? H 0.7552 0.4529 0.5109
H191? H 0.7583 0.4006 0.4280
C125? C 0.6200(10) 0.3960(11) 0.4419(11)
H192? H 0.5965 0.4406 0.4691
H193? H 0.5991 0.3783 0.3894
C126? C 0.5721(11) 0.3135(14) 0.4604(14)
H194? H 0.5975 0.3303 0.5120
H195? H 0.5916 0.2672 0.4302
C127? C 0.4612(11) 0.2721(13) 0.4489(10)
H196? H 0.4409 0.3204 0.4722
H197? H 0.4369 0.2285 0.4731
C128? C 0.414(2) 0.223(3) 0.3678(13)
H198? H 0.3424 0.2021 0.3631
H199? H 0.4272 0.1708 0.3458
H200? H 0.4406 0.2647 0.3429
loop_
_geom_bond_atom_site_label_1
_geom_bond_atom_site_label_2
_geom_bond_site_symmetry_1
_geom_bond_site_symmetry_2
Br1 C2 1_555 1_555
C1 H1 1_555 1_555
C2 C1 1_555 1_555
C3 C7 1_555 1_555
C4 C5 1_555 1_555
C5 C10 1_555 1_555
C6 H2 1_555 1_555
C7 C2 1_555 1_555
C8 C6 1_555 1_555
C9 C3 1_555 1_555
C10 C6 1_555 1_555
Cl1 C3 1_555 1_555
N1 C4 1_555 1_555
O1 C4 1_555 1_555
O2 C5 1_555 1_555
S1 C1 1_555 1_555
C11 N1 1_555 1_555
H3 C11 1_555 1_555
H4 C11 1_555 1_555
C12 C11 1_555 1_555
H5 C12 1_555 1_555
H6 C12 1_555 1_555
C13 C12 1_555 1_555
H7 C13 1_555 1_555
H8 C13 1_555 1_555
C14 C13 1_555 1_555
H9 C14 1_555 1_555
H10 C14 1_555 1_555
C15 C14 1_555 1_555
H11 C15 1_555 1_555
H12 C15 1_555 1_555
C16 C15 1_555 1_555
H13 C16 1_555 1_555
H14 C16 1_555 1_555
C17 C16 1_555 1_555
H15 C17 1_555 1_555
H16 C17 1_555 1_555
C18 C17 1_555 1_555
H17 C18 1_555 1_555
H18 C18 1_555 1_555
C19 C18 1_555 1_555
H19 C19 1_555 1_555
H20 C19 1_555 1_555
C20 C19 1_555 1_555
H21 C20 1_555 1_555
H22 C20 1_555 1_555
C21 C20 1_555 1_555
H23 C21 1_555 1_555
H24 C21 1_555 1_555
C22 C21 1_555 1_555
H25 C22 1_555 1_555
H26 C22 1_555 1_555
H27 C22 1_555 1_555
Br2 C35 1_555 1_555
C34 H53 1_555 1_555
C35 C34 1_555 1_555
C36 C40 1_555 1_555
C37 C38 1_555 1_555
C38 C43 1_555 1_555
C39 H54 1_555 1_555
C40 C35 1_555 1_555
C41 C39 1_555 1_555
C42 C36 1_555 1_555
C43 C39 1_555 1_555
Cl2 C36 1_555 1_555
N2 C37 1_555 1_555
O3 C37 1_555 1_555
O4 C38 1_555 1_555
S2 C34 1_555 1_555
C44 N2 1_555 1_555
H55 C44 1_555 1_555
H56 C44 1_555 1_555
C45 C44 1_555 1_555
H57 C45 1_555 1_555
H58 C45 1_555 1_555
C46 C45 1_555 1_555
H59 C46 1_555 1_555
H60 C46 1_555 1_555
C47 C46 1_555 1_555
H61 C47 1_555 1_555
H62 C47 1_555 1_555
C48 C47 1_555 1_555
H63 C48 1_555 1_555
H64 C48 1_555 1_555
C49 C48 1_555 1_555
H65 C49 1_555 1_555
H66 C49 1_555 1_555
C50 C49 1_555 1_555
H67 C50 1_555 1_555
H68 C50 1_555 1_555
C51 C50 1_555 1_555
H69 C51 1_555 1_555
H70 C51 1_555 1_555
C52 C51 1_555 1_555
H71 C52 1_555 1_555
H72 C52 1_555 1_555
C53 C52 1_555 1_555
H73 C53 1_555 1_555
H74 C53 1_555 1_555
C54 C53 1_555 1_555
H75 C54 1_555 1_555
H76 C54 1_555 1_555
C55 C54 1_555 1_555
H77 C55 1_555 1_555
H78 C55 1_555 1_555
H79 C55 1_555 1_555
Br3 C66 1_555 1_555
C65 H101 1_555 1_555
C66 C65 1_555 1_555
C67 C71 1_555 1_555
C68 C69 1_555 1_555
C69 C74 1_555 1_555
C70 H102 1_555 1_555
C71 C66 1_555 1_555
C72 C70 1_555 1_555
C73 C67 1_555 1_555
C74 C70 1_555 1_555
Cl3 C67 1_555 1_555
N3 C68 1_555 1_555
O5 C68 1_555 1_555
O6 C69 1_555 1_555
S3 C65 1_555 1_555
C75 N3 1_555 1_555
H103 C75 1_555 1_555
H104 C75 1_555 1_555
C76 C75 1_555 1_555
H105 C76 1_555 1_555
H106 C76 1_555 1_555
C77 C76 1_555 1_555
H107 C77 1_555 1_555
H108 C77 1_555 1_555
C78 C77 1_555 1_555
H109 C78 1_555 1_555
H110 C78 1_555 1_555
C79 C78 1_555 1_555
H111 C79 1_555 1_555
H112 C79 1_555 1_555
C80 C79 1_555 1_555
H113 C80 1_555 1_555
H114 C80 1_555 1_555
C81 C80 1_555 1_555
H115 C81 1_555 1_555
H116 C81 1_555 1_555
C82 C81 1_555 1_555
H117 C82 1_555 1_555
H118 C82 1_555 1_555
C83 C82 1_555 1_555
H119 C83 1_555 1_555
H120 C83 1_555 1_555
C84 C83 1_555 1_555
H121 C84 1_555 1_555
H122 C84 1_555 1_555
C85 C84 1_555 1_555
H123 C85 1_555 1_555
H124 C85 1_555 1_555
C86 C85 1_555 1_555
H125 C86 1_555 1_555
H126 C86 1_555 1_555
H127 C86 1_555 1_555
Br4 C97 1_555 1_555
C96 H149 1_555 1_555
C97 C96 1_555 1_555
C98 C102 1_555 1_555
C99 C100 1_555 1_555
C100 C105 1_555 1_555
C101 H150 1_555 1_555
C102 C97 1_555 1_555
C103 C101 1_555 1_555
C104 C98 1_555 1_555
C105 C101 1_555 1_555
Cl4 C98 1_555 1_555
N4 C99 1_555 1_555
O7 C99 1_555 1_555
O8 C100 1_555 1_555
S4 C96 1_555 1_555
C106 N4 1_555 1_555
H151 C106 1_555 1_555
H152 C106 1_555 1_555
C107 C106 1_555 1_555
H153 C107 1_555 1_555
H154 C107 1_555 1_555
C108 C107 1_555 1_555
H155 C108 1_555 1_555
H156 C108 1_555 1_555
C109 C108 1_555 1_555
H157 C109 1_555 1_555
H158 C109 1_555 1_555
C110 C109 1_555 1_555
H159 C110 1_555 1_555
H160 C110 1_555 1_555
C111 C110 1_555 1_555
H161 C111 1_555 1_555
H162 C111 1_555 1_555
C112 C111 1_555 1_555
H163 C112 1_555 1_555
H164 C112 1_555 1_555
C113 C112 1_555 1_555
H165 C113 1_555 1_555
H166 C113 1_555 1_555
C114 C113 1_555 1_555
H167 C114 1_555 1_555
H168 C114 1_555 1_555
C115 C114 1_555 1_555
H169 C115 1_555 1_555
H170 C115 1_555 1_555
C116 C115 1_555 1_555
H171 C116 1_555 1_555
H172 C116 1_555 1_555
C117 C116 1_555 1_555
H173 C117 1_555 1_555
H174 C117 1_555 1_555
H175 C117 1_555 1_555
C7 C8 1_555 1_555
C8 S1 1_555 1_555
C9 C10 1_555 1_555
C9 N1 1_555 1_555
C40 C41 1_555 1_555
C41 S2 1_555 1_555
C42 C43 1_555 1_555
C42 N2 1_555 1_555
C71 C72 1_555 1_555
C72 S3 1_555 1_555
C73 C74 1_555 1_555
C73 N3 1_555 1_555
C102 C103 1_555 1_555
C103 S4 1_555 1_555
C104 C105 1_555 1_555
C104 N4 1_555 1_555

#END
