
#######################################################################
#
#                 Cambridge Crystallographic Data Centre
#                                CCDC 
#
#######################################################################
#
# If this CIF has been generated from an entry in the Cambridge 
# Structural Database, then it will include bibliographic, chemical, 
# crystal, experimental, refinement or atomic coordinate data resulting 
# from the CCDC's data processing and validation procedures.
#
#######################################################################

data_QUSQEC
_chemical_name_common            
'9c-((3,5-dinitrobenzyl)oxy)-1,2,4,5,7,8-hexaethyl-9cH-8blambda$5!,9b,9d-triaza-9clambda$5!-boratricyclopenta[cd,gh,kl]phenalene unknown solvate'
_chemical_formula_moiety         'C34 H38 B1 N5 O5'
_chemical_name_systematic        
'((3,5-dinitrobenzyl)oxy)-(2,3,7,8,12,13-hexaethylsubporphyrinato)-boron(iii) unknown solvate'
_symmetry_cell_setting           triclinic
_symmetry_space_group_name_H-M   'P -1'
_symmetry_Int_Tables_number      2
_space_group_name_Hall           '-P 1'
loop_
_symmetry_equiv_pos_site_id
_symmetry_equiv_pos_as_xyz
1 x,y,z
2 -x,-y,-z
_cell_length_a                   8.3990(15)
_cell_length_b                   15.411(3)
_cell_length_c                   15.432(3)
_cell_angle_alpha                65.460(16)
_cell_angle_beta                 81.857(15)
_cell_angle_gamma                82.675(15)
_cell_volume                     1793.49
_exptl_crystal_colour            orange
_exptl_crystal_description       block
_cell_formula_units_Z            2
loop_
_atom_site_label
_atom_site_type_symbol
_atom_site_fract_x
_atom_site_fract_y
_atom_site_fract_z
O1 O 0.1976(8) 0.5886(4) 0.0804(4)
N1 N 0.4357(9) 0.6775(4) 0.0370(5)
N2 N 0.4279(9) 0.5298(5) 0.1755(5)
N3 N 0.2707(10) 0.6635(5) 0.1817(5)
C1 C 0.6319(11) 0.5508(7) 0.0394(7)
H1 H 0.7094 0.5252 0.0055
C2 C 0.3183(12) 0.5303(6) 0.3226(6)
H2 H 0.2929 0.4986 0.3882
C3 C -0.0588(12) 0.6175(7) 0.1576(8)
C4 C 0.4195(11) 0.4821(6) 0.2756(6)
C5 C -0.0776(12) 0.7082(6) 0.0896(7)
H3 H -0.0116 0.7280 0.0322
C6 C 0.5715(12) 0.6437(6) -0.0013(6)
C7 C 0.5735(12) 0.4945(6) 0.1346(7)
C8 C -0.1538(13) 0.5897(7) 0.2443(8)
H4 H -0.1403 0.5281 0.2912
C9 C -0.2676(14) 0.6548(10) 0.2592(8)
C10 C 0.4135(13) 0.7752(7) 0.0058(8)
C11 C -0.2929(13) 0.7481(10) 0.1929(11)
H5 H -0.3686 0.7925 0.2045
C12 C 0.1889(13) 0.7796(7) 0.2354(8)
C13 C 0.1965(13) 0.6958(7) 0.3112(7)
C14 C 0.6361(13) 0.4124(6) 0.2183(7)
C15 C 0.3125(12) 0.8178(7) 0.0546(8)
H6 H 0.2825 0.8830 0.0271
C16 C -0.1956(14) 0.7688(7) 0.1082(8)
C17 C 0.2532(13) 0.6225(7) 0.2778(7)
C18 C 0.0662(13) 0.5465(7) 0.1393(9)
H7 H 0.1014 0.5002 0.1999
H8 H 0.0177 0.5122 0.1106
C19 C 0.5369(14) 0.8090(7) -0.0763(8)
C20 C 0.5486(14) 0.4063(7) 0.2991(7)
C21 C 0.6380(11) 0.7319(7) -0.0824(6)
C22 C 0.2532(11) 0.7597(8) 0.1496(8)
B1 B 0.3291(14) 0.6130(6) 0.1171(8)
C23 C 0.7880(13) 0.3531(7) 0.2027(9)
H9 H 0.8496 0.3910 0.1437
H10 H 0.8542 0.3370 0.2548
C24 C 0.7508(14) 0.7176(9) -0.2369(9)
H11 H 0.6890 0.6634 -0.2190
H12 H 0.8511 0.7085 -0.2717
H13 H 0.6912 0.7744 -0.2766
C25 C 0.7518(11) 0.2642(6) 0.1977(9)
H14 H 0.6845 0.2284 0.2541
H15 H 0.8506 0.2265 0.1938
H16 H 0.6968 0.2798 0.1421
C26 C 0.5712(17) 0.3383(9) 0.4016(9)
H17 H 0.5537 0.3743 0.4413
H18 H 0.6818 0.3107 0.4048
C27 C 0.7843(11) 0.7279(7) -0.1472(7)
H19 H 0.8568 0.6742 -0.1121
H20 H 0.8390 0.7857 -0.1664
C28 C 0.458(2) 0.2575(9) 0.4424(9)
H21 H 0.3483 0.2841 0.4387
H22 H 0.4756 0.2186 0.5080
H23 H 0.4794 0.2188 0.4061
C29 C 0.5578(14) 0.9122(6) -0.1422(8)
H24 H 0.6674 0.9178 -0.1728
H25 H 0.5423 0.9502 -0.1045
C30 C 0.1600(14) 0.6815(8) 0.4146(8)
H26 H 0.2307 0.6291 0.4534
H27 H 0.1807 0.7388 0.4212
C31 C 0.4397(15) 0.9533(7) -0.2202(9)
H28 H 0.4814 0.9361 -0.2726
H29 H 0.4272 1.0217 -0.2426
H30 H 0.3368 0.9276 -0.1939
C32 C -0.0107(16) 0.6600(12) 0.4493(9)
H31 H -0.0808 0.7134 0.4133
H32 H -0.0297 0.6486 0.5159
H33 H -0.0320 0.6042 0.4413
N4 N -0.2028(17) 0.8731(10) 0.0311(10)
O2 O -0.3204(14) 0.9215(7) 0.0554(9)
O3 O -0.1046(16) 0.8907(7) -0.0412(8)
C33 C -0.0109(14) 0.9165(8) 0.2153(10)
H34 H -0.0257 0.9397 0.1486
H35 H -0.0393 0.9674 0.2365
H36 H -0.0785 0.8650 0.2516
C34 C 0.1585(12) 0.8820(7) 0.2294(8)
H37 H 0.1847 0.8836 0.2880
H38 H 0.2278 0.9237 0.1766
O4 O -0.4554(12) 0.7020(10) 0.3604(9)
O5 O -0.3319(13) 0.5470(8) 0.4157(7)
N5 N -0.3670(15) 0.6251(10) 0.3607(9)
loop_
_geom_bond_atom_site_label_1
_geom_bond_atom_site_label_2
_geom_bond_site_symmetry_1
_geom_bond_site_symmetry_2
O1 C18 1_555 1_555
N1 C6 1_555 1_555
N2 C4 1_555 1_555
N3 C17 1_555 1_555
C1 H1 1_555 1_555
C2 H2 1_555 1_555
C3 C5 1_555 1_555
C4 C2 1_555 1_555
C5 H3 1_555 1_555
C6 C1 1_555 1_555
C7 N2 1_555 1_555
C8 C3 1_555 1_555
H4 C8 1_555 1_555
C9 C8 1_555 1_555
C10 N1 1_555 1_555
C11 C9 1_555 1_555
H5 C11 1_555 1_555
C12 C13 1_555 1_555
C13 C17 1_555 1_555
C14 C7 1_555 1_555
C15 C10 1_555 1_555
H6 C15 1_555 1_555
C16 C5 1_555 1_555
C17 C2 1_555 1_555
C18 C3 1_555 1_555
H7 C18 1_555 1_555
H8 C18 1_555 1_555
C19 C10 1_555 1_555
C20 C4 1_555 1_555
C21 C6 1_555 1_555
C22 N3 1_555 1_555
B1 O1 1_555 1_555
C23 C14 1_555 1_555
H9 C23 1_555 1_555
H10 C23 1_555 1_555
C24 H11 1_555 1_555
H12 C24 1_555 1_555
H13 C24 1_555 1_555
C25 C23 1_555 1_555
H14 C25 1_555 1_555
H15 C25 1_555 1_555
H16 C25 1_555 1_555
C26 C20 1_555 1_555
H17 C26 1_555 1_555
H18 C26 1_555 1_555
C27 C21 1_555 1_555
H19 C27 1_555 1_555
H20 C27 1_555 1_555
C28 C26 1_555 1_555
H21 C28 1_555 1_555
H22 C28 1_555 1_555
H23 C28 1_555 1_555
C29 C19 1_555 1_555
H24 C29 1_555 1_555
H25 C29 1_555 1_555
C30 C13 1_555 1_555
H26 C30 1_555 1_555
H27 C30 1_555 1_555
C31 C29 1_555 1_555
H28 C31 1_555 1_555
H29 C31 1_555 1_555
H30 C31 1_555 1_555
C32 C30 1_555 1_555
H31 C32 1_555 1_555
H32 C32 1_555 1_555
H33 C32 1_555 1_555
N4 C16 1_555 1_555
O2 N4 1_555 1_555
O3 N4 1_555 1_555
C33 H34 1_555 1_555
H35 C33 1_555 1_555
H36 C33 1_555 1_555
C34 C12 1_555 1_555
H37 C34 1_555 1_555
H38 C34 1_555 1_555
O4 N5 1_555 1_555
O5 N5 1_555 1_555
N5 C9 1_555 1_555
N1 B1 1_555 1_555
N2 B1 1_555 1_555
N3 B1 1_555 1_555
C1 C7 1_555 1_555
C11 C16 1_555 1_555
C12 C22 1_555 1_555
C14 C20 1_555 1_555
C15 C22 1_555 1_555
C19 C21 1_555 1_555
C24 C27 1_555 1_555
C33 C34 1_555 1_555

#END
