
#######################################################################
#
#                 Cambridge Crystallographic Data Centre
#                                CCDC 
#
#######################################################################
#
# If this CIF has been generated from an entry in the Cambridge 
# Structural Database, then it will include bibliographic, chemical, 
# crystal, experimental, refinement or atomic coordinate data resulting 
# from the CCDC's data processing and validation procedures.
#
#######################################################################

data_QUTBUC
_chemical_formula_moiety         'C8 H3 Cl4 N3 S2'
_chemical_name_systematic        
2-((Dichlorosulfanylidene)amino)-3-(chlorosulfenyl)-6-chloroquinoxaline
_symmetry_cell_setting           monoclinic
_symmetry_space_group_name_H-M   'C 2/c'
_symmetry_Int_Tables_number      15
_space_group_name_Hall           '-C 2yn'
loop_
_symmetry_equiv_pos_site_id
_symmetry_equiv_pos_as_xyz
1 x,y,z
2 1/2+x,1/2+y,z
3 -x,y,1/2-z
4 1/2-x,1/2+y,1/2-z
5 -x,-y,-z
6 1/2-x,1/2-y,-z
7 x,-y,1/2+z
8 1/2+x,1/2-y,1/2+z
_cell_length_a                   30.561(5)
_cell_length_b                   4.9764(9)
_cell_length_c                   22.247(4)
_cell_angle_alpha                90
_cell_angle_beta                 131.822(14)
_cell_angle_gamma                90
_cell_volume                     2521.38
_exptl_crystal_colour            'dark orange'
_exptl_crystal_description       block
_chemical_melting_point          'decomposes above 85 deg.C'
_cell_formula_units_Z            8
_exptl_crystal_recrystallization_method 
'heated at reflux in acetonitrile with excess sulfur monochloride'
loop_
_atom_site_label
_atom_site_type_symbol
_atom_site_fract_x
_atom_site_fract_y
_atom_site_fract_z
Cl1 Cl 0.79309(5) 0.1306(3) 0.09622(7)
Cl2 Cl 0.88556(8) 0.5258(3) 0.23124(9)
Cl3 Cl 1.02173(5) -0.0952(3) 0.08527(7)
Cl4 Cl 0.81602(6) 0.9892(3) -0.22160(7)
S1 S 0.88372(5) 0.14572(22) 0.18842(6)
S2 S 0.98462(4) -0.04441(25) 0.13160(6)
N1 N 0.91253(15) 0.1494(8) 0.15426(19)
N2 N 0.86016(14) 0.4810(7) 0.05206(19)
N3 N 0.92552(14) 0.3196(7) 0.00951(18)
C1 C 0.89967(17) 0.2938(9) 0.09011(22)
C2 C 0.93338(17) 0.2130(9) 0.06944(22)
C3 C 0.88368(17) 0.5176(8) -0.03221(22)
C4 C 0.87266(18) 0.6409(9) -0.09818(23)
C5 C 0.83157(18) 0.8366(9) -0.13882(22)
C6 C 0.79967(18) 0.9210(9) -0.11774(23)
C7 C 0.80974(18) 0.8052(9) -0.05439(24)
C8 C 0.85159(17) 0.5991(9) -0.01096(21)
H1 H 0.893 0.586 -0.114
H2 H 0.771 1.060 -0.148
H3 H 0.789 0.863 -0.039
loop_
_geom_bond_atom_site_label_1
_geom_bond_atom_site_label_2
_geom_bond_site_symmetry_1
_geom_bond_site_symmetry_2
Cl1 S1 1_555 1_555
Cl2 S1 1_555 1_555
Cl3 S2 1_555 1_555
Cl4 C5 1_555 1_555
S1 N1 1_555 1_555
S2 C2 1_555 1_555
N1 C1 1_555 1_555
N2 C1 1_555 1_555
N3 C2 1_555 1_555
C1 C2 1_555 1_555
C3 N3 1_555 1_555
C4 C3 1_555 1_555
C5 C4 1_555 1_555
C6 C5 1_555 1_555
C7 C6 1_555 1_555
C8 N2 1_555 1_555
H1 C4 1_555 1_555
H2 C6 1_555 1_555
H3 C7 1_555 1_555
C3 C8 1_555 1_555
C7 C8 1_555 1_555

#END
