
#######################################################################
#
#                 Cambridge Crystallographic Data Centre
#                                CCDC 
#
#######################################################################
#
# If this CIF has been generated from an entry in the Cambridge 
# Structural Database, then it will include bibliographic, chemical, 
# crystal, experimental, refinement or atomic coordinate data resulting 
# from the CCDC's data processing and validation procedures.
#
#######################################################################

data_QUTCAJ
_chemical_formula_moiety         'C8 H2 Cl5 N3 S2'
_chemical_name_systematic        
2-((Dichlorosulfanylidene)amino)-3-(chlorosulfenyl)-6,8-dichloroquinoxaline
_symmetry_cell_setting           orthorhombic
_symmetry_space_group_name_H-M   'P n m a'
_symmetry_Int_Tables_number      62
_space_group_name_Hall           '-P 2ac 2n'
loop_
_symmetry_equiv_pos_site_id
_symmetry_equiv_pos_as_xyz
1 x,y,z
2 1/2+x,1/2-y,1/2-z
3 -x,1/2+y,-z
4 1/2-x,-y,1/2+z
5 -x,-y,-z
6 1/2-x,1/2+y,1/2+z
7 x,1/2-y,z
8 1/2+x,y,1/2-z
_cell_length_a                   18.627(12)
_cell_length_b                   6.848(4)
_cell_length_c                   10.926(7)
_cell_angle_alpha                90
_cell_angle_beta                 90
_cell_angle_gamma                90
_cell_volume                     1393.7
_exptl_crystal_colour            yellow
_exptl_crystal_description       needle
_chemical_melting_point          '120 deg.C'
_cell_formula_units_Z            4
_exptl_crystal_recrystallization_method 'chlorinated acetonitrile'
loop_
_atom_site_label
_atom_site_type_symbol
_atom_site_fract_x
_atom_site_fract_y
_atom_site_fract_z
Cl1 Cl 0.22216(12) 0.5267(3) 0.01715(20)
Cl2 Cl 0.36758(18) 0.75000 -0.2562(3)
Cl3 Cl 0.65413(16) 0.75000 -0.2359(3)
Cl4 Cl 0.53146(17) 0.75000 0.4180(3)
S1 S 0.42963(15) 0.75000 0.36154(24)
S2 S 0.23537(15) 0.75000 0.1456(3)
N1 N 0.3752(4) 0.75000 0.0134(7)
N2 N 0.5043(4) 0.75000 0.1514(7)
N3 N 0.3114(5) 0.75000 0.1991(7)
C1 C 0.4398(6) 0.75000 -0.0431(8)
C2 C 0.4448(6) 0.75000 -0.1725(9)
C3 C 0.5100(6) 0.75000 -0.2300(8)
C4 C 0.5727(6) 0.75000 -0.1619(9)
C5 C 0.5718(5) 0.75000 -0.0329(9)
C6 C 0.5048(5) 0.75000 0.0257(9)
C7 C 0.4402(6) 0.75000 0.2024(8)
C8 C 0.3754(5) 0.75000 0.1331(9)
H1 H 0.512 0.750 -0.317
H2 H 0.616 0.750 0.009
Cl1F Cl 0.22216(12) 0.9733(3) 0.01715(20)
loop_
_geom_bond_atom_site_label_1
_geom_bond_atom_site_label_2
_geom_bond_site_symmetry_1
_geom_bond_site_symmetry_2
Cl1 S2 1_555 1_555
Cl2 C2 1_555 1_555
Cl3 C4 1_555 1_555
Cl4 S1 1_555 1_555
S1 C7 1_555 1_555
S2 N3 1_555 1_555
N1 C1 1_555 1_555
N2 C6 1_555 1_555
N3 C8 1_555 1_555
C1 C2 1_555 1_555
C2 C3 1_555 1_555
C3 C4 1_555 1_555
C4 C5 1_555 1_555
C5 C6 1_555 1_555
C6 C1 1_555 1_555
C7 N2 1_555 1_555
C8 N1 1_555 1_555
H1 C3 1_555 1_555
H2 C5 1_555 1_555
Cl1F S2 1_555 1_555
C7 C8 1_555 1_555

#END
