
#######################################################################
#
#                 Cambridge Crystallographic Data Centre
#                                CCDC 
#
#######################################################################
#
# If this CIF has been generated from an entry in the Cambridge 
# Structural Database, then it will include bibliographic, chemical, 
# crystal, experimental, refinement or atomic coordinate data resulting 
# from the CCDC's data processing and validation procedures.
#
#######################################################################

data_QUTDIU
_chemical_formula_moiety         'C24 H20 B1 1-,C10 H20 N3 O2 1+'
_chemical_name_systematic        
'2-(dimethylamino)-3-(ethoxycarbonyl)-1-methyl-3,4,5,6-tetrahydropyrimidin-1-ium tetraphenylborate'
_symmetry_cell_setting           monoclinic
_symmetry_space_group_name_H-M   'P 21/c'
_symmetry_Int_Tables_number      14
_space_group_name_Hall           '-P 2ybc'
loop_
_symmetry_equiv_pos_site_id
_symmetry_equiv_pos_as_xyz
1 x,y,z
2 -x,1/2+y,1/2-z
3 -x,-y,-z
4 x,1/2-y,1/2+z
_cell_length_a                   18.5710(5)
_cell_length_b                   19.2164(7)
_cell_length_c                   18.6107(5)
_cell_angle_alpha                90
_cell_angle_beta                 119.280(2)
_cell_angle_gamma                90
_cell_volume                     5793.03
_exptl_crystal_colour            colorless
_exptl_crystal_description       block
_cell_formula_units_Z            8
loop_
_atom_site_label
_atom_site_type_symbol
_atom_site_fract_x
_atom_site_fract_y
_atom_site_fract_z
N1 N 0.79842(9) 0.55416(8) -0.00502(9)
N2 N 0.81433(9) 0.67471(8) 0.00009(9)
N3 N 0.72182(9) 0.62582(8) 0.03487(9)
C1 C 0.77986(10) 0.61714(9) 0.00972(10)
C2 C 0.87832(12) 0.53755(11) 0.00129(11)
H1 H 0.8711 0.5301 -0.0540
H2 H 0.9006 0.4952 0.0342
H3 H 0.9167 0.5762 0.0279
C3 C 0.74394(12) 0.49416(9) -0.02357(12)
H4 H 0.7667 0.4625 0.0238
H5 H 0.7395 0.4697 -0.0718
H6 H 0.6891 0.5099 -0.0351
C4 C 0.83819(13) 0.68127(11) -0.06387(12)
H7 H 0.8189 0.6404 -0.0999
H8 H 0.8984 0.6845 -0.0380
H9 H 0.8132 0.7233 -0.0964
C5 C 0.79627(12) 0.73980(10) 0.03049(12)
H10 H 0.8229 0.7799 0.0193
H11 H 0.8172 0.7369 0.0906
C6 C 0.70353(12) 0.74823(10) -0.01491(12)
H12 H 0.6826 0.7484 -0.0751
H13 H 0.6881 0.7929 0.0005
C7 C 0.66602(11) 0.68779(9) 0.00827(11)
H14 H 0.6558 0.7023 0.0536
H15 H 0.6123 0.6751 -0.0397
C8 C 0.71983(11) 0.58034(9) 0.09302(11)
O1 O 0.77527(8) 0.54207(7) 0.13625(8)
O2 O 0.64801(8) 0.58761(7) 0.09186(8)
C9 C 0.63793(12) 0.54654(10) 0.15269(12)
H16 H 0.5975 0.5697 0.1650
H17 H 0.6913 0.5439 0.2045
C10 C 0.60852(13) 0.47449(11) 0.12107(13)
H18 H 0.5553 0.4771 0.0702
H19 H 0.6020 0.4479 0.1625
H20 H 0.6490 0.4513 0.1098
N4 N 0.63551(9) 0.36665(8) 0.40962(9)
N5 N 0.73941(10) 0.38338(8) 0.54432(9)
N6 N 0.77452(9) 0.36757(8) 0.44206(9)
C11 C 0.71453(11) 0.37415(9) 0.46510(10)
C12 C 0.60942(11) 0.32737(10) 0.33341(11)
H21 H 0.5936 0.3598 0.2875
H22 H 0.5621 0.2980 0.3227
H23 H 0.6551 0.2980 0.3391
C13 C 0.56893(11) 0.40535(10) 0.41317(11)
H24 H 0.5341 0.3729 0.4232
H25 H 0.5354 0.4294 0.3607
H26 H 0.5930 0.4395 0.4579
C14 C 0.68755(14) 0.36456(12) 0.58036(12)
H27 H 0.6620 0.4066 0.5878
H28 H 0.7215 0.3422 0.6339
H29 H 0.6444 0.3322 0.5436
C15 C 0.82339(12) 0.40587(12) 0.60501(12)
H30 H 0.8453 0.3740 0.6529
H31 H 0.8204 0.4530 0.6248
C16 C 0.88247(13) 0.40729(11) 0.57137(13)
H32 H 0.8796 0.4529 0.5453
H33 H 0.9397 0.4002 0.6164
C17 C 0.85854(11) 0.35009(10) 0.50887(11)
H34 H 0.8977 0.3477 0.4872
H35 H 0.8584 0.3046 0.5338
C18 C 0.76607(11) 0.40591(9) 0.37379(10)
O3 O 0.70768(8) 0.44185(7) 0.33087(7)
O4 O 0.83231(8) 0.39572(7) 0.36536(8)
C19 C 0.83792(12) 0.43919(10) 0.30418(11)
H36 H 0.7827 0.4434 0.2549
H37 H 0.8754 0.4171 0.2872
C20 C 0.86987(13) 0.51034(10) 0.33867(12)
H38 H 0.8303 0.5338 0.3509
H39 H 0.8771 0.5377 0.2982
H40 H 0.9230 0.5059 0.3893
B1 B 0.98280(12) 0.63490(10) 0.78042(11)
C21 C 0.98217(10) 0.64626(9) 0.69255(10)
C22 C 1.01083(11) 0.70816(10) 0.67468(11)
H41 H 1.0341 0.7430 0.7161
C23 C 1.00657(11) 0.72050(10) 0.59924(11)
H42 H 1.0278 0.7626 0.5903
C24 C 0.97130(11) 0.67145(10) 0.53708(10)
H43 H 0.9684 0.6794 0.4854
C25 C 0.94022(11) 0.61059(10) 0.55120(11)
H44 H 0.9148 0.5770 0.5086
C26 C 0.94618(11) 0.59863(9) 0.62756(10)
H45 H 0.9249 0.5563 0.6360
C27 C 1.07086(10) 0.65452(9) 0.86183(10)
C28 C 1.14423(11) 0.67309(9) 0.86286(10)
H46 H 1.1443 0.6760 0.8119
C29 C 1.21742(11) 0.68755(9) 0.93552(11)
H47 H 1.2658 0.7000 0.9333
C30 C 1.21940(11) 0.68370(9) 1.01061(11)
H48 H 1.2688 0.6937 1.0603
C31 C 1.14793(11) 0.66496(9) 1.01231(11)
H49 H 1.1484 0.6617 1.0635
C32 C 1.07584(11) 0.65097(9) 0.93950(10)
H50 H 1.0278 0.6385 0.9423
C33 C 0.90974(10) 0.68769(9) 0.77216(10)
C34 C 0.82648(11) 0.67327(9) 0.71577(10)
H51 H 0.8133 0.6307 0.6862
C35 C 0.76280(11) 0.71868(10) 0.70163(11)
H52 H 0.7074 0.7065 0.6636
C36 C 0.77995(11) 0.78203(10) 0.74298(11)
H53 H 0.7367 0.8134 0.7338
C37 C 0.86115(12) 0.79827(10) 0.79769(11)
H54 H 0.8740 0.8417 0.8256
C38 C 0.92447(11) 0.75190(9) 0.81246(11)
H55 H 0.9796 0.7643 0.8512
C39 C 0.96464(10) 0.55282(9) 0.79114(10)
C40 C 1.01674(11) 0.50062(10) 0.78853(11)
H56 H 1.0613 0.5141 0.7801
C41 C 1.00571(12) 0.43049(10) 0.79772(11)
H57 H 1.0417 0.3970 0.7945
C42 C 0.94228(13) 0.40910(10) 0.81155(11)
H58 H 0.9343 0.3611 0.8175
C43 C 0.89074(12) 0.45828(10) 0.81660(11)
H59 H 0.8475 0.4442 0.8268
C44 C 0.90227(11) 0.52917(9) 0.80670(11)
H60 H 0.8664 0.5623 0.8107
B2 B 0.46587(12) 0.61087(10) 0.28109(11)
C45 C 0.54736(10) 0.59612(9) 0.37117(10)
C46 C 0.62523(11) 0.57874(9) 0.38126(11)
H61 H 0.6325 0.5783 0.3342
C47 C 0.69209(11) 0.56207(10) 0.45750(12)
H62 H 0.7439 0.5509 0.4618
C48 C 0.68321(12) 0.56176(10) 0.52710(12)
H63 H 0.7289 0.5509 0.5794
C49 C 0.60724(13) 0.57734(10) 0.51991(11)
H64 H 0.6003 0.5766 0.5672
C50 C 0.54087(11) 0.59417(10) 0.44328(11)
H65 H 0.4892 0.6048 0.4396
C51 C 0.42408(10) 0.53399(9) 0.24948(10)
C52 C 0.45417(11) 0.48859(9) 0.21120(10)
H66 H 0.4961 0.5047 0.2001
C53 C 0.42506(12) 0.42088(10) 0.18881(11)
H67 H 0.4472 0.3919 0.1630
C54 C 0.36389(12) 0.39573(10) 0.20406(11)
H68 H 0.3433 0.3498 0.1881
C55 C 0.33328(12) 0.43817(10) 0.24267(11)
H69 H 0.2921 0.4211 0.2544
C56 C 0.36271(11) 0.50610(10) 0.26462(11)
H70 H 0.3404 0.5345 0.2907
C57 C 0.40442(10) 0.66896(9) 0.28797(10)
C58 C 0.31882(11) 0.67108(9) 0.23425(10)
H71 H 0.2938 0.6343 0.1958
C59 C 0.26885(11) 0.72536(10) 0.23514(11)
H72 H 0.2112 0.7249 0.1978
C60 C 0.30362(12) 0.77975(10) 0.29049(11)
H73 H 0.2701 0.8166 0.2916
C61 C 0.38795(12) 0.77961(10) 0.34415(11)
H74 H 0.4126 0.8167 0.3822
C62 C 0.43671(11) 0.72523(9) 0.34240(10)
H75 H 0.4944 0.7264 0.3798
C63 C 0.48849(10) 0.64604(9) 0.21412(10)
C64 C 0.55235(11) 0.69427(9) 0.23561(11)
H76 H 0.5889 0.7029 0.2924
C65 C 0.56471(11) 0.73023(10) 0.17738(12)
H77 H 0.6084 0.7630 0.1948
C66 C 0.51356(12) 0.71822(10) 0.09466(12)
H78 H 0.5219 0.7421 0.0546
C67 C 0.44959(11) 0.67064(10) 0.07073(11)
H79 H 0.4138 0.6619 0.0138
C68 C 0.43761(11) 0.63595(10) 0.12913(11)
H80 H 0.3931 0.6039 0.1110
loop_
_geom_bond_atom_site_label_1
_geom_bond_atom_site_label_2
_geom_bond_site_symmetry_1
_geom_bond_site_symmetry_2
N1 C1 1_555 1_555
N2 C1 1_555 1_555
N3 C1 1_555 1_555
C2 N1 1_555 1_555
H1 C2 1_555 1_555
H2 C2 1_555 1_555
H3 C2 1_555 1_555
C3 N1 1_555 1_555
H4 C3 1_555 1_555
H5 C3 1_555 1_555
H6 C3 1_555 1_555
C4 N2 1_555 1_555
H7 C4 1_555 1_555
H8 C4 1_555 1_555
H9 C4 1_555 1_555
C5 N2 1_555 1_555
H10 C5 1_555 1_555
H11 C5 1_555 1_555
C6 C5 1_555 1_555
H12 C6 1_555 1_555
H13 C6 1_555 1_555
C7 N3 1_555 1_555
H14 C7 1_555 1_555
H15 C7 1_555 1_555
C8 N3 1_555 1_555
O1 C8 1_555 1_555
O2 C8 1_555 1_555
C9 O2 1_555 1_555
H16 C9 1_555 1_555
H17 C9 1_555 1_555
C10 C9 1_555 1_555
H18 C10 1_555 1_555
H19 C10 1_555 1_555
H20 C10 1_555 1_555
N4 C11 1_555 1_555
N5 C11 1_555 1_555
N6 C11 1_555 1_555
C12 N4 1_555 1_555
H21 C12 1_555 1_555
H22 C12 1_555 1_555
H23 C12 1_555 1_555
C13 N4 1_555 1_555
H24 C13 1_555 1_555
H25 C13 1_555 1_555
H26 C13 1_555 1_555
C14 N5 1_555 1_555
H27 C14 1_555 1_555
H28 C14 1_555 1_555
H29 C14 1_555 1_555
C15 N5 1_555 1_555
H30 C15 1_555 1_555
H31 C15 1_555 1_555
C16 C15 1_555 1_555
H32 C16 1_555 1_555
H33 C16 1_555 1_555
C17 N6 1_555 1_555
H34 C17 1_555 1_555
H35 C17 1_555 1_555
C18 N6 1_555 1_555
O3 C18 1_555 1_555
O4 C18 1_555 1_555
C19 O4 1_555 1_555
H36 C19 1_555 1_555
H37 C19 1_555 1_555
C20 C19 1_555 1_555
H38 C20 1_555 1_555
H39 C20 1_555 1_555
H40 C20 1_555 1_555
B1 C21 1_555 1_555
C21 C22 1_555 1_555
C22 H41 1_555 1_555
C23 C22 1_555 1_555
H42 C23 1_555 1_555
C24 C23 1_555 1_555
H43 C24 1_555 1_555
C25 C24 1_555 1_555
H44 C25 1_555 1_555
C26 C21 1_555 1_555
H45 C26 1_555 1_555
C27 B1 1_555 1_555
C28 C27 1_555 1_555
H46 C28 1_555 1_555
C29 C28 1_555 1_555
H47 C29 1_555 1_555
C30 C29 1_555 1_555
H48 C30 1_555 1_555
C31 C30 1_555 1_555
H49 C31 1_555 1_555
C32 C27 1_555 1_555
H50 C32 1_555 1_555
C33 B1 1_555 1_555
C34 C33 1_555 1_555
H51 C34 1_555 1_555
C35 C34 1_555 1_555
H52 C35 1_555 1_555
C36 C35 1_555 1_555
H53 C36 1_555 1_555
C37 C36 1_555 1_555
H54 C37 1_555 1_555
C38 C33 1_555 1_555
H55 C38 1_555 1_555
C39 B1 1_555 1_555
C40 C39 1_555 1_555
H56 C40 1_555 1_555
C41 C40 1_555 1_555
H57 C41 1_555 1_555
C42 C41 1_555 1_555
H58 C42 1_555 1_555
C43 C42 1_555 1_555
H59 C43 1_555 1_555
C44 C39 1_555 1_555
H60 C44 1_555 1_555
B2 C45 1_555 1_555
C45 C46 1_555 1_555
C46 H61 1_555 1_555
C47 C46 1_555 1_555
H62 C47 1_555 1_555
C48 C47 1_555 1_555
H63 C48 1_555 1_555
C49 C48 1_555 1_555
H64 C49 1_555 1_555
C50 C45 1_555 1_555
H65 C50 1_555 1_555
C51 B2 1_555 1_555
C52 C51 1_555 1_555
H66 C52 1_555 1_555
C53 C52 1_555 1_555
H67 C53 1_555 1_555
C54 C53 1_555 1_555
H68 C54 1_555 1_555
C55 C54 1_555 1_555
H69 C55 1_555 1_555
C56 C51 1_555 1_555
H70 C56 1_555 1_555
C57 B2 1_555 1_555
C58 C57 1_555 1_555
H71 C58 1_555 1_555
C59 C58 1_555 1_555
H72 C59 1_555 1_555
C60 C59 1_555 1_555
H73 C60 1_555 1_555
C61 C60 1_555 1_555
H74 C61 1_555 1_555
C62 C57 1_555 1_555
H75 C62 1_555 1_555
C63 B2 1_555 1_555
C64 C63 1_555 1_555
H76 C64 1_555 1_555
C65 C64 1_555 1_555
H77 C65 1_555 1_555
C66 C65 1_555 1_555
H78 C66 1_555 1_555
C67 C66 1_555 1_555
H79 C67 1_555 1_555
C68 C63 1_555 1_555
H80 C68 1_555 1_555
C6 C7 1_555 1_555
C16 C17 1_555 1_555
C25 C26 1_555 1_555
C31 C32 1_555 1_555
C37 C38 1_555 1_555
C43 C44 1_555 1_555
C49 C50 1_555 1_555
C55 C56 1_555 1_555
C61 C62 1_555 1_555
C67 C68 1_555 1_555

#END
