
#######################################################################
#
#                 Cambridge Crystallographic Data Centre
#                                CCDC 
#
#######################################################################
#
# If this CIF has been generated from an entry in the Cambridge 
# Structural Database, then it will include bibliographic, chemical, 
# crystal, experimental, refinement or atomic coordinate data resulting 
# from the CCDC's data processing and validation procedures.
#
#######################################################################

data_QUTQOM
_chemical_formula_moiety         'C21 H36 N1 O2 1+,H2 O1,Br1 1-'
_chemical_name_systematic        
'1,3-Dihydroxy-2-[(2S)-6-octyl-1,2,3,4-tetrahydronaphthalen-2-yl]propan-2-aminium bromide monohydrate'
_symmetry_cell_setting           triclinic
_symmetry_space_group_name_H-M   'P 1'
_symmetry_Int_Tables_number      1
_space_group_name_Hall           'P 1'
loop_
_symmetry_equiv_pos_site_id
_symmetry_equiv_pos_as_xyz
1 x,y,z
_cell_length_a                   6.9272(11)
_cell_length_b                   7.1407(11)
_cell_length_c                   23.873(4)
_cell_angle_alpha                84.334(5)
_cell_angle_beta                 82.490(4)
_cell_angle_gamma                73.309(4)
_cell_volume                     1119.09
_exptl_crystal_colour            colorless
_exptl_crystal_description       needle
_cell_formula_units_Z            2
loop_
_atom_site_label
_atom_site_type_symbol
_atom_site_fract_x
_atom_site_fract_y
_atom_site_fract_z
Br1 Br 0.7156(2) 0.3505(2) 0.37323(9)
C1 C 0.229(3) 0.724(3) 0.3047(10)
H1 H 0.3676 0.6546 0.2886
H2 H 0.1903 0.6445 0.3383
C2 C 0.227(3) 0.931(3) 0.3225(9)
H3 H 0.0852 0.9934 0.3391
C3 C 0.267(3) 1.058(3) 0.2681(8)
H4 H 0.3911 0.9869 0.2450
H5 H 0.2874 1.1818 0.2783
C4 C 0.079(3) 1.103(2) 0.2337(8)
H6 H -0.0349 1.2028 0.2525
H7 H 0.1139 1.1585 0.1952
C5 C 0.015(3) 0.922(3) 0.2291(8)
C6 C -0.127(3) 0.929(3) 0.1912(7)
H8 H -0.1749 1.0463 0.1687
C7 C -0.202(3) 0.771(3) 0.1853(8)
C8 C -0.137(2) 0.604(2) 0.2210(7)
H9 H -0.1907 0.4964 0.2196
C9 C 0.005(3) 0.589(2) 0.2586(7)
H10 H 0.0483 0.4727 0.2819
C10 C 0.084(3) 0.751(3) 0.2620(8)
C11 C 0.367(4) 0.935(3) 0.3672(11)
N1 N 0.368(3) 0.771(2) 0.4124(8)
H11 H 0.3967 0.8061 0.4453
H12 H 0.4637 0.6609 0.4012
H13 H 0.2440 0.7485 0.4177
C12 C 0.278(4) 1.125(3) 0.4000(11)
H14 H 0.3826 1.1390 0.4227
H15 H 0.2493 1.2392 0.3723
O1 O 0.108(3) 1.127(3) 0.4346(8)
H16 H 0.0130 1.1354 0.4152
C13 C 0.577(4) 0.918(4) 0.3391(12)
H17 H 0.5806 1.0370 0.3145
H18 H 0.6230 0.8033 0.3156
O2 O 0.719(3) 0.892(2) 0.3871(8)
H19 H 0.7783 0.9808 0.3826
C14 C -0.360(3) 0.793(2) 0.1435(7)
H20 H -0.4759 0.9085 0.1526
H21 H -0.2987 0.8177 0.1047
C15 C -0.438(2) 0.614(2) 0.1451(7)
H22 H -0.4954 0.5865 0.1843
H23 H -0.3230 0.4993 0.1348
C16 C -0.606(3) 0.639(3) 0.1040(9)
H24 H -0.7298 0.7395 0.1173
H25 H -0.5563 0.6824 0.0655
C17 C -0.654(3) 0.448(2) 0.1019(8)
H26 H -0.6993 0.4022 0.1405
H27 H -0.5301 0.3476 0.0876
C18 C -0.822(3) 0.472(3) 0.0628(8)
H28 H -0.7800 0.5261 0.0248
H29 H -0.9481 0.5651 0.0785
C19 C -0.861(3) 0.271(3) 0.0574(8)
H30 H -0.7345 0.1788 0.0413
H31 H -0.9001 0.2163 0.0955
C20 C -1.024(4) 0.292(3) 0.0206(10)
H32 H -0.9866 0.3523 -0.0169
H33 H -1.1511 0.3815 0.0376
C21 C -1.062(3) 0.096(3) 0.0126(9)
H34 H -1.1707 0.1173 -0.0116
H35 H -1.1006 0.0364 0.0495
H36 H -0.9374 0.0081 -0.0052
Br2 Br 0.8250(2) 0.6527(2) 0.58138(9)
C22 C 0.369(3) -0.053(2) 0.6754(7)
H37 H 0.2380 -0.0443 0.6989
H38 H 0.4166 -0.1836 0.6599
C23 C 0.335(4) 0.104(3) 0.6266(10)
H39 H 0.4697 0.0919 0.6041
C24 C 0.267(3) 0.309(3) 0.6519(10)
H40 H 0.2330 0.4131 0.6214
H41 H 0.1458 0.3189 0.6796
C25 C 0.445(3) 0.334(3) 0.6817(7)
H42 H 0.5453 0.3694 0.6523
H43 H 0.3906 0.4449 0.7063
C26 C 0.553(3) 0.158(3) 0.7169(9)
C27 C 0.706(3) 0.172(3) 0.7494(7)
H44 H 0.7351 0.2941 0.7500
C28 C 0.806(3) 0.016(2) 0.7789(7)
C29 C 0.779(3) -0.168(2) 0.7741(7)
H45 H 0.8615 -0.2796 0.7932
C30 C 0.635(2) -0.191(2) 0.7421(7)
H46 H 0.6143 -0.3164 0.7408
C31 C 0.521(3) -0.031(3) 0.7123(7)
C32 C 0.192(4) 0.077(3) 0.5861(11)
N2 N 0.171(3) 0.244(2) 0.5394(8)
H47 H 0.1120 0.2155 0.5106
H48 H 0.2959 0.2570 0.5261
H49 H 0.0927 0.3578 0.5539
C33 C -0.029(4) 0.096(4) 0.6126(11)
H50 H -0.0305 -0.0195 0.6389
H51 H -0.0757 0.2137 0.6350
O3 O -0.159(2) 0.1112(19) 0.5740(7)
H52 H -0.1881 0.0046 0.5743
C34 C 0.267(4) -0.113(3) 0.5554(12)
H53 H 0.3047 -0.2258 0.5832
H54 H 0.1585 -0.1292 0.5350
O4 O 0.446(3) -0.105(2) 0.5148(7)
H55 H 0.5471 -0.1956 0.5237
C35 C 0.971(3) 0.028(2) 0.8176(7)
H56 H 0.9259 -0.0066 0.8574
H57 H 1.0997 -0.0721 0.8065
C36 C 1.014(3) 0.225(2) 0.8148(7)
H58 H 0.8886 0.3256 0.8280
H59 H 1.0562 0.2634 0.7751
C37 C 1.183(3) 0.214(2) 0.8523(7)
H60 H 1.1453 0.1645 0.8912
H61 H 1.3109 0.1218 0.8370
C38 C 1.216(3) 0.418(3) 0.8542(9)
H62 H 1.2480 0.4708 0.8152
H63 H 1.0899 0.5096 0.8711
C39 C 1.391(3) 0.403(2) 0.8896(7)
H64 H 1.3637 0.3394 0.9274
H65 H 1.5185 0.3207 0.8708
C40 C 1.414(3) 0.603(3) 0.8964(8)
H66 H 1.2851 0.6856 0.9147
H67 H 1.4408 0.6664 0.8584
C41 C 1.592(3) 0.594(2) 0.9329(8)
H68 H 1.5652 0.5309 0.9708
H69 H 1.7207 0.5131 0.9144
C42 C 1.613(3) 0.794(3) 0.9396(9)
H70 H 1.7240 0.7824 0.9624
H71 H 1.4861 0.8746 0.9586
H72 H 1.6414 0.8569 0.9022
O5 O 0.017(3) 0.642(3) 0.4451(9)
O6 O 0.526(3) 0.368(3) 0.5099(8)
loop_
_geom_bond_atom_site_label_1
_geom_bond_atom_site_label_2
_geom_bond_site_symmetry_1
_geom_bond_site_symmetry_2
C1 H1 1_555 1_555
H2 C1 1_555 1_555
C2 C1 1_555 1_555
H3 C2 1_555 1_555
C3 C2 1_555 1_555
H4 C3 1_555 1_555
H5 C3 1_555 1_555
C4 C3 1_555 1_555
H6 C4 1_555 1_555
H7 C4 1_555 1_555
C5 C4 1_555 1_555
C6 C5 1_555 1_555
H8 C6 1_555 1_555
C7 C6 1_555 1_555
C8 C7 1_555 1_555
H9 C8 1_555 1_555
C9 C8 1_555 1_555
H10 C9 1_555 1_555
C10 C1 1_555 1_555
C11 C2 1_555 1_555
N1 C11 1_555 1_555
H11 N1 1_555 1_555
H12 N1 1_555 1_555
H13 N1 1_555 1_555
C12 C11 1_555 1_555
H14 C12 1_555 1_555
H15 C12 1_555 1_555
O1 C12 1_555 1_555
H16 O1 1_555 1_555
C13 C11 1_555 1_555
H17 C13 1_555 1_555
H18 C13 1_555 1_555
O2 C13 1_555 1_555
H19 O2 1_555 1_555
C14 C7 1_555 1_555
H20 C14 1_555 1_555
H21 C14 1_555 1_555
C15 C14 1_555 1_555
H22 C15 1_555 1_555
H23 C15 1_555 1_555
C16 C15 1_555 1_555
H24 C16 1_555 1_555
H25 C16 1_555 1_555
C17 C16 1_555 1_555
H26 C17 1_555 1_555
H27 C17 1_555 1_555
C18 C17 1_555 1_555
H28 C18 1_555 1_555
H29 C18 1_555 1_555
C19 C18 1_555 1_555
H30 C19 1_555 1_555
H31 C19 1_555 1_555
C20 C19 1_555 1_555
H32 C20 1_555 1_555
H33 C20 1_555 1_555
C21 C20 1_555 1_555
H34 C21 1_555 1_555
H35 C21 1_555 1_555
H36 C21 1_555 1_555
C22 H37 1_555 1_555
H38 C22 1_555 1_555
C23 C22 1_555 1_555
H39 C23 1_555 1_555
C24 C23 1_555 1_555
H40 C24 1_555 1_555
H41 C24 1_555 1_555
C25 C24 1_555 1_555
H42 C25 1_555 1_555
H43 C25 1_555 1_555
C26 C25 1_555 1_555
C27 C26 1_555 1_555
H44 C27 1_555 1_555
C28 C27 1_555 1_555
C29 C28 1_555 1_555
H45 C29 1_555 1_555
C30 C29 1_555 1_555
H46 C30 1_555 1_555
C31 C22 1_555 1_555
C32 C23 1_555 1_555
N2 C32 1_555 1_555
H47 N2 1_555 1_555
H48 N2 1_555 1_555
H49 N2 1_555 1_555
C33 C32 1_555 1_555
H50 C33 1_555 1_555
H51 C33 1_555 1_555
O3 C33 1_555 1_555
H52 O3 1_555 1_555
C34 C32 1_555 1_555
H53 C34 1_555 1_555
H54 C34 1_555 1_555
O4 C34 1_555 1_555
H55 O4 1_555 1_555
C35 C28 1_555 1_555
H56 C35 1_555 1_555
H57 C35 1_555 1_555
C36 C35 1_555 1_555
H58 C36 1_555 1_555
H59 C36 1_555 1_555
C37 C36 1_555 1_555
H60 C37 1_555 1_555
H61 C37 1_555 1_555
C38 C37 1_555 1_555
H62 C38 1_555 1_555
H63 C38 1_555 1_555
C39 C38 1_555 1_555
H64 C39 1_555 1_555
H65 C39 1_555 1_555
C40 C39 1_555 1_555
H66 C40 1_555 1_555
H67 C40 1_555 1_555
C41 C40 1_555 1_555
H68 C41 1_555 1_555
H69 C41 1_555 1_555
C42 C41 1_555 1_555
H70 C42 1_555 1_555
H71 C42 1_555 1_555
H72 C42 1_555 1_555
C5 C10 1_555 1_555
C9 C10 1_555 1_555
C26 C31 1_555 1_555
C30 C31 1_555 1_555

#END
