
#######################################################################
#
#                 Cambridge Crystallographic Data Centre
#                                CCDC 
#
#######################################################################
#
# If this CIF has been generated from an entry in the Cambridge 
# Structural Database, then it will include bibliographic, chemical, 
# crystal, experimental, refinement or atomic coordinate data resulting 
# from the CCDC's data processing and validation procedures.
#
#######################################################################

data_QUTSUV
_chemical_formula_moiety         'C21 H16 O3 S1'
_chemical_name_systematic        5-(methylsulfonyl)-2,3-diphenyl-1-benzofuran
_symmetry_cell_setting           triclinic
_symmetry_space_group_name_H-M   'P -1'
_symmetry_Int_Tables_number      2
_space_group_name_Hall           '-P 1'
loop_
_symmetry_equiv_pos_site_id
_symmetry_equiv_pos_as_xyz
1 x,y,z
2 -x,-y,-z
_cell_length_a                   9.8165(6)
_cell_length_b                   12.2268(10)
_cell_length_c                   14.5725(12)
_cell_angle_alpha                100.954(7)
_cell_angle_beta                 94.518(6)
_cell_angle_gamma                103.585(6)
_cell_volume                     1655.13
_exptl_crystal_colour            'light yellow'
_exptl_crystal_description       plate
_cell_formula_units_Z            4
loop_
_atom_site_label
_atom_site_type_symbol
_atom_site_fract_x
_atom_site_fract_y
_atom_site_fract_z
S1 S 0.18297(7) 0.45694(6) 0.16038(5)
O1 O 0.4193(2) 0.05924(18) 0.13184(15)
O2 O 0.0758(2) 0.4393(2) 0.08179(16)
O3 O 0.1486(2) 0.4893(2) 0.25446(16)
C1 C 0.3561(3) 0.1477(3) 0.1289(2)
C2 C 0.2766(3) 0.1603(3) 0.0510(2)
H1 H 0.2611 0.1068 -0.0077
C3 C 0.2209(3) 0.2552(3) 0.0634(2)
H2 H 0.1656 0.2685 0.0121
C4 C 0.2455(3) 0.3318(3) 0.1511(2)
C5 C 0.3244(3) 0.3181(2) 0.2288(2)
H3 H 0.3395 0.3713 0.2876
C6 C 0.3811(3) 0.2221(2) 0.2172(2)
C7 C 0.4636(3) 0.1747(2) 0.2788(2)
C8 C 0.4852(3) 0.0781(2) 0.2239(2)
C9 C 0.5613(3) -0.0085(3) 0.2378(2)
C10 C 0.6576(3) 0.0079(3) 0.3187(2)
H4 H 0.6775 0.0777 0.3649
C11 C 0.7236(3) -0.0775(3) 0.3312(3)
H5 H 0.7874 -0.0660 0.3867
C12 C 0.6988(3) -0.1790(3) 0.2649(3)
H6 H 0.7427 -0.2378 0.2752
C13 C 0.6091(4) -0.1936(3) 0.1832(3)
H7 H 0.5941 -0.2618 0.1357
C14 C 0.5401(3) -0.1092(3) 0.1697(3)
H8 H 0.4780 -0.1208 0.1134
C15 C 0.5096(3) 0.2251(2) 0.3801(2)
C16 C 0.5729(3) 0.3429(3) 0.4109(2)
H9 H 0.5860 0.3909 0.3664
C17 C 0.6168(3) 0.3903(3) 0.5057(2)
H10 H 0.6588 0.4707 0.5257
C18 C 0.6003(3) 0.3221(3) 0.5712(2)
H11 H 0.6325 0.3549 0.6360
C19 C 0.5360(3) 0.2051(3) 0.5417(2)
H12 H 0.5243 0.1578 0.5866
C20 C 0.4889(3) 0.1570(3) 0.4474(2)
H13 H 0.4424 0.0774 0.4282
C21 C 0.3313(3) 0.5625(3) 0.1469(2)
H14 H 0.3075 0.6368 0.1529
H15 H 0.3602 0.5408 0.0846
H16 H 0.4091 0.5690 0.1958
S2 S 0.31340(7) 0.53396(6) 0.84774(5)
O4 O 0.0872(2) 0.93476(17) 0.85816(15)
O5 O 0.4155(2) 0.5541(2) 0.92920(16)
O6 O 0.3537(2) 0.49655(19) 0.75626(15)
C22 C 0.1499(3) 0.8470(2) 0.8636(2)
C23 C 0.2295(3) 0.8378(3) 0.9434(2)
H17 H 0.2471 0.8943 1.0005
C24 C 0.2815(3) 0.7413(3) 0.9347(2)
H18 H 0.3366 0.7300 0.9870
C25 C 0.2536(3) 0.6601(2) 0.8496(2)
C26 C 0.1746(3) 0.6695(2) 0.7704(2)
H19 H 0.1567 0.6124 0.7136
C27 C 0.1220(3) 0.7678(2) 0.7778(2)
C28 C 0.0355(3) 0.8105(2) 0.7144(2)
C29 C 0.0182(3) 0.9110(2) 0.7664(2)
C30 C -0.0484(3) 1.0021(3) 0.7487(2)
C31 C -0.0800(3) 1.0171(3) 0.6582(3)
H20 H -0.0637 0.9646 0.6057
C32 C -0.1351(4) 1.1081(3) 0.6435(3)
H21 H -0.1558 1.1178 0.5812
C33 C -0.1600(4) 1.1847(3) 0.7196(3)
H22 H -0.1984 1.2466 0.7096
C34 C -0.1289(4) 1.1708(3) 0.8093(3)
H23 H -0.1456 1.2235 0.8614
C35 C -0.0731(3) 1.0802(3) 0.8250(3)
H24 H -0.0520 1.0714 0.8876
C36 C -0.0174(3) 0.7528(2) 0.6158(2)
C37 C 0.0687(3) 0.7024(3) 0.5587(2)
H25 H 0.1630 0.7075 0.5836
C38 C 0.0189(3) 0.6447(3) 0.4662(2)
H26 H 0.0785 0.6099 0.4286
C39 C -0.1173(4) 0.6379(3) 0.4285(2)
H27 H -0.1511 0.5993 0.3650
C40 C -0.2047(3) 0.6879(3) 0.4843(2)
H28 H -0.2983 0.6836 0.4586
C41 C -0.1561(3) 0.7433(3) 0.5761(2)
H29 H -0.2174 0.7759 0.6137
C42 C 0.1618(3) 0.4306(3) 0.8604(2)
H30 H 0.0884 0.4200 0.8075
H31 H 0.1269 0.4570 0.9197
H32 H 0.1855 0.3573 0.8611
loop_
_geom_bond_atom_site_label_1
_geom_bond_atom_site_label_2
_geom_bond_site_symmetry_1
_geom_bond_site_symmetry_2
S1 O2 1_555 1_555
O1 C1 1_555 1_555
O3 S1 1_555 1_555
C1 C2 1_555 1_555
C2 H1 1_555 1_555
C3 C2 1_555 1_555
H2 C3 1_555 1_555
C4 S1 1_555 1_555
C5 C4 1_555 1_555
H3 C5 1_555 1_555
C6 C1 1_555 1_555
C7 C6 1_555 1_555
C8 O1 1_555 1_555
C9 C8 1_555 1_555
C10 C9 1_555 1_555
H4 C10 1_555 1_555
C11 C10 1_555 1_555
H5 C11 1_555 1_555
C12 C11 1_555 1_555
H6 C12 1_555 1_555
C13 C12 1_555 1_555
H7 C13 1_555 1_555
C14 C9 1_555 1_555
H8 C14 1_555 1_555
C15 C7 1_555 1_555
C16 C15 1_555 1_555
H9 C16 1_555 1_555
C17 C16 1_555 1_555
H10 C17 1_555 1_555
C18 C17 1_555 1_555
H11 C18 1_555 1_555
C19 C18 1_555 1_555
H12 C19 1_555 1_555
C20 C15 1_555 1_555
H13 C20 1_555 1_555
C21 S1 1_555 1_555
H14 C21 1_555 1_555
H15 C21 1_555 1_555
H16 C21 1_555 1_555
S2 O5 1_555 1_555
O4 C22 1_555 1_555
O6 S2 1_555 1_555
C22 C23 1_555 1_555
C23 H17 1_555 1_555
C24 C23 1_555 1_555
H18 C24 1_555 1_555
C25 S2 1_555 1_555
C26 C25 1_555 1_555
H19 C26 1_555 1_555
C27 C22 1_555 1_555
C28 C27 1_555 1_555
C29 O4 1_555 1_555
C30 C29 1_555 1_555
C31 C30 1_555 1_555
H20 C31 1_555 1_555
C32 C31 1_555 1_555
H21 C32 1_555 1_555
C33 C32 1_555 1_555
H22 C33 1_555 1_555
C34 C33 1_555 1_555
H23 C34 1_555 1_555
C35 C30 1_555 1_555
H24 C35 1_555 1_555
C36 C28 1_555 1_555
C37 C36 1_555 1_555
H25 C37 1_555 1_555
C38 C37 1_555 1_555
H26 C38 1_555 1_555
C39 C38 1_555 1_555
H27 C39 1_555 1_555
C40 C39 1_555 1_555
H28 C40 1_555 1_555
C41 C36 1_555 1_555
H29 C41 1_555 1_555
C42 S2 1_555 1_555
H30 C42 1_555 1_555
H31 C42 1_555 1_555
H32 C42 1_555 1_555
C3 C4 1_555 1_555
C5 C6 1_555 1_555
C7 C8 1_555 1_555
C13 C14 1_555 1_555
C19 C20 1_555 1_555
C24 C25 1_555 1_555
C26 C27 1_555 1_555
C28 C29 1_555 1_555
C34 C35 1_555 1_555
C40 C41 1_555 1_555

#END
