
#######################################################################
#
#                 Cambridge Crystallographic Data Centre
#                                CCDC 
#
#######################################################################
#
# If this CIF has been generated from an entry in the Cambridge 
# Structural Database, then it will include bibliographic, chemical, 
# crystal, experimental, refinement or atomic coordinate data resulting 
# from the CCDC's data processing and validation procedures.
#
#######################################################################

data_QUTVUX
_chemical_formula_moiety         'C23 H15 N1 O1'
_chemical_name_systematic        5H-Benzo[b]carbazol-6-yl(phenyl)methanone
_symmetry_cell_setting           orthorhombic
_symmetry_space_group_name_H-M   'P 21 21 21'
_symmetry_Int_Tables_number      19
_space_group_name_Hall           'P 2ac 2ab'
loop_
_symmetry_equiv_pos_site_id
_symmetry_equiv_pos_as_xyz
1 x,y,z
2 1/2-x,-y,1/2+z
3 -x,1/2+y,1/2-z
4 1/2+x,1/2-y,-z
_cell_length_a                   5.7905(7)
_cell_length_b                   13.1822(15)
_cell_length_c                   20.613(2)
_cell_angle_alpha                90
_cell_angle_beta                 90
_cell_angle_gamma                90
_cell_volume                     1573.42
_exptl_crystal_colour            colorless
_exptl_crystal_description       prismatic
_cell_formula_units_Z            4
loop_
_atom_site_label
_atom_site_type_symbol
_atom_site_fract_x
_atom_site_fract_y
_atom_site_fract_z
O1 O 0.5859(3) 0.42116(11) 0.16666(8)
N1 N 0.2895(4) 0.26626(13) 0.14972(9)
C1 C 0.1542(4) 0.17931(14) 0.15043(9)
C2 C 0.1889(5) 0.08911(14) 0.18344(10)
H1 H 0.3182 0.0791 0.2094
C3 C 0.0242(5) 0.01515(16) 0.17623(11)
H2 H 0.0432 -0.0463 0.1977
C4 C -0.1701(5) 0.02943(16) 0.13772(11)
H3 H -0.2788 -0.0222 0.1341
C5 C -0.2034(4) 0.11883(15) 0.10492(10)
H4 H -0.3336 0.1284 0.0792
C6 C -0.0378(4) 0.19492(14) 0.11098(10)
C7 C -0.0173(4) 0.29643(14) 0.08476(9)
C8 C 0.1882(4) 0.33891(14) 0.11156(9)
C9 C 0.2543(4) 0.43883(14) 0.10190(9)
C10 C 0.1199(4) 0.49704(14) 0.05632(9)
C11 C -0.0830(4) 0.45355(14) 0.02867(9)
C12 C -0.1498(4) 0.35383(15) 0.04431(10)
H5 H -0.2849 0.3270 0.0270
C13 C 0.1822(4) 0.59532(15) 0.03464(9)
H6 H 0.3170 0.6250 0.0502
C14 C 0.0492(5) 0.64706(16) -0.00840(10)
H7 H 0.0946 0.7116 -0.0214
C15 C -0.1531(5) 0.60592(17) -0.03346(11)
H8 H -0.2436 0.6430 -0.0622
C16 C -0.2173(4) 0.51055(17) -0.01533(10)
H9 H -0.3519 0.4826 -0.0322
C17 C 0.4441(4) 0.47821(15) 0.14187(9)
C18 C 0.4583(4) 0.58878(14) 0.15923(9)
C19 C 0.6584(4) 0.64276(16) 0.14713(10)
H10 H 0.7825 0.6115 0.1266
C20 C 0.6734(5) 0.74299(16) 0.16550(11)
H11 H 0.8050 0.7803 0.1555
C21 C 0.4948(6) 0.78798(17) 0.19854(11)
H12 H 0.5069 0.8553 0.2115
C22 C 0.2982(5) 0.73383(16) 0.21256(11)
H13 H 0.1793 0.7639 0.2360
C23 C 0.2775(4) 0.63498(17) 0.19185(10)
H14 H 0.1420 0.5992 0.1998
H15 H 0.413(3) 0.2786(16) 0.1724(10)
loop_
_geom_bond_atom_site_label_1
_geom_bond_atom_site_label_2
_geom_bond_site_symmetry_1
_geom_bond_site_symmetry_2
O1 C17 1_555 1_555
N1 C1 1_555 1_555
C1 C2 1_555 1_555
C2 H1 1_555 1_555
C3 C2 1_555 1_555
H2 C3 1_555 1_555
C4 C3 1_555 1_555
H3 C4 1_555 1_555
C5 C4 1_555 1_555
H4 C5 1_555 1_555
C6 C1 1_555 1_555
C7 C6 1_555 1_555
C8 N1 1_555 1_555
C9 C8 1_555 1_555
C10 C9 1_555 1_555
C11 C10 1_555 1_555
C12 C7 1_555 1_555
H5 C12 1_555 1_555
C13 C10 1_555 1_555
H6 C13 1_555 1_555
C14 C13 1_555 1_555
H7 C14 1_555 1_555
C15 C14 1_555 1_555
H8 C15 1_555 1_555
C16 C11 1_555 1_555
H9 C16 1_555 1_555
C17 C9 1_555 1_555
C18 C17 1_555 1_555
C19 C18 1_555 1_555
H10 C19 1_555 1_555
C20 C19 1_555 1_555
H11 C20 1_555 1_555
C21 C20 1_555 1_555
H12 C21 1_555 1_555
C22 C21 1_555 1_555
H13 C22 1_555 1_555
C23 C18 1_555 1_555
H14 C23 1_555 1_555
H15 N1 1_555 1_555
C5 C6 1_555 1_555
C7 C8 1_555 1_555
C11 C12 1_555 1_555
C15 C16 1_555 1_555
C22 C23 1_555 1_555

#END
