
#######################################################################
#
#                 Cambridge Crystallographic Data Centre
#                                CCDC 
#
#######################################################################
#
# If this CIF has been generated from an entry in the Cambridge 
# Structural Database, then it will include bibliographic, chemical, 
# crystal, experimental, refinement or atomic coordinate data resulting 
# from the CCDC's data processing and validation procedures.
#
#######################################################################

data_QUTWAE
_chemical_formula_moiety         'C24 H19 N1 O1'
_chemical_name_systematic        
1-Methyl-3-(3-phenyl-1H-isochromen-1-yl)-1H-indole
_symmetry_cell_setting           triclinic
_symmetry_space_group_name_H-M   'P 1'
_symmetry_Int_Tables_number      1
_space_group_name_Hall           'P 1'
loop_
_symmetry_equiv_pos_site_id
_symmetry_equiv_pos_as_xyz
1 x,y,z
_cell_length_a                   5.7855(11)
_cell_length_b                   9.3534(19)
_cell_length_c                   16.804(3)
_cell_angle_alpha                88.170(4)
_cell_angle_beta                 82.400(4)
_cell_angle_gamma                84.589(4)
_cell_volume                     897.154
_exptl_crystal_colour            colorless
_exptl_crystal_description       prismatic
_cell_formula_units_Z            2
loop_
_atom_site_label
_atom_site_type_symbol
_atom_site_fract_x
_atom_site_fract_y
_atom_site_fract_z
O1 O 0.6480(4) -0.0502(3) -0.00472(15)
N1 N 0.3031(6) 0.0181(4) 0.25294(18)
C1 C 0.6259(7) -0.1415(4) 0.0679(2)
H1 H 0.7844 -0.1796 0.0765
C2 C 0.4407(7) -0.0118(4) -0.0344(2)
C3 C 0.2673(7) -0.1003(4) -0.0258(2)
H2 H 0.1247 -0.0708 -0.0437
C4 C 0.3033(7) -0.2416(4) 0.0114(2)
C5 C 0.4934(7) -0.2670(4) 0.0561(2)
C6 C 0.5412(7) -0.4037(4) 0.0887(2)
H3 H 0.6673 -0.4209 0.1178
C7 C 0.4071(8) -0.5138(5) 0.0790(3)
H4 H 0.4414 -0.6042 0.1014
C8 C 0.2181(8) -0.4880(5) 0.0348(3)
H5 H 0.1251 -0.5615 0.0282
C9 C 0.1693(7) -0.3534(5) 0.0011(2)
H6 H 0.0450 -0.3377 -0.0289
C10 C 0.4443(8) 0.1267(5) -0.0806(2)
C11 C 0.2795(9) 0.1652(5) -0.1333(3)
H7 H 0.1647 0.1046 -0.1392
C12 C 0.2874(11) 0.2921(7) -0.1761(3)
H8 H 0.1778 0.3170 -0.2111
C13 C 0.4571(11) 0.3839(6) -0.1676(3)
H9 H 0.4612 0.4699 -0.1969
C14 C 0.6184(10) 0.3474(5) -0.1161(3)
H10 H 0.7305 0.4095 -0.1094
C15 C 0.6147(8) 0.2180(5) -0.0738(3)
H11 H 0.7282 0.1923 -0.0403
C16 C 0.5259(6) -0.0524(4) 0.1396(2)
C17 C 0.3303(7) -0.0769(4) 0.1923(2)
H12 H 0.2314 -0.1479 0.1872
C18 C 0.4751(7) 0.1098(4) 0.2398(2)
C19 C 0.6224(7) 0.0660(4) 0.1690(2)
C20 C 0.8184(8) 0.1441(5) 0.1433(3)
H13 H 0.9170 0.1194 0.0965
C21 C 0.8604(9) 0.2551(5) 0.1877(3)
H14 H 0.9914 0.3046 0.1717
C22 C 0.7103(9) 0.2968(5) 0.2572(3)
H15 H 0.7417 0.3752 0.2854
C23 C 0.5185(9) 0.2250(5) 0.2846(3)
H16 H 0.4211 0.2522 0.3312
C24 C 0.1217(8) 0.0185(5) 0.3228(3)
H17 H 0.1828 -0.0351 0.3662
H18 H -0.0112 -0.0248 0.3089
H19 H 0.0748 0.1156 0.3388
O2 O 1.1237(4) 0.6397(3) 0.54110(14)
N2 N 0.9562(7) 0.1987(4) 0.6379(2)
C25 C 1.1138(7) 0.5730(4) 0.6222(2)
H20 H 1.2635 0.5832 0.6418
C26 C 0.9128(6) 0.6607(4) 0.5124(2)
C27 C 0.7131(6) 0.6911(4) 0.5620(2)
H21 H 0.5700 0.7023 0.5419
C28 C 0.7231(7) 0.7063(4) 0.6471(2)
C29 C 0.9228(6) 0.6529(4) 0.6788(2)
C30 C 0.9431(8) 0.6704(4) 0.7590(2)
H22 H 1.0805 0.6364 0.7792
C31 C 0.7572(9) 0.7390(5) 0.8097(3)
H23 H 0.7691 0.7497 0.8638
C32 C 0.5564(8) 0.7905(5) 0.7786(2)
H24 H 0.4324 0.8361 0.8121
C33 C 0.5359(7) 0.7756(4) 0.6987(2)
H25 H 0.3989 0.8110 0.6787
C34 C 0.9315(7) 0.6512(4) 0.4237(2)
C35 C 0.7542(7) 0.7066(4) 0.3808(2)
H26 H 0.6175 0.7503 0.4086
C36 C 0.7721(8) 0.6997(5) 0.2991(2)
H27 H 0.6502 0.7386 0.2719
C37 C 0.9787(8) 0.6326(5) 0.2567(2)
H28 H 0.9931 0.6259 0.2011
C38 C 1.1551(8) 0.5782(5) 0.2969(2)
H29 H 1.2908 0.5341 0.2687
C39 C 1.1370(7) 0.5869(4) 0.3796(2)
H30 H 1.2613 0.5500 0.4062
C40 C 1.0898(7) 0.4160(4) 0.6168(2)
C41 C 0.9159(8) 0.3402(4) 0.6549(2)
H31 H 0.7865 0.3804 0.6883
C42 C 1.1640(10) 0.1787(5) 0.5871(3)
C43 C 1.2532(8) 0.3132(4) 0.5740(2)
C44 C 1.4694(9) 0.3243(5) 0.5248(3)
H32 H 1.5307 0.4125 0.5152
C45 C 1.5874(11) 0.2002(7) 0.4912(3)
H33 H 1.7321 0.2046 0.4602
C46 C 1.4918(14) 0.0700(7) 0.5035(4)
H34 H 1.5732 -0.0108 0.4789
C47 C 1.2809(13) 0.0543(5) 0.5508(4)
H35 H 1.2194 -0.0342 0.5581
C48 C 0.8143(11) 0.0851(6) 0.6721(3)
H36 H 0.8790 0.0421 0.7179
H37 H 0.8139 0.0133 0.6326
H38 H 0.6568 0.1251 0.6884
loop_
_geom_bond_atom_site_label_1
_geom_bond_atom_site_label_2
_geom_bond_site_symmetry_1
_geom_bond_site_symmetry_2
O1 C1 1_555 1_555
N1 C17 1_555 1_555
C1 H1 1_555 1_555
C2 O1 1_555 1_555
C3 C2 1_555 1_555
H2 C3 1_555 1_555
C4 C3 1_555 1_555
C5 C1 1_555 1_555
C6 C5 1_555 1_555
H3 C6 1_555 1_555
C7 C6 1_555 1_555
H4 C7 1_555 1_555
C8 C7 1_555 1_555
H5 C8 1_555 1_555
C9 C4 1_555 1_555
H6 C9 1_555 1_555
C10 C2 1_555 1_555
C11 C10 1_555 1_555
H7 C11 1_555 1_555
C12 C11 1_555 1_555
H8 C12 1_555 1_555
C13 C12 1_555 1_555
H9 C13 1_555 1_555
C14 C13 1_555 1_555
H10 C14 1_555 1_555
C15 C10 1_555 1_555
H11 C15 1_555 1_555
C16 C1 1_555 1_555
C17 C16 1_555 1_555
H12 C17 1_555 1_555
C18 N1 1_555 1_555
C19 C16 1_555 1_555
C20 C19 1_555 1_555
H13 C20 1_555 1_555
C21 C20 1_555 1_555
H14 C21 1_555 1_555
C22 C21 1_555 1_555
H15 C22 1_555 1_555
C23 C18 1_555 1_555
H16 C23 1_555 1_555
C24 N1 1_555 1_555
H17 C24 1_555 1_555
H18 C24 1_555 1_555
H19 C24 1_555 1_555
O2 C25 1_555 1_555
N2 C41 1_555 1_555
C25 H20 1_555 1_555
C26 O2 1_555 1_555
C27 C26 1_555 1_555
H21 C27 1_555 1_555
C28 C27 1_555 1_555
C29 C25 1_555 1_555
C30 C29 1_555 1_555
H22 C30 1_555 1_555
C31 C30 1_555 1_555
H23 C31 1_555 1_555
C32 C31 1_555 1_555
H24 C32 1_555 1_555
C33 C28 1_555 1_555
H25 C33 1_555 1_555
C34 C26 1_555 1_555
C35 C34 1_555 1_555
H26 C35 1_555 1_555
C36 C35 1_555 1_555
H27 C36 1_555 1_555
C37 C36 1_555 1_555
H28 C37 1_555 1_555
C38 C37 1_555 1_555
H29 C38 1_555 1_555
C39 C34 1_555 1_555
H30 C39 1_555 1_555
C40 C25 1_555 1_555
C41 C40 1_555 1_555
H31 C41 1_555 1_555
C42 N2 1_555 1_555
C43 C40 1_555 1_555
C44 C43 1_555 1_555
H32 C44 1_555 1_555
C45 C44 1_555 1_555
H33 C45 1_555 1_555
C46 C45 1_555 1_555
H34 C46 1_555 1_555
C47 C42 1_555 1_555
H35 C47 1_555 1_555
C48 N2 1_555 1_555
H36 C48 1_555 1_555
H37 C48 1_555 1_555
H38 C48 1_555 1_555
C4 C5 1_555 1_555
C8 C9 1_555 1_555
C14 C15 1_555 1_555
C18 C19 1_555 1_555
C22 C23 1_555 1_555
C28 C29 1_555 1_555
C32 C33 1_555 1_555
C38 C39 1_555 1_555
C42 C43 1_555 1_555
C46 C47 1_555 1_555

#END
