
#######################################################################
#
#                 Cambridge Crystallographic Data Centre
#                                CCDC 
#
#######################################################################
#
# If this CIF has been generated from an entry in the Cambridge 
# Structural Database, then it will include bibliographic, chemical, 
# crystal, experimental, refinement or atomic coordinate data resulting 
# from the CCDC's data processing and validation procedures.
#
#######################################################################

data_QUTYIP
_chemical_formula_moiety         'C12 H24 O6,C6 H7 N2 O2 1+,C2 H3 N1,B1 F4 1-'
_chemical_name_systematic        
'4-Nitroanilinium tetrafluoroborate 18-crown-6 acetonitrile solvate'
_symmetry_cell_setting           orthorhombic
_symmetry_space_group_name_H-M   'P 21 21 21'
_symmetry_Int_Tables_number      19
_space_group_name_Hall           'P 2ac 2ab'
loop_
_symmetry_equiv_pos_site_id
_symmetry_equiv_pos_as_xyz
1 x,y,z
2 1/2-x,-y,1/2+z
3 -x,1/2+y,1/2-z
4 1/2+x,1/2-y,-z
_cell_length_a                   7.7398(9)
_cell_length_b                   16.789(2)
_cell_length_c                   19.811(2)
_cell_angle_alpha                90
_cell_angle_beta                 90
_cell_angle_gamma                90
_cell_volume                     2574.31
_exptl_crystal_colour            yellow
_exptl_crystal_description       block
_cell_formula_units_Z            4
loop_
_atom_site_label
_atom_site_type_symbol
_atom_site_fract_x
_atom_site_fract_y
_atom_site_fract_z
O1 O 0.8157(2) 0.35459(9) 0.14919(8)
C1 C 0.9769(3) 0.37984(16) 0.17632(13)
H1 H 1.0457 0.4066 0.1408
H2 H 1.0428 0.3331 0.1925
O2 O 0.8693(2) 0.39251(9) 0.28776(7)
C2 C 0.9457(3) 0.43602(15) 0.23341(12)
H3 H 1.0562 0.4600 0.2482
H4 H 0.8675 0.4794 0.2188
O3 O 0.6216(2) 0.37427(9) 0.39414(8)
C3 C 0.8806(3) 0.43215(14) 0.35149(12)
H5 H 0.8166 0.4831 0.3498
H6 H 1.0029 0.4438 0.3624
O4 O 0.3547(2) 0.27015(9) 0.35461(8)
C4 C 0.8043(3) 0.37879(15) 0.40428(12)
H7 H 0.8559 0.3250 0.4010
H8 H 0.8293 0.4003 0.4498
O5 O 0.2676(2) 0.23126(9) 0.21914(8)
C5 C 0.5388(4) 0.32144(15) 0.43971(12)
H9 H 0.5429 0.3436 0.4860
H10 H 0.5989 0.2694 0.4398
O6 O 0.5424(2) 0.24573(9) 0.13151(7)
C6 C 0.3556(4) 0.31059(15) 0.41833(12)
H11 H 0.2922 0.2788 0.4524
H12 H 0.2981 0.3630 0.4140
C7 C 0.1843(3) 0.24642(15) 0.33402(13)
H13 H 0.1163 0.2938 0.3206
H14 H 0.1241 0.2199 0.3720
C8 C 0.1997(3) 0.19043(15) 0.27577(13)
H15 H 0.2768 0.1456 0.2880
H16 H 0.0846 0.1683 0.2646
C9 C 0.2833(3) 0.17978(14) 0.16256(12)
H17 H 0.1673 0.1631 0.1469
H18 H 0.3493 0.1315 0.1752
C10 C 0.3756(3) 0.22379(14) 0.10723(12)
H19 H 0.3869 0.1893 0.0669
H20 H 0.3095 0.2720 0.0944
C11 C 0.6594(4) 0.26619(15) 0.07847(11)
H21 H 0.6163 0.3133 0.0536
H22 H 0.6702 0.2213 0.0463
C12 C 0.8308(3) 0.28407(14) 0.10969(12)
H23 H 0.8675 0.2390 0.1386
H24 H 0.9187 0.2917 0.0740
N1 N 0.2707(3) 0.65058(11) 0.17415(11)
N2 N 0.5355(3) 0.34868(11) 0.24819(10)
H25 H 0.6435(16) 0.3556(16) 0.2606(12)
H26 H 0.483(3) 0.3240(15) 0.2819(10)
H27 H 0.528(4) 0.3162(14) 0.2130(10)
O7 O 0.2289(3) 0.66066(10) 0.11543(9)
O8 O 0.2580(3) 0.70193(10) 0.21794(10)
C13 C 0.3384(3) 0.57168(12) 0.19416(11)
C14 C 0.3615(3) 0.55552(13) 0.26148(11)
H28 H 0.3346 0.5943 0.2948
C15 C 0.4252(3) 0.48124(13) 0.27989(11)
H29 H 0.4427 0.4683 0.3261
C16 C 0.4627(3) 0.42639(12) 0.22967(11)
C17 C 0.4371(3) 0.44328(13) 0.16202(11)
H30 H 0.4636 0.4047 0.1285
C18 C 0.3723(3) 0.51715(13) 0.14384(11)
H31 H 0.3518 0.5299 0.0978
F1 F 0.2731(2) 0.39831(9) 0.01931(7)
B1 B 0.3428(4) 0.43745(17) -0.03632(13)
F2 F 0.3829(4) 0.51295(10) -0.01975(9)
F3 F 0.4818(3) 0.39638(14) -0.05837(13)
F4 F 0.2213(3) 0.43707(14) -0.08700(9)
N4 N 0.803(3) 0.5647(5) 0.1018(5)
C19 C 0.8475(5) 0.52125(16) 0.05953(15)
C20 C 0.8684(5) 0.46567(16) 0.00486(13)
H32 H 0.9203 0.4929 -0.0339
H33 H 0.7553 0.4443 -0.0080
H34 H 0.9439 0.4220 0.0193
N3? N 0.885(5) 0.5630(8) 0.1037(6)
loop_
_geom_bond_atom_site_label_1
_geom_bond_atom_site_label_2
_geom_bond_site_symmetry_1
_geom_bond_site_symmetry_2
O1 C1 1_555 1_555
C1 H1 1_555 1_555
H2 C1 1_555 1_555
O2 C2 1_555 1_555
C2 C1 1_555 1_555
H3 C2 1_555 1_555
H4 C2 1_555 1_555
O3 C4 1_555 1_555
C3 O2 1_555 1_555
H5 C3 1_555 1_555
H6 C3 1_555 1_555
O4 C6 1_555 1_555
C4 C3 1_555 1_555
H7 C4 1_555 1_555
H8 C4 1_555 1_555
O5 C8 1_555 1_555
C5 O3 1_555 1_555
H9 C5 1_555 1_555
H10 C5 1_555 1_555
O6 C10 1_555 1_555
C6 C5 1_555 1_555
H11 C6 1_555 1_555
H12 C6 1_555 1_555
C7 O4 1_555 1_555
H13 C7 1_555 1_555
H14 C7 1_555 1_555
C8 C7 1_555 1_555
H15 C8 1_555 1_555
H16 C8 1_555 1_555
C9 O5 1_555 1_555
H17 C9 1_555 1_555
H18 C9 1_555 1_555
C10 C9 1_555 1_555
H19 C10 1_555 1_555
H20 C10 1_555 1_555
C11 O6 1_555 1_555
H21 C11 1_555 1_555
H22 C11 1_555 1_555
C12 O1 1_555 1_555
H23 C12 1_555 1_555
H24 C12 1_555 1_555
N1 O7 1_555 1_555
N2 H25 1_555 1_555
H26 N2 1_555 1_555
H27 N2 1_555 1_555
O8 N1 1_555 1_555
C13 N1 1_555 1_555
C14 C13 1_555 1_555
H28 C14 1_555 1_555
C15 C14 1_555 1_555
H29 C15 1_555 1_555
C16 N2 1_555 1_555
C17 C16 1_555 1_555
H30 C17 1_555 1_555
C18 C13 1_555 1_555
H31 C18 1_555 1_555
F1 B1 1_555 1_555
B1 F2 1_555 1_555
F3 B1 1_555 1_555
F4 B1 1_555 1_555
N4 C19 1_555 1_555
C19 C20 1_555 1_555
C20 H32 1_555 1_555
H33 C20 1_555 1_555
H34 C20 1_555 1_555
C11 C12 1_555 1_555
C15 C16 1_555 1_555
C17 C18 1_555 1_555

#END
