
#######################################################################
#
#                 Cambridge Crystallographic Data Centre
#                                CCDC 
#
#######################################################################
#
# If this CIF has been generated from an entry in the Cambridge 
# Structural Database, then it will include bibliographic, chemical, 
# crystal, experimental, refinement or atomic coordinate data resulting 
# from the CCDC's data processing and validation procedures.
#
#######################################################################

data_QUVFOD
_chemical_formula_moiety         '0.5(C5 H14 N2 2+),Cl2 I1 1-'
_chemical_name_systematic        
'hemikis(2-methylpiperazinediium) dichloro-iodide'
_symmetry_cell_setting           monoclinic
_symmetry_space_group_name_H-M   'P 21'
_symmetry_Int_Tables_number      4
_space_group_name_Hall           'P 2yb'
loop_
_symmetry_equiv_pos_site_id
_symmetry_equiv_pos_as_xyz
1 x,y,z
2 -x,1/2+y,-z
_cell_length_a                   8.476(2)
_cell_length_b                   7.515(2)
_cell_length_c                   11.474(3)
_cell_angle_alpha                90
_cell_angle_beta                 101.90(3)
_cell_angle_gamma                90
_cell_volume                     715.154
_cell_formula_units_Z            4
loop_
_atom_site_label
_atom_site_type_symbol
_atom_site_fract_x
_atom_site_fract_y
_atom_site_fract_z
I1 I 0.95365(3) 0.14315(2) 0.585036(19)
Cl1 Cl 1.25709(11) 0.1430(2) 0.60479(9)
Cl3 Cl 0.64676(12) 0.1391(3) 0.56111(9)
I2 I 0.89369(3) 0.10960(4) 0.93194(2)
Cl2 Cl 1.18159(10) 0.1263(3) 0.93397(9)
Cl4 Cl 0.57439(11) 0.07672(15) 0.92355(8)
C1 C 0.4188(4) 0.1618(6) 0.2289(3)
H1 H 0.3921 0.1918 0.1440
N1 N 0.6140(4) -0.0629(4) 0.1913(3)
H2 H 0.5916 -0.0411 0.1125
H3 H 0.6419 -0.1782 0.2021
C2 C 0.4680(5) -0.0286(5) 0.2405(4)
H4 H 0.4893 -0.0620 0.3239
H5 H 0.3800 -0.1019 0.1988
C3 C 0.7046(6) 0.2431(6) 0.2379(5)
H6 H 0.7927 0.3156 0.2802
H7 H 0.6837 0.2771 0.1546
C4 C 0.2711(5) 0.1950(7) 0.2808(4)
H8 H 0.1828 0.1249 0.2387
H9 H 0.2431 0.3188 0.2733
H10 H 0.2938 0.1623 0.3635
N2 N 0.5574(4) 0.2758(4) 0.2874(3)
H11 H 0.5291 0.3911 0.2770
H12 H 0.5801 0.2536 0.3661
C5 C 0.7515(5) 0.0507(6) 0.2497(4)
H13 H 0.8432 0.0301 0.2130
H14 H 0.7828 0.0196 0.3334
loop_
_geom_bond_atom_site_label_1
_geom_bond_atom_site_label_2
_geom_bond_site_symmetry_1
_geom_bond_site_symmetry_2
I1 Cl1 1_555 1_555
I2 Cl2 1_555 1_555
C1 H1 1_555 1_555
N1 H2 1_555 1_555
H3 N1 1_555 1_555
C2 C1 1_555 1_555
H4 C2 1_555 1_555
H5 C2 1_555 1_555
C3 H6 1_555 1_555
H7 C3 1_555 1_555
C4 C1 1_555 1_555
H8 C4 1_555 1_555
H9 C4 1_555 1_555
H10 C4 1_555 1_555
N2 C1 1_555 1_555
H11 N2 1_555 1_555
H12 N2 1_555 1_555
C5 N1 1_555 1_555
H13 C5 1_555 1_555
H14 C5 1_555 1_555
Cl3 I1 1_555 1_555
Cl4 I2 1_555 1_555
N1 C2 1_555 1_555
C3 N2 1_555 1_555
C3 C5 1_555 1_555

#END
