
#######################################################################
#
#                 Cambridge Crystallographic Data Centre
#                                CCDC 
#
#######################################################################
#
# If this CIF has been generated from an entry in the Cambridge 
# Structural Database, then it will include bibliographic, chemical, 
# crystal, experimental, refinement or atomic coordinate data resulting 
# from the CCDC's data processing and validation procedures.
#
#######################################################################

data_QUVFIX
_chemical_formula_moiety         'C5 H14 N4,6(H2 O1)'
_chemical_name_systematic        '2-Methylpiperazine-1,4-diamine hexahydrate'
_symmetry_cell_setting           monoclinic
_symmetry_space_group_name_H-M   'P 21'
_symmetry_Int_Tables_number      4
_space_group_name_Hall           'P 2yb'
loop_
_symmetry_equiv_pos_site_id
_symmetry_equiv_pos_as_xyz
1 x,y,z
2 -x,1/2+y,-z
_cell_length_a                   7.2962(15)
_cell_length_b                   12.692(3)
_cell_length_c                   7.9192(16)
_cell_angle_alpha                90
_cell_angle_beta                 110.42(3)
_cell_angle_gamma                90
_cell_volume                     687.261
_exptl_crystal_colour            colorless
_exptl_crystal_description       block
_cell_formula_units_Z            2
loop_
_atom_site_label
_atom_site_type_symbol
_atom_site_fract_x
_atom_site_fract_y
_atom_site_fract_z
C1 C 0.1942(5) 0.9184(3) 0.2512(5)
H1 H 0.2968 0.9533 0.2209
H2 H 0.1092 0.9721 0.2708
C2 C 0.0780(5) 0.8485(4) 0.0972(5)
H3 H -0.0285 0.8161 0.1251
H4 H 0.0221 0.8905 -0.0109
C3 C 0.2938(5) 0.7043(3) 0.2312(4)
H5 H 0.3781 0.6505 0.2105
H6 H 0.1924 0.6693 0.2633
C4 C 0.4137(5) 0.7755(3) 0.3868(4)
H7 H 0.5159 0.8106 0.3536
C5 C 0.5098(5) 0.7099(3) 0.5574(4)
H8 H 0.6004 0.7531 0.6481
H9 H 0.5783 0.6516 0.5299
H10 H 0.4110 0.6840 0.6010
N1 N 0.3847(4) 0.9292(3) 0.5600(4)
H11 H 0.4942 0.9502 0.5447
H12 H 0.4142 0.8971 0.6661
N2 N 0.2816(4) 0.8567(2) 0.4173(3)
N3 N 0.2036(4) 0.7659(3) 0.0649(4)
N4 N 0.0953(4) 0.6936(3) -0.0774(4)
H13 H -0.0125 0.6728 -0.0585
H14 H 0.0625 0.7265 -0.1830
O1 O 0.3425(4) 0.5288(3) 0.8638(4)
H15 H 0.2996 0.5117 0.7535
H16 H 0.2712 0.5739 0.8896
O2 O 0.1390(4) 0.0854(3) 0.6361(4)
H17 H 0.2207 0.0481 0.6167
H18 H 0.1901 0.1036 0.7584
O3 O 0.3012(4) 0.1419(3) 0.9958(4)
H19 H 0.3458 0.2011 1.0059
H20 H 0.4098 0.1054 1.0734
O4 O 0.2107(4) 0.4714(3) 0.4980(4)
H21 H 0.1406 0.4122 0.4821
H22 H 0.1032 0.5122 0.4409
O5 O 0.9822(4) 0.7793(2) 0.5387(3)
H23 H 1.0861 0.8012 0.5067
H24 H 0.9274 0.7224 0.4757
O6 O 0.5131(4) 0.8404(2) 0.9521(3)
H25 H 0.4105 0.8228 0.9960
H26 H 0.5735 0.8984 1.0190
loop_
_geom_bond_atom_site_label_1
_geom_bond_atom_site_label_2
_geom_bond_site_symmetry_1
_geom_bond_site_symmetry_2
C1 H1 1_555 1_555
H2 C1 1_555 1_555
C2 C1 1_555 1_555
H3 C2 1_555 1_555
H4 C2 1_555 1_555
C3 H5 1_555 1_555
H6 C3 1_555 1_555
C4 C3 1_555 1_555
H7 C4 1_555 1_555
C5 C4 1_555 1_555
H8 C5 1_555 1_555
H9 C5 1_555 1_555
H10 C5 1_555 1_555
N1 H11 1_555 1_555
H12 N1 1_555 1_555
N2 C1 1_555 1_555
N3 C2 1_555 1_555
N4 N3 1_555 1_555
H13 N4 1_555 1_555
H14 N4 1_555 1_555
O1 H15 1_555 1_555
H16 O1 1_555 1_555
O2 H17 1_555 1_555
H18 O2 1_555 1_555
O3 H19 1_555 1_555
H20 O3 1_555 1_555
O4 H21 1_555 1_555
H22 O4 1_555 1_555
O5 H23 1_555 1_555
H24 O5 1_555 1_555
O6 H25 1_555 1_555
H26 O6 1_555 1_555
C3 N3 1_555 1_555
C4 N2 1_555 1_555
N1 N2 1_555 1_555

#END
