
#######################################################################
#
#                 Cambridge Crystallographic Data Centre
#                                CCDC 
#
#######################################################################
#
# If this CIF has been generated from an entry in the Cambridge 
# Structural Database, then it will include bibliographic, chemical, 
# crystal, experimental, refinement or atomic coordinate data resulting 
# from the CCDC's data processing and validation procedures.
#
#######################################################################

data_QUVPEE
_chemical_formula_moiety         '3(C7 H15 Cl1 N2 2+),4(B1 F4 1-),2(Cl1 1-)'
_chemical_name_systematic        
'tris(1-(chloromethyl)-1,4-diazoniabicyclo[2.2.2]octane) tetrakis(tetrafluoroborate) dichloride'
_symmetry_cell_setting           orthorhombic
_symmetry_space_group_name_H-M   'P n m a'
_symmetry_Int_Tables_number      62
_space_group_name_Hall           '-P 2ac 2n'
loop_
_symmetry_equiv_pos_site_id
_symmetry_equiv_pos_as_xyz
1 x,y,z
2 1/2-x,-y,1/2+z
3 1/2+x,1/2-y,1/2-z
4 -x,1/2+y,-z
5 -x,-y,-z
6 1/2+x,y,1/2-z
7 1/2-x,1/2+y,1/2+z
8 x,1/2-y,z
_cell_length_a                   20.0644(12)
_cell_length_b                   7.3121(4)
_cell_length_c                   25.6369(15)
_cell_angle_alpha                90
_cell_angle_beta                 90
_cell_angle_gamma                90
_cell_volume                     3761.26
_exptl_crystal_colour            colorless
_exptl_crystal_description       rodlike
_cell_formula_units_Z            4
loop_
_atom_site_label
_atom_site_type_symbol
_atom_site_fract_x
_atom_site_fract_y
_atom_site_fract_z
Cl1 Cl 0.47162(11) 0.2500 0.04692(10)
N1 N 0.2446(3) 0.2500 0.1306(2)
N2 N 0.3381(3) 0.2500 0.06530(18)
C1 C 0.2167(4) 0.2500 0.0783(3)
H1 H 0.1889 0.3574 0.0736
C2 C 0.2864(3) 0.4134(8) 0.1381(3)
H2 H 0.3047 0.4131 0.1731
H3 H 0.2594 0.5225 0.1341
C3 C 0.2719(4) 0.2500 0.0376(3)
H4 H 0.2681 0.1424 0.0156
C4 C 0.3423(2) 0.4160(6) 0.09904(19)
H5 H 0.3391 0.5252 0.0777
H6 H 0.3847 0.4181 0.1171
C5 C 0.3898(5) 0.2500 0.0226(3)
H7 H 0.3835 0.3572 0.0009
H1G H 0.1889 0.1426 0.0736
C2G C 0.2864(3) 0.0866(8) 0.1381(3)
H2G H 0.3047 0.0869 0.1731
H3G H 0.2594 -0.0225 0.1341
H4G H 0.2681 0.3576 0.0156
C4G C 0.3423(2) 0.0840(6) 0.09904(19)
H5G H 0.3391 -0.0252 0.0777
H6G H 0.3847 0.0819 0.1171
H7G H 0.3835 0.1428 0.0009
Cl2 Cl 0.51391(10) 0.2500 0.90726(8)
N3 N 0.3080(3) 0.2500 0.7987(2)
N4 N 0.4279(2) 0.2500 0.82582(17)
C6 C 0.3506(3) 0.2500 0.7511(2)
H11 H 0.3413 0.3576 0.7302
C7 C 0.3226(2) 0.4185(6) 0.83030(18)
H12 H 0.3139 0.5268 0.8096
H13 H 0.2939 0.4219 0.8608
C8 C 0.4223(4) 0.2500 0.7679(2)
H14 H 0.4445 0.1427 0.7540
C9 C 0.3927(3) 0.4156(7) 0.8466(3)
H15 H 0.3952 0.4158 0.8844
H16 H 0.4149 0.5250 0.8339
C10 C 0.5007(3) 0.2500 0.8386(3)
H17 H 0.5215 0.3573 0.8235
H11G H 0.3413 0.1424 0.7302
H14G H 0.4445 0.3573 0.7540
H17G H 0.5215 0.1427 0.8235
C7G C 0.3226(2) 0.0815(6) 0.83030(18)
H12G H 0.3139 -0.0268 0.8096
H13G H 0.2939 0.0781 0.8608
C9G C 0.3927(3) 0.0844(7) 0.8466(3)
H15G H 0.3952 0.0842 0.8844
H16G H 0.4149 -0.0250 0.8339
Cl3 Cl 0.48372(8) 0.7500 0.50422(6)
N5 N 0.5551(3) 0.7500 0.68999(17)
N6 N 0.5579(2) 0.7500 0.59231(15)
C11 C 0.5197(2) 0.5844(5) 0.67005(15)
H21 H 0.4737 0.5861 0.6816
H22 H 0.5407 0.4750 0.6838
C12 C 0.6254(3) 0.7500 0.6723(2)
H23 H 0.6480 0.6425 0.6856
C13 C 0.5224(2) 0.5820(6) 0.61162(15)
H24 H 0.4775 0.5789 0.5976
H25 H 0.5456 0.4733 0.5998
C14 C 0.6274(3) 0.7500 0.6135(2)
H26 H 0.6510 0.8575 0.6012
C15 C 0.5631(3) 0.7500 0.53344(19)
H27 H 0.5876 0.6427 0.5222
H26G H 0.6510 0.6425 0.6012
C11G C 0.5197(2) 0.9156(5) 0.67005(15)
H21G H 0.4737 0.9139 0.6816
H22G H 0.5407 1.0250 0.6838
H23G H 0.6480 0.8575 0.6856
C13G C 0.5224(2) 0.9180(6) 0.61162(15)
H24G H 0.4775 0.9211 0.5976
H25G H 0.5456 1.0267 0.5998
H27G H 0.5876 0.8573 0.5222
Cl4 Cl 0.35299(8) 0.7500 0.71983(7)
Cl5 Cl 0.53338(9) 0.7500 0.80502(5)
F1 F 0.3193(2) 0.2500 0.6337(2)
F2 F 0.4316(2) 0.2500 0.64546(17)
F3 F 0.38432(17) 0.0981(5) 0.57757(14)
B1 B 0.3792(3) 0.2500 0.6098(2)
F3G F 0.38432(17) 0.4019(5) 0.57757(14)
F4 F 0.6207(8) 0.2500 0.6064(6)
F5 F 0.7491(5) 0.2500 0.5747(4)
F6 F 0.6626(2) 0.3992(5) 0.54242(18)
B2 B 0.6764(5) 0.2500 0.5742(3)
F6G F 0.6626(2) 0.1008(5) 0.54242(18)
F9 F 0.7876(5) 0.7500 0.5889(4)
F10 F 0.8630(3) 0.9048(8) 0.5457(2)
F11 F 0.7936(6) 0.7500 0.5005(4)
B3 B 0.8268(5) 0.7500 0.5453(4)
F10G F 0.8630(3) 0.5952(8) 0.5457(2)
F12 F 0.64497(18) 0.2500 0.81514(14)
F13 F 0.58781(18) 0.2500 0.73894(15)
F14 F 0.68629(14) 0.4029(4) 0.74460(11)
B4 B 0.6504(3) 0.2500 0.7609(2)
F14G F 0.68629(14) 0.0971(4) 0.74460(11)
H8? H 0.1889 0.3574 0.0736
H9? H 0.2681 0.1424 0.0156
H10? H 0.3835 0.3572 0.0009
H18? H 0.3413 0.3576 0.7302
H19? H 0.4445 0.1427 0.7540
H20? H 0.5215 0.3573 0.8235
H28? H 0.6480 0.6425 0.6856
H29? H 0.6510 0.8575 0.6012
H30? H 0.5876 0.6427 0.5222
F7? F 0.6704(8) 0.1960(19) 0.6257(4)
F8? F 0.7238(10) 0.349(3) 0.5775(8)
loop_
_geom_bond_atom_site_label_1
_geom_bond_atom_site_label_2
_geom_bond_site_symmetry_1
_geom_bond_site_symmetry_2
Cl1 C5 1_555 1_555
N1 C1 1_555 1_555
N2 C3 1_555 1_555
C1 H1 1_555 1_555
C2 N1 1_555 1_555
H2 C2 1_555 1_555
H3 C2 1_555 1_555
C3 C1 1_555 1_555
H4 C3 1_555 1_555
C4 N2 1_555 1_555
H5 C4 1_555 1_555
H6 C4 1_555 1_555
C5 N2 1_555 1_555
H7 C5 1_555 1_555
Cl2 C10 1_555 1_555
N3 C6 1_555 1_555
N4 C8 1_555 1_555
C6 H11 1_555 1_555
C7 N3 1_555 1_555
H12 C7 1_555 1_555
H13 C7 1_555 1_555
C8 C6 1_555 1_555
H14 C8 1_555 1_555
C9 N4 1_555 1_555
H15 C9 1_555 1_555
H16 C9 1_555 1_555
C10 N4 1_555 1_555
H17 C10 1_555 1_555
Cl3 C15 1_555 1_555
N5 C11 1_555 1_555
N6 C13 1_555 1_555
C11 H21 1_555 1_555
H22 C11 1_555 1_555
C12 N5 1_555 1_555
H23 C12 1_555 1_555
C13 C11 1_555 1_555
H24 C13 1_555 1_555
H25 C13 1_555 1_555
C14 N6 1_555 1_555
H26 C14 1_555 1_555
C15 N6 1_555 1_555
H27 C15 1_555 1_555
F1 B1 1_555 1_555
F2 B1 1_555 1_555
F3 B1 1_555 1_555
B1 F3G 1_555 1_555
F4 B2 1_555 1_555
F5 B2 1_555 1_555
F6 B2 1_555 1_555
B2 F6G 1_555 1_555
F9 B3 1_555 1_555
F10 B3 1_555 1_555
F11 B3 1_555 1_555
B3 F10G 1_555 1_555
F12 B4 1_555 1_555
F13 B4 1_555 1_555
F14 B4 1_555 1_555
B4 F14G 1_555 1_555
H1G C1 1_555 1_555
C2G N1 1_555 1_555
H2G C2G 1_555 1_555
H3G C2G 1_555 1_555
H4G C3 1_555 1_555
C4G N2 1_555 1_555
H5G C4G 1_555 1_555
H6G C4G 1_555 1_555
H7G C5 1_555 1_555
H11G C6 1_555 1_555
H14G C8 1_555 1_555
H17G C10 1_555 1_555
C7G N3 1_555 1_555
H12G C7G 1_555 1_555
H13G C7G 1_555 1_555
C9G N4 1_555 1_555
H15G C9G 1_555 1_555
H16G C9G 1_555 1_555
H26G C14 1_555 1_555
C11G N5 1_555 1_555
H21G C11G 1_555 1_555
H22G C11G 1_555 1_555
H23G C12 1_555 1_555
C13G N6 1_555 1_555
H24G C13G 1_555 1_555
H25G C13G 1_555 1_555
H27G C15 1_555 1_555
C2 C4 1_555 1_555
C7 C9 1_555 1_555
C12 C14 1_555 1_555
C2G C4G 1_555 1_555
C7G C9G 1_555 1_555
C11G C13G 1_555 1_555

#END
