
#######################################################################
#
#                 Cambridge Crystallographic Data Centre
#                                CCDC 
#
#######################################################################
#
# If this CIF has been generated from an entry in the Cambridge 
# Structural Database, then it will include bibliographic, chemical, 
# crystal, experimental, refinement or atomic coordinate data resulting 
# from the CCDC's data processing and validation procedures.
#
#######################################################################

data_QUWDIX
_chemical_compound_source        'Celastrus flagellaris'
_chemical_name_common            
(1R,2S,4R,5S,7R,9S,10S)-1,15-Diacetoxy-2-benzoyloxy-9-cinnamoyloxy-beta-dihydroagarofuran
_chemical_formula_moiety         'C35 H40 O9'
_chemical_name_systematic        
'5-acetoxy-6-(acetoxymethyl)-7-(cinnamoyloxy)-2,10,10-trimethyl-11-oxatricyclo[7.2.1.0^1,6^]dodec-4-yl benzoate'
_symmetry_cell_setting           orthorhombic
_symmetry_space_group_name_H-M   'P 21 21 21'
_symmetry_Int_Tables_number      19
_space_group_name_Hall           'P 2ac 2ab'
loop_
_symmetry_equiv_pos_site_id
_symmetry_equiv_pos_as_xyz
1 x,y,z
2 1/2+x,1/2-y,-z
3 -x,1/2+y,1/2-z
4 1/2-x,-y,1/2+z
_cell_length_a                   9.1983(2)
_cell_length_b                   18.6272(4)
_cell_length_c                   18.7098(4)
_cell_angle_alpha                90
_cell_angle_beta                 90
_cell_angle_gamma                90
_cell_volume                     3205.71
_exptl_crystal_colour            colorless
_exptl_crystal_description       plate
_chemical_melting_point          '424-428 K'
_cell_formula_units_Z            4
_exptl_crystal_recrystallization_method acetone/water
loop_
_atom_site_label
_atom_site_type_symbol
_atom_site_fract_x
_atom_site_fract_y
_atom_site_fract_z
O1 O 0.66148(14) 0.63080(7) 0.26276(7)
O2 O 0.37662(13) 0.53526(7) 0.05891(6)
O3 O 0.42475(13) 0.63616(7) 0.16555(7)
O4 O 0.28279(17) 0.61018(9) 0.25982(8)
O5 O 0.18552(15) 0.46056(8) 0.05059(7)
O6 O 0.71818(14) 0.48097(7) 0.22674(6)
O7 O 0.78845(14) 0.63932(7) 0.05291(7)
O8 O 0.69763(17) 0.67636(10) -0.05151(8)
O9 O 0.70811(17) 0.74936(8) 0.27006(8)
C1 C 0.5141(2) 0.75022(12) 0.63600(11)
H1 H 0.4919 0.7524 0.6844
C2 C 0.4674(2) 0.69245(12) 0.59521(11)
H2 H 0.4133 0.6560 0.6163
C3 C 0.5008(2) 0.68880(11) 0.52387(11)
H3 H 0.4698 0.6496 0.4972
C4 C 0.5809(2) 0.74321(11) 0.49072(10)
C5 C 0.6207(2) 0.74112(11) 0.41533(10)
H4 H 0.6646 0.7823 0.3975
C6 C 0.6023(2) 0.68802(11) 0.36878(10)
H5 H 0.5524 0.6467 0.3821
C7 C 0.6611(2) 0.69490(11) 0.29640(10)
C8 C 0.7340(2) 0.62828(11) 0.19312(10)
H6 H 0.7263 0.6759 0.1713
C9 C 0.65096(19) 0.57416(10) 0.14476(9)
C10 C 0.4927(2) 0.56594(10) 0.17021(10)
H7 H 0.4955 0.5525 0.2208
C11 C 0.4031(2) 0.50980(11) 0.13146(10)
H8 H 0.3093 0.5054 0.1559
C12 C 0.2580(2) 0.50905(11) 0.02606(10)
C13 C 0.2247(2) 0.54691(11) -0.04177(10)
C14 C 0.1041(2) 0.52422(12) -0.08097(11)
H9 H 0.0492 0.4855 -0.0650
C15 C 0.0659(3) 0.55917(14) -0.14345(12)
H10 H -0.0136 0.5434 -0.1699
C16 C 0.1460(2) 0.61755(13) -0.16660(12)
H11 H 0.1196 0.6414 -0.2083
C17 C 0.5935(2) 0.80424(13) 0.60455(11)
H12 H 0.6250 0.8430 0.6318
C18 C 0.6267(2) 0.80097(11) 0.53228(11)
H13 H 0.6802 0.8378 0.5114
C19 C 0.3263(2) 0.65271(12) 0.21669(11)
C20 C 0.2828(3) 0.72950(13) 0.21155(13)
H14 H 0.2281 0.7369 0.1685
H15 H 0.3681 0.7591 0.2108
H16 H 0.2240 0.7420 0.2521
C21 C 0.2646(2) 0.64037(12) -0.12792(11)
H17 H 0.3180 0.6797 -0.1436
C22 C 0.3050(2) 0.60506(11) -0.06579(10)
H18 H 0.3860 0.6204 -0.0402
C23 C 0.4792(2) 0.43708(11) 0.13424(11)
H19 H 0.4273 0.4041 0.1032
H20 H 0.4720 0.4186 0.1826
C24 C 0.6391(2) 0.43733(11) 0.11240(10)
H21 H 0.6794 0.3928 0.1320
C25 C 0.7221(2) 0.49830(11) 0.15056(9)
C26 C 0.8648(2) 0.48486(12) 0.25685(11)
C27 C 0.9415(2) 0.53314(12) 0.20219(11)
H22 H 1.0473 0.5280 0.2053
C28 C 0.8966(2) 0.61188(12) 0.20480(11)
H23 H 0.9518 0.6376 0.1688
H24 H 0.9246 0.6311 0.2510
C29 C 0.8835(2) 0.50177(11) 0.13257(10)
H25 H 0.9024 0.5331 0.0922
H26 H 0.9236 0.4546 0.1230
C30 C 0.9289(3) 0.40938(13) 0.25970(12)
H27 H 0.8770 0.3813 0.2944
H28 H 1.0296 0.4121 0.2730
H29 H 0.9204 0.3872 0.2136
C31 C 0.8569(2) 0.51360(13) 0.33291(11)
H30 H 0.8098 0.5596 0.3328
H31 H 0.9534 0.5185 0.3518
H32 H 0.8025 0.4808 0.3621
C32 C 0.6612(2) 0.43184(12) 0.03117(10)
H33 H 0.6403 0.3838 0.0157
H34 H 0.7600 0.4436 0.0196
H35 H 0.5970 0.4648 0.0074
C33 C 0.65024(19) 0.60579(11) 0.06846(10)
H36 H 0.6318 0.5679 0.0341
H37 H 0.5730 0.6410 0.0643
C34 C 0.7960(2) 0.67403(11) -0.00960(11)
C35 C 0.9421(2) 0.70870(14) -0.01884(12)
H38 H 1.0128 0.6727 -0.0308
H39 H 0.9698 0.7320 0.0249
H40 H 0.9372 0.7436 -0.0565
loop_
_geom_bond_atom_site_label_1
_geom_bond_atom_site_label_2
_geom_bond_site_symmetry_1
_geom_bond_site_symmetry_2
O1 C7 1_555 1_555
O2 C11 1_555 1_555
O3 C10 1_555 1_555
O4 C19 1_555 1_555
O5 C12 1_555 1_555
O6 C25 1_555 1_555
O7 C33 1_555 1_555
O8 C34 1_555 1_555
O9 C7 1_555 1_555
C1 H1 1_555 1_555
C2 C1 1_555 1_555
H2 C2 1_555 1_555
C3 C2 1_555 1_555
H3 C3 1_555 1_555
C4 C3 1_555 1_555
C5 C4 1_555 1_555
H4 C5 1_555 1_555
C6 C5 1_555 1_555
H5 C6 1_555 1_555
C7 C6 1_555 1_555
C8 O1 1_555 1_555
H6 C8 1_555 1_555
C9 C8 1_555 1_555
C10 C9 1_555 1_555
H7 C10 1_555 1_555
C11 C10 1_555 1_555
H8 C11 1_555 1_555
C12 O2 1_555 1_555
C13 C12 1_555 1_555
C14 C13 1_555 1_555
H9 C14 1_555 1_555
C15 C14 1_555 1_555
H10 C15 1_555 1_555
C16 C15 1_555 1_555
H11 C16 1_555 1_555
C17 C1 1_555 1_555
H12 C17 1_555 1_555
C18 C4 1_555 1_555
H13 C18 1_555 1_555
C19 O3 1_555 1_555
C20 C19 1_555 1_555
H14 C20 1_555 1_555
H15 C20 1_555 1_555
H16 C20 1_555 1_555
C21 C16 1_555 1_555
H17 C21 1_555 1_555
C22 C13 1_555 1_555
H18 C22 1_555 1_555
C23 C11 1_555 1_555
H19 C23 1_555 1_555
H20 C23 1_555 1_555
C24 C23 1_555 1_555
H21 C24 1_555 1_555
C25 C9 1_555 1_555
C26 O6 1_555 1_555
C27 C26 1_555 1_555
H22 C27 1_555 1_555
C28 C8 1_555 1_555
H23 C28 1_555 1_555
H24 C28 1_555 1_555
C29 C25 1_555 1_555
H25 C29 1_555 1_555
H26 C29 1_555 1_555
C30 C26 1_555 1_555
H27 C30 1_555 1_555
H28 C30 1_555 1_555
H29 C30 1_555 1_555
C31 C26 1_555 1_555
H30 C31 1_555 1_555
H31 C31 1_555 1_555
H32 C31 1_555 1_555
C32 C24 1_555 1_555
H33 C32 1_555 1_555
H34 C32 1_555 1_555
H35 C32 1_555 1_555
C33 C9 1_555 1_555
H36 C33 1_555 1_555
H37 C33 1_555 1_555
C34 O7 1_555 1_555
C35 C34 1_555 1_555
H38 C35 1_555 1_555
H39 C35 1_555 1_555
H40 C35 1_555 1_555
C17 C18 1_555 1_555
C21 C22 1_555 1_555
C24 C25 1_555 1_555
C27 C28 1_555 1_555
C27 C29 1_555 1_555

#END
